0:0
     RDKit          3D

 42 41  0  0  0  0  0  0  0  0999 V2000
   -7.1860   18.2100  -31.6210 C   0  0  0  0  0  0  0  0  0  0  0  0
   -6.8910   18.8860  -32.9560 C   0  0  0  0  0  0  0  0  0  0  0  0
   -7.7860   20.0360  -33.1500 N   0  0  0  0  0  0  0  0  0  0  0  0
   -8.9010   20.0520  -32.1840 C   0  0  0  0  0  0  0  0  0  0  0  0
   -9.3910   21.4780  -31.8660 C   0  0  0  0  0  0  0  0  0  0  0  0
   -8.3360   22.3150  -31.1180 C   0  0  0  0  0  0  0  0  0  0  0  0
   -7.7130   23.3980  -32.0080 C   0  0  0  0  0  0  0  0  0  0  0  0
   -6.2190   23.2740  -32.0740 C   0  0  0  0  0  0  0  0  0  0  0  0
   -5.4990   24.2790  -31.8280 O   0  0  0  0  0  0  0  0  0  0  0  0
   -5.6210   22.0350  -32.4680 N   0  0  0  0  0  0  0  0  0  0  0  0
   -4.2090   21.9490  -32.8450 C   0  0  0  0  0  0  0  0  0  0  0  0
   -3.3150   21.7680  -31.6100 C   0  0  0  0  0  0  0  0  0  0  0  0
   -3.7540   22.6190  -30.4940 N   0  0  0  0  0  0  0  0  0  0  0  0
   -2.6340   23.0010  -29.6230 C   0  0  0  0  0  0  0  0  0  0  0  0
   -2.6340   24.5150  -29.4140 C   0  0  0  0  0  0  0  0  0  0  0  0
   -3.6900   25.1350  -30.2070 N   0  0  0  0  0  0  0  0  0  0  0  0
   -6.8938   18.8795  -30.7985 H   0  0  0  0  0  0  0  0  0  0  0  0
   -8.2616   17.9907  -31.5508 H   0  0  0  0  0  0  0  0  0  0  0  0
   -6.6153   17.2723  -31.5508 H   0  0  0  0  0  0  0  0  0  0  0  0
   -5.8469   19.2322  -32.9654 H   0  0  0  0  0  0  0  0  0  0  0  0
   -7.0535   18.1628  -33.7688 H   0  0  0  0  0  0  0  0  0  0  0  0
   -8.1630   20.0100  -34.1270 H   0  0  0  0  0  0  0  0  0  0  0  0
   -9.7394   19.4773  -32.6045 H   0  0  0  0  0  0  0  0  0  0  0  0
   -8.5347   19.6093  -31.2460 H   0  0  0  0  0  0  0  0  0  0  0  0
   -9.6372   21.9846  -32.8108 H   0  0  0  0  0  0  0  0  0  0  0  0
  -10.2706   21.3893  -31.2114 H   0  0  0  0  0  0  0  0  0  0  0  0
   -8.8160   22.7995  -30.2550 H   0  0  0  0  0  0  0  0  0  0  0  0
   -7.5307   21.6358  -30.8014 H   0  0  0  0  0  0  0  0  0  0  0  0
   -8.1233   23.3032  -33.0242 H   0  0  0  0  0  0  0  0  0  0  0  0
   -7.9557   24.3789  -31.5734 H   0  0  0  0  0  0  0  0  0  0  0  0
   -6.2380   21.1980  -32.5740 H   0  0  0  0  0  0  0  0  0  0  0  0
   -4.0690   21.0905  -33.5183 H   0  0  0  0  0  0  0  0  0  0  0  0
   -3.9246   22.8857  -33.3468 H   0  0  0  0  0  0  0  0  0  0  0  0
   -3.3534   20.7154  -31.2928 H   0  0  0  0  0  0  0  0  0  0  0  0
   -2.2898   22.0594  -31.8820 H   0  0  0  0  0  0  0  0  0  0  0  0
   -4.1500   23.4950  -30.9070 H   0  0  0  0  0  0  0  0  0  0  0  0
   -2.7397   22.4981  -28.6504 H   0  0  0  0  0  0  0  0  0  0  0  0
   -1.6874   22.6995  -30.0952 H   0  0  0  0  0  0  0  0  0  0  0  0
   -2.8031   24.7345  -28.3495 H   0  0  0  0  0  0  0  0  0  0  0  0
   -1.6622   24.9204  -29.7323 H   0  0  0  0  0  0  0  0  0  0  0  0
   -3.4980   24.9220  -31.2130 H   0  0  0  0  0  0  0  0  0  0  0  0
   -4.5900   24.6540  -29.9760 H   0  0  0  0  0  0  0  0  0  0  0  0
  1  2  1  0
  2  3  1  0
  3  4  1  0
  4  5  1  0
  5  6  1  0
  6  7  1  0
  7  8  1  0
  8  9  2  0
  8 10  1  0
 10 11  1  0
 11 12  1  0
 12 13  1  0
 13 14  1  0
 14 15  1  0
 15 16  1  0
  1 17  1  0
  1 18  1  0
  1 19  1  0
  2 20  1  0
  2 21  1  0
  3 22  1  0
  4 23  1  0
  4 24  1  0
  5 25  1  0
  5 26  1  0
  6 27  1  0
  6 28  1  0
  7 29  1  0
  7 30  1  0
 10 31  1  0
 11 32  1  0
 11 33  1  0
 12 34  1  0
 12 35  1  0
 13 36  1  0
 14 37  1  0
 14 38  1  0
 15 39  1  0
 15 40  1  0
 16 41  1  0
 16 42  1  0
M  END
>  <UniqueID>  (1) 
1

>  <SMILES>  (1) 
CCNCCCCC(=O)NCCNCCN

>  <Energy>  (1) 
20.352572943325665

>  <Genealogy>  (1) 
CCNCCCCC(=O)NCCNCCN (3D coordinates assigned)
CCNCCCCC(=O)NCCNCCN (optimized conformer: 20.352572943325665 kcal/mol)

>  <smiles>  (1) 
CCNCCCCC(=O)NCCNCCN

>  <score_type>  (1) 
oracle

>  <origin>  (1) 
adg

>  <m_score__min__energy>  (1) 
-4.6799999999999997

>  <m_primary>  (1) 
energy

$$$$
1:0
     RDKit          3D

 81 84  0  0  0  0  0  0  0  0999 V2000
   -0.8190   23.2810  -29.2680 C   0  0  0  0  0  0  0  0  0  0  0  0
   -2.1950   23.2040  -29.9440 C   0  0  0  0  0  0  0  0  0  0  0  0
   -3.3020   22.8080  -29.0400 N   0  0  0  0  0  0  0  0  0  0  0  0
   -3.0990   21.5510  -28.2830 C   0  0  0  0  0  0  0  0  0  0  0  0
   -2.6010   20.4250  -29.1910 C   0  0  0  0  0  0  0  0  0  0  0  0
   -3.8960   23.9240  -28.2620 C   0  0  0  0  0  0  0  0  0  0  0  0
   -4.9970   24.7090  -29.0010 C   0  0  0  0  0  0  0  0  0  0  0  0
   -4.5030   25.1080  -30.2620 O   0  0  0  0  0  0  0  0  0  0  0  0
   -5.5500   25.2270  -31.2060 C   0  0  0  0  0  0  0  0  0  0  0  0
   -5.8430   23.8730  -31.8750 C   0  0  0  0  0  0  0  0  0  0  0  0
   -5.3010   22.7260  -31.1200 N   0  0  0  0  0  0  0  0  0  0  0  0
   -5.5670   21.4530  -31.7830 C   0  0  0  0  0  0  0  0  0  0  0  0
   -6.9000   20.9630  -31.8730 C   0  0  0  0  0  0  0  0  0  0  0  0
   -7.9930   21.6590  -31.2920 C   0  0  0  0  0  0  0  0  0  0  0  0
   -9.3020   21.2140  -31.4570 C   0  0  0  0  0  0  0  0  0  0  0  0
   -9.5620   20.0780  -32.2080 C   0  0  0  0  0  0  0  0  0  0  0  0
   -8.5110   19.3540  -32.7630 C   0  0  0  0  0  0  0  0  0  0  0  0
   -7.1600   19.7470  -32.5640 C   0  0  0  0  0  0  0  0  0  0  0  0
   -6.1180   18.9780  -33.0410 N   0  0  0  0  0  0  0  0  0  0  0  0
   -6.3690   17.5790  -33.4680 C   0  0  0  0  0  0  0  0  0  0  0  0
   -4.8400   19.4930  -33.0850 C   0  0  0  0  0  0  0  0  0  0  0  0
   -3.8130   18.8370  -33.8140 C   0  0  0  0  0  0  0  0  0  0  0  0
   -2.5020   19.2960  -33.7880 C   0  0  0  0  0  0  0  0  0  0  0  0
   -2.1630   20.4210  -33.0530 C   0  0  0  0  0  0  0  0  0  0  0  0
   -0.8140   20.8030  -33.0140 O   0  0  0  0  0  0  0  0  0  0  0  0
    0.2720   19.9230  -32.7380 C   0  0  0  0  0  0  0  0  0  0  0  0
    1.5500   20.3480  -33.4990 C   0  0  0  0  0  0  0  0  0  0  0  0
    1.5690   20.0940  -34.9870 N   0  0  0  0  0  0  0  0  0  0  0  0
    1.8410   18.6610  -35.2800 C   0  0  0  0  0  0  0  0  0  0  0  0
    0.2720   20.4910  -35.6280 C   0  0  0  0  0  0  0  0  0  0  0  0
    0.2450   21.9660  -36.0880 C   0  0  0  0  0  0  0  0  0  0  0  0
    1.0840   22.7590  -35.2780 O   0  0  0  0  0  0  0  0  0  0  0  0
    2.4410   22.4120  -35.4950 C   0  0  0  0  0  0  0  0  0  0  0  0
    2.6760   20.8840  -35.6040 C   0  0  0  0  0  0  0  0  0  0  0  0
   -3.1700   21.1320  -32.3840 C   0  0  0  0  0  0  0  0  0  0  0  0
   -4.5240   20.7080  -32.4090 C   0  0  0  0  0  0  0  0  0  0  0  0
   -0.9463   23.2739  -28.1754 H   0  0  0  0  0  0  0  0  0  0  0  0
   -0.2121   22.4154  -29.5721 H   0  0  0  0  0  0  0  0  0  0  0  0
   -0.3125   24.2089  -29.5721 H   0  0  0  0  0  0  0  0  0  0  0  0
   -2.4292   24.1947  -30.3607 H   0  0  0  0  0  0  0  0  0  0  0  0
   -2.1229   22.4206  -30.7128 H   0  0  0  0  0  0  0  0  0  0  0  0
   -2.3562   21.7266  -27.4909 H   0  0  0  0  0  0  0  0  0  0  0  0
   -4.0647   21.2467  -27.8532 H   0  0  0  0  0  0  0  0  0  0  0  0
   -2.2327   19.5922  -28.5740 H   0  0  0  0  0  0  0  0  0  0  0  0
   -3.4275   20.0733  -29.8260 H   0  0  0  0  0  0  0  0  0  0  0  0
   -1.7847   20.7999  -29.8260 H   0  0  0  0  0  0  0  0  0  0  0  0
   -4.3313   23.5068  -27.3420 H   0  0  0  0  0  0  0  0  0  0  0  0
   -3.0811   24.6374  -28.0700 H   0  0  0  0  0  0  0  0  0  0  0  0
   -5.8807   24.0681  -29.1361 H   0  0  0  0  0  0  0  0  0  0  0  0
   -5.2825   25.5945  -28.4142 H   0  0  0  0  0  0  0  0  0  0  0  0
   -6.4577   25.5798  -30.6945 H   0  0  0  0  0  0  0  0  0  0  0  0
   -5.2433   25.9434  -31.9824 H   0  0  0  0  0  0  0  0  0  0  0  0
   -6.9331   23.7528  -31.9599 H   0  0  0  0  0  0  0  0  0  0  0  0
   -5.3521   23.8799  -32.8594 H   0  0  0  0  0  0  0  0  0  0  0  0
   -4.2700   22.8460  -31.0070 H   0  0  0  0  0  0  0  0  0  0  0  0
   -5.6090   22.7540  -30.1270 H   0  0  0  0  0  0  0  0  0  0  0  0
   -7.8020   22.5666  -30.7006 H   0  0  0  0  0  0  0  0  0  0  0  0
  -10.1318   21.7651  -30.9904 H   0  0  0  0  0  0  0  0  0  0  0  0
  -10.5997   19.7487  -32.3653 H   0  0  0  0  0  0  0  0  0  0  0  0
   -8.7301   18.4611  -33.3669 H   0  0  0  0  0  0  0  0  0  0  0  0
   -6.4837   16.9397  -32.5803 H   0  0  0  0  0  0  0  0  0  0  0  0
   -7.2887   17.5388  -34.0701 H   0  0  0  0  0  0  0  0  0  0  0  0
   -5.5206   17.2216  -34.0701 H   0  0  0  0  0  0  0  0  0  0  0  0
   -4.0605   17.9472  -34.4115 H   0  0  0  0  0  0  0  0  0  0  0  0
   -1.7261   18.7617  -34.3559 H   0  0  0  0  0  0  0  0  0  0  0  0
    0.4777   19.9363  -31.6575 H   0  0  0  0  0  0  0  0  0  0  0  0
   -0.0084   18.9123  -33.0695 H   0  0  0  0  0  0  0  0  0  0  0  0
    1.6868   21.4283  -33.3435 H   0  0  0  0  0  0  0  0  0  0  0  0
    2.3537   19.7193  -33.0881 H   0  0  0  0  0  0  0  0  0  0  0  0
    1.9461   18.1072  -34.3354 H   0  0  0  0  0  0  0  0  0  0  0  0
    1.0066   18.2407  -35.8606 H   0  0  0  0  0  0  0  0  0  0  0  0
    2.7714   18.5756  -35.8606 H   0  0  0  0  0  0  0  0  0  0  0  0
    0.1047   19.8484  -36.5050 H   0  0  0  0  0  0  0  0  0  0  0  0
   -0.5165   20.3710  -34.8704 H   0  0  0  0  0  0  0  0  0  0  0  0
    0.5901   22.0248  -37.1308 H   0  0  0  0  0  0  0  0  0  0  0  0
   -0.7850   22.3427  -36.0035 H   0  0  0  0  0  0  0  0  0  0  0  0
    2.7762   22.8839  -36.4304 H   0  0  0  0  0  0  0  0  0  0  0  0
    3.0102   22.7666  -34.6230 H   0  0  0  0  0  0  0  0  0  0  0  0
    2.7536   20.6132  -36.6673 H   0  0  0  0  0  0  0  0  0  0  0  0
    3.6021   20.6467  -35.0599 H   0  0  0  0  0  0  0  0  0  0  0  0
   -2.9034   22.0415  -31.8257 H   0  0  0  0  0  0  0  0  0  0  0  0
  1  2  1  0
  2  3  1  0
  3  4  1  0
  4  5  1  0
  3  6  1  0
  6  7  1  0
  7  8  1  0
  8  9  1  0
  9 10  1  0
 10 11  1  0
 11 12  1  0
 12 13  2  0
 13 14  1  0
 14 15  2  0
 15 16  1  0
 16 17  2  0
 17 18  1  0
 18 19  2  0
 19 20  1  0
 19 21  1  0
 21 22  2  0
 22 23  1  0
 23 24  2  0
 24 25  1  0
 25 26  1  0
 26 27  1  0
 27 28  1  0
 28 29  1  0
 28 30  1  0
 30 31  1  0
 31 32  1  0
 32 33  1  0
 33 34  1  0
 24 35  1  0
 35 36  2  0
 36 12  1  0
 18 13  1  0
 36 21  1  0
 34 28  1  0
  1 37  1  0
  1 38  1  0
  1 39  1  0
  2 40  1  0
  2 41  1  0
  4 42  1  0
  4 43  1  0
  5 44  1  0
  5 45  1  0
  5 46  1  0
  6 47  1  0
  6 48  1  0
  7 49  1  0
  7 50  1  0
  9 51  1  0
  9 52  1  0
 10 53  1  0
 10 54  1  0
 11 55  1  0
 11 56  1  0
 14 57  1  0
 15 58  1  0
 16 59  1  0
 17 60  1  0
 20 61  1  0
 20 62  1  0
 20 63  1  0
 22 64  1  0
 23 65  1  0
 26 66  1  0
 26 67  1  0
 27 68  1  0
 27 69  1  0
 29 70  1  0
 29 71  1  0
 29 72  1  0
 30 73  1  0
 30 74  1  0
 31 75  1  0
 31 76  1  0
 33 77  1  0
 33 78  1  0
 34 79  1  0
 34 80  1  0
 35 81  1  0
M  CHG  3  11   1  19   1  28   1
M  END
>  <UniqueID>  (2) 
2

>  <SMILES>  (2) 
CCN(CC)CCOCC[NH2+]c1c2ccccc2[n+](C)c2ccc(OCC[N+]3(C)CCOCC3)cc12

>  <Energy>  (2) 
139.25164503938453

>  <Genealogy>  (2) 
CCN(CC)CCOCC[NH2+]c1c2ccccc2[n+](C)c2ccc(OCC[N+]3(C)CCOCC3)cc12 (protonated)
CCN(CC)CCOCC[NH2+]c1c2ccccc2[n+](C)c2ccc(OCC[N+]3(C)CCOCC3)cc12 (3D coordinates assigned)
CCN(CC)CCOCC[NH2+]c1c2ccccc2[n+](C)c2ccc(OCC[N+]3(C)CCOCC3)cc12 (nonaromatic ring conformer: 139.25164503938453 kcal/mol)

>  <smiles>  (2) 
CCN(CC)CCOCCNc1c2ccccc2[n+](C)c2ccc(OCC[N+]3(C)CCOCC3)cc12

>  <score_type>  (2) 
oracle

>  <origin>  (2) 
adg

>  <m_score__min__energy>  (2) 
-7.7800000000000002

>  <m_primary>  (2) 
energy

$$$$
2:0
     RDKit          3D

 61 64  0  0  0  0  0  0  0  0999 V2000
    0.2900   21.2800  -36.0850 C   0  0  0  0  0  0  0  0  0  0  0  0
    0.9900   21.6210  -34.7730 C   0  0  0  0  0  0  0  0  0  0  0  0
    0.5170   20.7620  -33.6850 N   0  0  0  0  0  0  0  0  0  0  0  0
   -0.5950   19.8560  -33.8230 C   0  0  0  0  0  0  0  0  0  0  0  0
   -0.4050   18.4950  -34.1890 C   0  0  0  0  0  0  0  0  0  0  0  0
   -1.4980   17.6190  -34.2880 C   0  0  0  0  0  0  0  0  0  0  0  0
   -2.7710   18.1240  -34.0440 C   0  0  0  0  0  0  0  0  0  0  0  0
   -3.9230   17.4240  -34.0230 N   0  0  0  0  0  0  0  0  0  0  0  0
   -4.8770   18.3250  -33.6750 C   0  0  0  0  0  0  0  0  0  0  0  0
   -4.3350   19.5820  -33.4930 C   0  0  0  0  0  0  0  0  0  0  0  0
   -5.1200   20.6610  -33.0910 C   0  0  0  0  0  0  0  0  0  0  0  0
   -4.5910   21.9940  -33.0560 N   0  0  0  0  0  0  0  0  0  0  0  0
   -3.8790   22.5030  -31.8830 C   0  0  0  0  0  0  0  0  0  0  0  0
   -4.8180   23.2830  -30.9510 C   0  0  0  0  0  0  0  0  0  0  0  0
   -4.2680   24.6150  -30.6070 N   0  0  0  0  0  0  0  0  0  0  0  0
   -3.3280   24.5440  -29.4560 C   0  0  0  0  0  0  0  0  0  0  0  0
   -3.9820   24.1420  -28.1270 C   0  0  0  0  0  0  0  0  0  0  0  0
   -5.3400   25.6250  -30.4370 C   0  0  0  0  0  0  0  0  0  0  0  0
   -6.6800   24.9810  -30.0770 C   0  0  0  0  0  0  0  0  0  0  0  0
   -6.4650   20.3910  -32.7440 C   0  0  0  0  0  0  0  0  0  0  0  0
   -7.2900   21.4020  -32.2150 C   0  0  0  0  0  0  0  0  0  0  0  0
   -8.6100   21.1340  -31.8630 C   0  0  0  0  0  0  0  0  0  0  0  0
   -9.1270   19.8530  -32.0140 C   0  0  0  0  0  0  0  0  0  0  0  0
   -8.3340   18.8270  -32.5300 C   0  0  0  0  0  0  0  0  0  0  0  0
   -6.9960   19.0670  -32.9240 C   0  0  0  0  0  0  0  0  0  0  0  0
   -6.2040   18.0600  -33.4590 N   0  0  0  0  0  0  0  0  0  0  0  0
   -6.7510   16.7250  -33.7620 C   0  0  0  0  0  0  0  0  0  0  0  0
   -2.9730   19.4470  -33.7180 C   0  0  0  0  0  0  0  0  0  0  0  0
   -1.9010   20.3300  -33.5700 C   0  0  0  0  0  0  0  0  0  0  0  0
   -0.6800   20.8075  -35.8710 H   0  0  0  0  0  0  0  0  0  0  0  0
    0.1293   22.2008  -36.6650 H   0  0  0  0  0  0  0  0  0  0  0  0
    0.9160   20.5859  -36.6650 H   0  0  0  0  0  0  0  0  0  0  0  0
    2.0739   21.4802  -34.8968 H   0  0  0  0  0  0  0  0  0  0  0  0
    0.7631   22.6665  -34.5170 H   0  0  0  0  0  0  0  0  0  0  0  0
    1.0030   20.8050  -32.7600 H   0  0  0  0  0  0  0  0  0  0  0  0
    0.6096   18.1243  -34.3969 H   0  0  0  0  0  0  0  0  0  0  0  0
   -1.3514   16.5612  -34.5516 H   0  0  0  0  0  0  0  0  0  0  0  0
   -4.0140   16.3960  -34.1740 H   0  0  0  0  0  0  0  0  0  0  0  0
   -4.5720   22.5590  -33.9380 H   0  0  0  0  0  0  0  0  0  0  0  0
   -3.4491   21.6550  -31.3297 H   0  0  0  0  0  0  0  0  0  0  0  0
   -3.0885   23.1858  -32.2278 H   0  0  0  0  0  0  0  0  0  0  0  0
   -5.7877   23.4167  -31.4528 H   0  0  0  0  0  0  0  0  0  0  0  0
   -4.9313   22.7084  -30.0199 H   0  0  0  0  0  0  0  0  0  0  0  0
   -2.5487   23.8048  -29.6934 H   0  0  0  0  0  0  0  0  0  0  0  0
   -2.9278   25.5588  -29.3146 H   0  0  0  0  0  0  0  0  0  0  0  0
   -3.3732   24.5162  -27.2908 H   0  0  0  0  0  0  0  0  0  0  0  0
   -4.9911   24.5760  -28.0689 H   0  0  0  0  0  0  0  0  0  0  0  0
   -4.0505   23.0457  -28.0689 H   0  0  0  0  0  0  0  0  0  0  0  0
   -5.0512   26.3179  -29.6329 H   0  0  0  0  0  0  0  0  0  0  0  0
   -5.4630   26.1552  -31.3929 H   0  0  0  0  0  0  0  0  0  0  0  0
   -6.7812   24.9324  -28.9827 H   0  0  0  0  0  0  0  0  0  0  0  0
   -7.5002   25.5833  -30.4947 H   0  0  0  0  0  0  0  0  0  0  0  0
   -6.7221   23.9643  -30.4947 H   0  0  0  0  0  0  0  0  0  0  0  0
   -6.8865   22.4161  -32.0782 H   0  0  0  0  0  0  0  0  0  0  0  0
   -9.2455   21.9385  -31.4643 H   0  0  0  0  0  0  0  0  0  0  0  0
  -10.1680   19.6463  -31.7250 H   0  0  0  0  0  0  0  0  0  0  0  0
   -8.7555   17.8161  -32.6321 H   0  0  0  0  0  0  0  0  0  0  0  0
   -6.9679   16.1957  -32.8224 H   0  0  0  0  0  0  0  0  0  0  0  0
   -7.6777   16.8321  -34.3448 H   0  0  0  0  0  0  0  0  0  0  0  0
   -6.0156   16.1510  -34.3448 H   0  0  0  0  0  0  0  0  0  0  0  0
   -2.0704   21.3726  -33.2629 H   0  0  0  0  0  0  0  0  0  0  0  0
  1  2  1  0
  2  3  1  0
  3  4  1  0
  4  5  2  0
  5  6  1  0
  6  7  2  0
  7  8  1  0
  8  9  1  0
  9 10  2  0
 10 11  1  0
 11 12  1  0
 12 13  1  0
 13 14  1  0
 14 15  1  0
 15 16  1  0
 16 17  1  0
 15 18  1  0
 18 19  1  0
 11 20  2  0
 20 21  1  0
 21 22  2  0
 22 23  1  0
 23 24  2  0
 24 25  1  0
 25 26  2  0
 26 27  1  0
 10 28  1  0
 28 29  2  0
 29  4  1  0
 28  7  1  0
 26  9  1  0
 25 20  1  0
  1 30  1  0
  1 31  1  0
  1 32  1  0
  2 33  1  0
  2 34  1  0
  3 35  1  0
  5 36  1  0
  6 37  1  0
  8 38  1  0
 12 39  1  0
 13 40  1  0
 13 41  1  0
 14 42  1  0
 14 43  1  0
 16 44  1  0
 16 45  1  0
 17 46  1  0
 17 47  1  0
 17 48  1  0
 18 49  1  0
 18 50  1  0
 19 51  1  0
 19 52  1  0
 19 53  1  0
 21 54  1  0
 22 55  1  0
 23 56  1  0
 24 57  1  0
 27 58  1  0
 27 59  1  0
 27 60  1  0
 29 61  1  0
M  CHG  1  26   1
M  END
>  <UniqueID>  (3) 
3

>  <SMILES>  (3) 
CCNc1ccc2[nH]c3c(c(NCCN(CC)CC)c4ccccc4[n+]3C)c2c1

>  <Energy>  (3) 
116.66072518060683

>  <Genealogy>  (3) 
CCNc1ccc2[nH]c3c(c(NCCN(CC)CC)c4ccccc4[n+]3C)c2c1 (3D coordinates assigned)
CCNc1ccc2[nH]c3c(c(NCCN(CC)CC)c4ccccc4[n+]3C)c2c1 (optimized conformer: 116.66072518060683 kcal/mol)

>  <smiles>  (3) 
CCNc1ccc2[nH]c3c(c(NCCN(CC)CC)c4ccccc4[n+]3C)c2c1

>  <score_type>  (3) 
oracle

>  <origin>  (3) 
adg

>  <m_score__min__energy>  (3) 
-9.1400000000000006

>  <m_primary>  (3) 
energy

$$$$
3:0
     RDKit          3D

 46 47  0  0  0  0  0  0  0  0999 V2000
   -4.6220   13.1060  -31.0180 C   0  0  0  0  0  0  0  0  0  0  0  0
   -3.9930   13.9460  -32.1290 C   0  0  0  0  0  0  0  0  0  0  0  0
   -4.9440   15.0320  -32.6620 C   0  0  0  0  0  0  0  0  0  0  0  0
   -5.6970   14.6050  -33.8600 N   0  0  0  0  0  0  0  0  0  0  0  0
   -6.8250   15.4940  -34.1680 C   0  0  0  0  0  0  0  0  0  0  0  0
   -6.4800   16.9190  -33.8230 C   0  0  0  0  0  0  0  0  0  0  0  0
   -5.4880   17.6040  -34.5350 C   0  0  0  0  0  0  0  0  0  0  0  0
   -5.1820   18.9290  -34.2220 C   0  0  0  0  0  0  0  0  0  0  0  0
   -5.8670   19.5930  -33.1860 C   0  0  0  0  0  0  0  0  0  0  0  0
   -5.5890   20.9240  -32.8320 O   0  0  0  0  0  0  0  0  0  0  0  0
   -4.6560   21.3450  -31.8370 C   0  0  0  0  0  0  0  0  0  0  0  0
   -4.2830   22.8200  -32.0170 C   0  0  0  0  0  0  0  0  0  0  0  0
   -5.1640   23.6780  -31.2210 N   0  0  0  0  0  0  0  0  0  0  0  0
   -4.8030   24.7750  -30.5260 C   0  0  0  0  0  0  0  0  0  0  0  0
   -3.5150   25.2980  -30.5060 O   0  0  0  0  0  0  0  0  0  0  0  0
   -5.8760   25.3030  -29.8380 C   0  0  0  0  0  0  0  0  0  0  0  0
   -6.9530   24.4840  -30.1200 C   0  0  0  0  0  0  0  0  0  0  0  0
   -6.4790   23.4990  -30.9650 C   0  0  0  0  0  0  0  0  0  0  0  0
   -7.2570   22.4610  -31.4750 O   0  0  0  0  0  0  0  0  0  0  0  0
   -6.8680   18.9150  -32.4730 C   0  0  0  0  0  0  0  0  0  0  0  0
   -7.5340   19.6040  -31.4460 O   0  0  0  0  0  0  0  0  0  0  0  0
   -8.8970   20.0100  -31.4990 C   0  0  0  0  0  0  0  0  0  0  0  0
   -7.1710   17.5780  -32.7960 C   0  0  0  0  0  0  0  0  0  0  0  0
   -4.3210   13.5080  -30.0393 H   0  0  0  0  0  0  0  0  0  0  0  0
   -5.7178   13.1411  -31.1075 H   0  0  0  0  0  0  0  0  0  0  0  0
   -4.2799   12.0644  -31.1075 H   0  0  0  0  0  0  0  0  0  0  0  0
   -3.0892   14.4326  -31.7337 H   0  0  0  0  0  0  0  0  0  0  0  0
   -3.7582   13.2702  -32.9646 H   0  0  0  0  0  0  0  0  0  0  0  0
   -5.6626   15.2880  -31.8695 H   0  0  0  0  0  0  0  0  0  0  0  0
   -4.3270   15.8951  -32.9523 H   0  0  0  0  0  0  0  0  0  0  0  0
   -6.0550   13.6280  -33.7470 H   0  0  0  0  0  0  0  0  0  0  0  0
   -7.0568   15.4269  -35.2412 H   0  0  0  0  0  0  0  0  0  0  0  0
   -7.6965   15.1838  -33.5729 H   0  0  0  0  0  0  0  0  0  0  0  0
   -4.9466   17.0947  -35.3459 H   0  0  0  0  0  0  0  0  0  0  0  0
   -4.4010   19.4581  -34.7879 H   0  0  0  0  0  0  0  0  0  0  0  0
   -5.1053   21.2072  -30.8424 H   0  0  0  0  0  0  0  0  0  0  0  0
   -3.7429   20.7398  -31.9370 H   0  0  0  0  0  0  0  0  0  0  0  0
   -3.2427   22.9714  -31.6933 H   0  0  0  0  0  0  0  0  0  0  0  0
   -4.3951   23.0860  -33.0784 H   0  0  0  0  0  0  0  0  0  0  0  0
   -5.8746   26.1955  -29.1950 H   0  0  0  0  0  0  0  0  0  0  0  0
   -7.9817   24.5943  -29.7464 H   0  0  0  0  0  0  0  0  0  0  0  0
   -6.8430   21.6160  -31.8450 H   0  0  0  0  0  0  0  0  0  0  0  0
   -9.2852   20.1256  -30.4763 H   0  0  0  0  0  0  0  0  0  0  0  0
   -8.9733   20.9699  -32.0308 H   0  0  0  0  0  0  0  0  0  0  0  0
   -9.4861   19.2483  -32.0308 H   0  0  0  0  0  0  0  0  0  0  0  0
   -7.9560   17.0464  -32.2382 H   0  0  0  0  0  0  0  0  0  0  0  0
  1  2  1  0
  2  3  1  0
  3  4  1  0
  4  5  1  0
  5  6  1  0
  6  7  2  0
  7  8  1  0
  8  9  2  0
  9 10  1  0
 10 11  1  0
 11 12  1  0
 12 13  1  0
 13 14  1  0
 14 15  1  0
 14 16  2  0
 16 17  1  0
 17 18  2  0
 18 19  1  0
  9 20  1  0
 20 21  1  0
 21 22  1  0
 20 23  2  0
 23  6  1  0
 18 13  1  0
  1 24  1  0
  1 25  1  0
  1 26  1  0
  2 27  1  0
  2 28  1  0
  3 29  1  0
  3 30  1  0
  4 31  1  0
  5 32  1  0
  5 33  1  0
  7 34  1  0
  8 35  1  0
 11 36  1  0
 11 37  1  0
 12 38  1  0
 12 39  1  0
 16 40  1  0
 17 41  1  0
 19 42  1  0
 22 43  1  0
 22 44  1  0
 22 45  1  0
 23 46  1  0
M  CHG  1  15  -1
M  END
>  <UniqueID>  (4) 
4

>  <SMILES>  (4) 
CCCNCc1ccc(OCCn2c([O-])ccc2O)c(OC)c1

>  <Energy>  (4) 
67.3680565457594

>  <Genealogy>  (4) 
CCCNCc1ccc(OCCn2c([O-])ccc2O)c(OC)c1 (protonated)
CCCNCc1ccc(OCCn2c([O-])ccc2O)c(OC)c1 (3D coordinates assigned)
CCCNCc1ccc(OCCn2c([O-])ccc2O)c(OC)c1 (optimized conformer: 67.3680565457594 kcal/mol)

>  <smiles>  (4) 
CCCNCc1ccc(OCCn2c(O)ccc2O)c(OC)c1

>  <score_type>  (4) 
oracle

>  <origin>  (4) 
adg

>  <m_score__min__energy>  (4) 
-9.3699999999999992

>  <m_primary>  (4) 
energy

$$$$
4:0
     RDKit          3D

 38 40  0  0  0  0  0  0  0  0999 V2000
   -2.8690   19.6910  -33.7550 C   0  0  0  0  0  0  0  0  0  0  0  0
   -2.9570   21.1870  -33.4620 C   0  0  0  0  0  0  0  0  0  0  0  0
   -3.4630   21.4210  -32.1060 N   0  0  0  0  0  0  0  0  0  0  0  0
   -2.6500   21.0830  -30.9380 C   0  0  0  0  0  0  0  0  0  0  0  0
   -4.8450   21.7490  -31.9120 C   0  0  0  0  0  0  0  0  0  0  0  0
   -5.7970   20.8750  -32.3330 N   0  0  0  0  0  0  0  0  0  0  0  0
   -7.1200   21.1230  -32.1480 C   0  0  0  0  0  0  0  0  0  0  0  0
   -8.3330   19.9300  -32.6920 S   0  0  0  0  0  0  0  0  0  0  0  0
   -7.0780   18.6920  -33.0150 C   0  0  0  0  0  0  0  0  0  0  0  0
   -6.7170   17.7880  -32.0100 C   0  0  0  0  0  0  0  0  0  0  0  0
   -5.7500   16.8180  -32.2790 C   0  0  0  0  0  0  0  0  0  0  0  0
   -5.1550   16.7630  -33.5410 C   0  0  0  0  0  0  0  0  0  0  0  0
   -5.5390   17.6840  -34.5190 C   0  0  0  0  0  0  0  0  0  0  0  0
   -6.4860   18.6220  -34.2410 N   0  0  0  0  0  0  0  0  0  0  0  0
   -7.5200   22.2630  -31.5300 N   0  0  0  0  0  0  0  0  0  0  0  0
   -6.6140   23.1780  -31.0950 C   0  0  0  0  0  0  0  0  0  0  0  0
   -7.0500   24.3480  -30.4640 C   0  0  0  0  0  0  0  0  0  0  0  0
   -6.1190   25.2950  -30.0230 C   0  0  0  0  0  0  0  0  0  0  0  0
   -4.7510   25.0770  -30.2160 C   0  0  0  0  0  0  0  0  0  0  0  0
   -4.3050   23.9090  -30.8440 C   0  0  0  0  0  0  0  0  0  0  0  0
   -5.2330   22.9450  -31.2800 C   0  0  0  0  0  0  0  0  0  0  0  0
   -2.8362   19.1331  -32.8075 H   0  0  0  0  0  0  0  0  0  0  0  0
   -3.7503   19.3784  -34.3343 H   0  0  0  0  0  0  0  0  0  0  0  0
   -1.9571   19.4838  -34.3343 H   0  0  0  0  0  0  0  0  0  0  0  0
   -1.9557   21.6327  -33.5556 H   0  0  0  0  0  0  0  0  0  0  0  0
   -3.6491   21.6481  -34.1820 H   0  0  0  0  0  0  0  0  0  0  0  0
   -3.2109   21.3162  -30.0209 H   0  0  0  0  0  0  0  0  0  0  0  0
   -2.4086   20.0100  -30.9573 H   0  0  0  0  0  0  0  0  0  0  0  0
   -1.7191   21.6686  -30.9573 H   0  0  0  0  0  0  0  0  0  0  0  0
   -7.1902   17.8411  -31.0184 H   0  0  0  0  0  0  0  0  0  0  0  0
   -5.4576   16.0992  -31.4993 H   0  0  0  0  0  0  0  0  0  0  0  0
   -4.3919   16.0025  -33.7629 H   0  0  0  0  0  0  0  0  0  0  0  0
   -5.0752   17.6512  -35.5159 H   0  0  0  0  0  0  0  0  0  0  0  0
   -6.7560   19.3040  -34.9840 H   0  0  0  0  0  0  0  0  0  0  0  0
   -8.1255   24.5236  -30.3144 H   0  0  0  0  0  0  0  0  0  0  0  0
   -6.4637   26.2125  -29.5236 H   0  0  0  0  0  0  0  0  0  0  0  0
   -4.0229   25.8267  -29.8727 H   0  0  0  0  0  0  0  0  0  0  0  0
   -3.2283   23.7441  -30.9971 H   0  0  0  0  0  0  0  0  0  0  0  0
  1  2  1  0
  2  3  1  0
  3  4  1  0
  3  5  1  0
  5  6  2  0
  6  7  1  0
  7  8  1  0
  8  9  1  0
  9 10  2  0
 10 11  1  0
 11 12  2  0
 12 13  1  0
 13 14  2  0
  7 15  2  0
 15 16  1  0
 16 17  2  0
 17 18  1  0
 18 19  2  0
 19 20  1  0
 20 21  2  0
 21  5  1  0
 14  9  1  0
 21 16  1  0
  1 22  1  0
  1 23  1  0
  1 24  1  0
  2 25  1  0
  2 26  1  0
  4 27  1  0
  4 28  1  0
  4 29  1  0
 10 30  1  0
 11 31  1  0
 12 32  1  0
 13 33  1  0
 14 34  1  0
 17 35  1  0
 18 36  1  0
 19 37  1  0
 20 38  1  0
M  CHG  1  14   1
M  END
>  <UniqueID>  (5) 
5

>  <SMILES>  (5) 
CCN(C)c1nc(Sc2cccc[nH+]2)nc2ccccc12

>  <Energy>  (5) 
41.03042229231598

>  <Genealogy>  (5) 
CCN(C)c1nc(Sc2cccc[nH+]2)nc2ccccc12 (protonated)
CCN(C)c1nc(Sc2cccc[nH+]2)nc2ccccc12 (3D coordinates assigned)
CCN(C)c1nc(Sc2cccc[nH+]2)nc2ccccc12 (optimized conformer: 41.03042229231598 kcal/mol)

>  <smiles>  (5) 
CCN(C)c1nc(Sc2ccccn2)nc2ccccc12

>  <score_type>  (5) 
oracle

>  <origin>  (5) 
adg

>  <m_score__min__energy>  (5) 
-7.0099999999999998

>  <m_primary>  (5) 
energy

$$$$
5:0
     RDKit          3D

 55 57  0  0  0  0  0  0  0  0999 V2000
    1.7330   24.5110  -36.0070 C   0  0  0  0  0  0  0  0  0  0  0  0
    0.3060   23.9580  -36.0930 C   0  0  0  0  0  0  0  0  0  0  0  0
    0.1500   22.6880  -35.3640 N   0  0  0  0  0  0  0  0  0  0  0  0
    0.6550   21.5410  -36.1290 C   0  0  0  0  0  0  0  0  0  0  0  0
    0.4460   20.2400  -35.3430 C   0  0  0  0  0  0  0  0  0  0  0  0
   -0.0270   20.4860  -33.9040 C   0  0  0  0  0  0  0  0  0  0  0  0
   -1.4600   20.8070  -33.8760 N   0  0  0  0  0  0  0  0  0  0  0  0
   -1.9180   20.9730  -32.4930 C   0  0  0  0  0  0  0  0  0  0  0  0
   -3.1320   21.9130  -32.4560 C   0  0  0  0  0  0  0  0  0  0  0  0
   -4.0420   21.7050  -33.6000 N   0  0  0  0  0  0  0  0  0  0  0  0
   -5.1850   20.8710  -33.2450 C   0  0  0  0  0  0  0  0  0  0  0  0
   -6.3340   21.4560  -32.6400 C   0  0  0  0  0  0  0  0  0  0  0  0
   -6.4010   22.8440  -32.3520 C   0  0  0  0  0  0  0  0  0  0  0  0
   -7.5560   23.4190  -31.8310 C   0  0  0  0  0  0  0  0  0  0  0  0
   -8.6760   22.6370  -31.5920 C   0  0  0  0  0  0  0  0  0  0  0  0
   -8.6330   21.2670  -31.8330 C   0  0  0  0  0  0  0  0  0  0  0  0
   -7.4540   20.6400  -32.3160 C   0  0  0  0  0  0  0  0  0  0  0  0
   -7.3900   19.2730  -32.4790 N   0  0  0  0  0  0  0  0  0  0  0  0
   -8.4110   18.4050  -31.8440 C   0  0  0  0  0  0  0  0  0  0  0  0
   -6.3580   18.7060  -33.1980 C   0  0  0  0  0  0  0  0  0  0  0  0
   -6.4190   17.3530  -33.6210 C   0  0  0  0  0  0  0  0  0  0  0  0
   -5.3500   16.7480  -34.2680 C   0  0  0  0  0  0  0  0  0  0  0  0
   -4.1930   17.4690  -34.5220 C   0  0  0  0  0  0  0  0  0  0  0  0
   -2.8320   16.6880  -35.3090 Cl  0  0  0  0  0  0  0  0  0  0  0  0
   -4.1190   18.8150  -34.1690 C   0  0  0  0  0  0  0  0  0  0  0  0
   -5.2080   19.4760  -33.5410 C   0  0  0  0  0  0  0  0  0  0  0  0
    2.0201   24.6223  -34.9510 H   0  0  0  0  0  0  0  0  0  0  0  0
    2.4260   23.8163  -36.5042 H   0  0  0  0  0  0  0  0  0  0  0  0
    1.7769   25.4913  -36.5042 H   0  0  0  0  0  0  0  0  0  0  0  0
   -0.3859   24.6982  -35.6647 H   0  0  0  0  0  0  0  0  0  0  0  0
    0.0850   23.7649  -37.1531 H   0  0  0  0  0  0  0  0  0  0  0  0
   -0.8640   22.5360  -35.1490 H   0  0  0  0  0  0  0  0  0  0  0  0
    0.1153   21.4773  -37.0854 H   0  0  0  0  0  0  0  0  0  0  0  0
    1.7311   21.6792  -36.3106 H   0  0  0  0  0  0  0  0  0  0  0  0
   -0.3096   19.6326  -35.8627 H   0  0  0  0  0  0  0  0  0  0  0  0
    1.4164   19.7248  -35.2899 H   0  0  0  0  0  0  0  0  0  0  0  0
    0.1520   19.5807  -33.3054 H   0  0  0  0  0  0  0  0  0  0  0  0
    0.5339   21.3359  -33.4879 H   0  0  0  0  0  0  0  0  0  0  0  0
   -1.5920   21.7200  -34.3720 H   0  0  0  0  0  0  0  0  0  0  0  0
   -2.2024   19.9929  -32.0824 H   0  0  0  0  0  0  0  0  0  0  0  0
   -1.1054   21.4056  -31.8909 H   0  0  0  0  0  0  0  0  0  0  0  0
   -3.6891   21.7335  -31.5247 H   0  0  0  0  0  0  0  0  0  0  0  0
   -2.7573   22.9458  -32.5099 H   0  0  0  0  0  0  0  0  0  0  0  0
   -4.3750   22.6310  -33.9480 H   0  0  0  0  0  0  0  0  0  0  0  0
   -3.5100   21.3560  -34.4240 H   0  0  0  0  0  0  0  0  0  0  0  0
   -5.5227   23.4777  -32.5444 H   0  0  0  0  0  0  0  0  0  0  0  0
   -7.5807   24.4959  -31.6083 H   0  0  0  0  0  0  0  0  0  0  0  0
   -9.5987   23.0997  -31.2118 H   0  0  0  0  0  0  0  0  0  0  0  0
   -9.5297   20.6580  -31.6457 H   0  0  0  0  0  0  0  0  0  0  0  0
   -8.3251   18.4780  -30.7498 H   0  0  0  0  0  0  0  0  0  0  0  0
   -9.4144   18.7308  -32.1556 H   0  0  0  0  0  0  0  0  0  0  0  0
   -8.2509   17.3623  -32.1556 H   0  0  0  0  0  0  0  0  0  0  0  0
   -7.3330   16.7709  -33.4322 H   0  0  0  0  0  0  0  0  0  0  0  0
   -5.4209   15.6954  -34.5795 H   0  0  0  0  0  0  0  0  0  0  0  0
   -3.1978   19.3774  -34.3812 H   0  0  0  0  0  0  0  0  0  0  0  0
  1  2  1  0
  2  3  1  0
  3  4  1  0
  4  5  1  0
  5  6  1  0
  6  7  1  0
  7  8  1  0
  8  9  1  0
  9 10  1  0
 10 11  1  0
 11 12  2  0
 12 13  1  0
 13 14  2  0
 14 15  1  0
 15 16  2  0
 16 17  1  0
 17 18  2  0
 18 19  1  0
 18 20  1  0
 20 21  2  0
 21 22  1  0
 22 23  2  0
 23 24  1  0
 23 25  1  0
 25 26  2  0
 26 11  1  0
 17 12  1  0
 26 20  1  0
  1 27  1  0
  1 28  1  0
  1 29  1  0
  2 30  1  0
  2 31  1  0
  3 32  1  0
  4 33  1  0
  4 34  1  0
  5 35  1  0
  5 36  1  0
  6 37  1  0
  6 38  1  0
  7 39  1  0
  8 40  1  0
  8 41  1  0
  9 42  1  0
  9 43  1  0
 10 44  1  0
 10 45  1  0
 13 46  1  0
 14 47  1  0
 15 48  1  0
 16 49  1  0
 19 50  1  0
 19 51  1  0
 19 52  1  0
 21 53  1  0
 22 54  1  0
 25 55  1  0
M  CHG  2  10   1  18   1
M  END
>  <UniqueID>  (6) 
6

>  <SMILES>  (6) 
CCNCCCNCC[NH2+]c1c2ccccc2[n+](C)c2ccc(Cl)cc12

>  <Energy>  (6) 
77.18079232690381

>  <Genealogy>  (6) 
CCNCCCNCC[NH2+]c1c2ccccc2[n+](C)c2ccc(Cl)cc12 (protonated)
CCNCCCNCC[NH2+]c1c2ccccc2[n+](C)c2ccc(Cl)cc12 (3D coordinates assigned)
CCNCCCNCC[NH2+]c1c2ccccc2[n+](C)c2ccc(Cl)cc12 (optimized conformer: 77.18079232690381 kcal/mol)

>  <smiles>  (6) 
CCNCCCNCCNc1c2ccccc2[n+](C)c2ccc(Cl)cc12

>  <score_type>  (6) 
oracle

>  <origin>  (6) 
adg

>  <m_score__min__energy>  (6) 
-8.7699999999999996

>  <m_primary>  (6) 
energy

$$$$
6:0
     RDKit          3D

 54 56  0  0  0  0  0  0  0  0999 V2000
   -6.1190   25.6480  -29.5590 C   0  0  0  0  0  0  0  0  0  0  0  0
   -5.2890   25.6720  -30.8470 C   0  0  0  0  0  0  0  0  0  0  0  0
   -4.0170   24.9420  -30.7020 N   0  0  0  0  0  0  0  0  0  0  0  0
   -3.7540   24.5160  -29.3170 C   0  0  0  0  0  0  0  0  0  0  0  0
   -2.4160   23.7690  -29.2120 C   0  0  0  0  0  0  0  0  0  0  0  0
   -2.4830   22.3030  -29.6880 C   0  0  0  0  0  0  0  0  0  0  0  0
   -3.4530   22.0830  -30.7800 N   0  0  0  0  0  0  0  0  0  0  0  0
   -3.1800   20.8640  -31.5560 C   0  0  0  0  0  0  0  0  0  0  0  0
   -2.9610   21.1950  -33.0350 C   0  0  0  0  0  0  0  0  0  0  0  0
   -4.2470   21.3600  -33.7080 N   0  0  0  0  0  0  0  0  0  0  0  0
   -5.4060   20.6340  -33.2630 C   0  0  0  0  0  0  0  0  0  0  0  0
   -6.4150   21.2920  -32.5360 C   0  0  0  0  0  0  0  0  0  0  0  0
   -6.2940   22.6590  -32.2070 C   0  0  0  0  0  0  0  0  0  0  0  0
   -7.2660   23.2930  -31.4400 C   0  0  0  0  0  0  0  0  0  0  0  0
   -8.3610   22.5770  -30.9720 C   0  0  0  0  0  0  0  0  0  0  0  0
   -8.5060   21.2280  -31.2930 C   0  0  0  0  0  0  0  0  0  0  0  0
   -7.5570   20.5630  -32.1100 C   0  0  0  0  0  0  0  0  0  0  0  0
   -7.7140   19.2380  -32.4780 N   0  0  0  0  0  0  0  0  0  0  0  0
   -9.0190   18.5670  -32.2940 C   0  0  0  0  0  0  0  0  0  0  0  0
   -6.6600   18.5500  -33.0520 C   0  0  0  0  0  0  0  0  0  0  0  0
   -6.6850   17.1400  -33.2060 C   0  0  0  0  0  0  0  0  0  0  0  0
   -5.6470   16.4660  -33.8550 C   0  0  0  0  0  0  0  0  0  0  0  0
   -5.7110   14.7220  -34.0440 Cl  0  0  0  0  0  0  0  0  0  0  0  0
   -4.5610   17.1760  -34.3530 C   0  0  0  0  0  0  0  0  0  0  0  0
   -4.4870   18.5540  -34.1740 C   0  0  0  0  0  0  0  0  0  0  0  0
   -5.5090   19.2510  -33.4960 C   0  0  0  0  0  0  0  0  0  0  0  0
   -5.4463   25.6675  -28.6889 H   0  0  0  0  0  0  0  0  0  0  0  0
   -6.7792   26.5274  -29.5318 H   0  0  0  0  0  0  0  0  0  0  0  0
   -6.7273   24.7319  -29.5318 H   0  0  0  0  0  0  0  0  0  0  0  0
   -5.8741   25.2076  -31.6544 H   0  0  0  0  0  0  0  0  0  0  0  0
   -5.0524   26.7213  -31.0773 H   0  0  0  0  0  0  0  0  0  0  0  0
   -4.0160   24.1010  -31.3270 H   0  0  0  0  0  0  0  0  0  0  0  0
   -3.7215   25.4037  -28.6683 H   0  0  0  0  0  0  0  0  0  0  0  0
   -4.5591   23.8358  -29.0022 H   0  0  0  0  0  0  0  0  0  0  0  0
   -1.6734   24.2995  -29.8260 H   0  0  0  0  0  0  0  0  0  0  0  0
   -2.1432   23.7480  -28.1466 H   0  0  0  0  0  0  0  0  0  0  0  0
   -1.4852   22.0061  -30.0433 H   0  0  0  0  0  0  0  0  0  0  0  0
   -2.8169   21.6991  -28.8314 H   0  0  0  0  0  0  0  0  0  0  0  0
   -3.4630   22.9020  -31.4310 H   0  0  0  0  0  0  0  0  0  0  0  0
   -2.2767   20.3786  -31.1581 H   0  0  0  0  0  0  0  0  0  0  0  0
   -4.0467   20.1919  -31.4710 H   0  0  0  0  0  0  0  0  0  0  0  0
   -2.3847   22.1283  -33.1175 H   0  0  0  0  0  0  0  0  0  0  0  0
   -2.4088   20.3710  -33.5105 H   0  0  0  0  0  0  0  0  0  0  0  0
   -4.4000   22.2290  -34.2690 H   0  0  0  0  0  0  0  0  0  0  0  0
   -5.4222   23.2290  -32.5607 H   0  0  0  0  0  0  0  0  0  0  0  0
   -7.1676   24.3628  -31.2036 H   0  0  0  0  0  0  0  0  0  0  0  0
   -9.1157   23.0760  -30.3464 H   0  0  0  0  0  0  0  0  0  0  0  0
   -9.3714   20.6701  -30.9058 H   0  0  0  0  0  0  0  0  0  0  0  0
   -9.2278   18.4596  -31.2193 H   0  0  0  0  0  0  0  0  0  0  0  0
   -9.8106   19.1699  -32.7629 H   0  0  0  0  0  0  0  0  0  0  0  0
   -8.9892   17.5724  -32.7629 H   0  0  0  0  0  0  0  0  0  0  0  0
   -7.5358   16.5676  -32.8079 H   0  0  0  0  0  0  0  0  0  0  0  0
   -3.7588   16.6479  -34.8894 H   0  0  0  0  0  0  0  0  0  0  0  0
   -3.6206   19.1068  -34.5662 H   0  0  0  0  0  0  0  0  0  0  0  0
  1  2  1  0
  2  3  1  0
  3  4  1  0
  4  5  1  0
  5  6  1  0
  6  7  1  0
  7  8  1  0
  8  9  1  0
  9 10  1  0
 10 11  1  0
 11 12  2  0
 12 13  1  0
 13 14  2  0
 14 15  1  0
 15 16  2  0
 16 17  1  0
 17 18  2  0
 18 19  1  0
 18 20  1  0
 20 21  2  0
 21 22  1  0
 22 23  1  0
 22 24  2  0
 24 25  1  0
 25 26  2  0
 26 11  1  0
 17 12  1  0
 26 20  1  0
  1 27  1  0
  1 28  1  0
  1 29  1  0
  2 30  1  0
  2 31  1  0
  3 32  1  0
  4 33  1  0
  4 34  1  0
  5 35  1  0
  5 36  1  0
  6 37  1  0
  6 38  1  0
  7 39  1  0
  8 40  1  0
  8 41  1  0
  9 42  1  0
  9 43  1  0
 10 44  1  0
 13 45  1  0
 14 46  1  0
 15 47  1  0
 16 48  1  0
 19 49  1  0
 19 50  1  0
 19 51  1  0
 21 52  1  0
 24 53  1  0
 25 54  1  0
M  CHG  1  18   1
M  END
>  <UniqueID>  (7) 
7

>  <SMILES>  (7) 
CCNCCCNCCNc1c2ccccc2[n+](C)c2cc(Cl)ccc12

>  <Energy>  (7) 
76.86532340221123

>  <Genealogy>  (7) 
CCNCCCNCCNc1c2ccccc2[n+](C)c2cc(Cl)ccc12 (3D coordinates assigned)
CCNCCCNCCNc1c2ccccc2[n+](C)c2cc(Cl)ccc12 (optimized conformer: 76.86532340221123 kcal/mol)

>  <smiles>  (7) 
CCNCCCNCCNc1c2ccccc2[n+](C)c2cc(Cl)ccc12

>  <score_type>  (7) 
oracle

>  <origin>  (7) 
adg

>  <m_score__min__energy>  (7) 
-9.8599999999999994

>  <m_primary>  (7) 
energy

$$$$
7:0
     RDKit          3D

 51 53  0  0  0  0  0  0  0  0999 V2000
   -3.3260   24.3080  -27.4110 C   0  0  0  0  0  0  0  0  0  0  0  0
   -2.3290   24.9550  -28.3570 C   0  0  0  0  0  0  0  0  0  0  0  0
   -2.9580   25.2140  -29.6090 O   0  0  0  0  0  0  0  0  0  0  0  0
   -4.1080   24.5560  -30.0740 C   0  0  0  0  0  0  0  0  0  0  0  0
   -5.3720   25.1740  -30.0800 C   0  0  0  0  0  0  0  0  0  0  0  0
   -6.4930   24.4880  -30.5500 C   0  0  0  0  0  0  0  0  0  0  0  0
   -6.3730   23.1750  -31.0220 C   0  0  0  0  0  0  0  0  0  0  0  0
   -7.5640   22.4580  -31.5220 C   0  0  0  0  0  0  0  0  0  0  0  0
   -8.6980   23.0560  -31.9390 N   0  0  0  0  0  0  0  0  0  0  0  0
   -9.5200   22.0850  -32.3060 N   0  0  0  0  0  0  0  0  0  0  0  0
   -8.8550   20.9350  -32.1000 C   0  0  0  0  0  0  0  0  0  0  0  0
   -9.5250   19.3100  -32.4410 S   0  0  0  0  0  0  0  0  0  0  0  0
   -8.3870   18.4340  -31.3140 C   0  0  0  0  0  0  0  0  0  0  0  0
   -7.1310   17.9630  -32.0580 C   0  0  0  0  0  0  0  0  0  0  0  0
   -5.8940   18.7710  -31.6470 C   0  0  0  0  0  0  0  0  0  0  0  0
   -5.4190   19.6080  -32.7730 N   0  0  0  0  0  0  0  0  0  0  0  0
   -6.2490   19.4440  -33.9910 C   0  0  0  0  0  0  0  0  0  0  0  0
   -5.7030   18.3520  -34.9330 C   0  0  0  0  0  0  0  0  0  0  0  0
   -4.9480   17.4020  -34.2110 O   0  0  0  0  0  0  0  0  0  0  0  0
   -3.7570   17.9990  -33.7250 C   0  0  0  0  0  0  0  0  0  0  0  0
   -3.9930   19.3820  -33.0750 C   0  0  0  0  0  0  0  0  0  0  0  0
   -7.6560   21.1530  -31.6180 O   0  0  0  0  0  0  0  0  0  0  0  0
   -5.1150   22.5540  -31.0180 C   0  0  0  0  0  0  0  0  0  0  0  0
   -3.9780   23.2400  -30.5440 C   0  0  0  0  0  0  0  0  0  0  0  0
   -2.7040   22.6500  -30.5260 O   0  0  0  0  0  0  0  0  0  0  0  0
   -2.1410   21.9110  -31.6040 C   0  0  0  0  0  0  0  0  0  0  0  0
   -3.0249   24.5034  -26.3712 H   0  0  0  0  0  0  0  0  0  0  0  0
   -4.3265   24.7294  -27.5884 H   0  0  0  0  0  0  0  0  0  0  0  0
   -3.3486   23.2226  -27.5884 H   0  0  0  0  0  0  0  0  0  0  0  0
   -1.9733   25.9012  -27.9231 H   0  0  0  0  0  0  0  0  0  0  0  0
   -1.4764   24.2768  -28.5095 H   0  0  0  0  0  0  0  0  0  0  0  0
   -5.4775   26.2051  -29.7117 H   0  0  0  0  0  0  0  0  0  0  0  0
   -7.4761   24.9814  -30.5497 H   0  0  0  0  0  0  0  0  0  0  0  0
   -8.0903   19.1143  -30.5021 H   0  0  0  0  0  0  0  0  0  0  0  0
   -8.9052   17.5526  -30.9082 H   0  0  0  0  0  0  0  0  0  0  0  0
   -6.9567   16.9016  -31.8275 H   0  0  0  0  0  0  0  0  0  0  0  0
   -7.2947   18.1096  -33.1358 H   0  0  0  0  0  0  0  0  0  0  0  0
   -6.1525   19.4207  -30.7978 H   0  0  0  0  0  0  0  0  0  0  0  0
   -5.0932   18.0726  -31.3624 H   0  0  0  0  0  0  0  0  0  0  0  0
   -7.2705   19.1705  -33.6880 H   0  0  0  0  0  0  0  0  0  0  0  0
   -6.2323   20.3978  -34.5387 H   0  0  0  0  0  0  0  0  0  0  0  0
   -6.5461   17.8448  -35.4249 H   0  0  0  0  0  0  0  0  0  0  0  0
   -5.0521   18.8250  -35.6830 H   0  0  0  0  0  0  0  0  0  0  0  0
   -3.3117   17.3304  -32.9735 H   0  0  0  0  0  0  0  0  0  0  0  0
   -3.0911   18.1512  -34.5872 H   0  0  0  0  0  0  0  0  0  0  0  0
   -3.4173   19.4388  -32.1394 H   0  0  0  0  0  0  0  0  0  0  0  0
   -3.6671   20.1549  -33.7866 H   0  0  0  0  0  0  0  0  0  0  0  0
   -5.0148   21.5229  -31.3879 H   0  0  0  0  0  0  0  0  0  0  0  0
   -1.5199   21.0957  -31.2047 H   0  0  0  0  0  0  0  0  0  0  0  0
   -2.9484   21.4888  -32.2203 H   0  0  0  0  0  0  0  0  0  0  0  0
   -1.5195   22.5773  -32.2203 H   0  0  0  0  0  0  0  0  0  0  0  0
  1  2  1  0
  2  3  1  0
  3  4  1  0
  4  5  2  0
  5  6  1  0
  6  7  2  0
  7  8  1  0
  8  9  2  0
  9 10  1  0
 10 11  2  0
 11 12  1  0
 12 13  1  0
 13 14  1  0
 14 15  1  0
 15 16  1  0
 16 17  1  0
 17 18  1  0
 18 19  1  0
 19 20  1  0
 20 21  1  0
 11 22  1  0
  7 23  1  0
 23 24  2  0
 24 25  1  0
 25 26  1  0
 24  4  1  0
 22  8  1  0
 21 16  1  0
  1 27  1  0
  1 28  1  0
  1 29  1  0
  2 30  1  0
  2 31  1  0
  5 32  1  0
  6 33  1  0
 13 34  1  0
 13 35  1  0
 14 36  1  0
 14 37  1  0
 15 38  1  0
 15 39  1  0
 17 40  1  0
 17 41  1  0
 18 42  1  0
 18 43  1  0
 20 44  1  0
 20 45  1  0
 21 46  1  0
 21 47  1  0
 23 48  1  0
 26 49  1  0
 26 50  1  0
 26 51  1  0
M  END
>  <UniqueID>  (8) 
8

>  <SMILES>  (8) 
CCOc1ccc(-c2nnc(SCCCN3CCOCC3)o2)cc1OC

>  <Energy>  (8) 
87.69654066909219

>  <Genealogy>  (8) 
CCOc1ccc(-c2nnc(SCCCN3CCOCC3)o2)cc1OC (3D coordinates assigned)
CCOc1ccc(-c2nnc(SCCCN3CCOCC3)o2)cc1OC (nonaromatic ring conformer: 87.69654066909219 kcal/mol)

>  <smiles>  (8) 
CCOc1ccc(-c2nnc(SCCCN3CCOCC3)o2)cc1OC

>  <score_type>  (8) 
oracle

>  <origin>  (8) 
adg

>  <m_score__min__energy>  (8) 
-8.5399999999999991

>  <m_primary>  (8) 
energy

$$$$
8:0
     RDKit          3D

 71 75  0  0  0  0  0  0  0  0999 V2000
   -1.1710   18.4520  -33.4060 C   0  0  0  0  0  0  0  0  0  0  0  0
   -0.8550   19.6900  -32.6720 N   0  0  0  0  0  0  0  0  0  0  0  0
    0.5820   19.7140  -32.3550 C   0  0  0  0  0  0  0  0  0  0  0  0
   -1.2170   20.8910  -33.4580 C   0  0  0  0  0  0  0  0  0  0  0  0
   -2.6210   21.4060  -33.0970 C   0  0  0  0  0  0  0  0  0  0  0  0
   -3.2810   20.5510  -32.1100 N   0  0  0  0  0  0  0  0  0  0  0  0
   -4.6990   20.3570  -32.1590 C   0  0  0  0  0  0  0  0  0  0  0  0
   -5.2730   19.2180  -32.7660 C   0  0  0  0  0  0  0  0  0  0  0  0
   -4.4590   18.2390  -33.3690 C   0  0  0  0  0  0  0  0  0  0  0  0
   -5.0250   17.1300  -33.9920 C   0  0  0  0  0  0  0  0  0  0  0  0
   -6.4080   16.9820  -34.0390 C   0  0  0  0  0  0  0  0  0  0  0  0
   -7.2390   17.9370  -33.4540 C   0  0  0  0  0  0  0  0  0  0  0  0
   -6.7010   19.0660  -32.7900 C   0  0  0  0  0  0  0  0  0  0  0  0
   -7.5190   20.0160  -32.1910 N   0  0  0  0  0  0  0  0  0  0  0  0
   -8.9810   19.8330  -32.1320 C   0  0  0  0  0  0  0  0  0  0  0  0
   -6.9330   21.1390  -31.6650 C   0  0  0  0  0  0  0  0  0  0  0  0
   -7.5710   22.2030  -31.1100 N   0  0  0  0  0  0  0  0  0  0  0  0
   -6.5870   23.0340  -30.7160 C   0  0  0  0  0  0  0  0  0  0  0  0
   -6.7400   24.2620  -30.0760 C   0  0  0  0  0  0  0  0  0  0  0  0
   -5.5830   24.9790  -29.7290 C   0  0  0  0  0  0  0  0  0  0  0  0
   -4.2920   24.4610  -30.0270 C   0  0  0  0  0  0  0  0  0  0  0  0
   -3.1080   25.1390  -29.6910 O   0  0  0  0  0  0  0  0  0  0  0  0
   -2.3670   24.9700  -28.4820 C   0  0  0  0  0  0  0  0  0  0  0  0
   -1.1530   24.0420  -28.7260 C   0  0  0  0  0  0  0  0  0  0  0  0
   -1.2390   22.6960  -28.0710 N   0  0  0  0  0  0  0  0  0  0  0  0
   -0.6910   22.7720  -26.6910 C   0  0  0  0  0  0  0  0  0  0  0  0
   -2.6630   22.2270  -28.0240 C   0  0  0  0  0  0  0  0  0  0  0  0
   -2.7710   20.6960  -28.1550 C   0  0  0  0  0  0  0  0  0  0  0  0
   -2.2660   20.2010  -29.3880 O   0  0  0  0  0  0  0  0  0  0  0  0
   -1.2130   20.9900  -29.9280 C   0  0  0  0  0  0  0  0  0  0  0  0
   -0.3940   21.7350  -28.8560 C   0  0  0  0  0  0  0  0  0  0  0  0
   -4.1740   23.2220  -30.6860 C   0  0  0  0  0  0  0  0  0  0  0  0
   -5.3410   22.5290  -31.0150 C   0  0  0  0  0  0  0  0  0  0  0  0
   -5.5640   21.3120  -31.6350 C   0  0  0  0  0  0  0  0  0  0  0  0
   -1.3774   17.6434  -32.6894 H   0  0  0  0  0  0  0  0  0  0  0  0
   -2.0560   18.6163  -34.0383 H   0  0  0  0  0  0  0  0  0  0  0  0
   -0.3155   18.1721  -34.0383 H   0  0  0  0  0  0  0  0  0  0  0  0
    0.7167   19.7162  -31.2633 H   0  0  0  0  0  0  0  0  0  0  0  0
    1.0667   18.8238  -32.7824 H   0  0  0  0  0  0  0  0  0  0  0  0
    1.0367   20.6199  -32.7824 H   0  0  0  0  0  0  0  0  0  0  0  0
   -0.4830   21.6847  -33.2545 H   0  0  0  0  0  0  0  0  0  0  0  0
   -1.2161   20.6165  -34.5232 H   0  0  0  0  0  0  0  0  0  0  0  0
   -2.5315   22.4216  -32.6840 H   0  0  0  0  0  0  0  0  0  0  0  0
   -3.2306   21.4014  -34.0126 H   0  0  0  0  0  0  0  0  0  0  0  0
   -2.7260   19.9240  -31.4860 H   0  0  0  0  0  0  0  0  0  0  0  0
   -3.3650   18.3519  -33.3474 H   0  0  0  0  0  0  0  0  0  0  0  0
   -4.3766   16.3679  -34.4488 H   0  0  0  0  0  0  0  0  0  0  0  0
   -6.8479   16.1072  -34.5402 H   0  0  0  0  0  0  0  0  0  0  0  0
   -8.3304   17.8111  -33.5093 H   0  0  0  0  0  0  0  0  0  0  0  0
   -9.3034   19.7927  -31.0811 H   0  0  0  0  0  0  0  0  0  0  0  0
   -9.4767   20.6761  -32.6355 H   0  0  0  0  0  0  0  0  0  0  0  0
   -9.2536   18.8937  -32.6355 H   0  0  0  0  0  0  0  0  0  0  0  0
   -8.5920   22.3850  -31.0110 H   0  0  0  0  0  0  0  0  0  0  0  0
   -7.7401   24.6595  -29.8485 H   0  0  0  0  0  0  0  0  0  0  0  0
   -5.6761   25.9506  -29.2218 H   0  0  0  0  0  0  0  0  0  0  0  0
   -2.0107   25.9507  -28.1338 H   0  0  0  0  0  0  0  0  0  0  0  0
   -3.0191   24.5162  -27.7212 H   0  0  0  0  0  0  0  0  0  0  0  0
   -1.0549   23.8874  -29.8107 H   0  0  0  0  0  0  0  0  0  0  0  0
   -0.2861   24.5471  -28.2751 H   0  0  0  0  0  0  0  0  0  0  0  0
   -1.5093   22.6585  -25.9648 H   0  0  0  0  0  0  0  0  0  0  0  0
    0.0443   21.9672  -26.5436 H   0  0  0  0  0  0  0  0  0  0  0  0
   -0.2025   23.7465  -26.5436 H   0  0  0  0  0  0  0  0  0  0  0  0
   -3.1064   22.5335  -27.0651 H   0  0  0  0  0  0  0  0  0  0  0  0
   -3.1978   22.6791  -28.8723 H   0  0  0  0  0  0  0  0  0  0  0  0
   -2.2027   20.2342  -27.3342 H   0  0  0  0  0  0  0  0  0  0  0  0
   -3.8399   20.4397  -28.1139 H   0  0  0  0  0  0  0  0  0  0  0  0
   -0.5348   20.3297  -30.4884 H   0  0  0  0  0  0  0  0  0  0  0  0
   -1.6761   21.7530  -30.5709 H   0  0  0  0  0  0  0  0  0  0  0  0
    0.0407   20.9978  -28.1650 H   0  0  0  0  0  0  0  0  0  0  0  0
    0.3909   22.3115  -29.3674 H   0  0  0  0  0  0  0  0  0  0  0  0
   -3.1853   22.8096  -30.9359 H   0  0  0  0  0  0  0  0  0  0  0  0
  1  2  1  0
  2  3  1  0
  2  4  1  0
  4  5  1  0
  5  6  1  0
  6  7  1  0
  7  8  2  0
  8  9  1  0
  9 10  2  0
 10 11  1  0
 11 12  2  0
 12 13  1  0
 13 14  2  0
 14 15  1  0
 14 16  1  0
 16 17  1  0
 17 18  1  0
 18 19  2  0
 19 20  1  0
 20 21  2  0
 21 22  1  0
 22 23  1  0
 23 24  1  0
 24 25  1  0
 25 26  1  0
 25 27  1  0
 27 28  1  0
 28 29  1  0
 29 30  1  0
 30 31  1  0
 21 32  1  0
 32 33  2  0
 33 34  1  0
 34  7  1  0
 13  8  1  0
 34 16  2  0
 33 18  1  0
 31 25  1  0
  1 35  1  0
  1 36  1  0
  1 37  1  0
  3 38  1  0
  3 39  1  0
  3 40  1  0
  4 41  1  0
  4 42  1  0
  5 43  1  0
  5 44  1  0
  6 45  1  0
  9 46  1  0
 10 47  1  0
 11 48  1  0
 12 49  1  0
 15 50  1  0
 15 51  1  0
 15 52  1  0
 17 53  1  0
 19 54  1  0
 20 55  1  0
 23 56  1  0
 23 57  1  0
 24 58  1  0
 24 59  1  0
 26 60  1  0
 26 61  1  0
 26 62  1  0
 27 63  1  0
 27 64  1  0
 28 65  1  0
 28 66  1  0
 30 67  1  0
 30 68  1  0
 31 69  1  0
 31 70  1  0
 32 71  1  0
M  CHG  2  14   1  25   1
M  END
>  <UniqueID>  (9) 
9

>  <SMILES>  (9) 
CN(C)CCNc1c2ccccc2[n+](C)c2[nH]c3ccc(OCC[N+]4(C)CCOCC4)cc3c12

>  <Energy>  (9) 
154.1165219805385

>  <Genealogy>  (9) 
CN(C)CCNc1c2ccccc2[n+](C)c2[nH]c3ccc(OCC[N+]4(C)CCOCC4)cc3c12 (3D coordinates assigned)
CN(C)CCNc1c2ccccc2[n+](C)c2[nH]c3ccc(OCC[N+]4(C)CCOCC4)cc3c12 (nonaromatic ring conformer: 154.1165219805385 kcal/mol)

>  <smiles>  (9) 
CN(C)CCNc1c2ccccc2[n+](C)c2[nH]c3ccc(OCC[N+]4(C)CCOCC4)cc3c12

>  <score_type>  (9) 
oracle

>  <origin>  (9) 
adg

>  <m_score__min__energy>  (9) 
-8.0299999999999994

>  <m_primary>  (9) 
energy

$$$$
9:0
     RDKit          3D

 48 49  0  0  0  0  0  0  0  0999 V2000
   -8.8070   18.7300  -31.5580 C   0  0  0  0  0  0  0  0  0  0  0  0
   -8.1120   19.0200  -32.8250 N   0  0  0  0  0  0  0  0  0  0  0  0
   -7.1220   17.9540  -33.1120 C   0  0  0  0  0  0  0  0  0  0  0  0
   -6.0940   18.4060  -34.1620 C   0  0  0  0  0  0  0  0  0  0  0  0
   -5.3650   19.6440  -33.7730 N   0  0  0  0  0  0  0  0  0  0  0  0
   -3.9310   19.3860  -33.5170 C   0  0  0  0  0  0  0  0  0  0  0  0
   -3.4020   20.1980  -32.3220 C   0  0  0  0  0  0  0  0  0  0  0  0
   -2.4390   21.3180  -32.7450 C   0  0  0  0  0  0  0  0  0  0  0  0
   -1.4510   21.9120  -31.3210 S   0  0  0  0  0  0  0  0  0  0  0  0
   -2.7860   22.8150  -30.5440 C   0  0  0  0  0  0  0  0  0  0  0  0
   -4.0400   22.8570  -31.0350 N   0  0  0  0  0  0  0  0  0  0  0  0
   -4.8810   23.5780  -30.2380 C   0  0  0  0  0  0  0  0  0  0  0  0
   -6.3430   23.8080  -30.6020 C   0  0  0  0  0  0  0  0  0  0  0  0
   -6.4820   23.7990  -32.1340 C   0  0  0  0  0  0  0  0  0  0  0  0
   -7.2290   22.6930  -30.0040 C   0  0  0  0  0  0  0  0  0  0  0  0
   -6.8370   25.1620  -30.0470 C   0  0  0  0  0  0  0  0  0  0  0  0
   -4.2620   24.1400  -29.1140 C   0  0  0  0  0  0  0  0  0  0  0  0
   -2.6470   23.6750  -29.1120 S   0  0  0  0  0  0  0  0  0  0  0  0
   -5.9980   20.3660  -32.6460 C   0  0  0  0  0  0  0  0  0  0  0  0
   -7.5230   20.3880  -32.8110 C   0  0  0  0  0  0  0  0  0  0  0  0
   -8.1571   19.0012  -30.7129 H   0  0  0  0  0  0  0  0  0  0  0  0
   -9.7371   19.3151  -31.5078 H   0  0  0  0  0  0  0  0  0  0  0  0
   -9.0454   17.6573  -31.5078 H   0  0  0  0  0  0  0  0  0  0  0  0
   -8.8380   18.9910  -33.5810 H   0  0  0  0  0  0  0  0  0  0  0  0
   -6.5935   17.6975  -32.1820 H   0  0  0  0  0  0  0  0  0  0  0  0
   -7.6607   17.0816  -33.5104 H   0  0  0  0  0  0  0  0  0  0  0  0
   -5.3608   17.5984  -34.3039 H   0  0  0  0  0  0  0  0  0  0  0  0
   -6.6469   18.6288  -35.0865 H   0  0  0  0  0  0  0  0  0  0  0  0
   -3.7953   18.3150  -33.3062 H   0  0  0  0  0  0  0  0  0  0  0  0
   -3.3668   19.6911  -34.4106 H   0  0  0  0  0  0  0  0  0  0  0  0
   -4.2570   20.6489  -31.7970 H   0  0  0  0  0  0  0  0  0  0  0  0
   -2.8435   19.5076  -31.6728 H   0  0  0  0  0  0  0  0  0  0  0  0
   -1.7584   20.9333  -33.5188 H   0  0  0  0  0  0  0  0  0  0  0  0
   -3.0313   22.1593  -33.1342 H   0  0  0  0  0  0  0  0  0  0  0  0
   -7.5458   23.7301  -32.4052 H   0  0  0  0  0  0  0  0  0  0  0  0
   -6.0578   24.7265  -32.5461 H   0  0  0  0  0  0  0  0  0  0  0  0
   -5.9418   22.9340  -32.5461 H   0  0  0  0  0  0  0  0  0  0  0  0
   -7.1895   22.7427  -28.9058 H   0  0  0  0  0  0  0  0  0  0  0  0
   -8.2674   22.8299  -30.3402 H   0  0  0  0  0  0  0  0  0  0  0  0
   -6.8610   21.7124  -30.3402 H   0  0  0  0  0  0  0  0  0  0  0  0
   -6.8265   25.1333  -28.9474 H   0  0  0  0  0  0  0  0  0  0  0  0
   -6.1744   25.9663  -30.3991 H   0  0  0  0  0  0  0  0  0  0  0  0
   -7.8619   25.3507  -30.3991 H   0  0  0  0  0  0  0  0  0  0  0  0
   -4.7497   24.7769  -28.3613 H   0  0  0  0  0  0  0  0  0  0  0  0
   -5.7431   19.8600  -31.7031 H   0  0  0  0  0  0  0  0  0  0  0  0
   -5.6265   21.4013  -32.6332 H   0  0  0  0  0  0  0  0  0  0  0  0
   -7.9608   20.9526  -31.9746 H   0  0  0  0  0  0  0  0  0  0  0  0
   -7.7491   20.8606  -33.7782 H   0  0  0  0  0  0  0  0  0  0  0  0
  1  2  1  0
  2  3  1  0
  3  4  1  0
  4  5  1  0
  5  6  1  0
  6  7  1  0
  7  8  1  0
  8  9  1  0
  9 10  1  0
 10 11  2  0
 11 12  1  0
 12 13  1  0
 13 14  1  0
 13 15  1  0
 13 16  1  0
 12 17  2  0
 17 18  1  0
  5 19  1  0
 19 20  1  0
 20  2  1  0
 18 10  1  0
  1 21  1  0
  1 22  1  0
  1 23  1  0
  2 24  1  0
  3 25  1  0
  3 26  1  0
  4 27  1  0
  4 28  1  0
  6 29  1  0
  6 30  1  0
  7 31  1  0
  7 32  1  0
  8 33  1  0
  8 34  1  0
 14 35  1  0
 14 36  1  0
 14 37  1  0
 15 38  1  0
 15 39  1  0
 15 40  1  0
 16 41  1  0
 16 42  1  0
 16 43  1  0
 17 44  1  0
 19 45  1  0
 19 46  1  0
 20 47  1  0
 20 48  1  0
M  CHG  1   2   1
M  END
>  <UniqueID>  (10) 
10

>  <SMILES>  (10) 
C[NH+]1CCN(CCCSc2nc(C(C)(C)C)cs2)CC1

>  <Energy>  (10) 
78.89097247559154

>  <Genealogy>  (10) 
C[NH+]1CCN(CCCSc2nc(C(C)(C)C)cs2)CC1 (protonated)
C[NH+]1CCN(CCCSc2nc(C(C)(C)C)cs2)CC1 (3D coordinates assigned)
C[NH+]1CCN(CCCSc2nc(C(C)(C)C)cs2)CC1 (nonaromatic ring conformer: 78.89097247559154 kcal/mol)

>  <smiles>  (10) 
CN1CCN(CCCSc2nc(C(C)(C)C)cs2)CC1

>  <score_type>  (10) 
oracle

>  <origin>  (10) 
adg

>  <m_score__min__energy>  (10) 
-7.04

>  <m_primary>  (10) 
energy

$$$$
10:0
     RDKit          3D

 48 49  0  0  0  0  0  0  0  0999 V2000
   -6.1840   25.7460  -29.4960 C   0  0  0  0  0  0  0  0  0  0  0  0
   -5.3500   24.5200  -29.1060 C   0  0  0  0  0  0  0  0  0  0  0  0
   -3.9660   24.4260  -29.8270 C   0  0  0  0  0  0  0  0  0  0  0  0
   -2.9560   23.6130  -28.9590 C   0  0  0  0  0  0  0  0  0  0  0  0
   -3.4650   23.3280  -27.5440 C   0  0  0  0  0  0  0  0  0  0  0  0
   -4.0380   23.8440  -31.2060 N   0  0  0  0  0  0  0  0  0  0  0  0
   -5.4460   23.7370  -31.7050 C   0  0  0  0  0  0  0  0  0  0  0  0
   -5.9250   22.2830  -31.8590 C   0  0  0  0  0  0  0  0  0  0  0  0
   -5.0630   21.5240  -32.8010 N   0  0  0  0  0  0  0  0  0  0  0  0
   -5.2810   20.0500  -32.7500 C   0  0  0  0  0  0  0  0  0  0  0  0
   -6.7270   19.6040  -32.5230 C   0  0  0  0  0  0  0  0  0  0  0  0
   -7.7450   20.3870  -33.1100 C   0  0  0  0  0  0  0  0  0  0  0  0
   -9.0910   20.0750  -32.9270 C   0  0  0  0  0  0  0  0  0  0  0  0
   -9.4520   18.9650  -32.1710 C   0  0  0  0  0  0  0  0  0  0  0  0
   -8.4680   18.1490  -31.6150 C   0  0  0  0  0  0  0  0  0  0  0  0
   -7.1020   18.4310  -31.8060 C   0  0  0  0  0  0  0  0  0  0  0  0
   -6.1140   17.4620  -31.2070 C   0  0  0  0  0  0  0  0  0  0  0  0
   -3.6320   21.9150  -32.7210 C   0  0  0  0  0  0  0  0  0  0  0  0
   -3.2880   22.5710  -31.3770 C   0  0  0  0  0  0  0  0  0  0  0  0
   -6.5318   26.2573  -28.5863 H   0  0  0  0  0  0  0  0  0  0  0  0
   -5.5667   26.4353  -30.0908 H   0  0  0  0  0  0  0  0  0  0  0  0
   -7.0519   25.4250  -30.0908 H   0  0  0  0  0  0  0  0  0  0  0  0
   -5.1713   24.5561  -28.0212 H   0  0  0  0  0  0  0  0  0  0  0  0
   -5.9266   23.6360  -29.4158 H   0  0  0  0  0  0  0  0  0  0  0  0
   -3.6170   25.4624  -29.9457 H   0  0  0  0  0  0  0  0  0  0  0  0
   -2.7596   22.6532  -29.4592 H   0  0  0  0  0  0  0  0  0  0  0  0
   -2.0462   24.2235  -28.8608 H   0  0  0  0  0  0  0  0  0  0  0  0
   -2.7503   23.7282  -26.8097 H   0  0  0  0  0  0  0  0  0  0  0  0
   -4.4440   23.8092  -27.4027 H   0  0  0  0  0  0  0  0  0  0  0  0
   -3.5664   22.2418  -27.4027 H   0  0  0  0  0  0  0  0  0  0  0  0
   -6.1093   24.2502  -30.9931 H   0  0  0  0  0  0  0  0  0  0  0  0
   -5.4753   24.1985  -32.7031 H   0  0  0  0  0  0  0  0  0  0  0  0
   -5.8988   21.7917  -30.8752 H   0  0  0  0  0  0  0  0  0  0  0  0
   -6.9485   22.2971  -32.2618 H   0  0  0  0  0  0  0  0  0  0  0  0
   -5.3790   21.8090  -33.7590 H   0  0  0  0  0  0  0  0  0  0  0  0
   -4.9414   19.6242  -33.7057 H   0  0  0  0  0  0  0  0  0  0  0  0
   -4.7146   19.6916  -31.8778 H   0  0  0  0  0  0  0  0  0  0  0  0
   -7.4709   21.2586  -33.7225 H   0  0  0  0  0  0  0  0  0  0  0  0
   -9.8683   20.7072  -33.3809 H   0  0  0  0  0  0  0  0  0  0  0  0
  -10.5149   18.7307  -32.0116 H   0  0  0  0  0  0  0  0  0  0  0  0
   -8.7629   17.2728  -31.0189 H   0  0  0  0  0  0  0  0  0  0  0  0
   -6.1679   17.5148  -30.1096 H   0  0  0  0  0  0  0  0  0  0  0  0
   -6.3556   16.4409  -31.5372 H   0  0  0  0  0  0  0  0  0  0  0  0
   -5.0978   17.7234  -31.5372 H   0  0  0  0  0  0  0  0  0  0  0  0
   -3.0109   21.0158  -32.8463 H   0  0  0  0  0  0  0  0  0  0  0  0
   -3.4360   22.6489  -33.5166 H   0  0  0  0  0  0  0  0  0  0  0  0
   -3.5537   21.8830  -30.5609 H   0  0  0  0  0  0  0  0  0  0  0  0
   -2.2102   22.7900  -31.3560 H   0  0  0  0  0  0  0  0  0  0  0  0
  1  2  1  0
  2  3  1  0
  3  4  1  0
  4  5  1  0
  3  6  1  0
  6  7  1  0
  7  8  1  0
  8  9  1  0
  9 10  1  0
 10 11  1  0
 11 12  2  0
 12 13  1  0
 13 14  2  0
 14 15  1  0
 15 16  2  0
 16 17  1  0
  9 18  1  0
 18 19  1  0
 19  6  1  0
 16 11  1  0
  1 20  1  0
  1 21  1  0
  1 22  1  0
  2 23  1  0
  2 24  1  0
  3 25  1  0
  4 26  1  0
  4 27  1  0
  5 28  1  0
  5 29  1  0
  5 30  1  0
  7 31  1  0
  7 32  1  0
  8 33  1  0
  8 34  1  0
  9 35  1  0
 10 36  1  0
 10 37  1  0
 12 38  1  0
 13 39  1  0
 14 40  1  0
 15 41  1  0
 17 42  1  0
 17 43  1  0
 17 44  1  0
 18 45  1  0
 18 46  1  0
 19 47  1  0
 19 48  1  0
M  CHG  1   9   1
M  END
>  <UniqueID>  (11) 
11

>  <SMILES>  (11) 
CCC(CC)N1CC[NH+](Cc2ccccc2C)CC1

>  <Energy>  (11) 
71.45265446317228

>  <Genealogy>  (11) 
CCC(CC)N1CC[NH+](Cc2ccccc2C)CC1 (protonated)
CCC(CC)N1CC[NH+](Cc2ccccc2C)CC1 (3D coordinates assigned)
CCC(CC)N1CC[NH+](Cc2ccccc2C)CC1 (nonaromatic ring conformer: 71.45265446317228 kcal/mol)

>  <smiles>  (11) 
CCC(CC)N1CCN(Cc2ccccc2C)CC1

>  <score_type>  (11) 
oracle

>  <origin>  (11) 
adg

>  <m_score__min__energy>  (11) 
-6.9800000000000004

>  <m_primary>  (11) 
energy

$$$$
11:0
     RDKit          3D

 60 61  0  0  0  0  0  0  0  0999 V2000
   -5.7700   17.7840  -34.7630 C   0  0  0  0  0  0  0  0  0  0  0  0
   -6.4750   17.1890  -33.5470 C   0  0  0  0  0  0  0  0  0  0  0  0
   -6.4670   18.1120  -32.4570 O   0  0  0  0  0  0  0  0  0  0  0  0
   -7.2990   19.2380  -32.3180 C   0  0  0  0  0  0  0  0  0  0  0  0
   -8.7020   19.1290  -32.4020 C   0  0  0  0  0  0  0  0  0  0  0  0
   -9.5100   20.2490  -32.2330 C   0  0  0  0  0  0  0  0  0  0  0  0
   -8.9360   21.4910  -31.9680 C   0  0  0  0  0  0  0  0  0  0  0  0
   -7.5490   21.6200  -31.8820 C   0  0  0  0  0  0  0  0  0  0  0  0
   -6.7030   20.5040  -32.0670 C   0  0  0  0  0  0  0  0  0  0  0  0
   -5.1720   20.6030  -32.0230 C   0  0  1  0  0  0  0  0  0  0  0  0
   -4.5470   20.5580  -33.4360 C   0  0  0  0  0  0  0  0  0  0  0  0
   -3.0490   20.6980  -33.3640 C   0  0  0  0  0  0  0  0  0  0  0  0
   -2.3530   20.4450  -34.3820 O   0  0  0  0  0  0  0  0  0  0  0  0
   -2.3990   21.1000  -32.1490 N   0  0  0  0  0  0  0  0  0  0  0  0
   -3.0440   21.5340  -31.1050 C   0  0  0  0  0  0  0  0  0  0  0  0
   -2.2700   21.8700  -29.8660 C   0  0  0  0  0  0  0  0  0  0  0  0
   -4.5430   21.7410  -31.1570 C   0  0  1  0  0  0  0  0  0  0  0  0
   -4.7880   23.1580  -31.6230 C   0  0  0  0  0  0  0  0  0  0  0  0
   -5.3690   23.3950  -32.7170 O   0  0  0  0  0  0  0  0  0  0  0  0
   -4.3160   24.2130  -30.8330 O   0  0  0  0  0  0  0  0  0  0  0  0
   -4.9880   24.6900  -29.6660 C   0  0  0  0  0  0  0  0  0  0  0  0
   -4.3720   24.1180  -28.3790 C   0  0  0  0  0  0  0  0  0  0  0  0
   -2.8980   24.5090  -28.2080 C   0  0  0  0  0  0  0  0  0  0  0  0
   -2.4320   24.1900  -26.8380 N   0  0  0  0  0  0  0  0  0  0  0  0
   -1.1380   23.4650  -26.8300 C   0  0  0  0  0  0  0  0  0  0  0  0
   -1.2530   21.9800  -26.4590 C   0  0  0  0  0  0  0  0  0  0  0  0
   -2.4690   25.3800  -25.9560 C   0  0  0  0  0  0  0  0  0  0  0  0
   -1.3760   26.3830  -26.3170 C   0  0  0  0  0  0  0  0  0  0  0  0
   -4.9692   18.4598  -34.4283 H   0  0  0  0  0  0  0  0  0  0  0  0
   -5.3371   16.9741  -35.3685 H   0  0  0  0  0  0  0  0  0  0  0  0
   -6.4956   18.3469  -35.3685 H   0  0  0  0  0  0  0  0  0  0  0  0
   -7.5160   16.9531  -33.8127 H   0  0  0  0  0  0  0  0  0  0  0  0
   -5.9429   16.2761  -33.2413 H   0  0  0  0  0  0  0  0  0  0  0  0
   -9.1619   18.1501  -32.6029 H   0  0  0  0  0  0  0  0  0  0  0  0
  -10.6033   20.1541  -32.3087 H   0  0  0  0  0  0  0  0  0  0  0  0
   -9.5783   22.3726  -31.8261 H   0  0  0  0  0  0  0  0  0  0  0  0
   -7.1083   22.6047  -31.6671 H   0  0  0  0  0  0  0  0  0  0  0  0
   -4.8992   19.6941  -31.4668 H   0  0  0  0  0  0  0  0  0  0  0  0
   -4.7969   19.5975  -33.9102 H   0  0  0  0  0  0  0  0  0  0  0  0
   -4.9508   21.3936  -34.0265 H   0  0  0  0  0  0  0  0  0  0  0  0
   -2.8670   21.6108  -28.9792 H   0  0  0  0  0  0  0  0  0  0  0  0
   -1.3299   21.2990  -29.8548 H   0  0  0  0  0  0  0  0  0  0  0  0
   -2.0452   22.9467  -29.8548 H   0  0  0  0  0  0  0  0  0  0  0  0
   -5.0440   21.6559  -30.1814 H   0  0  0  0  0  0  0  0  0  0  0  0
   -4.9169   25.7873  -29.6377 H   0  0  0  0  0  0  0  0  0  0  0  0
   -6.0370   24.3631  -29.7177 H   0  0  0  0  0  0  0  0  0  0  0  0
   -4.9399   24.4981  -27.5170 H   0  0  0  0  0  0  0  0  0  0  0  0
   -4.4211   23.0210  -28.4442 H   0  0  0  0  0  0  0  0  0  0  0  0
   -2.2892   23.9529  -28.9361 H   0  0  0  0  0  0  0  0  0  0  0  0
   -2.7953   25.5913  -28.3757 H   0  0  0  0  0  0  0  0  0  0  0  0
   -0.6958   23.5367  -27.8347 H   0  0  0  0  0  0  0  0  0  0  0  0
   -0.5149   23.9375  -26.0564 H   0  0  0  0  0  0  0  0  0  0  0  0
   -1.2611   21.8752  -25.3640 H   0  0  0  0  0  0  0  0  0  0  0  0
   -2.1856   21.5697  -26.8735 H   0  0  0  0  0  0  0  0  0  0  0  0
   -0.3947   21.4310  -26.8735 H   0  0  0  0  0  0  0  0  0  0  0  0
   -3.4492   25.8687  -26.0573 H   0  0  0  0  0  0  0  0  0  0  0  0
   -2.3007   25.0461  -24.9215 H   0  0  0  0  0  0  0  0  0  0  0  0
   -0.9328   26.7897  -25.3960 H   0  0  0  0  0  0  0  0  0  0  0  0
   -0.5966   25.8792  -26.9075 H   0  0  0  0  0  0  0  0  0  0  0  0
   -1.8111   27.2027  -26.9075 H   0  0  0  0  0  0  0  0  0  0  0  0
  1  2  1  0
  2  3  1  0
  3  4  1  0
  4  5  2  0
  5  6  1  0
  6  7  2  0
  7  8  1  0
  8  9  2  0
  9 10  1  0
 10 11  1  0
 11 12  1  0
 12 13  2  0
 12 14  1  0
 14 15  2  0
 15 16  1  0
 15 17  1  0
 17 18  1  0
 18 19  2  0
 18 20  1  0
 20 21  1  0
 21 22  1  0
 22 23  1  0
 23 24  1  0
 24 25  1  0
 25 26  1  0
 24 27  1  0
 27 28  1  0
  9  4  1  0
 17 10  1  0
  1 29  1  0
  1 30  1  0
  1 31  1  0
  2 32  1  0
  2 33  1  0
  5 34  1  0
  6 35  1  0
  7 36  1  0
  8 37  1  0
 10 38  1  1
 11 39  1  0
 11 40  1  0
 16 41  1  0
 16 42  1  0
 16 43  1  0
 17 44  1  1
 21 45  1  0
 21 46  1  0
 22 47  1  0
 22 48  1  0
 23 49  1  0
 23 50  1  0
 25 51  1  0
 25 52  1  0
 26 53  1  0
 26 54  1  0
 26 55  1  0
 27 56  1  0
 27 57  1  0
 28 58  1  0
 28 59  1  0
 28 60  1  0
M  END
>  <UniqueID>  (12) 
12

>  <SMILES>  (12) 
CCOc1ccccc1[C@H]1CC(=O)N=C(C)[C@H]1C(=O)OCCCN(CC)CC

>  <Energy>  (12) 
59.157582966526114

>  <Genealogy>  (12) 
CCOc1ccccc1[C@H]1CC(=O)N=C(C)[C@H]1C(=O)OCCCN(CC)CC (chirality)
CCOc1ccccc1[C@H]1CC(=O)N=C(C)[C@H]1C(=O)OCCCN(CC)CC (3D coordinates assigned)
CCOc1ccccc1[C@H]1CC(=O)N=C(C)[C@H]1C(=O)OCCCN(CC)CC (nonaromatic ring conformer: 59.157582966526114 kcal/mol)

>  <smiles>  (12) 
CCOc1ccccc1C1CC(=O)N=C(C)C1C(=O)OCCCN(CC)CC

>  <score_type>  (12) 
oracle

>  <origin>  (12) 
adg

>  <m_score__min__energy>  (12) 
-8.2300000000000004

>  <m_primary>  (12) 
energy

$$$$
12:0
     RDKit          3D

 38 39  0  0  0  0  0  0  0  0999 V2000
   -9.6290   21.3170  -31.9870 C   0  0  0  0  0  0  0  0  0  0  0  0
   -8.7900   20.2720  -31.2550 C   0  0  0  0  0  0  0  0  0  0  0  0
   -8.8090   18.8980  -31.9520 C   0  0  0  0  0  0  0  0  0  0  0  0
   -7.8690   18.8120  -33.0870 N   0  0  0  0  0  0  0  0  0  0  0  0
   -6.4560   18.9190  -32.6820 C   0  0  0  0  0  0  0  0  0  0  0  0
   -5.7330   19.9670  -33.5350 C   0  0  0  0  0  0  0  0  0  0  0  0
   -5.4040   21.2020  -32.7380 C   0  0  0  0  0  0  0  0  0  0  0  0
   -4.0670   21.5370  -32.4670 C   0  0  0  0  0  0  0  0  0  0  0  0
   -3.7600   22.6540  -31.6870 C   0  0  0  0  0  0  0  0  0  0  0  0
   -4.7880   23.4530  -31.1570 C   0  0  0  0  0  0  0  0  0  0  0  0
   -4.5100   24.5840  -30.3620 C   0  0  0  0  0  0  0  0  0  0  0  0
   -3.1740   24.9260  -30.0940 O   0  0  0  0  0  0  0  0  0  0  0  0
   -2.4110   24.4110  -29.0080 C   0  0  0  0  0  0  0  0  0  0  0  0
   -5.5840   25.3400  -29.8570 C   0  0  0  0  0  0  0  0  0  0  0  0
   -6.8960   24.9630  -30.1470 C   0  0  0  0  0  0  0  0  0  0  0  0
   -7.1420   23.8700  -30.9140 N   0  0  0  0  0  0  0  0  0  0  0  0
   -6.1340   23.1130  -31.4220 C   0  0  0  0  0  0  0  0  0  0  0  0
   -6.4350   21.9920  -32.2050 C   0  0  0  0  0  0  0  0  0  0  0  0
  -10.1417   21.9556  -31.2526 H   0  0  0  0  0  0  0  0  0  0  0  0
   -8.9745   21.9364  -32.6179 H   0  0  0  0  0  0  0  0  0  0  0  0
  -10.3752   20.8118  -32.6179 H   0  0  0  0  0  0  0  0  0  0  0  0
   -7.7501   20.6272  -31.2061 H   0  0  0  0  0  0  0  0  0  0  0  0
   -9.2234   20.1415  -30.2525 H   0  0  0  0  0  0  0  0  0  0  0  0
   -8.5392   18.1276  -31.2147 H   0  0  0  0  0  0  0  0  0  0  0  0
   -9.8222   18.7472  -32.3528 H   0  0  0  0  0  0  0  0  0  0  0  0
   -8.0880   19.5440  -33.8020 H   0  0  0  0  0  0  0  0  0  0  0  0
   -6.4038   19.2145  -31.6237 H   0  0  0  0  0  0  0  0  0  0  0  0
   -5.9687   17.9435  -32.8269 H   0  0  0  0  0  0  0  0  0  0  0  0
   -4.7990   19.5313  -33.9194 H   0  0  0  0  0  0  0  0  0  0  0  0
   -6.4003   20.2582  -34.3596 H   0  0  0  0  0  0  0  0  0  0  0  0
   -3.2555   20.9147  -32.8723 H   0  0  0  0  0  0  0  0  0  0  0  0
   -2.7091   22.9097  -31.4865 H   0  0  0  0  0  0  0  0  0  0  0  0
   -2.8702   24.7210  -28.0577 H   0  0  0  0  0  0  0  0  0  0  0  0
   -2.3891   23.3126  -29.0636 H   0  0  0  0  0  0  0  0  0  0  0  0
   -1.3841   24.8015  -29.0636 H   0  0  0  0  0  0  0  0  0  0  0  0
   -5.3899   26.2262  -29.2350 H   0  0  0  0  0  0  0  0  0  0  0  0
   -7.7352   25.5544  -29.7521 H   0  0  0  0  0  0  0  0  0  0  0  0
   -7.4845   21.7289  -32.4036 H   0  0  0  0  0  0  0  0  0  0  0  0
  1  2  1  0
  2  3  1  0
  3  4  1  0
  4  5  1  0
  5  6  1  0
  6  7  1  0
  7  8  2  0
  8  9  1  0
  9 10  2  0
 10 11  1  0
 11 12  1  0
 12 13  1  0
 11 14  2  0
 14 15  1  0
 15 16  2  0
 16 17  1  0
 17 18  2  0
 18  7  1  0
 17 10  1  0
  1 19  1  0
  1 20  1  0
  1 21  1  0
  2 22  1  0
  2 23  1  0
  3 24  1  0
  3 25  1  0
  4 26  1  0
  5 27  1  0
  5 28  1  0
  6 29  1  0
  6 30  1  0
  8 31  1  0
  9 32  1  0
 13 33  1  0
 13 34  1  0
 13 35  1  0
 14 36  1  0
 15 37  1  0
 18 38  1  0
M  END
>  <UniqueID>  (13) 
13

>  <SMILES>  (13) 
CCCNCCc1ccc2c(OC)ccnc2c1

>  <Energy>  (13) 
36.953396240144215

>  <Genealogy>  (13) 
CCCNCCc1ccc2c(OC)ccnc2c1 (3D coordinates assigned)
CCCNCCc1ccc2c(OC)ccnc2c1 (optimized conformer: 36.953396240144215 kcal/mol)

>  <smiles>  (13) 
CCCNCCc1ccc2c(OC)ccnc2c1

>  <score_type>  (13) 
oracle

>  <origin>  (13) 
adg

>  <m_score__min__energy>  (13) 
-7.3600000000000003

>  <m_primary>  (13) 
energy

$$$$
13:0
     RDKit          3D

 52 54  0  0  0  0  0  0  0  0999 V2000
    0.9570   22.7010  -35.8310 C   0  0  0  0  0  0  0  0  0  0  0  0
    0.3790   21.3020  -35.6430 C   0  0  0  0  0  0  0  0  0  0  0  0
   -0.8540   21.3470  -34.8400 N   0  0  0  0  0  0  0  0  0  0  0  0
   -0.6650   20.7650  -33.4980 C   0  0  0  0  0  0  0  0  0  0  0  0
   -1.9540   20.1360  -32.9410 C   0  0  0  0  0  0  0  0  0  0  0  0
   -3.1510   20.7330  -33.5450 N   0  0  0  0  0  0  0  0  0  0  0  0
   -4.4740   20.3780  -33.1030 C   0  0  0  0  0  0  0  0  0  0  0  0
   -4.9930   19.1110  -33.4340 C   0  0  0  0  0  0  0  0  0  0  0  0
   -4.1610   18.1130  -33.9900 C   0  0  0  0  0  0  0  0  0  0  0  0
   -4.6880   16.8910  -34.3980 C   0  0  0  0  0  0  0  0  0  0  0  0
   -6.0490   16.6430  -34.2660 C   0  0  0  0  0  0  0  0  0  0  0  0
   -6.8800   17.5980  -33.6800 C   0  0  0  0  0  0  0  0  0  0  0  0
   -6.3630   18.8300  -33.2050 C   0  0  0  0  0  0  0  0  0  0  0  0
   -7.1590   19.7520  -32.5580 N   0  0  0  0  0  0  0  0  0  0  0  0
   -8.5030   19.3560  -32.0800 C   0  0  0  0  0  0  0  0  0  0  0  0
   -6.6860   21.0280  -32.3050 C   0  0  0  0  0  0  0  0  0  0  0  0
   -7.5560   22.0610  -31.8950 C   0  0  0  0  0  0  0  0  0  0  0  0
   -7.0770   23.3220  -31.5720 C   0  0  0  0  0  0  0  0  0  0  0  0
   -5.7050   23.6010  -31.6090 C   0  0  0  0  0  0  0  0  0  0  0  0
   -5.2250   24.8740  -31.2590 O   0  0  0  0  0  0  0  0  0  0  0  0
   -5.6880   25.6520  -30.1590 C   0  0  0  0  0  0  0  0  0  0  0  0
   -4.8030   22.5870  -32.0160 C   0  0  0  0  0  0  0  0  0  0  0  0
   -3.4060   22.7570  -31.9380 O   0  0  0  0  0  0  0  0  0  0  0  0
   -2.5860   22.6580  -30.7780 C   0  0  0  0  0  0  0  0  0  0  0  0
   -5.3080   21.3350  -32.4750 C   0  0  0  0  0  0  0  0  0  0  0  0
    1.1448   23.1554  -34.8470 H   0  0  0  0  0  0  0  0  0  0  0  0
    1.9016   22.6353  -36.3908 H   0  0  0  0  0  0  0  0  0  0  0  0
    0.2415   23.3212  -36.3908 H   0  0  0  0  0  0  0  0  0  0  0  0
    0.1512   20.8709  -36.6290 H   0  0  0  0  0  0  0  0  0  0  0  0
    1.1199   20.6834  -35.1153 H   0  0  0  0  0  0  0  0  0  0  0  0
   -1.5950   20.7950  -35.3320 H   0  0  0  0  0  0  0  0  0  0  0  0
   -1.1780   22.3370  -34.7630 H   0  0  0  0  0  0  0  0  0  0  0  0
    0.1102   19.9868  -33.5571 H   0  0  0  0  0  0  0  0  0  0  0  0
   -0.3704   21.5791  -32.8194 H   0  0  0  0  0  0  0  0  0  0  0  0
   -1.9463   19.0571  -33.1553 H   0  0  0  0  0  0  0  0  0  0  0  0
   -1.9867   20.3210  -31.8572 H   0  0  0  0  0  0  0  0  0  0  0  0
   -3.0410   21.5650  -34.1680 H   0  0  0  0  0  0  0  0  0  0  0  0
   -3.0835   18.3043  -34.1017 H   0  0  0  0  0  0  0  0  0  0  0  0
   -4.0274   16.1219  -34.8247 H   0  0  0  0  0  0  0  0  0  0  0  0
   -6.4715   15.6926  -34.6240 H   0  0  0  0  0  0  0  0  0  0  0  0
   -7.9562   17.3915  -33.5846 H   0  0  0  0  0  0  0  0  0  0  0  0
   -8.5147   19.3526  -30.9801 H   0  0  0  0  0  0  0  0  0  0  0  0
   -9.2503   20.0721  -32.4524 H   0  0  0  0  0  0  0  0  0  0  0  0
   -8.7426   18.3491  -32.4524 H   0  0  0  0  0  0  0  0  0  0  0  0
   -8.6359   21.8620  -31.8303 H   0  0  0  0  0  0  0  0  0  0  0  0
   -7.7841   24.1135  -31.2829 H   0  0  0  0  0  0  0  0  0  0  0  0
   -5.3977   25.1641  -29.2168 H   0  0  0  0  0  0  0  0  0  0  0  0
   -5.2401   26.6556  -30.2054 H   0  0  0  0  0  0  0  0  0  0  0  0
   -6.7837   25.7370  -30.2054 H   0  0  0  0  0  0  0  0  0  0  0  0
   -3.2136   22.7338  -29.8778 H   0  0  0  0  0  0  0  0  0  0  0  0
   -2.0631   21.6902  -30.7801 H   0  0  0  0  0  0  0  0  0  0  0  0
   -1.8478   23.4735  -30.7801 H   0  0  0  0  0  0  0  0  0  0  0  0
  1  2  1  0
  2  3  1  0
  3  4  1  0
  4  5  1  0
  5  6  1  0
  6  7  1  0
  7  8  2  0
  8  9  1  0
  9 10  2  0
 10 11  1  0
 11 12  2  0
 12 13  1  0
 13 14  2  0
 14 15  1  0
 14 16  1  0
 16 17  2  0
 17 18  1  0
 18 19  2  0
 19 20  1  0
 20 21  1  0
 19 22  1  0
 22 23  1  0
 23 24  1  0
 22 25  2  0
 25  7  1  0
 13  8  1  0
 25 16  1  0
  1 26  1  0
  1 27  1  0
  1 28  1  0
  2 29  1  0
  2 30  1  0
  3 31  1  0
  3 32  1  0
  4 33  1  0
  4 34  1  0
  5 35  1  0
  5 36  1  0
  6 37  1  0
  9 38  1  0
 10 39  1  0
 11 40  1  0
 12 41  1  0
 15 42  1  0
 15 43  1  0
 15 44  1  0
 17 45  1  0
 18 46  1  0
 21 47  1  0
 21 48  1  0
 21 49  1  0
 24 50  1  0
 24 51  1  0
 24 52  1  0
M  CHG  2   3   1  14   1
M  END
>  <UniqueID>  (14) 
14

>  <SMILES>  (14) 
CC[NH2+]CCNc1c2ccccc2[n+](C)c2ccc(OC)c(OC)c12

>  <Energy>  (14) 
84.09328483591447

>  <Genealogy>  (14) 
CC[NH2+]CCNc1c2ccccc2[n+](C)c2ccc(OC)c(OC)c12 (protonated)
CC[NH2+]CCNc1c2ccccc2[n+](C)c2ccc(OC)c(OC)c12 (3D coordinates assigned)
CC[NH2+]CCNc1c2ccccc2[n+](C)c2ccc(OC)c(OC)c12 (optimized conformer: 84.09328483591447 kcal/mol)

>  <smiles>  (14) 
CCNCCNc1c2ccccc2[n+](C)c2ccc(OC)c(OC)c12

>  <score_type>  (14) 
oracle

>  <origin>  (14) 
adg

>  <m_score__min__energy>  (14) 
-7.3899999999999997

>  <m_primary>  (14) 
energy

$$$$
14:0
     RDKit          3D

 50 52  0  0  0  0  0  0  0  0999 V2000
   -2.2550   21.1440  -33.1050 C   0  0  0  0  0  0  0  0  0  0  0  0
   -2.7570   19.7780  -33.5040 C   0  0  0  0  0  0  0  0  0  0  0  0
   -1.7900   18.8620  -33.9410 C   0  0  0  0  0  0  0  0  0  0  0  0
   -2.1210   17.5390  -34.1880 C   0  0  0  0  0  0  0  0  0  0  0  0
   -3.4250   17.1020  -34.0130 C   0  0  0  0  0  0  0  0  0  0  0  0
   -4.4560   17.9940  -33.6340 C   0  0  0  0  0  0  0  0  0  0  0  0
   -4.1260   19.3630  -33.3850 C   0  0  0  0  0  0  0  0  0  0  0  0
   -5.1840   20.2440  -33.0350 C   0  0  0  0  0  0  0  0  0  0  0  0
   -5.0340   21.6730  -33.1130 N   0  0  0  0  0  0  0  0  0  0  0  0
   -4.8950   22.4980  -31.9080 C   0  0  0  0  0  0  0  0  0  0  0  0
   -6.1700   23.2930  -31.5950 C   0  0  0  0  0  0  0  0  0  0  0  0
   -6.5250   23.4620  -30.0950 C   0  0  0  0  0  0  0  0  0  0  0  0
   -5.8440   24.5580  -29.3460 N   0  0  0  0  0  0  0  0  0  0  0  0
   -5.7420   25.8290  -30.0850 C   0  0  0  0  0  0  0  0  0  0  0  0
   -4.5340   24.1580  -28.8020 C   0  0  0  0  0  0  0  0  0  0  0  0
   -6.4200   19.7070  -32.6310 C   0  0  0  0  0  0  0  0  0  0  0  0
   -7.3950   20.5160  -32.0060 C   0  0  0  0  0  0  0  0  0  0  0  0
   -8.6080   19.9770  -31.5910 C   0  0  0  0  0  0  0  0  0  0  0  0
   -8.8670   18.6240  -31.7730 C   0  0  0  0  0  0  0  0  0  0  0  0
   -7.9190   17.8060  -32.3860 C   0  0  0  0  0  0  0  0  0  0  0  0
   -6.6870   18.3350  -32.8480 C   0  0  0  0  0  0  0  0  0  0  0  0
   -5.7580   17.5510  -33.4980 N   0  0  0  0  0  0  0  0  0  0  0  0
   -6.1650   16.2420  -34.0580 C   0  0  0  0  0  0  0  0  0  0  0  0
   -2.2276   21.2185  -32.0079 H   0  0  0  0  0  0  0  0  0  0  0  0
   -1.2427   21.2948  -33.5081 H   0  0  0  0  0  0  0  0  0  0  0  0
   -2.9287   21.9144  -33.5081 H   0  0  0  0  0  0  0  0  0  0  0  0
   -0.7533   19.1982  -34.0901 H   0  0  0  0  0  0  0  0  0  0  0  0
   -1.3467   16.8336  -34.5239 H   0  0  0  0  0  0  0  0  0  0  0  0
   -3.6631   16.0399  -34.1721 H   0  0  0  0  0  0  0  0  0  0  0  0
   -4.6190   22.0560  -33.9920 H   0  0  0  0  0  0  0  0  0  0  0  0
   -4.6689   21.8420  -31.0545 H   0  0  0  0  0  0  0  0  0  0  0  0
   -4.0842   23.2197  -32.0864 H   0  0  0  0  0  0  0  0  0  0  0  0
   -6.0525   24.2979  -32.0266 H   0  0  0  0  0  0  0  0  0  0  0  0
   -6.9942   22.7061  -32.0265 H   0  0  0  0  0  0  0  0  0  0  0  0
   -7.6082   23.6425  -30.0309 H   0  0  0  0  0  0  0  0  0  0  0  0
   -6.1738   22.5354  -29.6174 H   0  0  0  0  0  0  0  0  0  0  0  0
   -6.4450   24.7570  -28.5100 H   0  0  0  0  0  0  0  0  0  0  0  0
   -5.6750   26.6636  -29.3716 H   0  0  0  0  0  0  0  0  0  0  0  0
   -4.8422   25.8142  -30.7175 H   0  0  0  0  0  0  0  0  0  0  0  0
   -6.6327   25.9579  -30.7175 H   0  0  0  0  0  0  0  0  0  0  0  0
   -4.5742   24.1703  -27.7028 H   0  0  0  0  0  0  0  0  0  0  0  0
   -4.2873   23.1436  -29.1486 H   0  0  0  0  0  0  0  0  0  0  0  0
   -3.7627   24.8616  -29.1486 H   0  0  0  0  0  0  0  0  0  0  0  0
   -7.1923   21.5852  -31.8456 H   0  0  0  0  0  0  0  0  0  0  0  0
   -9.3630   20.6223  -31.1183 H   0  0  0  0  0  0  0  0  0  0  0  0
   -9.8221   18.1974  -31.4327 H   0  0  0  0  0  0  0  0  0  0  0  0
   -8.1298   16.7339  -32.5133 H   0  0  0  0  0  0  0  0  0  0  0  0
   -6.3822   15.5434  -33.2366 H   0  0  0  0  0  0  0  0  0  0  0  0
   -7.0652   16.3718  -34.6767 H   0  0  0  0  0  0  0  0  0  0  0  0
   -5.3499   15.8385  -34.6767 H   0  0  0  0  0  0  0  0  0  0  0  0
  1  2  1  0
  2  3  2  0
  3  4  1  0
  4  5  2  0
  5  6  1  0
  6  7  2  0
  7  8  1  0
  8  9  1  0
  9 10  1  0
 10 11  1  0
 11 12  1  0
 12 13  1  0
 13 14  1  0
 13 15  1  0
  8 16  2  0
 16 17  1  0
 17 18  2  0
 18 19  1  0
 19 20  2  0
 20 21  1  0
 21 22  2  0
 22 23  1  0
  7  2  1  0
 21 16  1  0
 22  6  1  0
  1 24  1  0
  1 25  1  0
  1 26  1  0
  3 27  1  0
  4 28  1  0
  5 29  1  0
  9 30  1  0
 10 31  1  0
 10 32  1  0
 11 33  1  0
 11 34  1  0
 12 35  1  0
 12 36  1  0
 13 37  1  0
 14 38  1  0
 14 39  1  0
 14 40  1  0
 15 41  1  0
 15 42  1  0
 15 43  1  0
 17 44  1  0
 18 45  1  0
 19 46  1  0
 20 47  1  0
 23 48  1  0
 23 49  1  0
 23 50  1  0
M  CHG  2  13   1  22   1
M  END
>  <UniqueID>  (15) 
15

>  <SMILES>  (15) 
Cc1cccc2c1c(NCCC[NH+](C)C)c1ccccc1[n+]2C

>  <Energy>  (15) 
90.24964125587596

>  <Genealogy>  (15) 
Cc1cccc2c1c(NCCC[NH+](C)C)c1ccccc1[n+]2C (protonated)
Cc1cccc2c1c(NCCC[NH+](C)C)c1ccccc1[n+]2C (3D coordinates assigned)
Cc1cccc2c1c(NCCC[NH+](C)C)c1ccccc1[n+]2C (optimized conformer: 90.24964125587596 kcal/mol)

>  <smiles>  (15) 
Cc1cccc2c1c(NCCCN(C)C)c1ccccc1[n+]2C

>  <score_type>  (15) 
oracle

>  <origin>  (15) 
adg

>  <m_score__min__energy>  (15) 
-6.9900000000000002

>  <m_primary>  (15) 
energy

$$$$
15:0
     RDKit          3D

 65 67  0  0  0  0  0  0  0  0999 V2000
   -9.4070   21.7030  -31.1080 C   0  0  0  0  0  0  0  0  0  0  0  0
   -8.5850   21.4060  -32.2300 O   0  0  0  0  0  0  0  0  0  0  0  0
   -7.9750   20.1620  -32.4560 C   0  0  0  0  0  0  0  0  0  0  0  0
   -8.2770   19.1010  -31.5920 C   0  0  0  0  0  0  0  0  0  0  0  0
   -7.6970   17.8430  -31.7880 C   0  0  0  0  0  0  0  0  0  0  0  0
   -6.8060   17.6360  -32.8450 C   0  0  0  0  0  0  0  0  0  0  0  0
   -6.4790   18.6930  -33.7090 C   0  0  0  0  0  0  0  0  0  0  0  0
   -5.5680   18.4640  -34.8900 C   0  0  0  0  0  0  0  0  0  0  0  0
   -4.2510   17.9960  -34.4360 N   0  0  0  0  0  0  0  0  0  0  0  0
   -3.9030   18.5950  -33.1350 C   0  0  0  0  0  0  0  0  0  0  0  0
   -2.7940   19.6820  -33.2410 C   0  0  1  0  0  0  0  0  0  0  0  0
   -2.4130   19.9330  -34.5740 O   0  0  0  0  0  0  0  0  0  0  0  0
   -3.1520   21.0110  -32.5310 C   0  0  2  0  0  0  0  0  0  0  0  0
   -4.4610   21.6750  -33.0400 C   0  0  0  0  0  0  0  0  0  0  0  0
   -5.2020   22.4790  -31.9940 C   0  0  0  0  0  0  0  0  0  0  0  0
   -5.7470   23.7370  -32.3130 C   0  0  0  0  0  0  0  0  0  0  0  0
   -6.4780   24.4510  -31.3630 C   0  0  0  0  0  0  0  0  0  0  0  0
   -6.7050   23.9030  -30.0980 C   0  0  0  0  0  0  0  0  0  0  0  0
   -6.2060   22.6380  -29.7850 C   0  0  0  0  0  0  0  0  0  0  0  0
   -5.4630   21.9230  -30.7280 C   0  0  0  0  0  0  0  0  0  0  0  0
   -2.0420   21.9380  -32.7410 N   0  0  0  0  0  0  0  0  0  0  0  0
   -0.6950   21.5440  -33.0210 C   0  0  0  0  0  0  0  0  0  0  0  0
   -0.2610   21.5490  -34.2050 O   0  0  0  0  0  0  0  0  0  0  0  0
    0.2130   21.1230  -31.9030 C   0  0  0  0  0  0  0  0  0  0  0  0
   -0.1880   21.7070  -30.6610 O   0  0  0  0  0  0  0  0  0  0  0  0
   -0.8060   21.0190  -29.6000 C   0  0  0  0  0  0  0  0  0  0  0  0
   -0.3130   19.7910  -29.1120 C   0  0  0  0  0  0  0  0  0  0  0  0
   -0.9400   19.1450  -28.0340 C   0  0  0  0  0  0  0  0  0  0  0  0
   -0.4030   17.8330  -27.5330 C   0  0  0  0  0  0  0  0  0  0  0  0
   -2.0690   19.7370  -27.4350 C   0  0  0  0  0  0  0  0  0  0  0  0
   -2.9640   18.9260  -25.9440 Br  0  0  0  0  0  0  0  0  0  0  0  0
   -2.5600   20.9530  -27.9220 C   0  0  0  0  0  0  0  0  0  0  0  0
   -1.9410   21.5850  -29.0030 C   0  0  0  0  0  0  0  0  0  0  0  0
   -2.6260   23.2670  -29.6100 Br  0  0  0  0  0  0  0  0  0  0  0  0
   -7.0740   19.9490  -33.5150 C   0  0  0  0  0  0  0  0  0  0  0  0
   -8.8494   21.5015  -30.1814 H   0  0  0  0  0  0  0  0  0  0  0  0
   -9.6985   22.7633  -31.1374 H   0  0  0  0  0  0  0  0  0  0  0  0
  -10.3089   21.0739  -31.1374 H   0  0  0  0  0  0  0  0  0  0  0  0
   -8.9737   19.2580  -30.7553 H   0  0  0  0  0  0  0  0  0  0  0  0
   -7.9430   17.0140  -31.1081 H   0  0  0  0  0  0  0  0  0  0  0  0
   -6.3600   16.6425  -33.0001 H   0  0  0  0  0  0  0  0  0  0  0  0
   -6.0143   17.7062  -35.5508 H   0  0  0  0  0  0  0  0  0  0  0  0
   -5.4426   19.4119  -35.4338 H   0  0  0  0  0  0  0  0  0  0  0  0
   -3.5290   18.2500  -35.1480 H   0  0  0  0  0  0  0  0  0  0  0  0
   -4.2830   16.9540  -34.3320 H   0  0  0  0  0  0  0  0  0  0  0  0
   -4.8061   19.0565  -32.7092 H   0  0  0  0  0  0  0  0  0  0  0  0
   -3.5125   17.7889  -32.4964 H   0  0  0  0  0  0  0  0  0  0  0  0
   -1.9351   19.2509  -32.7057 H   0  0  0  0  0  0  0  0  0  0  0  0
   -2.2630   20.9100  -34.6560 H   0  0  0  0  0  0  0  0  0  0  0  0
   -3.3212   20.7785  -31.4692 H   0  0  0  0  0  0  0  0  0  0  0  0
   -4.2048   22.3468  -33.8725 H   0  0  0  0  0  0  0  0  0  0  0  0
   -5.1319   20.8566  -33.3402 H   0  0  0  0  0  0  0  0  0  0  0  0
   -5.5957   24.1597  -33.3172 H   0  0  0  0  0  0  0  0  0  0  0  0
   -6.8760   25.4463  -31.6102 H   0  0  0  0  0  0  0  0  0  0  0  0
   -7.2774   24.4691  -29.3484 H   0  0  0  0  0  0  0  0  0  0  0  0
   -6.3981   22.2025  -28.7933 H   0  0  0  0  0  0  0  0  0  0  0  0
   -5.0807   20.9219  -30.4798 H   0  0  0  0  0  0  0  0  0  0  0  0
    0.1830   20.0273  -31.8101 H   0  0  0  0  0  0  0  0  0  0  0  0
    1.2321   21.4658  -32.1352 H   0  0  0  0  0  0  0  0  0  0  0  0
    0.5715   19.3346  -29.5804 H   0  0  0  0  0  0  0  0  0  0  0  0
   -0.4029   17.8329  -26.4330 H   0  0  0  0  0  0  0  0  0  0  0  0
   -1.0378   17.0129  -27.8997 H   0  0  0  0  0  0  0  0  0  0  0  0
    0.6246   17.6934  -27.8997 H   0  0  0  0  0  0  0  0  0  0  0  0
   -3.4399   21.4148  -27.4503 H   0  0  0  0  0  0  0  0  0  0  0  0
   -6.8331   20.7763  -34.1988 H   0  0  0  0  0  0  0  0  0  0  0  0
  1  2  1  0
  2  3  1  0
  3  4  2  0
  4  5  1  0
  5  6  2  0
  6  7  1  0
  7  8  1  0
  8  9  1  0
  9 10  1  0
 10 11  1  0
 11 12  1  0
 11 13  1  0
 13 14  1  0
 14 15  1  0
 15 16  2  0
 16 17  1  0
 17 18  2  0
 18 19  1  0
 19 20  2  0
 13 21  1  0
 21 22  1  0
 22 23  2  0
 22 24  1  0
 24 25  1  0
 25 26  1  0
 26 27  2  0
 27 28  1  0
 28 29  1  0
 28 30  2  0
 30 31  1  0
 30 32  1  0
 32 33  2  0
 33 34  1  0
  7 35  2  0
 35  3  1  0
 20 15  1  0
 33 26  1  0
  1 36  1  0
  1 37  1  0
  1 38  1  0
  4 39  1  0
  5 40  1  0
  6 41  1  0
  8 42  1  0
  8 43  1  0
  9 44  1  0
  9 45  1  0
 10 46  1  0
 10 47  1  0
 11 48  1  1
 12 49  1  0
 13 50  1  1
 14 51  1  0
 14 52  1  0
 16 53  1  0
 17 54  1  0
 18 55  1  0
 19 56  1  0
 20 57  1  0
 24 58  1  0
 24 59  1  0
 27 60  1  0
 29 61  1  0
 29 62  1  0
 29 63  1  0
 32 64  1  0
 35 65  1  0
M  CHG  2   9   1  21  -1
M  END
>  <UniqueID>  (16) 
16

>  <SMILES>  (16) 
COc1cccc(C[NH2+]C[C@@H](O)[C@H](Cc2ccccc2)[N-]C(=O)COc2cc(C)c(Br)cc2Br)c1

>  <Energy>  (16) 
64.6322401393832

>  <Genealogy>  (16) 
COc1cccc(C[NH2+]CC(O)C(Cc2ccccc2)[N-]C(=O)COc2cc(C)c(Br)cc2Br)c1 (protonated)
COc1cccc(C[NH2+]C[C@@H](O)[C@H](Cc2ccccc2)[N-]C(=O)COc2cc(C)c(Br)cc2Br)c1 (chirality)
COc1cccc(C[NH2+]C[C@@H](O)[C@H](Cc2ccccc2)[N-]C(=O)COc2cc(C)c(Br)cc2Br)c1 (3D coordinates assigned)
COc1cccc(C[NH2+]C[C@@H](O)[C@H](Cc2ccccc2)[N-]C(=O)COc2cc(C)c(Br)cc2Br)c1 (optimized conformer: 64.6322401393832 kcal/mol)

>  <smiles>  (16) 
COc1cccc(CNCC(O)C(Cc2ccccc2)NC(=O)COc2cc(C)c(Br)cc2Br)c1

>  <score_type>  (16) 
oracle

>  <origin>  (16) 
adg

>  <m_score__min__energy>  (16) 
-11.01

>  <m_primary>  (16) 
energy

$$$$
16:0
     RDKit          3D

 45 47  0  0  0  0  0  0  0  0999 V2000
    0.2600   24.6560  -36.1380 C   0  0  0  0  0  0  0  0  0  0  0  0
    1.1730   23.4970  -35.7490 C   0  0  0  0  0  0  0  0  0  0  0  0
    0.3620   22.3420  -35.2880 N   0  0  0  0  0  0  0  0  0  0  0  0
   -0.0450   21.5020  -36.4270 C   0  0  0  0  0  0  0  0  0  0  0  0
    1.0790   21.5360  -34.2740 C   0  0  0  0  0  0  0  0  0  0  0  0
    0.0860   20.9890  -33.2460 C   0  0  0  0  0  0  0  0  0  0  0  0
   -1.2470   21.5440  -33.5170 N   0  0  0  0  0  0  0  0  0  0  0  0
   -2.3090   20.6600  -33.0200 C   0  0  0  0  0  0  0  0  0  0  0  0
   -3.4410   21.4940  -32.4650 C   0  0  0  0  0  0  0  0  0  0  0  0
   -3.1370   22.6750  -31.7760 C   0  0  0  0  0  0  0  0  0  0  0  0
   -4.1690   23.4290  -31.2200 C   0  0  0  0  0  0  0  0  0  0  0  0
   -3.9070   24.4860  -30.5960 O   0  0  0  0  0  0  0  0  0  0  0  0
   -5.4300   23.0330  -31.3340 O   0  0  0  0  0  0  0  0  0  0  0  0
   -5.7850   21.9180  -31.9690 C   0  0  0  0  0  0  0  0  0  0  0  0
   -4.7970   21.0990  -32.5700 C   0  0  0  0  0  0  0  0  0  0  0  0
   -5.1910   19.9180  -33.2270 C   0  0  0  0  0  0  0  0  0  0  0  0
   -6.5350   19.5510  -33.2870 C   0  0  0  0  0  0  0  0  0  0  0  0
   -7.5170   20.3520  -32.6920 C   0  0  0  0  0  0  0  0  0  0  0  0
   -8.8680   19.9670  -32.7390 C   0  0  0  0  0  0  0  0  0  0  0  0
   -9.8440   20.7570  -32.1300 C   0  0  0  0  0  0  0  0  0  0  0  0
   -9.4840   21.9380  -31.4770 C   0  0  0  0  0  0  0  0  0  0  0  0
   -8.1440   22.3370  -31.4280 C   0  0  0  0  0  0  0  0  0  0  0  0
   -7.1450   21.5490  -32.0300 C   0  0  0  0  0  0  0  0  0  0  0  0
   -0.1230   25.1422  -35.2287 H   0  0  0  0  0  0  0  0  0  0  0  0
    0.8279   25.3864  -36.7329 H   0  0  0  0  0  0  0  0  0  0  0  0
   -0.5831   24.2749  -36.7329 H   0  0  0  0  0  0  0  0  0  0  0  0
    1.7714   23.1963  -36.6217 H   0  0  0  0  0  0  0  0  0  0  0  0
    1.8370   23.8194  -34.9334 H   0  0  0  0  0  0  0  0  0  0  0  0
   -0.4961   20.5710  -36.0532 H   0  0  0  0  0  0  0  0  0  0  0  0
   -0.7797   22.0454  -37.0393 H   0  0  0  0  0  0  0  0  0  0  0  0
    0.8368   21.2622  -37.0393 H   0  0  0  0  0  0  0  0  0  0  0  0
    1.5901   20.6974  -34.7695 H   0  0  0  0  0  0  0  0  0  0  0  0
    1.8170   22.1712  -33.7622 H   0  0  0  0  0  0  0  0  0  0  0  0
    0.0491   19.8920  -33.3181 H   0  0  0  0  0  0  0  0  0  0  0  0
    0.4067   21.2768  -32.2339 H   0  0  0  0  0  0  0  0  0  0  0  0
   -1.3570   21.6420  -34.5580 H   0  0  0  0  0  0  0  0  0  0  0  0
   -2.6834   20.0368  -33.8455 H   0  0  0  0  0  0  0  0  0  0  0  0
   -1.9063   20.0140  -32.2259 H   0  0  0  0  0  0  0  0  0  0  0  0
   -2.0925   23.0047  -31.6745 H   0  0  0  0  0  0  0  0  0  0  0  0
   -4.4306   19.2778  -33.6981 H   0  0  0  0  0  0  0  0  0  0  0  0
   -6.8257   18.6255  -33.8056 H   0  0  0  0  0  0  0  0  0  0  0  0
   -9.1567   19.0406  -33.2571 H   0  0  0  0  0  0  0  0  0  0  0  0
  -10.8994   20.4488  -32.1643 H   0  0  0  0  0  0  0  0  0  0  0  0
  -10.2575   22.5571  -30.9991 H   0  0  0  0  0  0  0  0  0  0  0  0
   -7.8697   23.2713  -30.9164 H   0  0  0  0  0  0  0  0  0  0  0  0
  1  2  1  0
  2  3  1  0
  3  4  1  0
  3  5  1  0
  5  6  1  0
  6  7  1  0
  7  8  1  0
  8  9  1  0
  9 10  2  0
 10 11  1  0
 11 12  2  0
 11 13  1  0
 13 14  1  0
 14 15  2  0
 15 16  1  0
 16 17  2  0
 17 18  1  0
 18 19  2  0
 19 20  1  0
 20 21  2  0
 21 22  1  0
 22 23  2  0
 15  9  1  0
 23 18  1  0
 23 14  1  0
  1 24  1  0
  1 25  1  0
  1 26  1  0
  2 27  1  0
  2 28  1  0
  4 29  1  0
  4 30  1  0
  4 31  1  0
  5 32  1  0
  5 33  1  0
  6 34  1  0
  6 35  1  0
  7 36  1  0
  8 37  1  0
  8 38  1  0
 10 39  1  0
 16 40  1  0
 17 41  1  0
 19 42  1  0
 20 43  1  0
 21 44  1  0
 22 45  1  0
M  END
>  <UniqueID>  (17) 
17

>  <SMILES>  (17) 
CCN(C)CCNCc1cc(=O)oc2c1ccc1ccccc12

>  <Energy>  (17) 
52.892586526116986

>  <Genealogy>  (17) 
CCN(C)CCNCc1cc(=O)oc2c1ccc1ccccc12 (3D coordinates assigned)
CCN(C)CCNCc1cc(=O)oc2c1ccc1ccccc12 (optimized conformer: 52.892586526116986 kcal/mol)

>  <smiles>  (17) 
CCN(C)CCNCc1cc(=O)oc2c1ccc1ccccc12

>  <score_type>  (17) 
oracle

>  <origin>  (17) 
adg

>  <m_score__min__energy>  (17) 
-8.1199999999999992

>  <m_primary>  (17) 
energy

$$$$
17:0
     RDKit          3D

 33 34  0  0  0  0  0  0  0  0999 V2000
   -7.8530   18.1940  -32.1970 C   0  0  0  0  0  0  0  0  0  0  0  0
   -8.7330   19.2830  -31.5840 C   0  0  0  0  0  0  0  0  0  0  0  0
   -9.0560   20.4100  -32.5820 C   0  0  0  0  0  0  0  0  0  0  0  0
   -9.1030   21.8130  -31.9460 C   0  0  0  0  0  0  0  0  0  0  0  0
   -8.3640   21.9230  -30.5970 C   0  0  0  0  0  0  0  0  0  0  0  0
   -7.1190   22.7130  -30.7030 N   0  0  0  0  0  0  0  0  0  0  0  0
   -7.1610   23.9760  -30.1720 C   0  0  0  0  0  0  0  0  0  0  0  0
   -6.0570   24.8180  -30.2090 C   0  0  0  0  0  0  0  0  0  0  0  0
   -4.8770   24.3850  -30.7950 C   0  0  0  0  0  0  0  0  0  0  0  0
   -3.8820   25.1610  -30.8210 O   0  0  0  0  0  0  0  0  0  0  0  0
   -4.8080   23.0970  -31.3520 C   0  0  0  0  0  0  0  0  0  0  0  0
   -3.6200   22.6440  -31.9600 C   0  0  0  0  0  0  0  0  0  0  0  0
   -3.5560   21.3740  -32.5240 C   0  0  0  0  0  0  0  0  0  0  0  0
   -4.6690   20.5400  -32.4930 C   0  0  0  0  0  0  0  0  0  0  0  0
   -5.8560   20.9660  -31.8920 C   0  0  0  0  0  0  0  0  0  0  0  0
   -5.9550   22.2520  -31.3030 C   0  0  0  0  0  0  0  0  0  0  0  0
   -7.3805   17.6092  -31.3940 H   0  0  0  0  0  0  0  0  0  0  0  0
   -8.4712   17.5300  -32.8191 H   0  0  0  0  0  0  0  0  0  0  0  0
   -7.0740   18.6590  -32.8191 H   0  0  0  0  0  0  0  0  0  0  0  0
   -9.6764   18.8273  -31.2488 H   0  0  0  0  0  0  0  0  0  0  0  0
   -8.1787   19.7281  -30.7446 H   0  0  0  0  0  0  0  0  0  0  0  0
   -8.2839   20.4106  -33.3655 H   0  0  0  0  0  0  0  0  0  0  0  0
  -10.0611   20.2059  -32.9797 H   0  0  0  0  0  0  0  0  0  0  0  0
   -8.6456   22.5253  -32.6485 H   0  0  0  0  0  0  0  0  0  0  0  0
  -10.1619   22.0321  -31.7440 H   0  0  0  0  0  0  0  0  0  0  0  0
   -9.0295   22.4075  -29.8674 H   0  0  0  0  0  0  0  0  0  0  0  0
   -8.0916   20.9061  -30.2782 H   0  0  0  0  0  0  0  0  0  0  0  0
   -8.0916   24.3313  -29.7053 H   0  0  0  0  0  0  0  0  0  0  0  0
   -6.1185   25.8266  -29.7742 H   0  0  0  0  0  0  0  0  0  0  0  0
   -2.7370   23.2994  -31.9888 H   0  0  0  0  0  0  0  0  0  0  0  0
   -2.6239   21.0287  -32.9952 H   0  0  0  0  0  0  0  0  0  0  0  0
   -4.6141   19.5385  -32.9447 H   0  0  0  0  0  0  0  0  0  0  0  0
   -6.7266   20.2939  -31.8755 H   0  0  0  0  0  0  0  0  0  0  0  0
  1  2  1  0
  2  3  1  0
  3  4  1  0
  4  5  1  0
  5  6  1  0
  6  7  1  0
  7  8  2  0
  8  9  1  0
  9 10  2  0
  9 11  1  0
 11 12  2  0
 12 13  1  0
 13 14  2  0
 14 15  1  0
 15 16  2  0
 16  6  1  0
 16 11  1  0
  1 17  1  0
  1 18  1  0
  1 19  1  0
  2 20  1  0
  2 21  1  0
  3 22  1  0
  3 23  1  0
  4 24  1  0
  4 25  1  0
  5 26  1  0
  5 27  1  0
  7 28  1  0
  8 29  1  0
 12 30  1  0
 13 31  1  0
 14 32  1  0
 15 33  1  0
M  END
>  <UniqueID>  (18) 
18

>  <SMILES>  (18) 
CCCCCn1ccc(=O)c2ccccc21

>  <Energy>  (18) 
38.677732648335954

>  <Genealogy>  (18) 
CCCCCn1ccc(=O)c2ccccc21 (3D coordinates assigned)
CCCCCn1ccc(=O)c2ccccc21 (optimized conformer: 38.677732648335954 kcal/mol)

>  <smiles>  (18) 
CCCCCn1ccc(=O)c2ccccc21

>  <score_type>  (18) 
oracle

>  <origin>  (18) 
adg

>  <m_score__min__energy>  (18) 
-7.1200000000000001

>  <m_primary>  (18) 
energy

$$$$
18:0
     RDKit          3D

 64 66  0  0  0  0  0  0  0  0999 V2000
   -2.1180   24.5180  -28.9350 C   0  0  0  0  0  0  0  0  0  0  0  0
   -3.2210   23.8960  -29.7860 C   0  0  0  0  0  0  0  0  0  0  0  0
   -3.7790   24.8840  -30.7220 N   0  0  0  0  0  0  0  0  0  0  0  0
   -5.0460   25.4380  -30.2240 C   0  0  0  0  0  0  0  0  0  0  0  0
   -5.8610   24.3400  -29.5310 C   0  0  0  0  0  0  0  0  0  0  0  0
   -6.7030   23.5330  -30.5300 C   0  0  0  0  0  0  0  0  0  0  0  0
   -5.9000   23.1180  -31.6830 N   0  0  0  0  0  0  0  0  0  0  0  0
   -5.9210   21.7710  -32.1930 C   0  0  0  0  0  0  0  0  0  0  0  0
   -7.1380   21.0720  -32.3040 C   0  0  0  0  0  0  0  0  0  0  0  0
   -8.3640   21.6860  -31.9690 C   0  0  0  0  0  0  0  0  0  0  0  0
   -9.5560   20.9680  -32.0110 C   0  0  0  0  0  0  0  0  0  0  0  0
   -9.5500   19.6300  -32.3840 C   0  0  0  0  0  0  0  0  0  0  0  0
   -8.3570   19.0150  -32.7660 C   0  0  0  0  0  0  0  0  0  0  0  0
   -7.1340   19.7340  -32.7840 C   0  0  0  0  0  0  0  0  0  0  0  0
   -5.9640   19.1650  -33.2500 N   0  0  0  0  0  0  0  0  0  0  0  0
   -6.0130   17.9000  -34.0180 C   0  0  0  0  0  0  0  0  0  0  0  0
   -4.7530   19.7990  -33.0410 C   0  0  0  0  0  0  0  0  0  0  0  0
   -3.5190   19.1450  -33.2810 C   0  0  0  0  0  0  0  0  0  0  0  0
   -2.2960   19.8070  -33.1270 C   0  0  0  0  0  0  0  0  0  0  0  0
   -1.0680   19.1070  -33.4060 N   0  0  0  0  0  0  0  0  0  0  0  0
   -0.5140   19.1370  -34.7660 C   0  0  0  0  0  0  0  0  0  0  0  0
   -0.0290   20.5400  -35.1130 C   0  0  0  0  0  0  0  0  0  0  0  0
   -0.4980   18.2110  -32.3910 C   0  0  0  0  0  0  0  0  0  0  0  0
   -1.0090   16.7820  -32.5620 C   0  0  0  0  0  0  0  0  0  0  0  0
   -2.2710   21.1370  -32.6990 C   0  0  0  0  0  0  0  0  0  0  0  0
   -1.0280   21.7780  -32.5640 O   0  0  0  0  0  0  0  0  0  0  0  0
   -0.1090   21.5490  -31.5020 C   0  0  0  0  0  0  0  0  0  0  0  0
   -3.4780   21.7900  -32.4140 C   0  0  0  0  0  0  0  0  0  0  0  0
   -4.7190   21.1320  -32.5560 C   0  0  0  0  0  0  0  0  0  0  0  0
   -2.3568   24.3833  -27.8697 H   0  0  0  0  0  0  0  0  0  0  0  0
   -1.1598   24.0272  -29.1609 H   0  0  0  0  0  0  0  0  0  0  0  0
   -2.0421   25.5919  -29.1609 H   0  0  0  0  0  0  0  0  0  0  0  0
   -2.8039   23.0536  -30.3573 H   0  0  0  0  0  0  0  0  0  0  0  0
   -4.0249   23.5473  -29.1210 H   0  0  0  0  0  0  0  0  0  0  0  0
   -3.0960   25.6740  -30.7910 H   0  0  0  0  0  0  0  0  0  0  0  0
   -4.8341   26.2432  -29.5052 H   0  0  0  0  0  0  0  0  0  0  0  0
   -5.6237   25.8369  -31.0708 H   0  0  0  0  0  0  0  0  0  0  0  0
   -5.1703   23.6568  -29.0150 H   0  0  0  0  0  0  0  0  0  0  0  0
   -6.5472   24.8231  -28.8198 H   0  0  0  0  0  0  0  0  0  0  0  0
   -7.0978   22.6382  -30.0265 H   0  0  0  0  0  0  0  0  0  0  0  0
   -7.5253   24.1699  -30.8882 H   0  0  0  0  0  0  0  0  0  0  0  0
   -5.1420   23.7600  -32.0050 H   0  0  0  0  0  0  0  0  0  0  0  0
   -8.3778   22.7448  -31.6711 H   0  0  0  0  0  0  0  0  0  0  0  0
  -10.5037   21.4609  -31.7485 H   0  0  0  0  0  0  0  0  0  0  0  0
  -10.4872   19.0542  -32.3783 H   0  0  0  0  0  0  0  0  0  0  0  0
   -8.3649   17.9545  -33.0582 H   0  0  0  0  0  0  0  0  0  0  0  0
   -6.0460   17.0492  -33.3215 H   0  0  0  0  0  0  0  0  0  0  0  0
   -6.9122   17.8903  -34.6515 H   0  0  0  0  0  0  0  0  0  0  0  0
   -5.1173   17.8207  -34.6515 H   0  0  0  0  0  0  0  0  0  0  0  0
   -3.5227   18.0911  -33.5961 H   0  0  0  0  0  0  0  0  0  0  0  0
    0.3313   18.4358  -34.8283 H   0  0  0  0  0  0  0  0  0  0  0  0
   -1.3007   18.8459  -35.4776 H   0  0  0  0  0  0  0  0  0  0  0  0
    0.1648   21.1006  -34.1866 H   0  0  0  0  0  0  0  0  0  0  0  0
    0.8979   20.4725  -35.7014 H   0  0  0  0  0  0  0  0  0  0  0  0
   -0.7998   21.0593  -35.7014 H   0  0  0  0  0  0  0  0  0  0  0  0
    0.5979   18.2134  -32.4858 H   0  0  0  0  0  0  0  0  0  0  0  0
   -0.8036   18.5724  -31.3980 H   0  0  0  0  0  0  0  0  0  0  0  0
   -1.1708   16.3296  -31.5725 H   0  0  0  0  0  0  0  0  0  0  0  0
   -1.9578   16.7960  -33.1183 H   0  0  0  0  0  0  0  0  0  0  0  0
   -0.2664   16.1912  -33.1183 H   0  0  0  0  0  0  0  0  0  0  0  0
   -0.6232   21.6771  -30.5381 H   0  0  0  0  0  0  0  0  0  0  0  0
    0.2862   20.5249  -31.5735 H   0  0  0  0  0  0  0  0  0  0  0  0
    0.7205   22.2679  -31.5735 H   0  0  0  0  0  0  0  0  0  0  0  0
   -3.4580   22.8356  -32.0730 H   0  0  0  0  0  0  0  0  0  0  0  0
  1  2  1  0
  2  3  1  0
  3  4  1  0
  4  5  1  0
  5  6  1  0
  6  7  1  0
  7  8  1  0
  8  9  2  0
  9 10  1  0
 10 11  2  0
 11 12  1  0
 12 13  2  0
 13 14  1  0
 14 15  2  0
 15 16  1  0
 15 17  1  0
 17 18  2  0
 18 19  1  0
 19 20  1  0
 20 21  1  0
 21 22  1  0
 20 23  1  0
 23 24  1  0
 19 25  2  0
 25 26  1  0
 26 27  1  0
 25 28  1  0
 28 29  2  0
 29  8  1  0
 14  9  1  0
 29 17  1  0
  1 30  1  0
  1 31  1  0
  1 32  1  0
  2 33  1  0
  2 34  1  0
  3 35  1  0
  4 36  1  0
  4 37  1  0
  5 38  1  0
  5 39  1  0
  6 40  1  0
  6 41  1  0
  7 42  1  0
 10 43  1  0
 11 44  1  0
 12 45  1  0
 13 46  1  0
 16 47  1  0
 16 48  1  0
 16 49  1  0
 18 50  1  0
 21 51  1  0
 21 52  1  0
 22 53  1  0
 22 54  1  0
 22 55  1  0
 23 56  1  0
 23 57  1  0
 24 58  1  0
 24 59  1  0
 24 60  1  0
 27 61  1  0
 27 62  1  0
 27 63  1  0
 28 64  1  0
M  CHG  1  15   1
M  END
>  <UniqueID>  (19) 
19

>  <SMILES>  (19) 
CCNCCCNc1c2ccccc2[n+](C)c2cc(N(CC)CC)c(OC)cc12

>  <Energy>  (19) 
79.05564858478112

>  <Genealogy>  (19) 
CCNCCCNc1c2ccccc2[n+](C)c2cc(N(CC)CC)c(OC)cc12 (3D coordinates assigned)
CCNCCCNc1c2ccccc2[n+](C)c2cc(N(CC)CC)c(OC)cc12 (optimized conformer: 79.05564858478112 kcal/mol)

>  <smiles>  (19) 
CCNCCCNc1c2ccccc2[n+](C)c2cc(N(CC)CC)c(OC)cc12

>  <score_type>  (19) 
oracle

>  <origin>  (19) 
adg

>  <m_score__min__energy>  (19) 
-8.3100000000000005

>  <m_primary>  (19) 
energy

$$$$
19:0
     RDKit          3D

 61 63  0  0  0  0  0  0  0  0999 V2000
   -2.5410   19.7060  -27.0580 C   0  0  0  0  0  0  0  0  0  0  0  0
   -2.3750   21.1840  -27.4160 C   0  0  0  0  0  0  0  0  0  0  0  0
   -1.1420   21.3620  -28.2270 N   0  0  0  0  0  0  0  0  0  0  0  0
   -0.2390   22.3690  -27.6300 C   0  0  0  0  0  0  0  0  0  0  0  0
   -0.5290   22.5490  -26.1410 C   0  0  0  0  0  0  0  0  0  0  0  0
   -0.4260   20.0800  -28.4280 C   0  0  0  0  0  0  0  0  0  0  0  0
   -0.1710   19.8020  -29.9110 C   0  0  0  0  0  0  0  0  0  0  0  0
   -1.3970   19.7900  -30.6150 O   0  0  0  0  0  0  0  0  0  0  0  0
   -1.2470   20.4970  -31.8260 C   0  0  0  0  0  0  0  0  0  0  0  0
   -1.7660   21.9340  -31.6750 C   0  0  0  0  0  0  0  0  0  0  0  0
   -2.3840   22.2070  -30.3630 N   0  0  0  0  0  0  0  0  0  0  0  0
   -3.7020   22.8180  -30.4790 C   0  0  0  0  0  0  0  0  0  0  0  0
   -3.8420   24.1990  -30.2080 C   0  0  0  0  0  0  0  0  0  0  0  0
   -2.7380   24.9200  -29.7150 O   0  0  0  0  0  0  0  0  0  0  0  0
   -2.2700   24.8780  -28.3690 C   0  0  0  0  0  0  0  0  0  0  0  0
   -5.0710   24.8300  -30.4340 C   0  0  0  0  0  0  0  0  0  0  0  0
   -6.1650   24.1130  -30.8810 C   0  0  0  0  0  0  0  0  0  0  0  0
   -6.1030   22.7140  -31.0680 C   0  0  0  0  0  0  0  0  0  0  0  0
   -4.8500   22.0670  -30.8890 C   0  0  0  0  0  0  0  0  0  0  0  0
   -4.7810   20.6840  -31.1220 C   0  0  0  0  0  0  0  0  0  0  0  0
   -5.8770   19.9870  -31.6250 C   0  0  0  0  0  0  0  0  0  0  0  0
   -5.7500   18.6260  -31.9540 C   0  0  0  0  0  0  0  0  0  0  0  0
   -6.8190   17.9370  -32.5160 C   0  0  0  0  0  0  0  0  0  0  0  0
   -8.0190   18.5990  -32.7670 C   0  0  0  0  0  0  0  0  0  0  0  0
   -8.1650   19.9460  -32.4310 C   0  0  0  0  0  0  0  0  0  0  0  0
   -7.1030   20.6620  -31.8180 C   0  0  0  0  0  0  0  0  0  0  0  0
   -7.2270   21.9840  -31.4260 N   0  0  0  0  0  0  0  0  0  0  0  0
   -8.5690   22.6050  -31.3500 C   0  0  0  0  0  0  0  0  0  0  0  0
   -2.5537   19.5929  -25.9639 H   0  0  0  0  0  0  0  0  0  0  0  0
   -3.4869   19.3314  -27.4763 H   0  0  0  0  0  0  0  0  0  0  0  0
   -1.7018   19.1309  -27.4763 H   0  0  0  0  0  0  0  0  0  0  0  0
   -3.2470   21.5210  -27.9957 H   0  0  0  0  0  0  0  0  0  0  0  0
   -2.2961   21.7780  -26.4936 H   0  0  0  0  0  0  0  0  0  0  0  0
    0.8025   22.0383  -27.7564 H   0  0  0  0  0  0  0  0  0  0  0  0
   -0.4018   23.3311  -28.1379 H   0  0  0  0  0  0  0  0  0  0  0  0
    0.2603   22.0591  -25.5519 H   0  0  0  0  0  0  0  0  0  0  0  0
   -0.5544   23.6219  -25.8995 H   0  0  0  0  0  0  0  0  0  0  0  0
   -1.5017   22.0957  -25.8995 H   0  0  0  0  0  0  0  0  0  0  0  0
    0.5392   20.1243  -27.9023 H   0  0  0  0  0  0  0  0  0  0  0  0
   -1.0543   19.2696  -28.0298 H   0  0  0  0  0  0  0  0  0  0  0  0
    0.4788   20.5880  -30.3232 H   0  0  0  0  0  0  0  0  0  0  0  0
    0.3179   18.8224  -30.0175 H   0  0  0  0  0  0  0  0  0  0  0  0
   -0.1822   20.5233  -32.1008 H   0  0  0  0  0  0  0  0  0  0  0  0
   -1.8274   19.9887  -32.6100 H   0  0  0  0  0  0  0  0  0  0  0  0
   -0.9207   22.6246  -31.8111 H   0  0  0  0  0  0  0  0  0  0  0  0
   -2.5492   22.0743  -32.4346 H   0  0  0  0  0  0  0  0  0  0  0  0
   -2.4490   21.3180  -29.8150 H   0  0  0  0  0  0  0  0  0  0  0  0
   -1.7330   22.8020  -29.8050 H   0  0  0  0  0  0  0  0  0  0  0  0
   -3.1249   24.9547  -27.6810 H   0  0  0  0  0  0  0  0  0  0  0  0
   -1.7423   23.9289  -28.1937 H   0  0  0  0  0  0  0  0  0  0  0  0
   -1.5817   25.7180  -28.1937 H   0  0  0  0  0  0  0  0  0  0  0  0
   -5.1674   25.9108  -30.2535 H   0  0  0  0  0  0  0  0  0  0  0  0
   -7.1045   24.6433  -31.0958 H   0  0  0  0  0  0  0  0  0  0  0  0
   -3.8481   20.1434  -30.9042 H   0  0  0  0  0  0  0  0  0  0  0  0
   -4.8003   18.1037  -31.7659 H   0  0  0  0  0  0  0  0  0  0  0  0
   -6.7173   16.8698  -32.7623 H   0  0  0  0  0  0  0  0  0  0  0  0
   -8.8557   18.0574  -33.2324 H   0  0  0  0  0  0  0  0  0  0  0  0
   -9.1145   20.4591  -32.6437 H   0  0  0  0  0  0  0  0  0  0  0  0
   -8.8530   22.7364  -30.2955 H   0  0  0  0  0  0  0  0  0  0  0  0
   -8.5483   23.5851  -31.8490 H   0  0  0  0  0  0  0  0  0  0  0  0
   -9.3027   21.9549  -31.8490 H   0  0  0  0  0  0  0  0  0  0  0  0
  1  2  1  0
  2  3  1  0
  3  4  1  0
  4  5  1  0
  3  6  1  0
  6  7  1  0
  7  8  1  0
  8  9  1  0
  9 10  1  0
 10 11  1  0
 11 12  1  0
 12 13  2  0
 13 14  1  0
 14 15  1  0
 13 16  1  0
 16 17  2  0
 17 18  1  0
 18 19  2  0
 19 20  1  0
 20 21  2  0
 21 22  1  0
 22 23  2  0
 23 24  1  0
 24 25  2  0
 25 26  1  0
 26 27  2  0
 27 28  1  0
 19 12  1  0
 26 21  1  0
 27 18  1  0
  1 29  1  0
  1 30  1  0
  1 31  1  0
  2 32  1  0
  2 33  1  0
  4 34  1  0
  4 35  1  0
  5 36  1  0
  5 37  1  0
  5 38  1  0
  6 39  1  0
  6 40  1  0
  7 41  1  0
  7 42  1  0
  9 43  1  0
  9 44  1  0
 10 45  1  0
 10 46  1  0
 11 47  1  0
 11 48  1  0
 15 49  1  0
 15 50  1  0
 15 51  1  0
 16 52  1  0
 17 53  1  0
 20 54  1  0
 22 55  1  0
 23 56  1  0
 24 57  1  0
 25 58  1  0
 28 59  1  0
 28 60  1  0
 28 61  1  0
M  CHG  2  11   1  27   1
M  END
>  <UniqueID>  (20) 
20

>  <SMILES>  (20) 
CCN(CC)CCOCC[NH2+]c1c(OC)ccc2c1cc1ccccc1[n+]2C

>  <Energy>  (20) 
82.64788797913498

>  <Genealogy>  (20) 
CCN(CC)CCOCC[NH2+]c1c(OC)ccc2c1cc1ccccc1[n+]2C (protonated)
CCN(CC)CCOCC[NH2+]c1c(OC)ccc2c1cc1ccccc1[n+]2C (3D coordinates assigned)
CCN(CC)CCOCC[NH2+]c1c(OC)ccc2c1cc1ccccc1[n+]2C (optimized conformer: 82.64788797913498 kcal/mol)

>  <smiles>  (20) 
CCN(CC)CCOCCNc1c(OC)ccc2c1cc1ccccc1[n+]2C

>  <score_type>  (20) 
oracle

>  <origin>  (20) 
adg

>  <m_score__min__energy>  (20) 
-7.2599999999999998

>  <m_primary>  (20) 
energy

$$$$
20:0
     RDKit          3D

 49 50  0  0  0  0  0  0  0  0999 V2000
   -7.9370   22.1970  -30.8790 C   0  0  0  0  0  0  0  0  0  0  0  0
   -7.4070   23.5050  -31.4540 C   0  0  0  0  0  0  0  0  0  0  0  0
   -6.6450   24.5430  -30.1570 S   0  0  0  0  0  0  0  0  0  0  0  0
   -4.9670   24.3890  -30.7880 C   0  0  0  0  0  0  0  0  0  0  0  0
   -4.2600   25.4310  -30.8520 O   0  0  0  0  0  0  0  0  0  0  0  0
   -4.4040   23.0830  -31.2150 C   0  0  0  0  0  0  0  0  0  0  0  0
   -4.5670   22.6140  -32.5310 C   0  0  0  0  0  0  0  0  0  0  0  0
   -4.0250   21.3860  -32.9230 C   0  0  0  0  0  0  0  0  0  0  0  0
   -3.3060   20.6000  -32.0030 C   0  0  0  0  0  0  0  0  0  0  0  0
   -2.7360   19.3620  -32.3410 O   0  0  0  0  0  0  0  0  0  0  0  0
   -1.4960   19.1790  -33.0250 C   0  0  0  0  0  0  0  0  0  0  0  0
   -1.5920   18.0050  -34.0120 C   0  0  0  0  0  0  0  0  0  0  0  0
   -2.6250   16.9380  -33.5880 C   0  0  0  0  0  0  0  0  0  0  0  0
   -3.9890   17.4730  -33.3340 N   0  0  0  0  0  0  0  0  0  0  0  0
   -4.8720   16.4520  -32.7330 C   0  0  0  0  0  0  0  0  0  0  0  0
   -6.2300   17.0700  -32.3430 C   0  0  0  0  0  0  0  0  0  0  0  0
   -6.7400   18.0530  -33.3280 N   0  0  0  0  0  0  0  0  0  0  0  0
   -6.6900   19.4390  -32.8290 C   0  0  0  0  0  0  0  0  0  0  0  0
   -6.1130   17.9220  -34.6560 C   0  0  0  0  0  0  0  0  0  0  0  0
   -4.5690   17.9940  -34.6010 C   0  0  0  0  0  0  0  0  0  0  0  0
   -3.1520   21.0610  -30.6910 C   0  0  0  0  0  0  0  0  0  0  0  0
   -3.6950   22.2870  -30.2980 C   0  0  0  0  0  0  0  0  0  0  0  0
   -7.9176   22.2450  -29.7802 H   0  0  0  0  0  0  0  0  0  0  0  0
   -8.9704   22.0382  -31.2209 H   0  0  0  0  0  0  0  0  0  0  0  0
   -7.3056   21.3637  -31.2209 H   0  0  0  0  0  0  0  0  0  0  0  0
   -6.6517   23.2788  -32.2211 H   0  0  0  0  0  0  0  0  0  0  0  0
   -8.2515   24.0593  -31.8894 H   0  0  0  0  0  0  0  0  0  0  0  0
   -5.1266   23.2194  -33.2593 H   0  0  0  0  0  0  0  0  0  0  0  0
   -4.1613   21.0324  -33.9557 H   0  0  0  0  0  0  0  0  0  0  0  0
   -1.2491   20.0972  -33.5781 H   0  0  0  0  0  0  0  0  0  0  0  0
   -0.7120   18.9582  -32.2857 H   0  0  0  0  0  0  0  0  0  0  0  0
   -1.8807   18.3992  -34.9975 H   0  0  0  0  0  0  0  0  0  0  0  0
   -0.6070   17.5158  -34.0357 H   0  0  0  0  0  0  0  0  0  0  0  0
   -2.6932   16.1872  -34.3890 H   0  0  0  0  0  0  0  0  0  0  0  0
   -2.2698   16.5168  -32.6360 H   0  0  0  0  0  0  0  0  0  0  0  0
   -3.9130   18.2740  -32.6670 H   0  0  0  0  0  0  0  0  0  0  0  0
   -5.0382   15.6442  -33.4609 H   0  0  0  0  0  0  0  0  0  0  0  0
   -4.3900   16.0552  -31.8274 H   0  0  0  0  0  0  0  0  0  0  0  0
   -6.9667   16.2587  -32.2481 H   0  0  0  0  0  0  0  0  0  0  0  0
   -6.0783   17.6106  -31.3971 H   0  0  0  0  0  0  0  0  0  0  0  0
   -6.6902   19.4329  -31.7290 H   0  0  0  0  0  0  0  0  0  0  0  0
   -5.7737   19.9269  -33.1928 H   0  0  0  0  0  0  0  0  0  0  0  0
   -7.5688   19.9916  -33.1928 H   0  0  0  0  0  0  0  0  0  0  0  0
   -6.4043   16.9532  -35.0879 H   0  0  0  0  0  0  0  0  0  0  0  0
   -6.4616   18.7649  -35.2708 H   0  0  0  0  0  0  0  0  0  0  0  0
   -4.1642   17.4038  -35.4363 H   0  0  0  0  0  0  0  0  0  0  0  0
   -4.2951   19.0574  -34.6656 H   0  0  0  0  0  0  0  0  0  0  0  0
   -2.5978   20.4521  -29.9615 H   0  0  0  0  0  0  0  0  0  0  0  0
   -3.5666   22.6327  -29.2616 H   0  0  0  0  0  0  0  0  0  0  0  0
  1  2  1  0
  2  3  1  0
  3  4  1  0
  4  5  2  0
  4  6  1  0
  6  7  2  0
  7  8  1  0
  8  9  2  0
  9 10  1  0
 10 11  1  0
 11 12  1  0
 12 13  1  0
 13 14  1  0
 14 15  1  0
 15 16  1  0
 16 17  1  0
 17 18  1  0
 17 19  1  0
 19 20  1  0
  9 21  1  0
 21 22  2  0
 22  6  1  0
 20 14  1  0
  1 23  1  0
  1 24  1  0
  1 25  1  0
  2 26  1  0
  2 27  1  0
  7 28  1  0
  8 29  1  0
 11 30  1  0
 11 31  1  0
 12 32  1  0
 12 33  1  0
 13 34  1  0
 13 35  1  0
 14 36  1  0
 15 37  1  0
 15 38  1  0
 16 39  1  0
 16 40  1  0
 18 41  1  0
 18 42  1  0
 18 43  1  0
 19 44  1  0
 19 45  1  0
 20 46  1  0
 20 47  1  0
 21 48  1  0
 22 49  1  0
M  CHG  1  14   1
M  END
>  <UniqueID>  (21) 
21

>  <SMILES>  (21) 
CCSC(=O)c1ccc(OCCC[NH+]2CCN(C)CC2)cc1

>  <Energy>  (21) 
55.26910532003036

>  <Genealogy>  (21) 
CCSC(=O)c1ccc(OCCC[NH+]2CCN(C)CC2)cc1 (protonated)
CCSC(=O)c1ccc(OCCC[NH+]2CCN(C)CC2)cc1 (3D coordinates assigned)
CCSC(=O)c1ccc(OCCC[NH+]2CCN(C)CC2)cc1 (nonaromatic ring conformer: 55.26910532003036 kcal/mol)

>  <smiles>  (21) 
CCSC(=O)c1ccc(OCCCN2CCN(C)CC2)cc1

>  <score_type>  (21) 
oracle

>  <origin>  (21) 
adg

>  <m_score__min__energy>  (21) 
-7.6200000000000001

>  <m_primary>  (21) 
energy

$$$$
21:0
     RDKit          3D

 67 70  0  0  0  0  0  0  0  0999 V2000
   -6.9860   17.9920  -31.3870 C   0  0  0  0  0  0  0  0  0  0  0  0
   -8.3700   18.2170  -32.0090 C   0  0  0  0  0  0  0  0  0  0  0  0
   -8.4570   19.5040  -32.7230 N   0  0  0  0  0  0  0  0  0  0  0  0
   -9.0760   20.5620  -31.9080 C   0  0  0  0  0  0  0  0  0  0  0  0
   -8.1320   21.7720  -31.8200 C   0  0  0  0  0  0  0  0  0  0  0  0
   -7.0960   21.7770  -32.8720 N   0  0  0  0  0  0  0  0  0  0  0  0
   -5.7520   21.7610  -32.3300 C   0  0  0  0  0  0  0  0  0  0  0  0
   -5.2930   22.8060  -31.4650 C   0  0  0  0  0  0  0  0  0  0  0  0
   -6.1150   23.9130  -31.1410 C   0  0  0  0  0  0  0  0  0  0  0  0
   -5.6430   24.9520  -30.3420 C   0  0  0  0  0  0  0  0  0  0  0  0
   -4.3460   24.9240  -29.8520 C   0  0  0  0  0  0  0  0  0  0  0  0
   -3.5150   23.8440  -30.1350 C   0  0  0  0  0  0  0  0  0  0  0  0
   -3.9680   22.7510  -30.9150 C   0  0  0  0  0  0  0  0  0  0  0  0
   -3.1540   21.6610  -31.1550 N   0  0  0  0  0  0  0  0  0  0  0  0
   -1.8550   21.5080  -30.4690 C   0  0  0  0  0  0  0  0  0  0  0  0
   -3.5710   20.7130  -32.0490 C   0  0  0  0  0  0  0  0  0  0  0  0
   -2.8300   19.6680  -32.4860 N   0  0  0  0  0  0  0  0  0  0  0  0
   -3.6220   18.9900  -33.3280 C   0  0  0  0  0  0  0  0  0  0  0  0
   -3.2690   17.8340  -34.0210 C   0  0  0  0  0  0  0  0  0  0  0  0
   -4.2100   17.2440  -34.8770 C   0  0  0  0  0  0  0  0  0  0  0  0
   -3.8350   16.0840  -35.5750 O   0  0  0  0  0  0  0  0  0  0  0  0
   -3.4560   14.8450  -34.9730 C   0  0  0  0  0  0  0  0  0  0  0  0
   -4.6220   14.2820  -34.1270 C   0  0  0  0  0  0  0  0  0  0  0  0
   -4.3410   14.1540  -32.6640 N   0  0  0  0  0  0  0  0  0  0  0  0
   -4.9360   15.3280  -31.9790 C   0  0  0  0  0  0  0  0  0  0  0  0
   -4.9490   12.9250  -32.1000 C   0  0  0  0  0  0  0  0  0  0  0  0
   -2.8810   14.1550  -32.4010 C   0  0  0  0  0  0  0  0  0  0  0  0
   -5.4940   17.8290  -35.0020 C   0  0  0  0  0  0  0  0  0  0  0  0
   -5.8290   18.9950  -34.2960 C   0  0  0  0  0  0  0  0  0  0  0  0
   -4.8670   19.5800  -33.4520 C   0  0  0  0  0  0  0  0  0  0  0  0
   -4.8360   20.7220  -32.6260 C   0  0  0  0  0  0  0  0  0  0  0  0
   -7.0703   18.0057  -30.2903 H   0  0  0  0  0  0  0  0  0  0  0  0
   -6.5918   17.0180  -31.7123 H   0  0  0  0  0  0  0  0  0  0  0  0
   -6.3035   18.7910  -31.7123 H   0  0  0  0  0  0  0  0  0  0  0  0
   -8.5756   17.4030  -32.7197 H   0  0  0  0  0  0  0  0  0  0  0  0
   -9.1082   18.2325  -31.1937 H   0  0  0  0  0  0  0  0  0  0  0  0
   -9.0100   19.3780  -33.6040 H   0  0  0  0  0  0  0  0  0  0  0  0
  -10.0244   20.8718  -32.3712 H   0  0  0  0  0  0  0  0  0  0  0  0
   -9.2663   20.1758  -30.8957 H   0  0  0  0  0  0  0  0  0  0  0  0
   -8.7304   22.6902  -31.9138 H   0  0  0  0  0  0  0  0  0  0  0  0
   -7.6147   21.7142  -30.8510 H   0  0  0  0  0  0  0  0  0  0  0  0
   -7.2550   21.0040  -33.5400 H   0  0  0  0  0  0  0  0  0  0  0  0
   -7.2260   22.6180  -33.4760 H   0  0  0  0  0  0  0  0  0  0  0  0
   -7.1442   23.9530  -31.5271 H   0  0  0  0  0  0  0  0  0  0  0  0
   -6.3021   25.7984  -30.0987 H   0  0  0  0  0  0  0  0  0  0  0  0
   -3.9731   25.7573  -29.2383 H   0  0  0  0  0  0  0  0  0  0  0  0
   -2.4863   23.8387  -29.7455 H   0  0  0  0  0  0  0  0  0  0  0  0
   -2.0109   21.5264  -29.3803 H   0  0  0  0  0  0  0  0  0  0  0  0
   -1.3984   20.5499  -30.7579 H   0  0  0  0  0  0  0  0  0  0  0  0
   -1.1883   22.3338  -30.7579 H   0  0  0  0  0  0  0  0  0  0  0  0
   -1.8370   19.4310  -32.2710 H   0  0  0  0  0  0  0  0  0  0  0  0
   -2.2693   17.3917  -33.8987 H   0  0  0  0  0  0  0  0  0  0  0  0
   -3.1973   14.1225  -35.7611 H   0  0  0  0  0  0  0  0  0  0  0  0
   -2.5881   15.0150  -34.3189 H   0  0  0  0  0  0  0  0  0  0  0  0
   -5.4865   14.9509  -34.2506 H   0  0  0  0  0  0  0  0  0  0  0  0
   -4.8016   13.2609  -34.4946 H   0  0  0  0  0  0  0  0  0  0  0  0
   -4.8666   15.1910  -30.8898 H   0  0  0  0  0  0  0  0  0  0  0  0
   -4.3901   16.2377  -32.2697 H   0  0  0  0  0  0  0  0  0  0  0  0
   -5.9924   15.4256  -32.2697 H   0  0  0  0  0  0  0  0  0  0  0  0
   -4.9244   12.9747  -31.0014 H   0  0  0  0  0  0  0  0  0  0  0  0
   -5.9919   12.8425  -32.4401 H   0  0  0  0  0  0  0  0  0  0  0  0
   -4.3818   12.0460  -32.4401 H   0  0  0  0  0  0  0  0  0  0  0  0
   -2.7040   14.1551  -31.3153 H   0  0  0  0  0  0  0  0  0  0  0  0
   -2.4276   13.2572  -32.8463 H   0  0  0  0  0  0  0  0  0  0  0  0
   -2.4288   15.0535  -32.8463 H   0  0  0  0  0  0  0  0  0  0  0  0
   -6.2399   17.3625  -35.6623 H   0  0  0  0  0  0  0  0  0  0  0  0
   -6.8276   19.4443  -34.4008 H   0  0  0  0  0  0  0  0  0  0  0  0
  1  2  1  0
  2  3  1  0
  3  4  1  0
  4  5  1  0
  5  6  1  0
  6  7  1  0
  7  8  2  0
  8  9  1  0
  9 10  2  0
 10 11  1  0
 11 12  2  0
 12 13  1  0
 13 14  2  0
 14 15  1  0
 14 16  1  0
 16 17  1  0
 17 18  1  0
 18 19  2  0
 19 20  1  0
 20 21  1  0
 21 22  1  0
 22 23  1  0
 23 24  1  0
 24 25  1  0
 24 26  1  0
 24 27  1  0
 20 28  2  0
 28 29  1  0
 29 30  2  0
 30 31  1  0
 31  7  1  0
 13  8  1  0
 31 16  2  0
 30 18  1  0
  1 32  1  0
  1 33  1  0
  1 34  1  0
  2 35  1  0
  2 36  1  0
  3 37  1  0
  4 38  1  0
  4 39  1  0
  5 40  1  0
  5 41  1  0
  6 42  1  0
  6 43  1  0
  9 44  1  0
 10 45  1  0
 11 46  1  0
 12 47  1  0
 15 48  1  0
 15 49  1  0
 15 50  1  0
 17 51  1  0
 19 52  1  0
 22 53  1  0
 22 54  1  0
 23 55  1  0
 23 56  1  0
 25 57  1  0
 25 58  1  0
 25 59  1  0
 26 60  1  0
 26 61  1  0
 26 62  1  0
 27 63  1  0
 27 64  1  0
 27 65  1  0
 28 66  1  0
 29 67  1  0
M  CHG  3   6   1  14   1  24   1
M  END
>  <UniqueID>  (22) 
22

>  <SMILES>  (22) 
CCNCC[NH2+]c1c2ccccc2[n+](C)c2[nH]c3cc(OCC[N+](C)(C)C)ccc3c12

>  <Energy>  (22) 
135.0496955456941

>  <Genealogy>  (22) 
CCNCC[NH2+]c1c2ccccc2[n+](C)c2[nH]c3cc(OCC[N+](C)(C)C)ccc3c12 (protonated)
CCNCC[NH2+]c1c2ccccc2[n+](C)c2[nH]c3cc(OCC[N+](C)(C)C)ccc3c12 (3D coordinates assigned)
CCNCC[NH2+]c1c2ccccc2[n+](C)c2[nH]c3cc(OCC[N+](C)(C)C)ccc3c12 (optimized conformer: 135.0496955456941 kcal/mol)

>  <smiles>  (22) 
CCNCCNc1c2ccccc2[n+](C)c2[nH]c3cc(OCC[N+](C)(C)C)ccc3c12

>  <score_type>  (22) 
oracle

>  <origin>  (22) 
adg

>  <m_score__min__energy>  (22) 
-7.1500000000000004

>  <m_primary>  (22) 
energy

$$$$
22:0
     RDKit          3D

 53 54  0  0  0  0  0  0  0  0999 V2000
   -9.0220   21.5670  -31.6520 C   0  0  0  0  0  0  0  0  0  0  0  0
   -8.9230   20.0700  -31.9220 C   0  0  0  0  0  0  0  0  0  0  0  0
   -7.5040   19.6750  -32.0920 N   0  0  0  0  0  0  0  0  0  0  0  0
   -7.3760   18.2230  -32.3610 C   0  0  0  0  0  0  0  0  0  0  0  0
   -6.4380   17.5820  -31.3430 C   0  0  0  0  0  0  0  0  0  0  0  0
   -6.8410   20.4800  -33.1470 C   0  0  0  0  0  0  0  0  0  0  0  0
   -5.7240   19.6710  -33.8060 C   0  0  0  0  0  0  0  0  0  0  0  0
   -4.4820   20.0770  -33.2680 O   0  0  0  0  0  0  0  0  0  0  0  0
   -3.6210   18.9680  -33.0970 C   0  0  0  0  0  0  0  0  0  0  0  0
   -2.3450   19.1560  -33.9220 C   0  0  0  0  0  0  0  0  0  0  0  0
   -1.7430   20.4070  -33.6360 O   0  0  0  0  0  0  0  0  0  0  0  0
   -0.6500   20.2600  -32.7470 C   0  0  0  0  0  0  0  0  0  0  0  0
   -1.0580   20.7000  -31.3410 C   0  0  0  0  0  0  0  0  0  0  0  0
   -2.3530   21.3770  -31.3550 N   0  0  0  0  0  0  0  0  0  0  0  0
   -2.5000   22.6510  -30.7200 C   0  0  0  0  0  0  0  0  0  0  0  0
   -1.4260   23.1800  -29.9970 C   0  0  0  0  0  0  0  0  0  0  0  0
   -1.5780   24.3930  -29.3220 C   0  0  0  0  0  0  0  0  0  0  0  0
   -0.6190   24.8710  -28.6600 O   0  0  0  0  0  0  0  0  0  0  0  0
   -2.7610   25.0600  -29.3710 N   0  0  0  0  0  0  0  0  0  0  0  0
   -3.8230   24.5850  -30.0770 C   0  0  0  0  0  0  0  0  0  0  0  0
   -5.0230   25.3050  -30.1020 C   0  0  0  0  0  0  0  0  0  0  0  0
   -6.1120   24.8290  -30.8360 C   0  0  0  0  0  0  0  0  0  0  0  0
   -6.0050   23.6360  -31.5540 C   0  0  0  0  0  0  0  0  0  0  0  0
   -4.8150   22.9030  -31.5300 C   0  0  0  0  0  0  0  0  0  0  0  0
   -3.7150   23.3630  -30.7830 C   0  0  0  0  0  0  0  0  0  0  0  0
   -9.0337   21.7438  -30.5664 H   0  0  0  0  0  0  0  0  0  0  0  0
   -8.1557   22.0780  -32.0974 H   0  0  0  0  0  0  0  0  0  0  0  0
   -9.9481   21.9595  -32.0974 H   0  0  0  0  0  0  0  0  0  0  0  0
   -9.3551   19.5182  -31.0742 H   0  0  0  0  0  0  0  0  0  0  0  0
   -9.4752   19.8334  -32.8435 H   0  0  0  0  0  0  0  0  0  0  0  0
   -8.3671   17.7511  -32.2901 H   0  0  0  0  0  0  0  0  0  0  0  0
   -6.9642   18.0788  -33.3708 H   0  0  0  0  0  0  0  0  0  0  0  0
   -6.7840   17.8184  -30.3259 H   0  0  0  0  0  0  0  0  0  0  0  0
   -6.4336   16.4911  -31.4845 H   0  0  0  0  0  0  0  0  0  0  0  0
   -5.4201   17.9742  -31.4845 H   0  0  0  0  0  0  0  0  0  0  0  0
   -7.5829   20.7622  -33.9086 H   0  0  0  0  0  0  0  0  0  0  0  0
   -6.4086   21.3826  -32.6906 H   0  0  0  0  0  0  0  0  0  0  0  0
   -5.8788   18.6000  -33.6087 H   0  0  0  0  0  0  0  0  0  0  0  0
   -5.7321   19.8432  -34.8924 H   0  0  0  0  0  0  0  0  0  0  0  0
   -3.3555   18.8749  -32.0336 H   0  0  0  0  0  0  0  0  0  0  0  0
   -4.1368   18.0578  -33.4368 H   0  0  0  0  0  0  0  0  0  0  0  0
   -1.6363   18.3504  -33.6795 H   0  0  0  0  0  0  0  0  0  0  0  0
   -2.6068   19.1255  -34.9900 H   0  0  0  0  0  0  0  0  0  0  0  0
   -0.3391   19.2051  -32.7229 H   0  0  0  0  0  0  0  0  0  0  0  0
    0.1849   20.8867  -33.0939 H   0  0  0  0  0  0  0  0  0  0  0  0
   -1.1231   19.8140  -30.6923 H   0  0  0  0  0  0  0  0  0  0  0  0
   -0.3012   21.4027  -30.9622 H   0  0  0  0  0  0  0  0  0  0  0  0
   -3.1370   21.0220  -31.9500 H   0  0  0  0  0  0  0  0  0  0  0  0
   -0.4665   22.6433  -29.9602 H   0  0  0  0  0  0  0  0  0  0  0  0
   -5.1087   26.2480  -29.5422 H   0  0  0  0  0  0  0  0  0  0  0  0
   -7.0553   25.3947  -30.8485 H   0  0  0  0  0  0  0  0  0  0  0  0
   -6.8609   23.2715  -32.1410 H   0  0  0  0  0  0  0  0  0  0  0  0
   -4.7383   21.9635  -32.0970 H   0  0  0  0  0  0  0  0  0  0  0  0
  1  2  1  0
  2  3  1  0
  3  4  1  0
  4  5  1  0
  3  6  1  0
  6  7  1  0
  7  8  1  0
  8  9  1  0
  9 10  1  0
 10 11  1  0
 11 12  1  0
 12 13  1  0
 13 14  1  0
 14 15  1  0
 15 16  2  0
 16 17  1  0
 17 18  2  0
 17 19  1  0
 19 20  1  0
 20 21  2  0
 21 22  1  0
 22 23  2  0
 23 24  1  0
 24 25  2  0
 25 15  1  0
 25 20  1  0
  1 26  1  0
  1 27  1  0
  1 28  1  0
  2 29  1  0
  2 30  1  0
  4 31  1  0
  4 32  1  0
  5 33  1  0
  5 34  1  0
  5 35  1  0
  6 36  1  0
  6 37  1  0
  7 38  1  0
  7 39  1  0
  9 40  1  0
  9 41  1  0
 10 42  1  0
 10 43  1  0
 12 44  1  0
 12 45  1  0
 13 46  1  0
 13 47  1  0
 14 48  1  0
 16 49  1  0
 21 50  1  0
 22 51  1  0
 23 52  1  0
 24 53  1  0
M  CHG  1  19  -1
M  END
>  <UniqueID>  (23) 
23

>  <SMILES>  (23) 
CCN(CC)CCOCCOCCNc1cc(=O)[n-]c2ccccc12

>  <Energy>  (23) 
60.10557487252493

>  <Genealogy>  (23) 
CCN(CC)CCOCCOCCNc1cc(=O)[n-]c2ccccc12 (protonated)
CCN(CC)CCOCCOCCNc1cc(=O)[n-]c2ccccc12 (3D coordinates assigned)
CCN(CC)CCOCCOCCNc1cc(=O)[n-]c2ccccc12 (optimized conformer: 60.10557487252493 kcal/mol)

>  <smiles>  (23) 
CCN(CC)CCOCCOCCNc1cc(=O)[nH]c2ccccc12

>  <score_type>  (23) 
oracle

>  <origin>  (23) 
adg

>  <m_score__min__energy>  (23) 
-8.0099999999999998

>  <m_primary>  (23) 
energy

$$$$
23:0
     RDKit          3D

 28 29  0  0  0  0  0  0  0  0999 V2000
   -8.8250   21.6550  -31.7880 C   0  0  0  0  0  0  0  0  0  0  0  0
   -8.3790   23.1080  -31.9190 C   0  0  0  0  0  0  0  0  0  0  0  0
   -7.0220   23.1870  -32.4640 N   0  0  0  0  0  0  0  0  0  0  0  0
   -5.8180   22.9410  -31.7100 C   0  0  0  0  0  0  0  0  0  0  0  0
   -5.3480   21.6400  -31.4560 C   0  0  0  0  0  0  0  0  0  0  0  0
   -4.1750   21.4360  -30.7260 C   0  0  0  0  0  0  0  0  0  0  0  0
   -3.4340   22.5290  -30.2300 C   0  0  0  0  0  0  0  0  0  0  0  0
   -2.2350   22.3720  -29.4820 C   0  0  0  0  0  0  0  0  0  0  0  0
   -1.6630   21.0030  -29.1590 C   0  0  0  0  0  0  0  0  0  0  0  0
   -1.3550   20.2880  -30.3040 F   0  0  0  0  0  0  0  0  0  0  0  0
   -2.5860   20.2710  -28.4330 F   0  0  0  0  0  0  0  0  0  0  0  0
   -0.5030   21.1450  -28.4200 F   0  0  0  0  0  0  0  0  0  0  0  0
   -1.5670   23.5280  -29.0330 C   0  0  0  0  0  0  0  0  0  0  0  0
   -2.0790   24.7920  -29.3210 C   0  0  0  0  0  0  0  0  0  0  0  0
   -1.4790   25.8230  -28.9180 O   0  0  0  0  0  0  0  0  0  0  0  0
   -3.2240   24.9180  -30.0360 N   0  0  0  0  0  0  0  0  0  0  0  0
   -3.9080   23.8380  -30.4930 C   0  0  0  0  0  0  0  0  0  0  0  0
   -5.0840   24.0330  -31.2250 C   0  0  0  0  0  0  0  0  0  0  0  0
   -8.9061   21.3909  -30.7233 H   0  0  0  0  0  0  0  0  0  0  0  0
   -9.8039   21.5268  -32.2731 H   0  0  0  0  0  0  0  0  0  0  0  0
   -8.0867   20.9996  -32.2731 H   0  0  0  0  0  0  0  0  0  0  0  0
   -9.0694   23.6382  -32.5915 H   0  0  0  0  0  0  0  0  0  0  0  0
   -8.3863   23.5710  -30.9212 H   0  0  0  0  0  0  0  0  0  0  0  0
   -6.9330   23.4330  -33.4760 H   0  0  0  0  0  0  0  0  0  0  0  0
   -5.9101   20.7742  -31.8362 H   0  0  0  0  0  0  0  0  0  0  0  0
   -3.8248   20.4108  -30.5355 H   0  0  0  0  0  0  0  0  0  0  0  0
   -0.6374   23.4328  -28.4527 H   0  0  0  0  0  0  0  0  0  0  0  0
   -5.4374   25.0558  -31.4226 H   0  0  0  0  0  0  0  0  0  0  0  0
  1  2  1  0
  2  3  1  0
  3  4  1  0
  4  5  2  0
  5  6  1  0
  6  7  2  0
  7  8  1  0
  8  9  1  0
  9 10  1  0
  9 11  1  0
  9 12  1  0
  8 13  2  0
 13 14  1  0
 14 15  2  0
 14 16  1  0
 16 17  1  0
 17 18  2  0
 18  4  1  0
 17  7  1  0
  1 19  1  0
  1 20  1  0
  1 21  1  0
  2 22  1  0
  2 23  1  0
  3 24  1  0
  5 25  1  0
  6 26  1  0
 13 27  1  0
 18 28  1  0
M  CHG  1  16  -1
M  END
>  <UniqueID>  (24) 
24

>  <SMILES>  (24) 
CCNc1ccc2c(C(F)(F)F)cc(=O)[n-]c2c1

>  <Energy>  (24) 
32.76688077333939

>  <Genealogy>  (24) 
CCNc1ccc2c(C(F)(F)F)cc(=O)[n-]c2c1 (protonated)
CCNc1ccc2c(C(F)(F)F)cc(=O)[n-]c2c1 (3D coordinates assigned)
CCNc1ccc2c(C(F)(F)F)cc(=O)[n-]c2c1 (optimized conformer: 32.76688077333939 kcal/mol)

>  <smiles>  (24) 
CCNc1ccc2c(C(F)(F)F)cc(=O)[nH]c2c1

>  <score_type>  (24) 
oracle

>  <origin>  (24) 
adg

>  <m_score__min__energy>  (24) 
-7.25

>  <m_primary>  (24) 
energy

$$$$
