0:0
     RDKit          3D

 57 58  0  0  0  0  0  0  0  0999 V2000
   -1.2190   25.2240  -28.4980 C   0  0  0  0  0  0  0  0  0  0  0  0
   -1.2740   23.7590  -28.9150 C   0  0  0  0  0  0  0  0  0  0  0  0
   -2.5020   23.1170  -28.4220 N   0  0  0  0  0  0  0  0  0  0  0  0
   -2.4260   22.0110  -27.4570 C   0  0  0  0  0  0  0  0  0  0  0  0
   -1.0650   21.9760  -26.7710 C   0  0  0  0  0  0  0  0  0  0  0  0
   -3.7130   23.2840  -29.1790 C   0  0  0  0  0  0  0  0  0  0  0  0
   -4.5000   24.3690  -28.9400 N   0  0  0  0  0  0  0  0  0  0  0  0
   -5.6630   24.5560  -29.6220 C   0  0  0  0  0  0  0  0  0  0  0  0
   -6.5110   25.7590  -29.3510 C   0  0  0  0  0  0  0  0  0  0  0  0
   -6.0430   23.6630  -30.5700 N   0  0  0  0  0  0  0  0  0  0  0  0
   -5.2900   22.5700  -30.8580 C   0  0  0  0  0  0  0  0  0  0  0  0
   -5.7410   21.6570  -31.8710 N   0  0  0  0  0  0  0  0  0  0  0  0
   -7.1060   21.1220  -31.7850 C   0  0  0  0  0  0  0  0  0  0  0  0
   -7.5430   20.4440  -33.0960 C   0  0  0  0  0  0  0  0  0  0  0  0
   -6.4710   19.4970  -33.7080 C   0  0  0  0  0  0  0  0  0  0  0  0
   -6.7130   18.0550  -33.3980 N   0  0  0  0  0  0  0  0  0  0  0  0
   -7.2100   17.6890  -32.0480 C   0  0  0  0  0  0  0  0  0  0  0  0
   -6.1110   17.4370  -31.0130 C   0  0  0  0  0  0  0  0  0  0  0  0
   -5.6950   17.1180  -33.9280 C   0  0  0  0  0  0  0  0  0  0  0  0
   -6.2980   15.7400  -34.1910 C   0  0  0  0  0  0  0  0  0  0  0  0
   -5.0070   19.9640  -33.4730 C   0  0  0  0  0  0  0  0  0  0  0  0
   -4.9280   21.4360  -33.0700 C   0  0  0  0  0  0  0  0  0  0  0  0
   -4.0980   22.3440  -30.1520 C   0  0  0  0  0  0  0  0  0  0  0  0
   -3.1430   20.8910  -30.4390 Cl  0  0  0  0  0  0  0  0  0  0  0  0
   -1.2164   25.2929  -27.4002 H   0  0  0  0  0  0  0  0  0  0  0  0
   -0.3029   25.6845  -28.8964 H   0  0  0  0  0  0  0  0  0  0  0  0
   -2.0980   25.7519  -28.8964 H   0  0  0  0  0  0  0  0  0  0  0  0
   -1.2511   23.6963  -30.0130 H   0  0  0  0  0  0  0  0  0  0  0  0
   -0.4076   23.2382  -28.4814 H   0  0  0  0  0  0  0  0  0  0  0  0
   -3.2090   22.1435  -26.6959 H   0  0  0  0  0  0  0  0  0  0  0  0
   -2.5700   21.0640  -27.9978 H   0  0  0  0  0  0  0  0  0  0  0  0
   -1.2042   21.9796  -25.6798 H   0  0  0  0  0  0  0  0  0  0  0  0
   -0.5275   21.0637  -27.0691 H   0  0  0  0  0  0  0  0  0  0  0  0
   -0.4813   22.8594  -27.0691 H   0  0  0  0  0  0  0  0  0  0  0  0
   -4.2060   25.0650  -28.2180 H   0  0  0  0  0  0  0  0  0  0  0  0
   -6.6106   25.9002  -28.2647 H   0  0  0  0  0  0  0  0  0  0  0  0
   -6.0388   26.6480  -29.7946 H   0  0  0  0  0  0  0  0  0  0  0  0
   -7.5070   25.6130  -29.7946 H   0  0  0  0  0  0  0  0  0  0  0  0
   -7.1470   20.3824  -30.9718 H   0  0  0  0  0  0  0  0  0  0  0  0
   -7.7890   21.9626  -31.5930 H   0  0  0  0  0  0  0  0  0  0  0  0
   -8.4501   19.8551  -32.8950 H   0  0  0  0  0  0  0  0  0  0  0  0
   -7.7123   21.2474  -33.8281 H   0  0  0  0  0  0  0  0  0  0  0  0
   -6.6025   19.5776  -34.7971 H   0  0  0  0  0  0  0  0  0  0  0  0
   -7.8451   18.5091  -31.6818 H   0  0  0  0  0  0  0  0  0  0  0  0
   -7.7551   16.7404  -32.1622 H   0  0  0  0  0  0  0  0  0  0  0  0
   -6.5313   17.5334  -30.0010 H   0  0  0  0  0  0  0  0  0  0  0  0
   -5.7067   16.4228  -31.1471 H   0  0  0  0  0  0  0  0  0  0  0  0
   -5.3052   18.1737  -31.1471 H   0  0  0  0  0  0  0  0  0  0  0  0
   -5.2932   17.5197  -34.8699 H   0  0  0  0  0  0  0  0  0  0  0  0
   -4.8956   17.0118  -33.1798 H   0  0  0  0  0  0  0  0  0  0  0  0
   -6.5144   15.2455  -33.2326 H   0  0  0  0  0  0  0  0  0  0  0  0
   -7.2298   15.8510  -34.7650 H   0  0  0  0  0  0  0  0  0  0  0  0
   -5.5842   15.1309  -34.7650 H   0  0  0  0  0  0  0  0  0  0  0  0
   -4.5646   19.3533  -32.6722 H   0  0  0  0  0  0  0  0  0  0  0  0
   -4.4581   19.8429  -34.4186 H   0  0  0  0  0  0  0  0  0  0  0  0
   -3.8821   21.7029  -32.8584 H   0  0  0  0  0  0  0  0  0  0  0  0
   -5.3066   22.0624  -33.8911 H   0  0  0  0  0  0  0  0  0  0  0  0
  1  2  1  0
  2  3  1  0
  3  4  1  0
  4  5  1  0
  3  6  1  0
  6  7  2  0
  7  8  1  0
  8  9  1  0
  8 10  2  0
 10 11  1  0
 11 12  1  0
 12 13  1  0
 13 14  1  0
 14 15  1  0
 15 16  1  0
 16 17  1  0
 17 18  1  0
 16 19  1  0
 19 20  1  0
 15 21  1  0
 21 22  1  0
 11 23  2  0
 23 24  1  0
 23  6  1  0
 22 12  1  0
  1 25  1  0
  1 26  1  0
  1 27  1  0
  2 28  1  0
  2 29  1  0
  4 30  1  0
  4 31  1  0
  5 32  1  0
  5 33  1  0
  5 34  1  0
  7 35  1  0
  9 36  1  0
  9 37  1  0
  9 38  1  0
 13 39  1  0
 13 40  1  0
 14 41  1  0
 14 42  1  0
 15 43  1  0
 17 44  1  0
 17 45  1  0
 18 46  1  0
 18 47  1  0
 18 48  1  0
 19 49  1  0
 19 50  1  0
 20 51  1  0
 20 52  1  0
 20 53  1  0
 21 54  1  0
 21 55  1  0
 22 56  1  0
 22 57  1  0
M  CHG  1   7   1
M  END
>  <UniqueID>  (1) 
1

>  <SMILES>  (1) 
CCN(CC)c1[nH+]c(C)nc(N2CCC(N(CC)CC)CC2)c1Cl

>  <Energy>  (1) 
71.24515085245882

>  <Genealogy>  (1) 
CCN(CC)c1[nH+]c(C)nc(N2CCC(N(CC)CC)CC2)c1Cl (protonated)
CCN(CC)c1[nH+]c(C)nc(N2CCC(N(CC)CC)CC2)c1Cl (3D coordinates assigned)
CCN(CC)c1[nH+]c(C)nc(N2CCC(N(CC)CC)CC2)c1Cl (nonaromatic ring conformer: 71.24515085245882 kcal/mol)

>  <smiles>  (1) 
CCN(CC)c1nc(C)nc(N2CCC(N(CC)CC)CC2)c1Cl

>  <score_type>  (1) 
oracle

>  <origin>  (1) 
adg

>  <m_score__min__energy>  (1) 
-6.8899999999999997

>  <m_primary>  (1) 
energy

$$$$
1:0
     RDKit          3D

 33 34  0  0  0  0  0  0  0  0999 V2000
   -5.5320   18.8510  -34.5780 C   0  0  0  0  0  0  0  0  0  0  0  0
   -6.5530   19.0130  -33.4900 C   0  0  0  0  0  0  0  0  0  0  0  0
   -6.8750   20.2910  -33.0040 C   0  0  0  0  0  0  0  0  0  0  0  0
   -7.8510   20.4500  -32.0110 C   0  0  0  0  0  0  0  0  0  0  0  0
   -8.2490   22.0610  -31.4090 S   0  0  0  0  0  0  0  0  0  0  0  0
   -9.2670   22.6940  -32.3170 O   0  0  0  0  0  0  0  0  0  0  0  0
   -8.8610   21.9350  -30.0420 O   0  0  0  0  0  0  0  0  0  0  0  0
   -6.8360   23.0850  -31.3190 N   0  0  0  0  0  0  0  0  0  0  0  0
   -5.6420   22.2900  -30.9570 C   0  0  0  0  0  0  0  0  0  0  0  0
   -4.4870   23.1700  -30.4290 C   0  0  0  0  0  0  0  0  0  0  0  0
   -4.6190   24.5630  -30.8720 N   0  0  0  0  0  0  0  0  0  0  0  0
   -5.8670   25.1710  -30.3790 C   0  0  0  0  0  0  0  0  0  0  0  0
   -7.0550   24.1830  -30.3610 C   0  0  0  0  0  0  0  0  0  0  0  0
   -8.5110   19.3220  -31.5050 C   0  0  0  0  0  0  0  0  0  0  0  0
   -8.2060   18.0500  -31.9930 C   0  0  0  0  0  0  0  0  0  0  0  0
   -7.2340   17.8920  -32.9860 C   0  0  0  0  0  0  0  0  0  0  0  0
   -6.9610   16.6490  -33.4560 F   0  0  0  0  0  0  0  0  0  0  0  0
   -4.5400   18.6936  -34.1294 H   0  0  0  0  0  0  0  0  0  0  0  0
   -5.7946   17.9833  -35.2010 H   0  0  0  0  0  0  0  0  0  0  0  0
   -5.5131   19.7574  -35.2010 H   0  0  0  0  0  0  0  0  0  0  0  0
   -6.3569   21.1741  -33.4061 H   0  0  0  0  0  0  0  0  0  0  0  0
   -6.6990   23.4930  -32.2740 H   0  0  0  0  0  0  0  0  0  0  0  0
   -5.9218   21.5680  -30.1757 H   0  0  0  0  0  0  0  0  0  0  0  0
   -5.2884   21.7824  -31.8666 H   0  0  0  0  0  0  0  0  0  0  0  0
   -4.4929   23.1437  -29.3293 H   0  0  0  0  0  0  0  0  0  0  0  0
   -3.5426   22.7715  -30.8281 H   0  0  0  0  0  0  0  0  0  0  0  0
   -4.6130   24.5840  -31.9190 H   0  0  0  0  0  0  0  0  0  0  0  0
   -5.6986   25.5351  -29.3548 H   0  0  0  0  0  0  0  0  0  0  0  0
   -6.1291   25.9877  -31.0677 H   0  0  0  0  0  0  0  0  0  0  0  0
   -7.1602   23.7637  -29.3495 H   0  0  0  0  0  0  0  0  0  0  0  0
   -7.9686   24.7244  -30.6476 H   0  0  0  0  0  0  0  0  0  0  0  0
   -9.2726   19.4393  -30.7200 H   0  0  0  0  0  0  0  0  0  0  0  0
   -8.7318   17.1695  -31.5953 H   0  0  0  0  0  0  0  0  0  0  0  0
  1  2  1  0
  2  3  2  0
  3  4  1  0
  4  5  1  0
  5  6  2  0
  5  7  2  0
  5  8  1  0
  8  9  1  0
  9 10  1  0
 10 11  1  0
 11 12  1  0
 12 13  1  0
  4 14  2  0
 14 15  1  0
 15 16  2  0
 16 17  1  0
 16  2  1  0
 13  8  1  0
  1 18  1  0
  1 19  1  0
  1 20  1  0
  3 21  1  0
  8 22  1  0
  9 23  1  0
  9 24  1  0
 10 25  1  0
 10 26  1  0
 11 27  1  0
 12 28  1  0
 12 29  1  0
 13 30  1  0
 13 31  1  0
 14 32  1  0
 15 33  1  0
M  CHG  1   8   1
M  END
>  <UniqueID>  (2) 
2

>  <SMILES>  (2) 
Cc1cc(S(=O)(=O)[NH+]2CCNCC2)ccc1F

>  <Energy>  (2) 
37.18453650464283

>  <Genealogy>  (2) 
Cc1cc(S(=O)(=O)[NH+]2CCNCC2)ccc1F (protonated)
Cc1cc(S(=O)(=O)[NH+]2CCNCC2)ccc1F (3D coordinates assigned)
Cc1cc(S(=O)(=O)[NH+]2CCNCC2)ccc1F (nonaromatic ring conformer: 37.18453650464283 kcal/mol)

>  <smiles>  (2) 
Cc1cc(S(=O)(=O)N2CCNCC2)ccc1F

>  <score_type>  (2) 
oracle

>  <origin>  (2) 
adg

>  <m_score__min__energy>  (2) 
-6.8399999999999999

>  <m_primary>  (2) 
energy

$$$$
2:0
     RDKit          3D

 71 75  0  0  0  0  0  0  0  0999 V2000
   -0.6980   21.6960  -32.7070 O   0  0  0  0  0  0  0  0  0  0  0  0
   -0.9760   20.5090  -33.0370 C   0  0  0  0  0  0  0  0  0  0  0  0
    0.0250   19.5230  -32.9510 C   0  0  0  0  0  0  0  0  0  0  0  0
    1.4100   19.8200  -32.4360 C   0  0  0  0  0  0  0  0  0  0  0  0
    2.4070   20.0600  -33.5810 C   0  0  0  0  0  0  0  0  0  0  0  0
    1.7430   20.0830  -34.9730 C   0  0  0  0  0  0  0  0  0  0  0  0
    1.1890   21.4310  -35.3140 C   0  0  0  0  0  0  0  0  0  0  0  0
    1.7510   22.6010  -34.9500 N   0  0  0  0  0  0  0  0  0  0  0  0
    0.9210   23.5300  -35.3930 N   0  0  0  0  0  0  0  0  0  0  0  0
   -0.0970   22.9420  -36.0010 N   0  0  0  0  0  0  0  0  0  0  0  0
    0.0330   21.6270  -35.9770 N   0  0  0  0  0  0  0  0  0  0  0  0
   -0.2720   18.2500  -33.2950 N   0  0  0  0  0  0  0  0  0  0  0  0
   -1.4980   17.8990  -33.7450 C   0  0  0  0  0  0  0  0  0  0  0  0
   -1.7450   16.5650  -34.0800 C   0  0  0  0  0  0  0  0  0  0  0  0
   -3.0020   16.1790  -34.5380 C   0  0  0  0  0  0  0  0  0  0  0  0
   -4.0180   17.1310  -34.6890 C   0  0  0  0  0  0  0  0  0  0  0  0
   -5.2830   16.7620  -35.1540 O   0  0  0  0  0  0  0  0  0  0  0  0
   -6.4780   17.0910  -34.4520 C   0  0  0  0  0  0  0  0  0  0  0  0
   -6.5150   16.3260  -33.1180 C   0  0  0  0  0  0  0  0  0  0  0  0
   -5.8050   17.0830  -31.9810 C   0  0  0  0  0  0  0  0  0  0  0  0
   -6.7310   18.0770  -31.2730 C   0  0  0  0  0  0  0  0  0  0  0  0
   -7.5120   18.7970  -32.2250 O   0  0  0  0  0  0  0  0  0  0  0  0
   -7.8560   20.1510  -32.1060 C   0  0  0  0  0  0  0  0  0  0  0  0
   -9.1380   20.5720  -31.6990 C   0  0  0  0  0  0  0  0  0  0  0  0
   -9.4290   21.9360  -31.5940 C   0  0  0  0  0  0  0  0  0  0  0  0
   -8.4550   22.8880  -31.9040 C   0  0  0  0  0  0  0  0  0  0  0  0
   -7.1820   22.4780  -32.3080 C   0  0  0  0  0  0  0  0  0  0  0  0
   -6.8840   21.1150  -32.4030 C   0  0  0  0  0  0  0  0  0  0  0  0
   -3.7680   18.4720  -34.3820 C   0  0  0  0  0  0  0  0  0  0  0  0
   -2.5150   18.8820  -33.8590 C   0  0  0  0  0  0  0  0  0  0  0  0
   -2.2480   20.1820  -33.4610 N   0  0  0  0  0  0  0  0  0  0  0  0
   -3.3150   21.2060  -33.3500 C   0  0  0  0  0  0  0  0  0  0  0  0
   -3.5500   21.5620  -31.8990 C   0  0  0  0  0  0  0  0  0  0  0  0
   -3.1660   20.6840  -30.8720 C   0  0  0  0  0  0  0  0  0  0  0  0
   -3.3200   21.0510  -29.5340 C   0  0  0  0  0  0  0  0  0  0  0  0
   -3.8500   22.3000  -29.2040 C   0  0  0  0  0  0  0  0  0  0  0  0
   -4.2300   23.2000  -30.2160 C   0  0  0  0  0  0  0  0  0  0  0  0
   -4.8220   24.5370  -29.8500 C   0  0  0  0  0  0  0  0  0  0  0  0
   -4.0640   25.5750  -30.3670 F   0  0  0  0  0  0  0  0  0  0  0  0
   -4.8680   24.6830  -28.4750 F   0  0  0  0  0  0  0  0  0  0  0  0
   -6.1050   24.6210  -30.3590 F   0  0  0  0  0  0  0  0  0  0  0  0
   -4.1010   22.8110  -31.5610 C   0  0  0  0  0  0  0  0  0  0  0  0
    1.3695   20.7201  -31.8049 H   0  0  0  0  0  0  0  0  0  0  0  0
    1.7545   18.9480  -31.8606 H   0  0  0  0  0  0  0  0  0  0  0  0
    2.9033   21.0275  -33.4148 H   0  0  0  0  0  0  0  0  0  0  0  0
    3.1196   19.2221  -33.5736 H   0  0  0  0  0  0  0  0  0  0  0  0
    2.4939   19.8075  -35.7281 H   0  0  0  0  0  0  0  0  0  0  0  0
    0.9069   19.3683  -34.9597 H   0  0  0  0  0  0  0  0  0  0  0  0
   -0.9020   23.4490  -36.4280 H   0  0  0  0  0  0  0  0  0  0  0  0
   -0.9440   15.8176  -33.9816 H   0  0  0  0  0  0  0  0  0  0  0  0
   -3.1974   15.1243  -34.7817 H   0  0  0  0  0  0  0  0  0  0  0  0
   -6.5018   18.1730  -34.2552 H   0  0  0  0  0  0  0  0  0  0  0  0
   -7.3503   16.8102  -35.0605 H   0  0  0  0  0  0  0  0  0  0  0  0
   -7.5653   16.1662  -32.8326 H   0  0  0  0  0  0  0  0  0  0  0  0
   -5.9850   15.3735  -33.2656 H   0  0  0  0  0  0  0  0  0  0  0  0
   -5.4413   16.3523  -31.2435 H   0  0  0  0  0  0  0  0  0  0  0  0
   -4.9766   17.6545  -32.4251 H   0  0  0  0  0  0  0  0  0  0  0  0
   -7.4016   17.5278  -30.5957 H   0  0  0  0  0  0  0  0  0  0  0  0
   -6.1179   18.7906  -30.7030 H   0  0  0  0  0  0  0  0  0  0  0  0
   -9.9114   19.8262  -31.4634 H   0  0  0  0  0  0  0  0  0  0  0  0
  -10.4278   22.2600  -31.2663 H   0  0  0  0  0  0  0  0  0  0  0  0
   -8.6902   23.9600  -31.8301 H   0  0  0  0  0  0  0  0  0  0  0  0
   -6.4142   23.2272  -32.5513 H   0  0  0  0  0  0  0  0  0  0  0  0
   -5.8778   20.7972  -32.7136 H   0  0  0  0  0  0  0  0  0  0  0  0
   -4.5559   19.2212  -34.5488 H   0  0  0  0  0  0  0  0  0  0  0  0
   -3.0110   22.1084  -33.9007 H   0  0  0  0  0  0  0  0  0  0  0  0
   -4.2455   20.8016  -33.7751 H   0  0  0  0  0  0  0  0  0  0  0  0
   -2.7413   19.7010  -31.1237 H   0  0  0  0  0  0  0  0  0  0  0  0
   -3.0228   20.3538  -28.7368 H   0  0  0  0  0  0  0  0  0  0  0  0
   -3.9709   22.5815  -28.1475 H   0  0  0  0  0  0  0  0  0  0  0  0
   -4.4349   23.4915  -32.3581 H   0  0  0  0  0  0  0  0  0  0  0  0
  1  2  2  0
  2  3  1  0
  3  4  1  0
  4  5  1  0
  5  6  1  0
  6  7  1  0
  7  8  2  0
  8  9  1  0
  9 10  1  0
 10 11  2  0
  3 12  2  0
 12 13  1  0
 13 14  2  0
 14 15  1  0
 15 16  2  0
 16 17  1  0
 17 18  1  0
 18 19  1  0
 19 20  1  0
 20 21  1  0
 21 22  1  0
 22 23  1  0
 23 24  2  0
 24 25  1  0
 25 26  2  0
 26 27  1  0
 27 28  2  0
 16 29  1  0
 29 30  2  0
 30 31  1  0
 31 32  1  0
 32 33  1  0
 33 34  2  0
 34 35  1  0
 35 36  2  0
 36 37  1  0
 37 38  1  0
 38 39  1  0
 38 40  1  0
 38 41  1  0
 37 42  2  0
 31  2  1  0
 42 33  1  0
 11  7  1  0
 30 13  1  0
 28 23  1  0
  4 43  1  0
  4 44  1  0
  5 45  1  0
  5 46  1  0
  6 47  1  0
  6 48  1  0
 10 49  1  0
 14 50  1  0
 15 51  1  0
 18 52  1  0
 18 53  1  0
 19 54  1  0
 19 55  1  0
 20 56  1  0
 20 57  1  0
 21 58  1  0
 21 59  1  0
 24 60  1  0
 25 61  1  0
 26 62  1  0
 27 63  1  0
 28 64  1  0
 29 65  1  0
 32 66  1  0
 32 67  1  0
 34 68  1  0
 35 69  1  0
 36 70  1  0
 42 71  1  0
M  CHG  2   9  -1  10   1
M  END
>  <UniqueID>  (3) 
3

>  <SMILES>  (3) 
O=c1c(CCCc2n[n-][nH+]n2)nc2ccc(OCCCCOc3ccccc3)cc2n1Cc1cccc(C(F)(F)F)c1

>  <Energy>  (3) 
117.82557221902336

>  <Genealogy>  (3) 
O=c1c(CCCc2n[n-][nH+]n2)nc2ccc(OCCCCOc3ccccc3)cc2n1Cc1cccc(C(F)(F)F)c1 (protonated)
O=c1c(CCCc2n[n-][nH+]n2)nc2ccc(OCCCCOc3ccccc3)cc2n1Cc1cccc(C(F)(F)F)c1 (3D coordinates assigned)
O=c1c(CCCc2n[n-][nH+]n2)nc2ccc(OCCCCOc3ccccc3)cc2n1Cc1cccc(C(F)(F)F)c1 (optimized conformer: 117.82557221902336 kcal/mol)

>  <smiles>  (3) 
O=c1c(CCCc2nn[nH]n2)nc2ccc(OCCCCOc3ccccc3)cc2n1Cc1cccc(C(F)(F)F)c1

>  <score_type>  (3) 
oracle

>  <origin>  (3) 
adg

>  <m_score__min__energy>  (3) 
-10.59

>  <m_primary>  (3) 
energy

$$$$
3:0
     RDKit          3D

 65 70  0  0  0  0  0  0  0  0999 V2000
   -2.1860   24.9510  -28.7120 C   0  0  0  0  0  0  0  0  0  0  0  0
   -3.1420   25.2710  -29.7150 O   0  0  0  0  0  0  0  0  0  0  0  0
   -4.2000   24.4320  -30.0930 C   0  0  0  0  0  0  0  0  0  0  0  0
   -4.1620   23.0370  -29.9020 C   0  0  0  0  0  0  0  0  0  0  0  0
   -5.2310   22.2400  -30.3230 C   0  0  0  0  0  0  0  0  0  0  0  0
   -6.3390   22.8190  -30.9600 C   0  0  0  0  0  0  0  0  0  0  0  0
   -7.4640   21.9840  -31.4230 C   0  0  0  0  0  0  0  0  0  0  0  0
   -8.7490   22.2320  -31.0990 N   0  0  0  0  0  0  0  0  0  0  0  0
   -9.4930   21.2170  -31.5130 N   0  0  0  0  0  0  0  0  0  0  0  0
   -8.6380   20.3550  -32.0930 C   0  0  0  0  0  0  0  0  0  0  0  0
   -7.3730   20.8070  -32.0830 N   0  0  0  0  0  0  0  0  0  0  0  0
   -6.2860   20.0820  -32.6870 C   0  0  0  0  0  0  0  0  0  0  0  0
   -5.0840   20.6980  -33.0700 C   0  0  0  0  0  0  0  0  0  0  0  0
   -4.0610   19.9430  -33.6510 C   0  0  0  0  0  0  0  0  0  0  0  0
   -4.2420   18.5680  -33.8910 C   0  0  0  0  0  0  0  0  0  0  0  0
   -3.2340   17.7610  -34.4360 O   0  0  0  0  0  0  0  0  0  0  0  0
   -2.0000   17.4570  -33.7930 C   0  0  0  0  0  0  0  0  0  0  0  0
   -1.3480   18.7370  -33.3650 C   0  0  0  0  0  0  0  0  0  0  0  0
   -0.7280   19.5530  -34.3210 C   0  0  0  0  0  0  0  0  0  0  0  0
   -0.1570   20.7700  -33.9440 C   0  0  0  0  0  0  0  0  0  0  0  0
   -0.2070   21.1860  -32.6120 C   0  0  0  0  0  0  0  0  0  0  0  0
   -0.8340   20.3890  -31.6320 C   0  0  0  0  0  0  0  0  0  0  0  0
   -0.8810   20.8210  -30.1650 C   0  0  1  0  0  0  0  0  0  0  0  0
   -0.6190   22.3370  -30.0570 C   0  0  0  0  0  0  0  0  0  0  0  0
   -2.2380   20.4570  -29.5500 C   0  0  0  0  0  0  0  0  0  0  0  0
   -1.8910   20.0480  -28.1560 C   0  0  0  0  0  0  0  0  0  0  0  0
   -0.4610   19.5730  -28.2860 C   0  0  0  0  0  0  0  0  0  0  0  0
    0.1310   20.1670  -29.4210 O   0  0  0  0  0  0  0  0  0  0  0  0
   -1.3950   19.1560  -32.0260 C   0  0  0  0  0  0  0  0  0  0  0  0
   -5.4700   17.9730  -33.5790 C   0  0  0  0  0  0  0  0  0  0  0  0
   -6.5020   18.7250  -33.0050 C   0  0  0  0  0  0  0  0  0  0  0  0
   -7.8220   18.0670  -32.6390 C   0  0  0  0  0  0  0  0  0  0  0  0
   -9.0110   19.0480  -32.7220 C   0  0  0  0  0  0  0  0  0  0  0  0
   -6.3940   24.2110  -31.1120 C   0  0  0  0  0  0  0  0  0  0  0  0
   -5.3290   25.0100  -30.6850 C   0  0  0  0  0  0  0  0  0  0  0  0
   -2.6331   25.1007  -27.7182 H   0  0  0  0  0  0  0  0  0  0  0  0
   -1.8778   23.9007  -28.8210 H   0  0  0  0  0  0  0  0  0  0  0  0
   -1.3076   25.6041  -28.8210 H   0  0  0  0  0  0  0  0  0  0  0  0
   -3.2887   22.5731  -29.4202 H   0  0  0  0  0  0  0  0  0  0  0  0
   -5.2032   21.1534  -30.1539 H   0  0  0  0  0  0  0  0  0  0  0  0
   -9.1140   23.0510  -30.5640 H   0  0  0  0  0  0  0  0  0  0  0  0
   -4.9468   21.7780  -32.9124 H   0  0  0  0  0  0  0  0  0  0  0  0
   -3.1104   20.4256  -33.9218 H   0  0  0  0  0  0  0  0  0  0  0  0
   -2.1882   16.8258  -32.9120 H   0  0  0  0  0  0  0  0  0  0  0  0
   -1.3405   16.9167  -34.4881 H   0  0  0  0  0  0  0  0  0  0  0  0
   -0.6911   19.2332  -35.3729 H   0  0  0  0  0  0  0  0  0  0  0  0
    0.3336   21.4028  -34.6983 H   0  0  0  0  0  0  0  0  0  0  0  0
    0.2475   22.1455  -32.3241 H   0  0  0  0  0  0  0  0  0  0  0  0
   -0.5691   22.6259  -28.9968 H   0  0  0  0  0  0  0  0  0  0  0  0
    0.3345   22.5803  -30.5486 H   0  0  0  0  0  0  0  0  0  0  0  0
   -1.4356   22.8862  -30.5486 H   0  0  0  0  0  0  0  0  0  0  0  0
   -2.9143   21.3246  -29.5483 H   0  0  0  0  0  0  0  0  0  0  0  0
   -2.7641   19.6692  -30.1091 H   0  0  0  0  0  0  0  0  0  0  0  0
   -1.9630   20.9004  -27.4645 H   0  0  0  0  0  0  0  0  0  0  0  0
   -2.5667   19.2816  -27.7485 H   0  0  0  0  0  0  0  0  0  0  0  0
    0.1035   19.8588  -27.3862 H   0  0  0  0  0  0  0  0  0  0  0  0
   -0.4469   18.4786  -28.3957 H   0  0  0  0  0  0  0  0  0  0  0  0
   -1.8760   18.5139  -31.2734 H   0  0  0  0  0  0  0  0  0  0  0  0
   -5.6257   16.9041  -33.7868 H   0  0  0  0  0  0  0  0  0  0  0  0
   -8.0042   17.2316  -33.3310 H   0  0  0  0  0  0  0  0  0  0  0  0
   -7.7462   17.7188  -31.5983 H   0  0  0  0  0  0  0  0  0  0  0  0
   -9.2748   19.2130  -33.7771 H   0  0  0  0  0  0  0  0  0  0  0  0
   -9.8714   18.6206  -32.1862 H   0  0  0  0  0  0  0  0  0  0  0  0
   -7.2791   24.6772  -31.5694 H   0  0  0  0  0  0  0  0  0  0  0  0
   -5.3788   26.1011  -30.8153 H   0  0  0  0  0  0  0  0  0  0  0  0
  1  2  1  0
  2  3  1  0
  3  4  2  0
  4  5  1  0
  5  6  2  0
  6  7  1  0
  7  8  2  0
  8  9  1  0
  9 10  2  0
 10 11  1  0
 11 12  1  0
 12 13  2  0
 13 14  1  0
 14 15  2  0
 15 16  1  0
 16 17  1  0
 17 18  1  0
 18 19  2  0
 19 20  1  0
 20 21  2  0
 21 22  1  0
 22 23  1  0
 23 24  1  6
 23 25  1  0
 25 26  1  0
 26 27  1  0
 27 28  1  0
 22 29  2  0
 15 30  1  0
 30 31  2  0
 31 32  1  0
 32 33  1  0
  6 34  1  0
 34 35  2  0
 35  3  1  0
 11  7  1  0
 31 12  1  0
 33 10  1  0
 29 18  1  0
 28 23  1  0
  1 36  1  0
  1 37  1  0
  1 38  1  0
  4 39  1  0
  5 40  1  0
  8 41  1  0
 13 42  1  0
 14 43  1  0
 17 44  1  0
 17 45  1  0
 19 46  1  0
 20 47  1  0
 21 48  1  0
 24 49  1  0
 24 50  1  0
 24 51  1  0
 25 52  1  0
 25 53  1  0
 26 54  1  0
 26 55  1  0
 27 56  1  0
 27 57  1  0
 29 58  1  0
 30 59  1  0
 32 60  1  0
 32 61  1  0
 33 62  1  0
 33 63  1  0
 34 64  1  0
 35 65  1  0
M  CHG  1   8   1
M  END
>  <UniqueID>  (4) 
4

>  <SMILES>  (4) 
COc1ccc(-c2[nH+]nc3n2-c2ccc(OCc4cccc([C@@]5(C)CCCO5)c4)cc2CC3)cc1

>  <Energy>  (4) 
119.92517748858371

>  <Genealogy>  (4) 
COc1ccc(-c2[nH+]nc3n2-c2ccc(OCc4cccc(C5(C)CCCO5)c4)cc2CC3)cc1 (protonated)
COc1ccc(-c2[nH+]nc3n2-c2ccc(OCc4cccc([C@@]5(C)CCCO5)c4)cc2CC3)cc1 (chirality)
COc1ccc(-c2[nH+]nc3n2-c2ccc(OCc4cccc([C@@]5(C)CCCO5)c4)cc2CC3)cc1 (3D coordinates assigned)
COc1ccc(-c2[nH+]nc3n2-c2ccc(OCc4cccc([C@@]5(C)CCCO5)c4)cc2CC3)cc1 (nonaromatic ring conformer: 119.92517748858371 kcal/mol)

>  <smiles>  (4) 
COc1ccc(-c2nnc3n2-c2ccc(OCc4cccc(C5(C)CCCO5)c4)cc2CC3)cc1

>  <score_type>  (4) 
oracle

>  <origin>  (4) 
adg

>  <m_score__min__energy>  (4) 
-11.19

>  <m_primary>  (4) 
energy

$$$$
4:0
     RDKit          3D

 34 36  0  0  0  0  0  0  0  0999 V2000
   -9.8170   21.0010  -31.9750 C   0  0  0  0  0  0  0  0  0  0  0  0
   -8.9160   19.8020  -31.6920 C   0  0  0  0  0  0  0  0  0  0  0  0
   -7.6160   19.9570  -32.3590 N   0  0  0  0  0  0  0  0  0  0  0  0
   -6.7780   21.0380  -32.4950 C   0  0  0  0  0  0  0  0  0  0  0  0
   -7.0190   22.4630  -32.0350 C   0  0  0  0  0  0  0  0  0  0  0  0
   -6.6800   22.7560  -30.6080 C   0  0  0  0  0  0  0  0  0  0  0  0
   -5.6220   23.7420  -30.9080 N   0  0  0  0  0  0  0  0  0  0  0  0
   -4.7020   24.5530  -30.1820 C   0  0  0  0  0  0  0  0  0  0  0  0
   -4.6710   24.4980  -28.6900 C   0  0  0  0  0  0  0  0  0  0  0  0
   -3.8960   25.2930  -30.8040 O   0  0  0  0  0  0  0  0  0  0  0  0
   -5.9510   23.4680  -32.3210 C   0  0  0  0  0  0  0  0  0  0  0  0
   -5.6390   20.7410  -33.1830 N   0  0  0  0  0  0  0  0  0  0  0  0
   -5.7790   19.4390  -33.4760 C   0  0  0  0  0  0  0  0  0  0  0  0
   -4.9080   18.6130  -34.1780 C   0  0  0  0  0  0  0  0  0  0  0  0
   -5.2990   17.2740  -34.3610 C   0  0  0  0  0  0  0  0  0  0  0  0
   -6.5360   16.8270  -33.8400 C   0  0  0  0  0  0  0  0  0  0  0  0
   -7.3530   17.6870  -33.1580 N   0  0  0  0  0  0  0  0  0  0  0  0
   -6.9530   18.9730  -32.9910 C   0  0  0  0  0  0  0  0  0  0  0  0
  -10.1490   21.4428  -31.0239 H   0  0  0  0  0  0  0  0  0  0  0  0
   -9.2577   21.7517  -32.5525 H   0  0  0  0  0  0  0  0  0  0  0  0
  -10.6937   20.6726  -32.5525 H   0  0  0  0  0  0  0  0  0  0  0  0
   -8.7568   19.7188  -30.6068 H   0  0  0  0  0  0  0  0  0  0  0  0
   -9.4044   18.8952  -32.0781 H   0  0  0  0  0  0  0  0  0  0  0  0
   -8.0323   22.5284  -32.4580 H   0  0  0  0  0  0  0  0  0  0  0  0
   -7.5225   23.1912  -30.0505 H   0  0  0  0  0  0  0  0  0  0  0  0
   -6.4084   21.9032  -29.9685 H   0  0  0  0  0  0  0  0  0  0  0  0
   -5.1722   25.3872  -28.2798 H   0  0  0  0  0  0  0  0  0  0  0  0
   -5.1914   23.5922  -28.3456 H   0  0  0  0  0  0  0  0  0  0  0  0
   -3.6266   24.4742  -28.3456 H   0  0  0  0  0  0  0  0  0  0  0  0
   -6.3312   24.3547  -32.8494 H   0  0  0  0  0  0  0  0  0  0  0  0
   -5.1268   23.1540  -32.9784 H   0  0  0  0  0  0  0  0  0  0  0  0
   -3.9536   18.9906  -34.5735 H   0  0  0  0  0  0  0  0  0  0  0  0
   -4.6456   16.5775  -34.9069 H   0  0  0  0  0  0  0  0  0  0  0  0
   -6.8432   15.7807  -33.9842 H   0  0  0  0  0  0  0  0  0  0  0  0
  1  2  1  0
  2  3  1  0
  3  4  1  0
  4  5  1  0
  5  6  1  0
  6  7  1  0
  7  8  1  0
  8  9  1  0
  8 10  2  0
  7 11  1  0
  4 12  2  0
 12 13  1  0
 13 14  2  0
 14 15  1  0
 15 16  2  0
 16 17  1  0
 17 18  2  0
 18  3  1  0
 11  5  1  0
 18 13  1  0
  1 19  1  0
  1 20  1  0
  1 21  1  0
  2 22  1  0
  2 23  1  0
  5 24  1  0
  6 25  1  0
  6 26  1  0
  9 27  1  0
  9 28  1  0
  9 29  1  0
 11 30  1  0
 11 31  1  0
 14 32  1  0
 15 33  1  0
 16 34  1  0
M  END
>  <UniqueID>  (5) 
5

>  <SMILES>  (5) 
CCn1c(C2CN(C(C)=O)C2)nc2cccnc21

>  <Energy>  (5) 
118.87681206633455

>  <Genealogy>  (5) 
CCn1c(C2CN(C(C)=O)C2)nc2cccnc21 (3D coordinates assigned)
CCn1c(C2CN(C(C)=O)C2)nc2cccnc21 (nonaromatic ring conformer: 118.87681206633455 kcal/mol)

>  <smiles>  (5) 
CCn1c(C2CN(C(C)=O)C2)nc2cccnc21

>  <score_type>  (5) 
oracle

>  <origin>  (5) 
adg

>  <m_score__min__energy>  (5) 
-7.8600000000000003

>  <m_primary>  (5) 
energy

$$$$
5:0
     RDKit          3D

 49 52  0  0  0  0  0  0  0  0999 V2000
   -2.7470   19.6680  -25.9670 F   0  0  0  0  0  0  0  0  0  0  0  0
   -1.5950   19.6700  -26.6830 C   0  0  0  0  0  0  0  0  0  0  0  0
   -1.1170   18.4610  -27.2010 C   0  0  0  0  0  0  0  0  0  0  0  0
    0.0670   18.4340  -27.9410 C   0  0  0  0  0  0  0  0  0  0  0  0
    0.7780   19.6150  -28.1660 C   0  0  0  0  0  0  0  0  0  0  0  0
    0.3080   20.8280  -27.6530 C   0  0  0  0  0  0  0  0  0  0  0  0
    1.0190   21.9590  -27.8850 F   0  0  0  0  0  0  0  0  0  0  0  0
   -0.8830   20.8660  -26.9010 C   0  0  0  0  0  0  0  0  0  0  0  0
   -1.4150   22.1790  -26.3790 C   0  0  0  0  0  0  0  0  0  0  0  0
   -2.1290   22.9000  -27.4420 N   0  0  0  0  0  0  0  0  0  0  0  0
   -3.3630   22.4700  -27.8450 C   0  0  0  0  0  0  0  0  0  0  0  0
   -4.0450   23.1220  -28.8750 C   0  0  0  0  0  0  0  0  0  0  0  0
   -3.4540   24.2320  -29.5060 C   0  0  0  0  0  0  0  0  0  0  0  0
   -4.0390   24.8820  -30.4730 N   0  0  0  0  0  0  0  0  0  0  0  0
   -5.4200   24.7090  -30.9160 C   0  0  0  0  0  0  0  0  0  0  0  0
   -5.6060   23.3070  -31.4210 C   0  0  0  0  0  0  0  0  0  0  0  0
   -6.8340   22.6500  -31.2470 C   0  0  0  0  0  0  0  0  0  0  0  0
   -7.0200   21.3580  -31.7470 C   0  0  0  0  0  0  0  0  0  0  0  0
   -5.9860   20.7050  -32.4430 C   0  0  0  0  0  0  0  0  0  0  0  0
   -6.1840   19.3330  -32.9760 C   0  0  0  0  0  0  0  0  0  0  0  0
   -7.0060   18.4130  -32.2960 C   0  0  0  0  0  0  0  0  0  0  0  0
   -7.1900   17.1220  -32.8000 C   0  0  0  0  0  0  0  0  0  0  0  0
   -6.5600   16.7350  -33.9840 C   0  0  0  0  0  0  0  0  0  0  0  0
   -5.7430   17.6380  -34.6680 C   0  0  0  0  0  0  0  0  0  0  0  0
   -5.5540   18.9300  -34.1680 C   0  0  0  0  0  0  0  0  0  0  0  0
   -4.7640   21.3750  -32.6290 C   0  0  0  0  0  0  0  0  0  0  0  0
   -4.5780   22.6670  -32.1270 C   0  0  0  0  0  0  0  0  0  0  0  0
   -2.1920   24.6540  -29.0810 C   0  0  0  0  0  0  0  0  0  0  0  0
   -1.5420   23.9750  -28.0480 C   0  0  0  0  0  0  0  0  0  0  0  0
   -1.6753   17.5297  -27.0248 H   0  0  0  0  0  0  0  0  0  0  0  0
    0.4399   17.4821  -28.3469 H   0  0  0  0  0  0  0  0  0  0  0  0
    1.7107   19.5908  -28.7486 H   0  0  0  0  0  0  0  0  0  0  0  0
   -2.1059   21.9847  -25.5454 H   0  0  0  0  0  0  0  0  0  0  0  0
   -0.5712   22.7947  -26.0341 H   0  0  0  0  0  0  0  0  0  0  0  0
   -3.8237   21.6009  -27.3525 H   0  0  0  0  0  0  0  0  0  0  0  0
   -5.0381   22.7698  -29.1909 H   0  0  0  0  0  0  0  0  0  0  0  0
   -6.1022   24.8894  -30.0721 H   0  0  0  0  0  0  0  0  0  0  0  0
   -5.6413   25.4240  -31.7221 H   0  0  0  0  0  0  0  0  0  0  0  0
   -7.6540   23.1542  -30.7146 H   0  0  0  0  0  0  0  0  0  0  0  0
   -7.9825   20.8476  -31.5951 H   0  0  0  0  0  0  0  0  0  0  0  0
   -7.5060   18.7121  -31.3630 H   0  0  0  0  0  0  0  0  0  0  0  0
   -7.8328   16.4095  -32.2622 H   0  0  0  0  0  0  0  0  0  0  0  0
   -6.7070   15.7187  -34.3784 H   0  0  0  0  0  0  0  0  0  0  0  0
   -5.2476   17.3323  -35.6013 H   0  0  0  0  0  0  0  0  0  0  0  0
   -4.9083   19.6364  -34.7103 H   0  0  0  0  0  0  0  0  0  0  0  0
   -3.9474   20.8788  -33.1739 H   0  0  0  0  0  0  0  0  0  0  0  0
   -3.6201   23.1836  -32.2870 H   0  0  0  0  0  0  0  0  0  0  0  0
   -1.7108   25.5199  -29.5593 H   0  0  0  0  0  0  0  0  0  0  0  0
   -0.5470   24.3091  -27.7187 H   0  0  0  0  0  0  0  0  0  0  0  0
  1  2  1  0
  2  3  2  0
  3  4  1  0
  4  5  2  0
  5  6  1  0
  6  7  1  0
  6  8  2  0
  8  9  1  0
  9 10  1  0
 10 11  1  0
 11 12  2  0
 12 13  1  0
 13 14  2  3
 14 15  1  0
 15 16  1  0
 16 17  2  0
 17 18  1  0
 18 19  2  0
 19 20  1  0
 20 21  2  0
 21 22  1  0
 22 23  2  0
 23 24  1  0
 24 25  2  0
 19 26  1  0
 26 27  2  0
 13 28  1  0
 28 29  2  0
  8  2  1  0
 29 10  1  0
 27 16  1  0
 25 20  1  0
  3 30  1  0
  4 31  1  0
  5 32  1  0
  9 33  1  0
  9 34  1  0
 11 35  1  0
 12 36  1  0
 15 37  1  0
 15 38  1  0
 17 39  1  0
 18 40  1  0
 21 41  1  0
 22 42  1  0
 23 43  1  0
 24 44  1  0
 25 45  1  0
 26 46  1  0
 27 47  1  0
 28 48  1  0
 29 49  1  0
M  END
>  <UniqueID>  (6) 
6

>  <SMILES>  (6) 
Fc1cccc(F)c1Cn1ccc(=NCc2ccc(-c3ccccc3)cc2)cc1

>  <Energy>  (6) 
60.82174155832662

>  <Genealogy>  (6) 
Fc1cccc(F)c1Cn1ccc(=NCc2ccc(-c3ccccc3)cc2)cc1 (3D coordinates assigned)
Fc1cccc(F)c1Cn1ccc(=NCc2ccc(-c3ccccc3)cc2)cc1 (optimized conformer: 60.82174155832662 kcal/mol)

>  <smiles>  (6) 
Fc1cccc(F)c1Cn1ccc(=NCc2ccc(-c3ccccc3)cc2)cc1

>  <score_type>  (6) 
oracle

>  <origin>  (6) 
adg

>  <m_score__min__energy>  (6) 
-9.2200000000000006

>  <m_primary>  (6) 
energy

$$$$
6:0
     RDKit          3D

 40 43  0  0  0  0  0  0  0  0999 V2000
   -6.1800   14.4520  -34.1180 O   0  0  0  0  0  0  0  0  0  0  0  0
   -6.9250   15.4640  -34.2050 C   0  0  0  0  0  0  0  0  0  0  0  0
   -6.4350   16.8040  -33.8340 C   0  0  0  0  0  0  0  0  0  0  0  0
   -5.9100   17.6790  -34.8010 C   0  0  0  0  0  0  0  0  0  0  0  0
   -5.4490   18.9460  -34.4290 C   0  0  0  0  0  0  0  0  0  0  0  0
   -5.5040   19.3550  -33.0900 C   0  0  0  0  0  0  0  0  0  0  0  0
   -5.0280   20.6570  -32.7090 N   0  0  0  0  0  0  0  0  0  0  0  0
   -3.7470   21.1210  -32.6930 C   0  0  0  0  0  0  0  0  0  0  0  0
   -2.5670   20.4090  -33.2270 C   0  0  0  0  0  0  0  0  0  0  0  0
   -2.4600   19.0100  -33.1610 C   0  0  0  0  0  0  0  0  0  0  0  0
   -1.3330   18.3820  -33.6960 C   0  0  0  0  0  0  0  0  0  0  0  0
   -0.3350   19.1440  -34.3030 C   0  0  0  0  0  0  0  0  0  0  0  0
   -0.4840   20.5300  -34.3750 C   0  0  0  0  0  0  0  0  0  0  0  0
   -1.5870   21.1240  -33.8460 N   0  0  0  0  0  0  0  0  0  0  0  0
   -3.6580   22.3520  -32.1370 N   0  0  0  0  0  0  0  0  0  0  0  0
   -4.9220   22.6710  -31.8130 C   0  0  0  0  0  0  0  0  0  0  0  0
   -5.7560   21.6420  -32.1410 C   0  0  0  0  0  0  0  0  0  0  0  0
   -7.2370   21.6680  -31.8800 C   0  0  0  0  0  0  0  0  0  0  0  0
   -7.5610   22.6560  -30.7350 C   0  0  0  0  0  0  0  0  0  0  0  0
   -6.8790   24.0330  -30.9190 C   0  0  0  0  0  0  0  0  0  0  0  0
   -5.3970   23.8890  -31.1550 C   0  0  0  0  0  0  0  0  0  0  0  0
   -4.5980   24.8120  -30.8440 O   0  0  0  0  0  0  0  0  0  0  0  0
   -6.0340   18.4840  -32.1250 C   0  0  0  0  0  0  0  0  0  0  0  0
   -6.4930   17.2170  -32.4940 C   0  0  0  0  0  0  0  0  0  0  0  0
   -7.9582   15.3459  -34.5637 H   0  0  0  0  0  0  0  0  0  0  0  0
   -5.8616   17.3659  -35.8544 H   0  0  0  0  0  0  0  0  0  0  0  0
   -5.0409   19.6252  -35.1920 H   0  0  0  0  0  0  0  0  0  0  0  0
   -3.2569   18.4142  -32.6920 H   0  0  0  0  0  0  0  0  0  0  0  0
   -1.2327   17.2881  -33.6387 H   0  0  0  0  0  0  0  0  0  0  0  0
    0.5594   18.6583  -34.7203 H   0  0  0  0  0  0  0  0  0  0  0  0
    0.2910   21.1419  -34.8598 H   0  0  0  0  0  0  0  0  0  0  0  0
   -2.8000   22.9340  -32.0030 H   0  0  0  0  0  0  0  0  0  0  0  0
   -7.7613   21.9859  -32.7933 H   0  0  0  0  0  0  0  0  0  0  0  0
   -7.5675   20.6602  -31.5883 H   0  0  0  0  0  0  0  0  0  0  0  0
   -8.6501   22.8056  -30.6977 H   0  0  0  0  0  0  0  0  0  0  0  0
   -7.1766   22.2185  -29.8018 H   0  0  0  0  0  0  0  0  0  0  0  0
   -7.3305   24.5428  -31.7828 H   0  0  0  0  0  0  0  0  0  0  0  0
   -7.0265   24.6167  -29.9984 H   0  0  0  0  0  0  0  0  0  0  0  0
   -6.0882   18.8006  -31.0730 H   0  0  0  0  0  0  0  0  0  0  0  0
   -6.9021   16.5395  -31.7300 H   0  0  0  0  0  0  0  0  0  0  0  0
  1  2  2  0
  2  3  1  0
  3  4  2  0
  4  5  1  0
  5  6  2  0
  6  7  1  0
  7  8  1  0
  8  9  1  0
  9 10  2  0
 10 11  1  0
 11 12  2  0
 12 13  1  0
 13 14  2  0
  8 15  2  0
 15 16  1  0
 16 17  2  0
 17 18  1  0
 18 19  1  0
 19 20  1  0
 20 21  1  0
 21 22  2  0
  6 23  1  0
 23 24  2  0
 24  3  1  0
 17  7  1  0
 14  9  1  0
 21 16  1  0
  2 25  1  0
  4 26  1  0
  5 27  1  0
 10 28  1  0
 11 29  1  0
 12 30  1  0
 13 31  1  0
 15 32  1  0
 18 33  1  0
 18 34  1  0
 19 35  1  0
 19 36  1  0
 20 37  1  0
 20 38  1  0
 23 39  1  0
 24 40  1  0
M  CHG  1  15   1
M  END
>  <UniqueID>  (7) 
7

>  <SMILES>  (7) 
O=Cc1ccc(-n2c(-c3ccccn3)[nH+]c3c2CCCC3=O)cc1

>  <Energy>  (7) 
85.88525747806163

>  <Genealogy>  (7) 
O=Cc1ccc(-n2c(-c3ccccn3)[nH+]c3c2CCCC3=O)cc1 (protonated)
O=Cc1ccc(-n2c(-c3ccccn3)[nH+]c3c2CCCC3=O)cc1 (3D coordinates assigned)
O=Cc1ccc(-n2c(-c3ccccn3)[nH+]c3c2CCCC3=O)cc1 (nonaromatic ring conformer: 85.88525747806163 kcal/mol)

>  <smiles>  (7) 
O=Cc1ccc(-n2c(-c3ccccn3)nc3c2CCCC3=O)cc1

>  <score_type>  (7) 
oracle

>  <origin>  (7) 
adg

>  <m_score__min__energy>  (7) 
-7.7000000000000002

>  <m_primary>  (7) 
energy

$$$$
7:0
     RDKit          3D

 47 47  0  0  0  0  0  0  0  0999 V2000
   -6.0099   24.0335  -32.9192 H   0  0  0  0  0  0  0  0  0  0  0  0
   -6.0480   24.0520  -31.8200 C   0  0  0  0  0  0  0  0  0  0  0  0
   -5.0530   24.5790  -31.1870 N   0  0  0  0  0  0  0  0  0  0  0  0
   -5.0500   24.9250  -29.7810 C   0  0  0  0  0  0  0  0  0  0  0  0
   -6.0734   25.1772  -29.4664 H   0  0  0  0  0  0  0  0  0  0  0  0
   -4.3864   25.7882  -29.6245 H   0  0  0  0  0  0  0  0  0  0  0  0
   -4.5410   23.7450  -28.9490 C   0  0  0  0  0  0  0  0  0  0  0  0
   -3.6963   23.2770  -29.4757 H   0  0  0  0  0  0  0  0  0  0  0  0
   -5.3717   23.0354  -28.8211 H   0  0  0  0  0  0  0  0  0  0  0  0
   -4.0760   24.1830  -27.5620 C   0  0  0  0  0  0  0  0  0  0  0  0
   -4.6500   23.6423  -26.7951 H   0  0  0  0  0  0  0  0  0  0  0  0
   -3.0057   23.9573  -27.4459 H   0  0  0  0  0  0  0  0  0  0  0  0
   -4.2373   25.2649  -27.4459 H   0  0  0  0  0  0  0  0  0  0  0  0
   -7.2620   23.4590  -31.1410 C   0  0  0  0  0  0  0  0  0  0  0  0
   -7.1598   23.5857  -30.0531 H   0  0  0  0  0  0  0  0  0  0  0  0
   -8.1547   23.9812  -31.5156 H   0  0  0  0  0  0  0  0  0  0  0  0
   -7.4140   21.9560  -31.4580 C   0  0  1  0  0  0  0  0  0  0  0  0
   -7.2430   21.4003  -30.5242 H   0  0  0  0  0  0  0  0  0  0  0  0
   -8.8330   21.6530  -31.9590 C   0  0  0  0  0  0  0  0  0  0  0  0
   -9.0084   22.2064  -32.8934 H   0  0  0  0  0  0  0  0  0  0  0  0
   -9.5477   21.9621  -31.1820 H   0  0  0  0  0  0  0  0  0  0  0  0
   -9.0270   20.1430  -32.2250 C   0  0  0  0  0  0  0  0  0  0  0  0
   -9.8514   20.0243  -32.9435 H   0  0  0  0  0  0  0  0  0  0  0  0
   -9.2346   19.6787  -31.2496 H   0  0  0  0  0  0  0  0  0  0  0  0
   -7.8240   19.4490  -32.7770 N   0  0  2  0  0  0  0  0  0  0  0  0
   -8.1690   18.7970  -33.5220 H   0  0  0  0  0  0  0  0  0  0  0  0
   -7.1660   18.5980  -31.7470 C   0  0  0  0  0  0  0  0  0  0  0  0
   -6.4974   19.2314  -31.1455 H   0  0  0  0  0  0  0  0  0  0  0  0
   -7.9635   18.1449  -31.1398 H   0  0  0  0  0  0  0  0  0  0  0  0
   -6.3380   17.4450  -32.3490 C   0  0  0  0  0  0  0  0  0  0  0  0
   -5.2681   17.6427  -32.1870 H   0  0  0  0  0  0  0  0  0  0  0  0
   -6.6242   16.5031  -31.8582 H   0  0  0  0  0  0  0  0  0  0  0  0
   -6.6000   17.3320  -33.8020 N   0  0  0  0  0  0  0  0  0  0  0  0
   -5.4590   17.8400  -34.5850 C   0  0  0  0  0  0  0  0  0  0  0  0
   -4.6720   18.1904  -33.9011 H   0  0  0  0  0  0  0  0  0  0  0  0
   -5.0615   17.0338  -35.2191 H   0  0  0  0  0  0  0  0  0  0  0  0
   -5.7921   18.6748  -35.2191 H   0  0  0  0  0  0  0  0  0  0  0  0
   -6.8640   15.9320  -34.1740 C   0  0  0  0  0  0  0  0  0  0  0  0
   -6.9783   15.3259  -33.2632 H   0  0  0  0  0  0  0  0  0  0  0  0
   -7.7881   15.8785  -34.7684 H   0  0  0  0  0  0  0  0  0  0  0  0
   -6.0229   15.5457  -34.7684 H   0  0  0  0  0  0  0  0  0  0  0  0
   -6.8960   20.3960  -33.4430 C   0  0  0  0  0  0  0  0  0  0  0  0
   -7.4314   20.8934  -34.2652 H   0  0  0  0  0  0  0  0  0  0  0  0
   -6.0361   19.8158  -33.8088 H   0  0  0  0  0  0  0  0  0  0  0  0
   -6.3550   21.4740  -32.4840 C   0  0  0  0  0  0  0  0  0  0  0  0
   -6.0236   22.3382  -33.0785 H   0  0  0  0  0  0  0  0  0  0  0  0
   -5.5263   21.0251  -31.9167 H   0  0  0  0  0  0  0  0  0  0  0  0
  1  2  1  0
  2  3  2  0
  3  4  1  0
  4  5  1  0
  4  6  1  0
  4  7  1  0
  7  8  1  0
  7  9  1  0
  7 10  1  0
 10 11  1  0
 10 12  1  0
 10 13  1  0
  2 14  1  0
 14 15  1  0
 14 16  1  0
 14 17  1  0
 17 18  1  1
 17 19  1  0
 19 20  1  0
 19 21  1  0
 19 22  1  0
 22 23  1  0
 22 24  1  0
 22 25  1  0
 25 26  1  6
 25 27  1  0
 27 28  1  0
 27 29  1  0
 27 30  1  0
 30 31  1  0
 30 32  1  0
 30 33  1  0
 33 34  1  0
 34 35  1  0
 34 36  1  0
 34 37  1  0
 33 38  1  0
 38 39  1  0
 38 40  1  0
 38 41  1  0
 25 42  1  0
 42 43  1  0
 42 44  1  0
 42 45  1  0
 45 46  1  0
 45 47  1  0
 45 17  1  0
M  CHG  1  25   1
M  END
>  <UniqueID>  (8) 
8

>  <SMILES>  (8) 
CCC/N=C\CC1CC[NH+](CCN(C)C)CC1

>  <Energy>  (8) 
47.38746990358315

>  <Genealogy>  (8) 
CCCN=CCC1CC[NH+](CCN(C)C)CC1 (protonated)
CCC/N=C\CC1CC[NH+](CCN(C)C)CC1 (cis-trans isomerization)
CCC/N=C\CC1CC[NH+](CCN(C)C)CC1 (3D coordinates assigned)
CCC/N=C\CC1CC[NH+](CCN(C)C)CC1 (nonaromatic ring conformer: 47.38746990358315 kcal/mol)

>  <smiles>  (8) 
CCCN=CCC1CCN(CCN(C)C)CC1

>  <score_type>  (8) 
oracle

>  <origin>  (8) 
adg

>  <m_score__min__energy>  (8) 
-5.96

>  <m_primary>  (8) 
energy

$$$$
8:0
     RDKit          3D

 34 37  0  0  0  0  0  0  0  0999 V2000
   -6.1350   17.3680  -30.9230 C   0  0  0  0  0  0  0  0  0  0  0  0
   -5.8030   17.5830  -32.3700 C   0  0  0  0  0  0  0  0  0  0  0  0
   -4.9310   16.7290  -33.0640 C   0  0  0  0  0  0  0  0  0  0  0  0
   -4.7920   17.0400  -34.4090 C   0  0  0  0  0  0  0  0  0  0  0  0
   -5.7460   18.3820  -34.7380 S   0  0  0  0  0  0  0  0  0  0  0  0
   -6.3290   18.5990  -33.1760 C   0  0  0  0  0  0  0  0  0  0  0  0
   -7.2720   19.6670  -32.7970 C   0  0  0  0  0  0  0  0  0  0  0  0
   -8.5870   19.6600  -33.0960 N   0  0  0  0  0  0  0  0  0  0  0  0
   -9.1240   20.7950  -32.6610 N   0  0  0  0  0  0  0  0  0  0  0  0
   -8.1120   21.4830  -32.0970 C   0  0  0  0  0  0  0  0  0  0  0  0
   -6.9600   20.8110  -32.1690 N   0  0  0  0  0  0  0  0  0  0  0  0
   -5.7100   21.2880  -31.7510 N   0  0  0  0  0  0  0  0  0  0  0  0
   -5.5980   22.2930  -30.9280 C   0  0  0  0  0  0  0  0  0  0  0  0
   -4.2380   22.7110  -30.5020 C   0  0  0  0  0  0  0  0  0  0  0  0
   -4.0390   23.8610  -29.7120 C   0  0  0  0  0  0  0  0  0  0  0  0
   -2.7530   24.2320  -29.3110 C   0  0  0  0  0  0  0  0  0  0  0  0
   -1.6510   23.4610  -29.6870 C   0  0  0  0  0  0  0  0  0  0  0  0
   -1.8340   22.3140  -30.4610 C   0  0  0  0  0  0  0  0  0  0  0  0
   -3.1180   21.9370  -30.8640 C   0  0  0  0  0  0  0  0  0  0  0  0
   -6.8400   22.9120  -30.3000 C   0  0  0  0  0  0  0  0  0  0  0  0
   -8.1940   23.1640  -31.5120 S   0  0  0  0  0  0  0  0  0  0  0  0
   -5.3765   17.8592  -30.2959 H   0  0  0  0  0  0  0  0  0  0  0  0
   -7.1242   17.7974  -30.7060 H   0  0  0  0  0  0  0  0  0  0  0  0
   -6.1478   16.2897  -30.7060 H   0  0  0  0  0  0  0  0  0  0  0  0
   -4.4057   15.8896  -32.5849 H   0  0  0  0  0  0  0  0  0  0  0  0
   -4.1652   16.5006  -35.1344 H   0  0  0  0  0  0  0  0  0  0  0  0
   -9.1150   18.9090  -33.5930 H   0  0  0  0  0  0  0  0  0  0  0  0
   -4.9026   24.4711  -29.4088 H   0  0  0  0  0  0  0  0  0  0  0  0
   -2.6082   25.1336  -28.6976 H   0  0  0  0  0  0  0  0  0  0  0  0
   -0.6392   23.7575  -29.3733 H   0  0  0  0  0  0  0  0  0  0  0  0
   -0.9658   21.7055  -30.7544 H   0  0  0  0  0  0  0  0  0  0  0  0
   -3.2552   21.0285  -31.4688 H   0  0  0  0  0  0  0  0  0  0  0  0
   -7.2007   22.2457  -29.5026 H   0  0  0  0  0  0  0  0  0  0  0  0
   -6.5571   23.8997  -29.9071 H   0  0  0  0  0  0  0  0  0  0  0  0
  1  2  1  0
  2  3  1  0
  3  4  2  0
  4  5  1  0
  5  6  1  0
  6  7  1  0
  7  8  2  0
  8  9  1  0
  9 10  2  0
 10 11  1  0
 11 12  1  0
 12 13  2  0
 13 14  1  0
 14 15  2  0
 15 16  1  0
 16 17  2  0
 17 18  1  0
 18 19  2  0
 13 20  1  0
 20 21  1  0
  6  2  2  0
 11  7  1  0
 19 14  1  0
 21 10  1  0
  1 22  1  0
  1 23  1  0
  1 24  1  0
  3 25  1  0
  4 26  1  0
  8 27  1  0
 15 28  1  0
 16 29  1  0
 17 30  1  0
 18 31  1  0
 19 32  1  0
 20 33  1  0
 20 34  1  0
M  CHG  1   8   1
M  END
>  <UniqueID>  (9) 
9

>  <SMILES>  (9) 
Cc1ccsc1-c1[nH+]nc2n1N=C(c1ccccc1)CS2

>  <Energy>  (9) 
114.53772752613969

>  <Genealogy>  (9) 
Cc1ccsc1-c1[nH+]nc2n1N=C(c1ccccc1)CS2 (protonated)
Cc1ccsc1-c1[nH+]nc2n1N=C(c1ccccc1)CS2 (3D coordinates assigned)
Cc1ccsc1-c1[nH+]nc2n1N=C(c1ccccc1)CS2 (nonaromatic ring conformer: 114.53772752613969 kcal/mol)

>  <smiles>  (9) 
Cc1ccsc1-c1nnc2n1N=C(c1ccccc1)CS2

>  <score_type>  (9) 
oracle

>  <origin>  (9) 
adg

>  <m_score__min__energy>  (9) 
-7.9100000000000001

>  <m_primary>  (9) 
energy

$$$$
9:0
     RDKit          3D

 47 48  0  0  0  0  0  0  0  0999 V2000
   -5.2400   25.3010  -30.7680 C   0  0  0  0  0  0  0  0  0  0  0  0
   -3.8580   25.2990  -30.4950 O   0  0  0  0  0  0  0  0  0  0  0  0
   -3.6060   24.5230  -29.3430 C   0  0  0  0  0  0  0  0  0  0  0  0
   -2.1510   24.0270  -29.3460 C   0  0  0  0  0  0  0  0  0  0  0  0
   -1.9900   22.4680  -29.3070 C   0  0  0  0  0  0  0  0  0  0  0  0
   -2.0150   21.8900  -30.7080 N   0  0  0  0  0  0  0  0  0  0  0  0
   -0.8640   21.4290  -31.3140 C   0  0  0  0  0  0  0  0  0  0  0  0
   -0.8760   20.8840  -32.5940 C   0  0  0  0  0  0  0  0  0  0  0  0
   -2.0630   20.7960  -33.2950 C   0  0  0  0  0  0  0  0  0  0  0  0
   -3.2500   21.2580  -32.7200 C   0  0  0  0  0  0  0  0  0  0  0  0
   -4.5090   21.1730  -33.4260 N   0  0  0  0  0  0  0  0  0  0  0  0
   -5.4320   20.0390  -33.3500 C   0  0  0  0  0  0  0  0  0  0  0  0
   -6.2720   20.1110  -32.0700 C   0  0  0  0  0  0  0  0  0  0  0  0
   -7.6120   20.7950  -32.3310 C   0  0  0  0  0  0  0  0  0  0  0  0
   -7.5860   22.6000  -31.6290 Br  0  0  0  0  0  0  0  0  0  0  0  0
   -3.2050   21.8000  -31.4170 C   0  0  0  0  0  0  0  0  0  0  0  0
   -4.2870   22.2050  -30.9110 O   0  0  0  0  0  0  0  0  0  0  0  0
   -3.0920   21.8900  -28.3470 C   0  0  0  0  0  0  0  0  0  0  0  0
   -2.7430   20.4770  -27.8210 C   0  0  0  0  0  0  0  0  0  0  0  0
   -1.7120   19.8770  -28.5790 O   0  0  0  0  0  0  0  0  0  0  0  0
   -0.4970   20.5870  -28.4100 C   0  0  0  0  0  0  0  0  0  0  0  0
   -0.6460   22.1120  -28.6100 C   0  0  0  0  0  0  0  0  0  0  0  0
   -5.8007   25.3018  -29.8216 H   0  0  0  0  0  0  0  0  0  0  0  0
   -5.4979   26.1995  -31.3478 H   0  0  0  0  0  0  0  0  0  0  0  0
   -5.5005   24.4032  -31.3478 H   0  0  0  0  0  0  0  0  0  0  0  0
   -3.7791   25.1364  -28.4465 H   0  0  0  0  0  0  0  0  0  0  0  0
   -4.2815   23.6549  -29.3397 H   0  0  0  0  0  0  0  0  0  0  0  0
   -1.6641   24.3989  -30.2596 H   0  0  0  0  0  0  0  0  0  0  0  0
   -1.6904   24.4100  -28.4234 H   0  0  0  0  0  0  0  0  0  0  0  0
    0.0897   21.4943  -30.7697 H   0  0  0  0  0  0  0  0  0  0  0  0
    0.0591   20.5234  -33.0475 H   0  0  0  0  0  0  0  0  0  0  0  0
   -2.0739   20.3623  -34.3058 H   0  0  0  0  0  0  0  0  0  0  0  0
   -4.8000   21.9660  -34.0410 H   0  0  0  0  0  0  0  0  0  0  0  0
   -6.1011   20.0585  -34.2229 H   0  0  0  0  0  0  0  0  0  0  0  0
   -4.8479   19.1069  -33.3385 H   0  0  0  0  0  0  0  0  0  0  0  0
   -6.4549   19.0906  -31.7022 H   0  0  0  0  0  0  0  0  0  0  0  0
   -5.7195   20.6979  -31.3215 H   0  0  0  0  0  0  0  0  0  0  0  0
   -7.7983   20.8287  -33.4146 H   0  0  0  0  0  0  0  0  0  0  0  0
   -8.4099   20.2260  -31.8315 H   0  0  0  0  0  0  0  0  0  0  0  0
   -3.2016   22.5683  -27.4880 H   0  0  0  0  0  0  0  0  0  0  0  0
   -4.0258   21.8094  -28.9228 H   0  0  0  0  0  0  0  0  0  0  0  0
   -2.4153   20.5572  -26.7740 H   0  0  0  0  0  0  0  0  0  0  0  0
   -3.6414   19.8480  -27.9057 H   0  0  0  0  0  0  0  0  0  0  0  0
   -0.1244   20.4034  -27.3915 H   0  0  0  0  0  0  0  0  0  0  0  0
    0.2011   20.2247  -29.1790 H   0  0  0  0  0  0  0  0  0  0  0  0
   -0.6110   22.6062  -27.6279 H   0  0  0  0  0  0  0  0  0  0  0  0
    0.1774   22.4574  -29.2524 H   0  0  0  0  0  0  0  0  0  0  0  0
  1  2  1  0
  2  3  1  0
  3  4  1  0
  4  5  1  0
  5  6  1  0
  6  7  1  0
  7  8  2  0
  8  9  1  0
  9 10  2  0
 10 11  1  0
 11 12  1  0
 12 13  1  0
 13 14  1  0
 14 15  1  0
 10 16  1  0
 16 17  2  0
  5 18  1  0
 18 19  1  0
 19 20  1  0
 20 21  1  0
 21 22  1  0
 22  5  1  0
 16  6  1  0
  1 23  1  0
  1 24  1  0
  1 25  1  0
  3 26  1  0
  3 27  1  0
  4 28  1  0
  4 29  1  0
  7 30  1  0
  8 31  1  0
  9 32  1  0
 11 33  1  0
 12 34  1  0
 12 35  1  0
 13 36  1  0
 13 37  1  0
 14 38  1  0
 14 39  1  0
 18 40  1  0
 18 41  1  0
 19 42  1  0
 19 43  1  0
 21 44  1  0
 21 45  1  0
 22 46  1  0
 22 47  1  0
M  END
>  <UniqueID>  (10) 
10

>  <SMILES>  (10) 
COCCC1(n2cccc(NCCCBr)c2=O)CCOCC1

>  <Energy>  (10) 
65.03273793218621

>  <Genealogy>  (10) 
COCCC1(n2cccc(NCCCBr)c2=O)CCOCC1 (3D coordinates assigned)
COCCC1(n2cccc(NCCCBr)c2=O)CCOCC1 (nonaromatic ring conformer: 65.03273793218621 kcal/mol)

>  <smiles>  (10) 
COCCC1(n2cccc(NCCCBr)c2=O)CCOCC1

>  <score_type>  (10) 
oracle

>  <origin>  (10) 
adg

>  <m_score__min__energy>  (10) 
-7.4000000000000004

>  <m_primary>  (10) 
energy

$$$$
10:0
     RDKit          3D

 42 45  0  0  0  0  0  0  0  0999 V2000
   -4.4590   25.2930  -31.2180 O   0  0  0  0  0  0  0  0  0  0  0  0
   -4.9870   24.4580  -30.0850 S   0  0  0  0  0  0  0  0  0  0  0  0
   -6.0010   25.2720  -29.3310 O   0  0  0  0  0  0  0  0  0  0  0  0
   -3.6310   24.0270  -29.0490 C   0  0  0  0  0  0  0  0  0  0  0  0
   -2.3460   24.5310  -29.3040 C   0  0  0  0  0  0  0  0  0  0  0  0
   -1.2840   24.2020  -28.4560 C   0  0  0  0  0  0  0  0  0  0  0  0
   -1.4970   23.3640  -27.3580 C   0  0  0  0  0  0  0  0  0  0  0  0
   -2.7730   22.8520  -27.1070 C   0  0  0  0  0  0  0  0  0  0  0  0
   -3.8390   23.1830  -27.9490 C   0  0  0  0  0  0  0  0  0  0  0  0
   -5.7670   23.0190  -30.7440 C   0  0  0  0  0  0  0  0  0  0  0  0
   -7.1150   23.0430  -30.9190 N   0  0  0  0  0  0  0  0  0  0  0  0
   -7.7870   21.9810  -31.4310 C   0  0  0  0  0  0  0  0  0  0  0  0
   -9.1750   22.0340  -31.6000 C   0  0  0  0  0  0  0  0  0  0  0  0
   -9.8550   20.9330  -32.1270 C   0  0  0  0  0  0  0  0  0  0  0  0
   -9.1520   19.7780  -32.4870 C   0  0  0  0  0  0  0  0  0  0  0  0
   -7.7640   19.7190  -32.3200 C   0  0  0  0  0  0  0  0  0  0  0  0
   -7.0740   20.8200  -31.7910 C   0  0  0  0  0  0  0  0  0  0  0  0
   -5.7230   20.7890  -31.6180 N   0  0  0  0  0  0  0  0  0  0  0  0
   -5.0490   21.8570  -31.1040 C   0  0  0  0  0  0  0  0  0  0  0  0
   -3.6260   21.7770  -30.9450 N   0  0  0  0  0  0  0  0  0  0  0  0
   -2.7070   22.2330  -31.9740 C   0  0  0  0  0  0  0  0  0  0  0  0
   -1.3800   21.5420  -31.6850 C   0  0  0  0  0  0  0  0  0  0  0  0
   -1.5130   20.9380  -30.2890 C   0  0  0  0  0  0  0  0  0  0  0  0
   -3.0060   20.8560  -30.0110 C   0  0  0  0  0  0  0  0  0  0  0  0
   -2.1743   25.1852  -30.1715 H   0  0  0  0  0  0  0  0  0  0  0  0
   -0.2791   24.6035  -28.6535 H   0  0  0  0  0  0  0  0  0  0  0  0
   -0.6604   23.1074  -26.6914 H   0  0  0  0  0  0  0  0  0  0  0  0
   -2.9388   22.1878  -26.2460 H   0  0  0  0  0  0  0  0  0  0  0  0
   -4.8428   22.7805  -27.7480 H   0  0  0  0  0  0  0  0  0  0  0  0
   -9.7300   22.9410  -31.3184 H   0  0  0  0  0  0  0  0  0  0  0  0
  -10.9462   20.9744  -32.2593 H   0  0  0  0  0  0  0  0  0  0  0  0
   -9.6918   18.9142  -32.9023 H   0  0  0  0  0  0  0  0  0  0  0  0
   -7.2140   18.8095  -32.6034 H   0  0  0  0  0  0  0  0  0  0  0  0
   -5.1890   19.9270  -31.8750 H   0  0  0  0  0  0  0  0  0  0  0  0
   -3.0770   21.9495  -32.9703 H   0  0  0  0  0  0  0  0  0  0  0  0
   -2.6024   23.3280  -31.9655 H   0  0  0  0  0  0  0  0  0  0  0  0
   -1.1915   20.7518  -32.4266 H   0  0  0  0  0  0  0  0  0  0  0  0
   -0.5386   22.2485  -31.7390 H   0  0  0  0  0  0  0  0  0  0  0  0
   -1.0630   19.9346  -30.2617 H   0  0  0  0  0  0  0  0  0  0  0  0
   -0.9944   21.5473  -29.5342 H   0  0  0  0  0  0  0  0  0  0  0  0
   -3.3727   19.8327  -30.1796 H   0  0  0  0  0  0  0  0  0  0  0  0
   -3.2413   21.1132  -28.9677 H   0  0  0  0  0  0  0  0  0  0  0  0
  1  2  2  0
  2  3  2  0
  2  4  1  0
  4  5  2  0
  5  6  1  0
  6  7  2  0
  7  8  1  0
  8  9  2  0
  2 10  1  0
 10 11  2  0
 11 12  1  0
 12 13  2  0
 13 14  1  0
 14 15  2  0
 15 16  1  0
 16 17  2  0
 17 18  1  0
 18 19  2  0
 19 20  1  0
 20 21  1  0
 21 22  1  0
 22 23  1  0
 23 24  1  0
  9  4  1  0
 19 10  1  0
 24 20  1  0
 17 12  1  0
  5 25  1  0
  6 26  1  0
  7 27  1  0
  8 28  1  0
  9 29  1  0
 13 30  1  0
 14 31  1  0
 15 32  1  0
 16 33  1  0
 18 34  1  0
 21 35  1  0
 21 36  1  0
 22 37  1  0
 22 38  1  0
 23 39  1  0
 23 40  1  0
 24 41  1  0
 24 42  1  0
M  CHG  1  18   1
M  END
>  <UniqueID>  (11) 
11

>  <SMILES>  (11) 
O=S(=O)(c1ccccc1)c1nc2ccccc2[nH+]c1N1CCCC1

>  <Energy>  (11) 
54.625732216550915

>  <Genealogy>  (11) 
O=S(=O)(c1ccccc1)c1nc2ccccc2[nH+]c1N1CCCC1 (protonated)
O=S(=O)(c1ccccc1)c1nc2ccccc2[nH+]c1N1CCCC1 (3D coordinates assigned)
O=S(=O)(c1ccccc1)c1nc2ccccc2[nH+]c1N1CCCC1 (nonaromatic ring conformer: 54.625732216550915 kcal/mol)

>  <smiles>  (11) 
O=S(=O)(c1ccccc1)c1nc2ccccc2nc1N1CCCC1

>  <score_type>  (11) 
oracle

>  <origin>  (11) 
adg

>  <m_score__min__energy>  (11) 
-7.7999999999999998

>  <m_primary>  (11) 
energy

$$$$
11:0
     RDKit          3D

 34 35  0  0  0  0  0  0  0  0999 V2000
   -4.0040   26.0460  -29.5590 H   0  0  0  0  0  0  0  0  0  0  0  0
   -4.2520   25.7110  -30.5170 N   0  0  0  0  0  0  0  0  0  0  0  0
   -4.3010   24.4490  -30.8050 C   0  0  0  0  0  0  0  0  0  0  0  0
   -5.3650   23.9800  -31.5080 N   0  0  0  0  0  0  0  0  0  0  0  0
   -5.4970   22.6770  -31.8530 C   0  0  0  0  0  0  0  0  0  0  0  0
   -6.3785   22.3507  -32.4243 H   0  0  0  0  0  0  0  0  0  0  0  0
   -4.5220   21.7430  -31.4890 C   0  0  0  0  0  0  0  0  0  0  0  0
   -4.6510   20.3750  -31.9190 N   0  0  0  0  0  0  0  0  0  0  0  0
   -5.1080   19.6820  -31.2870 H   0  0  0  0  0  0  0  0  0  0  0  0
   -4.2870   19.9290  -33.2650 C   0  0  0  0  0  0  0  0  0  0  0  0
   -4.1759   20.8060  -33.9196 H   0  0  0  0  0  0  0  0  0  0  0  0
   -3.3389   19.3737  -33.2124 H   0  0  0  0  0  0  0  0  0  0  0  0
   -5.3700   19.0090  -33.8340 C   0  0  0  0  0  0  0  0  0  0  0  0
   -5.8870   19.5254  -34.6562 H   0  0  0  0  0  0  0  0  0  0  0  0
   -4.8943   18.0876  -34.2012 H   0  0  0  0  0  0  0  0  0  0  0  0
   -6.3550   18.6520  -32.7890 N   0  0  0  0  0  0  0  0  0  0  0  0
   -7.5060   19.5680  -32.8280 C   0  0  0  0  0  0  0  0  0  0  0  0
   -7.8143   19.8134  -31.8010 H   0  0  0  0  0  0  0  0  0  0  0  0
   -7.2228   20.4904  -33.3561 H   0  0  0  0  0  0  0  0  0  0  0  0
   -8.3413   19.0849  -33.3561 H   0  0  0  0  0  0  0  0  0  0  0  0
   -6.8250   17.2660  -32.9590 C   0  0  0  0  0  0  0  0  0  0  0  0
   -6.9804   16.8078  -31.9711 H   0  0  0  0  0  0  0  0  0  0  0  0
   -7.7733   17.2662  -33.5164 H   0  0  0  0  0  0  0  0  0  0  0  0
   -6.0722   16.6893  -33.5164 H   0  0  0  0  0  0  0  0  0  0  0  0
   -3.3990   22.1840  -30.7500 C   0  0  0  0  0  0  0  0  0  0  0  0
   -2.4060   21.2860  -30.3200 C   0  0  0  0  0  0  0  0  0  0  0  0
   -2.4945   20.2158  -30.5582 H   0  0  0  0  0  0  0  0  0  0  0  0
   -1.3130   21.7460  -29.5950 C   0  0  0  0  0  0  0  0  0  0  0  0
   -0.5335   21.0440  -29.2639 H   0  0  0  0  0  0  0  0  0  0  0  0
   -1.2110   23.0980  -29.2910 C   0  0  0  0  0  0  0  0  0  0  0  0
   -0.3412   23.4631  -28.7253 H   0  0  0  0  0  0  0  0  0  0  0  0
   -2.1730   23.9760  -29.6840 N   0  0  0  0  0  0  0  0  0  0  0  0
   -2.0000   25.2970  -29.3340 O   0  0  0  0  0  0  0  0  0  0  0  0
   -3.2730   23.5580  -30.4010 C   0  0  0  0  0  0  0  0  0  0  0  0
  1  2  1  0
  2  3  2  0
  3  4  1  0
  4  5  1  0
  5  6  1  0
  5  7  2  0
  7  8  1  0
  8  9  1  0
  8 10  1  0
 10 11  1  0
 10 12  1  0
 10 13  1  0
 13 14  1  0
 13 15  1  0
 13 16  1  0
 16 17  1  0
 17 18  1  0
 17 19  1  0
 17 20  1  0
 16 21  1  0
 21 22  1  0
 21 23  1  0
 21 24  1  0
  7 25  1  0
 25 26  2  0
 26 27  1  0
 26 28  1  0
 28 29  1  0
 28 30  2  0
 30 31  1  0
 30 32  1  0
 32 33  1  0
 32 34  2  0
 34  3  1  0
 34 25  1  0
M  CHG  3   4  -1  32   1  33  -1
M  END
>  <UniqueID>  (12) 
12

>  <SMILES>  (12) 
[H]/N=c1\[n-]cc(NCCN(C)C)c2ccc[n+]([O-])c12

>  <Energy>  (12) 
45.39781122115288

>  <Genealogy>  (12) 
CN(C)CCNc1c[n-]c(=N)c2c1ccc[n+]2[O-] (protonated)
[H]/N=c1\[n-]cc(NCCN(C)C)c2ccc[n+]([O-])c12 (cis-trans isomerization)
[H]/N=c1\[n-]cc(NCCN(C)C)c2ccc[n+]([O-])c12 (3D coordinates assigned)
[H]/N=c1\[n-]cc(NCCN(C)C)c2ccc[n+]([O-])c12 (optimized conformer: 45.39781122115288 kcal/mol)

>  <smiles>  (12) 
CN(C)CCNc1c[nH]c(=N)c2c1ccc[n+]2[O-]

>  <score_type>  (12) 
oracle

>  <origin>  (12) 
adg

>  <m_score__min__energy>  (12) 
-8.3000000000000007

>  <m_primary>  (12) 
energy

$$$$
12:0
     RDKit          3D

 47 49  0  0  0  0  0  0  0  0999 V2000
   -4.4293   26.7281  -30.2648 H   0  0  0  0  0  0  0  0  0  0  0  0
   -4.6450   25.6690  -30.4690 C   0  0  0  0  0  0  0  0  0  0  0  0
   -3.6420   24.7660  -30.4790 N   0  0  0  0  0  0  0  0  0  0  0  0
   -3.8470   23.4450  -30.7250 C   0  0  0  0  0  0  0  0  0  0  0  0
   -5.1690   22.9590  -30.9850 C   0  0  0  0  0  0  0  0  0  0  0  0
   -5.3080   21.5740  -31.2390 C   0  0  0  0  0  0  0  0  0  0  0  0
   -6.3078   21.1649  -31.4465 H   0  0  0  0  0  0  0  0  0  0  0  0
   -4.2110   20.7150  -31.2330 C   0  0  0  0  0  0  0  0  0  0  0  0
   -4.3577   19.6434  -31.4334 H   0  0  0  0  0  0  0  0  0  0  0  0
   -2.9310   21.1990  -30.9760 C   0  0  0  0  0  0  0  0  0  0  0  0
   -1.8290   20.3340  -30.9680 C   0  0  0  0  0  0  0  0  0  0  0  0
   -1.9691   19.2609  -31.1650 H   0  0  0  0  0  0  0  0  0  0  0  0
   -0.5550   20.8360  -30.7100 C   0  0  0  0  0  0  0  0  0  0  0  0
    0.3155   20.1635  -30.7045 H   0  0  0  0  0  0  0  0  0  0  0  0
   -0.3930   22.1970  -30.4590 C   0  0  0  0  0  0  0  0  0  0  0  0
    0.6097   22.5997  -30.2533 H   0  0  0  0  0  0  0  0  0  0  0  0
   -1.4690   23.0310  -30.4670 N   0  0  0  0  0  0  0  0  0  0  0  0
   -1.2940   24.0430  -30.2730 H   0  0  0  0  0  0  0  0  0  0  0  0
   -2.7370   22.5710  -30.7180 C   0  0  0  0  0  0  0  0  0  0  0  0
   -6.2490   23.9170  -30.9740 C   0  0  0  0  0  0  0  0  0  0  0  0
   -7.5210   23.6810  -31.1860 N   0  0  0  0  0  0  0  0  0  0  0  0
   -8.2780   22.8130  -32.0830 C   0  0  0  0  0  0  0  0  0  0  0  0
   -7.6363   22.5180  -32.9263 H   0  0  0  0  0  0  0  0  0  0  0  0
   -9.1585   23.3630  -32.4466 H   0  0  0  0  0  0  0  0  0  0  0  0
   -8.7540   21.5520  -31.3470 C   0  0  0  0  0  0  0  0  0  0  0  0
   -9.7610   21.7426  -30.9475 H   0  0  0  0  0  0  0  0  0  0  0  0
   -8.0194   21.3464  -30.5545 H   0  0  0  0  0  0  0  0  0  0  0  0
   -8.8150   20.2910  -32.2450 C   0  0  0  0  0  0  0  0  0  0  0  0
   -9.2352   20.5878  -33.2173 H   0  0  0  0  0  0  0  0  0  0  0  0
   -9.4310   19.5617  -31.6985 H   0  0  0  0  0  0  0  0  0  0  0  0
   -7.5160   19.6190  -32.4950 N   0  0  0  0  0  0  0  0  0  0  0  0
   -6.8420   20.0520  -33.7410 C   0  0  0  0  0  0  0  0  0  0  0  0
   -6.2426   20.9521  -33.5395 H   0  0  0  0  0  0  0  0  0  0  0  0
   -7.5987   20.2781  -34.5067 H   0  0  0  0  0  0  0  0  0  0  0  0
   -5.9310   18.9370  -34.2420 C   0  0  0  0  0  0  0  0  0  0  0  0
   -5.4963   18.4049  -33.3830 H   0  0  0  0  0  0  0  0  0  0  0  0
   -6.5152   18.2325  -34.8522 H   0  0  0  0  0  0  0  0  0  0  0  0
   -5.1242   19.3691  -34.8522 H   0  0  0  0  0  0  0  0  0  0  0  0
   -7.5580   18.1530  -32.3090 C   0  0  0  0  0  0  0  0  0  0  0  0
   -8.5483   17.8682  -31.9240 H   0  0  0  0  0  0  0  0  0  0  0  0
   -7.3672   17.6725  -33.2800 H   0  0  0  0  0  0  0  0  0  0  0  0
   -6.4880   17.6920  -31.3220 C   0  0  0  0  0  0  0  0  0  0  0  0
   -6.8467   17.8465  -30.2937 H   0  0  0  0  0  0  0  0  0  0  0  0
   -6.2786   16.6238  -31.4806 H   0  0  0  0  0  0  0  0  0  0  0  0
   -5.5679   18.2735  -31.4806 H   0  0  0  0  0  0  0  0  0  0  0  0
   -5.9470   25.2620  -30.7160 C   0  0  0  0  0  0  0  0  0  0  0  0
   -6.7568   26.0065  -30.7095 H   0  0  0  0  0  0  0  0  0  0  0  0
  1  2  1  0
  2  3  1  0
  3  4  1  0
  4  5  2  0
  5  6  1  0
  6  7  1  0
  6  8  2  0
  8  9  1  0
  8 10  1  0
 10 11  2  0
 11 12  1  0
 11 13  1  0
 13 14  1  0
 13 15  2  0
 15 16  1  0
 15 17  1  0
 17 18  1  0
 17 19  2  0
  5 20  1  0
 20 21  2  0
 21 22  1  0
 22 23  1  0
 22 24  1  0
 22 25  1  0
 25 26  1  0
 25 27  1  0
 25 28  1  0
 28 29  1  0
 28 30  1  0
 28 31  1  0
 31 32  1  0
 32 33  1  0
 32 34  1  0
 32 35  1  0
 35 36  1  0
 35 37  1  0
 35 38  1  0
 31 39  1  0
 39 40  1  0
 39 41  1  0
 39 42  1  0
 42 43  1  0
 42 44  1  0
 42 45  1  0
 20 46  1  0
 46 47  1  0
 46  2  2  0
 19  4  1  0
 19 10  1  0
M  CHG  2   3  -1  17   1
M  END
>  <UniqueID>  (13) 
13

>  <SMILES>  (13) 
CCN(CC)CCC/N=c1/cc[n-]c2c1ccc1ccc[nH+]c12

>  <Energy>  (13) 
75.15601550479484

>  <Genealogy>  (13) 
CCN(CC)CCCN=c1cc[n-]c2c1ccc1ccc[nH+]c12 (protonated)
CCN(CC)CCC/N=c1/cc[n-]c2c1ccc1ccc[nH+]c12 (cis-trans isomerization)
CCN(CC)CCC/N=c1/cc[n-]c2c1ccc1ccc[nH+]c12 (3D coordinates assigned)
CCN(CC)CCC/N=c1/cc[n-]c2c1ccc1ccc[nH+]c12 (optimized conformer: 75.15601550479484 kcal/mol)

>  <smiles>  (13) 
CCN(CC)CCCN=c1cc[nH]c2c1ccc1cccnc12

>  <score_type>  (13) 
oracle

>  <origin>  (13) 
adg

>  <m_score__min__energy>  (13) 
-7.6399999999999997

>  <m_primary>  (13) 
energy

$$$$
13:0
     RDKit          3D

 54 57  0  0  0  0  0  0  0  0999 V2000
   -3.2470   17.7150  -33.7250 C   0  0  0  0  0  0  0  0  0  0  0  0
   -4.6310   18.1660  -33.3630 C   0  0  0  0  0  0  0  0  0  0  0  0
   -5.1340   19.3750  -33.8660 C   0  0  0  0  0  0  0  0  0  0  0  0
   -6.4110   19.8150  -33.5010 C   0  0  0  0  0  0  0  0  0  0  0  0
   -7.1890   19.0580  -32.6150 C   0  0  0  0  0  0  0  0  0  0  0  0
   -8.8050   19.5970  -32.1710 S   0  0  0  0  0  0  0  0  0  0  0  0
   -9.8180   18.9500  -33.0750 O   0  0  0  0  0  0  0  0  0  0  0  0
   -9.1020   19.2000  -30.7510 O   0  0  0  0  0  0  0  0  0  0  0  0
   -8.8930   21.3690  -32.3320 C   0  0  0  0  0  0  0  0  0  0  0  0
   -7.8730   22.0170  -31.4550 C   0  0  0  0  0  0  0  0  0  0  0  0
   -8.0310   22.3140  -30.1150 C   0  0  0  0  0  0  0  0  0  0  0  0
   -6.8590   22.9310  -29.7290 C   0  0  0  0  0  0  0  0  0  0  0  0
   -6.0620   22.9680  -30.8590 C   0  0  0  0  0  0  0  0  0  0  0  0
   -4.7160   23.5520  -30.9620 C   0  0  0  0  0  0  0  0  0  0  0  0
   -4.6020   24.8030  -31.0660 O   0  0  0  0  0  0  0  0  0  0  0  0
   -3.5360   22.7330  -30.9210 N   0  0  0  0  0  0  0  0  0  0  0  0
   -3.3770   21.6140  -31.8620 C   0  0  0  0  0  0  0  0  0  0  0  0
   -2.7200   20.4190  -31.1590 C   0  0  0  0  0  0  0  0  0  0  0  0
   -1.6240   20.8450  -30.2730 N   0  0  0  0  0  0  0  0  0  0  0  0
   -1.0350   19.8950  -29.3640 C   0  0  0  0  0  0  0  0  0  0  0  0
   -1.5650   19.7240  -28.0720 C   0  0  0  0  0  0  0  0  0  0  0  0
   -1.0000   18.7930  -27.1940 C   0  0  0  0  0  0  0  0  0  0  0  0
    0.0920   18.0220  -27.5990 C   0  0  0  0  0  0  0  0  0  0  0  0
    0.6210   18.1800  -28.8830 C   0  0  0  0  0  0  0  0  0  0  0  0
    0.0600   19.1090  -29.7630 C   0  0  0  0  0  0  0  0  0  0  0  0
   -1.1890   22.2470  -30.2780 C   0  0  0  0  0  0  0  0  0  0  0  0
   -2.4010   23.1650  -30.0910 C   0  0  0  0  0  0  0  0  0  0  0  0
   -6.6970   22.4240  -31.8730 O   0  0  0  0  0  0  0  0  0  0  0  0
   -6.6850   17.8560  -32.1030 C   0  0  0  0  0  0  0  0  0  0  0  0
   -5.4080   17.4160  -32.4670 C   0  0  0  0  0  0  0  0  0  0  0  0
   -2.6707   17.5272  -32.8071 H   0  0  0  0  0  0  0  0  0  0  0  0
   -3.3059   16.7896  -34.3167 H   0  0  0  0  0  0  0  0  0  0  0  0
   -2.7494   18.4975  -34.3167 H   0  0  0  0  0  0  0  0  0  0  0  0
   -4.5215   19.9800  -34.5507 H   0  0  0  0  0  0  0  0  0  0  0  0
   -6.8049   20.7569  -33.9103 H   0  0  0  0  0  0  0  0  0  0  0  0
   -8.7029   21.6488  -33.3787 H   0  0  0  0  0  0  0  0  0  0  0  0
   -9.8947   21.7079  -32.0291 H   0  0  0  0  0  0  0  0  0  0  0  0
   -8.9087   22.1025  -29.4866 H   0  0  0  0  0  0  0  0  0  0  0  0
   -6.6096   23.3146  -28.7286 H   0  0  0  0  0  0  0  0  0  0  0  0
   -4.3655   21.3143  -32.2404 H   0  0  0  0  0  0  0  0  0  0  0  0
   -2.7367   21.9355  -32.6967 H   0  0  0  0  0  0  0  0  0  0  0  0
   -3.4799   19.8956  -30.5601 H   0  0  0  0  0  0  0  0  0  0  0  0
   -2.3005   19.7555  -31.9296 H   0  0  0  0  0  0  0  0  0  0  0  0
   -2.4281   20.3255  -27.7506 H   0  0  0  0  0  0  0  0  0  0  0  0
   -1.4162   18.6680  -26.1835 H   0  0  0  0  0  0  0  0  0  0  0  0
    0.5356   17.2905  -26.9075 H   0  0  0  0  0  0  0  0  0  0  0  0
    1.4806   17.5719  -29.2013 H   0  0  0  0  0  0  0  0  0  0  0  0
    0.4776   19.2260  -30.7739 H   0  0  0  0  0  0  0  0  0  0  0  0
   -0.4758   22.4114  -29.4568 H   0  0  0  0  0  0  0  0  0  0  0  0
   -0.7049   22.4745  -31.2392 H   0  0  0  0  0  0  0  0  0  0  0  0
   -2.7037   23.1468  -29.0336 H   0  0  0  0  0  0  0  0  0  0  0  0
   -2.1152   24.1818  -30.3983 H   0  0  0  0  0  0  0  0  0  0  0  0
   -7.2954   17.2558  -31.4122 H   0  0  0  0  0  0  0  0  0  0  0  0
   -5.0115   16.4788  -32.0494 H   0  0  0  0  0  0  0  0  0  0  0  0
  1  2  1  0
  2  3  2  0
  3  4  1  0
  4  5  2  0
  5  6  1  0
  6  7  2  0
  6  8  2  0
  6  9  1  0
  9 10  1  0
 10 11  2  0
 11 12  1  0
 12 13  2  0
 13 14  1  0
 14 15  2  0
 14 16  1  0
 16 17  1  0
 17 18  1  0
 18 19  1  0
 19 20  1  0
 20 21  2  0
 21 22  1  0
 22 23  2  0
 23 24  1  0
 24 25  2  0
 19 26  1  0
 26 27  1  0
 13 28  1  0
  5 29  1  0
 29 30  2  0
 30  2  1  0
 28 10  1  0
 27 16  1  0
 25 20  1  0
  1 31  1  0
  1 32  1  0
  1 33  1  0
  3 34  1  0
  4 35  1  0
  9 36  1  0
  9 37  1  0
 11 38  1  0
 12 39  1  0
 17 40  1  0
 17 41  1  0
 18 42  1  0
 18 43  1  0
 21 44  1  0
 22 45  1  0
 23 46  1  0
 24 47  1  0
 25 48  1  0
 26 49  1  0
 26 50  1  0
 27 51  1  0
 27 52  1  0
 29 53  1  0
 30 54  1  0
M  END
>  <UniqueID>  (14) 
14

>  <SMILES>  (14) 
Cc1ccc(S(=O)(=O)Cc2ccc(C(=O)N3CCN(c4ccccc4)CC3)o2)cc1

>  <Energy>  (14) 
86.1635727554546

>  <Genealogy>  (14) 
Cc1ccc(S(=O)(=O)Cc2ccc(C(=O)N3CCN(c4ccccc4)CC3)o2)cc1 (3D coordinates assigned)
Cc1ccc(S(=O)(=O)Cc2ccc(C(=O)N3CCN(c4ccccc4)CC3)o2)cc1 (nonaromatic ring conformer: 86.1635727554546 kcal/mol)

>  <smiles>  (14) 
Cc1ccc(S(=O)(=O)Cc2ccc(C(=O)N3CCN(c4ccccc4)CC3)o2)cc1

>  <score_type>  (14) 
oracle

>  <origin>  (14) 
adg

>  <m_score__min__energy>  (14) 
-10.380000000000001

>  <m_primary>  (14) 
energy

$$$$
14:0
     RDKit          3D

 67 70  0  0  0  0  0  0  0  0999 V2000
   -9.1410   20.4770  -30.6290 F   0  0  0  0  0  0  0  0  0  0  0  0
   -8.3410   19.9220  -31.5750 C   0  0  0  0  0  0  0  0  0  0  0  0
   -7.7200   20.7350  -32.5270 C   0  0  0  0  0  0  0  0  0  0  0  0
   -6.8930   20.1650  -33.4980 C   0  0  0  0  0  0  0  0  0  0  0  0
   -6.6720   18.7760  -33.5190 C   0  0  0  0  0  0  0  0  0  0  0  0
   -5.7730   18.1680  -34.5660 C   0  0  0  0  0  0  0  0  0  0  0  0
   -4.5340   17.7580  -33.9840 O   0  0  0  0  0  0  0  0  0  0  0  0
   -4.2400   16.4620  -33.5170 C   0  0  0  0  0  0  0  0  0  0  0  0
   -5.2570   15.5150  -33.2800 C   0  0  0  0  0  0  0  0  0  0  0  0
   -4.9440   14.2450  -32.7880 C   0  0  0  0  0  0  0  0  0  0  0  0
   -3.6200   13.9090  -32.5090 C   0  0  0  0  0  0  0  0  0  0  0  0
   -2.5990   14.8360  -32.7310 C   0  0  0  0  0  0  0  0  0  0  0  0
   -2.8910   16.1090  -33.2660 C   0  0  0  0  0  0  0  0  0  0  0  0
   -1.7750   17.1280  -33.4530 C   0  0  0  0  0  0  0  0  0  0  0  0
   -2.2520   18.5170  -33.5840 N   0  0  0  0  0  0  0  0  0  0  0  0
   -1.1810   19.5130  -33.3730 C   0  0  0  0  0  0  0  0  0  0  0  0
   -1.6930   20.7890  -32.6640 C   0  0  0  0  0  0  0  0  0  0  0  0
   -2.7850   21.5460  -33.4700 C   0  0  0  0  0  0  0  0  0  0  0  0
   -4.1540   21.5260  -32.7830 C   0  0  0  0  0  0  0  0  0  0  0  0
   -4.0850   22.1000  -31.4210 N   0  0  0  0  0  0  0  0  0  0  0  0
   -5.3880   21.9610  -30.7230 C   0  0  0  0  0  0  0  0  0  0  0  0
   -5.7190   23.1860  -29.8320 C   0  0  0  0  0  0  0  0  0  0  0  0
   -4.5710   23.5810  -28.8770 C   0  0  0  0  0  0  0  0  0  0  0  0
   -3.5400   24.5410  -29.5100 C   0  0  0  0  0  0  0  0  0  0  0  0
   -3.8840   24.9330  -30.8260 O   0  0  0  0  0  0  0  0  0  0  0  0
   -5.1760   25.4900  -30.8340 C   0  0  0  0  0  0  0  0  0  0  0  0
   -6.2430   24.3990  -30.6430 C   0  0  0  0  0  0  0  0  0  0  0  0
   -2.9270   21.6220  -30.6130 C   0  0  0  0  0  0  0  0  0  0  0  0
   -2.1800   20.4390  -31.2410 C   0  0  0  0  0  0  0  0  0  0  0  0
   -7.3090   17.9650  -32.5640 C   0  0  0  0  0  0  0  0  0  0  0  0
   -8.1390   18.5380  -31.5960 C   0  0  0  0  0  0  0  0  0  0  0  0
   -7.8822   21.8229  -32.5118 H   0  0  0  0  0  0  0  0  0  0  0  0
   -6.4116   20.8064  -34.2509 H   0  0  0  0  0  0  0  0  0  0  0  0
   -6.2723   17.2933  -35.0083 H   0  0  0  0  0  0  0  0  0  0  0  0
   -5.5700   18.9210  -35.3418 H   0  0  0  0  0  0  0  0  0  0  0  0
   -6.3055   15.7779  -33.4840 H   0  0  0  0  0  0  0  0  0  0  0  0
   -5.7440   13.5088  -32.6205 H   0  0  0  0  0  0  0  0  0  0  0  0
   -3.3788   12.9115  -32.1131 H   0  0  0  0  0  0  0  0  0  0  0  0
   -1.5594   14.5719  -32.4870 H   0  0  0  0  0  0  0  0  0  0  0  0
   -1.1052   17.0722  -32.5822 H   0  0  0  0  0  0  0  0  0  0  0  0
   -1.2649   16.8748  -34.3941 H   0  0  0  0  0  0  0  0  0  0  0  0
   -2.6400   18.6260  -34.5520 H   0  0  0  0  0  0  0  0  0  0  0  0
   -3.0350   18.6670  -32.9100 H   0  0  0  0  0  0  0  0  0  0  0  0
   -0.3924   19.0582  -32.7555 H   0  0  0  0  0  0  0  0  0  0  0  0
   -0.7991   19.8090  -34.3612 H   0  0  0  0  0  0  0  0  0  0  0  0
   -0.8447   21.4859  -32.5955 H   0  0  0  0  0  0  0  0  0  0  0  0
   -2.4689   22.5925  -33.5923 H   0  0  0  0  0  0  0  0  0  0  0  0
   -2.8940   21.0356  -34.4383 H   0  0  0  0  0  0  0  0  0  0  0  0
   -4.8639   22.1140  -33.3833 H   0  0  0  0  0  0  0  0  0  0  0  0
   -4.4838   20.4799  -32.7006 H   0  0  0  0  0  0  0  0  0  0  0  0
   -6.1814   21.8484  -31.4765 H   0  0  0  0  0  0  0  0  0  0  0  0
   -5.3235   21.0795  -30.0681 H   0  0  0  0  0  0  0  0  0  0  0  0
   -6.5478   22.8537  -29.1897 H   0  0  0  0  0  0  0  0  0  0  0  0
   -5.0068   24.0721  -27.9944 H   0  0  0  0  0  0  0  0  0  0  0  0
   -4.0338   22.6561  -28.6199 H   0  0  0  0  0  0  0  0  0  0  0  0
   -3.4692   25.4421  -28.8831 H   0  0  0  0  0  0  0  0  0  0  0  0
   -2.5818   24.0037  -29.5667 H   0  0  0  0  0  0  0  0  0  0  0  0
   -5.2582   26.2217  -30.0167 H   0  0  0  0  0  0  0  0  0  0  0  0
   -5.3426   25.9796  -31.8049 H   0  0  0  0  0  0  0  0  0  0  0  0
   -7.1007   24.8349  -30.1098 H   0  0  0  0  0  0  0  0  0  0  0  0
   -6.5276   24.0339  -31.6408 H   0  0  0  0  0  0  0  0  0  0  0  0
   -2.2191   22.4556  -30.4946 H   0  0  0  0  0  0  0  0  0  0  0  0
   -3.3302   21.2720  -29.6513 H   0  0  0  0  0  0  0  0  0  0  0  0
   -1.3114   20.1877  -30.6145 H   0  0  0  0  0  0  0  0  0  0  0  0
   -2.8675   19.5827  -31.3050 H   0  0  0  0  0  0  0  0  0  0  0  0
   -7.1540   16.8761  -32.5783 H   0  0  0  0  0  0  0  0  0  0  0  0
   -8.6341   17.8995  -30.8496 H   0  0  0  0  0  0  0  0  0  0  0  0
  1  2  1  0
  2  3  2  0
  3  4  1  0
  4  5  2  0
  5  6  1  0
  6  7  1  0
  7  8  1  0
  8  9  2  0
  9 10  1  0
 10 11  2  0
 11 12  1  0
 12 13  2  0
 13 14  1  0
 14 15  1  0
 15 16  1  0
 16 17  1  0
 17 18  1  0
 18 19  1  0
 19 20  1  0
 20 21  1  0
 21 22  1  0
 22 23  1  0
 23 24  1  0
 24 25  1  0
 25 26  1  0
 26 27  1  0
 20 28  1  0
 28 29  1  0
  5 30  1  0
 30 31  2  0
 31  2  1  0
 13  8  1  0
 29 17  1  0
 27 22  1  0
  3 32  1  0
  4 33  1  0
  6 34  1  0
  6 35  1  0
  9 36  1  0
 10 37  1  0
 11 38  1  0
 12 39  1  0
 14 40  1  0
 14 41  1  0
 15 42  1  0
 15 43  1  0
 16 44  1  0
 16 45  1  0
 17 46  1  0
 18 47  1  0
 18 48  1  0
 19 49  1  0
 19 50  1  0
 21 51  1  0
 21 52  1  0
 22 53  1  0
 23 54  1  0
 23 55  1  0
 24 56  1  0
 24 57  1  0
 26 58  1  0
 26 59  1  0
 27 60  1  0
 27 61  1  0
 28 62  1  0
 28 63  1  0
 29 64  1  0
 29 65  1  0
 30 66  1  0
 31 67  1  0
M  CHG  1  15   1
M  END
>  <UniqueID>  (15) 
15

>  <SMILES>  (15) 
Fc1ccc(COc2ccccc2C[NH2+]CC2CCN(CC3CCOCC3)CC2)cc1

>  <Energy>  (15) 
90.8608255487497

>  <Genealogy>  (15) 
Fc1ccc(COc2ccccc2C[NH2+]CC2CCN(CC3CCOCC3)CC2)cc1 (protonated)
Fc1ccc(COc2ccccc2C[NH2+]CC2CCN(CC3CCOCC3)CC2)cc1 (3D coordinates assigned)
Fc1ccc(COc2ccccc2C[NH2+]CC2CCN(CC3CCOCC3)CC2)cc1 (nonaromatic ring conformer: 90.8608255487497 kcal/mol)

>  <smiles>  (15) 
Fc1ccc(COc2ccccc2CNCC2CCN(CC3CCOCC3)CC2)cc1

>  <score_type>  (15) 
oracle

>  <origin>  (15) 
adg

>  <m_score__min__energy>  (15) 
-8.9700000000000006

>  <m_primary>  (15) 
energy

$$$$
15:0
     RDKit          3D

 52 56  0  0  0  0  0  0  0  0999 V2000
   -3.1430   14.2610  -33.8340 C   0  0  0  0  0  0  0  0  0  0  0  0
   -4.5760   14.7030  -33.9040 C   0  0  0  0  0  0  0  0  0  0  0  0
   -4.9000   15.9010  -33.2970 C   0  0  0  0  0  0  0  0  0  0  0  0
   -6.2140   16.3380  -33.3440 C   0  0  0  0  0  0  0  0  0  0  0  0
   -6.5320   17.6060  -32.6940 C   0  0  0  0  0  0  0  0  0  0  0  0
   -6.4460   17.6630  -31.4410 O   0  0  0  0  0  0  0  0  0  0  0  0
   -6.9280   18.7630  -33.3930 N   0  0  0  0  0  0  0  0  0  0  0  0
   -7.2150   19.9460  -32.6580 C   0  0  0  0  0  0  0  0  0  0  0  0
   -8.5210   20.4460  -32.7220 C   0  0  0  0  0  0  0  0  0  0  0  0
   -8.8980   21.5800  -32.0520 C   0  0  0  0  0  0  0  0  0  0  0  0
   -7.9290   22.2400  -31.2860 C   0  0  0  0  0  0  0  0  0  0  0  0
   -6.6280   21.7510  -31.2150 C   0  0  0  0  0  0  0  0  0  0  0  0
   -5.6760   22.5050  -30.3920 C   0  0  0  0  0  0  0  0  0  0  0  0
   -4.4160   22.0240  -30.1590 C   0  0  0  0  0  0  0  0  0  0  0  0
   -3.4780   22.7020  -29.3850 C   0  0  0  0  0  0  0  0  0  0  0  0
   -3.8440   23.9010  -28.8400 C   0  0  0  0  0  0  0  0  0  0  0  0
   -2.9330   24.7050  -28.0040 C   0  0  0  0  0  0  0  0  0  0  0  0
   -1.8580   25.3590  -28.4780 N   0  0  0  0  0  0  0  0  0  0  0  0
   -1.2420   25.9920  -27.4640 C   0  0  0  0  0  0  0  0  0  0  0  0
   -0.1080   26.8020  -27.3650 C   0  0  0  0  0  0  0  0  0  0  0  0
    0.2750   27.3180  -26.1310 C   0  0  0  0  0  0  0  0  0  0  0  0
   -0.4360   27.0530  -24.9790 C   0  0  0  0  0  0  0  0  0  0  0  0
   -1.5570   26.2470  -25.1030 C   0  0  0  0  0  0  0  0  0  0  0  0
   -1.9580   25.7230  -26.3160 C   0  0  0  0  0  0  0  0  0  0  0  0
   -3.0020   24.9230  -26.6770 N   0  0  0  0  0  0  0  0  0  0  0  0
   -5.1090   24.4010  -29.0650 C   0  0  0  0  0  0  0  0  0  0  0  0
   -6.0280   23.7180  -29.8330 C   0  0  0  0  0  0  0  0  0  0  0  0
   -6.2580   20.6050  -31.8970 C   0  0  0  0  0  0  0  0  0  0  0  0
   -7.1740   15.5820  -33.9880 C   0  0  0  0  0  0  0  0  0  0  0  0
   -6.8380   14.3870  -34.5900 C   0  0  0  0  0  0  0  0  0  0  0  0
   -5.5290   13.9230  -34.5600 C   0  0  0  0  0  0  0  0  0  0  0  0
   -5.0500   12.2840  -35.3820 Br  0  0  0  0  0  0  0  0  0  0  0  0
   -2.8392   14.1673  -32.7809 H   0  0  0  0  0  0  0  0  0  0  0  0
   -3.0346   13.2877  -34.3349 H   0  0  0  0  0  0  0  0  0  0  0  0
   -2.5052   15.0042  -34.3349 H   0  0  0  0  0  0  0  0  0  0  0  0
   -4.1293   16.4967  -32.7860 H   0  0  0  0  0  0  0  0  0  0  0  0
   -7.0080   18.7490  -34.4330 H   0  0  0  0  0  0  0  0  0  0  0  0
   -9.2672   19.9121  -33.3287 H   0  0  0  0  0  0  0  0  0  0  0  0
   -9.9285   21.9598  -32.1137 H   0  0  0  0  0  0  0  0  0  0  0  0
   -8.1987   23.1533  -30.7354 H   0  0  0  0  0  0  0  0  0  0  0  0
   -4.1317   21.0586  -30.6031 H   0  0  0  0  0  0  0  0  0  0  0  0
   -2.4737   22.2858  -29.2173 H   0  0  0  0  0  0  0  0  0  0  0  0
    0.4828   27.0321  -28.2639 H   0  0  0  0  0  0  0  0  0  0  0  0
    1.1698   27.9551  -26.0724 H   0  0  0  0  0  0  0  0  0  0  0  0
   -0.1274   27.4627  -24.0059 H   0  0  0  0  0  0  0  0  0  0  0  0
   -2.1476   26.0169  -24.2040 H   0  0  0  0  0  0  0  0  0  0  0  0
   -3.7300   24.5450  -26.0350 H   0  0  0  0  0  0  0  0  0  0  0  0
   -5.3916   25.3672  -28.6215 H   0  0  0  0  0  0  0  0  0  0  0  0
   -7.0322   24.1352  -29.9990 H   0  0  0  0  0  0  0  0  0  0  0  0
   -5.2278   20.2241  -31.8376 H   0  0  0  0  0  0  0  0  0  0  0  0
   -8.2151   15.9357  -34.0211 H   0  0  0  0  0  0  0  0  0  0  0  0
   -7.6140   13.7960  -35.0985 H   0  0  0  0  0  0  0  0  0  0  0  0
  1  2  1  0
  2  3  2  0
  3  4  1  0
  4  5  1  0
  5  6  2  0
  5  7  1  0
  7  8  1  0
  8  9  2  0
  9 10  1  0
 10 11  2  0
 11 12  1  0
 12 13  1  0
 13 14  2  0
 14 15  1  0
 15 16  2  0
 16 17  1  0
 17 18  2  0
 18 19  1  0
 19 20  2  0
 20 21  1  0
 21 22  2  0
 22 23  1  0
 23 24  2  0
 24 25  1  0
 16 26  1  0
 26 27  2  0
 12 28  2  0
  4 29  2  0
 29 30  1  0
 30 31  2  0
 31 32  1  0
 31  2  1  0
 28  8  1  0
 27 13  1  0
 25 17  1  0
 24 19  1  0
  1 33  1  0
  1 34  1  0
  1 35  1  0
  3 36  1  0
  7 37  1  0
  9 38  1  0
 10 39  1  0
 11 40  1  0
 14 41  1  0
 15 42  1  0
 20 43  1  0
 21 44  1  0
 22 45  1  0
 23 46  1  0
 25 47  1  0
 26 48  1  0
 27 49  1  0
 28 50  1  0
 29 51  1  0
 30 52  1  0
M  END
>  <smiles>  (16) 
Cc1cc(C(=O)Nc2cccc(-c3ccc(-c4nc5ccccc5[nH]4)cc3)c2)ccc1Br

>  <score_type>  (16) 
oracle

>  <origin>  (16) 
adg

>  <m_score__min__energy>  (16) 
-10.06

>  <m_primary>  (16) 
energy

$$$$
16:0
     RDKit          3D

 59 63  0  0  0  0  0  0  0  0999 V2000
   -6.1370   25.9550  -29.7450 C   0  0  0  0  0  0  0  0  0  0  0  0
   -6.6280   24.6700  -29.3660 O   0  0  0  0  0  0  0  0  0  0  0  0
   -6.6200   23.5380  -30.1990 C   0  0  0  0  0  0  0  0  0  0  0  0
   -7.7250   22.6710  -30.2850 C   0  0  0  0  0  0  0  0  0  0  0  0
   -7.7070   21.5840  -31.1610 C   0  0  0  0  0  0  0  0  0  0  0  0
   -8.7900   20.7690  -31.2280 N   0  0  0  0  0  0  0  0  0  0  0  0
   -8.8270   19.6970  -32.0570 C   0  0  0  0  0  0  0  0  0  0  0  0
   -7.7560   19.4260  -32.9050 C   0  0  0  0  0  0  0  0  0  0  0  0
   -6.6400   20.2660  -32.9090 C   0  0  0  0  0  0  0  0  0  0  0  0
   -5.6370   19.9870  -33.8530 O   0  0  0  0  0  0  0  0  0  0  0  0
   -4.3120   19.6250  -33.5640 C   0  0  0  0  0  0  0  0  0  0  0  0
   -3.3850   20.6390  -33.3310 C   0  0  0  0  0  0  0  0  0  0  0  0
   -2.0690   20.3340  -32.9750 C   0  0  0  0  0  0  0  0  0  0  0  0
   -1.6650   18.9950  -32.8360 C   0  0  0  0  0  0  0  0  0  0  0  0
   -0.3310   18.6410  -32.4370 N   0  0  0  0  0  0  0  0  0  0  0  0
    0.4620   19.3010  -31.4400 C   0  0  0  0  0  0  0  0  0  0  0  0
    1.6010   19.7400  -31.7610 O   0  0  0  0  0  0  0  0  0  0  0  0
    0.0070   19.4260  -30.0360 C   0  0  0  0  0  0  0  0  0  0  0  0
    0.2510   18.3910  -29.1260 C   0  0  0  0  0  0  0  0  0  0  0  0
   -0.2300   18.4820  -27.8220 C   0  0  0  0  0  0  0  0  0  0  0  0
   -0.9560   19.6090  -27.4320 C   0  0  0  0  0  0  0  0  0  0  0  0
   -1.1920   20.6260  -28.3160 N   0  0  0  0  0  0  0  0  0  0  0  0
   -1.9970   21.7430  -27.8880 C   0  0  0  0  0  0  0  0  0  0  0  0
   -1.3900   22.9310  -27.4420 C   0  0  0  0  0  0  0  0  0  0  0  0
   -2.1750   24.0100  -27.0420 C   0  0  0  0  0  0  0  0  0  0  0  0
   -3.5690   23.9190  -27.0860 C   0  0  0  0  0  0  0  0  0  0  0  0
   -4.3300   24.9710  -26.7140 F   0  0  0  0  0  0  0  0  0  0  0  0
   -4.1840   22.7450  -27.5290 C   0  0  0  0  0  0  0  0  0  0  0  0
   -3.4010   21.6560  -27.9230 C   0  0  0  0  0  0  0  0  0  0  0  0
   -0.7210   20.5560  -29.6050 C   0  0  0  0  0  0  0  0  0  0  0  0
   -0.9750   21.4850  -30.4260 O   0  0  0  0  0  0  0  0  0  0  0  0
   -2.5780   17.9740  -33.1250 C   0  0  0  0  0  0  0  0  0  0  0  0
   -3.8980   18.2810  -33.4630 C   0  0  0  0  0  0  0  0  0  0  0  0
   -4.7620   17.2610  -33.6830 F   0  0  0  0  0  0  0  0  0  0  0  0
   -6.5790   21.3370  -31.9800 C   0  0  0  0  0  0  0  0  0  0  0  0
   -5.4460   22.1640  -31.8330 C   0  0  0  0  0  0  0  0  0  0  0  0
   -5.4730   23.2780  -30.9680 C   0  0  0  0  0  0  0  0  0  0  0  0
   -4.3800   24.1530  -30.8450 O   0  0  0  0  0  0  0  0  0  0  0  0
   -3.0700   23.7670  -30.4330 C   0  0  0  0  0  0  0  0  0  0  0  0
   -5.9125   26.5425  -28.8426 H   0  0  0  0  0  0  0  0  0  0  0  0
   -5.2210   25.8360  -30.3423 H   0  0  0  0  0  0  0  0  0  0  0  0
   -6.8990   26.4771  -30.3423 H   0  0  0  0  0  0  0  0  0  0  0  0
   -8.6100   22.8511  -29.6571 H   0  0  0  0  0  0  0  0  0  0  0  0
   -9.7076   19.0377  -32.0599 H   0  0  0  0  0  0  0  0  0  0  0  0
   -7.7889   18.5512  -33.5711 H   0  0  0  0  0  0  0  0  0  0  0  0
   -3.6927   21.6906  -33.4284 H   0  0  0  0  0  0  0  0  0  0  0  0
   -1.3461   21.1450  -32.8028 H   0  0  0  0  0  0  0  0  0  0  0  0
    0.8227   17.5055  -29.4407 H   0  0  0  0  0  0  0  0  0  0  0  0
   -0.0391   17.6709  -27.1039 H   0  0  0  0  0  0  0  0  0  0  0  0
   -1.3418   19.6798  -26.4043 H   0  0  0  0  0  0  0  0  0  0  0  0
   -0.2932   23.0081  -27.4090 H   0  0  0  0  0  0  0  0  0  0  0  0
   -1.6965   24.9361  -26.6906 H   0  0  0  0  0  0  0  0  0  0  0  0
   -5.2813   22.6779  -27.5676 H   0  0  0  0  0  0  0  0  0  0  0  0
   -3.8842   20.7277  -28.2616 H   0  0  0  0  0  0  0  0  0  0  0  0
   -2.2539   16.9236  -33.0857 H   0  0  0  0  0  0  0  0  0  0  0  0
   -4.5306   21.9377  -32.3995 H   0  0  0  0  0  0  0  0  0  0  0  0
   -3.0206   23.7524  -29.3342 H   0  0  0  0  0  0  0  0  0  0  0  0
   -2.8435   22.7639  -30.8235 H   0  0  0  0  0  0  0  0  0  0  0  0
   -2.3358   24.4870  -30.8235 H   0  0  0  0  0  0  0  0  0  0  0  0
  1  2  1  0
  2  3  1  0
  3  4  2  0
  4  5  1  0
  5  6  2  0
  6  7  1  0
  7  8  2  0
  8  9  1  0
  9 10  1  0
 10 11  1  0
 11 12  2  0
 12 13  1  0
 13 14  2  0
 14 15  1  0
 15 16  1  0
 16 17  2  0
 16 18  1  0
 18 19  2  0
 19 20  1  0
 20 21  2  0
 21 22  1  0
 22 23  1  0
 23 24  2  0
 24 25  1  0
 25 26  2  0
 26 27  1  0
 26 28  1  0
 28 29  2  0
 22 30  1  0
 30 31  2  0
 14 32  1  0
 32 33  2  0
 33 34  1  0
  9 35  2  0
 35 36  1  0
 36 37  2  0
 37 38  1  0
 38 39  1  0
 37  3  1  0
 35  5  1  0
 33 11  1  0
 30 18  1  0
 29 23  1  0
  1 40  1  0
  1 41  1  0
  1 42  1  0
  4 43  1  0
  7 44  1  0
  8 45  1  0
 12 46  1  0
 13 47  1  0
 19 48  1  0
 20 49  1  0
 21 50  1  0
 24 51  1  0
 25 52  1  0
 28 53  1  0
 29 54  1  0
 32 55  1  0
 36 56  1  0
 39 57  1  0
 39 58  1  0
 39 59  1  0
M  CHG  1  15  -1
M  END
>  <UniqueID>  (17) 
16

>  <SMILES>  (17) 
COc1cc2nccc(Oc3ccc([N-]C(=O)c4cccn(-c5ccc(F)cc5)c4=O)cc3F)c2cc1OC

>  <Energy>  (17) 
97.22268661556534

>  <Genealogy>  (17) 
COc1cc2nccc(Oc3ccc([N-]C(=O)c4cccn(-c5ccc(F)cc5)c4=O)cc3F)c2cc1OC (protonated)
COc1cc2nccc(Oc3ccc([N-]C(=O)c4cccn(-c5ccc(F)cc5)c4=O)cc3F)c2cc1OC (3D coordinates assigned)
COc1cc2nccc(Oc3ccc([N-]C(=O)c4cccn(-c5ccc(F)cc5)c4=O)cc3F)c2cc1OC (optimized conformer: 97.22268661556534 kcal/mol)

>  <smiles>  (17) 
COc1cc2nccc(Oc3ccc(NC(=O)c4cccn(-c5ccc(F)cc5)c4=O)cc3F)c2cc1OC

>  <score_type>  (17) 
oracle

>  <origin>  (17) 
adg

>  <m_score__min__energy>  (17) 
-11.199999999999999

>  <m_primary>  (17) 
energy

$$$$
17:0
     RDKit          3D

 61 64  0  0  0  0  0  0  0  0999 V2000
   -1.6120   25.3370  -28.5910 C   0  0  0  0  0  0  0  0  0  0  0  0
   -1.3290   23.9970  -27.9690 C   0  0  0  0  0  0  0  0  0  0  0  0
   -0.2850   23.8970  -27.0360 C   0  0  0  0  0  0  0  0  0  0  0  0
   -0.0440   22.6980  -26.3680 C   0  0  0  0  0  0  0  0  0  0  0  0
   -0.8520   21.5880  -26.6050 C   0  0  0  0  0  0  0  0  0  0  0  0
   -1.9010   21.6570  -27.5340 C   0  0  0  0  0  0  0  0  0  0  0  0
   -2.7940   20.4570  -27.7070 C   0  0  0  0  0  0  0  0  0  0  0  0
   -2.1460   22.8700  -28.2210 C   0  0  0  0  0  0  0  0  0  0  0  0
   -3.2140   22.9600  -29.1780 N   0  0  0  0  0  0  0  0  0  0  0  0
   -4.4820   23.5680  -28.7650 C   0  0  0  0  0  0  0  0  0  0  0  0
   -5.5350   23.4240  -29.8590 C   0  0  0  0  0  0  0  0  0  0  0  0
   -5.4460   22.0690  -30.4450 N   0  0  0  0  0  0  0  0  0  0  0  0
   -6.6800   21.7390  -31.2260 C   0  0  2  0  0  0  0  0  0  0  0  0
   -7.9520   22.2130  -30.4900 C   0  0  0  0  0  0  0  0  0  0  0  0
   -9.2030   22.0300  -31.3660 C   0  0  0  0  0  0  0  0  0  0  0  0
   -9.0590   20.8660  -32.3620 C   0  0  0  0  0  0  0  0  0  0  0  0
   -8.2500   19.7730  -31.7860 N   0  0  1  0  0  0  0  0  0  0  0  0
   -8.2750   18.5970  -32.6930 C   0  0  0  0  0  0  0  0  0  0  0  0
   -6.8820   18.1620  -33.0900 C   0  0  0  0  0  0  0  0  0  0  0  0
   -6.2080   18.7920  -34.1490 C   0  0  0  0  0  0  0  0  0  0  0  0
   -4.9150   18.3910  -34.4990 C   0  0  0  0  0  0  0  0  0  0  0  0
   -4.2830   17.3630  -33.7930 C   0  0  0  0  0  0  0  0  0  0  0  0
   -3.0310   16.9720  -34.1370 F   0  0  0  0  0  0  0  0  0  0  0  0
   -4.9460   16.7330  -32.7360 C   0  0  0  0  0  0  0  0  0  0  0  0
   -6.2390   17.1330  -32.3830 C   0  0  0  0  0  0  0  0  0  0  0  0
   -6.8480   20.2030  -31.4970 C   0  0  0  0  0  0  0  0  0  0  0  0
   -4.2120   22.0130  -31.2740 C   0  0  0  0  0  0  0  0  0  0  0  0
   -2.9610   22.6080  -30.5780 C   0  0  0  0  0  0  0  0  0  0  0  0
   -1.7696   26.0832  -27.7983 H   0  0  0  0  0  0  0  0  0  0  0  0
   -0.7579   25.6394  -29.2148 H   0  0  0  0  0  0  0  0  0  0  0  0
   -2.5154   25.2683  -29.2148 H   0  0  0  0  0  0  0  0  0  0  0  0
    0.3483   24.7726  -26.8304 H   0  0  0  0  0  0  0  0  0  0  0  0
    0.7872   22.6277  -25.6510 H   0  0  0  0  0  0  0  0  0  0  0  0
   -0.6661   20.6509  -26.0598 H   0  0  0  0  0  0  0  0  0  0  0  0
   -3.0826   20.0692  -26.7189 H   0  0  0  0  0  0  0  0  0  0  0  0
   -3.6964   20.7488  -28.2642 H   0  0  0  0  0  0  0  0  0  0  0  0
   -2.2554   19.6764  -28.2642 H   0  0  0  0  0  0  0  0  0  0  0  0
   -4.8402   23.0696  -27.8522 H   0  0  0  0  0  0  0  0  0  0  0  0
   -4.3141   24.6387  -28.5767 H   0  0  0  0  0  0  0  0  0  0  0  0
   -6.5360   23.5733  -29.4280 H   0  0  0  0  0  0  0  0  0  0  0  0
   -5.3600   24.1770  -30.6415 H   0  0  0  0  0  0  0  0  0  0  0  0
   -6.5561   22.2637  -32.1848 H   0  0  0  0  0  0  0  0  0  0  0  0
   -8.0717   21.6269  -29.5668 H   0  0  0  0  0  0  0  0  0  0  0  0
   -7.8422   23.2829  -30.2591 H   0  0  0  0  0  0  0  0  0  0  0  0
  -10.0652   21.8308  -30.7127 H   0  0  0  0  0  0  0  0  0  0  0  0
   -9.3418   22.9530  -31.9480 H   0  0  0  0  0  0  0  0  0  0  0  0
  -10.0586   20.4805  -32.6116 H   0  0  0  0  0  0  0  0  0  0  0  0
   -8.5527   21.2382  -33.2649 H   0  0  0  0  0  0  0  0  0  0  0  0
   -8.7060   19.4900  -30.8840 H   0  0  0  0  0  0  0  0  0  0  0  0
   -8.7755   17.7626  -32.1799 H   0  0  0  0  0  0  0  0  0  0  0  0
   -8.8167   18.8824  -33.6068 H   0  0  0  0  0  0  0  0  0  0  0  0
   -6.6992   19.6040  -34.7052 H   0  0  0  0  0  0  0  0  0  0  0  0
   -4.3938   18.8856  -35.3319 H   0  0  0  0  0  0  0  0  0  0  0  0
   -4.4507   15.9223  -32.1815 H   0  0  0  0  0  0  0  0  0  0  0  0
   -6.7552   16.6387  -31.5468 H   0  0  0  0  0  0  0  0  0  0  0  0
   -6.4978   19.6573  -30.6084 H   0  0  0  0  0  0  0  0  0  0  0  0
   -6.2604   19.9790  -32.3995 H   0  0  0  0  0  0  0  0  0  0  0  0
   -4.0054   20.9603  -31.5171 H   0  0  0  0  0  0  0  0  0  0  0  0
   -4.4004   22.6237  -32.1693 H   0  0  0  0  0  0  0  0  0  0  0  0
   -2.1501   21.8657  -30.6145 H   0  0  0  0  0  0  0  0  0  0  0  0
   -2.6878   23.5305  -31.1113 H   0  0  0  0  0  0  0  0  0  0  0  0
  1  2  1  0
  2  3  2  0
  3  4  1  0
  4  5  2  0
  5  6  1  0
  6  7  1  0
  6  8  2  0
  8  9  1  0
  9 10  1  0
 10 11  1  0
 11 12  1  0
 12 13  1  0
 13 14  1  0
 14 15  1  0
 15 16  1  0
 16 17  1  0
 17 18  1  0
 18 19  1  0
 19 20  2  0
 20 21  1  0
 21 22  2  0
 22 23  1  0
 22 24  1  0
 24 25  2  0
 17 26  1  0
 12 27  1  0
 27 28  1  0
  8  2  1  0
 28  9  1  0
 26 13  1  0
 25 19  1  0
  1 29  1  0
  1 30  1  0
  1 31  1  0
  3 32  1  0
  4 33  1  0
  5 34  1  0
  7 35  1  0
  7 36  1  0
  7 37  1  0
 10 38  1  0
 10 39  1  0
 11 40  1  0
 11 41  1  0
 13 42  1  6
 14 43  1  0
 14 44  1  0
 15 45  1  0
 15 46  1  0
 16 47  1  0
 16 48  1  0
 17 49  1  1
 18 50  1  0
 18 51  1  0
 20 52  1  0
 21 53  1  0
 24 54  1  0
 25 55  1  0
 26 56  1  0
 26 57  1  0
 27 58  1  0
 27 59  1  0
 28 60  1  0
 28 61  1  0
M  CHG  1  17   1
M  END
>  <UniqueID>  (18) 
17

>  <SMILES>  (18) 
Cc1cccc(C)c1N1CCN([C@@H]2CCC[N@@H+](Cc3ccc(F)cc3)C2)CC1

>  <Energy>  (18) 
88.41453589577156

>  <Genealogy>  (18) 
Cc1cccc(C)c1N1CCN(C2CCC[NH+](Cc3ccc(F)cc3)C2)CC1 (protonated)
Cc1cccc(C)c1N1CCN([C@@H]2CCC[N@@H+](Cc3ccc(F)cc3)C2)CC1 (chirality)
Cc1cccc(C)c1N1CCN([C@@H]2CCC[N@@H+](Cc3ccc(F)cc3)C2)CC1 (3D coordinates assigned)
Cc1cccc(C)c1N1CCN([C@@H]2CCC[N@@H+](Cc3ccc(F)cc3)C2)CC1 (nonaromatic ring conformer: 88.41453589577156 kcal/mol)

>  <smiles>  (18) 
Cc1cccc(C)c1N1CCN(C2CCCN(Cc3ccc(F)cc3)C2)CC1

>  <score_type>  (18) 
oracle

>  <origin>  (18) 
adg

>  <m_score__min__energy>  (18) 
-7.8799999999999999

>  <m_primary>  (18) 
energy

$$$$
18:0
     RDKit          3D

 53 56  0  0  0  0  0  0  0  0999 V2000
   -6.4190   25.6470  -29.6520 C   0  0  0  0  0  0  0  0  0  0  0  0
   -5.5970   24.5510  -30.2640 C   0  0  0  0  0  0  0  0  0  0  0  0
   -5.8500   24.1250  -31.5750 C   0  0  0  0  0  0  0  0  0  0  0  0
   -5.1090   23.0780  -32.1330 C   0  0  0  0  0  0  0  0  0  0  0  0
   -4.1120   22.4340  -31.3800 C   0  0  0  0  0  0  0  0  0  0  0  0
   -3.3260   21.3270  -31.9630 C   0  0  0  0  0  0  0  0  0  0  0  0
   -3.6890   20.0270  -31.8870 N   0  0  0  0  0  0  0  0  0  0  0  0
   -2.7020   19.3890  -32.5460 C   0  0  0  0  0  0  0  0  0  0  0  0
   -2.6450   17.8990  -32.7180 C   0  0  0  0  0  0  0  0  0  0  0  0
   -2.8890   17.5170  -34.1280 N   0  0  0  0  0  0  0  0  0  0  0  0
   -3.3790   16.1280  -34.2790 C   0  0  0  0  0  0  0  0  0  0  0  0
   -4.7860   15.9460  -33.6850 C   0  0  0  0  0  0  0  0  0  0  0  0
   -5.5990   17.1470  -33.8910 N   0  0  0  0  0  0  0  0  0  0  0  0
   -6.8840   17.2420  -33.2500 C   0  0  0  0  0  0  0  0  0  0  0  0
   -7.5780   16.2000  -33.1000 O   0  0  0  0  0  0  0  0  0  0  0  0
   -7.3990   18.5340  -32.7380 C   0  0  0  0  0  0  0  0  0  0  0  0
   -6.6800   19.7270  -32.9390 C   0  0  0  0  0  0  0  0  0  0  0  0
   -7.1660   20.9390  -32.4410 C   0  0  0  0  0  0  0  0  0  0  0  0
   -8.3680   20.9740  -31.7300 C   0  0  0  0  0  0  0  0  0  0  0  0
   -9.0840   19.7930  -31.5120 C   0  0  0  0  0  0  0  0  0  0  0  0
   -8.6010   18.5780  -32.0090 C   0  0  0  0  0  0  0  0  0  0  0  0
   -5.2260   18.0720  -34.9650 C   0  0  0  0  0  0  0  0  0  0  0  0
   -3.7500   18.5010  -34.8360 C   0  0  0  0  0  0  0  0  0  0  0  0
   -1.7790   20.3150  -32.9820 C   0  0  0  0  0  0  0  0  0  0  0  0
   -0.5230   20.0600  -33.7480 C   0  0  0  0  0  0  0  0  0  0  0  0
   -2.1930   21.5010  -32.6120 O   0  0  0  0  0  0  0  0  0  0  0  0
   -3.8730   22.8510  -30.0610 C   0  0  0  0  0  0  0  0  0  0  0  0
   -4.6150   23.8980  -29.5050 C   0  0  0  0  0  0  0  0  0  0  0  0
   -6.3661   25.5764  -28.5555 H   0  0  0  0  0  0  0  0  0  0  0  0
   -6.0283   26.6229  -29.9759 H   0  0  0  0  0  0  0  0  0  0  0  0
   -7.4653   25.5451  -29.9759 H   0  0  0  0  0  0  0  0  0  0  0  0
   -6.6352   24.6165  -32.1682 H   0  0  0  0  0  0  0  0  0  0  0  0
   -5.3075   22.7570  -33.1662 H   0  0  0  0  0  0  0  0  0  0  0  0
   -1.6504   17.5399  -32.4151 H   0  0  0  0  0  0  0  0  0  0  0  0
   -3.4266   17.4441  -32.0917 H   0  0  0  0  0  0  0  0  0  0  0  0
   -3.4101   15.8767  -35.3495 H   0  0  0  0  0  0  0  0  0  0  0  0
   -2.6916   15.4640  -33.7344 H   0  0  0  0  0  0  0  0  0  0  0  0
   -5.2758   15.0911  -34.1742 H   0  0  0  0  0  0  0  0  0  0  0  0
   -4.6909   15.7668  -32.6039 H   0  0  0  0  0  0  0  0  0  0  0  0
   -5.7292   19.7054  -33.4917 H   0  0  0  0  0  0  0  0  0  0  0  0
   -6.6008   21.8675  -32.6093 H   0  0  0  0  0  0  0  0  0  0  0  0
   -8.7507   21.9296  -31.3421 H   0  0  0  0  0  0  0  0  0  0  0  0
  -10.0285   19.8194  -30.9488 H   0  0  0  0  0  0  0  0  0  0  0  0
   -9.1649   17.6509  -31.8285 H   0  0  0  0  0  0  0  0  0  0  0  0
   -5.3728   17.5749  -35.9352 H   0  0  0  0  0  0  0  0  0  0  0  0
   -5.8595   18.9683  -34.8919 H   0  0  0  0  0  0  0  0  0  0  0  0
   -3.3442   18.6495  -35.8476 H   0  0  0  0  0  0  0  0  0  0  0  0
   -3.7398   19.4212  -34.2334 H   0  0  0  0  0  0  0  0  0  0  0  0
    0.3069   19.8915  -33.0459 H   0  0  0  0  0  0  0  0  0  0  0  0
   -0.6540   19.1701  -34.3812 H   0  0  0  0  0  0  0  0  0  0  0  0
   -0.2966   20.9305  -34.3812 H   0  0  0  0  0  0  0  0  0  0  0  0
   -3.0978   22.3514  -29.4614 H   0  0  0  0  0  0  0  0  0  0  0  0
   -4.4274   24.2109  -28.4672 H   0  0  0  0  0  0  0  0  0  0  0  0
  1  2  1  0
  2  3  2  0
  3  4  1  0
  4  5  2  0
  5  6  1  0
  6  7  2  0
  7  8  1  0
  8  9  1  0
  9 10  1  0
 10 11  1  0
 11 12  1  0
 12 13  1  0
 13 14  1  0
 14 15  2  0
 14 16  1  0
 16 17  2  0
 17 18  1  0
 18 19  2  0
 19 20  1  0
 20 21  2  0
 13 22  1  0
 22 23  1  0
  8 24  2  0
 24 25  1  0
 24 26  1  0
  5 27  1  0
 27 28  2  0
 28  2  1  0
 26  6  1  0
 23 10  1  0
 21 16  1  0
  1 29  1  0
  1 30  1  0
  1 31  1  0
  3 32  1  0
  4 33  1  0
  9 34  1  0
  9 35  1  0
 11 36  1  0
 11 37  1  0
 12 38  1  0
 12 39  1  0
 17 40  1  0
 18 41  1  0
 19 42  1  0
 20 43  1  0
 21 44  1  0
 22 45  1  0
 22 46  1  0
 23 47  1  0
 23 48  1  0
 25 49  1  0
 25 50  1  0
 25 51  1  0
 27 52  1  0
 28 53  1  0
M  END
>  <UniqueID>  (19) 
18

>  <SMILES>  (19) 
Cc1ccc(-c2nc(CN3CCN(C(=O)c4ccccc4)CC3)c(C)o2)cc1

>  <Energy>  (19) 
96.06003269741248

>  <Genealogy>  (19) 
Cc1ccc(-c2nc(CN3CCN(C(=O)c4ccccc4)CC3)c(C)o2)cc1 (3D coordinates assigned)
Cc1ccc(-c2nc(CN3CCN(C(=O)c4ccccc4)CC3)c(C)o2)cc1 (nonaromatic ring conformer: 96.06003269741248 kcal/mol)

>  <smiles>  (19) 
Cc1ccc(-c2nc(CN3CCN(C(=O)c4ccccc4)CC3)c(C)o2)cc1

>  <score_type>  (19) 
oracle

>  <origin>  (19) 
adg

>  <m_score__min__energy>  (19) 
-8.5600000000000005

>  <m_primary>  (19) 
energy

$$$$
19:0
     RDKit          3D

 66 68  0  0  0  0  0  0  0  0999 V2000
   -3.8160   25.2030  -26.3320 C   0  0  0  0  0  0  0  0  0  0  0  0
   -4.2260   24.0060  -27.1870 C   0  0  0  0  0  0  0  0  0  0  0  0
   -3.8480   24.1870  -28.6640 C   0  0  0  0  0  0  0  0  0  0  0  0
   -3.5960   22.8920  -29.3120 N   0  0  0  0  0  0  0  0  0  0  0  0
   -2.5790   22.0120  -29.0920 C   0  0  0  0  0  0  0  0  0  0  0  0
   -1.4290   22.2450  -28.1570 C   0  0  0  0  0  0  0  0  0  0  0  0
   -0.2350   22.8550  -28.8990 C   0  0  0  0  0  0  0  0  0  0  0  0
   -0.4620   24.2690  -29.1930 N   0  0  0  0  0  0  0  0  0  0  0  0
   -0.7710   25.3200  -28.2620 C   0  0  0  0  0  0  0  0  0  0  0  0
   -1.5950   26.2060  -28.6180 O   0  0  0  0  0  0  0  0  0  0  0  0
   -0.0750   25.4540  -26.9200 C   0  0  0  0  0  0  0  0  0  0  0  0
   -0.0650   26.9400  -26.4680 C   0  0  0  0  0  0  0  0  0  0  0  0
   -1.2180   27.2570  -25.5090 C   0  0  0  0  0  0  0  0  0  0  0  0
   -1.1350   26.4090  -24.2200 C   0  0  0  0  0  0  0  0  0  0  0  0
   -0.4730   25.0320  -24.4350 C   0  0  0  0  0  0  0  0  0  0  0  0
   -0.7110   24.5100  -25.8580 C   0  0  0  0  0  0  0  0  0  0  0  0
   -2.6640   20.8910  -29.8580 N   0  0  0  0  0  0  0  0  0  0  0  0
   -3.7890   21.0900  -30.5670 C   0  0  0  0  0  0  0  0  0  0  0  0
   -4.3540   20.2360  -31.5110 C   0  0  0  0  0  0  0  0  0  0  0  0
   -5.5440   20.6510  -32.1470 C   0  0  0  0  0  0  0  0  0  0  0  0
   -6.3190   19.6020  -33.3340 S   0  0  0  0  0  0  0  0  0  0  0  0
   -7.2400   20.4370  -34.1790 O   0  0  0  0  0  0  0  0  0  0  0  0
   -5.2600   19.0400  -34.2440 O   0  0  0  0  0  0  0  0  0  0  0  0
   -7.2030   18.2740  -32.6050 N   0  0  0  0  0  0  0  0  0  0  0  0
   -6.4400   17.6300  -31.5100 C   0  0  0  0  0  0  0  0  0  0  0  0
   -5.4280   16.5660  -31.9660 C   0  0  0  0  0  0  0  0  0  0  0  0
   -8.5970   18.6190  -32.2540 C   0  0  0  0  0  0  0  0  0  0  0  0
   -8.6380   19.8470  -31.3470 C   0  0  0  0  0  0  0  0  0  0  0  0
   -6.1230   21.9030  -31.8190 C   0  0  0  0  0  0  0  0  0  0  0  0
   -5.5210   22.7410  -30.8630 C   0  0  0  0  0  0  0  0  0  0  0  0
   -4.3500   22.2910  -30.2490 C   0  0  0  0  0  0  0  0  0  0  0  0
   -3.9057   24.9411  -25.2674 H   0  0  0  0  0  0  0  0  0  0  0  0
   -2.7738   25.4740  -26.5564 H   0  0  0  0  0  0  0  0  0  0  0  0
   -4.4732   26.0561  -26.5564 H   0  0  0  0  0  0  0  0  0  0  0  0
   -3.7232   23.1070  -26.8010 H   0  0  0  0  0  0  0  0  0  0  0  0
   -5.3204   23.9109  -27.1294 H   0  0  0  0  0  0  0  0  0  0  0  0
   -4.6728   24.6945  -29.1856 H   0  0  0  0  0  0  0  0  0  0  0  0
   -2.9276   24.7871  -28.7164 H   0  0  0  0  0  0  0  0  0  0  0  0
   -1.7470   22.9328  -27.3596 H   0  0  0  0  0  0  0  0  0  0  0  0
   -1.1213   21.2786  -27.7311 H   0  0  0  0  0  0  0  0  0  0  0  0
    0.6641   22.7585  -28.2727 H   0  0  0  0  0  0  0  0  0  0  0  0
   -0.1044   22.3179  -29.8501 H   0  0  0  0  0  0  0  0  0  0  0  0
    0.9722   25.1352  -27.0282 H   0  0  0  0  0  0  0  0  0  0  0  0
    0.8876   27.1500  -25.9596 H   0  0  0  0  0  0  0  0  0  0  0  0
   -0.1856   27.5679  -27.3631 H   0  0  0  0  0  0  0  0  0  0  0  0
   -1.1750   28.3224  -25.2388 H   0  0  0  0  0  0  0  0  0  0  0  0
   -2.1639   27.0186  -26.0174 H   0  0  0  0  0  0  0  0  0  0  0  0
   -0.5488   26.9652  -23.4737 H   0  0  0  0  0  0  0  0  0  0  0  0
   -2.1664   26.2251  -23.8849 H   0  0  0  0  0  0  0  0  0  0  0  0
    0.6097   25.1254  -24.2649 H   0  0  0  0  0  0  0  0  0  0  0  0
   -0.9205   24.3194  -23.7265 H   0  0  0  0  0  0  0  0  0  0  0  0
   -0.2623   23.5101  -25.9527 H   0  0  0  0  0  0  0  0  0  0  0  0
   -1.7957   24.4680  -26.0357 H   0  0  0  0  0  0  0  0  0  0  0  0
   -3.8881   19.2694  -31.7532 H   0  0  0  0  0  0  0  0  0  0  0  0
   -5.8908   18.4144  -30.9687 H   0  0  0  0  0  0  0  0  0  0  0  0
   -7.1786   17.1062  -30.8854 H   0  0  0  0  0  0  0  0  0  0  0  0
   -4.9747   16.0894  -31.0843 H   0  0  0  0  0  0  0  0  0  0  0  0
   -5.9434   15.8047  -32.5700 H   0  0  0  0  0  0  0  0  0  0  0  0
   -4.6419   17.0427  -32.5700 H   0  0  0  0  0  0  0  0  0  0  0  0
   -9.1591   18.8318  -33.1753 H   0  0  0  0  0  0  0  0  0  0  0  0
   -9.0473   17.7697  -31.7193 H   0  0  0  0  0  0  0  0  0  0  0  0
   -8.6273   19.5262  -30.2949 H   0  0  0  0  0  0  0  0  0  0  0  0
   -7.7605   20.4796  -31.5464 H   0  0  0  0  0  0  0  0  0  0  0  0
   -9.5558   20.4197  -31.5464 H   0  0  0  0  0  0  0  0  0  0  0  0
   -7.0509   22.2217  -32.3164 H   0  0  0  0  0  0  0  0  0  0  0  0
   -5.9577   23.7177  -30.6076 H   0  0  0  0  0  0  0  0  0  0  0  0
  1  2  1  0
  2  3  1  0
  3  4  1  0
  4  5  1  0
  5  6  1  0
  6  7  1  0
  7  8  1  0
  8  9  1  0
  9 10  2  0
  9 11  1  0
 11 12  1  0
 12 13  1  0
 13 14  1  0
 14 15  1  0
 15 16  1  0
  5 17  2  0
 17 18  1  0
 18 19  2  0
 19 20  1  0
 20 21  1  0
 21 22  2  0
 21 23  2  0
 21 24  1  0
 24 25  1  0
 25 26  1  0
 24 27  1  0
 27 28  1  0
 20 29  2  0
 29 30  1  0
 30 31  2  0
 31  4  1  0
 16 11  1  0
 31 18  1  0
  1 32  1  0
  1 33  1  0
  1 34  1  0
  2 35  1  0
  2 36  1  0
  3 37  1  0
  3 38  1  0
  6 39  1  0
  6 40  1  0
  7 41  1  0
  7 42  1  0
 11 43  1  0
 12 44  1  0
 12 45  1  0
 13 46  1  0
 13 47  1  0
 14 48  1  0
 14 49  1  0
 15 50  1  0
 15 51  1  0
 16 52  1  0
 16 53  1  0
 19 54  1  0
 25 55  1  0
 25 56  1  0
 26 57  1  0
 26 58  1  0
 26 59  1  0
 27 60  1  0
 27 61  1  0
 28 62  1  0
 28 63  1  0
 28 64  1  0
 29 65  1  0
 30 66  1  0
M  CHG  1   8  -1
M  END
>  <UniqueID>  (20) 
19

>  <SMILES>  (20) 
CCCn1c(CC[N-]C(=O)C2CCCCC2)nc2cc(S(=O)(=O)N(CC)CC)ccc21

>  <Energy>  (20) 
97.79632244477263

>  <Genealogy>  (20) 
CCCn1c(CC[N-]C(=O)C2CCCCC2)nc2cc(S(=O)(=O)N(CC)CC)ccc21 (protonated)
CCCn1c(CC[N-]C(=O)C2CCCCC2)nc2cc(S(=O)(=O)N(CC)CC)ccc21 (3D coordinates assigned)
CCCn1c(CC[N-]C(=O)C2CCCCC2)nc2cc(S(=O)(=O)N(CC)CC)ccc21 (nonaromatic ring conformer: 97.79632244477263 kcal/mol)

>  <smiles>  (20) 
CCCn1c(CCNC(=O)C2CCCCC2)nc2cc(S(=O)(=O)N(CC)CC)ccc21

>  <score_type>  (20) 
oracle

>  <origin>  (20) 
adg

>  <m_score__min__energy>  (20) 
-10.890000000000001

>  <m_primary>  (20) 
energy

$$$$
20:0
     RDKit          3D

 37 37  0  0  0  0  0  0  0  0999 V2000
   -7.2380   17.8420  -31.9620 C   0  0  0  0  0  0  0  0  0  0  0  0
   -8.3980   18.8120  -32.2150 C   0  0  0  0  0  0  0  0  0  0  0  0
   -7.9790   20.0290  -32.9600 N   0  0  0  0  0  0  0  0  0  0  0  0
   -8.3210   21.3210  -32.3010 C   0  0  0  0  0  0  0  0  0  0  0  0
   -9.1070   21.2060  -30.9860 C   0  0  0  0  0  0  0  0  0  0  0  0
   -6.5630   19.9570  -33.4050 C   0  0  0  0  0  0  0  0  0  0  0  0
   -5.6820   20.9290  -32.7340 C   0  0  0  0  0  0  0  0  0  0  0  0
   -4.9580   21.7240  -32.1910 C   0  0  0  0  0  0  0  0  0  0  0  0
   -4.0610   22.6820  -31.5360 C   0  0  0  0  0  0  0  0  0  0  0  0
   -4.7880   23.9240  -31.2180 N   0  0  0  0  0  0  0  0  0  0  0  0
   -4.5480   24.3470  -29.8380 C   0  0  0  0  0  0  0  0  0  0  0  0
   -5.7480   25.1810  -29.4210 C   0  0  0  0  0  0  0  0  0  0  0  0
   -6.8620   24.7870  -30.3760 C   0  0  0  0  0  0  0  0  0  0  0  0
   -6.2440   23.7700  -31.3230 C   0  0  0  0  0  0  0  0  0  0  0  0
   -7.0919   17.7198  -30.8786 H   0  0  0  0  0  0  0  0  0  0  0  0
   -7.4711   16.8661  -32.4129 H   0  0  0  0  0  0  0  0  0  0  0  0
   -6.3188   18.2441  -32.4129 H   0  0  0  0  0  0  0  0  0  0  0  0
   -9.1709   18.2910  -32.7991 H   0  0  0  0  0  0  0  0  0  0  0  0
   -8.7774   19.1375  -31.2352 H   0  0  0  0  0  0  0  0  0  0  0  0
   -8.5320   20.0260  -33.8500 H   0  0  0  0  0  0  0  0  0  0  0  0
   -7.3814   21.8521  -32.0887 H   0  0  0  0  0  0  0  0  0  0  0  0
   -8.9821   21.8515  -33.0021 H   0  0  0  0  0  0  0  0  0  0  0  0
   -8.4162   21.3071  -30.1359 H   0  0  0  0  0  0  0  0  0  0  0  0
   -9.8638   22.0030  -30.9403 H   0  0  0  0  0  0  0  0  0  0  0  0
   -9.6037   20.2256  -30.9403 H   0  0  0  0  0  0  0  0  0  0  0  0
   -6.1849   18.9449  -33.1983 H   0  0  0  0  0  0  0  0  0  0  0  0
   -6.5502   20.1983  -34.4781 H   0  0  0  0  0  0  0  0  0  0  0  0
   -3.6732   22.2398  -30.6065 H   0  0  0  0  0  0  0  0  0  0  0  0
   -3.2286   22.9171  -32.2156 H   0  0  0  0  0  0  0  0  0  0  0  0
   -4.4515   23.4681  -29.1836 H   0  0  0  0  0  0  0  0  0  0  0  0
   -3.6167   24.9270  -29.7586 H   0  0  0  0  0  0  0  0  0  0  0  0
   -6.0325   24.9545  -28.3829 H   0  0  0  0  0  0  0  0  0  0  0  0
   -5.5330   26.2589  -29.4644 H   0  0  0  0  0  0  0  0  0  0  0  0
   -7.7009   24.3382  -29.8239 H   0  0  0  0  0  0  0  0  0  0  0  0
   -7.2632   25.6570  -30.9165 H   0  0  0  0  0  0  0  0  0  0  0  0
   -6.5393   22.7516  -31.0304 H   0  0  0  0  0  0  0  0  0  0  0  0
   -6.5851   23.9337  -32.3559 H   0  0  0  0  0  0  0  0  0  0  0  0
  1  2  1  0
  2  3  1  0
  3  4  1  0
  4  5  1  0
  3  6  1  0
  6  7  1  0
  7  8  3  0
  8  9  1  0
  9 10  1  0
 10 11  1  0
 11 12  1  0
 12 13  1  0
 13 14  1  0
 14 10  1  0
  1 15  1  0
  1 16  1  0
  1 17  1  0
  2 18  1  0
  2 19  1  0
  3 20  1  0
  4 21  1  0
  4 22  1  0
  5 23  1  0
  5 24  1  0
  5 25  1  0
  6 26  1  0
  6 27  1  0
  9 28  1  0
  9 29  1  0
 11 30  1  0
 11 31  1  0
 12 32  1  0
 12 33  1  0
 13 34  1  0
 13 35  1  0
 14 36  1  0
 14 37  1  0
M  CHG  1   3   1
M  END
>  <UniqueID>  (21) 
20

>  <SMILES>  (21) 
CC[NH+](CC)CC#CCN1CCCC1

>  <Energy>  (21) 
34.965500887373224

>  <Genealogy>  (21) 
CC[NH+](CC)CC#CCN1CCCC1 (protonated)
CC[NH+](CC)CC#CCN1CCCC1 (3D coordinates assigned)
CC[NH+](CC)CC#CCN1CCCC1 (nonaromatic ring conformer: 34.965500887373224 kcal/mol)

>  <smiles>  (21) 
CCN(CC)CC#CCN1CCCC1

>  <score_type>  (21) 
oracle

>  <origin>  (21) 
adg

>  <m_score__min__energy>  (21) 
-5

>  <m_primary>  (21) 
energy

$$$$
21:0
     RDKit          3D

 33 34  0  0  0  0  0  0  0  0999 V2000
   -2.3000   21.1780  -28.2420 C   0  0  0  0  0  0  0  0  0  0  0  0
   -2.9640   22.1670  -29.0880 N   0  0  0  0  0  0  0  0  0  0  0  0
   -3.8740   21.8560  -30.1370 C   0  0  0  0  0  0  0  0  0  0  0  0
   -4.1870   20.6800  -30.4610 O   0  0  0  0  0  0  0  0  0  0  0  0
   -4.3760   23.0100  -30.7920 N   0  0  0  0  0  0  0  0  0  0  0  0
   -4.9910   23.0490  -32.1170 C   0  0  0  0  0  0  0  0  0  0  0  0
   -6.2800   22.2710  -32.1130 C   0  0  0  0  0  0  0  0  0  0  0  0
   -6.3370   20.9930  -32.6940 C   0  0  0  0  0  0  0  0  0  0  0  0
   -7.5450   20.2900  -32.7300 C   0  0  0  0  0  0  0  0  0  0  0  0
   -8.7040   20.8600  -32.1960 C   0  0  0  0  0  0  0  0  0  0  0  0
   -8.6560   22.1350  -31.6260 C   0  0  0  0  0  0  0  0  0  0  0  0
   -7.4510   22.8420  -31.5880 C   0  0  0  0  0  0  0  0  0  0  0  0
   -3.7100   24.0900  -30.1440 C   0  0  0  0  0  0  0  0  0  0  0  0
   -3.8650   25.2950  -30.4810 O   0  0  0  0  0  0  0  0  0  0  0  0
   -2.8000   23.6260  -29.0350 C   0  0  0  0  0  0  0  0  0  0  0  0
   -1.3470   24.0230  -29.3340 C   0  0  0  0  0  0  0  0  0  0  0  0
   -3.2730   24.1790  -27.6830 C   0  0  0  0  0  0  0  0  0  0  0  0
   -2.4681   21.4284  -27.1841 H   0  0  0  0  0  0  0  0  0  0  0  0
   -2.7117   20.1799  -28.4525 H   0  0  0  0  0  0  0  0  0  0  0  0
   -1.2203   21.1812  -28.4525 H   0  0  0  0  0  0  0  0  0  0  0  0
   -5.1978   24.0940  -32.3914 H   0  0  0  0  0  0  0  0  0  0  0  0
   -4.3017   22.5994  -32.8469 H   0  0  0  0  0  0  0  0  0  0  0  0
   -5.4284   20.5442  -33.1219 H   0  0  0  0  0  0  0  0  0  0  0  0
   -7.5833   19.2867  -33.1793 H   0  0  0  0  0  0  0  0  0  0  0  0
   -9.6535   20.3053  -32.2244 H   0  0  0  0  0  0  0  0  0  0  0  0
   -9.5687   22.5832  -31.2063 H   0  0  0  0  0  0  0  0  0  0  0  0
   -7.4196   23.8486  -31.1456 H   0  0  0  0  0  0  0  0  0  0  0  0
   -0.8053   24.1710  -28.3881 H   0  0  0  0  0  0  0  0  0  0  0  0
   -0.8607   23.2248  -29.9140 H   0  0  0  0  0  0  0  0  0  0  0  0
   -1.3342   24.9576  -29.9140 H   0  0  0  0  0  0  0  0  0  0  0  0
   -2.7924   23.6171  -26.8686 H   0  0  0  0  0  0  0  0  0  0  0  0
   -3.0002   25.2418  -27.6059 H   0  0  0  0  0  0  0  0  0  0  0  0
   -4.3653   24.0743  -27.6059 H   0  0  0  0  0  0  0  0  0  0  0  0
  1  2  1  0
  2  3  1  0
  3  4  2  0
  3  5  1  0
  5  6  1  0
  6  7  1  0
  7  8  2  0
  8  9  1  0
  9 10  2  0
 10 11  1  0
 11 12  2  0
  5 13  1  0
 13 14  2  0
 13 15  1  0
 15 16  1  0
 15 17  1  0
 15  2  1  0
 12  7  1  0
  1 18  1  0
  1 19  1  0
  1 20  1  0
  6 21  1  0
  6 22  1  0
  8 23  1  0
  9 24  1  0
 10 25  1  0
 11 26  1  0
 12 27  1  0
 16 28  1  0
 16 29  1  0
 16 30  1  0
 17 31  1  0
 17 32  1  0
 17 33  1  0
M  END
>  <UniqueID>  (22) 
21

>  <SMILES>  (22) 
CN1C(=O)N(Cc2ccccc2)C(=O)C1(C)C

>  <Energy>  (22) 
43.90197926860888

>  <Genealogy>  (22) 
CN1C(=O)N(Cc2ccccc2)C(=O)C1(C)C (3D coordinates assigned)
CN1C(=O)N(Cc2ccccc2)C(=O)C1(C)C (nonaromatic ring conformer: 43.90197926860888 kcal/mol)

>  <smiles>  (22) 
CN1C(=O)N(Cc2ccccc2)C(=O)C1(C)C

>  <score_type>  (22) 
oracle

>  <origin>  (22) 
adg

>  <m_score__min__energy>  (22) 
-6.4699999999999998

>  <m_primary>  (22) 
energy

$$$$
22:0
     RDKit          3D

 30 32  0  0  0  0  0  0  0  0999 V2000
   -1.9180   25.1280  -28.1210 C   0  0  0  0  0  0  0  0  0  0  0  0
   -2.6380   25.2940  -29.3380 O   0  0  0  0  0  0  0  0  0  0  0  0
   -3.3610   24.2750  -29.9750 C   0  0  0  0  0  0  0  0  0  0  0  0
   -4.6320   24.5760  -30.4780 C   0  0  0  0  0  0  0  0  0  0  0  0
   -5.3930   23.5950  -31.1200 C   0  0  0  0  0  0  0  0  0  0  0  0
   -4.8960   22.2900  -31.2610 C   0  0  0  0  0  0  0  0  0  0  0  0
   -5.6790   21.2860  -31.9290 N   0  0  0  0  0  0  0  0  0  0  0  0
   -5.2000   20.4020  -32.8070 N   0  0  0  0  0  0  0  0  0  0  0  0
   -6.2180   19.6340  -33.2730 C   0  0  0  0  0  0  0  0  0  0  0  0
   -6.1100   18.6370  -34.3780 C   0  0  0  0  0  0  0  0  0  0  0  0
   -7.3660   20.0830  -32.6670 C   0  0  0  0  0  0  0  0  0  0  0  0
   -9.0280   19.9050  -32.7280 S   0  0  0  0  0  0  0  0  0  0  0  0
   -9.2830   21.1940  -31.6260 C   0  0  0  0  0  0  0  0  0  0  0  0
   -8.0580   21.7630  -31.2440 C   0  0  0  0  0  0  0  0  0  0  0  0
   -7.0090   21.0810  -31.8520 C   0  0  0  0  0  0  0  0  0  0  0  0
   -3.6170   21.9890  -30.7660 C   0  0  0  0  0  0  0  0  0  0  0  0
   -2.8550   22.9700  -30.1250 C   0  0  0  0  0  0  0  0  0  0  0  0
   -2.5964   25.2844  -27.2694 H   0  0  0  0  0  0  0  0  0  0  0  0
   -1.5024   24.1105  -28.0767 H   0  0  0  0  0  0  0  0  0  0  0  0
   -1.0989   25.8609  -28.0767 H   0  0  0  0  0  0  0  0  0  0  0  0
   -5.0354   25.5933  -30.3671 H   0  0  0  0  0  0  0  0  0  0  0  0
   -6.3873   23.8472  -31.5171 H   0  0  0  0  0  0  0  0  0  0  0  0
   -4.2000   20.3330  -33.1000 H   0  0  0  0  0  0  0  0  0  0  0  0
   -6.0008   17.6285  -33.9525 H   0  0  0  0  0  0  0  0  0  0  0  0
   -7.0177   18.6770  -34.9980 H   0  0  0  0  0  0  0  0  0  0  0  0
   -5.2319   18.8705  -34.9980 H   0  0  0  0  0  0  0  0  0  0  0  0
  -10.2683   21.5280  -31.2687 H   0  0  0  0  0  0  0  0  0  0  0  0
   -7.9444   22.6208  -30.5648 H   0  0  0  0  0  0  0  0  0  0  0  0
   -3.2115   20.9733  -30.8836 H   0  0  0  0  0  0  0  0  0  0  0  0
   -1.8564   22.7213  -29.7364 H   0  0  0  0  0  0  0  0  0  0  0  0
  1  2  1  0
  2  3  1  0
  3  4  2  0
  4  5  1  0
  5  6  2  0
  6  7  1  0
  7  8  1  0
  8  9  2  0
  9 10  1  0
  9 11  1  0
 11 12  1  0
 12 13  1  0
 13 14  2  0
 14 15  1  0
  6 16  1  0
 16 17  2  0
 17  3  1  0
 15  7  1  0
 15 11  2  0
  1 18  1  0
  1 19  1  0
  1 20  1  0
  4 21  1  0
  5 22  1  0
  8 23  1  0
 10 24  1  0
 10 25  1  0
 10 26  1  0
 13 27  1  0
 14 28  1  0
 16 29  1  0
 17 30  1  0
M  CHG  1   8   1
M  END
>  <UniqueID>  (23) 
22

>  <SMILES>  (23) 
COc1ccc(-n2[nH+]c(C)c3sccc32)cc1

>  <Energy>  (23) 
116.68718312017499

>  <Genealogy>  (23) 
COc1ccc(-n2[nH+]c(C)c3sccc32)cc1 (protonated)
COc1ccc(-n2[nH+]c(C)c3sccc32)cc1 (3D coordinates assigned)
COc1ccc(-n2[nH+]c(C)c3sccc32)cc1 (optimized conformer: 116.68718312017499 kcal/mol)

>  <smiles>  (23) 
COc1ccc(-n2nc(C)c3sccc32)cc1

>  <score_type>  (23) 
oracle

>  <origin>  (23) 
adg

>  <m_score__min__energy>  (23) 
-6.8899999999999997

>  <m_primary>  (23) 
energy

$$$$
23:0
     RDKit          3D

 35 36  0  0  0  0  0  0  0  0999 V2000
   -2.1150   24.9090  -28.7060 C   0  0  0  0  0  0  0  0  0  0  0  0
   -1.9970   23.9020  -29.7050 O   0  0  0  0  0  0  0  0  0  0  0  0
   -1.6430   22.5650  -29.4540 C   0  0  0  0  0  0  0  0  0  0  0  0
   -1.1000   22.1600  -28.2180 C   0  0  0  0  0  0  0  0  0  0  0  0
   -0.7470   20.8250  -28.0060 C   0  0  0  0  0  0  0  0  0  0  0  0
   -0.9260   19.8830  -29.0190 C   0  0  0  0  0  0  0  0  0  0  0  0
   -1.4620   20.2710  -30.2480 C   0  0  0  0  0  0  0  0  0  0  0  0
   -1.8330   21.6070  -30.4720 C   0  0  0  0  0  0  0  0  0  0  0  0
   -2.3870   22.0180  -31.8120 C   0  0  0  0  0  0  0  0  0  0  0  0
   -3.4060   23.0550  -31.6450 N   0  0  0  0  0  0  0  0  0  0  0  0
   -4.8160   22.7610  -31.5950 C   0  0  0  0  0  0  0  0  0  0  0  0
   -5.3090   21.5770  -32.1770 C   0  0  0  0  0  0  0  0  0  0  0  0
   -6.6790   21.3120  -32.2010 C   0  0  0  0  0  0  0  0  0  0  0  0
   -7.5770   22.2230  -31.6460 C   0  0  0  0  0  0  0  0  0  0  0  0
   -9.2990   21.8830  -31.6760 Cl  0  0  0  0  0  0  0  0  0  0  0  0
   -7.1070   23.3990  -31.0570 C   0  0  0  0  0  0  0  0  0  0  0  0
   -5.7290   23.6800  -31.0180 C   0  0  0  0  0  0  0  0  0  0  0  0
   -5.2690   24.9020  -30.3160 C   0  0  0  0  0  0  0  0  0  0  0  0
   -5.8000   25.2550  -29.0370 N   0  0  0  0  0  0  0  0  0  0  0  0
   -4.3830   25.6320  -30.8350 O   0  0  0  0  0  0  0  0  0  0  0  0
   -2.0607   24.4455  -27.7099 H   0  0  0  0  0  0  0  0  0  0  0  0
   -1.2957   25.6344  -28.8180 H   0  0  0  0  0  0  0  0  0  0  0  0
   -3.0798   25.4254  -28.8180 H   0  0  0  0  0  0  0  0  0  0  0  0
   -0.9534   22.8988  -27.4163 H   0  0  0  0  0  0  0  0  0  0  0  0
   -0.3268   20.5159  -27.0376 H   0  0  0  0  0  0  0  0  0  0  0  0
   -0.6445   18.8333  -28.8492 H   0  0  0  0  0  0  0  0  0  0  0  0
   -1.5947   19.5258  -31.0461 H   0  0  0  0  0  0  0  0  0  0  0  0
   -1.5709   22.4088  -32.4375 H   0  0  0  0  0  0  0  0  0  0  0  0
   -2.8448   21.1414  -32.2936 H   0  0  0  0  0  0  0  0  0  0  0  0
   -3.0980   24.0530  -31.5960 H   0  0  0  0  0  0  0  0  0  0  0  0
   -4.6069   20.8536  -32.6172 H   0  0  0  0  0  0  0  0  0  0  0  0
   -7.0509   20.3833  -32.6583 H   0  0  0  0  0  0  0  0  0  0  0  0
   -7.8210   24.1122  -30.6195 H   0  0  0  0  0  0  0  0  0  0  0  0
   -5.4390   26.0940  -28.5330 H   0  0  0  0  0  0  0  0  0  0  0  0
   -6.5870   24.7150  -28.6120 H   0  0  0  0  0  0  0  0  0  0  0  0
  1  2  1  0
  2  3  1  0
  3  4  2  0
  4  5  1  0
  5  6  2  0
  6  7  1  0
  7  8  2  0
  8  9  1  0
  9 10  1  0
 10 11  1  0
 11 12  2  0
 12 13  1  0
 13 14  2  0
 14 15  1  0
 14 16  1  0
 16 17  2  0
 17 18  1  0
 18 19  1  0
 18 20  2  0
  8  3  1  0
 17 11  1  0
  1 21  1  0
  1 22  1  0
  1 23  1  0
  4 24  1  0
  5 25  1  0
  6 26  1  0
  7 27  1  0
  9 28  1  0
  9 29  1  0
 10 30  1  0
 12 31  1  0
 13 32  1  0
 16 33  1  0
 19 34  1  0
 19 35  1  0
M  END
>  <UniqueID>  (24) 
23

>  <SMILES>  (24) 
COc1ccccc1CNc1ccc(Cl)cc1C(N)=O

>  <Energy>  (24) 
39.6075383929385

>  <Genealogy>  (24) 
COc1ccccc1CNc1ccc(Cl)cc1C(N)=O (3D coordinates assigned)
COc1ccccc1CNc1ccc(Cl)cc1C(N)=O (optimized conformer: 39.6075383929385 kcal/mol)

>  <smiles>  (24) 
COc1ccccc1CNc1ccc(Cl)cc1C(N)=O

>  <score_type>  (24) 
oracle

>  <origin>  (24) 
adg

>  <m_score__min__energy>  (24) 
-7.29

>  <m_primary>  (24) 
energy

$$$$
24:0
     RDKit          3D

 27 29  0  0  0  0  0  0  0  0999 V2000
   -4.8450   23.7620  -30.4080 C   0  0  0  0  0  0  0  0  0  0  0  0
   -4.8130   23.0340  -31.6010 C   0  0  0  0  0  0  0  0  0  0  0  0
   -5.9890   22.4790  -32.1140 C   0  0  0  0  0  0  0  0  0  0  0  0
   -7.2050   22.6400  -31.4290 C   0  0  0  0  0  0  0  0  0  0  0  0
   -8.4760   22.0800  -32.0040 C   0  0  0  0  0  0  0  0  0  0  0  0
   -8.4440   20.6230  -31.9490 N   0  0  0  0  0  0  0  0  0  0  0  0
   -9.1130   19.8770  -31.0700 N   0  0  0  0  0  0  0  0  0  0  0  0
   -8.8020   18.5900  -31.2270 N   0  0  0  0  0  0  0  0  0  0  0  0
   -7.9010   18.5240  -32.2220 C   0  0  0  0  0  0  0  0  0  0  0  0
   -7.2270   17.4350  -32.7590 C   0  0  0  0  0  0  0  0  0  0  0  0
   -6.3030   17.7090  -33.7870 C   0  0  0  0  0  0  0  0  0  0  0  0
   -6.0970   19.0450  -34.2180 C   0  0  0  0  0  0  0  0  0  0  0  0
   -6.7900   20.0780  -33.6440 N   0  0  0  0  0  0  0  0  0  0  0  0
   -7.6790   19.7840  -32.6640 C   0  0  0  0  0  0  0  0  0  0  0  0
   -7.2310   23.3850  -30.2380 C   0  0  0  0  0  0  0  0  0  0  0  0
   -6.0530   23.9390  -29.7280 C   0  0  0  0  0  0  0  0  0  0  0  0
   -3.9184   24.1959  -30.0041 H   0  0  0  0  0  0  0  0  0  0  0  0
   -3.8618   22.8978  -32.1364 H   0  0  0  0  0  0  0  0  0  0  0  0
   -5.9622   21.9141  -33.0575 H   0  0  0  0  0  0  0  0  0  0  0  0
   -9.3335   22.4485  -31.4219 H   0  0  0  0  0  0  0  0  0  0  0  0
   -8.5730   22.4016  -33.0515 H   0  0  0  0  0  0  0  0  0  0  0  0
   -9.1860   17.8030  -30.6580 H   0  0  0  0  0  0  0  0  0  0  0  0
   -7.4054   16.4106  -32.4001 H   0  0  0  0  0  0  0  0  0  0  0  0
   -5.7415   16.8872  -34.2553 H   0  0  0  0  0  0  0  0  0  0  0  0
   -5.3741   19.2533  -35.0205 H   0  0  0  0  0  0  0  0  0  0  0  0
   -8.1817   23.5329  -29.7049 H   0  0  0  0  0  0  0  0  0  0  0  0
   -6.0770   24.5146  -28.7909 H   0  0  0  0  0  0  0  0  0  0  0  0
  1  2  2  0
  2  3  1  0
  3  4  2  0
  4  5  1  0
  5  6  1  0
  6  7  1  0
  7  8  2  0
  8  9  1  0
  9 10  2  0
 10 11  1  0
 11 12  2  0
 12 13  1  0
 13 14  2  0
  4 15  1  0
 15 16  2  0
 16  1  1  0
 14  6  1  0
 14  9  1  0
  1 17  1  0
  2 18  1  0
  3 19  1  0
  5 20  1  0
  5 21  1  0
  8 22  1  0
 10 23  1  0
 11 24  1  0
 12 25  1  0
 15 26  1  0
 16 27  1  0
M  CHG  1   8   1
M  END
>  <UniqueID>  (25) 
24

>  <SMILES>  (25) 
c1ccc(Cn2n[nH+]c3cccnc32)cc1

>  <Energy>  (25) 
76.32145466442353

>  <Genealogy>  (25) 
c1ccc(Cn2n[nH+]c3cccnc32)cc1 (protonated)
c1ccc(Cn2n[nH+]c3cccnc32)cc1 (3D coordinates assigned)
c1ccc(Cn2n[nH+]c3cccnc32)cc1 (optimized conformer: 76.32145466442353 kcal/mol)

>  <smiles>  (25) 
c1ccc(Cn2nnc3cccnc32)cc1

>  <score_type>  (25) 
oracle

>  <origin>  (25) 
adg

>  <m_score__min__energy>  (25) 
-6.5199999999999996

>  <m_primary>  (25) 
energy

$$$$
25:0
     RDKit          3D

 31 32  0  0  0  0  0  0  0  0999 V2000
   -1.5740   26.0180  -26.5200 C   0  0  0  0  0  0  0  0  0  0  0  0
   -0.7090   25.8230  -27.7630 C   0  0  0  0  0  0  0  0  0  0  0  0
   -1.4210   25.0130  -28.7760 N   0  0  0  0  0  0  0  0  0  0  0  0
   -0.6030   23.8800  -29.2500 C   0  0  0  0  0  0  0  0  0  0  0  0
   -2.7470   24.5620  -28.2980 C   0  0  0  0  0  0  0  0  0  0  0  0
   -3.7470   24.3910  -29.4060 C   0  0  0  0  0  0  0  0  0  0  0  0
   -4.6080   23.3580  -29.4950 N   0  0  0  0  0  0  0  0  0  0  0  0
   -5.2520   23.6450  -30.6460 C   0  0  0  0  0  0  0  0  0  0  0  0
   -6.3240   22.8040  -31.2210 C   0  0  0  0  0  0  0  0  0  0  0  0
   -7.6580   23.2490  -31.2190 C   0  0  0  0  0  0  0  0  0  0  0  0
   -8.6700   22.4520  -31.7630 C   0  0  0  0  0  0  0  0  0  0  0  0
   -8.3600   21.2060  -32.3140 C   0  0  0  0  0  0  0  0  0  0  0  0
   -7.0380   20.7540  -32.3210 C   0  0  0  0  0  0  0  0  0  0  0  0
   -6.6170   19.0500  -33.0760 Br  0  0  0  0  0  0  0  0  0  0  0  0
   -6.0220   21.5480  -31.7780 C   0  0  0  0  0  0  0  0  0  0  0  0
   -4.8020   24.7830  -31.2160 N   0  0  0  0  0  0  0  0  0  0  0  0
   -3.8720   25.2110  -30.4200 O   0  0  0  0  0  0  0  0  0  0  0  0
   -0.9581   25.8792  -25.6192 H   0  0  0  0  0  0  0  0  0  0  0  0
   -1.9960   27.0338  -26.5226 H   0  0  0  0  0  0  0  0  0  0  0  0
   -2.3910   25.2815  -26.5226 H   0  0  0  0  0  0  0  0  0  0  0  0
   -0.4674   26.8065  -28.1923 H   0  0  0  0  0  0  0  0  0  0  0  0
    0.2117   25.2956  -27.4730 H   0  0  0  0  0  0  0  0  0  0  0  0
   -0.2047   23.3284  -28.3856 H   0  0  0  0  0  0  0  0  0  0  0  0
   -1.2254   23.2078  -29.8588 H   0  0  0  0  0  0  0  0  0  0  0  0
    0.2309   24.2593  -29.8588 H   0  0  0  0  0  0  0  0  0  0  0  0
   -2.6243   23.5966  -27.7853 H   0  0  0  0  0  0  0  0  0  0  0  0
   -3.1345   25.3404  -27.6242 H   0  0  0  0  0  0  0  0  0  0  0  0
   -7.9068   24.2296  -30.7871 H   0  0  0  0  0  0  0  0  0  0  0  0
   -9.7113   22.8064  -31.7571 H   0  0  0  0  0  0  0  0  0  0  0  0
   -9.1571   20.5807  -32.7425 H   0  0  0  0  0  0  0  0  0  0  0  0
   -4.9824   21.1885  -31.7867 H   0  0  0  0  0  0  0  0  0  0  0  0
  1  2  1  0
  2  3  1  0
  3  4  1  0
  3  5  1  0
  5  6  1  0
  6  7  2  0
  7  8  1  0
  8  9  1  0
  9 10  2  0
 10 11  1  0
 11 12  2  0
 12 13  1  0
 13 14  1  0
 13 15  2  0
  8 16  2  0
 16 17  1  0
 17  6  1  0
 15  9  1  0
  1 18  1  0
  1 19  1  0
  1 20  1  0
  2 21  1  0
  2 22  1  0
  4 23  1  0
  4 24  1  0
  4 25  1  0
  5 26  1  0
  5 27  1  0
 10 28  1  0
 11 29  1  0
 12 30  1  0
 15 31  1  0
M  END
>  <UniqueID>  (26) 
25

>  <SMILES>  (26) 
CCN(C)Cc1nc(-c2cccc(Br)c2)no1

>  <Energy>  (26) 
64.15828413700558

>  <Genealogy>  (26) 
CCN(C)Cc1nc(-c2cccc(Br)c2)no1 (3D coordinates assigned)
CCN(C)Cc1nc(-c2cccc(Br)c2)no1 (optimized conformer: 64.15828413700558 kcal/mol)

>  <smiles>  (26) 
CCN(C)Cc1nc(-c2cccc(Br)c2)no1

>  <score_type>  (26) 
oracle

>  <origin>  (26) 
adg

>  <m_score__min__energy>  (26) 
-7.9900000000000002

>  <m_primary>  (26) 
energy

$$$$
26:0
     RDKit          3D

 57 60  0  0  0  0  0  0  0  0999 V2000
   -9.4560   19.3450  -32.7030 C   0  0  0  0  0  0  0  0  0  0  0  0
   -8.7380   19.2150  -31.5850 C   0  0  0  0  0  0  0  0  0  0  0  0
   -7.2340   19.2200  -31.6030 C   0  0  0  0  0  0  0  0  0  0  0  0
   -6.7120   20.6370  -31.6160 C   0  0  0  0  0  0  0  0  0  0  0  0
   -7.6030   21.6670  -31.6580 N   0  0  0  0  0  0  0  0  0  0  0  0
   -7.2040   22.9380  -31.6560 N   0  0  0  0  0  0  0  0  0  0  0  0
   -5.8940   23.2940  -31.6140 C   0  0  0  0  0  0  0  0  0  0  0  0
   -5.5780   24.7690  -31.5810 C   0  0  0  0  0  0  0  0  0  0  0  0
   -5.2290   25.2420  -30.1690 C   0  0  0  0  0  0  0  0  0  0  0  0
   -3.8150   25.2950  -29.9980 O   0  0  0  0  0  0  0  0  0  0  0  0
   -3.1020   24.5440  -29.0520 C   0  0  0  0  0  0  0  0  0  0  0  0
   -3.6570   23.4180  -28.4100 C   0  0  0  0  0  0  0  0  0  0  0  0
   -2.9060   22.6970  -27.4760 C   0  0  0  0  0  0  0  0  0  0  0  0
   -1.6010   23.0910  -27.1720 C   0  0  0  0  0  0  0  0  0  0  0  0
   -1.0440   24.2070  -27.8020 C   0  0  0  0  0  0  0  0  0  0  0  0
   -1.7910   24.9310  -28.7370 C   0  0  0  0  0  0  0  0  0  0  0  0
   -1.2400   26.0170  -29.3340 F   0  0  0  0  0  0  0  0  0  0  0  0
   -4.9160   22.2760  -31.5600 C   0  0  0  0  0  0  0  0  0  0  0  0
   -5.3330   20.9370  -31.5560 C   0  0  0  0  0  0  0  0  0  0  0  0
   -4.2460   19.8870  -31.4820 C   0  0  0  0  0  0  0  0  0  0  0  0
   -3.1560   20.2110  -32.4240 N   0  0  0  0  0  0  0  0  0  0  0  0
   -3.5860   20.0280  -33.8290 C   0  0  0  0  0  0  0  0  0  0  0  0
   -4.2970   18.7100  -33.9900 C   0  0  0  0  0  0  0  0  0  0  0  0
   -5.6370   18.6850  -34.4140 C   0  0  0  0  0  0  0  0  0  0  0  0
   -6.3060   17.4650  -34.5570 C   0  0  0  0  0  0  0  0  0  0  0  0
   -5.6440   16.2660  -34.2800 C   0  0  0  0  0  0  0  0  0  0  0  0
   -4.3120   16.2840  -33.8580 C   0  0  0  0  0  0  0  0  0  0  0  0
   -3.6390   17.5010  -33.7120 C   0  0  0  0  0  0  0  0  0  0  0  0
   -2.5570   21.5550  -32.1880 C   0  0  0  0  0  0  0  0  0  0  0  0
   -3.4370   22.5360  -31.3760 C   0  0  0  0  0  0  0  0  0  0  0  0
  -10.5549   19.3372  -32.6549 H   0  0  0  0  0  0  0  0  0  0  0  0
   -8.9487   19.4599  -33.6722 H   0  0  0  0  0  0  0  0  0  0  0  0
   -9.2609   19.1011  -30.6239 H   0  0  0  0  0  0  0  0  0  0  0  0
   -6.8592   18.7039  -30.7068 H   0  0  0  0  0  0  0  0  0  0  0  0
   -6.8865   18.7036  -32.5099 H   0  0  0  0  0  0  0  0  0  0  0  0
   -8.6280   21.4740  -31.6880 H   0  0  0  0  0  0  0  0  0  0  0  0
   -4.7225   24.9651  -32.2441 H   0  0  0  0  0  0  0  0  0  0  0  0
   -6.4705   25.3182  -31.9155 H   0  0  0  0  0  0  0  0  0  0  0  0
   -5.6514   26.2448  -30.0079 H   0  0  0  0  0  0  0  0  0  0  0  0
   -5.6501   24.5330  -29.4410 H   0  0  0  0  0  0  0  0  0  0  0  0
   -4.6851   23.1052  -28.6447 H   0  0  0  0  0  0  0  0  0  0  0  0
   -3.3439   21.8182  -26.9800 H   0  0  0  0  0  0  0  0  0  0  0  0
   -1.0119   22.5230  -26.4369 H   0  0  0  0  0  0  0  0  0  0  0  0
   -0.0161   24.5167  -27.5622 H   0  0  0  0  0  0  0  0  0  0  0  0
   -3.8434   19.8529  -30.4589 H   0  0  0  0  0  0  0  0  0  0  0  0
   -4.6733   18.9098  -31.7514 H   0  0  0  0  0  0  0  0  0  0  0  0
   -4.2675   20.8447  -34.1093 H   0  0  0  0  0  0  0  0  0  0  0  0
   -2.6988   20.0380  -34.4792 H   0  0  0  0  0  0  0  0  0  0  0  0
   -6.1607   19.6270  -34.6338 H   0  0  0  0  0  0  0  0  0  0  0  0
   -7.3549   17.4494  -34.8880 H   0  0  0  0  0  0  0  0  0  0  0  0
   -6.1716   15.3076  -34.3942 H   0  0  0  0  0  0  0  0  0  0  0  0
   -3.7921   15.3394  -33.6403 H   0  0  0  0  0  0  0  0  0  0  0  0
   -2.5909   17.5113  -33.3783 H   0  0  0  0  0  0  0  0  0  0  0  0
   -1.6117   21.4152  -31.6432 H   0  0  0  0  0  0  0  0  0  0  0  0
   -2.4290   22.0105  -33.1810 H   0  0  0  0  0  0  0  0  0  0  0  0
   -3.1904   22.4308  -30.3092 H   0  0  0  0  0  0  0  0  0  0  0  0
   -3.2285   23.5525  -31.7410 H   0  0  0  0  0  0  0  0  0  0  0  0
  1  2  2  0
  2  3  1  0
  3  4  1  0
  4  5  2  0
  5  6  1  0
  6  7  2  0
  7  8  1  0
  8  9  1  0
  9 10  1  0
 10 11  1  0
 11 12  2  0
 12 13  1  0
 13 14  2  0
 14 15  1  0
 15 16  2  0
 16 17  1  0
  7 18  1  0
 18 19  2  0
 19 20  1  0
 20 21  1  0
 21 22  1  0
 22 23  1  0
 23 24  2  0
 24 25  1  0
 25 26  2  0
 26 27  1  0
 27 28  2  0
 21 29  1  0
 29 30  1  0
 19  4  1  0
 28 23  1  0
 16 11  1  0
 30 18  1  0
  1 31  1  0
  1 32  1  0
  2 33  1  0
  3 34  1  0
  3 35  1  0
  5 36  1  0
  8 37  1  0
  8 38  1  0
  9 39  1  0
  9 40  1  0
 12 41  1  0
 13 42  1  0
 14 43  1  0
 15 44  1  0
 20 45  1  0
 20 46  1  0
 22 47  1  0
 22 48  1  0
 24 49  1  0
 25 50  1  0
 26 51  1  0
 27 52  1  0
 28 53  1  0
 29 54  1  0
 29 55  1  0
 30 56  1  0
 30 57  1  0
M  CHG  1   5   1
M  END
>  <UniqueID>  (27) 
26

>  <SMILES>  (27) 
C=CCc1[nH+]nc(CCOc2ccccc2F)c2c1CN(Cc1ccccc1)CC2

>  <Energy>  (27) 
70.58215315188386

>  <Genealogy>  (27) 
C=CCc1[nH+]nc(CCOc2ccccc2F)c2c1CN(Cc1ccccc1)CC2 (protonated)
C=CCc1[nH+]nc(CCOc2ccccc2F)c2c1CN(Cc1ccccc1)CC2 (3D coordinates assigned)
C=CCc1[nH+]nc(CCOc2ccccc2F)c2c1CN(Cc1ccccc1)CC2 (nonaromatic ring conformer: 70.58215315188386 kcal/mol)

>  <smiles>  (27) 
C=CCc1nnc(CCOc2ccccc2F)c2c1CN(Cc1ccccc1)CC2

>  <score_type>  (27) 
oracle

>  <origin>  (27) 
adg

>  <m_score__min__energy>  (27) 
-9.7899999999999991

>  <m_primary>  (27) 
energy

$$$$
27:0
     RDKit          3D

 49 52  0  0  0  0  0  0  0  0999 V2000
   -5.8800   18.1920  -32.0840 C   0  0  0  0  0  0  0  0  0  0  0  0
   -5.5340   19.3510  -33.0120 C   0  0  0  0  0  0  0  0  0  0  0  0
   -4.7210   20.3110  -32.3380 O   0  0  0  0  0  0  0  0  0  0  0  0
   -5.2380   21.3980  -31.6240 C   0  0  0  0  0  0  0  0  0  0  0  0
   -6.5760   21.3820  -31.2290 C   0  0  0  0  0  0  0  0  0  0  0  0
   -7.0930   22.4650  -30.5170 C   0  0  0  0  0  0  0  0  0  0  0  0
   -6.2730   23.5520  -30.2020 C   0  0  0  0  0  0  0  0  0  0  0  0
   -6.8000   24.5940  -29.5120 F   0  0  0  0  0  0  0  0  0  0  0  0
   -4.9240   23.5390  -30.6110 C   0  0  0  0  0  0  0  0  0  0  0  0
   -3.9990   24.6530  -30.3180 C   0  0  0  0  0  0  0  0  0  0  0  0
   -4.0150   25.6750  -31.0570 O   0  0  0  0  0  0  0  0  0  0  0  0
   -3.0540   24.5570  -29.2430 N   0  0  0  0  0  0  0  0  0  0  0  0
   -2.1160   23.4920  -29.0190 C   0  0  0  0  0  0  0  0  0  0  0  0
   -1.4460   23.3430  -27.8010 C   0  0  0  0  0  0  0  0  0  0  0  0
   -0.5720   22.2780  -27.6080 C   0  0  0  0  0  0  0  0  0  0  0  0
    0.0530   22.1470  -26.4110 F   0  0  0  0  0  0  0  0  0  0  0  0
   -0.3530   21.3380  -28.6260 C   0  0  0  0  0  0  0  0  0  0  0  0
    0.7370   20.0050  -28.2480 Cl  0  0  0  0  0  0  0  0  0  0  0  0
   -1.0200   21.4640  -29.8800 C   0  0  0  0  0  0  0  0  0  0  0  0
   -0.8030   20.4200  -31.0050 C   0  0  1  0  0  0  0  0  0  0  0  0
   -0.8340   18.9580  -30.4820 C   0  0  0  0  0  0  0  0  0  0  0  0
   -0.9800   18.0490  -31.5180 F   0  0  0  0  0  0  0  0  0  0  0  0
   -1.9160   20.5440  -31.9570 N   0  0  0  0  0  0  0  0  0  0  0  0
   -1.7500   20.6130  -33.3770 C   0  0  0  0  0  0  0  0  0  0  0  0
   -2.7740   20.4890  -34.1610 N   0  0  0  0  0  0  0  0  0  0  0  0
   -0.4920   20.8320  -33.9270 O   0  0  0  0  0  0  0  0  0  0  0  0
    0.6810   21.0110  -33.1420 C   0  0  2  0  0  0  0  0  0  0  0  0
    1.1880   19.6850  -32.6030 C   0  0  0  0  0  0  0  0  0  0  0  0
    0.5920   20.7200  -31.6440 C   0  0  2  0  0  0  0  0  0  0  0  0
   -1.9250   22.5460  -30.0300 C   0  0  0  0  0  0  0  0  0  0  0  0
   -4.4530   22.4660  -31.3060 N   0  0  0  0  0  0  0  0  0  0  0  0
   -5.7826   18.5182  -31.0380 H   0  0  0  0  0  0  0  0  0  0  0  0
   -6.9141   17.8677  -32.2722 H   0  0  0  0  0  0  0  0  0  0  0  0
   -5.1929   17.3539  -32.2722 H   0  0  0  0  0  0  0  0  0  0  0  0
   -4.9876   18.9641  -33.8848 H   0  0  0  0  0  0  0  0  0  0  0  0
   -6.4666   19.8391  -33.3314 H   0  0  0  0  0  0  0  0  0  0  0  0
   -7.2175   20.5234  -31.4766 H   0  0  0  0  0  0  0  0  0  0  0  0
   -8.1473   22.4632  -30.2033 H   0  0  0  0  0  0  0  0  0  0  0  0
   -1.6105   24.0704  -26.9924 H   0  0  0  0  0  0  0  0  0  0  0  0
    0.1072   18.7481  -29.9528 H   0  0  0  0  0  0  0  0  0  0  0  0
   -1.6961   18.8520  -29.8070 H   0  0  0  0  0  0  0  0  0  0  0  0
   -2.8870   20.4620  -31.5770 H   0  0  0  0  0  0  0  0  0  0  0  0
   -3.4650   19.7210  -34.0080 H   0  0  0  0  0  0  0  0  0  0  0  0
   -2.9300   21.1500  -34.9540 H   0  0  0  0  0  0  0  0  0  0  0  0
    1.0765   21.8683  -33.7065 H   0  0  0  0  0  0  0  0  0  0  0  0
    0.6388   18.7571  -32.8207 H   0  0  0  0  0  0  0  0  0  0  0  0
    2.1394   19.1359  -32.6600 H   0  0  0  0  0  0  0  0  0  0  0  0
    0.9305   21.2353  -30.7330 H   0  0  0  0  0  0  0  0  0  0  0  0
   -2.4920   22.6432  -30.9676 H   0  0  0  0  0  0  0  0  0  0  0  0
  1  2  1  0
  2  3  1  0
  3  4  1  0
  4  5  2  0
  5  6  1  0
  6  7  2  0
  7  8  1  0
  7  9  1  0
  9 10  1  0
 10 11  2  0
 10 12  1  0
 12 13  1  0
 13 14  2  0
 14 15  1  0
 15 16  1  0
 15 17  2  0
 17 18  1  0
 17 19  1  0
 19 20  1  0
 20 21  1  1
 21 22  1  0
 20 23  1  0
 23 24  1  0
 24 25  2  0
 24 26  1  0
 26 27  1  0
 27 28  1  0
 28 29  1  0
 19 30  2  0
  9 31  2  0
 31  4  1  0
 30 13  1  0
 29 20  1  0
 29 27  1  0
  1 32  1  0
  1 33  1  0
  1 34  1  0
  2 35  1  0
  2 36  1  0
  5 37  1  0
  6 38  1  0
 14 39  1  0
 21 40  1  0
 21 41  1  0
 23 42  1  0
 25 43  1  0
 25 44  1  0
 27 45  1  1
 28 46  1  0
 28 47  1  0
 29 48  1  1
 30 49  1  0
M  CHG  2  12  -1  25   1
M  END
>  <UniqueID>  (28) 
27

>  <SMILES>  (28) 
CCOc1ccc(F)c(C(=O)[N-]c2cc(F)c(Cl)c([C@@]3(CF)NC(=[NH2+])O[C@@H]4CC43)c2)n1

>  <Energy>  (28) 
333.16668775111566

>  <Genealogy>  (28) 
CCOc1ccc(F)c(C(=O)[N-]c2cc(F)c(Cl)c(C3(CF)NC(=[NH2+])OC4CC43)c2)n1 (protonated)
CCOc1ccc(F)c(C(=O)[N-]c2cc(F)c(Cl)c([C@@]3(CF)NC(=[NH2+])O[C@@H]4CC43)c2)n1 (chirality)
CCOc1ccc(F)c(C(=O)[N-]c2cc(F)c(Cl)c([C@@]3(CF)NC(=[NH2+])O[C@@H]4CC43)c2)n1 (3D coordinates assigned)
CCOc1ccc(F)c(C(=O)[N-]c2cc(F)c(Cl)c([C@@]3(CF)NC(=[NH2+])O[C@@H]4CC43)c2)n1 (nonaromatic ring conformer: 333.16668775111566 kcal/mol)

>  <smiles>  (28) 
CCOc1ccc(F)c(C(=O)Nc2cc(F)c(Cl)c(C3(CF)NC(=N)OC4CC43)c2)n1

>  <score_type>  (28) 
oracle

>  <origin>  (28) 
adg

>  <m_score__min__energy>  (28) 
-9.5

>  <m_primary>  (28) 
energy

$$$$
28:0
     RDKit          3D

 58 62  0  0  0  0  0  0  0  0999 V2000
   -4.5280   13.9660  -31.6060 C   0  0  0  0  0  0  0  0  0  0  0  0
   -5.3380   15.0500  -32.0500 O   0  0  0  0  0  0  0  0  0  0  0  0
   -4.8680   16.1400  -32.8000 C   0  0  0  0  0  0  0  0  0  0  0  0
   -3.5240   16.2440  -33.1950 C   0  0  0  0  0  0  0  0  0  0  0  0
   -3.0870   17.3470  -33.9320 C   0  0  0  0  0  0  0  0  0  0  0  0
   -1.6900   17.4210  -34.3950 C   0  0  0  0  0  0  0  0  0  0  0  0
   -1.1220   16.3560  -35.0260 N   0  0  0  0  0  0  0  0  0  0  0  0
    0.1630   16.4130  -35.4700 C   0  0  0  0  0  0  0  0  0  0  0  0
    0.9030   17.5370  -35.2800 N   0  0  0  0  0  0  0  0  0  0  0  0
    0.3790   18.6170  -34.6460 C   0  0  0  0  0  0  0  0  0  0  0  0
   -0.9310   18.5790  -34.1760 C   0  0  0  0  0  0  0  0  0  0  0  0
   -1.4550   19.6550  -33.4770 O   0  0  0  0  0  0  0  0  0  0  0  0
   -1.9570   20.7280  -32.7360 C   0  0  0  0  0  0  0  0  0  0  0  0
   -3.2290   21.2340  -33.0130 C   0  0  0  0  0  0  0  0  0  0  0  0
   -3.7400   22.2960  -32.2630 C   0  0  0  0  0  0  0  0  0  0  0  0
   -2.9750   22.8780  -31.2380 C   0  0  0  0  0  0  0  0  0  0  0  0
   -3.5370   23.9930  -30.4440 C   0  0  0  0  0  0  0  0  0  0  0  0
   -4.6210   24.5210  -30.8110 O   0  0  0  0  0  0  0  0  0  0  0  0
   -2.8540   24.5330  -29.2550 C   0  0  0  0  0  0  0  0  0  0  0  0
   -3.3440   24.3680  -27.9980 N   0  0  0  0  0  0  0  0  0  0  0  0
   -2.4640   25.0480  -27.2500 C   0  0  0  0  0  0  0  0  0  0  0  0
   -2.4800   25.2310  -25.8690 C   0  0  0  0  0  0  0  0  0  0  0  0
   -1.4570   26.0160  -25.3020 C   0  0  0  0  0  0  0  0  0  0  0  0
   -0.4590   26.5910  -26.1240 C   0  0  0  0  0  0  0  0  0  0  0  0
   -0.4750   26.3810  -27.5160 C   0  0  0  0  0  0  0  0  0  0  0  0
   -1.5010   25.5960  -28.0390 C   0  0  0  0  0  0  0  0  0  0  0  0
   -1.7250   25.2890  -29.3250 N   0  0  0  0  0  0  0  0  0  0  0  0
   -1.6980   22.3580  -30.9620 C   0  0  0  0  0  0  0  0  0  0  0  0
   -1.1950   21.2860  -31.7060 C   0  0  0  0  0  0  0  0  0  0  0  0
   -3.9890   18.3580  -34.2730 C   0  0  0  0  0  0  0  0  0  0  0  0
   -5.3460   18.2610  -33.9100 C   0  0  0  0  0  0  0  0  0  0  0  0
   -6.2600   19.2640  -34.2670 O   0  0  0  0  0  0  0  0  0  0  0  0
   -6.6010   20.3860  -33.4560 C   0  0  0  0  0  0  0  0  0  0  0  0
   -5.7870   17.1350  -33.1680 C   0  0  0  0  0  0  0  0  0  0  0  0
   -7.1250   16.9450  -32.7770 O   0  0  0  0  0  0  0  0  0  0  0  0
   -7.9040   17.8410  -31.9910 C   0  0  0  0  0  0  0  0  0  0  0  0
   -4.5130   13.9459  -30.5063 H   0  0  0  0  0  0  0  0  0  0  0  0
   -4.9422   13.0198  -31.9844 H   0  0  0  0  0  0  0  0  0  0  0  0
   -3.5032   14.0950  -31.9844 H   0  0  0  0  0  0  0  0  0  0  0  0
   -2.8113   15.4518  -32.9222 H   0  0  0  0  0  0  0  0  0  0  0  0
   -1.6750   15.4830  -35.1830 H   0  0  0  0  0  0  0  0  0  0  0  0
    0.6043   15.5466  -35.9844 H   0  0  0  0  0  0  0  0  0  0  0  0
    0.9889   19.5213  -34.5037 H   0  0  0  0  0  0  0  0  0  0  0  0
   -3.8297   20.7953  -33.8234 H   0  0  0  0  0  0  0  0  0  0  0  0
   -4.7487   22.6795  -32.4764 H   0  0  0  0  0  0  0  0  0  0  0  0
   -3.2637   24.7786  -25.2436 H   0  0  0  0  0  0  0  0  0  0  0  0
   -1.4338   26.1828  -24.2150 H   0  0  0  0  0  0  0  0  0  0  0  0
    0.3339   27.2056  -25.6728 H   0  0  0  0  0  0  0  0  0  0  0  0
    0.2946   26.8207  -28.1674 H   0  0  0  0  0  0  0  0  0  0  0  0
   -1.0912   22.7969  -30.1563 H   0  0  0  0  0  0  0  0  0  0  0  0
   -0.1975   20.8812  -31.4800 H   0  0  0  0  0  0  0  0  0  0  0  0
   -3.6357   19.2381  -34.8303 H   0  0  0  0  0  0  0  0  0  0  0  0
   -6.5172   20.1101  -32.3945 H   0  0  0  0  0  0  0  0  0  0  0  0
   -5.9151   21.2179  -33.6739 H   0  0  0  0  0  0  0  0  0  0  0  0
   -7.6338   20.6956  -33.6739 H   0  0  0  0  0  0  0  0  0  0  0  0
   -7.7290   17.6397  -30.9238 H   0  0  0  0  0  0  0  0  0  0  0  0
   -7.6146   18.8770  -32.2210 H   0  0  0  0  0  0  0  0  0  0  0  0
   -8.9702   17.6985  -32.2210 H   0  0  0  0  0  0  0  0  0  0  0  0
  1  2  1  0
  2  3  1  0
  3  4  2  0
  4  5  1  0
  5  6  1  0
  6  7  2  0
  7  8  1  0
  8  9  2  0
  9 10  1  0
 10 11  2  0
 11 12  1  0
 12 13  1  0
 13 14  2  0
 14 15  1  0
 15 16  2  0
 16 17  1  0
 17 18  2  0
 17 19  1  0
 19 20  2  0
 20 21  1  0
 21 22  2  0
 22 23  1  0
 23 24  2  0
 24 25  1  0
 25 26  2  0
 26 27  1  0
 16 28  1  0
 28 29  2  0
  5 30  2  0
 30 31  1  0
 31 32  1  0
 32 33  1  0
 31 34  2  0
 34 35  1  0
 35 36  1  0
 34  3  1  0
 11  6  1  0
 29 13  1  0
 27 19  1  0
 26 21  1  0
  1 37  1  0
  1 38  1  0
  1 39  1  0
  4 40  1  0
  7 41  1  0
  8 42  1  0
 10 43  1  0
 14 44  1  0
 15 45  1  0
 22 46  1  0
 23 47  1  0
 24 48  1  0
 25 49  1  0
 28 50  1  0
 29 51  1  0
 30 52  1  0
 33 53  1  0
 33 54  1  0
 33 55  1  0
 36 56  1  0
 36 57  1  0
 36 58  1  0
M  CHG  2   7   1  27  -1
M  END
>  <UniqueID>  (29) 
28

>  <SMILES>  (29) 
COc1cc(-c2[nH+]cncc2Oc2ccc(C(=O)c3nc4ccccc4[n-]3)cc2)cc(OC)c1OC

>  <Energy>  (29) 
167.8784805869588

>  <Genealogy>  (29) 
COc1cc(-c2[nH+]cncc2Oc2ccc(C(=O)c3nc4ccccc4[n-]3)cc2)cc(OC)c1OC (protonated)
COc1cc(-c2[nH+]cncc2Oc2ccc(C(=O)c3nc4ccccc4[n-]3)cc2)cc(OC)c1OC (3D coordinates assigned)
COc1cc(-c2[nH+]cncc2Oc2ccc(C(=O)c3nc4ccccc4[n-]3)cc2)cc(OC)c1OC (optimized conformer: 167.8784805869588 kcal/mol)

>  <smiles>  (29) 
COc1cc(-c2ncncc2Oc2ccc(C(=O)c3nc4ccccc4[nH]3)cc2)cc(OC)c1OC

>  <score_type>  (29) 
oracle

>  <origin>  (29) 
adg

>  <m_score__min__energy>  (29) 
-10.119999999999999

>  <m_primary>  (29) 
energy

$$$$
29:0
     RDKit          3D

 56 58  0  0  0  0  0  0  0  0999 V2000
   -2.0820   19.9000  -33.8550 C   0  0  0  0  0  0  0  0  0  0  0  0
   -3.2500   19.2650  -33.1070 C   0  0  0  0  0  0  0  0  0  0  0  0
   -4.3340   20.2400  -32.9300 N   0  0  0  0  0  0  0  0  0  0  0  0
   -5.5170   20.2090  -33.8000 C   0  0  0  0  0  0  0  0  0  0  0  0
   -6.6910   19.6560  -33.0430 C   0  0  0  0  0  0  0  0  0  0  0  0
   -7.6730   20.5220  -32.5330 C   0  0  0  0  0  0  0  0  0  0  0  0
   -8.7300   20.0160  -31.7710 C   0  0  0  0  0  0  0  0  0  0  0  0
   -8.8080   18.6470  -31.5030 C   0  0  0  0  0  0  0  0  0  0  0  0
   -7.8270   17.7810  -31.9940 C   0  0  0  0  0  0  0  0  0  0  0  0
   -6.7690   18.2830  -32.7560 C   0  0  0  0  0  0  0  0  0  0  0  0
   -4.1970   21.3030  -31.9710 C   0  0  0  0  0  0  0  0  0  0  0  0
   -4.8960   22.5060  -32.1470 C   0  0  0  0  0  0  0  0  0  0  0  0
   -4.7490   23.5490  -31.2270 C   0  0  0  0  0  0  0  0  0  0  0  0
   -3.8820   23.4100  -30.1320 C   0  0  0  0  0  0  0  0  0  0  0  0
   -3.7130   24.5450  -29.1620 C   0  0  0  0  0  0  0  0  0  0  0  0
   -2.3960   25.1450  -29.3370 N   0  0  0  0  0  0  0  0  0  0  0  0
   -1.2230   24.7510  -28.6170 C   0  0  0  0  0  0  0  0  0  0  0  0
   -0.2120   24.3730  -29.2680 O   0  0  0  0  0  0  0  0  0  0  0  0
   -1.1460   24.8550  -27.1150 C   0  0  0  0  0  0  0  0  0  0  0  0
   -0.1180   25.8380  -26.7010 N   0  0  0  0  0  0  0  0  0  0  0  0
    0.4360   25.5550  -25.3580 C   0  0  0  0  0  0  0  0  0  0  0  0
   -0.5730   25.8560  -24.2240 C   0  0  0  0  0  0  0  0  0  0  0  0
   -1.6490   26.7590  -24.6560 N   0  0  0  0  0  0  0  0  0  0  0  0
   -1.1180   27.8280  -25.5020 C   0  0  0  0  0  0  0  0  0  0  0  0
   -0.5790   27.2430  -26.8230 C   0  0  0  0  0  0  0  0  0  0  0  0
   -3.1830   22.2060  -29.9560 C   0  0  0  0  0  0  0  0  0  0  0  0
   -3.3430   21.1580  -30.8680 C   0  0  0  0  0  0  0  0  0  0  0  0
   -1.3545   20.2955  -33.1309 H   0  0  0  0  0  0  0  0  0  0  0  0
   -1.5956   19.1421  -34.4867 H   0  0  0  0  0  0  0  0  0  0  0  0
   -2.4536   20.7203  -34.4867 H   0  0  0  0  0  0  0  0  0  0  0  0
   -3.6253   18.4060  -33.6826 H   0  0  0  0  0  0  0  0  0  0  0  0
   -2.9026   18.9334  -32.1174 H   0  0  0  0  0  0  0  0  0  0  0  0
   -5.7485   21.2298  -34.1381 H   0  0  0  0  0  0  0  0  0  0  0  0
   -5.3113   19.5681  -34.6700 H   0  0  0  0  0  0  0  0  0  0  0  0
   -7.6098   21.6016  -32.7340 H   0  0  0  0  0  0  0  0  0  0  0  0
   -9.5015   20.6966  -31.3818 H   0  0  0  0  0  0  0  0  0  0  0  0
   -9.6420   18.2505  -30.9052 H   0  0  0  0  0  0  0  0  0  0  0  0
   -7.8879   16.7037  -31.7804 H   0  0  0  0  0  0  0  0  0  0  0  0
   -5.9935   17.6000  -33.1330 H   0  0  0  0  0  0  0  0  0  0  0  0
   -5.5631   22.6298  -33.0128 H   0  0  0  0  0  0  0  0  0  0  0  0
   -5.3153   24.4823  -31.3621 H   0  0  0  0  0  0  0  0  0  0  0  0
   -4.4883   25.3031  -29.3468 H   0  0  0  0  0  0  0  0  0  0  0  0
   -3.8078   24.1647  -28.1342 H   0  0  0  0  0  0  0  0  0  0  0  0
   -2.1246   25.1731  -26.7262 H   0  0  0  0  0  0  0  0  0  0  0  0
   -0.8710   23.8699  -26.7100 H   0  0  0  0  0  0  0  0  0  0  0  0
    0.7152   24.4922  -25.3086 H   0  0  0  0  0  0  0  0  0  0  0  0
    1.3076   26.2099  -25.2117 H   0  0  0  0  0  0  0  0  0  0  0  0
   -1.0203   24.9087  -23.8886 H   0  0  0  0  0  0  0  0  0  0  0  0
   -0.0244   26.3533  -23.4105 H   0  0  0  0  0  0  0  0  0  0  0  0
   -2.0710   27.1950  -23.8030 H   0  0  0  0  0  0  0  0  0  0  0  0
   -1.9195   28.5481  -25.7237 H   0  0  0  0  0  0  0  0  0  0  0  0
   -0.2970   28.3319  -24.9710 H   0  0  0  0  0  0  0  0  0  0  0  0
   -1.3811   27.2827  -27.5748 H   0  0  0  0  0  0  0  0  0  0  0  0
    0.2935   27.8468  -27.1132 H   0  0  0  0  0  0  0  0  0  0  0  0
   -2.5064   22.0860  -29.0971 H   0  0  0  0  0  0  0  0  0  0  0  0
   -2.7963   20.2151  -30.7195 H   0  0  0  0  0  0  0  0  0  0  0  0
  1  2  1  0
  2  3  1  0
  3  4  1  0
  4  5  1  0
  5  6  2  0
  6  7  1  0
  7  8  2  0
  8  9  1  0
  9 10  2  0
  3 11  1  0
 11 12  2  0
 12 13  1  0
 13 14  2  0
 14 15  1  0
 15 16  1  0
 16 17  1  0
 17 18  2  0
 17 19  1  0
 19 20  1  0
 20 21  1  0
 21 22  1  0
 22 23  1  0
 23 24  1  0
 24 25  1  0
 14 26  1  0
 26 27  2  0
 10  5  1  0
 27 11  1  0
 25 20  1  0
  1 28  1  0
  1 29  1  0
  1 30  1  0
  2 31  1  0
  2 32  1  0
  4 33  1  0
  4 34  1  0
  6 35  1  0
  7 36  1  0
  8 37  1  0
  9 38  1  0
 10 39  1  0
 12 40  1  0
 13 41  1  0
 15 42  1  0
 15 43  1  0
 19 44  1  0
 19 45  1  0
 21 46  1  0
 21 47  1  0
 22 48  1  0
 22 49  1  0
 23 50  1  0
 24 51  1  0
 24 52  1  0
 25 53  1  0
 25 54  1  0
 26 55  1  0
 27 56  1  0
M  CHG  1  16  -1
M  END
>  <UniqueID>  (30) 
29

>  <SMILES>  (30) 
CCN(Cc1ccccc1)c1ccc(C[N-]C(=O)CN2CCNCC2)cc1

>  <Energy>  (30) 
63.90844887131742

>  <Genealogy>  (30) 
CCN(Cc1ccccc1)c1ccc(C[N-]C(=O)CN2CCNCC2)cc1 (protonated)
CCN(Cc1ccccc1)c1ccc(C[N-]C(=O)CN2CCNCC2)cc1 (3D coordinates assigned)
CCN(Cc1ccccc1)c1ccc(C[N-]C(=O)CN2CCNCC2)cc1 (nonaromatic ring conformer: 63.90844887131742 kcal/mol)

>  <smiles>  (30) 
CCN(Cc1ccccc1)c1ccc(CNC(=O)CN2CCNCC2)cc1

>  <score_type>  (30) 
oracle

>  <origin>  (30) 
adg

>  <m_score__min__energy>  (30) 
-10.51

>  <m_primary>  (30) 
energy

$$$$
30:0
     RDKit          3D

 39 41  0  0  0  0  0  0  0  0999 V2000
   -6.5480   16.4970  -33.8150 C   0  0  0  0  0  0  0  0  0  0  0  0
   -7.3540   17.4160  -33.0830 O   0  0  0  0  0  0  0  0  0  0  0  0
   -6.9330   18.6920  -32.6800 C   0  0  0  0  0  0  0  0  0  0  0  0
   -7.7980   19.7710  -32.8900 C   0  0  0  0  0  0  0  0  0  0  0  0
   -7.4290   21.0650  -32.5080 C   0  0  0  0  0  0  0  0  0  0  0  0
   -6.1780   21.2960  -31.9080 C   0  0  0  0  0  0  0  0  0  0  0  0
   -5.7660   22.5800  -31.5080 C   0  0  0  0  0  0  0  0  0  0  0  0
   -6.5480   23.5600  -31.6550 O   0  0  0  0  0  0  0  0  0  0  0  0
   -4.4890   22.7510  -30.9260 C   0  0  0  0  0  0  0  0  0  0  0  0
   -3.9800   24.0150  -30.5280 C   0  0  0  0  0  0  0  0  0  0  0  0
   -4.6760   25.1840  -30.8440 O   0  0  0  0  0  0  0  0  0  0  0  0
   -5.7360   25.6540  -30.0180 C   0  0  0  0  0  0  0  0  0  0  0  0
   -2.7410   24.0940  -29.8420 C   0  0  0  0  0  0  0  0  0  0  0  0
   -2.2230   25.2900  -29.3130 O   0  0  0  0  0  0  0  0  0  0  0  0
   -1.6860   25.4620  -28.0060 C   0  0  0  0  0  0  0  0  0  0  0  0
   -1.9670   22.9370  -29.6660 C   0  0  0  0  0  0  0  0  0  0  0  0
   -0.7260   23.0600  -29.0200 O   0  0  0  0  0  0  0  0  0  0  0  0
   -0.2060   22.1240  -28.0820 C   0  0  0  0  0  0  0  0  0  0  0  0
   -2.4440   21.6990  -30.1230 C   0  0  0  0  0  0  0  0  0  0  0  0
   -3.6940   21.5980  -30.7300 C   0  0  0  0  0  0  0  0  0  0  0  0
   -4.1230   20.4020  -31.1190 O   0  0  0  0  0  0  0  0  0  0  0  0
   -5.3040   20.2100  -31.6930 C   0  0  0  0  0  0  0  0  0  0  0  0
   -5.6810   18.9180  -32.0780 C   0  0  0  0  0  0  0  0  0  0  0  0
   -5.9893   15.8599  -33.1136 H   0  0  0  0  0  0  0  0  0  0  0  0
   -7.1915   15.8686  -34.4483 H   0  0  0  0  0  0  0  0  0  0  0  0
   -5.8410   17.0530  -34.4483 H   0  0  0  0  0  0  0  0  0  0  0  0
   -8.7778   19.6003  -33.3600 H   0  0  0  0  0  0  0  0  0  0  0  0
   -8.1193   21.9045  -32.6773 H   0  0  0  0  0  0  0  0  0  0  0  0
   -5.4589   25.5311  -28.9606 H   0  0  0  0  0  0  0  0  0  0  0  0
   -5.9200   26.7181  -30.2276 H   0  0  0  0  0  0  0  0  0  0  0  0
   -6.6481   25.0759  -30.2276 H   0  0  0  0  0  0  0  0  0  0  0  0
   -2.4545   25.2158  -27.2585 H   0  0  0  0  0  0  0  0  0  0  0  0
   -0.8203   24.7962  -27.8747 H   0  0  0  0  0  0  0  0  0  0  0  0
   -1.3682   26.5069  -27.8747 H   0  0  0  0  0  0  0  0  0  0  0  0
   -0.4039   22.4803  -27.0603 H   0  0  0  0  0  0  0  0  0  0  0  0
   -0.6912   21.1480  -28.2304 H   0  0  0  0  0  0  0  0  0  0  0  0
    0.8790   22.0204  -28.2304 H   0  0  0  0  0  0  0  0  0  0  0  0
   -1.8243   20.7985  -30.0007 H   0  0  0  0  0  0  0  0  0  0  0  0
   -4.9950   18.0748  -31.9091 H   0  0  0  0  0  0  0  0  0  0  0  0
  1  2  1  0
  2  3  1  0
  3  4  2  0
  4  5  1  0
  5  6  2  0
  6  7  1  0
  7  8  2  0
  7  9  1  0
  9 10  2  0
 10 11  1  0
 11 12  1  0
 10 13  1  0
 13 14  1  0
 14 15  1  0
 13 16  2  0
 16 17  1  0
 17 18  1  0
 16 19  1  0
 19 20  2  0
 20 21  1  0
 21 22  1  0
 22 23  2  0
 23  3  1  0
 22  6  1  0
 20  9  1  0
  1 24  1  0
  1 25  1  0
  1 26  1  0
  4 27  1  0
  5 28  1  0
 12 29  1  0
 12 30  1  0
 12 31  1  0
 15 32  1  0
 15 33  1  0
 15 34  1  0
 18 35  1  0
 18 36  1  0
 18 37  1  0
 19 38  1  0
 23 39  1  0
M  END
>  <UniqueID>  (31) 
30

>  <SMILES>  (31) 
COc1ccc2c(=O)c3c(OC)c(OC)c(OC)cc3oc2c1

>  <Energy>  (31) 
60.421142930603644

>  <Genealogy>  (31) 
COc1ccc2c(=O)c3c(OC)c(OC)c(OC)cc3oc2c1 (3D coordinates assigned)
COc1ccc2c(=O)c3c(OC)c(OC)c(OC)cc3oc2c1 (optimized conformer: 60.421142930603644 kcal/mol)

>  <smiles>  (31) 
COc1ccc2c(=O)c3c(OC)c(OC)c(OC)cc3oc2c1

>  <score_type>  (31) 
oracle

>  <origin>  (31) 
adg

>  <m_score__min__energy>  (31) 
-7.2699999999999996

>  <m_primary>  (31) 
energy

$$$$
31:0
     RDKit          3D

 57 62  0  0  0  0  0  0  0  0999 V2000
   -2.5470   25.4340  -26.0890 Br  0  0  0  0  0  0  0  0  0  0  0  0
   -2.9250   24.5620  -27.7470 C   0  0  0  0  0  0  0  0  0  0  0  0
   -1.8950   23.9970  -28.4840 C   0  0  0  0  0  0  0  0  0  0  0  0
   -2.1700   23.3500  -29.6850 C   0  0  0  0  0  0  0  0  0  0  0  0
   -3.4960   23.2000  -30.1710 C   0  0  0  0  0  0  0  0  0  0  0  0
   -4.5320   23.9080  -29.4680 C   0  0  0  0  0  0  0  0  0  0  0  0
   -4.2260   24.5260  -28.2370 C   0  0  0  0  0  0  0  0  0  0  0  0
   -5.9800   24.0500  -29.9030 C   0  0  0  0  0  0  0  0  0  0  0  0
   -6.2230   23.9620  -31.4020 C   0  0  0  0  0  0  0  0  0  0  0  0
   -6.2210   22.5210  -31.7950 C   0  0  0  0  0  0  0  0  0  0  0  0
   -7.4350   21.8730  -32.0790 C   0  0  0  0  0  0  0  0  0  0  0  0
   -7.4590   20.4980  -32.3010 C   0  0  0  0  0  0  0  0  0  0  0  0
   -9.1040   19.6080  -32.6880 Br  0  0  0  0  0  0  0  0  0  0  0  0
   -6.2700   19.7790  -32.2230 C   0  0  0  0  0  0  0  0  0  0  0  0
   -5.1080   20.4230  -31.9430 N   0  0  0  0  0  0  0  0  0  0  0  0
   -5.0370   21.7640  -31.7150 C   0  0  0  0  0  0  0  0  0  0  0  0
   -3.6820   22.4510  -31.5120 C   0  0  2  0  0  0  0  0  0  0  0  0
   -2.5250   21.5500  -31.7930 N   0  0  0  0  0  0  0  0  0  0  0  0
   -2.3880   21.1290  -33.1990 C   0  0  0  0  0  0  0  0  0  0  0  0
   -0.9810   20.5590  -33.4190 C   0  0  0  0  0  0  0  0  0  0  0  0
   -0.7330   19.4520  -32.4730 N   0  0  0  0  0  0  0  0  0  0  0  0
    0.5530   18.7640  -32.7250 C   0  0  0  0  0  0  0  0  0  0  0  0
    1.2640   18.3370  -31.4690 C   0  0  0  0  0  0  0  0  0  0  0  0
    0.7610   17.4210  -30.6050 N   0  0  0  0  0  0  0  0  0  0  0  0
    1.6120   17.2140  -29.5690 C   0  0  0  0  0  0  0  0  0  0  0  0
    1.3740   16.3240  -28.5190 C   0  0  0  0  0  0  0  0  0  0  0  0
    2.3410   16.2000  -27.5070 C   0  0  0  0  0  0  0  0  0  0  0  0
    3.5260   16.9630  -27.5540 C   0  0  0  0  0  0  0  0  0  0  0  0
    3.7550   17.8540  -28.6140 C   0  0  0  0  0  0  0  0  0  0  0  0
    2.7800   17.9570  -29.6050 C   0  0  0  0  0  0  0  0  0  0  0  0
    2.7770   18.9220  -30.9770 S   0  0  0  0  0  0  0  0  0  0  0  0
   -0.8770   19.8950  -31.0720 C   0  0  0  0  0  0  0  0  0  0  0  0
   -2.2930   20.4300  -30.8550 C   0  0  0  0  0  0  0  0  0  0  0  0
   -0.8593   24.0603  -28.1188 H   0  0  0  0  0  0  0  0  0  0  0  0
   -1.3358   22.9428  -30.2752 H   0  0  0  0  0  0  0  0  0  0  0  0
   -5.0342   24.9894  -27.6521 H   0  0  0  0  0  0  0  0  0  0  0  0
   -6.5599   23.2511  -29.4178 H   0  0  0  0  0  0  0  0  0  0  0  0
   -6.2877   25.0632  -29.6052 H   0  0  0  0  0  0  0  0  0  0  0  0
   -7.1957   24.4130  -31.6480 H   0  0  0  0  0  0  0  0  0  0  0  0
   -5.4348   24.5036  -31.9456 H   0  0  0  0  0  0  0  0  0  0  0  0
   -8.3686   22.4528  -32.1261 H   0  0  0  0  0  0  0  0  0  0  0  0
   -6.2716   18.6914  -32.3878 H   0  0  0  0  0  0  0  0  0  0  0  0
   -3.6974   23.2436  -32.2746 H   0  0  0  0  0  0  0  0  0  0  0  0
   -3.1377   20.3569  -33.4268 H   0  0  0  0  0  0  0  0  0  0  0  0
   -2.5447   21.9934  -33.8610 H   0  0  0  0  0  0  0  0  0  0  0  0
   -0.8966   20.1838  -34.4496 H   0  0  0  0  0  0  0  0  0  0  0  0
   -0.2384   21.3527  -33.2500 H   0  0  0  0  0  0  0  0  0  0  0  0
    0.3554   17.8695  -33.3340 H   0  0  0  0  0  0  0  0  0  0  0  0
    1.2084   19.4830  -33.2382 H   0  0  0  0  0  0  0  0  0  0  0  0
    0.4477   15.7318  -28.4850 H   0  0  0  0  0  0  0  0  0  0  0  0
    2.1725   15.5032  -26.6727 H   0  0  0  0  0  0  0  0  0  0  0  0
    4.2752   16.8593  -26.7553 H   0  0  0  0  0  0  0  0  0  0  0  0
    4.6763   18.4531  -28.6614 H   0  0  0  0  0  0  0  0  0  0  0  0
   -0.6979   19.0448  -30.3974 H   0  0  0  0  0  0  0  0  0  0  0  0
   -0.1461   20.6890  -30.8593 H   0  0  0  0  0  0  0  0  0  0  0  0
   -3.0241   19.6304  -31.0450 H   0  0  0  0  0  0  0  0  0  0  0  0
   -2.4072   20.7793  -29.8182 H   0  0  0  0  0  0  0  0  0  0  0  0
  1  2  1  0
  2  3  2  0
  3  4  1  0
  4  5  2  0
  5  6  1  0
  6  7  2  0
  6  8  1  0
  8  9  1  0
  9 10  1  0
 10 11  2  0
 11 12  1  0
 12 13  1  0
 12 14  2  0
 14 15  1  0
 15 16  2  0
 16 17  1  0
 17 18  1  0
 18 19  1  0
 19 20  1  0
 20 21  1  0
 21 22  1  0
 22 23  1  0
 23 24  2  0
 24 25  1  0
 25 26  2  0
 26 27  1  0
 27 28  2  0
 28 29  1  0
 29 30  2  0
 30 31  1  0
 21 32  1  0
 32 33  1  0
  7  2  1  0
 16 10  1  0
 33 18  1  0
 17  5  1  0
 31 23  1  0
 30 25  1  0
  3 34  1  0
  4 35  1  0
  7 36  1  0
  8 37  1  0
  8 38  1  0
  9 39  1  0
  9 40  1  0
 11 41  1  0
 14 42  1  0
 17 43  1  6
 19 44  1  0
 19 45  1  0
 20 46  1  0
 20 47  1  0
 22 48  1  0
 22 49  1  0
 26 50  1  0
 27 51  1  0
 28 52  1  0
 29 53  1  0
 32 54  1  0
 32 55  1  0
 33 56  1  0
 33 57  1  0
M  END
>  <UniqueID>  (32) 
31

>  <SMILES>  (32) 
Brc1ccc2c(c1)CCc1cc(Br)cnc1[C@@H]2N1CCN(Cc2nc3ccccc3s2)CC1

>  <Energy>  (32) 
127.26032878734566

>  <Genealogy>  (32) 
Brc1ccc2c(c1)CCc1cc(Br)cnc1[C@@H]2N1CCN(Cc2nc3ccccc3s2)CC1 (chirality)
Brc1ccc2c(c1)CCc1cc(Br)cnc1[C@@H]2N1CCN(Cc2nc3ccccc3s2)CC1 (3D coordinates assigned)
Brc1ccc2c(c1)CCc1cc(Br)cnc1[C@@H]2N1CCN(Cc2nc3ccccc3s2)CC1 (nonaromatic ring conformer: 127.26032878734566 kcal/mol)

>  <smiles>  (32) 
Brc1ccc2c(c1)CCc1cc(Br)cnc1C2N1CCN(Cc2nc3ccccc3s2)CC1

>  <score_type>  (32) 
oracle

>  <origin>  (32) 
adg

>  <m_score__min__energy>  (32) 
-9.0099999999999998

>  <m_primary>  (32) 
energy

$$$$
32:0
     RDKit          3D

 43 46  0  0  0  0  0  0  0  0999 V2000
    2.9550   20.1990  -34.5720 C   0  0  0  0  0  0  0  0  0  0  0  0
    1.5030   20.3390  -34.2260 C   0  0  0  0  0  0  0  0  0  0  0  0
    0.5750   20.7060  -35.2100 C   0  0  0  0  0  0  0  0  0  0  0  0
   -0.7830   20.7940  -34.9000 C   0  0  0  0  0  0  0  0  0  0  0  0
   -1.2370   20.5060  -33.6050 C   0  0  0  0  0  0  0  0  0  0  0  0
   -2.6450   20.5850  -33.3190 N   0  0  0  0  0  0  0  0  0  0  0  0
   -3.1220   21.6610  -32.6100 C   0  0  0  0  0  0  0  0  0  0  0  0
   -4.4490   21.7680  -32.3140 N   0  0  0  0  0  0  0  0  0  0  0  0
   -5.3060   20.7970  -32.7130 C   0  0  0  0  0  0  0  0  0  0  0  0
   -4.8480   19.7070  -33.4300 C   0  0  0  0  0  0  0  0  0  0  0  0
   -6.1300   18.6800  -33.8340 S   0  0  0  0  0  0  0  0  0  0  0  0
   -7.2810   19.6570  -33.0720 C   0  0  0  0  0  0  0  0  0  0  0  0
   -8.6170   19.4470  -33.0250 N   0  0  0  0  0  0  0  0  0  0  0  0
   -9.4070   20.3610  -32.3930 C   0  0  0  0  0  0  0  0  0  0  0  0
   -8.8540   21.4660  -31.8080 N   0  0  0  0  0  0  0  0  0  0  0  0
   -7.5090   21.6940  -31.8330 C   0  0  0  0  0  0  0  0  0  0  0  0
   -6.9710   22.8550  -31.1850 N   0  0  0  0  0  0  0  0  0  0  0  0
   -7.1110   23.0130  -29.7370 C   0  0  0  0  0  0  0  0  0  0  0  0
   -6.5440   23.9890  -32.0000 C   0  0  0  0  0  0  0  0  0  0  0  0
   -6.6890   20.7700  -32.4960 C   0  0  0  0  0  0  0  0  0  0  0  0
   -3.4980   19.5940  -33.7380 C   0  0  0  0  0  0  0  0  0  0  0  0
   -3.0750   18.6040  -34.3960 O   0  0  0  0  0  0  0  0  0  0  0  0
   -0.3090   20.1390  -32.6040 C   0  0  0  0  0  0  0  0  0  0  0  0
   -0.7630   19.8170  -31.2060 C   0  0  0  0  0  0  0  0  0  0  0  0
    1.0540   20.0380  -32.9310 C   0  0  0  0  0  0  0  0  0  0  0  0
    3.5484   20.1418  -33.6475 H   0  0  0  0  0  0  0  0  0  0  0  0
    3.1048   19.2822  -35.1612 H   0  0  0  0  0  0  0  0  0  0  0  0
    3.2772   21.0702  -35.1612 H   0  0  0  0  0  0  0  0  0  0  0  0
    0.9186   20.9258  -36.2316 H   0  0  0  0  0  0  0  0  0  0  0  0
   -1.5023   21.0914  -35.6772 H   0  0  0  0  0  0  0  0  0  0  0  0
   -2.4257   22.4449  -32.2774 H   0  0  0  0  0  0  0  0  0  0  0  0
   -9.0410   18.6040  -33.4720 H   0  0  0  0  0  0  0  0  0  0  0  0
  -10.4957   20.2084  -32.3536 H   0  0  0  0  0  0  0  0  0  0  0  0
   -6.4655   22.2845  -29.2246 H   0  0  0  0  0  0  0  0  0  0  0  0
   -6.8142   24.0323  -29.4490 H   0  0  0  0  0  0  0  0  0  0  0  0
   -8.1586   22.8410  -29.4490 H   0  0  0  0  0  0  0  0  0  0  0  0
   -6.2328   24.8154  -31.3441 H   0  0  0  0  0  0  0  0  0  0  0  0
   -5.6982   23.6864  -32.6349 H   0  0  0  0  0  0  0  0  0  0  0  0
   -7.3793   24.3194  -32.6349 H   0  0  0  0  0  0  0  0  0  0  0  0
   -0.0877   20.2960  -30.4817 H   0  0  0  0  0  0  0  0  0  0  0  0
   -1.7862   20.1924  -31.0571 H   0  0  0  0  0  0  0  0  0  0  0  0
   -0.7470   18.7272  -31.0571 H   0  0  0  0  0  0  0  0  0  0  0  0
    1.7759   19.7199  -32.1644 H   0  0  0  0  0  0  0  0  0  0  0  0
  1  2  1  0
  2  3  2  0
  3  4  1  0
  4  5  2  0
  5  6  1  0
  6  7  1  0
  7  8  2  0
  8  9  1  0
  9 10  2  0
 10 11  1  0
 11 12  1  0
 12 13  2  0
 13 14  1  0
 14 15  2  0
 15 16  1  0
 16 17  1  0
 17 18  1  0
 17 19  1  0
 16 20  2  0
 10 21  1  0
 21 22  2  0
  5 23  1  0
 23 24  1  0
 23 25  2  0
 25  2  1  0
 21  6  1  0
 20  9  1  0
 20 12  1  0
  1 26  1  0
  1 27  1  0
  1 28  1  0
  3 29  1  0
  4 30  1  0
  7 31  1  0
 13 32  1  0
 14 33  1  0
 18 34  1  0
 18 35  1  0
 18 36  1  0
 19 37  1  0
 19 38  1  0
 19 39  1  0
 24 40  1  0
 24 41  1  0
 24 42  1  0
 25 43  1  0
M  CHG  1  13   1
M  END
>  <UniqueID>  (33) 
32

>  <SMILES>  (33) 
Cc1ccc(-n2cnc3c(sc4[nH+]cnc(N(C)C)c43)c2=O)c(C)c1

>  <Energy>  (33) 
98.50964541343896

>  <Genealogy>  (33) 
Cc1ccc(-n2cnc3c(sc4[nH+]cnc(N(C)C)c43)c2=O)c(C)c1 (protonated)
Cc1ccc(-n2cnc3c(sc4[nH+]cnc(N(C)C)c43)c2=O)c(C)c1 (3D coordinates assigned)
Cc1ccc(-n2cnc3c(sc4[nH+]cnc(N(C)C)c43)c2=O)c(C)c1 (optimized conformer: 98.50964541343896 kcal/mol)

>  <smiles>  (33) 
Cc1ccc(-n2cnc3c(sc4ncnc(N(C)C)c43)c2=O)c(C)c1

>  <score_type>  (33) 
oracle

>  <origin>  (33) 
adg

>  <m_score__min__energy>  (33) 
-7.0999999999999996

>  <m_primary>  (33) 
energy

$$$$
33:0
     RDKit          3D

 47 49  0  0  0  0  0  0  0  0999 V2000
   -5.7820   25.7540  -30.1280 C   0  0  0  0  0  0  0  0  0  0  0  0
   -6.8140   24.9220  -29.9680 C   0  0  0  0  0  0  0  0  0  0  0  0
   -6.6830   23.4490  -30.2340 C   0  0  0  0  0  0  0  0  0  0  0  0
   -5.4760   23.1770  -31.0540 N   0  0  0  0  0  0  0  0  0  0  0  0
   -5.8210   22.5250  -32.3380 C   0  0  0  0  0  0  0  0  0  0  0  0
   -6.8090   21.4070  -32.1300 C   0  0  0  0  0  0  0  0  0  0  0  0
   -8.1900   21.6630  -32.1190 C   0  0  0  0  0  0  0  0  0  0  0  0
   -9.0990   20.6140  -31.9570 C   0  0  0  0  0  0  0  0  0  0  0  0
   -8.6370   19.3030  -31.8060 C   0  0  0  0  0  0  0  0  0  0  0  0
   -7.2640   19.0400  -31.8180 C   0  0  0  0  0  0  0  0  0  0  0  0
   -6.3520   20.0880  -31.9790 C   0  0  0  0  0  0  0  0  0  0  0  0
   -4.5040   22.3510  -30.3060 C   0  0  0  0  0  0  0  0  0  0  0  0
   -3.7370   23.2060  -29.3300 C   0  0  0  0  0  0  0  0  0  0  0  0
   -2.5070   23.7640  -29.7060 C   0  0  0  0  0  0  0  0  0  0  0  0
   -1.7990   24.5800  -28.8190 C   0  0  0  0  0  0  0  0  0  0  0  0
   -2.3090   24.8490  -27.5360 C   0  0  0  0  0  0  0  0  0  0  0  0
   -1.5600   25.7190  -26.5940 C   0  0  0  0  0  0  0  0  0  0  0  0
   -1.5900   25.4680  -25.2090 C   0  0  0  0  0  0  0  0  0  0  0  0
   -0.8840   26.2870  -24.3250 C   0  0  0  0  0  0  0  0  0  0  0  0
   -0.1420   27.3670  -24.8100 C   0  0  0  0  0  0  0  0  0  0  0  0
   -0.1040   27.6280  -26.1810 C   0  0  0  0  0  0  0  0  0  0  0  0
   -0.8080   26.8090  -27.0710 C   0  0  0  0  0  0  0  0  0  0  0  0
   -3.5410   24.2830  -27.1620 C   0  0  0  0  0  0  0  0  0  0  0  0
   -4.2490   23.4700  -28.0510 C   0  0  0  0  0  0  0  0  0  0  0  0
   -5.9052   26.8283  -29.9262 H   0  0  0  0  0  0  0  0  0  0  0  0
   -4.8086   25.3651  -30.4616 H   0  0  0  0  0  0  0  0  0  0  0  0
   -7.7819   25.3240  -29.6339 H   0  0  0  0  0  0  0  0  0  0  0  0
   -6.5990   22.9138  -29.2767 H   0  0  0  0  0  0  0  0  0  0  0  0
   -7.5722   23.1048  -30.7825 H   0  0  0  0  0  0  0  0  0  0  0  0
   -6.2616   23.2728  -33.0137 H   0  0  0  0  0  0  0  0  0  0  0  0
   -4.9031   22.1036  -32.7737 H   0  0  0  0  0  0  0  0  0  0  0  0
   -8.5574   22.6929  -32.2383 H   0  0  0  0  0  0  0  0  0  0  0  0
  -10.1795   20.8200  -31.9483 H   0  0  0  0  0  0  0  0  0  0  0  0
   -9.3538   18.4786  -31.6778 H   0  0  0  0  0  0  0  0  0  0  0  0
   -6.9008   18.0083  -31.7008 H   0  0  0  0  0  0  0  0  0  0  0  0
   -5.2723   19.8781  -31.9874 H   0  0  0  0  0  0  0  0  0  0  0  0
   -5.0423   21.5652  -29.7558 H   0  0  0  0  0  0  0  0  0  0  0  0
   -3.7982   21.8957  -31.0163 H   0  0  0  0  0  0  0  0  0  0  0  0
   -2.0964   23.5583  -30.7056 H   0  0  0  0  0  0  0  0  0  0  0  0
   -0.8365   25.0147  -29.1264 H   0  0  0  0  0  0  0  0  0  0  0  0
   -2.1738   24.6206  -24.8202 H   0  0  0  0  0  0  0  0  0  0  0  0
   -0.9122   26.0814  -23.2448 H   0  0  0  0  0  0  0  0  0  0  0  0
    0.4121   28.0115  -24.1118 H   0  0  0  0  0  0  0  0  0  0  0  0
    0.4801   28.4786  -26.5622 H   0  0  0  0  0  0  0  0  0  0  0  0
   -0.7734   27.0185  -28.1503 H   0  0  0  0  0  0  0  0  0  0  0  0
   -3.9509   24.4821  -26.1608 H   0  0  0  0  0  0  0  0  0  0  0  0
   -5.2123   23.0350  -27.7464 H   0  0  0  0  0  0  0  0  0  0  0  0
  1  2  2  0
  2  3  1  0
  3  4  1  0
  4  5  1  0
  5  6  1  0
  6  7  2  0
  7  8  1  0
  8  9  2  0
  9 10  1  0
 10 11  2  0
  4 12  1  0
 12 13  1  0
 13 14  2  0
 14 15  1  0
 15 16  2  0
 16 17  1  0
 17 18  2  0
 18 19  1  0
 19 20  2  0
 20 21  1  0
 21 22  2  0
 16 23  1  0
 23 24  2  0
 11  6  1  0
 24 13  1  0
 22 17  1  0
  1 25  1  0
  1 26  1  0
  2 27  1  0
  3 28  1  0
  3 29  1  0
  5 30  1  0
  5 31  1  0
  7 32  1  0
  8 33  1  0
  9 34  1  0
 10 35  1  0
 11 36  1  0
 12 37  1  0
 12 38  1  0
 14 39  1  0
 15 40  1  0
 18 41  1  0
 19 42  1  0
 20 43  1  0
 21 44  1  0
 22 45  1  0
 23 46  1  0
 24 47  1  0
M  END
>  <UniqueID>  (34) 
33

>  <SMILES>  (34) 
C=CCN(Cc1ccccc1)Cc1ccc(-c2ccccc2)cc1

>  <Energy>  (34) 
52.58724193717766

>  <Genealogy>  (34) 
C=CCN(Cc1ccccc1)Cc1ccc(-c2ccccc2)cc1 (3D coordinates assigned)
C=CCN(Cc1ccccc1)Cc1ccc(-c2ccccc2)cc1 (optimized conformer: 52.58724193717766 kcal/mol)

>  <smiles>  (34) 
C=CCN(Cc1ccccc1)Cc1ccc(-c2ccccc2)cc1

>  <score_type>  (34) 
oracle

>  <origin>  (34) 
adg

>  <m_score__min__energy>  (34) 
-8.3200000000000003

>  <m_primary>  (34) 
energy

$$$$
34:0
     RDKit          3D

 42 44  0  0  0  0  0  0  0  0999 V2000
   -3.4370   24.1570  -30.3070 C   0  0  0  0  0  0  0  0  0  0  0  0
   -4.3750   25.2270  -30.6570 N   0  0  0  0  0  0  0  0  0  0  0  0
   -5.7630   24.7410  -30.7190 C   0  0  0  0  0  0  0  0  0  0  0  0
   -6.1070   24.1230  -32.0840 C   0  0  0  0  0  0  0  0  0  0  0  0
   -6.8700   22.8800  -31.9000 N   0  0  0  0  0  0  0  0  0  0  0  0
   -8.1600   22.9170  -31.1960 C   0  0  0  0  0  0  0  0  0  0  0  0
   -9.1840   22.0730  -31.9550 C   0  0  0  0  0  0  0  0  0  0  0  0
   -8.6660   20.7620  -32.1830 O   0  0  0  0  0  0  0  0  0  0  0  0
   -7.3210   20.5470  -32.5050 C   0  0  0  0  0  0  0  0  0  0  0  0
   -6.9020   19.2830  -32.9310 C   0  0  0  0  0  0  0  0  0  0  0  0
   -5.5580   19.0570  -33.2670 C   0  0  0  0  0  0  0  0  0  0  0  0
   -5.1020   17.7200  -33.7090 C   0  0  0  0  0  0  0  0  0  0  0  0
   -4.5420   17.4550  -34.9480 C   0  0  0  0  0  0  0  0  0  0  0  0
   -4.2260   16.1110  -34.9630 C   0  0  0  0  0  0  0  0  0  0  0  0
   -4.6170   15.6080  -33.7400 C   0  0  0  0  0  0  0  0  0  0  0  0
   -4.4620   14.2350  -33.3350 C   0  0  0  0  0  0  0  0  0  0  0  0
   -4.3360   13.1300  -33.0100 N   0  0  0  0  0  0  0  0  0  0  0  0
   -5.1660   16.5790  -32.9790 N   0  0  0  0  0  0  0  0  0  0  0  0
   -5.7160   16.4130  -31.6310 C   0  0  0  0  0  0  0  0  0  0  0  0
   -4.6320   20.1030  -33.1340 C   0  0  0  0  0  0  0  0  0  0  0  0
   -5.0450   21.3660  -32.6990 C   0  0  0  0  0  0  0  0  0  0  0  0
   -6.3950   21.6000  -32.3810 C   0  0  0  0  0  0  0  0  0  0  0  0
   -3.3656   24.0755  -29.2123 H   0  0  0  0  0  0  0  0  0  0  0  0
   -3.7960   23.2041  -30.7230 H   0  0  0  0  0  0  0  0  0  0  0  0
   -2.4453   24.3882  -30.7230 H   0  0  0  0  0  0  0  0  0  0  0  0
   -4.0950   25.6330  -31.5800 H   0  0  0  0  0  0  0  0  0  0  0  0
   -5.9052   23.9778  -29.9397 H   0  0  0  0  0  0  0  0  0  0  0  0
   -6.4277   25.6037  -30.5643 H   0  0  0  0  0  0  0  0  0  0  0  0
   -6.7097   24.8369  -32.6647 H   0  0  0  0  0  0  0  0  0  0  0  0
   -5.1741   23.8957  -32.6208 H   0  0  0  0  0  0  0  0  0  0  0  0
   -8.0342   22.5138  -30.1803 H   0  0  0  0  0  0  0  0  0  0  0  0
   -8.5147   23.9567  -31.1387 H   0  0  0  0  0  0  0  0  0  0  0  0
  -10.1077   22.0013  -31.3621 H   0  0  0  0  0  0  0  0  0  0  0  0
   -9.3972   22.5496  -32.9232 H   0  0  0  0  0  0  0  0  0  0  0  0
   -7.6295   18.4611  -33.0033 H   0  0  0  0  0  0  0  0  0  0  0  0
   -4.3803   18.1762  -35.7627 H   0  0  0  0  0  0  0  0  0  0  0  0
   -3.7561   15.5529  -35.7862 H   0  0  0  0  0  0  0  0  0  0  0  0
   -4.9403   16.6471  -30.8871 H   0  0  0  0  0  0  0  0  0  0  0  0
   -6.5698   17.0935  -31.4970 H   0  0  0  0  0  0  0  0  0  0  0  0
   -6.0508   15.3738  -31.4970 H   0  0  0  0  0  0  0  0  0  0  0  0
   -3.5728   19.9279  -33.3739 H   0  0  0  0  0  0  0  0  0  0  0  0
   -4.3111   22.1800  -32.6051 H   0  0  0  0  0  0  0  0  0  0  0  0
  1  2  1  0
  2  3  1  0
  3  4  1  0
  4  5  1  0
  5  6  1  0
  6  7  1  0
  7  8  1  0
  8  9  1  0
  9 10  2  0
 10 11  1  0
 11 12  1  0
 12 13  2  0
 13 14  1  0
 14 15  2  0
 15 16  1  0
 16 17  3  0
 15 18  1  0
 18 19  1  0
 11 20  2  0
 20 21  1  0
 21 22  2  0
 22  5  1  0
 22  9  1  0
 18 12  1  0
  1 23  1  0
  1 24  1  0
  1 25  1  0
  2 26  1  0
  3 27  1  0
  3 28  1  0
  4 29  1  0
  4 30  1  0
  6 31  1  0
  6 32  1  0
  7 33  1  0
  7 34  1  0
 10 35  1  0
 13 36  1  0
 14 37  1  0
 19 38  1  0
 19 39  1  0
 19 40  1  0
 20 41  1  0
 21 42  1  0
M  END
>  <UniqueID>  (35) 
34

>  <SMILES>  (35) 
CNCCN1CCOc2cc(-c3ccc(C#N)n3C)ccc21

>  <Energy>  (35) 
73.40049034923355

>  <Genealogy>  (35) 
CNCCN1CCOc2cc(-c3ccc(C#N)n3C)ccc21 (3D coordinates assigned)
CNCCN1CCOc2cc(-c3ccc(C#N)n3C)ccc21 (nonaromatic ring conformer: 73.40049034923355 kcal/mol)

>  <smiles>  (35) 
CNCCN1CCOc2cc(-c3ccc(C#N)n3C)ccc21

>  <score_type>  (35) 
oracle

>  <origin>  (35) 
adg

>  <m_score__min__energy>  (35) 
-7.2699999999999996

>  <m_primary>  (35) 
energy

$$$$
35:0
     RDKit          3D

 38 40  0  0  0  0  0  0  0  0999 V2000
   -9.8840   21.7140  -31.2240 C   0  0  0  0  0  0  0  0  0  0  0  0
   -9.7090   20.6510  -32.3050 C   0  0  0  0  0  0  0  0  0  0  0  0
   -8.3610   19.9670  -32.1950 C   0  0  0  0  0  0  0  0  0  0  0  0
   -8.3540   18.5810  -31.9580 C   0  0  0  0  0  0  0  0  0  0  0  0
   -7.1570   17.8820  -31.8510 C   0  0  0  0  0  0  0  0  0  0  0  0
   -5.9450   18.5520  -31.9710 C   0  0  0  0  0  0  0  0  0  0  0  0
   -5.9100   19.9400  -32.1740 C   0  0  0  0  0  0  0  0  0  0  0  0
   -7.1190   20.6610  -32.2970 C   0  0  0  0  0  0  0  0  0  0  0  0
   -7.0320   22.1580  -32.4600 C   0  0  0  0  0  0  0  0  0  0  0  0
   -6.5120   22.7770  -31.1630 C   0  0  0  0  0  0  0  0  0  0  0  0
   -5.0030   22.7820  -31.0340 C   0  0  0  0  0  0  0  0  0  0  0  0
   -4.4460   23.8380  -30.2860 C   0  0  0  0  0  0  0  0  0  0  0  0
   -3.0690   23.9550  -30.0920 C   0  0  0  0  0  0  0  0  0  0  0  0
   -2.5900   25.0400  -29.3450 O   0  0  0  0  0  0  0  0  0  0  0  0
   -1.8370   24.9190  -28.1410 C   0  0  0  0  0  0  0  0  0  0  0  0
   -2.2200   22.9900  -30.6460 C   0  0  0  0  0  0  0  0  0  0  0  0
   -2.7470   21.9220  -31.3700 C   0  0  0  0  0  0  0  0  0  0  0  0
   -4.1360   21.7810  -31.5700 C   0  0  0  0  0  0  0  0  0  0  0  0
   -4.5890   20.5850  -32.3420 C   0  0  0  0  0  0  0  0  0  0  0  0
   -3.7790   20.0410  -33.1430 O   0  0  0  0  0  0  0  0  0  0  0  0
   -9.8067   21.2446  -30.2322 H   0  0  0  0  0  0  0  0  0  0  0  0
   -9.0995   22.4777  -31.3303 H   0  0  0  0  0  0  0  0  0  0  0  0
  -10.8719   22.1859  -31.3303 H   0  0  0  0  0  0  0  0  0  0  0  0
  -10.5027   19.8971  -32.1974 H   0  0  0  0  0  0  0  0  0  0  0  0
   -9.7684   21.1429  -33.2871 H   0  0  0  0  0  0  0  0  0  0  0  0
   -9.3079   18.0429  -31.8559 H   0  0  0  0  0  0  0  0  0  0  0  0
   -7.1690   16.7969  -31.6711 H   0  0  0  0  0  0  0  0  0  0  0  0
   -5.0029   17.9879  -31.9061 H   0  0  0  0  0  0  0  0  0  0  0  0
   -6.3440   22.3987  -33.2839 H   0  0  0  0  0  0  0  0  0  0  0  0
   -8.0291   22.5628  -32.6881 H   0  0  0  0  0  0  0  0  0  0  0  0
   -6.8652   23.8175  -31.1124 H   0  0  0  0  0  0  0  0  0  0  0  0
   -6.8955   22.1540  -30.3416 H   0  0  0  0  0  0  0  0  0  0  0  0
   -5.1147   24.5907  -29.8429 H   0  0  0  0  0  0  0  0  0  0  0  0
   -2.5083   25.0269  -27.2763 H   0  0  0  0  0  0  0  0  0  0  0  0
   -1.3533   23.9316  -28.1087 H   0  0  0  0  0  0  0  0  0  0  0  0
   -1.0683   25.7051  -28.1087 H   0  0  0  0  0  0  0  0  0  0  0  0
   -1.1318   23.0749  -30.5094 H   0  0  0  0  0  0  0  0  0  0  0  0
   -2.0640   21.1719  -31.7952 H   0  0  0  0  0  0  0  0  0  0  0  0
  1  2  1  0
  2  3  1  0
  3  4  2  0
  4  5  1  0
  5  6  2  0
  6  7  1  0
  7  8  2  0
  8  9  1  0
  9 10  1  0
 10 11  1  0
 11 12  2  0
 12 13  1  0
 13 14  1  0
 14 15  1  0
 13 16  2  0
 16 17  1  0
 17 18  2  0
 18 19  1  0
 19 20  2  0
  8  3  1  0
 18 11  1  0
 19  7  1  0
  1 21  1  0
  1 22  1  0
  1 23  1  0
  2 24  1  0
  2 25  1  0
  4 26  1  0
  5 27  1  0
  6 28  1  0
  9 29  1  0
  9 30  1  0
 10 31  1  0
 10 32  1  0
 12 33  1  0
 15 34  1  0
 15 35  1  0
 15 36  1  0
 16 37  1  0
 17 38  1  0
M  END
>  <UniqueID>  (36) 
35

>  <SMILES>  (36) 
CCc1cccc2c1CCc1cc(OC)ccc1C2=O

>  <Energy>  (36) 
56.415516697543026

>  <Genealogy>  (36) 
CCc1cccc2c1CCc1cc(OC)ccc1C2=O (3D coordinates assigned)
CCc1cccc2c1CCc1cc(OC)ccc1C2=O (nonaromatic ring conformer: 56.415516697543026 kcal/mol)

>  <smiles>  (36) 
CCc1cccc2c1CCc1cc(OC)ccc1C2=O

>  <score_type>  (36) 
oracle

>  <origin>  (36) 
adg

>  <m_score__min__energy>  (36) 
-6.9500000000000002

>  <m_primary>  (36) 
energy

$$$$
36:0
     RDKit          3D

 37 38  0  0  0  0  0  0  0  0999 V2000
   -2.4204   22.7162  -28.7941 H   0  0  0  0  0  0  0  0  0  0  0  0
   -2.8070   23.6910  -28.4620 C   0  0  0  0  0  0  0  0  0  0  0  0
   -2.6170   24.8680  -29.3370 C   0  0  0  0  0  0  0  0  0  0  0  0
   -1.6260   25.6270  -29.1690 O   0  0  0  0  0  0  0  0  0  0  0  0
   -3.5110   25.1300  -30.4260 N   0  0  0  0  0  0  0  0  0  0  0  0
   -4.7760   24.4890  -30.6530 C   0  0  0  0  0  0  0  0  0  0  0  0
   -5.9790   25.0450  -30.1820 C   0  0  0  0  0  0  0  0  0  0  0  0
   -5.9622   25.9896  -29.6186 H   0  0  0  0  0  0  0  0  0  0  0  0
   -7.1960   24.4020  -30.4270 C   0  0  0  0  0  0  0  0  0  0  0  0
   -8.1309   24.8331  -30.0395 H   0  0  0  0  0  0  0  0  0  0  0  0
   -7.2300   23.2060  -31.1670 C   0  0  0  0  0  0  0  0  0  0  0  0
   -8.4250   22.5210  -31.4360 O   0  0  0  0  0  0  0  0  0  0  0  0
   -8.4920   21.1880  -31.9310 C   0  0  0  0  0  0  0  0  0  0  0  0
   -8.5274   20.4845  -31.0861 H   0  0  0  0  0  0  0  0  0  0  0  0
   -9.3972   21.0698  -32.5447 H   0  0  0  0  0  0  0  0  0  0  0  0
   -7.6032   20.9796  -32.5447 H   0  0  0  0  0  0  0  0  0  0  0  0
   -6.0330   22.6750  -31.6620 C   0  0  0  0  0  0  0  0  0  0  0  0
   -6.0506   21.7460  -32.2508 H   0  0  0  0  0  0  0  0  0  0  0  0
   -4.8150   23.3160  -31.4140 C   0  0  0  0  0  0  0  0  0  0  0  0
   -3.8829   22.8956  -31.8195 H   0  0  0  0  0  0  0  0  0  0  0  0
   -3.4320   23.7680  -27.2810 C   0  0  0  0  0  0  0  0  0  0  0  0
   -4.1340   22.9676  -27.0042 H   0  0  0  0  0  0  0  0  0  0  0  0
   -3.2200   24.8820  -26.3320 C   0  0  0  0  0  0  0  0  0  0  0  0
   -4.2340   25.3560  -25.7480 O   0  0  0  0  0  0  0  0  0  0  0  0
   -1.9030   25.4540  -26.1140 N   0  0  2  0  0  0  0  0  0  0  0  0
   -1.4640   25.8050  -26.9980 H   0  0  0  0  0  0  0  0  0  0  0  0
   -1.0080   24.5650  -25.3540 C   0  0  0  0  0  0  0  0  0  0  0  0
   -1.4858   23.6241  -25.0434 H   0  0  0  0  0  0  0  0  0  0  0  0
   -0.1052   24.1734  -25.8456 H   0  0  0  0  0  0  0  0  0  0  0  0
   -0.8510   25.5690  -24.2190 C   0  0  1  0  0  0  0  0  0  0  0  0
   -1.0199   25.3053  -23.1645 H   0  0  0  0  0  0  0  0  0  0  0  0
    0.4960   26.1330  -24.1170 N   0  0  0  0  0  0  0  0  0  0  0  0
    0.3990   27.1380  -23.8470 H   0  0  0  0  0  0  0  0  0  0  0  0
    1.0330   25.6610  -23.3530 H   0  0  0  0  0  0  0  0  0  0  0  0
   -1.8020   26.4450  -25.0250 C   0  0  0  0  0  0  0  0  0  0  0  0
   -2.7585   26.6368  -24.5167 H   0  0  0  0  0  0  0  0  0  0  0  0
   -1.5006   27.4746  -25.2682 H   0  0  0  0  0  0  0  0  0  0  0  0
  1  2  1  0
  2  3  1  0
  3  4  2  0
  3  5  1  0
  5  6  1  0
  6  7  2  0
  7  8  1  0
  7  9  1  0
  9 10  1  0
  9 11  2  0
 11 12  1  0
 12 13  1  0
 13 14  1  0
 13 15  1  0
 13 16  1  0
 11 17  1  0
 17 18  1  0
 17 19  2  0
 19 20  1  0
  2 21  2  0
 21 22  1  0
 21 23  1  0
 23 24  2  0
 23 25  1  0
 25 26  1  6
 25 27  1  0
 27 28  1  0
 27 29  1  0
 27 30  1  0
 30 31  1  1
 30 32  1  0
 32 33  1  0
 32 34  1  0
 30 35  1  0
 35 36  1  0
 35 37  1  0
 19  6  1  0
 35 25  1  0
M  CHG  2   5  -1  25   1
M  END
>  <UniqueID>  (37) 
36

>  <SMILES>  (37) 
COc1ccc([N-]C(=O)/C=C/C(=O)[NH+]2CC(N)C2)cc1

>  <Energy>  (37) 
114.49575444543378

>  <Genealogy>  (37) 
COc1ccc([N-]C(=O)C=CC(=O)[NH+]2CC(N)C2)cc1 (protonated)
COc1ccc([N-]C(=O)/C=C/C(=O)[NH+]2CC(N)C2)cc1 (cis-trans isomerization)
COc1ccc([N-]C(=O)/C=C/C(=O)[NH+]2CC(N)C2)cc1 (3D coordinates assigned)
COc1ccc([N-]C(=O)/C=C/C(=O)[NH+]2CC(N)C2)cc1 (nonaromatic ring conformer: 114.49575444543378 kcal/mol)

>  <smiles>  (37) 
COc1ccc(NC(=O)C=CC(=O)N2CC(N)C2)cc1

>  <score_type>  (37) 
oracle

>  <origin>  (37) 
adg

>  <m_score__min__energy>  (37) 
-8.5500000000000007

>  <m_primary>  (37) 
energy

$$$$
37:0
     RDKit          3D

 36 38  0  0  0  0  0  0  0  0999 V2000
   -1.5220   25.5770  -29.2990 O   0  0  0  0  0  0  0  0  0  0  0  0
   -2.5950   24.9210  -29.3310 C   0  0  0  0  0  0  0  0  0  0  0  0
   -2.7790   23.7780  -28.3680 C   0  0  0  0  0  0  0  0  0  0  0  0
   -1.4410   22.5440  -28.5320 S   0  0  0  0  0  0  0  0  0  0  0  0
   -2.2200   21.6540  -29.8780 C   0  0  0  0  0  0  0  0  0  0  0  0
   -1.6180   21.5950  -31.1340 C   0  0  0  0  0  0  0  0  0  0  0  0
   -2.2500   20.8970  -32.1590 C   0  0  0  0  0  0  0  0  0  0  0  0
   -3.4760   20.2620  -31.9070 C   0  0  0  0  0  0  0  0  0  0  0  0
   -4.1860   19.5070  -32.9680 C   0  0  0  0  0  0  0  0  0  0  0  0
   -3.5360   18.4960  -33.6980 C   0  0  0  0  0  0  0  0  0  0  0  0
   -4.2360   17.8050  -34.6910 C   0  0  0  0  0  0  0  0  0  0  0  0
   -5.5700   18.1210  -34.9510 C   0  0  0  0  0  0  0  0  0  0  0  0
   -6.1870   19.1290  -34.2090 C   0  0  0  0  0  0  0  0  0  0  0  0
   -5.4910   19.7910  -33.2470 N   0  0  0  0  0  0  0  0  0  0  0  0
   -4.0120   20.3500  -30.6570 N   0  0  0  0  0  0  0  0  0  0  0  0
   -3.4040   21.0210  -29.6760 N   0  0  0  0  0  0  0  0  0  0  0  0
   -3.5670   25.2360  -30.3370 N   0  0  0  0  0  0  0  0  0  0  0  0
   -4.7350   24.4680  -30.6510 C   0  0  0  0  0  0  0  0  0  0  0  0
   -5.9290   24.7350  -29.9690 C   0  0  0  0  0  0  0  0  0  0  0  0
   -7.0790   23.9870  -30.2420 C   0  0  0  0  0  0  0  0  0  0  0  0
   -7.0370   22.9560  -31.1860 C   0  0  0  0  0  0  0  0  0  0  0  0
   -8.6070   21.9340  -31.5570 Br  0  0  0  0  0  0  0  0  0  0  0  0
   -5.8380   22.6650  -31.8450 C   0  0  0  0  0  0  0  0  0  0  0  0
   -4.6880   23.4110  -31.5740 C   0  0  0  0  0  0  0  0  0  0  0  0
   -2.7783   24.1720  -27.3410 H   0  0  0  0  0  0  0  0  0  0  0  0
   -3.7348   23.2839  -28.5966 H   0  0  0  0  0  0  0  0  0  0  0  0
   -0.6544   22.0944  -31.3130 H   0  0  0  0  0  0  0  0  0  0  0  0
   -1.7925   20.8435  -33.1579 H   0  0  0  0  0  0  0  0  0  0  0  0
   -2.4842   18.2508  -33.4890 H   0  0  0  0  0  0  0  0  0  0  0  0
   -3.7357   17.0127  -35.2671 H   0  0  0  0  0  0  0  0  0  0  0  0
   -6.1282   17.5824  -35.7310 H   0  0  0  0  0  0  0  0  0  0  0  0
   -7.2383   19.3883  -34.4028 H   0  0  0  0  0  0  0  0  0  0  0  0
   -5.9624   25.5360  -29.2158 H   0  0  0  0  0  0  0  0  0  0  0  0
   -8.0176   24.2100  -29.7135 H   0  0  0  0  0  0  0  0  0  0  0  0
   -5.8003   21.8464  -32.5788 H   0  0  0  0  0  0  0  0  0  0  0  0
   -3.7441   23.1697  -32.0847 H   0  0  0  0  0  0  0  0  0  0  0  0
  1  2  2  0
  2  3  1  0
  3  4  1  0
  4  5  1  0
  5  6  2  0
  6  7  1  0
  7  8  2  0
  8  9  1  0
  9 10  2  0
 10 11  1  0
 11 12  2  0
 12 13  1  0
 13 14  2  0
  8 15  1  0
 15 16  2  0
  2 17  1  0
 17 18  1  0
 18 19  2  0
 19 20  1  0
 20 21  2  0
 21 22  1  0
 21 23  1  0
 23 24  2  0
 16  5  1  0
 24 18  1  0
 14  9  1  0
  3 25  1  0
  3 26  1  0
  6 27  1  0
  7 28  1  0
 10 29  1  0
 11 30  1  0
 12 31  1  0
 13 32  1  0
 19 33  1  0
 20 34  1  0
 23 35  1  0
 24 36  1  0
M  CHG  1  17  -1
M  END
>  <UniqueID>  (38) 
37

>  <SMILES>  (38) 
O=C(CSc1ccc(-c2ccccn2)nn1)[N-]c1ccc(Br)cc1

>  <Energy>  (38) 
42.98904761523653

>  <Genealogy>  (38) 
O=C(CSc1ccc(-c2ccccn2)nn1)[N-]c1ccc(Br)cc1 (protonated)
O=C(CSc1ccc(-c2ccccn2)nn1)[N-]c1ccc(Br)cc1 (3D coordinates assigned)
O=C(CSc1ccc(-c2ccccn2)nn1)[N-]c1ccc(Br)cc1 (optimized conformer: 42.98904761523653 kcal/mol)

>  <smiles>  (38) 
O=C(CSc1ccc(-c2ccccn2)nn1)Nc1ccc(Br)cc1

>  <score_type>  (38) 
oracle

>  <origin>  (38) 
adg

>  <m_score__min__energy>  (38) 
-11.01

>  <m_primary>  (38) 
energy

$$$$
38:0
     RDKit          3D

 46 48  0  0  0  0  0  0  0  0999 V2000
   -1.1770   26.7330  -24.2310 C   0  0  0  0  0  0  0  0  0  0  0  0
   -0.6440   25.3250  -24.4800 C   0  0  0  0  0  0  0  0  0  0  0  0
   -1.3080   24.7310  -25.6620 N   0  0  0  0  0  0  0  0  0  0  0  0
   -0.4060   23.8120  -26.3930 C   0  0  0  0  0  0  0  0  0  0  0  0
   -0.8860   22.3620  -26.3160 C   0  0  0  0  0  0  0  0  0  0  0  0
   -1.9630   25.7540  -26.5170 C   0  0  0  0  0  0  0  0  0  0  0  0
   -1.2210   26.0590  -27.8360 C   0  0  0  0  0  0  0  0  0  0  0  0
   -1.9810   25.6360  -28.9660 O   0  0  0  0  0  0  0  0  0  0  0  0
   -2.1090   24.2980  -29.3560 C   0  0  0  0  0  0  0  0  0  0  0  0
   -1.1100   23.5270  -29.3150 O   0  0  0  0  0  0  0  0  0  0  0  0
   -3.4180   23.7930  -29.8260 C   0  0  0  0  0  0  0  0  0  0  0  0
   -4.5920   24.5560  -29.6060 C   0  0  0  0  0  0  0  0  0  0  0  0
   -5.8390   24.0960  -30.0570 C   0  0  0  0  0  0  0  0  0  0  0  0
   -5.8910   22.8760  -30.7250 C   0  0  0  0  0  0  0  0  0  0  0  0
   -4.7570   22.1210  -30.9490 C   0  0  0  0  0  0  0  0  0  0  0  0
   -3.5080   22.5600  -30.5090 C   0  0  0  0  0  0  0  0  0  0  0  0
   -5.0750   20.8530  -31.6880 C   0  0  0  0  0  0  0  0  0  0  0  0
   -6.5600   20.9960  -31.8530 C   0  0  0  0  0  0  0  0  0  0  0  0
   -7.4390   20.1110  -32.4780 C   0  0  0  0  0  0  0  0  0  0  0  0
   -8.8050   20.4390  -32.5240 C   0  0  0  0  0  0  0  0  0  0  0  0
   -9.2700   21.6390  -31.9490 C   0  0  0  0  0  0  0  0  0  0  0  0
   -8.3730   22.5210  -31.3240 C   0  0  0  0  0  0  0  0  0  0  0  0
   -7.0220   22.1720  -31.2910 C   0  0  0  0  0  0  0  0  0  0  0  0
   -1.2452   26.9131  -23.1480 H   0  0  0  0  0  0  0  0  0  0  0  0
   -0.4951   27.4684  -24.6828 H   0  0  0  0  0  0  0  0  0  0  0  0
   -2.1750   26.8325  -24.6828 H   0  0  0  0  0  0  0  0  0  0  0  0
    0.4405   25.3727  -24.6577 H   0  0  0  0  0  0  0  0  0  0  0  0
   -0.8519   24.7004  -23.5987 H   0  0  0  0  0  0  0  0  0  0  0  0
   -0.3660   24.1179  -27.4488 H   0  0  0  0  0  0  0  0  0  0  0  0
    0.5886   23.8674  -25.9265 H   0  0  0  0  0  0  0  0  0  0  0  0
   -0.9847   22.0639  -25.2618 H   0  0  0  0  0  0  0  0  0  0  0  0
   -1.8619   22.2718  -26.8154 H   0  0  0  0  0  0  0  0  0  0  0  0
   -0.1566   21.7073  -26.8154 H   0  0  0  0  0  0  0  0  0  0  0  0
   -2.9733   25.3973  -26.7661 H   0  0  0  0  0  0  0  0  0  0  0  0
   -1.9666   26.6890  -25.9376 H   0  0  0  0  0  0  0  0  0  0  0  0
   -1.0461   27.1427  -27.9068 H   0  0  0  0  0  0  0  0  0  0  0  0
   -0.2672   25.5110  -27.8333 H   0  0  0  0  0  0  0  0  0  0  0  0
   -4.5252   25.5180  -29.0767 H   0  0  0  0  0  0  0  0  0  0  0  0
   -6.7523   24.6849  -29.8868 H   0  0  0  0  0  0  0  0  0  0  0  0
   -2.6074   21.9553  -30.6912 H   0  0  0  0  0  0  0  0  0  0  0  0
   -4.5610   20.8097  -32.6596 H   0  0  0  0  0  0  0  0  0  0  0  0
   -4.7578   19.9327  -31.1758 H   0  0  0  0  0  0  0  0  0  0  0  0
   -7.0707   19.1760  -32.9254 H   0  0  0  0  0  0  0  0  0  0  0  0
   -9.5154   19.7552  -33.0116 H   0  0  0  0  0  0  0  0  0  0  0  0
  -10.3411   21.8861  -31.9899 H   0  0  0  0  0  0  0  0  0  0  0  0
   -8.7254   23.4604  -30.8732 H   0  0  0  0  0  0  0  0  0  0  0  0
  1  2  1  0
  2  3  1  0
  3  4  1  0
  4  5  1  0
  3  6  1  0
  6  7  1  0
  7  8  1  0
  8  9  1  0
  9 10  2  0
  9 11  1  0
 11 12  2  0
 12 13  1  0
 13 14  2  0
 14 15  1  0
 15 16  2  0
 15 17  1  0
 17 18  1  0
 18 19  2  0
 19 20  1  0
 20 21  2  0
 21 22  1  0
 22 23  2  0
 16 11  1  0
 23 18  1  0
 23 14  1  0
  1 24  1  0
  1 25  1  0
  1 26  1  0
  2 27  1  0
  2 28  1  0
  4 29  1  0
  4 30  1  0
  5 31  1  0
  5 32  1  0
  5 33  1  0
  6 34  1  0
  6 35  1  0
  7 36  1  0
  7 37  1  0
 12 38  1  0
 13 39  1  0
 16 40  1  0
 17 41  1  0
 17 42  1  0
 19 43  1  0
 20 44  1  0
 21 45  1  0
 22 46  1  0
M  END
>  <UniqueID>  (39) 
38

>  <SMILES>  (39) 
CCN(CC)CCOC(=O)c1ccc2c(c1)Cc1ccccc1-2

>  <Energy>  (39) 
68.93300322914807

>  <Genealogy>  (39) 
CCN(CC)CCOC(=O)c1ccc2c(c1)Cc1ccccc1-2 (3D coordinates assigned)
CCN(CC)CCOC(=O)c1ccc2c(c1)Cc1ccccc1-2 (nonaromatic ring conformer: 68.93300322914807 kcal/mol)

>  <smiles>  (39) 
CCN(CC)CCOC(=O)c1ccc2c(c1)Cc1ccccc1-2

>  <score_type>  (39) 
oracle

>  <origin>  (39) 
adg

>  <m_score__min__energy>  (39) 
-8.5399999999999991

>  <m_primary>  (39) 
energy

$$$$
39:0
     RDKit          3D

 20 20  0  0  0  0  0  0  0  0999 V2000
   -4.2210   25.6680  -31.6130 H   0  0  0  0  0  0  0  0  0  0  0  0
   -4.2070   24.9960  -30.8540 O   0  0  0  0  0  0  0  0  0  0  0  0
   -5.3660   24.6050  -30.2180 N   0  0  0  0  0  0  0  0  0  0  0  0
   -5.5590   23.3270  -30.0320 C   0  0  0  0  0  0  0  0  0  0  0  0
   -4.9840   22.8281  -29.2380 H   0  0  0  0  0  0  0  0  0  0  0  0
   -6.5050   22.5080  -30.8250 C   0  0  0  0  0  0  0  0  0  0  0  0
   -7.8400   22.3670  -30.4060 C   0  0  0  0  0  0  0  0  0  0  0  0
   -8.1867   22.8870  -29.5008 H   0  0  0  0  0  0  0  0  0  0  0  0
   -8.7290   21.5700  -31.1330 C   0  0  0  0  0  0  0  0  0  0  0  0
   -9.7753   21.4759  -30.8069 H   0  0  0  0  0  0  0  0  0  0  0  0
   -8.2900   20.8930  -32.2730 C   0  0  0  0  0  0  0  0  0  0  0  0
   -8.9917   20.2701  -32.8471 H   0  0  0  0  0  0  0  0  0  0  0  0
   -6.9600   21.0070  -32.6840 C   0  0  0  0  0  0  0  0  0  0  0  0
   -6.6161   20.4687  -33.5795 H   0  0  0  0  0  0  0  0  0  0  0  0
   -6.0620   21.8030  -31.9620 C   0  0  0  0  0  0  0  0  0  0  0  0
   -4.3980   21.9190  -32.5250 Cl  0  0  0  0  0  0  0  0  0  0  0  0
   -6.3150   25.6340  -29.7780 C   0  0  0  0  0  0  0  0  0  0  0  0
   -6.3413   25.6625  -28.6787 H   0  0  0  0  0  0  0  0  0  0  0  0
   -5.9973   26.6143  -30.1627 H   0  0  0  0  0  0  0  0  0  0  0  0
   -7.3178   25.3965  -30.1627 H   0  0  0  0  0  0  0  0  0  0  0  0
  1  2  1  0
  2  3  1  0
  3  4  2  0
  4  5  1  0
  4  6  1  0
  6  7  2  0
  7  8  1  0
  7  9  1  0
  9 10  1  0
  9 11  2  0
 11 12  1  0
 11 13  1  0
 13 14  1  0
 13 15  2  0
 15 16  1  0
  3 17  1  0
 17 18  1  0
 17 19  1  0
 17 20  1  0
 15  6  1  0
M  CHG  1   3   1
M  END
>  <UniqueID>  (40) 
39

>  <SMILES>  (40) 
C/[N+](O)=C\c1ccccc1Cl

>  <Energy>  (40) 
25.460522545004903

>  <Genealogy>  (40) 
C[N+](O)=Cc1ccccc1Cl (protonated)
C/[N+](O)=C\c1ccccc1Cl (cis-trans isomerization)
C/[N+](O)=C\c1ccccc1Cl (3D coordinates assigned)
C/[N+](O)=C\c1ccccc1Cl (optimized conformer: 25.460522545004903 kcal/mol)

>  <smiles>  (40) 
C[N+]([O-])=Cc1ccccc1Cl

>  <score_type>  (40) 
oracle

>  <origin>  (40) 
adg

>  <m_score__min__energy>  (40) 
-5.4000000000000004

>  <m_primary>  (40) 
energy

$$$$
40:0
     RDKit          3D

 32 35  0  0  0  0  0  0  0  0999 V2000
   -9.5820   21.4510  -31.9770 C   0  0  0  0  0  0  0  0  0  0  0  0
   -8.1790   21.7950  -31.7570 N   0  0  0  0  0  0  0  0  0  0  0  0
   -7.7660   22.9980  -31.4040 N   0  0  0  0  0  0  0  0  0  0  0  0
   -6.4230   22.9490  -31.3510 C   0  0  0  0  0  0  0  0  0  0  0  0
   -5.5700   24.0900  -31.0100 C   0  0  0  0  0  0  0  0  0  0  0  0
   -4.2260   24.0480  -30.9560 N   0  0  0  0  0  0  0  0  0  0  0  0
   -3.8670   25.2750  -30.6160 N   0  0  0  0  0  0  0  0  0  0  0  0
   -4.9440   26.0320  -30.4700 N   0  0  0  0  0  0  0  0  0  0  0  0
   -6.0310   25.3180  -30.7100 N   0  0  0  0  0  0  0  0  0  0  0  0
   -5.9480   21.7230  -31.6620 N   0  0  0  0  0  0  0  0  0  0  0  0
   -7.0780   21.0190  -31.8970 C   0  0  0  0  0  0  0  0  0  0  0  0
   -7.0450   19.5970  -32.2940 C   0  0  0  0  0  0  0  0  0  0  0  0
   -8.0870   18.6910  -32.0930 C   0  0  0  0  0  0  0  0  0  0  0  0
   -7.5810   17.1940  -32.6630 S   0  0  0  0  0  0  0  0  0  0  0  0
   -6.0530   17.7400  -33.1110 C   0  0  0  0  0  0  0  0  0  0  0  0
   -5.0080   16.9490  -33.7990 C   0  0  0  0  0  0  0  0  0  0  0  0
   -4.4910   17.4380  -35.0120 C   0  0  0  0  0  0  0  0  0  0  0  0
   -3.5190   16.7240  -35.7140 C   0  0  0  0  0  0  0  0  0  0  0  0
   -3.0400   15.5130  -35.2120 C   0  0  0  0  0  0  0  0  0  0  0  0
   -1.8170   14.6170  -36.0940 Cl  0  0  0  0  0  0  0  0  0  0  0  0
   -3.5280   15.0220  -33.9990 C   0  0  0  0  0  0  0  0  0  0  0  0
   -4.5030   15.7300  -33.2830 C   0  0  0  0  0  0  0  0  0  0  0  0
   -4.9820   15.0890  -31.7150 Cl  0  0  0  0  0  0  0  0  0  0  0  0
   -5.9270   19.0610  -32.8540 N   0  0  0  0  0  0  0  0  0  0  0  0
  -10.0857   21.3275  -31.0069 H   0  0  0  0  0  0  0  0  0  0  0  0
  -10.0721   22.2556  -32.5448 H   0  0  0  0  0  0  0  0  0  0  0  0
   -9.6444   20.5110  -32.5448 H   0  0  0  0  0  0  0  0  0  0  0  0
   -8.3800   23.8230  -31.2230 H   0  0  0  0  0  0  0  0  0  0  0  0
   -9.0646   18.9166  -31.6421 H   0  0  0  0  0  0  0  0  0  0  0  0
   -4.8572   18.3949  -35.4123 H   0  0  0  0  0  0  0  0  0  0  0  0
   -3.1295   17.1164  -36.6650 H   0  0  0  0  0  0  0  0  0  0  0  0
   -3.1436   14.0709  -33.6019 H   0  0  0  0  0  0  0  0  0  0  0  0
  1  2  1  0
  2  3  1  0
  3  4  2  0
  4  5  1  0
  5  6  1  0
  6  7  2  0
  7  8  1  0
  8  9  1  0
  4 10  1  0
 10 11  2  0
 11 12  1  0
 12 13  2  0
 13 14  1  0
 14 15  1  0
 15 16  1  0
 16 17  2  0
 17 18  1  0
 18 19  2  0
 19 20  1  0
 19 21  1  0
 21 22  2  0
 22 23  1  0
 15 24  2  0
 11  2  1  0
 24 12  1  0
  9  5  2  0
 22 16  1  0
  1 25  1  0
  1 26  1  0
  1 27  1  0
  3 28  1  0
 13 29  1  0
 17 30  1  0
 18 31  1  0
 21 32  1  0
M  CHG  2   3   1   8  -1
M  END
>  <UniqueID>  (41) 
40

>  <SMILES>  (41) 
Cn1[nH+]c(-c2nn[n-]n2)nc1-c1csc(-c2ccc(Cl)cc2Cl)n1

>  <Energy>  (41) 
145.7359385273185

>  <Genealogy>  (41) 
Cn1[nH+]c(-c2nn[n-]n2)nc1-c1csc(-c2ccc(Cl)cc2Cl)n1 (protonated)
Cn1[nH+]c(-c2nn[n-]n2)nc1-c1csc(-c2ccc(Cl)cc2Cl)n1 (3D coordinates assigned)
Cn1[nH+]c(-c2nn[n-]n2)nc1-c1csc(-c2ccc(Cl)cc2Cl)n1 (optimized conformer: 145.7359385273185 kcal/mol)

>  <smiles>  (41) 
Cn1nc(-c2nn[nH]n2)nc1-c1csc(-c2ccc(Cl)cc2Cl)n1

>  <score_type>  (41) 
oracle

>  <origin>  (41) 
adg

>  <m_score__min__energy>  (41) 
-9.2599999999999998

>  <m_primary>  (41) 
energy

$$$$
41:0
     RDKit          3D

 40 40  0  0  0  0  0  0  0  0999 V2000
   -9.4610   21.2100  -31.8030 C   0  0  0  0  0  0  0  0  0  0  0  0
   -9.0050   20.0400  -32.5720 N   0  0  0  0  0  0  0  0  0  0  0  0
   -9.0630   18.8460  -31.7100 C   0  0  0  0  0  0  0  0  0  0  0  0
   -7.6350   20.2760  -33.0810 C   0  0  0  0  0  0  0  0  0  0  0  0
   -6.6100   19.2560  -32.5330 C   0  0  0  0  0  0  0  0  0  0  0  0
   -5.8100   18.5550  -33.5630 N   0  0  0  0  0  0  0  0  0  0  0  0
   -5.8690   17.0840  -33.4950 C   0  0  0  0  0  0  0  0  0  0  0  0
   -4.4760   19.1260  -33.8470 C   0  0  0  0  0  0  0  0  0  0  0  0
   -4.1820   20.3350  -33.0600 C   0  0  0  0  0  0  0  0  0  0  0  0
   -3.9260   21.3250  -32.4220 C   0  0  0  0  0  0  0  0  0  0  0  0
   -3.5990   22.5200  -31.6410 C   0  0  0  0  0  0  0  0  0  0  0  0
   -4.8250   23.2290  -31.2820 N   0  0  0  0  0  0  0  0  0  0  0  0
   -6.1480   22.6330  -31.2790 C   0  0  0  0  0  0  0  0  0  0  0  0
   -7.1170   23.7520  -30.8450 C   0  0  0  0  0  0  0  0  0  0  0  0
   -6.2670   24.9760  -30.4640 C   0  0  0  0  0  0  0  0  0  0  0  0
   -4.8930   24.5560  -30.7990 C   0  0  0  0  0  0  0  0  0  0  0  0
   -3.8820   25.2930  -30.6600 O   0  0  0  0  0  0  0  0  0  0  0  0
   -9.3779   20.9967  -30.7271 H   0  0  0  0  0  0  0  0  0  0  0  0
   -8.8361   22.0798  -32.0537 H   0  0  0  0  0  0  0  0  0  0  0  0
  -10.5097   21.4275  -32.0537 H   0  0  0  0  0  0  0  0  0  0  0  0
   -9.0480   19.1548  -30.6543 H   0  0  0  0  0  0  0  0  0  0  0  0
   -9.9892   18.2896  -31.9161 H   0  0  0  0  0  0  0  0  0  0  0  0
   -8.1951   18.2024  -31.9161 H   0  0  0  0  0  0  0  0  0  0  0  0
   -7.6503   20.2043  -34.1786 H   0  0  0  0  0  0  0  0  0  0  0  0
   -7.3226   21.2749  -32.7426 H   0  0  0  0  0  0  0  0  0  0  0  0
   -5.9161   19.7930  -31.8695 H   0  0  0  0  0  0  0  0  0  0  0  0
   -7.1952   18.4796  -32.0185 H   0  0  0  0  0  0  0  0  0  0  0  0
   -5.8818   16.7658  -32.4421 H   0  0  0  0  0  0  0  0  0  0  0  0
   -6.7821   16.7301  -33.9961 H   0  0  0  0  0  0  0  0  0  0  0  0
   -4.9872   16.6581  -33.9961 H   0  0  0  0  0  0  0  0  0  0  0  0
   -3.7146   18.3660  -33.6176 H   0  0  0  0  0  0  0  0  0  0  0  0
   -4.4643   19.4163  -34.9079 H   0  0  0  0  0  0  0  0  0  0  0  0
   -3.0676   22.2230  -30.7248 H   0  0  0  0  0  0  0  0  0  0  0  0
   -2.9598   23.1828  -32.2428 H   0  0  0  0  0  0  0  0  0  0  0  0
   -6.4070   22.2721  -32.2853 H   0  0  0  0  0  0  0  0  0  0  0  0
   -6.1995   21.7693  -30.5997 H   0  0  0  0  0  0  0  0  0  0  0  0
   -7.7923   24.0071  -31.6750 H   0  0  0  0  0  0  0  0  0  0  0  0
   -7.7302   23.4250  -29.9924 H   0  0  0  0  0  0  0  0  0  0  0  0
   -6.5628   25.8585  -31.0503 H   0  0  0  0  0  0  0  0  0  0  0  0
   -6.3819   25.2671  -29.4095 H   0  0  0  0  0  0  0  0  0  0  0  0
  1  2  1  0
  2  3  1  0
  2  4  1  0
  4  5  1  0
  5  6  1  0
  6  7  1  0
  6  8  1  0
  8  9  1  0
  9 10  3  0
 10 11  1  0
 11 12  1  0
 12 13  1  0
 13 14  1  0
 14 15  1  0
 15 16  1  0
 16 17  2  0
 16 12  1  0
  1 18  1  0
  1 19  1  0
  1 20  1  0
  3 21  1  0
  3 22  1  0
  3 23  1  0
  4 24  1  0
  4 25  1  0
  5 26  1  0
  5 27  1  0
  7 28  1  0
  7 29  1  0
  7 30  1  0
  8 31  1  0
  8 32  1  0
 11 33  1  0
 11 34  1  0
 13 35  1  0
 13 36  1  0
 14 37  1  0
 14 38  1  0
 15 39  1  0
 15 40  1  0
M  END
>  <UniqueID>  (42) 
41

>  <SMILES>  (42) 
CN(C)CCN(C)CC#CCN1CCCC1=O

>  <Energy>  (42) 
42.200122313283444

>  <Genealogy>  (42) 
CN(C)CCN(C)CC#CCN1CCCC1=O (3D coordinates assigned)
CN(C)CCN(C)CC#CCN1CCCC1=O (nonaromatic ring conformer: 42.200122313283444 kcal/mol)

>  <smiles>  (42) 
CN(C)CCN(C)CC#CCN1CCCC1=O

>  <score_type>  (42) 
oracle

>  <origin>  (42) 
adg

>  <m_score__min__energy>  (42) 
-5.9900000000000002

>  <m_primary>  (42) 
energy

$$$$
42:0
     RDKit          3D

 37 38  0  0  0  0  0  0  0  0999 V2000
   -7.7681   23.8233  -32.8410 H   0  0  0  0  0  0  0  0  0  0  0  0
   -7.6760   23.3950  -31.8320 C   0  0  0  0  0  0  0  0  0  0  0  0
   -6.7890   24.0640  -30.8570 C   0  0  0  0  0  0  0  0  0  0  0  0
   -7.2790   24.9790  -30.1410 O   0  0  0  0  0  0  0  0  0  0  0  0
   -5.3560   23.7200  -30.6970 C   0  0  0  0  0  0  0  0  0  0  0  0
   -4.8480   22.5030  -31.1790 C   0  0  0  0  0  0  0  0  0  0  0  0
   -5.5247   21.7877  -31.6693 H   0  0  0  0  0  0  0  0  0  0  0  0
   -3.4900   22.1890  -31.0430 C   0  0  0  0  0  0  0  0  0  0  0  0
   -3.0440   20.9530  -31.5370 O   0  0  0  0  0  0  0  0  0  0  0  0
   -3.1990   20.5200  -32.8850 C   0  0  0  0  0  0  0  0  0  0  0  0
   -3.5697   19.4844  -32.8971 H   0  0  0  0  0  0  0  0  0  0  0  0
   -3.9191   21.1733  -33.3995 H   0  0  0  0  0  0  0  0  0  0  0  0
   -2.2279   20.5679  -33.3995 H   0  0  0  0  0  0  0  0  0  0  0  0
   -2.6260   23.1120  -30.4270 C   0  0  0  0  0  0  0  0  0  0  0  0
   -1.5592   22.8699  -30.3118 H   0  0  0  0  0  0  0  0  0  0  0  0
   -3.1190   24.3440  -29.9570 C   0  0  0  0  0  0  0  0  0  0  0  0
   -2.2940   25.2990  -29.3420 O   0  0  0  0  0  0  0  0  0  0  0  0
   -1.6210   25.1050  -28.1030 C   0  0  0  0  0  0  0  0  0  0  0  0
   -2.3151   25.3051  -27.2734 H   0  0  0  0  0  0  0  0  0  0  0  0
   -1.2626   24.0670  -28.0390 H   0  0  0  0  0  0  0  0  0  0  0  0
   -0.7651   25.7930  -28.0390 H   0  0  0  0  0  0  0  0  0  0  0  0
   -4.4780   24.6400  -30.1020 C   0  0  0  0  0  0  0  0  0  0  0  0
   -4.8642   25.6062  -29.7452 H   0  0  0  0  0  0  0  0  0  0  0  0
   -8.3730   22.2880  -31.5380 C   0  0  0  0  0  0  0  0  0  0  0  0
   -9.2699   22.3934  -30.9100 H   0  0  0  0  0  0  0  0  0  0  0  0
   -8.0070   20.9290  -32.0090 C   0  0  0  0  0  0  0  0  0  0  0  0
   -6.9190   20.7950  -32.8890 C   0  0  0  0  0  0  0  0  0  0  0  0
   -6.3675   21.6898  -33.2133 H   0  0  0  0  0  0  0  0  0  0  0  0
   -6.5310   19.5360  -33.3560 C   0  0  0  0  0  0  0  0  0  0  0  0
   -5.6825   19.4453  -34.0502 H   0  0  0  0  0  0  0  0  0  0  0  0
   -7.2200   18.3910  -32.9420 C   0  0  0  0  0  0  0  0  0  0  0  0
   -6.8170   17.0950  -33.4230 C   0  0  0  0  0  0  0  0  0  0  0  0
   -6.4930   16.0530  -33.8100 N   0  0  0  0  0  0  0  0  0  0  0  0
   -8.2940   18.5100  -32.0540 C   0  0  0  0  0  0  0  0  0  0  0  0
   -8.8331   17.6102  -31.7227 H   0  0  0  0  0  0  0  0  0  0  0  0
   -8.6850   19.7670  -31.5860 C   0  0  0  0  0  0  0  0  0  0  0  0
   -9.5270   19.8509  -30.8832 H   0  0  0  0  0  0  0  0  0  0  0  0
  1  2  1  0
  2  3  1  0
  3  4  2  0
  3  5  1  0
  5  6  2  0
  6  7  1  0
  6  8  1  0
  8  9  1  0
  9 10  1  0
 10 11  1  0
 10 12  1  0
 10 13  1  0
  8 14  2  0
 14 15  1  0
 14 16  1  0
 16 17  1  0
 17 18  1  0
 18 19  1  0
 18 20  1  0
 18 21  1  0
 16 22  2  0
 22 23  1  0
  2 24  2  0
 24 25  1  0
 24 26  1  0
 26 27  2  0
 27 28  1  0
 27 29  1  0
 29 30  1  0
 29 31  2  0
 31 32  1  0
 32 33  3  0
 31 34  1  0
 34 35  1  0
 34 36  2  0
 36 37  1  0
 22  5  1  0
 36 26  1  0
M  END
>  <UniqueID>  (43) 
42

>  <SMILES>  (43) 
COc1cc(OC)cc(C(=O)/C=C/c2ccc(C#N)cc2)c1

>  <Energy>  (43) 
42.59137975382209

>  <Genealogy>  (43) 
COc1cc(OC)cc(C(=O)/C=C/c2ccc(C#N)cc2)c1 (cis-trans isomerization)
COc1cc(OC)cc(C(=O)/C=C/c2ccc(C#N)cc2)c1 (3D coordinates assigned)
COc1cc(OC)cc(C(=O)/C=C/c2ccc(C#N)cc2)c1 (optimized conformer: 42.59137975382209 kcal/mol)

>  <smiles>  (43) 
COc1cc(OC)cc(C(=O)C=Cc2ccc(C#N)cc2)c1

>  <score_type>  (43) 
oracle

>  <origin>  (43) 
adg

>  <m_score__min__energy>  (43) 
-8

>  <m_primary>  (43) 
energy

$$$$
43:0
     RDKit          3D

 35 36  0  0  0  0  0  0  0  0999 V2000
   -4.8830   14.4290  -34.2030 C   0  0  0  0  0  0  0  0  0  0  0  0
   -4.5100   15.8160  -34.5070 N   0  0  0  0  0  0  0  0  0  0  0  0
   -3.3130   16.0670  -35.3190 C   0  0  0  0  0  0  0  0  0  0  0  0
   -5.3110   16.9210  -34.0130 C   0  0  0  0  0  0  0  0  0  0  0  0
   -5.3030   18.1710  -34.6670 C   0  0  0  0  0  0  0  0  0  0  0  0
   -6.0740   19.2350  -34.1900 C   0  0  0  0  0  0  0  0  0  0  0  0
   -6.8760   19.0810  -33.0490 C   0  0  0  0  0  0  0  0  0  0  0  0
   -7.6970   20.2120  -32.5450 C   0  0  0  0  0  0  0  0  0  0  0  0
   -9.0950   20.0950  -32.4530 C   0  0  0  0  0  0  0  0  0  0  0  0
   -9.8650   21.1560  -31.9720 C   0  0  0  0  0  0  0  0  0  0  0  0
   -9.2520   22.3470  -31.5780 C   0  0  0  0  0  0  0  0  0  0  0  0
   -7.8610   22.4900  -31.6770 C   0  0  0  0  0  0  0  0  0  0  0  0
   -7.1950   23.7560  -31.2170 C   0  0  0  0  0  0  0  0  0  0  0  0
   -5.8590   23.8380  -31.7930 N   0  0  0  0  0  0  0  0  0  0  0  0
   -4.9370   24.3800  -31.1830 N   0  0  0  0  0  0  0  0  0  0  0  0
   -4.0160   24.9230  -30.5740 N   0  0  0  0  0  0  0  0  0  0  0  0
   -7.0870   21.4170  -32.1470 C   0  0  0  0  0  0  0  0  0  0  0  0
   -6.8910   17.8400  -32.3940 C   0  0  0  0  0  0  0  0  0  0  0  0
   -6.1200   16.7750  -32.8680 C   0  0  0  0  0  0  0  0  0  0  0  0
   -4.9204   14.2900  -33.1125 H   0  0  0  0  0  0  0  0  0  0  0  0
   -5.8714   14.2121  -34.6344 H   0  0  0  0  0  0  0  0  0  0  0  0
   -4.1367   13.7456  -34.6344 H   0  0  0  0  0  0  0  0  0  0  0  0
   -2.4526   16.2474  -34.6578 H   0  0  0  0  0  0  0  0  0  0  0  0
   -3.1104   15.1918  -35.9538 H   0  0  0  0  0  0  0  0  0  0  0  0
   -3.4791   16.9499  -35.9538 H   0  0  0  0  0  0  0  0  0  0  0  0
   -4.6819   18.3102  -35.5641 H   0  0  0  0  0  0  0  0  0  0  0  0
   -6.0518   20.2019  -34.7140 H   0  0  0  0  0  0  0  0  0  0  0  0
   -9.5860   19.1605  -32.7623 H   0  0  0  0  0  0  0  0  0  0  0  0
  -10.9580   21.0531  -31.9033 H   0  0  0  0  0  0  0  0  0  0  0  0
   -9.8622   23.1754  -31.1888 H   0  0  0  0  0  0  0  0  0  0  0  0
   -7.7890   24.6224  -31.5433 H   0  0  0  0  0  0  0  0  0  0  0  0
   -7.1220   23.7544  -30.1194 H   0  0  0  0  0  0  0  0  0  0  0  0
   -5.9932   21.5187  -32.2049 H   0  0  0  0  0  0  0  0  0  0  0  0
   -7.5156   17.7041  -31.4988 H   0  0  0  0  0  0  0  0  0  0  0  0
   -6.1449   15.8100  -32.3405 H   0  0  0  0  0  0  0  0  0  0  0  0
  1  2  1  0
  2  3  1  0
  2  4  1  0
  4  5  2  0
  5  6  1  0
  6  7  2  0
  7  8  1  0
  8  9  2  0
  9 10  1  0
 10 11  2  0
 11 12  1  0
 12 13  1  0
 13 14  1  0
 14 15  2  0
 15 16  2  0
 12 17  2  0
  7 18  1  0
 18 19  2  0
 19  4  1  0
 17  8  1  0
  1 20  1  0
  1 21  1  0
  1 22  1  0
  3 23  1  0
  3 24  1  0
  3 25  1  0
  5 26  1  0
  6 27  1  0
  9 28  1  0
 10 29  1  0
 11 30  1  0
 13 31  1  0
 13 32  1  0
 17 33  1  0
 18 34  1  0
 19 35  1  0
M  CHG  2  15   1  16  -1
M  END
>  <UniqueID>  (44) 
43

>  <SMILES>  (44) 
CN(C)c1ccc(-c2cccc(CN=[N+]=[N-])c2)cc1

>  <Energy>  (44) 
40.14406976807275

>  <Genealogy>  (44) 
CN(C)c1ccc(-c2cccc(CN=[N+]=[N-])c2)cc1 (3D coordinates assigned)
CN(C)c1ccc(-c2cccc(CN=[N+]=[N-])c2)cc1 (optimized conformer: 40.14406976807275 kcal/mol)

>  <smiles>  (44) 
CN(C)c1ccc(-c2cccc(CN=[N+]=[N-])c2)cc1

>  <score_type>  (44) 
oracle

>  <origin>  (44) 
adg

>  <m_score__min__energy>  (44) 
-7.71

>  <m_primary>  (44) 
energy

$$$$
44:0
     RDKit          3D

 33 34  0  0  0  0  0  0  0  0999 V2000
   -3.9436   22.9205  -27.6834 H   0  0  0  0  0  0  0  0  0  0  0  0
   -3.2430   22.4850  -28.4110 C   0  0  0  0  0  0  0  0  0  0  0  0
   -3.1400   23.0850  -29.6140 C   0  0  0  0  0  0  0  0  0  0  0  0
   -3.2330   22.3250  -30.8410 C   0  0  0  0  0  0  0  0  0  0  0  0
   -3.3060   21.7180  -31.8240 N   0  0  0  0  0  0  0  0  0  0  0  0
   -2.9940   24.5550  -29.7170 C   0  0  0  0  0  0  0  0  0  0  0  0
   -2.1050   25.1580  -29.0550 O   0  0  0  0  0  0  0  0  0  0  0  0
   -3.8670   25.2990  -30.5770 N   0  0  0  0  0  0  0  0  0  0  0  0
   -5.2930   25.4740  -30.3260 C   0  0  0  0  0  0  0  0  0  0  0  0
   -5.4500   25.6871  -29.2583 H   0  0  0  0  0  0  0  0  0  0  0  0
   -5.6635   26.3111  -30.9359 H   0  0  0  0  0  0  0  0  0  0  0  0
   -6.0460   24.2260  -30.6990 C   0  0  0  0  0  0  0  0  0  0  0  0
   -6.0080   23.7520  -32.0200 C   0  0  0  0  0  0  0  0  0  0  0  0
   -5.4139   24.2852  -32.7768 H   0  0  0  0  0  0  0  0  0  0  0  0
   -6.7230   22.6040  -32.3770 C   0  0  0  0  0  0  0  0  0  0  0  0
   -6.6872   22.2338  -33.4122 H   0  0  0  0  0  0  0  0  0  0  0  0
   -7.4830   21.9270  -31.4190 C   0  0  0  0  0  0  0  0  0  0  0  0
   -8.0446   21.0241  -31.7008 H   0  0  0  0  0  0  0  0  0  0  0  0
   -7.5300   22.3960  -30.1040 C   0  0  0  0  0  0  0  0  0  0  0  0
   -8.1291   21.8619  -29.3518 H   0  0  0  0  0  0  0  0  0  0  0  0
   -6.8170   23.5430  -29.7420 C   0  0  0  0  0  0  0  0  0  0  0  0
   -6.8594   23.9117  -28.7065 H   0  0  0  0  0  0  0  0  0  0  0  0
   -2.4830   21.2830  -27.9960 C   0  0  0  0  0  0  0  0  0  0  0  0
   -3.1060   20.3340  -27.1700 C   0  0  0  0  0  0  0  0  0  0  0  0
   -4.1524   20.4787  -26.8631 H   0  0  0  0  0  0  0  0  0  0  0  0
   -2.4030   19.2050  -26.7350 C   0  0  0  0  0  0  0  0  0  0  0  0
   -2.9025   18.4569  -26.1019 H   0  0  0  0  0  0  0  0  0  0  0  0
   -1.0670   19.0270  -27.1040 C   0  0  0  0  0  0  0  0  0  0  0  0
   -0.5172   18.1359  -26.7669 H   0  0  0  0  0  0  0  0  0  0  0  0
   -0.4300   19.9810  -27.9010 C   0  0  0  0  0  0  0  0  0  0  0  0
    0.6239   19.8442  -28.1847 H   0  0  0  0  0  0  0  0  0  0  0  0
   -1.1300   21.1100  -28.3390 C   0  0  0  0  0  0  0  0  0  0  0  0
   -0.6201   21.8658  -28.9544 H   0  0  0  0  0  0  0  0  0  0  0  0
  1  2  1  0
  2  3  2  0
  3  4  1  0
  4  5  3  0
  3  6  1  0
  6  7  2  0
  6  8  1  0
  8  9  1  0
  9 10  1  0
  9 11  1  0
  9 12  1  0
 12 13  2  0
 13 14  1  0
 13 15  1  0
 15 16  1  0
 15 17  2  0
 17 18  1  0
 17 19  1  0
 19 20  1  0
 19 21  2  0
 21 22  1  0
  2 23  1  0
 23 24  2  0
 24 25  1  0
 24 26  1  0
 26 27  1  0
 26 28  2  0
 28 29  1  0
 28 30  1  0
 30 31  1  0
 30 32  2  0
 32 33  1  0
 21 12  1  0
 32 23  1  0
M  CHG  1   8  -1
M  END
>  <UniqueID>  (45) 
44

>  <SMILES>  (45) 
N#C/C(=C\c1ccccc1)C(=O)[N-]Cc1ccccc1

>  <Energy>  (45) 
36.78192197733139

>  <Genealogy>  (45) 
N#CC(=Cc1ccccc1)C(=O)[N-]Cc1ccccc1 (protonated)
N#C/C(=C\c1ccccc1)C(=O)[N-]Cc1ccccc1 (cis-trans isomerization)
N#C/C(=C\c1ccccc1)C(=O)[N-]Cc1ccccc1 (3D coordinates assigned)
N#C/C(=C\c1ccccc1)C(=O)[N-]Cc1ccccc1 (optimized conformer: 36.78192197733139 kcal/mol)

>  <smiles>  (45) 
N#CC(=Cc1ccccc1)C(=O)NCc1ccccc1

>  <score_type>  (45) 
oracle

>  <origin>  (45) 
adg

>  <m_score__min__energy>  (45) 
-9.1899999999999995

>  <m_primary>  (45) 
energy

$$$$
45:0
     RDKit          3D

 45 48  0  0  1  0  0  0  0  0999 V2000
   -0.8440   21.9110  -29.7500 C   0  0  0  0  0  0  0  0  0  0  0  0
   -2.1830   22.2930  -30.2710 C   0  0  0  0  0  0  0  0  0  0  0  0
   -2.7460   23.4350  -29.7600 C   0  0  0  0  0  0  0  0  0  0  0  0
   -3.9860   23.7900  -30.2240 C   0  0  0  0  0  0  0  0  0  0  0  0
   -4.5280   24.9110  -29.7160 N   0  0  0  0  0  0  0  0  0  0  0  0
   -5.7380   25.2840  -30.1490 C   0  0  0  0  0  0  0  0  0  0  0  0
   -6.3880   24.5620  -31.0590 N   0  0  0  0  0  0  0  0  0  0  0  0
   -5.8460   23.4230  -31.5800 C   0  0  0  0  0  0  0  0  0  0  0  0
   -6.5090   22.8090  -32.4130 N   0  0  0  0  0  0  0  0  0  0  0  0
   -7.1790   21.6410  -32.3780 C   0  0  0  0  0  0  0  0  0  0  0  0
   -8.4400   21.5820  -31.7370 C   0  0  0  0  0  0  0  0  0  0  0  0
   -9.0870   20.3850  -31.5930 C   0  0  0  0  0  0  0  0  0  0  0  0
   -8.5420   19.2160  -32.0580 C   0  0  0  0  0  0  0  0  0  0  0  0
   -9.1650   18.0340  -31.9220 F   0  0  0  0  0  0  0  0  0  0  0  0
   -7.3050   19.2630  -32.6870 C   0  0  0  0  0  0  0  0  0  0  0  0
   -6.4970   17.6540  -33.3570 Br  0  0  0  0  0  0  0  0  0  0  0  0
   -6.6060   20.4400  -32.8630 C   0  0  0  0  0  0  0  0  0  0  0  0
   -4.6150   22.9990  -31.1730 C   0  0  0  0  0  0  0  0  0  0  0  0
   -4.0230   21.8680  -31.6600 C   0  0  0  0  0  0  0  0  0  0  0  0
   -2.7470   21.4760  -31.2030 C   0  0  0  0  0  0  0  0  0  0  0  0
   -2.1280   20.3000  -31.7140 N   0  0  0  0  0  0  0  0  0  0  0  0
   -2.3210   19.8960  -33.0980 C   0  0  0  0  0  0  0  0  0  0  0  0
   -1.1860   20.2570  -33.9600 C   0  0  0  0  0  0  0  0  0  0  0  0
   -0.5130   19.3570  -34.7590 C   0  0  0  0  0  0  0  0  0  0  0  0
    0.5500   19.7120  -35.5610 C   0  0  0  0  0  0  0  0  0  0  0  0
    0.9720   21.0250  -35.5770 C   0  0  0  0  0  0  0  0  0  0  0  0
    0.3260   21.9190  -34.8020 N   0  0  0  0  0  0  0  0  0  0  0  0
   -0.7270   21.5780  -34.0040 C   0  0  0  0  0  0  0  0  0  0  0  0
   -0.8633   21.9165  -28.6502 H   0  0  0  0  0  0  0  0  0  0  0  0
   -0.5854   20.9032  -30.1072 H   0  0  0  0  0  0  0  0  0  0  0  0
   -0.0926   22.6306  -30.1072 H   0  0  0  0  0  0  0  0  0  0  0  0
   -2.2225   24.0423  -29.0070 H   0  0  0  0  0  0  0  0  0  0  0  0
   -4.0620   25.5130  -29.0010 H   0  0  0  0  0  0  0  0  0  0  0  0
   -6.2009   26.1979  -29.7483 H   0  0  0  0  0  0  0  0  0  0  0  0
   -8.9020   22.5033  -31.3527 H   0  0  0  0  0  0  0  0  0  0  0  0
  -10.0664   20.3600  -31.0929 H   0  0  0  0  0  0  0  0  0  0  0  0
   -5.6284   20.4452  -33.3673 H   0  0  0  0  0  0  0  0  0  0  0  0
   -4.5445   21.2592  -32.4132 H   0  0  0  0  0  0  0  0  0  0  0  0
   -1.5190   19.6880  -31.1390 H   0  0  0  0  0  0  0  0  0  0  0  0
   -2.4538   18.8045  -33.1303 H   0  0  0  0  0  0  0  0  0  0  0  0
   -3.2070   20.4260  -33.4775 H   0  0  0  0  0  0  0  0  0  0  0  0
   -0.8398   18.3067  -34.7561 H   0  0  0  0  0  0  0  0  0  0  0  0
    1.0559   18.9572  -36.1810 H   0  0  0  0  0  0  0  0  0  0  0  0
    1.8173   21.3359  -36.2085 H   0  0  0  0  0  0  0  0  0  0  0  0
   -1.2187   22.3474  -33.3907 H   0  0  0  0  0  0  0  0  0  0  0  0
  1  2  1  0
  2  3  2  0
  3  4  1  0
  4  5  1  0
  5  6  1  0
  6  7  2  0
  7  8  1  0
  8  9  2  0
  9 10  1  0
 10 11  2  0
 11 12  1  0
 12 13  2  0
 13 14  1  0
 13 15  1  0
 15 16  1  0
 15 17  2  0
  8 18  1  0
 18 19  1  0
 19 20  2  0
 20 21  1  0
 21 22  1  0
 22 23  1  0
 23 24  2  0
 24 25  1  0
 25 26  2  0
 26 27  1  0
 27 28  2  0
 20  2  1  0
 28 23  1  0
 18  4  2  0
 17 10  1  0
  1 29  1  0
  1 30  1  0
  1 31  1  0
  3 32  1  0
  5 33  1  0
  6 34  1  0
 11 35  1  0
 12 36  1  0
 17 37  1  0
 19 38  1  0
 21 39  1  0
 22 40  1  0
 22 41  1  0
 24 42  1  0
 25 43  1  0
 26 44  1  0
 28 45  1  0
M  END
>  <smiles>  (46) 
Cc1cc2[nH]cnc(=Nc3ccc(F)c(Br)c3)c2cc1NCc1cccnc1

>  <score_type>  (46) 
oracle

>  <origin>  (46) 
adg

>  <m_score__min__energy>  (46) 
-9.7400000000000002

>  <m_primary>  (46) 
energy

$$$$
