0:0
     RDKit          3D

 44 47  0  0  0  0  0  0  0  0999 V2000
   -6.1170   16.2550  -33.0910 C   0  0  0  0  0  0  0  0  0  0  0  0
   -6.4240   17.6410  -32.6220 C   0  0  0  0  0  0  0  0  0  0  0  0
   -5.3960   18.6090  -32.5500 C   0  0  0  0  0  0  0  0  0  0  0  0
   -5.7160   19.9160  -32.1330 C   0  0  0  0  0  0  0  0  0  0  0  0
   -4.7110   20.9460  -32.0620 N   0  0  0  0  0  0  0  0  0  0  0  0
   -4.8250   22.1620  -32.8760 C   0  0  0  0  0  0  0  0  0  0  0  0
   -4.9810   23.4000  -31.9760 C   0  0  0  0  0  0  0  0  0  0  0  0
   -4.2100   23.2780  -30.6320 C   0  0  0  0  0  0  0  0  0  0  0  0
   -3.6610   24.6150  -30.1850 C   0  0  0  0  0  0  0  0  0  0  0  0
   -4.3420   25.6570  -30.3780 O   0  0  0  0  0  0  0  0  0  0  0  0
   -2.3350   24.7520  -29.6550 N   0  0  0  0  0  0  0  0  0  0  0  0
   -1.9880   25.2610  -28.3610 C   0  0  0  0  0  0  0  0  0  0  0  0
   -2.7080   24.8240  -27.2420 C   0  0  0  0  0  0  0  0  0  0  0  0
   -2.3750   25.2870  -25.9640 C   0  0  0  0  0  0  0  0  0  0  0  0
   -1.3080   26.1740  -25.7960 C   0  0  0  0  0  0  0  0  0  0  0  0
   -0.8540   26.8040  -24.0510 Br  0  0  0  0  0  0  0  0  0  0  0  0
   -0.5650   26.5890  -26.9050 C   0  0  0  0  0  0  0  0  0  0  0  0
   -0.8960   26.1280  -28.1840 C   0  0  0  0  0  0  0  0  0  0  0  0
   -3.0720   22.2420  -30.7170 C   0  0  0  0  0  0  0  0  0  0  0  0
   -3.6400   20.8550  -31.0590 C   0  0  0  0  0  0  0  0  0  0  0  0
   -7.0190   20.1730  -31.8400 N   0  0  0  0  0  0  0  0  0  0  0  0
   -7.5580   21.2970  -31.4140 N   0  0  0  0  0  0  0  0  0  0  0  0
   -8.8740   21.0100  -31.2550 C   0  0  0  0  0  0  0  0  0  0  0  0
   -9.1820   19.7210  -31.5630 N   0  0  0  0  0  0  0  0  0  0  0  0
   -7.9760   19.2490  -31.9200 C   0  0  0  0  0  0  0  0  0  0  0  0
   -7.7100   17.9800  -32.3110 N   0  0  0  0  0  0  0  0  0  0  0  0
   -5.9714   15.5974  -32.2213 H   0  0  0  0  0  0  0  0  0  0  0  0
   -6.9538   15.8797  -33.6984 H   0  0  0  0  0  0  0  0  0  0  0  0
   -5.2000   16.2681  -33.6984 H   0  0  0  0  0  0  0  0  0  0  0  0
   -4.3616   18.3454  -32.8157 H   0  0  0  0  0  0  0  0  0  0  0  0
   -3.9192   22.2727  -33.4902 H   0  0  0  0  0  0  0  0  0  0  0  0
   -5.7121   22.0767  -33.5207 H   0  0  0  0  0  0  0  0  0  0  0  0
   -4.6009   24.2778  -32.5192 H   0  0  0  0  0  0  0  0  0  0  0  0
   -6.0496   23.4965  -31.7335 H   0  0  0  0  0  0  0  0  0  0  0  0
   -4.9362   22.9299  -29.8827 H   0  0  0  0  0  0  0  0  0  0  0  0
   -3.5386   24.1140  -27.3682 H   0  0  0  0  0  0  0  0  0  0  0  0
   -2.9538   24.9524  -25.0905 H   0  0  0  0  0  0  0  0  0  0  0  0
    0.2812   27.2791  -26.7720 H   0  0  0  0  0  0  0  0  0  0  0  0
   -0.3003   26.4448  -29.0528 H   0  0  0  0  0  0  0  0  0  0  0  0
   -2.3614   22.5465  -31.4995 H   0  0  0  0  0  0  0  0  0  0  0  0
   -2.5608   22.1903  -29.7444 H   0  0  0  0  0  0  0  0  0  0  0  0
   -2.8305   20.2248  -31.4560 H   0  0  0  0  0  0  0  0  0  0  0  0
   -4.0612   20.4178  -30.1417 H   0  0  0  0  0  0  0  0  0  0  0  0
   -9.6171   21.7449  -30.9118 H   0  0  0  0  0  0  0  0  0  0  0  0
  1  2  1  0
  2  3  1  0
  3  4  2  0
  4  5  1  0
  5  6  1  0
  6  7  1  0
  7  8  1  0
  8  9  1  0
  9 10  2  0
  9 11  1  0
 11 12  1  0
 12 13  2  0
 13 14  1  0
 14 15  2  0
 15 16  1  0
 15 17  1  0
 17 18  2  0
  8 19  1  0
 19 20  1  0
  4 21  1  0
 21 22  1  0
 22 23  2  0
 23 24  1  0
 24 25  2  0
 25 26  1  0
 26  2  2  0
 20  5  1  0
 25 21  1  0
 18 12  1  0
  1 27  1  0
  1 28  1  0
  1 29  1  0
  3 30  1  0
  6 31  1  0
  6 32  1  0
  7 33  1  0
  7 34  1  0
  8 35  1  0
 13 36  1  0
 14 37  1  0
 17 38  1  0
 18 39  1  0
 19 40  1  0
 19 41  1  0
 20 42  1  0
 20 43  1  0
 23 44  1  0
M  CHG  1  11  -1
M  END
>  <UniqueID>  (1) 
1

>  <SMILES>  (1) 
Cc1cc(N2CCC(C(=O)[N-]c3ccc(Br)cc3)CC2)n2ncnc2n1

>  <Energy>  (1) 
96.87904287409697

>  <Genealogy>  (1) 
Cc1cc(N2CCC(C(=O)[N-]c3ccc(Br)cc3)CC2)n2ncnc2n1 (protonated)
Cc1cc(N2CCC(C(=O)[N-]c3ccc(Br)cc3)CC2)n2ncnc2n1 (3D coordinates assigned)
Cc1cc(N2CCC(C(=O)[N-]c3ccc(Br)cc3)CC2)n2ncnc2n1 (nonaromatic ring conformer: 96.87904287409697 kcal/mol)

>  <smiles>  (1) 
Cc1cc(N2CCC(C(=O)Nc3ccc(Br)cc3)CC2)n2ncnc2n1

>  <score_type>  (1) 
oracle

>  <origin>  (1) 
adg

>  <m_score__min__energy>  (1) 
-11.06

>  <m_primary>  (1) 
energy

$$$$
1:0
     RDKit          3D

 39 41  0  0  0  0  0  0  0  0999 V2000
   -4.2640   23.1940  -28.2060 C   0  0  0  0  0  0  0  0  0  0  0  0
   -4.1780   24.1350  -29.4030 C   0  0  0  0  0  0  0  0  0  0  0  0
   -4.1710   23.3800  -30.6610 N   0  0  0  0  0  0  0  0  0  0  0  0
   -5.1430   23.3010  -31.6110 C   0  0  0  0  0  0  0  0  0  0  0  0
   -6.4870   23.9620  -31.5130 C   0  0  0  0  0  0  0  0  0  0  0  0
   -7.4130   23.4040  -32.5040 N   0  0  0  0  0  0  0  0  0  0  0  0
   -8.4150   22.1570  -31.8120 S   0  0  0  0  0  0  0  0  0  0  0  0
   -9.8330   22.3250  -32.2860 O   0  0  0  0  0  0  0  0  0  0  0  0
   -8.3960   22.2880  -30.3160 O   0  0  0  0  0  0  0  0  0  0  0  0
   -7.8120   20.5570  -32.2420 C   0  0  0  0  0  0  0  0  0  0  0  0
   -8.3020   19.4090  -31.6000 C   0  0  0  0  0  0  0  0  0  0  0  0
   -7.8480   18.1420  -31.9830 C   0  0  0  0  0  0  0  0  0  0  0  0
   -6.9020   18.0170  -33.0040 C   0  0  0  0  0  0  0  0  0  0  0  0
   -6.4020   19.1580  -33.6380 C   0  0  0  0  0  0  0  0  0  0  0  0
   -6.8510   20.4250  -33.2540 C   0  0  0  0  0  0  0  0  0  0  0  0
   -4.8060   22.5070  -32.6610 N   0  0  0  0  0  0  0  0  0  0  0  0
   -3.5800   22.0680  -32.3310 C   0  0  0  0  0  0  0  0  0  0  0  0
   -2.7770   21.1840  -33.0460 C   0  0  0  0  0  0  0  0  0  0  0  0
   -1.5340   20.8310  -32.4880 C   0  0  0  0  0  0  0  0  0  0  0  0
   -1.1310   21.3660  -31.2440 C   0  0  0  0  0  0  0  0  0  0  0  0
   -1.9670   22.2560  -30.5460 C   0  0  0  0  0  0  0  0  0  0  0  0
   -3.1940   22.5840  -31.1280 C   0  0  0  0  0  0  0  0  0  0  0  0
   -4.2106   23.7784  -27.2756 H   0  0  0  0  0  0  0  0  0  0  0  0
   -5.2161   22.6442  -28.2395 H   0  0  0  0  0  0  0  0  0  0  0  0
   -3.4273   22.4807  -28.2395 H   0  0  0  0  0  0  0  0  0  0  0  0
   -5.0457   24.8110  -29.3931 H   0  0  0  0  0  0  0  0  0  0  0  0
   -3.2431   24.7102  -29.3323 H   0  0  0  0  0  0  0  0  0  0  0  0
   -6.8964   23.8000  -30.5050 H   0  0  0  0  0  0  0  0  0  0  0  0
   -6.3669   25.0379  -31.7079 H   0  0  0  0  0  0  0  0  0  0  0  0
   -6.8420   22.9450  -33.2500 H   0  0  0  0  0  0  0  0  0  0  0  0
   -9.0444   19.5055  -30.7941 H   0  0  0  0  0  0  0  0  0  0  0  0
   -8.2360   17.2439  -31.4801 H   0  0  0  0  0  0  0  0  0  0  0  0
   -6.5507   17.0202  -33.3089 H   0  0  0  0  0  0  0  0  0  0  0  0
   -5.6550   19.0589  -34.4393 H   0  0  0  0  0  0  0  0  0  0  0  0
   -6.4487   21.3218  -33.7479 H   0  0  0  0  0  0  0  0  0  0  0  0
   -3.1027   20.7753  -34.0139 H   0  0  0  0  0  0  0  0  0  0  0  0
   -0.8723   20.1344  -33.0237 H   0  0  0  0  0  0  0  0  0  0  0  0
   -0.1565   21.0845  -30.8184 H   0  0  0  0  0  0  0  0  0  0  0  0
   -1.6655   22.6788  -29.5763 H   0  0  0  0  0  0  0  0  0  0  0  0
  1  2  1  0
  2  3  1  0
  3  4  1  0
  4  5  1  0
  5  6  1  0
  6  7  1  0
  7  8  2  0
  7  9  2  0
  7 10  1  0
 10 11  2  0
 11 12  1  0
 12 13  2  0
 13 14  1  0
 14 15  2  0
  4 16  2  0
 16 17  1  0
 17 18  2  0
 18 19  1  0
 19 20  2  0
 20 21  1  0
 21 22  2  0
 22  3  1  0
 15 10  1  0
 22 17  1  0
  1 23  1  0
  1 24  1  0
  1 25  1  0
  2 26  1  0
  2 27  1  0
  5 28  1  0
  5 29  1  0
  6 30  1  0
 11 31  1  0
 12 32  1  0
 13 33  1  0
 14 34  1  0
 15 35  1  0
 18 36  1  0
 19 37  1  0
 20 38  1  0
 21 39  1  0
M  END
>  <UniqueID>  (2) 
2

>  <SMILES>  (2) 
CCn1c(CNS(=O)(=O)c2ccccc2)nc2ccccc21

>  <Energy>  (2) 
68.84367024938797

>  <Genealogy>  (2) 
CCn1c(CNS(=O)(=O)c2ccccc2)nc2ccccc21 (3D coordinates assigned)
CCn1c(CNS(=O)(=O)c2ccccc2)nc2ccccc21 (optimized conformer: 68.84367024938797 kcal/mol)

>  <smiles>  (2) 
CCn1c(CNS(=O)(=O)c2ccccc2)nc2ccccc21

>  <score_type>  (2) 
oracle

>  <origin>  (2) 
adg

>  <m_score__min__energy>  (2) 
-8.2599999999999998

>  <m_primary>  (2) 
energy

$$$$
2:0
     RDKit          3D

 21 23  0  0  0  0  0  0  0  0999 V2000
   -8.7770   20.1330  -32.4190 C   0  0  0  0  0  0  0  0  0  0  0  0
   -9.3890   21.1300  -31.6510 C   0  0  0  0  0  0  0  0  0  0  0  0
   -8.6560   22.2440  -31.2270 C   0  0  0  0  0  0  0  0  0  0  0  0
   -7.3000   22.3600  -31.5730 C   0  0  0  0  0  0  0  0  0  0  0  0
   -6.6780   21.3480  -32.3530 C   0  0  0  0  0  0  0  0  0  0  0  0
   -7.4280   20.2380  -32.7700 C   0  0  0  0  0  0  0  0  0  0  0  0
   -5.3090   21.4740  -32.6970 C   0  0  0  0  0  0  0  0  0  0  0  0
   -4.5870   22.5590  -32.2860 N   0  0  0  0  0  0  0  0  0  0  0  0
   -5.1930   23.5180  -31.5420 C   0  0  0  0  0  0  0  0  0  0  0  0
   -4.6130   24.6310  -31.0710 N   0  0  0  0  0  0  0  0  0  0  0  0
   -5.5850   25.2840  -30.3940 C   0  0  0  0  0  0  0  0  0  0  0  0
   -6.7830   24.5770  -30.4390 C   0  0  0  0  0  0  0  0  0  0  0  0
   -6.5100   23.4440  -31.1830 C   0  0  0  0  0  0  0  0  0  0  0  0
   -9.3612   19.2612  -32.7486 H   0  0  0  0  0  0  0  0  0  0  0  0
  -10.4509   21.0376  -31.3794 H   0  0  0  0  0  0  0  0  0  0  0  0
   -9.1405   23.0265  -30.6245 H   0  0  0  0  0  0  0  0  0  0  0  0
   -6.9542   19.4498  -33.3735 H   0  0  0  0  0  0  0  0  0  0  0  0
   -4.8237   20.6922  -33.2997 H   0  0  0  0  0  0  0  0  0  0  0  0
   -3.6220   24.9320  -31.1980 H   0  0  0  0  0  0  0  0  0  0  0  0
   -5.4471   26.2451  -29.8771 H   0  0  0  0  0  0  0  0  0  0  0  0
   -7.7422   24.8593  -29.9805 H   0  0  0  0  0  0  0  0  0  0  0  0
  1  2  2  0
  2  3  1  0
  3  4  2  0
  4  5  1  0
  5  6  2  0
  5  7  1  0
  7  8  2  0
  8  9  1  0
  9 10  1  0
 10 11  1  0
 11 12  2  0
 12 13  1  0
  6  1  1  0
 13  9  2  0
 13  4  1  0
  1 14  1  0
  2 15  1  0
  3 16  1  0
  6 17  1  0
  7 18  1  0
 10 19  1  0
 11 20  1  0
 12 21  1  0
M  END
>  <UniqueID>  (3) 
3

>  <SMILES>  (3) 
c1ccc2c(c1)cnc1[nH]ccc12

>  <Energy>  (3) 
61.52979899622621

>  <Genealogy>  (3) 
c1ccc2c(c1)cnc1[nH]ccc12 (3D coordinates assigned)
c1ccc2c(c1)cnc1[nH]ccc12 (optimized conformer: 61.52979899622621 kcal/mol)

>  <smiles>  (3) 
c1ccc2c(c1)cnc1[nH]ccc12

>  <score_type>  (3) 
oracle

>  <origin>  (3) 
adg

>  <m_score__min__energy>  (3) 
-6.4500000000000002

>  <m_primary>  (3) 
energy

$$$$
3:0
     RDKit          3D

 34 35  0  0  0  0  0  0  0  0999 V2000
   -3.8480   23.9840  -28.4480 C   0  0  0  0  0  0  0  0  0  0  0  0
   -3.0230   24.5520  -29.5970 C   0  0  0  0  0  0  0  0  0  0  0  0
   -3.8740   25.2880  -30.5250 N   0  0  0  0  0  0  0  0  0  0  0  0
   -5.2550   24.9820  -30.7480 C   0  0  0  0  0  0  0  0  0  0  0  0
   -6.1560   25.5850  -30.1040 O   0  0  0  0  0  0  0  0  0  0  0  0
   -5.6270   23.9470  -31.7630 C   0  0  0  0  0  0  0  0  0  0  0  0
   -6.6200   23.0100  -31.2010 N   0  0  0  0  0  0  0  0  0  0  0  0
   -7.9890   23.4050  -31.5960 C   0  0  0  0  0  0  0  0  0  0  0  0
   -8.9520   22.2110  -31.5050 C   0  0  0  0  0  0  0  0  0  0  0  0
   -8.6070   21.1350  -32.3680 O   0  0  0  0  0  0  0  0  0  0  0  0
   -7.2190   21.0620  -32.6720 C   0  0  2  0  0  0  0  0  0  0  0  0
   -6.8590   19.6340  -32.9800 C   0  0  0  0  0  0  0  0  0  0  0  0
   -5.9840   19.2610  -34.0140 C   0  0  0  0  0  0  0  0  0  0  0  0
   -5.8340   17.8890  -34.1500 C   0  0  0  0  0  0  0  0  0  0  0  0
   -6.8000   17.1430  -32.9930 S   0  0  0  0  0  0  0  0  0  0  0  0
   -7.4160   18.5480  -32.3080 C   0  0  0  0  0  0  0  0  0  0  0  0
   -6.3140   21.5970  -31.5390 C   0  0  0  0  0  0  0  0  0  0  0  0
   -3.4025   24.2907  -27.4901 H   0  0  0  0  0  0  0  0  0  0  0  0
   -4.8777   24.3655  -28.5123 H   0  0  0  0  0  0  0  0  0  0  0  0
   -3.8591   22.8859  -28.5123 H   0  0  0  0  0  0  0  0  0  0  0  0
   -2.2581   25.2308  -29.1918 H   0  0  0  0  0  0  0  0  0  0  0  0
   -2.5463   23.7203  -30.1364 H   0  0  0  0  0  0  0  0  0  0  0  0
   -6.0557   24.4430  -32.6463 H   0  0  0  0  0  0  0  0  0  0  0  0
   -4.7253   23.3843  -32.0465 H   0  0  0  0  0  0  0  0  0  0  0  0
   -8.3409   24.2034  -30.9261 H   0  0  0  0  0  0  0  0  0  0  0  0
   -7.9659   23.7594  -32.6371 H   0  0  0  0  0  0  0  0  0  0  0  0
   -8.9499   21.8406  -30.4692 H   0  0  0  0  0  0  0  0  0  0  0  0
   -9.9431   22.5710  -31.8183 H   0  0  0  0  0  0  0  0  0  0  0  0
   -7.0420   21.7098  -33.5432 H   0  0  0  0  0  0  0  0  0  0  0  0
   -5.4663   19.9891  -34.6557 H   0  0  0  0  0  0  0  0  0  0  0  0
   -5.1952   17.3783  -34.8856 H   0  0  0  0  0  0  0  0  0  0  0  0
   -8.1329   18.6011  -31.4754 H   0  0  0  0  0  0  0  0  0  0  0  0
   -6.4638   20.9773  -30.6426 H   0  0  0  0  0  0  0  0  0  0  0  0
   -5.2715   21.5496  -31.8868 H   0  0  0  0  0  0  0  0  0  0  0  0
  1  2  1  0
  2  3  1  0
  3  4  1  0
  4  5  2  0
  4  6  1  0
  6  7  1  0
  7  8  1  0
  8  9  1  0
  9 10  1  0
 10 11  1  0
 11 12  1  0
 12 13  1  0
 13 14  2  0
 14 15  1  0
 15 16  1  0
 11 17  1  0
 17  7  1  0
 16 12  2  0
  1 18  1  0
  1 19  1  0
  1 20  1  0
  2 21  1  0
  2 22  1  0
  6 23  1  0
  6 24  1  0
  8 25  1  0
  8 26  1  0
  9 27  1  0
  9 28  1  0
 11 29  1  6
 13 30  1  0
 14 31  1  0
 16 32  1  0
 17 33  1  0
 17 34  1  0
M  CHG  1   3  -1
M  END
>  <UniqueID>  (4) 
4

>  <SMILES>  (4) 
CC[N-]C(=O)CN1CCO[C@H](c2ccsc2)C1

>  <Energy>  (4) 
66.73491885797488

>  <Genealogy>  (4) 
CC[N-]C(=O)CN1CCOC(c2ccsc2)C1 (protonated)
CC[N-]C(=O)CN1CCO[C@H](c2ccsc2)C1 (chirality)
CC[N-]C(=O)CN1CCO[C@H](c2ccsc2)C1 (3D coordinates assigned)
CC[N-]C(=O)CN1CCO[C@H](c2ccsc2)C1 (nonaromatic ring conformer: 66.73491885797488 kcal/mol)

>  <smiles>  (4) 
CCNC(=O)CN1CCOC(c2ccsc2)C1

>  <score_type>  (4) 
oracle

>  <origin>  (4) 
adg

>  <m_score__min__energy>  (4) 
-8.6899999999999995

>  <m_primary>  (4) 
energy

$$$$
4:0
     RDKit          3D

 60 62  0  0  0  0  0  0  0  0999 V2000
   -0.9790   20.9670  -33.8460 C   0  0  0  0  0  0  0  0  0  0  0  0
   -0.9430   19.6200  -34.5850 C   0  0  0  0  0  0  0  0  0  0  0  0
   -1.0870   18.4500  -33.6790 N   0  0  0  0  0  0  0  0  0  0  0  0
   -1.5830   18.9020  -32.3530 C   0  0  0  0  0  0  0  0  0  0  0  0
   -0.4900   18.9100  -31.2710 C   0  0  0  0  0  0  0  0  0  0  0  0
   -1.8660   17.3170  -34.2720 C   0  0  0  0  0  0  0  0  0  0  0  0
   -3.2500   17.0110  -33.6420 C   0  0  0  0  0  0  0  0  0  0  0  0
   -4.3500   16.6310  -34.6530 C   0  0  0  0  0  0  0  0  0  0  0  0
   -5.7540   16.9100  -34.0940 C   0  0  0  0  0  0  0  0  0  0  0  0
   -6.2050   18.2570  -34.4520 N   0  0  0  0  0  0  0  0  0  0  0  0
   -5.8810   19.4130  -33.6550 C   0  0  0  0  0  0  0  0  0  0  0  0
   -4.5730   19.9260  -33.6840 C   0  0  0  0  0  0  0  0  0  0  0  0
   -4.2360   21.0670  -32.9650 C   0  0  0  0  0  0  0  0  0  0  0  0
   -5.1950   21.7380  -32.2020 C   0  0  0  0  0  0  0  0  0  0  0  0
   -4.8040   22.9110  -31.4730 N   0  0  0  0  0  0  0  0  0  0  0  0
   -3.4550   22.9510  -30.8900 C   0  0  0  0  0  0  0  0  0  0  0  0
   -3.2900   24.1370  -29.9220 C   0  0  0  0  0  0  0  0  0  0  0  0
   -3.8810   25.3150  -30.4300 O   0  0  0  0  0  0  0  0  0  0  0  0
   -5.2760   25.1270  -30.5320 C   0  0  0  0  0  0  0  0  0  0  0  0
   -5.5890   24.1360  -31.6470 C   0  0  0  0  0  0  0  0  0  0  0  0
   -6.5160   21.2490  -32.1470 C   0  0  0  0  0  0  0  0  0  0  0  0
   -7.4920   21.9060  -31.3730 C   0  0  0  0  0  0  0  0  0  0  0  0
   -8.7880   21.3970  -31.2890 C   0  0  0  0  0  0  0  0  0  0  0  0
   -9.1250   20.2220  -31.9590 C   0  0  0  0  0  0  0  0  0  0  0  0
   -8.1750   19.5590  -32.7370 C   0  0  0  0  0  0  0  0  0  0  0  0
   -6.8630   20.0680  -32.8640 C   0  0  0  0  0  0  0  0  0  0  0  0
   -0.9743   20.7899  -32.7604 H   0  0  0  0  0  0  0  0  0  0  0  0
   -0.0964   21.5616  -34.1243 H   0  0  0  0  0  0  0  0  0  0  0  0
   -1.8921   21.5136  -34.1243 H   0  0  0  0  0  0  0  0  0  0  0  0
   -1.7655   19.5999  -35.3152 H   0  0  0  0  0  0  0  0  0  0  0  0
    0.0416   19.5392  -35.0688 H   0  0  0  0  0  0  0  0  0  0  0  0
   -0.1190   18.0840  -33.5110 H   0  0  0  0  0  0  0  0  0  0  0  0
   -1.9802   19.9225  -32.4570 H   0  0  0  0  0  0  0  0  0  0  0  0
   -2.3572   18.1896  -32.0320 H   0  0  0  0  0  0  0  0  0  0  0  0
   -0.9590   18.9066  -30.2760 H   0  0  0  0  0  0  0  0  0  0  0  0
    0.1419   18.0165  -31.3816 H   0  0  0  0  0  0  0  0  0  0  0  0
    0.1288   19.8127  -31.3816 H   0  0  0  0  0  0  0  0  0  0  0  0
   -2.0284   17.5462  -35.3355 H   0  0  0  0  0  0  0  0  0  0  0  0
   -1.2589   16.4201  -34.0796 H   0  0  0  0  0  0  0  0  0  0  0  0
   -3.1283   16.1745  -32.9381 H   0  0  0  0  0  0  0  0  0  0  0  0
   -3.5823   17.9409  -33.1573 H   0  0  0  0  0  0  0  0  0  0  0  0
   -4.2085   17.2188  -35.5720 H   0  0  0  0  0  0  0  0  0  0  0  0
   -4.2700   15.5535  -34.8592 H   0  0  0  0  0  0  0  0  0  0  0  0
   -6.4585   16.1733  -34.5075 H   0  0  0  0  0  0  0  0  0  0  0  0
   -5.7154   16.8340  -32.9973 H   0  0  0  0  0  0  0  0  0  0  0  0
   -6.8200   18.3710  -35.2910 H   0  0  0  0  0  0  0  0  0  0  0  0
   -3.8045   19.4172  -34.2845 H   0  0  0  0  0  0  0  0  0  0  0  0
   -3.2037   21.4455  -32.9971 H   0  0  0  0  0  0  0  0  0  0  0  0
   -3.2756   22.0148  -30.3411 H   0  0  0  0  0  0  0  0  0  0  0  0
   -2.7302   23.0720  -31.7086 H   0  0  0  0  0  0  0  0  0  0  0  0
   -3.7675   23.8837  -28.9640 H   0  0  0  0  0  0  0  0  0  0  0  0
   -2.2140   24.3237  -29.7904 H   0  0  0  0  0  0  0  0  0  0  0  0
   -5.6614   24.7363  -29.5787 H   0  0  0  0  0  0  0  0  0  0  0  0
   -5.7541   26.0908  -30.7612 H   0  0  0  0  0  0  0  0  0  0  0  0
   -6.6602   23.8874  -31.6215 H   0  0  0  0  0  0  0  0  0  0  0  0
   -5.3312   24.5921  -32.6142 H   0  0  0  0  0  0  0  0  0  0  0  0
   -7.2306   22.8268  -30.8310 H   0  0  0  0  0  0  0  0  0  0  0  0
   -9.5465   21.9246  -30.6921 H   0  0  0  0  0  0  0  0  0  0  0  0
  -10.1437   19.8158  -31.8741 H   0  0  0  0  0  0  0  0  0  0  0  0
   -8.4506   18.6298  -33.2572 H   0  0  0  0  0  0  0  0  0  0  0  0
  1  2  1  0
  2  3  1  0
  3  4  1  0
  4  5  1  0
  3  6  1  0
  6  7  1  0
  7  8  1  0
  8  9  1  0
  9 10  1  0
 10 11  1  0
 11 12  2  0
 12 13  1  0
 13 14  2  0
 14 15  1  0
 15 16  1  0
 16 17  1  0
 17 18  1  0
 18 19  1  0
 19 20  1  0
 14 21  1  0
 21 22  2  0
 22 23  1  0
 23 24  2  0
 24 25  1  0
 25 26  2  0
 26 11  1  0
 20 15  1  0
 26 21  1  0
  1 27  1  0
  1 28  1  0
  1 29  1  0
  2 30  1  0
  2 31  1  0
  3 32  1  0
  4 33  1  0
  4 34  1  0
  5 35  1  0
  5 36  1  0
  5 37  1  0
  6 38  1  0
  6 39  1  0
  7 40  1  0
  7 41  1  0
  8 42  1  0
  8 43  1  0
  9 44  1  0
  9 45  1  0
 10 46  1  0
 12 47  1  0
 13 48  1  0
 16 49  1  0
 16 50  1  0
 17 51  1  0
 17 52  1  0
 19 53  1  0
 19 54  1  0
 20 55  1  0
 20 56  1  0
 22 57  1  0
 23 58  1  0
 24 59  1  0
 25 60  1  0
M  CHG  1   3   1
M  END
>  <UniqueID>  (5) 
5

>  <SMILES>  (5) 
CC[NH+](CC)CCCCNc1ccc(N2CCOCC2)c2ccccc12

>  <Energy>  (5) 
81.60049915872952

>  <Genealogy>  (5) 
CC[NH+](CC)CCCCNc1ccc(N2CCOCC2)c2ccccc12 (protonated)
CC[NH+](CC)CCCCNc1ccc(N2CCOCC2)c2ccccc12 (3D coordinates assigned)
CC[NH+](CC)CCCCNc1ccc(N2CCOCC2)c2ccccc12 (nonaromatic ring conformer: 81.60049915872952 kcal/mol)

>  <smiles>  (5) 
CCN(CC)CCCCNc1ccc(N2CCOCC2)c2ccccc12

>  <score_type>  (5) 
oracle

>  <origin>  (5) 
adg

>  <m_score__min__energy>  (5) 
-8.2200000000000006

>  <m_primary>  (5) 
energy

$$$$
5:0
     RDKit          3D

 39 41  0  0  0  0  0  0  0  0999 V2000
   -1.7910   22.4660  -30.3960 C   0  0  0  0  0  0  0  0  0  0  0  0
   -2.2320   23.7530  -29.9740 O   0  0  0  0  0  0  0  0  0  0  0  0
   -2.1850   24.2170  -28.6490 C   0  0  0  0  0  0  0  0  0  0  0  0
   -0.9630   24.4660  -27.9910 C   0  0  0  0  0  0  0  0  0  0  0  0
   -0.9520   24.9340  -26.6760 C   0  0  0  0  0  0  0  0  0  0  0  0
   -2.1530   25.1670  -26.0060 C   0  0  0  0  0  0  0  0  0  0  0  0
   -3.3700   24.9240  -26.6450 C   0  0  0  0  0  0  0  0  0  0  0  0
   -3.3970   24.4310  -27.9630 C   0  0  0  0  0  0  0  0  0  0  0  0
   -4.6460   24.1940  -28.6350 N   0  0  0  0  0  0  0  0  0  0  0  0
   -5.0070   24.7830  -29.8960 C   0  0  0  0  0  0  0  0  0  0  0  0
   -4.2360   25.5960  -30.4730 O   0  0  0  0  0  0  0  0  0  0  0  0
   -6.3590   24.5110  -30.4860 C   0  0  0  0  0  0  0  0  0  0  0  0
   -6.2590   24.1160  -31.9650 C   0  0  0  0  0  0  0  0  0  0  0  0
   -6.1370   22.6570  -32.1270 N   0  0  0  0  0  0  0  0  0  0  0  0
   -4.9590   22.0170  -32.3590 C   0  0  0  0  0  0  0  0  0  0  0  0
   -3.8470   22.6070  -32.4280 O   0  0  0  0  0  0  0  0  0  0  0  0
   -5.1440   20.3520  -32.5600 S   0  0  0  0  0  0  0  0  0  0  0  0
   -6.8080   20.4490  -32.3510 C   0  0  0  0  0  0  0  0  0  0  0  0
   -7.7360   19.4120  -32.3940 C   0  0  0  0  0  0  0  0  0  0  0  0
   -9.0890   19.7250  -32.2010 C   0  0  0  0  0  0  0  0  0  0  0  0
   -9.4850   21.0560  -31.9680 C   0  0  0  0  0  0  0  0  0  0  0  0
   -8.5310   22.0870  -31.9270 C   0  0  0  0  0  0  0  0  0  0  0  0
   -7.1780   21.7700  -32.1250 C   0  0  0  0  0  0  0  0  0  0  0  0
   -1.5779   21.8440  -29.5141 H   0  0  0  0  0  0  0  0  0  0  0  0
   -2.5769   21.9889  -30.9999 H   0  0  0  0  0  0  0  0  0  0  0  0
   -0.8776   22.5712  -30.9999 H   0  0  0  0  0  0  0  0  0  0  0  0
   -0.0130   24.2904  -28.5170 H   0  0  0  0  0  0  0  0  0  0  0  0
    0.0055   25.1194  -26.1672 H   0  0  0  0  0  0  0  0  0  0  0  0
   -2.1411   25.5429  -24.9723 H   0  0  0  0  0  0  0  0  0  0  0  0
   -4.3140   25.1191  -26.1151 H   0  0  0  0  0  0  0  0  0  0  0  0
   -5.3860   23.6630  -28.1220 H   0  0  0  0  0  0  0  0  0  0  0  0
   -6.8336   23.6902  -29.9283 H   0  0  0  0  0  0  0  0  0  0  0  0
   -6.9577   25.4311  -30.4147 H   0  0  0  0  0  0  0  0  0  0  0  0
   -7.1634   24.4594  -32.4886 H   0  0  0  0  0  0  0  0  0  0  0  0
   -5.3592   24.5867  -32.3879 H   0  0  0  0  0  0  0  0  0  0  0  0
   -7.4163   18.3751  -32.5745 H   0  0  0  0  0  0  0  0  0  0  0  0
   -9.8451   18.9266  -32.2318 H   0  0  0  0  0  0  0  0  0  0  0  0
  -10.5490   21.2905  -31.8169 H   0  0  0  0  0  0  0  0  0  0  0  0
   -8.8398   23.1265  -31.7426 H   0  0  0  0  0  0  0  0  0  0  0  0
  1  2  1  0
  2  3  1  0
  3  4  2  0
  4  5  1  0
  5  6  2  0
  6  7  1  0
  7  8  2  0
  8  9  1  0
  9 10  1  0
 10 11  2  0
 10 12  1  0
 12 13  1  0
 13 14  1  0
 14 15  1  0
 15 16  2  0
 15 17  1  0
 17 18  1  0
 18 19  2  0
 19 20  1  0
 20 21  2  0
 21 22  1  0
 22 23  2  0
  8  3  1  0
 23 14  1  0
 23 18  1  0
  1 24  1  0
  1 25  1  0
  1 26  1  0
  4 27  1  0
  5 28  1  0
  6 29  1  0
  7 30  1  0
  9 31  1  0
 12 32  1  0
 12 33  1  0
 13 34  1  0
 13 35  1  0
 19 36  1  0
 20 37  1  0
 21 38  1  0
 22 39  1  0
M  END
>  <UniqueID>  (6) 
6

>  <SMILES>  (6) 
COc1ccccc1NC(=O)CCn1c(=O)sc2ccccc21

>  <Energy>  (6) 
74.90346565876938

>  <Genealogy>  (6) 
COc1ccccc1NC(=O)CCn1c(=O)sc2ccccc21 (3D coordinates assigned)
COc1ccccc1NC(=O)CCn1c(=O)sc2ccccc21 (optimized conformer: 74.90346565876938 kcal/mol)

>  <smiles>  (6) 
COc1ccccc1NC(=O)CCn1c(=O)sc2ccccc21

>  <score_type>  (6) 
oracle

>  <origin>  (6) 
adg

>  <m_score__min__energy>  (6) 
-9.0800000000000001

>  <m_primary>  (6) 
energy

$$$$
6:0
     RDKit          3D

 33 34  0  0  0  0  0  0  0  0999 V2000
   -5.9700   16.8820  -33.0880 C   0  0  0  0  0  0  0  0  0  0  0  0
   -6.8390   18.0780  -32.8330 C   0  0  0  0  0  0  0  0  0  0  0  0
   -6.4870   19.3310  -33.3570 C   0  0  0  0  0  0  0  0  0  0  0  0
   -7.2760   20.4550  -33.0880 C   0  0  0  0  0  0  0  0  0  0  0  0
   -8.4240   20.3390  -32.2890 C   0  0  0  0  0  0  0  0  0  0  0  0
   -9.2520   21.5550  -31.9660 C   0  0  0  0  0  0  0  0  0  0  0  0
   -8.3860   22.7270  -31.7560 N   0  0  0  0  0  0  0  0  0  0  0  0
   -7.6070   22.6220  -30.5110 C   0  0  0  0  0  0  0  0  0  0  0  0
   -6.3730   23.4920  -30.5410 C   0  0  0  0  0  0  0  0  0  0  0  0
   -5.1030   22.9250  -30.7190 C   0  0  0  0  0  0  0  0  0  0  0  0
   -3.9800   23.7530  -30.7660 C   0  0  0  0  0  0  0  0  0  0  0  0
   -4.1200   25.1000  -30.6440 N   0  0  0  0  0  0  0  0  0  0  0  0
   -5.3380   25.6770  -30.4740 C   0  0  0  0  0  0  0  0  0  0  0  0
   -6.4880   24.8850  -30.4220 C   0  0  0  0  0  0  0  0  0  0  0  0
   -8.7560   19.0910  -31.7380 C   0  0  0  0  0  0  0  0  0  0  0  0
   -7.9680   17.9690  -32.0080 C   0  0  0  0  0  0  0  0  0  0  0  0
   -5.6540   16.4471  -32.1283 H   0  0  0  0  0  0  0  0  0  0  0  0
   -6.5360   16.1330  -33.6613 H   0  0  0  0  0  0  0  0  0  0  0  0
   -5.0828   17.1889  -33.6613 H   0  0  0  0  0  0  0  0  0  0  0  0
   -5.5871   19.4302  -33.9818 H   0  0  0  0  0  0  0  0  0  0  0  0
   -6.9953   21.4336  -33.5045 H   0  0  0  0  0  0  0  0  0  0  0  0
   -9.9391   21.7574  -32.8009 H   0  0  0  0  0  0  0  0  0  0  0  0
   -9.8214   21.3634  -31.0445 H   0  0  0  0  0  0  0  0  0  0  0  0
   -7.7390   22.8430  -32.5720 H   0  0  0  0  0  0  0  0  0  0  0  0
   -8.9870   23.5820  -31.6900 H   0  0  0  0  0  0  0  0  0  0  0  0
   -8.2410   22.9338  -29.6679 H   0  0  0  0  0  0  0  0  0  0  0  0
   -7.2832   21.5766  -30.3998 H   0  0  0  0  0  0  0  0  0  0  0  0
   -4.9923   21.8353  -30.8209 H   0  0  0  0  0  0  0  0  0  0  0  0
   -2.9802   23.3150  -30.9020 H   0  0  0  0  0  0  0  0  0  0  0  0
   -5.4191   26.7697  -30.3771 H   0  0  0  0  0  0  0  0  0  0  0  0
   -7.4758   25.3502  -30.2888 H   0  0  0  0  0  0  0  0  0  0  0  0
   -9.6404   18.9960  -31.0908 H   0  0  0  0  0  0  0  0  0  0  0  0
   -8.2345   16.9952  -31.5712 H   0  0  0  0  0  0  0  0  0  0  0  0
  1  2  1  0
  2  3  2  0
  3  4  1  0
  4  5  2  0
  5  6  1  0
  6  7  1  0
  7  8  1  0
  8  9  1  0
  9 10  2  0
 10 11  1  0
 11 12  2  0
 12 13  1  0
 13 14  2  0
  5 15  1  0
 15 16  2  0
 16  2  1  0
 14  9  1  0
  1 17  1  0
  1 18  1  0
  1 19  1  0
  3 20  1  0
  4 21  1  0
  6 22  1  0
  6 23  1  0
  7 24  1  0
  7 25  1  0
  8 26  1  0
  8 27  1  0
 10 28  1  0
 11 29  1  0
 13 30  1  0
 14 31  1  0
 15 32  1  0
 16 33  1  0
M  CHG  1   7   1
M  END
>  <UniqueID>  (7) 
7

>  <SMILES>  (7) 
Cc1ccc(C[NH2+]Cc2ccncc2)cc1

>  <Energy>  (7) 
32.21220870903523

>  <Genealogy>  (7) 
Cc1ccc(C[NH2+]Cc2ccncc2)cc1 (protonated)
Cc1ccc(C[NH2+]Cc2ccncc2)cc1 (3D coordinates assigned)
Cc1ccc(C[NH2+]Cc2ccncc2)cc1 (optimized conformer: 32.21220870903523 kcal/mol)

>  <smiles>  (7) 
Cc1ccc(CNCc2ccncc2)cc1

>  <score_type>  (7) 
oracle

>  <origin>  (7) 
adg

>  <m_score__min__energy>  (7) 
-6.4500000000000002

>  <m_primary>  (7) 
energy

$$$$
7:0
     RDKit          3D

 57 58  0  0  0  0  0  0  0  0999 V2000
   -6.1840   19.1130  -33.5010 C   0  0  0  0  0  0  0  0  0  0  0  0
   -6.8010   19.6480  -32.2120 C   0  0  0  0  0  0  0  0  0  0  0  0
   -8.0850   20.3280  -32.5010 N   0  0  0  0  0  0  0  0  0  0  0  0
   -9.1760   19.3450  -32.7040 C   0  0  0  0  0  0  0  0  0  0  0  0
   -9.0780   18.2280  -31.6700 C   0  0  0  0  0  0  0  0  0  0  0  0
   -8.4310   21.2950  -31.4340 C   0  0  0  0  0  0  0  0  0  0  0  0
   -8.1930   22.7320  -31.9290 C   0  0  0  0  0  0  0  0  0  0  0  0
   -6.9500   22.8560  -32.7080 N   0  0  0  0  0  0  0  0  0  0  0  0
   -5.8940   23.4490  -31.9280 C   0  0  0  0  0  0  0  0  0  0  0  0
   -6.0080   24.7310  -31.4680 N   0  0  0  0  0  0  0  0  0  0  0  0
   -5.0090   25.3260  -30.7440 C   0  0  0  0  0  0  0  0  0  0  0  0
   -3.8590   24.6460  -30.4620 N   0  0  0  0  0  0  0  0  0  0  0  0
   -3.7340   23.3750  -30.9140 C   0  0  0  0  0  0  0  0  0  0  0  0
   -4.7130   22.7640  -31.6360 C   0  0  0  0  0  0  0  0  0  0  0  0
   -4.2650   21.4950  -31.9470 C   0  0  0  0  0  0  0  0  0  0  0  0
   -2.9970   21.4070  -31.3760 C   0  0  0  0  0  0  0  0  0  0  0  0
   -2.6810   22.5580  -30.7330 N   0  0  0  0  0  0  0  0  0  0  0  0
   -1.4310   22.8490  -30.0310 C   0  0  0  0  0  0  0  0  0  0  0  0
   -1.1080   21.7940  -28.9500 C   0  0  0  0  0  0  0  0  0  0  0  0
   -1.8620   21.9240  -27.6750 N   0  0  0  0  0  0  0  0  0  0  0  0
   -3.3100   22.1980  -27.8280 C   0  0  0  0  0  0  0  0  0  0  0  0
   -3.6590   23.6430  -27.4720 C   0  0  0  0  0  0  0  0  0  0  0  0
   -1.6020   20.8220  -26.7240 C   0  0  0  0  0  0  0  0  0  0  0  0
   -2.4740   19.6170  -27.0640 C   0  0  0  0  0  0  0  0  0  0  0  0
   -5.3738   18.4105  -33.2557 H   0  0  0  0  0  0  0  0  0  0  0  0
   -6.9551   18.5928  -34.0883 H   0  0  0  0  0  0  0  0  0  0  0  0
   -5.7783   19.9500  -34.0883 H   0  0  0  0  0  0  0  0  0  0  0  0
   -6.9809   18.8112  -31.5211 H   0  0  0  0  0  0  0  0  0  0  0  0
   -6.1079   20.3703  -31.7561 H   0  0  0  0  0  0  0  0  0  0  0  0
  -10.1463   19.8525  -32.5997 H   0  0  0  0  0  0  0  0  0  0  0  0
   -9.0853   18.9111  -33.7107 H   0  0  0  0  0  0  0  0  0  0  0  0
   -9.1159   18.6598  -30.6590 H   0  0  0  0  0  0  0  0  0  0  0  0
   -9.9184   17.5308  -31.8026 H   0  0  0  0  0  0  0  0  0  0  0  0
   -8.1290   17.6878  -31.8026 H   0  0  0  0  0  0  0  0  0  0  0  0
   -9.4900   21.1740  -31.1622 H   0  0  0  0  0  0  0  0  0  0  0  0
   -7.7964   21.1059  -30.5556 H   0  0  0  0  0  0  0  0  0  0  0  0
   -9.0397   23.0323  -32.5638 H   0  0  0  0  0  0  0  0  0  0  0  0
   -8.1028   23.3815  -31.0458 H   0  0  0  0  0  0  0  0  0  0  0  0
   -7.1320   23.4540  -33.5480 H   0  0  0  0  0  0  0  0  0  0  0  0
   -6.6500   21.9150  -33.0520 H   0  0  0  0  0  0  0  0  0  0  0  0
   -5.1341   26.3590  -30.3872 H   0  0  0  0  0  0  0  0  0  0  0  0
   -4.7949   20.7209  -32.5215 H   0  0  0  0  0  0  0  0  0  0  0  0
   -2.3425   20.5251  -31.4383 H   0  0  0  0  0  0  0  0  0  0  0  0
   -0.6102   22.8685  -30.7630 H   0  0  0  0  0  0  0  0  0  0  0  0
   -1.5445   23.8215  -29.5296 H   0  0  0  0  0  0  0  0  0  0  0  0
   -1.3253   20.8014  -29.3712 H   0  0  0  0  0  0  0  0  0  0  0  0
   -0.0503   21.9468  -28.6892 H   0  0  0  0  0  0  0  0  0  0  0  0
   -3.5988   22.0097  -28.8726 H   0  0  0  0  0  0  0  0  0  0  0  0
   -3.8561   21.5365  -27.1393 H   0  0  0  0  0  0  0  0  0  0  0  0
   -3.6860   23.7548  -26.3780 H   0  0  0  0  0  0  0  0  0  0  0  0
   -2.8980   24.3179  -27.8909 H   0  0  0  0  0  0  0  0  0  0  0  0
   -4.6441   23.8962  -27.8909 H   0  0  0  0  0  0  0  0  0  0  0  0
   -0.5425   20.5325  -26.7840 H   0  0  0  0  0  0  0  0  0  0  0  0
   -1.8408   21.1624  -25.7056 H   0  0  0  0  0  0  0  0  0  0  0  0
   -2.8190   19.1402  -26.1347 H   0  0  0  0  0  0  0  0  0  0  0  0
   -3.3434   19.9476  -27.6512 H   0  0  0  0  0  0  0  0  0  0  0  0
   -1.8882   18.8945  -27.6512 H   0  0  0  0  0  0  0  0  0  0  0  0
  1  2  1  0
  2  3  1  0
  3  4  1  0
  4  5  1  0
  3  6  1  0
  6  7  1  0
  7  8  1  0
  8  9  1  0
  9 10  2  0
 10 11  1  0
 11 12  2  0
 12 13  1  0
 13 14  2  0
 14 15  1  0
 15 16  2  0
 16 17  1  0
 17 18  1  0
 18 19  1  0
 19 20  1  0
 20 21  1  0
 21 22  1  0
 20 23  1  0
 23 24  1  0
 14  9  1  0
 17 13  1  0
  1 25  1  0
  1 26  1  0
  1 27  1  0
  2 28  1  0
  2 29  1  0
  4 30  1  0
  4 31  1  0
  5 32  1  0
  5 33  1  0
  5 34  1  0
  6 35  1  0
  6 36  1  0
  7 37  1  0
  7 38  1  0
  8 39  1  0
  8 40  1  0
 11 41  1  0
 15 42  1  0
 16 43  1  0
 18 44  1  0
 18 45  1  0
 19 46  1  0
 19 47  1  0
 21 48  1  0
 21 49  1  0
 22 50  1  0
 22 51  1  0
 22 52  1  0
 23 53  1  0
 23 54  1  0
 24 55  1  0
 24 56  1  0
 24 57  1  0
M  CHG  1   8   1
M  END
>  <UniqueID>  (8) 
8

>  <SMILES>  (8) 
CCN(CC)CC[NH2+]c1ncnc2c1ccn2CCN(CC)CC

>  <Energy>  (8) 
89.95490260540245

>  <Genealogy>  (8) 
CCN(CC)CC[NH2+]c1ncnc2c1ccn2CCN(CC)CC (protonated)
CCN(CC)CC[NH2+]c1ncnc2c1ccn2CCN(CC)CC (3D coordinates assigned)
CCN(CC)CC[NH2+]c1ncnc2c1ccn2CCN(CC)CC (optimized conformer: 89.95490260540245 kcal/mol)

>  <smiles>  (8) 
CCN(CC)CCNc1ncnc2c1ccn2CCN(CC)CC

>  <score_type>  (8) 
oracle

>  <origin>  (8) 
adg

>  <m_score__min__energy>  (8) 
-6.1399999999999997

>  <m_primary>  (8) 
energy

$$$$
8:0
     RDKit          3D

 40 40  0  0  0  0  0  0  0  0999 V2000
   -0.9490   26.0200  -24.4500 C   0  0  0  0  0  0  0  0  0  0  0  0
   -2.0720   26.2570  -25.4550 C   0  0  0  0  0  0  0  0  0  0  0  0
   -2.4570   24.9590  -26.1730 C   0  0  0  0  0  0  0  0  0  0  0  0
   -3.9620   24.9350  -26.5000 C   0  0  0  0  0  0  0  0  0  0  0  0
   -4.2290   24.4930  -27.8810 N   0  0  0  0  0  0  0  0  0  0  0  0
   -3.1500   23.6410  -28.4140 C   0  0  0  0  0  0  0  0  0  0  0  0
   -3.0230   23.7880  -29.9360 C   0  0  0  0  0  0  0  0  0  0  0  0
   -3.9860   24.7620  -30.4520 N   0  0  0  0  0  0  0  0  0  0  0  0
   -5.6310   24.2370  -30.2190 S   0  0  0  0  0  0  0  0  0  0  0  0
   -5.6850   22.8810  -29.5710 O   0  0  0  0  0  0  0  0  0  0  0  0
   -6.3300   25.2260  -29.3300 O   0  0  0  0  0  0  0  0  0  0  0  0
   -6.4800   24.1860  -31.7900 C   0  0  0  0  0  0  0  0  0  0  0  0
   -7.1560   22.8580  -31.9850 C   0  0  0  0  0  0  0  0  0  0  0  0
   -8.5290   22.7170  -31.7220 C   0  0  0  0  0  0  0  0  0  0  0  0
   -9.1460   21.4710  -31.8590 C   0  0  0  0  0  0  0  0  0  0  0  0
   -8.4000   20.3570  -32.2530 C   0  0  0  0  0  0  0  0  0  0  0  0
   -7.0310   20.4880  -32.5080 C   0  0  0  0  0  0  0  0  0  0  0  0
   -6.4100   21.7330  -32.3740 C   0  0  0  0  0  0  0  0  0  0  0  0
   -1.3476   26.1041  -23.4282 H   0  0  0  0  0  0  0  0  0  0  0  0
   -0.5303   25.0137  -24.5986 H   0  0  0  0  0  0  0  0  0  0  0  0
   -0.1594   26.7713  -24.5986 H   0  0  0  0  0  0  0  0  0  0  0  0
   -2.9523   26.6477  -24.9236 H   0  0  0  0  0  0  0  0  0  0  0  0
   -1.7200   26.9792  -26.2064 H   0  0  0  0  0  0  0  0  0  0  0  0
   -1.8842   24.8820  -27.1089 H   0  0  0  0  0  0  0  0  0  0  0  0
   -2.2285   24.1109  -25.5107 H   0  0  0  0  0  0  0  0  0  0  0  0
   -4.4638   24.2457  -25.8050 H   0  0  0  0  0  0  0  0  0  0  0  0
   -4.3448   25.9610  -26.3958 H   0  0  0  0  0  0  0  0  0  0  0  0
   -4.3100   25.3480  -28.4800 H   0  0  0  0  0  0  0  0  0  0  0  0
   -5.1430   23.9820  -27.9180 H   0  0  0  0  0  0  0  0  0  0  0  0
   -2.1986   23.9328  -27.9453 H   0  0  0  0  0  0  0  0  0  0  0  0
   -3.3912   22.5923  -28.1857 H   0  0  0  0  0  0  0  0  0  0  0  0
   -2.0048   24.1246  -30.1810 H   0  0  0  0  0  0  0  0  0  0  0  0
   -3.2290   22.8123  -30.4003 H   0  0  0  0  0  0  0  0  0  0  0  0
   -7.2366   24.9840  -31.8177 H   0  0  0  0  0  0  0  0  0  0  0  0
   -5.7441   24.3301  -32.5948 H   0  0  0  0  0  0  0  0  0  0  0  0
   -9.1197   23.5900  -31.4074 H   0  0  0  0  0  0  0  0  0  0  0  0
  -10.2221   21.3666  -31.6561 H   0  0  0  0  0  0  0  0  0  0  0  0
   -8.8890   19.3778  -32.3625 H   0  0  0  0  0  0  0  0  0  0  0  0
   -6.4426   19.6105  -32.8142 H   0  0  0  0  0  0  0  0  0  0  0  0
   -5.3329   21.8323  -32.5739 H   0  0  0  0  0  0  0  0  0  0  0  0
  1  2  1  0
  2  3  1  0
  3  4  1  0
  4  5  1  0
  5  6  1  0
  6  7  1  0
  7  8  1  0
  8  9  1  0
  9 10  2  0
  9 11  2  0
  9 12  1  0
 12 13  1  0
 13 14  2  0
 14 15  1  0
 15 16  2  0
 16 17  1  0
 17 18  2  0
 18 13  1  0
  1 19  1  0
  1 20  1  0
  1 21  1  0
  2 22  1  0
  2 23  1  0
  3 24  1  0
  3 25  1  0
  4 26  1  0
  4 27  1  0
  5 28  1  0
  5 29  1  0
  6 30  1  0
  6 31  1  0
  7 32  1  0
  7 33  1  0
 12 34  1  0
 12 35  1  0
 14 36  1  0
 15 37  1  0
 16 38  1  0
 17 39  1  0
 18 40  1  0
M  CHG  2   5   1   8  -1
M  END
>  <UniqueID>  (9) 
9

>  <SMILES>  (9) 
CCCC[NH2+]CC[N-]S(=O)(=O)Cc1ccccc1

>  <Energy>  (9) 
23.708652806966192

>  <Genealogy>  (9) 
CCCC[NH2+]CC[N-]S(=O)(=O)Cc1ccccc1 (protonated)
CCCC[NH2+]CC[N-]S(=O)(=O)Cc1ccccc1 (3D coordinates assigned)
CCCC[NH2+]CC[N-]S(=O)(=O)Cc1ccccc1 (optimized conformer: 23.708652806966192 kcal/mol)

>  <smiles>  (9) 
CCCCNCCNS(=O)(=O)Cc1ccccc1

>  <score_type>  (9) 
oracle

>  <origin>  (9) 
adg

>  <m_score__min__energy>  (9) 
-7.1299999999999999

>  <m_primary>  (9) 
energy

$$$$
9:0
     RDKit          3D

 42 43  0  0  0  0  0  0  0  0999 V2000
   -2.8210   19.2320  -26.6750 C   0  0  0  0  0  0  0  0  0  0  0  0
   -2.2990   19.9430  -27.7920 O   0  0  0  0  0  0  0  0  0  0  0  0
   -2.8780   21.1000  -28.3350 C   0  0  0  0  0  0  0  0  0  0  0  0
   -3.0470   21.1710  -29.7210 C   0  0  0  0  0  0  0  0  0  0  0  0
   -3.6170   22.3020  -30.3120 C   0  0  0  0  0  0  0  0  0  0  0  0
   -4.0250   23.3910  -29.5230 C   0  0  0  0  0  0  0  0  0  0  0  0
   -4.6150   24.5910  -30.1670 C   0  0  0  0  0  0  0  0  0  0  0  0
   -3.8720   25.3620  -30.8340 O   0  0  0  0  0  0  0  0  0  0  0  0
   -6.0880   24.8950  -30.0800 C   0  0  0  0  0  0  0  0  0  0  0  0
   -6.8970   23.7440  -30.5080 N   0  0  0  0  0  0  0  0  0  0  0  0
   -6.6120   23.3280  -31.8930 C   0  0  0  0  0  0  0  0  0  0  0  0
   -6.9600   21.8800  -32.1440 C   0  0  0  0  0  0  0  0  0  0  0  0
   -6.1420   20.8910  -32.6730 C   0  0  0  0  0  0  0  0  0  0  0  0
   -4.7160   21.0400  -33.0950 C   0  0  0  0  0  0  0  0  0  0  0  0
   -6.8370   19.7430  -32.7940 N   0  0  0  0  0  0  0  0  0  0  0  0
   -8.0640   19.9680  -32.3530 N   0  0  0  0  0  0  0  0  0  0  0  0
   -9.1080   18.9490  -32.3280 C   0  0  0  0  0  0  0  0  0  0  0  0
   -8.1750   21.2460  -31.9330 C   0  0  0  0  0  0  0  0  0  0  0  0
   -9.4390   21.8720  -31.4200 C   0  0  0  0  0  0  0  0  0  0  0  0
   -3.8640   23.3150  -28.1270 C   0  0  0  0  0  0  0  0  0  0  0  0
   -3.2950   22.1810  -27.5380 C   0  0  0  0  0  0  0  0  0  0  0  0
   -2.4738   19.7049  -25.7445 H   0  0  0  0  0  0  0  0  0  0  0  0
   -3.9203   19.2523  -26.7086 H   0  0  0  0  0  0  0  0  0  0  0  0
   -2.4723   18.1893  -26.7086 H   0  0  0  0  0  0  0  0  0  0  0  0
   -2.7283   20.3286  -30.3525 H   0  0  0  0  0  0  0  0  0  0  0  0
   -3.7473   22.3401  -31.4036 H   0  0  0  0  0  0  0  0  0  0  0  0
   -6.3417   25.1441  -29.0390 H   0  0  0  0  0  0  0  0  0  0  0  0
   -6.3080   25.7414  -30.7472 H   0  0  0  0  0  0  0  0  0  0  0  0
   -7.9090   24.0000  -30.4250 H   0  0  0  0  0  0  0  0  0  0  0  0
   -7.1999   23.9562  -32.5783 H   0  0  0  0  0  0  0  0  0  0  0  0
   -5.5317   23.4469  -32.0626 H   0  0  0  0  0  0  0  0  0  0  0  0
   -4.0749   21.1070  -32.2036 H   0  0  0  0  0  0  0  0  0  0  0  0
   -4.4184   20.1681  -33.6960 H   0  0  0  0  0  0  0  0  0  0  0  0
   -4.6051   21.9546  -33.6960 H   0  0  0  0  0  0  0  0  0  0  0  0
   -9.3576   18.7053  -31.2848 H   0  0  0  0  0  0  0  0  0  0  0  0
  -10.0041   19.3295  -32.8402 H   0  0  0  0  0  0  0  0  0  0  0  0
   -8.7494   18.0440  -32.8402 H   0  0  0  0  0  0  0  0  0  0  0  0
   -9.4301   21.8676  -30.3200 H   0  0  0  0  0  0  0  0  0  0  0  0
   -9.5080   22.9084  -31.7820 H   0  0  0  0  0  0  0  0  0  0  0  0
  -10.3052   21.2987  -31.7820 H   0  0  0  0  0  0  0  0  0  0  0  0
   -4.1882   24.1541  -27.4939 H   0  0  0  0  0  0  0  0  0  0  0  0
   -3.1731   22.1346  -26.4458 H   0  0  0  0  0  0  0  0  0  0  0  0
  1  2  1  0
  2  3  1  0
  3  4  2  0
  4  5  1  0
  5  6  2  0
  6  7  1  0
  7  8  2  0
  7  9  1  0
  9 10  1  0
 10 11  1  0
 11 12  1  0
 12 13  1  0
 13 14  1  0
 13 15  2  0
 15 16  1  0
 16 17  1  0
 16 18  1  0
 18 19  1  0
  6 20  1  0
 20 21  2  0
 21  3  1  0
 18 12  2  0
  1 22  1  0
  1 23  1  0
  1 24  1  0
  4 25  1  0
  5 26  1  0
  9 27  1  0
  9 28  1  0
 10 29  1  0
 11 30  1  0
 11 31  1  0
 14 32  1  0
 14 33  1  0
 14 34  1  0
 17 35  1  0
 17 36  1  0
 17 37  1  0
 19 38  1  0
 19 39  1  0
 19 40  1  0
 20 41  1  0
 21 42  1  0
M  END
>  <UniqueID>  (10) 
10

>  <SMILES>  (10) 
COc1ccc(C(=O)CNCc2c(C)nn(C)c2C)cc1

>  <Energy>  (10) 
69.440865073054

>  <Genealogy>  (10) 
COc1ccc(C(=O)CNCc2c(C)nn(C)c2C)cc1 (3D coordinates assigned)
COc1ccc(C(=O)CNCc2c(C)nn(C)c2C)cc1 (optimized conformer: 69.440865073054 kcal/mol)

>  <smiles>  (10) 
COc1ccc(C(=O)CNCc2c(C)nn(C)c2C)cc1

>  <score_type>  (10) 
oracle

>  <origin>  (10) 
adg

>  <m_score__min__energy>  (10) 
-7.4199999999999999

>  <m_primary>  (10) 
energy

$$$$
10:0
     RDKit          3D

 61 65  0  0  0  0  0  0  0  0999 V2000
   -6.1060   11.9410  -35.1480 C   0  0  0  0  0  0  0  0  0  0  0  0
   -6.0220   13.3840  -34.7440 C   0  0  0  0  0  0  0  0  0  0  0  0
   -7.1870   14.1560  -34.5970 C   0  0  0  0  0  0  0  0  0  0  0  0
   -7.1080   15.4900  -34.1890 C   0  0  0  0  0  0  0  0  0  0  0  0
   -5.8620   16.0770  -33.9240 C   0  0  0  0  0  0  0  0  0  0  0  0
   -5.7790   17.3860  -33.5310 N   0  0  0  0  0  0  0  0  0  0  0  0
   -4.5580   17.9320  -33.2960 C   0  0  0  0  0  0  0  0  0  0  0  0
   -3.3930   17.2170  -33.4140 C   0  0  0  0  0  0  0  0  0  0  0  0
   -3.4230   15.8840  -33.8090 C   0  0  0  0  0  0  0  0  0  0  0  0
   -4.6760   15.2970  -34.0710 C   0  0  0  0  0  0  0  0  0  0  0  0
   -4.7720   13.9570  -34.4750 C   0  0  0  0  0  0  0  0  0  0  0  0
   -2.2260   18.0720  -33.0160 C   0  0  0  0  0  0  0  0  0  0  0  0
   -2.8860   19.3190  -32.6000 N   0  0  0  0  0  0  0  0  0  0  0  0
   -4.2170   19.2410  -32.7880 C   0  0  0  0  0  0  0  0  0  0  0  0
   -5.0620   20.2850  -32.4370 C   0  0  0  0  0  0  0  0  0  0  0  0
   -4.5130   21.4390  -31.8240 C   0  0  0  0  0  0  0  0  0  0  0  0
   -3.0960   21.5230  -31.6960 C   0  0  0  0  0  0  0  0  0  0  0  0
   -2.2920   20.4320  -32.0980 C   0  0  0  0  0  0  0  0  0  0  0  0
   -1.0350   20.4870  -32.0050 O   0  0  0  0  0  0  0  0  0  0  0  0
   -2.4120   22.7850  -31.2300 C   0  0  0  0  0  0  0  0  0  0  0  0
   -3.3110   23.8340  -30.8750 O   0  0  0  0  0  0  0  0  0  0  0  0
   -4.6560   23.8340  -31.2270 C   0  0  0  0  0  0  0  0  0  0  0  0
   -5.2410   24.9420  -31.3680 O   0  0  0  0  0  0  0  0  0  0  0  0
   -5.4280   22.5310  -31.2230 C   0  0  1  0  0  0  0  0  0  0  0  0
   -6.7260   22.7330  -32.0470 C   0  0  0  0  0  0  0  0  0  0  0  0
   -5.7360   22.3190  -29.8420 O   0  0  0  0  0  0  0  0  0  0  0  0
   -5.1860   23.2310  -28.9060 C   0  0  0  0  0  0  0  0  0  0  0  0
   -4.0500   22.5880  -28.1000 C   0  0  0  0  0  0  0  0  0  0  0  0
   -2.8230   23.3880  -28.2210 N   0  0  0  0  0  0  0  0  0  0  0  0
   -2.2910   23.8190  -26.9170 C   0  0  0  0  0  0  0  0  0  0  0  0
   -1.6260   25.2120  -26.9310 C   0  0  0  0  0  0  0  0  0  0  0  0
   -0.7810   25.4960  -28.1790 C   0  0  0  0  0  0  0  0  0  0  0  0
   -1.5840   25.5350  -29.3290 O   0  0  0  0  0  0  0  0  0  0  0  0
   -6.1427   11.3098  -34.2479 H   0  0  0  0  0  0  0  0  0  0  0  0
   -7.0150   11.7800  -35.7461 H   0  0  0  0  0  0  0  0  0  0  0  0
   -5.2218   11.6756  -35.7461 H   0  0  0  0  0  0  0  0  0  0  0  0
   -8.1692   13.7064  -34.8048 H   0  0  0  0  0  0  0  0  0  0  0  0
   -8.0276   16.0828  -34.0751 H   0  0  0  0  0  0  0  0  0  0  0  0
   -6.6420   17.9640  -33.4090 H   0  0  0  0  0  0  0  0  0  0  0  0
   -2.4940   15.3043  -33.9139 H   0  0  0  0  0  0  0  0  0  0  0  0
   -3.8596   13.3519  -34.5813 H   0  0  0  0  0  0  0  0  0  0  0  0
   -1.6652   17.6203  -32.1844 H   0  0  0  0  0  0  0  0  0  0  0  0
   -1.4843   18.2093  -33.8166 H   0  0  0  0  0  0  0  0  0  0  0  0
   -6.1425   20.2176  -32.6319 H   0  0  0  0  0  0  0  0  0  0  0  0
   -1.7992   22.5416  -30.3495 H   0  0  0  0  0  0  0  0  0  0  0  0
   -1.8113   23.1525  -32.0750 H   0  0  0  0  0  0  0  0  0  0  0  0
   -7.5775   22.8655  -31.3633 H   0  0  0  0  0  0  0  0  0  0  0  0
   -6.6225   23.6259  -32.6811 H   0  0  0  0  0  0  0  0  0  0  0  0
   -6.8988   21.8509  -32.6811 H   0  0  0  0  0  0  0  0  0  0  0  0
   -4.7918   24.1043  -29.4463 H   0  0  0  0  0  0  0  0  0  0  0  0
   -5.9803   23.5309  -28.2066 H   0  0  0  0  0  0  0  0  0  0  0  0
   -4.3432   22.5310  -27.0413 H   0  0  0  0  0  0  0  0  0  0  0  0
   -3.8593   21.5784  -28.4928 H   0  0  0  0  0  0  0  0  0  0  0  0
   -3.0050   24.2180  -28.8300 H   0  0  0  0  0  0  0  0  0  0  0  0
   -3.1218   23.8411  -26.1963 H   0  0  0  0  0  0  0  0  0  0  0  0
   -1.5064   23.0982  -26.6432 H   0  0  0  0  0  0  0  0  0  0  0  0
   -2.4185   25.9726  -26.8712 H   0  0  0  0  0  0  0  0  0  0  0  0
   -0.9391   25.2415  -26.0723 H   0  0  0  0  0  0  0  0  0  0  0  0
   -0.2762   26.4660  -28.0591 H   0  0  0  0  0  0  0  0  0  0  0  0
   -0.0416   24.6897  -28.2938 H   0  0  0  0  0  0  0  0  0  0  0  0
   -1.6950   24.5980  -29.6410 H   0  0  0  0  0  0  0  0  0  0  0  0
  1  2  1  0
  2  3  2  0
  3  4  1  0
  4  5  2  0
  5  6  1  0
  6  7  2  0
  7  8  1  0
  8  9  2  0
  9 10  1  0
 10 11  2  0
  8 12  1  0
 12 13  1  0
 13 14  1  0
 14 15  2  0
 15 16  1  0
 16 17  2  0
 17 18  1  0
 18 19  2  0
 17 20  1  0
 20 21  1  0
 21 22  1  0
 22 23  2  0
 22 24  1  0
 24 25  1  0
 24 26  1  1
 26 27  1  0
 27 28  1  0
 28 29  1  0
 29 30  1  0
 30 31  1  0
 31 32  1  0
 32 33  1  0
 11  2  1  0
 18 13  1  0
 10  5  1  0
 24 16  1  0
 14  7  1  0
  1 34  1  0
  1 35  1  0
  1 36  1  0
  3 37  1  0
  4 38  1  0
  6 39  1  0
  9 40  1  0
 11 41  1  0
 12 42  1  0
 12 43  1  0
 15 44  1  0
 20 45  1  0
 20 46  1  0
 25 47  1  0
 25 48  1  0
 25 49  1  0
 27 50  1  0
 27 51  1  0
 28 52  1  0
 28 53  1  0
 29 54  1  0
 30 55  1  0
 30 56  1  0
 31 57  1  0
 31 58  1  0
 32 59  1  0
 32 60  1  0
 33 61  1  0
M  CHG  1   6   1
M  END
>  <UniqueID>  (11) 
11

>  <SMILES>  (11) 
Cc1ccc2[nH+]c3c(cc2c1)Cn1c-3cc2c(c1=O)COC(=O)[C@]2(C)OCCNCCCO

>  <Energy>  (11) 
117.64840321991217

>  <Genealogy>  (11) 
Cc1ccc2[nH+]c3c(cc2c1)Cn1c-3cc2c(c1=O)COC(=O)C2(C)OCCNCCCO (protonated)
Cc1ccc2[nH+]c3c(cc2c1)Cn1c-3cc2c(c1=O)COC(=O)[C@]2(C)OCCNCCCO (chirality)
Cc1ccc2[nH+]c3c(cc2c1)Cn1c-3cc2c(c1=O)COC(=O)[C@]2(C)OCCNCCCO (3D coordinates assigned)
Cc1ccc2[nH+]c3c(cc2c1)Cn1c-3cc2c(c1=O)COC(=O)[C@]2(C)OCCNCCCO (nonaromatic ring conformer: 117.64840321991217 kcal/mol)

>  <smiles>  (11) 
Cc1ccc2nc3c(cc2c1)Cn1c-3cc2c(c1=O)COC(=O)C2(C)OCCNCCCO

>  <score_type>  (11) 
oracle

>  <origin>  (11) 
adg

>  <m_score__min__energy>  (11) 
-9.5600000000000005

>  <m_primary>  (11) 
energy

$$$$
11:0
     RDKit          3D

 41 44  0  0  0  0  0  0  0  0999 V2000
    0.9730   18.5860  -27.8700 C   0  0  0  0  0  0  0  0  0  0  0  0
   -0.1680   19.3070  -28.5240 C   0  0  0  0  0  0  0  0  0  0  0  0
   -0.1360   19.5560  -29.9030 C   0  0  0  0  0  0  0  0  0  0  0  0
   -1.1920   20.2290  -30.5230 C   0  0  0  0  0  0  0  0  0  0  0  0
   -2.3040   20.6480  -29.7790 C   0  0  0  0  0  0  0  0  0  0  0  0
   -3.3670   21.3570  -30.4380 N   0  0  0  0  0  0  0  0  0  0  0  0
   -3.4270   22.7880  -30.5560 C   0  0  0  0  0  0  0  0  0  0  0  0
   -2.6800   23.5190  -29.8480 O   0  0  0  0  0  0  0  0  0  0  0  0
   -4.4510   23.4240  -31.4550 C   0  0  2  0  0  0  0  0  0  0  0  0
   -4.9970   24.6930  -30.8260 C   0  0  0  0  0  0  0  0  0  0  0  0
   -4.2460   25.6430  -30.6630 O   0  0  0  0  0  0  0  0  0  0  0  0
   -6.4570   24.8470  -30.4470 C   0  0  0  0  0  0  0  0  0  0  0  0
   -7.1310   23.5050  -30.1310 C   0  0  0  0  0  0  0  0  0  0  0  0
   -6.7530   22.5130  -31.1320 N   0  0  0  0  0  0  0  0  0  0  0  0
   -5.5460   22.4370  -31.7340 C   0  0  0  0  0  0  0  0  0  0  0  0
   -5.4030   21.3490  -32.5350 N   0  0  0  0  0  0  0  0  0  0  0  0
   -6.5940   20.7300  -32.4040 C   0  0  0  0  0  0  0  0  0  0  0  0
   -6.9980   19.5340  -32.9940 C   0  0  0  0  0  0  0  0  0  0  0  0
   -8.2820   19.0500  -32.6810 C   0  0  0  0  0  0  0  0  0  0  0  0
   -9.1190   19.7610  -31.7900 C   0  0  0  0  0  0  0  0  0  0  0  0
   -8.6800   20.9640  -31.2070 C   0  0  0  0  0  0  0  0  0  0  0  0
   -7.4060   21.4190  -31.5490 C   0  0  0  0  0  0  0  0  0  0  0  0
   -2.3270   20.4160  -28.3910 C   0  0  0  0  0  0  0  0  0  0  0  0
   -1.2690   19.7440  -27.7710 C   0  0  0  0  0  0  0  0  0  0  0  0
    0.8696   18.6513  -26.7768 H   0  0  0  0  0  0  0  0  0  0  0  0
    0.9633   17.5297  -28.1768 H   0  0  0  0  0  0  0  0  0  0  0  0
    1.9229   19.0482  -28.1768 H   0  0  0  0  0  0  0  0  0  0  0  0
    0.7246   19.2200  -30.5000 H   0  0  0  0  0  0  0  0  0  0  0  0
   -1.1505   20.4317  -31.6034 H   0  0  0  0  0  0  0  0  0  0  0  0
   -4.1890   20.8060  -30.7750 H   0  0  0  0  0  0  0  0  0  0  0  0
   -3.9798   23.7063  -32.4080 H   0  0  0  0  0  0  0  0  0  0  0  0
   -6.5239   25.4923  -29.5587 H   0  0  0  0  0  0  0  0  0  0  0  0
   -6.9797   25.2867  -31.3092 H   0  0  0  0  0  0  0  0  0  0  0  0
   -6.8103   23.1607  -29.1367 H   0  0  0  0  0  0  0  0  0  0  0  0
   -8.2231   23.6356  -30.1442 H   0  0  0  0  0  0  0  0  0  0  0  0
   -6.3359   18.9867  -33.6811 H   0  0  0  0  0  0  0  0  0  0  0  0
   -8.6370   18.1119  -33.1327 H   0  0  0  0  0  0  0  0  0  0  0  0
  -10.1195   19.3711  -31.5512 H   0  0  0  0  0  0  0  0  0  0  0  0
   -9.3174   21.5249  -30.5076 H   0  0  0  0  0  0  0  0  0  0  0  0
   -3.1808   20.7647  -27.7914 H   0  0  0  0  0  0  0  0  0  0  0  0
   -1.2997   19.5569  -26.6875 H   0  0  0  0  0  0  0  0  0  0  0  0
  1  2  1  0
  2  3  2  0
  3  4  1  0
  4  5  2  0
  5  6  1  0
  6  7  1  0
  7  8  2  0
  7  9  1  0
  9 10  1  0
 10 11  2  0
 10 12  1  0
 12 13  1  0
 13 14  1  0
 14 15  1  0
 15 16  2  0
 16 17  1  0
 17 18  2  0
 18 19  1  0
 19 20  2  0
 20 21  1  0
 21 22  2  0
  5 23  1  0
 23 24  2  0
 24  2  1  0
 15  9  1  0
 22 17  1  0
 22 14  1  0
  1 25  1  0
  1 26  1  0
  1 27  1  0
  3 28  1  0
  4 29  1  0
  6 30  1  0
  9 31  1  6
 12 32  1  0
 12 33  1  0
 13 34  1  0
 13 35  1  0
 18 36  1  0
 19 37  1  0
 20 38  1  0
 21 39  1  0
 23 40  1  0
 24 41  1  0
M  END
>  <UniqueID>  (12) 
12

>  <SMILES>  (12) 
Cc1ccc(NC(=O)[C@@H]2C(=O)CCn3c2nc2ccccc23)cc1

>  <Energy>  (12) 
84.87276113744883

>  <Genealogy>  (12) 
Cc1ccc(NC(=O)[C@@H]2C(=O)CCn3c2nc2ccccc23)cc1 (chirality)
Cc1ccc(NC(=O)[C@@H]2C(=O)CCn3c2nc2ccccc23)cc1 (3D coordinates assigned)
Cc1ccc(NC(=O)[C@@H]2C(=O)CCn3c2nc2ccccc23)cc1 (nonaromatic ring conformer: 84.87276113744883 kcal/mol)

>  <smiles>  (12) 
Cc1ccc(NC(=O)C2C(=O)CCn3c2nc2ccccc23)cc1

>  <score_type>  (12) 
oracle

>  <origin>  (12) 
adg

>  <m_score__min__energy>  (12) 
-8.6600000000000001

>  <m_primary>  (12) 
energy

$$$$
12:0
     RDKit          3D

 37 37  0  0  0  0  0  0  0  0999 V2000
   -9.5470   21.0080  -31.9890 C   0  0  0  0  0  0  0  0  0  0  0  0
   -8.7880   19.7790  -31.4980 C   0  0  0  0  0  0  0  0  0  0  0  0
   -8.3770   18.8720  -32.6740 C   0  0  0  0  0  0  0  0  0  0  0  0
   -6.9050   18.6900  -32.7770 N   0  0  1  0  0  0  0  0  0  0  0  0
   -6.4990   17.2920  -33.0940 C   0  0  0  0  0  0  0  0  0  0  0  0
   -5.7240   16.5690  -31.9750 C   0  0  0  0  0  0  0  0  0  0  0  0
   -6.0970   17.0670  -30.7200 O   0  0  0  0  0  0  0  0  0  0  0  0
   -6.3140   19.6550  -33.7460 C   0  0  0  0  0  0  0  0  0  0  0  0
   -5.0110   20.3090  -33.2390 C   0  0  0  0  0  0  0  0  0  0  0  0
   -5.2770   21.5210  -32.3800 C   0  0  0  0  0  0  0  0  0  0  0  0
   -6.5530   22.1110  -32.3660 C   0  0  0  0  0  0  0  0  0  0  0  0
   -6.7950   23.2450  -31.5850 C   0  0  0  0  0  0  0  0  0  0  0  0
   -5.7690   23.8000  -30.8150 C   0  0  0  0  0  0  0  0  0  0  0  0
   -6.1030   25.3510  -29.7520 Br  0  0  0  0  0  0  0  0  0  0  0  0
   -4.4970   23.2190  -30.8260 C   0  0  0  0  0  0  0  0  0  0  0  0
   -4.2500   22.0850  -31.6050 C   0  0  0  0  0  0  0  0  0  0  0  0
   -9.9048   21.5873  -31.1251 H   0  0  0  0  0  0  0  0  0  0  0  0
   -8.8776   21.6333  -32.5980 H   0  0  0  0  0  0  0  0  0  0  0  0
  -10.4059   20.6895  -32.5980 H   0  0  0  0  0  0  0  0  0  0  0  0
   -7.8837   20.1055  -30.9635 H   0  0  0  0  0  0  0  0  0  0  0  0
   -9.4476   19.2059  -30.8298 H   0  0  0  0  0  0  0  0  0  0  0  0
   -8.8439   17.8856  -32.5363 H   0  0  0  0  0  0  0  0  0  0  0  0
   -8.7151   19.3591  -33.6005 H   0  0  0  0  0  0  0  0  0  0  0  0
   -6.5020   18.8870  -31.8310 H   0  0  0  0  0  0  0  0  0  0  0  0
   -7.4092   16.7126  -33.3080 H   0  0  0  0  0  0  0  0  0  0  0  0
   -5.8119   17.3582  -33.9504 H   0  0  0  0  0  0  0  0  0  0  0  0
   -5.9460   15.4925  -32.0180 H   0  0  0  0  0  0  0  0  0  0  0  0
   -4.6471   16.7398  -32.1201 H   0  0  0  0  0  0  0  0  0  0  0  0
   -6.0100   16.3110  -30.0850 H   0  0  0  0  0  0  0  0  0  0  0  0
   -6.0949   19.1200  -34.6818 H   0  0  0  0  0  0  0  0  0  0  0  0
   -7.0480   20.4613  -33.8914 H   0  0  0  0  0  0  0  0  0  0  0  0
   -4.4517   19.5705  -32.6458 H   0  0  0  0  0  0  0  0  0  0  0  0
   -4.4349   20.6375  -34.1166 H   0  0  0  0  0  0  0  0  0  0  0  0
   -7.3635   21.6790  -32.9714 H   0  0  0  0  0  0  0  0  0  0  0  0
   -7.7957   23.7017  -31.5765 H   0  0  0  0  0  0  0  0  0  0  0  0
   -3.6891   23.6554  -30.2203 H   0  0  0  0  0  0  0  0  0  0  0  0
   -3.2474   21.6324  -31.6112 H   0  0  0  0  0  0  0  0  0  0  0  0
  1  2  1  0
  2  3  1  0
  3  4  1  0
  4  5  1  0
  5  6  1  0
  6  7  1  0
  4  8  1  0
  8  9  1  0
  9 10  1  0
 10 11  2  0
 11 12  1  0
 12 13  2  0
 13 14  1  0
 13 15  1  0
 15 16  2  0
 16 10  1  0
  1 17  1  0
  1 18  1  0
  1 19  1  0
  2 20  1  0
  2 21  1  0
  3 22  1  0
  3 23  1  0
  4 24  1  1
  5 25  1  0
  5 26  1  0
  6 27  1  0
  6 28  1  0
  7 29  1  0
  8 30  1  0
  8 31  1  0
  9 32  1  0
  9 33  1  0
 11 34  1  0
 12 35  1  0
 15 36  1  0
 16 37  1  0
M  CHG  1   4   1
M  END
>  <UniqueID>  (13) 
13

>  <SMILES>  (13) 
CCC[N@@H+](CCO)CCc1ccc(Br)cc1

>  <Energy>  (13) 
34.991102667894815

>  <Genealogy>  (13) 
CCC[NH+](CCO)CCc1ccc(Br)cc1 (protonated)
CCC[N@@H+](CCO)CCc1ccc(Br)cc1 (chirality)
CCC[N@@H+](CCO)CCc1ccc(Br)cc1 (3D coordinates assigned)
CCC[N@@H+](CCO)CCc1ccc(Br)cc1 (optimized conformer: 34.991102667894815 kcal/mol)

>  <smiles>  (13) 
CCCN(CCO)CCc1ccc(Br)cc1

>  <score_type>  (13) 
oracle

>  <origin>  (13) 
adg

>  <m_score__min__energy>  (13) 
-6.5300000000000002

>  <m_primary>  (13) 
energy

$$$$
13:0
     RDKit          3D

 35 37  0  0  0  0  0  0  0  0999 V2000
   -5.7770   25.6270  -30.1900 C   0  0  0  0  0  0  0  0  0  0  0  0
   -6.0860   24.1390  -30.0770 C   0  0  0  0  0  0  0  0  0  0  0  0
   -5.8740   23.4710  -31.3680 N   0  0  0  0  0  0  0  0  0  0  0  0
   -6.9770   23.4050  -32.3350 C   0  0  0  0  0  0  0  0  0  0  0  0
   -7.8700   22.2420  -32.0150 C   0  0  0  0  0  0  0  0  0  0  0  0
   -9.0010   22.2750  -31.2150 C   0  0  0  0  0  0  0  0  0  0  0  0
   -9.4880   21.0220  -31.0530 N   0  0  0  0  0  0  0  0  0  0  0  0
   -8.6300   20.2560  -31.7580 C   0  0  0  0  0  0  0  0  0  0  0  0
   -8.6930   18.8700  -31.8840 C   0  0  0  0  0  0  0  0  0  0  0  0
   -7.6940   18.2360  -32.6400 C   0  0  0  0  0  0  0  0  0  0  0  0
   -6.6720   18.9930  -33.2440 C   0  0  0  0  0  0  0  0  0  0  0  0
   -5.3080   18.1330  -34.2660 Br  0  0  0  0  0  0  0  0  0  0  0  0
   -6.6610   20.3870  -33.0870 C   0  0  0  0  0  0  0  0  0  0  0  0
   -7.6450   20.9580  -32.3430 N   0  0  0  0  0  0  0  0  0  0  0  0
   -4.6850   22.6820  -31.5690 C   0  0  0  0  0  0  0  0  0  0  0  0
   -3.8870   22.2910  -30.4810 C   0  0  0  0  0  0  0  0  0  0  0  0
   -2.7350   21.5380  -30.7110 C   0  0  0  0  0  0  0  0  0  0  0  0
   -2.3900   21.1740  -32.0140 C   0  0  0  0  0  0  0  0  0  0  0  0
   -1.2740   20.4420  -32.2480 F   0  0  0  0  0  0  0  0  0  0  0  0
   -3.2150   21.5640  -33.0710 C   0  0  0  0  0  0  0  0  0  0  0  0
   -4.3320   22.2990  -32.8270 N   0  0  0  0  0  0  0  0  0  0  0  0
   -5.6870   26.0603  -29.1830 H   0  0  0  0  0  0  0  0  0  0  0  0
   -4.8311   25.7648  -30.7343 H   0  0  0  0  0  0  0  0  0  0  0  0
   -6.5899   26.1300  -30.7343 H   0  0  0  0  0  0  0  0  0  0  0  0
   -5.4243   23.6879  -29.3229 H   0  0  0  0  0  0  0  0  0  0  0  0
   -7.1380   24.0152  -29.7804 H   0  0  0  0  0  0  0  0  0  0  0  0
   -7.5602   24.3364  -32.2867 H   0  0  0  0  0  0  0  0  0  0  0  0
   -6.5639   23.2760  -33.3463 H   0  0  0  0  0  0  0  0  0  0  0  0
   -9.4383   23.1842  -30.7766 H   0  0  0  0  0  0  0  0  0  0  0  0
   -9.4983   18.2918  -31.4073 H   0  0  0  0  0  0  0  0  0  0  0  0
   -7.7099   17.1428  -32.7609 H   0  0  0  0  0  0  0  0  0  0  0  0
   -5.8770   21.0016  -33.5535 H   0  0  0  0  0  0  0  0  0  0  0  0
   -4.1679   22.5760  -29.4564 H   0  0  0  0  0  0  0  0  0  0  0  0
   -2.0996   21.2316  -29.8670 H   0  0  0  0  0  0  0  0  0  0  0  0
   -2.9607   21.2762  -34.1018 H   0  0  0  0  0  0  0  0  0  0  0  0
  1  2  1  0
  2  3  1  0
  3  4  1  0
  4  5  1  0
  5  6  2  0
  6  7  1  0
  7  8  2  0
  8  9  1  0
  9 10  2  0
 10 11  1  0
 11 12  1  0
 11 13  2  0
 13 14  1  0
  3 15  1  0
 15 16  2  0
 16 17  1  0
 17 18  2  0
 18 19  1  0
 18 20  1  0
 20 21  2  0
 14  5  1  0
 21 15  1  0
 14  8  1  0
  1 22  1  0
  1 23  1  0
  1 24  1  0
  2 25  1  0
  2 26  1  0
  4 27  1  0
  4 28  1  0
  6 29  1  0
  9 30  1  0
 10 31  1  0
 13 32  1  0
 16 33  1  0
 17 34  1  0
 20 35  1  0
M  END
>  <UniqueID>  (14) 
14

>  <SMILES>  (14) 
CCN(Cc1cnc2ccc(Br)cn12)c1ccc(F)cn1

>  <Energy>  (14) 
69.85791505596552

>  <Genealogy>  (14) 
CCN(Cc1cnc2ccc(Br)cn12)c1ccc(F)cn1 (3D coordinates assigned)
CCN(Cc1cnc2ccc(Br)cn12)c1ccc(F)cn1 (optimized conformer: 69.85791505596552 kcal/mol)

>  <smiles>  (14) 
CCN(Cc1cnc2ccc(Br)cn12)c1ccc(F)cn1

>  <score_type>  (14) 
oracle

>  <origin>  (14) 
adg

>  <m_score__min__energy>  (14) 
-7.4800000000000004

>  <m_primary>  (14) 
energy

$$$$
14:0
     RDKit          3D

 43 44  0  0  0  0  0  0  0  0999 V2000
   -9.0840   18.8500  -32.2330 C   0  0  0  0  0  0  0  0  0  0  0  0
   -9.1220   19.8970  -31.6360 C   0  0  0  0  0  0  0  0  0  0  0  0
   -9.1700   21.1710  -30.9050 C   0  0  0  0  0  0  0  0  0  0  0  0
   -8.6070   22.3290  -31.7460 C   0  0  0  0  0  0  0  0  0  0  0  0
   -7.4910   21.9020  -32.7170 C   0  0  0  0  0  0  0  0  0  0  0  0
   -6.1150   21.9820  -32.1020 C   0  0  0  0  0  0  0  0  0  0  0  0
   -5.6810   23.1910  -31.6580 N   0  0  0  0  0  0  0  0  0  0  0  0
   -4.4230   23.3870  -31.1800 C   0  0  0  0  0  0  0  0  0  0  0  0
   -4.0460   24.6460  -30.7030 O   0  0  0  0  0  0  0  0  0  0  0  0
   -4.9870   25.6270  -30.2860 C   0  0  0  0  0  0  0  0  0  0  0  0
   -3.5200   22.3050  -31.1680 C   0  0  0  0  0  0  0  0  0  0  0  0
   -2.1560   22.4340  -30.7090 N   0  0  0  0  0  0  0  0  0  0  0  0
   -1.7980   23.3350  -29.6080 C   0  0  0  0  0  0  0  0  0  0  0  0
   -1.0950   21.7440  -31.4480 C   0  0  0  0  0  0  0  0  0  0  0  0
   -3.9620   21.0920  -31.5990 N   0  0  0  0  0  0  0  0  0  0  0  0
   -5.2260   20.8880  -32.0530 C   0  0  0  0  0  0  0  0  0  0  0  0
   -5.5920   19.5360  -32.5150 C   0  0  0  0  0  0  0  0  0  0  0  0
   -5.7950   18.4940  -31.5960 C   0  0  0  0  0  0  0  0  0  0  0  0
   -6.1220   17.2120  -32.0480 C   0  0  0  0  0  0  0  0  0  0  0  0
   -6.2350   16.9600  -33.4180 C   0  0  0  0  0  0  0  0  0  0  0  0
   -6.0120   17.9880  -34.3380 C   0  0  0  0  0  0  0  0  0  0  0  0
   -5.6830   19.2720  -33.8900 C   0  0  0  0  0  0  0  0  0  0  0  0
   -9.0493   17.8949  -32.7776 H   0  0  0  0  0  0  0  0  0  0  0  0
  -10.2153   21.3941  -30.6452 H   0  0  0  0  0  0  0  0  0  0  0  0
   -8.5524   21.0715  -30.0002 H   0  0  0  0  0  0  0  0  0  0  0  0
   -9.4296   22.7647  -32.3321 H   0  0  0  0  0  0  0  0  0  0  0  0
   -8.1641   23.0509  -31.0441 H   0  0  0  0  0  0  0  0  0  0  0  0
   -7.6759   20.8637  -33.0295 H   0  0  0  0  0  0  0  0  0  0  0  0
   -7.5122   22.5962  -33.5700 H   0  0  0  0  0  0  0  0  0  0  0  0
   -5.0191   25.6605  -29.1870 H   0  0  0  0  0  0  0  0  0  0  0  0
   -4.6868   26.6115  -30.6742 H   0  0  0  0  0  0  0  0  0  0  0  0
   -5.9831   25.3680  -30.6742 H   0  0  0  0  0  0  0  0  0  0  0  0
   -1.9959   22.8369  -28.6474 H   0  0  0  0  0  0  0  0  0  0  0  0
   -0.7301   23.5902  -29.6755 H   0  0  0  0  0  0  0  0  0  0  0  0
   -2.3995   24.2535  -29.6755 H   0  0  0  0  0  0  0  0  0  0  0  0
   -0.3912   21.2863  -30.7373 H   0  0  0  0  0  0  0  0  0  0  0  0
   -1.5384   20.9610  -32.0807 H   0  0  0  0  0  0  0  0  0  0  0  0
   -0.5591   22.4668  -32.0807 H   0  0  0  0  0  0  0  0  0  0  0  0
   -5.6965   18.6868  -30.5175 H   0  0  0  0  0  0  0  0  0  0  0  0
   -6.2905   16.4008  -31.3245 H   0  0  0  0  0  0  0  0  0  0  0  0
   -6.4994   15.9527  -33.7721 H   0  0  0  0  0  0  0  0  0  0  0  0
   -6.0953   17.7873  -35.4163 H   0  0  0  0  0  0  0  0  0  0  0  0
   -5.4954   20.0759  -34.6170 H   0  0  0  0  0  0  0  0  0  0  0  0
  1  2  3  0
  2  3  1  0
  3  4  1  0
  4  5  1  0
  5  6  1  0
  6  7  2  0
  7  8  1  0
  8  9  1  0
  9 10  1  0
  8 11  2  0
 11 12  1  0
 12 13  1  0
 12 14  1  0
 11 15  1  0
 15 16  2  0
 16 17  1  0
 17 18  2  0
 18 19  1  0
 19 20  2  0
 20 21  1  0
 21 22  2  0
 16  6  1  0
 22 17  1  0
  1 23  1  0
  3 24  1  0
  3 25  1  0
  4 26  1  0
  4 27  1  0
  5 28  1  0
  5 29  1  0
 10 30  1  0
 10 31  1  0
 10 32  1  0
 13 33  1  0
 13 34  1  0
 13 35  1  0
 14 36  1  0
 14 37  1  0
 14 38  1  0
 18 39  1  0
 19 40  1  0
 20 41  1  0
 21 42  1  0
 22 43  1  0
M  END
>  <UniqueID>  (15) 
15

>  <SMILES>  (15) 
C#CCCCc1nc(OC)c(N(C)C)nc1-c1ccccc1

>  <Energy>  (15) 
44.03950765749165

>  <Genealogy>  (15) 
C#CCCCc1nc(OC)c(N(C)C)nc1-c1ccccc1 (3D coordinates assigned)
C#CCCCc1nc(OC)c(N(C)C)nc1-c1ccccc1 (optimized conformer: 44.03950765749165 kcal/mol)

>  <smiles>  (15) 
C#CCCCc1nc(OC)c(N(C)C)nc1-c1ccccc1

>  <score_type>  (15) 
oracle

>  <origin>  (15) 
adg

>  <m_score__min__energy>  (15) 
-7.0499999999999998

>  <m_primary>  (15) 
energy

$$$$
15:0
     RDKit          3D

 44 46  0  0  0  0  0  0  0  0999 V2000
   -5.0170   17.5530  -34.9240 C   0  0  0  0  0  0  0  0  0  0  0  0
   -6.2160   17.8930  -34.1540 N   0  0  0  0  0  0  0  0  0  0  0  0
   -6.3370   17.0780  -32.9370 C   0  0  0  0  0  0  0  0  0  0  0  0
   -6.4880   19.3460  -33.9860 C   0  0  0  0  0  0  0  0  0  0  0  0
   -7.1710   19.8290  -32.6630 C   0  0  2  0  0  0  0  0  0  0  0  0
   -8.7190   19.6860  -32.7080 C   0  0  0  0  0  0  0  0  0  0  0  0
   -9.4240   20.5980  -31.7050 C   0  0  0  0  0  0  0  0  0  0  0  0
   -9.0400   22.0540  -31.9650 C   0  0  0  0  0  0  0  0  0  0  0  0
   -7.5500   22.2330  -31.8510 C   0  0  0  0  0  0  0  0  0  0  0  0
   -7.0360   23.4700  -31.4360 C   0  0  0  0  0  0  0  0  0  0  0  0
   -5.6610   23.6350  -31.2400 C   0  0  0  0  0  0  0  0  0  0  0  0
   -5.0060   25.2350  -30.7700 S   0  0  0  0  0  0  0  0  0  0  0  0
   -4.0220   24.5270  -29.4470 C   0  0  0  0  0  0  0  0  0  0  0  0
   -4.6130   24.2370  -28.2110 C   0  0  0  0  0  0  0  0  0  0  0  0
   -3.8520   23.6610  -27.1890 C   0  0  0  0  0  0  0  0  0  0  0  0
   -2.4990   23.3770  -27.3990 C   0  0  0  0  0  0  0  0  0  0  0  0
   -1.9050   23.6700  -28.6310 C   0  0  0  0  0  0  0  0  0  0  0  0
   -0.5940   23.3920  -28.8350 F   0  0  0  0  0  0  0  0  0  0  0  0
   -2.6660   24.2450  -29.6550 C   0  0  0  0  0  0  0  0  0  0  0  0
   -4.7980   22.5520  -31.4180 C   0  0  0  0  0  0  0  0  0  0  0  0
   -5.2980   21.3230  -31.8520 C   0  0  0  0  0  0  0  0  0  0  0  0
   -6.6660   21.1690  -32.1470 C   0  0  0  0  0  0  0  0  0  0  0  0
   -4.1925   17.3192  -34.2344 H   0  0  0  0  0  0  0  0  0  0  0  0
   -5.2241   16.6782  -35.5579 H   0  0  0  0  0  0  0  0  0  0  0  0
   -4.7341   18.4063  -35.5579 H   0  0  0  0  0  0  0  0  0  0  0  0
   -6.2411   17.7241  -32.0520 H   0  0  0  0  0  0  0  0  0  0  0  0
   -7.3187   16.5818  -32.9241 H   0  0  0  0  0  0  0  0  0  0  0  0
   -5.5418   16.3180  -32.9241 H   0  0  0  0  0  0  0  0  0  0  0  0
   -5.5229   19.8682  -34.0628 H   0  0  0  0  0  0  0  0  0  0  0  0
   -7.2257   19.5746  -34.7693 H   0  0  0  0  0  0  0  0  0  0  0  0
   -6.8394   19.1288  -31.8821 H   0  0  0  0  0  0  0  0  0  0  0  0
   -9.0668   19.9404  -33.7201 H   0  0  0  0  0  0  0  0  0  0  0  0
   -8.9649   18.6471  -32.4429 H   0  0  0  0  0  0  0  0  0  0  0  0
  -10.5129   20.4837  -31.8111 H   0  0  0  0  0  0  0  0  0  0  0  0
   -9.1179   20.3197  -30.6858 H   0  0  0  0  0  0  0  0  0  0  0  0
   -9.3626   22.3385  -32.9774 H   0  0  0  0  0  0  0  0  0  0  0  0
   -9.5339   22.6918  -31.2172 H   0  0  0  0  0  0  0  0  0  0  0  0
   -7.7182   24.3155  -31.2636 H   0  0  0  0  0  0  0  0  0  0  0  0
   -5.6766   24.4625  -28.0440 H   0  0  0  0  0  0  0  0  0  0  0  0
   -4.3179   23.4312  -26.2194 H   0  0  0  0  0  0  0  0  0  0  0  0
   -1.9014   22.9229  -26.5948 H   0  0  0  0  0  0  0  0  0  0  0  0
   -2.1989   24.4756  -30.6238 H   0  0  0  0  0  0  0  0  0  0  0  0
   -3.7229   22.6673  -31.2160 H   0  0  0  0  0  0  0  0  0  0  0  0
   -4.6167   20.4668  -31.9646 H   0  0  0  0  0  0  0  0  0  0  0  0
  1  2  1  0
  2  3  1  0
  2  4  1  0
  4  5  1  0
  5  6  1  0
  6  7  1  0
  7  8  1  0
  8  9  1  0
  9 10  2  0
 10 11  1  0
 11 12  1  0
 12 13  1  0
 13 14  2  0
 14 15  1  0
 15 16  2  0
 16 17  1  0
 17 18  1  0
 17 19  2  0
 11 20  2  0
 20 21  1  0
 21 22  2  0
 22  5  1  0
 22  9  1  0
 19 13  1  0
  1 23  1  0
  1 24  1  0
  1 25  1  0
  3 26  1  0
  3 27  1  0
  3 28  1  0
  4 29  1  0
  4 30  1  0
  5 31  1  1
  6 32  1  0
  6 33  1  0
  7 34  1  0
  7 35  1  0
  8 36  1  0
  8 37  1  0
 10 38  1  0
 14 39  1  0
 15 40  1  0
 16 41  1  0
 19 42  1  0
 20 43  1  0
 21 44  1  0
M  END
>  <UniqueID>  (16) 
16

>  <SMILES>  (16) 
CN(C)C[C@@H]1CCCc2cc(Sc3cccc(F)c3)ccc21

>  <Energy>  (16) 
52.26446237701618

>  <Genealogy>  (16) 
CN(C)C[C@@H]1CCCc2cc(Sc3cccc(F)c3)ccc21 (chirality)
CN(C)C[C@@H]1CCCc2cc(Sc3cccc(F)c3)ccc21 (3D coordinates assigned)
CN(C)C[C@@H]1CCCc2cc(Sc3cccc(F)c3)ccc21 (nonaromatic ring conformer: 52.26446237701618 kcal/mol)

>  <smiles>  (16) 
CN(C)CC1CCCc2cc(Sc3cccc(F)c3)ccc21

>  <score_type>  (16) 
oracle

>  <origin>  (16) 
adg

>  <m_score__min__energy>  (16) 
-8.5

>  <m_primary>  (16) 
energy

$$$$
16:0
     RDKit          3D

 50 52  0  0  0  0  0  0  0  0999 V2000
   -1.2080   21.7190  -26.3570 C   0  0  0  0  0  0  0  0  0  0  0  0
   -0.5010   22.5040  -25.2610 C   0  0  0  0  0  0  0  0  0  0  0  0
   -0.3950   23.9330  -25.6410 N   0  0  0  0  0  0  0  0  0  0  0  0
   -0.7320   24.8170  -24.5020 C   0  0  0  0  0  0  0  0  0  0  0  0
   -1.4560   26.0750  -24.9800 C   0  0  0  0  0  0  0  0  0  0  0  0
    0.9610   24.2410  -26.1560 C   0  0  0  0  0  0  0  0  0  0  0  0
    0.8960   25.2170  -27.3360 C   0  0  0  0  0  0  0  0  0  0  0  0
    0.5130   24.5370  -28.5320 O   0  0  0  0  0  0  0  0  0  0  0  0
   -0.7910   24.1560  -28.8730 C   0  0  0  0  0  0  0  0  0  0  0  0
   -1.8540   24.8770  -28.3230 C   0  0  0  0  0  0  0  0  0  0  0  0
   -3.1770   24.5460  -28.6320 C   0  0  0  0  0  0  0  0  0  0  0  0
   -3.4650   23.4740  -29.4990 C   0  0  0  0  0  0  0  0  0  0  0  0
   -4.8750   23.1170  -29.8220 C   0  0  0  0  0  0  0  0  0  0  0  0
   -5.3000   22.1050  -30.6660 C   0  0  0  0  0  0  0  0  0  0  0  0
   -6.6840   22.1780  -30.6250 C   0  0  0  0  0  0  0  0  0  0  0  0
   -7.6540   21.3250  -31.3440 C   0  0  0  0  0  0  0  0  0  0  0  0
   -7.2590   20.0580  -31.8080 C   0  0  0  0  0  0  0  0  0  0  0  0
   -8.1630   19.2440  -32.4990 C   0  0  0  0  0  0  0  0  0  0  0  0
   -9.4670   19.6870  -32.7360 C   0  0  0  0  0  0  0  0  0  0  0  0
   -9.8670   20.9430  -32.2790 C   0  0  0  0  0  0  0  0  0  0  0  0
   -8.9690   21.7600  -31.5860 C   0  0  0  0  0  0  0  0  0  0  0  0
   -7.0230   23.1540  -29.8190 O   0  0  0  0  0  0  0  0  0  0  0  0
   -5.9690   23.7310  -29.3270 N   0  0  0  0  0  0  0  0  0  0  0  0
   -2.3920   22.7420  -30.0390 C   0  0  0  0  0  0  0  0  0  0  0  0
   -1.0700   23.0760  -29.7270 C   0  0  0  0  0  0  0  0  0  0  0  0
   -1.8780   20.9751  -25.9013 H   0  0  0  0  0  0  0  0  0  0  0  0
   -1.7958   22.4084  -26.9809 H   0  0  0  0  0  0  0  0  0  0  0  0
   -0.4611   21.2063  -26.9809 H   0  0  0  0  0  0  0  0  0  0  0  0
   -1.0737   22.4184  -24.3257 H   0  0  0  0  0  0  0  0  0  0  0  0
    0.5102   22.0940  -25.1215 H   0  0  0  0  0  0  0  0  0  0  0  0
   -1.3829   24.2710  -23.8033 H   0  0  0  0  0  0  0  0  0  0  0  0
    0.2015   25.1180  -24.0041 H   0  0  0  0  0  0  0  0  0  0  0  0
   -1.7915   26.6580  -24.1096 H   0  0  0  0  0  0  0  0  0  0  0  0
   -0.7704   26.6843  -25.5872 H   0  0  0  0  0  0  0  0  0  0  0  0
   -2.3272   25.7883  -25.5872 H   0  0  0  0  0  0  0  0  0  0  0  0
    1.5575   24.6922  -25.3494 H   0  0  0  0  0  0  0  0  0  0  0  0
    1.4234   23.3050  -26.5026 H   0  0  0  0  0  0  0  0  0  0  0  0
    0.1583   26.0024  -27.1150 H   0  0  0  0  0  0  0  0  0  0  0  0
    1.8918   25.6601  -27.4841 H   0  0  0  0  0  0  0  0  0  0  0  0
   -1.6479   25.7140  -27.6396 H   0  0  0  0  0  0  0  0  0  0  0  0
   -4.0008   25.1285  -28.1937 H   0  0  0  0  0  0  0  0  0  0  0  0
   -4.6792   21.4013  -31.2400 H   0  0  0  0  0  0  0  0  0  0  0  0
   -6.2332   19.7046  -31.6267 H   0  0  0  0  0  0  0  0  0  0  0  0
   -7.8466   18.2530  -32.8566 H   0  0  0  0  0  0  0  0  0  0  0  0
  -10.1762   19.0471  -33.2815 H   0  0  0  0  0  0  0  0  0  0  0  0
  -10.8935   21.2919  -32.4648 H   0  0  0  0  0  0  0  0  0  0  0  0
   -9.2928   22.7485  -31.2281 H   0  0  0  0  0  0  0  0  0  0  0  0
   -6.0050   24.5270  -28.6510 H   0  0  0  0  0  0  0  0  0  0  0  0
   -2.5948   21.8976  -30.7141 H   0  0  0  0  0  0  0  0  0  0  0  0
   -0.2431   22.4890  -30.1533 H   0  0  0  0  0  0  0  0  0  0  0  0
  1  2  1  0
  2  3  1  0
  3  4  1  0
  4  5  1  0
  3  6  1  0
  6  7  1  0
  7  8  1  0
  8  9  1  0
  9 10  2  0
 10 11  1  0
 11 12  2  0
 12 13  1  0
 13 14  1  0
 14 15  2  0
 15 16  1  0
 16 17  2  0
 17 18  1  0
 18 19  2  0
 19 20  1  0
 20 21  2  0
 15 22  1  0
 22 23  1  0
 12 24  1  0
 24 25  2  0
 25  9  1  0
 23 13  2  0
 21 16  1  0
  1 26  1  0
  1 27  1  0
  1 28  1  0
  2 29  1  0
  2 30  1  0
  4 31  1  0
  4 32  1  0
  5 33  1  0
  5 34  1  0
  5 35  1  0
  6 36  1  0
  6 37  1  0
  7 38  1  0
  7 39  1  0
 10 40  1  0
 11 41  1  0
 14 42  1  0
 17 43  1  0
 18 44  1  0
 19 45  1  0
 20 46  1  0
 21 47  1  0
 23 48  1  0
 24 49  1  0
 25 50  1  0
M  CHG  1  23   1
M  END
>  <UniqueID>  (17) 
17

>  <SMILES>  (17) 
CCN(CC)CCOc1ccc(-c2cc(-c3ccccc3)o[nH+]2)cc1

>  <Energy>  (17) 
83.49169182832868

>  <Genealogy>  (17) 
CCN(CC)CCOc1ccc(-c2cc(-c3ccccc3)o[nH+]2)cc1 (protonated)
CCN(CC)CCOc1ccc(-c2cc(-c3ccccc3)o[nH+]2)cc1 (3D coordinates assigned)
CCN(CC)CCOc1ccc(-c2cc(-c3ccccc3)o[nH+]2)cc1 (optimized conformer: 83.49169182832868 kcal/mol)

>  <smiles>  (17) 
CCN(CC)CCOc1ccc(-c2cc(-c3ccccc3)on2)cc1

>  <score_type>  (17) 
oracle

>  <origin>  (17) 
adg

>  <m_score__min__energy>  (17) 
-7.3700000000000001

>  <m_primary>  (17) 
energy

$$$$
17:0
     RDKit          3D

 21 22  0  0  0  0  0  0  0  0999 V2000
   -3.8620   24.1770  -27.3060 C   0  0  0  0  0  0  0  0  0  0  0  0
   -2.7290   24.3350  -28.7200 S   0  0  0  0  0  0  0  0  0  0  0  0
   -4.0330   24.1360  -29.9280 C   0  0  0  0  0  0  0  0  0  0  0  0
   -4.3680   25.0680  -30.8360 N   0  0  0  0  0  0  0  0  0  0  0  0
   -5.3660   24.5530  -31.5360 N   0  0  0  0  0  0  0  0  0  0  0  0
   -5.6020   23.3260  -31.0320 C   0  0  0  0  0  0  0  0  0  0  0  0
   -6.6450   22.3800  -31.5070 C   0  0  0  0  0  0  0  0  0  0  0  0
   -7.9830   22.6470  -31.1610 C   0  0  0  0  0  0  0  0  0  0  0  0
   -9.0150   21.8030  -31.5780 C   0  0  0  0  0  0  0  0  0  0  0  0
   -8.7280   20.6770  -32.3470 C   0  0  0  0  0  0  0  0  0  0  0  0
   -7.4080   20.3920  -32.6990 C   0  0  0  0  0  0  0  0  0  0  0  0
   -6.3620   21.2280  -32.2890 C   0  0  0  0  0  0  0  0  0  0  0  0
   -4.5940   20.7060  -32.8290 Br  0  0  0  0  0  0  0  0  0  0  0  0
   -4.7810   23.0670  -30.0390 O   0  0  0  0  0  0  0  0  0  0  0  0
   -3.2919   24.2565  -26.3686 H   0  0  0  0  0  0  0  0  0  0  0  0
   -4.6137   24.9790  -27.3471 H   0  0  0  0  0  0  0  0  0  0  0  0
   -4.3656   23.1999  -27.3471 H   0  0  0  0  0  0  0  0  0  0  0  0
   -8.2194   23.5330  -30.5535 H   0  0  0  0  0  0  0  0  0  0  0  0
  -10.0551   22.0275  -31.2991 H   0  0  0  0  0  0  0  0  0  0  0  0
   -9.5411   20.0134  -32.6763 H   0  0  0  0  0  0  0  0  0  0  0  0
   -7.1868   19.5011  -33.3051 H   0  0  0  0  0  0  0  0  0  0  0  0
  1  2  1  0
  2  3  1  0
  3  4  2  0
  4  5  1  0
  5  6  2  0
  6  7  1  0
  7  8  2  0
  8  9  1  0
  9 10  2  0
 10 11  1  0
 11 12  2  0
 12 13  1  0
  6 14  1  0
 14  3  1  0
 12  7  1  0
  1 15  1  0
  1 16  1  0
  1 17  1  0
  8 18  1  0
  9 19  1  0
 10 20  1  0
 11 21  1  0
M  END
>  <UniqueID>  (18) 
18

>  <SMILES>  (18) 
CSc1nnc(-c2ccccc2Br)o1

>  <Energy>  (18) 
56.326476050164054

>  <Genealogy>  (18) 
CSc1nnc(-c2ccccc2Br)o1 (3D coordinates assigned)
CSc1nnc(-c2ccccc2Br)o1 (optimized conformer: 56.326476050164054 kcal/mol)

>  <smiles>  (18) 
CSc1nnc(-c2ccccc2Br)o1

>  <score_type>  (18) 
oracle

>  <origin>  (18) 
adg

>  <m_score__min__energy>  (18) 
-6.8300000000000001

>  <m_primary>  (18) 
energy

$$$$
18:0
     RDKit          3D

 57 61  0  0  0  0  0  0  0  0999 V2000
   -1.2590   20.8860  -28.4200 C   0  0  0  0  0  0  0  0  0  0  0  0
   -1.9280   21.5030  -29.5650 N   0  0  0  0  0  0  0  0  0  0  0  0
   -2.0030   21.0000  -30.8170 C   0  0  0  0  0  0  0  0  0  0  0  0
   -1.4500   19.8520  -31.2870 N   0  0  0  0  0  0  0  0  0  0  0  0
   -1.6380   19.5370  -32.6090 C   0  0  0  0  0  0  0  0  0  0  0  0
   -1.0090   18.3030  -33.1880 C   0  0  0  0  0  0  0  0  0  0  0  0
   -1.9360   17.1210  -33.0870 C   0  0  0  0  0  0  0  0  0  0  0  0
   -1.4860   16.0140  -32.6820 O   0  0  0  0  0  0  0  0  0  0  0  0
   -3.3210   17.2250  -33.4680 N   0  0  0  0  0  0  0  0  0  0  0  0
   -3.7410   18.0520  -34.6090 C   0  0  0  0  0  0  0  0  0  0  0  0
   -4.9440   18.9150  -34.2110 C   0  0  0  0  0  0  0  0  0  0  0  0
   -5.9290   18.1420  -33.4390 N   0  0  0  0  0  0  0  0  0  0  0  0
   -7.0420   18.8210  -32.8280 C   0  0  0  0  0  0  0  0  0  0  0  0
   -7.1450   20.2230  -32.8930 C   0  0  0  0  0  0  0  0  0  0  0  0
   -8.2180   20.8810  -32.2830 C   0  0  0  0  0  0  0  0  0  0  0  0
   -9.1910   20.1480  -31.5990 C   0  0  0  0  0  0  0  0  0  0  0  0
   -9.0950   18.7560  -31.5260 C   0  0  0  0  0  0  0  0  0  0  0  0
   -8.0240   18.0940  -32.1350 C   0  0  0  0  0  0  0  0  0  0  0  0
   -5.7380   16.6980  -33.2490 C   0  0  0  0  0  0  0  0  0  0  0  0
   -4.3180   16.4250  -32.7410 C   0  0  0  0  0  0  0  0  0  0  0  0
   -2.3520   20.3790  -33.4270 N   0  0  0  0  0  0  0  0  0  0  0  0
   -2.9050   21.5350  -32.9590 C   0  0  0  0  0  0  0  0  0  0  0  0
   -2.7160   21.8370  -31.6200 C   0  0  0  0  0  0  0  0  0  0  0  0
   -3.0700   22.8890  -30.8120 C   0  0  0  0  0  0  0  0  0  0  0  0
   -3.7180   23.9120  -31.1640 O   0  0  0  0  0  0  0  0  0  0  0  0
   -2.5740   22.6730  -29.5670 N   0  0  0  0  0  0  0  0  0  0  0  0
   -2.6920   23.5730  -28.4510 C   0  0  0  0  0  0  0  0  0  0  0  0
   -3.9280   23.7490  -27.8090 C   0  0  0  0  0  0  0  0  0  0  0  0
   -4.0370   24.6140  -26.7160 C   0  0  0  0  0  0  0  0  0  0  0  0
   -2.9110   25.3030  -26.2520 C   0  0  0  0  0  0  0  0  0  0  0  0
   -1.6750   25.1240  -26.8800 C   0  0  0  0  0  0  0  0  0  0  0  0
   -1.5640   24.2580  -27.9730 C   0  0  0  0  0  0  0  0  0  0  0  0
   -1.6881   21.2817  -27.4877 H   0  0  0  0  0  0  0  0  0  0  0  0
   -1.4018   19.7959  -28.4556 H   0  0  0  0  0  0  0  0  0  0  0  0
   -0.1840   21.1163  -28.4556 H   0  0  0  0  0  0  0  0  0  0  0  0
   -0.8850   19.2310  -30.6670 H   0  0  0  0  0  0  0  0  0  0  0  0
   -0.7723   18.4839  -34.2469 H   0  0  0  0  0  0  0  0  0  0  0  0
   -0.0947   18.0783  -32.6192 H   0  0  0  0  0  0  0  0  0  0  0  0
   -2.9088   18.7039  -34.9133 H   0  0  0  0  0  0  0  0  0  0  0  0
   -4.0250   17.3976  -35.4463 H   0  0  0  0  0  0  0  0  0  0  0  0
   -4.5921   19.7585  -33.5988 H   0  0  0  0  0  0  0  0  0  0  0  0
   -5.4303   19.2746  -35.1298 H   0  0  0  0  0  0  0  0  0  0  0  0
   -6.3781   20.8041  -33.4260 H   0  0  0  0  0  0  0  0  0  0  0  0
   -8.2958   21.9767  -32.3419 H   0  0  0  0  0  0  0  0  0  0  0  0
  -10.0330   20.6670  -31.1177 H   0  0  0  0  0  0  0  0  0  0  0  0
   -9.8628   18.1799  -30.9888 H   0  0  0  0  0  0  0  0  0  0  0  0
   -7.9503   16.9983  -32.0709 H   0  0  0  0  0  0  0  0  0  0  0  0
   -6.4668   16.3268  -32.5134 H   0  0  0  0  0  0  0  0  0  0  0  0
   -5.8857   16.1824  -34.2094 H   0  0  0  0  0  0  0  0  0  0  0  0
   -4.2668   16.6766  -31.6714 H   0  0  0  0  0  0  0  0  0  0  0  0
   -4.0920   15.3610  -32.9050 H   0  0  0  0  0  0  0  0  0  0  0  0
   -3.4789   22.2018  -33.6193 H   0  0  0  0  0  0  0  0  0  0  0  0
   -4.8140   23.2043  -28.1672 H   0  0  0  0  0  0  0  0  0  0  0  0
   -5.0091   24.7531  -26.2203 H   0  0  0  0  0  0  0  0  0  0  0  0
   -2.9984   25.9852  -25.3935 H   0  0  0  0  0  0  0  0  0  0  0  0
   -0.7893   25.6643  -26.5145 H   0  0  0  0  0  0  0  0  0  0  0  0
   -0.5884   24.1132  -28.4600 H   0  0  0  0  0  0  0  0  0  0  0  0
  1  2  1  0
  2  3  1  0
  3  4  2  0
  4  5  1  0
  5  6  1  0
  6  7  1  0
  7  8  2  0
  7  9  1  0
  9 10  1  0
 10 11  1  0
 11 12  1  0
 12 13  1  0
 13 14  2  0
 14 15  1  0
 15 16  2  0
 16 17  1  0
 17 18  2  0
 12 19  1  0
 19 20  1  0
  5 21  2  0
 21 22  1  0
 22 23  2  0
 23 24  1  0
 24 25  2  0
 24 26  1  0
 26 27  1  0
 27 28  2  0
 28 29  1  0
 29 30  2  0
 30 31  1  0
 31 32  2  0
 26  2  1  0
 32 27  1  0
 23  3  1  0
 20  9  1  0
 18 13  1  0
  1 33  1  0
  1 34  1  0
  1 35  1  0
  4 36  1  0
  6 37  1  0
  6 38  1  0
 10 39  1  0
 10 40  1  0
 11 41  1  0
 11 42  1  0
 14 43  1  0
 15 44  1  0
 16 45  1  0
 17 46  1  0
 18 47  1  0
 19 48  1  0
 19 49  1  0
 20 50  1  0
 20 51  1  0
 22 52  1  0
 28 53  1  0
 29 54  1  0
 30 55  1  0
 31 56  1  0
 32 57  1  0
M  CHG  1   4   1
M  END
>  <UniqueID>  (19) 
19

>  <SMILES>  (19) 
Cn1c2[nH+]c(CC(=O)N3CCN(c4ccccc4)CC3)ncc2c(=O)n1-c1ccccc1

>  <Energy>  (19) 
119.72464748533115

>  <Genealogy>  (19) 
Cn1c2[nH+]c(CC(=O)N3CCN(c4ccccc4)CC3)ncc2c(=O)n1-c1ccccc1 (protonated)
Cn1c2[nH+]c(CC(=O)N3CCN(c4ccccc4)CC3)ncc2c(=O)n1-c1ccccc1 (3D coordinates assigned)
Cn1c2[nH+]c(CC(=O)N3CCN(c4ccccc4)CC3)ncc2c(=O)n1-c1ccccc1 (nonaromatic ring conformer: 119.72464748533115 kcal/mol)

>  <smiles>  (19) 
Cn1c2nc(CC(=O)N3CCN(c4ccccc4)CC3)ncc2c(=O)n1-c1ccccc1

>  <score_type>  (19) 
oracle

>  <origin>  (19) 
adg

>  <m_score__min__energy>  (19) 
-8.9600000000000009

>  <m_primary>  (19) 
energy

$$$$
19:0
     RDKit          3D

 53 56  0  0  0  0  0  0  0  0999 V2000
   -3.0790   24.0870  -27.7520 C   0  0  0  0  0  0  0  0  0  0  0  0
   -2.2610   24.5460  -28.9540 C   0  0  0  0  0  0  0  0  0  0  0  0
   -3.1160   24.9510  -30.0240 O   0  0  0  0  0  0  0  0  0  0  0  0
   -4.3250   24.3330  -30.3830 C   0  0  0  0  0  0  0  0  0  0  0  0
   -4.2640   23.1090  -31.0600 C   0  0  0  0  0  0  0  0  0  0  0  0
   -5.4340   22.4510  -31.4460 C   0  0  0  0  0  0  0  0  0  0  0  0
   -6.6850   23.0090  -31.1590 C   0  0  0  0  0  0  0  0  0  0  0  0
   -8.1510   22.1760  -31.6700 S   0  0  0  0  0  0  0  0  0  0  0  0
   -9.0900   23.1390  -32.3430 O   0  0  0  0  0  0  0  0  0  0  0  0
   -8.8360   21.6080  -30.4600 O   0  0  0  0  0  0  0  0  0  0  0  0
   -7.7470   20.8800  -32.7590 N   0  0  0  0  0  0  0  0  0  0  0  0
   -8.3910   19.6290  -32.3550 C   0  0  0  0  0  0  0  0  0  0  0  0
   -7.4080   18.7530  -31.5780 C   0  0  0  0  0  0  0  0  0  0  0  0
   -6.6710   17.8420  -32.5100 C   0  0  0  0  0  0  0  0  0  0  0  0
   -7.2180   16.6940  -33.1110 C   0  0  0  0  0  0  0  0  0  0  0  0
   -6.0760   16.0240  -34.2120 S   0  0  0  0  0  0  0  0  0  0  0  0
   -4.9720   17.2290  -33.8440 C   0  0  0  0  0  0  0  0  0  0  0  0
   -3.7700   17.5680  -34.3160 N   0  0  0  0  0  0  0  0  0  0  0  0
   -3.5290   18.7270  -33.6260 C   0  0  0  0  0  0  0  0  0  0  0  0
   -2.3090   19.5570  -33.7760 C   0  0  0  0  0  0  0  0  0  0  0  0
   -2.1890   20.8030  -33.1340 C   0  0  0  0  0  0  0  0  0  0  0  0
   -1.0310   21.5730  -33.2860 C   0  0  0  0  0  0  0  0  0  0  0  0
    0.0300   21.1100  -34.0850 C   0  0  0  0  0  0  0  0  0  0  0  0
    1.2110   21.8440  -34.2670 O   0  0  0  0  0  0  0  0  0  0  0  0
    1.7240   22.2420  -35.5340 C   0  0  0  0  0  0  0  0  0  0  0  0
   -0.0890   19.8730  -34.7250 C   0  0  0  0  0  0  0  0  0  0  0  0
   -1.2450   19.1030  -34.5760 C   0  0  0  0  0  0  0  0  0  0  0  0
   -4.5580   19.0620  -32.7900 N   0  0  0  0  0  0  0  0  0  0  0  0
   -5.4240   18.0840  -32.9660 N   0  0  0  0  0  0  0  0  0  0  0  0
   -6.7550   24.2370  -30.4880 C   0  0  0  0  0  0  0  0  0  0  0  0
   -5.5840   24.8980  -30.1010 C   0  0  0  0  0  0  0  0  0  0  0  0
   -2.5627   24.3767  -26.8249 H   0  0  0  0  0  0  0  0  0  0  0  0
   -4.0717   24.5598  -27.7819 H   0  0  0  0  0  0  0  0  0  0  0  0
   -3.1927   22.9933  -27.7819 H   0  0  0  0  0  0  0  0  0  0  0  0
   -1.6283   25.3953  -28.6567 H   0  0  0  0  0  0  0  0  0  0  0  0
   -1.6384   23.7070  -29.2982 H   0  0  0  0  0  0  0  0  0  0  0  0
   -3.2858   22.6615  -31.2900 H   0  0  0  0  0  0  0  0  0  0  0  0
   -5.3719   21.4901  -31.9778 H   0  0  0  0  0  0  0  0  0  0  0  0
   -9.2573   19.8566  -31.7165 H   0  0  0  0  0  0  0  0  0  0  0  0
   -8.7181   19.0880  -33.2552 H   0  0  0  0  0  0  0  0  0  0  0  0
   -6.6860   19.3960  -31.0534 H   0  0  0  0  0  0  0  0  0  0  0  0
   -7.9685   18.1443  -30.8532 H   0  0  0  0  0  0  0  0  0  0  0  0
   -8.2199   16.2873  -32.9090 H   0  0  0  0  0  0  0  0  0  0  0  0
   -3.2050   17.0820  -35.0470 H   0  0  0  0  0  0  0  0  0  0  0  0
   -3.0128   21.1750  -32.5071 H   0  0  0  0  0  0  0  0  0  0  0  0
   -0.9498   22.5454  -32.7782 H   0  0  0  0  0  0  0  0  0  0  0  0
    2.5853   22.9103  -35.3873 H   0  0  0  0  0  0  0  0  0  0  0  0
    2.0421   21.3520  -36.0968 H   0  0  0  0  0  0  0  0  0  0  0  0
    0.9410   22.7712  -36.0968 H   0  0  0  0  0  0  0  0  0  0  0  0
    0.7354   19.5024  -35.3519 H   0  0  0  0  0  0  0  0  0  0  0  0
   -1.3238   18.1331  -35.0889 H   0  0  0  0  0  0  0  0  0  0  0  0
   -7.7351   24.6835  -30.2644 H   0  0  0  0  0  0  0  0  0  0  0  0
   -5.6469   25.8620  -29.5749 H   0  0  0  0  0  0  0  0  0  0  0  0
  1  2  1  0
  2  3  1  0
  3  4  1  0
  4  5  2  0
  5  6  1  0
  6  7  2  0
  7  8  1  0
  8  9  2  0
  8 10  2  0
  8 11  1  0
 11 12  1  0
 12 13  1  0
 13 14  1  0
 14 15  2  0
 15 16  1  0
 16 17  1  0
 17 18  2  0
 18 19  1  0
 19 20  1  0
 20 21  2  0
 21 22  1  0
 22 23  2  0
 23 24  1  0
 24 25  1  0
 23 26  1  0
 26 27  2  0
 19 28  2  0
 28 29  1  0
  7 30  1  0
 30 31  2  0
 31  4  1  0
 29 14  1  0
 29 17  1  0
 27 20  1  0
  1 32  1  0
  1 33  1  0
  1 34  1  0
  2 35  1  0
  2 36  1  0
  5 37  1  0
  6 38  1  0
 12 39  1  0
 12 40  1  0
 13 41  1  0
 13 42  1  0
 15 43  1  0
 18 44  1  0
 21 45  1  0
 22 46  1  0
 25 47  1  0
 25 48  1  0
 25 49  1  0
 26 50  1  0
 27 51  1  0
 30 52  1  0
 31 53  1  0
M  CHG  2  11  -1  18   1
M  END
>  <UniqueID>  (20) 
20

>  <SMILES>  (20) 
CCOc1ccc(S(=O)(=O)[N-]CCc2csc3[nH+]c(-c4ccc(OC)cc4)nn23)cc1

>  <Energy>  (20) 
137.75238540244538

>  <Genealogy>  (20) 
CCOc1ccc(S(=O)(=O)[N-]CCc2csc3[nH+]c(-c4ccc(OC)cc4)nn23)cc1 (protonated)
CCOc1ccc(S(=O)(=O)[N-]CCc2csc3[nH+]c(-c4ccc(OC)cc4)nn23)cc1 (3D coordinates assigned)
CCOc1ccc(S(=O)(=O)[N-]CCc2csc3[nH+]c(-c4ccc(OC)cc4)nn23)cc1 (optimized conformer: 137.75238540244538 kcal/mol)

>  <smiles>  (20) 
CCOc1ccc(S(=O)(=O)NCCc2csc3nc(-c4ccc(OC)cc4)nn23)cc1

>  <score_type>  (20) 
oracle

>  <origin>  (20) 
adg

>  <m_score__min__energy>  (20) 
-9.8399999999999999

>  <m_primary>  (20) 
energy

$$$$
20:0
     RDKit          3D

 45 47  0  0  0  0  0  0  0  0999 V2000
   -3.8150   17.2530  -33.5260 C   0  0  0  0  0  0  0  0  0  0  0  0
   -4.9670   17.1720  -34.5270 C   0  0  0  0  0  0  0  0  0  0  0  0
   -5.7460   18.4910  -34.6310 C   0  0  0  0  0  0  0  0  0  0  0  0
   -6.6980   18.6690  -33.4890 C   0  0  0  0  0  0  0  0  0  0  0  0
   -7.2560   19.8530  -33.1570 N   0  0  0  0  0  0  0  0  0  0  0  0
   -8.1180   19.7320  -32.1130 C   0  0  0  0  0  0  0  0  0  0  0  0
   -8.9010   20.9030  -31.5980 C   0  0  0  0  0  0  0  0  0  0  0  0
   -8.1110   22.1510  -31.6900 N   0  0  0  0  0  0  0  0  0  0  0  0
   -9.0110   23.2700  -32.0290 C   0  0  0  0  0  0  0  0  0  0  0  0
   -7.4080   22.4110  -30.4120 C   0  0  0  0  0  0  0  0  0  0  0  0
   -6.5400   23.6440  -30.4780 C   0  0  0  0  0  0  0  0  0  0  0  0
   -6.8700   24.8580  -29.9030 C   0  0  0  0  0  0  0  0  0  0  0  0
   -5.7760   25.6830  -30.0700 C   0  0  0  0  0  0  0  0  0  0  0  0
   -4.8190   24.9420  -30.7310 C   0  0  0  0  0  0  0  0  0  0  0  0
   -5.2880   23.7060  -30.9910 N   0  0  0  0  0  0  0  0  0  0  0  0
   -4.5350   22.6660  -31.6280 C   0  0  0  0  0  0  0  0  0  0  0  0
   -3.1800   22.6410  -31.4980 N   0  0  0  0  0  0  0  0  0  0  0  0
   -2.4310   21.6960  -32.1210 C   0  0  0  0  0  0  0  0  0  0  0  0
   -3.0480   20.7400  -32.9240 C   0  0  0  0  0  0  0  0  0  0  0  0
   -4.4340   20.7900  -33.0690 C   0  0  0  0  0  0  0  0  0  0  0  0
   -5.1530   21.7450  -32.4210 N   0  0  0  0  0  0  0  0  0  0  0  0
   -8.2540   18.4430  -31.6030 C   0  0  0  0  0  0  0  0  0  0  0  0
   -7.2520   17.4300  -32.4960 S   0  0  0  0  0  0  0  0  0  0  0  0
   -4.2162   17.2248  -32.5022 H   0  0  0  0  0  0  0  0  0  0  0  0
   -3.1368   16.4003  -33.6777 H   0  0  0  0  0  0  0  0  0  0  0  0
   -3.2628   18.1922  -33.6777 H   0  0  0  0  0  0  0  0  0  0  0  0
   -4.5575   16.9245  -35.5175 H   0  0  0  0  0  0  0  0  0  0  0  0
   -5.6641   16.3978  -34.1741 H   0  0  0  0  0  0  0  0  0  0  0  0
   -5.0312   19.3271  -34.6316 H   0  0  0  0  0  0  0  0  0  0  0  0
   -6.3311   18.4687  -35.5622 H   0  0  0  0  0  0  0  0  0  0  0  0
   -9.8182   21.0130  -32.1951 H   0  0  0  0  0  0  0  0  0  0  0  0
   -9.1483   20.7219  -30.5416 H   0  0  0  0  0  0  0  0  0  0  0  0
   -9.3840   23.7337  -31.1039 H   0  0  0  0  0  0  0  0  0  0  0  0
   -8.4601   24.0181  -32.6179 H   0  0  0  0  0  0  0  0  0  0  0  0
   -9.8599   22.8923  -32.6179 H   0  0  0  0  0  0  0  0  0  0  0  0
   -8.1565   22.5471  -29.6175 H   0  0  0  0  0  0  0  0  0  0  0  0
   -6.7555   21.5500  -30.2049 H   0  0  0  0  0  0  0  0  0  0  0  0
   -7.8186   25.1156  -29.4093 H   0  0  0  0  0  0  0  0  0  0  0  0
   -5.6852   26.7284  -29.7400 H   0  0  0  0  0  0  0  0  0  0  0  0
   -3.8184   25.3070  -31.0059 H   0  0  0  0  0  0  0  0  0  0  0  0
   -1.3387   21.6853  -31.9919 H   0  0  0  0  0  0  0  0  0  0  0  0
   -2.4562   19.9641  -33.4317 H   0  0  0  0  0  0  0  0  0  0  0  0
   -4.9463   20.0560  -33.7084 H   0  0  0  0  0  0  0  0  0  0  0  0
   -6.1830   21.7900  -32.5750 H   0  0  0  0  0  0  0  0  0  0  0  0
   -8.9010   18.1417  -30.7660 H   0  0  0  0  0  0  0  0  0  0  0  0
  1  2  1  0
  2  3  1  0
  3  4  1  0
  4  5  2  0
  5  6  1  0
  6  7  1  0
  7  8  1  0
  8  9  1  0
  8 10  1  0
 10 11  1  0
 11 12  2  0
 12 13  1  0
 13 14  2  0
 14 15  1  0
 15 16  1  0
 16 17  2  0
 17 18  1  0
 18 19  2  0
 19 20  1  0
 20 21  2  0
  6 22  2  0
 22 23  1  0
 23  4  1  0
 15 11  1  0
 21 16  1  0
  1 24  1  0
  1 25  1  0
  1 26  1  0
  2 27  1  0
  2 28  1  0
  3 29  1  0
  3 30  1  0
  7 31  1  0
  7 32  1  0
  9 33  1  0
  9 34  1  0
  9 35  1  0
 10 36  1  0
 10 37  1  0
 12 38  1  0
 13 39  1  0
 14 40  1  0
 18 41  1  0
 19 42  1  0
 20 43  1  0
 21 44  1  0
 22 45  1  0
M  CHG  1  21   1
M  END
>  <UniqueID>  (21) 
21

>  <SMILES>  (21) 
CCCc1nc(CN(C)Cc2cccn2-c2nccc[nH+]2)cs1

>  <Energy>  (21) 
97.8516365141207

>  <Genealogy>  (21) 
CCCc1nc(CN(C)Cc2cccn2-c2nccc[nH+]2)cs1 (protonated)
CCCc1nc(CN(C)Cc2cccn2-c2nccc[nH+]2)cs1 (3D coordinates assigned)
CCCc1nc(CN(C)Cc2cccn2-c2nccc[nH+]2)cs1 (optimized conformer: 97.8516365141207 kcal/mol)

>  <smiles>  (21) 
CCCc1nc(CN(C)Cc2cccn2-c2ncccn2)cs1

>  <score_type>  (21) 
oracle

>  <origin>  (21) 
adg

>  <m_score__min__energy>  (21) 
-6.9500000000000002

>  <m_primary>  (21) 
energy

$$$$
21:0
     RDKit          3D

 44 46  0  0  0  0  0  0  0  0999 V2000
   -9.8120   22.5860  -31.7290 O   0  0  0  0  0  0  0  0  0  0  0  0
   -8.1940   22.1760  -31.5280 S   0  0  0  0  0  0  0  0  0  0  0  0
   -7.1100   23.3150  -32.3650 C   0  0  0  0  0  0  0  0  0  0  0  0
   -5.8420   23.4830  -31.5790 C   0  0  0  0  0  0  0  0  0  0  0  0
   -4.7420   22.6560  -31.8250 C   0  0  0  0  0  0  0  0  0  0  0  0
   -3.5720   22.7870  -31.0730 C   0  0  0  0  0  0  0  0  0  0  0  0
   -3.4720   23.7470  -30.0370 C   0  0  0  0  0  0  0  0  0  0  0  0
   -2.2510   23.8860  -29.2470 N   0  0  0  0  0  0  0  0  0  0  0  0
   -2.1550   24.9690  -28.2460 C   0  0  0  0  0  0  0  0  0  0  0  0
   -0.8530   24.9480  -27.4400 C   0  0  0  0  0  0  0  0  0  0  0  0
    0.2380   24.5910  -28.2540 O   0  0  0  0  0  0  0  0  0  0  0  0
    0.0980   23.2350  -28.6100 C   0  0  0  0  0  0  0  0  0  0  0  0
   -1.0820   23.0380  -29.5650 C   0  0  0  0  0  0  0  0  0  0  0  0
   -4.5990   24.5700  -29.7980 C   0  0  0  0  0  0  0  0  0  0  0  0
   -5.7660   24.4340  -30.5540 C   0  0  0  0  0  0  0  0  0  0  0  0
   -7.8970   20.5180  -32.0160 C   0  0  0  0  0  0  0  0  0  0  0  0
   -8.7360   19.4960  -31.5580 C   0  0  0  0  0  0  0  0  0  0  0  0
   -8.4920   18.1720  -31.9290 C   0  0  0  0  0  0  0  0  0  0  0  0
   -7.4150   17.8640  -32.7640 C   0  0  0  0  0  0  0  0  0  0  0  0
   -6.5800   18.8840  -33.2540 C   0  0  0  0  0  0  0  0  0  0  0  0
   -5.3860   18.5500  -34.1130 C   0  0  0  0  0  0  0  0  0  0  0  0
   -4.3960   19.5060  -33.9660 F   0  0  0  0  0  0  0  0  0  0  0  0
   -5.7450   18.5010  -35.4490 F   0  0  0  0  0  0  0  0  0  0  0  0
   -4.8840   17.3190  -33.7350 F   0  0  0  0  0  0  0  0  0  0  0  0
   -6.8170   20.2110  -32.8530 C   0  0  0  0  0  0  0  0  0  0  0  0
  -10.2540   22.3010  -30.8900 H   0  0  0  0  0  0  0  0  0  0  0  0
   -6.8706   22.9233  -33.3646 H   0  0  0  0  0  0  0  0  0  0  0  0
   -7.6107   24.2900  -32.4585 H   0  0  0  0  0  0  0  0  0  0  0  0
   -4.7983   21.8954  -32.6177 H   0  0  0  0  0  0  0  0  0  0  0  0
   -2.7141   22.1334  -31.2893 H   0  0  0  0  0  0  0  0  0  0  0  0
   -2.2235   25.9336  -28.7702 H   0  0  0  0  0  0  0  0  0  0  0  0
   -2.9781   24.8205  -27.5315 H   0  0  0  0  0  0  0  0  0  0  0  0
   -0.6749   25.9481  -27.0180 H   0  0  0  0  0  0  0  0  0  0  0  0
   -0.9499   24.2026  -26.6368 H   0  0  0  0  0  0  0  0  0  0  0  0
    1.0207   22.8954  -29.1033 H   0  0  0  0  0  0  0  0  0  0  0  0
   -0.0883   22.6503  -27.6971 H   0  0  0  0  0  0  0  0  0  0  0  0
   -0.7469   23.2766  -30.5852 H   0  0  0  0  0  0  0  0  0  0  0  0
   -1.4064   21.9918  -29.4642 H   0  0  0  0  0  0  0  0  0  0  0  0
   -4.5550   25.3295  -29.0035 H   0  0  0  0  0  0  0  0  0  0  0  0
   -6.6317   25.0789  -30.3424 H   0  0  0  0  0  0  0  0  0  0  0  0
   -9.5883   19.7357  -30.9053 H   0  0  0  0  0  0  0  0  0  0  0  0
   -9.1494   17.3696  -31.5629 H   0  0  0  0  0  0  0  0  0  0  0  0
   -7.2190   16.8173  -33.0398 H   0  0  0  0  0  0  0  0  0  0  0  0
   -6.1492   21.0136  -33.1993 H   0  0  0  0  0  0  0  0  0  0  0  0
  2  1  1  6
  2  3  1  0
  3  4  1  0
  4  5  2  0
  5  6  1  0
  6  7  2  0
  7  8  1  0
  8  9  1  0
  9 10  1  0
 10 11  1  0
 11 12  1  0
 12 13  1  0
  7 14  1  0
 14 15  2  0
  2 16  1  0
 16 17  2  0
 17 18  1  0
 18 19  2  0
 19 20  1  0
 20 21  1  0
 21 22  1  0
 21 23  1  0
 21 24  1  0
 20 25  2  0
 15  4  1  0
 25 16  1  0
 13  8  1  0
  1 26  1  0
  3 27  1  0
  3 28  1  0
  5 29  1  0
  6 30  1  0
  9 31  1  0
  9 32  1  0
 10 33  1  0
 10 34  1  0
 12 35  1  0
 12 36  1  0
 13 37  1  0
 13 38  1  0
 14 39  1  0
 15 40  1  0
 17 41  1  0
 18 42  1  0
 19 43  1  0
 25 44  1  0
M  CHG  1   2   1
M  END
>  <UniqueID>  (22) 
22

>  <SMILES>  (22) 
O[S@+](Cc1ccc(N2CCOCC2)cc1)c1cccc(C(F)(F)F)c1

>  <Energy>  (22) 
48.33643861349445

>  <Genealogy>  (22) 
O[S+](Cc1ccc(N2CCOCC2)cc1)c1cccc(C(F)(F)F)c1 (protonated)
O[S@+](Cc1ccc(N2CCOCC2)cc1)c1cccc(C(F)(F)F)c1 (chirality)
O[S@+](Cc1ccc(N2CCOCC2)cc1)c1cccc(C(F)(F)F)c1 (3D coordinates assigned)
O[S@+](Cc1ccc(N2CCOCC2)cc1)c1cccc(C(F)(F)F)c1 (nonaromatic ring conformer: 48.33643861349445 kcal/mol)

>  <smiles>  (22) 
[O-][S+](Cc1ccc(N2CCOCC2)cc1)c1cccc(C(F)(F)F)c1

>  <score_type>  (22) 
oracle

>  <origin>  (22) 
adg

>  <m_score__min__energy>  (22) 
-7.7699999999999996

>  <m_primary>  (22) 
energy

$$$$
22:0
     RDKit          3D

 45 46  0  0  0  0  0  0  0  0999 V2000
   -0.6150   26.9700  -27.4410 C   0  0  0  0  0  0  0  0  0  0  0  0
   -1.2110   25.6910  -28.0290 C   0  0  0  0  0  0  0  0  0  0  0  0
   -1.6770   24.7660  -26.9530 N   0  0  0  0  0  0  0  0  0  0  0  0
   -0.5870   24.3950  -26.0110 C   0  0  0  0  0  0  0  0  0  0  0  0
   -2.8290   25.3030  -26.1910 C   0  0  0  0  0  0  0  0  0  0  0  0
   -4.2420   24.8430  -26.6130 C   0  0  0  0  0  0  0  0  0  0  0  0
   -4.5000   24.5610  -28.0380 N   0  0  0  0  0  0  0  0  0  0  0  0
   -3.9740   23.4220  -28.5950 C   0  0  0  0  0  0  0  0  0  0  0  0
   -3.4120   22.3610  -27.8440 C   0  0  0  0  0  0  0  0  0  0  0  0
   -2.1490   21.8300  -28.2200 C   0  0  0  0  0  0  0  0  0  0  0  0
   -1.7070   21.9590  -29.5460 C   0  0  0  0  0  0  0  0  0  0  0  0
   -2.3700   22.7900  -30.4410 C   0  0  0  0  0  0  0  0  0  0  0  0
   -3.5510   23.4420  -30.0790 C   0  0  0  0  0  0  0  0  0  0  0  0
   -4.1040   24.4940  -30.8320 O   0  0  0  0  0  0  0  0  0  0  0  0
   -5.4900   24.8120  -31.0820 C   0  0  0  0  0  0  0  0  0  0  0  0
   -6.2670   23.6090  -31.5900 C   0  0  0  0  0  0  0  0  0  0  0  0
   -7.6280   23.4770  -31.2330 C   0  0  0  0  0  0  0  0  0  0  0  0
   -8.3390   22.3270  -31.5960 C   0  0  0  0  0  0  0  0  0  0  0  0
   -7.6960   21.2990  -32.3010 C   0  0  0  0  0  0  0  0  0  0  0  0
   -6.3360   21.4120  -32.6420 C   0  0  0  0  0  0  0  0  0  0  0  0
   -5.5290   20.0870  -33.4680 Cl  0  0  0  0  0  0  0  0  0  0  0  0
   -5.6270   22.5770  -32.2920 C   0  0  0  0  0  0  0  0  0  0  0  0
   -0.6405   26.9152  -26.3427 H   0  0  0  0  0  0  0  0  0  0  0  0
    0.4263   27.0782  -27.7786 H   0  0  0  0  0  0  0  0  0  0  0  0
   -1.2019   27.8369  -27.7786 H   0  0  0  0  0  0  0  0  0  0  0  0
   -2.0654   25.9551  -28.6695 H   0  0  0  0  0  0  0  0  0  0  0  0
   -0.4309   25.1803  -28.6126 H   0  0  0  0  0  0  0  0  0  0  0  0
   -0.9400   24.5152  -24.9761 H   0  0  0  0  0  0  0  0  0  0  0  0
   -0.2969   23.3475  -26.1802 H   0  0  0  0  0  0  0  0  0  0  0  0
    0.2819   25.0480  -26.1802 H   0  0  0  0  0  0  0  0  0  0  0  0
   -2.6900   25.0158  -25.1383 H   0  0  0  0  0  0  0  0  0  0  0  0
   -2.8161   26.3847  -26.3902 H   0  0  0  0  0  0  0  0  0  0  0  0
   -4.4620   23.9206  -26.0556 H   0  0  0  0  0  0  0  0  0  0  0  0
   -4.8817   25.7103  -26.3927 H   0  0  0  0  0  0  0  0  0  0  0  0
   -4.4950   25.3960  -28.6460 H   0  0  0  0  0  0  0  0  0  0  0  0
   -3.9493   21.9511  -26.9761 H   0  0  0  0  0  0  0  0  0  0  0  0
   -1.5203   21.3200  -27.4753 H   0  0  0  0  0  0  0  0  0  0  0  0
   -0.8241   21.3948  -29.8811 H   0  0  0  0  0  0  0  0  0  0  0  0
   -1.9582   22.9366  -31.4504 H   0  0  0  0  0  0  0  0  0  0  0  0
   -5.9488   25.1615  -30.1453 H   0  0  0  0  0  0  0  0  0  0  0  0
   -5.5254   25.5916  -31.8572 H   0  0  0  0  0  0  0  0  0  0  0  0
   -8.1289   24.2781  -30.6697 H   0  0  0  0  0  0  0  0  0  0  0  0
   -9.4015   22.2296  -31.3284 H   0  0  0  0  0  0  0  0  0  0  0  0
   -8.2587   20.3988  -32.5890 H   0  0  0  0  0  0  0  0  0  0  0  0
   -4.5675   22.6782  -32.5700 H   0  0  0  0  0  0  0  0  0  0  0  0
  1  2  1  0
  2  3  1  0
  3  4  1  0
  3  5  1  0
  5  6  1  0
  6  7  1  0
  7  8  1  0
  8  9  2  0
  9 10  1  0
 10 11  2  0
 11 12  1  0
 12 13  2  0
 13 14  1  0
 14 15  1  0
 15 16  1  0
 16 17  2  0
 17 18  1  0
 18 19  2  0
 19 20  1  0
 20 21  1  0
 20 22  2  0
 13  8  1  0
 22 16  1  0
  1 23  1  0
  1 24  1  0
  1 25  1  0
  2 26  1  0
  2 27  1  0
  4 28  1  0
  4 29  1  0
  4 30  1  0
  5 31  1  0
  5 32  1  0
  6 33  1  0
  6 34  1  0
  7 35  1  0
  9 36  1  0
 10 37  1  0
 11 38  1  0
 12 39  1  0
 15 40  1  0
 15 41  1  0
 17 42  1  0
 18 43  1  0
 19 44  1  0
 22 45  1  0
M  END
>  <UniqueID>  (23) 
23

>  <SMILES>  (23) 
CCN(C)CCNc1ccccc1OCc1cccc(Cl)c1

>  <Energy>  (23) 
102.92608859236161

>  <Genealogy>  (23) 
CCN(C)CCNc1ccccc1OCc1cccc(Cl)c1 (3D coordinates assigned)
CCN(C)CCNc1ccccc1OCc1cccc(Cl)c1 (optimized conformer: 102.92608859236161 kcal/mol)

>  <smiles>  (23) 
CCN(C)CCNc1ccccc1OCc1cccc(Cl)c1

>  <score_type>  (23) 
oracle

>  <origin>  (23) 
adg

>  <m_score__min__energy>  (23) 
-7.8499999999999996

>  <m_primary>  (23) 
energy

$$$$
23:0
     RDKit          3D

 42 44  0  0  0  0  0  0  0  0999 V2000
   -9.0970   18.5920  -31.7650 C   0  0  0  0  0  0  0  0  0  0  0  0
   -8.5420   19.9360  -32.2650 C   0  0  0  0  0  0  0  0  0  0  0  0
   -7.2050   19.6860  -32.6920 N   0  0  0  0  0  0  0  0  0  0  0  0
   -6.8700   18.3790  -33.0360 C   0  0  0  0  0  0  0  0  0  0  0  0
   -5.9440   18.2700  -34.2220 C   0  0  0  0  0  0  0  0  0  0  0  0
   -6.4380   20.7780  -33.0830 C   0  0  0  0  0  0  0  0  0  0  0  0
   -6.2680   21.8920  -32.1410 C   0  0  0  0  0  0  0  0  0  0  0  0
   -5.3420   22.2020  -31.2170 C   0  0  0  0  0  0  0  0  0  0  0  0
   -5.4670   23.3120  -30.4820 C   0  0  0  0  0  0  0  0  0  0  0  0
   -4.4830   23.7330  -29.4460 C   0  0  0  0  0  0  0  0  0  0  0  0
   -3.1440   23.6540  -29.5100 N   0  0  0  0  0  0  0  0  0  0  0  0
   -2.5660   24.1320  -28.4030 C   0  0  0  0  0  0  0  0  0  0  0  0
   -1.2730   24.2820  -27.9640 C   0  0  0  0  0  0  0  0  0  0  0  0
   -0.1360   23.8600  -28.8200 C   0  0  0  0  0  0  0  0  0  0  0  0
   -1.0260   24.8340  -26.7190 C   0  0  0  0  0  0  0  0  0  0  0  0
   -2.0620   25.2370  -25.9100 C   0  0  0  0  0  0  0  0  0  0  0  0
   -3.3650   25.0850  -26.3560 C   0  0  0  0  0  0  0  0  0  0  0  0
   -3.6060   24.5390  -27.5860 C   0  0  0  0  0  0  0  0  0  0  0  0
   -4.7460   24.2830  -28.2500 N   0  0  0  0  0  0  0  0  0  0  0  0
   -6.5750   24.1160  -30.7130 C   0  0  0  0  0  0  0  0  0  0  0  0
   -7.4700   23.1960  -32.0710 S   0  0  0  0  0  0  0  0  0  0  0  0
   -9.1006   18.5832  -30.6650 H   0  0  0  0  0  0  0  0  0  0  0  0
  -10.1239   18.4585  -32.1361 H   0  0  0  0  0  0  0  0  0  0  0  0
   -8.4636   17.7728  -32.1361 H   0  0  0  0  0  0  0  0  0  0  0  0
   -9.1464   20.3081  -33.1054 H   0  0  0  0  0  0  0  0  0  0  0  0
   -8.5714   20.6988  -31.4730 H   0  0  0  0  0  0  0  0  0  0  0  0
   -6.3792   17.9095  -32.1707 H   0  0  0  0  0  0  0  0  0  0  0  0
   -7.8067   17.8765  -33.3189 H   0  0  0  0  0  0  0  0  0  0  0  0
   -4.9092   18.1482  -33.8693 H   0  0  0  0  0  0  0  0  0  0  0  0
   -6.2288   17.3992  -34.8307 H   0  0  0  0  0  0  0  0  0  0  0  0
   -6.0188   19.1832  -34.8307 H   0  0  0  0  0  0  0  0  0  0  0  0
   -5.4332   20.3994  -33.3220 H   0  0  0  0  0  0  0  0  0  0  0  0
   -7.0035   21.2173  -33.9181 H   0  0  0  0  0  0  0  0  0  0  0  0
   -4.4773   21.5393  -31.0649 H   0  0  0  0  0  0  0  0  0  0  0  0
    0.7055   23.5477  -28.1841 H   0  0  0  0  0  0  0  0  0  0  0  0
   -0.4480   23.0178  -29.4551 H   0  0  0  0  0  0  0  0  0  0  0  0
    0.1770   24.7018  -29.4551 H   0  0  0  0  0  0  0  0  0  0  0  0
    0.0114   24.9516  -26.3727 H   0  0  0  0  0  0  0  0  0  0  0  0
   -1.8591   25.6745  -24.9214 H   0  0  0  0  0  0  0  0  0  0  0  0
   -4.2048   25.4034  -25.7209 H   0  0  0  0  0  0  0  0  0  0  0  0
   -5.6920   24.5000  -27.8490 H   0  0  0  0  0  0  0  0  0  0  0  0
   -6.8557   25.0585  -30.2201 H   0  0  0  0  0  0  0  0  0  0  0  0
  1  2  1  0
  2  3  1  0
  3  4  1  0
  4  5  1  0
  3  6  1  0
  6  7  1  0
  7  8  2  0
  8  9  1  0
  9 10  1  0
 10 11  2  0
 11 12  1  0
 12 13  2  0
 13 14  1  0
 13 15  1  0
 15 16  2  0
 16 17  1  0
 17 18  2  0
 18 19  1  0
  9 20  2  0
 20 21  1  0
 21  7  1  0
 19 10  1  0
 18 12  1  0
  1 22  1  0
  1 23  1  0
  1 24  1  0
  2 25  1  0
  2 26  1  0
  4 27  1  0
  4 28  1  0
  5 29  1  0
  5 30  1  0
  5 31  1  0
  6 32  1  0
  6 33  1  0
  8 34  1  0
 14 35  1  0
 14 36  1  0
 14 37  1  0
 15 38  1  0
 16 39  1  0
 17 40  1  0
 19 41  1  0
 20 42  1  0
M  END
>  <smiles>  (24) 
CCN(CC)Cc1cc(-c2nc3c(C)cccc3[nH]2)cs1

>  <score_type>  (24) 
oracle

>  <origin>  (24) 
adg

>  <m_score__min__energy>  (24) 
-7.46

>  <m_primary>  (24) 
energy

$$$$
24:0
     RDKit          3D

 56 58  0  0  0  0  0  0  0  0999 V2000
   -5.2360   25.8470  -30.4740 C   0  0  0  0  0  0  0  0  0  0  0  0
   -3.9210   25.3020  -30.4510 O   0  0  0  0  0  0  0  0  0  0  0  0
   -3.5210   24.2230  -29.6470 C   0  0  0  0  0  0  0  0  0  0  0  0
   -3.4480   24.3230  -28.2430 C   0  0  0  0  0  0  0  0  0  0  0  0
   -3.0460   23.2260  -27.4780 C   0  0  0  0  0  0  0  0  0  0  0  0
   -2.7120   22.0230  -28.1000 C   0  0  0  0  0  0  0  0  0  0  0  0
   -2.7800   21.9110  -29.4910 C   0  0  0  0  0  0  0  0  0  0  0  0
   -3.1870   23.0110  -30.2750 C   0  0  0  0  0  0  0  0  0  0  0  0
   -3.2730   22.9420  -31.6760 O   0  0  0  0  0  0  0  0  0  0  0  0
   -4.2210   22.1610  -32.4050 C   0  0  0  0  0  0  0  0  0  0  0  0
   -5.5960   22.7720  -32.3140 C   0  0  0  0  0  0  0  0  0  0  0  0
   -5.7050   24.0250  -32.4090 O   0  0  0  0  0  0  0  0  0  0  0  0
   -6.7790   21.9570  -32.1650 N   0  0  0  0  0  0  0  0  0  0  0  0
   -8.0880   22.5990  -31.9600 C   0  0  0  0  0  0  0  0  0  0  0  0
   -8.9550   21.7620  -31.0090 C   0  0  0  0  0  0  0  0  0  0  0  0
   -9.0620   20.2740  -31.4180 C   0  0  0  0  0  0  0  0  0  0  0  0
   -8.0950   19.8830  -32.5580 C   0  0  2  0  0  0  0  0  0  0  0  0
   -8.0560   18.4220  -32.8110 N   0  0  0  0  0  0  0  0  0  0  0  0
   -6.7730   17.9250  -33.2630 C   0  0  0  0  0  0  0  0  0  0  0  0
   -6.1350   18.5030  -34.3710 C   0  0  0  0  0  0  0  0  0  0  0  0
   -4.9010   18.0220  -34.8110 C   0  0  0  0  0  0  0  0  0  0  0  0
   -4.2830   16.9400  -34.1640 C   0  0  0  0  0  0  0  0  0  0  0  0
   -2.9500   16.4450  -34.6620 C   0  0  0  0  0  0  0  0  0  0  0  0
   -4.9260   16.3320  -33.0610 C   0  0  0  0  0  0  0  0  0  0  0  0
   -4.3070   15.1590  -32.3450 C   0  0  0  0  0  0  0  0  0  0  0  0
   -6.1680   16.8270  -32.6260 C   0  0  0  0  0  0  0  0  0  0  0  0
   -6.7000   20.4950  -32.3230 C   0  0  0  0  0  0  0  0  0  0  0  0
   -5.5902   25.9938  -29.4430 H   0  0  0  0  0  0  0  0  0  0  0  0
   -5.2231   26.8139  -30.9984 H   0  0  0  0  0  0  0  0  0  0  0  0
   -5.9108   25.1545  -30.9984 H   0  0  0  0  0  0  0  0  0  0  0  0
   -3.7089   25.2697  -27.7474 H   0  0  0  0  0  0  0  0  0  0  0  0
   -2.9926   23.3108  -26.3826 H   0  0  0  0  0  0  0  0  0  0  0  0
   -2.3946   21.1612  -27.4945 H   0  0  0  0  0  0  0  0  0  0  0  0
   -2.5149   20.9606  -29.9772 H   0  0  0  0  0  0  0  0  0  0  0  0
   -3.9154   22.1148  -33.4607 H   0  0  0  0  0  0  0  0  0  0  0  0
   -4.2536   21.1499  -31.9729 H   0  0  0  0  0  0  0  0  0  0  0  0
   -7.9369   23.5986  -31.5266 H   0  0  0  0  0  0  0  0  0  0  0  0
   -8.6003   22.6795  -32.9301 H   0  0  0  0  0  0  0  0  0  0  0  0
   -8.5171   21.8152  -30.0013 H   0  0  0  0  0  0  0  0  0  0  0  0
   -9.9715   22.1809  -31.0456 H   0  0  0  0  0  0  0  0  0  0  0  0
   -8.8348   19.6530  -30.5389 H   0  0  0  0  0  0  0  0  0  0  0  0
  -10.0850   20.1102  -31.7877 H   0  0  0  0  0  0  0  0  0  0  0  0
   -8.4901   20.3161  -33.4887 H   0  0  0  0  0  0  0  0  0  0  0  0
   -8.7840   18.1860  -33.5250 H   0  0  0  0  0  0  0  0  0  0  0  0
   -8.3360   17.9200  -31.9360 H   0  0  0  0  0  0  0  0  0  0  0  0
   -6.6118   19.3429  -34.8976 H   0  0  0  0  0  0  0  0  0  0  0  0
   -4.4078   18.4951  -35.6730 H   0  0  0  0  0  0  0  0  0  0  0  0
   -2.3042   16.2052  -33.8044 H   0  0  0  0  0  0  0  0  0  0  0  0
   -3.0989   15.5422  -35.2726 H   0  0  0  0  0  0  0  0  0  0  0  0
   -2.4736   17.2262  -35.2726 H   0  0  0  0  0  0  0  0  0  0  0  0
   -4.3863   15.3094  -31.2582 H   0  0  0  0  0  0  0  0  0  0  0  0
   -4.8358   14.2366  -32.6271 H   0  0  0  0  0  0  0  0  0  0  0  0
   -3.2471   15.0750  -32.6271 H   0  0  0  0  0  0  0  0  0  0  0  0
   -6.6740   16.3482  -31.7747 H   0  0  0  0  0  0  0  0  0  0  0  0
   -6.2658   20.0586  -31.4114 H   0  0  0  0  0  0  0  0  0  0  0  0
   -6.0707   20.2729  -33.1974 H   0  0  0  0  0  0  0  0  0  0  0  0
  1  2  1  0
  2  3  1  0
  3  4  2  0
  4  5  1  0
  5  6  2  0
  6  7  1  0
  7  8  2  0
  8  9  1  0
  9 10  1  0
 10 11  1  0
 11 12  2  0
 11 13  1  0
 13 14  1  0
 14 15  1  0
 15 16  1  0
 16 17  1  0
 17 18  1  0
 18 19  1  0
 19 20  2  0
 20 21  1  0
 21 22  2  0
 22 23  1  0
 22 24  1  0
 24 25  1  0
 24 26  2  0
 17 27  1  0
  8  3  1  0
 27 13  1  0
 26 19  1  0
  1 28  1  0
  1 29  1  0
  1 30  1  0
  4 31  1  0
  5 32  1  0
  6 33  1  0
  7 34  1  0
 10 35  1  0
 10 36  1  0
 14 37  1  0
 14 38  1  0
 15 39  1  0
 15 40  1  0
 16 41  1  0
 16 42  1  0
 17 43  1  6
 18 44  1  0
 18 45  1  0
 20 46  1  0
 21 47  1  0
 23 48  1  0
 23 49  1  0
 23 50  1  0
 25 51  1  0
 25 52  1  0
 25 53  1  0
 26 54  1  0
 27 55  1  0
 27 56  1  0
M  CHG  1  18   1
M  END
>  <UniqueID>  (25) 
24

>  <SMILES>  (25) 
COc1ccccc1OCC(=O)N1CCC[C@H]([NH2+]c2ccc(C)c(C)c2)C1

>  <Energy>  (25) 
62.90491572880007

>  <Genealogy>  (25) 
COc1ccccc1OCC(=O)N1CCCC([NH2+]c2ccc(C)c(C)c2)C1 (protonated)
COc1ccccc1OCC(=O)N1CCC[C@H]([NH2+]c2ccc(C)c(C)c2)C1 (chirality)
COc1ccccc1OCC(=O)N1CCC[C@H]([NH2+]c2ccc(C)c(C)c2)C1 (3D coordinates assigned)
COc1ccccc1OCC(=O)N1CCC[C@H]([NH2+]c2ccc(C)c(C)c2)C1 (nonaromatic ring conformer: 62.90491572880007 kcal/mol)

>  <smiles>  (25) 
COc1ccccc1OCC(=O)N1CCCC(Nc2ccc(C)c(C)c2)C1

>  <score_type>  (25) 
oracle

>  <origin>  (25) 
adg

>  <m_score__min__energy>  (25) 
-9.25

>  <m_primary>  (25) 
energy

$$$$
25:0
     RDKit          3D

 62 65  0  0  0  0  0  0  0  0999 V2000
   -9.5460   19.2720  -32.7170 C   0  0  0  0  0  0  0  0  0  0  0  0
   -8.5350   18.5510  -31.8300 C   0  0  0  0  0  0  0  0  0  0  0  0
   -7.2480   19.2830  -31.8080 N   0  0  0  0  0  0  0  0  0  0  0  0
   -7.4540   20.7260  -31.5340 C   0  0  0  0  0  0  0  0  0  0  0  0
   -6.6700   21.5770  -32.5360 C   0  0  0  0  0  0  0  0  0  0  0  0
   -5.4300   22.0890  -31.9040 N   0  0  0  0  0  0  0  0  0  0  0  0
   -4.3020   22.2610  -32.8520 C   0  0  0  0  0  0  0  0  0  0  0  0
   -3.2190   21.2010  -32.7270 C   0  0  0  0  0  0  0  0  0  0  0  0
   -3.3950   19.9330  -33.3140 C   0  0  0  0  0  0  0  0  0  0  0  0
   -2.4000   18.9590  -33.2140 C   0  0  0  0  0  0  0  0  0  0  0  0
   -1.2250   19.2270  -32.5100 C   0  0  0  0  0  0  0  0  0  0  0  0
   -1.0530   20.4650  -31.8880 C   0  0  0  0  0  0  0  0  0  0  0  0
   -2.0450   21.4460  -31.9830 C   0  0  0  0  0  0  0  0  0  0  0  0
   -1.8710   22.6150  -31.3200 F   0  0  0  0  0  0  0  0  0  0  0  0
   -5.6550   23.2730  -31.0460 C   0  0  0  0  0  0  0  0  0  0  0  0
   -4.4690   23.5100  -30.1450 C   0  0  0  0  0  0  0  0  0  0  0  0
   -3.9890   22.4800  -29.3220 C   0  0  0  0  0  0  0  0  0  0  0  0
   -2.8590   22.6850  -28.5220 C   0  0  0  0  0  0  0  0  0  0  0  0
   -2.3640   21.6650  -27.6980 C   0  0  0  0  0  0  0  0  0  0  0  0
   -1.2330   21.8910  -26.9110 C   0  0  0  0  0  0  0  0  0  0  0  0
   -0.5900   23.1300  -26.9380 C   0  0  0  0  0  0  0  0  0  0  0  0
   -1.0700   24.1650  -27.7590 C   0  0  0  0  0  0  0  0  0  0  0  0
   -0.3670   25.4950  -27.7840 C   0  0  0  0  0  0  0  0  0  0  0  0
   -2.2120   23.9410  -28.5550 C   0  0  0  0  0  0  0  0  0  0  0  0
   -2.7010   24.9250  -29.3560 N   0  0  0  0  0  0  0  0  0  0  0  0
   -3.7960   24.7460  -30.1410 C   0  0  0  0  0  0  0  0  0  0  0  0
   -4.1980   25.6970  -30.8640 O   0  0  0  0  0  0  0  0  0  0  0  0
   -6.5100   19.0870  -33.0770 C   0  0  0  0  0  0  0  0  0  0  0  0
   -5.9180   17.7120  -33.1210 C   0  0  0  0  0  0  0  0  0  0  0  0
   -5.6840   16.9700  -34.2610 C   0  0  0  0  0  0  0  0  0  0  0  0
   -5.1100   15.7950  -33.8270 C   0  0  0  0  0  0  0  0  0  0  0  0
   -5.0300   15.8930  -32.4520 C   0  0  0  0  0  0  0  0  0  0  0  0
   -5.5190   17.0470  -32.0610 O   0  0  0  0  0  0  0  0  0  0  0  0
  -10.2797   19.7952  -32.0862 H   0  0  0  0  0  0  0  0  0  0  0  0
   -9.0220   20.0015  -33.3521 H   0  0  0  0  0  0  0  0  0  0  0  0
  -10.0650   18.5390  -33.3521 H   0  0  0  0  0  0  0  0  0  0  0  0
   -8.9325   18.4872  -30.8063 H   0  0  0  0  0  0  0  0  0  0  0  0
   -8.3633   17.5425  -32.2342 H   0  0  0  0  0  0  0  0  0  0  0  0
   -8.5252   20.9616  -31.6185 H   0  0  0  0  0  0  0  0  0  0  0  0
   -7.0963   20.9508  -30.5184 H   0  0  0  0  0  0  0  0  0  0  0  0
   -6.4069   20.9620  -33.4092 H   0  0  0  0  0  0  0  0  0  0  0  0
   -7.2919   22.4272  -32.8529 H   0  0  0  0  0  0  0  0  0  0  0  0
   -4.7028   22.2263  -33.8758 H   0  0  0  0  0  0  0  0  0  0  0  0
   -3.8308   23.2257  -32.6127 H   0  0  0  0  0  0  0  0  0  0  0  0
   -4.3252   19.7080  -33.8563 H   0  0  0  0  0  0  0  0  0  0  0  0
   -2.5423   17.9781  -33.6911 H   0  0  0  0  0  0  0  0  0  0  0  0
   -0.4355   18.4638  -32.4453 H   0  0  0  0  0  0  0  0  0  0  0  0
   -0.1331   20.6697  -31.3207 H   0  0  0  0  0  0  0  0  0  0  0  0
   -5.8074   24.1569  -31.6827 H   0  0  0  0  0  0  0  0  0  0  0  0
   -6.5435   23.0948  -30.4224 H   0  0  0  0  0  0  0  0  0  0  0  0
   -4.5028   21.5075  -29.3055 H   0  0  0  0  0  0  0  0  0  0  0  0
   -2.8663   20.6868  -27.6713 H   0  0  0  0  0  0  0  0  0  0  0  0
   -0.8463   21.0882  -26.2660 H   0  0  0  0  0  0  0  0  0  0  0  0
    0.2989   23.2974  -26.3121 H   0  0  0  0  0  0  0  0  0  0  0  0
   -0.1876   25.8344  -26.7531 H   0  0  0  0  0  0  0  0  0  0  0  0
    0.5943   25.3918  -28.3086 H   0  0  0  0  0  0  0  0  0  0  0  0
   -0.9937   26.2312  -28.3086 H   0  0  0  0  0  0  0  0  0  0  0  0
   -7.2015   19.2126  -33.9232 H   0  0  0  0  0  0  0  0  0  0  0  0
   -5.7010   19.8295  -33.1414 H   0  0  0  0  0  0  0  0  0  0  0  0
   -5.9087   17.2567  -35.2989 H   0  0  0  0  0  0  0  0  0  0  0  0
   -4.7819   14.9498  -34.4499 H   0  0  0  0  0  0  0  0  0  0  0  0
   -4.6188   15.1209  -31.7851 H   0  0  0  0  0  0  0  0  0  0  0  0
  1  2  1  0
  2  3  1  0
  3  4  1  0
  4  5  1  0
  5  6  1  0
  6  7  1  0
  7  8  1  0
  8  9  2  0
  9 10  1  0
 10 11  2  0
 11 12  1  0
 12 13  2  0
 13 14  1  0
  6 15  1  0
 15 16  1  0
 16 17  2  0
 17 18  1  0
 18 19  2  0
 19 20  1  0
 20 21  2  0
 21 22  1  0
 22 23  1  0
 22 24  2  0
 24 25  1  0
 25 26  1  0
 26 27  2  0
  3 28  1  0
 28 29  1  0
 29 30  2  0
 30 31  1  0
 31 32  2  0
 32 33  1  0
 13  8  1  0
 26 16  1  0
 33 29  1  0
 24 18  1  0
  1 34  1  0
  1 35  1  0
  1 36  1  0
  2 37  1  0
  2 38  1  0
  4 39  1  0
  4 40  1  0
  5 41  1  0
  5 42  1  0
  7 43  1  0
  7 44  1  0
  9 45  1  0
 10 46  1  0
 11 47  1  0
 12 48  1  0
 15 49  1  0
 15 50  1  0
 17 51  1  0
 19 52  1  0
 20 53  1  0
 21 54  1  0
 23 55  1  0
 23 56  1  0
 23 57  1  0
 28 58  1  0
 28 59  1  0
 30 60  1  0
 31 61  1  0
 32 62  1  0
M  CHG  1  25  -1
M  END
>  <UniqueID>  (26) 
25

>  <SMILES>  (26) 
CCN(CCN(Cc1ccccc1F)Cc1cc2cccc(C)c2[n-]c1=O)Cc1ccco1

>  <Energy>  (26) 
98.06164832343153

>  <Genealogy>  (26) 
CCN(CCN(Cc1ccccc1F)Cc1cc2cccc(C)c2[n-]c1=O)Cc1ccco1 (protonated)
CCN(CCN(Cc1ccccc1F)Cc1cc2cccc(C)c2[n-]c1=O)Cc1ccco1 (3D coordinates assigned)
CCN(CCN(Cc1ccccc1F)Cc1cc2cccc(C)c2[n-]c1=O)Cc1ccco1 (optimized conformer: 98.06164832343153 kcal/mol)

>  <smiles>  (26) 
CCN(CCN(Cc1ccccc1F)Cc1cc2cccc(C)c2[nH]c1=O)Cc1ccco1

>  <score_type>  (26) 
oracle

>  <origin>  (26) 
adg

>  <m_score__min__energy>  (26) 
-11.4

>  <m_primary>  (26) 
energy

$$$$
26:0
     RDKit          3D

 28 27  0  0  0  0  0  0  0  0999 V2000
   -7.8720   22.2210  -31.8200 C   0  0  0  0  0  0  0  0  0  0  0  0
   -7.2810   23.2960  -30.9120 C   0  0  0  0  0  0  0  0  0  0  0  0
   -6.1860   24.0900  -31.6370 C   0  0  0  0  0  0  0  0  0  0  0  0
   -5.7230   25.3000  -30.8180 C   0  0  0  0  0  0  0  0  0  0  0  0
   -4.2590   25.3080  -30.6990 N   0  0  0  0  0  0  0  0  0  0  0  0
   -3.7110   23.9710  -30.4210 C   0  0  0  0  0  0  0  0  0  0  0  0
   -3.7050   23.6340  -28.9180 C   0  0  0  0  0  0  0  0  0  0  0  0
   -4.5860   24.5490  -28.1780 N   0  0  0  0  0  0  0  0  0  0  0  0
   -4.1610   24.6620  -26.7800 C   0  0  0  0  0  0  0  0  0  0  0  0
   -8.3112   21.4221  -31.2045 H   0  0  0  0  0  0  0  0  0  0  0  0
   -8.6524   22.6658  -32.4549 H   0  0  0  0  0  0  0  0  0  0  0  0
   -7.0783   21.8004  -32.4549 H   0  0  0  0  0  0  0  0  0  0  0  0
   -8.0807   23.9856  -30.6039 H   0  0  0  0  0  0  0  0  0  0  0  0
   -6.8344   22.8056  -30.0345 H   0  0  0  0  0  0  0  0  0  0  0  0
   -5.3247   23.4290  -31.8136 H   0  0  0  0  0  0  0  0  0  0  0  0
   -6.6027   24.4588  -32.5859 H   0  0  0  0  0  0  0  0  0  0  0  0
   -6.0510   26.2232  -31.3182 H   0  0  0  0  0  0  0  0  0  0  0  0
   -6.1624   25.2388  -29.8114 H   0  0  0  0  0  0  0  0  0  0  0  0
   -3.8440   25.6770  -31.5880 H   0  0  0  0  0  0  0  0  0  0  0  0
   -4.3225   23.2232  -30.9473 H   0  0  0  0  0  0  0  0  0  0  0  0
   -2.6676   23.9596  -30.7691 H   0  0  0  0  0  0  0  0  0  0  0  0
   -4.0570   22.6013  -28.7779 H   0  0  0  0  0  0  0  0  0  0  0  0
   -2.6796   23.7424  -28.5348 H   0  0  0  0  0  0  0  0  0  0  0  0
   -4.5550   25.5010  -28.6140 H   0  0  0  0  0  0  0  0  0  0  0  0
   -5.5690   24.1900  -28.2010 H   0  0  0  0  0  0  0  0  0  0  0  0
   -5.0107   24.4361  -26.1190 H   0  0  0  0  0  0  0  0  0  0  0  0
   -3.3458   23.9494  -26.5858 H   0  0  0  0  0  0  0  0  0  0  0  0
   -3.8074   25.6854  -26.5858 H   0  0  0  0  0  0  0  0  0  0  0  0
  1  2  1  0
  2  3  1  0
  3  4  1  0
  4  5  1  0
  5  6  1  0
  6  7  1  0
  7  8  1  0
  8  9  1  0
  1 10  1  0
  1 11  1  0
  1 12  1  0
  2 13  1  0
  2 14  1  0
  3 15  1  0
  3 16  1  0
  4 17  1  0
  4 18  1  0
  5 19  1  0
  6 20  1  0
  6 21  1  0
  7 22  1  0
  7 23  1  0
  8 24  1  0
  8 25  1  0
  9 26  1  0
  9 27  1  0
  9 28  1  0
M  CHG  1   8   1
M  END
>  <UniqueID>  (27) 
26

>  <SMILES>  (27) 
CCCCNCC[NH2+]C

>  <Energy>  (27) 
12.997865853086735

>  <Genealogy>  (27) 
CCCCNCC[NH2+]C (protonated)
CCCCNCC[NH2+]C (3D coordinates assigned)
CCCCNCC[NH2+]C (optimized conformer: 12.997865853086735 kcal/mol)

>  <smiles>  (27) 
CCCCNCCNC

>  <score_type>  (27) 
oracle

>  <origin>  (27) 
adg

>  <m_score__min__energy>  (27) 
-4.0999999999999996

>  <m_primary>  (27) 
energy

$$$$
27:0
     RDKit          3D

 55 58  0  0  0  0  0  0  0  0999 V2000
   -9.4890   21.1280  -32.0950 C   0  0  0  0  0  0  0  0  0  0  0  0
   -8.1310   20.4190  -32.1170 C   0  0  0  0  0  0  0  0  0  0  0  0
   -7.8740   19.7440  -33.4000 N   0  0  0  0  0  0  0  0  0  0  0  0
   -6.4760   19.4180  -33.5580 C   0  0  0  0  0  0  0  0  0  0  0  0
   -6.0840   18.3720  -34.4110 C   0  0  0  0  0  0  0  0  0  0  0  0
   -4.7340   18.0690  -34.5800 C   0  0  0  0  0  0  0  0  0  0  0  0
   -3.7580   18.8050  -33.9050 C   0  0  0  0  0  0  0  0  0  0  0  0
   -4.1240   19.8580  -33.0490 C   0  0  0  0  0  0  0  0  0  0  0  0
   -3.0690   20.6310  -32.3520 C   0  0  0  0  0  0  0  0  0  0  0  0
   -1.7430   20.7730  -32.7350 C   0  0  0  0  0  0  0  0  0  0  0  0
   -1.1530   21.5720  -31.7790 C   0  0  0  0  0  0  0  0  0  0  0  0
   -2.1530   21.8710  -30.8720 C   0  0  0  0  0  0  0  0  0  0  0  0
   -2.0240   22.6690  -29.6800 N   0  0  0  0  0  0  0  0  0  0  0  0
   -1.0540   22.3290  -28.6280 C   0  0  0  0  0  0  0  0  0  0  0  0
   -1.4300   21.0260  -27.9740 C   0  0  0  0  0  0  0  0  0  0  0  0
   -2.7330   20.8370  -27.4820 C   0  0  0  0  0  0  0  0  0  0  0  0
   -3.0820   19.6410  -26.8480 C   0  0  0  0  0  0  0  0  0  0  0  0
   -2.1330   18.6270  -26.6970 C   0  0  0  0  0  0  0  0  0  0  0  0
   -0.8350   18.8050  -27.1820 C   0  0  0  0  0  0  0  0  0  0  0  0
   -0.4820   20.0000  -27.8180 C   0  0  0  0  0  0  0  0  0  0  0  0
   -2.7050   23.9350  -29.6190 C   0  0  0  0  0  0  0  0  0  0  0  0
   -2.0480   24.9750  -29.3400 O   0  0  0  0  0  0  0  0  0  0  0  0
   -4.1600   24.0360  -29.8810 C   0  0  0  0  0  0  0  0  0  0  0  0
   -5.0190   22.9620  -29.5810 C   0  0  0  0  0  0  0  0  0  0  0  0
   -6.3890   23.0570  -29.8460 C   0  0  0  0  0  0  0  0  0  0  0  0
   -6.9120   24.2190  -30.4160 C   0  0  0  0  0  0  0  0  0  0  0  0
   -6.0680   25.2870  -30.7270 C   0  0  0  0  0  0  0  0  0  0  0  0
   -4.6980   25.1970  -30.4650 C   0  0  0  0  0  0  0  0  0  0  0  0
   -3.2770   21.2970  -31.2380 O   0  0  0  0  0  0  0  0  0  0  0  0
   -5.4890   20.1580  -32.8810 C   0  0  0  0  0  0  0  0  0  0  0  0
   -9.8008   21.2908  -31.0528 H   0  0  0  0  0  0  0  0  0  0  0  0
   -9.4049   22.0973  -32.6082 H   0  0  0  0  0  0  0  0  0  0  0  0
  -10.2363   20.5050  -32.6082 H   0  0  0  0  0  0  0  0  0  0  0  0
   -7.3402   21.1639  -31.9445 H   0  0  0  0  0  0  0  0  0  0  0  0
   -8.1390   19.6518  -31.3287 H   0  0  0  0  0  0  0  0  0  0  0  0
   -8.4670   18.8840  -33.4770 H   0  0  0  0  0  0  0  0  0  0  0  0
   -8.1620   20.3840  -34.1760 H   0  0  0  0  0  0  0  0  0  0  0  0
   -6.8468   17.7893  -34.9482 H   0  0  0  0  0  0  0  0  0  0  0  0
   -4.4363   17.2470  -35.2476 H   0  0  0  0  0  0  0  0  0  0  0  0
   -2.6950   18.5589  -34.0442 H   0  0  0  0  0  0  0  0  0  0  0  0
   -1.2603   20.3365  -33.6218 H   0  0  0  0  0  0  0  0  0  0  0  0
   -0.1045   21.9029  -31.7448 H   0  0  0  0  0  0  0  0  0  0  0  0
   -0.0526   22.2360  -29.0737 H   0  0  0  0  0  0  0  0  0  0  0  0
   -1.0552   23.1247  -27.8685 H   0  0  0  0  0  0  0  0  0  0  0  0
   -3.4820   21.6344  -27.5964 H   0  0  0  0  0  0  0  0  0  0  0  0
   -4.1043   19.4983  -26.4678 H   0  0  0  0  0  0  0  0  0  0  0  0
   -2.4081   17.6873  -26.1956 H   0  0  0  0  0  0  0  0  0  0  0  0
   -0.0897   18.0047  -27.0637 H   0  0  0  0  0  0  0  0  0  0  0  0
    0.5413   20.1372  -28.1974 H   0  0  0  0  0  0  0  0  0  0  0  0
   -4.6105   22.0429  -29.1357 H   0  0  0  0  0  0  0  0  0  0  0  0
   -7.0550   22.2153  -29.6050 H   0  0  0  0  0  0  0  0  0  0  0  0
   -7.9903   24.2934  -30.6204 H   0  0  0  0  0  0  0  0  0  0  0  0
   -6.4819   26.2005  -31.1789 H   0  0  0  0  0  0  0  0  0  0  0  0
   -4.0367   26.0391  -30.7170 H   0  0  0  0  0  0  0  0  0  0  0  0
   -5.7873   20.9797  -32.2133 H   0  0  0  0  0  0  0  0  0  0  0  0
  1  2  1  0
  2  3  1  0
  3  4  1  0
  4  5  2  0
  5  6  1  0
  6  7  2  0
  7  8  1  0
  8  9  1  0
  9 10  2  0
 10 11  1  0
 11 12  2  0
 12 13  1  0
 13 14  1  0
 14 15  1  0
 15 16  2  0
 16 17  1  0
 17 18  2  0
 18 19  1  0
 19 20  2  0
 13 21  1  0
 21 22  2  0
 21 23  1  0
 23 24  2  0
 24 25  1  0
 25 26  2  0
 26 27  1  0
 27 28  2  0
 12 29  1  0
  8 30  2  0
 30  4  1  0
 29  9  1  0
 20 15  1  0
 28 23  1  0
  1 31  1  0
  1 32  1  0
  1 33  1  0
  2 34  1  0
  2 35  1  0
  3 36  1  0
  3 37  1  0
  5 38  1  0
  6 39  1  0
  7 40  1  0
 10 41  1  0
 11 42  1  0
 14 43  1  0
 14 44  1  0
 16 45  1  0
 17 46  1  0
 18 47  1  0
 19 48  1  0
 20 49  1  0
 24 50  1  0
 25 51  1  0
 26 52  1  0
 27 53  1  0
 28 54  1  0
 30 55  1  0
M  CHG  1   3   1
M  END
>  <UniqueID>  (28) 
27

>  <SMILES>  (28) 
CC[NH2+]c1cccc(-c2ccc(N(Cc3ccccc3)C(=O)c3ccccc3)o2)c1

>  <Energy>  (28) 
90.97395689518663

>  <Genealogy>  (28) 
CC[NH2+]c1cccc(-c2ccc(N(Cc3ccccc3)C(=O)c3ccccc3)o2)c1 (protonated)
CC[NH2+]c1cccc(-c2ccc(N(Cc3ccccc3)C(=O)c3ccccc3)o2)c1 (3D coordinates assigned)
CC[NH2+]c1cccc(-c2ccc(N(Cc3ccccc3)C(=O)c3ccccc3)o2)c1 (optimized conformer: 90.97395689518663 kcal/mol)

>  <smiles>  (28) 
CCNc1cccc(-c2ccc(N(Cc3ccccc3)C(=O)c3ccccc3)o2)c1

>  <score_type>  (28) 
oracle

>  <origin>  (28) 
adg

>  <m_score__min__energy>  (28) 
-10.27

>  <m_primary>  (28) 
energy

$$$$
28:0
     RDKit          3D

 55 56  0  0  0  0  0  0  0  0999 V2000
   -0.5690   24.1610  -28.9250 C   0  0  0  0  0  0  0  0  0  0  0  0
   -1.7250   23.8250  -28.8580 C   0  0  0  0  0  0  0  0  0  0  0  0
   -3.1380   23.4150  -28.7700 C   0  0  2  0  0  0  0  0  0  0  0  0
   -3.3960   22.5570  -27.5070 C   0  0  0  0  0  0  0  0  0  0  0  0
   -3.1120   21.0560  -27.7020 C   0  0  0  0  0  0  0  0  0  0  0  0
   -1.8290   20.5850  -27.0240 C   0  0  0  0  0  0  0  0  0  0  0  0
   -3.5300   22.7320  -30.0300 N   0  0  0  0  0  0  0  0  0  0  0  0
   -4.7460   23.2400  -30.7210 C   0  0  0  0  0  0  0  0  0  0  0  0
   -6.0620   22.5020  -30.3720 C   0  0  0  0  0  0  0  0  0  0  0  0
   -6.7530   22.0470  -31.5860 N   0  0  0  0  0  0  0  0  0  0  0  0
   -7.6920   22.9310  -32.2890 C   0  0  0  0  0  0  0  0  0  0  0  0
   -9.1390   22.6450  -31.8780 C   0  0  0  0  0  0  0  0  0  0  0  0
   -9.6140   21.2460  -32.2890 C   0  0  0  0  0  0  0  0  0  0  0  0
   -8.9760   20.1370  -31.4410 C   0  0  0  0  0  0  0  0  0  0  0  0
   -7.6070   19.7530  -31.9470 C   0  0  0  0  0  0  0  0  0  0  0  0
   -7.3710   18.4420  -32.3910 C   0  0  0  0  0  0  0  0  0  0  0  0
   -6.1340   18.0960  -32.9320 C   0  0  0  0  0  0  0  0  0  0  0  0
   -5.1400   19.0650  -33.0380 C   0  0  0  0  0  0  0  0  0  0  0  0
   -5.3720   20.3320  -32.6040 N   0  0  0  0  0  0  0  0  0  0  0  0
   -6.5670   20.6990  -32.0540 C   0  0  0  0  0  0  0  0  0  0  0  0
   -2.3870   22.3650  -30.8910 C   0  0  0  0  0  0  0  0  0  0  0  0
   -2.8140   22.1300  -32.2330 O   0  0  0  0  0  0  0  0  0  0  0  0
   -2.2090   21.1900  -33.0740 C   0  0  0  0  0  0  0  0  0  0  0  0
   -0.7380   20.9670  -32.9880 C   0  0  0  0  0  0  0  0  0  0  0  0
   -2.8880   20.5610  -33.9300 O   0  0  0  0  0  0  0  0  0  0  0  0
    0.4857   24.4675  -28.9861 H   0  0  0  0  0  0  0  0  0  0  0  0
   -3.7763   24.3039  -28.6587 H   0  0  0  0  0  0  0  0  0  0  0  0
   -2.7503   22.9292  -26.6979 H   0  0  0  0  0  0  0  0  0  0  0  0
   -4.4663   22.6509  -27.2711 H   0  0  0  0  0  0  0  0  0  0  0  0
   -3.9552   20.4854  -27.2857 H   0  0  0  0  0  0  0  0  0  0  0  0
   -2.9868   20.8886  -28.7820 H   0  0  0  0  0  0  0  0  0  0  0  0
   -1.9533   20.6306  -25.9320 H   0  0  0  0  0  0  0  0  0  0  0  0
   -1.6138   19.5493  -27.3256 H   0  0  0  0  0  0  0  0  0  0  0  0
   -0.9948   21.2355  -27.3256 H   0  0  0  0  0  0  0  0  0  0  0  0
   -4.8701   24.3002  -30.4552 H   0  0  0  0  0  0  0  0  0  0  0  0
   -4.5784   23.0718  -31.7951 H   0  0  0  0  0  0  0  0  0  0  0  0
   -5.8287   21.6299  -29.7435 H   0  0  0  0  0  0  0  0  0  0  0  0
   -6.7218   23.2003  -29.8362 H   0  0  0  0  0  0  0  0  0  0  0  0
   -7.4504   23.9763  -32.0460 H   0  0  0  0  0  0  0  0  0  0  0  0
   -7.5959   22.7505  -33.3698 H   0  0  0  0  0  0  0  0  0  0  0  0
   -9.2168   22.7342  -30.7844 H   0  0  0  0  0  0  0  0  0  0  0  0
   -9.7783   23.3747  -32.3964 H   0  0  0  0  0  0  0  0  0  0  0  0
  -10.7066   21.1956  -32.1717 H   0  0  0  0  0  0  0  0  0  0  0  0
   -9.3120   21.0837  -33.3342 H   0  0  0  0  0  0  0  0  0  0  0  0
   -8.8843   20.4917  -30.4038 H   0  0  0  0  0  0  0  0  0  0  0  0
   -9.6219   19.2487  -31.5030 H   0  0  0  0  0  0  0  0  0  0  0  0
   -8.1653   17.6852  -32.3116 H   0  0  0  0  0  0  0  0  0  0  0  0
   -5.9449   17.0671  -33.2720 H   0  0  0  0  0  0  0  0  0  0  0  0
   -4.1643   18.8046  -33.4741 H   0  0  0  0  0  0  0  0  0  0  0  0
   -4.6000   21.0270  -32.6860 H   0  0  0  0  0  0  0  0  0  0  0  0
   -1.6538   23.1850  -30.8849 H   0  0  0  0  0  0  0  0  0  0  0  0
   -1.9348   21.4418  -30.4996 H   0  0  0  0  0  0  0  0  0  0  0  0
   -0.4353   20.9211  -31.9315 H   0  0  0  0  0  0  0  0  0  0  0  0
   -0.4811   20.0196  -33.4845 H   0  0  0  0  0  0  0  0  0  0  0  0
   -0.2119   21.7956  -33.4845 H   0  0  0  0  0  0  0  0  0  0  0  0
  1  2  3  0
  2  3  1  0
  3  4  1  0
  4  5  1  0
  5  6  1  0
  3  7  1  0
  7  8  1  0
  8  9  1  0
  9 10  1  0
 10 11  1  0
 11 12  1  0
 12 13  1  0
 13 14  1  0
 14 15  1  0
 15 16  2  0
 16 17  1  0
 17 18  2  0
 18 19  1  0
 19 20  2  0
  7 21  1  0
 21 22  1  0
 22 23  1  0
 23 24  1  0
 23 25  2  0
 20 10  1  0
 20 15  1  0
  1 26  1  0
  3 27  1  1
  4 28  1  0
  4 29  1  0
  5 30  1  0
  5 31  1  0
  6 32  1  0
  6 33  1  0
  6 34  1  0
  8 35  1  0
  8 36  1  0
  9 37  1  0
  9 38  1  0
 11 39  1  0
 11 40  1  0
 12 41  1  0
 12 42  1  0
 13 43  1  0
 13 44  1  0
 14 45  1  0
 14 46  1  0
 16 47  1  0
 17 48  1  0
 18 49  1  0
 19 50  1  0
 21 51  1  0
 21 52  1  0
 24 53  1  0
 24 54  1  0
 24 55  1  0
M  CHG  1  19   1
M  END
>  <UniqueID>  (29) 
28

>  <SMILES>  (29) 
C#C[C@H](CCC)N(CCN1CCCCc2ccc[nH+]c21)COC(C)=O

>  <Energy>  (29) 
56.85996171864939

>  <Genealogy>  (29) 
C#CC(CCC)N(CCN1CCCCc2ccc[nH+]c21)COC(C)=O (protonated)
C#C[C@H](CCC)N(CCN1CCCCc2ccc[nH+]c21)COC(C)=O (chirality)
C#C[C@H](CCC)N(CCN1CCCCc2ccc[nH+]c21)COC(C)=O (3D coordinates assigned)
C#C[C@H](CCC)N(CCN1CCCCc2ccc[nH+]c21)COC(C)=O (nonaromatic ring conformer: 56.85996171864939 kcal/mol)

>  <smiles>  (29) 
C#CC(CCC)N(CCN1CCCCc2cccnc21)COC(C)=O

>  <score_type>  (29) 
oracle

>  <origin>  (29) 
adg

>  <m_score__min__energy>  (29) 
-4.96

>  <m_primary>  (29) 
energy

$$$$
29:0
     RDKit          3D

 65 69  0  0  0  0  0  0  0  0999 V2000
    0.8280   16.5590  -27.4670 C   0  0  0  0  0  0  0  0  0  0  0  0
    1.0520   17.7150  -28.2690 O   0  0  0  0  0  0  0  0  0  0  0  0
    0.2660   18.8770  -28.2220 C   0  0  0  0  0  0  0  0  0  0  0  0
   -1.0040   18.7980  -27.6480 C   0  0  0  0  0  0  0  0  0  0  0  0
   -1.8300   19.9240  -27.5820 C   0  0  0  0  0  0  0  0  0  0  0  0
   -1.4060   21.1720  -28.0970 C   0  0  0  0  0  0  0  0  0  0  0  0
   -2.2720   22.3510  -28.0410 N   0  0  0  0  0  0  0  0  0  0  0  0
   -3.7310   22.1550  -27.9230 C   0  0  0  0  0  0  0  0  0  0  0  0
   -4.5150   23.4460  -27.6900 C   0  0  0  0  0  0  0  0  0  0  0  0
   -4.0330   24.5490  -28.5290 N   0  0  0  0  0  0  0  0  0  0  0  0
   -4.2300   24.2880  -29.9460 C   0  0  0  0  0  0  0  0  0  0  0  0
   -3.6640   24.9670  -30.7940 O   0  0  0  0  0  0  0  0  0  0  0  0
   -5.1100   23.1380  -30.3920 C   0  0  1  0  0  0  0  0  0  0  0  0
   -6.4010   23.6600  -31.0290 C   0  0  0  0  0  0  0  0  0  0  0  0
   -7.2640   22.5130  -31.4770 C   0  0  0  0  0  0  0  0  0  0  0  0
   -8.6580   22.6730  -31.5240 C   0  0  0  0  0  0  0  0  0  0  0  0
   -9.4740   21.6260  -31.9470 C   0  0  0  0  0  0  0  0  0  0  0  0
   -8.9080   20.4110  -32.3280 C   0  0  0  0  0  0  0  0  0  0  0  0
   -7.5220   20.2430  -32.3040 C   0  0  0  0  0  0  0  0  0  0  0  0
   -6.6760   21.2960  -31.8970 C   0  0  0  0  0  0  0  0  0  0  0  0
   -5.2300   21.1480  -31.8800 N   0  0  0  0  0  0  0  0  0  0  0  0
   -4.4400   19.8500  -32.7380 S   0  0  0  0  0  0  0  0  0  0  0  0
   -5.0660   19.7120  -34.0980 O   0  0  0  0  0  0  0  0  0  0  0  0
   -4.6110   18.5560  -31.9930 O   0  0  0  0  0  0  0  0  0  0  0  0
   -2.7150   20.1770  -32.8800 C   0  0  0  0  0  0  0  0  0  0  0  0
   -2.1470   20.4270  -34.1370 C   0  0  0  0  0  0  0  0  0  0  0  0
   -0.7770   20.6810  -34.2520 C   0  0  0  0  0  0  0  0  0  0  0  0
    0.0300   20.6970  -33.1100 C   0  0  0  0  0  0  0  0  0  0  0  0
   -0.5340   20.4600  -31.8520 C   0  0  0  0  0  0  0  0  0  0  0  0
   -1.9030   20.2010  -31.7360 C   0  0  0  0  0  0  0  0  0  0  0  0
   -4.3680   22.2300  -31.3830 C   0  0  0  0  0  0  0  0  0  0  0  0
   -2.6460   24.8850  -28.1680 C   0  0  0  0  0  0  0  0  0  0  0  0
   -1.6680   23.6910  -28.2250 C   0  0  0  0  0  0  0  0  0  0  0  0
   -0.1110   21.2380  -28.6650 C   0  0  0  0  0  0  0  0  0  0  0  0
    0.7090   20.1090  -28.7290 C   0  0  0  0  0  0  0  0  0  0  0  0
    0.8814   16.8346  -26.4034 H   0  0  0  0  0  0  0  0  0  0  0  0
   -0.1669   16.1458  -27.6892 H   0  0  0  0  0  0  0  0  0  0  0  0
    1.5966   15.8040  -27.6892 H   0  0  0  0  0  0  0  0  0  0  0  0
   -1.3589   17.8388  -27.2430 H   0  0  0  0  0  0  0  0  0  0  0  0
   -2.8257   19.8385  -27.1223 H   0  0  0  0  0  0  0  0  0  0  0  0
   -4.0942   21.6928  -28.8528 H   0  0  0  0  0  0  0  0  0  0  0  0
   -3.8962   21.5188  -27.0410 H   0  0  0  0  0  0  0  0  0  0  0  0
   -5.5748   23.2629  -27.9209 H   0  0  0  0  0  0  0  0  0  0  0  0
   -4.3777   23.7381  -26.6384 H   0  0  0  0  0  0  0  0  0  0  0  0
   -4.6090   25.3910  -28.2860 H   0  0  0  0  0  0  0  0  0  0  0  0
   -5.3669   22.5471  -29.5005 H   0  0  0  0  0  0  0  0  0  0  0  0
   -6.9519   24.2618  -30.2912 H   0  0  0  0  0  0  0  0  0  0  0  0
   -6.1443   24.2767  -31.9030 H   0  0  0  0  0  0  0  0  0  0  0  0
   -9.1087   23.6309  -31.2250 H   0  0  0  0  0  0  0  0  0  0  0  0
  -10.5655   21.7585  -31.9802 H   0  0  0  0  0  0  0  0  0  0  0  0
   -9.5552   19.5814  -32.6487 H   0  0  0  0  0  0  0  0  0  0  0  0
   -7.0852   19.2795  -32.6056 H   0  0  0  0  0  0  0  0  0  0  0  0
   -2.7812   20.4233  -35.0357 H   0  0  0  0  0  0  0  0  0  0  0  0
   -0.3337   20.8683  -35.2411 H   0  0  0  0  0  0  0  0  0  0  0  0
    1.1080   20.8959  -33.2009 H   0  0  0  0  0  0  0  0  0  0  0  0
    0.1001   20.4774  -30.9533 H   0  0  0  0  0  0  0  0  0  0  0  0
   -2.3445   20.0156  -30.7457 H   0  0  0  0  0  0  0  0  0  0  0  0
   -3.4967   21.7879  -30.8777 H   0  0  0  0  0  0  0  0  0  0  0  0
   -4.0569   22.8424  -32.2422 H   0  0  0  0  0  0  0  0  0  0  0  0
   -2.2867   25.6582  -28.8630 H   0  0  0  0  0  0  0  0  0  0  0  0
   -2.6662   25.2263  -27.1225 H   0  0  0  0  0  0  0  0  0  0  0  0
   -1.1744   23.7062  -29.2079 H   0  0  0  0  0  0  0  0  0  0  0  0
   -0.9817   23.8274  -27.3763 H   0  0  0  0  0  0  0  0  0  0  0  0
    0.2561   22.1955  -29.0631 H   0  0  0  0  0  0  0  0  0  0  0  0
    1.7093   20.1858  -29.1800 H   0  0  0  0  0  0  0  0  0  0  0  0
  1  2  1  0
  2  3  1  0
  3  4  2  0
  4  5  1  0
  5  6  2  0
  6  7  1  0
  7  8  1  0
  8  9  1  0
  9 10  1  0
 10 11  1  0
 11 12  2  0
 11 13  1  0
 13 14  1  0
 14 15  1  0
 15 16  2  0
 16 17  1  0
 17 18  2  0
 18 19  1  0
 19 20  2  0
 20 21  1  0
 21 22  1  0
 22 23  2  0
 22 24  2  0
 22 25  1  0
 25 26  2  0
 26 27  1  0
 27 28  2  0
 28 29  1  0
 29 30  2  0
 21 31  1  0
 10 32  1  0
 32 33  1  0
  6 34  1  0
 34 35  2  0
 35  3  1  0
 33  7  1  0
 31 13  1  0
 20 15  1  0
 30 25  1  0
  1 36  1  0
  1 37  1  0
  1 38  1  0
  4 39  1  0
  5 40  1  0
  8 41  1  0
  8 42  1  0
  9 43  1  0
  9 44  1  0
 10 45  1  0
 13 46  1  1
 14 47  1  0
 14 48  1  0
 16 49  1  0
 17 50  1  0
 18 51  1  0
 19 52  1  0
 26 53  1  0
 27 54  1  0
 28 55  1  0
 29 56  1  0
 30 57  1  0
 31 58  1  0
 31 59  1  0
 32 60  1  0
 32 61  1  0
 33 62  1  0
 33 63  1  0
 34 64  1  0
 35 65  1  0
M  CHG  1  10   1
M  END
>  <UniqueID>  (30) 
29

>  <SMILES>  (30) 
COc1ccc(N2CC[NH+](C(=O)[C@H]3Cc4ccccc4N(S(=O)(=O)c4ccccc4)C3)CC2)cc1

>  <Energy>  (30) 
84.86751532262093

>  <Genealogy>  (30) 
COc1ccc(N2CC[NH+](C(=O)C3Cc4ccccc4N(S(=O)(=O)c4ccccc4)C3)CC2)cc1 (protonated)
COc1ccc(N2CC[NH+](C(=O)[C@H]3Cc4ccccc4N(S(=O)(=O)c4ccccc4)C3)CC2)cc1 (chirality)
COc1ccc(N2CC[NH+](C(=O)[C@H]3Cc4ccccc4N(S(=O)(=O)c4ccccc4)C3)CC2)cc1 (3D coordinates assigned)
COc1ccc(N2CC[NH+](C(=O)[C@H]3Cc4ccccc4N(S(=O)(=O)c4ccccc4)C3)CC2)cc1 (nonaromatic ring conformer: 84.86751532262093 kcal/mol)

>  <smiles>  (30) 
COc1ccc(N2CCN(C(=O)C3Cc4ccccc4N(S(=O)(=O)c4ccccc4)C3)CC2)cc1

>  <score_type>  (30) 
oracle

>  <origin>  (30) 
adg

>  <m_score__min__energy>  (30) 
-9.9900000000000002

>  <m_primary>  (30) 
energy

$$$$
30:0
     RDKit          3D

 36 38  0  0  0  0  0  0  0  0999 V2000
   -0.2340   28.0250  -24.4700 C   0  0  0  0  0  0  0  0  0  0  0  0
   -0.5730   26.8320  -23.5720 C   0  0  0  0  0  0  0  0  0  0  0  0
    0.3850   25.7180  -23.7180 N   0  0  0  0  0  0  0  0  0  0  0  0
    0.9720   25.6030  -25.0670 C   0  0  0  0  0  0  0  0  0  0  0  0
   -0.0450   25.1780  -26.0990 C   0  0  0  0  0  0  0  0  0  0  0  0
   -0.2380   25.9430  -27.2580 C   0  0  0  0  0  0  0  0  0  0  0  0
   -1.1650   25.5420  -28.2240 C   0  0  0  0  0  0  0  0  0  0  0  0
   -1.9160   24.3660  -28.0490 C   0  0  0  0  0  0  0  0  0  0  0  0
   -2.9000   23.9300  -29.0670 C   0  0  0  0  0  0  0  0  0  0  0  0
   -3.9690   24.6820  -29.4350 N   0  0  0  0  0  0  0  0  0  0  0  0
   -4.7130   24.0570  -30.3840 C   0  0  0  0  0  0  0  0  0  0  0  0
   -5.8720   24.5880  -30.9540 C   0  0  0  0  0  0  0  0  0  0  0  0
   -6.5500   23.8350  -31.9280 C   0  0  0  0  0  0  0  0  0  0  0  0
   -6.0650   22.5710  -32.3190 C   0  0  0  0  0  0  0  0  0  0  0  0
   -4.8980   22.0470  -31.7380 C   0  0  0  0  0  0  0  0  0  0  0  0
   -4.2470   22.8140  -30.7750 C   0  0  0  0  0  0  0  0  0  0  0  0
   -2.8510   22.4590  -29.9160 S   0  0  0  0  0  0  0  0  0  0  0  0
   -1.7170   23.6010  -26.8860 C   0  0  0  0  0  0  0  0  0  0  0  0
   -0.7910   24.0030  -25.9200 C   0  0  0  0  0  0  0  0  0  0  0  0
    0.0134   28.8957  -23.8450 H   0  0  0  0  0  0  0  0  0  0  0  0
    0.6280   27.7727  -25.1050 H   0  0  0  0  0  0  0  0  0  0  0  0
   -1.0999   28.2636  -25.1050 H   0  0  0  0  0  0  0  0  0  0  0  0
   -0.5660   27.1671  -22.5243 H   0  0  0  0  0  0  0  0  0  0  0  0
   -1.5633   26.4601  -23.8737 H   0  0  0  0  0  0  0  0  0  0  0  0
    1.1590   25.8370  -23.0240 H   0  0  0  0  0  0  0  0  0  0  0  0
   -0.1060   24.8240  -23.4810 H   0  0  0  0  0  0  0  0  0  0  0  0
    1.3844   26.5804  -25.3580 H   0  0  0  0  0  0  0  0  0  0  0  0
    1.7558   24.8321  -25.0289 H   0  0  0  0  0  0  0  0  0  0  0  0
    0.3438   26.8645  -27.4079 H   0  0  0  0  0  0  0  0  0  0  0  0
   -1.3083   26.1512  -29.1286 H   0  0  0  0  0  0  0  0  0  0  0  0
   -6.2467   25.5756  -30.6469 H   0  0  0  0  0  0  0  0  0  0  0  0
   -7.4655   24.2351  -32.3882 H   0  0  0  0  0  0  0  0  0  0  0  0
   -6.6031   21.9913  -33.0834 H   0  0  0  0  0  0  0  0  0  0  0  0
   -4.5104   21.0612  -32.0347 H   0  0  0  0  0  0  0  0  0  0  0  0
   -2.2956   22.6777  -26.7354 H   0  0  0  0  0  0  0  0  0  0  0  0
   -0.6460   23.3954  -25.0146 H   0  0  0  0  0  0  0  0  0  0  0  0
  1  2  1  0
  2  3  1  0
  3  4  1  0
  4  5  1  0
  5  6  2  0
  6  7  1  0
  7  8  2  0
  8  9  1  0
  9 10  2  0
 10 11  1  0
 11 12  2  0
 12 13  1  0
 13 14  2  0
 14 15  1  0
 15 16  2  0
 16 17  1  0
  8 18  1  0
 18 19  2  0
 19  5  1  0
 17  9  1  0
 16 11  1  0
  1 20  1  0
  1 21  1  0
  1 22  1  0
  2 23  1  0
  2 24  1  0
  3 25  1  0
  3 26  1  0
  4 27  1  0
  4 28  1  0
  6 29  1  0
  7 30  1  0
 12 31  1  0
 13 32  1  0
 14 33  1  0
 15 34  1  0
 18 35  1  0
 19 36  1  0
M  CHG  1   3   1
M  END
>  <UniqueID>  (31) 
30

>  <SMILES>  (31) 
CC[NH2+]Cc1ccc(-c2nc3ccccc3s2)cc1

>  <Energy>  (31) 
72.30266668429823

>  <Genealogy>  (31) 
CC[NH2+]Cc1ccc(-c2nc3ccccc3s2)cc1 (protonated)
CC[NH2+]Cc1ccc(-c2nc3ccccc3s2)cc1 (3D coordinates assigned)
CC[NH2+]Cc1ccc(-c2nc3ccccc3s2)cc1 (optimized conformer: 72.30266668429823 kcal/mol)

>  <smiles>  (31) 
CCNCc1ccc(-c2nc3ccccc3s2)cc1

>  <score_type>  (31) 
oracle

>  <origin>  (31) 
adg

>  <m_score__min__energy>  (31) 
-6.9000000000000004

>  <m_primary>  (31) 
energy

$$$$
31:0
     RDKit          3D

 42 44  0  0  0  0  0  0  0  0999 V2000
   -9.1620   19.7280  -32.6580 C   0  0  0  0  0  0  0  0  0  0  0  0
   -8.5540   20.2430  -31.3610 C   0  0  0  0  0  0  0  0  0  0  0  0
   -9.1290   21.5430  -31.0330 N   0  0  0  0  0  0  0  0  0  0  0  0
   -8.7070   22.7860  -31.6070 C   0  0  0  0  0  0  0  0  0  0  0  0
   -9.5040   23.4090  -32.3570 O   0  0  0  0  0  0  0  0  0  0  0  0
   -7.3770   23.3630  -31.3310 C   0  0  0  0  0  0  0  0  0  0  0  0
   -7.2260   24.3400  -30.3340 C   0  0  0  0  0  0  0  0  0  0  0  0
   -5.9640   24.8720  -30.0520 C   0  0  0  0  0  0  0  0  0  0  0  0
   -4.8400   24.4450  -30.7700 C   0  0  0  0  0  0  0  0  0  0  0  0
   -3.5620   25.0180  -30.4690 N   0  0  0  0  0  0  0  0  0  0  0  0
   -2.6340   24.5590  -29.4730 C   0  0  0  0  0  0  0  0  0  0  0  0
   -1.8990   25.4030  -28.8980 O   0  0  0  0  0  0  0  0  0  0  0  0
   -2.4170   23.0980  -29.1880 C   0  0  0  0  0  0  0  0  0  0  0  0
   -0.8900   22.4980  -29.9880 S   0  0  0  0  0  0  0  0  0  0  0  0
   -1.7450   21.4840  -31.2000 C   0  0  0  0  0  0  0  0  0  0  0  0
   -3.0070   21.0520  -30.9410 N   0  0  0  0  0  0  0  0  0  0  0  0
   -3.6990   20.3120  -31.8460 C   0  0  0  0  0  0  0  0  0  0  0  0
   -5.0060   19.8960  -31.5770 C   0  0  0  0  0  0  0  0  0  0  0  0
   -5.7150   19.1650  -32.5360 C   0  0  0  0  0  0  0  0  0  0  0  0
   -5.1140   18.8390  -33.7580 C   0  0  0  0  0  0  0  0  0  0  0  0
   -3.8050   19.2460  -34.0280 C   0  0  0  0  0  0  0  0  0  0  0  0
   -3.0940   19.9820  -33.0750 C   0  0  0  0  0  0  0  0  0  0  0  0
   -1.8280   20.4030  -33.3280 N   0  0  0  0  0  0  0  0  0  0  0  0
   -1.1390   21.1450  -32.4210 C   0  0  0  0  0  0  0  0  0  0  0  0
    0.0320   21.5280  -32.6880 O   0  0  0  0  0  0  0  0  0  0  0  0
   -4.9790   23.4130  -31.7130 C   0  0  0  0  0  0  0  0  0  0  0  0
   -6.2380   22.8830  -31.9980 C   0  0  0  0  0  0  0  0  0  0  0  0
   -9.9827   19.0328  -32.4276 H   0  0  0  0  0  0  0  0  0  0  0  0
   -9.5518   20.5749  -33.2419 H   0  0  0  0  0  0  0  0  0  0  0  0
   -8.3908   19.2042  -33.2419 H   0  0  0  0  0  0  0  0  0  0  0  0
   -8.7682   19.5326  -30.5489 H   0  0  0  0  0  0  0  0  0  0  0  0
   -7.4656   20.3454  -31.4833 H   0  0  0  0  0  0  0  0  0  0  0  0
   -8.1049   24.6887  -29.7719 H   0  0  0  0  0  0  0  0  0  0  0  0
   -5.8535   25.6297  -29.2623 H   0  0  0  0  0  0  0  0  0  0  0  0
   -2.3355   22.9514  -28.1009 H   0  0  0  0  0  0  0  0  0  0  0  0
   -3.2700   22.5312  -29.5893 H   0  0  0  0  0  0  0  0  0  0  0  0
   -5.4759   20.1428  -30.6135 H   0  0  0  0  0  0  0  0  0  0  0  0
   -6.7472   18.8455  -32.3297 H   0  0  0  0  0  0  0  0  0  0  0  0
   -5.6741   18.2608  -34.5076 H   0  0  0  0  0  0  0  0  0  0  0  0
   -3.3346   18.9880  -34.9883 H   0  0  0  0  0  0  0  0  0  0  0  0
   -4.0906   23.0206  -32.2295 H   0  0  0  0  0  0  0  0  0  0  0  0
   -6.3389   22.0854  -32.7487 H   0  0  0  0  0  0  0  0  0  0  0  0
  1  2  1  0
  2  3  1  0
  3  4  1  0
  4  5  2  0
  4  6  1  0
  6  7  2  0
  7  8  1  0
  8  9  2  0
  9 10  1  0
 10 11  1  0
 11 12  2  0
 11 13  1  0
 13 14  1  0
 14 15  1  0
 15 16  2  0
 16 17  1  0
 17 18  2  0
 18 19  1  0
 19 20  2  0
 20 21  1  0
 21 22  2  0
 22 23  1  0
 23 24  1  0
 24 25  2  0
  9 26  1  0
 26 27  2  0
 27  6  1  0
 24 15  1  0
 22 17  1  0
  1 28  1  0
  1 29  1  0
  1 30  1  0
  2 31  1  0
  2 32  1  0
  7 33  1  0
  8 34  1  0
 13 35  1  0
 13 36  1  0
 18 37  1  0
 19 38  1  0
 20 39  1  0
 21 40  1  0
 26 41  1  0
 27 42  1  0
M  CHG  3   3  -1  10  -1  23  -1
M  END
>  <UniqueID>  (32) 
31

>  <SMILES>  (32) 
CC[N-]C(=O)c1ccc([N-]C(=O)CSc2nc3ccccc3[n-]c2=O)cc1

>  <Energy>  (32) 
45.891300543557925

>  <Genealogy>  (32) 
CC[N-]C(=O)c1ccc([N-]C(=O)CSc2nc3ccccc3[n-]c2=O)cc1 (protonated)
CC[N-]C(=O)c1ccc([N-]C(=O)CSc2nc3ccccc3[n-]c2=O)cc1 (3D coordinates assigned)
CC[N-]C(=O)c1ccc([N-]C(=O)CSc2nc3ccccc3[n-]c2=O)cc1 (optimized conformer: 45.891300543557925 kcal/mol)

>  <smiles>  (32) 
CCNC(=O)c1ccc(NC(=O)CSc2nc3ccccc3[nH]c2=O)cc1

>  <score_type>  (32) 
oracle

>  <origin>  (32) 
adg

>  <m_score__min__energy>  (32) 
-10.83

>  <m_primary>  (32) 
energy

$$$$
32:0
     RDKit          3D

 35 37  0  0  0  0  0  0  0  0999 V2000
   -2.4750   23.6860  -29.3200 C   0  0  0  0  0  0  0  0  0  0  0  0
   -2.4650   22.5600  -30.0380 C   0  0  0  0  0  0  0  0  0  0  0  0
   -2.7610   22.5600  -31.5110 C   0  0  0  0  0  0  0  0  0  0  0  0
   -4.1510   22.1370  -31.7550 N   0  0  0  0  0  0  0  0  0  0  0  0
   -4.3720   20.8710  -32.1330 N   0  0  0  0  0  0  0  0  0  0  0  0
   -5.6220   20.3840  -32.3720 C   0  0  0  0  0  0  0  0  0  0  0  0
   -5.7570   18.9830  -32.8310 C   0  0  0  0  0  0  0  0  0  0  0  0
   -5.9560   17.9440  -31.9070 C   0  0  0  0  0  0  0  0  0  0  0  0
   -6.1120   16.6270  -32.3510 C   0  0  0  0  0  0  0  0  0  0  0  0
   -6.0840   16.3420  -33.7180 C   0  0  0  0  0  0  0  0  0  0  0  0
   -5.9050   17.3730  -34.6450 C   0  0  0  0  0  0  0  0  0  0  0  0
   -5.7480   18.6920  -34.2040 C   0  0  0  0  0  0  0  0  0  0  0  0
   -6.7380   21.2260  -32.1780 C   0  0  0  0  0  0  0  0  0  0  0  0
   -8.0650   20.7710  -32.3390 C   0  0  0  0  0  0  0  0  0  0  0  0
   -9.1400   21.6380  -32.1410 C   0  0  0  0  0  0  0  0  0  0  0  0
   -8.9150   22.9620  -31.7700 C   0  0  0  0  0  0  0  0  0  0  0  0
   -7.6120   23.4250  -31.5840 C   0  0  0  0  0  0  0  0  0  0  0  0
   -6.5140   22.5630  -31.7780 C   0  0  0  0  0  0  0  0  0  0  0  0
   -5.1970   23.0030  -31.5690 C   0  0  0  0  0  0  0  0  0  0  0  0
   -4.9820   24.1940  -31.2050 O   0  0  0  0  0  0  0  0  0  0  0  0
   -2.2541   23.6535  -28.2429 H   0  0  0  0  0  0  0  0  0  0  0  0
   -2.7041   24.6460  -29.8057 H   0  0  0  0  0  0  0  0  0  0  0  0
   -2.2341   21.6078  -29.5380 H   0  0  0  0  0  0  0  0  0  0  0  0
   -2.6155   23.5747  -31.9100 H   0  0  0  0  0  0  0  0  0  0  0  0
   -2.0804   21.8559  -32.0120 H   0  0  0  0  0  0  0  0  0  0  0  0
   -3.5550   20.2300  -32.2690 H   0  0  0  0  0  0  0  0  0  0  0  0
   -5.9893   18.1670  -30.8303 H   0  0  0  0  0  0  0  0  0  0  0  0
   -6.2568   15.8151  -31.6231 H   0  0  0  0  0  0  0  0  0  0  0  0
   -6.2029   15.3052  -34.0656 H   0  0  0  0  0  0  0  0  0  0  0  0
   -5.8875   17.1475  -35.7215 H   0  0  0  0  0  0  0  0  0  0  0  0
   -5.6172   19.5029  -34.9356 H   0  0  0  0  0  0  0  0  0  0  0  0
   -8.2526   19.7249  -32.6227 H   0  0  0  0  0  0  0  0  0  0  0  0
  -10.1692   21.2749  -32.2783 H   0  0  0  0  0  0  0  0  0  0  0  0
   -9.7660   23.6434  -31.6235 H   0  0  0  0  0  0  0  0  0  0  0  0
   -7.4407   24.4694  -31.2841 H   0  0  0  0  0  0  0  0  0  0  0  0
  1  2  2  0
  2  3  1  0
  3  4  1  0
  4  5  1  0
  5  6  2  0
  6  7  1  0
  7  8  2  0
  8  9  1  0
  9 10  2  0
 10 11  1  0
 11 12  2  0
  6 13  1  0
 13 14  2  0
 14 15  1  0
 15 16  2  0
 16 17  1  0
 17 18  2  0
 18 19  1  0
 19 20  2  0
 19  4  1  0
 12  7  1  0
 18 13  1  0
  1 21  1  0
  1 22  1  0
  2 23  1  0
  3 24  1  0
  3 25  1  0
  5 26  1  0
  8 27  1  0
  9 28  1  0
 10 29  1  0
 11 30  1  0
 12 31  1  0
 14 32  1  0
 15 33  1  0
 16 34  1  0
 17 35  1  0
M  CHG  1   5   1
M  END
>  <UniqueID>  (33) 
32

>  <SMILES>  (33) 
C=CCn1[nH+]c(-c2ccccc2)c2ccccc2c1=O

>  <Energy>  (33) 
49.6820188978578

>  <Genealogy>  (33) 
C=CCn1[nH+]c(-c2ccccc2)c2ccccc2c1=O (protonated)
C=CCn1[nH+]c(-c2ccccc2)c2ccccc2c1=O (3D coordinates assigned)
C=CCn1[nH+]c(-c2ccccc2)c2ccccc2c1=O (optimized conformer: 49.6820188978578 kcal/mol)

>  <smiles>  (33) 
C=CCn1nc(-c2ccccc2)c2ccccc2c1=O

>  <score_type>  (33) 
oracle

>  <origin>  (33) 
adg

>  <m_score__min__energy>  (33) 
-7.1500000000000004

>  <m_primary>  (33) 
energy

$$$$
33:0
     RDKit          3D

 42 43  0  0  0  0  0  0  0  0999 V2000
   -6.1730   24.4330  -30.5220 C   0  0  0  0  0  0  0  0  0  0  0  0
   -5.2900   25.6740  -30.4650 C   0  0  0  0  0  0  0  0  0  0  0  0
   -3.9110   25.3140  -30.4980 O   0  0  0  0  0  0  0  0  0  0  0  0
   -3.4320   24.0640  -30.0890 C   0  0  0  0  0  0  0  0  0  0  0  0
   -3.0530   23.2090  -30.9350 O   0  0  0  0  0  0  0  0  0  0  0  0
   -3.3860   23.7330  -28.6300 C   0  0  0  0  0  0  0  0  0  0  0  0
   -2.0280   23.3190  -28.2360 N   0  0  0  0  0  0  0  0  0  0  0  0
   -1.9900   22.3940  -27.0830 C   0  0  0  0  0  0  0  0  0  0  0  0
   -1.3630   21.0470  -27.3780 C   0  0  0  0  0  0  0  0  0  0  0  0
   -1.8510   19.8730  -26.7750 C   0  0  0  0  0  0  0  0  0  0  0  0
   -1.2710   18.6340  -27.0670 C   0  0  0  0  0  0  0  0  0  0  0  0
   -0.2210   18.5510  -27.9850 C   0  0  0  0  0  0  0  0  0  0  0  0
    0.2410   19.7040  -28.6220 C   0  0  0  0  0  0  0  0  0  0  0  0
   -0.3290   20.9460  -28.3260 C   0  0  0  0  0  0  0  0  0  0  0  0
   -0.8940   24.6550  -28.1160 S   0  0  0  0  0  0  0  0  0  0  0  0
   -1.2740   25.7120  -29.1150 O   0  0  0  0  0  0  0  0  0  0  0  0
    0.4810   24.1630  -28.4770 O   0  0  0  0  0  0  0  0  0  0  0  0
   -0.8390   25.4070  -26.5140 C   0  0  0  0  0  0  0  0  0  0  0  0
   -0.4970   24.6460  -25.3860 C   0  0  0  0  0  0  0  0  0  0  0  0
   -0.4550   25.2370  -24.1200 C   0  0  0  0  0  0  0  0  0  0  0  0
   -0.7770   26.5880  -23.9670 C   0  0  0  0  0  0  0  0  0  0  0  0
   -0.7340   27.1610  -22.7390 F   0  0  0  0  0  0  0  0  0  0  0  0
   -1.1630   27.3420  -25.0790 C   0  0  0  0  0  0  0  0  0  0  0  0
   -1.2100   26.7510  -26.3440 C   0  0  0  0  0  0  0  0  0  0  0  0
   -6.4079   24.1029  -29.4993 H   0  0  0  0  0  0  0  0  0  0  0  0
   -7.1060   24.6709  -31.0539 H   0  0  0  0  0  0  0  0  0  0  0  0
   -5.6424   23.6296  -31.0539 H   0  0  0  0  0  0  0  0  0  0  0  0
   -5.5158   26.3176  -31.3280 H   0  0  0  0  0  0  0  0  0  0  0  0
   -5.4931   26.2093  -29.5257 H   0  0  0  0  0  0  0  0  0  0  0  0
   -3.6767   24.6203  -28.0484 H   0  0  0  0  0  0  0  0  0  0  0  0
   -4.0815   22.9042  -28.4317 H   0  0  0  0  0  0  0  0  0  0  0  0
   -1.4132   22.8724  -26.2778 H   0  0  0  0  0  0  0  0  0  0  0  0
   -3.0361   22.1977  -26.8051 H   0  0  0  0  0  0  0  0  0  0  0  0
   -2.6934   19.9299  -26.0699 H   0  0  0  0  0  0  0  0  0  0  0  0
   -1.6421   17.7238  -26.5732 H   0  0  0  0  0  0  0  0  0  0  0  0
    0.2414   17.5776  -28.2057 H   0  0  0  0  0  0  0  0  0  0  0  0
    1.0552   19.6353  -29.3584 H   0  0  0  0  0  0  0  0  0  0  0  0
    0.0335   21.8497  -28.8378 H   0  0  0  0  0  0  0  0  0  0  0  0
   -0.2605   23.5777  -25.4986 H   0  0  0  0  0  0  0  0  0  0  0  0
   -0.1681   24.6379  -23.2432 H   0  0  0  0  0  0  0  0  0  0  0  0
   -1.4301   28.4022  -24.9578 H   0  0  0  0  0  0  0  0  0  0  0  0
   -1.5394   27.3415  -27.2117 H   0  0  0  0  0  0  0  0  0  0  0  0
  1  2  1  0
  2  3  1  0
  3  4  1  0
  4  5  2  0
  4  6  1  0
  6  7  1  0
  7  8  1  0
  8  9  1  0
  9 10  2  0
 10 11  1  0
 11 12  2  0
 12 13  1  0
 13 14  2  0
  7 15  1  0
 15 16  2  0
 15 17  2  0
 15 18  1  0
 18 19  2  0
 19 20  1  0
 20 21  2  0
 21 22  1  0
 21 23  1  0
 23 24  2  0
 14  9  1  0
 24 18  1  0
  1 25  1  0
  1 26  1  0
  1 27  1  0
  2 28  1  0
  2 29  1  0
  6 30  1  0
  6 31  1  0
  8 32  1  0
  8 33  1  0
 10 34  1  0
 11 35  1  0
 12 36  1  0
 13 37  1  0
 14 38  1  0
 19 39  1  0
 20 40  1  0
 23 41  1  0
 24 42  1  0
M  END
>  <UniqueID>  (34) 
33

>  <SMILES>  (34) 
CCOC(=O)CN(Cc1ccccc1)S(=O)(=O)c1ccc(F)cc1

>  <Energy>  (34) 
40.51952452788757

>  <Genealogy>  (34) 
CCOC(=O)CN(Cc1ccccc1)S(=O)(=O)c1ccc(F)cc1 (3D coordinates assigned)
CCOC(=O)CN(Cc1ccccc1)S(=O)(=O)c1ccc(F)cc1 (optimized conformer: 40.51952452788757 kcal/mol)

>  <smiles>  (34) 
CCOC(=O)CN(Cc1ccccc1)S(=O)(=O)c1ccc(F)cc1

>  <score_type>  (34) 
oracle

>  <origin>  (34) 
adg

>  <m_score__min__energy>  (34) 
-8.1799999999999997

>  <m_primary>  (34) 
energy

$$$$
34:0
     RDKit          3D

 43 45  0  0  0  0  0  0  0  0999 V2000
   -0.0690   24.1480  -29.3410 O   0  0  0  0  0  0  0  0  0  0  0  0
   -1.2020   24.3900  -28.8390 C   0  0  0  0  0  0  0  0  0  0  0  0
   -1.5710   25.7390  -28.5180 N   0  0  0  0  0  0  0  0  0  0  0  0
   -1.2360   26.4530  -27.3200 C   0  0  0  0  0  0  0  0  0  0  0  0
   -1.7530   25.9970  -26.0990 C   0  0  0  0  0  0  0  0  0  0  0  0
   -1.4650   26.6760  -24.9110 C   0  0  0  0  0  0  0  0  0  0  0  0
   -0.6710   27.8260  -24.9360 C   0  0  0  0  0  0  0  0  0  0  0  0
   -0.1720   28.3020  -26.1510 C   0  0  0  0  0  0  0  0  0  0  0  0
   -0.4570   27.6250  -27.3410 C   0  0  0  0  0  0  0  0  0  0  0  0
   -2.0990   23.3090  -28.4860 N   0  0  0  0  0  0  0  0  0  0  0  0
   -2.4380   22.4970  -29.6730 C   0  0  0  0  0  0  0  0  0  0  0  0
   -3.3690   23.2390  -30.6590 C   0  0  0  0  0  0  0  0  0  0  0  0
   -4.0800   24.3680  -30.0230 N   0  0  0  0  0  0  0  0  0  0  0  0
   -5.2080   24.8160  -30.8630 C   0  0  0  0  0  0  0  0  0  0  0  0
   -6.1120   23.6550  -31.1850 C   0  0  0  0  0  0  0  0  0  0  0  0
   -5.8990   22.9050  -32.3530 C   0  0  0  0  0  0  0  0  0  0  0  0
   -6.7460   21.8380  -32.6680 C   0  0  0  0  0  0  0  0  0  0  0  0
   -7.8100   21.5130  -31.8220 C   0  0  0  0  0  0  0  0  0  0  0  0
   -8.9670   20.0560  -32.2550 Br  0  0  0  0  0  0  0  0  0  0  0  0
   -8.0280   22.2570  -30.6570 C   0  0  0  0  0  0  0  0  0  0  0  0
   -7.1830   23.3260  -30.3390 C   0  0  0  0  0  0  0  0  0  0  0  0
   -4.5260   23.9980  -28.6700 C   0  0  0  0  0  0  0  0  0  0  0  0
   -3.3060   23.7750  -27.7530 C   0  0  0  0  0  0  0  0  0  0  0  0
   -2.3889   25.0998  -26.0755 H   0  0  0  0  0  0  0  0  0  0  0  0
   -1.8639   26.3046  -23.9555 H   0  0  0  0  0  0  0  0  0  0  0  0
   -0.4393   28.3556  -24.0002 H   0  0  0  0  0  0  0  0  0  0  0  0
    0.4465   29.2114  -26.1717 H   0  0  0  0  0  0  0  0  0  0  0  0
   -0.0711   28.0097  -28.2965 H   0  0  0  0  0  0  0  0  0  0  0  0
   -1.5680   22.6850  -27.8310 H   0  0  0  0  0  0  0  0  0  0  0  0
   -1.5072   22.2353  -30.1975 H   0  0  0  0  0  0  0  0  0  0  0  0
   -2.9729   21.6025  -29.3212 H   0  0  0  0  0  0  0  0  0  0  0  0
   -2.7640   23.6269  -31.4918 H   0  0  0  0  0  0  0  0  0  0  0  0
   -4.1256   22.5216  -31.0096 H   0  0  0  0  0  0  0  0  0  0  0  0
   -5.7812   25.5833  -30.3220 H   0  0  0  0  0  0  0  0  0  0  0  0
   -4.8127   25.2331  -31.8009 H   0  0  0  0  0  0  0  0  0  0  0  0
   -5.0633   23.1577  -33.0221 H   0  0  0  0  0  0  0  0  0  0  0  0
   -6.5745   21.2531  -33.5837 H   0  0  0  0  0  0  0  0  0  0  0  0
   -8.8647   22.0011  -29.9904 H   0  0  0  0  0  0  0  0  0  0  0  0
   -7.3584   23.9102  -29.4236 H   0  0  0  0  0  0  0  0  0  0  0  0
   -5.1480   24.8063  -28.2581 H   0  0  0  0  0  0  0  0  0  0  0  0
   -5.1102   23.0676  -28.7250 H   0  0  0  0  0  0  0  0  0  0  0  0
   -3.0662   24.7251  -27.2531 H   0  0  0  0  0  0  0  0  0  0  0  0
   -3.5767   22.9868  -27.0350 H   0  0  0  0  0  0  0  0  0  0  0  0
  1  2  2  0
  2  3  1  0
  3  4  1  0
  4  5  2  0
  5  6  1  0
  6  7  2  0
  7  8  1  0
  8  9  2  0
  2 10  1  0
 10 11  1  0
 11 12  1  0
 12 13  1  0
 13 14  1  0
 14 15  1  0
 15 16  2  0
 16 17  1  0
 17 18  2  0
 18 19  1  0
 18 20  1  0
 20 21  2  0
 13 22  1  0
 22 23  1  0
  9  4  1  0
 23 10  1  0
 21 15  1  0
  5 24  1  0
  6 25  1  0
  7 26  1  0
  8 27  1  0
  9 28  1  0
 10 29  1  0
 11 30  1  0
 11 31  1  0
 12 32  1  0
 12 33  1  0
 14 34  1  0
 14 35  1  0
 16 36  1  0
 17 37  1  0
 20 38  1  0
 21 39  1  0
 22 40  1  0
 22 41  1  0
 23 42  1  0
 23 43  1  0
M  CHG  2   3  -1  10   1
M  END
>  <UniqueID>  (35) 
34

>  <SMILES>  (35) 
O=C([N-]c1ccccc1)[NH+]1CCN(Cc2ccc(Br)cc2)CC1

>  <Energy>  (35) 
60.003404215970626

>  <Genealogy>  (35) 
O=C([N-]c1ccccc1)[NH+]1CCN(Cc2ccc(Br)cc2)CC1 (protonated)
O=C([N-]c1ccccc1)[NH+]1CCN(Cc2ccc(Br)cc2)CC1 (3D coordinates assigned)
O=C([N-]c1ccccc1)[NH+]1CCN(Cc2ccc(Br)cc2)CC1 (nonaromatic ring conformer: 60.003404215970626 kcal/mol)

>  <smiles>  (35) 
O=C(Nc1ccccc1)N1CCN(Cc2ccc(Br)cc2)CC1

>  <score_type>  (35) 
oracle

>  <origin>  (35) 
adg

>  <m_score__min__energy>  (35) 
-9.5199999999999996

>  <m_primary>  (35) 
energy

$$$$
35:0
     RDKit          3D

 39 42  0  0  0  0  0  0  0  0999 V2000
   -2.1330   24.9240  -28.7170 C   0  0  0  0  0  0  0  0  0  0  0  0
   -3.0950   25.2750  -29.7050 O   0  0  0  0  0  0  0  0  0  0  0  0
   -4.1330   24.4340  -30.1380 C   0  0  0  0  0  0  0  0  0  0  0  0
   -5.4420   24.9050  -30.0580 C   0  0  0  0  0  0  0  0  0  0  0  0
   -6.5120   24.1100  -30.4710 C   0  0  0  0  0  0  0  0  0  0  0  0
   -6.2990   22.8060  -30.9710 C   0  0  0  0  0  0  0  0  0  0  0  0
   -4.9700   22.3370  -31.0720 C   0  0  0  0  0  0  0  0  0  0  0  0
   -3.8990   23.1480  -30.6480 C   0  0  0  0  0  0  0  0  0  0  0  0
   -4.7060   20.9960  -31.6310 C   0  0  0  0  0  0  0  0  0  0  0  0
   -3.5300   20.5370  -31.6140 O   0  0  0  0  0  0  0  0  0  0  0  0
   -5.8250   20.1920  -32.1830 C   0  0  0  0  0  0  0  0  0  0  0  0
   -5.6040   18.9500  -32.8370 C   0  0  0  0  0  0  0  0  0  0  0  0
   -4.2770   18.4630  -33.0930 N   0  0  0  0  0  0  0  0  0  0  0  0
   -3.4410   19.1860  -34.0480 C   0  0  0  0  0  0  0  0  0  0  0  0
   -3.9640   17.0650  -32.8010 C   0  0  0  0  0  0  0  0  0  0  0  0
   -6.6940   18.1900  -33.2780 C   0  0  0  0  0  0  0  0  0  0  0  0
   -7.9960   18.6390  -33.0890 C   0  0  0  0  0  0  0  0  0  0  0  0
   -8.2320   19.8640  -32.4680 C   0  0  0  0  0  0  0  0  0  0  0  0
   -9.5110   20.2810  -32.2930 N   0  0  0  0  0  0  0  0  0  0  0  0
   -9.8020   21.4580  -31.6910 C   0  0  0  0  0  0  0  0  0  0  0  0
   -8.7790   22.2890  -31.2400 C   0  0  0  0  0  0  0  0  0  0  0  0
   -7.4280   21.9170  -31.4120 C   0  0  0  0  0  0  0  0  0  0  0  0
   -7.1510   20.6640  -32.0210 C   0  0  0  0  0  0  0  0  0  0  0  0
   -2.5616   25.0804  -27.7161 H   0  0  0  0  0  0  0  0  0  0  0  0
   -1.8547   23.8664  -28.8356 H   0  0  0  0  0  0  0  0  0  0  0  0
   -1.2390   25.5539  -28.8356 H   0  0  0  0  0  0  0  0  0  0  0  0
   -5.6340   25.9143  -29.6651 H   0  0  0  0  0  0  0  0  0  0  0  0
   -7.5367   24.5047  -30.4062 H   0  0  0  0  0  0  0  0  0  0  0  0
   -2.8686   22.7692  -30.7175 H   0  0  0  0  0  0  0  0  0  0  0  0
   -2.7183   19.8110  -33.5030 H   0  0  0  0  0  0  0  0  0  0  0  0
   -2.9001   18.4664  -34.6801 H   0  0  0  0  0  0  0  0  0  0  0  0
   -4.0751   19.8251  -34.6801 H   0  0  0  0  0  0  0  0  0  0  0  0
   -3.9308   16.9165  -31.7116 H   0  0  0  0  0  0  0  0  0  0  0  0
   -4.7393   16.4171  -33.2359 H   0  0  0  0  0  0  0  0  0  0  0  0
   -2.9864   16.8096  -33.2359 H   0  0  0  0  0  0  0  0  0  0  0  0
   -6.5182   17.2269  -33.7796 H   0  0  0  0  0  0  0  0  0  0  0  0
   -8.8426   18.0254  -33.4307 H   0  0  0  0  0  0  0  0  0  0  0  0
  -10.8513   21.7597  -31.5573 H   0  0  0  0  0  0  0  0  0  0  0  0
   -9.0253   23.2409  -30.7468 H   0  0  0  0  0  0  0  0  0  0  0  0
  1  2  1  0
  2  3  1  0
  3  4  2  0
  4  5  1  0
  5  6  2  0
  6  7  1  0
  7  8  2  0
  7  9  1  0
  9 10  2  0
  9 11  1  0
 11 12  1  0
 12 13  1  0
 13 14  1  0
 13 15  1  0
 12 16  2  0
 16 17  1  0
 17 18  2  0
 18 19  1  0
 19 20  2  0
 20 21  1  0
 21 22  2  0
 22 23  1  0
  8  3  1  0
 23 11  2  0
 22  6  1  0
 23 18  1  0
  1 24  1  0
  1 25  1  0
  1 26  1  0
  4 27  1  0
  5 28  1  0
  8 29  1  0
 14 30  1  0
 14 31  1  0
 14 32  1  0
 15 33  1  0
 15 34  1  0
 15 35  1  0
 16 36  1  0
 17 37  1  0
 20 38  1  0
 21 39  1  0
M  END
>  <UniqueID>  (36) 
35

>  <SMILES>  (36) 
COc1ccc2c(c1)C(=O)c1c(N(C)C)ccc3nccc-2c13

>  <Energy>  (36) 
61.099458206198214

>  <Genealogy>  (36) 
COc1ccc2c(c1)C(=O)c1c(N(C)C)ccc3nccc-2c13 (3D coordinates assigned)
COc1ccc2c(c1)C(=O)c1c(N(C)C)ccc3nccc-2c13 (nonaromatic ring conformer: 61.099458206198214 kcal/mol)

>  <smiles>  (36) 
COc1ccc2c(c1)C(=O)c1c(N(C)C)ccc3nccc-2c13

>  <score_type>  (36) 
oracle

>  <origin>  (36) 
adg

>  <m_score__min__energy>  (36) 
-8.7100000000000009

>  <m_primary>  (36) 
energy

$$$$
36:0
     RDKit          3D

 46 45  0  0  1  0  0  0  0  0999 V2000
   -6.1560   20.0040  -33.4400 C   0  0  0  0  0  0  0  0  0  0  0  0
   -6.9400   20.1820  -32.1780 C   0  0  0  0  0  0  0  0  0  0  0  0
   -8.2580   20.6750  -32.4160 N   0  0  0  0  0  0  0  0  0  0  0  0
   -9.2370   19.5830  -32.4340 C   0  0  0  0  0  0  0  0  0  0  0  0
   -8.7160   18.4510  -31.5880 C   0  0  0  0  0  0  0  0  0  0  0  0
   -8.6940   21.7220  -31.5160 C   0  0  0  0  0  0  0  0  0  0  0  0
   -8.2100   23.0730  -31.9160 C   0  0  0  0  0  0  0  0  0  0  0  0
   -6.8300   23.1400  -32.0960 O   0  0  0  0  0  0  0  0  0  0  0  0
   -6.0400   23.8400  -31.1840 C   0  0  0  0  0  0  0  0  0  0  0  0
   -5.6620   25.0100  -31.4080 O   0  0  0  0  0  0  0  0  0  0  0  0
   -5.6800   23.0900  -29.9260 C   0  0  1  0  0  0  0  0  0  0  0  0
   -4.6690   22.0370  -30.4320 C   0  0  0  0  0  0  0  0  0  0  0  0
   -4.0220   22.4560  -31.7280 C   0  0  0  0  0  0  0  0  0  0  0  0
   -2.7230   22.9020  -31.4550 O   0  0  0  0  0  0  0  0  0  0  0  0
   -1.8340   21.8520  -31.3230 C   0  0  0  0  0  0  0  0  0  0  0  0
   -4.9400   23.9670  -29.0250 C   0  0  0  0  0  0  0  0  0  0  0  0
   -3.6170   24.4540  -29.3040 C   0  0  0  0  0  0  0  0  0  0  0  0
   -3.4880   25.2980  -30.4540 O   0  0  0  0  0  0  0  0  0  0  0  0
   -2.5310   24.2470  -28.6860 N   0  0  0  0  0  0  0  0  0  0  0  0
   -1.3530   24.2630  -29.3220 O   0  0  0  0  0  0  0  0  0  0  0  0
   -5.1109   19.7667  -33.1920 H   0  0  0  0  0  0  0  0  0  0  0  0
   -6.5892   19.1814  -34.0279 H   0  0  0  0  0  0  0  0  0  0  0  0
   -6.1915   20.9331  -34.0279 H   0  0  0  0  0  0  0  0  0  0  0  0
   -7.0141   19.2096  -31.6691 H   0  0  0  0  0  0  0  0  0  0  0  0
   -6.4131   20.9240  -31.5601 H   0  0  0  0  0  0  0  0  0  0  0  0
  -10.1950   19.9385  -32.0268 H   0  0  0  0  0  0  0  0  0  0  0  0
   -9.3928   19.2373  -33.4666 H   0  0  0  0  0  0  0  0  0  0  0  0
   -8.8327   18.7046  -30.5240 H   0  0  0  0  0  0  0  0  0  0  0  0
   -9.2833   17.5353  -31.8111 H   0  0  0  0  0  0  0  0  0  0  0  0
   -7.6515   18.2863  -31.8111 H   0  0  0  0  0  0  0  0  0  0  0  0
   -9.7938   21.7345  -31.4995 H   0  0  0  0  0  0  0  0  0  0  0  0
   -8.2707   21.5012  -30.5250 H   0  0  0  0  0  0  0  0  0  0  0  0
   -8.6980   23.3514  -32.8617 H   0  0  0  0  0  0  0  0  0  0  0  0
   -8.4624   23.7620  -31.0965 H   0  0  0  0  0  0  0  0  0  0  0  0
   -6.5631   22.6911  -29.4054 H   0  0  0  0  0  0  0  0  0  0  0  0
   -3.8861   21.9013  -29.6713 H   0  0  0  0  0  0  0  0  0  0  0  0
   -5.2148   21.0989  -30.6111 H   0  0  0  0  0  0  0  0  0  0  0  0
   -3.9826   21.5991  -32.4166 H   0  0  0  0  0  0  0  0  0  0  0  0
   -4.6057   23.2624  -32.1960 H   0  0  0  0  0  0  0  0  0  0  0  0
   -1.6622   21.6490  -30.2556 H   0  0  0  0  0  0  0  0  0  0  0  0
   -2.2516   20.9553  -31.8042 H   0  0  0  0  0  0  0  0  0  0  0  0
   -0.8807   22.1160  -31.8042 H   0  0  0  0  0  0  0  0  0  0  0  0
   -5.5677   24.8604  -28.8917 H   0  0  0  0  0  0  0  0  0  0  0  0
   -4.7470   23.2923  -28.1779 H   0  0  0  0  0  0  0  0  0  0  0  0
   -3.4940   24.9230  -31.3750 H   0  0  0  0  0  0  0  0  0  0  0  0
   -1.3410   24.2120  -30.3270 H   0  0  0  0  0  0  0  0  0  0  0  0
  1  2  1  0
  2  3  1  0
  3  4  1  0
  4  5  1  0
  3  6  1  0
  6  7  1  0
  7  8  1  0
  8  9  1  0
  9 10  2  0
  9 11  1  0
 11 12  1  0
 12 13  1  0
 13 14  1  0
 14 15  1  0
 11 16  1  0
 16 17  1  0
 17 18  1  0
 17 19  2  0
 19 20  1  0
  1 21  1  0
  1 22  1  0
  1 23  1  0
  2 24  1  0
  2 25  1  0
  4 26  1  0
  4 27  1  0
  5 28  1  0
  5 29  1  0
  5 30  1  0
  6 31  1  0
  6 32  1  0
  7 33  1  0
  7 34  1  0
 11 35  1  1
 12 36  1  0
 12 37  1  0
 13 38  1  0
 13 39  1  0
 15 40  1  0
 15 41  1  0
 15 42  1  0
 16 43  1  0
 16 44  1  0
 18 45  1  0
 20 46  1  0
M  END
>  <smiles>  (37) 
CCN(CC)CCOC(=O)C(CCOC)CC(O)=NO

>  <score_type>  (37) 
oracle

>  <origin>  (37) 
adg

>  <m_score__min__energy>  (37) 
-6.7800000000000002

>  <m_primary>  (37) 
energy

$$$$
37:0
     RDKit          3D

 26 27  0  0  0  0  0  0  0  0999 V2000
   -4.2400   25.3350  -30.8410 O   0  0  0  0  0  0  0  0  0  0  0  0
   -5.0820   24.8140  -30.0590 C   0  0  0  0  0  0  0  0  0  0  0  0
   -6.5090   24.6880  -30.4910 C   0  0  0  0  0  0  0  0  0  0  0  0
   -6.7250   23.3580  -31.1380 C   0  0  0  0  0  0  0  0  0  0  0  0
   -7.9310   22.6700  -31.1960 C   0  0  0  0  0  0  0  0  0  0  0  0
   -7.8520   21.4860  -31.9400 C   0  0  0  0  0  0  0  0  0  0  0  0
   -6.5930   21.2490  -32.4790 C   0  0  0  0  0  0  0  0  0  0  0  0
   -5.5790   22.5150  -32.0330 S   0  0  0  0  0  0  0  0  0  0  0  0
   -4.6780   24.3360  -28.7680 N   0  0  0  0  0  0  0  0  0  0  0  0
   -3.3050   24.1840  -28.3750 C   0  0  0  0  0  0  0  0  0  0  0  0
   -2.3900   23.6300  -29.2830 C   0  0  0  0  0  0  0  0  0  0  0  0
   -1.0460   23.4850  -28.9330 C   0  0  0  0  0  0  0  0  0  0  0  0
   -0.5990   23.9080  -27.6790 C   0  0  0  0  0  0  0  0  0  0  0  0
   -1.4940   24.4880  -26.7750 C   0  0  0  0  0  0  0  0  0  0  0  0
   -0.8600   25.0930  -25.0770 Br  0  0  0  0  0  0  0  0  0  0  0  0
   -2.8450   24.6350  -27.1220 C   0  0  0  0  0  0  0  0  0  0  0  0
   -3.6900   25.2590  -26.2620 F   0  0  0  0  0  0  0  0  0  0  0  0
   -7.1659   24.7784  -29.6133 H   0  0  0  0  0  0  0  0  0  0  0  0
   -6.7427   25.4855  -31.2117 H   0  0  0  0  0  0  0  0  0  0  0  0
   -8.8528   23.0193  -30.7078 H   0  0  0  0  0  0  0  0  0  0  0  0
   -8.7058   20.8076  -32.0842 H   0  0  0  0  0  0  0  0  0  0  0  0
   -6.3082   20.3816  -33.0926 H   0  0  0  0  0  0  0  0  0  0  0  0
   -5.4170   24.1910  -28.0440 H   0  0  0  0  0  0  0  0  0  0  0  0
   -2.7336   23.3078  -30.2770 H   0  0  0  0  0  0  0  0  0  0  0  0
   -0.3381   23.0370  -29.6459 H   0  0  0  0  0  0  0  0  0  0  0  0
    0.4585   23.7846  -27.4024 H   0  0  0  0  0  0  0  0  0  0  0  0
  1  2  2  0
  2  3  1  0
  3  4  1  0
  4  5  2  0
  5  6  1  0
  6  7  2  0
  7  8  1  0
  2  9  1  0
  9 10  1  0
 10 11  2  0
 11 12  1  0
 12 13  2  0
 13 14  1  0
 14 15  1  0
 14 16  2  0
 16 17  1  0
  8  4  1  0
 16 10  1  0
  3 18  1  0
  3 19  1  0
  5 20  1  0
  6 21  1  0
  7 22  1  0
  9 23  1  0
 11 24  1  0
 12 25  1  0
 13 26  1  0
M  END
>  <UniqueID>  (38) 
36

>  <SMILES>  (38) 
O=C(Cc1cccs1)Nc1cccc(Br)c1F

>  <Energy>  (38) 
54.022274907249155

>  <Genealogy>  (38) 
O=C(Cc1cccs1)Nc1cccc(Br)c1F (3D coordinates assigned)
O=C(Cc1cccs1)Nc1cccc(Br)c1F (optimized conformer: 54.022274907249155 kcal/mol)

>  <smiles>  (38) 
O=C(Cc1cccs1)Nc1cccc(Br)c1F

>  <score_type>  (38) 
oracle

>  <origin>  (38) 
adg

>  <m_score__min__energy>  (38) 
-7.21

>  <m_primary>  (38) 
energy

$$$$
38:0
     RDKit          3D

 21 22  0  0  0  0  0  0  0  0999 V2000
   -9.1950   20.0020  -32.6900 C   0  0  0  0  0  0  0  0  0  0  0  0
   -8.1530   20.9500  -32.1850 C   0  0  0  0  0  0  0  0  0  0  0  0
   -8.4820   21.9760  -31.3240 C   0  0  0  0  0  0  0  0  0  0  0  0
   -7.5170   22.8640  -30.8480 C   0  0  0  0  0  0  0  0  0  0  0  0
   -6.2000   22.6710  -31.2820 C   0  0  0  0  0  0  0  0  0  0  0  0
   -5.1380   23.5620  -30.8250 C   0  0  0  0  0  0  0  0  0  0  0  0
   -4.1070   23.1940  -30.0220 N   0  0  0  0  0  0  0  0  0  0  0  0
   -3.3160   24.2850  -29.8040 C   0  0  0  0  0  0  0  0  0  0  0  0
   -1.9440   24.3310  -28.8920 S   0  0  0  0  0  0  0  0  0  0  0  0
   -3.8650   25.2940  -30.4700 O   0  0  0  0  0  0  0  0  0  0  0  0
   -4.9460   24.8680  -31.0750 N   0  0  0  0  0  0  0  0  0  0  0  0
   -5.8780   21.6400  -32.1470 C   0  0  0  0  0  0  0  0  0  0  0  0
   -6.8470   20.7800  -32.5990 C   0  0  0  0  0  0  0  0  0  0  0  0
   -9.7092   19.5342  -31.8375 H   0  0  0  0  0  0  0  0  0  0  0  0
   -9.9253   20.5518  -33.3019 H   0  0  0  0  0  0  0  0  0  0  0  0
   -8.7165   19.2231  -33.3019 H   0  0  0  0  0  0  0  0  0  0  0  0
   -9.5280   22.0968  -31.0057 H   0  0  0  0  0  0  0  0  0  0  0  0
   -7.7799   23.6815  -30.1605 H   0  0  0  0  0  0  0  0  0  0  0  0
   -5.5900   25.4520  -31.6790 H   0  0  0  0  0  0  0  0  0  0  0  0
   -4.8363   21.5087  -32.4751 H   0  0  0  0  0  0  0  0  0  0  0  0
   -6.5853   19.9616  -33.2858 H   0  0  0  0  0  0  0  0  0  0  0  0
  1  2  1  0
  2  3  2  0
  3  4  1  0
  4  5  2  0
  5  6  1  0
  6  7  2  0
  7  8  1  0
  8  9  2  0
  8 10  1  0
 10 11  1  0
  5 12  1  0
 12 13  2  0
 13  2  1  0
 11  6  1  0
  1 14  1  0
  1 15  1  0
  1 16  1  0
  3 17  1  0
  4 18  1  0
 11 19  1  0
 12 20  1  0
 13 21  1  0
M  END
>  <smiles>  (39) 
Cc1ccc(-c2nc(=S)o[nH]2)cc1

>  <score_type>  (39) 
oracle

>  <origin>  (39) 
adg

>  <m_score__min__energy>  (39) 
-6.3499999999999996

>  <m_primary>  (39) 
energy

$$$$
39:0
     RDKit          3D

 42 45  0  0  0  0  0  0  0  0999 V2000
    1.7265   25.9689  -25.8824 H   0  0  0  0  0  0  0  0  0  0  0  0
    0.9590   25.6120  -26.5850 C   0  0  0  0  0  0  0  0  0  0  0  0
   -0.1630   26.3990  -26.8510 C   0  0  0  0  0  0  0  0  0  0  0  0
   -0.2791   27.3752  -26.3574 H   0  0  0  0  0  0  0  0  0  0  0  0
   -1.1400   25.9470  -27.7450 C   0  0  0  0  0  0  0  0  0  0  0  0
   -2.0223   26.5704  -27.9522 H   0  0  0  0  0  0  0  0  0  0  0  0
   -1.0000   24.7000  -28.3800 C   0  0  0  0  0  0  0  0  0  0  0  0
   -2.0320   24.2200  -29.3250 C   0  0  0  0  0  0  0  0  0  0  0  0
   -3.1170   24.9410  -29.6840 N   0  0  0  0  0  0  0  0  0  0  0  0
   -3.7440   24.1150  -30.5410 C   0  0  0  0  0  0  0  0  0  0  0  0
   -4.8290   24.4830  -31.1650 N   0  0  0  0  0  0  0  0  0  0  0  0
   -6.2300   24.4070  -30.7480 C   0  0  0  0  0  0  0  0  0  0  0  0
   -6.7788   25.2456  -31.2014 H   0  0  0  0  0  0  0  0  0  0  0  0
   -6.2544   24.4540  -29.6493 H   0  0  0  0  0  0  0  0  0  0  0  0
   -6.8890   23.1150  -31.1660 C   0  0  0  0  0  0  0  0  0  0  0  0
   -6.5560   22.4800  -32.3770 C   0  0  0  0  0  0  0  0  0  0  0  0
   -5.7853   22.9153  -33.0301 H   0  0  0  0  0  0  0  0  0  0  0  0
   -7.2010   21.2980  -32.7530 C   0  0  0  0  0  0  0  0  0  0  0  0
   -6.9228   20.7958  -33.6913 H   0  0  0  0  0  0  0  0  0  0  0  0
   -8.1980   20.7530  -31.9400 C   0  0  0  0  0  0  0  0  0  0  0  0
   -8.8210   19.6060  -32.3060 F   0  0  0  0  0  0  0  0  0  0  0  0
   -8.5620   21.3970  -30.7550 C   0  0  0  0  0  0  0  0  0  0  0  0
   -9.3555   20.9744  -30.1211 H   0  0  0  0  0  0  0  0  0  0  0  0
   -7.9180   22.5790  -30.3740 C   0  0  0  0  0  0  0  0  0  0  0  0
   -8.2192   23.0918  -29.4486 H   0  0  0  0  0  0  0  0  0  0  0  0
   -3.0700   22.9450  -30.6890 N   0  0  0  0  0  0  0  0  0  0  0  0
   -3.3850   21.7710  -31.4420 C   0  0  0  0  0  0  0  0  0  0  0  0
   -4.2330   20.7990  -30.8920 C   0  0  0  0  0  0  0  0  0  0  0  0
   -4.6044   20.9139  -29.8630 H   0  0  0  0  0  0  0  0  0  0  0  0
   -4.6080   19.6830  -31.6490 C   0  0  0  0  0  0  0  0  0  0  0  0
   -5.2589   18.9131  -31.2089 H   0  0  0  0  0  0  0  0  0  0  0  0
   -4.1550   19.5470  -32.9650 C   0  0  0  0  0  0  0  0  0  0  0  0
   -4.4394   18.6640  -33.5560 H   0  0  0  0  0  0  0  0  0  0  0  0
   -3.3400   20.5340  -33.5300 C   0  0  0  0  0  0  0  0  0  0  0  0
   -2.9908   20.4306  -34.5680 H   0  0  0  0  0  0  0  0  0  0  0  0
   -2.9690   21.6520  -32.7760 C   0  0  0  0  0  0  0  0  0  0  0  0
   -2.3497   22.4395  -33.2302 H   0  0  0  0  0  0  0  0  0  0  0  0
   -1.9930   23.0150  -29.9270 N   0  0  0  0  0  0  0  0  0  0  0  0
    0.1350   23.9150  -28.1050 C   0  0  0  0  0  0  0  0  0  0  0  0
    0.2576   22.9382  -28.5957 H   0  0  0  0  0  0  0  0  0  0  0  0
    1.1080   24.3720  -27.2100 C   0  0  0  0  0  0  0  0  0  0  0  0
    1.9925   23.7533  -26.9980 H   0  0  0  0  0  0  0  0  0  0  0  0
  1  2  1  0
  2  3  2  0
  3  4  1  0
  3  5  1  0
  5  6  1  0
  5  7  2  0
  7  8  1  0
  8  9  2  0
  9 10  1  0
 10 11  2  0
 11 12  1  0
 12 13  1  0
 12 14  1  0
 12 15  1  0
 15 16  2  0
 16 17  1  0
 16 18  1  0
 18 19  1  0
 18 20  2  0
 20 21  1  0
 20 22  1  0
 22 23  1  0
 22 24  2  0
 24 25  1  0
 10 26  1  0
 26 27  1  0
 27 28  2  0
 28 29  1  0
 28 30  1  0
 30 31  1  0
 30 32  2  0
 32 33  1  0
 32 34  1  0
 34 35  1  0
 34 36  2  0
 36 37  1  0
 26 38  1  0
  7 39  1  0
 39 40  1  0
 39 41  2  0
 41 42  1  0
 41  2  1  0
 38  8  1  0
 24 15  1  0
 36 27  1  0
M  CHG  1  38  -1
M  END
>  <UniqueID>  (40) 
37

>  <SMILES>  (40) 
Fc1ccc(C/N=c2/nc(-c3ccccc3)[n-]n2-c2ccccc2)cc1

>  <Energy>  (40) 
91.571571971433

>  <Genealogy>  (40) 
Fc1ccc(CN=c2nc(-c3ccccc3)[n-]n2-c2ccccc2)cc1 (protonated)
Fc1ccc(C/N=c2/nc(-c3ccccc3)[n-]n2-c2ccccc2)cc1 (cis-trans isomerization)
Fc1ccc(C/N=c2/nc(-c3ccccc3)[n-]n2-c2ccccc2)cc1 (3D coordinates assigned)
Fc1ccc(C/N=c2/nc(-c3ccccc3)[n-]n2-c2ccccc2)cc1 (optimized conformer: 91.571571971433 kcal/mol)

>  <smiles>  (40) 
Fc1ccc(CN=c2nc(-c3ccccc3)[nH]n2-c2ccccc2)cc1

>  <score_type>  (40) 
oracle

>  <origin>  (40) 
adg

>  <m_score__min__energy>  (40) 
-8.9900000000000002

>  <m_primary>  (40) 
energy

$$$$
40:0
     RDKit          3D

 57 58  0  0  0  0  0  0  0  0999 V2000
   -6.4910   16.6240  -34.1450 C   0  0  0  0  0  0  0  0  0  0  0  0
   -6.0700   18.0920  -34.3200 C   0  0  0  0  0  0  0  0  0  0  0  0
   -6.2820   18.9400  -33.1200 N   0  0  0  0  0  0  0  0  0  0  0  0
   -5.0220   19.3010  -32.4290 C   0  0  0  0  0  0  0  0  0  0  0  0
   -4.0340   19.9290  -33.4090 C   0  0  0  0  0  0  0  0  0  0  0  0
   -7.3010   18.3800  -32.2040 C   0  0  0  0  0  0  0  0  0  0  0  0
   -8.3840   19.4130  -31.8580 C   0  0  0  0  0  0  0  0  0  0  0  0
   -8.0790   20.7240  -32.4190 N   0  0  0  0  0  0  0  0  0  0  0  0
   -8.2370   21.9580  -31.7070 C   0  0  0  0  0  0  0  0  0  0  0  0
   -9.3750   22.2940  -31.2730 O   0  0  0  0  0  0  0  0  0  0  0  0
   -7.0590   22.8200  -31.4480 C   0  0  0  0  0  0  0  0  0  0  0  0
   -7.2090   24.0650  -30.8110 C   0  0  0  0  0  0  0  0  0  0  0  0
   -6.0910   24.8460  -30.5040 C   0  0  0  0  0  0  0  0  0  0  0  0
   -4.7990   24.3980  -30.8340 C   0  0  0  0  0  0  0  0  0  0  0  0
   -3.6220   25.1210  -30.4450 N   0  0  0  0  0  0  0  0  0  0  0  0
   -2.8320   24.8790  -29.2740 C   0  0  0  0  0  0  0  0  0  0  0  0
   -1.8900   25.6540  -28.9670 O   0  0  0  0  0  0  0  0  0  0  0  0
   -3.0830   23.6380  -28.4690 C   0  0  0  0  0  0  0  0  0  0  0  0
   -1.9950   23.3960  -27.4070 C   0  0  0  0  0  0  0  0  0  0  0  0
   -0.4190   22.9720  -28.1390 S   0  0  0  0  0  0  0  0  0  0  0  0
    0.4500   22.3150  -27.1060 O   0  0  0  0  0  0  0  0  0  0  0  0
    0.2790   24.2070  -28.6380 O   0  0  0  0  0  0  0  0  0  0  0  0
   -0.6860   21.8500  -29.4700 C   0  0  0  0  0  0  0  0  0  0  0  0
   -1.1850   22.3250  -30.6920 C   0  0  0  0  0  0  0  0  0  0  0  0
   -1.3840   21.4430  -31.7630 C   0  0  0  0  0  0  0  0  0  0  0  0
   -1.0750   20.0870  -31.6180 C   0  0  0  0  0  0  0  0  0  0  0  0
   -0.5680   19.6130  -30.4040 C   0  0  0  0  0  0  0  0  0  0  0  0
   -0.3740   20.4910  -29.3310 C   0  0  0  0  0  0  0  0  0  0  0  0
   -4.6490   23.1620  -31.4690 C   0  0  0  0  0  0  0  0  0  0  0  0
   -5.7650   22.3820  -31.7830 C   0  0  0  0  0  0  0  0  0  0  0  0
   -6.5589   16.3873  -33.0729 H   0  0  0  0  0  0  0  0  0  0  0  0
   -7.4710   16.4647  -34.6184 H   0  0  0  0  0  0  0  0  0  0  0  0
   -5.7444   15.9695  -34.6184 H   0  0  0  0  0  0  0  0  0  0  0  0
   -4.9995   18.1148  -34.5722 H   0  0  0  0  0  0  0  0  0  0  0  0
   -6.7076   18.5080  -35.1139 H   0  0  0  0  0  0  0  0  0  0  0  0
   -5.2427   20.0206  -31.6268 H   0  0  0  0  0  0  0  0  0  0  0  0
   -4.5737   18.3888  -32.0083 H   0  0  0  0  0  0  0  0  0  0  0  0
   -3.2349   20.4369  -32.8491 H   0  0  0  0  0  0  0  0  0  0  0  0
   -3.5958   19.1433  -34.0420 H   0  0  0  0  0  0  0  0  0  0  0  0
   -4.5594   20.6593  -34.0420 H   0  0  0  0  0  0  0  0  0  0  0  0
   -7.7764   17.5134  -32.6868 H   0  0  0  0  0  0  0  0  0  0  0  0
   -6.7981   18.0853  -31.2711 H   0  0  0  0  0  0  0  0  0  0  0  0
   -9.3474   19.0681  -32.2617 H   0  0  0  0  0  0  0  0  0  0  0  0
   -8.4270   19.5105  -30.7632 H   0  0  0  0  0  0  0  0  0  0  0  0
   -8.2149   24.4273  -30.5521 H   0  0  0  0  0  0  0  0  0  0  0  0
   -6.2222   25.8158  -30.0018 H   0  0  0  0  0  0  0  0  0  0  0  0
   -4.0548   23.7360  -27.9629 H   0  0  0  0  0  0  0  0  0  0  0  0
   -3.0724   22.7825  -29.1603 H   0  0  0  0  0  0  0  0  0  0  0  0
   -1.8733   24.3115  -26.8095 H   0  0  0  0  0  0  0  0  0  0  0  0
   -2.3156   22.5497  -26.7817 H   0  0  0  0  0  0  0  0  0  0  0  0
   -1.4208   23.3929  -30.8100 H   0  0  0  0  0  0  0  0  0  0  0  0
   -1.7831   21.8174  -32.7172 H   0  0  0  0  0  0  0  0  0  0  0  0
   -1.2306   19.3939  -32.4579 H   0  0  0  0  0  0  0  0  0  0  0  0
   -0.3209   18.5470  -30.2918 H   0  0  0  0  0  0  0  0  0  0  0  0
    0.0239   20.1135  -28.3775 H   0  0  0  0  0  0  0  0  0  0  0  0
   -3.6422   22.7996  -31.7242 H   0  0  0  0  0  0  0  0  0  0  0  0
   -5.6306   21.4183  -32.2960 H   0  0  0  0  0  0  0  0  0  0  0  0
  1  2  1  0
  2  3  1  0
  3  4  1  0
  4  5  1  0
  3  6  1  0
  6  7  1  0
  7  8  1  0
  8  9  1  0
  9 10  2  0
  9 11  1  0
 11 12  2  0
 12 13  1  0
 13 14  2  0
 14 15  1  0
 15 16  1  0
 16 17  2  0
 16 18  1  0
 18 19  1  0
 19 20  1  0
 20 21  2  0
 20 22  2  0
 20 23  1  0
 23 24  2  0
 24 25  1  0
 25 26  2  0
 26 27  1  0
 27 28  2  0
 14 29  1  0
 29 30  2  0
 30 11  1  0
 28 23  1  0
  1 31  1  0
  1 32  1  0
  1 33  1  0
  2 34  1  0
  2 35  1  0
  4 36  1  0
  4 37  1  0
  5 38  1  0
  5 39  1  0
  5 40  1  0
  6 41  1  0
  6 42  1  0
  7 43  1  0
  7 44  1  0
 12 45  1  0
 13 46  1  0
 18 47  1  0
 18 48  1  0
 19 49  1  0
 19 50  1  0
 24 51  1  0
 25 52  1  0
 26 53  1  0
 27 54  1  0
 28 55  1  0
 29 56  1  0
 30 57  1  0
M  CHG  2   8  -1  15  -1
M  END
>  <UniqueID>  (41) 
38

>  <SMILES>  (41) 
CCN(CC)CC[N-]C(=O)c1ccc([N-]C(=O)CCS(=O)(=O)c2ccccc2)cc1

>  <Energy>  (41) 
57.836011490055164

>  <Genealogy>  (41) 
CCN(CC)CC[N-]C(=O)c1ccc([N-]C(=O)CCS(=O)(=O)c2ccccc2)cc1 (protonated)
CCN(CC)CC[N-]C(=O)c1ccc([N-]C(=O)CCS(=O)(=O)c2ccccc2)cc1 (3D coordinates assigned)
CCN(CC)CC[N-]C(=O)c1ccc([N-]C(=O)CCS(=O)(=O)c2ccccc2)cc1 (optimized conformer: 57.836011490055164 kcal/mol)

>  <smiles>  (41) 
CCN(CC)CCNC(=O)c1ccc(NC(=O)CCS(=O)(=O)c2ccccc2)cc1

>  <score_type>  (41) 
oracle

>  <origin>  (41) 
adg

>  <m_score__min__energy>  (41) 
-10.699999999999999

>  <m_primary>  (41) 
energy

$$$$
41:0
     RDKit          3D

 49 52  0  0  0  0  0  0  0  0999 V2000
   -1.7320   25.1660  -28.1260 C   0  0  0  0  0  0  0  0  0  0  0  0
   -2.4630   25.2960  -29.3420 O   0  0  0  0  0  0  0  0  0  0  0  0
   -3.2610   24.2860  -29.8980 C   0  0  0  0  0  0  0  0  0  0  0  0
   -4.5820   24.5930  -30.2400 C   0  0  0  0  0  0  0  0  0  0  0  0
   -5.4170   23.6200  -30.7970 C   0  0  0  0  0  0  0  0  0  0  0  0
   -4.9340   22.3240  -31.0360 C   0  0  0  0  0  0  0  0  0  0  0  0
   -5.8340   21.2910  -31.5920 C   0  0  0  0  0  0  0  0  0  0  0  0
   -5.4070   20.0900  -32.1390 C   0  0  0  0  0  0  0  0  0  0  0  0
   -6.5340   19.4550  -32.6470 C   0  0  0  0  0  0  0  0  0  0  0  0
   -6.5430   18.1570  -33.4160 C   0  0  0  0  0  0  0  0  0  0  0  0
   -6.1060   18.3300  -34.8150 N   0  0  0  0  0  0  0  0  0  0  0  0
   -4.9240   17.5200  -35.1720 C   0  0  0  0  0  0  0  0  0  0  0  0
   -3.7080   17.8620  -34.3410 C   0  0  0  0  0  0  0  0  0  0  0  0
   -2.9810   16.8490  -33.6900 C   0  0  0  0  0  0  0  0  0  0  0  0
   -1.8870   17.1740  -32.8830 C   0  0  0  0  0  0  0  0  0  0  0  0
   -1.4990   18.5070  -32.7320 C   0  0  0  0  0  0  0  0  0  0  0  0
   -2.1980   19.5180  -33.3960 C   0  0  0  0  0  0  0  0  0  0  0  0
   -3.2930   19.1970  -34.2050 C   0  0  0  0  0  0  0  0  0  0  0  0
   -7.6060   20.2810  -32.3500 C   0  0  0  0  0  0  0  0  0  0  0  0
   -8.9630   20.0980  -32.6340 C   0  0  0  0  0  0  0  0  0  0  0  0
   -9.8590   21.0950  -32.2280 C   0  0  0  0  0  0  0  0  0  0  0  0
   -9.3930   22.2330  -31.5490 C   0  0  0  0  0  0  0  0  0  0  0  0
   -8.0230   22.3680  -31.2880 C   0  0  0  0  0  0  0  0  0  0  0  0
   -7.1770   21.3920  -31.7170 N   0  0  0  0  0  0  0  0  0  0  0  0
   -3.6150   22.0080  -30.6760 C   0  0  0  0  0  0  0  0  0  0  0  0
   -2.7810   22.9800  -30.1170 C   0  0  0  0  0  0  0  0  0  0  0  0
   -2.4153   25.2875  -27.2726 H   0  0  0  0  0  0  0  0  0  0  0  0
   -1.2654   24.1708  -28.0833 H   0  0  0  0  0  0  0  0  0  0  0  0
   -0.9509   25.9393  -28.0833 H   0  0  0  0  0  0  0  0  0  0  0  0
   -4.9673   25.6091  -30.0692 H   0  0  0  0  0  0  0  0  0  0  0  0
   -6.4578   23.8713  -31.0492 H   0  0  0  0  0  0  0  0  0  0  0  0
   -4.3742   19.7125  -32.1656 H   0  0  0  0  0  0  0  0  0  0  0  0
   -5.8653   17.4472  -32.9192 H   0  0  0  0  0  0  0  0  0  0  0  0
   -7.5773   17.7828  -33.4311 H   0  0  0  0  0  0  0  0  0  0  0  0
   -6.8960   18.1520  -35.4770 H   0  0  0  0  0  0  0  0  0  0  0  0
   -5.8390   19.3360  -34.9350 H   0  0  0  0  0  0  0  0  0  0  0  0
   -5.1665   16.4579  -35.0199 H   0  0  0  0  0  0  0  0  0  0  0  0
   -4.6792   17.7356  -36.2225 H   0  0  0  0  0  0  0  0  0  0  0  0
   -3.2747   15.7965  -33.8165 H   0  0  0  0  0  0  0  0  0  0  0  0
   -1.3306   16.3783  -32.3659 H   0  0  0  0  0  0  0  0  0  0  0  0
   -0.6427   18.7610  -32.0900 H   0  0  0  0  0  0  0  0  0  0  0  0
   -1.8871   20.5670  -33.2826 H   0  0  0  0  0  0  0  0  0  0  0  0
   -3.8320   19.9944  -34.7376 H   0  0  0  0  0  0  0  0  0  0  0  0
   -9.3159   19.1987  -33.1601 H   0  0  0  0  0  0  0  0  0  0  0  0
  -10.9325   20.9864  -32.4418 H   0  0  0  0  0  0  0  0  0  0  0  0
  -10.0983   23.0123  -31.2246 H   0  0  0  0  0  0  0  0  0  0  0  0
   -7.6388   23.2454  -30.7471 H   0  0  0  0  0  0  0  0  0  0  0  0
   -3.2349   20.9881  -30.8349 H   0  0  0  0  0  0  0  0  0  0  0  0
   -1.7458   22.7242  -29.8470 H   0  0  0  0  0  0  0  0  0  0  0  0
  1  2  1  0
  2  3  1  0
  3  4  2  0
  4  5  1  0
  5  6  2  0
  6  7  1  0
  7  8  2  0
  8  9  1  0
  9 10  1  0
 10 11  1  0
 11 12  1  0
 12 13  1  0
 13 14  2  0
 14 15  1  0
 15 16  2  0
 16 17  1  0
 17 18  2  0
  9 19  2  0
 19 20  1  0
 20 21  2  0
 21 22  1  0
 22 23  2  0
 23 24  1  0
  6 25  1  0
 25 26  2  0
 26  3  1  0
 24  7  1  0
 18 13  1  0
 24 19  1  0
  1 27  1  0
  1 28  1  0
  1 29  1  0
  4 30  1  0
  5 31  1  0
  8 32  1  0
 10 33  1  0
 10 34  1  0
 11 35  1  0
 11 36  1  0
 12 37  1  0
 12 38  1  0
 14 39  1  0
 15 40  1  0
 16 41  1  0
 17 42  1  0
 18 43  1  0
 20 44  1  0
 21 45  1  0
 22 46  1  0
 23 47  1  0
 25 48  1  0
 26 49  1  0
M  CHG  1  11   1
M  END
>  <UniqueID>  (42) 
39

>  <SMILES>  (42) 
COc1ccc(-c2cc(C[NH2+]Cc3ccccc3)c3ccccn23)cc1

>  <Energy>  (42) 
86.12606430456232

>  <Genealogy>  (42) 
COc1ccc(-c2cc(C[NH2+]Cc3ccccc3)c3ccccn23)cc1 (protonated)
COc1ccc(-c2cc(C[NH2+]Cc3ccccc3)c3ccccn23)cc1 (3D coordinates assigned)
COc1ccc(-c2cc(C[NH2+]Cc3ccccc3)c3ccccn23)cc1 (optimized conformer: 86.12606430456232 kcal/mol)

>  <smiles>  (42) 
COc1ccc(-c2cc(CNCc3ccccc3)c3ccccn23)cc1

>  <score_type>  (42) 
oracle

>  <origin>  (42) 
adg

>  <m_score__min__energy>  (42) 
-8.2200000000000006

>  <m_primary>  (42) 
energy

$$$$
42:0
     RDKit          3D

 39 40  0  0  0  0  0  0  0  0999 V2000
   -6.3840   25.5990  -29.5360 C   0  0  0  0  0  0  0  0  0  0  0  0
   -5.6360   25.3570  -30.8550 C   0  0  0  0  0  0  0  0  0  0  0  0
   -4.6820   24.2170  -30.8230 N   0  0  0  0  0  0  0  0  0  0  0  0
   -3.4350   24.5540  -30.0980 C   0  0  0  0  0  0  0  0  0  0  0  0
   -3.4820   23.9850  -28.6840 C   0  0  0  0  0  0  0  0  0  0  0  0
   -5.2550   22.9250  -30.3680 C   0  0  0  0  0  0  0  0  0  0  0  0
   -6.5430   22.5260  -31.1350 C   0  0  2  0  0  0  0  0  0  0  0  0
   -7.6970   22.2950  -30.1350 C   0  0  0  0  0  0  0  0  0  0  0  0
   -9.0270   21.8610  -30.8060 C   0  0  0  0  0  0  0  0  0  0  0  0
   -8.9080   21.4850  -32.2960 C   0  0  0  0  0  0  0  0  0  0  0  0
   -7.6070   20.7830  -32.5850 C   0  0  0  0  0  0  0  0  0  0  0  0
   -7.5700   19.6990  -33.4120 N   0  0  0  0  0  0  0  0  0  0  0  0
   -6.4020   19.0620  -33.6960 C   0  0  0  0  0  0  0  0  0  0  0  0
   -5.2050   19.5140  -33.1430 C   0  0  0  0  0  0  0  0  0  0  0  0
   -5.2120   20.6290  -32.3040 C   0  0  0  0  0  0  0  0  0  0  0  0
   -6.4210   21.2910  -32.0200 C   0  0  0  0  0  0  0  0  0  0  0  0
   -5.7150   25.3826  -28.6901 H   0  0  0  0  0  0  0  0  0  0  0  0
   -6.7099   26.6484  -29.4865 H   0  0  0  0  0  0  0  0  0  0  0  0
   -7.2629   24.9394  -29.4865 H   0  0  0  0  0  0  0  0  0  0  0  0
   -6.3802   25.1602  -31.6408 H   0  0  0  0  0  0  0  0  0  0  0  0
   -5.0377   26.2602  -31.0454 H   0  0  0  0  0  0  0  0  0  0  0  0
   -2.5752   24.1260  -30.6342 H   0  0  0  0  0  0  0  0  0  0  0  0
   -3.3344   25.6480  -30.0431 H   0  0  0  0  0  0  0  0  0  0  0  0
   -3.4141   24.8066  -27.9557 H   0  0  0  0  0  0  0  0  0  0  0  0
   -4.4280   23.4429  -28.5381 H   0  0  0  0  0  0  0  0  0  0  0  0
   -2.6378   23.2951  -28.5381 H   0  0  0  0  0  0  0  0  0  0  0  0
   -4.5018   22.1370  -30.5151 H   0  0  0  0  0  0  0  0  0  0  0  0
   -5.5274   23.0423  -29.3087 H   0  0  0  0  0  0  0  0  0  0  0  0
   -6.7393   23.3716  -31.8106 H   0  0  0  0  0  0  0  0  0  0  0  0
   -7.3920   21.5091  -29.4284 H   0  0  0  0  0  0  0  0  0  0  0  0
   -7.8876   23.2569  -29.6366 H   0  0  0  0  0  0  0  0  0  0  0  0
   -9.4148   20.9867  -30.2626 H   0  0  0  0  0  0  0  0  0  0  0  0
   -9.6956   22.7332  -30.7597 H   0  0  0  0  0  0  0  0  0  0  0  0
   -9.7411   20.8188  -32.5643 H   0  0  0  0  0  0  0  0  0  0  0  0
   -8.9405   22.4105  -32.8896 H   0  0  0  0  0  0  0  0  0  0  0  0
   -8.4520   19.3390  -33.8430 H   0  0  0  0  0  0  0  0  0  0  0  0
   -6.4022   18.1879  -34.3638 H   0  0  0  0  0  0  0  0  0  0  0  0
   -4.2611   18.9952  -33.3665 H   0  0  0  0  0  0  0  0  0  0  0  0
   -4.2711   20.9911  -31.8639 H   0  0  0  0  0  0  0  0  0  0  0  0
  1  2  1  0
  2  3  1  0
  3  4  1  0
  4  5  1  0
  3  6  1  0
  6  7  1  0
  7  8  1  0
  8  9  1  0
  9 10  1  0
 10 11  1  0
 11 12  2  0
 12 13  1  0
 13 14  2  0
 14 15  1  0
 15 16  2  0
 16  7  1  0
 16 11  1  0
  1 17  1  0
  1 18  1  0
  1 19  1  0
  2 20  1  0
  2 21  1  0
  4 22  1  0
  4 23  1  0
  5 24  1  0
  5 25  1  0
  5 26  1  0
  6 27  1  0
  6 28  1  0
  7 29  1  6
  8 30  1  0
  8 31  1  0
  9 32  1  0
  9 33  1  0
 10 34  1  0
 10 35  1  0
 12 36  1  0
 13 37  1  0
 14 38  1  0
 15 39  1  0
M  CHG  1  12   1
M  END
>  <UniqueID>  (43) 
40

>  <SMILES>  (43) 
CCN(CC)C[C@@H]1CCCc2[nH+]cccc21

>  <Energy>  (43) 
48.32084881414884

>  <Genealogy>  (43) 
CCN(CC)CC1CCCc2[nH+]cccc21 (protonated)
CCN(CC)C[C@@H]1CCCc2[nH+]cccc21 (chirality)
CCN(CC)C[C@@H]1CCCc2[nH+]cccc21 (3D coordinates assigned)
CCN(CC)C[C@@H]1CCCc2[nH+]cccc21 (nonaromatic ring conformer: 48.32084881414884 kcal/mol)

>  <smiles>  (43) 
CCN(CC)CC1CCCc2ncccc21

>  <score_type>  (43) 
oracle

>  <origin>  (43) 
adg

>  <m_score__min__energy>  (43) 
-6.6299999999999999

>  <m_primary>  (43) 
energy

$$$$
43:0
     RDKit          3D

 37 39  0  0  0  0  0  0  0  0999 V2000
   -5.1610   25.6790  -30.3920 C   0  0  0  0  0  0  0  0  0  0  0  0
   -3.8560   25.1130  -30.4720 O   0  0  0  0  0  0  0  0  0  0  0  0
   -3.5940   23.7420  -30.6140 C   0  0  0  0  0  0  0  0  0  0  0  0
   -4.4870   22.9720  -31.3660 C   0  0  0  0  0  0  0  0  0  0  0  0
   -4.2760   21.6030  -31.5310 C   0  0  0  0  0  0  0  0  0  0  0  0
   -3.1650   20.9880  -30.9480 C   0  0  0  0  0  0  0  0  0  0  0  0
   -2.2430   21.7440  -30.2000 C   0  0  0  0  0  0  0  0  0  0  0  0
   -1.0490   21.0940  -29.5240 C   0  0  1  0  0  0  0  0  0  0  0  0
   -0.3300   22.0780  -28.5740 C   0  0  0  0  0  0  0  0  0  0  0  0
   -0.9790   22.1610  -27.2050 C   0  0  0  0  0  0  0  0  0  0  0  0
   -0.8530   23.3890  -26.3770 C   0  0  0  0  0  0  0  0  0  0  0  0
   -0.0170   23.4220  -25.2440 C   0  0  0  0  0  0  0  0  0  0  0  0
    0.0910   24.5860  -24.4760 C   0  0  0  0  0  0  0  0  0  0  0  0
   -0.6330   25.7280  -24.8250 C   0  0  0  0  0  0  0  0  0  0  0  0
   -0.4830   27.3150  -23.7740 Br  0  0  0  0  0  0  0  0  0  0  0  0
   -1.4710   25.7060  -25.9430 C   0  0  0  0  0  0  0  0  0  0  0  0
   -1.5830   24.5460  -26.7140 C   0  0  0  0  0  0  0  0  0  0  0  0
   -1.5640   21.1160  -26.6950 N   0  0  0  0  0  0  0  0  0  0  0  0
   -1.7300   19.8990  -27.4230 C   0  0  0  0  0  0  0  0  0  0  0  0
   -2.3580   18.5870  -26.6790 S   0  0  0  0  0  0  0  0  0  0  0  0
   -1.4440   19.8710  -28.8230 N   0  0  0  0  0  0  0  0  0  0  0  0
   -2.4740   23.1220  -30.0270 C   0  0  0  0  0  0  0  0  0  0  0  0
   -5.4434   25.8015  -29.3360 H   0  0  0  0  0  0  0  0  0  0  0  0
   -5.1662   26.6602  -30.8891 H   0  0  0  0  0  0  0  0  0  0  0  0
   -5.8809   25.0123  -30.8891 H   0  0  0  0  0  0  0  0  0  0  0  0
   -5.3622   23.4494  -31.8308 H   0  0  0  0  0  0  0  0  0  0  0  0
   -4.9863   21.0059  -32.1218 H   0  0  0  0  0  0  0  0  0  0  0  0
   -3.0100   19.9063  -31.0744 H   0  0  0  0  0  0  0  0  0  0  0  0
   -0.3322   20.8156  -30.3105 H   0  0  0  0  0  0  0  0  0  0  0  0
    0.7114   21.7467  -28.4488 H   0  0  0  0  0  0  0  0  0  0  0  0
   -0.3908   23.0780  -29.0283 H   0  0  0  0  0  0  0  0  0  0  0  0
    0.5550   22.5260  -24.9611 H   0  0  0  0  0  0  0  0  0  0  0  0
    0.7484   24.6019  -23.5942 H   0  0  0  0  0  0  0  0  0  0  0  0
   -2.0440   26.6042  -26.2169 H   0  0  0  0  0  0  0  0  0  0  0  0
   -2.2466   24.5361  -27.5913 H   0  0  0  0  0  0  0  0  0  0  0  0
   -1.6340   19.0050  -29.3770 H   0  0  0  0  0  0  0  0  0  0  0  0
   -1.7725   23.7205  -29.4272 H   0  0  0  0  0  0  0  0  0  0  0  0
  1  2  1  0
  2  3  1  0
  3  4  2  0
  4  5  1  0
  5  6  2  0
  6  7  1  0
  7  8  1  0
  8  9  1  0
  9 10  1  0
 10 11  1  0
 11 12  2  0
 12 13  1  0
 13 14  2  0
 14 15  1  0
 14 16  1  0
 16 17  2  0
 10 18  2  0
 18 19  1  0
 19 20  2  0
 19 21  1  0
  7 22  2  0
 22  3  1  0
 21  8  1  0
 17 11  1  0
  1 23  1  0
  1 24  1  0
  1 25  1  0
  4 26  1  0
  5 27  1  0
  6 28  1  0
  8 29  1  6
  9 30  1  0
  9 31  1  0
 12 32  1  0
 13 33  1  0
 16 34  1  0
 17 35  1  0
 21 36  1  0
 22 37  1  0
M  END
>  <UniqueID>  (44) 
41

>  <SMILES>  (44) 
COc1cccc([C@H]2CC(c3ccc(Br)cc3)=NC(=S)N2)c1

>  <Energy>  (44) 
41.10312811725747

>  <Genealogy>  (44) 
COc1cccc([C@H]2CC(c3ccc(Br)cc3)=NC(=S)N2)c1 (chirality)
COc1cccc([C@H]2CC(c3ccc(Br)cc3)=NC(=S)N2)c1 (3D coordinates assigned)
COc1cccc([C@H]2CC(c3ccc(Br)cc3)=NC(=S)N2)c1 (nonaromatic ring conformer: 41.10312811725747 kcal/mol)

>  <smiles>  (44) 
COc1cccc(C2CC(c3ccc(Br)cc3)=NC(=S)N2)c1

>  <score_type>  (44) 
oracle

>  <origin>  (44) 
adg

>  <m_score__min__energy>  (44) 
-8.1600000000000001

>  <m_primary>  (44) 
energy

$$$$
