0:0
     RDKit          3D

 20 19  0  0  0  0  0  0  0  0999 V2000
   -7.2190   17.8200  -31.9960 C   0  0  0  0  0  0  0  0  0  0  0  0
   -8.5660   18.5510  -32.0380 C   0  0  0  0  0  0  0  0  0  0  0  0
   -8.5160   19.7970  -32.8460 N   0  0  0  0  0  0  0  0  0  0  0  0
   -7.1560   20.3700  -32.8300 C   0  0  0  0  0  0  0  0  0  0  0  0
   -9.4800   20.8030  -32.3290 C   0  0  0  0  0  0  0  0  0  0  0  0
   -8.7860   21.9550  -31.5910 C   0  0  0  0  0  0  0  0  0  0  0  0
   -6.9218   17.6587  -30.9493 H   0  0  0  0  0  0  0  0  0  0  0  0
   -7.3128   16.8490  -32.5043 H   0  0  0  0  0  0  0  0  0  0  0  0
   -6.4560   18.4278  -32.5043 H   0  0  0  0  0  0  0  0  0  0  0  0
   -9.3184   17.8780  -32.4749 H   0  0  0  0  0  0  0  0  0  0  0  0
   -8.8237   18.8334  -31.0066 H   0  0  0  0  0  0  0  0  0  0  0  0
   -8.7550   19.5810  -33.8430 H   0  0  0  0  0  0  0  0  0  0  0  0
   -6.8285   20.5080  -31.7890 H   0  0  0  0  0  0  0  0  0  0  0  0
   -6.4642   19.6869  -33.3445 H   0  0  0  0  0  0  0  0  0  0  0  0
   -7.1617   21.3422  -33.3445 H   0  0  0  0  0  0  0  0  0  0  0  0
  -10.0465   21.2170  -33.1762 H   0  0  0  0  0  0  0  0  0  0  0  0
  -10.1407   20.2953  -31.6109 H   0  0  0  0  0  0  0  0  0  0  0  0
   -8.8776   21.8030  -30.5054 H   0  0  0  0  0  0  0  0  0  0  0  0
   -7.7221   21.9806  -31.8692 H   0  0  0  0  0  0  0  0  0  0  0  0
   -9.2607   22.9075  -31.8692 H   0  0  0  0  0  0  0  0  0  0  0  0
  1  2  1  0
  2  3  1  0
  3  4  1  0
  3  5  1  0
  5  6  1  0
  1  7  1  0
  1  8  1  0
  1  9  1  0
  2 10  1  0
  2 11  1  0
  3 12  1  0
  4 13  1  0
  4 14  1  0
  4 15  1  0
  5 16  1  0
  5 17  1  0
  6 18  1  0
  6 19  1  0
  6 20  1  0
M  CHG  1   3   1
M  END
>  <UniqueID>  (1) 
1

>  <SMILES>  (1) 
CC[NH+](C)CC

>  <Energy>  (1) 
14.859752130041594

>  <Genealogy>  (1) 
CC[NH+](C)CC (protonated)
CC[NH+](C)CC (3D coordinates assigned)
CC[NH+](C)CC (optimized conformer: 14.859752130041594 kcal/mol)

>  <smiles>  (1) 
CCN(C)CC

>  <score_type>  (1) 
oracle

>  <origin>  (1) 
adg

>  <m_score__min__energy>  (1) 
-2.7799999999999998

>  <m_primary>  (1) 
energy

$$$$
1:0
     RDKit          3D

 71 73  0  0  0  0  0  0  0  0999 V2000
    0.1880   20.5910  -31.6790 C   0  0  0  0  0  0  0  0  0  0  0  0
   -1.1290   20.7710  -30.9290 C   0  0  0  0  0  0  0  0  0  0  0  0
   -0.9400   21.3830  -29.5290 C   0  0  0  0  0  0  0  0  0  0  0  0
   -2.0640   22.2550  -29.1090 N   0  0  0  0  0  0  0  0  0  0  0  0
   -2.3640   22.0590  -27.6660 C   0  0  0  0  0  0  0  0  0  0  0  0
   -1.7110   20.7630  -27.1800 C   0  0  0  0  0  0  0  0  0  0  0  0
   -2.7310   19.6320  -27.0840 C   0  0  0  0  0  0  0  0  0  0  0  0
   -1.8000   23.6790  -29.4290 C   0  0  0  0  0  0  0  0  0  0  0  0
   -3.0310   24.5590  -29.1830 C   0  0  0  0  0  0  0  0  0  0  0  0
   -3.5690   25.0210  -30.4160 O   0  0  0  0  0  0  0  0  0  0  0  0
   -4.9320   25.3010  -30.5840 C   0  0  0  0  0  0  0  0  0  0  0  0
   -5.3570   26.4830  -30.4480 O   0  0  0  0  0  0  0  0  0  0  0  0
   -5.9180   24.1990  -30.8500 C   0  0  0  0  0  0  0  0  0  0  0  0
   -5.6820   22.9430  -29.9930 C   0  0  0  0  0  0  0  0  0  0  0  0
   -4.7170   21.9270  -30.6300 C   0  0  0  0  0  0  0  0  0  0  0  0
   -4.0420   22.4600  -31.9030 C   0  0  0  0  0  0  0  0  0  0  0  0
   -4.8600   22.1570  -33.0890 N   0  0  0  0  0  0  0  0  0  0  0  0
   -5.2300   20.7500  -33.1150 C   0  0  0  0  0  0  0  0  0  0  0  0
   -4.2760   19.7520  -33.4460 C   0  0  0  0  0  0  0  0  0  0  0  0
   -2.9000   20.0560  -33.5970 C   0  0  0  0  0  0  0  0  0  0  0  0
   -1.9740   19.0640  -33.9080 C   0  0  0  0  0  0  0  0  0  0  0  0
   -2.3860   17.7470  -34.0510 C   0  0  0  0  0  0  0  0  0  0  0  0
   -3.7280   17.4150  -33.8980 C   0  0  0  0  0  0  0  0  0  0  0  0
   -4.7050   18.4060  -33.6180 C   0  0  0  0  0  0  0  0  0  0  0  0
   -6.0400   18.0810  -33.4960 N   0  0  0  0  0  0  0  0  0  0  0  0
   -6.5280   16.7690  -33.9790 C   0  0  0  0  0  0  0  0  0  0  0  0
   -6.9220   18.9800  -32.9330 C   0  0  0  0  0  0  0  0  0  0  0  0
   -8.2090   18.5750  -32.4960 C   0  0  0  0  0  0  0  0  0  0  0  0
   -9.1130   19.4910  -31.9670 C   0  0  0  0  0  0  0  0  0  0  0  0
   -8.7600   20.8250  -31.8450 C   0  0  0  0  0  0  0  0  0  0  0  0
   -7.4910   21.2500  -32.2280 C   0  0  0  0  0  0  0  0  0  0  0  0
   -6.5440   20.3410  -32.7640 C   0  0  0  0  0  0  0  0  0  0  0  0
    1.0093   20.4787  -30.9559 H   0  0  0  0  0  0  0  0  0  0  0  0
    0.1303   19.6924  -32.3108 H   0  0  0  0  0  0  0  0  0  0  0  0
    0.3736   21.4721  -32.3108 H   0  0  0  0  0  0  0  0  0  0  0  0
   -1.7806   21.4339  -31.5172 H   0  0  0  0  0  0  0  0  0  0  0  0
   -1.5737   19.7736  -30.7969 H   0  0  0  0  0  0  0  0  0  0  0  0
   -0.8435   20.5641  -28.8009 H   0  0  0  0  0  0  0  0  0  0  0  0
   -0.0390   22.0127  -29.5696 H   0  0  0  0  0  0  0  0  0  0  0  0
   -1.9666   22.9080  -27.0904 H   0  0  0  0  0  0  0  0  0  0  0  0
   -3.4529   21.9965  -27.5233 H   0  0  0  0  0  0  0  0  0  0  0  0
   -0.9197   20.4732  -27.8870 H   0  0  0  0  0  0  0  0  0  0  0  0
   -1.2917   20.9391  -26.1784 H   0  0  0  0  0  0  0  0  0  0  0  0
   -2.9324   19.4087  -26.0259 H   0  0  0  0  0  0  0  0  0  0  0  0
   -3.6649   19.9375  -27.5785 H   0  0  0  0  0  0  0  0  0  0  0  0
   -2.3310   18.7345  -27.5785 H   0  0  0  0  0  0  0  0  0  0  0  0
   -0.9743   24.0381  -28.7971 H   0  0  0  0  0  0  0  0  0  0  0  0
   -1.5414   23.7459  -30.4961 H   0  0  0  0  0  0  0  0  0  0  0  0
   -3.7950   23.9721  -28.6522 H   0  0  0  0  0  0  0  0  0  0  0  0
   -2.7315   25.4278  -28.5784 H   0  0  0  0  0  0  0  0  0  0  0  0
   -6.9290   24.5785  -30.6403 H   0  0  0  0  0  0  0  0  0  0  0  0
   -5.7936   23.9009  -31.9015 H   0  0  0  0  0  0  0  0  0  0  0  0
   -5.2648   23.2574  -29.0249 H   0  0  0  0  0  0  0  0  0  0  0  0
   -6.6543   22.4391  -29.8895 H   0  0  0  0  0  0  0  0  0  0  0  0
   -3.9359   21.6775  -29.8968 H   0  0  0  0  0  0  0  0  0  0  0  0
   -5.3082   21.0442  -30.9149 H   0  0  0  0  0  0  0  0  0  0  0  0
   -3.9188   23.5497  -31.8177 H   0  0  0  0  0  0  0  0  0  0  0  0
   -3.0617   21.9738  -32.0147 H   0  0  0  0  0  0  0  0  0  0  0  0
   -4.3520   22.4270  -33.9600 H   0  0  0  0  0  0  0  0  0  0  0  0
   -5.7150   22.7570  -33.1150 H   0  0  0  0  0  0  0  0  0  0  0  0
   -2.5579   21.0932  -33.4663 H   0  0  0  0  0  0  0  0  0  0  0  0
   -0.9137   19.3249  -34.0406 H   0  0  0  0  0  0  0  0  0  0  0  0
   -1.6500   16.9639  -34.2858 H   0  0  0  0  0  0  0  0  0  0  0  0
   -4.0382   16.3642  -33.9959 H   0  0  0  0  0  0  0  0  0  0  0  0
   -6.7668   16.1271  -33.1182 H   0  0  0  0  0  0  0  0  0  0  0  0
   -7.4317   16.9158  -34.5888 H   0  0  0  0  0  0  0  0  0  0  0  0
   -5.7481   16.2895  -34.5888 H   0  0  0  0  0  0  0  0  0  0  0  0
   -8.4980   17.5167  -32.5768 H   0  0  0  0  0  0  0  0  0  0  0  0
  -10.1098   19.1552  -31.6451 H   0  0  0  0  0  0  0  0  0  0  0  0
   -9.4840   21.5499  -31.4446 H   0  0  0  0  0  0  0  0  0  0  0  0
   -7.2182   22.3094  -32.1128 H   0  0  0  0  0  0  0  0  0  0  0  0
  1  2  1  0
  2  3  1  0
  3  4  1  0
  4  5  1  0
  5  6  1  0
  6  7  1  0
  4  8  1  0
  8  9  1  0
  9 10  1  0
 10 11  1  0
 11 12  2  0
 11 13  1  0
 13 14  1  0
 14 15  1  0
 15 16  1  0
 16 17  1  0
 17 18  1  0
 18 19  2  0
 19 20  1  0
 20 21  2  0
 21 22  1  0
 22 23  2  0
 23 24  1  0
 24 25  2  0
 25 26  1  0
 25 27  1  0
 27 28  2  0
 28 29  1  0
 29 30  2  0
 30 31  1  0
 31 32  2  0
 32 18  1  0
 24 19  1  0
 32 27  1  0
  1 33  1  0
  1 34  1  0
  1 35  1  0
  2 36  1  0
  2 37  1  0
  3 38  1  0
  3 39  1  0
  5 40  1  0
  5 41  1  0
  6 42  1  0
  6 43  1  0
  7 44  1  0
  7 45  1  0
  7 46  1  0
  8 47  1  0
  8 48  1  0
  9 49  1  0
  9 50  1  0
 13 51  1  0
 13 52  1  0
 14 53  1  0
 14 54  1  0
 15 55  1  0
 15 56  1  0
 16 57  1  0
 16 58  1  0
 17 59  1  0
 17 60  1  0
 20 61  1  0
 21 62  1  0
 22 63  1  0
 23 64  1  0
 26 65  1  0
 26 66  1  0
 26 67  1  0
 28 68  1  0
 29 69  1  0
 30 70  1  0
 31 71  1  0
M  CHG  2  17   1  25   1
M  END
>  <UniqueID>  (2) 
2

>  <SMILES>  (2) 
CCCN(CCC)CCOC(=O)CCCC[NH2+]c1c2ccccc2[n+](C)c2ccccc12

>  <Energy>  (2) 
83.80301660799651

>  <Genealogy>  (2) 
CCCN(CCC)CCOC(=O)CCCC[NH2+]c1c2ccccc2[n+](C)c2ccccc12 (protonated)
CCCN(CCC)CCOC(=O)CCCC[NH2+]c1c2ccccc2[n+](C)c2ccccc12 (3D coordinates assigned)
CCCN(CCC)CCOC(=O)CCCC[NH2+]c1c2ccccc2[n+](C)c2ccccc12 (optimized conformer: 83.80301660799651 kcal/mol)

>  <smiles>  (2) 
CCCN(CCC)CCOC(=O)CCCCNc1c2ccccc2[n+](C)c2ccccc12

>  <score_type>  (2) 
oracle

>  <origin>  (2) 
adg

>  <m_score__min__energy>  (2) 
-9

>  <m_primary>  (2) 
energy

$$$$
2:0
     RDKit          3D

 49 49  0  0  0  0  0  0  0  0999 V2000
   -3.5640   21.9360  -29.2720 C   0  0  0  0  0  0  0  0  0  0  0  0
   -3.3350   20.8280  -30.3020 C   0  0  0  0  0  0  0  0  0  0  0  0
   -2.7740   21.3370  -31.5670 N   0  0  0  0  0  0  0  0  0  0  0  0
   -1.3030   21.5090  -31.5260 C   0  0  0  0  0  0  0  0  0  0  0  0
   -0.6470   21.1700  -32.8680 C   0  0  0  0  0  0  0  0  0  0  0  0
   -1.6420   20.7250  -33.7660 O   0  0  0  0  0  0  0  0  0  0  0  0
   -1.3490   19.4220  -34.2380 C   0  0  0  0  0  0  0  0  0  0  0  0
   -2.4610   18.4530  -33.8360 C   0  0  0  0  0  0  0  0  0  0  0  0
   -3.7390   19.1680  -33.7160 N   0  0  0  0  0  0  0  0  0  0  0  0
   -4.8270   18.4680  -34.4140 C   0  0  0  0  0  0  0  0  0  0  0  0
   -5.5500   17.4830  -33.4810 C   0  0  0  0  0  0  0  0  0  0  0  0
   -6.4610   18.1740  -32.4500 C   0  0  0  0  0  0  0  0  0  0  0  0
   -6.1670   19.6060  -32.3290 N   0  0  0  0  0  0  0  0  0  0  0  0
   -7.1600   20.6530  -32.2590 C   0  0  0  0  0  0  0  0  0  0  0  0
   -8.5360   20.3460  -32.2210 C   0  0  0  0  0  0  0  0  0  0  0  0
   -9.4870   21.3480  -32.0210 C   0  0  0  0  0  0  0  0  0  0  0  0
   -9.0850   22.6720  -31.8650 C   0  0  0  0  0  0  0  0  0  0  0  0
   -7.7340   23.0050  -31.9420 C   0  0  0  0  0  0  0  0  0  0  0  0
   -6.7620   22.0130  -32.1640 C   0  0  0  0  0  0  0  0  0  0  0  0
   -5.3930   22.4070  -32.3460 N   0  0  0  0  0  0  0  0  0  0  0  0
   -4.9920   23.5020  -31.9000 O   0  0  0  0  0  0  0  0  0  0  0  0
   -4.5980   21.7270  -33.2400 O   0  0  0  0  0  0  0  0  0  0  0  0
   -3.4776   21.5178  -28.2583 H   0  0  0  0  0  0  0  0  0  0  0  0
   -2.8100   22.7252  -29.4086 H   0  0  0  0  0  0  0  0  0  0  0  0
   -4.5691   22.3616  -29.4086 H   0  0  0  0  0  0  0  0  0  0  0  0
   -2.6365   20.0916  -29.8779 H   0  0  0  0  0  0  0  0  0  0  0  0
   -4.3122   20.3766  -30.5286 H   0  0  0  0  0  0  0  0  0  0  0  0
   -3.2610   22.2220  -31.8390 H   0  0  0  0  0  0  0  0  0  0  0  0
   -2.9980   20.6330  -32.3090 H   0  0  0  0  0  0  0  0  0  0  0  0
   -1.0748   22.5551  -31.2736 H   0  0  0  0  0  0  0  0  0  0  0  0
   -0.9017   20.8197  -30.7684 H   0  0  0  0  0  0  0  0  0  0  0  0
   -0.1563   22.0661  -33.2756 H   0  0  0  0  0  0  0  0  0  0  0  0
    0.1053   20.3803  -32.7253 H   0  0  0  0  0  0  0  0  0  0  0  0
   -1.2642   19.4432  -35.3345 H   0  0  0  0  0  0  0  0  0  0  0  0
   -0.4006   19.0842  -33.7947 H   0  0  0  0  0  0  0  0  0  0  0  0
   -2.5540   17.6689  -34.6018 H   0  0  0  0  0  0  0  0  0  0  0  0
   -2.2098   18.0018  -32.8647 H   0  0  0  0  0  0  0  0  0  0  0  0
   -3.6220   20.1030  -34.1760 H   0  0  0  0  0  0  0  0  0  0  0  0
   -5.5513   19.2095  -34.7822 H   0  0  0  0  0  0  0  0  0  0  0  0
   -4.3926   17.8985  -35.2489 H   0  0  0  0  0  0  0  0  0  0  0  0
   -6.1662   16.8096  -34.0949 H   0  0  0  0  0  0  0  0  0  0  0  0
   -4.7758   16.9408  -32.9184 H   0  0  0  0  0  0  0  0  0  0  0  0
   -7.5083   18.0518  -32.7633 H   0  0  0  0  0  0  0  0  0  0  0  0
   -6.2813   17.7064  -31.4707 H   0  0  0  0  0  0  0  0  0  0  0  0
   -5.1560   19.8540  -32.2510 H   0  0  0  0  0  0  0  0  0  0  0  0
   -8.8638   19.3040  -32.3506 H   0  0  0  0  0  0  0  0  0  0  0  0
  -10.5561   21.0912  -31.9866 H   0  0  0  0  0  0  0  0  0  0  0  0
   -9.8345   23.4558  -31.6808 H   0  0  0  0  0  0  0  0  0  0  0  0
   -7.4246   24.0544  -31.8280 H   0  0  0  0  0  0  0  0  0  0  0  0
  1  2  1  0
  2  3  1  0
  3  4  1  0
  4  5  1  0
  5  6  1  0
  6  7  1  0
  7  8  1  0
  8  9  1  0
  9 10  1  0
 10 11  1  0
 11 12  1  0
 12 13  1  0
 13 14  1  0
 14 15  2  0
 15 16  1  0
 16 17  2  0
 17 18  1  0
 18 19  2  0
 19 20  1  0
 20 21  2  0
 20 22  1  0
 19 14  1  0
  1 23  1  0
  1 24  1  0
  1 25  1  0
  2 26  1  0
  2 27  1  0
  3 28  1  0
  3 29  1  0
  4 30  1  0
  4 31  1  0
  5 32  1  0
  5 33  1  0
  7 34  1  0
  7 35  1  0
  8 36  1  0
  8 37  1  0
  9 38  1  0
 10 39  1  0
 10 40  1  0
 11 41  1  0
 11 42  1  0
 12 43  1  0
 12 44  1  0
 13 45  1  0
 15 46  1  0
 16 47  1  0
 17 48  1  0
 18 49  1  0
M  CHG  3   3   1  20   1  22  -1
M  END
>  <UniqueID>  (3) 
3

>  <SMILES>  (3) 
CC[NH2+]CCOCCNCCCNc1ccccc1[N+](=O)[O-]

>  <Energy>  (3) 
43.9428817681269

>  <Genealogy>  (3) 
CC[NH2+]CCOCCNCCCNc1ccccc1[N+](=O)[O-] (protonated)
CC[NH2+]CCOCCNCCCNc1ccccc1[N+](=O)[O-] (3D coordinates assigned)
CC[NH2+]CCOCCNCCCNc1ccccc1[N+](=O)[O-] (optimized conformer: 43.9428817681269 kcal/mol)

>  <smiles>  (3) 
CCNCCOCCNCCCNc1ccccc1[N+](=O)[O-]

>  <score_type>  (3) 
oracle

>  <origin>  (3) 
adg

>  <m_score__min__energy>  (3) 
-4.1100000000000003

>  <m_primary>  (3) 
energy

$$$$
3:0
     RDKit          3D

 68 70  0  0  0  0  0  0  0  0999 V2000
   -3.1900   17.0430  -33.4630 C   0  0  0  0  0  0  0  0  0  0  0  0
   -3.7600   15.7430  -34.0380 C   0  0  0  0  0  0  0  0  0  0  0  0
   -4.9040   15.2390  -33.2640 N   0  0  0  0  0  0  0  0  0  0  0  0
   -6.0680   14.8970  -34.1050 C   0  0  0  0  0  0  0  0  0  0  0  0
   -6.8440   16.1460  -34.5530 C   0  0  0  0  0  0  0  0  0  0  0  0
   -6.8420   17.1820  -33.4680 C   0  0  0  0  0  0  0  0  0  0  0  0
   -7.1160   16.8360  -32.2840 O   0  0  0  0  0  0  0  0  0  0  0  0
   -6.6330   18.5650  -33.8040 N   0  0  0  0  0  0  0  0  0  0  0  0
   -6.1940   19.5980  -32.8980 C   0  0  0  0  0  0  0  0  0  0  0  0
   -7.1410   20.5560  -32.4500 C   0  0  0  0  0  0  0  0  0  0  0  0
   -6.7560   21.6420  -31.6460 C   0  0  0  0  0  0  0  0  0  0  0  0
   -5.4170   21.7430  -31.2750 C   0  0  0  0  0  0  0  0  0  0  0  0
   -4.4880   20.8030  -31.6790 C   0  0  0  0  0  0  0  0  0  0  0  0
   -4.8390   19.7350  -32.5090 C   0  0  0  0  0  0  0  0  0  0  0  0
   -3.1760   21.2140  -31.1850 C   0  0  0  0  0  0  0  0  0  0  0  0
   -2.0820   20.6130  -31.3640 O   0  0  0  0  0  0  0  0  0  0  0  0
   -3.3760   22.4760  -30.4790 C   0  0  0  0  0  0  0  0  0  0  0  0
   -2.4410   23.3480  -29.9260 C   0  0  0  0  0  0  0  0  0  0  0  0
   -2.8960   24.5880  -29.4340 C   0  0  0  0  0  0  0  0  0  0  0  0
   -1.9670   25.5630  -28.9550 N   0  0  0  0  0  0  0  0  0  0  0  0
   -0.8010   25.2670  -28.1800 C   0  0  0  0  0  0  0  0  0  0  0  0
    0.0010   26.1950  -27.9090 O   0  0  0  0  0  0  0  0  0  0  0  0
   -0.6260   23.9310  -27.5150 C   0  0  0  0  0  0  0  0  0  0  0  0
   -0.6690   24.1120  -25.9980 C   0  0  0  0  0  0  0  0  0  0  0  0
   -1.1150   25.4690  -25.6650 N   0  0  0  0  0  0  0  0  0  0  0  0
   -0.8820   25.7890  -24.2430 C   0  0  0  0  0  0  0  0  0  0  0  0
   -0.9780   27.3040  -24.0150 C   0  0  0  0  0  0  0  0  0  0  0  0
    0.2410   28.0930  -24.5290 C   0  0  0  0  0  0  0  0  0  0  0  0
    0.3200   28.1030  -26.0070 N   0  0  0  0  0  0  0  0  0  0  0  0
   -0.5090   29.1780  -26.5770 C   0  0  0  0  0  0  0  0  0  0  0  0
    1.7170   28.2860  -26.4320 C   0  0  0  0  0  0  0  0  0  0  0  0
   -4.2660   24.9230  -29.5180 C   0  0  0  0  0  0  0  0  0  0  0  0
   -5.1940   24.0190  -30.0650 C   0  0  0  0  0  0  0  0  0  0  0  0
   -4.7210   22.7990  -30.5410 C   0  0  0  0  0  0  0  0  0  0  0  0
   -3.2099   16.9976  -32.3641 H   0  0  0  0  0  0  0  0  0  0  0  0
   -2.1528   17.1719  -33.8059 H   0  0  0  0  0  0  0  0  0  0  0  0
   -3.7979   17.8932  -33.8059 H   0  0  0  0  0  0  0  0  0  0  0  0
   -4.0875   15.9282  -35.0716 H   0  0  0  0  0  0  0  0  0  0  0  0
   -2.9665   14.9824  -33.9954 H   0  0  0  0  0  0  0  0  0  0  0  0
   -5.1530   15.9350  -32.5240 H   0  0  0  0  0  0  0  0  0  0  0  0
   -5.7152   14.3595  -34.9975 H   0  0  0  0  0  0  0  0  0  0  0  0
   -6.7473   14.2727  -33.5059 H   0  0  0  0  0  0  0  0  0  0  0  0
   -6.3695   16.5636  -35.4533 H   0  0  0  0  0  0  0  0  0  0  0  0
   -7.8837   15.8603  -34.7706 H   0  0  0  0  0  0  0  0  0  0  0  0
   -6.7740   18.8330  -34.8070 H   0  0  0  0  0  0  0  0  0  0  0  0
   -8.1969   20.4459  -32.7380 H   0  0  0  0  0  0  0  0  0  0  0  0
   -7.4914   22.3917  -31.3186 H   0  0  0  0  0  0  0  0  0  0  0  0
   -4.0800   19.0168  -32.8526 H   0  0  0  0  0  0  0  0  0  0  0  0
   -1.3763   23.0762  -29.8747 H   0  0  0  0  0  0  0  0  0  0  0  0
   -1.4364   23.2561  -27.8276 H   0  0  0  0  0  0  0  0  0  0  0  0
    0.3422   23.4982  -27.8070 H   0  0  0  0  0  0  0  0  0  0  0  0
   -1.3686   23.3823  -25.5642 H   0  0  0  0  0  0  0  0  0  0  0  0
    0.3392   23.9534  -25.5877 H   0  0  0  0  0  0  0  0  0  0  0  0
   -0.5700   26.1430  -26.2550 H   0  0  0  0  0  0  0  0  0  0  0  0
   -1.6392   25.2808  -23.6279 H   0  0  0  0  0  0  0  0  0  0  0  0
    0.1246   25.4477  -23.9598 H   0  0  0  0  0  0  0  0  0  0  0  0
   -1.8743   27.6757  -24.5332 H   0  0  0  0  0  0  0  0  0  0  0  0
   -1.0226   27.4601  -22.9270 H   0  0  0  0  0  0  0  0  0  0  0  0
    0.1673   29.1307  -24.1715 H   0  0  0  0  0  0  0  0  0  0  0  0
    1.1470   27.6002  -24.1465 H   0  0  0  0  0  0  0  0  0  0  0  0
   -0.9606   29.7637  -25.7627 H   0  0  0  0  0  0  0  0  0  0  0  0
    0.1184   29.8352  -27.1971 H   0  0  0  0  0  0  0  0  0  0  0  0
   -1.3041   28.7383  -27.1971 H   0  0  0  0  0  0  0  0  0  0  0  0
    2.3620   28.3705  -25.5450 H   0  0  0  0  0  0  0  0  0  0  0  0
    2.0332   27.4216  -27.0343 H   0  0  0  0  0  0  0  0  0  0  0  0
    1.7999   29.2027  -27.0343 H   0  0  0  0  0  0  0  0  0  0  0  0
   -4.6104   25.9013  -29.1516 H   0  0  0  0  0  0  0  0  0  0  0  0
   -6.2641   24.2688  -30.1154 H   0  0  0  0  0  0  0  0  0  0  0  0
  1  2  1  0
  2  3  1  0
  3  4  1  0
  4  5  1  0
  5  6  1  0
  6  7  2  0
  6  8  1  0
  8  9  1  0
  9 10  2  0
 10 11  1  0
 11 12  2  0
 12 13  1  0
 13 14  2  0
 13 15  1  0
 15 16  2  0
 15 17  1  0
 17 18  2  0
 18 19  1  0
 19 20  1  0
 20 21  1  0
 21 22  2  0
 21 23  1  0
 23 24  1  0
 24 25  1  0
 25 26  1  0
 26 27  1  0
 27 28  1  0
 28 29  1  0
 29 30  1  0
 29 31  1  0
 19 32  2  0
 32 33  1  0
 33 34  2  0
 14  9  1  0
 34 17  1  0
 34 12  1  0
  1 35  1  0
  1 36  1  0
  1 37  1  0
  2 38  1  0
  2 39  1  0
  3 40  1  0
  4 41  1  0
  4 42  1  0
  5 43  1  0
  5 44  1  0
  8 45  1  0
 10 46  1  0
 11 47  1  0
 14 48  1  0
 18 49  1  0
 23 50  1  0
 23 51  1  0
 24 52  1  0
 24 53  1  0
 25 54  1  0
 26 55  1  0
 26 56  1  0
 27 57  1  0
 27 58  1  0
 28 59  1  0
 28 60  1  0
 30 61  1  0
 30 62  1  0
 30 63  1  0
 31 64  1  0
 31 65  1  0
 31 66  1  0
 32 67  1  0
 33 68  1  0
M  CHG  1  20  -1
M  END
>  <UniqueID>  (4) 
4

>  <SMILES>  (4) 
CCNCCC(=O)Nc1ccc2c(c1)C(=O)c1cc([N-]C(=O)CCNCCCN(C)C)ccc1-2

>  <Energy>  (4) 
105.24575810633486

>  <Genealogy>  (4) 
CCNCCC(=O)Nc1ccc2c(c1)C(=O)c1cc([N-]C(=O)CCNCCCN(C)C)ccc1-2 (protonated)
CCNCCC(=O)Nc1ccc2c(c1)C(=O)c1cc([N-]C(=O)CCNCCCN(C)C)ccc1-2 (3D coordinates assigned)
CCNCCC(=O)Nc1ccc2c(c1)C(=O)c1cc([N-]C(=O)CCNCCCN(C)C)ccc1-2 (nonaromatic ring conformer: 105.24575810633486 kcal/mol)

>  <smiles>  (4) 
CCNCCC(=O)Nc1ccc2c(c1)C(=O)c1cc(NC(=O)CCNCCCN(C)C)ccc1-2

>  <score_type>  (4) 
oracle

>  <origin>  (4) 
adg

>  <m_score__min__energy>  (4) 
-11.380000000000001

>  <m_primary>  (4) 
energy

$$$$
4:0
     RDKit          3D

 41 41  0  0  0  0  0  0  0  0999 V2000
   -2.6850   24.9080  -26.7220 C   0  0  0  0  0  0  0  0  0  0  0  0
   -4.1760   24.5760  -26.7540 C   0  0  0  0  0  0  0  0  0  0  0  0
   -4.6120   24.2560  -28.1240 N   0  0  0  0  0  0  0  0  0  0  0  0
   -3.7660   23.2250  -28.7530 C   0  0  0  0  0  0  0  0  0  0  0  0
   -3.2090   23.6690  -30.1110 C   0  0  0  0  0  0  0  0  0  0  0  0
   -3.5100   25.0270  -30.3090 O   0  0  0  0  0  0  0  0  0  0  0  0
   -4.6230   25.0590  -31.0890 N   0  0  0  0  0  0  0  0  0  0  0  0
   -5.5520   26.0200  -30.4950 C   0  0  0  0  0  0  0  0  0  0  0  0
   -6.6710   25.2740  -29.7510 C   0  0  0  0  0  0  0  0  0  0  0  0
   -6.6680   23.8270  -30.0280 N   0  0  0  0  0  0  0  0  0  0  0  0
   -7.4220   23.4690  -31.2390 C   0  0  0  0  0  0  0  0  0  0  0  0
   -6.8740   22.2060  -31.8600 C   0  0  0  0  0  0  0  0  0  0  0  0
   -5.4920   22.1230  -32.1070 C   0  0  0  0  0  0  0  0  0  0  0  0
   -4.9380   20.9700  -32.6680 C   0  0  0  0  0  0  0  0  0  0  0  0
   -5.7560   19.8840  -32.9860 C   0  0  0  0  0  0  0  0  0  0  0  0
   -7.1290   19.9490  -32.7400 C   0  0  0  0  0  0  0  0  0  0  0  0
   -7.6960   21.1000  -32.1770 C   0  0  0  0  0  0  0  0  0  0  0  0
   -9.4330   21.1030  -31.8810 Cl  0  0  0  0  0  0  0  0  0  0  0  0
   -2.3484   24.9830  -25.6775 H   0  0  0  0  0  0  0  0  0  0  0  0
   -2.1214   24.1134  -27.2328 H   0  0  0  0  0  0  0  0  0  0  0  0
   -2.5118   25.8667  -27.2328 H   0  0  0  0  0  0  0  0  0  0  0  0
   -4.3665   23.7097  -26.1035 H   0  0  0  0  0  0  0  0  0  0  0  0
   -4.7396   25.4520  -26.4005 H   0  0  0  0  0  0  0  0  0  0  0  0
   -5.6120   23.9430  -28.1180 H   0  0  0  0  0  0  0  0  0  0  0  0
   -4.5460   25.1220  -28.7090 H   0  0  0  0  0  0  0  0  0  0  0  0
   -2.9232   23.0029  -28.0819 H   0  0  0  0  0  0  0  0  0  0  0  0
   -4.3929   22.3373  -28.9235 H   0  0  0  0  0  0  0  0  0  0  0  0
   -2.1183   23.5274  -30.1260 H   0  0  0  0  0  0  0  0  0  0  0  0
   -3.6631   23.0678  -30.9125 H   0  0  0  0  0  0  0  0  0  0  0  0
   -5.0590   24.1100  -31.0300 H   0  0  0  0  0  0  0  0  0  0  0  0
   -5.0086   26.6628  -29.7868 H   0  0  0  0  0  0  0  0  0  0  0  0
   -5.9947   26.6359  -31.2917 H   0  0  0  0  0  0  0  0  0  0  0  0
   -6.5375   25.4261  -28.6698 H   0  0  0  0  0  0  0  0  0  0  0  0
   -7.6319   25.6786  -30.1018 H   0  0  0  0  0  0  0  0  0  0  0  0
   -5.6820   23.4920  -30.1320 H   0  0  0  0  0  0  0  0  0  0  0  0
   -8.4775   23.3110  -30.9728 H   0  0  0  0  0  0  0  0  0  0  0  0
   -7.3284   24.2884  -31.9669 H   0  0  0  0  0  0  0  0  0  0  0  0
   -4.8414   22.9738  -31.8561 H   0  0  0  0  0  0  0  0  0  0  0  0
   -3.8561   20.9175  -32.8595 H   0  0  0  0  0  0  0  0  0  0  0  0
   -5.3190   18.9775  -33.4302 H   0  0  0  0  0  0  0  0  0  0  0  0
   -7.7699   19.0906  -32.9899 H   0  0  0  0  0  0  0  0  0  0  0  0
  1  2  1  0
  2  3  1  0
  3  4  1  0
  4  5  1  0
  5  6  1  0
  6  7  1  0
  7  8  1  0
  8  9  1  0
  9 10  1  0
 10 11  1  0
 11 12  1  0
 12 13  2  0
 13 14  1  0
 14 15  2  0
 15 16  1  0
 16 17  2  0
 17 18  1  0
 17 12  1  0
  1 19  1  0
  1 20  1  0
  1 21  1  0
  2 22  1  0
  2 23  1  0
  3 24  1  0
  3 25  1  0
  4 26  1  0
  4 27  1  0
  5 28  1  0
  5 29  1  0
  7 30  1  0
  8 31  1  0
  8 32  1  0
  9 33  1  0
  9 34  1  0
 10 35  1  0
 11 36  1  0
 11 37  1  0
 13 38  1  0
 14 39  1  0
 15 40  1  0
 16 41  1  0
M  CHG  1   3   1
M  END
>  <UniqueID>  (5) 
5

>  <SMILES>  (5) 
CC[NH2+]CCONCCNCc1ccccc1Cl

>  <Energy>  (5) 
31.44351345472488

>  <Genealogy>  (5) 
CC[NH2+]CCONCCNCc1ccccc1Cl (protonated)
CC[NH2+]CCONCCNCc1ccccc1Cl (3D coordinates assigned)
CC[NH2+]CCONCCNCc1ccccc1Cl (optimized conformer: 31.44351345472488 kcal/mol)

>  <smiles>  (5) 
CCNCCONCCNCc1ccccc1Cl

>  <score_type>  (5) 
oracle

>  <origin>  (5) 
adg

>  <m_score__min__energy>  (5) 
-6.6699999999999999

>  <m_primary>  (5) 
energy

$$$$
5:0
     RDKit          3D

 61 63  0  0  0  0  0  0  0  0999 V2000
   -2.5180   24.4220  -28.1690 C   0  0  0  0  0  0  0  0  0  0  0  0
   -1.7720   23.7700  -29.3390 C   0  0  0  0  0  0  0  0  0  0  0  0
   -1.8120   22.3000  -29.2860 N   0  0  0  0  0  0  0  0  0  0  0  0
   -2.9570   21.8060  -28.5130 C   0  0  0  0  0  0  0  0  0  0  0  0
   -2.6210   20.4440  -27.8990 C   0  0  0  0  0  0  0  0  0  0  0  0
   -1.4180   19.7900  -28.5800 C   0  0  0  0  0  0  0  0  0  0  0  0
   -1.5930   19.7850  -29.9850 O   0  0  0  0  0  0  0  0  0  0  0  0
   -0.4250   19.3540  -30.6530 C   0  0  0  0  0  0  0  0  0  0  0  0
    0.1510   20.4770  -31.5130 C   0  0  0  0  0  0  0  0  0  0  0  0
   -0.8570   21.4360  -31.7600 O   0  0  0  0  0  0  0  0  0  0  0  0
   -1.3450   21.2800  -33.0760 C   0  0  0  0  0  0  0  0  0  0  0  0
   -2.8600   21.0580  -33.0380 C   0  0  0  0  0  0  0  0  0  0  0  0
   -3.3780   20.7600  -31.6880 N   0  0  0  0  0  0  0  0  0  0  0  0
   -4.8150   20.9780  -31.5710 C   0  0  0  0  0  0  0  0  0  0  0  0
   -5.7510   19.9470  -31.8830 C   0  0  0  0  0  0  0  0  0  0  0  0
   -5.3480   18.6520  -32.3000 C   0  0  0  0  0  0  0  0  0  0  0  0
   -6.2780   17.7030  -32.7140 C   0  0  0  0  0  0  0  0  0  0  0  0
   -7.6280   18.0070  -32.7210 C   0  0  0  0  0  0  0  0  0  0  0  0
   -8.0630   19.2420  -32.2570 C   0  0  0  0  0  0  0  0  0  0  0  0
   -7.1470   20.2190  -31.7880 C   0  0  0  0  0  0  0  0  0  0  0  0
   -7.5910   21.4150  -31.2670 N   0  0  0  0  0  0  0  0  0  0  0  0
   -9.0030   21.5600  -30.8480 C   0  0  0  0  0  0  0  0  0  0  0  0
   -6.7180   22.4700  -31.1120 C   0  0  0  0  0  0  0  0  0  0  0  0
   -7.1950   23.7840  -30.8680 C   0  0  0  0  0  0  0  0  0  0  0  0
   -6.3200   24.8450  -30.6660 C   0  0  0  0  0  0  0  0  0  0  0  0
   -4.9510   24.6330  -30.7060 C   0  0  0  0  0  0  0  0  0  0  0  0
   -4.0990   25.6650  -30.4900 F   0  0  0  0  0  0  0  0  0  0  0  0
   -4.4480   23.3640  -30.9840 C   0  0  0  0  0  0  0  0  0  0  0  0
   -5.3150   22.2650  -31.2190 C   0  0  0  0  0  0  0  0  0  0  0  0
   -2.1005   24.0571  -27.2190 H   0  0  0  0  0  0  0  0  0  0  0  0
   -2.4033   25.5146  -28.2243 H   0  0  0  0  0  0  0  0  0  0  0  0
   -3.5854   24.1621  -28.2243 H   0  0  0  0  0  0  0  0  0  0  0  0
   -2.2345   24.1014  -30.2804 H   0  0  0  0  0  0  0  0  0  0  0  0
   -0.7178   24.0774  -29.2751 H   0  0  0  0  0  0  0  0  0  0  0  0
   -1.8590   21.9150  -30.2610 H   0  0  0  0  0  0  0  0  0  0  0  0
   -3.1909   22.5206  -27.7101 H   0  0  0  0  0  0  0  0  0  0  0  0
   -3.8256   21.6991  -29.1795 H   0  0  0  0  0  0  0  0  0  0  0  0
   -2.3933   20.5820  -26.8317 H   0  0  0  0  0  0  0  0  0  0  0  0
   -3.4904   19.7846  -28.0382 H   0  0  0  0  0  0  0  0  0  0  0  0
   -0.5077   20.3545  -28.3295 H   0  0  0  0  0  0  0  0  0  0  0  0
   -1.3264   18.7524  -28.2266 H   0  0  0  0  0  0  0  0  0  0  0  0
    0.3249   19.0486  -29.9084 H   0  0  0  0  0  0  0  0  0  0  0  0
   -0.6830   18.5064  -31.3049 H   0  0  0  0  0  0  0  0  0  0  0  0
    0.9897   20.9527  -30.9836 H   0  0  0  0  0  0  0  0  0  0  0  0
    0.5109   20.0646  -32.4672 H   0  0  0  0  0  0  0  0  0  0  0  0
   -1.1220   22.1857  -33.6591 H   0  0  0  0  0  0  0  0  0  0  0  0
   -0.8597   20.4117  -33.5456 H   0  0  0  0  0  0  0  0  0  0  0  0
   -3.3546   21.9684  -33.4076 H   0  0  0  0  0  0  0  0  0  0  0  0
   -3.0744   20.1818  -33.6675 H   0  0  0  0  0  0  0  0  0  0  0  0
   -3.1570   19.7670  -31.4530 H   0  0  0  0  0  0  0  0  0  0  0  0
   -2.8160   21.2680  -30.9780 H   0  0  0  0  0  0  0  0  0  0  0  0
   -4.2790   18.3929  -32.2960 H   0  0  0  0  0  0  0  0  0  0  0  0
   -5.9387   16.7077  -33.0368 H   0  0  0  0  0  0  0  0  0  0  0  0
   -8.3560   17.2714  -33.0936 H   0  0  0  0  0  0  0  0  0  0  0  0
   -9.1397   19.4672  -32.2531 H   0  0  0  0  0  0  0  0  0  0  0  0
   -9.0607   21.5659  -29.7495 H   0  0  0  0  0  0  0  0  0  0  0  0
   -9.4071   22.5044  -31.2415 H   0  0  0  0  0  0  0  0  0  0  0  0
   -9.5906   20.7175  -31.2415 H   0  0  0  0  0  0  0  0  0  0  0  0
   -8.2793   23.9667  -30.8381 H   0  0  0  0  0  0  0  0  0  0  0  0
   -6.7145   25.8538  -30.4742 H   0  0  0  0  0  0  0  0  0  0  0  0
   -3.3594   23.2109  -31.0221 H   0  0  0  0  0  0  0  0  0  0  0  0
  1  2  1  0
  2  3  1  0
  3  4  1  0
  4  5  1  0
  5  6  1  0
  6  7  1  0
  7  8  1  0
  8  9  1  0
  9 10  1  0
 10 11  1  0
 11 12  1  0
 12 13  1  0
 13 14  1  0
 14 15  2  0
 15 16  1  0
 16 17  2  0
 17 18  1  0
 18 19  2  0
 19 20  1  0
 20 21  2  0
 21 22  1  0
 21 23  1  0
 23 24  2  0
 24 25  1  0
 25 26  2  0
 26 27  1  0
 26 28  1  0
 28 29  2  0
 29 14  1  0
 20 15  1  0
 29 23  1  0
  1 30  1  0
  1 31  1  0
  1 32  1  0
  2 33  1  0
  2 34  1  0
  3 35  1  0
  4 36  1  0
  4 37  1  0
  5 38  1  0
  5 39  1  0
  6 40  1  0
  6 41  1  0
  8 42  1  0
  8 43  1  0
  9 44  1  0
  9 45  1  0
 11 46  1  0
 11 47  1  0
 12 48  1  0
 12 49  1  0
 13 50  1  0
 13 51  1  0
 16 52  1  0
 17 53  1  0
 18 54  1  0
 19 55  1  0
 22 56  1  0
 22 57  1  0
 22 58  1  0
 24 59  1  0
 25 60  1  0
 28 61  1  0
M  CHG  2  13   1  21   1
M  END
>  <UniqueID>  (6) 
6

>  <SMILES>  (6) 
CCNCCCOCCOCC[NH2+]c1c2ccccc2[n+](C)c2ccc(F)cc12

>  <Energy>  (6) 
82.80603085640529

>  <Genealogy>  (6) 
CCNCCCOCCOCC[NH2+]c1c2ccccc2[n+](C)c2ccc(F)cc12 (protonated)
CCNCCCOCCOCC[NH2+]c1c2ccccc2[n+](C)c2ccc(F)cc12 (3D coordinates assigned)
CCNCCCOCCOCC[NH2+]c1c2ccccc2[n+](C)c2ccc(F)cc12 (optimized conformer: 82.80603085640529 kcal/mol)

>  <smiles>  (6) 
CCNCCCOCCOCCNc1c2ccccc2[n+](C)c2ccc(F)cc12

>  <score_type>  (6) 
oracle

>  <origin>  (6) 
adg

>  <m_score__min__energy>  (6) 
-8.4299999999999997

>  <m_primary>  (6) 
energy

$$$$
6:0
     RDKit          3D

 55 57  0  0  0  0  0  0  0  0999 V2000
    0.3490   24.8620  -36.1190 C   0  0  0  0  0  0  0  0  0  0  0  0
    0.9330   23.4530  -36.1450 C   0  0  0  0  0  0  0  0  0  0  0  0
    0.2530   22.5970  -35.1610 N   0  0  0  0  0  0  0  0  0  0  0  0
    0.6480   21.1900  -35.3090 C   0  0  0  0  0  0  0  0  0  0  0  0
   -0.5260   20.2820  -34.9180 C   0  0  0  0  0  0  0  0  0  0  0  0
   -1.5480   20.9890  -34.1290 N   0  0  0  0  0  0  0  0  0  0  0  0
   -1.1730   21.1580  -32.7150 C   0  0  0  0  0  0  0  0  0  0  0  0
   -2.3830   20.9520  -31.7920 C   0  0  0  0  0  0  0  0  0  0  0  0
   -3.5410   21.9320  -32.1010 C   0  0  0  0  0  0  0  0  0  0  0  0
   -4.2400   21.6050  -33.3600 N   0  0  0  0  0  0  0  0  0  0  0  0
   -5.4260   20.7830  -33.1260 C   0  0  0  0  0  0  0  0  0  0  0  0
   -5.4050   19.3960  -33.4560 C   0  0  0  0  0  0  0  0  0  0  0  0
   -4.3130   18.8070  -34.1440 C   0  0  0  0  0  0  0  0  0  0  0  0
   -4.3250   17.4600  -34.4980 C   0  0  0  0  0  0  0  0  0  0  0  0
   -5.4220   16.6700  -34.1940 C   0  0  0  0  0  0  0  0  0  0  0  0
   -6.5020   17.2120  -33.5060 C   0  0  0  0  0  0  0  0  0  0  0  0
   -6.5040   18.5690  -33.0910 C   0  0  0  0  0  0  0  0  0  0  0  0
   -7.5470   19.0850  -32.3560 N   0  0  0  0  0  0  0  0  0  0  0  0
   -8.4910   18.1720  -31.6730 C   0  0  0  0  0  0  0  0  0  0  0  0
   -7.6940   20.4490  -32.2260 C   0  0  0  0  0  0  0  0  0  0  0  0
   -8.9100   21.0060  -31.7520 C   0  0  0  0  0  0  0  0  0  0  0  0
   -9.0510   22.3740  -31.5560 C   0  0  0  0  0  0  0  0  0  0  0  0
   -7.9970   23.2260  -31.8400 C   0  0  0  0  0  0  0  0  0  0  0  0
   -6.8040   22.7210  -32.3490 C   0  0  0  0  0  0  0  0  0  0  0  0
   -6.6250   21.3280  -32.5730 C   0  0  0  0  0  0  0  0  0  0  0  0
    0.2154   25.1843  -35.0758 H   0  0  0  0  0  0  0  0  0  0  0  0
    1.0349   25.5527  -36.6312 H   0  0  0  0  0  0  0  0  0  0  0  0
   -0.6245   24.8649  -36.6312 H   0  0  0  0  0  0  0  0  0  0  0  0
    0.8017   23.0249  -37.1497 H   0  0  0  0  0  0  0  0  0  0  0  0
    2.0024   23.5057  -35.8929 H   0  0  0  0  0  0  0  0  0  0  0  0
   -0.7760   22.6560  -35.3460 H   0  0  0  0  0  0  0  0  0  0  0  0
    0.9280   20.9964  -36.3550 H   0  0  0  0  0  0  0  0  0  0  0  0
    1.5061   20.9805  -34.6534 H   0  0  0  0  0  0  0  0  0  0  0  0
   -0.9938   19.8957  -35.8356 H   0  0  0  0  0  0  0  0  0  0  0  0
   -0.1260   19.4690  -34.2943 H   0  0  0  0  0  0  0  0  0  0  0  0
   -1.7330   21.9300  -34.5500 H   0  0  0  0  0  0  0  0  0  0  0  0
   -0.3968   20.4218  -32.4590 H   0  0  0  0  0  0  0  0  0  0  0  0
   -0.7972   22.1821  -32.5739 H   0  0  0  0  0  0  0  0  0  0  0  0
   -2.7499   19.9225  -31.9166 H   0  0  0  0  0  0  0  0  0  0  0  0
   -2.0516   21.1425  -30.7606 H   0  0  0  0  0  0  0  0  0  0  0  0
   -4.2661   21.8925  -31.2748 H   0  0  0  0  0  0  0  0  0  0  0  0
   -3.1070   22.9367  -32.2117 H   0  0  0  0  0  0  0  0  0  0  0  0
   -3.5870   21.1040  -34.0030 H   0  0  0  0  0  0  0  0  0  0  0  0
   -4.4210   22.4850  -33.8800 H   0  0  0  0  0  0  0  0  0  0  0  0
   -3.4409   19.4255  -34.4026 H   0  0  0  0  0  0  0  0  0  0  0  0
   -3.4615   17.0222  -35.0202 H   0  0  0  0  0  0  0  0  0  0  0  0
   -5.4385   15.6128  -34.4973 H   0  0  0  0  0  0  0  0  0  0  0  0
   -7.3711   16.5770  -33.2792 H   0  0  0  0  0  0  0  0  0  0  0  0
   -8.3809   18.2785  -30.5837 H   0  0  0  0  0  0  0  0  0  0  0  0
   -9.5212   18.4251  -31.9639 H   0  0  0  0  0  0  0  0  0  0  0  0
   -8.2724   17.1339  -31.9639 H   0  0  0  0  0  0  0  0  0  0  0  0
   -9.7587   20.3406  -31.5352 H   0  0  0  0  0  0  0  0  0  0  0  0
   -9.9997   22.7803  -31.1753 H   0  0  0  0  0  0  0  0  0  0  0  0
   -8.1030   24.3064  -31.6626 H   0  0  0  0  0  0  0  0  0  0  0  0
   -5.9823   23.4139  -32.5829 H   0  0  0  0  0  0  0  0  0  0  0  0
  1  2  1  0
  2  3  1  0
  3  4  1  0
  4  5  1  0
  5  6  1  0
  6  7  1  0
  7  8  1  0
  8  9  1  0
  9 10  1  0
 10 11  1  0
 11 12  2  0
 12 13  1  0
 13 14  2  0
 14 15  1  0
 15 16  2  0
 16 17  1  0
 17 18  2  0
 18 19  1  0
 18 20  1  0
 20 21  2  0
 21 22  1  0
 22 23  2  0
 23 24  1  0
 24 25  2  0
 25 11  1  0
 17 12  1  0
 25 20  1  0
  1 26  1  0
  1 27  1  0
  1 28  1  0
  2 29  1  0
  2 30  1  0
  3 31  1  0
  4 32  1  0
  4 33  1  0
  5 34  1  0
  5 35  1  0
  6 36  1  0
  7 37  1  0
  7 38  1  0
  8 39  1  0
  8 40  1  0
  9 41  1  0
  9 42  1  0
 10 43  1  0
 10 44  1  0
 13 45  1  0
 14 46  1  0
 15 47  1  0
 16 48  1  0
 19 49  1  0
 19 50  1  0
 19 51  1  0
 21 52  1  0
 22 53  1  0
 23 54  1  0
 24 55  1  0
M  CHG  2  10   1  18   1
M  END
>  <UniqueID>  (7) 
7

>  <SMILES>  (7) 
CCNCCNCCC[NH2+]c1c2ccccc2[n+](C)c2ccccc12

>  <Energy>  (7) 
80.71474173093367

>  <Genealogy>  (7) 
CCNCCNCCC[NH2+]c1c2ccccc2[n+](C)c2ccccc12 (protonated)
CCNCCNCCC[NH2+]c1c2ccccc2[n+](C)c2ccccc12 (3D coordinates assigned)
CCNCCNCCC[NH2+]c1c2ccccc2[n+](C)c2ccccc12 (optimized conformer: 80.71474173093367 kcal/mol)

>  <smiles>  (7) 
CCNCCNCCCNc1c2ccccc2[n+](C)c2ccccc12

>  <score_type>  (7) 
oracle

>  <origin>  (7) 
adg

>  <m_score__min__energy>  (7) 
-9.0899999999999999

>  <m_primary>  (7) 
energy

$$$$
7:0
     RDKit          3D

 48 51  0  0  0  0  0  0  0  0999 V2000
   -0.4890   20.7930  -35.0420 C   0  0  0  0  0  0  0  0  0  0  0  0
   -1.6140   20.3920  -34.1810 N   0  0  0  0  0  0  0  0  0  0  0  0
   -1.5970   18.9290  -34.0060 C   0  0  0  0  0  0  0  0  0  0  0  0
   -1.5360   21.0850  -32.8760 C   0  0  0  0  0  0  0  0  0  0  0  0
   -2.9360   21.5170  -32.4130 C   0  0  0  0  0  0  0  0  0  0  0  0
   -3.9570   21.3630  -33.4690 N   0  0  0  0  0  0  0  0  0  0  0  0
   -5.1680   20.7360  -32.9750 C   0  0  0  0  0  0  0  0  0  0  0  0
   -5.5810   19.4280  -33.3880 C   0  0  0  0  0  0  0  0  0  0  0  0
   -4.8030   18.6390  -34.2710 C   0  0  0  0  0  0  0  0  0  0  0  0
   -5.1950   17.3510  -34.6260 C   0  0  0  0  0  0  0  0  0  0  0  0
   -6.3600   16.8070  -34.1090 C   0  0  0  0  0  0  0  0  0  0  0  0
   -7.1590   17.5510  -33.2480 C   0  0  0  0  0  0  0  0  0  0  0  0
   -6.8140   18.8790  -32.8880 C   0  0  0  0  0  0  0  0  0  0  0  0
   -7.6360   19.6270  -32.0610 N   0  0  0  0  0  0  0  0  0  0  0  0
   -8.9710   19.1430  -31.6610 C   0  0  0  0  0  0  0  0  0  0  0  0
   -7.1810   20.8350  -31.6070 C   0  0  0  0  0  0  0  0  0  0  0  0
   -7.8020   21.6210  -30.6960 N   0  0  0  0  0  0  0  0  0  0  0  0
   -7.0150   22.7010  -30.5620 C   0  0  0  0  0  0  0  0  0  0  0  0
   -7.2470   23.7860  -29.7180 C   0  0  0  0  0  0  0  0  0  0  0  0
   -6.3050   24.8240  -29.6980 C   0  0  0  0  0  0  0  0  0  0  0  0
   -5.1560   24.7560  -30.5090 C   0  0  0  0  0  0  0  0  0  0  0  0
   -4.2490   25.7640  -30.4740 F   0  0  0  0  0  0  0  0  0  0  0  0
   -4.9380   23.6500  -31.3500 C   0  0  0  0  0  0  0  0  0  0  0  0
   -5.8940   22.6210  -31.3650 C   0  0  0  0  0  0  0  0  0  0  0  0
   -5.9930   21.3980  -32.0420 C   0  0  0  0  0  0  0  0  0  0  0  0
    0.3624   21.0965  -34.4151 H   0  0  0  0  0  0  0  0  0  0  0  0
   -0.1929   19.9450  -35.6771 H   0  0  0  0  0  0  0  0  0  0  0  0
   -0.7960   21.6371  -35.6771 H   0  0  0  0  0  0  0  0  0  0  0  0
   -1.5942   18.6881  -32.9327 H   0  0  0  0  0  0  0  0  0  0  0  0
   -2.4901   18.4929  -34.4773 H   0  0  0  0  0  0  0  0  0  0  0  0
   -0.6940   18.5138  -34.4773 H   0  0  0  0  0  0  0  0  0  0  0  0
   -1.1018   20.4037  -32.1295 H   0  0  0  0  0  0  0  0  0  0  0  0
   -0.9049   21.9794  -32.9847 H   0  0  0  0  0  0  0  0  0  0  0  0
   -3.2270   20.9010  -31.5494 H   0  0  0  0  0  0  0  0  0  0  0  0
   -2.8856   22.5844  -32.1520 H   0  0  0  0  0  0  0  0  0  0  0  0
   -4.2070   22.2990  -33.8570 H   0  0  0  0  0  0  0  0  0  0  0  0
   -3.5550   20.8780  -34.2980 H   0  0  0  0  0  0  0  0  0  0  0  0
   -3.8710   19.0521  -34.6842 H   0  0  0  0  0  0  0  0  0  0  0  0
   -4.5771   16.7625  -35.3201 H   0  0  0  0  0  0  0  0  0  0  0  0
   -6.6538   15.7824  -34.3809 H   0  0  0  0  0  0  0  0  0  0  0  0
   -8.0756   17.1015  -32.8384 H   0  0  0  0  0  0  0  0  0  0  0  0
   -9.0384   19.1185  -30.5633 H   0  0  0  0  0  0  0  0  0  0  0  0
   -9.7411   19.8192  -32.0607 H   0  0  0  0  0  0  0  0  0  0  0  0
   -9.1289   18.1304  -32.0607 H   0  0  0  0  0  0  0  0  0  0  0  0
   -8.6800   21.4430  -30.1610 H   0  0  0  0  0  0  0  0  0  0  0  0
   -8.1454   23.8266  -29.0845 H   0  0  0  0  0  0  0  0  0  0  0  0
   -6.4642   25.6954  -29.0459 H   0  0  0  0  0  0  0  0  0  0  0  0
   -4.0393   23.5921  -31.9816 H   0  0  0  0  0  0  0  0  0  0  0  0
  1  2  1  0
  2  3  1  0
  2  4  1  0
  4  5  1  0
  5  6  1  0
  6  7  1  0
  7  8  2  0
  8  9  1  0
  9 10  2  0
 10 11  1  0
 11 12  2  0
 12 13  1  0
 13 14  2  0
 14 15  1  0
 14 16  1  0
 16 17  1  0
 17 18  1  0
 18 19  2  0
 19 20  1  0
 20 21  2  0
 21 22  1  0
 21 23  1  0
 23 24  2  0
 24 25  1  0
 25  7  1  0
 13  8  1  0
 25 16  2  0
 24 18  1  0
  1 26  1  0
  1 27  1  0
  1 28  1  0
  3 29  1  0
  3 30  1  0
  3 31  1  0
  4 32  1  0
  4 33  1  0
  5 34  1  0
  5 35  1  0
  6 36  1  0
  6 37  1  0
  9 38  1  0
 10 39  1  0
 11 40  1  0
 12 41  1  0
 15 42  1  0
 15 43  1  0
 15 44  1  0
 17 45  1  0
 19 46  1  0
 20 47  1  0
 23 48  1  0
M  CHG  2   6   1  14   1
M  END
>  <UniqueID>  (8) 
8

>  <SMILES>  (8) 
CN(C)CC[NH2+]c1c2ccccc2[n+](C)c2[nH]c3ccc(F)cc3c12

>  <Energy>  (8) 
111.38644129605518

>  <Genealogy>  (8) 
CN(C)CC[NH2+]c1c2ccccc2[n+](C)c2[nH]c3ccc(F)cc3c12 (protonated)
CN(C)CC[NH2+]c1c2ccccc2[n+](C)c2[nH]c3ccc(F)cc3c12 (3D coordinates assigned)
CN(C)CC[NH2+]c1c2ccccc2[n+](C)c2[nH]c3ccc(F)cc3c12 (optimized conformer: 111.38644129605518 kcal/mol)

>  <smiles>  (8) 
CN(C)CCNc1c2ccccc2[n+](C)c2[nH]c3ccc(F)cc3c12

>  <score_type>  (8) 
oracle

>  <origin>  (8) 
adg

>  <m_score__min__energy>  (8) 
-7.5899999999999999

>  <m_primary>  (8) 
energy

$$$$
8:0
     RDKit          3D

 61 62  0  0  0  0  0  0  0  0999 V2000
   -2.8890   19.7160  -27.0670 C   0  0  0  0  0  0  0  0  0  0  0  0
   -1.9120   20.8860  -27.0890 C   0  0  0  0  0  0  0  0  0  0  0  0
   -2.4140   21.9860  -27.9870 C   0  0  0  0  0  0  0  0  0  0  0  0
   -1.6270   22.4410  -29.0540 C   0  0  0  0  0  0  0  0  0  0  0  0
   -2.0780   23.4800  -29.8730 C   0  0  0  0  0  0  0  0  0  0  0  0
   -3.3290   24.0810  -29.6370 C   0  0  0  0  0  0  0  0  0  0  0  0
   -3.8380   25.1190  -30.4340 O   0  0  0  0  0  0  0  0  0  0  0  0
   -5.1800   25.6140  -30.3950 C   0  0  0  0  0  0  0  0  0  0  0  0
   -6.1190   24.7240  -31.2180 C   0  0  0  0  0  0  0  0  0  0  0  0
   -6.0180   23.3160  -30.7790 N   0  0  0  0  0  0  0  0  0  0  0  0
   -5.5120   22.4580  -31.8770 C   0  0  0  0  0  0  0  0  0  0  0  0
   -5.8300   20.9780  -31.6250 C   0  0  0  0  0  0  0  0  0  0  0  0
   -7.2880   20.7410  -31.5140 N   0  0  0  0  0  0  0  0  0  0  0  0
   -7.8790   19.9820  -32.6390 C   0  0  0  0  0  0  0  0  0  0  0  0
   -6.8430   19.2630  -33.5340 C   0  0  0  0  0  0  0  0  0  0  0  0
   -6.8340   17.7640  -33.3290 C   0  0  0  0  0  0  0  0  0  0  0  0
   -7.7090   17.2330  -32.5890 O   0  0  0  0  0  0  0  0  0  0  0  0
   -5.8200   16.9310  -33.9390 N   0  0  0  0  0  0  0  0  0  0  0  0
   -4.9660   17.4250  -35.0270 C   0  0  0  0  0  0  0  0  0  0  0  0
   -3.7250   18.1110  -34.4640 C   0  0  0  0  0  0  0  0  0  0  0  0
   -5.6870   15.5280  -33.5200 C   0  0  0  0  0  0  0  0  0  0  0  0
   -4.7680   15.4150  -32.3100 C   0  0  0  0  0  0  0  0  0  0  0  0
   -8.0810   21.9250  -31.1210 C   0  0  0  0  0  0  0  0  0  0  0  0
   -7.2810   22.8240  -30.1680 C   0  0  0  0  0  0  0  0  0  0  0  0
   -4.1030   23.6360  -28.5590 C   0  0  0  0  0  0  0  0  0  0  0  0
   -3.6510   22.6000  -27.7360 C   0  0  0  0  0  0  0  0  0  0  0  0
   -3.1144   19.4461  -26.0247 H   0  0  0  0  0  0  0  0  0  0  0  0
   -3.8182   20.0045  -27.5802 H   0  0  0  0  0  0  0  0  0  0  0  0
   -2.4394   18.8532  -27.5802 H   0  0  0  0  0  0  0  0  0  0  0  0
   -1.7966   21.2786  -26.0679 H   0  0  0  0  0  0  0  0  0  0  0  0
   -0.9450   20.5303  -27.4743 H   0  0  0  0  0  0  0  0  0  0  0  0
   -0.6484   21.9775  -29.2480 H   0  0  0  0  0  0  0  0  0  0  0  0
   -1.4518   23.8301  -30.7068 H   0  0  0  0  0  0  0  0  0  0  0  0
   -5.5260   25.6331  -29.3510 H   0  0  0  0  0  0  0  0  0  0  0  0
   -5.1922   26.6268  -30.8241 H   0  0  0  0  0  0  0  0  0  0  0  0
   -7.1544   25.0708  -31.0853 H   0  0  0  0  0  0  0  0  0  0  0  0
   -5.8297   24.7870  -32.2774 H   0  0  0  0  0  0  0  0  0  0  0  0
   -5.9837   22.7695  -32.8206 H   0  0  0  0  0  0  0  0  0  0  0  0
   -4.4192   22.5726  -31.9295 H   0  0  0  0  0  0  0  0  0  0  0  0
   -5.4346   20.3814  -32.4603 H   0  0  0  0  0  0  0  0  0  0  0  0
   -5.3619   20.6843  -30.6739 H   0  0  0  0  0  0  0  0  0  0  0  0
   -8.5603   19.2248  -32.2238 H   0  0  0  0  0  0  0  0  0  0  0  0
   -8.3935   20.7147  -33.2781 H   0  0  0  0  0  0  0  0  0  0  0  0
   -7.0821   19.4727  -34.5870 H   0  0  0  0  0  0  0  0  0  0  0  0
   -5.8474   19.6417  -33.2595 H   0  0  0  0  0  0  0  0  0  0  0  0
   -4.6568   16.5781  -35.6572 H   0  0  0  0  0  0  0  0  0  0  0  0
   -5.5354   18.1536  -35.6228 H   0  0  0  0  0  0  0  0  0  0  0  0
   -3.7617   18.0907  -33.3648 H   0  0  0  0  0  0  0  0  0  0  0  0
   -2.8248   17.5824  -34.8106 H   0  0  0  0  0  0  0  0  0  0  0  0
   -3.6938   19.1545  -34.8106 H   0  0  0  0  0  0  0  0  0  0  0  0
   -6.6797   15.1331  -33.2582 H   0  0  0  0  0  0  0  0  0  0  0  0
   -5.2543   14.9495  -34.3495 H   0  0  0  0  0  0  0  0  0  0  0  0
   -5.3643   15.4883  -31.3886 H   0  0  0  0  0  0  0  0  0  0  0  0
   -4.2477   14.4461  -32.3339 H   0  0  0  0  0  0  0  0  0  0  0  0
   -4.0285   16.2290  -32.3339 H   0  0  0  0  0  0  0  0  0  0  0  0
   -8.3441   22.4983  -32.0221 H   0  0  0  0  0  0  0  0  0  0  0  0
   -8.9909   21.5849  -30.6049 H   0  0  0  0  0  0  0  0  0  0  0  0
   -7.9019   23.6899  -29.8947 H   0  0  0  0  0  0  0  0  0  0  0  0
   -7.0149   22.2240  -29.2853 H   0  0  0  0  0  0  0  0  0  0  0  0
   -5.0768   24.1061  -28.3572 H   0  0  0  0  0  0  0  0  0  0  0  0
   -4.2671   22.2649  -26.8886 H   0  0  0  0  0  0  0  0  0  0  0  0
  1  2  1  0
  2  3  1  0
  3  4  2  0
  4  5  1  0
  5  6  2  0
  6  7  1  0
  7  8  1  0
  8  9  1  0
  9 10  1  0
 10 11  1  0
 11 12  1  0
 12 13  1  0
 13 14  1  0
 14 15  1  0
 15 16  1  0
 16 17  2  0
 16 18  1  0
 18 19  1  0
 19 20  1  0
 18 21  1  0
 21 22  1  0
 13 23  1  0
 23 24  1  0
  6 25  1  0
 25 26  2  0
 26  3  1  0
 24 10  1  0
  1 27  1  0
  1 28  1  0
  1 29  1  0
  2 30  1  0
  2 31  1  0
  4 32  1  0
  5 33  1  0
  8 34  1  0
  8 35  1  0
  9 36  1  0
  9 37  1  0
 11 38  1  0
 11 39  1  0
 12 40  1  0
 12 41  1  0
 14 42  1  0
 14 43  1  0
 15 44  1  0
 15 45  1  0
 19 46  1  0
 19 47  1  0
 20 48  1  0
 20 49  1  0
 20 50  1  0
 21 51  1  0
 21 52  1  0
 22 53  1  0
 22 54  1  0
 22 55  1  0
 23 56  1  0
 23 57  1  0
 24 58  1  0
 24 59  1  0
 25 60  1  0
 26 61  1  0
M  END
>  <UniqueID>  (9) 
9

>  <SMILES>  (9) 
CCc1ccc(OCCN2CCN(CCC(=O)N(CC)CC)CC2)cc1

>  <Energy>  (9) 
63.59208407897219

>  <Genealogy>  (9) 
CCc1ccc(OCCN2CCN(CCC(=O)N(CC)CC)CC2)cc1 (3D coordinates assigned)
CCc1ccc(OCCN2CCN(CCC(=O)N(CC)CC)CC2)cc1 (nonaromatic ring conformer: 63.59208407897219 kcal/mol)

>  <smiles>  (9) 
CCc1ccc(OCCN2CCN(CCC(=O)N(CC)CC)CC2)cc1

>  <score_type>  (9) 
oracle

>  <origin>  (9) 
adg

>  <m_score__min__energy>  (9) 
-8.2100000000000009

>  <m_primary>  (9) 
energy

$$$$
9:0
     RDKit          3D

 41 41  0  0  0  0  0  0  0  0999 V2000
   -4.0780   20.9660  -30.8660 C   0  0  0  0  0  0  0  0  0  0  0  0
   -3.0790   21.7340  -31.7640 C   0  0  0  0  0  0  0  0  0  0  0  0
   -3.6290   21.7120  -33.2090 C   0  0  0  0  0  0  0  0  0  0  0  0
   -1.7240   20.9860  -31.7050 C   0  0  0  0  0  0  0  0  0  0  0  0
   -2.9550   23.1270  -31.2480 N   0  0  0  0  0  0  0  0  0  0  0  0
   -3.6190   23.4000  -29.9470 C   0  0  0  0  0  0  0  0  0  0  0  0
   -4.5260   24.6480  -30.0020 C   0  0  1  0  0  0  0  0  0  0  0  0
   -3.8710   25.6720  -30.7070 O   0  0  0  0  0  0  0  0  0  0  0  0
   -5.8680   24.3300  -30.6780 C   0  0  0  0  0  0  0  0  0  0  0  0
   -5.6600   24.0370  -32.0470 O   0  0  0  0  0  0  0  0  0  0  0  0
   -6.8950   23.7980  -32.6920 C   0  0  0  0  0  0  0  0  0  0  0  0
   -7.4340   22.4450  -32.3130 C   0  0  0  0  0  0  0  0  0  0  0  0
   -8.6170   22.3300  -31.5650 C   0  0  0  0  0  0  0  0  0  0  0  0
   -9.1230   21.0680  -31.2380 C   0  0  0  0  0  0  0  0  0  0  0  0
   -8.4560   19.9150  -31.6590 C   0  0  0  0  0  0  0  0  0  0  0  0
   -7.2810   20.0220  -32.4090 C   0  0  0  0  0  0  0  0  0  0  0  0
   -6.7720   21.2810  -32.7390 C   0  0  0  0  0  0  0  0  0  0  0  0
   -3.8376   21.1508  -29.8086 H   0  0  0  0  0  0  0  0  0  0  0  0
   -5.1007   21.3126  -31.0755 H   0  0  0  0  0  0  0  0  0  0  0  0
   -4.0059   19.8885  -31.0755 H   0  0  0  0  0  0  0  0  0  0  0  0
   -4.7278   21.6680  -33.1825 H   0  0  0  0  0  0  0  0  0  0  0  0
   -3.3111   22.6236  -33.7362 H   0  0  0  0  0  0  0  0  0  0  0  0
   -3.2393   20.8287  -33.7362 H   0  0  0  0  0  0  0  0  0  0  0  0
   -1.4378   20.8280  -30.6547 H   0  0  0  0  0  0  0  0  0  0  0  0
   -1.8200   20.0131  -32.2092 H   0  0  0  0  0  0  0  0  0  0  0  0
   -0.9519   21.5857  -32.2092 H   0  0  0  0  0  0  0  0  0  0  0  0
   -1.9400   23.3800  -31.1910 H   0  0  0  0  0  0  0  0  0  0  0  0
   -3.3650   23.7780  -31.9590 H   0  0  0  0  0  0  0  0  0  0  0  0
   -4.2324   22.5289  -29.6733 H   0  0  0  0  0  0  0  0  0  0  0  0
   -2.8327   23.5883  -29.2011 H   0  0  0  0  0  0  0  0  0  0  0  0
   -4.7306   24.9741  -28.9715 H   0  0  0  0  0  0  0  0  0  0  0  0
   -4.2570   25.6840  -31.6210 H   0  0  0  0  0  0  0  0  0  0  0  0
   -6.3280   23.4610  -30.1848 H   0  0  0  0  0  0  0  0  0  0  0  0
   -6.5330   25.2019  -30.5911 H   0  0  0  0  0  0  0  0  0  0  0  0
   -7.6162   24.5722  -32.3914 H   0  0  0  0  0  0  0  0  0  0  0  0
   -6.7395   23.8270  -33.7806 H   0  0  0  0  0  0  0  0  0  0  0  0
   -9.1473   23.2356  -31.2353 H   0  0  0  0  0  0  0  0  0  0  0  0
  -10.0477   20.9831  -30.6483 H   0  0  0  0  0  0  0  0  0  0  0  0
   -8.8552   18.9231  -31.4005 H   0  0  0  0  0  0  0  0  0  0  0  0
   -6.7562   19.1136  -32.7399 H   0  0  0  0  0  0  0  0  0  0  0  0
   -5.8503   21.3610  -33.3340 H   0  0  0  0  0  0  0  0  0  0  0  0
  1  2  1  0
  2  3  1  0
  2  4  1  0
  2  5  1  0
  5  6  1  0
  6  7  1  0
  7  8  1  0
  7  9  1  0
  9 10  1  0
 10 11  1  0
 11 12  1  0
 12 13  2  0
 13 14  1  0
 14 15  2  0
 15 16  1  0
 16 17  2  0
 17 12  1  0
  1 18  1  0
  1 19  1  0
  1 20  1  0
  3 21  1  0
  3 22  1  0
  3 23  1  0
  4 24  1  0
  4 25  1  0
  4 26  1  0
  5 27  1  0
  5 28  1  0
  6 29  1  0
  6 30  1  0
  7 31  1  1
  8 32  1  0
  9 33  1  0
  9 34  1  0
 11 35  1  0
 11 36  1  0
 13 37  1  0
 14 38  1  0
 15 39  1  0
 16 40  1  0
 17 41  1  0
M  CHG  1   5   1
M  END
>  <UniqueID>  (10) 
10

>  <SMILES>  (10) 
CC(C)(C)[NH2+]C[C@@H](O)COCc1ccccc1

>  <Energy>  (10) 
39.987644901337696

>  <Genealogy>  (10) 
CC(C)(C)[NH2+]CC(O)COCc1ccccc1 (protonated)
CC(C)(C)[NH2+]C[C@@H](O)COCc1ccccc1 (chirality)
CC(C)(C)[NH2+]C[C@@H](O)COCc1ccccc1 (3D coordinates assigned)
CC(C)(C)[NH2+]C[C@@H](O)COCc1ccccc1 (optimized conformer: 39.987644901337696 kcal/mol)

>  <smiles>  (10) 
CC(C)(C)NCC(O)COCc1ccccc1

>  <score_type>  (10) 
oracle

>  <origin>  (10) 
adg

>  <m_score__min__energy>  (10) 
-7.1100000000000003

>  <m_primary>  (10) 
energy

$$$$
10:0
     RDKit          3D

 46 47  0  0  0  0  0  0  0  0999 V2000
    0.4000   20.8840  -36.1220 C   0  0  0  0  0  0  0  0  0  0  0  0
   -0.1010   21.5380  -34.8280 C   0  0  0  0  0  0  0  0  0  0  0  0
   -1.0580   20.7060  -34.0570 N   0  0  0  0  0  0  0  0  0  0  0  0
   -0.9000   19.2480  -34.2740 C   0  0  0  0  0  0  0  0  0  0  0  0
   -2.0230   18.4500  -33.6110 C   0  0  0  0  0  0  0  0  0  0  0  0
   -1.0620   21.0440  -32.6160 C   0  0  0  0  0  0  0  0  0  0  0  0
   -2.4420   21.5570  -32.2000 C   0  0  0  0  0  0  0  0  0  0  0  0
   -3.3990   21.3710  -33.2900 N   0  0  0  0  0  0  0  0  0  0  0  0
   -4.7520   20.9140  -33.0890 C   0  0  0  0  0  0  0  0  0  0  0  0
   -5.1620   19.7000  -33.6440 C   0  0  0  0  0  0  0  0  0  0  0  0
   -6.4780   19.2740  -33.5070 C   0  0  0  0  0  0  0  0  0  0  0  0
   -7.4010   20.0190  -32.8290 N   0  0  0  0  0  0  0  0  0  0  0  0
   -8.7710   19.4730  -32.7450 C   0  0  0  0  0  0  0  0  0  0  0  0
   -8.8890   18.4870  -31.5840 C   0  0  0  0  0  0  0  0  0  0  0  0
   -7.0440   21.2380  -32.2800 C   0  0  0  0  0  0  0  0  0  0  0  0
   -7.9810   22.0580  -31.6060 C   0  0  0  0  0  0  0  0  0  0  0  0
   -7.5940   23.2680  -31.0310 C   0  0  0  0  0  0  0  0  0  0  0  0
   -6.2710   23.6900  -31.1050 C   0  0  0  0  0  0  0  0  0  0  0  0
   -5.7490   25.3370  -30.2890 Br  0  0  0  0  0  0  0  0  0  0  0  0
   -5.3270   22.9130  -31.7750 C   0  0  0  0  0  0  0  0  0  0  0  0
   -5.6970   21.6970  -32.3890 C   0  0  0  0  0  0  0  0  0  0  0  0
    1.0518   20.0332  -35.8743 H   0  0  0  0  0  0  0  0  0  0  0  0
   -0.4592   20.5287  -36.7098 H   0  0  0  0  0  0  0  0  0  0  0  0
    0.9667   21.6211  -36.7098 H   0  0  0  0  0  0  0  0  0  0  0  0
    0.7688   21.7464  -34.1876 H   0  0  0  0  0  0  0  0  0  0  0  0
   -0.6411   22.4497  -35.1231 H   0  0  0  0  0  0  0  0  0  0  0  0
   -0.9100   19.0459  -35.3552 H   0  0  0  0  0  0  0  0  0  0  0  0
    0.0534   18.9365  -33.8222 H   0  0  0  0  0  0  0  0  0  0  0  0
   -1.9257   18.5191  -32.5175 H   0  0  0  0  0  0  0  0  0  0  0  0
   -2.9959   18.8605  -33.9192 H   0  0  0  0  0  0  0  0  0  0  0  0
   -1.9554   17.3962  -33.9192 H   0  0  0  0  0  0  0  0  0  0  0  0
   -0.8163   20.1455  -32.0309 H   0  0  0  0  0  0  0  0  0  0  0  0
   -0.3146   21.8289  -32.4283 H   0  0  0  0  0  0  0  0  0  0  0  0
   -2.7854   21.0000  -31.3158 H   0  0  0  0  0  0  0  0  0  0  0  0
   -2.3705   22.6290  -31.9638 H   0  0  0  0  0  0  0  0  0  0  0  0
   -3.0470   21.5140  -34.2630 H   0  0  0  0  0  0  0  0  0  0  0  0
   -4.4397   19.0775  -34.1925 H   0  0  0  0  0  0  0  0  0  0  0  0
   -6.7829   18.3163  -33.9541 H   0  0  0  0  0  0  0  0  0  0  0  0
   -9.4803   20.2995  -32.5904 H   0  0  0  0  0  0  0  0  0  0  0  0
   -8.9992   18.9446  -33.6824 H   0  0  0  0  0  0  0  0  0  0  0  0
   -8.8237   19.0329  -30.6313 H   0  0  0  0  0  0  0  0  0  0  0  0
   -9.8559   17.9658  -31.6424 H   0  0  0  0  0  0  0  0  0  0  0  0
   -8.0724   17.7524  -31.6424 H   0  0  0  0  0  0  0  0  0  0  0  0
   -9.0303   21.7356  -31.5349 H   0  0  0  0  0  0  0  0  0  0  0  0
   -8.3393   23.8921  -30.5161 H   0  0  0  0  0  0  0  0  0  0  0  0
   -4.2816   23.2515  -31.8257 H   0  0  0  0  0  0  0  0  0  0  0  0
  1  2  1  0
  2  3  1  0
  3  4  1  0
  4  5  1  0
  3  6  1  0
  6  7  1  0
  7  8  1  0
  8  9  1  0
  9 10  2  0
 10 11  1  0
 11 12  2  0
 12 13  1  0
 13 14  1  0
 12 15  1  0
 15 16  2  0
 16 17  1  0
 17 18  2  0
 18 19  1  0
 18 20  1  0
 20 21  2  0
 21  9  1  0
 21 15  1  0
  1 22  1  0
  1 23  1  0
  1 24  1  0
  2 25  1  0
  2 26  1  0
  4 27  1  0
  4 28  1  0
  5 29  1  0
  5 30  1  0
  5 31  1  0
  6 32  1  0
  6 33  1  0
  7 34  1  0
  7 35  1  0
  8 36  1  0
 10 37  1  0
 11 38  1  0
 13 39  1  0
 13 40  1  0
 14 41  1  0
 14 42  1  0
 14 43  1  0
 16 44  1  0
 17 45  1  0
 20 46  1  0
M  CHG  1  12   1
M  END
>  <UniqueID>  (11) 
11

>  <SMILES>  (11) 
CCN(CC)CCNc1cc[n+](CC)c2ccc(Br)cc12

>  <Energy>  (11) 
55.18070344562893

>  <Genealogy>  (11) 
CCN(CC)CCNc1cc[n+](CC)c2ccc(Br)cc12 (3D coordinates assigned)
CCN(CC)CCNc1cc[n+](CC)c2ccc(Br)cc12 (optimized conformer: 55.18070344562893 kcal/mol)

>  <smiles>  (11) 
CCN(CC)CCNc1cc[n+](CC)c2ccc(Br)cc12

>  <score_type>  (11) 
oracle

>  <origin>  (11) 
adg

>  <m_score__min__energy>  (11) 
-7.96

>  <m_primary>  (11) 
energy

$$$$
11:0
     RDKit          3D

 65 69  0  0  0  0  0  0  0  0999 V2000
   -0.5200   26.2560  -27.8290 C   0  0  0  0  0  0  0  0  0  0  0  0
   -0.6390   24.8870  -28.3560 N   0  0  0  0  0  0  0  0  0  0  0  0
    0.6330   24.1720  -28.1530 C   0  0  0  0  0  0  0  0  0  0  0  0
   -1.7600   24.1730  -27.7060 C   0  0  0  0  0  0  0  0  0  0  0  0
   -2.2160   23.0040  -28.5820 C   0  0  0  0  0  0  0  0  0  0  0  0
   -1.8820   23.2360  -29.9860 N   0  0  0  0  0  0  0  0  0  0  0  0
   -2.4190   22.3760  -30.9970 C   0  0  0  0  0  0  0  0  0  0  0  0
   -1.6330   21.3680  -31.5950 C   0  0  0  0  0  0  0  0  0  0  0  0
   -0.2660   21.2480  -31.2820 C   0  0  0  0  0  0  0  0  0  0  0  0
    0.5050   20.2360  -31.8470 C   0  0  0  0  0  0  0  0  0  0  0  0
   -0.0740   19.3200  -32.7210 C   0  0  0  0  0  0  0  0  0  0  0  0
   -1.4260   19.4150  -33.0490 C   0  0  0  0  0  0  0  0  0  0  0  0
   -2.2380   20.4430  -32.5130 C   0  0  0  0  0  0  0  0  0  0  0  0
   -3.5830   20.5540  -32.8370 N   0  0  0  0  0  0  0  0  0  0  0  0
   -4.2010   19.6670  -33.8430 C   0  0  0  0  0  0  0  0  0  0  0  0
   -4.3270   21.5190  -32.2070 C   0  0  0  0  0  0  0  0  0  0  0  0
   -5.6640   21.7220  -32.3270 N   0  0  0  0  0  0  0  0  0  0  0  0
   -5.9330   22.8020  -31.5600 C   0  0  0  0  0  0  0  0  0  0  0  0
   -7.1790   23.4260  -31.3670 C   0  0  0  0  0  0  0  0  0  0  0  0
   -8.4490   22.8850  -31.9710 C   0  0  0  0  0  0  0  0  0  0  0  0
   -8.7620   21.4980  -31.4030 C   0  0  0  0  0  0  0  0  0  0  0  0
   -8.3180   20.4500  -32.3310 N   0  0  0  0  0  0  0  0  0  0  0  0
   -8.9530   19.1520  -32.0280 C   0  0  0  0  0  0  0  0  0  0  0  0
   -7.9190   18.0140  -31.9710 C   0  0  0  0  0  0  0  0  0  0  0  0
   -6.8930   17.9960  -33.0940 C   0  0  0  0  0  0  0  0  0  0  0  0
   -6.4880   18.4490  -31.6980 C   0  0  0  0  0  0  0  0  0  0  0  0
   -7.2180   24.5540  -30.5200 C   0  0  0  0  0  0  0  0  0  0  0  0
   -6.0430   25.0410  -29.9130 C   0  0  0  0  0  0  0  0  0  0  0  0
   -4.8120   24.4010  -30.1230 C   0  0  0  0  0  0  0  0  0  0  0  0
   -4.7900   23.2710  -30.9430 C   0  0  0  0  0  0  0  0  0  0  0  0
   -3.7650   22.4320  -31.3390 C   0  0  0  0  0  0  0  0  0  0  0  0
   -0.5225   26.2271  -26.7294 H   0  0  0  0  0  0  0  0  0  0  0  0
    0.4205   26.7043  -28.1819 H   0  0  0  0  0  0  0  0  0  0  0  0
   -1.3690   26.8598  -28.1819 H   0  0  0  0  0  0  0  0  0  0  0  0
    0.8250   24.0641  -27.0753 H   0  0  0  0  0  0  0  0  0  0  0  0
    0.5718   23.1761  -28.6161 H   0  0  0  0  0  0  0  0  0  0  0  0
    1.4520   24.7420  -28.6161 H   0  0  0  0  0  0  0  0  0  0  0  0
   -1.4297   23.7890  -26.7296 H   0  0  0  0  0  0  0  0  0  0  0  0
   -2.6000   24.8698  -27.5688 H   0  0  0  0  0  0  0  0  0  0  0  0
   -1.7177   22.0844  -28.2415 H   0  0  0  0  0  0  0  0  0  0  0  0
   -3.3082   22.9075  -28.4944 H   0  0  0  0  0  0  0  0  0  0  0  0
   -1.1590   23.9400  -30.2580 H   0  0  0  0  0  0  0  0  0  0  0  0
    0.1976   21.9608  -30.5842 H   0  0  0  0  0  0  0  0  0  0  0  0
    1.5747   20.1599  -31.6022 H   0  0  0  0  0  0  0  0  0  0  0  0
    0.5388   18.5164  -33.1555 H   0  0  0  0  0  0  0  0  0  0  0  0
   -1.8689   18.6787  -33.7358 H   0  0  0  0  0  0  0  0  0  0  0  0
   -4.7583   18.8671  -33.3336 H   0  0  0  0  0  0  0  0  0  0  0  0
   -4.8894   20.2500  -34.4724 H   0  0  0  0  0  0  0  0  0  0  0  0
   -3.4156   19.2232  -34.4724 H   0  0  0  0  0  0  0  0  0  0  0  0
   -6.3600   21.1640  -32.8670 H   0  0  0  0  0  0  0  0  0  0  0  0
   -9.2799   23.5675  -31.7392 H   0  0  0  0  0  0  0  0  0  0  0  0
   -8.3193   22.8034  -33.0603 H   0  0  0  0  0  0  0  0  0  0  0  0
   -8.2416   21.3746  -30.4418 H   0  0  0  0  0  0  0  0  0  0  0  0
   -9.8490   21.4092  -31.2598 H   0  0  0  0  0  0  0  0  0  0  0  0
   -8.5380   20.7540  -33.3080 H   0  0  0  0  0  0  0  0  0  0  0  0
   -9.4608   19.2218  -31.0547 H   0  0  0  0  0  0  0  0  0  0  0  0
   -9.6702   18.9247  -32.8305 H   0  0  0  0  0  0  0  0  0  0  0  0
   -8.6075   17.2743  -31.5364 H   0  0  0  0  0  0  0  0  0  0  0  0
   -6.5266   17.0370  -33.4892 H   0  0  0  0  0  0  0  0  0  0  0  0
   -6.8344   18.4333  -34.1016 H   0  0  0  0  0  0  0  0  0  0  0  0
   -5.8287   17.8174  -31.0845 H   0  0  0  0  0  0  0  0  0  0  0  0
   -6.0152   19.3495  -31.2790 H   0  0  0  0  0  0  0  0  0  0  0  0
   -8.1768   25.0591  -30.3313 H   0  0  0  0  0  0  0  0  0  0  0  0
   -6.0913   25.9312  -29.2686 H   0  0  0  0  0  0  0  0  0  0  0  0
   -3.8909   24.7786  -29.6551 H   0  0  0  0  0  0  0  0  0  0  0  0
  1  2  1  0
  2  3  1  0
  2  4  1  0
  4  5  1  0
  5  6  1  0
  6  7  1  0
  7  8  2  0
  8  9  1  0
  9 10  2  0
 10 11  1  0
 11 12  2  0
 12 13  1  0
 13 14  2  0
 14 15  1  0
 14 16  1  0
 16 17  1  0
 17 18  1  0
 18 19  2  0
 19 20  1  0
 20 21  1  0
 21 22  1  0
 22 23  1  0
 23 24  1  0
 24 25  1  0
 25 26  1  0
 19 27  1  0
 27 28  2  0
 28 29  1  0
 29 30  2  0
 30 31  1  0
 31  7  1  0
 13  8  1  0
 31 16  2  0
 30 18  1  0
 26 24  1  0
  1 32  1  0
  1 33  1  0
  1 34  1  0
  3 35  1  0
  3 36  1  0
  3 37  1  0
  4 38  1  0
  4 39  1  0
  5 40  1  0
  5 41  1  0
  6 42  1  0
  9 43  1  0
 10 44  1  0
 11 45  1  0
 12 46  1  0
 15 47  1  0
 15 48  1  0
 15 49  1  0
 17 50  1  0
 20 51  1  0
 20 52  1  0
 21 53  1  0
 21 54  1  0
 22 55  1  0
 23 56  1  0
 23 57  1  0
 24 58  1  0
 25 59  1  0
 25 60  1  0
 26 61  1  0
 26 62  1  0
 27 63  1  0
 28 64  1  0
 29 65  1  0
M  CHG  1  14   1
M  END
>  <UniqueID>  (12) 
12

>  <SMILES>  (12) 
CN(C)CCNc1c2ccccc2[n+](C)c2[nH]c3c(CCNCC4CC4)cccc3c12

>  <Energy>  (12) 
387.7086392943631

>  <Genealogy>  (12) 
CN(C)CCNc1c2ccccc2[n+](C)c2[nH]c3c(CCNCC4CC4)cccc3c12 (3D coordinates assigned)
CN(C)CCNc1c2ccccc2[n+](C)c2[nH]c3c(CCNCC4CC4)cccc3c12 (nonaromatic ring conformer: 387.7086392943631 kcal/mol)

>  <smiles>  (12) 
CN(C)CCNc1c2ccccc2[n+](C)c2[nH]c3c(CCNCC4CC4)cccc3c12

>  <score_type>  (12) 
oracle

>  <origin>  (12) 
adg

>  <m_score__min__energy>  (12) 
-9.4000000000000004

>  <m_primary>  (12) 
energy

$$$$
12:0
     RDKit          3D

 42 43  0  0  0  0  0  0  0  0999 V2000
   -3.0592   19.1575  -27.4085 H   0  0  0  0  0  0  0  0  0  0  0  0
   -2.4990   20.0820  -27.6120 C   0  0  0  0  0  0  0  0  0  0  0  0
   -1.1200   20.1450  -27.3160 C   0  0  0  0  0  0  0  0  0  0  0  0
   -0.4990   19.0740  -26.7620 F   0  0  0  0  0  0  0  0  0  0  0  0
   -0.3880   21.3160  -27.5800 C   0  0  0  0  0  0  0  0  0  0  0  0
    0.6831   21.3817  -27.3383 H   0  0  0  0  0  0  0  0  0  0  0  0
   -1.0620   22.3920  -28.1580 C   0  0  0  0  0  0  0  0  0  0  0  0
   -0.6390   23.6620  -28.5060 C   0  0  0  0  0  0  0  0  0  0  0  0
    0.6700   24.2300  -28.3550 N   0  0  0  0  0  0  0  0  0  0  0  0
    0.9930   25.1160  -27.4920 N   0  0  0  0  0  0  0  0  0  0  0  0
    0.5300   25.1610  -26.1330 C   0  0  0  0  0  0  0  0  0  0  0  0
   -0.9440   25.7980  -25.8280 S   0  0  0  0  0  0  0  0  0  0  0  0
    1.3660   24.7720  -25.0350 N   0  0  0  0  0  0  0  0  0  0  0  0
    0.9090   24.5220  -24.1290 H   0  0  0  0  0  0  0  0  0  0  0  0
    2.7960   25.0580  -24.9980 C   0  0  0  0  0  0  0  0  0  0  0  0
    3.1296   25.1247  -23.9519 H   0  0  0  0  0  0  0  0  0  0  0  0
    3.3445   24.2518  -25.5071 H   0  0  0  0  0  0  0  0  0  0  0  0
    2.9922   26.0132  -25.5071 H   0  0  0  0  0  0  0  0  0  0  0  0
   -1.7690   24.3390  -28.9280 C   0  0  0  0  0  0  0  0  0  0  0  0
   -1.7970   25.6680  -29.3350 O   0  0  0  0  0  0  0  0  0  0  0  0
   -2.8550   23.5300  -28.8960 N   0  0  0  0  0  0  0  0  0  0  0  0
   -4.2300   23.8870  -29.2510 C   0  0  0  0  0  0  0  0  0  0  0  0
   -4.5487   24.7470  -28.6437 H   0  0  0  0  0  0  0  0  0  0  0  0
   -4.8824   23.0227  -29.0577 H   0  0  0  0  0  0  0  0  0  0  0  0
   -4.3210   24.2430  -30.6840 N   0  0  0  0  0  0  0  0  0  0  0  0
   -5.2980   25.3270  -30.9270 C   0  0  0  0  0  0  0  0  0  0  0  0
   -5.9265   25.0625  -31.7901 H   0  0  0  0  0  0  0  0  0  0  0  0
   -4.7535   26.2610  -31.1299 H   0  0  0  0  0  0  0  0  0  0  0  0
   -6.1840   25.5250  -29.7010 C   0  0  0  0  0  0  0  0  0  0  0  0
   -5.5836   25.3908  -28.7892 H   0  0  0  0  0  0  0  0  0  0  0  0
   -6.6078   26.5400  -29.7149 H   0  0  0  0  0  0  0  0  0  0  0  0
   -6.9995   24.7870  -29.7149 H   0  0  0  0  0  0  0  0  0  0  0  0
   -4.5370   23.0710  -31.5680 C   0  0  0  0  0  0  0  0  0  0  0  0
   -3.9177   23.1990  -32.4680 H   0  0  0  0  0  0  0  0  0  0  0  0
   -4.2619   22.1801  -30.9844 H   0  0  0  0  0  0  0  0  0  0  0  0
   -5.9940   22.8760  -32.0100 C   0  0  0  0  0  0  0  0  0  0  0  0
   -6.6380   22.7898  -31.1224 H   0  0  0  0  0  0  0  0  0  0  0  0
   -6.3132   23.7394  -32.6122 H   0  0  0  0  0  0  0  0  0  0  0  0
   -6.0749   21.9590  -32.6122 H   0  0  0  0  0  0  0  0  0  0  0  0
   -2.4130   22.3420  -28.4230 C   0  0  0  0  0  0  0  0  0  0  0  0
   -3.1620   21.1920  -28.1650 C   0  0  0  0  0  0  0  0  0  0  0  0
   -4.2386   21.1555  -28.3877 H   0  0  0  0  0  0  0  0  0  0  0  0
  1  2  1  0
  2  3  2  0
  3  4  1  0
  3  5  1  0
  5  6  1  0
  5  7  2  0
  7  8  1  0
  8  9  1  0
  9 10  2  0
 10 11  1  0
 11 12  2  0
 11 13  1  0
 13 14  1  0
 13 15  1  0
 15 16  1  0
 15 17  1  0
 15 18  1  0
  8 19  2  0
 19 20  1  0
 19 21  1  0
 21 22  1  0
 22 23  1  0
 22 24  1  0
 22 25  1  0
 25 26  1  0
 26 27  1  0
 26 28  1  0
 26 29  1  0
 29 30  1  0
 29 31  1  0
 29 32  1  0
 25 33  1  0
 33 34  1  0
 33 35  1  0
 33 36  1  0
 36 37  1  0
 36 38  1  0
 36 39  1  0
 21 40  1  0
 40 41  2  0
 41 42  1  0
 41  2  1  0
 40  7  1  0
M  CHG  1  20  -1
M  END
>  <UniqueID>  (13) 
13

>  <SMILES>  (13) 
CCN(CC)Cn1c([O-])c(/N=N\C(=S)NC)c2cc(F)ccc21

>  <Energy>  (13) 
88.62112347452491

>  <Genealogy>  (13) 
CCN(CC)Cn1c([O-])c(N=NC(=S)NC)c2cc(F)ccc21 (protonated)
CCN(CC)Cn1c([O-])c(/N=N\C(=S)NC)c2cc(F)ccc21 (cis-trans isomerization)
CCN(CC)Cn1c([O-])c(/N=N\C(=S)NC)c2cc(F)ccc21 (3D coordinates assigned)
CCN(CC)Cn1c([O-])c(/N=N\C(=S)NC)c2cc(F)ccc21 (optimized conformer: 88.62112347452491 kcal/mol)

>  <smiles>  (13) 
CCN(CC)Cn1c(O)c(N=NC(=S)NC)c2cc(F)ccc21

>  <score_type>  (13) 
oracle

>  <origin>  (13) 
adg

>  <m_score__min__energy>  (13) 
-10.26

>  <m_primary>  (13) 
energy

$$$$
13:0
     RDKit          3D

 47 47  0  0  0  0  0  0  0  0999 V2000
   -8.2282   23.5204  -32.7007 H   0  0  0  0  0  0  0  0  0  0  0  0
   -7.6910   22.9620  -31.9200 C   0  0  0  0  0  0  0  0  0  0  0  0
   -8.1560   21.7360  -31.5970 C   0  0  0  0  0  0  0  0  0  0  0  0
   -7.3370   20.5330  -31.8850 C   0  0  0  0  0  0  0  0  0  0  0  0
   -6.2540   20.3330  -31.2680 O   0  0  0  0  0  0  0  0  0  0  0  0
   -7.7810   19.6080  -32.8400 O   0  0  0  0  0  0  0  0  0  0  0  0
   -8.1390   18.2610  -32.5300 C   0  0  0  0  0  0  0  0  0  0  0  0
   -9.0709   18.0053  -33.0556 H   0  0  0  0  0  0  0  0  0  0  0  0
   -8.2770   18.1741  -31.4422 H   0  0  0  0  0  0  0  0  0  0  0  0
   -7.0380   17.2940  -32.9630 C   0  0  0  0  0  0  0  0  0  0  0  0
   -7.4657   16.2873  -33.0798 H   0  0  0  0  0  0  0  0  0  0  0  0
   -6.2504   17.2847  -32.1951 H   0  0  0  0  0  0  0  0  0  0  0  0
   -6.4720   17.7060  -34.1950 O   0  0  0  0  0  0  0  0  0  0  0  0
   -5.1300   17.2710  -34.3270 C   0  0  0  0  0  0  0  0  0  0  0  0
   -5.0034   16.7874  -35.3068 H   0  0  0  0  0  0  0  0  0  0  0  0
   -4.9103   16.5616  -33.5156 H   0  0  0  0  0  0  0  0  0  0  0  0
   -4.1580   18.4490  -34.2210 C   0  0  0  0  0  0  0  0  0  0  0  0
   -4.1175   18.9726  -35.1875 H   0  0  0  0  0  0  0  0  0  0  0  0
   -3.1622   18.0648  -33.9549 H   0  0  0  0  0  0  0  0  0  0  0  0
   -4.5980   19.3900  -33.1790 N   0  0  0  0  0  0  0  0  0  0  0  0
   -5.6420   19.3660  -33.1100 H   0  0  0  0  0  0  0  0  0  0  0  0
   -4.1500   20.7710  -33.4330 C   0  0  0  0  0  0  0  0  0  0  0  0
   -4.8300   21.4644  -32.9165 H   0  0  0  0  0  0  0  0  0  0  0  0
   -4.1610   20.9344  -34.5207 H   0  0  0  0  0  0  0  0  0  0  0  0
   -2.7240   21.0180  -32.9360 C   0  0  0  0  0  0  0  0  0  0  0  0
   -2.7142   21.0197  -31.8360 H   0  0  0  0  0  0  0  0  0  0  0  0
   -2.0631   20.2210  -33.3073 H   0  0  0  0  0  0  0  0  0  0  0  0
   -2.3696   21.9909  -33.3073 H   0  0  0  0  0  0  0  0  0  0  0  0
   -9.4860   21.5420  -30.9080 C   0  0  0  0  0  0  0  0  0  0  0  0
   -9.3407   21.5632  -29.8178 H   0  0  0  0  0  0  0  0  0  0  0  0
  -10.1726   22.3495  -31.2022 H   0  0  0  0  0  0  0  0  0  0  0  0
   -9.9133   20.5720  -31.2022 H   0  0  0  0  0  0  0  0  0  0  0  0
   -6.5140   23.6100  -31.3030 C   0  0  0  0  0  0  0  0  0  0  0  0
   -5.2460   23.0400  -31.4820 C   0  0  0  0  0  0  0  0  0  0  0  0
   -5.1345   22.1367  -32.0998 H   0  0  0  0  0  0  0  0  0  0  0  0
   -4.1230   23.6130  -30.8800 C   0  0  0  0  0  0  0  0  0  0  0  0
   -3.1306   23.1673  -31.0425 H   0  0  0  0  0  0  0  0  0  0  0  0
   -4.2490   24.7490  -30.0720 C   0  0  0  0  0  0  0  0  0  0  0  0
   -3.0920   25.2880  -29.4920 O   0  0  0  0  0  0  0  0  0  0  0  0
   -2.3420   24.6580  -28.4580 C   0  0  0  0  0  0  0  0  0  0  0  0
   -2.7254   24.9801  -27.4786 H   0  0  0  0  0  0  0  0  0  0  0  0
   -2.4383   23.5660  -28.5484 H   0  0  0  0  0  0  0  0  0  0  0  0
   -1.2830   24.9414  -28.5484 H   0  0  0  0  0  0  0  0  0  0  0  0
   -5.5270   25.3050  -29.8670 C   0  0  0  0  0  0  0  0  0  0  0  0
   -5.6411   26.1939  -29.2291 H   0  0  0  0  0  0  0  0  0  0  0  0
   -6.6510   24.7330  -30.4700 C   0  0  0  0  0  0  0  0  0  0  0  0
   -7.6471   25.1641  -30.2915 H   0  0  0  0  0  0  0  0  0  0  0  0
  1  2  1  0
  2  3  2  0
  3  4  1  0
  4  5  2  0
  4  6  1  0
  6  7  1  0
  7  8  1  0
  7  9  1  0
  7 10  1  0
 10 11  1  0
 10 12  1  0
 10 13  1  0
 13 14  1  0
 14 15  1  0
 14 16  1  0
 14 17  1  0
 17 18  1  0
 17 19  1  0
 17 20  1  0
 20 21  1  0
 20 22  1  0
 22 23  1  0
 22 24  1  0
 22 25  1  0
 25 26  1  0
 25 27  1  0
 25 28  1  0
  3 29  1  0
 29 30  1  0
 29 31  1  0
 29 32  1  0
  2 33  1  0
 33 34  2  0
 34 35  1  0
 34 36  1  0
 36 37  1  0
 36 38  2  0
 38 39  1  0
 39 40  1  0
 40 41  1  0
 40 42  1  0
 40 43  1  0
 38 44  1  0
 44 45  1  0
 44 46  2  0
 46 47  1  0
 46 33  1  0
M  END
>  <UniqueID>  (14) 
14

>  <SMILES>  (14) 
CCNCCOCCOC(=O)/C(C)=C/c1ccc(OC)cc1

>  <Energy>  (14) 
47.65908921305371

>  <Genealogy>  (14) 
CCNCCOCCOC(=O)/C(C)=C/c1ccc(OC)cc1 (cis-trans isomerization)
CCNCCOCCOC(=O)/C(C)=C/c1ccc(OC)cc1 (3D coordinates assigned)
CCNCCOCCOC(=O)/C(C)=C/c1ccc(OC)cc1 (optimized conformer: 47.65908921305371 kcal/mol)

>  <smiles>  (14) 
CCNCCOCCOC(=O)C(C)=Cc1ccc(OC)cc1

>  <score_type>  (14) 
oracle

>  <origin>  (14) 
adg

>  <m_score__min__energy>  (14) 
-6.6699999999999999

>  <m_primary>  (14) 
energy

$$$$
14:0
     RDKit          3D

 41 42  0  0  0  0  0  0  0  0999 V2000
   -3.2790   22.4590  -30.3670 C   0  0  0  0  0  0  0  0  0  0  0  0
   -3.5420   23.9630  -30.4610 C   0  0  0  0  0  0  0  0  0  0  0  0
   -4.9490   24.2600  -30.8110 N   0  0  0  0  0  0  0  0  0  0  0  0
   -5.3270   25.6540  -30.4870 C   0  0  0  0  0  0  0  0  0  0  0  0
   -6.4130   25.6590  -29.4180 C   0  0  0  0  0  0  0  0  0  0  0  0
   -5.9410   23.2710  -30.3170 C   0  0  0  0  0  0  0  0  0  0  0  0
   -7.0570   22.9300  -31.3260 C   0  0  0  0  0  0  0  0  0  0  0  0
   -6.4830   22.3810  -32.5540 N   0  0  0  0  0  0  0  0  0  0  0  0
   -6.4470   20.9700  -32.7920 C   0  0  0  0  0  0  0  0  0  0  0  0
   -5.2360   20.3160  -33.1580 C   0  0  0  0  0  0  0  0  0  0  0  0
   -4.0390   21.0620  -33.4520 N   0  0  0  0  0  0  0  0  0  0  0  0
   -4.0470   22.3100  -33.4650 O   0  0  0  0  0  0  0  0  0  0  0  0
   -2.8890   20.4060  -33.8290 O   0  0  0  0  0  0  0  0  0  0  0  0
   -5.1970   18.8960  -33.2110 C   0  0  0  0  0  0  0  0  0  0  0  0
   -6.3370   18.1140  -32.9200 C   0  0  0  0  0  0  0  0  0  0  0  0
   -6.2820   16.6750  -32.9710 N   0  0  0  0  0  0  0  0  0  0  0  0
   -6.9380   16.0390  -33.8210 O   0  0  0  0  0  0  0  0  0  0  0  0
   -5.5040   15.9760  -32.0780 O   0  0  0  0  0  0  0  0  0  0  0  0
   -7.5080   18.8020  -32.5940 C   0  0  0  0  0  0  0  0  0  0  0  0
   -8.7250   18.3020  -32.2980 N   0  0  0  0  0  0  0  0  0  0  0  0
   -9.4810   19.3510  -32.0960 O   0  0  0  0  0  0  0  0  0  0  0  0
   -8.8380   20.4770  -32.2330 N   0  0  0  0  0  0  0  0  0  0  0  0
   -9.4440   21.7140  -32.1890 O   0  0  0  0  0  0  0  0  0  0  0  0
   -7.5670   20.1650  -32.5490 C   0  0  0  0  0  0  0  0  0  0  0  0
   -3.2269   22.1613  -29.3093 H   0  0  0  0  0  0  0  0  0  0  0  0
   -4.0952   21.9124  -30.8620 H   0  0  0  0  0  0  0  0  0  0  0  0
   -2.3258   22.2218  -30.8620 H   0  0  0  0  0  0  0  0  0  0  0  0
   -3.3129   24.4248  -29.4893 H   0  0  0  0  0  0  0  0  0  0  0  0
   -2.9011   24.3705  -31.2568 H   0  0  0  0  0  0  0  0  0  0  0  0
   -4.4446   26.1943  -30.1137 H   0  0  0  0  0  0  0  0  0  0  0  0
   -5.7074   26.1473  -31.3936 H   0  0  0  0  0  0  0  0  0  0  0  0
   -5.9468   25.6569  -28.4217 H   0  0  0  0  0  0  0  0  0  0  0  0
   -7.0339   26.5600  -29.5303 H   0  0  0  0  0  0  0  0  0  0  0  0
   -7.0422   24.7637  -29.5303 H   0  0  0  0  0  0  0  0  0  0  0  0
   -5.4065   22.3423  -30.0682 H   0  0  0  0  0  0  0  0  0  0  0  0
   -6.4337   23.7283  -29.4463 H   0  0  0  0  0  0  0  0  0  0  0  0
   -7.7351   22.1879  -30.8794 H   0  0  0  0  0  0  0  0  0  0  0  0
   -7.6105   23.8487  -31.5702 H   0  0  0  0  0  0  0  0  0  0  0  0
   -6.1170   23.0290  -33.2870 H   0  0  0  0  0  0  0  0  0  0  0  0
   -4.2572   18.3943  -33.4850 H   0  0  0  0  0  0  0  0  0  0  0  0
  -10.4340   21.8220  -32.0190 H   0  0  0  0  0  0  0  0  0  0  0  0
  1  2  1  0
  2  3  1  0
  3  4  1  0
  4  5  1  0
  3  6  1  0
  6  7  1  0
  7  8  1  0
  8  9  1  0
  9 10  2  0
 10 11  1  0
 11 12  2  0
 11 13  1  0
 10 14  1  0
 14 15  2  0
 15 16  1  0
 16 17  2  0
 16 18  1  0
 15 19  1  0
 19 20  2  0
 20 21  1  0
 21 22  1  0
 22 23  1  0
 22 24  2  0
 24  9  1  0
 24 19  1  0
  1 25  1  0
  1 26  1  0
  1 27  1  0
  2 28  1  0
  2 29  1  0
  4 30  1  0
  4 31  1  0
  5 32  1  0
  5 33  1  0
  5 34  1  0
  6 35  1  0
  6 36  1  0
  7 37  1  0
  7 38  1  0
  8 39  1  0
 14 40  1  0
 23 41  1  0
M  CHG  5  11   1  13  -1  16   1  18  -1  22   1
M  END
>  <UniqueID>  (15) 
15

>  <SMILES>  (15) 
CCN(CC)CCNc1c([N+](=O)[O-])cc([N+](=O)[O-])c2no[n+](O)c12

>  <Energy>  (15) 
99.20837261237412

>  <Genealogy>  (15) 
CCN(CC)CCNc1c([N+](=O)[O-])cc([N+](=O)[O-])c2no[n+](O)c12 (protonated)
CCN(CC)CCNc1c([N+](=O)[O-])cc([N+](=O)[O-])c2no[n+](O)c12 (3D coordinates assigned)
CCN(CC)CCNc1c([N+](=O)[O-])cc([N+](=O)[O-])c2no[n+](O)c12 (optimized conformer: 99.20837261237412 kcal/mol)

>  <smiles>  (15) 
CCN(CC)CCNc1c([N+](=O)[O-])cc([N+](=O)[O-])c2no[n+]([O-])c12

>  <score_type>  (15) 
oracle

>  <origin>  (15) 
adg

>  <m_score__min__energy>  (15) 
-7.2199999999999998

>  <m_primary>  (15) 
energy

$$$$
15:0
     RDKit          3D

 43 44  0  0  0  0  0  0  0  0999 V2000
   -8.9700   22.6990  -31.9580 C   0  0  0  0  0  0  0  0  0  0  0  0
   -7.6960   23.4660  -32.2850 C   0  0  0  0  0  0  0  0  0  0  0  0
   -6.8090   23.4840  -31.1030 N   0  0  0  0  0  0  0  0  0  0  0  0
   -7.3840   22.7720  -29.9510 C   0  0  0  0  0  0  0  0  0  0  0  0
   -6.2720   24.8290  -30.7760 C   0  0  0  0  0  0  0  0  0  0  0  0
   -4.9370   24.8330  -30.0070 C   0  0  0  0  0  0  0  0  0  0  0  0
   -3.8720   24.4640  -30.8590 O   0  0  0  0  0  0  0  0  0  0  0  0
   -3.1420   23.3870  -30.3050 C   0  0  0  0  0  0  0  0  0  0  0  0
   -3.6870   22.0760  -30.7870 C   0  0  0  0  0  0  0  0  0  0  0  0
   -3.1730   21.0020  -30.3690 O   0  0  0  0  0  0  0  0  0  0  0  0
   -4.7530   22.0460  -31.7470 N   0  0  0  0  0  0  0  0  0  0  0  0
   -5.2560   20.8190  -32.2950 C   0  0  0  0  0  0  0  0  0  0  0  0
   -6.6000   20.4910  -32.0730 C   0  0  0  0  0  0  0  0  0  0  0  0
   -7.1480   19.3260  -32.6140 C   0  0  0  0  0  0  0  0  0  0  0  0
   -8.9880   18.9110  -32.3140 Br  0  0  0  0  0  0  0  0  0  0  0  0
   -6.3560   18.4680  -33.3790 C   0  0  0  0  0  0  0  0  0  0  0  0
   -5.0000   18.7600  -33.5920 C   0  0  0  0  0  0  0  0  0  0  0  0
   -4.2010   17.8830  -34.3410 C   0  0  0  0  0  0  0  0  0  0  0  0
   -2.8440   18.1530  -34.5290 C   0  0  0  0  0  0  0  0  0  0  0  0
   -2.2730   19.2960  -33.9640 C   0  0  0  0  0  0  0  0  0  0  0  0
   -3.0560   20.1790  -33.2170 C   0  0  0  0  0  0  0  0  0  0  0  0
   -4.4330   19.9370  -33.0370 C   0  0  0  0  0  0  0  0  0  0  0  0
   -9.0860   22.6292  -30.8664 H   0  0  0  0  0  0  0  0  0  0  0  0
   -9.8355   23.2263  -32.3857 H   0  0  0  0  0  0  0  0  0  0  0  0
   -8.9090   21.6874  -32.3857 H   0  0  0  0  0  0  0  0  0  0  0  0
   -7.1788   22.9758  -33.1230 H   0  0  0  0  0  0  0  0  0  0  0  0
   -7.9534   24.4986  -32.5635 H   0  0  0  0  0  0  0  0  0  0  0  0
   -7.0171   23.2263  -29.0188 H   0  0  0  0  0  0  0  0  0  0  0  0
   -8.4811   22.8430  -29.9865 H   0  0  0  0  0  0  0  0  0  0  0  0
   -7.0837   21.7144  -29.9865 H   0  0  0  0  0  0  0  0  0  0  0  0
   -6.1229   25.3745  -31.7195 H   0  0  0  0  0  0  0  0  0  0  0  0
   -7.0100   25.2985  -30.1089 H   0  0  0  0  0  0  0  0  0  0  0  0
   -4.7506   25.8423  -29.6114 H   0  0  0  0  0  0  0  0  0  0  0  0
   -5.0000   24.1072  -29.1828 H   0  0  0  0  0  0  0  0  0  0  0  0
   -2.0874   23.4725  -30.6059 H   0  0  0  0  0  0  0  0  0  0  0  0
   -3.2297   23.4259  -29.2092 H   0  0  0  0  0  0  0  0  0  0  0  0
   -5.0060   22.9370  -32.2300 H   0  0  0  0  0  0  0  0  0  0  0  0
   -7.2300   21.1581  -31.4663 H   0  0  0  0  0  0  0  0  0  0  0  0
   -6.7963   17.5598  -33.8164 H   0  0  0  0  0  0  0  0  0  0  0  0
   -4.6456   16.9787  -34.7821 H   0  0  0  0  0  0  0  0  0  0  0  0
   -2.2240   17.4651  -35.1225 H   0  0  0  0  0  0  0  0  0  0  0  0
   -1.2020   19.5015  -34.1081 H   0  0  0  0  0  0  0  0  0  0  0  0
   -2.5947   21.0699  -32.7658 H   0  0  0  0  0  0  0  0  0  0  0  0
  1  2  1  0
  2  3  1  0
  3  4  1  0
  3  5  1  0
  5  6  1  0
  6  7  1  0
  7  8  1  0
  8  9  1  0
  9 10  2  0
  9 11  1  0
 11 12  1  0
 12 13  2  0
 13 14  1  0
 14 15  1  0
 14 16  2  0
 16 17  1  0
 17 18  2  0
 18 19  1  0
 19 20  2  0
 20 21  1  0
 21 22  2  0
 22 12  1  0
 22 17  1  0
  1 23  1  0
  1 24  1  0
  1 25  1  0
  2 26  1  0
  2 27  1  0
  4 28  1  0
  4 29  1  0
  4 30  1  0
  5 31  1  0
  5 32  1  0
  6 33  1  0
  6 34  1  0
  8 35  1  0
  8 36  1  0
 11 37  1  0
 13 38  1  0
 16 39  1  0
 18 40  1  0
 19 41  1  0
 20 42  1  0
 21 43  1  0
M  END
>  <UniqueID>  (16) 
16

>  <SMILES>  (16) 
CCN(C)CCOCC(=O)Nc1cc(Br)cc2ccccc12

>  <Energy>  (16) 
55.92289339543548

>  <Genealogy>  (16) 
CCN(C)CCOCC(=O)Nc1cc(Br)cc2ccccc12 (3D coordinates assigned)
CCN(C)CCOCC(=O)Nc1cc(Br)cc2ccccc12 (optimized conformer: 55.92289339543548 kcal/mol)

>  <smiles>  (16) 
CCN(C)CCOCC(=O)Nc1cc(Br)cc2ccccc12

>  <score_type>  (16) 
oracle

>  <origin>  (16) 
adg

>  <m_score__min__energy>  (16) 
-8.4399999999999995

>  <m_primary>  (16) 
energy

$$$$
16:0
     RDKit          3D

 58 60  0  0  0  0  0  0  0  0999 V2000
   -4.8220   15.5860  -32.5530 C   0  0  0  0  0  0  0  0  0  0  0  0
   -5.4760   15.1660  -33.8650 C   0  0  0  0  0  0  0  0  0  0  0  0
   -6.5360   16.0590  -34.2100 O   0  0  0  0  0  0  0  0  0  0  0  0
   -6.7260   17.3470  -33.6820 C   0  0  0  0  0  0  0  0  0  0  0  0
   -6.0840   18.4880  -34.2010 C   0  0  0  0  0  0  0  0  0  0  0  0
   -6.3080   19.7440  -33.6320 C   0  0  0  0  0  0  0  0  0  0  0  0
   -7.1800   19.8880  -32.5390 C   0  0  0  0  0  0  0  0  0  0  0  0
   -7.4010   21.1820  -31.9450 N   0  0  0  0  0  0  0  0  0  0  0  0
   -7.8220   21.2860  -30.5420 C   0  0  0  0  0  0  0  0  0  0  0  0
   -7.6330   22.7190  -30.0170 C   0  0  0  0  0  0  0  0  0  0  0  0
   -6.3400   23.2740  -30.4800 N   0  0  0  0  0  0  0  0  0  0  0  0
   -5.9420   24.5460  -29.8060 C   0  0  0  0  0  0  0  0  0  0  0  0
   -4.4200   24.8420  -29.6230 C   0  0  2  0  0  0  0  0  0  0  0  0
   -3.8970   25.5790  -30.6970 O   0  0  0  0  0  0  0  0  0  0  0  0
   -3.5430   23.6060  -29.3770 C   0  0  0  0  0  0  0  0  0  0  0  0
   -3.4920   22.7660  -30.5300 O   0  0  0  0  0  0  0  0  0  0  0  0
   -2.3930   21.9940  -30.9450 C   0  0  0  0  0  0  0  0  0  0  0  0
   -1.2630   21.7960  -30.1250 C   0  0  0  0  0  0  0  0  0  0  0  0
   -0.1910   21.0220  -30.5770 C   0  0  0  0  0  0  0  0  0  0  0  0
   -0.2310   20.4420  -31.8460 C   0  0  0  0  0  0  0  0  0  0  0  0
   -1.3430   20.6330  -32.6690 C   0  0  0  0  0  0  0  0  0  0  0  0
   -2.4250   21.4120  -32.2270 C   0  0  0  0  0  0  0  0  0  0  0  0
   -3.6250   21.6060  -33.1130 C   0  0  0  0  0  0  0  0  0  0  0  0
   -6.2100   23.3390  -31.9650 C   0  0  0  0  0  0  0  0  0  0  0  0
   -7.1900   22.4160  -32.7100 C   0  0  0  0  0  0  0  0  0  0  0  0
   -7.8080   18.7460  -32.0160 C   0  0  0  0  0  0  0  0  0  0  0  0
   -7.5830   17.4900  -32.5860 C   0  0  0  0  0  0  0  0  0  0  0  0
   -5.4155   15.2048  -31.7089 H   0  0  0  0  0  0  0  0  0  0  0  0
   -3.8040   15.1723  -32.5018 H   0  0  0  0  0  0  0  0  0  0  0  0
   -4.7747   16.6838  -32.5018 H   0  0  0  0  0  0  0  0  0  0  0  0
   -4.7206   15.1765  -34.6645 H   0  0  0  0  0  0  0  0  0  0  0  0
   -5.8911   14.1544  -33.7450 H   0  0  0  0  0  0  0  0  0  0  0  0
   -5.4026   18.3897  -35.0589 H   0  0  0  0  0  0  0  0  0  0  0  0
   -5.7977   20.6277  -34.0427 H   0  0  0  0  0  0  0  0  0  0  0  0
   -8.8841   21.0108  -30.4634 H   0  0  0  0  0  0  0  0  0  0  0  0
   -7.2032   20.6060  -29.9381 H   0  0  0  0  0  0  0  0  0  0  0  0
   -8.4525   23.3518  -30.3885 H   0  0  0  0  0  0  0  0  0  0  0  0
   -7.6385   22.6989  -28.9172 H   0  0  0  0  0  0  0  0  0  0  0  0
   -5.6190   22.5780  -30.1720 H   0  0  0  0  0  0  0  0  0  0  0  0
   -6.3661   25.3729  -30.3945 H   0  0  0  0  0  0  0  0  0  0  0  0
   -6.3232   24.4401  -28.7796 H   0  0  0  0  0  0  0  0  0  0  0  0
   -4.3804   25.4412  -28.7014 H   0  0  0  0  0  0  0  0  0  0  0  0
   -3.4880   24.9270  -31.3260 H   0  0  0  0  0  0  0  0  0  0  0  0
   -2.5231   23.9345  -29.1281 H   0  0  0  0  0  0  0  0  0  0  0  0
   -3.9807   23.0302  -28.5482 H   0  0  0  0  0  0  0  0  0  0  0  0
   -1.2252   22.2529  -29.1251 H   0  0  0  0  0  0  0  0  0  0  0  0
    0.6864   20.8694  -29.9313 H   0  0  0  0  0  0  0  0  0  0  0  0
    0.6148   19.8334  -32.1984 H   0  0  0  0  0  0  0  0  0  0  0  0
   -1.3716   20.1716  -33.6672 H   0  0  0  0  0  0  0  0  0  0  0  0
   -4.5205   21.7508  -32.4909 H   0  0  0  0  0  0  0  0  0  0  0  0
   -3.4727   22.4912  -33.7480 H   0  0  0  0  0  0  0  0  0  0  0  0
   -3.7593   20.7179  -33.7480 H   0  0  0  0  0  0  0  0  0  0  0  0
   -6.3959   24.3748  -32.2854 H   0  0  0  0  0  0  0  0  0  0  0  0
   -5.1939   22.9998  -32.2151 H   0  0  0  0  0  0  0  0  0  0  0  0
   -8.1520   22.9339  -32.8376 H   0  0  0  0  0  0  0  0  0  0  0  0
   -6.7682   22.1621  -33.6937 H   0  0  0  0  0  0  0  0  0  0  0  0
   -8.4817   18.8407  -31.1516 H   0  0  0  0  0  0  0  0  0  0  0  0
   -8.0851   16.6048  -32.1684 H   0  0  0  0  0  0  0  0  0  0  0  0
  1  2  1  0
  2  3  1  0
  3  4  1  0
  4  5  2  0
  5  6  1  0
  6  7  2  0
  7  8  1  0
  8  9  1  0
  9 10  1  0
 10 11  1  0
 11 12  1  0
 12 13  1  0
 13 14  1  0
 13 15  1  0
 15 16  1  0
 16 17  1  0
 17 18  2  0
 18 19  1  0
 19 20  2  0
 20 21  1  0
 21 22  2  0
 22 23  1  0
 11 24  1  0
 24 25  1  0
  7 26  1  0
 26 27  2  0
 27  4  1  0
 25  8  1  0
 22 17  1  0
  1 28  1  0
  1 29  1  0
  1 30  1  0
  2 31  1  0
  2 32  1  0
  5 33  1  0
  6 34  1  0
  9 35  1  0
  9 36  1  0
 10 37  1  0
 10 38  1  0
 11 39  1  0
 12 40  1  0
 12 41  1  0
 13 42  1  1
 14 43  1  0
 15 44  1  0
 15 45  1  0
 18 46  1  0
 19 47  1  0
 20 48  1  0
 21 49  1  0
 23 50  1  0
 23 51  1  0
 23 52  1  0
 24 53  1  0
 24 54  1  0
 25 55  1  0
 25 56  1  0
 26 57  1  0
 27 58  1  0
M  CHG  1  11   1
M  END
>  <UniqueID>  (17) 
17

>  <SMILES>  (17) 
CCOc1ccc(N2CC[NH+](C[C@H](O)COc3ccccc3C)CC2)cc1

>  <Energy>  (17) 
74.20384893801157

>  <Genealogy>  (17) 
CCOc1ccc(N2CC[NH+](CC(O)COc3ccccc3C)CC2)cc1 (protonated)
CCOc1ccc(N2CC[NH+](C[C@H](O)COc3ccccc3C)CC2)cc1 (chirality)
CCOc1ccc(N2CC[NH+](C[C@H](O)COc3ccccc3C)CC2)cc1 (3D coordinates assigned)
CCOc1ccc(N2CC[NH+](C[C@H](O)COc3ccccc3C)CC2)cc1 (nonaromatic ring conformer: 74.20384893801157 kcal/mol)

>  <smiles>  (17) 
CCOc1ccc(N2CCN(CC(O)COc3ccccc3C)CC2)cc1

>  <score_type>  (17) 
oracle

>  <origin>  (17) 
adg

>  <m_score__min__energy>  (17) 
-8.0700000000000003

>  <m_primary>  (17) 
energy

$$$$
17:0
     RDKit          3D

 59 61  0  0  0  0  0  0  0  0999 V2000
    1.8420   24.7560  -35.7530 C   0  0  0  0  0  0  0  0  0  0  0  0
    0.4030   24.3960  -36.1010 C   0  0  0  0  0  0  0  0  0  0  0  0
    0.1580   22.9750  -35.8320 N   0  0  0  0  0  0  0  0  0  0  0  0
    1.3800   22.3350  -35.3330 C   0  0  0  0  0  0  0  0  0  0  0  0
    1.0420   20.9650  -34.7310 C   0  0  0  0  0  0  0  0  0  0  0  0
    0.0830   21.0690  -33.5410 C   0  0  0  0  0  0  0  0  0  0  0  0
   -1.3170   21.1530  -34.0010 N   0  0  0  0  0  0  0  0  0  0  0  0
   -2.2570   21.5250  -32.9330 C   0  0  0  0  0  0  0  0  0  0  0  0
   -3.7200   21.3970  -33.3940 C   0  0  0  0  0  0  0  0  0  0  0  0
   -4.4610   20.3830  -32.6100 N   0  0  0  0  0  0  0  0  0  0  0  0
   -5.6570   20.9380  -31.9930 C   0  0  0  0  0  0  0  0  0  0  0  0
   -5.6190   22.2010  -31.3620 C   0  0  0  0  0  0  0  0  0  0  0  0
   -4.4340   22.6950  -30.7790 C   0  0  0  0  0  0  0  0  0  0  0  0
   -4.4080   23.9480  -30.1710 C   0  0  0  0  0  0  0  0  0  0  0  0
   -5.5640   24.7200  -30.1180 C   0  0  0  0  0  0  0  0  0  0  0  0
   -6.7510   24.2450  -30.6730 C   0  0  0  0  0  0  0  0  0  0  0  0
   -6.8010   22.9810  -31.3120 C   0  0  0  0  0  0  0  0  0  0  0  0
   -7.9620   22.4980  -31.8780 N   0  0  0  0  0  0  0  0  0  0  0  0
   -9.0830   23.4170  -32.1660 C   0  0  0  0  0  0  0  0  0  0  0  0
   -8.0830   21.1450  -32.1270 C   0  0  0  0  0  0  0  0  0  0  0  0
   -9.3510   20.5500  -32.3310 C   0  0  0  0  0  0  0  0  0  0  0  0
   -9.4840   19.1760  -32.4810 C   0  0  0  0  0  0  0  0  0  0  0  0
   -8.3740   18.3530  -32.3760 C   0  0  0  0  0  0  0  0  0  0  0  0
   -7.0970   18.8900  -32.1860 C   0  0  0  0  0  0  0  0  0  0  0  0
   -5.8070   17.7090  -31.7200 S   0  0  0  0  0  0  0  0  0  0  0  0
   -5.9580   16.6930  -33.2290 C   0  0  0  0  0  0  0  0  0  0  0  0
   -6.9250   20.3090  -32.1300 C   0  0  0  0  0  0  0  0  0  0  0  0
    1.9585   24.7851  -34.6596 H   0  0  0  0  0  0  0  0  0  0  0  0
    2.5212   24.0001  -36.1741 H   0  0  0  0  0  0  0  0  0  0  0  0
    2.0852   25.7427  -36.1741 H   0  0  0  0  0  0  0  0  0  0  0  0
   -0.2815   25.0046  -35.4918 H   0  0  0  0  0  0  0  0  0  0  0  0
    0.2313   24.5943  -37.1693 H   0  0  0  0  0  0  0  0  0  0  0  0
   -0.5660   22.9140  -35.0760 H   0  0  0  0  0  0  0  0  0  0  0  0
    2.0887   22.2037  -36.1640 H   0  0  0  0  0  0  0  0  0  0  0  0
    1.8314   22.9707  -34.5571 H   0  0  0  0  0  0  0  0  0  0  0  0
    0.5737   20.3436  -35.5085 H   0  0  0  0  0  0  0  0  0  0  0  0
    1.9793   20.5186  -34.3675 H   0  0  0  0  0  0  0  0  0  0  0  0
    0.2006   20.1796  -32.9045 H   0  0  0  0  0  0  0  0  0  0  0  0
    0.3228   21.9806  -32.9739 H   0  0  0  0  0  0  0  0  0  0  0  0
   -1.3710   21.8950  -34.7380 H   0  0  0  0  0  0  0  0  0  0  0  0
   -2.0959   20.8630  -32.0694 H   0  0  0  0  0  0  0  0  0  0  0  0
   -2.0725   22.5754  -32.6635 H   0  0  0  0  0  0  0  0  0  0  0  0
   -4.2167   22.3712  -33.2745 H   0  0  0  0  0  0  0  0  0  0  0  0
   -3.7182   21.0783  -34.4468 H   0  0  0  0  0  0  0  0  0  0  0  0
   -3.8480   19.9550  -31.8800 H   0  0  0  0  0  0  0  0  0  0  0  0
   -4.7260   19.6470  -33.2900 H   0  0  0  0  0  0  0  0  0  0  0  0
   -3.5197   22.0840  -30.8046 H   0  0  0  0  0  0  0  0  0  0  0  0
   -3.4731   24.3271  -29.7326 H   0  0  0  0  0  0  0  0  0  0  0  0
   -5.5412   25.7087  -29.6364 H   0  0  0  0  0  0  0  0  0  0  0  0
   -7.6614   24.8596  -30.6142 H   0  0  0  0  0  0  0  0  0  0  0  0
   -9.5174   23.7731  -31.2202 H   0  0  0  0  0  0  0  0  0  0  0  0
   -8.7136   24.2755  -32.7461 H   0  0  0  0  0  0  0  0  0  0  0  0
   -9.8524   22.8864  -32.7461 H   0  0  0  0  0  0  0  0  0  0  0  0
  -10.2467   21.1872  -32.3714 H   0  0  0  0  0  0  0  0  0  0  0  0
  -10.4732   18.7396  -32.6837 H   0  0  0  0  0  0  0  0  0  0  0  0
   -8.4992   17.2622  -32.4430 H   0  0  0  0  0  0  0  0  0  0  0  0
   -6.1144   15.6409  -32.9485 H   0  0  0  0  0  0  0  0  0  0  0  0
   -6.8137   17.0450  -33.8239 H   0  0  0  0  0  0  0  0  0  0  0  0
   -5.0369   16.7809  -33.8239 H   0  0  0  0  0  0  0  0  0  0  0  0
  1  2  1  0
  2  3  1  0
  3  4  1  0
  4  5  1  0
  5  6  1  0
  6  7  1  0
  7  8  1  0
  8  9  1  0
  9 10  1  0
 10 11  1  0
 11 12  2  0
 12 13  1  0
 13 14  2  0
 14 15  1  0
 15 16  2  0
 16 17  1  0
 17 18  2  0
 18 19  1  0
 18 20  1  0
 20 21  2  0
 21 22  1  0
 22 23  2  0
 23 24  1  0
 24 25  1  0
 25 26  1  0
 24 27  2  0
 27 11  1  0
 17 12  1  0
 27 20  1  0
  1 28  1  0
  1 29  1  0
  1 30  1  0
  2 31  1  0
  2 32  1  0
  3 33  1  0
  4 34  1  0
  4 35  1  0
  5 36  1  0
  5 37  1  0
  6 38  1  0
  6 39  1  0
  7 40  1  0
  8 41  1  0
  8 42  1  0
  9 43  1  0
  9 44  1  0
 10 45  1  0
 10 46  1  0
 13 47  1  0
 14 48  1  0
 15 49  1  0
 16 50  1  0
 19 51  1  0
 19 52  1  0
 19 53  1  0
 21 54  1  0
 22 55  1  0
 23 56  1  0
 26 57  1  0
 26 58  1  0
 26 59  1  0
M  CHG  2  10   1  18   1
M  END
>  <UniqueID>  (18) 
18

>  <SMILES>  (18) 
CCNCCCNCC[NH2+]c1c2ccccc2[n+](C)c2cccc(SC)c12

>  <Energy>  (18) 
90.73631016615847

>  <Genealogy>  (18) 
CCNCCCNCC[NH2+]c1c2ccccc2[n+](C)c2cccc(SC)c12 (protonated)
CCNCCCNCC[NH2+]c1c2ccccc2[n+](C)c2cccc(SC)c12 (3D coordinates assigned)
CCNCCCNCC[NH2+]c1c2ccccc2[n+](C)c2cccc(SC)c12 (optimized conformer: 90.73631016615847 kcal/mol)

>  <smiles>  (18) 
CCNCCCNCCNc1c2ccccc2[n+](C)c2cccc(SC)c12

>  <score_type>  (18) 
oracle

>  <origin>  (18) 
adg

>  <m_score__min__energy>  (18) 
-8.2599999999999998

>  <m_primary>  (18) 
energy

$$$$
18:0
     RDKit          3D

 64 66  0  0  0  0  0  0  0  0999 V2000
    1.0620   18.8510  -31.8580 C   0  0  0  0  0  0  0  0  0  0  0  0
    0.9980   18.2070  -30.4710 C   0  0  0  0  0  0  0  0  0  0  0  0
   -0.0230   18.8500  -29.6090 N   0  0  0  0  0  0  0  0  0  0  0  0
    0.1330   18.5290  -28.1770 C   0  0  0  0  0  0  0  0  0  0  0  0
   -0.9350   19.2120  -27.3050 C   0  0  0  0  0  0  0  0  0  0  0  0
   -0.6700   20.7120  -27.1780 C   0  0  0  0  0  0  0  0  0  0  0  0
    0.0990   21.1420  -28.2830 O   0  0  0  0  0  0  0  0  0  0  0  0
   -0.6040   22.1510  -28.9780 C   0  0  0  0  0  0  0  0  0  0  0  0
   -2.0160   21.6710  -29.2920 C   0  0  0  0  0  0  0  0  0  0  0  0
   -1.9490   20.5320  -30.1250 O   0  0  0  0  0  0  0  0  0  0  0  0
   -2.9880   20.5460  -31.0880 C   0  0  0  0  0  0  0  0  0  0  0  0
   -2.5070   21.1970  -32.3890 C   0  0  0  0  0  0  0  0  0  0  0  0
   -3.6360   21.6380  -33.2050 N   0  0  0  0  0  0  0  0  0  0  0  0
   -4.9780   21.4270  -32.7390 C   0  0  0  0  0  0  0  0  0  0  0  0
   -5.5980   22.3810  -31.9130 C   0  0  0  0  0  0  0  0  0  0  0  0
   -4.9110   23.5400  -31.4910 C   0  0  0  0  0  0  0  0  0  0  0  0
   -5.5390   24.4790  -30.6750 C   0  0  0  0  0  0  0  0  0  0  0  0
   -6.8560   24.2850  -30.2720 C   0  0  0  0  0  0  0  0  0  0  0  0
   -7.5590   23.1580  -30.6950 C   0  0  0  0  0  0  0  0  0  0  0  0
   -6.9530   22.1940  -31.5360 C   0  0  0  0  0  0  0  0  0  0  0  0
   -7.6560   21.1000  -31.9990 N   0  0  0  0  0  0  0  0  0  0  0  0
   -9.1280   21.1830  -32.0720 C   0  0  0  0  0  0  0  0  0  0  0  0
   -6.9800   20.0340  -32.5700 C   0  0  0  0  0  0  0  0  0  0  0  0
   -7.5460   18.7220  -32.6900 C   0  0  0  0  0  0  0  0  0  0  0  0
   -8.7250   18.2440  -31.8770 C   0  0  0  0  0  0  0  0  0  0  0  0
   -6.9040   17.7610  -33.4880 C   0  0  0  0  0  0  0  0  0  0  0  0
   -5.6680   18.0280  -34.0620 C   0  0  0  0  0  0  0  0  0  0  0  0
   -5.0280   19.2340  -33.8130 C   0  0  0  0  0  0  0  0  0  0  0  0
   -5.6570   20.2360  -33.0520 C   0  0  0  0  0  0  0  0  0  0  0  0
    1.1703   19.9405  -31.7518 H   0  0  0  0  0  0  0  0  0  0  0  0
    1.9246   18.4489  -32.4095 H   0  0  0  0  0  0  0  0  0  0  0  0
    0.1371   18.6265  -32.4095 H   0  0  0  0  0  0  0  0  0  0  0  0
    0.7476   17.1419  -30.5847 H   0  0  0  0  0  0  0  0  0  0  0  0
    1.9792   18.3348  -29.9904 H   0  0  0  0  0  0  0  0  0  0  0  0
    0.0760   19.8880  -29.7050 H   0  0  0  0  0  0  0  0  0  0  0  0
   -0.9970   18.6140  -29.9170 H   0  0  0  0  0  0  0  0  0  0  0  0
    0.0512   17.4397  -28.0479 H   0  0  0  0  0  0  0  0  0  0  0  0
    1.1174   18.8994  -27.8547 H   0  0  0  0  0  0  0  0  0  0  0  0
   -1.9232   19.0600  -27.7636 H   0  0  0  0  0  0  0  0  0  0  0  0
   -0.9005   18.7664  -26.2999 H   0  0  0  0  0  0  0  0  0  0  0  0
   -1.6266   21.2548  -27.1617 H   0  0  0  0  0  0  0  0  0  0  0  0
   -0.1227   20.9135  -26.2453 H   0  0  0  0  0  0  0  0  0  0  0  0
   -0.6557   23.0560  -28.3548 H   0  0  0  0  0  0  0  0  0  0  0  0
   -0.0795   22.3787  -29.9177 H   0  0  0  0  0  0  0  0  0  0  0  0
   -2.5322   21.4115  -28.3560 H   0  0  0  0  0  0  0  0  0  0  0  0
   -2.5705   22.4702  -29.8056 H   0  0  0  0  0  0  0  0  0  0  0  0
   -3.3029   19.5127  -31.2955 H   0  0  0  0  0  0  0  0  0  0  0  0
   -3.8326   21.1280  -30.6907 H   0  0  0  0  0  0  0  0  0  0  0  0
   -1.8788   22.0664  -32.1449 H   0  0  0  0  0  0  0  0  0  0  0  0
   -1.9323   20.4531  -32.9603 H   0  0  0  0  0  0  0  0  0  0  0  0
   -3.4950   21.7430  -34.2350 H   0  0  0  0  0  0  0  0  0  0  0  0
   -3.8707   23.7032  -31.8092 H   0  0  0  0  0  0  0  0  0  0  0  0
   -4.9918   25.3758  -30.3488 H   0  0  0  0  0  0  0  0  0  0  0  0
   -7.3440   25.0226  -29.6179 H   0  0  0  0  0  0  0  0  0  0  0  0
   -8.6003   23.0157  -30.3704 H   0  0  0  0  0  0  0  0  0  0  0  0
   -9.5448   21.2065  -31.0543 H   0  0  0  0  0  0  0  0  0  0  0  0
   -9.4175   22.0989  -32.6080 H   0  0  0  0  0  0  0  0  0  0  0  0
   -9.5186   20.3055  -32.6080 H   0  0  0  0  0  0  0  0  0  0  0  0
   -8.4938   18.3377  -30.8057 H   0  0  0  0  0  0  0  0  0  0  0  0
   -9.6076   18.8553  -32.1165 H   0  0  0  0  0  0  0  0  0  0  0  0
   -8.9326   17.1907  -32.1165 H   0  0  0  0  0  0  0  0  0  0  0  0
   -7.3851   16.7869  -33.6601 H   0  0  0  0  0  0  0  0  0  0  0  0
   -5.1946   17.2811  -34.7162 H   0  0  0  0  0  0  0  0  0  0  0  0
   -4.0189   19.4081  -34.2147 H   0  0  0  0  0  0  0  0  0  0  0  0
  1  2  1  0
  2  3  1  0
  3  4  1  0
  4  5  1  0
  5  6  1  0
  6  7  1  0
  7  8  1  0
  8  9  1  0
  9 10  1  0
 10 11  1  0
 11 12  1  0
 12 13  1  0
 13 14  1  0
 14 15  2  0
 15 16  1  0
 16 17  2  0
 17 18  1  0
 18 19  2  0
 19 20  1  0
 20 21  2  0
 21 22  1  0
 21 23  1  0
 23 24  2  0
 24 25  1  0
 24 26  1  0
 26 27  2  0
 27 28  1  0
 28 29  2  0
 29 14  1  0
 20 15  1  0
 29 23  1  0
  1 30  1  0
  1 31  1  0
  1 32  1  0
  2 33  1  0
  2 34  1  0
  3 35  1  0
  3 36  1  0
  4 37  1  0
  4 38  1  0
  5 39  1  0
  5 40  1  0
  6 41  1  0
  6 42  1  0
  8 43  1  0
  8 44  1  0
  9 45  1  0
  9 46  1  0
 11 47  1  0
 11 48  1  0
 12 49  1  0
 12 50  1  0
 13 51  1  0
 16 52  1  0
 17 53  1  0
 18 54  1  0
 19 55  1  0
 22 56  1  0
 22 57  1  0
 22 58  1  0
 25 59  1  0
 25 60  1  0
 25 61  1  0
 26 62  1  0
 27 63  1  0
 28 64  1  0
M  CHG  2   3   1  21   1
M  END
>  <UniqueID>  (19) 
19

>  <SMILES>  (19) 
CC[NH2+]CCCOCCOCCNc1c2ccccc2[n+](C)c2c(C)cccc12

>  <Energy>  (19) 
94.15078042719068

>  <Genealogy>  (19) 
CC[NH2+]CCCOCCOCCNc1c2ccccc2[n+](C)c2c(C)cccc12 (protonated)
CC[NH2+]CCCOCCOCCNc1c2ccccc2[n+](C)c2c(C)cccc12 (3D coordinates assigned)
CC[NH2+]CCCOCCOCCNc1c2ccccc2[n+](C)c2c(C)cccc12 (optimized conformer: 94.15078042719068 kcal/mol)

>  <smiles>  (19) 
CCNCCCOCCOCCNc1c2ccccc2[n+](C)c2c(C)cccc12

>  <score_type>  (19) 
oracle

>  <origin>  (19) 
adg

>  <m_score__min__energy>  (19) 
-9.0299999999999994

>  <m_primary>  (19) 
energy

$$$$
