0:0
     RDKit          3D

 63 64  0  0  0  0  0  0  0  0999 V2000
   -3.5910   24.2850  -27.1590 C   0  0  0  0  0  0  0  0  0  0  0  0
   -2.3420   24.1330  -28.0370 C   0  0  0  0  0  0  0  0  0  0  0  0
   -2.4330   22.9480  -28.9450 N   0  0  0  0  0  0  0  0  0  0  0  0
   -3.3810   21.9520  -28.3800 C   0  0  0  0  0  0  0  0  0  0  0  0
   -2.6840   20.7940  -27.6480 C   0  0  0  0  0  0  0  0  0  0  0  0
   -1.0960   22.3340  -29.1670 C   0  0  0  0  0  0  0  0  0  0  0  0
   -0.9840   21.6340  -30.5340 C   0  0  0  0  0  0  0  0  0  0  0  0
   -1.9490   22.1620  -31.4270 O   0  0  0  0  0  0  0  0  0  0  0  0
   -3.0050   21.2440  -31.6200 C   0  0  0  0  0  0  0  0  0  0  0  0
   -4.3410   21.9520  -31.4000 C   0  0  0  0  0  0  0  0  0  0  0  0
   -4.2020   23.3920  -31.6010 N   0  0  0  0  0  0  0  0  0  0  0  0
   -4.4000   24.4120  -30.6130 C   0  0  0  0  0  0  0  0  0  0  0  0
   -3.4910   25.2710  -30.4530 O   0  0  0  0  0  0  0  0  0  0  0  0
   -5.6830   24.5310  -29.8180 C   0  0  1  0  0  0  0  0  0  0  0  0
   -6.1470   25.9910  -29.7090 C   0  0  0  0  0  0  0  0  0  0  0  0
   -6.7660   23.6560  -30.4200 C   0  0  0  0  0  0  0  0  0  0  0  0
   -7.1370   23.8230  -31.7650 C   0  0  0  0  0  0  0  0  0  0  0  0
   -8.1210   23.0110  -32.3380 C   0  0  0  0  0  0  0  0  0  0  0  0
   -8.7490   22.0120  -31.5720 C   0  0  0  0  0  0  0  0  0  0  0  0
   -9.7250   21.1560  -32.1050 O   0  0  0  0  0  0  0  0  0  0  0  0
   -9.4430   20.0030  -32.8940 C   0  0  0  0  0  0  0  0  0  0  0  0
   -8.0300   19.5670  -32.6420 C   0  0  0  0  0  0  0  0  0  0  0  0
   -6.9870   20.0470  -33.4510 C   0  0  0  0  0  0  0  0  0  0  0  0
   -5.6750   19.6130  -33.2400 C   0  0  0  0  0  0  0  0  0  0  0  0
   -5.3960   18.6900  -32.2290 C   0  0  0  0  0  0  0  0  0  0  0  0
   -6.4310   18.1960  -31.4290 C   0  0  0  0  0  0  0  0  0  0  0  0
   -7.7450   18.6270  -31.6380 C   0  0  0  0  0  0  0  0  0  0  0  0
   -8.3900   21.8530  -30.2300 C   0  0  0  0  0  0  0  0  0  0  0  0
   -7.4110   22.6670  -29.6550 C   0  0  0  0  0  0  0  0  0  0  0  0
   -3.3004   24.2496  -26.0987 H   0  0  0  0  0  0  0  0  0  0  0  0
   -4.0756   25.2487  -27.3744 H   0  0  0  0  0  0  0  0  0  0  0  0
   -4.2926   23.4656  -27.3744 H   0  0  0  0  0  0  0  0  0  0  0  0
   -2.2257   25.0401  -28.6483 H   0  0  0  0  0  0  0  0  0  0  0  0
   -1.4774   23.9853  -27.3732 H   0  0  0  0  0  0  0  0  0  0  0  0
   -2.8140   23.2430  -29.8750 H   0  0  0  0  0  0  0  0  0  0  0  0
   -4.0438   22.4659  -27.6683 H   0  0  0  0  0  0  0  0  0  0  0  0
   -3.9358   21.5161  -29.2239 H   0  0  0  0  0  0  0  0  0  0  0  0
   -2.7724   20.9409  -26.5614 H   0  0  0  0  0  0  0  0  0  0  0  0
   -3.1599   19.8430  -27.9294 H   0  0  0  0  0  0  0  0  0  0  0  0
   -1.6209   20.7693  -27.9294 H   0  0  0  0  0  0  0  0  0  0  0  0
   -0.3324   23.1239  -29.1123 H   0  0  0  0  0  0  0  0  0  0  0  0
   -0.9473   21.5705  -28.3892 H   0  0  0  0  0  0  0  0  0  0  0  0
    0.0226   21.7979  -30.9462 H   0  0  0  0  0  0  0  0  0  0  0  0
   -1.1620   20.5563  -30.4045 H   0  0  0  0  0  0  0  0  0  0  0  0
   -2.9641   20.8482  -32.6455 H   0  0  0  0  0  0  0  0  0  0  0  0
   -2.9065   20.4153  -30.9033 H   0  0  0  0  0  0  0  0  0  0  0  0
   -5.0802   21.5577  -32.1128 H   0  0  0  0  0  0  0  0  0  0  0  0
   -4.6717   21.7697  -30.3669 H   0  0  0  0  0  0  0  0  0  0  0  0
   -5.4805   24.1767  -28.7965 H   0  0  0  0  0  0  0  0  0  0  0  0
   -6.2355   26.2694  -28.6485 H   0  0  0  0  0  0  0  0  0  0  0  0
   -5.4130   26.6467  -30.2002 H   0  0  0  0  0  0  0  0  0  0  0  0
   -7.1249   26.1026  -30.2002 H   0  0  0  0  0  0  0  0  0  0  0  0
   -6.6491   24.5994  -32.3726 H   0  0  0  0  0  0  0  0  0  0  0  0
   -8.4048   23.1539  -33.3911 H   0  0  0  0  0  0  0  0  0  0  0  0
  -10.1330   19.1915  -32.6195 H   0  0  0  0  0  0  0  0  0  0  0  0
   -9.5712   20.2438  -33.9596 H   0  0  0  0  0  0  0  0  0  0  0  0
   -7.2034   20.7672  -34.2538 H   0  0  0  0  0  0  0  0  0  0  0  0
   -4.8609   19.9989  -33.8711 H   0  0  0  0  0  0  0  0  0  0  0  0
   -4.3625   18.3520  -32.0624 H   0  0  0  0  0  0  0  0  0  0  0  0
   -6.2115   17.4676  -30.6345 H   0  0  0  0  0  0  0  0  0  0  0  0
   -8.5583   18.2283  -31.0138 H   0  0  0  0  0  0  0  0  0  0  0  0
   -8.8827   21.0802  -29.6217 H   0  0  0  0  0  0  0  0  0  0  0  0
   -7.1425   22.5337  -28.5966 H   0  0  0  0  0  0  0  0  0  0  0  0
  1  2  1  0
  2  3  1  0
  3  4  1  0
  4  5  1  0
  3  6  1  0
  6  7  1  0
  7  8  1  0
  8  9  1  0
  9 10  1  0
 10 11  1  0
 11 12  1  0
 12 13  2  0
 12 14  1  0
 14 15  1  0
 14 16  1  0
 16 17  2  0
 17 18  1  0
 18 19  2  0
 19 20  1  0
 20 21  1  0
 21 22  1  0
 22 23  2  0
 23 24  1  0
 24 25  2  0
 25 26  1  0
 26 27  2  0
 19 28  1  0
 28 29  2  0
 29 16  1  0
 27 22  1  0
  1 30  1  0
  1 31  1  0
  1 32  1  0
  2 33  1  0
  2 34  1  0
  3 35  1  0
  4 36  1  0
  4 37  1  0
  5 38  1  0
  5 39  1  0
  5 40  1  0
  6 41  1  0
  6 42  1  0
  7 43  1  0
  7 44  1  0
  9 45  1  0
  9 46  1  0
 10 47  1  0
 10 48  1  0
 14 49  1  1
 15 50  1  0
 15 51  1  0
 15 52  1  0
 17 53  1  0
 18 54  1  0
 21 55  1  0
 21 56  1  0
 23 57  1  0
 24 58  1  0
 25 59  1  0
 26 60  1  0
 27 61  1  0
 28 62  1  0
 29 63  1  0
M  CHG  2   3   1  11  -1
M  END
>  <UniqueID>  (1) 
1

>  <SMILES>  (1) 
CC[NH+](CC)CCOCC[N-]C(=O)[C@@H](C)c1ccc(OCc2ccccc2)cc1

>  <Energy>  (1) 
62.43703023758224

>  <Genealogy>  (1) 
CC[NH+](CC)CCOCC[N-]C(=O)C(C)c1ccc(OCc2ccccc2)cc1 (protonated)
CC[NH+](CC)CCOCC[N-]C(=O)[C@@H](C)c1ccc(OCc2ccccc2)cc1 (chirality)
CC[NH+](CC)CCOCC[N-]C(=O)[C@@H](C)c1ccc(OCc2ccccc2)cc1 (3D coordinates assigned)
CC[NH+](CC)CCOCC[N-]C(=O)[C@@H](C)c1ccc(OCc2ccccc2)cc1 (optimized conformer: 62.43703023758224 kcal/mol)

>  <smiles>  (1) 
CCN(CC)CCOCCNC(=O)C(C)c1ccc(OCc2ccccc2)cc1

>  <score_type>  (1) 
oracle

>  <origin>  (1) 
adg

>  <m_score__min__energy>  (1) 
-8.9100000000000001

>  <m_primary>  (1) 
energy

$$$$
1:0
     RDKit          3D

 46 46  0  0  0  0  0  0  0  0999 V2000
   -3.4660   24.2450  -29.3530 C   0  0  0  0  0  0  0  0  0  0  0  0
   -3.7170   24.8340  -30.6710 N   0  0  0  0  0  0  0  0  0  0  0  0
   -5.1100   25.2910  -30.8000 C   0  0  0  0  0  0  0  0  0  0  0  0
   -6.0930   24.1840  -30.3900 C   0  0  0  0  0  0  0  0  0  0  0  0
   -6.8530   23.6220  -31.6030 C   0  0  0  0  0  0  0  0  0  0  0  0
   -8.0410   22.7270  -31.1920 C   0  0  0  0  0  0  0  0  0  0  0  0
   -8.0800   21.4450  -31.9280 N   0  0  0  0  0  0  0  0  0  0  0  0
   -9.3880   20.7590  -31.8480 C   0  0  0  0  0  0  0  0  0  0  0  0
   -9.4060   19.3570  -32.5010 C   0  0  0  0  0  0  0  0  0  0  0  0
   -8.0140   18.7190  -32.6670 C   0  0  0  0  0  0  0  0  0  0  0  0
   -7.1010   19.6100  -33.3970 N   0  0  0  0  0  0  0  0  0  0  0  0
   -5.8410   18.9420  -33.7450 C   0  0  0  0  0  0  0  0  0  0  0  0
   -4.6920   19.8310  -33.3680 C   0  0  0  0  0  0  0  0  0  0  0  0
   -3.3730   19.4730  -33.6900 C   0  0  0  0  0  0  0  0  0  0  0  0
   -2.3150   20.3340  -33.3800 C   0  0  0  0  0  0  0  0  0  0  0  0
   -2.5680   21.5590  -32.7560 C   0  0  0  0  0  0  0  0  0  0  0  0
   -3.8790   21.9290  -32.4460 C   0  0  0  0  0  0  0  0  0  0  0  0
   -4.9380   21.0720  -32.7550 C   0  0  0  0  0  0  0  0  0  0  0  0
   -3.7689   24.9558  -28.5700 H   0  0  0  0  0  0  0  0  0  0  0  0
   -4.0466   23.3164  -29.2498 H   0  0  0  0  0  0  0  0  0  0  0  0
   -2.3941   24.0206  -29.2498 H   0  0  0  0  0  0  0  0  0  0  0  0
   -3.0910   25.6700  -30.7630 H   0  0  0  0  0  0  0  0  0  0  0  0
   -5.2630   26.1662  -30.1514 H   0  0  0  0  0  0  0  0  0  0  0  0
   -5.2967   25.5534  -31.8518 H   0  0  0  0  0  0  0  0  0  0  0  0
   -5.5318   23.3680  -29.9113 H   0  0  0  0  0  0  0  0  0  0  0  0
   -6.8275   24.6171  -29.6951 H   0  0  0  0  0  0  0  0  0  0  0  0
   -7.2348   24.4628  -32.2008 H   0  0  0  0  0  0  0  0  0  0  0  0
   -6.1509   23.0021  -32.1799 H   0  0  0  0  0  0  0  0  0  0  0  0
   -7.9618   22.5114  -30.1163 H   0  0  0  0  0  0  0  0  0  0  0  0
   -8.9643   23.2738  -31.4342 H   0  0  0  0  0  0  0  0  0  0  0  0
   -7.8570   21.6090  -32.9370 H   0  0  0  0  0  0  0  0  0  0  0  0
   -7.3240   20.8230  -31.5660 H   0  0  0  0  0  0  0  0  0  0  0  0
   -9.6564   20.6495  -30.7869 H   0  0  0  0  0  0  0  0  0  0  0  0
  -10.1059   21.3783  -32.4058 H   0  0  0  0  0  0  0  0  0  0  0  0
  -10.0174   18.6921  -31.8733 H   0  0  0  0  0  0  0  0  0  0  0  0
   -9.8172   19.4854  -33.5131 H   0  0  0  0  0  0  0  0  0  0  0  0
   -7.5935   18.5127  -31.6717 H   0  0  0  0  0  0  0  0  0  0  0  0
   -8.1253   17.7887  -33.2433 H   0  0  0  0  0  0  0  0  0  0  0  0
   -7.5670   19.8920  -34.2920 H   0  0  0  0  0  0  0  0  0  0  0  0
   -5.7653   17.9907  -33.1979 H   0  0  0  0  0  0  0  0  0  0  0  0
   -5.8147   18.7417  -34.8263 H   0  0  0  0  0  0  0  0  0  0  0  0
   -3.1711   18.5129  -34.1874 H   0  0  0  0  0  0  0  0  0  0  0  0
   -1.2825   20.0467  -33.6276 H   0  0  0  0  0  0  0  0  0  0  0  0
   -1.7340   22.2323  -32.5088 H   0  0  0  0  0  0  0  0  0  0  0  0
   -4.0773   22.8950  -31.9587 H   0  0  0  0  0  0  0  0  0  0  0  0
   -5.9699   21.3698  -32.5174 H   0  0  0  0  0  0  0  0  0  0  0  0
  1  2  1  0
  2  3  1  0
  3  4  1  0
  4  5  1  0
  5  6  1  0
  6  7  1  0
  7  8  1  0
  8  9  1  0
  9 10  1  0
 10 11  1  0
 11 12  1  0
 12 13  1  0
 13 14  2  0
 14 15  1  0
 15 16  2  0
 16 17  1  0
 17 18  2  0
 18 13  1  0
  1 19  1  0
  1 20  1  0
  1 21  1  0
  2 22  1  0
  3 23  1  0
  3 24  1  0
  4 25  1  0
  4 26  1  0
  5 27  1  0
  5 28  1  0
  6 29  1  0
  6 30  1  0
  7 31  1  0
  7 32  1  0
  8 33  1  0
  8 34  1  0
  9 35  1  0
  9 36  1  0
 10 37  1  0
 10 38  1  0
 11 39  1  0
 12 40  1  0
 12 41  1  0
 14 42  1  0
 15 43  1  0
 16 44  1  0
 17 45  1  0
 18 46  1  0
M  CHG  1   7   1
M  END
>  <UniqueID>  (2) 
2

>  <SMILES>  (2) 
CNCCCC[NH2+]CCCNCc1ccccc1

>  <Energy>  (2) 
37.4979886057632

>  <Genealogy>  (2) 
CNCCCC[NH2+]CCCNCc1ccccc1 (protonated)
CNCCCC[NH2+]CCCNCc1ccccc1 (3D coordinates assigned)
CNCCCC[NH2+]CCCNCc1ccccc1 (optimized conformer: 37.4979886057632 kcal/mol)

>  <smiles>  (2) 
CNCCCCNCCCNCc1ccccc1

>  <score_type>  (2) 
oracle

>  <origin>  (2) 
adg

>  <m_score__min__energy>  (2) 
-6.5700000000000003

>  <m_primary>  (2) 
energy

$$$$
2:0
     RDKit          3D

 67 69  0  0  0  0  0  0  0  0999 V2000
   -0.4200   21.5040  -34.3860 C   0  0  0  0  0  0  0  0  0  0  0  0
    0.7170   20.9010  -33.5620 C   0  0  0  0  0  0  0  0  0  0  0  0
    0.2950   20.6170  -32.2430 O   0  0  0  0  0  0  0  0  0  0  0  0
    1.1670   19.6900  -31.6260 C   0  0  0  0  0  0  0  0  0  0  0  0
    0.3700   18.4570  -31.1980 C   0  0  0  0  0  0  0  0  0  0  0  0
   -0.9890   18.5870  -31.5670 O   0  0  0  0  0  0  0  0  0  0  0  0
   -1.2870   17.8590  -32.7430 C   0  0  0  0  0  0  0  0  0  0  0  0
   -2.2060   18.6580  -33.6690 C   0  0  0  0  0  0  0  0  0  0  0  0
   -3.3610   19.1940  -32.9410 N   0  0  0  0  0  0  0  0  0  0  0  0
   -3.3750   20.4400  -32.2110 C   0  0  0  0  0  0  0  0  0  0  0  0
   -2.2820   20.8980  -31.6660 N   0  0  0  0  0  0  0  0  0  0  0  0
   -2.2140   22.0840  -30.8060 C   0  0  2  0  0  0  0  0  0  0  0  0
   -1.7160   21.6490  -29.4420 C   0  0  0  0  0  0  0  0  0  0  0  0
   -2.4400   20.7160  -28.6790 C   0  0  0  0  0  0  0  0  0  0  0  0
   -1.9920   20.3400  -27.4090 C   0  0  0  0  0  0  0  0  0  0  0  0
   -0.8230   20.8970  -26.8870 C   0  0  0  0  0  0  0  0  0  0  0  0
   -0.0940   21.8260  -27.6360 C   0  0  0  0  0  0  0  0  0  0  0  0
   -0.5370   22.2040  -28.9060 C   0  0  0  0  0  0  0  0  0  0  0  0
   -3.5330   22.8280  -30.6670 C   0  0  0  0  0  0  0  0  0  0  0  0
   -3.5020   24.1590  -29.9950 C   0  0  0  0  0  0  0  0  0  0  0  0
   -3.1000   24.2690  -28.8040 O   0  0  0  0  0  0  0  0  0  0  0  0
   -3.9860   25.2860  -30.6670 O   0  0  0  0  0  0  0  0  0  0  0  0
   -5.2990   25.7950  -30.4730 C   0  0  0  0  0  0  0  0  0  0  0  0
   -4.6770   22.2720  -31.1290 C   0  0  0  0  0  0  0  0  0  0  0  0
   -6.0290   22.7800  -30.6760 C   0  0  0  0  0  0  0  0  0  0  0  0
   -4.6090   21.1770  -32.0710 N   0  0  0  0  0  0  0  0  0  0  0  0
   -5.6600   21.0100  -33.0970 C   0  0  0  0  0  0  0  0  0  0  0  0
   -6.7950   20.1590  -32.5830 C   0  0  0  0  0  0  0  0  0  0  0  0
   -6.6250   18.7750  -32.4050 C   0  0  0  0  0  0  0  0  0  0  0  0
   -7.6910   17.9830  -31.9650 C   0  0  0  0  0  0  0  0  0  0  0  0
   -8.9370   18.5620  -31.7180 C   0  0  0  0  0  0  0  0  0  0  0  0
   -9.1190   19.9350  -31.9050 C   0  0  0  0  0  0  0  0  0  0  0  0
   -8.0550   20.7310  -32.3440 C   0  0  0  0  0  0  0  0  0  0  0  0
   -1.1868   21.9107  -33.7103 H   0  0  0  0  0  0  0  0  0  0  0  0
   -0.0250   22.3111  -35.0204 H   0  0  0  0  0  0  0  0  0  0  0  0
   -0.8666   20.7242  -35.0204 H   0  0  0  0  0  0  0  0  0  0  0  0
    1.0522   19.9689  -34.0404 H   0  0  0  0  0  0  0  0  0  0  0  0
    1.5397   21.6298  -33.5162 H   0  0  0  0  0  0  0  0  0  0  0  0
    1.9509   19.3923  -32.3380 H   0  0  0  0  0  0  0  0  0  0  0  0
    1.6336   20.1526  -30.7438 H   0  0  0  0  0  0  0  0  0  0  0  0
    0.7930   17.5665  -31.6859 H   0  0  0  0  0  0  0  0  0  0  0  0
    0.4314   18.3585  -30.1041 H   0  0  0  0  0  0  0  0  0  0  0  0
   -0.3499   17.6347  -33.2735 H   0  0  0  0  0  0  0  0  0  0  0  0
   -1.8021   16.9301  -32.4571 H   0  0  0  0  0  0  0  0  0  0  0  0
   -1.6377   19.4933  -34.1042 H   0  0  0  0  0  0  0  0  0  0  0  0
   -2.5744   17.9852  -34.4574 H   0  0  0  0  0  0  0  0  0  0  0  0
   -4.2300   18.6170  -32.9500 H   0  0  0  0  0  0  0  0  0  0  0  0
   -1.3850   20.3780  -31.7760 H   0  0  0  0  0  0  0  0  0  0  0  0
   -1.5255   22.7975  -31.2823 H   0  0  0  0  0  0  0  0  0  0  0  0
   -3.3648   20.2791  -29.0838 H   0  0  0  0  0  0  0  0  0  0  0  0
   -2.5609   19.6049  -26.8208 H   0  0  0  0  0  0  0  0  0  0  0  0
   -0.4750   20.6047  -25.8853 H   0  0  0  0  0  0  0  0  0  0  0  0
    0.8294   22.2597  -27.2247 H   0  0  0  0  0  0  0  0  0  0  0  0
    0.0372   22.9382  -29.4901 H   0  0  0  0  0  0  0  0  0  0  0  0
   -5.5057   25.8751  -29.3956 H   0  0  0  0  0  0  0  0  0  0  0  0
   -5.3790   26.7893  -30.9367 H   0  0  0  0  0  0  0  0  0  0  0  0
   -6.0283   25.1145  -30.9367 H   0  0  0  0  0  0  0  0  0  0  0  0
   -6.0660   22.7939  -29.5767 H   0  0  0  0  0  0  0  0  0  0  0  0
   -6.1859   23.7984  -31.0610 H   0  0  0  0  0  0  0  0  0  0  0  0
   -6.8177   22.1169  -31.0610 H   0  0  0  0  0  0  0  0  0  0  0  0
   -6.0511   22.0000  -33.3743 H   0  0  0  0  0  0  0  0  0  0  0  0
   -5.2172   20.5089  -33.9704 H   0  0  0  0  0  0  0  0  0  0  0  0
   -5.6489   18.3124  -32.6127 H   0  0  0  0  0  0  0  0  0  0  0  0
   -7.5472   16.9030  -31.8135 H   0  0  0  0  0  0  0  0  0  0  0  0
   -9.7756   17.9376  -31.3762 H   0  0  0  0  0  0  0  0  0  0  0  0
  -10.1003   20.3908  -31.7068 H   0  0  0  0  0  0  0  0  0  0  0  0
   -8.2063   21.8090  -32.5025 H   0  0  0  0  0  0  0  0  0  0  0  0
  1  2  1  0
  2  3  1  0
  3  4  1  0
  4  5  1  0
  5  6  1  0
  6  7  1  0
  7  8  1  0
  8  9  1  0
  9 10  1  0
 10 11  2  0
 11 12  1  0
 12 13  1  0
 13 14  2  0
 14 15  1  0
 15 16  2  0
 16 17  1  0
 17 18  2  0
 12 19  1  0
 19 20  1  0
 20 21  2  0
 20 22  1  0
 22 23  1  0
 19 24  2  0
 24 25  1  0
 24 26  1  0
 26 27  1  0
 27 28  1  0
 28 29  2  0
 29 30  1  0
 30 31  2  0
 31 32  1  0
 32 33  2  0
 26 10  1  0
 33 28  1  0
 18 13  1  0
  1 34  1  0
  1 35  1  0
  1 36  1  0
  2 37  1  0
  2 38  1  0
  4 39  1  0
  4 40  1  0
  5 41  1  0
  5 42  1  0
  7 43  1  0
  7 44  1  0
  8 45  1  0
  8 46  1  0
  9 47  1  0
 11 48  1  0
 12 49  1  6
 14 50  1  0
 15 51  1  0
 16 52  1  0
 17 53  1  0
 18 54  1  0
 23 55  1  0
 23 56  1  0
 23 57  1  0
 25 58  1  0
 25 59  1  0
 25 60  1  0
 27 61  1  0
 27 62  1  0
 29 63  1  0
 30 64  1  0
 31 65  1  0
 32 66  1  0
 33 67  1  0
M  CHG  1  11   1
M  END
>  <UniqueID>  (3) 
3

>  <SMILES>  (3) 
CCOCCOCCNC1=[NH+][C@H](c2ccccc2)C(C(=O)OC)=C(C)N1Cc1ccccc1

>  <Energy>  (3) 
73.77300097107971

>  <Genealogy>  (3) 
CCOCCOCCNC1=[NH+]C(c2ccccc2)C(C(=O)OC)=C(C)N1Cc1ccccc1 (protonated)
CCOCCOCCNC1=[NH+][C@H](c2ccccc2)C(C(=O)OC)=C(C)N1Cc1ccccc1 (chirality)
CCOCCOCCNC1=[NH+][C@H](c2ccccc2)C(C(=O)OC)=C(C)N1Cc1ccccc1 (3D coordinates assigned)
CCOCCOCCNC1=[NH+][C@H](c2ccccc2)C(C(=O)OC)=C(C)N1Cc1ccccc1 (nonaromatic ring conformer: 73.77300097107971 kcal/mol)

>  <smiles>  (3) 
CCOCCOCCNC1=NC(c2ccccc2)C(C(=O)OC)=C(C)N1Cc1ccccc1

>  <score_type>  (3) 
oracle

>  <origin>  (3) 
adg

>  <m_score__min__energy>  (3) 
-8.4100000000000001

>  <m_primary>  (3) 
energy

$$$$
3:0
     RDKit          3D

 56 58  0  0  0  0  0  0  0  0999 V2000
   -3.1850   24.5380  -27.3300 C   0  0  0  0  0  0  0  0  0  0  0  0
   -2.3120   24.9230  -28.5190 C   0  0  0  0  0  0  0  0  0  0  0  0
   -3.1170   25.2750  -29.6450 O   0  0  0  0  0  0  0  0  0  0  0  0
   -4.2290   24.5540  -30.1110 C   0  0  0  0  0  0  0  0  0  0  0  0
   -5.4280   25.2480  -30.3120 C   0  0  0  0  0  0  0  0  0  0  0  0
   -6.5680   24.5850  -30.7710 C   0  0  0  0  0  0  0  0  0  0  0  0
   -6.5250   23.2070  -31.0390 C   0  0  0  0  0  0  0  0  0  0  0  0
   -7.7600   22.4790  -31.5190 C   0  0  0  0  0  0  0  0  0  0  0  0
   -7.4910   21.0500  -31.8110 N   0  0  0  0  0  0  0  0  0  0  0  0
   -6.5860   20.9300  -32.9870 C   0  0  0  0  0  0  0  0  0  0  0  0
   -6.8500   19.6800  -33.8540 C   0  0  0  0  0  0  0  0  0  0  0  0
   -7.2950   18.5170  -33.0670 N   0  0  0  0  0  0  0  0  0  0  0  0
   -5.9740   17.7560  -32.2040 S   0  0  0  0  0  0  0  0  0  0  0  0
   -6.1300   17.9460  -30.7210 O   0  0  0  0  0  0  0  0  0  0  0  0
   -5.9740   16.2820  -32.4940 O   0  0  0  0  0  0  0  0  0  0  0  0
   -4.4310   18.4250  -32.7310 C   0  0  0  0  0  0  0  0  0  0  0  0
   -4.0140   19.6870  -32.2910 C   0  0  0  0  0  0  0  0  0  0  0  0
   -2.8010   20.2180  -32.7270 C   0  0  0  0  0  0  0  0  0  0  0  0
   -1.9830   19.4980  -33.6140 C   0  0  0  0  0  0  0  0  0  0  0  0
   -0.6780   20.1000  -34.0700 C   0  0  0  0  0  0  0  0  0  0  0  0
   -2.4040   18.2270  -34.0710 C   0  0  0  0  0  0  0  0  0  0  0  0
   -1.5640   17.4220  -35.0280 C   0  0  0  0  0  0  0  0  0  0  0  0
   -3.6290   17.7030  -33.6210 C   0  0  0  0  0  0  0  0  0  0  0  0
   -8.4530   18.7970  -32.1870 C   0  0  0  0  0  0  0  0  0  0  0  0
   -8.7470   20.3000  -32.0160 C   0  0  0  0  0  0  0  0  0  0  0  0
   -5.3270   22.5060  -30.8360 C   0  0  0  0  0  0  0  0  0  0  0  0
   -4.1870   23.1710  -30.3750 C   0  0  0  0  0  0  0  0  0  0  0  0
   -2.6549   24.7718  -26.3949 H   0  0  0  0  0  0  0  0  0  0  0  0
   -4.1274   25.1040  -27.3686 H   0  0  0  0  0  0  0  0  0  0  0  0
   -3.4026   23.4604  -27.3686 H   0  0  0  0  0  0  0  0  0  0  0  0
   -1.6835   25.7823  -28.2420 H   0  0  0  0  0  0  0  0  0  0  0  0
   -1.6839   24.0614  -28.7895 H   0  0  0  0  0  0  0  0  0  0  0  0
   -5.4726   26.3276  -30.1061 H   0  0  0  0  0  0  0  0  0  0  0  0
   -7.5031   25.1440  -30.9232 H   0  0  0  0  0  0  0  0  0  0  0  0
   -8.5334   22.5416  -30.7393 H   0  0  0  0  0  0  0  0  0  0  0  0
   -8.0921   22.9573  -32.4522 H   0  0  0  0  0  0  0  0  0  0  0  0
   -7.0000   20.6420  -30.9810 H   0  0  0  0  0  0  0  0  0  0  0  0
   -6.7163   21.8223  -33.6169 H   0  0  0  0  0  0  0  0  0  0  0  0
   -5.5627   20.8362  -32.5944 H   0  0  0  0  0  0  0  0  0  0  0  0
   -7.6292   19.9231  -34.5914 H   0  0  0  0  0  0  0  0  0  0  0  0
   -5.8995   19.4070  -34.3357 H   0  0  0  0  0  0  0  0  0  0  0  0
   -4.6462   20.2620  -31.5983 H   0  0  0  0  0  0  0  0  0  0  0  0
   -2.4814   21.2094  -32.3735 H   0  0  0  0  0  0  0  0  0  0  0  0
   -0.0758   20.3778  -33.1924 H   0  0  0  0  0  0  0  0  0  0  0  0
   -0.1268   19.3652  -34.6752 H   0  0  0  0  0  0  0  0  0  0  0  0
   -0.8793   20.9963  -34.6752 H   0  0  0  0  0  0  0  0  0  0  0  0
   -0.8839   16.7702  -34.4600 H   0  0  0  0  0  0  0  0  0  0  0  0
   -2.2188   16.8055  -35.6614 H   0  0  0  0  0  0  0  0  0  0  0  0
   -0.9759   18.1024  -35.6614 H   0  0  0  0  0  0  0  0  0  0  0  0
   -3.9601   16.7147  -33.9727 H   0  0  0  0  0  0  0  0  0  0  0  0
   -9.3427   18.3153  -32.6187 H   0  0  0  0  0  0  0  0  0  0  0  0
   -8.2054   18.4008  -31.1912 H   0  0  0  0  0  0  0  0  0  0  0  0
   -9.2504   20.6759  -32.9189 H   0  0  0  0  0  0  0  0  0  0  0  0
   -9.3936   20.4395  -31.1371 H   0  0  0  0  0  0  0  0  0  0  0  0
   -5.2843   21.4261  -31.0409 H   0  0  0  0  0  0  0  0  0  0  0  0
   -3.2530   22.6117  -30.2177 H   0  0  0  0  0  0  0  0  0  0  0  0
  1  2  1  0
  2  3  1  0
  3  4  1  0
  4  5  2  0
  5  6  1  0
  6  7  2  0
  7  8  1  0
  8  9  1  0
  9 10  1  0
 10 11  1  0
 11 12  1  0
 12 13  1  0
 13 14  2  0
 13 15  2  0
 13 16  1  0
 16 17  2  0
 17 18  1  0
 18 19  2  0
 19 20  1  0
 19 21  1  0
 21 22  1  0
 21 23  2  0
 12 24  1  0
 24 25  1  0
  7 26  1  0
 26 27  2  0
 27  4  1  0
 25  9  1  0
 23 16  1  0
  1 28  1  0
  1 29  1  0
  1 30  1  0
  2 31  1  0
  2 32  1  0
  5 33  1  0
  6 34  1  0
  8 35  1  0
  8 36  1  0
  9 37  1  0
 10 38  1  0
 10 39  1  0
 11 40  1  0
 11 41  1  0
 17 42  1  0
 18 43  1  0
 20 44  1  0
 20 45  1  0
 20 46  1  0
 22 47  1  0
 22 48  1  0
 22 49  1  0
 23 50  1  0
 24 51  1  0
 24 52  1  0
 25 53  1  0
 25 54  1  0
 26 55  1  0
 27 56  1  0
M  CHG  1   9   1
M  END
>  <UniqueID>  (4) 
4

>  <SMILES>  (4) 
CCOc1ccc(C[NH+]2CCN(S(=O)(=O)c3ccc(C)c(C)c3)CC2)cc1

>  <Energy>  (4) 
67.46288490937643

>  <Genealogy>  (4) 
CCOc1ccc(C[NH+]2CCN(S(=O)(=O)c3ccc(C)c(C)c3)CC2)cc1 (protonated)
CCOc1ccc(C[NH+]2CCN(S(=O)(=O)c3ccc(C)c(C)c3)CC2)cc1 (3D coordinates assigned)
CCOc1ccc(C[NH+]2CCN(S(=O)(=O)c3ccc(C)c(C)c3)CC2)cc1 (nonaromatic ring conformer: 67.46288490937643 kcal/mol)

>  <smiles>  (4) 
CCOc1ccc(CN2CCN(S(=O)(=O)c3ccc(C)c(C)c3)CC2)cc1

>  <score_type>  (4) 
oracle

>  <origin>  (4) 
adg

>  <m_score__min__energy>  (4) 
-8.7899999999999991

>  <m_primary>  (4) 
energy

$$$$
4:0
     RDKit          3D

 46 48  0  0  0  0  0  0  0  0999 V2000
   -6.1290   25.0550  -29.7310 C   0  0  0  0  0  0  0  0  0  0  0  0
   -5.0680   25.1770  -30.8340 C   0  0  0  0  0  0  0  0  0  0  0  0
   -3.8930   24.2850  -30.6650 N   0  0  0  0  0  0  0  0  0  0  0  0
   -3.1890   24.5400  -29.3970 C   0  0  0  0  0  0  0  0  0  0  0  0
   -4.1820   22.8410  -30.8160 C   0  0  0  0  0  0  0  0  0  0  0  0
   -3.5410   22.2570  -32.0840 C   0  0  0  0  0  0  0  0  0  0  0  0
   -4.5590   21.9700  -33.0940 N   0  0  0  0  0  0  0  0  0  0  0  0
   -5.6240   21.0580  -32.8040 C   0  0  0  0  0  0  0  0  0  0  0  0
   -6.9090   21.5150  -32.4380 C   0  0  0  0  0  0  0  0  0  0  0  0
   -7.1720   22.8930  -32.3070 C   0  0  0  0  0  0  0  0  0  0  0  0
   -8.4410   23.3420  -31.9500 C   0  0  0  0  0  0  0  0  0  0  0  0
   -9.4660   22.4310  -31.7130 C   0  0  0  0  0  0  0  0  0  0  0  0
   -9.2300   21.0600  -31.8240 C   0  0  0  0  0  0  0  0  0  0  0  0
   -7.9520   20.5670  -32.1830 C   0  0  0  0  0  0  0  0  0  0  0  0
   -7.7020   19.2080  -32.2850 N   0  0  0  0  0  0  0  0  0  0  0  0
   -8.7630   18.2170  -32.0320 C   0  0  0  0  0  0  0  0  0  0  0  0
   -6.4380   18.7990  -32.6240 C   0  0  0  0  0  0  0  0  0  0  0  0
   -5.8670   17.2220  -32.8250 S   0  0  0  0  0  0  0  0  0  0  0  0
   -4.2920   17.6730  -33.2210 C   0  0  0  0  0  0  0  0  0  0  0  0
   -3.2080   16.7280  -33.6190 C   0  0  0  0  0  0  0  0  0  0  0  0
   -4.1960   19.0610  -33.2280 C   0  0  0  0  0  0  0  0  0  0  0  0
   -5.4040   19.6860  -32.8820 C   0  0  0  0  0  0  0  0  0  0  0  0
   -5.6422   25.1110  -28.7462 H   0  0  0  0  0  0  0  0  0  0  0  0
   -6.8551   25.8756  -29.8283 H   0  0  0  0  0  0  0  0  0  0  0  0
   -6.6499   24.0910  -29.8283 H   0  0  0  0  0  0  0  0  0  0  0  0
   -5.5446   24.9376  -31.7961 H   0  0  0  0  0  0  0  0  0  0  0  0
   -4.6859   26.2073  -30.7854 H   0  0  0  0  0  0  0  0  0  0  0  0
   -3.8533   24.2994  -28.5539 H   0  0  0  0  0  0  0  0  0  0  0  0
   -2.2880   23.9111  -29.3449 H   0  0  0  0  0  0  0  0  0  0  0  0
   -2.8998   25.6000  -29.3449 H   0  0  0  0  0  0  0  0  0  0  0  0
   -3.7875   22.3060  -29.9396 H   0  0  0  0  0  0  0  0  0  0  0  0
   -5.2721   22.7187  -30.8983 H   0  0  0  0  0  0  0  0  0  0  0  0
   -2.8222   22.9828  -32.4921 H   0  0  0  0  0  0  0  0  0  0  0  0
   -3.0297   21.3191  -31.8214 H   0  0  0  0  0  0  0  0  0  0  0  0
   -4.6030   22.5180  -33.9820 H   0  0  0  0  0  0  0  0  0  0  0  0
   -6.3675   23.6209  -32.4884 H   0  0  0  0  0  0  0  0  0  0  0  0
   -8.6339   24.4208  -31.8550 H   0  0  0  0  0  0  0  0  0  0  0  0
  -10.4672   22.7934  -31.4368 H   0  0  0  0  0  0  0  0  0  0  0  0
  -10.0490   20.3518  -31.6297 H   0  0  0  0  0  0  0  0  0  0  0  0
   -8.8969   18.0920  -30.9474 H   0  0  0  0  0  0  0  0  0  0  0  0
   -9.7051   18.5660  -32.4799 H   0  0  0  0  0  0  0  0  0  0  0  0
   -8.4790   17.2533  -32.4799 H   0  0  0  0  0  0  0  0  0  0  0  0
   -2.7331   16.3140  -32.7173 H   0  0  0  0  0  0  0  0  0  0  0  0
   -3.6361   15.9097  -34.2166 H   0  0  0  0  0  0  0  0  0  0  0  0
   -2.4557   17.2637  -34.2166 H   0  0  0  0  0  0  0  0  0  0  0  0
   -3.2749   19.6082  -33.4772 H   0  0  0  0  0  0  0  0  0  0  0  0
  1  2  1  0
  2  3  1  0
  3  4  1  0
  3  5  1  0
  5  6  1  0
  6  7  1  0
  7  8  1  0
  8  9  2  0
  9 10  1  0
 10 11  2  0
 11 12  1  0
 12 13  2  0
 13 14  1  0
 14 15  2  0
 15 16  1  0
 15 17  1  0
 17 18  1  0
 18 19  1  0
 19 20  1  0
 19 21  2  0
 21 22  1  0
 22  8  1  0
 14  9  1  0
 22 17  2  0
  1 23  1  0
  1 24  1  0
  1 25  1  0
  2 26  1  0
  2 27  1  0
  4 28  1  0
  4 29  1  0
  4 30  1  0
  5 31  1  0
  5 32  1  0
  6 33  1  0
  6 34  1  0
  7 35  1  0
 10 36  1  0
 11 37  1  0
 12 38  1  0
 13 39  1  0
 16 40  1  0
 16 41  1  0
 16 42  1  0
 20 43  1  0
 20 44  1  0
 20 45  1  0
 21 46  1  0
M  CHG  1  15   1
M  END
>  <UniqueID>  (5) 
5

>  <SMILES>  (5) 
CCN(C)CCNc1c2ccccc2[n+](C)c2sc(C)cc12

>  <Energy>  (5) 
93.43260698061421

>  <Genealogy>  (5) 
CCN(C)CCNc1c2ccccc2[n+](C)c2sc(C)cc12 (3D coordinates assigned)
CCN(C)CCNc1c2ccccc2[n+](C)c2sc(C)cc12 (optimized conformer: 93.43260698061421 kcal/mol)

>  <smiles>  (5) 
CCN(C)CCNc1c2ccccc2[n+](C)c2sc(C)cc12

>  <score_type>  (5) 
oracle

>  <origin>  (5) 
adg

>  <m_score__min__energy>  (5) 
-8.2799999999999994

>  <m_primary>  (5) 
energy

$$$$
5:0
     RDKit          3D

 58 60  0  0  0  0  0  0  0  0999 V2000
    0.8850   25.1270  -36.0820 C   0  0  0  0  0  0  0  0  0  0  0  0
    0.2890   23.7200  -36.0580 C   0  0  0  0  0  0  0  0  0  0  0  0
    1.2040   22.7720  -35.3800 N   0  0  0  0  0  0  0  0  0  0  0  0
    2.5950   23.2650  -35.4450 C   0  0  0  0  0  0  0  0  0  0  0  0
    1.1010   21.4250  -35.9890 C   0  0  0  0  0  0  0  0  0  0  0  0
   -0.1140   20.6400  -35.4490 C   0  0  0  0  0  0  0  0  0  0  0  0
   -0.0770   20.4720  -33.9240 C   0  0  0  0  0  0  0  0  0  0  0  0
   -1.0660   21.3410  -33.2850 N   0  0  0  0  0  0  0  0  0  0  0  0
   -2.4340   20.9610  -33.0320 C   0  0  0  0  0  0  0  0  0  0  0  0
   -2.9870   19.8180  -33.6200 C   0  0  0  0  0  0  0  0  0  0  0  0
   -4.2950   19.5210  -33.4250 N   0  0  0  0  0  0  0  0  0  0  0  0
   -5.0990   20.2880  -32.6840 N   0  0  0  0  0  0  0  0  0  0  0  0
   -6.4710   19.8800  -32.5310 C   0  0  0  0  0  0  0  0  0  0  0  0
   -7.5210   20.7980  -32.7180 C   0  0  0  0  0  0  0  0  0  0  0  0
   -8.8480   20.3970  -32.5370 C   0  0  0  0  0  0  0  0  0  0  0  0
   -9.1390   19.0840  -32.1620 C   0  0  0  0  0  0  0  0  0  0  0  0
   -8.1020   18.1680  -31.9610 C   0  0  0  0  0  0  0  0  0  0  0  0
   -6.7740   18.5650  -32.1390 C   0  0  0  0  0  0  0  0  0  0  0  0
   -4.6190   21.4310  -32.1000 C   0  0  0  0  0  0  0  0  0  0  0  0
   -5.3820   22.1850  -31.4350 O   0  0  0  0  0  0  0  0  0  0  0  0
   -3.2700   21.7730  -32.2430 C   0  0  0  0  0  0  0  0  0  0  0  0
   -2.7900   22.9230  -31.5990 O   0  0  0  0  0  0  0  0  0  0  0  0
   -2.8120   23.1320  -30.2110 C   0  0  0  0  0  0  0  0  0  0  0  0
   -2.2370   22.1530  -29.3910 C   0  0  0  0  0  0  0  0  0  0  0  0
   -2.2450   22.2950  -28.0030 C   0  0  0  0  0  0  0  0  0  0  0  0
   -2.8130   23.4280  -27.4210 C   0  0  0  0  0  0  0  0  0  0  0  0
   -3.3690   24.4240  -28.2250 C   0  0  0  0  0  0  0  0  0  0  0  0
   -3.3650   24.2960  -29.6280 C   0  0  0  0  0  0  0  0  0  0  0  0
   -3.8770   25.3050  -30.4600 O   0  0  0  0  0  0  0  0  0  0  0  0
   -5.2560   25.4890  -30.7580 C   0  0  0  0  0  0  0  0  0  0  0  0
    1.0344   25.4796  -35.0508 H   0  0  0  0  0  0  0  0  0  0  0  0
    1.8518   25.1068  -36.6062 H   0  0  0  0  0  0  0  0  0  0  0  0
    0.1978   25.8074  -36.6062 H   0  0  0  0  0  0  0  0  0  0  0  0
   -0.6697   23.7437  -35.5191 H   0  0  0  0  0  0  0  0  0  0  0  0
    0.1377   23.3836  -37.0943 H   0  0  0  0  0  0  0  0  0  0  0  0
    2.9833   23.4026  -34.4250 H   0  0  0  0  0  0  0  0  0  0  0  0
    3.2188   22.5332  -35.9792 H   0  0  0  0  0  0  0  0  0  0  0  0
    2.6187   24.2263  -35.9792 H   0  0  0  0  0  0  0  0  0  0  0  0
    0.9979   21.5344  -37.0787 H   0  0  0  0  0  0  0  0  0  0  0  0
    2.0113   20.8639  -35.7310 H   0  0  0  0  0  0  0  0  0  0  0  0
   -1.0323   21.1806  -35.7218 H   0  0  0  0  0  0  0  0  0  0  0  0
   -0.0871   19.6352  -35.8958 H   0  0  0  0  0  0  0  0  0  0  0  0
   -0.2986   19.4248  -33.6704 H   0  0  0  0  0  0  0  0  0  0  0  0
    0.9241   20.7482  -33.5614 H   0  0  0  0  0  0  0  0  0  0  0  0
   -0.7420   22.2850  -32.9770 H   0  0  0  0  0  0  0  0  0  0  0  0
   -2.3602   19.1606  -34.2404 H   0  0  0  0  0  0  0  0  0  0  0  0
   -7.2968   21.8352  -33.0077 H   0  0  0  0  0  0  0  0  0  0  0  0
   -9.6648   21.1177  -32.6904 H   0  0  0  0  0  0  0  0  0  0  0  0
  -10.1843   18.7701  -32.0247 H   0  0  0  0  0  0  0  0  0  0  0  0
   -8.3316   17.1344  -31.6626 H   0  0  0  0  0  0  0  0  0  0  0  0
   -5.9607   17.8436  -31.9712 H   0  0  0  0  0  0  0  0  0  0  0  0
   -1.7749   21.2641  -29.8453 H   0  0  0  0  0  0  0  0  0  0  0  0
   -1.8032   21.5132  -27.3677 H   0  0  0  0  0  0  0  0  0  0  0  0
   -2.8228   23.5367  -26.3264 H   0  0  0  0  0  0  0  0  0  0  0  0
   -3.8138   25.3160  -27.7597 H   0  0  0  0  0  0  0  0  0  0  0  0
   -5.8267   25.5651  -29.8207 H   0  0  0  0  0  0  0  0  0  0  0  0
   -5.3849   26.4123  -31.3418 H   0  0  0  0  0  0  0  0  0  0  0  0
   -5.6225   24.6318  -31.3418 H   0  0  0  0  0  0  0  0  0  0  0  0
  1  2  1  0
  2  3  1  0
  3  4  1  0
  3  5  1  0
  5  6  1  0
  6  7  1  0
  7  8  1  0
  8  9  1  0
  9 10  1  0
 10 11  2  0
 11 12  1  0
 12 13  1  0
 13 14  2  0
 14 15  1  0
 15 16  2  0
 16 17  1  0
 17 18  2  0
 12 19  1  0
 19 20  2  0
 19 21  1  0
 21 22  1  0
 22 23  1  0
 23 24  2  0
 24 25  1  0
 25 26  2  0
 26 27  1  0
 27 28  2  0
 28 29  1  0
 29 30  1  0
 21  9  2  0
 28 23  1  0
 18 13  1  0
  1 31  1  0
  1 32  1  0
  1 33  1  0
  2 34  1  0
  2 35  1  0
  4 36  1  0
  4 37  1  0
  4 38  1  0
  5 39  1  0
  5 40  1  0
  6 41  1  0
  6 42  1  0
  7 43  1  0
  7 44  1  0
  8 45  1  0
 10 46  1  0
 14 47  1  0
 15 48  1  0
 16 49  1  0
 17 50  1  0
 18 51  1  0
 24 52  1  0
 25 53  1  0
 26 54  1  0
 27 55  1  0
 30 56  1  0
 30 57  1  0
 30 58  1  0
M  END
>  <UniqueID>  (6) 
6

>  <SMILES>  (6) 
CCN(C)CCCNc1cnn(-c2ccccc2)c(=O)c1Oc1ccccc1OC

>  <Energy>  (6) 
74.53574353587749

>  <Genealogy>  (6) 
CCN(C)CCCNc1cnn(-c2ccccc2)c(=O)c1Oc1ccccc1OC (3D coordinates assigned)
CCN(C)CCCNc1cnn(-c2ccccc2)c(=O)c1Oc1ccccc1OC (optimized conformer: 74.53574353587749 kcal/mol)

>  <smiles>  (6) 
CCN(C)CCCNc1cnn(-c2ccccc2)c(=O)c1Oc1ccccc1OC

>  <score_type>  (6) 
oracle

>  <origin>  (6) 
adg

>  <m_score__min__energy>  (6) 
-9.1799999999999997

>  <m_primary>  (6) 
energy

$$$$
6:0
     RDKit          3D

 50 53  0  0  0  0  0  0  0  0999 V2000
   -8.7570   18.5370  -31.5750 C   0  0  0  0  0  0  0  0  0  0  0  0
   -9.1150   19.7940  -32.3640 C   0  0  0  0  0  0  0  0  0  0  0  0
   -8.0120   20.2210  -33.1640 O   0  0  0  0  0  0  0  0  0  0  0  0
   -6.9410   21.0150  -32.7230 C   0  0  0  0  0  0  0  0  0  0  0  0
   -5.5950   20.7060  -33.0060 C   0  0  0  0  0  0  0  0  0  0  0  0
   -4.5660   21.5270  -32.5310 C   0  0  0  0  0  0  0  0  0  0  0  0
   -4.8650   22.6800  -31.7840 C   0  0  0  0  0  0  0  0  0  0  0  0
   -3.8390   23.5050  -31.2150 N   0  0  0  0  0  0  0  0  0  0  0  0
   -3.9990   24.4940  -30.1860 C   0  0  0  0  0  0  0  0  0  0  0  0
   -4.2270   25.6960  -30.4880 O   0  0  0  0  0  0  0  0  0  0  0  0
   -3.8620   24.1030  -28.7330 C   0  0  0  0  0  0  0  0  0  0  0  0
   -4.1460   22.5910  -28.5010 C   0  0  0  0  0  0  0  0  0  0  0  0
   -2.8640   21.7490  -28.3380 C   0  0  0  0  0  0  0  0  0  0  0  0
   -1.7700   22.3070  -29.1490 N   0  0  0  0  0  0  0  0  0  0  0  0
   -1.2450   21.5910  -30.2890 C   0  0  0  0  0  0  0  0  0  0  0  0
   -1.6690   21.7950  -31.5660 N   0  0  0  0  0  0  0  0  0  0  0  0
   -1.1230   20.8960  -32.4290 C   0  0  0  0  0  0  0  0  0  0  0  0
   -1.4030   20.8270  -33.7990 C   0  0  0  0  0  0  0  0  0  0  0  0
   -0.7890   19.8170  -34.5630 C   0  0  0  0  0  0  0  0  0  0  0  0
    0.0920   18.8960  -33.9550 C   0  0  0  0  0  0  0  0  0  0  0  0
    0.3650   18.9770  -32.5790 C   0  0  0  0  0  0  0  0  0  0  0  0
   -0.2570   19.9820  -31.8450 C   0  0  0  0  0  0  0  0  0  0  0  0
   -0.1640   20.2810  -30.1950 S   0  0  0  0  0  0  0  0  0  0  0  0
   -1.3550   23.6980  -28.9010 C   0  0  0  0  0  0  0  0  0  0  0  0
   -2.4680   24.5020  -28.2010 C   0  0  0  0  0  0  0  0  0  0  0  0
   -6.2010   22.9820  -31.5020 C   0  0  0  0  0  0  0  0  0  0  0  0
   -7.2300   22.1600  -31.9710 C   0  0  0  0  0  0  0  0  0  0  0  0
   -8.8178   18.7506  -30.4977 H   0  0  0  0  0  0  0  0  0  0  0  0
   -9.4614   17.7313  -31.8294 H   0  0  0  0  0  0  0  0  0  0  0  0
   -7.7338   18.2234  -31.8294 H   0  0  0  0  0  0  0  0  0  0  0  0
   -9.9725   19.5774  -33.0180 H   0  0  0  0  0  0  0  0  0  0  0  0
   -9.3678   20.5958  -31.6547 H   0  0  0  0  0  0  0  0  0  0  0  0
   -5.3522   19.8148  -33.6034 H   0  0  0  0  0  0  0  0  0  0  0  0
   -3.5180   21.2689  -32.7431 H   0  0  0  0  0  0  0  0  0  0  0  0
   -4.6256   24.6547  -28.1650 H   0  0  0  0  0  0  0  0  0  0  0  0
   -4.7519   22.4852  -27.5890 H   0  0  0  0  0  0  0  0  0  0  0  0
   -4.6711   22.2170  -29.3922 H   0  0  0  0  0  0  0  0  0  0  0  0
   -2.5647   21.7477  -27.2795 H   0  0  0  0  0  0  0  0  0  0  0  0
   -3.0687   20.7229  -28.6774 H   0  0  0  0  0  0  0  0  0  0  0  0
   -2.3430   22.5380  -31.8600 H   0  0  0  0  0  0  0  0  0  0  0  0
   -2.0888   21.5474  -34.2687 H   0  0  0  0  0  0  0  0  0  0  0  0
   -0.9967   19.7446  -35.6408 H   0  0  0  0  0  0  0  0  0  0  0  0
    0.5671   18.1110  -34.5617 H   0  0  0  0  0  0  0  0  0  0  0  0
    1.0511   18.2659  -32.0958 H   0  0  0  0  0  0  0  0  0  0  0  0
   -0.4596   23.6956  -28.2620 H   0  0  0  0  0  0  0  0  0  0  0  0
   -1.1425   24.1733  -29.8700 H   0  0  0  0  0  0  0  0  0  0  0  0
   -2.4267   24.3058  -27.1194 H   0  0  0  0  0  0  0  0  0  0  0  0
   -2.3087   25.5708  -28.4069 H   0  0  0  0  0  0  0  0  0  0  0  0
   -6.4443   23.8740  -30.9060 H   0  0  0  0  0  0  0  0  0  0  0  0
   -8.2763   22.4152  -31.7471 H   0  0  0  0  0  0  0  0  0  0  0  0
  1  2  1  0
  2  3  1  0
  3  4  1  0
  4  5  2  0
  5  6  1  0
  6  7  2  0
  7  8  1  0
  8  9  1  0
  9 10  2  0
  9 11  1  0
 11 12  1  0
 12 13  1  0
 13 14  1  0
 14 15  1  0
 15 16  2  0
 16 17  1  0
 17 18  2  0
 18 19  1  0
 19 20  2  0
 20 21  1  0
 21 22  2  0
 22 23  1  0
 14 24  1  0
 24 25  1  0
  7 26  1  0
 26 27  2  0
 27  4  1  0
 25 11  1  0
 23 15  1  0
 22 17  1  0
  1 28  1  0
  1 29  1  0
  1 30  1  0
  2 31  1  0
  2 32  1  0
  5 33  1  0
  6 34  1  0
 11 35  1  0
 12 36  1  0
 12 37  1  0
 13 38  1  0
 13 39  1  0
 16 40  1  0
 18 41  1  0
 19 42  1  0
 20 43  1  0
 21 44  1  0
 24 45  1  0
 24 46  1  0
 25 47  1  0
 25 48  1  0
 26 49  1  0
 27 50  1  0
M  CHG  2   8  -1  16   1
M  END
>  <UniqueID>  (7) 
7

>  <SMILES>  (7) 
CCOc1ccc([N-]C(=O)C2CCN(c3[nH+]c4ccccc4s3)CC2)cc1

>  <Energy>  (7) 
90.24414659399595

>  <Genealogy>  (7) 
CCOc1ccc([N-]C(=O)C2CCN(c3[nH+]c4ccccc4s3)CC2)cc1 (protonated)
CCOc1ccc([N-]C(=O)C2CCN(c3[nH+]c4ccccc4s3)CC2)cc1 (3D coordinates assigned)
CCOc1ccc([N-]C(=O)C2CCN(c3[nH+]c4ccccc4s3)CC2)cc1 (nonaromatic ring conformer: 90.24414659399595 kcal/mol)

>  <smiles>  (7) 
CCOc1ccc(NC(=O)C2CCN(c3nc4ccccc4s3)CC2)cc1

>  <score_type>  (7) 
oracle

>  <origin>  (7) 
adg

>  <m_score__min__energy>  (7) 
-10.130000000000001

>  <m_primary>  (7) 
energy

$$$$
7:0
     RDKit          3D

 44 45  0  0  0  0  0  0  0  0999 V2000
    0.2150   18.6880  -27.9540 C   0  0  0  0  0  0  0  0  0  0  0  0
   -0.2820   20.1260  -27.8110 C   0  0  0  0  0  0  0  0  0  0  0  0
   -1.6350   20.1650  -27.2120 N   0  0  0  0  0  0  0  0  0  0  0  0
   -2.0630   18.8260  -26.7280 C   0  0  0  0  0  0  0  0  0  0  0  0
   -3.5270   18.8810  -26.3080 C   0  0  0  0  0  0  0  0  0  0  0  0
   -2.6090   20.7440  -28.1650 C   0  0  0  0  0  0  0  0  0  0  0  0
   -1.9130   21.2010  -29.4540 C   0  0  0  0  0  0  0  0  0  0  0  0
   -1.4750   22.5410  -29.3200 O   0  0  0  0  0  0  0  0  0  0  0  0
   -2.4550   23.3220  -28.6670 C   0  0  0  0  0  0  0  0  0  0  0  0
   -2.5470   24.6620  -29.3370 C   0  0  0  0  0  0  0  0  0  0  0  0
   -1.7960   25.5960  -28.9480 O   0  0  0  0  0  0  0  0  0  0  0  0
   -3.4890   24.9250  -30.3860 N   0  0  0  0  0  0  0  0  0  0  0  0
   -4.7290   24.2420  -30.6120 C   0  0  0  0  0  0  0  0  0  0  0  0
   -5.9320   24.8670  -30.2180 C   0  0  0  0  0  0  0  0  0  0  0  0
   -7.1730   24.2450  -30.4400 C   0  0  0  0  0  0  0  0  0  0  0  0
   -7.1970   23.0060  -31.0790 C   0  0  0  0  0  0  0  0  0  0  0  0
   -8.3280   22.3050  -31.3510 N   0  0  0  0  0  0  0  0  0  0  0  0
   -8.0360   21.1490  -31.9960 C   0  0  0  0  0  0  0  0  0  0  0  0
   -9.0680   20.1400  -32.3700 C   0  0  0  0  0  0  0  0  0  0  0  0
   -6.3710   20.9410  -32.2240 S   0  0  0  0  0  0  0  0  0  0  0  0
   -6.0170   22.4060  -31.4870 C   0  0  0  0  0  0  0  0  0  0  0  0
   -4.7750   22.9980  -31.2790 C   0  0  0  0  0  0  0  0  0  0  0  0
    0.3659   18.2512  -26.9558 H   0  0  0  0  0  0  0  0  0  0  0  0
   -0.5305   18.0954  -28.5046 H   0  0  0  0  0  0  0  0  0  0  0  0
    1.1673   18.6822  -28.5046 H   0  0  0  0  0  0  0  0  0  0  0  0
    0.4127   20.6838  -27.1658 H   0  0  0  0  0  0  0  0  0  0  0  0
   -0.3296   20.5804  -28.8116 H   0  0  0  0  0  0  0  0  0  0  0  0
   -1.9406   18.0883  -27.5347 H   0  0  0  0  0  0  0  0  0  0  0  0
   -1.4453   18.5333  -25.8662 H   0  0  0  0  0  0  0  0  0  0  0  0
   -3.5936   18.8835  -25.2100 H   0  0  0  0  0  0  0  0  0  0  0  0
   -3.9883   19.7971  -26.7054 H   0  0  0  0  0  0  0  0  0  0  0  0
   -4.0557   18.0021  -26.7054 H   0  0  0  0  0  0  0  0  0  0  0  0
   -3.3639   19.9837  -28.4141 H   0  0  0  0  0  0  0  0  0  0  0  0
   -3.0826   21.6180  -27.6940 H   0  0  0  0  0  0  0  0  0  0  0  0
   -1.0463   20.5524  -29.6494 H   0  0  0  0  0  0  0  0  0  0  0  0
   -2.6243   21.1360  -30.2905 H   0  0  0  0  0  0  0  0  0  0  0  0
   -3.4289   22.8140  -28.7255 H   0  0  0  0  0  0  0  0  0  0  0  0
   -2.1770   23.4557  -27.6111 H   0  0  0  0  0  0  0  0  0  0  0  0
   -5.8979   25.8529  -29.7313 H   0  0  0  0  0  0  0  0  0  0  0  0
   -8.1073   24.7266  -30.1158 H   0  0  0  0  0  0  0  0  0  0  0  0
   -9.5078   19.7100  -31.4580 H   0  0  0  0  0  0  0  0  0  0  0  0
   -9.8567   20.6250  -32.9639 H   0  0  0  0  0  0  0  0  0  0  0  0
   -8.6009   19.3406  -32.9639 H   0  0  0  0  0  0  0  0  0  0  0  0
   -3.8523   22.5094  -31.6253 H   0  0  0  0  0  0  0  0  0  0  0  0
  1  2  1  0
  2  3  1  0
  3  4  1  0
  4  5  1  0
  3  6  1  0
  6  7  1  0
  7  8  1  0
  8  9  1  0
  9 10  1  0
 10 11  2  0
 10 12  1  0
 12 13  1  0
 13 14  2  0
 14 15  1  0
 15 16  2  0
 16 17  1  0
 17 18  2  0
 18 19  1  0
 18 20  1  0
 20 21  1  0
 21 22  2  0
 22 13  1  0
 21 16  1  0
  1 23  1  0
  1 24  1  0
  1 25  1  0
  2 26  1  0
  2 27  1  0
  4 28  1  0
  4 29  1  0
  5 30  1  0
  5 31  1  0
  5 32  1  0
  6 33  1  0
  6 34  1  0
  7 35  1  0
  7 36  1  0
  9 37  1  0
  9 38  1  0
 14 39  1  0
 15 40  1  0
 19 41  1  0
 19 42  1  0
 19 43  1  0
 22 44  1  0
M  CHG  1  12  -1
M  END
>  <UniqueID>  (8) 
8

>  <SMILES>  (8) 
CCN(CC)CCOCC(=O)[N-]c1ccc2nc(C)sc2c1

>  <Energy>  (8) 
80.55526652743977

>  <Genealogy>  (8) 
CCN(CC)CCOCC(=O)[N-]c1ccc2nc(C)sc2c1 (protonated)
CCN(CC)CCOCC(=O)[N-]c1ccc2nc(C)sc2c1 (3D coordinates assigned)
CCN(CC)CCOCC(=O)[N-]c1ccc2nc(C)sc2c1 (optimized conformer: 80.55526652743977 kcal/mol)

>  <smiles>  (8) 
CCN(CC)CCOCC(=O)Nc1ccc2nc(C)sc2c1

>  <score_type>  (8) 
oracle

>  <origin>  (8) 
adg

>  <m_score__min__energy>  (8) 
-8.8599999999999994

>  <m_primary>  (8) 
energy

$$$$
8:0
     RDKit          3D

 73 77  0  0  0  0  0  0  0  0999 V2000
    2.0260   26.4350  -23.7680 C   0  0  0  0  0  0  0  0  0  0  0  0
    1.1670   27.3070  -22.9510 N   0  0  0  0  0  0  0  0  0  0  0  0
    1.3920   28.7270  -23.2800 C   0  0  0  0  0  0  0  0  0  0  0  0
   -0.2650   26.9290  -23.0250 C   0  0  0  0  0  0  0  0  0  0  0  0
   -0.5890   25.8590  -24.0870 C   0  0  0  0  0  0  0  0  0  0  0  0
   -0.9480   26.4780  -25.3220 O   0  0  0  0  0  0  0  0  0  0  0  0
   -1.5490   25.8290  -26.4130 C   0  0  0  0  0  0  0  0  0  0  0  0
   -0.9640   25.7930  -27.6940 C   0  0  0  0  0  0  0  0  0  0  0  0
   -1.6080   25.1350  -28.7450 C   0  0  0  0  0  0  0  0  0  0  0  0
   -2.8330   24.4880  -28.5340 C   0  0  0  0  0  0  0  0  0  0  0  0
   -3.5060   23.8170  -29.6650 C   0  0  0  0  0  0  0  0  0  0  0  0
   -4.4240   24.3950  -30.3990 O   0  0  0  0  0  0  0  0  0  0  0  0
   -4.8420   23.5060  -31.2720 C   0  0  0  0  0  0  0  0  0  0  0  0
   -5.8950   23.7980  -32.3010 C   0  0  0  0  0  0  0  0  0  0  0  0
   -7.0590   22.7870  -32.2650 C   0  0  0  0  0  0  0  0  0  0  0  0
   -6.6410   21.3710  -32.6560 C   0  0  0  0  0  0  0  0  0  0  0  0
   -7.6370   20.4470  -31.9670 C   0  0  0  0  0  0  0  0  0  0  0  0
   -8.2850   21.2550  -30.8410 C   0  0  0  0  0  0  0  0  0  0  0  0
   -7.6470   22.6390  -30.8680 C   0  0  0  0  0  0  0  0  0  0  0  0
   -4.1970   22.3240  -31.1620 N   0  0  0  0  0  0  0  0  0  0  0  0
   -3.3450   22.5210  -30.1370 C   0  0  0  0  0  0  0  0  0  0  0  0
   -2.3810   21.4950  -29.6900 C   0  0  0  0  0  0  0  0  0  0  0  0
   -2.5310   20.9050  -28.4300 C   0  0  0  0  0  0  0  0  0  0  0  0
   -1.6270   19.9360  -27.9880 C   0  0  0  0  0  0  0  0  0  0  0  0
   -0.5480   19.5140  -28.8020 C   0  0  0  0  0  0  0  0  0  0  0  0
    0.4030   18.5070  -28.3390 N   0  0  0  0  0  0  0  0  0  0  0  0
    1.8410   18.6760  -28.6420 C   0  0  0  0  0  0  0  0  0  0  0  0
    2.7140   17.5140  -28.1580 C   0  0  0  0  0  0  0  0  0  0  0  0
    2.2600   17.0180  -26.9210 O   0  0  0  0  0  0  0  0  0  0  0  0
    1.0170   16.3900  -27.1240 C   0  0  0  0  0  0  0  0  0  0  0  0
   -0.0660   17.4180  -27.4550 C   0  0  0  0  0  0  0  0  0  0  0  0
   -0.4350   20.0950  -30.0860 C   0  0  0  0  0  0  0  0  0  0  0  0
   -1.3400   21.0660  -30.5230 C   0  0  0  0  0  0  0  0  0  0  0  0
   -3.4260   24.5390  -27.2620 C   0  0  0  0  0  0  0  0  0  0  0  0
   -2.7800   25.1940  -26.2100 C   0  0  0  0  0  0  0  0  0  0  0  0
    2.6441   25.8076  -23.1090 H   0  0  0  0  0  0  0  0  0  0  0  0
    1.3982   25.7925  -24.4029 H   0  0  0  0  0  0  0  0  0  0  0  0
    2.6778   27.0531  -24.4029 H   0  0  0  0  0  0  0  0  0  0  0  0
    1.4590   27.1770  -21.9530 H   0  0  0  0  0  0  0  0  0  0  0  0
    1.4841   29.3085  -22.3508 H   0  0  0  0  0  0  0  0  0  0  0  0
    2.3169   28.8252  -23.8673 H   0  0  0  0  0  0  0  0  0  0  0  0
    0.5428   29.1063  -23.8673 H   0  0  0  0  0  0  0  0  0  0  0  0
   -0.5692   26.5406  -22.0418 H   0  0  0  0  0  0  0  0  0  0  0  0
   -0.8138   27.8365  -23.3171 H   0  0  0  0  0  0  0  0  0  0  0  0
    0.2953   25.2237  -24.2433 H   0  0  0  0  0  0  0  0  0  0  0  0
   -1.4339   25.2495  -23.7339 H   0  0  0  0  0  0  0  0  0  0  0  0
    0.0043   26.2852  -27.8677 H   0  0  0  0  0  0  0  0  0  0  0  0
   -1.1502   25.1248  -29.7451 H   0  0  0  0  0  0  0  0  0  0  0  0
   -6.2976   24.8049  -32.1165 H   0  0  0  0  0  0  0  0  0  0  0  0
   -5.4214   23.7243  -33.2911 H   0  0  0  0  0  0  0  0  0  0  0  0
   -7.7818   23.2019  -32.9829 H   0  0  0  0  0  0  0  0  0  0  0  0
   -6.6899   21.2434  -33.7475 H   0  0  0  0  0  0  0  0  0  0  0  0
   -5.6060   21.1532  -32.3537 H   0  0  0  0  0  0  0  0  0  0  0  0
   -8.4027   20.1143  -32.6832 H   0  0  0  0  0  0  0  0  0  0  0  0
   -7.1356   19.5513  -31.5716 H   0  0  0  0  0  0  0  0  0  0  0  0
   -9.3694   21.3347  -31.0078 H   0  0  0  0  0  0  0  0  0  0  0  0
   -8.1304   20.7683  -29.8667 H   0  0  0  0  0  0  0  0  0  0  0  0
   -8.4045   23.4154  -30.6852 H   0  0  0  0  0  0  0  0  0  0  0  0
   -6.8798   22.7507  -30.0877 H   0  0  0  0  0  0  0  0  0  0  0  0
   -3.3674   21.2066  -27.7824 H   0  0  0  0  0  0  0  0  0  0  0  0
   -1.7557   19.4928  -26.9895 H   0  0  0  0  0  0  0  0  0  0  0  0
    1.9577   18.7672  -29.7320 H   0  0  0  0  0  0  0  0  0  0  0  0
    2.1783   19.5757  -28.1065 H   0  0  0  0  0  0  0  0  0  0  0  0
    2.6807   16.7054  -28.9030 H   0  0  0  0  0  0  0  0  0  0  0  0
    3.7431   17.8808  -28.0301 H   0  0  0  0  0  0  0  0  0  0  0  0
    1.1050   15.6783  -27.9581 H   0  0  0  0  0  0  0  0  0  0  0  0
    0.7331   15.8654  -26.1998 H   0  0  0  0  0  0  0  0  0  0  0  0
   -0.8977   16.8988  -27.9537 H   0  0  0  0  0  0  0  0  0  0  0  0
   -0.3721   17.8818  -26.5057 H   0  0  0  0  0  0  0  0  0  0  0  0
    0.3799   19.7770  -30.7529 H   0  0  0  0  0  0  0  0  0  0  0  0
   -1.2339   21.4969  -31.5295 H   0  0  0  0  0  0  0  0  0  0  0  0
   -4.4025   24.0616  -27.0931 H   0  0  0  0  0  0  0  0  0  0  0  0
   -3.2434   25.2108  -25.2125 H   0  0  0  0  0  0  0  0  0  0  0  0
  1  2  1  0
  2  3  1  0
  2  4  1  0
  4  5  1  0
  5  6  1  0
  6  7  1  0
  7  8  2  0
  8  9  1  0
  9 10  2  0
 10 11  1  0
 11 12  1  0
 12 13  1  0
 13 14  1  0
 14 15  1  0
 15 16  1  0
 16 17  1  0
 17 18  1  0
 18 19  1  0
 13 20  2  0
 20 21  1  0
 21 22  1  0
 22 23  2  0
 23 24  1  0
 24 25  2  0
 25 26  1  0
 26 27  1  0
 27 28  1  0
 28 29  1  0
 29 30  1  0
 30 31  1  0
 25 32  1  0
 32 33  2  0
 10 34  1  0
 34 35  2  0
 35  7  1  0
 21 11  2  0
 33 22  1  0
 19 15  1  0
 31 26  1  0
  1 36  1  0
  1 37  1  0
  1 38  1  0
  2 39  1  0
  3 40  1  0
  3 41  1  0
  3 42  1  0
  4 43  1  0
  4 44  1  0
  5 45  1  0
  5 46  1  0
  8 47  1  0
  9 48  1  0
 14 49  1  0
 14 50  1  0
 15 51  1  0
 16 52  1  0
 16 53  1  0
 17 54  1  0
 17 55  1  0
 18 56  1  0
 18 57  1  0
 19 58  1  0
 19 59  1  0
 23 60  1  0
 24 61  1  0
 27 62  1  0
 27 63  1  0
 28 64  1  0
 28 65  1  0
 30 66  1  0
 30 67  1  0
 31 68  1  0
 31 69  1  0
 32 70  1  0
 33 71  1  0
 34 72  1  0
 35 73  1  0
M  CHG  1   2   1
M  END
>  <UniqueID>  (9) 
9

>  <SMILES>  (9) 
C[NH+](C)CCOc1ccc(-c2oc(CC3CCCC3)nc2-c2ccc(N3CCOCC3)cc2)cc1

>  <Energy>  (9) 
121.0795369124361

>  <Genealogy>  (9) 
C[NH+](C)CCOc1ccc(-c2oc(CC3CCCC3)nc2-c2ccc(N3CCOCC3)cc2)cc1 (protonated)
C[NH+](C)CCOc1ccc(-c2oc(CC3CCCC3)nc2-c2ccc(N3CCOCC3)cc2)cc1 (3D coordinates assigned)
C[NH+](C)CCOc1ccc(-c2oc(CC3CCCC3)nc2-c2ccc(N3CCOCC3)cc2)cc1 (nonaromatic ring conformer: 121.0795369124361 kcal/mol)

>  <smiles>  (9) 
CN(C)CCOc1ccc(-c2oc(CC3CCCC3)nc2-c2ccc(N3CCOCC3)cc2)cc1

>  <score_type>  (9) 
oracle

>  <origin>  (9) 
adg

>  <m_score__min__energy>  (9) 
-9.8100000000000005

>  <m_primary>  (9) 
energy

$$$$
9:0
     RDKit          3D

 38 40  0  0  0  0  0  0  0  0999 V2000
   -2.1030   25.0910  -28.0960 C   0  0  0  0  0  0  0  0  0  0  0  0
   -2.7370   25.2880  -29.3560 O   0  0  0  0  0  0  0  0  0  0  0  0
   -3.7950   24.5050  -29.8480 C   0  0  0  0  0  0  0  0  0  0  0  0
   -5.0640   25.0560  -30.1120 C   0  0  0  0  0  0  0  0  0  0  0  0
   -6.0960   24.2560  -30.6030 C   0  0  0  0  0  0  0  0  0  0  0  0
   -5.8870   22.8890  -30.8460 C   0  0  0  0  0  0  0  0  0  0  0  0
   -6.9890   22.0370  -31.3600 C   0  0  0  0  0  0  0  0  0  0  0  0
   -8.3300   22.4450  -31.2260 C   0  0  0  0  0  0  0  0  0  0  0  0
   -9.3660   21.6410  -31.7120 C   0  0  0  0  0  0  0  0  0  0  0  0
   -9.0770   20.4240  -32.3330 C   0  0  0  0  0  0  0  0  0  0  0  0
   -7.7510   20.0080  -32.4710 C   0  0  0  0  0  0  0  0  0  0  0  0
   -7.4720   18.8240  -33.0710 F   0  0  0  0  0  0  0  0  0  0  0  0
   -6.7110   20.8080  -31.9890 C   0  0  0  0  0  0  0  0  0  0  0  0
   -4.6200   22.3390  -30.5890 C   0  0  0  0  0  0  0  0  0  0  0  0
   -3.5780   23.1340  -30.0830 C   0  0  0  0  0  0  0  0  0  0  0  0
   -2.2320   22.5120  -29.7960 C   0  0  0  0  0  0  0  0  0  0  0  0
   -2.0960   21.2410  -30.5030 N   0  0  0  0  0  0  0  0  0  0  0  0
   -1.6910   21.1620  -31.8480 N   0  0  0  0  0  0  0  0  0  0  0  0
   -0.4340   21.0010  -32.2970 C   0  0  0  0  0  0  0  0  0  0  0  0
   -0.4070   20.9850  -33.6460 N   0  0  0  0  0  0  0  0  0  0  0  0
   -1.6610   21.1400  -34.0460 N   0  0  0  0  0  0  0  0  0  0  0  0
   -2.4430   21.2510  -32.9590 C   0  0  0  0  0  0  0  0  0  0  0  0
   -2.8160   25.3125  -27.2882 H   0  0  0  0  0  0  0  0  0  0  0  0
   -1.7682   24.0465  -28.0133 H   0  0  0  0  0  0  0  0  0  0  0  0
   -1.2352   25.7618  -28.0133 H   0  0  0  0  0  0  0  0  0  0  0  0
   -5.2428   26.1259  -29.9295 H   0  0  0  0  0  0  0  0  0  0  0  0
   -7.0825   24.7002  -30.8016 H   0  0  0  0  0  0  0  0  0  0  0  0
   -8.5641   23.4017  -30.7362 H   0  0  0  0  0  0  0  0  0  0  0  0
  -10.4108   21.9680  -31.6049 H   0  0  0  0  0  0  0  0  0  0  0  0
   -9.8938   19.7931  -32.7135 H   0  0  0  0  0  0  0  0  0  0  0  0
   -5.6686   20.4754  -32.1017 H   0  0  0  0  0  0  0  0  0  0  0  0
   -4.4415   21.2717  -30.7866 H   0  0  0  0  0  0  0  0  0  0  0  0
   -1.4381   23.1975  -30.1273 H   0  0  0  0  0  0  0  0  0  0  0  0
   -2.1473   22.3291  -28.7146 H   0  0  0  0  0  0  0  0  0  0  0  0
   -2.3420   20.3610  -29.9950 H   0  0  0  0  0  0  0  0  0  0  0  0
    0.4514   20.8966  -31.6527 H   0  0  0  0  0  0  0  0  0  0  0  0
   -1.9680   21.1760  -35.0430 H   0  0  0  0  0  0  0  0  0  0  0  0
   -3.5336   21.3932  -32.9756 H   0  0  0  0  0  0  0  0  0  0  0  0
  1  2  1  0
  2  3  1  0
  3  4  2  0
  4  5  1  0
  5  6  2  0
  6  7  1  0
  7  8  2  0
  8  9  1  0
  9 10  2  0
 10 11  1  0
 11 12  1  0
 11 13  2  0
  6 14  1  0
 14 15  2  0
 15 16  1  0
 16 17  1  0
 17 18  1  0
 18 19  1  0
 19 20  2  0
 20 21  1  0
 21 22  2  0
 15  3  1  0
 22 18  1  0
 13  7  1  0
  1 23  1  0
  1 24  1  0
  1 25  1  0
  4 26  1  0
  5 27  1  0
  8 28  1  0
  9 29  1  0
 10 30  1  0
 13 31  1  0
 14 32  1  0
 16 33  1  0
 16 34  1  0
 17 35  1  0
 19 36  1  0
 21 37  1  0
 22 38  1  0
M  CHG  1  21   1
M  END
>  <UniqueID>  (10) 
10

>  <SMILES>  (10) 
COc1ccc(-c2cccc(F)c2)cc1CNn1cn[nH+]c1

>  <Energy>  (10) 
79.12675721943445

>  <Genealogy>  (10) 
COc1ccc(-c2cccc(F)c2)cc1CNn1cn[nH+]c1 (protonated)
COc1ccc(-c2cccc(F)c2)cc1CNn1cn[nH+]c1 (3D coordinates assigned)
COc1ccc(-c2cccc(F)c2)cc1CNn1cn[nH+]c1 (optimized conformer: 79.12675721943445 kcal/mol)

>  <smiles>  (10) 
COc1ccc(-c2cccc(F)c2)cc1CNn1cnnc1

>  <score_type>  (10) 
oracle

>  <origin>  (10) 
adg

>  <m_score__min__energy>  (10) 
-7.6299999999999999

>  <m_primary>  (10) 
energy

$$$$
10:0
     RDKit          3D

 48 49  0  0  0  0  0  0  0  0999 V2000
   -4.9930   17.6770  -35.1100 C   0  0  0  0  0  0  0  0  0  0  0  0
   -5.7650   18.9200  -34.6730 C   0  0  0  0  0  0  0  0  0  0  0  0
   -5.3360   19.3880  -33.3460 N   0  0  0  0  0  0  0  0  0  0  0  0
   -4.7840   18.4340  -32.3710 C   0  0  0  0  0  0  0  0  0  0  0  0
   -5.8670   17.4930  -31.8550 C   0  0  0  0  0  0  0  0  0  0  0  0
   -5.7970   20.6730  -32.8790 C   0  0  0  0  0  0  0  0  0  0  0  0
   -4.8860   21.7560  -32.7810 C   0  0  0  0  0  0  0  0  0  0  0  0
   -3.4950   21.5710  -33.1180 N   0  0  0  0  0  0  0  0  0  0  0  0
   -2.4420   21.4010  -32.1110 C   0  0  0  0  0  0  0  0  0  0  0  0
   -1.1650   20.8130  -32.7310 C   0  0  0  0  0  0  0  0  0  0  0  0
   -1.3800   20.4210  -34.1420 N   0  0  0  0  0  0  0  0  0  0  0  0
   -1.6260   18.9710  -34.2290 C   0  0  0  0  0  0  0  0  0  0  0  0
   -0.2190   20.7710  -34.9760 C   0  0  0  0  0  0  0  0  0  0  0  0
   -5.3520   23.0060  -32.3350 C   0  0  0  0  0  0  0  0  0  0  0  0
   -6.6850   23.1900  -31.9810 C   0  0  0  0  0  0  0  0  0  0  0  0
   -7.5910   22.1280  -32.0620 C   0  0  0  0  0  0  0  0  0  0  0  0
   -8.9330   22.3220  -31.6960 C   0  0  0  0  0  0  0  0  0  0  0  0
   -9.8430   21.2670  -31.7790 C   0  0  0  0  0  0  0  0  0  0  0  0
   -9.4230   20.0170  -32.2300 C   0  0  0  0  0  0  0  0  0  0  0  0
   -8.0920   19.8100  -32.5980 C   0  0  0  0  0  0  0  0  0  0  0  0
   -7.1540   20.8590  -32.5160 C   0  0  0  0  0  0  0  0  0  0  0  0
   -4.6511   17.1264  -34.2212 H   0  0  0  0  0  0  0  0  0  0  0  0
   -5.6489   17.0307  -35.7118 H   0  0  0  0  0  0  0  0  0  0  0  0
   -4.1230   17.9785  -35.7118 H   0  0  0  0  0  0  0  0  0  0  0  0
   -5.5942   19.7219  -35.4063 H   0  0  0  0  0  0  0  0  0  0  0  0
   -6.8320   18.6588  -34.6162 H   0  0  0  0  0  0  0  0  0  0  0  0
   -3.9934   17.8418  -32.8550 H   0  0  0  0  0  0  0  0  0  0  0  0
   -4.3756   18.9989  -31.5201 H   0  0  0  0  0  0  0  0  0  0  0  0
   -5.8625   17.4969  -30.7550 H   0  0  0  0  0  0  0  0  0  0  0  0
   -6.8490   17.8296  -32.2189 H   0  0  0  0  0  0  0  0  0  0  0  0
   -5.6708   16.4736  -32.2189 H   0  0  0  0  0  0  0  0  0  0  0  0
   -3.2110   21.5920  -34.1220 H   0  0  0  0  0  0  0  0  0  0  0  0
   -2.2074   22.3807  -31.6693 H   0  0  0  0  0  0  0  0  0  0  0  0
   -2.8068   20.7041  -31.3420 H   0  0  0  0  0  0  0  0  0  0  0  0
   -0.3658   21.5675  -32.6871 H   0  0  0  0  0  0  0  0  0  0  0  0
   -0.8858   19.9145  -32.1611 H   0  0  0  0  0  0  0  0  0  0  0  0
   -1.6975   18.5498  -33.2154 H   0  0  0  0  0  0  0  0  0  0  0  0
   -2.5676   18.7905  -34.7683 H   0  0  0  0  0  0  0  0  0  0  0  0
   -0.7966   18.4901  -34.7683 H   0  0  0  0  0  0  0  0  0  0  0  0
    0.6329   21.0278  -34.3293 H   0  0  0  0  0  0  0  0  0  0  0  0
    0.0481   19.9135  -35.6110 H   0  0  0  0  0  0  0  0  0  0  0  0
   -0.4703   21.6333  -35.6110 H   0  0  0  0  0  0  0  0  0  0  0  0
   -4.6516   23.8513  -32.2650 H   0  0  0  0  0  0  0  0  0  0  0  0
   -7.0280   24.1764  -31.6355 H   0  0  0  0  0  0  0  0  0  0  0  0
   -9.2679   23.3085  -31.3428 H   0  0  0  0  0  0  0  0  0  0  0  0
  -10.8925   21.4222  -31.4882 H   0  0  0  0  0  0  0  0  0  0  0  0
  -10.1440   19.1889  -32.2964 H   0  0  0  0  0  0  0  0  0  0  0  0
   -7.7727   18.8197  -32.9550 H   0  0  0  0  0  0  0  0  0  0  0  0
  1  2  1  0
  2  3  1  0
  3  4  1  0
  4  5  1  0
  3  6  1  0
  6  7  2  0
  7  8  1  0
  8  9  1  0
  9 10  1  0
 10 11  1  0
 11 12  1  0
 11 13  1  0
  7 14  1  0
 14 15  2  0
 15 16  1  0
 16 17  2  0
 17 18  1  0
 18 19  2  0
 19 20  1  0
 20 21  2  0
 21  6  1  0
 21 16  1  0
  1 22  1  0
  1 23  1  0
  1 24  1  0
  2 25  1  0
  2 26  1  0
  4 27  1  0
  4 28  1  0
  5 29  1  0
  5 30  1  0
  5 31  1  0
  8 32  1  0
  9 33  1  0
  9 34  1  0
 10 35  1  0
 10 36  1  0
 12 37  1  0
 12 38  1  0
 12 39  1  0
 13 40  1  0
 13 41  1  0
 13 42  1  0
 14 43  1  0
 15 44  1  0
 17 45  1  0
 18 46  1  0
 19 47  1  0
 20 48  1  0
M  END
>  <UniqueID>  (11) 
11

>  <SMILES>  (11) 
CCN(CC)c1c(NCCN(C)C)ccc2ccccc12

>  <Energy>  (11) 
49.80365492737379

>  <Genealogy>  (11) 
CCN(CC)c1c(NCCN(C)C)ccc2ccccc12 (3D coordinates assigned)
CCN(CC)c1c(NCCN(C)C)ccc2ccccc12 (optimized conformer: 49.80365492737379 kcal/mol)

>  <smiles>  (11) 
CCN(CC)c1c(NCCN(C)C)ccc2ccccc12

>  <score_type>  (11) 
oracle

>  <origin>  (11) 
adg

>  <m_score__min__energy>  (11) 
-6.5999999999999996

>  <m_primary>  (11) 
energy

$$$$
11:0
     RDKit          3D

 35 35  0  0  0  0  0  0  0  0999 V2000
   -5.3920   16.3120  -31.8820 C   0  0  0  0  0  0  0  0  0  0  0  0
   -6.1370   17.5470  -31.3620 C   0  0  0  0  0  0  0  0  0  0  0  0
   -7.0070   18.1520  -32.3980 N   0  0  0  0  0  0  0  0  0  0  0  0
   -6.7290   17.7160  -33.7880 C   0  0  0  0  0  0  0  0  0  0  0  0
   -5.7700   18.6040  -34.5940 C   0  0  0  0  0  0  0  0  0  0  0  0
   -8.7530   18.1960  -31.9800 S   0  0  0  0  0  0  0  0  0  0  0  0
   -8.9070   19.8770  -31.2610 C   0  0  0  0  0  0  0  0  0  0  0  0
   -8.5930   20.9300  -32.3230 C   0  0  0  0  0  0  0  0  0  0  0  0
   -7.2430   20.8200  -32.7770 O   0  0  0  0  0  0  0  0  0  0  0  0
   -6.1480   21.5310  -32.2620 C   0  0  0  0  0  0  0  0  0  0  0  0
   -4.8280   21.0370  -32.3020 C   0  0  0  0  0  0  0  0  0  0  0  0
   -3.7740   21.8030  -31.7960 C   0  0  0  0  0  0  0  0  0  0  0  0
   -4.0230   23.0600  -31.2400 C   0  0  0  0  0  0  0  0  0  0  0  0
   -5.3300   23.5520  -31.1840 C   0  0  0  0  0  0  0  0  0  0  0  0
   -5.6720   25.2710  -30.4280 Br  0  0  0  0  0  0  0  0  0  0  0  0
   -6.3870   22.7860  -31.6860 C   0  0  0  0  0  0  0  0  0  0  0  0
   -5.0321   15.7155  -31.0307 H   0  0  0  0  0  0  0  0  0  0  0  0
   -6.0737   15.7033  -32.4942 H   0  0  0  0  0  0  0  0  0  0  0  0
   -4.5356   16.6312  -32.4942 H   0  0  0  0  0  0  0  0  0  0  0  0
   -6.7598   17.2506  -30.5051 H   0  0  0  0  0  0  0  0  0  0  0  0
   -5.3867   18.2967  -31.0705 H   0  0  0  0  0  0  0  0  0  0  0  0
   -6.7560   19.1700  -32.4110 H   0  0  0  0  0  0  0  0  0  0  0  0
   -6.2950   16.7062  -33.7433 H   0  0  0  0  0  0  0  0  0  0  0  0
   -7.6939   17.7690  -34.3135 H   0  0  0  0  0  0  0  0  0  0  0  0
   -5.1416   19.1859  -33.9037 H   0  0  0  0  0  0  0  0  0  0  0  0
   -5.1305   17.9721  -35.2278 H   0  0  0  0  0  0  0  0  0  0  0  0
   -6.3509   19.2901  -35.2278 H   0  0  0  0  0  0  0  0  0  0  0  0
   -9.9337   20.0239  -30.8946 H   0  0  0  0  0  0  0  0  0  0  0  0
   -8.1956   19.9803  -30.4284 H   0  0  0  0  0  0  0  0  0  0  0  0
   -9.2713   20.7908  -33.1777 H   0  0  0  0  0  0  0  0  0  0  0  0
   -8.7301   21.9260  -31.8768 H   0  0  0  0  0  0  0  0  0  0  0  0
   -4.6269   20.0451  -32.7330 H   0  0  0  0  0  0  0  0  0  0  0  0
   -2.7455   21.4149  -31.8357 H   0  0  0  0  0  0  0  0  0  0  0  0
   -3.1909   23.6623  -30.8465 H   0  0  0  0  0  0  0  0  0  0  0  0
   -7.4154   23.1722  -31.6282 H   0  0  0  0  0  0  0  0  0  0  0  0
  1  2  1  0
  2  3  1  0
  3  4  1  0
  4  5  1  0
  3  6  1  0
  6  7  1  0
  7  8  1  0
  8  9  1  0
  9 10  1  0
 10 11  2  0
 11 12  1  0
 12 13  2  0
 13 14  1  0
 14 15  1  0
 14 16  2  0
 16 10  1  0
  1 17  1  0
  1 18  1  0
  1 19  1  0
  2 20  1  0
  2 21  1  0
  3 22  1  0
  4 23  1  0
  4 24  1  0
  5 25  1  0
  5 26  1  0
  5 27  1  0
  7 28  1  0
  7 29  1  0
  8 30  1  0
  8 31  1  0
 11 32  1  0
 12 33  1  0
 13 34  1  0
 16 35  1  0
M  CHG  1   3   1
M  END
>  <UniqueID>  (12) 
12

>  <SMILES>  (12) 
CC[NH+](CC)SCCOc1cccc(Br)c1

>  <Energy>  (12) 
37.08545127953648

>  <Genealogy>  (12) 
CC[NH+](CC)SCCOc1cccc(Br)c1 (protonated)
CC[NH+](CC)SCCOc1cccc(Br)c1 (3D coordinates assigned)
CC[NH+](CC)SCCOc1cccc(Br)c1 (optimized conformer: 37.08545127953648 kcal/mol)

>  <smiles>  (12) 
CCN(CC)SCCOc1cccc(Br)c1

>  <score_type>  (12) 
oracle

>  <origin>  (12) 
adg

>  <m_score__min__energy>  (12) 
-4.7699999999999996

>  <m_primary>  (12) 
energy

$$$$
12:0
     RDKit          3D

 28 29  0  0  0  0  0  0  0  0999 V2000
   -3.5910   20.9530  -32.3260 C   0  0  0  0  0  0  0  0  0  0  0  0
   -4.5840   21.0480  -31.3090 O   0  0  0  0  0  0  0  0  0  0  0  0
   -5.9530   21.2580  -31.5450 C   0  0  0  0  0  0  0  0  0  0  0  0
   -6.6610   20.4980  -32.4980 C   0  0  0  0  0  0  0  0  0  0  0  0
   -8.0260   20.7100  -32.7000 C   0  0  0  0  0  0  0  0  0  0  0  0
   -8.7010   21.6730  -31.9550 C   0  0  0  0  0  0  0  0  0  0  0  0
   -8.0150   22.4350  -31.0090 C   0  0  0  0  0  0  0  0  0  0  0  0
   -6.6320   22.2520  -30.8020 C   0  0  0  0  0  0  0  0  0  0  0  0
   -5.8880   23.0570  -29.7480 C   0  0  2  0  0  0  0  0  0  0  0  0
   -6.3670   24.5220  -29.7150 C   0  0  0  0  0  0  0  0  0  0  0  0
   -5.7340   25.3300  -30.8530 C   0  0  0  0  0  0  0  0  0  0  0  0
   -4.2790   25.1840  -30.8460 N   0  0  0  0  0  0  0  0  0  0  0  0
   -3.6840   24.0920  -30.4720 C   0  0  0  0  0  0  0  0  0  0  0  0
   -4.4360   22.9890  -29.9480 N   0  0  0  0  0  0  0  0  0  0  0  0
   -2.5984   20.8580  -31.8615 H   0  0  0  0  0  0  0  0  0  0  0  0
   -3.7895   20.0697  -32.9509 H   0  0  0  0  0  0  0  0  0  0  0  0
   -3.6184   21.8579  -32.9509 H   0  0  0  0  0  0  0  0  0  0  0  0
   -6.1342   19.7325  -33.0867 H   0  0  0  0  0  0  0  0  0  0  0  0
   -8.5691   20.1151  -33.4491 H   0  0  0  0  0  0  0  0  0  0  0  0
   -9.7778   21.8335  -32.1126 H   0  0  0  0  0  0  0  0  0  0  0  0
   -8.5587   23.1868  -30.4181 H   0  0  0  0  0  0  0  0  0  0  0  0
   -6.1171   22.6045  -28.7719 H   0  0  0  0  0  0  0  0  0  0  0  0
   -7.4615   24.5456  -29.8221 H   0  0  0  0  0  0  0  0  0  0  0  0
   -6.0651   24.9690  -28.7563 H   0  0  0  0  0  0  0  0  0  0  0  0
   -6.1281   24.9689  -31.8144 H   0  0  0  0  0  0  0  0  0  0  0  0
   -5.9827   26.3922  -30.7122 H   0  0  0  0  0  0  0  0  0  0  0  0
   -2.5903   24.0121  -30.5581 H   0  0  0  0  0  0  0  0  0  0  0  0
   -3.9340   22.0990  -29.7300 H   0  0  0  0  0  0  0  0  0  0  0  0
  1  2  1  0
  2  3  1  0
  3  4  2  0
  4  5  1  0
  5  6  2  0
  6  7  1  0
  7  8  2  0
  8  9  1  0
  9 10  1  0
 10 11  1  0
 11 12  1  0
 12 13  2  0
 13 14  1  0
  8  3  1  0
 14  9  1  0
  1 15  1  0
  1 16  1  0
  1 17  1  0
  4 18  1  0
  5 19  1  0
  6 20  1  0
  7 21  1  0
  9 22  1  1
 10 23  1  0
 10 24  1  0
 11 25  1  0
 11 26  1  0
 13 27  1  0
 14 28  1  0
M  END
>  <UniqueID>  (13) 
13

>  <SMILES>  (13) 
COc1ccccc1[C@@H]1CCN=CN1

>  <Energy>  (13) 
27.613605989717165

>  <Genealogy>  (13) 
COc1ccccc1[C@@H]1CCN=CN1 (chirality)
COc1ccccc1[C@@H]1CCN=CN1 (3D coordinates assigned)
COc1ccccc1[C@@H]1CCN=CN1 (nonaromatic ring conformer: 27.613605989717165 kcal/mol)

>  <smiles>  (13) 
COc1ccccc1C1CCN=CN1

>  <score_type>  (13) 
oracle

>  <origin>  (13) 
adg

>  <m_score__min__energy>  (13) 
-5.3600000000000003

>  <m_primary>  (13) 
energy

$$$$
13:0
     RDKit          3D

 44 45  0  0  0  0  0  0  0  0999 V2000
   -6.1010   25.6770  -29.8020 C   0  0  0  0  0  0  0  0  0  0  0  0
   -5.0630   25.2170  -30.8350 C   0  0  0  0  0  0  0  0  0  0  0  0
   -4.9660   23.7460  -30.9780 N   0  0  0  0  0  0  0  0  0  0  0  0
   -5.7100   23.0360  -29.9210 C   0  0  0  0  0  0  0  0  0  0  0  0
   -3.5680   23.2750  -31.0900 C   0  0  0  0  0  0  0  0  0  0  0  0
   -3.4330   22.2430  -32.2210 C   0  0  0  0  0  0  0  0  0  0  0  0
   -4.6750   22.1680  -33.0130 N   0  0  0  0  0  0  0  0  0  0  0  0
   -5.3350   20.8680  -33.0450 C   0  0  0  0  0  0  0  0  0  0  0  0
   -4.6640   19.6920  -33.4270 C   0  0  0  0  0  0  0  0  0  0  0  0
   -5.3230   18.4690  -33.4400 C   0  0  0  0  0  0  0  0  0  0  0  0
   -6.6330   18.3590  -33.0730 N   0  0  0  0  0  0  0  0  0  0  0  0
   -7.2280   17.0070  -33.1140 C   0  0  0  0  0  0  0  0  0  0  0  0
   -6.5280   16.1400  -34.1580 C   0  0  0  0  0  0  0  0  0  0  0  0
   -7.3500   19.4860  -32.7160 C   0  0  0  0  0  0  0  0  0  0  0  0
   -8.7260   19.4170  -32.3790 C   0  0  0  0  0  0  0  0  0  0  0  0
   -9.4330   20.5590  -32.0070 C   0  0  0  0  0  0  0  0  0  0  0  0
   -8.7970   21.7920  -31.9630 C   0  0  0  0  0  0  0  0  0  0  0  0
   -7.4500   21.8990  -32.2980 C   0  0  0  0  0  0  0  0  0  0  0  0
   -6.7050   20.7600  -32.6840 C   0  0  0  0  0  0  0  0  0  0  0  0
   -5.7109   25.5041  -28.7881 H   0  0  0  0  0  0  0  0  0  0  0  0
   -6.3041   26.7494  -29.9388 H   0  0  0  0  0  0  0  0  0  0  0  0
   -7.0319   25.1071  -29.9388 H   0  0  0  0  0  0  0  0  0  0  0  0
   -5.3356   25.6422  -31.8122 H   0  0  0  0  0  0  0  0  0  0  0  0
   -4.0830   25.5673  -30.4789 H   0  0  0  0  0  0  0  0  0  0  0  0
   -5.3572   23.3726  -28.9350 H   0  0  0  0  0  0  0  0  0  0  0  0
   -6.7839   23.2526  -30.0198 H   0  0  0  0  0  0  0  0  0  0  0  0
   -5.5438   21.9531  -30.0198 H   0  0  0  0  0  0  0  0  0  0  0  0
   -2.9136   24.1330  -31.3037 H   0  0  0  0  0  0  0  0  0  0  0  0
   -3.2768   22.8009  -30.1411 H   0  0  0  0  0  0  0  0  0  0  0  0
   -2.6024   22.5366  -32.8798 H   0  0  0  0  0  0  0  0  0  0  0  0
   -3.2385   21.2560  -31.7761 H   0  0  0  0  0  0  0  0  0  0  0  0
   -4.4410   22.4370  -33.9970 H   0  0  0  0  0  0  0  0  0  0  0  0
   -5.3520   22.8620  -32.6160 H   0  0  0  0  0  0  0  0  0  0  0  0
   -3.6046   19.7414  -33.7190 H   0  0  0  0  0  0  0  0  0  0  0  0
   -4.7759   17.5677  -33.7536 H   0  0  0  0  0  0  0  0  0  0  0  0
   -7.1235   16.5365  -32.1252 H   0  0  0  0  0  0  0  0  0  0  0  0
   -8.2906   17.0966  -33.3840 H   0  0  0  0  0  0  0  0  0  0  0  0
   -5.9145   15.3801  -33.6519 H   0  0  0  0  0  0  0  0  0  0  0  0
   -7.2814   15.6435  -34.7871 H   0  0  0  0  0  0  0  0  0  0  0  0
   -5.8838   16.7719  -34.7871 H   0  0  0  0  0  0  0  0  0  0  0  0
   -9.2433   18.4468  -32.4118 H   0  0  0  0  0  0  0  0  0  0  0  0
  -10.4992   20.4829  -31.7472 H   0  0  0  0  0  0  0  0  0  0  0  0
   -9.3596   22.6881  -31.6622 H   0  0  0  0  0  0  0  0  0  0  0  0
   -6.9584   22.8824  -32.2621 H   0  0  0  0  0  0  0  0  0  0  0  0
  1  2  1  0
  2  3  1  0
  3  4  1  0
  3  5  1  0
  5  6  1  0
  6  7  1  0
  7  8  1  0
  8  9  2  0
  9 10  1  0
 10 11  2  0
 11 12  1  0
 12 13  1  0
 11 14  1  0
 14 15  2  0
 15 16  1  0
 16 17  2  0
 17 18  1  0
 18 19  2  0
 19  8  1  0
 19 14  1  0
  1 20  1  0
  1 21  1  0
  1 22  1  0
  2 23  1  0
  2 24  1  0
  4 25  1  0
  4 26  1  0
  4 27  1  0
  5 28  1  0
  5 29  1  0
  6 30  1  0
  6 31  1  0
  7 32  1  0
  7 33  1  0
  9 34  1  0
 10 35  1  0
 12 36  1  0
 12 37  1  0
 13 38  1  0
 13 39  1  0
 13 40  1  0
 15 41  1  0
 16 42  1  0
 17 43  1  0
 18 44  1  0
M  CHG  2   7   1  11   1
M  END
>  <UniqueID>  (14) 
14

>  <SMILES>  (14) 
CCN(C)CC[NH2+]c1cc[n+](CC)c2ccccc12

>  <Energy>  (14) 
58.35001053448965

>  <Genealogy>  (14) 
CCN(C)CC[NH2+]c1cc[n+](CC)c2ccccc12 (protonated)
CCN(C)CC[NH2+]c1cc[n+](CC)c2ccccc12 (3D coordinates assigned)
CCN(C)CC[NH2+]c1cc[n+](CC)c2ccccc12 (optimized conformer: 58.35001053448965 kcal/mol)

>  <smiles>  (14) 
CCN(C)CCNc1cc[n+](CC)c2ccccc12

>  <score_type>  (14) 
oracle

>  <origin>  (14) 
adg

>  <m_score__min__energy>  (14) 
-6.25

>  <m_primary>  (14) 
energy

$$$$
14:0
     RDKit          3D

 47 49  0  0  0  0  0  0  0  0999 V2000
   -5.6420   17.3830  -34.5890 C   0  0  0  0  0  0  0  0  0  0  0  0
   -5.8310   16.6440  -33.2740 C   0  0  0  0  0  0  0  0  0  0  0  0
   -7.1170   16.9270  -32.7720 O   0  0  0  0  0  0  0  0  0  0  0  0
   -7.1180   18.1930  -32.1470 C   0  0  0  0  0  0  0  0  0  0  0  0
   -7.7760   19.2160  -33.0730 C   0  0  0  0  0  0  0  0  0  0  0  0
   -8.0970   20.4410  -32.3370 N   0  0  0  0  0  0  0  0  0  0  0  0
   -9.3030   20.7460  -31.8020 C   0  0  0  0  0  0  0  0  0  0  0  0
   -9.2240   21.9100  -31.0460 C   0  0  0  0  0  0  0  0  0  0  0  0
   -7.9060   22.3050  -31.1260 C   0  0  0  0  0  0  0  0  0  0  0  0
   -7.2470   23.3680  -30.5150 C   0  0  0  0  0  0  0  0  0  0  0  0
   -5.8590   23.4980  -30.7270 C   0  0  0  0  0  0  0  0  0  0  0  0
   -4.9580   24.7780  -29.9120 S   0  0  0  0  0  0  0  0  0  0  0  0
   -5.8840   25.9270  -29.6200 O   0  0  0  0  0  0  0  0  0  0  0  0
   -3.8690   25.2750  -30.8230 O   0  0  0  0  0  0  0  0  0  0  0  0
   -4.2580   24.2100  -28.4130 N   0  0  0  0  0  0  0  0  0  0  0  0
   -4.4940   22.7580  -28.2160 C   0  0  0  0  0  0  0  0  0  0  0  0
   -3.2540   21.9020  -28.5150 C   0  0  0  0  0  0  0  0  0  0  0  0
   -2.0680   22.3130  -27.6260 C   0  0  0  0  0  0  0  0  0  0  0  0
   -2.0880   23.8080  -27.2610 C   0  0  0  0  0  0  0  0  0  0  0  0
   -2.8390   24.6240  -28.3170 C   0  0  0  0  0  0  0  0  0  0  0  0
   -5.1830   22.5740  -31.5580 C   0  0  0  0  0  0  0  0  0  0  0  0
   -5.8750   21.5070  -32.1570 C   0  0  0  0  0  0  0  0  0  0  0  0
   -7.2470   21.3980  -31.9150 C   0  0  0  0  0  0  0  0  0  0  0  0
   -5.3741   18.4304  -34.3858 H   0  0  0  0  0  0  0  0  0  0  0  0
   -4.8374   16.9041  -35.1664 H   0  0  0  0  0  0  0  0  0  0  0  0
   -6.5777   17.3492  -35.1664 H   0  0  0  0  0  0  0  0  0  0  0  0
   -5.7298   15.5615  -33.4410 H   0  0  0  0  0  0  0  0  0  0  0  0
   -5.0687   16.9694  -32.5508 H   0  0  0  0  0  0  0  0  0  0  0  0
   -7.6811   18.1362  -31.2038 H   0  0  0  0  0  0  0  0  0  0  0  0
   -6.0827   18.4999  -31.9371 H   0  0  0  0  0  0  0  0  0  0  0  0
   -7.0856   19.4575  -33.8946 H   0  0  0  0  0  0  0  0  0  0  0  0
   -8.7063   18.7871  -33.4737 H   0  0  0  0  0  0  0  0  0  0  0  0
  -10.2190   20.1542  -31.9458 H   0  0  0  0  0  0  0  0  0  0  0  0
  -10.0388   22.4089  -30.5008 H   0  0  0  0  0  0  0  0  0  0  0  0
   -7.7931   24.0857  -29.8851 H   0  0  0  0  0  0  0  0  0  0  0  0
   -4.7920   22.5900  -27.1705 H   0  0  0  0  0  0  0  0  0  0  0  0
   -5.2813   22.4541  -28.9215 H   0  0  0  0  0  0  0  0  0  0  0  0
   -3.4938   20.8450  -28.3275 H   0  0  0  0  0  0  0  0  0  0  0  0
   -2.9705   22.0543  -29.5669 H   0  0  0  0  0  0  0  0  0  0  0  0
   -2.1035   21.7238  -26.6978 H   0  0  0  0  0  0  0  0  0  0  0  0
   -1.1457   22.1225  -28.1944 H   0  0  0  0  0  0  0  0  0  0  0  0
   -2.5866   23.9336  -26.2886 H   0  0  0  0  0  0  0  0  0  0  0  0
   -1.0502   24.1696  -27.2134 H   0  0  0  0  0  0  0  0  0  0  0  0
   -2.7947   25.6888  -28.0444 H   0  0  0  0  0  0  0  0  0  0  0  0
   -2.3613   24.4500  -29.2925 H   0  0  0  0  0  0  0  0  0  0  0  0
   -4.1041   22.6917  -31.7374 H   0  0  0  0  0  0  0  0  0  0  0  0
   -5.3526   20.7803  -32.7965 H   0  0  0  0  0  0  0  0  0  0  0  0
  1  2  1  0
  2  3  1  0
  3  4  1  0
  4  5  1  0
  5  6  1  0
  6  7  1  0
  7  8  2  0
  8  9  1  0
  9 10  2  0
 10 11  1  0
 11 12  1  0
 12 13  2  0
 12 14  2  0
 12 15  1  0
 15 16  1  0
 16 17  1  0
 17 18  1  0
 18 19  1  0
 19 20  1  0
 11 21  2  0
 21 22  1  0
 22 23  2  0
 23  6  1  0
 23  9  1  0
 20 15  1  0
  1 24  1  0
  1 25  1  0
  1 26  1  0
  2 27  1  0
  2 28  1  0
  4 29  1  0
  4 30  1  0
  5 31  1  0
  5 32  1  0
  7 33  1  0
  8 34  1  0
 10 35  1  0
 16 36  1  0
 16 37  1  0
 17 38  1  0
 17 39  1  0
 18 40  1  0
 18 41  1  0
 19 42  1  0
 19 43  1  0
 20 44  1  0
 20 45  1  0
 21 46  1  0
 22 47  1  0
M  END
>  <UniqueID>  (15) 
15

>  <SMILES>  (15) 
CCOCCn1ccc2cc(S(=O)(=O)N3CCCCC3)ccc21

>  <Energy>  (15) 
78.73132074188565

>  <Genealogy>  (15) 
CCOCCn1ccc2cc(S(=O)(=O)N3CCCCC3)ccc21 (3D coordinates assigned)
CCOCCn1ccc2cc(S(=O)(=O)N3CCCCC3)ccc21 (nonaromatic ring conformer: 78.73132074188565 kcal/mol)

>  <smiles>  (15) 
CCOCCn1ccc2cc(S(=O)(=O)N3CCCCC3)ccc21

>  <score_type>  (15) 
oracle

>  <origin>  (15) 
adg

>  <m_score__min__energy>  (15) 
-8.6099999999999994

>  <m_primary>  (15) 
energy

$$$$
15:0
     RDKit          3D

 46 48  0  0  0  0  0  0  0  0999 V2000
   -0.4830   22.6790  -24.8460 C   0  0  0  0  0  0  0  0  0  0  0  0
   -0.3910   22.7980  -26.3610 C   0  0  0  0  0  0  0  0  0  0  0  0
   -1.3370   21.8830  -27.0040 N   0  0  0  0  0  0  0  0  0  0  0  0
   -1.6150   20.6340  -26.5800 C   0  0  0  0  0  0  0  0  0  0  0  0
   -2.5510   20.0520  -27.4100 C   0  0  0  0  0  0  0  0  0  0  0  0
   -2.8490   20.9810  -28.3850 C   0  0  0  0  0  0  0  0  0  0  0  0
   -2.0640   22.0920  -28.1260 C   0  0  0  0  0  0  0  0  0  0  0  0
   -2.0820   23.3770  -28.9160 C   0  0  0  0  0  0  0  0  0  0  0  0
   -3.4440   23.9320  -28.9980 N   0  0  0  0  0  0  0  0  0  0  0  0
   -4.2170   24.1680  -27.7740 C   0  0  0  0  0  0  0  0  0  0  0  0
   -4.0710   24.1750  -30.2760 C   0  0  0  0  0  0  0  0  0  0  0  0
   -3.9530   25.2990  -30.8340 O   0  0  0  0  0  0  0  0  0  0  0  0
   -4.8700   23.1350  -30.9490 C   0  0  0  0  0  0  0  0  0  0  0  0
   -6.2550   23.0940  -30.7460 C   0  0  0  0  0  0  0  0  0  0  0  0
   -7.0360   22.1180  -31.3770 C   0  0  0  0  0  0  0  0  0  0  0  0
   -8.4260   22.0780  -31.1860 C   0  0  0  0  0  0  0  0  0  0  0  0
   -9.1950   21.1070  -31.8300 C   0  0  0  0  0  0  0  0  0  0  0  0
   -8.5870   20.1700  -32.6690 C   0  0  0  0  0  0  0  0  0  0  0  0
   -7.2040   20.1970  -32.8670 C   0  0  0  0  0  0  0  0  0  0  0  0
   -6.4190   21.1680  -32.2250 C   0  0  0  0  0  0  0  0  0  0  0  0
   -5.0310   21.2120  -32.4250 C   0  0  0  0  0  0  0  0  0  0  0  0
   -4.2470   22.1930  -31.7880 C   0  0  0  0  0  0  0  0  0  0  0  0
   -2.8580   22.2710  -31.9770 O   0  0  0  0  0  0  0  0  0  0  0  0
   -2.0530   21.2230  -32.5090 C   0  0  0  0  0  0  0  0  0  0  0  0
    0.1261   23.4668  -24.3787 H   0  0  0  0  0  0  0  0  0  0  0  0
   -1.5313   22.7914  -24.5324 H   0  0  0  0  0  0  0  0  0  0  0  0
   -0.1102   21.6928  -24.5324 H   0  0  0  0  0  0  0  0  0  0  0  0
   -0.6266   23.8305  -26.6583 H   0  0  0  0  0  0  0  0  0  0  0  0
    0.6294   22.5365  -26.6779 H   0  0  0  0  0  0  0  0  0  0  0  0
   -1.1624   20.1502  -25.7019 H   0  0  0  0  0  0  0  0  0  0  0  0
   -2.9771   19.0425  -27.3129 H   0  0  0  0  0  0  0  0  0  0  0  0
   -3.5695   20.8625  -29.2077 H   0  0  0  0  0  0  0  0  0  0  0  0
   -1.4248   24.1096  -28.4247 H   0  0  0  0  0  0  0  0  0  0  0  0
   -1.7303   23.1640  -29.9363 H   0  0  0  0  0  0  0  0  0  0  0  0
   -3.5825   23.9743  -26.8966 H   0  0  0  0  0  0  0  0  0  0  0  0
   -4.5618   25.2124  -27.7538 H   0  0  0  0  0  0  0  0  0  0  0  0
   -5.0864   23.4943  -27.7538 H   0  0  0  0  0  0  0  0  0  0  0  0
   -6.7326   23.8335  -30.0864 H   0  0  0  0  0  0  0  0  0  0  0  0
   -8.9106   22.8136  -30.5272 H   0  0  0  0  0  0  0  0  0  0  0  0
  -10.2839   21.0796  -31.6762 H   0  0  0  0  0  0  0  0  0  0  0  0
   -9.1987   19.4087  -33.1752 H   0  0  0  0  0  0  0  0  0  0  0  0
   -6.7294   19.4561  -33.5271 H   0  0  0  0  0  0  0  0  0  0  0  0
   -4.5513   20.4741  -33.0848 H   0  0  0  0  0  0  0  0  0  0  0  0
   -1.6099   20.6461  -31.6839 H   0  0  0  0  0  0  0  0  0  0  0  0
   -2.6760   20.5597  -33.1270 H   0  0  0  0  0  0  0  0  0  0  0  0
   -1.2515   21.6539  -33.1270 H   0  0  0  0  0  0  0  0  0  0  0  0
  1  2  1  0
  2  3  1  0
  3  4  1  0
  4  5  2  0
  5  6  1  0
  6  7  2  0
  7  8  1  0
  8  9  1  0
  9 10  1  0
  9 11  1  0
 11 12  2  0
 11 13  1  0
 13 14  2  0
 14 15  1  0
 15 16  2  0
 16 17  1  0
 17 18  2  0
 18 19  1  0
 19 20  2  0
 20 21  1  0
 21 22  2  0
 22 23  1  0
 23 24  1  0
  7  3  1  0
 22 13  1  0
 20 15  1  0
  1 25  1  0
  1 26  1  0
  1 27  1  0
  2 28  1  0
  2 29  1  0
  4 30  1  0
  5 31  1  0
  6 32  1  0
  8 33  1  0
  8 34  1  0
 10 35  1  0
 10 36  1  0
 10 37  1  0
 14 38  1  0
 16 39  1  0
 17 40  1  0
 18 41  1  0
 19 42  1  0
 21 43  1  0
 24 44  1  0
 24 45  1  0
 24 46  1  0
M  END
>  <UniqueID>  (16) 
16

>  <SMILES>  (16) 
CCn1cccc1CN(C)C(=O)c1cc2ccccc2cc1OC

>  <Energy>  (16) 
73.03643684025735

>  <Genealogy>  (16) 
CCn1cccc1CN(C)C(=O)c1cc2ccccc2cc1OC (3D coordinates assigned)
CCn1cccc1CN(C)C(=O)c1cc2ccccc2cc1OC (optimized conformer: 73.03643684025735 kcal/mol)

>  <smiles>  (16) 
CCn1cccc1CN(C)C(=O)c1cc2ccccc2cc1OC

>  <score_type>  (16) 
oracle

>  <origin>  (16) 
adg

>  <m_score__min__energy>  (16) 
-8.5899999999999999

>  <m_primary>  (16) 
energy

$$$$
16:0
     RDKit          3D

 54 57  0  0  0  0  0  0  0  0999 V2000
   -5.9340   25.1140  -29.4920 C   0  0  0  0  0  0  0  0  0  0  0  0
   -5.2370   25.2220  -30.8440 C   0  0  0  0  0  0  0  0  0  0  0  0
   -3.8620   24.8590  -30.7350 O   0  0  0  0  0  0  0  0  0  0  0  0
   -3.2630   24.2120  -29.6370 C   0  0  0  0  0  0  0  0  0  0  0  0
   -2.5580   24.9220  -28.6440 C   0  0  0  0  0  0  0  0  0  0  0  0
   -1.9610   24.2450  -27.5780 C   0  0  0  0  0  0  0  0  0  0  0  0
   -2.0630   22.8580  -27.4840 C   0  0  0  0  0  0  0  0  0  0  0  0
   -2.7590   22.1410  -28.4590 C   0  0  0  0  0  0  0  0  0  0  0  0
   -3.3550   22.8060  -29.5450 C   0  0  0  0  0  0  0  0  0  0  0  0
   -4.1070   22.0330  -30.5570 C   0  0  0  0  0  0  0  0  0  0  0  0
   -5.4590   22.0630  -30.6620 N   0  0  0  0  0  0  0  0  0  0  0  0
   -5.7210   21.2040  -31.6710 C   0  0  0  0  0  0  0  0  0  0  0  0
   -6.9790   20.9010  -32.1960 C   0  0  0  0  0  0  0  0  0  0  0  0
   -8.2280   21.5170  -31.6490 C   0  0  0  0  0  0  0  0  0  0  0  0
   -7.0370   20.0400  -33.2530 N   0  0  0  0  0  0  0  0  0  0  0  0
   -5.9120   19.4750  -33.7920 C   0  0  0  0  0  0  0  0  0  0  0  0
   -6.0230   18.5600  -34.9680 C   0  0  0  0  0  0  0  0  0  0  0  0
   -4.6540   19.7950  -33.2530 C   0  0  0  0  0  0  0  0  0  0  0  0
   -4.6200   20.6440  -32.1950 N   0  0  0  0  0  0  0  0  0  0  0  0
   -3.5900   21.1500  -31.5000 C   0  0  0  0  0  0  0  0  0  0  0  0
   -2.2080   20.9390  -31.8250 N   0  0  0  0  0  0  0  0  0  0  0  0
   -1.6490   21.5230  -33.0470 C   0  0  0  0  0  0  0  0  0  0  0  0
   -0.2450   20.9680  -33.3220 C   0  0  0  0  0  0  0  0  0  0  0  0
   -0.1710   19.5160  -33.0570 N   0  0  0  0  0  0  0  0  0  0  0  0
   -0.9700   18.7380  -34.0210 C   0  0  0  0  0  0  0  0  0  0  0  0
   -0.4910   19.1550  -31.6520 C   0  0  0  0  0  0  0  0  0  0  0  0
   -1.3410   20.2020  -30.9030 C   0  0  0  0  0  0  0  0  0  0  0  0
   -5.1929   25.2288  -28.6872 H   0  0  0  0  0  0  0  0  0  0  0  0
   -6.6934   25.9052  -29.4068 H   0  0  0  0  0  0  0  0  0  0  0  0
   -6.4184   24.1301  -29.4068 H   0  0  0  0  0  0  0  0  0  0  0  0
   -5.7320   24.5492  -31.5598 H   0  0  0  0  0  0  0  0  0  0  0  0
   -5.3003   26.2638  -31.1913 H   0  0  0  0  0  0  0  0  0  0  0  0
   -2.4774   26.0171  -28.7091 H   0  0  0  0  0  0  0  0  0  0  0  0
   -1.4090   24.8078  -26.8108 H   0  0  0  0  0  0  0  0  0  0  0  0
   -1.5949   22.3282  -26.6413 H   0  0  0  0  0  0  0  0  0  0  0  0
   -2.8417   21.0472  -28.3769 H   0  0  0  0  0  0  0  0  0  0  0  0
   -8.1940   21.5003  -30.5497 H   0  0  0  0  0  0  0  0  0  0  0  0
   -8.3068   22.5573  -31.9976 H   0  0  0  0  0  0  0  0  0  0  0  0
   -9.1014   20.9463  -31.9976 H   0  0  0  0  0  0  0  0  0  0  0  0
   -6.1485   17.5251  -34.6168 H   0  0  0  0  0  0  0  0  0  0  0  0
   -6.8927   18.8488  -35.5765 H   0  0  0  0  0  0  0  0  0  0  0  0
   -5.1095   18.6325  -35.5765 H   0  0  0  0  0  0  0  0  0  0  0  0
   -3.7298   19.3722  -33.6739 H   0  0  0  0  0  0  0  0  0  0  0  0
   -2.3054   21.2807  -33.8957 H   0  0  0  0  0  0  0  0  0  0  0  0
   -1.5786   22.6130  -32.9172 H   0  0  0  0  0  0  0  0  0  0  0  0
    0.0111   21.1518  -34.3759 H   0  0  0  0  0  0  0  0  0  0  0  0
    0.4628   21.4762  -32.6506 H   0  0  0  0  0  0  0  0  0  0  0  0
   -1.6547   18.0713  -33.4762 H   0  0  0  0  0  0  0  0  0  0  0  0
   -1.5524   19.4245  -34.6531 H   0  0  0  0  0  0  0  0  0  0  0  0
   -0.2992   18.1376  -34.6531 H   0  0  0  0  0  0  0  0  0  0  0  0
   -1.0437   18.2040  -31.6585 H   0  0  0  0  0  0  0  0  0  0  0  0
    0.4686   19.0896  -31.1183 H   0  0  0  0  0  0  0  0  0  0  0  0
   -1.9651   19.6895  -30.1561 H   0  0  0  0  0  0  0  0  0  0  0  0
   -0.6621   20.9178  -30.4164 H   0  0  0  0  0  0  0  0  0  0  0  0
  1  2  1  0
  2  3  1  0
  3  4  1  0
  4  5  2  0
  5  6  1  0
  6  7  2  0
  7  8  1  0
  8  9  2  0
  9 10  1  0
 10 11  1  0
 11 12  2  0
 12 13  1  0
 13 14  1  0
 13 15  2  0
 15 16  1  0
 16 17  1  0
 16 18  2  0
 18 19  1  0
 19 20  1  0
 20 21  1  0
 21 22  1  0
 22 23  1  0
 23 24  1  0
 24 25  1  0
 24 26  1  0
 26 27  1  0
  9  4  1  0
 20 10  2  0
 27 21  1  0
 19 12  1  0
  1 28  1  0
  1 29  1  0
  1 30  1  0
  2 31  1  0
  2 32  1  0
  5 33  1  0
  6 34  1  0
  7 35  1  0
  8 36  1  0
 14 37  1  0
 14 38  1  0
 14 39  1  0
 17 40  1  0
 17 41  1  0
 17 42  1  0
 18 43  1  0
 22 44  1  0
 22 45  1  0
 23 46  1  0
 23 47  1  0
 25 48  1  0
 25 49  1  0
 25 50  1  0
 26 51  1  0
 26 52  1  0
 27 53  1  0
 27 54  1  0
M  END
>  <UniqueID>  (17) 
17

>  <SMILES>  (17) 
CCOc1ccccc1-c1nc2c(C)nc(C)cn2c1N1CCN(C)CC1

>  <Energy>  (17) 
104.4537974963373

>  <Genealogy>  (17) 
CCOc1ccccc1-c1nc2c(C)nc(C)cn2c1N1CCN(C)CC1 (3D coordinates assigned)
CCOc1ccccc1-c1nc2c(C)nc(C)cn2c1N1CCN(C)CC1 (nonaromatic ring conformer: 104.4537974963373 kcal/mol)

>  <smiles>  (17) 
CCOc1ccccc1-c1nc2c(C)nc(C)cn2c1N1CCN(C)CC1

>  <score_type>  (17) 
oracle

>  <origin>  (17) 
adg

>  <m_score__min__energy>  (17) 
-7.96

>  <m_primary>  (17) 
energy

$$$$
17:0
     RDKit          3D

 40 41  0  0  0  0  0  0  0  0999 V2000
   -3.0150   21.9310  -29.5720 C   0  0  0  0  0  0  0  0  0  0  0  0
   -2.0990   23.0520  -30.0600 C   0  0  0  0  0  0  0  0  0  0  0  0
   -2.5340   24.3610  -29.5260 N   0  0  0  0  0  0  0  0  0  0  0  0
   -1.5140   24.9050  -28.6170 C   0  0  0  0  0  0  0  0  0  0  0  0
   -3.8590   24.2910  -28.8590 C   0  0  0  0  0  0  0  0  0  0  0  0
   -4.9300   24.9220  -29.7500 C   0  0  0  0  0  0  0  0  0  0  0  0
   -4.6190   24.6870  -31.1700 N   0  0  0  0  0  0  0  0  0  0  0  0
   -5.7810   24.2200  -31.9460 C   0  0  0  0  0  0  0  0  0  0  0  0
   -5.6670   22.7550  -32.3240 C   0  0  0  0  0  0  0  0  0  0  0  0
   -4.4280   22.2690  -32.7670 C   0  0  0  0  0  0  0  0  0  0  0  0
   -4.2650   20.9290  -33.1040 C   0  0  0  0  0  0  0  0  0  0  0  0
   -5.3390   20.0400  -33.0090 C   0  0  0  0  0  0  0  0  0  0  0  0
   -5.1620   18.6890  -33.3500 C   0  0  0  0  0  0  0  0  0  0  0  0
   -6.2310   17.7940  -33.2600 C   0  0  0  0  0  0  0  0  0  0  0  0
   -5.9810   15.9590  -33.7250 Br  0  0  0  0  0  0  0  0  0  0  0  0
   -7.4800   18.2420  -32.8300 C   0  0  0  0  0  0  0  0  0  0  0  0
   -7.6720   19.5810  -32.4880 C   0  0  0  0  0  0  0  0  0  0  0  0
   -6.6070   20.5040  -32.5700 C   0  0  0  0  0  0  0  0  0  0  0  0
   -6.7710   21.8710  -32.2290 C   0  0  0  0  0  0  0  0  0  0  0  0
   -8.4920   22.5420  -31.6560 Br  0  0  0  0  0  0  0  0  0  0  0  0
   -3.0252   21.9185  -28.4721 H   0  0  0  0  0  0  0  0  0  0  0  0
   -4.0351   22.1020  -29.9463 H   0  0  0  0  0  0  0  0  0  0  0  0
   -2.6442   20.9654  -29.9463 H   0  0  0  0  0  0  0  0  0  0  0  0
   -1.0715   22.8494  -29.7234 H   0  0  0  0  0  0  0  0  0  0  0  0
   -2.1439   23.0887  -31.1585 H   0  0  0  0  0  0  0  0  0  0  0  0
   -1.8253   24.7390  -27.5751 H   0  0  0  0  0  0  0  0  0  0  0  0
   -0.5542   24.3990  -28.7980 H   0  0  0  0  0  0  0  0  0  0  0  0
   -1.3995   25.9840  -28.7980 H   0  0  0  0  0  0  0  0  0  0  0  0
   -4.1164   23.2382  -28.6707 H   0  0  0  0  0  0  0  0  0  0  0  0
   -3.8125   24.8409  -27.9075 H   0  0  0  0  0  0  0  0  0  0  0  0
   -5.9072   24.4754  -29.5141 H   0  0  0  0  0  0  0  0  0  0  0  0
   -4.9556   26.0060  -29.5646 H   0  0  0  0  0  0  0  0  0  0  0  0
   -4.2470   25.5700  -31.5900 H   0  0  0  0  0  0  0  0  0  0  0  0
   -6.6897   24.3603  -31.3421 H   0  0  0  0  0  0  0  0  0  0  0  0
   -5.8235   24.8062  -32.8758 H   0  0  0  0  0  0  0  0  0  0  0  0
   -3.5735   22.9568  -32.8491 H   0  0  0  0  0  0  0  0  0  0  0  0
   -3.2846   20.5671  -33.4474 H   0  0  0  0  0  0  0  0  0  0  0  0
   -4.1776   18.3342  -33.6893 H   0  0  0  0  0  0  0  0  0  0  0  0
   -8.3195   17.5347  -32.7600 H   0  0  0  0  0  0  0  0  0  0  0  0
   -8.6626   19.9206  -32.1513 H   0  0  0  0  0  0  0  0  0  0  0  0
  1  2  1  0
  2  3  1  0
  3  4  1  0
  3  5  1  0
  5  6  1  0
  6  7  1  0
  7  8  1  0
  8  9  1  0
  9 10  2  0
 10 11  1  0
 11 12  2  0
 12 13  1  0
 13 14  2  0
 14 15  1  0
 14 16  1  0
 16 17  2  0
 17 18  1  0
 18 19  2  0
 19 20  1  0
 19  9  1  0
 18 12  1  0
  1 21  1  0
  1 22  1  0
  1 23  1  0
  2 24  1  0
  2 25  1  0
  4 26  1  0
  4 27  1  0
  4 28  1  0
  5 29  1  0
  5 30  1  0
  6 31  1  0
  6 32  1  0
  7 33  1  0
  8 34  1  0
  8 35  1  0
 10 36  1  0
 11 37  1  0
 13 38  1  0
 16 39  1  0
 17 40  1  0
M  END
>  <UniqueID>  (18) 
18

>  <SMILES>  (18) 
CCN(C)CCNCc1ccc2cc(Br)ccc2c1Br

>  <Energy>  (18) 
46.7359242223176

>  <Genealogy>  (18) 
CCN(C)CCNCc1ccc2cc(Br)ccc2c1Br (3D coordinates assigned)
CCN(C)CCNCc1ccc2cc(Br)ccc2c1Br (optimized conformer: 46.7359242223176 kcal/mol)

>  <smiles>  (18) 
CCN(C)CCNCc1ccc2cc(Br)ccc2c1Br

>  <score_type>  (18) 
oracle

>  <origin>  (18) 
adg

>  <m_score__min__energy>  (18) 
-8.6500000000000004

>  <m_primary>  (18) 
energy

$$$$
18:0
     RDKit          3D

 79 80  0  0  0  0  0  0  0  0999 V2000
   -3.9400   24.5480  -26.7330 C   0  0  0  0  0  0  0  0  0  0  0  0
   -3.1010   25.2990  -25.6830 C   0  0  0  0  0  0  0  0  0  0  0  0
   -1.8730   25.9340  -26.2150 N   0  0  0  0  0  0  0  0  0  0  0  0
   -1.3760   27.1040  -25.4510 C   0  0  0  0  0  0  0  0  0  0  0  0
   -0.8990   26.7530  -24.0400 C   0  0  0  0  0  0  0  0  0  0  0  0
   -0.8110   25.0390  -26.7370 C   0  0  0  0  0  0  0  0  0  0  0  0
   -0.6960   25.1980  -28.2540 C   0  0  0  0  0  0  0  0  0  0  0  0
   -1.9910   25.0000  -28.9100 N   0  0  0  0  0  0  0  0  0  0  0  0
   -2.2750   23.8230  -29.6830 C   0  0  0  0  0  0  0  0  0  0  0  0
   -1.4290   22.7010  -29.6140 C   0  0  0  0  0  0  0  0  0  0  0  0
   -1.7250   21.5250  -30.3310 C   0  0  0  0  0  0  0  0  0  0  0  0
   -0.8600   20.3780  -30.2510 N   0  0  0  0  0  0  0  0  0  0  0  0
   -0.1370   20.0540  -31.2150 O   0  0  0  0  0  0  0  0  0  0  0  0
   -0.7620   19.6600  -29.0780 O   0  0  0  0  0  0  0  0  0  0  0  0
   -2.8810   21.4870  -31.1230 C   0  0  0  0  0  0  0  0  0  0  0  0
   -3.7180   22.5990  -31.2070 C   0  0  0  0  0  0  0  0  0  0  0  0
   -3.4280   23.7700  -30.4890 C   0  0  0  0  0  0  0  0  0  0  0  0
   -4.2560   24.8980  -30.5680 O   0  0  0  0  0  0  0  0  0  0  0  0
   -5.3590   25.1700  -29.7010 C   0  0  0  0  0  0  0  0  0  0  0  0
   -6.6820   24.9490  -30.4380 C   0  0  0  0  0  0  0  0  0  0  0  0
   -6.9580   23.4650  -30.7650 C   0  0  0  0  0  0  0  0  0  0  0  0
   -8.0430   23.2740  -31.8390 C   0  0  0  0  0  0  0  0  0  0  0  0
   -8.2920   21.8320  -32.0980 N   0  0  0  0  0  0  0  0  0  0  0  0
   -9.7260   21.5210  -31.9290 C   0  0  0  0  0  0  0  0  0  0  0  0
   -7.4550   20.9890  -31.2150 C   0  0  0  0  0  0  0  0  0  0  0  0
   -7.4580   19.5060  -31.6210 C   0  0  0  0  0  0  0  0  0  0  0  0
   -7.7360   19.3630  -33.0580 N   0  0  0  0  0  0  0  0  0  0  0  0
   -6.6770   19.9760  -33.8720 C   0  0  0  0  0  0  0  0  0  0  0  0
   -5.3890   19.1960  -33.7450 C   0  0  0  0  0  0  0  0  0  0  0  0
   -4.1810   19.8790  -33.5140 C   0  0  0  0  0  0  0  0  0  0  0  0
   -2.9800   19.1720  -33.4160 C   0  0  0  0  0  0  0  0  0  0  0  0
   -2.9780   17.7820  -33.5430 C   0  0  0  0  0  0  0  0  0  0  0  0
   -4.1710   17.0920  -33.7750 C   0  0  0  0  0  0  0  0  0  0  0  0
   -5.3890   17.7910  -33.8810 C   0  0  0  0  0  0  0  0  0  0  0  0
   -6.6050   17.1300  -34.1260 O   0  0  0  0  0  0  0  0  0  0  0  0
   -6.7590   15.7170  -34.1950 C   0  0  0  0  0  0  0  0  0  0  0  0
   -4.6668   23.8974  -26.2246 H   0  0  0  0  0  0  0  0  0  0  0  0
   -4.4753   25.2742  -27.3623 H   0  0  0  0  0  0  0  0  0  0  0  0
   -3.2773   23.9358  -27.3623 H   0  0  0  0  0  0  0  0  0  0  0  0
   -3.7297   26.0854  -25.2399 H   0  0  0  0  0  0  0  0  0  0  0  0
   -2.7714   24.5470  -24.9510 H   0  0  0  0  0  0  0  0  0  0  0  0
   -0.5344   27.5483  -26.0027 H   0  0  0  0  0  0  0  0  0  0  0  0
   -2.2190   27.8024  -25.3435 H   0  0  0  0  0  0  0  0  0  0  0  0
   -1.5549   27.2357  -23.3005 H   0  0  0  0  0  0  0  0  0  0  0  0
   -0.9319   25.6621  -23.9026 H   0  0  0  0  0  0  0  0  0  0  0  0
    0.1327   27.1089  -23.9026 H   0  0  0  0  0  0  0  0  0  0  0  0
    0.1494   25.3008  -26.2689 H   0  0  0  0  0  0  0  0  0  0  0  0
   -1.0676   23.9958  -26.5004 H   0  0  0  0  0  0  0  0  0  0  0  0
   -0.3302   26.2102  -28.4814 H   0  0  0  0  0  0  0  0  0  0  0  0
    0.0037   24.4374  -28.6306 H   0  0  0  0  0  0  0  0  0  0  0  0
   -2.7930   25.6090  -28.6320 H   0  0  0  0  0  0  0  0  0  0  0  0
   -0.5233   22.7426  -28.9912 H   0  0  0  0  0  0  0  0  0  0  0  0
   -3.1297   20.5731  -31.6824 H   0  0  0  0  0  0  0  0  0  0  0  0
   -4.6149   22.5583  -31.8425 H   0  0  0  0  0  0  0  0  0  0  0  0
   -5.3114   24.4977  -28.8316 H   0  0  0  0  0  0  0  0  0  0  0  0
   -5.3043   26.2179  -29.3710 H   0  0  0  0  0  0  0  0  0  0  0  0
   -7.5005   25.3256  -29.8069 H   0  0  0  0  0  0  0  0  0  0  0  0
   -6.6158   25.4869  -31.3952 H   0  0  0  0  0  0  0  0  0  0  0  0
   -6.0250   23.0067  -31.1248 H   0  0  0  0  0  0  0  0  0  0  0  0
   -7.3226   22.9888  -29.8429 H   0  0  0  0  0  0  0  0  0  0  0  0
   -8.9762   23.7434  -31.4943 H   0  0  0  0  0  0  0  0  0  0  0  0
   -7.6966   23.7417  -32.7724 H   0  0  0  0  0  0  0  0  0  0  0  0
   -9.9660   21.4689  -30.8568 H   0  0  0  0  0  0  0  0  0  0  0  0
  -10.3303   22.3090  -32.4022 H   0  0  0  0  0  0  0  0  0  0  0  0
   -9.9496   20.5535  -32.4022 H   0  0  0  0  0  0  0  0  0  0  0  0
   -6.4204   21.3608  -31.2531 H   0  0  0  0  0  0  0  0  0  0  0  0
   -7.8774   21.0535  -30.2014 H   0  0  0  0  0  0  0  0  0  0  0  0
   -6.4738   19.0682  -31.3979 H   0  0  0  0  0  0  0  0  0  0  0  0
   -8.2437   18.9849  -31.0544 H   0  0  0  0  0  0  0  0  0  0  0  0
   -7.7340   18.3400  -33.2740 H   0  0  0  0  0  0  0  0  0  0  0  0
   -6.9913   19.9856  -34.9261 H   0  0  0  0  0  0  0  0  0  0  0  0
   -6.5061   21.0027  -33.5162 H   0  0  0  0  0  0  0  0  0  0  0  0
   -4.1821   20.9741  -33.4101 H   0  0  0  0  0  0  0  0  0  0  0  0
   -2.0371   19.7101  -33.2390 H   0  0  0  0  0  0  0  0  0  0  0  0
   -2.0322   17.2266  -33.4600 H   0  0  0  0  0  0  0  0  0  0  0  0
   -4.1586   15.9967  -33.8754 H   0  0  0  0  0  0  0  0  0  0  0  0
   -6.8041   15.3029  -33.1769 H   0  0  0  0  0  0  0  0  0  0  0  0
   -7.6888   15.4752  -34.7307 H   0  0  0  0  0  0  0  0  0  0  0  0
   -5.9031   15.2806  -34.7307 H   0  0  0  0  0  0  0  0  0  0  0  0
  1  2  1  0
  2  3  1  0
  3  4  1  0
  4  5  1  0
  3  6  1  0
  6  7  1  0
  7  8  1  0
  8  9  1  0
  9 10  2  0
 10 11  1  0
 11 12  1  0
 12 13  2  0
 12 14  1  0
 11 15  2  0
 15 16  1  0
 16 17  2  0
 17 18  1  0
 18 19  1  0
 19 20  1  0
 20 21  1  0
 21 22  1  0
 22 23  1  0
 23 24  1  0
 23 25  1  0
 25 26  1  0
 26 27  1  0
 27 28  1  0
 28 29  1  0
 29 30  2  0
 30 31  1  0
 31 32  2  0
 32 33  1  0
 33 34  2  0
 34 35  1  0
 35 36  1  0
 17  9  1  0
 34 29  1  0
  1 37  1  0
  1 38  1  0
  1 39  1  0
  2 40  1  0
  2 41  1  0
  4 42  1  0
  4 43  1  0
  5 44  1  0
  5 45  1  0
  5 46  1  0
  6 47  1  0
  6 48  1  0
  7 49  1  0
  7 50  1  0
  8 51  1  0
 10 52  1  0
 15 53  1  0
 16 54  1  0
 19 55  1  0
 19 56  1  0
 20 57  1  0
 20 58  1  0
 21 59  1  0
 21 60  1  0
 22 61  1  0
 22 62  1  0
 24 63  1  0
 24 64  1  0
 24 65  1  0
 25 66  1  0
 25 67  1  0
 26 68  1  0
 26 69  1  0
 27 70  1  0
 28 71  1  0
 28 72  1  0
 30 73  1  0
 31 74  1  0
 32 75  1  0
 33 76  1  0
 36 77  1  0
 36 78  1  0
 36 79  1  0
M  CHG  2  12   1  14  -1
M  END
>  <UniqueID>  (19) 
19

>  <SMILES>  (19) 
CCN(CC)CCNc1cc([N+](=O)[O-])ccc1OCCCCN(C)CCNCc1ccccc1OC

>  <Energy>  (19) 
86.24288907849596

>  <Genealogy>  (19) 
CCN(CC)CCNc1cc([N+](=O)[O-])ccc1OCCCCN(C)CCNCc1ccccc1OC (3D coordinates assigned)
CCN(CC)CCNc1cc([N+](=O)[O-])ccc1OCCCCN(C)CCNCc1ccccc1OC (optimized conformer: 86.24288907849596 kcal/mol)

>  <smiles>  (19) 
CCN(CC)CCNc1cc([N+](=O)[O-])ccc1OCCCCN(C)CCNCc1ccccc1OC

>  <score_type>  (19) 
oracle

>  <origin>  (19) 
adg

>  <m_score__min__energy>  (19) 
-9.9299999999999997

>  <m_primary>  (19) 
energy

$$$$
19:0
     RDKit          3D

 52 54  0  0  0  0  0  0  0  0999 V2000
   -4.2220   16.9104  -32.7864 H   0  0  0  0  0  0  0  0  0  0  0  0
   -4.7800   17.8570  -32.8370 C   0  0  0  0  0  0  0  0  0  0  0  0
   -4.1650   19.0490  -32.4530 C   0  0  0  0  0  0  0  0  0  0  0  0
   -3.1259   19.0348  -32.0923 H   0  0  0  0  0  0  0  0  0  0  0  0
   -4.8610   20.2670  -32.5230 C   0  0  0  0  0  0  0  0  0  0  0  0
   -6.2080   20.2690  -32.9420 C   0  0  0  0  0  0  0  0  0  0  0  0
   -6.8200   19.0610  -33.3210 C   0  0  0  0  0  0  0  0  0  0  0  0
   -7.8704   19.0589  -33.6476 H   0  0  0  0  0  0  0  0  0  0  0  0
   -6.1010   17.8630  -33.2850 C   0  0  0  0  0  0  0  0  0  0  0  0
   -6.8750   16.3620  -33.7590 Cl  0  0  0  0  0  0  0  0  0  0  0  0
   -7.0450   21.4900  -32.7380 C   0  0  0  0  0  0  0  0  0  0  0  0
   -6.5377   22.3800  -33.1386 H   0  0  0  0  0  0  0  0  0  0  0  0
   -8.0126   21.4242  -33.2571 H   0  0  0  0  0  0  0  0  0  0  0  0
   -7.2360   21.6170  -30.9440 S   0  0  0  0  0  0  0  0  0  0  0  0
   -5.8120   22.6830  -30.6400 C   0  0  0  0  0  0  0  0  0  0  0  0
   -6.0630   23.7620  -29.7800 C   0  0  0  0  0  0  0  0  0  0  0  0
   -7.0889   23.9454  -29.4281 H   0  0  0  0  0  0  0  0  0  0  0  0
   -5.0360   24.6050  -29.3640 C   0  0  0  0  0  0  0  0  0  0  0  0
   -5.2580   25.4449  -28.6893 H   0  0  0  0  0  0  0  0  0  0  0  0
   -3.7310   24.3920  -29.7960 C   0  0  0  0  0  0  0  0  0  0  0  0
   -2.7310   25.2650  -29.3430 O   0  0  0  0  0  0  0  0  0  0  0  0
   -1.8570   24.9950  -28.2510 C   0  0  0  0  0  0  0  0  0  0  0  0
   -2.3916   25.1602  -27.3040 H   0  0  0  0  0  0  0  0  0  0  0  0
   -1.5173   23.9500  -28.3029 H   0  0  0  0  0  0  0  0  0  0  0  0
   -0.9871   25.6663  -28.3029 H   0  0  0  0  0  0  0  0  0  0  0  0
   -3.4640   23.3270  -30.6740 C   0  0  0  0  0  0  0  0  0  0  0  0
   -2.4303   23.1540  -31.0080 H   0  0  0  0  0  0  0  0  0  0  0  0
   -4.4910   22.4720  -31.1390 C   0  0  0  0  0  0  0  0  0  0  0  0
   -4.1350   21.5360  -32.2570 C   0  0  0  0  0  0  0  0  0  0  0  0
   -3.1700   21.9120  -33.0570 N   0  0  0  0  0  0  0  0  0  0  0  0
   -1.7970   21.4060  -33.1350 C   0  0  0  0  0  0  0  0  0  0  0  0
   -1.2167   22.0565  -33.8058 H   0  0  0  0  0  0  0  0  0  0  0  0
   -1.8368   20.3747  -33.5157 H   0  0  0  0  0  0  0  0  0  0  0  0
   -1.1140   21.3770  -31.7600 C   0  0  0  0  0  0  0  0  0  0  0  0
   -1.3235   22.3345  -31.2607 H   0  0  0  0  0  0  0  0  0  0  0  0
   -0.0482   21.1970  -31.9640 H   0  0  0  0  0  0  0  0  0  0  0  0
   -1.5530   20.2360  -30.8010 C   0  0  0  0  0  0  0  0  0  0  0  0
   -0.9829   19.3363  -31.0759 H   0  0  0  0  0  0  0  0  0  0  0  0
   -2.6423   20.1603  -30.9341 H   0  0  0  0  0  0  0  0  0  0  0  0
   -1.3620   20.4570  -29.3380 N   0  0  2  0  0  0  0  0  0  0  0  0
   -0.8010   21.3380  -29.2470 H   0  0  0  0  0  0  0  0  0  0  0  0
   -0.5440   19.4060  -28.7060 C   0  0  0  0  0  0  0  0  0  0  0  0
   -0.6136   19.4955  -27.6119 H   0  0  0  0  0  0  0  0  0  0  0  0
   -0.9128   18.4175  -29.0173 H   0  0  0  0  0  0  0  0  0  0  0  0
    0.5048   19.5208  -29.0173 H   0  0  0  0  0  0  0  0  0  0  0  0
   -2.6150   20.6770  -28.5700 C   0  0  0  0  0  0  0  0  0  0  0  0
   -3.4700   20.4456  -29.2223 H   0  0  0  0  0  0  0  0  0  0  0  0
   -2.6174   21.7271  -28.2424 H   0  0  0  0  0  0  0  0  0  0  0  0
   -2.7130   19.8060  -27.3100 C   0  0  0  0  0  0  0  0  0  0  0  0
   -2.6412   20.4440  -26.4168 H   0  0  0  0  0  0  0  0  0  0  0  0
   -3.6765   19.2753  -27.3051 H   0  0  0  0  0  0  0  0  0  0  0  0
   -1.8915   19.0745  -27.3051 H   0  0  0  0  0  0  0  0  0  0  0  0
  1  2  1  0
  2  3  2  0
  3  4  1  0
  3  5  1  0
  5  6  2  0
  6  7  1  0
  7  8  1  0
  7  9  2  0
  9 10  1  0
  6 11  1  0
 11 12  1  0
 11 13  1  0
 11 14  1  0
 14 15  1  0
 15 16  2  0
 16 17  1  0
 16 18  1  0
 18 19  1  0
 18 20  2  0
 20 21  1  0
 21 22  1  0
 22 23  1  0
 22 24  1  0
 22 25  1  0
 20 26  1  0
 26 27  1  0
 26 28  2  0
 28 29  1  0
 29 30  2  0
 30 31  1  0
 31 32  1  0
 31 33  1  0
 31 34  1  0
 34 35  1  0
 34 36  1  0
 34 37  1  0
 37 38  1  0
 37 39  1  0
 37 40  1  0
 40 41  1  6
 40 42  1  0
 42 43  1  0
 42 44  1  0
 42 45  1  0
 40 46  1  0
 46 47  1  0
 46 48  1  0
 46 49  1  0
 49 50  1  0
 49 51  1  0
 49 52  1  0
  9  2  1  0
 28 15  1  0
 29  5  1  0
M  CHG  1  40   1
M  END
>  <UniqueID>  (20) 
20

>  <SMILES>  (20) 
CC[N@@H+](C)CCC/N=C1\c2ccc(Cl)cc2CSc2ccc(OC)cc21

>  <Energy>  (20) 
81.51148416880021

>  <Genealogy>  (20) 
CC[NH+](C)CCCN=C1c2ccc(Cl)cc2CSc2ccc(OC)cc21 (protonated)
CC[N@@H+](C)CCCN=C1c2ccc(Cl)cc2CSc2ccc(OC)cc21 (chirality)
CC[N@@H+](C)CCC/N=C1\c2ccc(Cl)cc2CSc2ccc(OC)cc21 (cis-trans isomerization)
CC[N@@H+](C)CCC/N=C1\c2ccc(Cl)cc2CSc2ccc(OC)cc21 (3D coordinates assigned)
CC[N@@H+](C)CCC/N=C1\c2ccc(Cl)cc2CSc2ccc(OC)cc21 (nonaromatic ring conformer: 81.51148416880021 kcal/mol)

>  <smiles>  (20) 
CCN(C)CCCN=C1c2ccc(Cl)cc2CSc2ccc(OC)cc21

>  <score_type>  (20) 
oracle

>  <origin>  (20) 
adg

>  <m_score__min__energy>  (20) 
-7.4299999999999997

>  <m_primary>  (20) 
energy

$$$$
20:0
     RDKit          3D

 66 70  0  0  0  0  0  0  0  0999 V2000
   -0.0240   21.1890  -35.4370 C   0  0  0  0  0  0  0  0  0  0  0  0
   -1.0380   20.7090  -34.5640 O   0  0  0  0  0  0  0  0  0  0  0  0
   -0.9570   20.8390  -33.1740 C   0  0  0  0  0  0  0  0  0  0  0  0
    0.1700   20.9200  -32.6090 O   0  0  0  0  0  0  0  0  0  0  0  0
   -2.2380   20.8420  -32.3700 C   0  0  2  0  0  0  0  0  0  0  0  0
   -2.6270   19.3970  -31.9480 C   0  0  0  0  0  0  0  0  0  0  0  0
   -3.7640   18.8100  -32.7500 C   0  0  0  0  0  0  0  0  0  0  0  0
   -3.5710   18.4430  -34.0930 C   0  0  0  0  0  0  0  0  0  0  0  0
   -4.6230   17.8940  -34.8320 C   0  0  0  0  0  0  0  0  0  0  0  0
   -5.8750   17.7090  -34.2380 C   0  0  0  0  0  0  0  0  0  0  0  0
   -6.0770   18.0720  -32.9040 C   0  0  0  0  0  0  0  0  0  0  0  0
   -5.0260   18.6220  -32.1610 C   0  0  0  0  0  0  0  0  0  0  0  0
   -3.3060   21.4470  -33.2200 N   0  0  0  0  0  0  0  0  0  0  0  0
   -3.8170   22.6700  -32.5430 C   0  0  1  0  0  0  0  0  0  0  0  0
   -5.3130   22.6110  -32.3000 C   0  0  0  0  0  0  0  0  0  0  0  0
   -5.9760   23.6260  -31.5830 C   0  0  0  0  0  0  0  0  0  0  0  0
   -7.3470   23.5310  -31.3230 C   0  0  0  0  0  0  0  0  0  0  0  0
   -8.0770   22.4100  -31.7640 C   0  0  0  0  0  0  0  0  0  0  0  0
   -9.4500   22.2600  -31.5160 O   0  0  0  0  0  0  0  0  0  0  0  0
  -10.2320   21.1550  -31.9590 C   0  0  0  0  0  0  0  0  0  0  0  0
   -7.4150   21.3990  -32.4680 C   0  0  0  0  0  0  0  0  0  0  0  0
   -6.0440   21.4920  -32.7290 C   0  0  0  0  0  0  0  0  0  0  0  0
   -3.0550   22.7370  -31.2860 C   0  0  0  0  0  0  0  0  0  0  0  0
   -2.1750   21.7510  -31.1870 C   0  0  0  0  0  0  0  0  0  0  0  0
   -1.2910   22.0870  -30.1780 C   0  0  0  0  0  0  0  0  0  0  0  0
   -0.1530   21.3510  -29.8460 O   0  0  0  0  0  0  0  0  0  0  0  0
   -1.6640   23.2760  -29.6220 N   0  0  0  0  0  0  0  0  0  0  0  0
   -0.9820   24.0150  -28.5430 C   0  0  0  0  0  0  0  0  0  0  0  0
   -1.8260   25.2330  -28.0750 C   0  0  0  0  0  0  0  0  0  0  0  0
   -2.3800   25.0740  -26.6510 C   0  0  0  0  0  0  0  0  0  0  0  0
   -1.2730   24.7690  -25.6220 C   0  0  0  0  0  0  0  0  0  0  0  0
   -0.1420   23.8700  -26.1630 C   0  0  0  0  0  0  0  0  0  0  0  0
   -0.5770   23.0670  -27.3930 C   0  0  0  0  0  0  0  0  0  0  0  0
   -2.7260   23.6970  -30.3620 C   0  0  0  0  0  0  0  0  0  0  0  0
   -3.3350   24.9400  -30.2550 O   0  0  0  0  0  0  0  0  0  0  0  0
    0.8132   21.5853  -34.8437 H   0  0  0  0  0  0  0  0  0  0  0  0
    0.3340   20.3648  -36.0714 H   0  0  0  0  0  0  0  0  0  0  0  0
   -0.4346   21.9883  -36.0714 H   0  0  0  0  0  0  0  0  0  0  0  0
   -1.7456   18.7508  -32.0726 H   0  0  0  0  0  0  0  0  0  0  0  0
   -2.9676   19.4504  -30.9034 H   0  0  0  0  0  0  0  0  0  0  0  0
   -2.5879   18.5884  -34.5646 H   0  0  0  0  0  0  0  0  0  0  0  0
   -4.4655   17.6072  -35.8822 H   0  0  0  0  0  0  0  0  0  0  0  0
   -6.7017   17.2773  -34.8213 H   0  0  0  0  0  0  0  0  0  0  0  0
   -7.0623   17.9255  -32.4375 H   0  0  0  0  0  0  0  0  0  0  0  0
   -5.1886   18.9083  -31.1114 H   0  0  0  0  0  0  0  0  0  0  0  0
   -4.0800   20.7690  -33.4220 H   0  0  0  0  0  0  0  0  0  0  0  0
   -3.6789   23.5697  -33.1607 H   0  0  0  0  0  0  0  0  0  0  0  0
   -5.4115   24.4996  -31.2250 H   0  0  0  0  0  0  0  0  0  0  0  0
   -7.8571   24.3348  -30.7720 H   0  0  0  0  0  0  0  0  0  0  0  0
  -10.6196   20.6073  -31.0874 H   0  0  0  0  0  0  0  0  0  0  0  0
  -11.0733   21.5210  -32.5659 H   0  0  0  0  0  0  0  0  0  0  0  0
   -9.6070   20.4834  -32.5659 H   0  0  0  0  0  0  0  0  0  0  0  0
   -7.9781   20.5220  -32.8199 H   0  0  0  0  0  0  0  0  0  0  0  0
   -5.5353   20.6831  -33.2739 H   0  0  0  0  0  0  0  0  0  0  0  0
    0.4540   20.9330  -30.5350 H   0  0  0  0  0  0  0  0  0  0  0  0
   -0.0446   24.4325  -28.9393 H   0  0  0  0  0  0  0  0  0  0  0  0
   -1.1909   26.1306  -28.1049 H   0  0  0  0  0  0  0  0  0  0  0  0
   -2.6877   25.3138  -28.7539 H   0  0  0  0  0  0  0  0  0  0  0  0
   -2.8843   26.0078  -26.3615 H   0  0  0  0  0  0  0  0  0  0  0  0
   -3.0784   24.2242  -26.6551 H   0  0  0  0  0  0  0  0  0  0  0  0
   -0.8311   25.7224  -25.2969 H   0  0  0  0  0  0  0  0  0  0  0  0
   -1.7490   24.2188  -24.7970 H   0  0  0  0  0  0  0  0  0  0  0  0
    0.7132   24.5045  -26.4388 H   0  0  0  0  0  0  0  0  0  0  0  0
    0.1277   23.1549  -25.3718 H   0  0  0  0  0  0  0  0  0  0  0  0
    0.2578   22.4320  -27.7244 H   0  0  0  0  0  0  0  0  0  0  0  0
   -1.4432   22.4449  -27.1233 H   0  0  0  0  0  0  0  0  0  0  0  0
  1  2  1  0
  2  3  1  0
  3  4  2  0
  3  5  1  0
  5  6  1  1
  6  7  1  0
  7  8  2  0
  8  9  1  0
  9 10  2  0
 10 11  1  0
 11 12  2  0
  5 13  1  0
 13 14  1  0
 14 15  1  0
 15 16  2  0
 16 17  1  0
 17 18  2  0
 18 19  1  0
 19 20  1  0
 18 21  1  0
 21 22  2  0
 14 23  1  0
 23 24  1  0
 24 25  2  0
 25 26  1  0
 25 27  1  0
 27 28  1  0
 28 29  1  0
 29 30  1  0
 30 31  1  0
 31 32  1  0
 32 33  1  0
 27 34  1  0
 34 35  1  0
 24  5  1  0
 33 28  1  0
 12  7  1  0
 22 15  1  0
 34 23  2  0
  1 36  1  0
  1 37  1  0
  1 38  1  0
  6 39  1  0
  6 40  1  0
  8 41  1  0
  9 42  1  0
 10 43  1  0
 11 44  1  0
 12 45  1  0
 13 46  1  0
 14 47  1  6
 16 48  1  0
 17 49  1  0
 20 50  1  0
 20 51  1  0
 20 52  1  0
 21 53  1  0
 22 54  1  0
 26 55  1  0
 28 56  1  0
 29 57  1  0
 29 58  1  0
 30 59  1  0
 30 60  1  0
 31 61  1  0
 31 62  1  0
 32 63  1  0
 32 64  1  0
 33 65  1  0
 33 66  1  0
M  CHG  1  35  -1
M  END
>  <UniqueID>  (21) 
21

>  <SMILES>  (21) 
COC(=O)[C@]1(Cc2ccccc2)N[C@@H](c2ccc(OC)cc2)c2c1c(O)n(C1CCCCC1)c2[O-]

>  <Energy>  (21) 
128.25243539736076

>  <Genealogy>  (21) 
COC(=O)C1(Cc2ccccc2)NC(c2ccc(OC)cc2)c2c1c(O)n(C1CCCCC1)c2[O-] (protonated)
COC(=O)[C@]1(Cc2ccccc2)N[C@@H](c2ccc(OC)cc2)c2c1c(O)n(C1CCCCC1)c2[O-] (chirality)
COC(=O)[C@]1(Cc2ccccc2)N[C@@H](c2ccc(OC)cc2)c2c1c(O)n(C1CCCCC1)c2[O-] (3D coordinates assigned)
COC(=O)[C@]1(Cc2ccccc2)N[C@@H](c2ccc(OC)cc2)c2c1c(O)n(C1CCCCC1)c2[O-] (nonaromatic ring conformer: 128.25243539736076 kcal/mol)

>  <smiles>  (21) 
COC(=O)C1(Cc2ccccc2)NC(c2ccc(OC)cc2)c2c1c(O)n(C1CCCCC1)c2O

>  <score_type>  (21) 
oracle

>  <origin>  (21) 
adg

>  <m_score__min__energy>  (21) 
-10.15

>  <m_primary>  (21) 
energy

$$$$
21:0
     RDKit          3D

 33 34  0  0  0  0  0  0  0  0999 V2000
   -5.0116   23.8344  -32.3189 H   0  0  0  0  0  0  0  0  0  0  0  0
   -4.7590   22.8720  -31.8500 C   0  0  0  0  0  0  0  0  0  0  0  0
   -5.2790   21.7520  -32.3660 C   0  0  0  0  0  0  0  0  0  0  0  0
   -4.6137   21.0406  -32.8772 H   0  0  0  0  0  0  0  0  0  0  0  0
   -6.7220   21.4430  -32.2690 C   0  0  0  0  0  0  0  0  0  0  0  0
   -7.5580   22.4280  -31.7240 C   0  0  0  0  0  0  0  0  0  0  0  0
   -7.1392   23.3971  -31.4150 H   0  0  0  0  0  0  0  0  0  0  0  0
   -8.9180   22.1770  -31.5750 C   0  0  0  0  0  0  0  0  0  0  0  0
   -9.5768   22.9447  -31.1431 H   0  0  0  0  0  0  0  0  0  0  0  0
   -9.4420   20.9520  -31.9740 C   0  0  0  0  0  0  0  0  0  0  0  0
  -10.5130   20.7375  -31.8436 H   0  0  0  0  0  0  0  0  0  0  0  0
   -8.5970   19.9980  -32.5410 C   0  0  0  0  0  0  0  0  0  0  0  0
   -9.0083   19.0269  -32.8536 H   0  0  0  0  0  0  0  0  0  0  0  0
   -7.2630   20.2530  -32.7140 N   0  0  0  0  0  0  0  0  0  0  0  0
   -6.4440   19.2250  -33.3760 C   0  0  0  0  0  0  0  0  0  0  0  0
   -5.9493   18.6040  -32.6147 H   0  0  0  0  0  0  0  0  0  0  0  0
   -7.0878   18.5917  -34.0041 H   0  0  0  0  0  0  0  0  0  0  0  0
   -5.6828   19.7110  -34.0041 H   0  0  0  0  0  0  0  0  0  0  0  0
   -3.8590   22.8710  -30.6760 C   0  0  0  0  0  0  0  0  0  0  0  0
   -3.4500   21.6310  -30.1590 C   0  0  0  0  0  0  0  0  0  0  0  0
   -3.8059   20.7012  -30.6268 H   0  0  0  0  0  0  0  0  0  0  0  0
   -2.5960   21.5680  -29.0570 C   0  0  0  0  0  0  0  0  0  0  0  0
   -2.2730   20.5915  -28.6671 H   0  0  0  0  0  0  0  0  0  0  0  0
   -2.1520   22.7420  -28.4500 C   0  0  0  0  0  0  0  0  0  0  0  0
   -1.4691   22.6903  -27.5892 H   0  0  0  0  0  0  0  0  0  0  0  0
   -2.5720   23.9830  -28.9320 C   0  0  0  0  0  0  0  0  0  0  0  0
   -2.2225   24.9048  -28.4439 H   0  0  0  0  0  0  0  0  0  0  0  0
   -3.4410   24.0640  -30.0400 C   0  0  0  0  0  0  0  0  0  0  0  0
   -3.9230   25.2990  -30.5050 O   0  0  0  0  0  0  0  0  0  0  0  0
   -5.2880   25.7010  -30.4730 C   0  0  0  0  0  0  0  0  0  0  0  0
   -5.6173   25.7980  -29.4279 H   0  0  0  0  0  0  0  0  0  0  0  0
   -5.3971   26.6694  -30.9832 H   0  0  0  0  0  0  0  0  0  0  0  0
   -5.9046   24.9463  -30.9832 H   0  0  0  0  0  0  0  0  0  0  0  0
  1  2  1  0
  2  3  2  0
  3  4  1  0
  3  5  1  0
  5  6  2  0
  6  7  1  0
  6  8  1  0
  8  9  1  0
  8 10  2  0
 10 11  1  0
 10 12  1  0
 12 13  1  0
 12 14  2  0
 14 15  1  0
 15 16  1  0
 15 17  1  0
 15 18  1  0
  2 19  1  0
 19 20  2  0
 20 21  1  0
 20 22  1  0
 22 23  1  0
 22 24  2  0
 24 25  1  0
 24 26  1  0
 26 27  1  0
 26 28  2  0
 28 29  1  0
 29 30  1  0
 30 31  1  0
 30 32  1  0
 30 33  1  0
 14  5  1  0
 28 19  1  0
M  CHG  1  14   1
M  END
>  <UniqueID>  (22) 
22

>  <SMILES>  (22) 
COc1ccccc1/C=C/c1cccc[n+]1C

>  <Energy>  (22) 
45.4697936466964

>  <Genealogy>  (22) 
COc1ccccc1/C=C/c1cccc[n+]1C (cis-trans isomerization)
COc1ccccc1/C=C/c1cccc[n+]1C (3D coordinates assigned)
COc1ccccc1/C=C/c1cccc[n+]1C (optimized conformer: 45.4697936466964 kcal/mol)

>  <smiles>  (22) 
COc1ccccc1C=Cc1cccc[n+]1C

>  <score_type>  (22) 
oracle

>  <origin>  (22) 
adg

>  <m_score__min__energy>  (22) 
-6.5300000000000002

>  <m_primary>  (22) 
energy

$$$$
22:0
     RDKit          3D

 56 58  0  0  0  0  0  0  0  0999 V2000
   -1.0800   26.0150  -27.7290 C   0  0  0  0  0  0  0  0  0  0  0  0
   -1.6550   25.6680  -28.9700 O   0  0  0  0  0  0  0  0  0  0  0  0
   -2.1050   24.3310  -28.9240 C   0  0  0  0  0  0  0  0  0  0  0  0
   -3.4780   24.2930  -28.2490 C   0  0  0  0  0  0  0  0  0  0  0  0
   -4.4960   23.7230  -29.1570 N   0  0  0  0  0  0  0  0  0  0  0  0
   -4.2440   22.2860  -29.4630 C   0  0  0  0  0  0  0  0  0  0  0  0
   -3.6540   22.0570  -30.8620 C   0  0  0  0  0  0  0  0  0  0  0  0
   -4.5660   22.6320  -31.9690 C   0  0  0  0  0  0  0  0  0  0  0  0
   -5.4430   21.5830  -32.5000 N   0  0  0  0  0  0  0  0  0  0  0  0
   -5.1180   20.7610  -33.4980 N   0  0  0  0  0  0  0  0  0  0  0  0
   -6.1960   19.9790  -33.7560 C   0  0  0  0  0  0  0  0  0  0  0  0
   -6.2090   18.9250  -34.7340 N   0  0  0  0  0  0  0  0  0  0  0  0
   -4.8870   18.2850  -34.8500 C   0  0  0  0  0  0  0  0  0  0  0  0
   -4.7850   17.0000  -34.0050 C   0  0  0  0  0  0  0  0  0  0  0  0
   -6.1060   16.6440  -33.4420 N   0  0  0  0  0  0  0  0  0  0  0  0
   -6.4790   15.2780  -33.8420 C   0  0  0  0  0  0  0  0  0  0  0  0
   -6.0990   16.7430  -31.9720 C   0  0  0  0  0  0  0  0  0  0  0  0
   -7.2250   20.3210  -32.9010 C   0  0  0  0  0  0  0  0  0  0  0  0
   -8.5260   19.8650  -32.7220 C   0  0  0  0  0  0  0  0  0  0  0  0
   -9.2900   20.4920  -31.7220 C   0  0  0  0  0  0  0  0  0  0  0  0
   -8.7250   21.5380  -30.9530 C   0  0  0  0  0  0  0  0  0  0  0  0
   -7.4370   21.9460  -31.1730 N   0  0  0  0  0  0  0  0  0  0  0  0
   -6.7140   21.3280  -32.1400 C   0  0  0  0  0  0  0  0  0  0  0  0
   -5.3970   23.8360  -31.4760 C   0  0  0  0  0  0  0  0  0  0  0  0
   -4.6550   24.5760  -30.3590 C   0  0  0  0  0  0  0  0  0  0  0  0
   -1.7115   25.6339  -26.9129 H   0  0  0  0  0  0  0  0  0  0  0  0
   -0.0761   25.5718  -27.6533 H   0  0  0  0  0  0  0  0  0  0  0  0
   -1.0042   27.1098  -27.6533 H   0  0  0  0  0  0  0  0  0  0  0  0
   -2.1850   23.9329  -29.9463 H   0  0  0  0  0  0  0  0  0  0  0  0
   -1.3922   23.7173  -28.3537 H   0  0  0  0  0  0  0  0  0  0  0  0
   -3.4166   23.6733  -27.3422 H   0  0  0  0  0  0  0  0  0  0  0  0
   -3.7722   25.3213  -27.9921 H   0  0  0  0  0  0  0  0  0  0  0  0
   -3.5393   21.8887  -28.7176 H   0  0  0  0  0  0  0  0  0  0  0  0
   -5.2155   21.7710  -29.4310 H   0  0  0  0  0  0  0  0  0  0  0  0
   -2.6714   22.5481  -30.9191 H   0  0  0  0  0  0  0  0  0  0  0  0
   -3.5631   20.9725  -31.0221 H   0  0  0  0  0  0  0  0  0  0  0  0
   -3.9132   22.9995  -32.7745 H   0  0  0  0  0  0  0  0  0  0  0  0
   -6.5040   19.3110  -35.6620 H   0  0  0  0  0  0  0  0  0  0  0  0
   -6.9110   18.2070  -34.4430 H   0  0  0  0  0  0  0  0  0  0  0  0
   -4.7084   18.0301  -35.9050 H   0  0  0  0  0  0  0  0  0  0  0  0
   -4.1346   18.9950  -34.4763 H   0  0  0  0  0  0  0  0  0  0  0  0
   -4.4284   16.1761  -34.6406 H   0  0  0  0  0  0  0  0  0  0  0  0
   -4.0807   17.1730  -33.1780 H   0  0  0  0  0  0  0  0  0  0  0  0
   -6.6462   14.6656  -32.9436 H   0  0  0  0  0  0  0  0  0  0  0  0
   -7.4012   15.3102  -34.4407 H   0  0  0  0  0  0  0  0  0  0  0  0
   -5.6684   14.8370  -34.4407 H   0  0  0  0  0  0  0  0  0  0  0  0
   -6.1702   15.7355  -31.5363 H   0  0  0  0  0  0  0  0  0  0  0  0
   -5.1649   17.2204  -31.6411 H   0  0  0  0  0  0  0  0  0  0  0  0
   -6.9567   17.3471  -31.6411 H   0  0  0  0  0  0  0  0  0  0  0  0
   -8.9391   19.0504  -33.3350 H   0  0  0  0  0  0  0  0  0  0  0  0
  -10.3255   20.1703  -31.5373 H   0  0  0  0  0  0  0  0  0  0  0  0
   -9.3261   22.0269  -30.1722 H   0  0  0  0  0  0  0  0  0  0  0  0
   -5.5690   24.5257  -32.3155 H   0  0  0  0  0  0  0  0  0  0  0  0
   -6.3575   23.4699  -31.0844 H   0  0  0  0  0  0  0  0  0  0  0  0
   -3.6596   24.8692  -30.7239 H   0  0  0  0  0  0  0  0  0  0  0  0
   -5.2449   25.4613  -30.0793 H   0  0  0  0  0  0  0  0  0  0  0  0
  1  2  1  0
  2  3  1  0
  3  4  1  0
  4  5  1  0
  5  6  1  0
  6  7  1  0
  7  8  1  0
  8  9  1  0
  9 10  1  0
 10 11  2  0
 11 12  1  0
 12 13  1  0
 13 14  1  0
 14 15  1  0
 15 16  1  0
 15 17  1  0
 11 18  1  0
 18 19  2  0
 19 20  1  0
 20 21  2  0
 21 22  1  0
 22 23  2  0
  8 24  1  0
 24 25  1  0
 25  5  1  0
 23  9  1  0
 23 18  1  0
  1 26  1  0
  1 27  1  0
  1 28  1  0
  3 29  1  0
  3 30  1  0
  4 31  1  0
  4 32  1  0
  6 33  1  0
  6 34  1  0
  7 35  1  0
  7 36  1  0
  8 37  1  0
 12 38  1  0
 12 39  1  0
 13 40  1  0
 13 41  1  0
 14 42  1  0
 14 43  1  0
 16 44  1  0
 16 45  1  0
 16 46  1  0
 17 47  1  0
 17 48  1  0
 17 49  1  0
 19 50  1  0
 20 51  1  0
 21 52  1  0
 24 53  1  0
 24 54  1  0
 25 55  1  0
 25 56  1  0
M  CHG  1  12   1
M  END
>  <UniqueID>  (23) 
23

>  <SMILES>  (23) 
COCCN1CCC(n2nc([NH2+]CCN(C)C)c3cccnc32)CC1

>  <Energy>  (23) 
104.64620466071779

>  <Genealogy>  (23) 
COCCN1CCC(n2nc([NH2+]CCN(C)C)c3cccnc32)CC1 (protonated)
COCCN1CCC(n2nc([NH2+]CCN(C)C)c3cccnc32)CC1 (3D coordinates assigned)
COCCN1CCC(n2nc([NH2+]CCN(C)C)c3cccnc32)CC1 (nonaromatic ring conformer: 104.64620466071779 kcal/mol)

>  <smiles>  (23) 
COCCN1CCC(n2nc(NCCN(C)C)c3cccnc32)CC1

>  <score_type>  (23) 
oracle

>  <origin>  (23) 
adg

>  <m_score__min__energy>  (23) 
-7.3600000000000003

>  <m_primary>  (23) 
energy

$$$$
23:0
     RDKit          3D

 32 34  0  0  0  0  0  0  0  0999 V2000
   -9.4710   18.8050  -32.3370 C   0  0  0  0  0  0  0  0  0  0  0  0
   -9.5240   20.2220  -32.2070 O   0  0  0  0  0  0  0  0  0  0  0  0
   -8.4180   21.0350  -31.9150 C   0  0  0  0  0  0  0  0  0  0  0  0
   -8.5320   22.2210  -31.1850 C   0  0  0  0  0  0  0  0  0  0  0  0
   -7.4090   22.9960  -30.9200 C   0  0  0  0  0  0  0  0  0  0  0  0
   -6.1290   22.6130  -31.3800 C   0  0  0  0  0  0  0  0  0  0  0  0
   -4.9850   23.4120  -31.1150 C   0  0  0  0  0  0  0  0  0  0  0  0
   -5.0410   24.7060  -30.3280 C   0  0  0  0  0  0  0  0  0  0  0  0
   -3.9290   25.5050  -30.6280 O   0  0  0  0  0  0  0  0  0  0  0  0
   -3.7280   22.9780  -31.5470 C   0  0  0  0  0  0  0  0  0  0  0  0
   -3.5760   21.7950  -32.2710 C   0  0  0  0  0  0  0  0  0  0  0  0
   -2.2910   21.4150  -32.6940 C   0  0  0  0  0  0  0  0  0  0  0  0
   -2.1040   20.2440  -33.4250 C   0  0  0  0  0  0  0  0  0  0  0  0
   -0.3520   19.7400  -33.9960 Br  0  0  0  0  0  0  0  0  0  0  0  0
   -3.1980   19.4420  -33.7400 C   0  0  0  0  0  0  0  0  0  0  0  0
   -4.4820   19.8030  -33.3260 C   0  0  0  0  0  0  0  0  0  0  0  0
   -4.7030   20.9890  -32.5780 C   0  0  0  0  0  0  0  0  0  0  0  0
   -5.9960   21.3980  -32.1220 C   0  0  0  0  0  0  0  0  0  0  0  0
   -7.1620   20.6320  -32.3760 C   0  0  0  0  0  0  0  0  0  0  0  0
   -9.4538   18.3455  -31.3377 H   0  0  0  0  0  0  0  0  0  0  0  0
  -10.3566   18.4539  -32.8869 H   0  0  0  0  0  0  0  0  0  0  0  0
   -8.5616   18.5210  -32.8869 H   0  0  0  0  0  0  0  0  0  0  0  0
   -9.5173   22.5436  -30.8175 H   0  0  0  0  0  0  0  0  0  0  0  0
   -7.5188   23.9250  -30.3413 H   0  0  0  0  0  0  0  0  0  0  0  0
   -5.9604   25.2504  -30.5893 H   0  0  0  0  0  0  0  0  0  0  0  0
   -5.0348   24.4723  -29.2531 H   0  0  0  0  0  0  0  0  0  0  0  0
   -3.9510   25.6740  -31.6050 H   0  0  0  0  0  0  0  0  0  0  0  0
   -2.8397   23.5823  -31.3110 H   0  0  0  0  0  0  0  0  0  0  0  0
   -1.4258   22.0473  -32.4459 H   0  0  0  0  0  0  0  0  0  0  0  0
   -3.0499   18.5183  -34.3186 H   0  0  0  0  0  0  0  0  0  0  0  0
   -5.3353   19.1583  -33.5835 H   0  0  0  0  0  0  0  0  0  0  0  0
   -7.0756   19.6976  -32.9500 H   0  0  0  0  0  0  0  0  0  0  0  0
  1  2  1  0
  2  3  1  0
  3  4  2  0
  4  5  1  0
  5  6  2  0
  6  7  1  0
  7  8  1  0
  8  9  1  0
  7 10  2  0
 10 11  1  0
 11 12  2  0
 12 13  1  0
 13 14  1  0
 13 15  2  0
 15 16  1  0
 16 17  2  0
 17 18  1  0
 18 19  2  0
 19  3  1  0
 18  6  1  0
 17 11  1  0
  1 20  1  0
  1 21  1  0
  1 22  1  0
  4 23  1  0
  5 24  1  0
  8 25  1  0
  8 26  1  0
  9 27  1  0
 10 28  1  0
 12 29  1  0
 15 30  1  0
 16 31  1  0
 19 32  1  0
M  END
>  <UniqueID>  (24) 
24

>  <SMILES>  (24) 
COc1ccc2c(CO)cc3cc(Br)ccc3c2c1

>  <Energy>  (24) 
48.71925608662539

>  <Genealogy>  (24) 
COc1ccc2c(CO)cc3cc(Br)ccc3c2c1 (3D coordinates assigned)
COc1ccc2c(CO)cc3cc(Br)ccc3c2c1 (optimized conformer: 48.71925608662539 kcal/mol)

>  <smiles>  (24) 
COc1ccc2c(CO)cc3cc(Br)ccc3c2c1

>  <score_type>  (24) 
oracle

>  <origin>  (24) 
adg

>  <m_score__min__energy>  (24) 
-8.4399999999999995

>  <m_primary>  (24) 
energy

$$$$
24:0
     RDKit          3D

 54 54  0  0  0  0  0  0  0  0999 V2000
   -6.1930   17.0680  -31.7120 C   0  0  0  0  0  0  0  0  0  0  0  0
   -6.5210   17.2680  -33.1870 C   0  0  0  0  0  0  0  0  0  0  0  0
   -5.3870   17.9220  -33.8830 N   0  0  0  0  0  0  0  0  0  0  0  0
   -5.7370   18.1520  -35.2990 C   0  0  0  0  0  0  0  0  0  0  0  0
   -4.1580   17.1010  -33.7730 C   0  0  0  0  0  0  0  0  0  0  0  0
   -3.0220   17.8910  -33.0940 C   0  0  0  0  0  0  0  0  0  0  0  0
   -3.4450   19.2610  -32.7420 N   0  0  0  0  0  0  0  0  0  0  0  0
   -2.3000   20.1870  -32.5620 C   0  0  0  0  0  0  0  0  0  0  0  0
   -2.5020   21.5290  -33.2930 C   0  0  0  0  0  0  0  0  0  0  0  0
   -3.9210   22.0930  -33.1240 C   0  0  0  0  0  0  0  0  0  0  0  0
   -4.7050   21.2780  -32.2510 O   0  0  0  0  0  0  0  0  0  0  0  0
   -6.0930   21.3800  -32.0470 C   0  0  0  0  0  0  0  0  0  0  0  0
   -6.9830   20.3720  -32.4750 C   0  0  0  0  0  0  0  0  0  0  0  0
   -8.3610   20.4910  -32.2550 C   0  0  0  0  0  0  0  0  0  0  0  0
   -9.2870   19.3910  -32.6870 C   0  0  0  0  0  0  0  0  0  0  0  0
   -8.8560   21.6090  -31.5760 C   0  0  0  0  0  0  0  0  0  0  0  0
   -7.9890   22.6120  -31.1440 C   0  0  0  0  0  0  0  0  0  0  0  0
   -6.6030   22.5180  -31.3790 C   0  0  0  0  0  0  0  0  0  0  0  0
   -5.6770   23.6290  -30.9000 C   0  0  0  0  0  0  0  0  0  0  0  0
   -4.7470   23.1250  -29.7900 C   0  0  0  0  0  0  0  0  0  0  0  0
   -6.4750   24.8540  -30.4350 C   0  0  0  0  0  0  0  0  0  0  0  0
   -6.9710   17.5424  -31.0958 H   0  0  0  0  0  0  0  0  0  0  0  0
   -6.1532   15.9918  -31.4879 H   0  0  0  0  0  0  0  0  0  0  0  0
   -5.2181   17.5255  -31.4879 H   0  0  0  0  0  0  0  0  0  0  0  0
   -6.7160   16.2899  -33.6511 H   0  0  0  0  0  0  0  0  0  0  0  0
   -7.4104   17.9097  -33.2716 H   0  0  0  0  0  0  0  0  0  0  0  0
   -6.6550   18.7553  -35.3565 H   0  0  0  0  0  0  0  0  0  0  0  0
   -4.9151   18.6866  -35.7977 H   0  0  0  0  0  0  0  0  0  0  0  0
   -5.9016   17.1854  -35.7977 H   0  0  0  0  0  0  0  0  0  0  0  0
   -4.3778   16.2033  -33.1764 H   0  0  0  0  0  0  0  0  0  0  0  0
   -3.8325   16.8218  -34.7860 H   0  0  0  0  0  0  0  0  0  0  0  0
   -2.7201   17.3642  -32.1767 H   0  0  0  0  0  0  0  0  0  0  0  0
   -2.1829   17.9621  -33.8017 H   0  0  0  0  0  0  0  0  0  0  0  0
   -4.0290   19.2120  -31.8750 H   0  0  0  0  0  0  0  0  0  0  0  0
   -4.0760   19.6320  -33.4900 H   0  0  0  0  0  0  0  0  0  0  0  0
   -2.1739   20.3866  -31.4876 H   0  0  0  0  0  0  0  0  0  0  0  0
   -1.4103   19.7040  -32.9922 H   0  0  0  0  0  0  0  0  0  0  0  0
   -1.7838   22.2591  -32.8916 H   0  0  0  0  0  0  0  0  0  0  0  0
   -2.3440   21.3478  -34.3664 H   0  0  0  0  0  0  0  0  0  0  0  0
   -3.8553   23.1074  -32.7037 H   0  0  0  0  0  0  0  0  0  0  0  0
   -4.4066   22.1102  -34.1108 H   0  0  0  0  0  0  0  0  0  0  0  0
   -6.5896   19.4819  -32.9877 H   0  0  0  0  0  0  0  0  0  0  0  0
   -9.7053   18.8941  -31.7993 H   0  0  0  0  0  0  0  0  0  0  0  0
  -10.1042   19.8149  -33.2891 H   0  0  0  0  0  0  0  0  0  0  0  0
   -8.7300   18.6581  -33.2891 H   0  0  0  0  0  0  0  0  0  0  0  0
   -9.9351   21.6976  -31.3817 H   0  0  0  0  0  0  0  0  0  0  0  0
   -8.3920   23.4872  -30.6133 H   0  0  0  0  0  0  0  0  0  0  0  0
   -5.0538   23.9391  -31.7517 H   0  0  0  0  0  0  0  0  0  0  0  0
   -5.1847   23.3622  -28.8091 H   0  0  0  0  0  0  0  0  0  0  0  0
   -4.6225   22.0360  -29.8823 H   0  0  0  0  0  0  0  0  0  0  0  0
   -3.7666   23.6153  -29.8823 H   0  0  0  0  0  0  0  0  0  0  0  0
   -6.4941   24.8834  -29.3356 H   0  0  0  0  0  0  0  0  0  0  0  0
   -5.9990   25.7687  -30.8180 H   0  0  0  0  0  0  0  0  0  0  0  0
   -7.5041   24.7882  -30.8180 H   0  0  0  0  0  0  0  0  0  0  0  0
  1  2  1  0
  2  3  1  0
  3  4  1  0
  3  5  1  0
  5  6  1  0
  6  7  1  0
  7  8  1  0
  8  9  1  0
  9 10  1  0
 10 11  1  0
 11 12  1  0
 12 13  2  0
 13 14  1  0
 14 15  1  0
 14 16  2  0
 16 17  1  0
 17 18  2  0
 18 19  1  0
 19 20  1  0
 19 21  1  0
 18 12  1  0
  1 22  1  0
  1 23  1  0
  1 24  1  0
  2 25  1  0
  2 26  1  0
  4 27  1  0
  4 28  1  0
  4 29  1  0
  5 30  1  0
  5 31  1  0
  6 32  1  0
  6 33  1  0
  7 34  1  0
  7 35  1  0
  8 36  1  0
  8 37  1  0
  9 38  1  0
  9 39  1  0
 10 40  1  0
 10 41  1  0
 13 42  1  0
 15 43  1  0
 15 44  1  0
 15 45  1  0
 16 46  1  0
 17 47  1  0
 19 48  1  0
 20 49  1  0
 20 50  1  0
 20 51  1  0
 21 52  1  0
 21 53  1  0
 21 54  1  0
M  CHG  1   7   1
M  END
>  <UniqueID>  (25) 
25

>  <SMILES>  (25) 
CCN(C)CC[NH2+]CCCOc1cc(C)ccc1C(C)C

>  <Energy>  (25) 
45.23350522422144

>  <Genealogy>  (25) 
CCN(C)CC[NH2+]CCCOc1cc(C)ccc1C(C)C (protonated)
CCN(C)CC[NH2+]CCCOc1cc(C)ccc1C(C)C (3D coordinates assigned)
CCN(C)CC[NH2+]CCCOc1cc(C)ccc1C(C)C (optimized conformer: 45.23350522422144 kcal/mol)

>  <smiles>  (25) 
CCN(C)CCNCCCOc1cc(C)ccc1C(C)C

>  <score_type>  (25) 
oracle

>  <origin>  (25) 
adg

>  <m_score__min__energy>  (25) 
-6.8499999999999996

>  <m_primary>  (25) 
energy

$$$$
25:0
     RDKit          3D

 56 59  0  0  0  0  0  0  0  0999 V2000
   -2.1100   22.4740  -29.8000 C   0  0  0  0  0  0  0  0  0  0  0  0
   -2.8150   23.7980  -30.0830 C   0  0  0  0  0  0  0  0  0  0  0  0
   -4.2800   23.6060  -30.1880 N   0  0  0  0  0  0  0  0  0  0  0  0
   -4.7770   22.9380  -28.9710 C   0  0  0  0  0  0  0  0  0  0  0  0
   -4.9760   24.9000  -30.3970 C   0  0  0  0  0  0  0  0  0  0  0  0
   -6.5020   24.7200  -30.5030 C   0  0  0  0  0  0  0  0  0  0  0  0
   -6.9270   23.4100  -31.2020 C   0  0  0  0  0  0  0  0  0  0  0  0
   -6.0350   23.0070  -32.3130 N   0  0  0  0  0  0  0  0  0  0  0  0
   -5.9890   21.5640  -32.5160 C   0  0  0  0  0  0  0  0  0  0  0  0
   -7.1710   20.7680  -32.4650 C   0  0  0  0  0  0  0  0  0  0  0  0
   -8.4660   21.3320  -32.3490 C   0  0  0  0  0  0  0  0  0  0  0  0
   -9.6010   20.5270  -32.2690 C   0  0  0  0  0  0  0  0  0  0  0  0
   -9.4800   19.1460  -32.2980 C   0  0  0  0  0  0  0  0  0  0  0  0
   -8.2240   18.5590  -32.4130 C   0  0  0  0  0  0  0  0  0  0  0  0
   -7.0510   19.3490  -32.4970 C   0  0  0  0  0  0  0  0  0  0  0  0
   -5.8140   18.7580  -32.6050 N   0  0  0  0  0  0  0  0  0  0  0  0
   -5.6380   17.3830  -32.0870 C   0  0  0  0  0  0  0  0  0  0  0  0
   -4.7200   19.5080  -32.9790 C   0  0  0  0  0  0  0  0  0  0  0  0
   -4.7460   20.9130  -32.7690 C   0  0  0  0  0  0  0  0  0  0  0  0
   -3.5260   21.6270  -32.8180 C   0  0  0  0  0  0  0  0  0  0  0  0
   -2.3380   21.0010  -33.1680 C   0  0  0  0  0  0  0  0  0  0  0  0
   -2.3400   19.6730  -33.5860 C   0  0  0  0  0  0  0  0  0  0  0  0
   -1.1610   19.1000  -34.0890 C   0  0  0  0  0  0  0  0  0  0  0  0
   -1.1810   17.8180  -34.6370 C   0  0  0  0  0  0  0  0  0  0  0  0
   -2.3820   17.1160  -34.7180 C   0  0  0  0  0  0  0  0  0  0  0  0
   -3.5560   17.6700  -34.2030 C   0  0  0  0  0  0  0  0  0  0  0  0
   -3.5440   18.9250  -33.5540 C   0  0  0  0  0  0  0  0  0  0  0  0
   -2.0310   22.3257  -28.7129 H   0  0  0  0  0  0  0  0  0  0  0  0
   -2.6882   21.6490  -30.2416 H   0  0  0  0  0  0  0  0  0  0  0  0
   -1.1027   22.4932  -30.2416 H   0  0  0  0  0  0  0  0  0  0  0  0
   -2.6019   24.5014  -29.2646 H   0  0  0  0  0  0  0  0  0  0  0  0
   -2.4437   24.1961  -31.0389 H   0  0  0  0  0  0  0  0  0  0  0  0
   -4.3897   23.4586  -28.0828 H   0  0  0  0  0  0  0  0  0  0  0  0
   -5.8766   22.9647  -28.9612 H   0  0  0  0  0  0  0  0  0  0  0  0
   -4.4355   21.8924  -28.9612 H   0  0  0  0  0  0  0  0  0  0  0  0
   -4.7542   25.5643  -29.5488 H   0  0  0  0  0  0  0  0  0  0  0  0
   -4.6168   25.3317  -31.3428 H   0  0  0  0  0  0  0  0  0  0  0  0
   -6.9232   24.7236  -29.4869 H   0  0  0  0  0  0  0  0  0  0  0  0
   -6.8809   25.5494  -31.1182 H   0  0  0  0  0  0  0  0  0  0  0  0
   -6.9337   22.6042  -30.4533 H   0  0  0  0  0  0  0  0  0  0  0  0
   -7.9207   23.5885  -31.6386 H   0  0  0  0  0  0  0  0  0  0  0  0
   -6.3740   23.4510  -33.1970 H   0  0  0  0  0  0  0  0  0  0  0  0
   -5.0950   23.4410  -32.2100 H   0  0  0  0  0  0  0  0  0  0  0  0
   -8.5775   22.4260  -32.3216 H   0  0  0  0  0  0  0  0  0  0  0  0
  -10.5957   20.9886  -32.1826 H   0  0  0  0  0  0  0  0  0  0  0  0
  -10.3778   18.5141  -32.2300 H   0  0  0  0  0  0  0  0  0  0  0  0
   -8.1402   17.4625  -32.4392 H   0  0  0  0  0  0  0  0  0  0  0  0
   -5.6405   17.4024  -30.9872 H   0  0  0  0  0  0  0  0  0  0  0  0
   -6.4622   16.7482  -32.4444 H   0  0  0  0  0  0  0  0  0  0  0  0
   -4.6805   16.9763  -32.4444 H   0  0  0  0  0  0  0  0  0  0  0  0
   -3.5188   22.6995  -32.5739 H   0  0  0  0  0  0  0  0  0  0  0  0
   -1.3902   21.5567  -33.1149 H   0  0  0  0  0  0  0  0  0  0  0  0
   -0.2178   19.6647  -34.0506 H   0  0  0  0  0  0  0  0  0  0  0  0
   -0.2502   17.3615  -35.0048 H   0  0  0  0  0  0  0  0  0  0  0  0
   -2.4054   16.1223  -35.1891 H   0  0  0  0  0  0  0  0  0  0  0  0
   -4.5040   17.1212  -34.3041 H   0  0  0  0  0  0  0  0  0  0  0  0
  1  2  1  0
  2  3  1  0
  3  4  1  0
  3  5  1  0
  5  6  1  0
  6  7  1  0
  7  8  1  0
  8  9  1  0
  9 10  2  0
 10 11  1  0
 11 12  2  0
 12 13  1  0
 13 14  2  0
 14 15  1  0
 15 16  2  0
 16 17  1  0
 16 18  1  0
 18 19  2  0
 19 20  1  0
 20 21  2  0
 21 22  1  0
 22 23  2  0
 23 24  1  0
 24 25  2  0
 25 26  1  0
 26 27  2  0
 19  9  1  0
 27 22  1  0
 15 10  1  0
 27 18  1  0
  1 28  1  0
  1 29  1  0
  1 30  1  0
  2 31  1  0
  2 32  1  0
  4 33  1  0
  4 34  1  0
  4 35  1  0
  5 36  1  0
  5 37  1  0
  6 38  1  0
  6 39  1  0
  7 40  1  0
  7 41  1  0
  8 42  1  0
  8 43  1  0
 11 44  1  0
 12 45  1  0
 13 46  1  0
 14 47  1  0
 17 48  1  0
 17 49  1  0
 17 50  1  0
 20 51  1  0
 21 52  1  0
 23 53  1  0
 24 54  1  0
 25 55  1  0
 26 56  1  0
M  CHG  2   8   1  16   1
M  END
>  <UniqueID>  (26) 
26

>  <SMILES>  (26) 
CCN(C)CCC[NH2+]c1c2ccccc2[n+](C)c2c1ccc1ccccc12

>  <Energy>  (26) 
100.88433504943163

>  <Genealogy>  (26) 
CCN(C)CCC[NH2+]c1c2ccccc2[n+](C)c2c1ccc1ccccc12 (protonated)
CCN(C)CCC[NH2+]c1c2ccccc2[n+](C)c2c1ccc1ccccc12 (3D coordinates assigned)
CCN(C)CCC[NH2+]c1c2ccccc2[n+](C)c2c1ccc1ccccc12 (optimized conformer: 100.88433504943163 kcal/mol)

>  <smiles>  (26) 
CCN(C)CCCNc1c2ccccc2[n+](C)c2c1ccc1ccccc12

>  <score_type>  (26) 
oracle

>  <origin>  (26) 
adg

>  <m_score__min__energy>  (26) 
-8.8499999999999996

>  <m_primary>  (26) 
energy

$$$$
26:0
     RDKit          3D

 71 73  0  0  0  0  0  0  0  0999 V2000
   -2.3180   19.2410  -33.8810 C   0  0  0  0  0  0  0  0  0  0  0  0
   -2.0170   20.7350  -33.8440 C   0  0  0  0  0  0  0  0  0  0  0  0
   -2.1950   21.2530  -32.4840 N   0  0  0  0  0  0  0  0  0  0  0  0
   -2.6740   20.1910  -31.5900 C   0  0  0  0  0  0  0  0  0  0  0  0
   -4.1320   20.4760  -31.1790 C   0  0  0  0  0  0  0  0  0  0  0  0
   -4.5510   21.8710  -31.4860 N   0  0  1  0  0  0  0  0  0  0  0  0
   -5.4710   21.9720  -32.6670 C   0  0  0  0  0  0  0  0  0  0  0  0
   -6.9510   21.7150  -32.3830 C   0  0  0  0  0  0  0  0  0  0  0  0
   -7.7460   22.8110  -31.9900 C   0  0  0  0  0  0  0  0  0  0  0  0
   -9.1180   22.6660  -31.7780 C   0  0  0  0  0  0  0  0  0  0  0  0
   -9.7220   21.4230  -31.9530 C   0  0  0  0  0  0  0  0  0  0  0  0
   -8.9560   20.3210  -32.3300 C   0  0  0  0  0  0  0  0  0  0  0  0
   -7.5710   20.4440  -32.5380 C   0  0  0  0  0  0  0  0  0  0  0  0
   -6.8240   19.2240  -32.9010 C   0  0  0  0  0  0  0  0  0  0  0  0
   -6.1500   19.1370  -34.1280 C   0  0  0  0  0  0  0  0  0  0  0  0
   -5.4070   17.9960  -34.4440 C   0  0  0  0  0  0  0  0  0  0  0  0
   -5.2940   16.9440  -33.5210 C   0  0  0  0  0  0  0  0  0  0  0  0
   -4.4610   15.7350  -33.8550 C   0  0  0  0  0  0  0  0  0  0  0  0
   -3.8350   15.1890  -32.6320 N   0  0  0  0  0  0  0  0  0  0  0  0
   -2.3910   14.8930  -32.8240 C   0  0  0  0  0  0  0  0  0  0  0  0
   -2.1280   13.3980  -33.0650 C   0  0  0  0  0  0  0  0  0  0  0  0
   -2.5990   12.5650  -31.9430 N   0  0  0  0  0  0  0  0  0  0  0  0
   -3.7450   13.1430  -31.2140 C   0  0  0  0  0  0  0  0  0  0  0  0
   -4.6050   14.0310  -32.1200 C   0  0  0  0  0  0  0  0  0  0  0  0
   -5.9560   17.0390  -32.2870 C   0  0  0  0  0  0  0  0  0  0  0  0
   -6.7150   18.1710  -31.9800 C   0  0  0  0  0  0  0  0  0  0  0  0
   -5.1040   22.5720  -30.2850 C   0  0  0  0  0  0  0  0  0  0  0  0
   -4.5510   24.0110  -30.1190 C   0  0  0  0  0  0  0  0  0  0  0  0
   -5.6460   25.0660  -30.3420 C   0  0  0  0  0  0  0  0  0  0  0  0
   -3.9440   24.1880  -28.7240 C   0  0  0  0  0  0  0  0  0  0  0  0
   -2.3954   18.8570  -32.8531 H   0  0  0  0  0  0  0  0  0  0  0  0
   -3.2684   19.0714  -34.4083 H   0  0  0  0  0  0  0  0  0  0  0  0
   -1.5075   18.7166  -34.4083 H   0  0  0  0  0  0  0  0  0  0  0  0
   -0.9785   20.9046  -34.1646 H   0  0  0  0  0  0  0  0  0  0  0  0
   -2.7087   21.2577  -34.5210 H   0  0  0  0  0  0  0  0  0  0  0  0
   -1.2590   21.5650  -32.1340 H   0  0  0  0  0  0  0  0  0  0  0  0
   -2.6235   19.2237  -32.1114 H   0  0  0  0  0  0  0  0  0  0  0  0
   -2.0416   20.1593  -30.6905 H   0  0  0  0  0  0  0  0  0  0  0  0
   -4.7925   19.7826  -31.7201 H   0  0  0  0  0  0  0  0  0  0  0  0
   -4.2041   20.3385  -30.0900 H   0  0  0  0  0  0  0  0  0  0  0  0
   -3.6720   22.3610  -31.7780 H   0  0  0  0  0  0  0  0  0  0  0  0
   -5.3783   22.9870  -33.0809 H   0  0  0  0  0  0  0  0  0  0  0  0
   -5.1574   21.1758  -33.3582 H   0  0  0  0  0  0  0  0  0  0  0  0
   -7.2776   23.7961  -31.8482 H   0  0  0  0  0  0  0  0  0  0  0  0
   -9.7221   23.5331  -31.4728 H   0  0  0  0  0  0  0  0  0  0  0  0
  -10.8046   21.3109  -31.7935 H   0  0  0  0  0  0  0  0  0  0  0  0
   -9.4411   19.3432  -32.4664 H   0  0  0  0  0  0  0  0  0  0  0  0
   -6.2064   19.9699  -34.8443 H   0  0  0  0  0  0  0  0  0  0  0  0
   -4.9079   17.9218  -35.4215 H   0  0  0  0  0  0  0  0  0  0  0  0
   -5.1035   14.9657  -34.3082 H   0  0  0  0  0  0  0  0  0  0  0  0
   -3.6702   16.0294  -34.5607 H   0  0  0  0  0  0  0  0  0  0  0  0
   -2.0262   15.4607  -33.6927 H   0  0  0  0  0  0  0  0  0  0  0  0
   -1.8632   15.1830  -31.9035 H   0  0  0  0  0  0  0  0  0  0  0  0
   -2.6523   13.0886  -33.9812 H   0  0  0  0  0  0  0  0  0  0  0  0
   -1.0414   13.2558  -33.1602 H   0  0  0  0  0  0  0  0  0  0  0  0
   -1.8100   12.4430  -31.2640 H   0  0  0  0  0  0  0  0  0  0  0  0
   -4.3674   12.3249  -30.8224 H   0  0  0  0  0  0  0  0  0  0  0  0
   -3.3521   13.7660  -30.3970 H   0  0  0  0  0  0  0  0  0  0  0  0
   -4.9617   13.4337  -32.9720 H   0  0  0  0  0  0  0  0  0  0  0  0
   -5.4506   14.4122  -31.5287 H   0  0  0  0  0  0  0  0  0  0  0  0
   -5.8769   16.2186  -31.5585 H   0  0  0  0  0  0  0  0  0  0  0  0
   -7.2303   18.2372  -31.0104 H   0  0  0  0  0  0  0  0  0  0  0  0
   -6.1983   22.6255  -30.3827 H   0  0  0  0  0  0  0  0  0  0  0  0
   -4.8001   21.9970  -29.3979 H   0  0  0  0  0  0  0  0  0  0  0  0
   -3.7719   24.1569  -30.8817 H   0  0  0  0  0  0  0  0  0  0  0  0
   -6.0156   25.4221  -29.3691 H   0  0  0  0  0  0  0  0  0  0  0  0
   -5.2299   25.9123  -30.9083 H   0  0  0  0  0  0  0  0  0  0  0  0
   -6.4762   24.6187  -30.9083 H   0  0  0  0  0  0  0  0  0  0  0  0
   -4.7055   23.9659  -27.9619 H   0  0  0  0  0  0  0  0  0  0  0  0
   -3.0938   23.5004  -28.6041 H   0  0  0  0  0  0  0  0  0  0  0  0
   -3.5967   25.2248  -28.6041 H   0  0  0  0  0  0  0  0  0  0  0  0
  1  2  1  0
  2  3  1  0
  3  4  1  0
  4  5  1  0
  5  6  1  0
  6  7  1  0
  7  8  1  0
  8  9  2  0
  9 10  1  0
 10 11  2  0
 11 12  1  0
 12 13  2  0
 13 14  1  0
 14 15  2  0
 15 16  1  0
 16 17  2  0
 17 18  1  0
 18 19  1  0
 19 20  1  0
 20 21  1  0
 21 22  1  0
 22 23  1  0
 23 24  1  0
 17 25  1  0
 25 26  2  0
  6 27  1  0
 27 28  1  0
 28 29  1  0
 28 30  1  0
 13  8  1  0
 26 14  1  0
 24 19  1  0
  1 31  1  0
  1 32  1  0
  1 33  1  0
  2 34  1  0
  2 35  1  0
  3 36  1  0
  4 37  1  0
  4 38  1  0
  5 39  1  0
  5 40  1  0
  6 41  1  6
  7 42  1  0
  7 43  1  0
  9 44  1  0
 10 45  1  0
 11 46  1  0
 12 47  1  0
 15 48  1  0
 16 49  1  0
 18 50  1  0
 18 51  1  0
 20 52  1  0
 20 53  1  0
 21 54  1  0
 21 55  1  0
 22 56  1  0
 23 57  1  0
 23 58  1  0
 24 59  1  0
 24 60  1  0
 25 61  1  0
 26 62  1  0
 27 63  1  0
 27 64  1  0
 28 65  1  0
 29 66  1  0
 29 67  1  0
 29 68  1  0
 30 69  1  0
 30 70  1  0
 30 71  1  0
M  CHG  1   6   1
M  END
>  <UniqueID>  (27) 
27

>  <SMILES>  (27) 
CCNCC[N@@H+](Cc1ccccc1-c1ccc(CN2CCNCC2)cc1)CC(C)C

>  <Energy>  (27) 
90.42934213387751

>  <Genealogy>  (27) 
CCNCC[NH+](Cc1ccccc1-c1ccc(CN2CCNCC2)cc1)CC(C)C (protonated)
CCNCC[N@@H+](Cc1ccccc1-c1ccc(CN2CCNCC2)cc1)CC(C)C (chirality)
CCNCC[N@@H+](Cc1ccccc1-c1ccc(CN2CCNCC2)cc1)CC(C)C (3D coordinates assigned)
CCNCC[N@@H+](Cc1ccccc1-c1ccc(CN2CCNCC2)cc1)CC(C)C (nonaromatic ring conformer: 90.42934213387751 kcal/mol)

>  <smiles>  (27) 
CCNCCN(Cc1ccccc1-c1ccc(CN2CCNCC2)cc1)CC(C)C

>  <score_type>  (27) 
oracle

>  <origin>  (27) 
adg

>  <m_score__min__energy>  (27) 
-8.4900000000000002

>  <m_primary>  (27) 
energy

$$$$
27:0
     RDKit          3D

 36 39  0  0  0  0  0  0  0  0999 V2000
   -1.4250   25.6360  -27.6750 C   0  0  0  0  0  0  0  0  0  0  0  0
   -2.0250   25.6580  -28.9660 O   0  0  0  0  0  0  0  0  0  0  0  0
   -2.6190   24.5460  -29.5790 C   0  0  0  0  0  0  0  0  0  0  0  0
   -1.8390   23.3760  -29.7420 C   0  0  0  0  0  0  0  0  0  0  0  0
   -2.3740   22.2250  -30.3480 C   0  0  0  0  0  0  0  0  0  0  0  0
   -3.6960   22.2720  -30.7860 C   0  0  0  0  0  0  0  0  0  0  0  0
   -4.3950   21.2780  -31.3750 N   0  0  0  0  0  0  0  0  0  0  0  0
   -5.6220   21.8040  -31.5990 C   0  0  0  0  0  0  0  0  0  0  0  0
   -6.7460   21.1830  -32.1640 C   0  0  0  0  0  0  0  0  0  0  0  0
   -6.7020   19.7950  -32.6780 C   0  0  0  0  0  0  0  0  0  0  0  0
   -7.3060   18.7460  -31.9640 C   0  0  0  0  0  0  0  0  0  0  0  0
   -7.2420   17.4360  -32.4490 C   0  0  0  0  0  0  0  0  0  0  0  0
   -6.5700   17.1620  -33.6430 C   0  0  0  0  0  0  0  0  0  0  0  0
   -5.9550   18.1970  -34.3520 C   0  0  0  0  0  0  0  0  0  0  0  0
   -6.0150   19.5080  -33.8700 C   0  0  0  0  0  0  0  0  0  0  0  0
   -7.9100   21.9070  -32.2290 N   0  0  0  0  0  0  0  0  0  0  0  0
   -7.9930   23.2000  -31.7810 C   0  0  0  0  0  0  0  0  0  0  0  0
   -6.8740   23.8390  -31.2230 C   0  0  0  0  0  0  0  0  0  0  0  0
   -5.7000   23.1020  -31.1470 C   0  0  0  0  0  0  0  0  0  0  0  0
   -4.4610   23.4070  -30.6300 C   0  0  0  0  0  0  0  0  0  0  0  0
   -3.9620   24.5610  -30.0300 C   0  0  0  0  0  0  0  0  0  0  0  0
   -2.2102   25.6648  -26.9052 H   0  0  0  0  0  0  0  0  0  0  0  0
   -0.8335   24.7156  -27.5612 H   0  0  0  0  0  0  0  0  0  0  0  0
   -0.7677   26.5106  -27.5612 H   0  0  0  0  0  0  0  0  0  0  0  0
   -0.7973   23.3669  -29.3889 H   0  0  0  0  0  0  0  0  0  0  0  0
   -1.7675   21.3158  -30.4723 H   0  0  0  0  0  0  0  0  0  0  0  0
   -4.0590   20.3100  -31.5780 H   0  0  0  0  0  0  0  0  0  0  0  0
   -7.8309   18.9561  -31.0204 H   0  0  0  0  0  0  0  0  0  0  0  0
   -7.7217   16.6195  -31.8893 H   0  0  0  0  0  0  0  0  0  0  0  0
   -6.5251   16.1314  -34.0248 H   0  0  0  0  0  0  0  0  0  0  0  0
   -5.4232   17.9802  -35.2902 H   0  0  0  0  0  0  0  0  0  0  0  0
   -5.5221   20.3188  -34.4264 H   0  0  0  0  0  0  0  0  0  0  0  0
   -8.7650   21.4760  -32.6480 H   0  0  0  0  0  0  0  0  0  0  0  0
   -8.9465   23.7428  -31.8595 H   0  0  0  0  0  0  0  0  0  0  0  0
   -6.9254   24.8769  -30.8623 H   0  0  0  0  0  0  0  0  0  0  0  0
   -4.5908   25.4556  -29.9102 H   0  0  0  0  0  0  0  0  0  0  0  0
  1  2  1  0
  2  3  1  0
  3  4  2  0
  4  5  1  0
  5  6  2  0
  6  7  1  0
  7  8  1  0
  8  9  2  0
  9 10  1  0
 10 11  2  0
 11 12  1  0
 12 13  2  0
 13 14  1  0
 14 15  2  0
  9 16  1  0
 16 17  2  0
 17 18  1  0
 18 19  2  0
 19 20  1  0
 20 21  2  0
 21  3  1  0
 20  6  1  0
 19  8  1  0
 15 10  1  0
  1 22  1  0
  1 23  1  0
  1 24  1  0
  4 25  1  0
  5 26  1  0
  7 27  1  0
 11 28  1  0
 12 29  1  0
 13 30  1  0
 14 31  1  0
 15 32  1  0
 16 33  1  0
 17 34  1  0
 18 35  1  0
 21 36  1  0
M  CHG  1  16   1
M  END
>  <UniqueID>  (28) 
28

>  <SMILES>  (28) 
COc1ccc2[nH]c3c(-c4ccccc4)[nH+]ccc3c2c1

>  <Energy>  (28) 
86.87597839646855

>  <Genealogy>  (28) 
COc1ccc2[nH]c3c(-c4ccccc4)[nH+]ccc3c2c1 (protonated)
COc1ccc2[nH]c3c(-c4ccccc4)[nH+]ccc3c2c1 (3D coordinates assigned)
COc1ccc2[nH]c3c(-c4ccccc4)[nH+]ccc3c2c1 (optimized conformer: 86.87597839646855 kcal/mol)

>  <smiles>  (28) 
COc1ccc2[nH]c3c(-c4ccccc4)nccc3c2c1

>  <score_type>  (28) 
oracle

>  <origin>  (28) 
adg

>  <m_score__min__energy>  (28) 
-7.54

>  <m_primary>  (28) 
energy

$$$$
28:0
     RDKit          3D

 36 37  0  0  0  0  0  0  0  0999 V2000
   -9.5420   21.5400  -30.5110 C   0  0  0  0  0  0  0  0  0  0  0  0
   -8.6340   20.8750  -31.4950 C   0  0  0  0  0  0  0  0  0  0  0  0
   -9.0550   19.7550  -32.2140 C   0  0  0  0  0  0  0  0  0  0  0  0
   -8.2040   19.1630  -33.0930 N   0  0  0  0  0  0  0  0  0  0  0  0
   -6.9410   19.6370  -33.2960 C   0  0  0  0  0  0  0  0  0  0  0  0
   -6.0560   18.9590  -34.3070 C   0  0  0  0  0  0  0  0  0  0  0  0
   -6.5040   20.7590  -32.5480 C   0  0  0  0  0  0  0  0  0  0  0  0
   -5.1410   21.3290  -32.6510 C   0  0  0  0  0  0  0  0  0  0  0  0
   -4.2300   20.6850  -33.2380 O   0  0  0  0  0  0  0  0  0  0  0  0
   -4.8180   22.5730  -32.0040 N   0  0  0  0  0  0  0  0  0  0  0  0
   -3.4980   22.7490  -31.3900 C   0  0  0  0  0  0  0  0  0  0  0  0
   -3.4880   23.9820  -30.4690 C   0  0  0  0  0  0  0  0  0  0  0  0
   -4.7630   24.1300  -29.7350 N   0  0  0  0  0  0  0  0  0  0  0  0
   -4.9640   23.0450  -28.7580 C   0  0  0  0  0  0  0  0  0  0  0  0
   -5.9390   24.2910  -30.6290 C   0  0  0  0  0  0  0  0  0  0  0  0
   -5.7340   23.7160  -32.0440 C   0  0  0  0  0  0  0  0  0  0  0  0
   -7.3710   21.3370  -31.6740 N   0  0  0  0  0  0  0  0  0  0  0  0
   -9.2140   21.2998  -29.4889 H   0  0  0  0  0  0  0  0  0  0  0  0
   -9.5094   22.6294  -30.6600 H   0  0  0  0  0  0  0  0  0  0  0  0
  -10.5707   21.1802  -30.6600 H   0  0  0  0  0  0  0  0  0  0  0  0
  -10.0692   19.3541  -32.0701 H   0  0  0  0  0  0  0  0  0  0  0  0
   -8.5440   18.3290  -33.6230 H   0  0  0  0  0  0  0  0  0  0  0  0
   -5.2874   18.3701  -33.7851 H   0  0  0  0  0  0  0  0  0  0  0  0
   -6.6631   18.2927  -34.9374 H   0  0  0  0  0  0  0  0  0  0  0  0
   -5.5707   19.7186  -34.9374 H   0  0  0  0  0  0  0  0  0  0  0  0
   -3.2523   21.8545  -30.7989 H   0  0  0  0  0  0  0  0  0  0  0  0
   -2.7536   22.8957  -32.1864 H   0  0  0  0  0  0  0  0  0  0  0  0
   -2.6690   23.8768  -29.7422 H   0  0  0  0  0  0  0  0  0  0  0  0
   -3.3487   24.8754  -31.0955 H   0  0  0  0  0  0  0  0  0  0  0  0
   -4.8888   23.4511  -27.7385 H   0  0  0  0  0  0  0  0  0  0  0  0
   -5.9597   22.6007  -28.9032 H   0  0  0  0  0  0  0  0  0  0  0  0
   -4.1935   22.2735  -28.9032 H   0  0  0  0  0  0  0  0  0  0  0  0
   -6.7965   23.7786  -30.1683 H   0  0  0  0  0  0  0  0  0  0  0  0
   -6.1044   25.3722  -30.7457 H   0  0  0  0  0  0  0  0  0  0  0  0
   -6.7042   23.3889  -32.4462 H   0  0  0  0  0  0  0  0  0  0  0  0
   -5.3017   24.4969  -32.6869 H   0  0  0  0  0  0  0  0  0  0  0  0
  1  2  1  0
  2  3  2  0
  3  4  1  0
  4  5  2  0
  5  6  1  0
  5  7  1  0
  7  8  1  0
  8  9  2  0
  8 10  1  0
 10 11  1  0
 11 12  1  0
 12 13  1  0
 13 14  1  0
 13 15  1  0
 15 16  1  0
  7 17  2  0
 17  2  1  0
 16 10  1  0
  1 18  1  0
  1 19  1  0
  1 20  1  0
  3 21  1  0
  4 22  1  0
  6 23  1  0
  6 24  1  0
  6 25  1  0
 11 26  1  0
 11 27  1  0
 12 28  1  0
 12 29  1  0
 14 30  1  0
 14 31  1  0
 14 32  1  0
 15 33  1  0
 15 34  1  0
 16 35  1  0
 16 36  1  0
M  CHG  1   4   1
M  END
>  <UniqueID>  (29) 
29

>  <SMILES>  (29) 
Cc1c[nH+]c(C)c(C(=O)N2CCN(C)CC2)n1

>  <Energy>  (29) 
46.87978473785682

>  <Genealogy>  (29) 
Cc1c[nH+]c(C)c(C(=O)N2CCN(C)CC2)n1 (protonated)
Cc1c[nH+]c(C)c(C(=O)N2CCN(C)CC2)n1 (3D coordinates assigned)
Cc1c[nH+]c(C)c(C(=O)N2CCN(C)CC2)n1 (nonaromatic ring conformer: 46.87978473785682 kcal/mol)

>  <smiles>  (29) 
Cc1cnc(C)c(C(=O)N2CCN(C)CC2)n1

>  <score_type>  (29) 
oracle

>  <origin>  (29) 
adg

>  <m_score__min__energy>  (29) 
-5.5999999999999996

>  <m_primary>  (29) 
energy

$$$$
29:0
     RDKit          3D

 55 57  0  0  0  0  0  0  0  0999 V2000
   -9.4760   21.6410  -31.5720 C   0  0  0  0  0  0  0  0  0  0  0  0
   -8.3020   22.2830  -30.8190 C   0  0  0  0  0  0  0  0  0  0  0  0
   -7.1550   22.6640  -31.6830 N   0  0  0  0  0  0  0  0  0  0  0  0
   -6.7780   24.1000  -31.6110 C   0  0  0  0  0  0  0  0  0  0  0  0
   -6.5320   24.6360  -30.1900 C   0  0  0  0  0  0  0  0  0  0  0  0
   -5.8410   23.6520  -29.3520 N   0  0  0  0  0  0  0  0  0  0  0  0
   -4.1230   23.8820  -29.4650 S   0  0  0  0  0  0  0  0  0  0  0  0
   -3.4580   22.5620  -29.7340 O   0  0  0  0  0  0  0  0  0  0  0  0
   -3.8120   24.8210  -30.5970 O   0  0  0  0  0  0  0  0  0  0  0  0
   -3.4980   24.5430  -27.9650 C   0  0  0  0  0  0  0  0  0  0  0  0
   -2.1790   24.8370  -27.7120 C   0  0  0  0  0  0  0  0  0  0  0  0
   -2.1060   25.2770  -26.4460 N   0  0  0  0  0  0  0  0  0  0  0  0
   -0.9150   25.7570  -25.7590 C   0  0  0  0  0  0  0  0  0  0  0  0
   -3.3680   25.2600  -25.9710 C   0  0  0  0  0  0  0  0  0  0  0  0
   -4.2560   24.8000  -26.8800 N   0  0  0  0  0  0  0  0  0  0  0  0
   -6.1220   21.6140  -31.9470 C   0  0  2  0  0  0  0  0  0  0  0  0
   -4.7820   22.1800  -32.4680 C   0  0  0  0  0  0  0  0  0  0  0  0
   -3.7370   21.0720  -32.6190 C   0  0  0  0  0  0  0  0  0  0  0  0
   -4.2500   19.8660  -33.3710 C   0  0  0  0  0  0  0  0  0  0  0  0
   -5.6380   19.6250  -33.4870 C   0  0  0  0  0  0  0  0  0  0  0  0
   -6.0850   18.4750  -34.1540 C   0  0  0  0  0  0  0  0  0  0  0  0
   -5.1740   17.5520  -34.6630 C   0  0  0  0  0  0  0  0  0  0  0  0
   -3.8050   17.7650  -34.5200 C   0  0  0  0  0  0  0  0  0  0  0  0
   -3.3280   18.9190  -33.8690 C   0  0  0  0  0  0  0  0  0  0  0  0
   -1.9530   19.1510  -33.6950 O   0  0  0  0  0  0  0  0  0  0  0  0
   -1.1900   20.0940  -34.4400 C   0  0  0  0  0  0  0  0  0  0  0  0
   -6.6620   20.6220  -33.0030 C   0  0  0  0  0  0  0  0  0  0  0  0
  -10.2026   21.2437  -30.8480 H   0  0  0  0  0  0  0  0  0  0  0  0
   -9.9642   22.3977  -32.2037 H   0  0  0  0  0  0  0  0  0  0  0  0
   -9.1023   20.8217  -32.2037 H   0  0  0  0  0  0  0  0  0  0  0  0
   -8.6701   23.1894  -30.3160 H   0  0  0  0  0  0  0  0  0  0  0  0
   -7.9275   21.5249  -30.1154 H   0  0  0  0  0  0  0  0  0  0  0  0
   -5.8554   24.2404  -32.1934 H   0  0  0  0  0  0  0  0  0  0  0  0
   -7.6348   24.6636  -32.0087 H   0  0  0  0  0  0  0  0  0  0  0  0
   -5.9163   25.5453  -30.2535 H   0  0  0  0  0  0  0  0  0  0  0  0
   -7.5081   24.8523  -29.7312 H   0  0  0  0  0  0  0  0  0  0  0  0
   -6.0870   23.8380  -28.3550 H   0  0  0  0  0  0  0  0  0  0  0  0
   -1.3401   24.7314  -28.4157 H   0  0  0  0  0  0  0  0  0  0  0  0
   -1.0689   25.6950  -24.6716 H   0  0  0  0  0  0  0  0  0  0  0  0
   -0.0525   25.1363  -26.0433 H   0  0  0  0  0  0  0  0  0  0  0  0
   -0.7240   26.8023  -26.0433 H   0  0  0  0  0  0  0  0  0  0  0  0
   -3.6439   25.5844  -24.9568 H   0  0  0  0  0  0  0  0  0  0  0  0
   -5.9248   21.1259  -30.9812 H   0  0  0  0  0  0  0  0  0  0  0  0
   -4.9482   22.6528  -33.4472 H   0  0  0  0  0  0  0  0  0  0  0  0
   -4.4078   22.9163  -31.7415 H   0  0  0  0  0  0  0  0  0  0  0  0
   -2.8715   21.4798  -33.1617 H   0  0  0  0  0  0  0  0  0  0  0  0
   -3.4698   20.7355  -31.6064 H   0  0  0  0  0  0  0  0  0  0  0  0
   -7.1641   18.3004  -34.2763 H   0  0  0  0  0  0  0  0  0  0  0  0
   -5.5373   16.6515  -35.1798 H   0  0  0  0  0  0  0  0  0  0  0  0
   -3.0923   17.0276  -34.9179 H   0  0  0  0  0  0  0  0  0  0  0  0
   -0.6521   20.7588  -33.7482 H   0  0  0  0  0  0  0  0  0  0  0  0
   -0.4660   19.5610  -35.0738 H   0  0  0  0  0  0  0  0  0  0  0  0
   -1.8624   20.6909  -35.0738 H   0  0  0  0  0  0  0  0  0  0  0  0
   -7.0197   21.1988  -33.8687 H   0  0  0  0  0  0  0  0  0  0  0  0
   -7.4638   20.0456  -32.5183 H   0  0  0  0  0  0  0  0  0  0  0  0
  1  2  1  0
  2  3  1  0
  3  4  1  0
  4  5  1  0
  5  6  1  0
  6  7  1  0
  7  8  2  0
  7  9  2  0
  7 10  1  0
 10 11  2  0
 11 12  1  0
 12 13  1  0
 12 14  1  0
 14 15  2  0
  3 16  1  0
 16 17  1  0
 17 18  1  0
 18 19  1  0
 19 20  2  0
 20 21  1  0
 21 22  2  0
 22 23  1  0
 23 24  2  0
 24 25  1  0
 25 26  1  0
 20 27  1  0
 15 10  1  0
 27 16  1  0
 24 19  1  0
  1 28  1  0
  1 29  1  0
  1 30  1  0
  2 31  1  0
  2 32  1  0
  4 33  1  0
  4 34  1  0
  5 35  1  0
  5 36  1  0
  6 37  1  0
 11 38  1  0
 13 39  1  0
 13 40  1  0
 13 41  1  0
 14 42  1  0
 16 43  1  1
 17 44  1  0
 17 45  1  0
 18 46  1  0
 18 47  1  0
 21 48  1  0
 22 49  1  0
 23 50  1  0
 26 51  1  0
 26 52  1  0
 26 53  1  0
 27 54  1  0
 27 55  1  0
M  END
>  <UniqueID>  (30) 
30

>  <SMILES>  (30) 
CCN(CCNS(=O)(=O)c1cn(C)cn1)[C@@H]1CCc2c(cccc2OC)C1

>  <Energy>  (30) 
96.54685944381626

>  <Genealogy>  (30) 
CCN(CCNS(=O)(=O)c1cn(C)cn1)[C@@H]1CCc2c(cccc2OC)C1 (chirality)
CCN(CCNS(=O)(=O)c1cn(C)cn1)[C@@H]1CCc2c(cccc2OC)C1 (3D coordinates assigned)
CCN(CCNS(=O)(=O)c1cn(C)cn1)[C@@H]1CCc2c(cccc2OC)C1 (nonaromatic ring conformer: 96.54685944381626 kcal/mol)

>  <smiles>  (30) 
CCN(CCNS(=O)(=O)c1cn(C)cn1)C1CCc2c(cccc2OC)C1

>  <score_type>  (30) 
oracle

>  <origin>  (30) 
adg

>  <m_score__min__energy>  (30) 
-9.5800000000000001

>  <m_primary>  (30) 
energy

$$$$
30:0
     RDKit          3D

 39 40  0  0  0  0  0  0  0  0999 V2000
   -8.0650   21.4920  -31.7210 C   0  0  0  0  0  0  0  0  0  0  0  0
   -6.9060   22.3920  -31.4120 C   0  0  0  0  0  0  0  0  0  0  0  0
   -5.6020   22.0020  -31.7460 C   0  0  0  0  0  0  0  0  0  0  0  0
   -4.5050   22.8150  -31.4240 C   0  0  0  0  0  0  0  0  0  0  0  0
   -3.1200   22.3380  -31.7730 C   0  0  0  0  0  0  0  0  0  0  0  0
   -4.7260   24.0610  -30.7910 C   0  0  0  0  0  0  0  0  0  0  0  0
   -3.6360   24.9420  -30.4820 N   0  0  0  0  0  0  0  0  0  0  0  0
   -2.7850   24.7860  -29.3410 C   0  0  0  0  0  0  0  0  0  0  0  0
   -1.6310   25.2920  -29.3290 O   0  0  0  0  0  0  0  0  0  0  0  0
   -3.2650   24.0030  -28.1660 C   0  0  0  0  0  0  0  0  0  0  0  0
   -1.8370   23.2590  -27.3170 S   0  0  0  0  0  0  0  0  0  0  0  0
   -1.2950   24.8220  -26.6090 C   0  0  0  0  0  0  0  0  0  0  0  0
   -2.0440   25.3760  -25.5640 C   0  0  0  0  0  0  0  0  0  0  0  0
   -1.6430   26.5810  -24.9910 C   0  0  0  0  0  0  0  0  0  0  0  0
   -0.5040   27.2270  -25.4680 C   0  0  0  0  0  0  0  0  0  0  0  0
    0.2180   26.6540  -26.5170 C   0  0  0  0  0  0  0  0  0  0  0  0
   -0.1760   25.4730  -27.0700 N   0  0  0  0  0  0  0  0  0  0  0  0
    0.5920   24.9600  -28.0980 O   0  0  0  0  0  0  0  0  0  0  0  0
   -6.0320   24.4270  -30.4050 C   0  0  0  0  0  0  0  0  0  0  0  0
   -6.2780   25.7280  -29.6900 C   0  0  0  0  0  0  0  0  0  0  0  0
   -7.1110   23.5880  -30.7180 C   0  0  0  0  0  0  0  0  0  0  0  0
   -8.5172   21.1409  -30.7817 H   0  0  0  0  0  0  0  0  0  0  0  0
   -8.8149   22.0469  -32.3040 H   0  0  0  0  0  0  0  0  0  0  0  0
   -7.7131   20.6281  -32.3040 H   0  0  0  0  0  0  0  0  0  0  0  0
   -5.4367   21.0473  -32.2667 H   0  0  0  0  0  0  0  0  0  0  0  0
   -2.5555   22.1436  -30.8491 H   0  0  0  0  0  0  0  0  0  0  0  0
   -3.1889   21.4118  -32.3624 H   0  0  0  0  0  0  0  0  0  0  0  0
   -2.6039   23.1102  -32.3624 H   0  0  0  0  0  0  0  0  0  0  0  0
   -3.7984   24.6700  -27.4727 H   0  0  0  0  0  0  0  0  0  0  0  0
   -3.9473   23.2096  -28.5050 H   0  0  0  0  0  0  0  0  0  0  0  0
   -2.9448   24.8624  -25.1970 H   0  0  0  0  0  0  0  0  0  0  0  0
   -2.2228   27.0204  -24.1659 H   0  0  0  0  0  0  0  0  0  0  0  0
   -0.1771   28.1783  -25.0228 H   0  0  0  0  0  0  0  0  0  0  0  0
    1.1149   27.1619  -26.9011 H   0  0  0  0  0  0  0  0  0  0  0  0
    0.2740   24.9340  -29.0590 H   0  0  0  0  0  0  0  0  0  0  0  0
   -6.2464   25.5608  -28.6032 H   0  0  0  0  0  0  0  0  0  0  0  0
   -5.5012   26.4540  -29.9720 H   0  0  0  0  0  0  0  0  0  0  0  0
   -7.2662   26.1202  -29.9720 H   0  0  0  0  0  0  0  0  0  0  0  0
   -8.1289   23.8738  -30.4144 H   0  0  0  0  0  0  0  0  0  0  0  0
  1  2  1  0
  2  3  2  0
  3  4  1  0
  4  5  1  0
  4  6  2  0
  6  7  1  0
  7  8  1  0
  8  9  2  0
  8 10  1  0
 10 11  1  0
 11 12  1  0
 12 13  2  0
 13 14  1  0
 14 15  2  0
 15 16  1  0
 16 17  2  0
 17 18  1  0
  6 19  1  0
 19 20  1  0
 19 21  2  0
 21  2  1  0
 17 12  1  0
  1 22  1  0
  1 23  1  0
  1 24  1  0
  3 25  1  0
  5 26  1  0
  5 27  1  0
  5 28  1  0
 10 29  1  0
 10 30  1  0
 13 31  1  0
 14 32  1  0
 15 33  1  0
 16 34  1  0
 18 35  1  0
 20 36  1  0
 20 37  1  0
 20 38  1  0
 21 39  1  0
M  CHG  2   7  -1  17   1
M  END
>  <UniqueID>  (31) 
31

>  <SMILES>  (31) 
Cc1cc(C)c([N-]C(=O)CSc2cccc[n+]2O)c(C)c1

>  <Energy>  (31) 
41.002719113981186

>  <Genealogy>  (31) 
Cc1cc(C)c([N-]C(=O)CSc2cccc[n+]2O)c(C)c1 (protonated)
Cc1cc(C)c([N-]C(=O)CSc2cccc[n+]2O)c(C)c1 (3D coordinates assigned)
Cc1cc(C)c([N-]C(=O)CSc2cccc[n+]2O)c(C)c1 (optimized conformer: 41.002719113981186 kcal/mol)

>  <smiles>  (31) 
Cc1cc(C)c(NC(=O)CSc2cccc[n+]2[O-])c(C)c1

>  <score_type>  (31) 
oracle

>  <origin>  (31) 
adg

>  <m_score__min__energy>  (31) 
-9

>  <m_primary>  (31) 
energy

$$$$
31:0
     RDKit          3D

 47 49  0  0  0  0  0  0  0  0999 V2000
   -5.3750   25.9410  -31.2110 O   0  0  0  0  0  0  0  0  0  0  0  0
   -4.8210   24.8760  -30.8310 C   0  0  0  0  0  0  0  0  0  0  0  0
   -3.4790   24.9640  -30.3200 N   0  0  0  0  0  0  0  0  0  0  0  0
   -2.8820   24.2010  -29.2280 C   0  0  0  0  0  0  0  0  0  0  0  0
   -1.6680   23.4120  -29.7240 C   0  0  0  0  0  0  0  0  0  0  0  0
   -1.8430   21.6200  -29.3990 S   0  0  0  0  0  0  0  0  0  0  0  0
   -2.4620   21.2090  -31.0340 C   0  0  0  0  0  0  0  0  0  0  0  0
   -1.9120   21.8100  -32.1690 C   0  0  0  0  0  0  0  0  0  0  0  0
   -2.3860   21.4990  -33.4040 N   0  0  0  0  0  0  0  0  0  0  0  0
   -3.4020   20.6110  -33.5750 C   0  0  0  0  0  0  0  0  0  0  0  0
   -3.9980   19.9880  -32.4650 C   0  0  0  0  0  0  0  0  0  0  0  0
   -5.1100   19.0180  -32.6410 C   0  0  0  0  0  0  0  0  0  0  0  0
   -5.9400   18.6740  -31.5590 C   0  0  0  0  0  0  0  0  0  0  0  0
   -6.9790   17.7600  -31.7460 C   0  0  0  0  0  0  0  0  0  0  0  0
   -7.1850   17.2020  -32.9680 N   0  0  0  0  0  0  0  0  0  0  0  0
   -6.4010   17.5120  -34.0340 C   0  0  0  0  0  0  0  0  0  0  0  0
   -5.3520   18.4230  -33.8910 C   0  0  0  0  0  0  0  0  0  0  0  0
   -3.5160   20.3050  -31.1840 C   0  0  0  0  0  0  0  0  0  0  0  0
   -5.5770   23.5730  -31.0050 C   0  0  0  0  0  0  0  0  0  0  0  0
   -6.4340   23.2150  -29.7630 C   0  0  0  0  0  0  0  0  0  0  0  0
   -7.6820   22.3820  -30.1130 C   0  0  0  0  0  0  0  0  0  0  0  0
   -7.3920   21.3910  -31.2470 C   0  0  0  0  0  0  0  0  0  0  0  0
   -6.9610   22.1010  -32.5500 C   0  0  0  0  0  0  0  0  0  0  0  0
   -6.3780   23.5100  -32.3200 C   0  0  0  0  0  0  0  0  0  0  0  0
   -2.5638   24.8934  -28.4347 H   0  0  0  0  0  0  0  0  0  0  0  0
   -3.6296   23.4944  -28.8385 H   0  0  0  0  0  0  0  0  0  0  0  0
   -1.5601   23.5685  -30.8075 H   0  0  0  0  0  0  0  0  0  0  0  0
   -0.7813   23.7727  -29.1821 H   0  0  0  0  0  0  0  0  0  0  0  0
   -1.0932   22.5368  -32.0627 H   0  0  0  0  0  0  0  0  0  0  0  0
   -1.9620   21.9570  -34.2420 H   0  0  0  0  0  0  0  0  0  0  0  0
   -3.7597   20.3788  -34.5890 H   0  0  0  0  0  0  0  0  0  0  0  0
   -5.7713   19.1232  -30.5692 H   0  0  0  0  0  0  0  0  0  0  0  0
   -7.6320   17.4911  -30.9026 H   0  0  0  0  0  0  0  0  0  0  0  0
   -6.5929   17.0446  -35.0111 H   0  0  0  0  0  0  0  0  0  0  0  0
   -4.7174   18.6739  -34.7538 H   0  0  0  0  0  0  0  0  0  0  0  0
   -3.9701   19.8399  -30.2966 H   0  0  0  0  0  0  0  0  0  0  0  0
   -4.8106   22.7883  -31.0882 H   0  0  0  0  0  0  0  0  0  0  0  0
   -5.8124   22.6379  -29.0626 H   0  0  0  0  0  0  0  0  0  0  0  0
   -6.7824   24.1597  -29.3200 H   0  0  0  0  0  0  0  0  0  0  0  0
   -8.0007   21.8224  -29.2212 H   0  0  0  0  0  0  0  0  0  0  0  0
   -8.4745   23.0682  -30.4465 H   0  0  0  0  0  0  0  0  0  0  0  0
   -6.5845   20.7153  -30.9285 H   0  0  0  0  0  0  0  0  0  0  0  0
   -8.3195   20.8378  -31.4560 H   0  0  0  0  0  0  0  0  0  0  0  0
   -6.1965   21.4847  -33.0456 H   0  0  0  0  0  0  0  0  0  0  0  0
   -7.8642   22.2216  -33.1662 H   0  0  0  0  0  0  0  0  0  0  0  0
   -5.7126   23.7643  -33.1582 H   0  0  0  0  0  0  0  0  0  0  0  0
   -7.2109   24.2257  -32.2555 H   0  0  0  0  0  0  0  0  0  0  0  0
  1  2  2  0
  2  3  1  0
  3  4  1  0
  4  5  1  0
  5  6  1  0
  6  7  1  0
  7  8  2  0
  8  9  1  0
  9 10  2  0
 10 11  1  0
 11 12  1  0
 12 13  2  0
 13 14  1  0
 14 15  2  0
 15 16  1  0
 16 17  2  0
 11 18  2  0
  2 19  1  0
 19 20  1  0
 20 21  1  0
 21 22  1  0
 22 23  1  0
 23 24  1  0
 18  7  1  0
 24 19  1  0
 17 12  1  0
  4 25  1  0
  4 26  1  0
  5 27  1  0
  5 28  1  0
  8 29  1  0
  9 30  1  0
 10 31  1  0
 13 32  1  0
 14 33  1  0
 16 34  1  0
 17 35  1  0
 18 36  1  0
 19 37  1  0
 20 38  1  0
 20 39  1  0
 21 40  1  0
 21 41  1  0
 22 42  1  0
 22 43  1  0
 23 44  1  0
 23 45  1  0
 24 46  1  0
 24 47  1  0
M  CHG  2   3  -1   9   1
M  END
>  <UniqueID>  (32) 
32

>  <SMILES>  (32) 
O=C([N-]CCSc1c[nH+]cc(-c2ccncc2)c1)C1CCCCC1

>  <Energy>  (32) 
53.63589772850248

>  <Genealogy>  (32) 
O=C([N-]CCSc1c[nH+]cc(-c2ccncc2)c1)C1CCCCC1 (protonated)
O=C([N-]CCSc1c[nH+]cc(-c2ccncc2)c1)C1CCCCC1 (3D coordinates assigned)
O=C([N-]CCSc1c[nH+]cc(-c2ccncc2)c1)C1CCCCC1 (nonaromatic ring conformer: 53.63589772850248 kcal/mol)

>  <smiles>  (32) 
O=C(NCCSc1cncc(-c2ccncc2)c1)C1CCCCC1

>  <score_type>  (32) 
oracle

>  <origin>  (32) 
adg

>  <m_score__min__energy>  (32) 
-9.9499999999999993

>  <m_primary>  (32) 
energy

$$$$
32:0
     RDKit          3D

 53 55  0  0  0  0  0  0  0  0999 V2000
    1.6950   24.6770  -27.0230 C   0  0  0  0  0  0  0  0  0  0  0  0
    1.0260   24.4130  -28.2510 O   0  0  0  0  0  0  0  0  0  0  0  0
   -0.3670   24.3180  -28.3880 C   0  0  0  0  0  0  0  0  0  0  0  0
   -1.2560   24.9930  -27.5300 C   0  0  0  0  0  0  0  0  0  0  0  0
   -2.6370   24.8640  -27.7050 C   0  0  0  0  0  0  0  0  0  0  0  0
   -3.1500   24.0670  -28.7380 C   0  0  0  0  0  0  0  0  0  0  0  0
   -4.6390   23.9680  -28.9600 C   0  0  0  0  0  0  0  0  0  0  0  0
   -5.0850   24.7530  -30.2150 C   0  0  1  0  0  0  0  0  0  0  0  0
   -3.9760   25.5120  -30.7990 N   0  0  0  0  0  0  0  0  0  0  0  0
   -5.7210   23.8590  -31.2590 C   0  0  0  0  0  0  0  0  0  0  0  0
   -6.1880   24.3900  -32.3000 O   0  0  0  0  0  0  0  0  0  0  0  0
   -5.8160   22.4300  -31.0960 N   0  0  0  0  0  0  0  0  0  0  0  0
   -7.0330   21.7360  -31.5300 C   0  0  0  0  0  0  0  0  0  0  0  0
   -6.7080   20.8240  -32.7120 C   0  0  0  0  0  0  0  0  0  0  0  0
   -5.4740   20.0600  -32.4670 N   0  0  0  0  0  0  0  0  0  0  0  0
   -5.1340   18.9870  -33.3600 C   0  0  0  0  0  0  0  0  0  0  0  0
   -6.1180   18.0380  -33.6780 C   0  0  0  0  0  0  0  0  0  0  0  0
   -5.8520   17.0110  -34.5840 C   0  0  0  0  0  0  0  0  0  0  0  0
   -4.5980   16.9240  -35.1880 C   0  0  0  0  0  0  0  0  0  0  0  0
   -3.6020   17.8530  -34.8740 C   0  0  0  0  0  0  0  0  0  0  0  0
   -3.8400   18.8780  -33.9370 C   0  0  0  0  0  0  0  0  0  0  0  0
   -2.7320   19.8660  -33.6360 C   0  0  0  0  0  0  0  0  0  0  0  0
   -2.1750   19.6380  -32.3910 F   0  0  0  0  0  0  0  0  0  0  0  0
   -3.2400   21.1490  -33.6800 F   0  0  0  0  0  0  0  0  0  0  0  0
   -1.7200   19.7650  -34.5710 F   0  0  0  0  0  0  0  0  0  0  0  0
   -4.7830   20.1680  -31.1770 C   0  0  0  0  0  0  0  0  0  0  0  0
   -4.6170   21.6410  -30.7770 C   0  0  0  0  0  0  0  0  0  0  0  0
   -2.2630   23.3990  -29.5970 C   0  0  0  0  0  0  0  0  0  0  0  0
   -0.8820   23.5210  -29.4160 C   0  0  0  0  0  0  0  0  0  0  0  0
    1.0349   24.4165  -26.1825 H   0  0  0  0  0  0  0  0  0  0  0  0
    2.6133   24.0738  -26.9687 H   0  0  0  0  0  0  0  0  0  0  0  0
    1.9539   25.7447  -26.9687 H   0  0  0  0  0  0  0  0  0  0  0  0
   -0.8627   25.6239  -26.7193 H   0  0  0  0  0  0  0  0  0  0  0  0
   -3.3254   25.3911  -27.0280 H   0  0  0  0  0  0  0  0  0  0  0  0
   -4.9107   22.9096  -29.0867 H   0  0  0  0  0  0  0  0  0  0  0  0
   -5.1451   24.4038  -28.0859 H   0  0  0  0  0  0  0  0  0  0  0  0
   -5.8523   25.4647  -29.8762 H   0  0  0  0  0  0  0  0  0  0  0  0
   -3.8670   26.4280  -30.3070 H   0  0  0  0  0  0  0  0  0  0  0  0
   -4.2200   25.7400  -31.7910 H   0  0  0  0  0  0  0  0  0  0  0  0
   -7.4265   21.1323  -30.6989 H   0  0  0  0  0  0  0  0  0  0  0  0
   -7.7868   22.4764  -31.8358 H   0  0  0  0  0  0  0  0  0  0  0  0
   -7.5411   20.1220  -32.8641 H   0  0  0  0  0  0  0  0  0  0  0  0
   -6.5612   21.4485  -33.6056 H   0  0  0  0  0  0  0  0  0  0  0  0
   -7.1101   18.1048  -33.2076 H   0  0  0  0  0  0  0  0  0  0  0  0
   -6.6303   16.2709  -34.8216 H   0  0  0  0  0  0  0  0  0  0  0  0
   -4.3923   16.1227  -35.9130 H   0  0  0  0  0  0  0  0  0  0  0  0
   -2.6200   17.7830  -35.3646 H   0  0  0  0  0  0  0  0  0  0  0  0
   -5.3713   19.6479  -30.4067 H   0  0  0  0  0  0  0  0  0  0  0  0
   -3.7871   19.7098  -31.2677 H   0  0  0  0  0  0  0  0  0  0  0  0
   -4.4308   21.6975  -29.6943 H   0  0  0  0  0  0  0  0  0  0  0  0
   -3.7718   22.0572  -31.3448 H   0  0  0  0  0  0  0  0  0  0  0  0
   -2.6558   22.7775  -30.4152 H   0  0  0  0  0  0  0  0  0  0  0  0
   -0.1946   22.9858  -30.0876 H   0  0  0  0  0  0  0  0  0  0  0  0
  1  2  1  0
  2  3  1  0
  3  4  2  0
  4  5  1  0
  5  6  2  0
  6  7  1  0
  7  8  1  0
  8  9  1  0
  8 10  1  0
 10 11  2  0
 10 12  1  0
 12 13  1  0
 13 14  1  0
 14 15  1  0
 15 16  1  0
 16 17  2  0
 17 18  1  0
 18 19  2  0
 19 20  1  0
 20 21  2  0
 21 22  1  0
 22 23  1  0
 22 24  1  0
 22 25  1  0
 15 26  1  0
 26 27  1  0
  6 28  1  0
 28 29  2  0
 29  3  1  0
 27 12  1  0
 21 16  1  0
  1 30  1  0
  1 31  1  0
  1 32  1  0
  4 33  1  0
  5 34  1  0
  7 35  1  0
  7 36  1  0
  8 37  1  1
  9 38  1  0
  9 39  1  0
 13 40  1  0
 13 41  1  0
 14 42  1  0
 14 43  1  0
 17 44  1  0
 18 45  1  0
 19 46  1  0
 20 47  1  0
 26 48  1  0
 26 49  1  0
 27 50  1  0
 27 51  1  0
 28 52  1  0
 29 53  1  0
M  END
>  <UniqueID>  (33) 
33

>  <SMILES>  (33) 
COc1ccc(C[C@@H](N)C(=O)N2CCN(c3ccccc3C(F)(F)F)CC2)cc1

>  <Energy>  (33) 
62.22174998032285

>  <Genealogy>  (33) 
COc1ccc(C[C@@H](N)C(=O)N2CCN(c3ccccc3C(F)(F)F)CC2)cc1 (chirality)
COc1ccc(C[C@@H](N)C(=O)N2CCN(c3ccccc3C(F)(F)F)CC2)cc1 (3D coordinates assigned)
COc1ccc(C[C@@H](N)C(=O)N2CCN(c3ccccc3C(F)(F)F)CC2)cc1 (nonaromatic ring conformer: 62.22174998032285 kcal/mol)

>  <smiles>  (33) 
COc1ccc(CC(N)C(=O)N2CCN(c3ccccc3C(F)(F)F)CC2)cc1

>  <score_type>  (33) 
oracle

>  <origin>  (33) 
adg

>  <m_score__min__energy>  (33) 
-8.5199999999999996

>  <m_primary>  (33) 
energy

$$$$
33:0
     RDKit          3D

 40 41  0  0  0  0  0  0  0  0999 V2000
   -8.5620   21.0410  -31.9460 C   0  0  0  0  0  0  0  0  0  0  0  0
   -8.5110   22.5610  -31.8300 C   0  0  0  0  0  0  0  0  0  0  0  0
   -7.2810   23.0850  -32.4260 N   0  0  0  0  0  0  0  0  0  0  0  0
   -6.1550   23.5890  -31.6790 C   0  0  0  0  0  0  0  0  0  0  0  0
   -6.2450   24.7420  -30.8770 C   0  0  0  0  0  0  0  0  0  0  0  0
   -5.1330   25.1990  -30.1640 C   0  0  0  0  0  0  0  0  0  0  0  0
   -3.9070   24.5120  -30.2400 C   0  0  0  0  0  0  0  0  0  0  0  0
   -2.7560   24.9230  -29.5480 O   0  0  0  0  0  0  0  0  0  0  0  0
   -2.4930   24.7180  -28.1560 C   0  0  1  0  0  0  0  0  0  0  0  0
   -2.9880   23.3130  -27.7460 C   0  0  0  0  0  0  0  0  0  0  0  0
   -1.8470   22.3020  -27.5080 C   0  0  0  0  0  0  0  0  0  0  0  0
   -0.7560   22.4220  -28.5010 N   0  0  1  0  0  0  0  0  0  0  0  0
   -1.1790   21.9240  -29.8250 C   0  0  0  0  0  0  0  0  0  0  0  0
   -0.1700   23.7930  -28.5880 C   0  0  0  0  0  0  0  0  0  0  0  0
   -0.9930   24.8780  -27.8680 C   0  0  0  0  0  0  0  0  0  0  0  0
   -3.8220   23.3590  -31.0290 C   0  0  0  0  0  0  0  0  0  0  0  0
   -4.9330   22.9010  -31.7410 C   0  0  0  0  0  0  0  0  0  0  0  0
   -8.5769   20.5968  -30.9398 H   0  0  0  0  0  0  0  0  0  0  0  0
   -9.4706   20.7451  -32.4909 H   0  0  0  0  0  0  0  0  0  0  0  0
   -7.6753   20.6849  -32.4909 H   0  0  0  0  0  0  0  0  0  0  0  0
   -9.3775   22.9922  -32.3527 H   0  0  0  0  0  0  0  0  0  0  0  0
   -8.5322   22.8350  -30.7649 H   0  0  0  0  0  0  0  0  0  0  0  0
   -7.2210   23.0800  -33.4700 H   0  0  0  0  0  0  0  0  0  0  0  0
   -7.1978   25.2877  -30.8108 H   0  0  0  0  0  0  0  0  0  0  0  0
   -5.2166   26.1009  -29.5398 H   0  0  0  0  0  0  0  0  0  0  0  0
   -3.0316   25.4724  -27.5638 H   0  0  0  0  0  0  0  0  0  0  0  0
   -3.6353   22.9250  -28.5462 H   0  0  0  0  0  0  0  0  0  0  0  0
   -3.5242   23.4252  -26.7921 H   0  0  0  0  0  0  0  0  0  0  0  0
   -2.2619   21.2848  -27.5634 H   0  0  0  0  0  0  0  0  0  0  0  0
   -1.4177   22.5151  -26.5179 H   0  0  0  0  0  0  0  0  0  0  0  0
    0.0060   21.7750  -28.1820 H   0  0  0  0  0  0  0  0  0  0  0  0
   -1.8861   21.0915  -29.6948 H   0  0  0  0  0  0  0  0  0  0  0  0
   -1.6676   22.7362  -30.3833 H   0  0  0  0  0  0  0  0  0  0  0  0
   -0.2985   21.5733  -30.3833 H   0  0  0  0  0  0  0  0  0  0  0  0
   -0.0912   24.0678  -29.6502 H   0  0  0  0  0  0  0  0  0  0  0  0
    0.8074   23.7516  -28.0850 H   0  0  0  0  0  0  0  0  0  0  0  0
   -0.6642   25.8683  -28.2162 H   0  0  0  0  0  0  0  0  0  0  0  0
   -0.8329   24.7757  -26.7845 H   0  0  0  0  0  0  0  0  0  0  0  0
   -2.8715   22.8085  -31.0889 H   0  0  0  0  0  0  0  0  0  0  0  0
   -4.8496   21.9928  -32.3560 H   0  0  0  0  0  0  0  0  0  0  0  0
  1  2  1  0
  2  3  1  0
  3  4  1  0
  4  5  2  0
  5  6  1  0
  6  7  2  0
  7  8  1  0
  8  9  1  0
  9 10  1  0
 10 11  1  0
 11 12  1  0
 12 13  1  0
 12 14  1  0
 14 15  1  0
  7 16  1  0
 16 17  2  0
 17  4  1  0
 15  9  1  0
  1 18  1  0
  1 19  1  0
  1 20  1  0
  2 21  1  0
  2 22  1  0
  3 23  1  0
  5 24  1  0
  6 25  1  0
  9 26  1  1
 10 27  1  0
 10 28  1  0
 11 29  1  0
 11 30  1  0
 12 31  1  1
 13 32  1  0
 13 33  1  0
 13 34  1  0
 14 35  1  0
 14 36  1  0
 15 37  1  0
 15 38  1  0
 16 39  1  0
 17 40  1  0
M  CHG  1  12   1
M  END
>  <UniqueID>  (34) 
34

>  <SMILES>  (34) 
CCNc1ccc(OC2CC[NH+](C)CC2)cc1

>  <Energy>  (34) 
45.32710480764111

>  <Genealogy>  (34) 
CCNc1ccc(OC2CC[NH+](C)CC2)cc1 (protonated)
CCNc1ccc(OC2CC[NH+](C)CC2)cc1 (3D coordinates assigned)
CCNc1ccc(OC2CC[NH+](C)CC2)cc1 (nonaromatic ring conformer: 45.32710480764111 kcal/mol)

>  <smiles>  (34) 
CCNc1ccc(OC2CCN(C)CC2)cc1

>  <score_type>  (34) 
oracle

>  <origin>  (34) 
adg

>  <m_score__min__energy>  (34) 
-5.9900000000000002

>  <m_primary>  (34) 
energy

$$$$
34:0
     RDKit          3D

 50 52  0  0  0  0  0  0  0  0999 V2000
   -1.6670   21.4060  -28.4920 C   0  0  0  0  0  0  0  0  0  0  0  0
   -3.1500   21.3350  -28.8320 C   0  0  0  0  0  0  0  0  0  0  0  0
   -3.4650   22.2450  -29.9350 N   0  0  0  0  0  0  0  0  0  0  0  0
   -3.3420   21.8100  -31.2920 C   0  0  0  0  0  0  0  0  0  0  0  0
   -2.2370   21.1980  -31.8400 C   0  0  0  0  0  0  0  0  0  0  0  0
   -2.5530   21.0420  -33.1760 C   0  0  0  0  0  0  0  0  0  0  0  0
   -1.6870   20.3870  -34.1990 C   0  0  0  0  0  0  0  0  0  0  0  0
   -3.7490   21.5290  -33.4300 O   0  0  0  0  0  0  0  0  0  0  0  0
   -4.2520   22.0060  -32.3140 C   0  0  0  0  0  0  0  0  0  0  0  0
   -5.6120   22.6320  -32.2130 C   0  0  0  0  0  0  0  0  0  0  0  0
   -6.5000   21.8350  -31.4520 O   0  0  0  0  0  0  0  0  0  0  0  0
   -7.5290   21.2770  -32.2530 C   0  0  0  0  0  0  0  0  0  0  0  0
   -7.1410   19.8940  -32.7040 C   0  0  0  0  0  0  0  0  0  0  0  0
   -6.3120   19.7280  -33.8240 C   0  0  0  0  0  0  0  0  0  0  0  0
   -5.9760   18.4450  -34.2680 C   0  0  0  0  0  0  0  0  0  0  0  0
   -6.4650   17.3210  -33.5960 C   0  0  0  0  0  0  0  0  0  0  0  0
   -7.2810   17.4790  -32.4730 C   0  0  0  0  0  0  0  0  0  0  0  0
   -7.6140   18.7590  -32.0230 C   0  0  0  0  0  0  0  0  0  0  0  0
   -4.0910   23.8330  -29.6260 S   0  0  0  0  0  0  0  0  0  0  0  0
   -3.9390   24.7000  -30.8450 O   0  0  0  0  0  0  0  0  0  0  0  0
   -5.5550   23.7430  -29.2960 O   0  0  0  0  0  0  0  0  0  0  0  0
   -3.2090   24.5380  -28.2790 C   0  0  0  0  0  0  0  0  0  0  0  0
   -1.8500   24.8490  -28.4170 C   0  0  0  0  0  0  0  0  0  0  0  0
   -1.1320   25.3610  -27.3330 C   0  0  0  0  0  0  0  0  0  0  0  0
   -1.7670   25.5580  -26.1020 C   0  0  0  0  0  0  0  0  0  0  0  0
   -0.8660   26.1950  -24.7390 Cl  0  0  0  0  0  0  0  0  0  0  0  0
   -3.1220   25.2400  -25.9570 C   0  0  0  0  0  0  0  0  0  0  0  0
   -3.8410   24.7280  -27.0430 C   0  0  0  0  0  0  0  0  0  0  0  0
   -1.5412   21.4120  -27.3992 H   0  0  0  0  0  0  0  0  0  0  0  0
   -1.1514   20.5315  -28.9156 H   0  0  0  0  0  0  0  0  0  0  0  0
   -1.2373   22.3257  -28.9156 H   0  0  0  0  0  0  0  0  0  0  0  0
   -3.4055   20.3064  -29.1265 H   0  0  0  0  0  0  0  0  0  0  0  0
   -3.7334   21.6309  -27.9476 H   0  0  0  0  0  0  0  0  0  0  0  0
   -1.3099   20.8999  -31.3285 H   0  0  0  0  0  0  0  0  0  0  0  0
   -0.9069   19.7970  -33.6956 H   0  0  0  0  0  0  0  0  0  0  0  0
   -2.2995   19.7242  -34.8279 H   0  0  0  0  0  0  0  0  0  0  0  0
   -1.2160   21.1568  -34.8279 H   0  0  0  0  0  0  0  0  0  0  0  0
   -5.5163   23.6169  -31.7327 H   0  0  0  0  0  0  0  0  0  0  0  0
   -6.0220   22.7272  -33.2293 H   0  0  0  0  0  0  0  0  0  0  0  0
   -8.4574   21.2211  -31.6657 H   0  0  0  0  0  0  0  0  0  0  0  0
   -7.6829   21.9139  -33.1365 H   0  0  0  0  0  0  0  0  0  0  0  0
   -5.9250   20.6103  -34.3548 H   0  0  0  0  0  0  0  0  0  0  0  0
   -5.3263   18.3203  -35.1468 H   0  0  0  0  0  0  0  0  0  0  0  0
   -6.2074   16.3123  -33.9513 H   0  0  0  0  0  0  0  0  0  0  0  0
   -7.6619   16.5940  -31.9422 H   0  0  0  0  0  0  0  0  0  0  0  0
   -8.2486   18.8790  -31.1326 H   0  0  0  0  0  0  0  0  0  0  0  0
   -1.3464   24.6896  -29.3819 H   0  0  0  0  0  0  0  0  0  0  0  0
   -0.0666   25.6094  -27.4477 H   0  0  0  0  0  0  0  0  0  0  0  0
   -3.6221   25.3925  -24.9892 H   0  0  0  0  0  0  0  0  0  0  0  0
   -4.9049   24.4741  -26.9260 H   0  0  0  0  0  0  0  0  0  0  0  0
  1  2  1  0
  2  3  1  0
  3  4  1  0
  4  5  1  0
  5  6  2  0
  6  7  1  0
  6  8  1  0
  8  9  1  0
  9 10  1  0
 10 11  1  0
 11 12  1  0
 12 13  1  0
 13 14  2  0
 14 15  1  0
 15 16  2  0
 16 17  1  0
 17 18  2  0
  3 19  1  0
 19 20  2  0
 19 21  2  0
 19 22  1  0
 22 23  2  0
 23 24  1  0
 24 25  2  0
 25 26  1  0
 25 27  1  0
 27 28  2  0
  9  4  2  0
 18 13  1  0
 28 22  1  0
  1 29  1  0
  1 30  1  0
  1 31  1  0
  2 32  1  0
  2 33  1  0
  5 34  1  0
  7 35  1  0
  7 36  1  0
  7 37  1  0
 10 38  1  0
 10 39  1  0
 12 40  1  0
 12 41  1  0
 14 42  1  0
 15 43  1  0
 16 44  1  0
 17 45  1  0
 18 46  1  0
 23 47  1  0
 24 48  1  0
 27 49  1  0
 28 50  1  0
M  END
>  <UniqueID>  (35) 
35

>  <SMILES>  (35) 
CCN(c1cc(C)oc1COCc1ccccc1)S(=O)(=O)c1ccc(Cl)cc1

>  <Energy>  (35) 
78.48681157951695

>  <Genealogy>  (35) 
CCN(c1cc(C)oc1COCc1ccccc1)S(=O)(=O)c1ccc(Cl)cc1 (3D coordinates assigned)
CCN(c1cc(C)oc1COCc1ccccc1)S(=O)(=O)c1ccc(Cl)cc1 (optimized conformer: 78.48681157951695 kcal/mol)

>  <smiles>  (35) 
CCN(c1cc(C)oc1COCc1ccccc1)S(=O)(=O)c1ccc(Cl)cc1

>  <score_type>  (35) 
oracle

>  <origin>  (35) 
adg

>  <m_score__min__energy>  (35) 
-9.2799999999999994

>  <m_primary>  (35) 
energy

$$$$
35:0
     RDKit          3D

 50 52  0  0  0  0  0  0  0  0999 V2000
   -2.5550   25.3380  -26.2610 C   0  0  0  0  0  0  0  0  0  0  0  0
   -4.0240   24.9380  -26.3600 C   0  0  0  0  0  0  0  0  0  0  0  0
   -4.2090   23.9230  -27.4220 N   0  0  0  0  0  0  0  0  0  0  0  0
   -2.9250   23.2700  -27.7680 C   0  0  0  0  0  0  0  0  0  0  0  0
   -3.1110   21.7580  -27.8720 C   0  0  0  0  0  0  0  0  0  0  0  0
   -4.8510   24.5130  -28.6200 C   0  0  0  0  0  0  0  0  0  0  0  0
   -3.8800   24.4960  -29.8010 C   0  0  0  0  0  0  0  0  0  0  0  0
   -4.5780   24.8530  -30.9750 O   0  0  0  0  0  0  0  0  0  0  0  0
   -5.8180   24.1780  -31.0150 C   0  0  0  0  0  0  0  0  0  0  0  0
   -6.0140   23.5460  -32.4040 C   0  0  0  0  0  0  0  0  0  0  0  0
   -5.8670   22.0810  -32.3660 N   0  0  0  0  0  0  0  0  0  0  0  0
   -7.0230   21.2250  -32.1880 C   0  0  0  0  0  0  0  0  0  0  0  0
   -8.0750   21.5830  -31.3240 C   0  0  0  0  0  0  0  0  0  0  0  0
   -9.0970   20.6730  -31.0400 C   0  0  0  0  0  0  0  0  0  0  0  0
   -9.0770   19.3960  -31.6050 C   0  0  0  0  0  0  0  0  0  0  0  0
   -8.0510   19.0350  -32.4800 C   0  0  0  0  0  0  0  0  0  0  0  0
   -7.0400   19.9510  -32.7880 C   0  0  0  0  0  0  0  0  0  0  0  0
   -5.8310   19.5520  -34.0490 S   0  0  0  0  0  0  0  0  0  0  0  0
   -4.4560   20.1930  -33.0950 C   0  0  0  0  0  0  0  0  0  0  0  0
   -3.2520   19.4830  -33.0490 C   0  0  0  0  0  0  0  0  0  0  0  0
   -2.1360   20.0420  -32.4230 C   0  0  0  0  0  0  0  0  0  0  0  0
   -2.2210   21.3090  -31.8430 C   0  0  0  0  0  0  0  0  0  0  0  0
   -3.4290   22.0110  -31.8630 C   0  0  0  0  0  0  0  0  0  0  0  0
   -4.5670   21.4550  -32.4770 C   0  0  0  0  0  0  0  0  0  0  0  0
   -2.2669   25.4164  -25.2023 H   0  0  0  0  0  0  0  0  0  0  0  0
   -1.9335   24.5764  -26.7547 H   0  0  0  0  0  0  0  0  0  0  0  0
   -2.4055   26.3096  -26.7547 H   0  0  0  0  0  0  0  0  0  0  0  0
   -4.3520   24.5197  -25.3970 H   0  0  0  0  0  0  0  0  0  0  0  0
   -4.6216   25.8278  -26.6071 H   0  0  0  0  0  0  0  0  0  0  0  0
   -2.5684   23.6591  -28.7331 H   0  0  0  0  0  0  0  0  0  0  0  0
   -2.1892   23.4868  -26.9795 H   0  0  0  0  0  0  0  0  0  0  0  0
   -3.1643   21.3248  -26.8623 H   0  0  0  0  0  0  0  0  0  0  0  0
   -4.0428   21.5396  -28.4143 H   0  0  0  0  0  0  0  0  0  0  0  0
   -2.2599   21.3203  -28.4143 H   0  0  0  0  0  0  0  0  0  0  0  0
   -5.7466   23.9286  -28.8774 H   0  0  0  0  0  0  0  0  0  0  0  0
   -5.1321   25.5537  -28.4011 H   0  0  0  0  0  0  0  0  0  0  0  0
   -3.0681   25.2160  -29.6213 H   0  0  0  0  0  0  0  0  0  0  0  0
   -3.4512   23.4895  -29.9151 H   0  0  0  0  0  0  0  0  0  0  0  0
   -5.8309   23.3893  -30.2483 H   0  0  0  0  0  0  0  0  0  0  0  0
   -6.6308   24.8930  -30.8197 H   0  0  0  0  0  0  0  0  0  0  0  0
   -7.0222   23.7930  -32.7681 H   0  0  0  0  0  0  0  0  0  0  0  0
   -5.2407   23.9491  -33.0744 H   0  0  0  0  0  0  0  0  0  0  0  0
   -8.0928   22.5847  -30.8698 H   0  0  0  0  0  0  0  0  0  0  0  0
   -9.9194   20.9634  -30.3696 H   0  0  0  0  0  0  0  0  0  0  0  0
   -9.8702   18.6742  -31.3604 H   0  0  0  0  0  0  0  0  0  0  0  0
   -8.0377   18.0301  -32.9272 H   0  0  0  0  0  0  0  0  0  0  0  0
   -3.1842   18.4846  -33.5058 H   0  0  0  0  0  0  0  0  0  0  0  0
   -1.1890   19.4835  -32.3868 H   0  0  0  0  0  0  0  0  0  0  0  0
   -1.3347   21.7559  -31.3690 H   0  0  0  0  0  0  0  0  0  0  0  0
   -3.4910   23.0049  -31.3957 H   0  0  0  0  0  0  0  0  0  0  0  0
  1  2  1  0
  2  3  1  0
  3  4  1  0
  4  5  1  0
  3  6  1  0
  6  7  1  0
  7  8  1  0
  8  9  1  0
  9 10  1  0
 10 11  1  0
 11 12  1  0
 12 13  2  0
 13 14  1  0
 14 15  2  0
 15 16  1  0
 16 17  2  0
 17 18  1  0
 18 19  1  0
 19 20  2  0
 20 21  1  0
 21 22  2  0
 22 23  1  0
 23 24  2  0
 24 11  1  0
 17 12  1  0
 24 19  1  0
  1 25  1  0
  1 26  1  0
  1 27  1  0
  2 28  1  0
  2 29  1  0
  4 30  1  0
  4 31  1  0
  5 32  1  0
  5 33  1  0
  5 34  1  0
  6 35  1  0
  6 36  1  0
  7 37  1  0
  7 38  1  0
  9 39  1  0
  9 40  1  0
 10 41  1  0
 10 42  1  0
 13 43  1  0
 14 44  1  0
 15 45  1  0
 16 46  1  0
 20 47  1  0
 21 48  1  0
 22 49  1  0
 23 50  1  0
M  END
>  <UniqueID>  (36) 
36

>  <SMILES>  (36) 
CCN(CC)CCOCCN1c2ccccc2Sc2ccccc21

>  <Energy>  (36) 
67.85214730966122

>  <Genealogy>  (36) 
CCN(CC)CCOCCN1c2ccccc2Sc2ccccc21 (3D coordinates assigned)
CCN(CC)CCOCCN1c2ccccc2Sc2ccccc21 (nonaromatic ring conformer: 67.85214730966122 kcal/mol)

>  <smiles>  (36) 
CCN(CC)CCOCCN1c2ccccc2Sc2ccccc21

>  <score_type>  (36) 
oracle

>  <origin>  (36) 
adg

>  <m_score__min__energy>  (36) 
-8.1600000000000001

>  <m_primary>  (36) 
energy

$$$$
36:0
     RDKit          3D

 24 25  0  0  0  0  0  0  0  0999 V2000
   -4.6810   20.0110  -33.1160 C   0  0  0  0  0  0  0  0  0  0  0  0
   -5.5050   21.1230  -32.9190 O   0  0  0  0  0  0  0  0  0  0  0  0
   -6.8320   21.0880  -32.5570 C   0  0  0  0  0  0  0  0  0  0  0  0
   -7.6150   20.0350  -33.0140 C   0  0  0  0  0  0  0  0  0  0  0  0
   -8.9540   19.9310  -32.6950 C   0  0  0  0  0  0  0  0  0  0  0  0
   -9.4860   20.9210  -31.8990 C   0  0  0  0  0  0  0  0  0  0  0  0
   -8.7070   21.9610  -31.4480 C   0  0  0  0  0  0  0  0  0  0  0  0
   -7.3490   22.0690  -31.7710 C   0  0  0  0  0  0  0  0  0  0  0  0
   -6.5970   23.2040  -31.2520 C   0  0  0  0  0  0  0  0  0  0  0  0
   -7.0940   24.1660  -30.4430 N   0  0  0  0  0  0  0  0  0  0  0  0
   -6.1530   25.0480  -30.1550 N   0  0  0  0  0  0  0  0  0  0  0  0
   -5.0150   24.6800  -30.7730 C   0  0  0  0  0  0  0  0  0  0  0  0
   -3.8700   25.3010  -30.7260 N   0  0  0  0  0  0  0  0  0  0  0  0
   -5.3110   23.5460  -31.4390 N   0  0  0  0  0  0  0  0  0  0  0  0
   -4.3779   19.6019  -32.1409 H   0  0  0  0  0  0  0  0  0  0  0  0
   -5.2300   19.2433  -33.6810 H   0  0  0  0  0  0  0  0  0  0  0  0
   -3.7868   20.3128  -33.6810 H   0  0  0  0  0  0  0  0  0  0  0  0
   -7.1549   19.2626  -33.6478 H   0  0  0  0  0  0  0  0  0  0  0  0
   -9.5685   19.0949  -33.0602 H   0  0  0  0  0  0  0  0  0  0  0  0
  -10.5492   20.8794  -31.6199 H   0  0  0  0  0  0  0  0  0  0  0  0
   -9.1659   22.7330  -30.8129 H   0  0  0  0  0  0  0  0  0  0  0  0
   -6.2110   25.9140  -29.5540 H   0  0  0  0  0  0  0  0  0  0  0  0
   -3.3900   25.6600  -31.5810 H   0  0  0  0  0  0  0  0  0  0  0  0
   -4.6040   23.0410  -32.0080 H   0  0  0  0  0  0  0  0  0  0  0  0
  1  2  1  0
  2  3  1  0
  3  4  2  0
  4  5  1  0
  5  6  2  0
  6  7  1  0
  7  8  2  0
  8  9  1  0
  9 10  2  0
 10 11  1  0
 11 12  1  0
 12 13  2  3
 12 14  1  0
  8  3  1  0
 14  9  1  0
  1 15  1  0
  1 16  1  0
  1 17  1  0
  4 18  1  0
  5 19  1  0
  6 20  1  0
  7 21  1  0
 11 22  1  0
 13 23  1  0
 14 24  1  0
M  END
>  <smiles>  (37) 
COc1ccccc1-c1n[nH]c(=N)[nH]1

>  <score_type>  (37) 
oracle

>  <origin>  (37) 
adg

>  <m_score__min__energy>  (37) 
-6.0700000000000003

>  <m_primary>  (37) 
energy

$$$$
37:0
     RDKit          3D

 49 51  0  0  0  0  0  0  0  0999 V2000
   -5.7780   25.6470  -30.1910 C   0  0  0  0  0  0  0  0  0  0  0  0
   -5.0640   24.3090  -30.0440 C   0  0  0  0  0  0  0  0  0  0  0  0
   -4.1680   24.0990  -31.1870 N   0  0  0  0  0  0  0  0  0  0  0  0
   -3.3570   22.8820  -31.0400 C   0  0  0  0  0  0  0  0  0  0  0  0
   -3.2620   22.0970  -32.3620 C   0  0  0  0  0  0  0  0  0  0  0  0
   -4.4910   22.1740  -33.1780 N   0  0  0  0  0  0  0  0  0  0  0  0
   -5.4590   21.1380  -32.8270 C   0  0  0  0  0  0  0  0  0  0  0  0
   -6.7440   21.5020  -32.3310 C   0  0  0  0  0  0  0  0  0  0  0  0
   -7.1060   22.8580  -32.1140 C   0  0  0  0  0  0  0  0  0  0  0  0
   -8.3440   23.1970  -31.5760 C   0  0  0  0  0  0  0  0  0  0  0  0
   -9.2470   22.2040  -31.2290 C   0  0  0  0  0  0  0  0  0  0  0  0
   -8.9320   20.8680  -31.4500 C   0  0  0  0  0  0  0  0  0  0  0  0
   -7.6980   20.4880  -32.0390 C   0  0  0  0  0  0  0  0  0  0  0  0
   -7.4180   19.1680  -32.3160 N   0  0  0  0  0  0  0  0  0  0  0  0
   -8.5140   18.1730  -32.3440 C   0  0  0  0  0  0  0  0  0  0  0  0
   -6.1290   18.7800  -32.6120 C   0  0  0  0  0  0  0  0  0  0  0  0
   -5.7610   17.4100  -32.6000 C   0  0  0  0  0  0  0  0  0  0  0  0
   -4.4890   16.9840  -32.9910 C   0  0  0  0  0  0  0  0  0  0  0  0
   -4.1760   15.5780  -32.9720 N   0  0  0  0  0  0  0  0  0  0  0  0
   -4.6590   14.6560  -31.9490 C   0  0  0  0  0  0  0  0  0  0  0  0
   -3.5550   17.9380  -33.3980 C   0  0  0  0  0  0  0  0  0  0  0  0
   -3.8680   19.2940  -33.3670 C   0  0  0  0  0  0  0  0  0  0  0  0
   -5.1390   19.7520  -32.9340 C   0  0  0  0  0  0  0  0  0  0  0  0
   -5.9969   26.0572  -29.1941 H   0  0  0  0  0  0  0  0  0  0  0  0
   -5.1339   26.3477  -30.7425 H   0  0  0  0  0  0  0  0  0  0  0  0
   -6.7187   25.5020  -30.7425 H   0  0  0  0  0  0  0  0  0  0  0  0
   -4.4767   24.3081  -29.1139 H   0  0  0  0  0  0  0  0  0  0  0  0
   -5.8087   23.5001  -30.0111 H   0  0  0  0  0  0  0  0  0  0  0  0
   -3.5130   24.9160  -31.2310 H   0  0  0  0  0  0  0  0  0  0  0  0
   -2.3434   23.1656  -30.7203 H   0  0  0  0  0  0  0  0  0  0  0  0
   -3.8403   22.2363  -30.2920 H   0  0  0  0  0  0  0  0  0  0  0  0
   -2.4264   22.5041  -32.9503 H   0  0  0  0  0  0  0  0  0  0  0  0
   -3.1098   21.0391  -32.1020 H   0  0  0  0  0  0  0  0  0  0  0  0
   -4.2370   22.0810  -34.1870 H   0  0  0  0  0  0  0  0  0  0  0  0
   -4.8740   23.1390  -33.1520 H   0  0  0  0  0  0  0  0  0  0  0  0
   -6.3947   23.6552  -32.3760 H   0  0  0  0  0  0  0  0  0  0  0  0
   -8.6064   24.2546  -31.4259 H   0  0  0  0  0  0  0  0  0  0  0  0
  -10.2136   22.4734  -30.7784 H   0  0  0  0  0  0  0  0  0  0  0  0
   -9.6540   20.0896  -31.1624 H   0  0  0  0  0  0  0  0  0  0  0  0
   -8.7999   17.9134  -31.3140 H   0  0  0  0  0  0  0  0  0  0  0  0
   -9.3819   18.5982  -32.8694 H   0  0  0  0  0  0  0  0  0  0  0  0
   -8.1745   17.2682  -32.8694 H   0  0  0  0  0  0  0  0  0  0  0  0
   -6.4981   16.6616  -32.2735 H   0  0  0  0  0  0  0  0  0  0  0  0
   -3.5720   15.1840  -33.7290 H   0  0  0  0  0  0  0  0  0  0  0  0
   -4.4430   15.0683  -30.9523 H   0  0  0  0  0  0  0  0  0  0  0  0
   -5.7446   14.5192  -32.0618 H   0  0  0  0  0  0  0  0  0  0  0  0
   -4.1534   13.6856  -32.0618 H   0  0  0  0  0  0  0  0  0  0  0  0
   -2.5627   17.6154  -33.7464 H   0  0  0  0  0  0  0  0  0  0  0  0
   -3.1125   20.0273  -33.6856 H   0  0  0  0  0  0  0  0  0  0  0  0
  1  2  1  0
  2  3  1  0
  3  4  1  0
  4  5  1  0
  5  6  1  0
  6  7  1  0
  7  8  2  0
  8  9  1  0
  9 10  2  0
 10 11  1  0
 11 12  2  0
 12 13  1  0
 13 14  2  0
 14 15  1  0
 14 16  1  0
 16 17  2  0
 17 18  1  0
 18 19  1  0
 19 20  1  0
 18 21  2  0
 21 22  1  0
 22 23  2  0
 23  7  1  0
 13  8  1  0
 23 16  1  0
  1 24  1  0
  1 25  1  0
  1 26  1  0
  2 27  1  0
  2 28  1  0
  3 29  1  0
  4 30  1  0
  4 31  1  0
  5 32  1  0
  5 33  1  0
  6 34  1  0
  6 35  1  0
  9 36  1  0
 10 37  1  0
 11 38  1  0
 12 39  1  0
 15 40  1  0
 15 41  1  0
 15 42  1  0
 17 43  1  0
 19 44  1  0
 20 45  1  0
 20 46  1  0
 20 47  1  0
 21 48  1  0
 22 49  1  0
M  CHG  2   6   1  14   1
M  END
>  <UniqueID>  (38) 
37

>  <SMILES>  (38) 
CCNCC[NH2+]c1c2ccccc2[n+](C)c2cc(NC)ccc12

>  <Energy>  (38) 
73.59181437514441

>  <Genealogy>  (38) 
CCNCC[NH2+]c1c2ccccc2[n+](C)c2cc(NC)ccc12 (protonated)
CCNCC[NH2+]c1c2ccccc2[n+](C)c2cc(NC)ccc12 (3D coordinates assigned)
CCNCC[NH2+]c1c2ccccc2[n+](C)c2cc(NC)ccc12 (optimized conformer: 73.59181437514441 kcal/mol)

>  <smiles>  (38) 
CCNCCNc1c2ccccc2[n+](C)c2cc(NC)ccc12

>  <score_type>  (38) 
oracle

>  <origin>  (38) 
adg

>  <m_score__min__energy>  (38) 
-7.5800000000000001

>  <m_primary>  (38) 
energy

$$$$
38:0
     RDKit          3D

 54 57  0  0  0  0  0  0  0  0999 V2000
   -8.5260   21.8700  -30.4700 C   0  0  0  0  0  0  0  0  0  0  0  0
   -8.1930   22.6560  -31.7340 C   0  0  0  0  0  0  0  0  0  0  0  0
   -7.3070   23.7970  -31.4080 N   0  0  0  0  0  0  0  0  0  0  0  0
   -6.1720   23.9110  -32.3430 C   0  0  0  0  0  0  0  0  0  0  0  0
   -5.1840   22.7330  -32.2030 C   0  0  0  0  0  0  0  0  0  0  0  0
   -5.2650   22.0910  -30.8730 N   0  0  0  0  0  0  0  0  0  0  0  0
   -4.1620   21.1190  -30.6440 C   0  0  0  0  0  0  0  0  0  0  0  0
   -3.6620   20.4110  -31.8950 C   0  0  0  0  0  0  0  0  0  0  0  0
   -4.4730   19.6820  -32.7730 C   0  0  0  0  0  0  0  0  0  0  0  0
   -5.8810   19.2870  -32.5860 C   0  0  0  0  0  0  0  0  0  0  0  0
   -6.2170   18.1730  -31.8000 C   0  0  0  0  0  0  0  0  0  0  0  0
   -7.5570   17.8110  -31.6320 C   0  0  0  0  0  0  0  0  0  0  0  0
   -8.5670   18.5480  -32.2560 C   0  0  0  0  0  0  0  0  0  0  0  0
   -8.2370   19.6450  -33.0570 C   0  0  0  0  0  0  0  0  0  0  0  0
   -6.8980   20.0100  -33.2300 C   0  0  0  0  0  0  0  0  0  0  0  0
   -3.7820   19.4090  -33.8970 N   0  0  0  0  0  0  0  0  0  0  0  0
   -2.5730   19.9480  -33.6910 C   0  0  0  0  0  0  0  0  0  0  0  0
   -1.5640   19.9150  -34.5930 N   0  0  0  0  0  0  0  0  0  0  0  0
   -0.3780   20.5090  -34.2960 C   0  0  0  0  0  0  0  0  0  0  0  0
    0.7460   20.4590  -35.2820 C   0  0  0  0  0  0  0  0  0  0  0  0
   -0.1990   21.1340  -33.0500 C   0  0  0  0  0  0  0  0  0  0  0  0
   -1.2610   21.1560  -32.1250 C   0  0  0  0  0  0  0  0  0  0  0  0
   -1.0210   21.7620  -30.7700 C   0  0  0  0  0  0  0  0  0  0  0  0
   -2.4440   20.5590  -32.4940 N   0  0  0  0  0  0  0  0  0  0  0  0
   -5.4830   23.0860  -29.8070 C   0  0  0  0  0  0  0  0  0  0  0  0
   -6.8470   23.7800  -29.9970 C   0  0  0  0  0  0  0  0  0  0  0  0
   -8.2708   22.4724  -29.5857 H   0  0  0  0  0  0  0  0  0  0  0  0
   -9.6007   21.6357  -30.4563 H   0  0  0  0  0  0  0  0  0  0  0  0
   -7.9467   20.9350  -30.4563 H   0  0  0  0  0  0  0  0  0  0  0  0
   -7.6843   21.9939  -32.4502 H   0  0  0  0  0  0  0  0  0  0  0  0
   -9.1252   23.0397  -32.1742 H   0  0  0  0  0  0  0  0  0  0  0  0
   -6.5604   23.9279  -33.3720 H   0  0  0  0  0  0  0  0  0  0  0  0
   -5.6296   24.8382  -32.1060 H   0  0  0  0  0  0  0  0  0  0  0  0
   -5.4159   21.9827  -32.9733 H   0  0  0  0  0  0  0  0  0  0  0  0
   -4.1655   23.1302  -32.3248 H   0  0  0  0  0  0  0  0  0  0  0  0
   -3.3158   21.6614  -30.1970 H   0  0  0  0  0  0  0  0  0  0  0  0
   -4.5718   20.3359  -29.9892 H   0  0  0  0  0  0  0  0  0  0  0  0
   -5.4244   17.5839  -31.3155 H   0  0  0  0  0  0  0  0  0  0  0  0
   -7.8168   16.9439  -31.0071 H   0  0  0  0  0  0  0  0  0  0  0  0
   -9.6209   18.2651  -32.1170 H   0  0  0  0  0  0  0  0  0  0  0  0
   -9.0318   20.2222  -33.5521 H   0  0  0  0  0  0  0  0  0  0  0  0
   -6.6410   20.8654  -33.8720 H   0  0  0  0  0  0  0  0  0  0  0  0
   -4.1130   18.8940  -34.7430 H   0  0  0  0  0  0  0  0  0  0  0  0
    1.7043   20.4164  -34.7437 H   0  0  0  0  0  0  0  0  0  0  0  0
    0.6401   19.5647  -35.9136 H   0  0  0  0  0  0  0  0  0  0  0  0
    0.7200   21.3592  -35.9136 H   0  0  0  0  0  0  0  0  0  0  0  0
    0.7639   21.6028  -32.7989 H   0  0  0  0  0  0  0  0  0  0  0  0
   -1.3066   21.0409  -29.9900 H   0  0  0  0  0  0  0  0  0  0  0  0
    0.0446   22.0135  -30.6644 H   0  0  0  0  0  0  0  0  0  0  0  0
   -1.6255   22.6749  -30.6644 H   0  0  0  0  0  0  0  0  0  0  0  0
   -5.4651   22.5813  -28.8298 H   0  0  0  0  0  0  0  0  0  0  0  0
   -4.6858   23.8425  -29.8537 H   0  0  0  0  0  0  0  0  0  0  0  0
   -7.5963   23.2482  -29.3922 H   0  0  0  0  0  0  0  0  0  0  0  0
   -6.7260   24.8269  -29.6818 H   0  0  0  0  0  0  0  0  0  0  0  0
  1  2  1  0
  2  3  1  0
  3  4  1  0
  4  5  1  0
  5  6  1  0
  6  7  1  0
  7  8  1  0
  8  9  2  0
  9 10  1  0
 10 11  2  0
 11 12  1  0
 12 13  2  0
 13 14  1  0
 14 15  2  0
  9 16  1  0
 16 17  2  0
 17 18  1  0
 18 19  2  0
 19 20  1  0
 19 21  1  0
 21 22  2  0
 22 23  1  0
 22 24  1  0
  6 25  1  0
 25 26  1  0
 26  3  1  0
 24  8  1  0
 15 10  1  0
 24 17  1  0
  1 27  1  0
  1 28  1  0
  1 29  1  0
  2 30  1  0
  2 31  1  0
  4 32  1  0
  4 33  1  0
  5 34  1  0
  5 35  1  0
  7 36  1  0
  7 37  1  0
 11 38  1  0
 12 39  1  0
 13 40  1  0
 14 41  1  0
 15 42  1  0
 16 43  1  0
 20 44  1  0
 20 45  1  0
 20 46  1  0
 21 47  1  0
 23 48  1  0
 23 49  1  0
 23 50  1  0
 25 51  1  0
 25 52  1  0
 26 53  1  0
 26 54  1  0
M  CHG  1  16   1
M  END
>  <UniqueID>  (39) 
38

>  <SMILES>  (39) 
CCN1CCN(Cc2c(-c3ccccc3)[nH+]c3nc(C)cc(C)n23)CC1

>  <Energy>  (39) 
117.08032462457791

>  <Genealogy>  (39) 
CCN1CCN(Cc2c(-c3ccccc3)[nH+]c3nc(C)cc(C)n23)CC1 (protonated)
CCN1CCN(Cc2c(-c3ccccc3)[nH+]c3nc(C)cc(C)n23)CC1 (3D coordinates assigned)
CCN1CCN(Cc2c(-c3ccccc3)[nH+]c3nc(C)cc(C)n23)CC1 (nonaromatic ring conformer: 117.08032462457791 kcal/mol)

>  <smiles>  (39) 
CCN1CCN(Cc2c(-c3ccccc3)nc3nc(C)cc(C)n23)CC1

>  <score_type>  (39) 
oracle

>  <origin>  (39) 
adg

>  <m_score__min__energy>  (39) 
-7.7999999999999998

>  <m_primary>  (39) 
energy

$$$$
39:0
     RDKit          3D

 36 37  0  0  0  0  0  0  0  0999 V2000
   -3.7950   24.3300  -29.9020 C   0  0  0  0  0  0  0  0  0  0  0  0
   -4.8270   24.8570  -30.8080 N   0  0  0  0  0  0  0  0  0  0  0  0
   -5.7300   25.7830  -30.1060 C   0  0  0  0  0  0  0  0  0  0  0  0
   -5.5490   23.7930  -31.5430 C   0  0  0  0  0  0  0  0  0  0  0  0
   -6.6900   23.1360  -30.7480 C   0  0  0  0  0  0  0  0  0  0  0  0
   -8.1060   22.8270  -31.8540 S   0  0  0  0  0  0  0  0  0  0  0  0
   -7.4910   21.2350  -32.3930 C   0  0  0  0  0  0  0  0  0  0  0  0
   -8.2610   20.0860  -32.2360 C   0  0  0  0  0  0  0  0  0  0  0  0
   -7.7520   18.8630  -32.6630 C   0  0  0  0  0  0  0  0  0  0  0  0
   -6.4760   18.8110  -33.2440 C   0  0  0  0  0  0  0  0  0  0  0  0
   -5.9020   17.5210  -33.7010 C   0  0  0  0  0  0  0  0  0  0  0  0
   -6.6850   16.3530  -33.6960 C   0  0  0  0  0  0  0  0  0  0  0  0
   -6.1460   15.1360  -34.1260 C   0  0  0  0  0  0  0  0  0  0  0  0
   -6.9110   14.0170  -34.1220 F   0  0  0  0  0  0  0  0  0  0  0  0
   -4.8210   15.0720  -34.5630 C   0  0  0  0  0  0  0  0  0  0  0  0
   -4.0310   16.2250  -34.5720 C   0  0  0  0  0  0  0  0  0  0  0  0
   -2.7440   16.1610  -34.9920 F   0  0  0  0  0  0  0  0  0  0  0  0
   -4.5670   17.4450  -34.1440 C   0  0  0  0  0  0  0  0  0  0  0  0
   -5.7670   19.9720  -33.3760 N   0  0  0  0  0  0  0  0  0  0  0  0
   -6.2630   21.1410  -32.9650 N   0  0  0  0  0  0  0  0  0  0  0  0
   -4.1067   24.4891  -28.8591 H   0  0  0  0  0  0  0  0  0  0  0  0
   -3.6618   23.2535  -30.0847 H   0  0  0  0  0  0  0  0  0  0  0  0
   -2.8448   24.8533  -30.0847 H   0  0  0  0  0  0  0  0  0  0  0  0
   -5.6096   25.6595  -29.0196 H   0  0  0  0  0  0  0  0  0  0  0  0
   -5.4847   26.8179  -30.3868 H   0  0  0  0  0  0  0  0  0  0  0  0
   -6.7707   25.5638  -30.3868 H   0  0  0  0  0  0  0  0  0  0  0  0
   -5.9750   24.2337  -32.4564 H   0  0  0  0  0  0  0  0  0  0  0  0
   -4.8147   23.0012  -31.7522 H   0  0  0  0  0  0  0  0  0  0  0  0
   -6.3403   22.1824  -30.3257 H   0  0  0  0  0  0  0  0  0  0  0  0
   -7.0017   23.8067  -29.9337 H   0  0  0  0  0  0  0  0  0  0  0  0
   -9.2602   20.1440  -31.7797 H   0  0  0  0  0  0  0  0  0  0  0  0
   -8.3455   17.9443  -32.5459 H   0  0  0  0  0  0  0  0  0  0  0  0
   -7.7287   16.3967  -33.3515 H   0  0  0  0  0  0  0  0  0  0  0  0
   -4.3990   14.1138  -34.9002 H   0  0  0  0  0  0  0  0  0  0  0  0
   -3.9419   18.3501  -34.1536 H   0  0  0  0  0  0  0  0  0  0  0  0
   -4.8240   19.9660  -33.8240 H   0  0  0  0  0  0  0  0  0  0  0  0
  1  2  1  0
  2  3  1  0
  2  4  1  0
  4  5  1  0
  5  6  1  0
  6  7  1  0
  7  8  2  0
  8  9  1  0
  9 10  2  0
 10 11  1  0
 11 12  2  0
 12 13  1  0
 13 14  1  0
 13 15  2  0
 15 16  1  0
 16 17  1  0
 16 18  2  0
 10 19  1  0
 19 20  2  0
 20  7  1  0
 18 11  1  0
  1 21  1  0
  1 22  1  0
  1 23  1  0
  3 24  1  0
  3 25  1  0
  3 26  1  0
  4 27  1  0
  4 28  1  0
  5 29  1  0
  5 30  1  0
  8 31  1  0
  9 32  1  0
 12 33  1  0
 15 34  1  0
 18 35  1  0
 19 36  1  0
M  CHG  1  19   1
M  END
>  <UniqueID>  (40) 
39

>  <SMILES>  (40) 
CN(C)CCSc1ccc(-c2cc(F)cc(F)c2)[nH+]n1

>  <Energy>  (40) 
38.63326642747953

>  <Genealogy>  (40) 
CN(C)CCSc1ccc(-c2cc(F)cc(F)c2)[nH+]n1 (protonated)
CN(C)CCSc1ccc(-c2cc(F)cc(F)c2)[nH+]n1 (3D coordinates assigned)
CN(C)CCSc1ccc(-c2cc(F)cc(F)c2)[nH+]n1 (optimized conformer: 38.63326642747953 kcal/mol)

>  <smiles>  (40) 
CN(C)CCSc1ccc(-c2cc(F)cc(F)c2)nn1

>  <score_type>  (40) 
oracle

>  <origin>  (40) 
adg

>  <m_score__min__energy>  (40) 
-6.54

>  <m_primary>  (40) 
energy

$$$$
40:0
     RDKit          3D

 58 60  0  0  0  0  0  0  0  0999 V2000
   -2.8040   21.9450  -27.5030 C   0  0  0  0  0  0  0  0  0  0  0  0
   -2.5830   22.1150  -28.9530 N   0  0  2  0  0  0  0  0  0  0  0  0
   -3.6460   22.9510  -29.5690 C   0  0  0  0  0  0  0  0  0  0  0  0
   -3.2230   24.3700  -29.8560 C   0  0  0  0  0  0  0  0  0  0  0  0
   -2.1670   24.8290  -29.3470 O   0  0  0  0  0  0  0  0  0  0  0  0
   -4.0240   25.1850  -30.7150 N   0  0  0  0  0  0  0  0  0  0  0  0
   -5.3240   25.7320  -30.3410 C   0  0  0  0  0  0  0  0  0  0  0  0
   -6.4560   24.7960  -30.8080 C   0  0  0  0  0  0  0  0  0  0  0  0
   -6.1110   24.1250  -32.1500 C   0  0  0  0  0  0  0  0  0  0  0  0
   -7.2410   23.1980  -32.6360 C   0  0  0  0  0  0  0  0  0  0  0  0
   -8.0170   22.5810  -31.5310 N   0  0  0  0  0  0  0  0  0  0  0  0
   -8.7350   21.3530  -31.9480 C   0  0  0  0  0  0  0  0  0  0  0  0
   -7.8250   20.1700  -32.2270 C   0  0  0  0  0  0  0  0  0  0  0  0
   -8.0250   18.9430  -31.5660 C   0  0  0  0  0  0  0  0  0  0  0  0
   -7.1630   17.8660  -31.7950 C   0  0  0  0  0  0  0  0  0  0  0  0
   -6.1060   17.9970  -32.7000 C   0  0  0  0  0  0  0  0  0  0  0  0
   -5.9170   19.2000  -33.3840 C   0  0  0  0  0  0  0  0  0  0  0  0
   -6.7750   20.2790  -33.1550 C   0  0  0  0  0  0  0  0  0  0  0  0
   -7.2310   22.3950  -30.2990 C   0  0  0  0  0  0  0  0  0  0  0  0
   -6.8110   23.7520  -29.7180 C   0  0  0  0  0  0  0  0  0  0  0  0
   -2.4180   20.7940  -29.6070 C   0  0  0  0  0  0  0  0  0  0  0  0
   -1.8380   20.9110  -31.0000 C   0  0  0  0  0  0  0  0  0  0  0  0
   -0.4480   20.8690  -31.1970 C   0  0  0  0  0  0  0  0  0  0  0  0
    0.0850   20.9540  -32.4880 C   0  0  0  0  0  0  0  0  0  0  0  0
   -0.7660   21.0770  -33.5920 C   0  0  0  0  0  0  0  0  0  0  0  0
   -0.1000   21.1670  -35.2110 Cl  0  0  0  0  0  0  0  0  0  0  0  0
   -2.1500   21.1290  -33.4030 C   0  0  0  0  0  0  0  0  0  0  0  0
   -2.6810   21.0480  -32.1140 C   0  0  0  0  0  0  0  0  0  0  0  0
   -2.0516   22.5237  -26.9471 H   0  0  0  0  0  0  0  0  0  0  0  0
   -3.8101   22.3042  -27.2408 H   0  0  0  0  0  0  0  0  0  0  0  0
   -2.7149   20.8804  -27.2408 H   0  0  0  0  0  0  0  0  0  0  0  0
   -1.6830   22.6420  -29.0530 H   0  0  0  0  0  0  0  0  0  0  0  0
   -3.9487   22.4821  -30.5169 H   0  0  0  0  0  0  0  0  0  0  0  0
   -4.4689   23.0058  -28.8411 H   0  0  0  0  0  0  0  0  0  0  0  0
   -5.3708   25.8395  -29.2473 H   0  0  0  0  0  0  0  0  0  0  0  0
   -5.4503   26.7125  -30.8233 H   0  0  0  0  0  0  0  0  0  0  0  0
   -7.3520   25.4124  -30.9730 H   0  0  0  0  0  0  0  0  0  0  0  0
   -5.9426   24.9066  -32.9055 H   0  0  0  0  0  0  0  0  0  0  0  0
   -5.2081   23.5140  -32.0034 H   0  0  0  0  0  0  0  0  0  0  0  0
   -7.9303   23.7865  -33.2593 H   0  0  0  0  0  0  0  0  0  0  0  0
   -6.7684   22.3781  -33.1967 H   0  0  0  0  0  0  0  0  0  0  0  0
   -9.4327   21.0710  -31.1457 H   0  0  0  0  0  0  0  0  0  0  0  0
   -9.2480   21.5894  -32.8919 H   0  0  0  0  0  0  0  0  0  0  0  0
   -8.8650   18.8309  -30.8647 H   0  0  0  0  0  0  0  0  0  0  0  0
   -7.3168   16.9157  -31.2629 H   0  0  0  0  0  0  0  0  0  0  0  0
   -5.4228   17.1525  -32.8736 H   0  0  0  0  0  0  0  0  0  0  0  0
   -5.0914   19.2983  -34.1042 H   0  0  0  0  0  0  0  0  0  0  0  0
   -6.6276   21.2202  -33.7049 H   0  0  0  0  0  0  0  0  0  0  0  0
   -7.8412   21.8575  -29.5582 H   0  0  0  0  0  0  0  0  0  0  0  0
   -6.3269   21.8159  -30.5384 H   0  0  0  0  0  0  0  0  0  0  0  0
   -7.6409   24.1459  -29.1129 H   0  0  0  0  0  0  0  0  0  0  0  0
   -5.9056   23.5853  -29.1159 H   0  0  0  0  0  0  0  0  0  0  0  0
   -1.7442   20.1775  -28.9939 H   0  0  0  0  0  0  0  0  0  0  0  0
   -3.4139   20.3352  -29.6947 H   0  0  0  0  0  0  0  0  0  0  0  0
    0.2247   20.7688  -30.3325 H   0  0  0  0  0  0  0  0  0  0  0  0
    1.1747   20.9241  -32.6353 H   0  0  0  0  0  0  0  0  0  0  0  0
   -2.8203   21.2336  -34.2689 H   0  0  0  0  0  0  0  0  0  0  0  0
   -3.7707   21.0920  -31.9702 H   0  0  0  0  0  0  0  0  0  0  0  0
  1  2  1  0
  2  3  1  0
  3  4  1  0
  4  5  2  0
  4  6  1  0
  6  7  1  0
  7  8  1  0
  8  9  1  0
  9 10  1  0
 10 11  1  0
 11 12  1  0
 12 13  1  0
 13 14  2  0
 14 15  1  0
 15 16  2  0
 16 17  1  0
 17 18  2  0
 11 19  1  0
 19 20  1  0
  2 21  1  0
 21 22  1  0
 22 23  2  0
 23 24  1  0
 24 25  2  0
 25 26  1  0
 25 27  1  0
 27 28  2  0
 20  8  1  0
 28 22  1  0
 18 13  1  0
  1 29  1  0
  1 30  1  0
  1 31  1  0
  2 32  1  1
  3 33  1  0
  3 34  1  0
  7 35  1  0
  7 36  1  0
  8 37  1  0
  9 38  1  0
  9 39  1  0
 10 40  1  0
 10 41  1  0
 12 42  1  0
 12 43  1  0
 14 44  1  0
 15 45  1  0
 16 46  1  0
 17 47  1  0
 18 48  1  0
 19 49  1  0
 19 50  1  0
 20 51  1  0
 20 52  1  0
 21 53  1  0
 21 54  1  0
 23 55  1  0
 24 56  1  0
 27 57  1  0
 28 58  1  0
M  CHG  2   2   1   6  -1
M  END
>  <UniqueID>  (41) 
40

>  <SMILES>  (41) 
C[N@H+](CC(=O)[N-]CC1CCN(Cc2ccccc2)CC1)Cc1ccc(Cl)cc1

>  <Energy>  (41) 
63.05061575064216

>  <Genealogy>  (41) 
C[NH+](CC(=O)[N-]CC1CCN(Cc2ccccc2)CC1)Cc1ccc(Cl)cc1 (protonated)
C[N@H+](CC(=O)[N-]CC1CCN(Cc2ccccc2)CC1)Cc1ccc(Cl)cc1 (chirality)
C[N@H+](CC(=O)[N-]CC1CCN(Cc2ccccc2)CC1)Cc1ccc(Cl)cc1 (3D coordinates assigned)
C[N@H+](CC(=O)[N-]CC1CCN(Cc2ccccc2)CC1)Cc1ccc(Cl)cc1 (nonaromatic ring conformer: 63.05061575064216 kcal/mol)

>  <smiles>  (41) 
CN(CC(=O)NCC1CCN(Cc2ccccc2)CC1)Cc1ccc(Cl)cc1

>  <score_type>  (41) 
oracle

>  <origin>  (41) 
adg

>  <m_score__min__energy>  (41) 
-10.57

>  <m_primary>  (41) 
energy

$$$$
41:0
     RDKit          3D

 49 51  0  0  0  0  0  0  0  0999 V2000
   -1.3210   18.1540  -33.3010 C   0  0  0  0  0  0  0  0  0  0  0  0
   -0.8300   18.9460  -34.5200 C   0  0  0  0  0  0  0  0  0  0  0  0
   -1.0220   20.4120  -34.4100 N   0  0  0  0  0  0  0  0  0  0  0  0
   -0.0300   21.1590  -35.2060 C   0  0  0  0  0  0  0  0  0  0  0  0
   -1.0760   20.8650  -33.0040 C   0  0  0  0  0  0  0  0  0  0  0  0
   -2.4690   21.3930  -32.6120 C   0  0  0  0  0  0  0  0  0  0  0  0
   -3.4760   21.2340  -33.6800 N   0  0  0  0  0  0  0  0  0  0  0  0
   -4.7880   20.8780  -33.1450 C   0  0  0  0  0  0  0  0  0  0  0  0
   -5.3450   19.5960  -33.4240 C   0  0  0  0  0  0  0  0  0  0  0  0
   -4.6240   18.6060  -34.1420 C   0  0  0  0  0  0  0  0  0  0  0  0
   -5.1540   17.3360  -34.3510 C   0  0  0  0  0  0  0  0  0  0  0  0
   -6.4030   17.0100  -33.8480 C   0  0  0  0  0  0  0  0  0  0  0  0
   -7.1480   17.9660  -33.1640 C   0  0  0  0  0  0  0  0  0  0  0  0
   -6.6590   19.2850  -32.9750 C   0  0  0  0  0  0  0  0  0  0  0  0
   -7.4290   20.2490  -32.3630 N   0  0  0  0  0  0  0  0  0  0  0  0
   -8.8890   20.0410  -32.2180 C   0  0  0  0  0  0  0  0  0  0  0  0
   -6.8510   21.4170  -31.9140 C   0  0  0  0  0  0  0  0  0  0  0  0
   -7.5450   22.2720  -31.0220 C   0  0  0  0  0  0  0  0  0  0  0  0
   -7.0060   23.4830  -30.6100 C   0  0  0  0  0  0  0  0  0  0  0  0
   -5.7500   23.8870  -31.0560 C   0  0  0  0  0  0  0  0  0  0  0  0
   -5.2060   25.1550  -30.6370 N   0  0  0  0  0  0  0  0  0  0  0  0
   -5.9360   26.0270  -30.1250 O   0  0  0  0  0  0  0  0  0  0  0  0
   -3.8640   25.4230  -30.7920 O   0  0  0  0  0  0  0  0  0  0  0  0
   -5.0210   23.0320  -31.8980 C   0  0  0  0  0  0  0  0  0  0  0  0
   -5.5370   21.7800  -32.3270 C   0  0  0  0  0  0  0  0  0  0  0  0
   -1.0042   18.6650  -32.3799 H   0  0  0  0  0  0  0  0  0  0  0  0
   -2.4188   18.0878  -33.3246 H   0  0  0  0  0  0  0  0  0  0  0  0
   -0.8920   17.1414  -33.3246 H   0  0  0  0  0  0  0  0  0  0  0  0
    0.2441   18.7476  -34.6505 H   0  0  0  0  0  0  0  0  0  0  0  0
   -1.4324   18.6118  -35.3776 H   0  0  0  0  0  0  0  0  0  0  0  0
    0.6637   21.6814  -34.5308 H   0  0  0  0  0  0  0  0  0  0  0  0
    0.5333   20.4589  -35.8404 H   0  0  0  0  0  0  0  0  0  0  0  0
   -0.5472   21.8938  -35.8404 H   0  0  0  0  0  0  0  0  0  0  0  0
   -0.8219   20.0181  -32.3497 H   0  0  0  0  0  0  0  0  0  0  0  0
   -0.3589   21.6912  -32.8893 H   0  0  0  0  0  0  0  0  0  0  0  0
   -2.8131   20.8438  -31.7232 H   0  0  0  0  0  0  0  0  0  0  0  0
   -2.3662   22.4711  -32.4192 H   0  0  0  0  0  0  0  0  0  0  0  0
   -3.5500   22.1240  -34.2190 H   0  0  0  0  0  0  0  0  0  0  0  0
   -3.1170   20.5880  -34.4090 H   0  0  0  0  0  0  0  0  0  0  0  0
   -3.6276   18.8471  -34.5407 H   0  0  0  0  0  0  0  0  0  0  0  0
   -4.5791   16.5886  -34.9175 H   0  0  0  0  0  0  0  0  0  0  0  0
   -6.8056   15.9961  -33.9892 H   0  0  0  0  0  0  0  0  0  0  0  0
   -8.1351   17.6941  -32.7620 H   0  0  0  0  0  0  0  0  0  0  0  0
   -9.1498   20.0038  -31.1500 H   0  0  0  0  0  0  0  0  0  0  0  0
   -9.4272   20.8715  -32.6982 H   0  0  0  0  0  0  0  0  0  0  0  0
   -9.1738   19.0932  -32.6982 H   0  0  0  0  0  0  0  0  0  0  0  0
   -8.5338   21.9689  -30.6474 H   0  0  0  0  0  0  0  0  0  0  0  0
   -7.5756   24.1289  -29.9256 H   0  0  0  0  0  0  0  0  0  0  0  0
   -4.0206   23.3408  -32.2355 H   0  0  0  0  0  0  0  0  0  0  0  0
  1  2  1  0
  2  3  1  0
  3  4  1  0
  3  5  1  0
  5  6  1  0
  6  7  1  0
  7  8  1  0
  8  9  2  0
  9 10  1  0
 10 11  2  0
 11 12  1  0
 12 13  2  0
 13 14  1  0
 14 15  2  0
 15 16  1  0
 15 17  1  0
 17 18  2  0
 18 19  1  0
 19 20  2  0
 20 21  1  0
 21 22  2  0
 21 23  1  0
 20 24  1  0
 24 25  2  0
 25  8  1  0
 14  9  1  0
 25 17  1  0
  1 26  1  0
  1 27  1  0
  1 28  1  0
  2 29  1  0
  2 30  1  0
  4 31  1  0
  4 32  1  0
  4 33  1  0
  5 34  1  0
  5 35  1  0
  6 36  1  0
  6 37  1  0
  7 38  1  0
  7 39  1  0
 10 40  1  0
 11 41  1  0
 12 42  1  0
 13 43  1  0
 16 44  1  0
 16 45  1  0
 16 46  1  0
 18 47  1  0
 19 48  1  0
 24 49  1  0
M  CHG  4   7   1  15   1  21   1  23  -1
M  END
>  <UniqueID>  (42) 
41

>  <SMILES>  (42) 
CCN(C)CC[NH2+]c1c2ccccc2[n+](C)c2ccc([N+](=O)[O-])cc12

>  <Energy>  (42) 
82.81145464934019

>  <Genealogy>  (42) 
CCN(C)CC[NH2+]c1c2ccccc2[n+](C)c2ccc([N+](=O)[O-])cc12 (protonated)
CCN(C)CC[NH2+]c1c2ccccc2[n+](C)c2ccc([N+](=O)[O-])cc12 (3D coordinates assigned)
CCN(C)CC[NH2+]c1c2ccccc2[n+](C)c2ccc([N+](=O)[O-])cc12 (optimized conformer: 82.81145464934019 kcal/mol)

>  <smiles>  (42) 
CCN(C)CCNc1c2ccccc2[n+](C)c2ccc([N+](=O)[O-])cc12

>  <score_type>  (42) 
oracle

>  <origin>  (42) 
adg

>  <m_score__min__energy>  (42) 
-8.3699999999999992

>  <m_primary>  (42) 
energy

$$$$
42:0
     RDKit          3D

 61 63  0  0  0  0  0  0  0  0999 V2000
    0.9680   22.9030  -36.0560 C   0  0  0  0  0  0  0  0  0  0  0  0
    0.8920   21.3860  -36.1850 C   0  0  0  0  0  0  0  0  0  0  0  0
    0.2940   20.8120  -34.9520 N   0  0  0  0  0  0  0  0  0  0  0  0
    1.0200   21.2400  -33.7330 C   0  0  0  0  0  0  0  0  0  0  0  0
    0.6260   20.4010  -32.5160 C   0  0  0  0  0  0  0  0  0  0  0  0
    0.2300   19.3330  -35.0130 C   0  0  0  0  0  0  0  0  0  0  0  0
   -1.1570   18.8110  -34.6080 C   0  0  0  0  0  0  0  0  0  0  0  0
   -2.1350   19.8990  -34.5300 N   0  0  0  0  0  0  0  0  0  0  0  0
   -3.2920   19.8200  -33.6790 C   0  0  0  0  0  0  0  0  0  0  0  0
   -4.2110   18.7680  -33.8360 C   0  0  0  0  0  0  0  0  0  0  0  0
   -3.9460   17.7010  -34.7190 C   0  0  0  0  0  0  0  0  0  0  0  0
   -4.8450   16.6450  -34.8470 C   0  0  0  0  0  0  0  0  0  0  0  0
   -6.0140   16.6270  -34.0930 C   0  0  0  0  0  0  0  0  0  0  0  0
   -7.1220   15.2740  -34.2320 Cl  0  0  0  0  0  0  0  0  0  0  0  0
   -6.3000   17.6790  -33.2200 C   0  0  0  0  0  0  0  0  0  0  0  0
   -5.4220   18.7850  -33.0930 C   0  0  0  0  0  0  0  0  0  0  0  0
   -5.7120   19.8520  -32.2660 N   0  0  0  0  0  0  0  0  0  0  0  0
   -7.0840   20.0330  -31.7430 C   0  0  0  0  0  0  0  0  0  0  0  0
   -4.7200   20.7600  -31.9380 C   0  0  0  0  0  0  0  0  0  0  0  0
   -4.8750   21.6810  -30.8700 C   0  0  0  0  0  0  0  0  0  0  0  0
   -3.8660   22.6070  -30.5520 C   0  0  0  0  0  0  0  0  0  0  0  0
   -3.9850   23.5380  -29.5060 O   0  0  0  0  0  0  0  0  0  0  0  0
   -5.2090   24.0400  -28.9670 C   0  0  0  0  0  0  0  0  0  0  0  0
   -6.2090   24.4000  -30.0760 C   0  0  0  0  0  0  0  0  0  0  0  0
   -5.5730   25.2290  -31.1990 C   0  0  0  0  0  0  0  0  0  0  0  0
   -4.2260   25.6590  -30.8340 N   0  0  0  0  0  0  0  0  0  0  0  0
   -2.6880   22.6100  -31.2930 C   0  0  0  0  0  0  0  0  0  0  0  0
   -2.4940   21.6940  -32.3220 C   0  0  0  0  0  0  0  0  0  0  0  0
   -3.4990   20.7670  -32.6610 C   0  0  0  0  0  0  0  0  0  0  0  0
    0.9819   23.1802  -34.9916 H   0  0  0  0  0  0  0  0  0  0  0  0
    1.8855   23.2668  -36.5417 H   0  0  0  0  0  0  0  0  0  0  0  0
    0.0915   23.3567  -36.5417 H   0  0  0  0  0  0  0  0  0  0  0  0
    0.2679   21.1228  -37.0517 H   0  0  0  0  0  0  0  0  0  0  0  0
    1.9045   20.9793  -36.3243 H   0  0  0  0  0  0  0  0  0  0  0  0
    2.1010   21.1321  -33.9055 H   0  0  0  0  0  0  0  0  0  0  0  0
    0.7564   22.2879  -33.5270 H   0  0  0  0  0  0  0  0  0  0  0  0
    0.8823   20.9467  -31.5959 H   0  0  0  0  0  0  0  0  0  0  0  0
   -0.4568   20.2083  -32.5385 H   0  0  0  0  0  0  0  0  0  0  0  0
    1.1692   19.4447  -32.5385 H   0  0  0  0  0  0  0  0  0  0  0  0
    0.4477   19.0081  -36.0411 H   0  0  0  0  0  0  0  0  0  0  0  0
    0.9704   18.9267  -34.3082 H   0  0  0  0  0  0  0  0  0  0  0  0
   -1.4958   18.0779  -35.3549 H   0  0  0  0  0  0  0  0  0  0  0  0
   -1.0757   18.3462  -33.6143 H   0  0  0  0  0  0  0  0  0  0  0  0
   -1.9590   20.7770  -35.0660 H   0  0  0  0  0  0  0  0  0  0  0  0
   -3.0200   17.7027  -35.3127 H   0  0  0  0  0  0  0  0  0  0  0  0
   -4.6302   15.8232  -35.5460 H   0  0  0  0  0  0  0  0  0  0  0  0
   -7.2220   17.6490  -32.6208 H   0  0  0  0  0  0  0  0  0  0  0  0
   -7.0606   20.0299  -30.6433 H   0  0  0  0  0  0  0  0  0  0  0  0
   -7.4883   20.9923  -32.0984 H   0  0  0  0  0  0  0  0  0  0  0  0
   -7.7233   19.2114  -32.0984 H   0  0  0  0  0  0  0  0  0  0  0  0
   -5.8028   21.6704  -30.2792 H   0  0  0  0  0  0  0  0  0  0  0  0
   -5.6557   23.2714  -28.3191 H   0  0  0  0  0  0  0  0  0  0  0  0
   -4.9849   24.9530  -28.3959 H   0  0  0  0  0  0  0  0  0  0  0  0
   -6.6066   23.4694  -30.5072 H   0  0  0  0  0  0  0  0  0  0  0  0
   -7.0041   25.0096  -29.6219 H   0  0  0  0  0  0  0  0  0  0  0  0
   -5.5203   24.6175  -32.1118 H   0  0  0  0  0  0  0  0  0  0  0  0
   -6.1920   26.1224  -31.3686 H   0  0  0  0  0  0  0  0  0  0  0  0
   -3.5490   24.9300  -31.1590 H   0  0  0  0  0  0  0  0  0  0  0  0
   -4.1680   25.6760  -29.7910 H   0  0  0  0  0  0  0  0  0  0  0  0
   -1.9020   23.3443  -31.0627 H   0  0  0  0  0  0  0  0  0  0  0  0
   -1.5445   21.6936  -32.8775 H   0  0  0  0  0  0  0  0  0  0  0  0
  1  2  1  0
  2  3  1  0
  3  4  1  0
  4  5  1  0
  3  6  1  0
  6  7  1  0
  7  8  1  0
  8  9  1  0
  9 10  2  0
 10 11  1  0
 11 12  2  0
 12 13  1  0
 13 14  1  0
 13 15  2  0
 15 16  1  0
 16 17  2  0
 17 18  1  0
 17 19  1  0
 19 20  2  0
 20 21  1  0
 21 22  1  0
 22 23  1  0
 23 24  1  0
 24 25  1  0
 25 26  1  0
 21 27  2  0
 27 28  1  0
 28 29  2  0
 29  9  1  0
 16 10  1  0
 29 19  1  0
  1 30  1  0
  1 31  1  0
  1 32  1  0
  2 33  1  0
  2 34  1  0
  4 35  1  0
  4 36  1  0
  5 37  1  0
  5 38  1  0
  5 39  1  0
  6 40  1  0
  6 41  1  0
  7 42  1  0
  7 43  1  0
  8 44  1  0
 11 45  1  0
 12 46  1  0
 15 47  1  0
 18 48  1  0
 18 49  1  0
 18 50  1  0
 20 51  1  0
 23 52  1  0
 23 53  1  0
 24 54  1  0
 24 55  1  0
 25 56  1  0
 25 57  1  0
 26 58  1  0
 26 59  1  0
 27 60  1  0
 28 61  1  0
M  CHG  1  17   1
M  END
>  <UniqueID>  (43) 
42

>  <SMILES>  (43) 
CCN(CC)CCNc1c2ccc(Cl)cc2[n+](C)c2cc(OCCCN)ccc12

>  <Energy>  (43) 
79.57616995018749

>  <Genealogy>  (43) 
CCN(CC)CCNc1c2ccc(Cl)cc2[n+](C)c2cc(OCCCN)ccc12 (3D coordinates assigned)
CCN(CC)CCNc1c2ccc(Cl)cc2[n+](C)c2cc(OCCCN)ccc12 (optimized conformer: 79.57616995018749 kcal/mol)

>  <smiles>  (43) 
CCN(CC)CCNc1c2ccc(Cl)cc2[n+](C)c2cc(OCCCN)ccc12

>  <score_type>  (43) 
oracle

>  <origin>  (43) 
adg

>  <m_score__min__energy>  (43) 
-7.1900000000000004

>  <m_primary>  (43) 
energy

$$$$
43:0
     RDKit          3D

 47 48  0  0  0  0  0  0  0  0999 V2000
   -1.1890   25.7840  -25.0860 C   0  0  0  0  0  0  0  0  0  0  0  0
   -1.0310   26.0580  -26.5260 N   0  0  0  0  0  0  0  0  0  0  0  0
   -0.4540   27.4000  -26.7040 C   0  0  0  0  0  0  0  0  0  0  0  0
   -0.1720   25.0410  -27.1700 C   0  0  0  0  0  0  0  0  0  0  0  0
   -0.7540   24.6290  -28.5360 C   0  0  0  0  0  0  0  0  0  0  0  0
   -2.0020   25.3450  -28.8500 N   0  0  0  0  0  0  0  0  0  0  0  0
   -3.2060   24.5280  -28.6250 C   0  0  0  0  0  0  0  0  0  0  0  0
   -3.8780   24.1500  -29.9590 C   0  0  2  0  0  0  0  0  0  0  0  0
   -3.8490   25.2370  -30.8500 O   0  0  0  0  0  0  0  0  0  0  0  0
   -5.3190   23.6180  -29.8040 C   0  0  0  0  0  0  0  0  0  0  0  0
   -6.0010   23.5580  -31.0590 O   0  0  0  0  0  0  0  0  0  0  0  0
   -6.9110   22.5680  -31.4730 C   0  0  0  0  0  0  0  0  0  0  0  0
   -8.2580   22.5680  -31.0620 C   0  0  0  0  0  0  0  0  0  0  0  0
   -9.1420   21.5940  -31.5270 C   0  0  0  0  0  0  0  0  0  0  0  0
   -8.6950   20.5970  -32.3940 C   0  0  0  0  0  0  0  0  0  0  0  0
   -7.3530   20.5580  -32.7890 C   0  0  0  0  0  0  0  0  0  0  0  0
   -6.4500   21.5360  -32.3170 C   0  0  0  0  0  0  0  0  0  0  0  0
   -5.0300   21.5460  -32.8470 C   0  0  0  0  0  0  0  0  0  0  0  0
   -4.5020   20.1290  -33.1080 C   0  0  0  0  0  0  0  0  0  0  0  0
   -5.4960   19.3280  -33.8960 C   0  0  0  0  0  0  0  0  0  0  0  0
   -5.1030   18.4440  -34.7030 O   0  0  0  0  0  0  0  0  0  0  0  0
   -6.8950   19.5220  -33.6710 N   0  0  0  0  0  0  0  0  0  0  0  0
   -0.7223   26.5934  -24.5054 H   0  0  0  0  0  0  0  0  0  0  0  0
   -2.2594   25.7258  -24.8391 H   0  0  0  0  0  0  0  0  0  0  0  0
   -0.7032   24.8284  -24.8391 H   0  0  0  0  0  0  0  0  0  0  0  0
   -0.2607   27.8496  -25.7189 H   0  0  0  0  0  0  0  0  0  0  0  0
    0.4901   27.3220  -27.2631 H   0  0  0  0  0  0  0  0  0  0  0  0
   -1.1601   28.0315  -27.2631 H   0  0  0  0  0  0  0  0  0  0  0  0
    0.8351   25.4583  -27.3167 H   0  0  0  0  0  0  0  0  0  0  0  0
   -0.1243   24.1537  -26.5216 H   0  0  0  0  0  0  0  0  0  0  0  0
   -0.0126   24.8505  -29.3179 H   0  0  0  0  0  0  0  0  0  0  0  0
   -0.9839   23.5541  -28.4938 H   0  0  0  0  0  0  0  0  0  0  0  0
   -1.9860   25.6690  -29.8450 H   0  0  0  0  0  0  0  0  0  0  0  0
   -2.9216   23.6083  -28.0929 H   0  0  0  0  0  0  0  0  0  0  0  0
   -3.9198   25.1152  -28.0286 H   0  0  0  0  0  0  0  0  0  0  0  0
   -3.2889   23.3169  -30.3699 H   0  0  0  0  0  0  0  0  0  0  0  0
   -4.4790   25.0380  -31.5920 H   0  0  0  0  0  0  0  0  0  0  0  0
   -5.2808   22.6076  -29.3709 H   0  0  0  0  0  0  0  0  0  0  0  0
   -5.8696   24.3087  -29.1485 H   0  0  0  0  0  0  0  0  0  0  0  0
   -8.6163   23.3428  -30.3682 H   0  0  0  0  0  0  0  0  0  0  0  0
  -10.1948   21.6124  -31.2089 H   0  0  0  0  0  0  0  0  0  0  0  0
   -9.3992   19.8394  -32.7683 H   0  0  0  0  0  0  0  0  0  0  0  0
   -5.0071   22.1124  -33.7897 H   0  0  0  0  0  0  0  0  0  0  0  0
   -4.3873   22.0124  -32.0858 H   0  0  0  0  0  0  0  0  0  0  0  0
   -3.5607   20.1932  -33.6736 H   0  0  0  0  0  0  0  0  0  0  0  0
   -4.3342   19.6312  -32.1416 H   0  0  0  0  0  0  0  0  0  0  0  0
   -7.5820   18.8860  -34.1350 H   0  0  0  0  0  0  0  0  0  0  0  0
  1  2  1  0
  2  3  1  0
  2  4  1  0
  4  5  1  0
  5  6  1  0
  6  7  1  0
  7  8  1  0
  8  9  1  0
  8 10  1  0
 10 11  1  0
 11 12  1  0
 12 13  2  0
 13 14  1  0
 14 15  2  0
 15 16  1  0
 16 17  2  0
 17 18  1  0
 18 19  1  0
 19 20  1  0
 20 21  2  0
 20 22  1  0
 17 12  1  0
 22 16  1  0
  1 23  1  0
  1 24  1  0
  1 25  1  0
  3 26  1  0
  3 27  1  0
  3 28  1  0
  4 29  1  0
  4 30  1  0
  5 31  1  0
  5 32  1  0
  6 33  1  0
  7 34  1  0
  7 35  1  0
  8 36  1  6
  9 37  1  0
 10 38  1  0
 10 39  1  0
 13 40  1  0
 14 41  1  0
 15 42  1  0
 18 43  1  0
 18 44  1  0
 19 45  1  0
 19 46  1  0
 22 47  1  0
M  END
>  <UniqueID>  (44) 
43

>  <SMILES>  (44) 
CN(C)CCNC[C@H](O)COc1cccc2c1CCC(=O)N2

>  <Energy>  (44) 
47.26331719927927

>  <Genealogy>  (44) 
CN(C)CCNC[C@H](O)COc1cccc2c1CCC(=O)N2 (chirality)
CN(C)CCNC[C@H](O)COc1cccc2c1CCC(=O)N2 (3D coordinates assigned)
CN(C)CCNC[C@H](O)COc1cccc2c1CCC(=O)N2 (nonaromatic ring conformer: 47.26331719927927 kcal/mol)

>  <smiles>  (44) 
CN(C)CCNCC(O)COc1cccc2c1CCC(=O)N2

>  <score_type>  (44) 
oracle

>  <origin>  (44) 
adg

>  <m_score__min__energy>  (44) 
-7.8799999999999999

>  <m_primary>  (44) 
energy

$$$$
44:0
     RDKit          3D

 37 38  0  0  0  0  0  0  0  0999 V2000
   -3.1370   23.5630  -28.2850 C   0  0  0  0  0  0  0  0  0  0  0  0
   -2.9010   24.5560  -29.3830 C   0  0  0  0  0  0  0  0  0  0  0  0
   -1.8920   25.3060  -29.3190 O   0  0  0  0  0  0  0  0  0  0  0  0
   -3.8080   24.7060  -30.4820 N   0  0  0  0  0  0  0  0  0  0  0  0
   -4.9110   23.8490  -30.8050 C   0  0  0  0  0  0  0  0  0  0  0  0
   -6.2050   24.3850  -30.8130 C   0  0  0  0  0  0  0  0  0  0  0  0
   -7.3000   23.5840  -31.1500 C   0  0  0  0  0  0  0  0  0  0  0  0
   -7.1100   22.2420  -31.5050 C   0  0  0  0  0  0  0  0  0  0  0  0
   -8.4920   21.2400  -31.9360 S   0  0  0  0  0  0  0  0  0  0  0  0
   -9.0060   20.5710  -30.6930 O   0  0  0  0  0  0  0  0  0  0  0  0
   -9.5930   22.0840  -32.5140 O   0  0  0  0  0  0  0  0  0  0  0  0
   -8.0250   20.0120  -33.0760 N   0  0  0  0  0  0  0  0  0  0  0  0
   -7.1990   19.0310  -32.8340 C   0  0  0  0  0  0  0  0  0  0  0  0
   -6.9770   18.5200  -31.4570 C   0  0  0  0  0  0  0  0  0  0  0  0
   -6.2520   17.1930  -31.6820 C   0  0  0  0  0  0  0  0  0  0  0  0
   -6.3510   16.9020  -33.1850 C   0  0  0  0  0  0  0  0  0  0  0  0
   -6.6390   18.1770  -33.8290 N   0  0  0  0  0  0  0  0  0  0  0  0
   -5.7120   18.6800  -34.8430 C   0  0  0  0  0  0  0  0  0  0  0  0
   -5.8140   21.7090  -31.5220 C   0  0  0  0  0  0  0  0  0  0  0  0
   -4.7190   22.5090  -31.1850 C   0  0  0  0  0  0  0  0  0  0  0  0
   -3.0191   24.0591  -27.3104 H   0  0  0  0  0  0  0  0  0  0  0  0
   -4.1563   23.1583  -28.3695 H   0  0  0  0  0  0  0  0  0  0  0  0
   -2.4087   22.7429  -28.3695 H   0  0  0  0  0  0  0  0  0  0  0  0
   -6.3605   25.4424  -30.5526 H   0  0  0  0  0  0  0  0  0  0  0  0
   -8.3145   24.0089  -31.1364 H   0  0  0  0  0  0  0  0  0  0  0  0
   -8.3600   20.1500  -34.0550 H   0  0  0  0  0  0  0  0  0  0  0  0
   -6.3536   19.2150  -30.8753 H   0  0  0  0  0  0  0  0  0  0  0  0
   -7.9104   18.4071  -30.8860 H   0  0  0  0  0  0  0  0  0  0  0  0
   -5.1981   17.2778  -31.3784 H   0  0  0  0  0  0  0  0  0  0  0  0
   -6.7008   16.3845  -31.0863 H   0  0  0  0  0  0  0  0  0  0  0  0
   -5.4002   16.4931  -33.5575 H   0  0  0  0  0  0  0  0  0  0  0  0
   -7.1343   16.1598  -33.3983 H   0  0  0  0  0  0  0  0  0  0  0  0
   -4.8479   19.1489  -34.3495 H   0  0  0  0  0  0  0  0  0  0  0  0
   -5.3672   17.8452  -35.4709 H   0  0  0  0  0  0  0  0  0  0  0  0
   -6.2239   19.4241  -35.4709 H   0  0  0  0  0  0  0  0  0  0  0  0
   -5.6581   20.6567  -31.8018 H   0  0  0  0  0  0  0  0  0  0  0  0
   -3.7029   22.0888  -31.2171 H   0  0  0  0  0  0  0  0  0  0  0  0
  1  2  1  0
  2  3  2  0
  2  4  1  0
  4  5  1  0
  5  6  2  0
  6  7  1  0
  7  8  2  0
  8  9  1  0
  9 10  2  0
  9 11  2  0
  9 12  1  0
 12 13  2  3
 13 14  1  0
 14 15  1  0
 15 16  1  0
 16 17  1  0
 17 18  1  0
  8 19  1  0
 19 20  2  0
 20  5  1  0
 17 13  1  0
  1 21  1  0
  1 22  1  0
  1 23  1  0
  6 24  1  0
  7 25  1  0
 12 26  1  0
 14 27  1  0
 14 28  1  0
 15 29  1  0
 15 30  1  0
 16 31  1  0
 16 32  1  0
 18 33  1  0
 18 34  1  0
 18 35  1  0
 19 36  1  0
 20 37  1  0
M  CHG  2   4  -1  12   1
M  END
>  <UniqueID>  (45) 
44

>  <SMILES>  (45) 
CC(=O)[N-]c1ccc(S(=O)(=O)[NH+]=C2CCCN2C)cc1

>  <Energy>  (45) 
53.70933849393866

>  <Genealogy>  (45) 
CC(=O)[N-]c1ccc(S(=O)(=O)[NH+]=C2CCCN2C)cc1 (protonated)
CC(=O)[N-]c1ccc(S(=O)(=O)[NH+]=C2CCCN2C)cc1 (3D coordinates assigned)
CC(=O)[N-]c1ccc(S(=O)(=O)[NH+]=C2CCCN2C)cc1 (nonaromatic ring conformer: 53.70933849393866 kcal/mol)

>  <smiles>  (45) 
CC(=O)Nc1ccc(S(=O)(=O)N=C2CCCN2C)cc1

>  <score_type>  (45) 
oracle

>  <origin>  (45) 
adg

>  <m_score__min__energy>  (45) 
-9.5700000000000003

>  <m_primary>  (45) 
energy

$$$$
