0:0
     RDKit          3D

 42 45  0  0  0  0  0  0  0  0999 V2000
   -8.6270   19.2000  -31.5730 C   0  0  0  0  0  0  0  0  0  0  0  0
   -8.4080   20.8700  -32.2590 S   0  0  0  0  0  0  0  0  0  0  0  0
   -6.6080   20.7870  -32.1860 C   0  0  0  0  0  0  0  0  0  0  0  0
   -5.9600   21.6070  -31.3110 N   0  0  0  0  0  0  0  0  0  0  0  0
   -4.6000   21.6140  -31.1870 C   0  0  0  0  0  0  0  0  0  0  0  0
   -3.9430   22.5390  -30.2290 C   0  0  0  0  0  0  0  0  0  0  0  0
   -4.7020   23.2620  -29.2910 C   0  0  0  0  0  0  0  0  0  0  0  0
   -4.0790   24.1330  -28.3940 C   0  0  0  0  0  0  0  0  0  0  0  0
   -2.6830   24.3010  -28.4140 C   0  0  0  0  0  0  0  0  0  0  0  0
   -2.0200   25.2270  -27.4590 C   0  0  0  0  0  0  0  0  0  0  0  0
   -2.4600   25.3140  -26.1240 C   0  0  0  0  0  0  0  0  0  0  0  0
   -1.8340   26.1860  -25.2280 C   0  0  0  0  0  0  0  0  0  0  0  0
   -0.7670   26.9800  -25.6520 C   0  0  0  0  0  0  0  0  0  0  0  0
   -0.3210   26.9040  -26.9740 C   0  0  0  0  0  0  0  0  0  0  0  0
   -0.9440   26.0320  -27.8740 C   0  0  0  0  0  0  0  0  0  0  0  0
   -1.9250   23.5790  -29.3510 C   0  0  0  0  0  0  0  0  0  0  0  0
   -2.5480   22.7080  -30.2490 C   0  0  0  0  0  0  0  0  0  0  0  0
   -3.8300   20.7500  -31.9770 C   0  0  0  0  0  0  0  0  0  0  0  0
   -4.4580   19.8910  -32.8840 C   0  0  0  0  0  0  0  0  0  0  0  0
   -3.6950   19.0220  -33.6820 C   0  0  0  0  0  0  0  0  0  0  0  0
   -4.3240   18.1650  -34.5870 C   0  0  0  0  0  0  0  0  0  0  0  0
   -5.7140   18.1680  -34.7050 C   0  0  0  0  0  0  0  0  0  0  0  0
   -6.4860   19.0260  -33.9180 C   0  0  0  0  0  0  0  0  0  0  0  0
   -5.8690   19.8990  -32.9990 C   0  0  0  0  0  0  0  0  0  0  0  0
   -8.6203   19.2512  -30.4742 H   0  0  0  0  0  0  0  0  0  0  0  0
   -9.5871   18.7861  -31.9149 H   0  0  0  0  0  0  0  0  0  0  0  0
   -7.8061   18.5526  -31.9149 H   0  0  0  0  0  0  0  0  0  0  0  0
   -6.5350   22.2360  -30.7070 H   0  0  0  0  0  0  0  0  0  0  0  0
   -5.7949   23.1405  -29.2636 H   0  0  0  0  0  0  0  0  0  0  0  0
   -4.6854   24.6920  -27.6661 H   0  0  0  0  0  0  0  0  0  0  0  0
   -3.3013   24.6921  -25.7841 H   0  0  0  0  0  0  0  0  0  0  0  0
   -2.1831   26.2465  -24.1866 H   0  0  0  0  0  0  0  0  0  0  0  0
   -0.2771   27.6658  -24.9451 H   0  0  0  0  0  0  0  0  0  0  0  0
    0.5200   27.5297  -27.3074 H   0  0  0  0  0  0  0  0  0  0  0  0
   -0.5895   25.9758  -28.9138 H   0  0  0  0  0  0  0  0  0  0  0  0
   -0.8320   23.7003  -29.3781 H   0  0  0  0  0  0  0  0  0  0  0  0
   -1.9414   22.1501  -30.9775 H   0  0  0  0  0  0  0  0  0  0  0  0
   -2.7340   20.7476  -31.8838 H   0  0  0  0  0  0  0  0  0  0  0  0
   -2.5986   19.0169  -33.5934 H   0  0  0  0  0  0  0  0  0  0  0  0
   -3.7221   17.4857  -35.2085 H   0  0  0  0  0  0  0  0  0  0  0  0
   -6.2043   17.4918  -35.4208 H   0  0  0  0  0  0  0  0  0  0  0  0
   -7.5816   19.0204  -34.0159 H   0  0  0  0  0  0  0  0  0  0  0  0
  1  2  1  0
  2  3  1  0
  3  4  2  0
  4  5  1  0
  5  6  1  0
  6  7  2  0
  7  8  1  0
  8  9  2  0
  9 10  1  0
 10 11  2  0
 11 12  1  0
 12 13  2  0
 13 14  1  0
 14 15  2  0
  9 16  1  0
 16 17  2  0
  5 18  2  0
 18 19  1  0
 19 20  2  0
 20 21  1  0
 21 22  2  0
 22 23  1  0
 23 24  2  0
 24  3  1  0
 17  6  1  0
 24 19  1  0
 15 10  1  0
  1 25  1  0
  1 26  1  0
  1 27  1  0
  4 28  1  0
  7 29  1  0
  8 30  1  0
 11 31  1  0
 12 32  1  0
 13 33  1  0
 14 34  1  0
 15 35  1  0
 16 36  1  0
 17 37  1  0
 18 38  1  0
 20 39  1  0
 21 40  1  0
 22 41  1  0
 23 42  1  0
M  CHG  1   4   1
M  END
>  <UniqueID>  (1) 
1

>  <SMILES>  (1) 
CSc1[nH+]c(-c2ccc(-c3ccccc3)cc2)cc2ccccc12

>  <Energy>  (1) 
57.722602589310355

>  <Genealogy>  (1) 
CSc1[nH+]c(-c2ccc(-c3ccccc3)cc2)cc2ccccc12 (protonated)
CSc1[nH+]c(-c2ccc(-c3ccccc3)cc2)cc2ccccc12 (3D coordinates assigned)
CSc1[nH+]c(-c2ccc(-c3ccccc3)cc2)cc2ccccc12 (optimized conformer: 57.722602589310355 kcal/mol)

>  <smiles>  (1) 
CSc1nc(-c2ccc(-c3ccccc3)cc2)cc2ccccc12

>  <score_type>  (1) 
oracle

>  <origin>  (1) 
adg

>  <m_score__min__energy>  (1) 
-7.8099999999999996

>  <m_primary>  (1) 
energy

$$$$
1:0
     RDKit          3D

 59 61  0  0  0  0  0  0  0  0999 V2000
   -1.6180   23.0480  -30.1120 C   0  0  0  0  0  0  0  0  0  0  0  0
   -3.0100   22.6260  -29.8850 N   0  0  0  0  0  0  0  0  0  0  0  0
   -3.1030   21.1740  -29.6760 C   0  0  0  0  0  0  0  0  0  0  0  0
   -3.6920   23.4180  -28.8360 C   0  0  0  0  0  0  0  0  0  0  0  0
   -4.6320   24.5300  -29.3610 C   0  0  0  0  0  0  0  0  0  0  0  0
   -4.5220   24.6610  -30.8220 N   0  0  0  0  0  0  0  0  0  0  0  0
   -5.8450   24.6640  -31.4660 C   0  0  0  0  0  0  0  0  0  0  0  0
   -6.0290   23.4280  -32.3520 C   0  0  0  0  0  0  0  0  0  0  0  0
   -5.1880   22.3200  -31.8970 N   0  0  0  0  0  0  0  0  0  0  0  0
   -5.3650   21.0080  -32.4480 C   0  0  0  0  0  0  0  0  0  0  0  0
   -6.6020   20.3560  -32.3260 C   0  0  0  0  0  0  0  0  0  0  0  0
   -7.6650   20.9530  -31.6160 C   0  0  0  0  0  0  0  0  0  0  0  0
   -8.8750   20.2840  -31.4520 C   0  0  0  0  0  0  0  0  0  0  0  0
   -9.0410   19.0090  -31.9810 C   0  0  0  0  0  0  0  0  0  0  0  0
   -8.0110   18.4070  -32.7030 C   0  0  0  0  0  0  0  0  0  0  0  0
   -6.7820   19.0820  -32.9240 C   0  0  0  0  0  0  0  0  0  0  0  0
   -5.7710   18.5260  -33.6870 N   0  0  0  0  0  0  0  0  0  0  0  0
   -6.0520   17.3540  -34.5470 C   0  0  0  0  0  0  0  0  0  0  0  0
   -4.5040   19.0810  -33.6650 C   0  0  0  0  0  0  0  0  0  0  0  0
   -3.3860   18.4090  -34.2130 C   0  0  0  0  0  0  0  0  0  0  0  0
   -2.1200   18.9920  -34.2180 C   0  0  0  0  0  0  0  0  0  0  0  0
   -1.9030   20.2600  -33.6550 C   0  0  0  0  0  0  0  0  0  0  0  0
   -0.5790   20.8640  -33.6580 N   0  0  0  0  0  0  0  0  0  0  0  0
    0.2560   20.8480  -32.4480 C   0  0  0  0  0  0  0  0  0  0  0  0
   -0.0490   21.5020  -34.8700 C   0  0  0  0  0  0  0  0  0  0  0  0
   -3.0010   20.9190  -33.0700 C   0  0  0  0  0  0  0  0  0  0  0  0
   -4.2890   20.3460  -33.0650 C   0  0  0  0  0  0  0  0  0  0  0  0
   -1.1183   23.1995  -29.1438 H   0  0  0  0  0  0  0  0  0  0  0  0
   -1.0872   22.2704  -30.6809 H   0  0  0  0  0  0  0  0  0  0  0  0
   -1.6084   23.9894  -30.6809 H   0  0  0  0  0  0  0  0  0  0  0  0
   -3.1168   20.9590  -28.5973 H   0  0  0  0  0  0  0  0  0  0  0  0
   -4.0272   20.7956  -30.1371 H   0  0  0  0  0  0  0  0  0  0  0  0
   -2.2346   20.6808  -30.1371 H   0  0  0  0  0  0  0  0  0  0  0  0
   -4.2897   22.7279  -28.2223 H   0  0  0  0  0  0  0  0  0  0  0  0
   -2.8975   23.9289  -28.2722 H   0  0  0  0  0  0  0  0  0  0  0  0
   -5.6702   24.2781  -29.0988 H   0  0  0  0  0  0  0  0  0  0  0  0
   -4.3409   25.4848  -28.8987 H   0  0  0  0  0  0  0  0  0  0  0  0
   -4.0030   23.8280  -31.1840 H   0  0  0  0  0  0  0  0  0  0  0  0
   -6.6232   24.6680  -30.6885 H   0  0  0  0  0  0  0  0  0  0  0  0
   -5.9248   25.5615  -32.0969 H   0  0  0  0  0  0  0  0  0  0  0  0
   -7.0832   23.1157  -32.3176 H   0  0  0  0  0  0  0  0  0  0  0  0
   -5.7348   23.6892  -33.3792 H   0  0  0  0  0  0  0  0  0  0  0  0
   -4.5390   22.4370  -31.0860 H   0  0  0  0  0  0  0  0  0  0  0  0
   -7.5364   21.9579  -31.1874 H   0  0  0  0  0  0  0  0  0  0  0  0
   -9.6993   20.7640  -30.9041 H   0  0  0  0  0  0  0  0  0  0  0  0
   -9.9893   18.4726  -31.8293 H   0  0  0  0  0  0  0  0  0  0  0  0
   -8.1530   17.3939  -33.1073 H   0  0  0  0  0  0  0  0  0  0  0  0
   -6.2620   16.4780  -33.9158 H   0  0  0  0  0  0  0  0  0  0  0  0
   -6.9248   17.5661  -35.1821 H   0  0  0  0  0  0  0  0  0  0  0  0
   -5.1780   17.1472  -35.1821 H   0  0  0  0  0  0  0  0  0  0  0  0
   -3.5187   17.4057  -34.6440 H   0  0  0  0  0  0  0  0  0  0  0  0
   -1.2767   18.4497  -34.6706 H   0  0  0  0  0  0  0  0  0  0  0  0
   -0.3891   20.8604  -31.5571 H   0  0  0  0  0  0  0  0  0  0  0  0
    0.8737   19.9379  -32.4408 H   0  0  0  0  0  0  0  0  0  0  0  0
    0.9081   21.7338  -32.4408 H   0  0  0  0  0  0  0  0  0  0  0  0
    0.6302   22.3196  -34.5869 H   0  0  0  0  0  0  0  0  0  0  0  0
    0.5007   20.7582  -35.4654 H   0  0  0  0  0  0  0  0  0  0  0  0
   -0.8810   21.9060  -35.4654 H   0  0  0  0  0  0  0  0  0  0  0  0
   -2.8502   21.9047  -32.6057 H   0  0  0  0  0  0  0  0  0  0  0  0
  1  2  1  0
  2  3  1  0
  2  4  1  0
  4  5  1  0
  5  6  1  0
  6  7  1  0
  7  8  1  0
  8  9  1  0
  9 10  1  0
 10 11  2  0
 11 12  1  0
 12 13  2  0
 13 14  1  0
 14 15  2  0
 15 16  1  0
 16 17  2  0
 17 18  1  0
 17 19  1  0
 19 20  2  0
 20 21  1  0
 21 22  2  0
 22 23  1  0
 23 24  1  0
 23 25  1  0
 22 26  1  0
 26 27  2  0
 27 10  1  0
 16 11  1  0
 27 19  1  0
  1 28  1  0
  1 29  1  0
  1 30  1  0
  3 31  1  0
  3 32  1  0
  3 33  1  0
  4 34  1  0
  4 35  1  0
  5 36  1  0
  5 37  1  0
  6 38  1  0
  7 39  1  0
  7 40  1  0
  8 41  1  0
  8 42  1  0
  9 43  1  0
 12 44  1  0
 13 45  1  0
 14 46  1  0
 15 47  1  0
 18 48  1  0
 18 49  1  0
 18 50  1  0
 20 51  1  0
 21 52  1  0
 24 53  1  0
 24 54  1  0
 24 55  1  0
 25 56  1  0
 25 57  1  0
 25 58  1  0
 26 59  1  0
M  CHG  1  17   1
M  END
>  <UniqueID>  (2) 
2

>  <SMILES>  (2) 
CN(C)CCNCCNc1c2ccccc2[n+](C)c2ccc(N(C)C)cc12

>  <Energy>  (2) 
87.9718417244538

>  <Genealogy>  (2) 
CN(C)CCNCCNc1c2ccccc2[n+](C)c2ccc(N(C)C)cc12 (3D coordinates assigned)
CN(C)CCNCCNc1c2ccccc2[n+](C)c2ccc(N(C)C)cc12 (optimized conformer: 87.9718417244538 kcal/mol)

>  <smiles>  (2) 
CN(C)CCNCCNc1c2ccccc2[n+](C)c2ccc(N(C)C)cc12

>  <score_type>  (2) 
oracle

>  <origin>  (2) 
adg

>  <m_score__min__energy>  (2) 
-9.0099999999999998

>  <m_primary>  (2) 
energy

$$$$
2:0
     RDKit          3D

 43 46  0  0  0  0  0  0  0  0999 V2000
   -5.9270   18.8370  -34.9500 C   0  0  0  0  0  0  0  0  0  0  0  0
   -6.2770   19.6880  -33.7720 C   0  0  0  0  0  0  0  0  0  0  0  0
   -7.5460   19.9940  -33.4060 N   0  0  0  0  0  0  0  0  0  0  0  0
   -7.5110   20.7870  -32.3410 N   0  0  0  0  0  0  0  0  0  0  0  0
   -8.6780   21.4120  -31.7280 C   0  0  0  0  0  0  0  0  0  0  0  0
   -6.2220   21.0000  -32.0310 C   0  0  0  0  0  0  0  0  0  0  0  0
   -5.7380   21.8110  -31.0600 N   0  0  0  0  0  0  0  0  0  0  0  0
   -4.3800   21.9340  -30.9280 C   0  0  0  0  0  0  0  0  0  0  0  0
   -3.8090   22.8100  -29.8750 C   0  0  0  0  0  0  0  0  0  0  0  0
   -2.4350   23.1200  -29.8690 C   0  0  0  0  0  0  0  0  0  0  0  0
   -1.8990   23.9460  -28.8770 C   0  0  0  0  0  0  0  0  0  0  0  0
   -2.7240   24.4710  -27.8790 C   0  0  0  0  0  0  0  0  0  0  0  0
   -1.9890   25.5990  -26.5240 Br  0  0  0  0  0  0  0  0  0  0  0  0
   -4.0890   24.1700  -27.8740 C   0  0  0  0  0  0  0  0  0  0  0  0
   -4.6300   23.3450  -28.8640 C   0  0  0  0  0  0  0  0  0  0  0  0
   -3.5480   21.2440  -31.7750 N   0  0  0  0  0  0  0  0  0  0  0  0
   -4.0280   20.4260  -32.7590 C   0  0  0  0  0  0  0  0  0  0  0  0
   -3.1200   19.7050  -33.6050 N   0  0  0  0  0  0  0  0  0  0  0  0
   -2.9820   18.2570  -33.4480 C   0  0  0  0  0  0  0  0  0  0  0  0
   -1.6320   17.9620  -32.7830 C   0  0  0  0  0  0  0  0  0  0  0  0
   -0.5710   18.5570  -33.5100 O   0  0  0  0  0  0  0  0  0  0  0  0
   -0.7020   19.9690  -33.5000 C   0  0  0  0  0  0  0  0  0  0  0  0
   -1.9870   20.4000  -34.2150 C   0  0  0  0  0  0  0  0  0  0  0  0
   -5.4110   20.3160  -32.8860 C   0  0  0  0  0  0  0  0  0  0  0  0
   -5.5303   17.8724  -34.6005 H   0  0  0  0  0  0  0  0  0  0  0  0
   -6.8272   18.6646  -35.5582 H   0  0  0  0  0  0  0  0  0  0  0  0
   -5.1659   19.3478  -35.5582 H   0  0  0  0  0  0  0  0  0  0  0  0
   -8.4200   19.6880  -33.8900 H   0  0  0  0  0  0  0  0  0  0  0  0
   -8.5872   21.3633  -30.6328 H   0  0  0  0  0  0  0  0  0  0  0  0
   -8.7394   22.4637  -32.0445 H   0  0  0  0  0  0  0  0  0  0  0  0
   -9.5874   20.8802  -32.0445 H   0  0  0  0  0  0  0  0  0  0  0  0
   -1.7791   22.7091  -30.6506 H   0  0  0  0  0  0  0  0  0  0  0  0
   -0.8249   24.1833  -28.8820 H   0  0  0  0  0  0  0  0  0  0  0  0
   -4.7391   24.5835  -27.0889 H   0  0  0  0  0  0  0  0  0  0  0  0
   -5.7050   23.1120  -28.8532 H   0  0  0  0  0  0  0  0  0  0  0  0
   -3.7973   17.8736  -32.8169 H   0  0  0  0  0  0  0  0  0  0  0  0
   -3.0309   17.7666  -34.4314 H   0  0  0  0  0  0  0  0  0  0  0  0
   -1.6385   18.3655  -31.7597 H   0  0  0  0  0  0  0  0  0  0  0  0
   -1.4790   16.8728  -32.7648 H   0  0  0  0  0  0  0  0  0  0  0  0
   -0.7331   20.3212  -32.4584 H   0  0  0  0  0  0  0  0  0  0  0  0
    0.1589   20.4073  -34.0261 H   0  0  0  0  0  0  0  0  0  0  0  0
   -2.1208   21.4870  -34.1121 H   0  0  0  0  0  0  0  0  0  0  0  0
   -1.9238   20.1467  -35.2836 H   0  0  0  0  0  0  0  0  0  0  0  0
  1  2  1  0
  2  3  2  0
  3  4  1  0
  4  5  1  0
  4  6  1  0
  6  7  2  0
  7  8  1  0
  8  9  1  0
  9 10  2  0
 10 11  1  0
 11 12  2  0
 12 13  1  0
 12 14  1  0
 14 15  2  0
  8 16  2  0
 16 17  1  0
 17 18  1  0
 18 19  1  0
 19 20  1  0
 20 21  1  0
 21 22  1  0
 22 23  1  0
 17 24  2  0
 24  2  1  0
 24  6  1  0
 15  9  1  0
 23 18  1  0
  1 25  1  0
  1 26  1  0
  1 27  1  0
  3 28  1  0
  5 29  1  0
  5 30  1  0
  5 31  1  0
 10 32  1  0
 11 33  1  0
 14 34  1  0
 15 35  1  0
 19 36  1  0
 19 37  1  0
 20 38  1  0
 20 39  1  0
 22 40  1  0
 22 41  1  0
 23 42  1  0
 23 43  1  0
M  CHG  1   3   1
M  END
>  <UniqueID>  (3) 
3

>  <SMILES>  (3) 
Cc1[nH+]n(C)c2nc(-c3ccc(Br)cc3)nc(N3CCOCC3)c12

>  <Energy>  (3) 
94.73355324468123

>  <Genealogy>  (3) 
Cc1[nH+]n(C)c2nc(-c3ccc(Br)cc3)nc(N3CCOCC3)c12 (protonated)
Cc1[nH+]n(C)c2nc(-c3ccc(Br)cc3)nc(N3CCOCC3)c12 (3D coordinates assigned)
Cc1[nH+]n(C)c2nc(-c3ccc(Br)cc3)nc(N3CCOCC3)c12 (nonaromatic ring conformer: 94.73355324468123 kcal/mol)

>  <smiles>  (3) 
Cc1nn(C)c2nc(-c3ccc(Br)cc3)nc(N3CCOCC3)c12

>  <score_type>  (3) 
oracle

>  <origin>  (3) 
adg

>  <m_score__min__energy>  (3) 
-6.9900000000000002

>  <m_primary>  (3) 
energy

$$$$
3:0
     RDKit          3D

 41 42  0  0  0  0  0  0  0  0999 V2000
   -0.4420   23.1790  -27.8620 C   0  0  0  0  0  0  0  0  0  0  0  0
   -0.5480   24.1290  -29.0530 C   0  0  0  0  0  0  0  0  0  0  0  0
   -1.6010   25.1410  -28.8130 N   0  0  0  0  0  0  0  0  0  0  0  0
   -1.2050   26.0280  -27.7040 C   0  0  0  0  0  0  0  0  0  0  0  0
   -2.9110   24.5090  -28.5310 C   0  0  0  0  0  0  0  0  0  0  0  0
   -3.6090   24.1310  -29.8380 C   0  0  0  0  0  0  0  0  0  0  0  0
   -3.9090   25.2980  -30.5810 O   0  0  0  0  0  0  0  0  0  0  0  0
   -5.2780   25.6240  -30.4680 C   0  0  0  0  0  0  0  0  0  0  0  0
   -6.0550   24.4300  -29.9170 C   0  0  0  0  0  0  0  0  0  0  0  0
   -6.8840   23.8490  -30.9250 O   0  0  0  0  0  0  0  0  0  0  0  0
   -6.5810   22.7040  -31.6800 C   0  0  0  0  0  0  0  0  0  0  0  0
   -5.2760   22.3860  -32.1360 C   0  0  0  0  0  0  0  0  0  0  0  0
   -5.0460   21.2160  -32.8940 C   0  0  0  0  0  0  0  0  0  0  0  0
   -6.1060   20.3500  -33.2110 C   0  0  0  0  0  0  0  0  0  0  0  0
   -7.3790   20.6860  -32.7560 C   0  0  0  0  0  0  0  0  0  0  0  0
   -8.5200   20.0030  -32.9480 N   0  0  0  0  0  0  0  0  0  0  0  0
   -9.4850   20.7150  -32.3240 C   0  0  0  0  0  0  0  0  0  0  0  0
   -8.9540   21.8560  -31.7320 C   0  0  0  0  0  0  0  0  0  0  0  0
   -7.6060   21.8200  -32.0210 C   0  0  0  0  0  0  0  0  0  0  0  0
   -0.5062   23.7547  -26.9269 H   0  0  0  0  0  0  0  0  0  0  0  0
   -1.2643   22.4494  -27.9006 H   0  0  0  0  0  0  0  0  0  0  0  0
    0.5209   22.6486  -27.9006 H   0  0  0  0  0  0  0  0  0  0  0  0
    0.4167   24.6371  -29.1984 H   0  0  0  0  0  0  0  0  0  0  0  0
   -0.8084   23.5487  -29.9505 H   0  0  0  0  0  0  0  0  0  0  0  0
   -1.4245   25.5362  -26.7449 H   0  0  0  0  0  0  0  0  0  0  0  0
   -0.1274   26.2386  -27.7698 H   0  0  0  0  0  0  0  0  0  0  0  0
   -1.7676   26.9709  -27.7698 H   0  0  0  0  0  0  0  0  0  0  0  0
   -2.7545   23.6026  -27.9277 H   0  0  0  0  0  0  0  0  0  0  0  0
   -3.5421   25.2227  -27.9812 H   0  0  0  0  0  0  0  0  0  0  0  0
   -2.9470   23.4821  -30.4302 H   0  0  0  0  0  0  0  0  0  0  0  0
   -4.5438   23.5990  -29.6077 H   0  0  0  0  0  0  0  0  0  0  0  0
   -5.3937   26.4798  -29.7867 H   0  0  0  0  0  0  0  0  0  0  0  0
   -5.6710   25.8831  -31.4622 H   0  0  0  0  0  0  0  0  0  0  0  0
   -5.3430   23.6730  -29.5565 H   0  0  0  0  0  0  0  0  0  0  0  0
   -6.6963   24.7789  -29.0942 H   0  0  0  0  0  0  0  0  0  0  0  0
   -4.4364   23.0556  -31.8976 H   0  0  0  0  0  0  0  0  0  0  0  0
   -4.0282   20.9811  -33.2389 H   0  0  0  0  0  0  0  0  0  0  0  0
   -5.9362   19.4363  -33.7994 H   0  0  0  0  0  0  0  0  0  0  0  0
   -8.6400   19.1070  -33.4710 H   0  0  0  0  0  0  0  0  0  0  0  0
  -10.5470   20.4303  -32.2892 H   0  0  0  0  0  0  0  0  0  0  0  0
   -9.4935   22.6227  -31.1566 H   0  0  0  0  0  0  0  0  0  0  0  0
  1  2  1  0
  2  3  1  0
  3  4  1  0
  3  5  1  0
  5  6  1  0
  6  7  1  0
  7  8  1  0
  8  9  1  0
  9 10  1  0
 10 11  1  0
 11 12  2  0
 12 13  1  0
 13 14  2  0
 14 15  1  0
 15 16  1  0
 16 17  1  0
 17 18  2  0
 18 19  1  0
 19 11  1  0
 19 15  2  0
  1 20  1  0
  1 21  1  0
  1 22  1  0
  2 23  1  0
  2 24  1  0
  4 25  1  0
  4 26  1  0
  4 27  1  0
  5 28  1  0
  5 29  1  0
  6 30  1  0
  6 31  1  0
  8 32  1  0
  8 33  1  0
  9 34  1  0
  9 35  1  0
 12 36  1  0
 13 37  1  0
 14 38  1  0
 16 39  1  0
 17 40  1  0
 18 41  1  0
M  END
>  <UniqueID>  (4) 
4

>  <SMILES>  (4) 
CCN(C)CCOCCOc1cccc2[nH]ccc12

>  <Energy>  (4) 
72.16250934323214

>  <Genealogy>  (4) 
CCN(C)CCOCCOc1cccc2[nH]ccc12 (3D coordinates assigned)
CCN(C)CCOCCOc1cccc2[nH]ccc12 (optimized conformer: 72.16250934323214 kcal/mol)

>  <smiles>  (4) 
CCN(C)CCOCCOc1cccc2[nH]ccc12

>  <score_type>  (4) 
oracle

>  <origin>  (4) 
adg

>  <m_score__min__energy>  (4) 
-6.8200000000000003

>  <m_primary>  (4) 
energy

$$$$
4:0
     RDKit          3D

 49 51  0  0  0  0  0  0  0  0999 V2000
   -7.4410   23.4480  -31.0940 C   0  0  0  0  0  0  0  0  0  0  0  0
   -6.5840   23.7870  -32.3100 C   0  0  0  0  0  0  0  0  0  0  0  0
   -5.2850   24.1780  -31.9060 O   0  0  0  0  0  0  0  0  0  0  0  0
   -4.9920   23.7200  -30.5990 C   0  0  0  0  0  0  0  0  0  0  0  0
   -4.5680   24.8880  -29.7130 C   0  0  0  0  0  0  0  0  0  0  0  0
   -3.1600   24.9760  -29.7250 O   0  0  0  0  0  0  0  0  0  0  0  0
   -2.6030   24.5170  -28.5020 C   0  0  0  0  0  0  0  0  0  0  0  0
   -1.1210   24.1980  -28.7390 C   0  0  0  0  0  0  0  0  0  0  0  0
   -0.9350   23.0620  -29.7720 C   0  0  0  0  0  0  0  0  0  0  0  0
   -2.1980   22.3310  -30.0290 N   0  0  0  0  0  0  0  0  0  0  0  0
   -1.9790   21.1590  -30.8970 C   0  0  0  0  0  0  0  0  0  0  0  0
   -3.1850   20.9440  -31.7540 C   0  0  0  0  0  0  0  0  0  0  0  0
   -3.2510   21.2340  -33.0670 N   0  0  0  0  0  0  0  0  0  0  0  0
   -4.4660   20.8800  -33.4610 N   0  0  0  0  0  0  0  0  0  0  0  0
   -5.0900   20.3840  -32.3740 C   0  0  0  0  0  0  0  0  0  0  0  0
   -6.4720   19.8690  -32.3590 C   0  0  0  0  0  0  0  0  0  0  0  0
   -6.7410   18.5400  -31.9870 C   0  0  0  0  0  0  0  0  0  0  0  0
   -8.0570   18.0670  -31.9690 C   0  0  0  0  0  0  0  0  0  0  0  0
   -9.1120   18.9110  -32.3250 C   0  0  0  0  0  0  0  0  0  0  0  0
   -8.8530   20.2300  -32.7020 C   0  0  0  0  0  0  0  0  0  0  0  0
   -7.5400   20.7100  -32.7190 C   0  0  0  0  0  0  0  0  0  0  0  0
   -4.3050   20.4170  -31.3240 O   0  0  0  0  0  0  0  0  0  0  0  0
   -2.8560   21.9690  -28.7620 C   0  0  0  0  0  0  0  0  0  0  0  0
   -3.3370   23.2410  -28.0300 C   0  0  0  0  0  0  0  0  0  0  0  0
   -6.8784   23.6706  -30.1754 H   0  0  0  0  0  0  0  0  0  0  0  0
   -8.3616   24.0497  -31.1150 H   0  0  0  0  0  0  0  0  0  0  0  0
   -7.7009   22.3793  -31.1150 H   0  0  0  0  0  0  0  0  0  0  0  0
   -6.5104   22.9022  -32.9593 H   0  0  0  0  0  0  0  0  0  0  0  0
   -7.0530   24.6190  -32.8557 H   0  0  0  0  0  0  0  0  0  0  0  0
   -5.8876   23.2459  -30.1710 H   0  0  0  0  0  0  0  0  0  0  0  0
   -4.1692   22.9917  -30.6503 H   0  0  0  0  0  0  0  0  0  0  0  0
   -5.0007   25.8224  -30.0999 H   0  0  0  0  0  0  0  0  0  0  0  0
   -4.9251   24.7279  -28.6850 H   0  0  0  0  0  0  0  0  0  0  0  0
   -2.7107   25.2910  -27.7278 H   0  0  0  0  0  0  0  0  0  0  0  0
   -0.6172   25.1026  -29.1103 H   0  0  0  0  0  0  0  0  0  0  0  0
   -0.6862   23.8662  -27.7846 H   0  0  0  0  0  0  0  0  0  0  0  0
   -0.5781   23.4969  -30.7172 H   0  0  0  0  0  0  0  0  0  0  0  0
   -0.2067   22.3468  -29.3620 H   0  0  0  0  0  0  0  0  0  0  0  0
   -1.1011   21.3345  -31.5361 H   0  0  0  0  0  0  0  0  0  0  0  0
   -1.8064   20.2682  -30.2752 H   0  0  0  0  0  0  0  0  0  0  0  0
   -5.9138   17.8702  -31.7093 H   0  0  0  0  0  0  0  0  0  0  0  0
   -8.2621   17.0274  -31.6737 H   0  0  0  0  0  0  0  0  0  0  0  0
  -10.1461   18.5364  -32.3082 H   0  0  0  0  0  0  0  0  0  0  0  0
   -9.6835   20.8929  -32.9862 H   0  0  0  0  0  0  0  0  0  0  0  0
   -7.3414   21.7505  -33.0154 H   0  0  0  0  0  0  0  0  0  0  0  0
   -3.7203   21.3221  -28.9730 H   0  0  0  0  0  0  0  0  0  0  0  0
   -2.1365   21.4366  -28.1226 H   0  0  0  0  0  0  0  0  0  0  0  0
   -4.4142   23.3666  -28.2143 H   0  0  0  0  0  0  0  0  0  0  0  0
   -3.1189   23.1100  -26.9598 H   0  0  0  0  0  0  0  0  0  0  0  0
  1  2  1  0
  2  3  1  0
  3  4  1  0
  4  5  1  0
  5  6  1  0
  6  7  1  0
  7  8  1  0
  8  9  1  0
  9 10  1  0
 10 11  1  0
 11 12  1  0
 12 13  2  0
 13 14  1  0
 14 15  2  0
 15 16  1  0
 16 17  2  0
 17 18  1  0
 18 19  2  0
 19 20  1  0
 20 21  2  0
 15 22  1  0
 10 23  1  0
 23 24  1  0
 24  7  1  0
 22 12  1  0
 21 16  1  0
  1 25  1  0
  1 26  1  0
  1 27  1  0
  2 28  1  0
  2 29  1  0
  4 30  1  0
  4 31  1  0
  5 32  1  0
  5 33  1  0
  7 34  1  0
  8 35  1  0
  8 36  1  0
  9 37  1  0
  9 38  1  0
 11 39  1  0
 11 40  1  0
 17 41  1  0
 18 42  1  0
 19 43  1  0
 20 44  1  0
 21 45  1  0
 23 46  1  0
 23 47  1  0
 24 48  1  0
 24 49  1  0
M  END
>  <UniqueID>  (5) 
5

>  <SMILES>  (5) 
CCOCCOC1CCN(Cc2nnc(-c3ccccc3)o2)CC1

>  <Energy>  (5) 
89.6263971330884

>  <Genealogy>  (5) 
CCOCCOC1CCN(Cc2nnc(-c3ccccc3)o2)CC1 (3D coordinates assigned)
CCOCCOC1CCN(Cc2nnc(-c3ccccc3)o2)CC1 (nonaromatic ring conformer: 89.6263971330884 kcal/mol)

>  <smiles>  (5) 
CCOCCOC1CCN(Cc2nnc(-c3ccccc3)o2)CC1

>  <score_type>  (5) 
oracle

>  <origin>  (5) 
adg

>  <m_score__min__energy>  (5) 
-8.2200000000000006

>  <m_primary>  (5) 
energy

$$$$
5:0
     RDKit          3D

 88 91  0  0  0  0  0  0  0  0999 V2000
   -2.2190   25.6520  -25.7780 C   0  0  0  0  0  0  0  0  0  0  0  0
   -2.5850   24.7000  -26.9270 C   0  0  0  0  0  0  0  0  0  0  0  0
   -1.5650   24.6260  -28.0030 N   0  0  0  0  0  0  0  0  0  0  0  0
   -0.8530   25.9100  -28.1690 C   0  0  0  0  0  0  0  0  0  0  0  0
   -2.1270   24.1340  -29.2830 C   0  0  0  0  0  0  0  0  0  0  0  0
   -3.6240   24.4600  -29.3740 C   0  0  0  0  0  0  0  0  0  0  0  0
   -3.8800   25.2870  -30.4950 O   0  0  0  0  0  0  0  0  0  0  0  0
   -5.2140   25.7650  -30.4970 C   0  0  0  0  0  0  0  0  0  0  0  0
   -6.1920   24.6160  -30.7380 C   0  0  0  0  0  0  0  0  0  0  0  0
   -5.7340   23.8510  -31.8370 O   0  0  0  0  0  0  0  0  0  0  0  0
   -5.0520   22.6900  -31.4060 C   0  0  0  0  0  0  0  0  0  0  0  0
   -3.8910   22.3050  -32.3350 C   0  0  0  0  0  0  0  0  0  0  0  0
   -4.3500   21.4880  -33.4630 N   0  0  0  0  0  0  0  0  0  0  0  0
   -4.6510   20.0970  -33.2620 C   0  0  0  0  0  0  0  0  0  0  0  0
   -5.9670   19.7230  -32.9420 C   0  0  0  0  0  0  0  0  0  0  0  0
   -6.9310   20.7030  -32.6150 C   0  0  0  0  0  0  0  0  0  0  0  0
   -8.2460   20.3420  -32.3400 C   0  0  0  0  0  0  0  0  0  0  0  0
   -8.6270   19.0060  -32.3970 C   0  0  0  0  0  0  0  0  0  0  0  0
   -7.6940   18.0200  -32.7190 C   0  0  0  0  0  0  0  0  0  0  0  0
   -6.3370   18.3500  -32.9730 C   0  0  0  0  0  0  0  0  0  0  0  0
   -5.3960   17.3850  -33.2800 N   0  0  0  0  0  0  0  0  0  0  0  0
   -5.7190   15.9490  -33.1000 C   0  0  0  0  0  0  0  0  0  0  0  0
   -4.1390   17.7600  -33.7210 C   0  0  0  0  0  0  0  0  0  0  0  0
   -3.2680   16.8330  -34.3420 C   0  0  0  0  0  0  0  0  0  0  0  0
   -1.9810   17.1970  -34.7220 C   0  0  0  0  0  0  0  0  0  0  0  0
   -1.4940   18.4640  -34.4240 C   0  0  0  0  0  0  0  0  0  0  0  0
   -2.3290   19.4220  -33.8270 C   0  0  0  0  0  0  0  0  0  0  0  0
   -1.7550   20.6470  -33.3280 N   0  0  0  0  0  0  0  0  0  0  0  0
   -0.7110   20.7130  -32.3020 C   0  0  0  0  0  0  0  0  0  0  0  0
   -1.2410   21.3160  -30.9880 C   0  0  0  0  0  0  0  0  0  0  0  0
   -1.5660   20.3100  -29.8400 C   0  0  0  0  0  0  0  0  0  0  0  0
   -0.4880   20.0110  -28.8270 N   0  0  0  0  0  0  0  0  0  0  0  0
    0.7330   19.5420  -29.5390 C   0  0  0  0  0  0  0  0  0  0  0  0
   -0.9240   18.8820  -27.9470 C   0  0  0  0  0  0  0  0  0  0  0  0
   -1.9730   19.3030  -26.8920 C   0  0  0  0  0  0  0  0  0  0  0  0
   -1.5260   20.4010  -26.1230 O   0  0  0  0  0  0  0  0  0  0  0  0
   -1.2820   21.5000  -26.9750 C   0  0  0  0  0  0  0  0  0  0  0  0
   -0.1410   21.1650  -27.9470 C   0  0  0  0  0  0  0  0  0  0  0  0
   -3.7000   19.1060  -33.5890 C   0  0  0  0  0  0  0  0  0  0  0  0
   -2.4100   25.1553  -24.8153 H   0  0  0  0  0  0  0  0  0  0  0  0
   -1.1542   25.9189  -25.8480 H   0  0  0  0  0  0  0  0  0  0  0  0
   -2.8308   26.5635  -25.8480 H   0  0  0  0  0  0  0  0  0  0  0  0
   -2.7202   23.6913  -26.5097 H   0  0  0  0  0  0  0  0  0  0  0  0
   -3.5020   25.0969  -27.3869 H   0  0  0  0  0  0  0  0  0  0  0  0
   -0.6198   26.3305  -27.1797 H   0  0  0  0  0  0  0  0  0  0  0  0
    0.0809   25.7421  -28.7255 H   0  0  0  0  0  0  0  0  0  0  0  0
   -1.4900   26.6132  -28.7255 H   0  0  0  0  0  0  0  0  0  0  0  0
   -1.6000   24.6170  -30.1190 H   0  0  0  0  0  0  0  0  0  0  0  0
   -1.9971   23.0428  -29.3322 H   0  0  0  0  0  0  0  0  0  0  0  0
   -4.1935   23.5244  -29.4757 H   0  0  0  0  0  0  0  0  0  0  0  0
   -3.9307   24.9906  -28.4606 H   0  0  0  0  0  0  0  0  0  0  0  0
   -5.4337   26.2299  -29.5246 H   0  0  0  0  0  0  0  0  0  0  0  0
   -5.3266   26.5042  -31.3038 H   0  0  0  0  0  0  0  0  0  0  0  0
   -6.2444   23.9808  -29.8415 H   0  0  0  0  0  0  0  0  0  0  0  0
   -7.1938   25.0164  -30.9526 H   0  0  0  0  0  0  0  0  0  0  0  0
   -4.6508   22.8714  -30.3980 H   0  0  0  0  0  0  0  0  0  0  0  0
   -5.7729   21.8592  -31.4136 H   0  0  0  0  0  0  0  0  0  0  0  0
   -3.4263   23.2227  -32.7247 H   0  0  0  0  0  0  0  0  0  0  0  0
   -3.1673   21.7141  -31.7544 H   0  0  0  0  0  0  0  0  0  0  0  0
   -4.3610   21.8740  -34.4340 H   0  0  0  0  0  0  0  0  0  0  0  0
   -6.6385   21.7627  -32.5775 H   0  0  0  0  0  0  0  0  0  0  0  0
   -8.9846   21.1137  -32.0774 H   0  0  0  0  0  0  0  0  0  0  0  0
   -9.6696   18.7250  -32.1871 H   0  0  0  0  0  0  0  0  0  0  0  0
   -8.0153   16.9696  -32.7770 H   0  0  0  0  0  0  0  0  0  0  0  0
   -5.7712   15.7167  -32.0261 H   0  0  0  0  0  0  0  0  0  0  0  0
   -6.6889   15.7296  -33.5702 H   0  0  0  0  0  0  0  0  0  0  0  0
   -4.9364   15.3354  -33.5702 H   0  0  0  0  0  0  0  0  0  0  0  0
   -3.6156   15.8060  -34.5273 H   0  0  0  0  0  0  0  0  0  0  0  0
   -1.3455   16.4789  -35.2609 H   0  0  0  0  0  0  0  0  0  0  0  0
   -0.4493   18.7176  -34.6570 H   0  0  0  0  0  0  0  0  0  0  0  0
   -2.1960   21.5380  -33.6380 H   0  0  0  0  0  0  0  0  0  0  0  0
   -0.3411   19.6962  -32.1039 H   0  0  0  0  0  0  0  0  0  0  0  0
    0.0962   21.3604  -32.6753 H   0  0  0  0  0  0  0  0  0  0  0  0
   -0.4816   22.0175  -30.6123 H   0  0  0  0  0  0  0  0  0  0  0  0
   -2.2036   21.7802  -31.2488 H   0  0  0  0  0  0  0  0  0  0  0  0
   -2.4290   20.7119  -29.2889 H   0  0  0  0  0  0  0  0  0  0  0  0
   -1.7289   19.3519  -30.3553 H   0  0  0  0  0  0  0  0  0  0  0  0
    1.4965   19.2487  -28.8034 H   0  0  0  0  0  0  0  0  0  0  0  0
    0.4801   18.6770  -30.1697 H   0  0  0  0  0  0  0  0  0  0  0  0
    1.1242   20.3538  -30.1697 H   0  0  0  0  0  0  0  0  0  0  0  0
   -1.3602   18.0944  -28.5789 H   0  0  0  0  0  0  0  0  0  0  0  0
   -0.0355   18.5297  -27.4025 H   0  0  0  0  0  0  0  0  0  0  0  0
   -2.9041   19.5830  -27.4064 H   0  0  0  0  0  0  0  0  0  0  0  0
   -2.1390   18.4530  -26.2138 H   0  0  0  0  0  0  0  0  0  0  0  0
   -2.1936   21.7273  -27.5472 H   0  0  0  0  0  0  0  0  0  0  0  0
   -0.9965   22.3720  -26.3683 H   0  0  0  0  0  0  0  0  0  0  0  0
    0.0618   22.0446  -28.5756 H   0  0  0  0  0  0  0  0  0  0  0  0
    0.7450   20.8913  -27.3552 H   0  0  0  0  0  0  0  0  0  0  0  0
  1  2  1  0
  2  3  1  0
  3  4  1  0
  3  5  1  0
  5  6  1  0
  6  7  1  0
  7  8  1  0
  8  9  1  0
  9 10  1  0
 10 11  1  0
 11 12  1  0
 12 13  1  0
 13 14  1  0
 14 15  2  0
 15 16  1  0
 16 17  2  0
 17 18  1  0
 18 19  2  0
 19 20  1  0
 20 21  2  0
 21 22  1  0
 21 23  1  0
 23 24  2  0
 24 25  1  0
 25 26  2  0
 26 27  1  0
 27 28  1  0
 28 29  1  0
 29 30  1  0
 30 31  1  0
 31 32  1  0
 32 33  1  0
 32 34  1  0
 34 35  1  0
 35 36  1  0
 36 37  1  0
 37 38  1  0
 27 39  2  0
 39 14  1  0
 20 15  1  0
 39 23  1  0
 38 32  1  0
  1 40  1  0
  1 41  1  0
  1 42  1  0
  2 43  1  0
  2 44  1  0
  4 45  1  0
  4 46  1  0
  4 47  1  0
  5 48  1  0
  5 49  1  0
  6 50  1  0
  6 51  1  0
  8 52  1  0
  8 53  1  0
  9 54  1  0
  9 55  1  0
 11 56  1  0
 11 57  1  0
 12 58  1  0
 12 59  1  0
 13 60  1  0
 16 61  1  0
 17 62  1  0
 18 63  1  0
 19 64  1  0
 22 65  1  0
 22 66  1  0
 22 67  1  0
 24 68  1  0
 25 69  1  0
 26 70  1  0
 28 71  1  0
 29 72  1  0
 29 73  1  0
 30 74  1  0
 30 75  1  0
 31 76  1  0
 31 77  1  0
 33 78  1  0
 33 79  1  0
 33 80  1  0
 34 81  1  0
 34 82  1  0
 35 83  1  0
 35 84  1  0
 37 85  1  0
 37 86  1  0
 38 87  1  0
 38 88  1  0
M  CHG  2  21   1  32   1
M  END
>  <UniqueID>  (6) 
6

>  <SMILES>  (6) 
CCN(C)CCOCCOCCNc1c2ccccc2[n+](C)c2cccc(NCCC[N+]3(C)CCOCC3)c12

>  <Energy>  (6) 
147.60633928719068

>  <Genealogy>  (6) 
CCN(C)CCOCCOCCNc1c2ccccc2[n+](C)c2cccc(NCCC[N+]3(C)CCOCC3)c12 (3D coordinates assigned)
CCN(C)CCOCCOCCNc1c2ccccc2[n+](C)c2cccc(NCCC[N+]3(C)CCOCC3)c12 (nonaromatic ring conformer: 147.60633928719068 kcal/mol)

>  <smiles>  (6) 
CCN(C)CCOCCOCCNc1c2ccccc2[n+](C)c2cccc(NCCC[N+]3(C)CCOCC3)c12

>  <score_type>  (6) 
oracle

>  <origin>  (6) 
adg

>  <m_score__min__energy>  (6) 
-9.5999999999999996

>  <m_primary>  (6) 
energy

$$$$
6:0
     RDKit          3D

 65 67  0  0  0  0  0  0  0  0999 V2000
    2.0400   24.8660  -27.4940 C   0  0  0  0  0  0  0  0  0  0  0  0
    1.0160   23.7740  -27.7830 C   0  0  0  0  0  0  0  0  0  0  0  0
    0.2720   24.0760  -28.9650 O   0  0  0  0  0  0  0  0  0  0  0  0
   -1.0860   23.7830  -29.1810 C   0  0  0  0  0  0  0  0  0  0  0  0
   -1.5270   22.5160  -29.6010 C   0  0  0  0  0  0  0  0  0  0  0  0
   -2.8890   22.2540  -29.8440 C   0  0  0  0  0  0  0  0  0  0  0  0
   -3.2660   20.8540  -30.3320 C   0  0  0  0  0  0  0  0  0  0  0  0
   -2.5020   20.3650  -31.5120 N   0  0  0  0  0  0  0  0  0  0  0  0
   -1.2380   19.6810  -31.1430 C   0  0  0  0  0  0  0  0  0  0  0  0
   -0.2790   19.4970  -32.3420 C   0  0  0  0  0  0  0  0  0  0  0  0
   -0.9750   19.5510  -33.6410 N   0  0  0  0  0  0  0  0  0  0  0  0
   -1.7820   18.3410  -33.9260 C   0  0  0  0  0  0  0  0  0  0  0  0
   -3.2490   18.7280  -34.0770 C   0  0  0  0  0  0  0  0  0  0  0  0
   -3.9780   18.3060  -32.9290 O   0  0  0  0  0  0  0  0  0  0  0  0
   -5.3640   18.4490  -32.7660 C   0  0  0  0  0  0  0  0  0  0  0  0
   -6.2370   17.3430  -32.7830 C   0  0  0  0  0  0  0  0  0  0  0  0
   -7.6110   17.5280  -32.6140 C   0  0  0  0  0  0  0  0  0  0  0  0
   -8.1270   18.8110  -32.4300 C   0  0  0  0  0  0  0  0  0  0  0  0
   -7.2720   19.9150  -32.4150 C   0  0  0  0  0  0  0  0  0  0  0  0
   -5.8840   19.7410  -32.5830 C   0  0  0  0  0  0  0  0  0  0  0  0
   -4.9900   20.8240  -32.5780 O   0  0  0  0  0  0  0  0  0  0  0  0
   -5.3740   22.1870  -32.7190 C   0  0  0  0  0  0  0  0  0  0  0  0
   -1.7090   20.8230  -33.8350 C   0  0  0  0  0  0  0  0  0  0  0  0
   -2.2740   21.4140  -32.5210 C   0  0  0  0  0  0  0  0  0  0  0  0
   -3.8390   23.2770  -29.5700 C   0  0  0  0  0  0  0  0  0  0  0  0
   -5.3310   23.0980  -29.7160 C   0  0  0  0  0  0  0  0  0  0  0  0
   -3.3840   24.5460  -29.1720 C   0  0  0  0  0  0  0  0  0  0  0  0
   -2.0180   24.8040  -28.9790 C   0  0  0  0  0  0  0  0  0  0  0  0
   -1.5460   26.0650  -28.5780 O   0  0  0  0  0  0  0  0  0  0  0  0
   -1.1770   26.4050  -27.2450 C   0  0  0  0  0  0  0  0  0  0  0  0
    2.1518   24.9852  -26.4062 H   0  0  0  0  0  0  0  0  0  0  0  0
    3.0087   24.5860  -27.9336 H   0  0  0  0  0  0  0  0  0  0  0  0
    1.6983   25.8147  -27.9336 H   0  0  0  0  0  0  0  0  0  0  0  0
    1.5393   22.8163  -27.9211 H   0  0  0  0  0  0  0  0  0  0  0  0
    0.3191   23.7106  -26.9343 H   0  0  0  0  0  0  0  0  0  0  0  0
   -0.7912   21.7108  -29.7431 H   0  0  0  0  0  0  0  0  0  0  0  0
   -3.1002   20.1493  -29.5038 H   0  0  0  0  0  0  0  0  0  0  0  0
   -4.3160   20.9164  -30.6538 H   0  0  0  0  0  0  0  0  0  0  0  0
   -3.1260   19.6480  -31.9510 H   0  0  0  0  0  0  0  0  0  0  0  0
   -0.7272   20.2791  -30.3740 H   0  0  0  0  0  0  0  0  0  0  0  0
   -1.5014   18.6784  -30.7751 H   0  0  0  0  0  0  0  0  0  0  0  0
    0.4766   20.2960  -32.3141 H   0  0  0  0  0  0  0  0  0  0  0  0
    0.1787   18.5009  -32.2515 H   0  0  0  0  0  0  0  0  0  0  0  0
   -1.4282   17.8763  -34.8582 H   0  0  0  0  0  0  0  0  0  0  0  0
   -1.6762   17.6276  -33.0954 H   0  0  0  0  0  0  0  0  0  0  0  0
   -3.3301   19.8201  -34.1804 H   0  0  0  0  0  0  0  0  0  0  0  0
   -3.6639   18.2401  -34.9713 H   0  0  0  0  0  0  0  0  0  0  0  0
   -5.8347   16.3298  -32.9300 H   0  0  0  0  0  0  0  0  0  0  0  0
   -8.2874   16.6606  -32.6260 H   0  0  0  0  0  0  0  0  0  0  0  0
   -9.2096   18.9533  -32.2965 H   0  0  0  0  0  0  0  0  0  0  0  0
   -7.6839   20.9248  -32.2714 H   0  0  0  0  0  0  0  0  0  0  0  0
   -5.5008   22.6371  -31.7233 H   0  0  0  0  0  0  0  0  0  0  0  0
   -4.5945   22.7323  -33.2713 H   0  0  0  0  0  0  0  0  0  0  0  0
   -6.3235   22.2452  -33.2713 H   0  0  0  0  0  0  0  0  0  0  0  0
   -1.0219   21.5575  -34.2804 H   0  0  0  0  0  0  0  0  0  0  0  0
   -2.5669   20.6061  -34.4884 H   0  0  0  0  0  0  0  0  0  0  0  0
   -1.5567   22.1455  -32.1205 H   0  0  0  0  0  0  0  0  0  0  0  0
   -3.2384   21.8936  -32.7446 H   0  0  0  0  0  0  0  0  0  0  0  0
   -5.7929   23.0426  -28.7192 H   0  0  0  0  0  0  0  0  0  0  0  0
   -5.7506   23.9523  -30.2676 H   0  0  0  0  0  0  0  0  0  0  0  0
   -5.5366   22.1687  -30.2676 H   0  0  0  0  0  0  0  0  0  0  0  0
   -4.1132   25.3531  -29.0085 H   0  0  0  0  0  0  0  0  0  0  0  0
   -1.7958   25.8348  -26.5365 H   0  0  0  0  0  0  0  0  0  0  0  0
   -0.1165   26.1609  -27.0845 H   0  0  0  0  0  0  0  0  0  0  0  0
   -1.3337   27.4819  -27.0845 H   0  0  0  0  0  0  0  0  0  0  0  0
  1  2  1  0
  2  3  1  0
  3  4  1  0
  4  5  2  0
  5  6  1  0
  6  7  1  0
  7  8  1  0
  8  9  1  0
  9 10  1  0
 10 11  1  0
 11 12  1  0
 12 13  1  0
 13 14  1  0
 14 15  1  0
 15 16  2  0
 16 17  1  0
 17 18  2  0
 18 19  1  0
 19 20  2  0
 20 21  1  0
 21 22  1  0
 11 23  1  0
 23 24  1  0
  6 25  2  0
 25 26  1  0
 25 27  1  0
 27 28  2  0
 28 29  1  0
 29 30  1  0
 28  4  1  0
 24  8  1  0
 20 15  1  0
  1 31  1  0
  1 32  1  0
  1 33  1  0
  2 34  1  0
  2 35  1  0
  5 36  1  0
  7 37  1  0
  7 38  1  0
  8 39  1  0
  9 40  1  0
  9 41  1  0
 10 42  1  0
 10 43  1  0
 12 44  1  0
 12 45  1  0
 13 46  1  0
 13 47  1  0
 16 48  1  0
 17 49  1  0
 18 50  1  0
 19 51  1  0
 22 52  1  0
 22 53  1  0
 22 54  1  0
 23 55  1  0
 23 56  1  0
 24 57  1  0
 24 58  1  0
 26 59  1  0
 26 60  1  0
 26 61  1  0
 27 62  1  0
 30 63  1  0
 30 64  1  0
 30 65  1  0
M  CHG  1   8   1
M  END
>  <UniqueID>  (7) 
7

>  <SMILES>  (7) 
CCOc1cc(C[NH+]2CCN(CCOc3ccccc3OC)CC2)c(C)cc1OC

>  <Energy>  (7) 
81.41744565022066

>  <Genealogy>  (7) 
CCOc1cc(C[NH+]2CCN(CCOc3ccccc3OC)CC2)c(C)cc1OC (protonated)
CCOc1cc(C[NH+]2CCN(CCOc3ccccc3OC)CC2)c(C)cc1OC (3D coordinates assigned)
CCOc1cc(C[NH+]2CCN(CCOc3ccccc3OC)CC2)c(C)cc1OC (nonaromatic ring conformer: 81.41744565022066 kcal/mol)

>  <smiles>  (7) 
CCOc1cc(CN2CCN(CCOc3ccccc3OC)CC2)c(C)cc1OC

>  <score_type>  (7) 
oracle

>  <origin>  (7) 
adg

>  <m_score__min__energy>  (7) 
-7.75

>  <m_primary>  (7) 
energy

$$$$
7:0
     RDKit          3D

 71 73  0  0  0  0  0  0  0  0999 V2000
   -4.7480   17.6850  -34.9240 C   0  0  0  0  0  0  0  0  0  0  0  0
   -6.1160   17.8900  -34.2640 C   0  0  0  0  0  0  0  0  0  0  0  0
   -6.4600   19.3130  -34.1080 N   0  0  0  0  0  0  0  0  0  0  0  0
   -7.3800   19.5380  -32.9850 C   0  0  0  0  0  0  0  0  0  0  0  0
   -6.6150   20.1430  -31.8030 C   0  0  0  0  0  0  0  0  0  0  0  0
   -5.3840   19.3040  -31.4460 C   0  0  0  0  0  0  0  0  0  0  0  0
   -4.2220   20.1120  -31.4710 O   0  0  0  0  0  0  0  0  0  0  0  0
   -3.4460   19.8720  -32.6320 C   0  0  0  0  0  0  0  0  0  0  0  0
   -3.2760   21.1610  -33.4420 C   0  0  0  0  0  0  0  0  0  0  0  0
   -3.4890   22.2900  -32.6160 O   0  0  0  0  0  0  0  0  0  0  0  0
   -4.8570   22.6420  -32.5870 C   0  0  0  0  0  0  0  0  0  0  0  0
   -5.1750   23.2680  -31.2310 C   0  0  0  0  0  0  0  0  0  0  0  0
   -4.1280   24.1330  -30.8280 O   0  0  0  0  0  0  0  0  0  0  0  0
   -3.9920   24.1230  -29.4220 C   0  0  0  0  0  0  0  0  0  0  0  0
   -2.8590   23.1790  -29.0240 C   0  0  0  0  0  0  0  0  0  0  0  0
   -2.7300   22.0760  -29.9760 N   0  0  0  0  0  0  0  0  0  0  0  0
   -1.8240   20.9990  -29.7070 C   0  0  0  0  0  0  0  0  0  0  0  0
   -0.7840   20.7120  -30.6030 C   0  0  0  0  0  0  0  0  0  0  0  0
    0.1460   19.7030  -30.2840 C   0  0  0  0  0  0  0  0  0  0  0  0
    0.0830   19.0510  -29.0680 N   0  0  0  0  0  0  0  0  0  0  0  0
    1.2100   18.2000  -28.6310 C   0  0  0  0  0  0  0  0  0  0  0  0
   -1.0270   19.2050  -28.2600 C   0  0  0  0  0  0  0  0  0  0  0  0
   -1.2510   18.3800  -27.1290 C   0  0  0  0  0  0  0  0  0  0  0  0
   -2.3500   18.5860  -26.2950 C   0  0  0  0  0  0  0  0  0  0  0  0
   -3.2560   19.6050  -26.5680 C   0  0  0  0  0  0  0  0  0  0  0  0
   -3.0830   20.4100  -27.6920 C   0  0  0  0  0  0  0  0  0  0  0  0
   -1.9860   20.2090  -28.5570 C   0  0  0  0  0  0  0  0  0  0  0  0
    1.2110   19.3890  -31.3200 C   0  0  0  0  0  0  0  0  0  0  0  0
    0.5970   19.4010  -32.7210 C   0  0  0  0  0  0  0  0  0  0  0  0
   -0.0840   20.7370  -33.0670 C   0  0  0  0  0  0  0  0  0  0  0  0
   -0.5670   21.5500  -31.8480 C   0  0  0  0  0  0  0  0  0  0  0  0
   -3.9791   17.5698  -34.1459 H   0  0  0  0  0  0  0  0  0  0  0  0
   -4.7747   16.7808  -35.5499 H   0  0  0  0  0  0  0  0  0  0  0  0
   -4.5085   18.5573  -35.5499 H   0  0  0  0  0  0  0  0  0  0  0  0
   -6.8838   17.4078  -34.8869 H   0  0  0  0  0  0  0  0  0  0  0  0
   -6.0719   17.4450  -33.2590 H   0  0  0  0  0  0  0  0  0  0  0  0
   -6.9090   19.6590  -34.9870 H   0  0  0  0  0  0  0  0  0  0  0  0
   -8.1762   20.2297  -33.2976 H   0  0  0  0  0  0  0  0  0  0  0  0
   -7.8228   18.5786  -32.6793 H   0  0  0  0  0  0  0  0  0  0  0  0
   -6.2903   21.1596  -32.0695 H   0  0  0  0  0  0  0  0  0  0  0  0
   -7.2850   20.1634  -30.9308 H   0  0  0  0  0  0  0  0  0  0  0  0
   -5.5115   18.8808  -30.4387 H   0  0  0  0  0  0  0  0  0  0  0  0
   -5.2750   18.4929  -32.1810 H   0  0  0  0  0  0  0  0  0  0  0  0
   -2.4551   19.4989  -32.3339 H   0  0  0  0  0  0  0  0  0  0  0  0
   -3.9612   19.1264  -33.2554 H   0  0  0  0  0  0  0  0  0  0  0  0
   -2.2567   21.1994  -33.8538 H   0  0  0  0  0  0  0  0  0  0  0  0
   -4.0123   21.1706  -34.2592 H   0  0  0  0  0  0  0  0  0  0  0  0
   -5.0696   23.3659  -33.3875 H   0  0  0  0  0  0  0  0  0  0  0  0
   -5.4769   21.7463  -32.7399 H   0  0  0  0  0  0  0  0  0  0  0  0
   -6.1102   23.8421  -31.3073 H   0  0  0  0  0  0  0  0  0  0  0  0
   -5.2827   22.4669  -30.4849 H   0  0  0  0  0  0  0  0  0  0  0  0
   -3.7629   25.1393  -29.0690 H   0  0  0  0  0  0  0  0  0  0  0  0
   -4.9320   23.7784  -28.9663 H   0  0  0  0  0  0  0  0  0  0  0  0
   -1.9148   23.7427  -28.9980 H   0  0  0  0  0  0  0  0  0  0  0  0
   -3.0876   22.7590  -28.0334 H   0  0  0  0  0  0  0  0  0  0  0  0
   -3.3440   22.0150  -30.8210 H   0  0  0  0  0  0  0  0  0  0  0  0
    1.2449   18.1737  -27.5319 H   0  0  0  0  0  0  0  0  0  0  0  0
    1.0706   17.1798  -29.0180 H   0  0  0  0  0  0  0  0  0  0  0  0
    2.1531   18.6133  -29.0180 H   0  0  0  0  0  0  0  0  0  0  0  0
   -0.5472   17.5647  -26.9057 H   0  0  0  0  0  0  0  0  0  0  0  0
   -2.5006   17.9397  -25.4177 H   0  0  0  0  0  0  0  0  0  0  0  0
   -4.1100   19.7757  -25.8960 H   0  0  0  0  0  0  0  0  0  0  0  0
   -3.8077   21.2091  -27.9071 H   0  0  0  0  0  0  0  0  0  0  0  0
    2.0074   20.1457  -31.2647 H   0  0  0  0  0  0  0  0  0  0  0  0
    1.6293   18.3920  -31.1174 H   0  0  0  0  0  0  0  0  0  0  0  0
    1.3946   19.2135  -33.4550 H   0  0  0  0  0  0  0  0  0  0  0  0
   -0.1772   18.6201  -32.7479 H   0  0  0  0  0  0  0  0  0  0  0  0
    0.6352   21.3532  -33.6265 H   0  0  0  0  0  0  0  0  0  0  0  0
   -0.9833   20.4855  -33.6484 H   0  0  0  0  0  0  0  0  0  0  0  0
    0.1871   22.3183  -31.6222 H   0  0  0  0  0  0  0  0  0  0  0  0
   -1.5413   21.9840  -32.1169 H   0  0  0  0  0  0  0  0  0  0  0  0
  1  2  1  0
  2  3  1  0
  3  4  1  0
  4  5  1  0
  5  6  1  0
  6  7  1  0
  7  8  1  0
  8  9  1  0
  9 10  1  0
 10 11  1  0
 11 12  1  0
 12 13  1  0
 13 14  1  0
 14 15  1  0
 15 16  1  0
 16 17  1  0
 17 18  2  0
 18 19  1  0
 19 20  2  0
 20 21  1  0
 20 22  1  0
 22 23  2  0
 23 24  1  0
 24 25  2  0
 25 26  1  0
 26 27  2  0
 19 28  1  0
 28 29  1  0
 29 30  1  0
 30 31  1  0
 27 17  1  0
 31 18  1  0
 27 22  1  0
  1 32  1  0
  1 33  1  0
  1 34  1  0
  2 35  1  0
  2 36  1  0
  3 37  1  0
  4 38  1  0
  4 39  1  0
  5 40  1  0
  5 41  1  0
  6 42  1  0
  6 43  1  0
  8 44  1  0
  8 45  1  0
  9 46  1  0
  9 47  1  0
 11 48  1  0
 11 49  1  0
 12 50  1  0
 12 51  1  0
 14 52  1  0
 14 53  1  0
 15 54  1  0
 15 55  1  0
 16 56  1  0
 21 57  1  0
 21 58  1  0
 21 59  1  0
 23 60  1  0
 24 61  1  0
 25 62  1  0
 26 63  1  0
 28 64  1  0
 28 65  1  0
 29 66  1  0
 29 67  1  0
 30 68  1  0
 30 69  1  0
 31 70  1  0
 31 71  1  0
M  CHG  1  20   1
M  END
>  <UniqueID>  (8) 
8

>  <SMILES>  (8) 
CCNCCCOCCOCCOCCNc1c2c([n+](C)c3ccccc13)CCCC2

>  <Energy>  (8) 
91.28489695487562

>  <Genealogy>  (8) 
CCNCCCOCCOCCOCCNc1c2c([n+](C)c3ccccc13)CCCC2 (3D coordinates assigned)
CCNCCCOCCOCCOCCNc1c2c([n+](C)c3ccccc13)CCCC2 (nonaromatic ring conformer: 91.28489695487562 kcal/mol)

>  <smiles>  (8) 
CCNCCCOCCOCCOCCNc1c2c([n+](C)c3ccccc13)CCCC2

>  <score_type>  (8) 
oracle

>  <origin>  (8) 
adg

>  <m_score__min__energy>  (8) 
-9.1199999999999992

>  <m_primary>  (8) 
energy

$$$$
8:0
     RDKit          3D

 54 56  0  0  0  0  0  0  0  0999 V2000
   -7.8664   24.8589  -31.5393 H   0  0  0  0  0  0  0  0  0  0  0  0
   -7.1300   24.1310  -31.1680 C   0  0  0  0  0  0  0  0  0  0  0  0
   -6.1630   24.5900  -30.3470 C   0  0  0  0  0  0  0  0  0  0  0  0
   -4.7610   24.1130  -30.3920 C   0  0  0  0  0  0  0  0  0  0  0  0
   -3.8420   24.8630  -30.8230 O   0  0  0  0  0  0  0  0  0  0  0  0
   -4.4700   22.8050  -29.9890 O   0  0  0  0  0  0  0  0  0  0  0  0
   -3.5530   22.4890  -28.9430 C   0  0  0  0  0  0  0  0  0  0  0  0
   -3.1232   21.4930  -29.1252 H   0  0  0  0  0  0  0  0  0  0  0  0
   -4.0881   22.4971  -27.9820 H   0  0  0  0  0  0  0  0  0  0  0  0
   -2.4190   23.5320  -28.8960 C   0  0  0  0  0  0  0  0  0  0  0  0
   -2.2103   23.8626  -29.9242 H   0  0  0  0  0  0  0  0  0  0  0  0
   -1.5545   23.0412  -28.4252 H   0  0  0  0  0  0  0  0  0  0  0  0
   -2.7320   24.7250  -28.0780 N   0  0  0  0  0  0  0  0  0  0  0  0
   -3.8360   24.4780  -27.1310 C   0  0  0  0  0  0  0  0  0  0  0  0
   -3.4607   24.5620  -26.1004 H   0  0  0  0  0  0  0  0  0  0  0  0
   -4.6313   25.2204  -27.2933 H   0  0  0  0  0  0  0  0  0  0  0  0
   -4.2391   23.4675  -27.2933 H   0  0  0  0  0  0  0  0  0  0  0  0
   -1.5390   25.2870  -27.4090 C   0  0  0  0  0  0  0  0  0  0  0  0
   -1.2125   26.1877  -27.9495 H   0  0  0  0  0  0  0  0  0  0  0  0
   -0.7412   24.5297  -27.4131 H   0  0  0  0  0  0  0  0  0  0  0  0
   -1.8570   25.6580  -25.9620 C   0  0  0  0  0  0  0  0  0  0  0  0
   -1.2939   25.0010  -25.2828 H   0  0  0  0  0  0  0  0  0  0  0  0
   -1.5711   26.7046  -25.7805 H   0  0  0  0  0  0  0  0  0  0  0  0
   -2.9350   25.5356  -25.7805 H   0  0  0  0  0  0  0  0  0  0  0  0
   -6.5140   25.6580  -29.3470 C   0  0  0  0  0  0  0  0  0  0  0  0
   -6.3843   25.2634  -28.3284 H   0  0  0  0  0  0  0  0  0  0  0  0
   -5.8539   26.5261  -29.4907 H   0  0  0  0  0  0  0  0  0  0  0  0
   -7.5604   25.9653  -29.4907 H   0  0  0  0  0  0  0  0  0  0  0  0
   -7.2790   22.7260  -31.6090 C   0  0  0  0  0  0  0  0  0  0  0  0
   -8.4830   22.0390  -31.4210 C   0  0  0  0  0  0  0  0  0  0  0  0
   -9.3445   22.5549  -30.9719 H   0  0  0  0  0  0  0  0  0  0  0  0
   -8.5940   20.7030  -31.8010 C   0  0  0  0  0  0  0  0  0  0  0  0
   -9.5484   20.1734  -31.6643 H   0  0  0  0  0  0  0  0  0  0  0  0
   -7.4960   20.0290  -32.3570 C   0  0  0  0  0  0  0  0  0  0  0  0
   -7.6310   18.6920  -32.7330 C   0  0  0  0  0  0  0  0  0  0  0  0
   -8.5995   18.1895  -32.5933 H   0  0  0  0  0  0  0  0  0  0  0  0
   -6.5890   17.9940  -33.2700 N   0  0  0  0  0  0  0  0  0  0  0  0
   -6.8240   16.5860  -33.6370 C   0  0  0  0  0  0  0  0  0  0  0  0
   -6.9250   15.9810  -32.7239 H   0  0  0  0  0  0  0  0  0  0  0  0
   -7.7471   16.5109  -34.2305 H   0  0  0  0  0  0  0  0  0  0  0  0
   -5.9753   16.2152  -34.2305 H   0  0  0  0  0  0  0  0  0  0  0  0
   -5.3620   18.5970  -33.4580 C   0  0  0  0  0  0  0  0  0  0  0  0
   -4.2760   17.8780  -34.0150 C   0  0  0  0  0  0  0  0  0  0  0  0
   -4.4142   16.8245  -34.2998 H   0  0  0  0  0  0  0  0  0  0  0  0
   -3.0370   18.4820  -34.2080 C   0  0  0  0  0  0  0  0  0  0  0  0
   -2.2066   17.9050  -34.6411 H   0  0  0  0  0  0  0  0  0  0  0  0
   -2.8470   19.8110  -33.8550 C   0  0  0  0  0  0  0  0  0  0  0  0
   -1.8663   20.2842  -34.0110 H   0  0  0  0  0  0  0  0  0  0  0  0
   -3.8930   20.5480  -33.3040 C   0  0  0  0  0  0  0  0  0  0  0  0
   -3.7270   21.6002  -33.0295 H   0  0  0  0  0  0  0  0  0  0  0  0
   -5.1680   19.9650  -33.0910 C   0  0  0  0  0  0  0  0  0  0  0  0
   -6.2580   20.6910  -32.5310 C   0  0  0  0  0  0  0  0  0  0  0  0
   -6.1690   22.0490  -32.1340 C   0  0  0  0  0  0  0  0  0  0  0  0
   -5.2121   22.5811  -32.2397 H   0  0  0  0  0  0  0  0  0  0  0  0
  1  2  1  0
  2  3  2  0
  3  4  1  0
  4  5  2  0
  4  6  1  0
  6  7  1  0
  7  8  1  0
  7  9  1  0
  7 10  1  0
 10 11  1  0
 10 12  1  0
 10 13  1  0
 13 14  1  0
 14 15  1  0
 14 16  1  0
 14 17  1  0
 13 18  1  0
 18 19  1  0
 18 20  1  0
 18 21  1  0
 21 22  1  0
 21 23  1  0
 21 24  1  0
  3 25  1  0
 25 26  1  0
 25 27  1  0
 25 28  1  0
  2 29  1  0
 29 30  2  0
 30 31  1  0
 30 32  1  0
 32 33  1  0
 32 34  2  0
 34 35  1  0
 35 36  1  0
 35 37  2  0
 37 38  1  0
 38 39  1  0
 38 40  1  0
 38 41  1  0
 37 42  1  0
 42 43  2  0
 43 44  1  0
 43 45  1  0
 45 46  1  0
 45 47  2  0
 47 48  1  0
 47 49  1  0
 49 50  1  0
 49 51  2  0
 51 52  1  0
 52 53  2  0
 53 54  1  0
 53 29  1  0
 52 34  1  0
 51 42  1  0
M  CHG  1  37   1
M  END
>  <UniqueID>  (9) 
9

>  <SMILES>  (9) 
CCN(C)CCOC(=O)/C(C)=C\c1ccc2c[n+](C)c3ccccc3c2c1

>  <Energy>  (9) 
77.88711354135809

>  <Genealogy>  (9) 
CCN(C)CCOC(=O)/C(C)=C\c1ccc2c[n+](C)c3ccccc3c2c1 (cis-trans isomerization)
CCN(C)CCOC(=O)/C(C)=C\c1ccc2c[n+](C)c3ccccc3c2c1 (3D coordinates assigned)
CCN(C)CCOC(=O)/C(C)=C\c1ccc2c[n+](C)c3ccccc3c2c1 (optimized conformer: 77.88711354135809 kcal/mol)

>  <smiles>  (9) 
CCN(C)CCOC(=O)C(C)=Cc1ccc2c[n+](C)c3ccccc3c2c1

>  <score_type>  (9) 
oracle

>  <origin>  (9) 
adg

>  <m_score__min__energy>  (9) 
-8.9700000000000006

>  <m_primary>  (9) 
energy

$$$$
9:0
     RDKit          3D

 55 57  0  0  0  0  0  0  0  0999 V2000
   -2.6880   20.5650  -27.6190 C   0  0  0  0  0  0  0  0  0  0  0  0
   -3.3040   21.9350  -27.9000 C   0  0  0  0  0  0  0  0  0  0  0  0
   -3.0190   22.4300  -29.3260 C   0  0  0  0  0  0  0  0  0  0  0  0
   -2.2380   23.7600  -29.3440 C   0  0  0  0  0  0  0  0  0  0  0  0
   -3.1160   24.9270  -29.5210 N   0  0  0  0  0  0  0  0  0  0  0  0
   -4.2280   24.6490  -30.4400 C   0  0  0  0  0  0  0  0  0  0  0  0
   -5.5330   24.5230  -29.6550 C   0  0  0  0  0  0  0  0  0  0  0  0
   -6.4320   23.3920  -30.1820 C   0  0  0  0  0  0  0  0  0  0  0  0
   -7.0630   23.6960  -31.5560 C   0  0  0  0  0  0  0  0  0  0  0  0
   -6.3460   23.0310  -32.6500 N   0  0  0  0  0  0  0  0  0  0  0  0
   -6.0510   21.6210  -32.6290 C   0  0  0  0  0  0  0  0  0  0  0  0
   -7.0820   20.6700  -32.5070 C   0  0  0  0  0  0  0  0  0  0  0  0
   -8.3850   21.0580  -32.1340 C   0  0  0  0  0  0  0  0  0  0  0  0
   -9.3970   20.1120  -31.9910 C   0  0  0  0  0  0  0  0  0  0  0  0
   -9.1210   18.7640  -32.1890 C   0  0  0  0  0  0  0  0  0  0  0  0
   -7.8340   18.3530  -32.5320 C   0  0  0  0  0  0  0  0  0  0  0  0
   -6.7890   19.2950  -32.7120 C   0  0  0  0  0  0  0  0  0  0  0  0
   -5.5070   18.9040  -33.0510 N   0  0  0  0  0  0  0  0  0  0  0  0
   -5.2600   17.5360  -33.5600 C   0  0  0  0  0  0  0  0  0  0  0  0
   -4.4590   19.7930  -32.9140 C   0  0  0  0  0  0  0  0  0  0  0  0
   -3.1070   19.3650  -32.9560 C   0  0  0  0  0  0  0  0  0  0  0  0
   -2.0600   20.2800  -32.8480 C   0  0  0  0  0  0  0  0  0  0  0  0
   -2.3260   21.6320  -32.6730 C   0  0  0  0  0  0  0  0  0  0  0  0
   -3.6430   22.0770  -32.5920 C   0  0  0  0  0  0  0  0  0  0  0  0
   -4.7190   21.1750  -32.7110 C   0  0  0  0  0  0  0  0  0  0  0  0
   -2.6184   20.4102  -26.5322 H   0  0  0  0  0  0  0  0  0  0  0  0
   -3.3202   19.7810  -28.0613 H   0  0  0  0  0  0  0  0  0  0  0  0
   -1.6819   20.5176  -28.0613 H   0  0  0  0  0  0  0  0  0  0  0  0
   -4.3932   21.8665  -27.7620 H   0  0  0  0  0  0  0  0  0  0  0  0
   -2.8508   22.6536  -27.2013 H   0  0  0  0  0  0  0  0  0  0  0  0
   -2.4279   21.6665  -29.8530 H   0  0  0  0  0  0  0  0  0  0  0  0
   -3.9867   22.6037  -29.8194 H   0  0  0  0  0  0  0  0  0  0  0  0
   -1.6991   23.8654  -28.3909 H   0  0  0  0  0  0  0  0  0  0  0  0
   -1.5463   23.7297  -30.1988 H   0  0  0  0  0  0  0  0  0  0  0  0
   -3.5040   25.2130  -28.5910 H   0  0  0  0  0  0  0  0  0  0  0  0
   -4.3164   25.4717  -31.1648 H   0  0  0  0  0  0  0  0  0  0  0  0
   -4.0320   23.7054  -30.9703 H   0  0  0  0  0  0  0  0  0  0  0  0
   -5.2922   24.3198  -28.6011 H   0  0  0  0  0  0  0  0  0  0  0  0
   -6.0840   25.4681  -29.7698 H   0  0  0  0  0  0  0  0  0  0  0  0
   -5.8256   22.4787  -30.2720 H   0  0  0  0  0  0  0  0  0  0  0  0
   -7.2585   23.2757  -29.4655 H   0  0  0  0  0  0  0  0  0  0  0  0
   -8.1065   23.3481  -31.5522 H   0  0  0  0  0  0  0  0  0  0  0  0
   -7.0059   24.7817  -31.7231 H   0  0  0  0  0  0  0  0  0  0  0  0
   -6.0370   23.6010  -33.4700 H   0  0  0  0  0  0  0  0  0  0  0  0
   -8.6050   22.1206  -31.9538 H   0  0  0  0  0  0  0  0  0  0  0  0
  -10.4145   20.4314  -31.7214 H   0  0  0  0  0  0  0  0  0  0  0  0
   -9.9217   18.0185  -32.0745 H   0  0  0  0  0  0  0  0  0  0  0  0
   -7.6255   17.2812  -32.6652 H   0  0  0  0  0  0  0  0  0  0  0  0
   -5.1355   16.8463  -32.7122 H   0  0  0  0  0  0  0  0  0  0  0  0
   -6.1144   17.2130  -34.1730 H   0  0  0  0  0  0  0  0  0  0  0  0
   -4.3466   17.5322  -34.1730 H   0  0  0  0  0  0  0  0  0  0  0  0
   -2.8811   18.2951  -33.0756 H   0  0  0  0  0  0  0  0  0  0  0  0
   -1.0188   19.9294  -32.9017 H   0  0  0  0  0  0  0  0  0  0  0  0
   -1.4967   22.3508  -32.5984 H   0  0  0  0  0  0  0  0  0  0  0  0
   -3.8460   23.1464  -32.4331 H   0  0  0  0  0  0  0  0  0  0  0  0
  1  2  1  0
  2  3  1  0
  3  4  1  0
  4  5  1  0
  5  6  1  0
  6  7  1  0
  7  8  1  0
  8  9  1  0
  9 10  1  0
 10 11  1  0
 11 12  2  0
 12 13  1  0
 13 14  2  0
 14 15  1  0
 15 16  2  0
 16 17  1  0
 17 18  2  0
 18 19  1  0
 18 20  1  0
 20 21  2  0
 21 22  1  0
 22 23  2  0
 23 24  1  0
 24 25  2  0
 25 11  1  0
 17 12  1  0
 25 20  1  0
  1 26  1  0
  1 27  1  0
  1 28  1  0
  2 29  1  0
  2 30  1  0
  3 31  1  0
  3 32  1  0
  4 33  1  0
  4 34  1  0
  5 35  1  0
  6 36  1  0
  6 37  1  0
  7 38  1  0
  7 39  1  0
  8 40  1  0
  8 41  1  0
  9 42  1  0
  9 43  1  0
 10 44  1  0
 13 45  1  0
 14 46  1  0
 15 47  1  0
 16 48  1  0
 19 49  1  0
 19 50  1  0
 19 51  1  0
 21 52  1  0
 22 53  1  0
 23 54  1  0
 24 55  1  0
M  CHG  1  18   1
M  END
>  <UniqueID>  (10) 
10

>  <SMILES>  (10) 
CCCCNCCCCNc1c2ccccc2[n+](C)c2ccccc12

>  <Energy>  (10) 
72.57940730614779

>  <Genealogy>  (10) 
CCCCNCCCCNc1c2ccccc2[n+](C)c2ccccc12 (3D coordinates assigned)
CCCCNCCCCNc1c2ccccc2[n+](C)c2ccccc12 (optimized conformer: 72.57940730614779 kcal/mol)

>  <smiles>  (10) 
CCCCNCCCCNc1c2ccccc2[n+](C)c2ccccc12

>  <score_type>  (10) 
oracle

>  <origin>  (10) 
adg

>  <m_score__min__energy>  (10) 
-8.75

>  <m_primary>  (10) 
energy

$$$$
10:0
     RDKit          3D

 51 52  0  0  0  0  0  0  0  0999 V2000
   -6.1690   25.1840  -29.7130 C   0  0  0  0  0  0  0  0  0  0  0  0
   -5.2250   25.6060  -30.8370 C   0  0  0  0  0  0  0  0  0  0  0  0
   -3.8830   25.3070  -30.4930 O   0  0  0  0  0  0  0  0  0  0  0  0
   -3.8390   24.4890  -29.3420 C   0  0  0  0  0  0  0  0  0  0  0  0
   -2.4950   23.7540  -29.2930 C   0  0  0  0  0  0  0  0  0  0  0  0
   -2.2120   23.1290  -30.5310 O   0  0  0  0  0  0  0  0  0  0  0  0
   -3.1390   22.0960  -30.8220 C   0  0  0  0  0  0  0  0  0  0  0  0
   -3.5140   22.1660  -32.3010 C   0  0  0  0  0  0  0  0  0  0  0  0
   -4.9150   21.8060  -32.4890 N   0  0  0  0  0  0  0  0  0  0  0  0
   -5.3680   20.6960  -33.1060 C   0  0  0  0  0  0  0  0  0  0  0  0
   -6.7420   20.7160  -33.0290 C   0  0  0  0  0  0  0  0  0  0  0  0
   -7.6410   19.6840  -33.4660 N   0  0  0  0  0  0  0  0  0  0  0  0
   -7.9460   18.7760  -32.3510 C   0  0  0  0  0  0  0  0  0  0  0  0
   -6.9940   17.5710  -32.3510 C   0  0  0  0  0  0  0  0  0  0  0  0
   -6.5460   17.2730  -33.7310 N   0  0  0  0  0  0  0  0  0  0  0  0
   -5.1170   17.5920  -33.9300 C   0  0  0  0  0  0  0  0  0  0  0  0
   -4.1980   16.5870  -33.1940 C   0  0  0  0  0  0  0  0  0  0  0  0
   -4.8600   15.3890  -32.8250 O   0  0  0  0  0  0  0  0  0  0  0  0
   -5.6540   14.9240  -33.8950 C   0  0  0  0  0  0  0  0  0  0  0  0
   -6.8410   15.8770  -34.1400 C   0  0  0  0  0  0  0  0  0  0  0  0
   -7.0690   21.8580  -32.3240 C   0  0  0  0  0  0  0  0  0  0  0  0
   -5.9310   22.5080  -32.0040 N   0  0  0  0  0  0  0  0  0  0  0  0
   -5.6988   25.3942  -28.7410 H   0  0  0  0  0  0  0  0  0  0  0  0
   -7.1106   25.7469  -29.7942 H   0  0  0  0  0  0  0  0  0  0  0  0
   -6.3775   24.1070  -29.7942 H   0  0  0  0  0  0  0  0  0  0  0  0
   -5.4924   25.0656  -31.7571 H   0  0  0  0  0  0  0  0  0  0  0  0
   -5.3200   26.6905  -30.9947 H   0  0  0  0  0  0  0  0  0  0  0  0
   -3.9491   25.1135  -28.4432 H   0  0  0  0  0  0  0  0  0  0  0  0
   -4.6583   23.7560  -29.3798 H   0  0  0  0  0  0  0  0  0  0  0  0
   -1.6980   24.4770  -29.0648 H   0  0  0  0  0  0  0  0  0  0  0  0
   -2.5480   22.9793  -28.5139 H   0  0  0  0  0  0  0  0  0  0  0  0
   -2.6832   21.1191  -30.6030 H   0  0  0  0  0  0  0  0  0  0  0  0
   -4.0403   22.2207  -30.2039 H   0  0  0  0  0  0  0  0  0  0  0  0
   -3.3507   23.1900  -32.6680 H   0  0  0  0  0  0  0  0  0  0  0  0
   -2.8858   21.4582  -32.8618 H   0  0  0  0  0  0  0  0  0  0  0  0
   -4.7532   19.9183  -33.5827 H   0  0  0  0  0  0  0  0  0  0  0  0
   -8.5220   20.1300  -33.8130 H   0  0  0  0  0  0  0  0  0  0  0  0
   -7.1960   19.1520  -34.2510 H   0  0  0  0  0  0  0  0  0  0  0  0
   -7.8370   19.3214  -31.4020 H   0  0  0  0  0  0  0  0  0  0  0  0
   -8.9769   18.4101  -32.4670 H   0  0  0  0  0  0  0  0  0  0  0  0
   -6.1181   17.7999  -31.7261 H   0  0  0  0  0  0  0  0  0  0  0  0
   -7.5238   16.6950  -31.9486 H   0  0  0  0  0  0  0  0  0  0  0  0
   -4.8910   17.5596  -35.0061 H   0  0  0  0  0  0  0  0  0  0  0  0
   -4.9288   18.5942  -33.5176 H   0  0  0  0  0  0  0  0  0  0  0  0
   -3.3579   16.3319  -33.8567 H   0  0  0  0  0  0  0  0  0  0  0  0
   -3.8610   17.0724  -32.2662 H   0  0  0  0  0  0  0  0  0  0  0  0
   -5.0390   14.8701  -34.8055 H   0  0  0  0  0  0  0  0  0  0  0  0
   -6.0442   13.9272  -33.6417 H   0  0  0  0  0  0  0  0  0  0  0  0
   -7.0843   15.8681  -35.2127 H   0  0  0  0  0  0  0  0  0  0  0  0
   -7.6846   15.5222  -33.5297 H   0  0  0  0  0  0  0  0  0  0  0  0
   -8.0877   22.1833  -32.0664 H   0  0  0  0  0  0  0  0  0  0  0  0
  1  2  1  0
  2  3  1  0
  3  4  1  0
  4  5  1  0
  5  6  1  0
  6  7  1  0
  7  8  1  0
  8  9  1  0
  9 10  1  0
 10 11  2  0
 11 12  1  0
 12 13  1  0
 13 14  1  0
 14 15  1  0
 15 16  1  0
 16 17  1  0
 17 18  1  0
 18 19  1  0
 19 20  1  0
 11 21  1  0
 21 22  2  0
 22  9  1  0
 20 15  1  0
  1 23  1  0
  1 24  1  0
  1 25  1  0
  2 26  1  0
  2 27  1  0
  4 28  1  0
  4 29  1  0
  5 30  1  0
  5 31  1  0
  7 32  1  0
  7 33  1  0
  8 34  1  0
  8 35  1  0
 10 36  1  0
 12 37  1  0
 12 38  1  0
 13 39  1  0
 13 40  1  0
 14 41  1  0
 14 42  1  0
 16 43  1  0
 16 44  1  0
 17 45  1  0
 17 46  1  0
 19 47  1  0
 19 48  1  0
 20 49  1  0
 20 50  1  0
 21 51  1  0
M  CHG  1  12   1
M  END
>  <UniqueID>  (11) 
11

>  <SMILES>  (11) 
CCOCCOCCn1cc([NH2+]CCN2CCOCC2)cn1

>  <Energy>  (11) 
88.50345125549059

>  <Genealogy>  (11) 
CCOCCOCCn1cc([NH2+]CCN2CCOCC2)cn1 (protonated)
CCOCCOCCn1cc([NH2+]CCN2CCOCC2)cn1 (3D coordinates assigned)
CCOCCOCCn1cc([NH2+]CCN2CCOCC2)cn1 (nonaromatic ring conformer: 88.50345125549059 kcal/mol)

>  <smiles>  (11) 
CCOCCOCCn1cc(NCCN2CCOCC2)cn1

>  <score_type>  (11) 
oracle

>  <origin>  (11) 
adg

>  <m_score__min__energy>  (11) 
-6.4699999999999998

>  <m_primary>  (11) 
energy

$$$$
11:0
     RDKit          3D

 39 41  0  0  0  0  0  0  0  0999 V2000
   -2.1720   25.6430  -25.9080 C   0  0  0  0  0  0  0  0  0  0  0  0
   -3.6550   25.2690  -25.9810 C   0  0  0  0  0  0  0  0  0  0  0  0
   -3.9930   24.5810  -27.2380 N   0  0  0  0  0  0  0  0  0  0  0  0
   -2.8720   23.7960  -27.7840 C   0  0  0  0  0  0  0  0  0  0  0  0
   -2.2410   24.5400  -28.9630 C   0  0  0  0  0  0  0  0  0  0  0  0
   -3.2410   25.0740  -29.8330 O   0  0  0  0  0  0  0  0  0  0  0  0
   -4.4240   24.4230  -30.2190 C   0  0  0  0  0  0  0  0  0  0  0  0
   -5.6270   25.1310  -30.1120 C   0  0  0  0  0  0  0  0  0  0  0  0
   -6.8390   24.5370  -30.4700 C   0  0  0  0  0  0  0  0  0  0  0  0
   -6.8640   23.2180  -30.9440 C   0  0  0  0  0  0  0  0  0  0  0  0
   -8.0700   22.6080  -31.3050 C   0  0  0  0  0  0  0  0  0  0  0  0
   -8.0700   21.2910  -31.7770 C   0  0  0  0  0  0  0  0  0  0  0  0
   -9.2670   20.6570  -32.1440 C   0  0  0  0  0  0  0  0  0  0  0  0
   -9.2470   19.3400  -32.6140 C   0  0  0  0  0  0  0  0  0  0  0  0
   -8.0360   18.6500  -32.7200 C   0  0  0  0  0  0  0  0  0  0  0  0
   -6.8380   19.2720  -32.3570 C   0  0  0  0  0  0  0  0  0  0  0  0
   -6.8440   20.5940  -31.8830 C   0  0  0  0  0  0  0  0  0  0  0  0
   -5.6770   21.2070  -31.5270 N   0  0  0  0  0  0  0  0  0  0  0  0
   -5.6580   22.4920  -31.0630 C   0  0  0  0  0  0  0  0  0  0  0  0
   -4.4440   23.1000  -30.7020 C   0  0  0  0  0  0  0  0  0  0  0  0
   -1.8648   25.7205  -24.8546 H   0  0  0  0  0  0  0  0  0  0  0  0
   -1.5733   24.8677  -26.4085 H   0  0  0  0  0  0  0  0  0  0  0  0
   -2.0125   26.6095  -26.4085 H   0  0  0  0  0  0  0  0  0  0  0  0
   -3.8949   24.6046  -25.1378 H   0  0  0  0  0  0  0  0  0  0  0  0
   -4.2408   26.1990  -25.9366 H   0  0  0  0  0  0  0  0  0  0  0  0
   -4.3110   25.2840  -27.9480 H   0  0  0  0  0  0  0  0  0  0  0  0
   -2.1152   23.6466  -26.9998 H   0  0  0  0  0  0  0  0  0  0  0  0
   -3.2467   22.8212  -28.1295 H   0  0  0  0  0  0  0  0  0  0  0  0
   -1.6234   25.3647  -28.5776 H   0  0  0  0  0  0  0  0  0  0  0  0
   -1.6264   23.8289  -29.5344 H   0  0  0  0  0  0  0  0  0  0  0  0
   -5.6174   26.1668  -29.7418 H   0  0  0  0  0  0  0  0  0  0  0  0
   -7.7764   25.1055  -30.3798 H   0  0  0  0  0  0  0  0  0  0  0  0
   -9.0160   23.1625  -31.2180 H   0  0  0  0  0  0  0  0  0  0  0  0
  -10.2221   21.1966  -32.0619 H   0  0  0  0  0  0  0  0  0  0  0  0
  -10.1868   18.8457  -32.9010 H   0  0  0  0  0  0  0  0  0  0  0  0
   -8.0257   17.6142  -33.0903 H   0  0  0  0  0  0  0  0  0  0  0  0
   -5.8878   18.7245  -32.4428 H   0  0  0  0  0  0  0  0  0  0  0  0
   -4.7770   20.6790  -31.6100 H   0  0  0  0  0  0  0  0  0  0  0  0
   -3.5026   22.5390  -30.7972 H   0  0  0  0  0  0  0  0  0  0  0  0
  1  2  1  0
  2  3  1  0
  3  4  1  0
  4  5  1  0
  5  6  1  0
  6  7  1  0
  7  8  2  0
  8  9  1  0
  9 10  2  0
 10 11  1  0
 11 12  2  0
 12 13  1  0
 13 14  2  0
 14 15  1  0
 15 16  2  0
 16 17  1  0
 17 18  2  0
 18 19  1  0
 19 20  2  0
 20  7  1  0
 19 10  1  0
 17 12  1  0
  1 21  1  0
  1 22  1  0
  1 23  1  0
  2 24  1  0
  2 25  1  0
  3 26  1  0
  4 27  1  0
  4 28  1  0
  5 29  1  0
  5 30  1  0
  8 31  1  0
  9 32  1  0
 11 33  1  0
 13 34  1  0
 14 35  1  0
 15 36  1  0
 16 37  1  0
 18 38  1  0
 20 39  1  0
M  CHG  1  18   1
M  END
>  <UniqueID>  (12) 
12

>  <SMILES>  (12) 
CCNCCOc1ccc2cc3ccccc3[nH+]c2c1

>  <Energy>  (12) 
44.78374654689585

>  <Genealogy>  (12) 
CCNCCOc1ccc2cc3ccccc3[nH+]c2c1 (protonated)
CCNCCOc1ccc2cc3ccccc3[nH+]c2c1 (3D coordinates assigned)
CCNCCOc1ccc2cc3ccccc3[nH+]c2c1 (optimized conformer: 44.78374654689585 kcal/mol)

>  <smiles>  (12) 
CCNCCOc1ccc2cc3ccccc3nc2c1

>  <score_type>  (12) 
oracle

>  <origin>  (12) 
adg

>  <m_score__min__energy>  (12) 
-7.8899999999999997

>  <m_primary>  (12) 
energy

$$$$
12:0
     RDKit          3D

 40 41  0  0  0  0  0  0  0  0999 V2000
   -9.4360   21.9220  -31.2640 Cl  0  0  0  0  0  0  0  0  0  0  0  0
   -8.5300   20.5320  -31.8310 C   0  0  0  0  0  0  0  0  0  0  0  0
   -7.6070   20.6740  -32.8730 C   0  0  0  0  0  0  0  0  0  0  0  0
   -6.8840   19.5660  -33.3250 C   0  0  0  0  0  0  0  0  0  0  0  0
   -7.0900   18.3080  -32.7430 C   0  0  0  0  0  0  0  0  0  0  0  0
   -6.1560   16.8860  -33.3150 S   0  0  0  0  0  0  0  0  0  0  0  0
   -5.4840   17.7090  -34.8020 C   0  0  0  0  0  0  0  0  0  0  0  0
   -4.0510   18.1860  -34.5690 C   0  0  0  0  0  0  0  0  0  0  0  0
   -4.0400   19.2660  -33.5770 N   0  0  0  0  0  0  0  0  0  0  0  0
   -2.7730   20.0040  -33.6380 C   0  0  0  0  0  0  0  0  0  0  0  0
   -2.9580   21.4450  -33.1280 C   0  0  0  0  0  0  0  0  0  0  0  0
   -4.3000   21.9890  -33.4080 N   0  0  0  0  0  0  0  0  0  0  0  0
   -4.9090   22.5500  -32.2250 C   0  0  0  0  0  0  0  0  0  0  0  0
   -4.4600   22.1740  -30.9460 C   0  0  0  0  0  0  0  0  0  0  0  0
   -5.0370   22.7320  -29.8020 C   0  0  0  0  0  0  0  0  0  0  0  0
   -6.0650   23.6710  -29.9230 C   0  0  0  0  0  0  0  0  0  0  0  0
   -6.5170   24.0530  -31.1880 C   0  0  0  0  0  0  0  0  0  0  0  0
   -5.9440   23.4970  -32.3350 C   0  0  0  0  0  0  0  0  0  0  0  0
   -8.0060   18.1690  -31.6920 C   0  0  0  0  0  0  0  0  0  0  0  0
   -8.7280   19.2780  -31.2400 C   0  0  0  0  0  0  0  0  0  0  0  0
   -7.4500   21.6588  -33.3372 H   0  0  0  0  0  0  0  0  0  0  0  0
   -6.1526   19.6819  -34.1384 H   0  0  0  0  0  0  0  0  0  0  0  0
   -5.4935   16.9977  -35.6411 H   0  0  0  0  0  0  0  0  0  0  0  0
   -6.1102   18.5845  -35.0288 H   0  0  0  0  0  0  0  0  0  0  0  0
   -3.4424   17.3467  -34.2013 H   0  0  0  0  0  0  0  0  0  0  0  0
   -3.6350   18.5598  -35.5162 H   0  0  0  0  0  0  0  0  0  0  0  0
   -4.1130   18.8330  -32.6260 H   0  0  0  0  0  0  0  0  0  0  0  0
   -2.0266   19.4925  -33.0125 H   0  0  0  0  0  0  0  0  0  0  0  0
   -2.4342   20.0396  -34.6839 H   0  0  0  0  0  0  0  0  0  0  0  0
   -2.7960   21.4550  -32.0400 H   0  0  0  0  0  0  0  0  0  0  0  0
   -2.2303   22.0770  -33.6581 H   0  0  0  0  0  0  0  0  0  0  0  0
   -4.9050   21.2110  -33.7610 H   0  0  0  0  0  0  0  0  0  0  0  0
   -4.2490   22.7010  -34.1730 H   0  0  0  0  0  0  0  0  0  0  0  0
   -3.6500   21.4365  -30.8457 H   0  0  0  0  0  0  0  0  0  0  0  0
   -4.6816   22.4318  -28.8052 H   0  0  0  0  0  0  0  0  0  0  0  0
   -6.5182   24.1093  -29.0216 H   0  0  0  0  0  0  0  0  0  0  0  0
   -7.3256   24.7929  -31.2817 H   0  0  0  0  0  0  0  0  0  0  0  0
   -6.3039   23.8012  -33.3289 H   0  0  0  0  0  0  0  0  0  0  0  0
   -8.1574   17.1862  -31.2218 H   0  0  0  0  0  0  0  0  0  0  0  0
   -9.4520   19.1652  -30.4196 H   0  0  0  0  0  0  0  0  0  0  0  0
  1  2  1  0
  2  3  2  0
  3  4  1  0
  4  5  2  0
  5  6  1  0
  6  7  1  0
  7  8  1  0
  8  9  1  0
  9 10  1  0
 10 11  1  0
 11 12  1  0
 12 13  1  0
 13 14  2  0
 14 15  1  0
 15 16  2  0
 16 17  1  0
 17 18  2  0
  5 19  1  0
 19 20  2  0
 20  2  1  0
 18 13  1  0
  3 21  1  0
  4 22  1  0
  7 23  1  0
  7 24  1  0
  8 25  1  0
  8 26  1  0
  9 27  1  0
 10 28  1  0
 10 29  1  0
 11 30  1  0
 11 31  1  0
 12 32  1  0
 12 33  1  0
 14 34  1  0
 15 35  1  0
 16 36  1  0
 17 37  1  0
 18 38  1  0
 19 39  1  0
 20 40  1  0
M  CHG  1  12   1
M  END
>  <UniqueID>  (13) 
13

>  <SMILES>  (13) 
Clc1ccc(SCCNCC[NH2+]c2ccccc2)cc1

>  <Energy>  (13) 
32.12774067891844

>  <Genealogy>  (13) 
Clc1ccc(SCCNCC[NH2+]c2ccccc2)cc1 (protonated)
Clc1ccc(SCCNCC[NH2+]c2ccccc2)cc1 (3D coordinates assigned)
Clc1ccc(SCCNCC[NH2+]c2ccccc2)cc1 (optimized conformer: 32.12774067891844 kcal/mol)

>  <smiles>  (13) 
Clc1ccc(SCCNCCNc2ccccc2)cc1

>  <score_type>  (13) 
oracle

>  <origin>  (13) 
adg

>  <m_score__min__energy>  (13) 
-6.75

>  <m_primary>  (13) 
energy

$$$$
13:0
     RDKit          3D

 61 63  0  0  0  0  0  0  0  0999 V2000
   -2.7570   20.3930  -28.0980 C   0  0  0  0  0  0  0  0  0  0  0  0
   -3.1060   20.6640  -29.5630 C   0  0  0  0  0  0  0  0  0  0  0  0
   -3.0550   22.0970  -29.9330 N   0  0  0  0  0  0  0  0  0  0  0  0
   -1.8630   22.4780  -30.7230 C   0  0  0  0  0  0  0  0  0  0  0  0
   -0.7770   21.4080  -30.6210 C   0  0  0  0  0  0  0  0  0  0  0  0
   -3.4790   23.0340  -28.8630 C   0  0  0  0  0  0  0  0  0  0  0  0
   -3.4800   24.5210  -29.2600 C   0  0  0  0  0  0  0  0  0  0  0  0
   -4.1370   24.6550  -30.5030 O   0  0  0  0  0  0  0  0  0  0  0  0
   -5.4270   25.2140  -30.3360 C   0  0  0  0  0  0  0  0  0  0  0  0
   -6.4690   24.5570  -31.2610 C   0  0  0  0  0  0  0  0  0  0  0  0
   -5.8700   23.5860  -32.2940 C   0  0  0  0  0  0  0  0  0  0  0  0
   -5.0160   22.5640  -31.6660 N   0  0  0  0  0  0  0  0  0  0  0  0
   -5.3420   21.2510  -32.1890 C   0  0  0  0  0  0  0  0  0  0  0  0
   -6.6180   20.7100  -31.9820 C   0  0  0  0  0  0  0  0  0  0  0  0
   -6.9550   19.4690  -32.4560 C   0  0  0  0  0  0  0  0  0  0  0  0
   -6.0680   18.6900  -33.1560 N   0  0  0  0  0  0  0  0  0  0  0  0
   -6.4910   17.3770  -33.6800 C   0  0  0  0  0  0  0  0  0  0  0  0
   -4.7750   19.1470  -33.3450 C   0  0  0  0  0  0  0  0  0  0  0  0
   -3.8030   18.3530  -34.0010 C   0  0  0  0  0  0  0  0  0  0  0  0
   -2.5000   18.8130  -34.1840 C   0  0  0  0  0  0  0  0  0  0  0  0
   -2.1300   20.0690  -33.7210 C   0  0  0  0  0  0  0  0  0  0  0  0
   -3.0580   20.8780  -33.0720 C   0  0  0  0  0  0  0  0  0  0  0  0
   -4.3870   20.4420  -32.8680 C   0  0  0  0  0  0  0  0  0  0  0  0
   -8.3640   19.1200  -32.1170 C   0  0  0  0  0  0  0  0  0  0  0  0
   -8.8490   20.2810  -31.2370 C   0  0  0  0  0  0  0  0  0  0  0  0
   -7.7570   21.3570  -31.2740 C   0  0  0  0  0  0  0  0  0  0  0  0
   -3.4576   20.9370  -27.4475 H   0  0  0  0  0  0  0  0  0  0  0  0
   -2.8321   19.3142  -27.8967 H   0  0  0  0  0  0  0  0  0  0  0  0
   -1.7304   20.7330  -27.8967 H   0  0  0  0  0  0  0  0  0  0  0  0
   -2.3929   20.1163  -30.1967 H   0  0  0  0  0  0  0  0  0  0  0  0
   -4.1435   20.3306  -29.7128 H   0  0  0  0  0  0  0  0  0  0  0  0
   -2.1528   22.5977  -31.7774 H   0  0  0  0  0  0  0  0  0  0  0  0
   -1.4644   23.4227  -30.3247 H   0  0  0  0  0  0  0  0  0  0  0  0
   -0.5657   21.1998  -29.5617 H   0  0  0  0  0  0  0  0  0  0  0  0
   -1.1221   20.4872  -31.1139 H   0  0  0  0  0  0  0  0  0  0  0  0
    0.1386   21.7667  -31.1139 H   0  0  0  0  0  0  0  0  0  0  0  0
   -4.5001   22.7623  -28.5570 H   0  0  0  0  0  0  0  0  0  0  0  0
   -2.7383   22.9329  -28.0560 H   0  0  0  0  0  0  0  0  0  0  0  0
   -4.0098   25.1083  -28.4956 H   0  0  0  0  0  0  0  0  0  0  0  0
   -2.4466   24.8895  -29.3395 H   0  0  0  0  0  0  0  0  0  0  0  0
   -5.7417   25.0734  -29.2914 H   0  0  0  0  0  0  0  0  0  0  0  0
   -5.3693   26.2813  -30.5960 H   0  0  0  0  0  0  0  0  0  0  0  0
   -7.1825   23.9996  -30.6363 H   0  0  0  0  0  0  0  0  0  0  0  0
   -6.9455   25.3696  -31.8291 H   0  0  0  0  0  0  0  0  0  0  0  0
   -6.6913   23.0834  -32.8258 H   0  0  0  0  0  0  0  0  0  0  0  0
   -5.2448   24.1709  -32.9847 H   0  0  0  0  0  0  0  0  0  0  0  0
   -5.1150   22.5710  -30.6270 H   0  0  0  0  0  0  0  0  0  0  0  0
   -4.0140   22.7950  -31.8540 H   0  0  0  0  0  0  0  0  0  0  0  0
   -6.7090   16.7002  -32.8407 H   0  0  0  0  0  0  0  0  0  0  0  0
   -7.3945   17.5014  -34.2950 H   0  0  0  0  0  0  0  0  0  0  0  0
   -5.6848   16.9506  -34.2950 H   0  0  0  0  0  0  0  0  0  0  0  0
   -4.0812   17.3558  -34.3726 H   0  0  0  0  0  0  0  0  0  0  0  0
   -1.7620   18.1788  -34.6970 H   0  0  0  0  0  0  0  0  0  0  0  0
   -1.0998   20.4256  -33.8678 H   0  0  0  0  0  0  0  0  0  0  0  0
   -2.7526   21.8717  -32.7124 H   0  0  0  0  0  0  0  0  0  0  0  0
   -8.9749   19.0420  -33.0284 H   0  0  0  0  0  0  0  0  0  0  0  0
   -8.4422   18.1486  -31.6068 H   0  0  0  0  0  0  0  0  0  0  0  0
   -9.7923   20.6861  -31.6320 H   0  0  0  0  0  0  0  0  0  0  0  0
   -9.0326   19.9428  -30.2065 H   0  0  0  0  0  0  0  0  0  0  0  0
   -8.1037   22.2437  -31.8249 H   0  0  0  0  0  0  0  0  0  0  0  0
   -7.4798   21.7057  -30.2682 H   0  0  0  0  0  0  0  0  0  0  0  0
  1  2  1  0
  2  3  1  0
  3  4  1  0
  4  5  1  0
  3  6  1  0
  6  7  1  0
  7  8  1  0
  8  9  1  0
  9 10  1  0
 10 11  1  0
 11 12  1  0
 12 13  1  0
 13 14  2  0
 14 15  1  0
 15 16  2  0
 16 17  1  0
 16 18  1  0
 18 19  2  0
 19 20  1  0
 20 21  2  0
 21 22  1  0
 22 23  2  0
 15 24  1  0
 24 25  1  0
 25 26  1  0
 23 13  1  0
 26 14  1  0
 23 18  1  0
  1 27  1  0
  1 28  1  0
  1 29  1  0
  2 30  1  0
  2 31  1  0
  4 32  1  0
  4 33  1  0
  5 34  1  0
  5 35  1  0
  5 36  1  0
  6 37  1  0
  6 38  1  0
  7 39  1  0
  7 40  1  0
  9 41  1  0
  9 42  1  0
 10 43  1  0
 10 44  1  0
 11 45  1  0
 11 46  1  0
 12 47  1  0
 12 48  1  0
 17 49  1  0
 17 50  1  0
 17 51  1  0
 19 52  1  0
 20 53  1  0
 21 54  1  0
 22 55  1  0
 24 56  1  0
 24 57  1  0
 25 58  1  0
 25 59  1  0
 26 60  1  0
 26 61  1  0
M  CHG  2  12   1  16   1
M  END
>  <UniqueID>  (14) 
14

>  <SMILES>  (14) 
CCN(CC)CCOCCC[NH2+]c1c2c([n+](C)c3ccccc13)CCC2

>  <Energy>  (14) 
83.46997175200013

>  <Genealogy>  (14) 
CCN(CC)CCOCCC[NH2+]c1c2c([n+](C)c3ccccc13)CCC2 (protonated)
CCN(CC)CCOCCC[NH2+]c1c2c([n+](C)c3ccccc13)CCC2 (3D coordinates assigned)
CCN(CC)CCOCCC[NH2+]c1c2c([n+](C)c3ccccc13)CCC2 (nonaromatic ring conformer: 83.46997175200013 kcal/mol)

>  <smiles>  (14) 
CCN(CC)CCOCCCNc1c2c([n+](C)c3ccccc13)CCC2

>  <score_type>  (14) 
oracle

>  <origin>  (14) 
adg

>  <m_score__min__energy>  (14) 
-7.6299999999999999

>  <m_primary>  (14) 
energy

$$$$
14:0
     RDKit          3D

 65 68  0  0  0  0  0  0  0  0999 V2000
   -5.7580   25.5210  -30.3280 C   0  0  0  0  0  0  0  0  0  0  0  0
   -4.6720   24.4630  -30.1320 C   0  0  0  0  0  0  0  0  0  0  0  0
   -4.3700   24.1880  -28.6500 C   0  0  0  0  0  0  0  0  0  0  0  0
   -4.2330   22.6810  -28.3440 C   0  0  0  0  0  0  0  0  0  0  0  0
   -2.9260   22.3580  -27.7090 N   0  0  0  0  0  0  0  0  0  0  0  0
   -2.6400   20.8960  -27.7040 C   0  0  0  0  0  0  0  0  0  0  0  0
   -1.8060   20.4320  -28.9160 C   0  0  0  0  0  0  0  0  0  0  0  0
   -2.0680   21.3110  -30.0700 N   0  0  0  0  0  0  0  0  0  0  0  0
   -1.4900   20.7650  -31.3160 C   0  0  0  0  0  0  0  0  0  0  0  0
   -2.1100   21.4610  -32.5360 C   0  0  0  0  0  0  0  0  0  0  0  0
   -3.5480   21.9210  -32.2700 C   0  0  0  0  0  0  0  0  0  0  0  0
   -4.4470   21.5160  -33.3490 N   0  0  0  0  0  0  0  0  0  0  0  0
   -5.6190   20.7420  -33.0480 C   0  0  0  0  0  0  0  0  0  0  0  0
   -6.7710   21.3690  -32.5440 C   0  0  0  0  0  0  0  0  0  0  0  0
   -6.7920   22.7620  -32.3150 C   0  0  0  0  0  0  0  0  0  0  0  0
   -7.9520   23.3920  -31.8710 C   0  0  0  0  0  0  0  0  0  0  0  0
   -9.1080   22.6500  -31.6580 C   0  0  0  0  0  0  0  0  0  0  0  0
   -9.1040   21.2690  -31.8540 C   0  0  0  0  0  0  0  0  0  0  0  0
   -7.9260   20.5920  -32.2630 C   0  0  0  0  0  0  0  0  0  0  0  0
   -7.8890   19.2170  -32.4030 N   0  0  0  0  0  0  0  0  0  0  0  0
   -8.9840   18.3870  -31.8500 C   0  0  0  0  0  0  0  0  0  0  0  0
   -6.8150   18.6130  -33.0330 C   0  0  0  0  0  0  0  0  0  0  0  0
   -6.8500   17.2510  -33.4310 C   0  0  0  0  0  0  0  0  0  0  0  0
   -5.7420   16.6440  -34.0220 C   0  0  0  0  0  0  0  0  0  0  0  0
   -4.5810   17.3740  -34.2460 C   0  0  0  0  0  0  0  0  0  0  0  0
   -4.5300   18.7240  -33.9080 C   0  0  0  0  0  0  0  0  0  0  0  0
   -5.6440   19.3640  -33.3220 C   0  0  0  0  0  0  0  0  0  0  0  0
   -1.5620   22.6740  -29.8000 C   0  0  0  0  0  0  0  0  0  0  0  0
   -1.8180   23.1130  -28.3380 C   0  0  0  0  0  0  0  0  0  0  0  0
   -6.1137   25.8675  -29.3465 H   0  0  0  0  0  0  0  0  0  0  0  0
   -5.3441   26.3717  -30.8893 H   0  0  0  0  0  0  0  0  0  0  0  0
   -6.5976   25.0850  -30.8893 H   0  0  0  0  0  0  0  0  0  0  0  0
   -5.0048   23.5262  -30.6028 H   0  0  0  0  0  0  0  0  0  0  0  0
   -3.7494   24.8455  -30.5929 H   0  0  0  0  0  0  0  0  0  0  0  0
   -3.4279   24.6892  -28.3831 H   0  0  0  0  0  0  0  0  0  0  0  0
   -5.2145   24.5733  -28.0598 H   0  0  0  0  0  0  0  0  0  0  0  0
   -5.0427   22.3819  -27.6622 H   0  0  0  0  0  0  0  0  0  0  0  0
   -4.2927   22.1339  -29.2964 H   0  0  0  0  0  0  0  0  0  0  0  0
   -2.9630   22.6780  -26.7110 H   0  0  0  0  0  0  0  0  0  0  0  0
   -2.0863   20.6519  -26.7854 H   0  0  0  0  0  0  0  0  0  0  0  0
   -3.6074   20.3751  -27.7563 H   0  0  0  0  0  0  0  0  0  0  0  0
   -0.7368   20.4737  -28.6608 H   0  0  0  0  0  0  0  0  0  0  0  0
   -2.0858   19.4002  -29.1751 H   0  0  0  0  0  0  0  0  0  0  0  0
   -0.4027   20.9316  -31.3159 H   0  0  0  0  0  0  0  0  0  0  0  0
   -1.7041   19.6874  -31.3696 H   0  0  0  0  0  0  0  0  0  0  0  0
   -1.4986   22.3389  -32.7920 H   0  0  0  0  0  0  0  0  0  0  0  0
   -2.1343   20.7360  -33.3629 H   0  0  0  0  0  0  0  0  0  0  0  0
   -3.8975   21.4753  -31.3270 H   0  0  0  0  0  0  0  0  0  0  0  0
   -3.5539   23.0193  -32.2091 H   0  0  0  0  0  0  0  0  0  0  0  0
   -4.4540   22.0770  -34.2320 H   0  0  0  0  0  0  0  0  0  0  0  0
   -5.8826   23.3559  -32.4891 H   0  0  0  0  0  0  0  0  0  0  0  0
   -7.9534   24.4768  -31.6889 H   0  0  0  0  0  0  0  0  0  0  0  0
  -10.0302   23.1542  -31.3334 H   0  0  0  0  0  0  0  0  0  0  0  0
  -10.0283   20.6959  -31.6890 H   0  0  0  0  0  0  0  0  0  0  0  0
   -8.9465   18.4154  -30.7510 H   0  0  0  0  0  0  0  0  0  0  0  0
   -9.9519   18.7803  -32.1941 H   0  0  0  0  0  0  0  0  0  0  0  0
   -8.8668   17.3488  -32.1941 H   0  0  0  0  0  0  0  0  0  0  0  0
   -7.7665   16.6642  -33.2706 H   0  0  0  0  0  0  0  0  0  0  0  0
   -5.7874   15.5838  -34.3118 H   0  0  0  0  0  0  0  0  0  0  0  0
   -3.7016   16.8852  -34.6906 H   0  0  0  0  0  0  0  0  0  0  0  0
   -3.6116   19.2983  -34.0997 H   0  0  0  0  0  0  0  0  0  0  0  0
   -0.4790   22.6944  -29.9917 H   0  0  0  0  0  0  0  0  0  0  0  0
   -2.0984   23.3707  -30.4610 H   0  0  0  0  0  0  0  0  0  0  0  0
   -0.9009   22.9476  -27.7535 H   0  0  0  0  0  0  0  0  0  0  0  0
   -2.1006   24.1760  -28.3510 H   0  0  0  0  0  0  0  0  0  0  0  0
  1  2  1  0
  2  3  1  0
  3  4  1  0
  4  5  1  0
  5  6  1  0
  6  7  1  0
  7  8  1  0
  8  9  1  0
  9 10  1  0
 10 11  1  0
 11 12  1  0
 12 13  1  0
 13 14  1  0
 14 15  2  0
 15 16  1  0
 16 17  2  0
 17 18  1  0
 18 19  2  0
 19 20  1  0
 20 21  1  0
 20 22  2  0
 22 23  1  0
 23 24  2  0
 24 25  1  0
 25 26  2  0
 26 27  1  0
  8 28  1  0
 28 29  1  0
 29  5  1  0
 27 13  2  0
 19 14  1  0
 27 22  1  0
  1 30  1  0
  1 31  1  0
  1 32  1  0
  2 33  1  0
  2 34  1  0
  3 35  1  0
  3 36  1  0
  4 37  1  0
  4 38  1  0
  5 39  1  0
  6 40  1  0
  6 41  1  0
  7 42  1  0
  7 43  1  0
  9 44  1  0
  9 45  1  0
 10 46  1  0
 10 47  1  0
 11 48  1  0
 11 49  1  0
 12 50  1  0
 15 51  1  0
 16 52  1  0
 17 53  1  0
 18 54  1  0
 21 55  1  0
 21 56  1  0
 21 57  1  0
 23 58  1  0
 24 59  1  0
 25 60  1  0
 26 61  1  0
 28 62  1  0
 28 63  1  0
 29 64  1  0
 29 65  1  0
M  CHG  2   5   1  20   1
M  END
>  <UniqueID>  (15) 
15

>  <SMILES>  (15) 
CCCC[NH+]1CCN(CCCNc2c3ccccc3[n+](C)c3ccccc23)CC1

>  <Energy>  (15) 
98.23758189194598

>  <Genealogy>  (15) 
CCCC[NH+]1CCN(CCCNc2c3ccccc3[n+](C)c3ccccc23)CC1 (protonated)
CCCC[NH+]1CCN(CCCNc2c3ccccc3[n+](C)c3ccccc23)CC1 (3D coordinates assigned)
CCCC[NH+]1CCN(CCCNc2c3ccccc3[n+](C)c3ccccc23)CC1 (nonaromatic ring conformer: 98.23758189194598 kcal/mol)

>  <smiles>  (15) 
CCCCN1CCN(CCCNc2c3ccccc3[n+](C)c3ccccc23)CC1

>  <score_type>  (15) 
oracle

>  <origin>  (15) 
adg

>  <m_score__min__energy>  (15) 
-8.2599999999999998

>  <m_primary>  (15) 
energy

$$$$
15:0
     RDKit          3D

 54 56  0  0  0  0  0  0  0  0999 V2000
   -1.6680   22.5590  -30.3510 C   0  0  0  0  0  0  0  0  0  0  0  0
   -1.7140   23.2360  -28.9790 C   0  0  0  0  0  0  0  0  0  0  0  0
   -0.8660   24.5110  -28.9780 C   0  0  0  0  0  0  0  0  0  0  0  0
   -3.1000   23.5440  -28.6170 N   0  0  0  0  0  0  0  0  0  0  0  0
   -3.9280   24.4010  -29.4170 C   0  0  0  0  0  0  0  0  0  0  0  0
   -3.4710   24.9230  -30.4720 O   0  0  0  0  0  0  0  0  0  0  0  0
   -5.3380   24.7040  -28.9970 C   0  0  0  0  0  0  0  0  0  0  0  0
   -6.1330   25.4530  -30.0820 C   0  0  0  0  0  0  0  0  0  0  0  0
   -6.6340   24.5550  -31.2290 C   0  0  0  0  0  0  0  0  0  0  0  0
   -6.1320   23.1070  -31.1690 C   0  0  0  0  0  0  0  0  0  0  0  0
   -5.8750   22.5730  -32.5090 N   0  0  0  0  0  0  0  0  0  0  0  0
   -5.7240   21.1620  -32.7550 C   0  0  0  0  0  0  0  0  0  0  0  0
   -4.4780   20.6300  -33.1400 C   0  0  0  0  0  0  0  0  0  0  0  0
   -3.3120   21.4260  -33.1220 C   0  0  0  0  0  0  0  0  0  0  0  0
   -2.0780   20.8910  -33.4820 C   0  0  0  0  0  0  0  0  0  0  0  0
   -1.9770   19.5520  -33.8400 C   0  0  0  0  0  0  0  0  0  0  0  0
   -3.1100   18.7400  -33.8450 C   0  0  0  0  0  0  0  0  0  0  0  0
   -4.3870   19.2630  -33.5140 C   0  0  0  0  0  0  0  0  0  0  0  0
   -5.5220   18.4750  -33.5380 N   0  0  0  0  0  0  0  0  0  0  0  0
   -5.4970   17.1630  -34.2220 C   0  0  0  0  0  0  0  0  0  0  0  0
   -6.6830   18.9220  -32.9380 C   0  0  0  0  0  0  0  0  0  0  0  0
   -7.7670   18.0460  -32.6740 C   0  0  0  0  0  0  0  0  0  0  0  0
   -8.9540   18.5190  -32.1180 C   0  0  0  0  0  0  0  0  0  0  0  0
   -9.0900   19.8650  -31.8010 C   0  0  0  0  0  0  0  0  0  0  0  0
   -8.0300   20.7430  -32.0130 C   0  0  0  0  0  0  0  0  0  0  0  0
   -6.8110   20.2860  -32.5610 C   0  0  0  0  0  0  0  0  0  0  0  0
   -1.5940   21.4694  -30.2199 H   0  0  0  0  0  0  0  0  0  0  0  0
   -2.5846   22.7997  -30.9096 H   0  0  0  0  0  0  0  0  0  0  0  0
   -0.7924   22.9214  -30.9096 H   0  0  0  0  0  0  0  0  0  0  0  0
   -1.2971   22.5444  -28.2321 H   0  0  0  0  0  0  0  0  0  0  0  0
   -0.6633   24.8157  -27.9407 H   0  0  0  0  0  0  0  0  0  0  0  0
    0.0851   24.3192  -29.4963 H   0  0  0  0  0  0  0  0  0  0  0  0
   -1.4106   25.3140  -29.4963 H   0  0  0  0  0  0  0  0  0  0  0  0
   -3.5160   23.1020  -27.7650 H   0  0  0  0  0  0  0  0  0  0  0  0
   -5.8508   23.7562  -28.7761 H   0  0  0  0  0  0  0  0  0  0  0  0
   -5.2884   25.3555  -28.1120 H   0  0  0  0  0  0  0  0  0  0  0  0
   -7.0056   25.9249  -29.6067 H   0  0  0  0  0  0  0  0  0  0  0  0
   -5.4449   26.1849  -30.5303 H   0  0  0  0  0  0  0  0  0  0  0  0
   -7.7334   24.5390  -31.1976 H   0  0  0  0  0  0  0  0  0  0  0  0
   -6.2364   24.9856  -32.1599 H   0  0  0  0  0  0  0  0  0  0  0  0
   -5.1994   23.0756  -30.5866 H   0  0  0  0  0  0  0  0  0  0  0  0
   -6.9101   22.4908  -30.6947 H   0  0  0  0  0  0  0  0  0  0  0  0
   -5.6910   23.2510  -33.2820 H   0  0  0  0  0  0  0  0  0  0  0  0
   -3.3793   22.4816  -32.8199 H   0  0  0  0  0  0  0  0  0  0  0  0
   -1.1819   21.5290  -33.4830 H   0  0  0  0  0  0  0  0  0  0  0  0
   -0.9999   19.1316  -34.1203 H   0  0  0  0  0  0  0  0  0  0  0  0
   -3.0127   17.6768  -34.1098 H   0  0  0  0  0  0  0  0  0  0  0  0
   -5.4817   16.3586  -33.4718 H   0  0  0  0  0  0  0  0  0  0  0  0
   -6.3934   17.0604  -34.8513 H   0  0  0  0  0  0  0  0  0  0  0  0
   -4.5974   17.0947  -34.8513 H   0  0  0  0  0  0  0  0  0  0  0  0
   -7.6691   16.9765  -32.9119 H   0  0  0  0  0  0  0  0  0  0  0  0
   -9.7860   17.8246  -31.9295 H   0  0  0  0  0  0  0  0  0  0  0  0
  -10.0363   20.2376  -31.3820 H   0  0  0  0  0  0  0  0  0  0  0  0
   -8.1434   21.8052  -31.7505 H   0  0  0  0  0  0  0  0  0  0  0  0
  1  2  1  0
  2  3  1  0
  2  4  1  0
  4  5  1  0
  5  6  2  0
  5  7  1  0
  7  8  1  0
  8  9  1  0
  9 10  1  0
 10 11  1  0
 11 12  1  0
 12 13  2  0
 13 14  1  0
 14 15  2  0
 15 16  1  0
 16 17  2  0
 17 18  1  0
 18 19  2  0
 19 20  1  0
 19 21  1  0
 21 22  2  0
 22 23  1  0
 23 24  2  0
 24 25  1  0
 25 26  2  0
 26 12  1  0
 18 13  1  0
 26 21  1  0
  1 27  1  0
  1 28  1  0
  1 29  1  0
  2 30  1  0
  3 31  1  0
  3 32  1  0
  3 33  1  0
  4 34  1  0
  7 35  1  0
  7 36  1  0
  8 37  1  0
  8 38  1  0
  9 39  1  0
  9 40  1  0
 10 41  1  0
 10 42  1  0
 11 43  1  0
 14 44  1  0
 15 45  1  0
 16 46  1  0
 17 47  1  0
 20 48  1  0
 20 49  1  0
 20 50  1  0
 22 51  1  0
 23 52  1  0
 24 53  1  0
 25 54  1  0
M  CHG  1  19   1
M  END
>  <UniqueID>  (16) 
16

>  <SMILES>  (16) 
CC(C)NC(=O)CCCCNc1c2ccccc2[n+](C)c2ccccc12

>  <Energy>  (16) 
65.72638236253131

>  <Genealogy>  (16) 
CC(C)NC(=O)CCCCNc1c2ccccc2[n+](C)c2ccccc12 (3D coordinates assigned)
CC(C)NC(=O)CCCCNc1c2ccccc2[n+](C)c2ccccc12 (optimized conformer: 65.72638236253131 kcal/mol)

>  <smiles>  (16) 
CC(C)NC(=O)CCCCNc1c2ccccc2[n+](C)c2ccccc12

>  <score_type>  (16) 
oracle

>  <origin>  (16) 
adg

>  <m_score__min__energy>  (16) 
-9.7300000000000004

>  <m_primary>  (16) 
energy

$$$$
16:0
     RDKit          3D

 54 57  0  0  0  0  0  0  0  0999 V2000
   -0.9230   26.6590  -26.4900 C   0  0  0  0  0  0  0  0  0  0  0  0
   -0.7470   25.5090  -27.4850 C   0  0  0  0  0  0  0  0  0  0  0  0
   -1.7260   24.4150  -27.2730 N   0  0  1  0  0  0  0  0  0  0  0  0
   -1.1590   23.4330  -26.3300 C   0  0  0  0  0  0  0  0  0  0  0  0
   -3.0390   24.9170  -26.7670 C   0  0  0  0  0  0  0  0  0  0  0  0
   -4.2340   24.1470  -27.3560 C   0  0  0  0  0  0  0  0  0  0  0  0
   -4.4100   24.4450  -28.7770 N   0  0  0  0  0  0  0  0  0  0  0  0
   -4.3680   23.3940  -29.7500 C   0  0  0  0  0  0  0  0  0  0  0  0
   -5.5330   22.8700  -30.3580 C   0  0  0  0  0  0  0  0  0  0  0  0
   -5.4180   21.7610  -31.2500 C   0  0  0  0  0  0  0  0  0  0  0  0
   -4.1650   21.3560  -31.6880 N   0  0  0  0  0  0  0  0  0  0  0  0
   -3.9740   20.4280  -32.8150 C   0  0  0  0  0  0  0  0  0  0  0  0
   -3.0590   21.8900  -31.0840 C   0  0  0  0  0  0  0  0  0  0  0  0
   -3.1460   22.8660  -30.1390 C   0  0  0  0  0  0  0  0  0  0  0  0
   -1.9040   23.2310  -29.6680 O   0  0  0  0  0  0  0  0  0  0  0  0
   -0.8870   22.4620  -30.3070 C   0  0  0  0  0  0  0  0  0  0  0  0
   -1.6230   21.5550  -31.3220 C   0  0  0  0  0  0  0  0  0  0  0  0
   -6.6960   21.1250  -31.7110 C   0  0  0  0  0  0  0  0  0  0  0  0
   -6.8130   19.7390  -31.9300 C   0  0  0  0  0  0  0  0  0  0  0  0
   -8.0300   19.1860  -32.3410 C   0  0  0  0  0  0  0  0  0  0  0  0
   -9.1530   19.9990  -32.4970 C   0  0  0  0  0  0  0  0  0  0  0  0
   -9.0760   21.3610  -32.2000 C   0  0  0  0  0  0  0  0  0  0  0  0
   -7.8620   21.9190  -31.7710 C   0  0  0  0  0  0  0  0  0  0  0  0
   -7.7950   23.3580  -31.3330 C   0  0  0  0  0  0  0  0  0  0  0  0
   -6.8950   23.4800  -30.0960 C   0  0  0  0  0  0  0  0  0  0  0  0
   -0.8632   26.2681  -25.4635 H   0  0  0  0  0  0  0  0  0  0  0  0
   -0.1283   27.4035  -26.6458 H   0  0  0  0  0  0  0  0  0  0  0  0
   -1.9040   27.1317  -26.6458 H   0  0  0  0  0  0  0  0  0  0  0  0
   -0.8742   25.9027  -28.5042 H   0  0  0  0  0  0  0  0  0  0  0  0
    0.2586   25.0894  -27.3341 H   0  0  0  0  0  0  0  0  0  0  0  0
   -1.8500   23.9080  -28.1820 H   0  0  0  0  0  0  0  0  0  0  0  0
   -1.3496   23.7631  -25.2982 H   0  0  0  0  0  0  0  0  0  0  0  0
   -1.6300   22.4526  -26.4942 H   0  0  0  0  0  0  0  0  0  0  0  0
   -0.0744   23.3508  -26.4942 H   0  0  0  0  0  0  0  0  0  0  0  0
   -3.0578   24.8126  -25.6721 H   0  0  0  0  0  0  0  0  0  0  0  0
   -3.1352   25.9683  -27.0762 H   0  0  0  0  0  0  0  0  0  0  0  0
   -4.0595   23.0677  -27.2352 H   0  0  0  0  0  0  0  0  0  0  0  0
   -5.1440   24.4564  -26.8211 H   0  0  0  0  0  0  0  0  0  0  0  0
   -4.1410   25.4020  -29.1060 H   0  0  0  0  0  0  0  0  0  0  0  0
   -3.7664   19.4194  -32.4283 H   0  0  0  0  0  0  0  0  0  0  0  0
   -4.8862   20.4046  -33.4293 H   0  0  0  0  0  0  0  0  0  0  0  0
   -3.1267   20.7667  -33.4293 H   0  0  0  0  0  0  0  0  0  0  0  0
   -0.1769   23.1219  -30.8269 H   0  0  0  0  0  0  0  0  0  0  0  0
   -0.3077   21.8723  -29.5813 H   0  0  0  0  0  0  0  0  0  0  0  0
   -1.3263   21.7932  -32.3541 H   0  0  0  0  0  0  0  0  0  0  0  0
   -1.3981   20.4859  -31.1939 H   0  0  0  0  0  0  0  0  0  0  0  0
   -5.9408   19.0865  -31.7767 H   0  0  0  0  0  0  0  0  0  0  0  0
   -8.1020   18.1069  -32.5419 H   0  0  0  0  0  0  0  0  0  0  0  0
  -10.0994   19.5668  -32.8541 H   0  0  0  0  0  0  0  0  0  0  0  0
   -9.9676   21.9971  -32.3023 H   0  0  0  0  0  0  0  0  0  0  0  0
   -7.3811   23.9696  -32.1482 H   0  0  0  0  0  0  0  0  0  0  0  0
   -8.8067   23.7108  -31.0840 H   0  0  0  0  0  0  0  0  0  0  0  0
   -6.7712   24.5435  -29.8438 H   0  0  0  0  0  0  0  0  0  0  0  0
   -7.3678   22.9407  -29.2619 H   0  0  0  0  0  0  0  0  0  0  0  0
  1  2  1  0
  2  3  1  0
  3  4  1  0
  3  5  1  0
  5  6  1  0
  6  7  1  0
  7  8  1  0
  8  9  2  0
  9 10  1  0
 10 11  2  0
 11 12  1  0
 11 13  1  0
 13 14  2  0
 14 15  1  0
 15 16  1  0
 16 17  1  0
 10 18  1  0
 18 19  2  0
 19 20  1  0
 20 21  2  0
 21 22  1  0
 22 23  2  0
 23 24  1  0
 24 25  1  0
 14  8  1  0
 23 18  1  0
 25  9  1  0
 17 13  1  0
  1 26  1  0
  1 27  1  0
  1 28  1  0
  2 29  1  0
  2 30  1  0
  3 31  1  6
  4 32  1  0
  4 33  1  0
  4 34  1  0
  5 35  1  0
  5 36  1  0
  6 37  1  0
  6 38  1  0
  7 39  1  0
 12 40  1  0
 12 41  1  0
 12 42  1  0
 16 43  1  0
 16 44  1  0
 17 45  1  0
 17 46  1  0
 19 47  1  0
 20 48  1  0
 21 49  1  0
 22 50  1  0
 24 51  1  0
 24 52  1  0
 25 53  1  0
 25 54  1  0
M  CHG  2   3   1  11   1
M  END
>  <UniqueID>  (17) 
17

>  <SMILES>  (17) 
CC[N@@H+](C)CCNc1c2c([n+](C)c3c1OCC3)-c1ccccc1CC2

>  <Energy>  (17) 
93.21710605678885

>  <Genealogy>  (17) 
CC[NH+](C)CCNc1c2c([n+](C)c3c1OCC3)-c1ccccc1CC2 (protonated)
CC[N@@H+](C)CCNc1c2c([n+](C)c3c1OCC3)-c1ccccc1CC2 (chirality)
CC[N@@H+](C)CCNc1c2c([n+](C)c3c1OCC3)-c1ccccc1CC2 (3D coordinates assigned)
CC[N@@H+](C)CCNc1c2c([n+](C)c3c1OCC3)-c1ccccc1CC2 (nonaromatic ring conformer: 93.21710605678885 kcal/mol)

>  <smiles>  (17) 
CCN(C)CCNc1c2c([n+](C)c3c1OCC3)-c1ccccc1CC2

>  <score_type>  (17) 
oracle

>  <origin>  (17) 
adg

>  <m_score__min__energy>  (17) 
-6.21

>  <m_primary>  (17) 
energy

$$$$
17:0
     RDKit          3D

 59 58  0  0  0  0  0  0  0  0999 V2000
   -5.7342   16.9920  -35.2485 H   0  0  0  0  0  0  0  0  0  0  0  0
   -5.8230   17.5830  -34.3250 C   0  0  0  0  0  0  0  0  0  0  0  0
   -5.5200   18.8930  -34.3850 C   0  0  0  0  0  0  0  0  0  0  0  0
   -5.8923   19.4672  -35.2462 H   0  0  0  0  0  0  0  0  0  0  0  0
   -4.7040   19.6260  -33.3500 C   0  0  0  0  0  0  0  0  0  0  0  0
   -3.6710   19.7310  -33.7132 H   0  0  0  0  0  0  0  0  0  0  0  0
   -4.7237   19.0502  -32.4129 H   0  0  0  0  0  0  0  0  0  0  0  0
   -5.2880   21.0210  -33.0830 C   0  0  0  0  0  0  0  0  0  0  0  0
   -6.0677   20.9341  -32.3119 H   0  0  0  0  0  0  0  0  0  0  0  0
   -5.6947   21.3977  -34.0331 H   0  0  0  0  0  0  0  0  0  0  0  0
   -4.2280   22.0280  -32.6000 C   0  0  0  0  0  0  0  0  0  0  0  0
   -4.7445   22.9510  -32.2978 H   0  0  0  0  0  0  0  0  0  0  0  0
   -3.5340   22.1765  -33.4404 H   0  0  0  0  0  0  0  0  0  0  0  0
   -3.3770   21.5440  -31.4130 C   0  0  0  0  0  0  0  0  0  0  0  0
   -3.4898   20.4536  -31.3218 H   0  0  0  0  0  0  0  0  0  0  0  0
   -3.7343   22.0691  -30.5149 H   0  0  0  0  0  0  0  0  0  0  0  0
   -1.8920   21.8690  -31.5740 C   0  0  0  0  0  0  0  0  0  0  0  0
   -1.4291   21.9703  -30.5813 H   0  0  0  0  0  0  0  0  0  0  0  0
   -1.3971   21.0579  -32.1283 H   0  0  0  0  0  0  0  0  0  0  0  0
   -1.7812   22.8127  -32.1283 H   0  0  0  0  0  0  0  0  0  0  0  0
   -6.2760   16.8730  -33.0750 C   0  0  0  0  0  0  0  0  0  0  0  0
   -6.4253   15.8070  -33.3015 H   0  0  0  0  0  0  0  0  0  0  0  0
   -5.5037   16.9998  -32.3020 H   0  0  0  0  0  0  0  0  0  0  0  0
   -7.5700   17.4530  -32.5590 C   0  0  0  0  0  0  0  0  0  0  0  0
   -8.5144   17.0235  -32.9245 H   0  0  0  0  0  0  0  0  0  0  0  0
   -7.6320   18.4670  -31.6760 C   0  0  0  0  0  0  0  0  0  0  0  0
   -6.7494   18.6572  -31.0477 H   0  0  0  0  0  0  0  0  0  0  0  0
   -8.8340   19.3590  -31.4930 C   0  0  0  0  0  0  0  0  0  0  0  0
   -9.7480   18.7503  -31.5569 H   0  0  0  0  0  0  0  0  0  0  0  0
   -8.7659   19.8450  -30.5086 H   0  0  0  0  0  0  0  0  0  0  0  0
   -8.8760   20.4430  -32.5740 C   0  0  0  0  0  0  0  0  0  0  0  0
   -8.0820   20.2472  -33.3097 H   0  0  0  0  0  0  0  0  0  0  0  0
   -9.8649   20.4174  -33.0551 H   0  0  0  0  0  0  0  0  0  0  0  0
   -8.6650   21.8400  -31.9680 C   0  0  0  0  0  0  0  0  0  0  0  0
   -7.8903   22.3642  -32.5468 H   0  0  0  0  0  0  0  0  0  0  0  0
   -9.6251   22.3753  -32.0091 H   0  0  0  0  0  0  0  0  0  0  0  0
   -8.2220   21.7720  -30.4910 C   0  0  0  0  0  0  0  0  0  0  0  0
   -9.0772   22.0516  -29.8583 H   0  0  0  0  0  0  0  0  0  0  0  0
   -7.8815   20.7430  -30.3036 H   0  0  0  0  0  0  0  0  0  0  0  0
   -7.0440   22.7050  -30.1570 C   0  0  0  0  0  0  0  0  0  0  0  0
   -7.3082   23.2991  -29.2697 H   0  0  0  0  0  0  0  0  0  0  0  0
   -6.1627   22.0711  -29.9797 H   0  0  0  0  0  0  0  0  0  0  0  0
   -6.6950   23.6660  -31.3030 C   0  0  0  0  0  0  0  0  0  0  0  0
   -5.8949   23.2213  -31.9129 H   0  0  0  0  0  0  0  0  0  0  0  0
   -7.5991   23.8292  -31.9080 H   0  0  0  0  0  0  0  0  0  0  0  0
   -6.2190   25.0230  -30.7650 C   0  0  0  0  0  0  0  0  0  0  0  0
   -6.0588   25.7014  -31.6159 H   0  0  0  0  0  0  0  0  0  0  0  0
   -6.9958   25.3988  -30.0828 H   0  0  0  0  0  0  0  0  0  0  0  0
   -4.9380   24.9250  -29.9810 C   0  0  0  0  0  0  0  0  0  0  0  0
   -3.8400   25.2870  -30.4890 O   0  0  0  0  0  0  0  0  0  0  0  0
   -4.9730   24.4180  -28.6410 N   0  0  0  0  0  0  0  0  0  0  0  0
   -5.8950   24.1240  -28.2430 H   0  0  0  0  0  0  0  0  0  0  0  0
   -3.7550   24.3000  -27.8370 C   0  0  0  0  0  0  0  0  0  0  0  0
   -3.3212   25.3009  -27.6957 H   0  0  0  0  0  0  0  0  0  0  0  0
   -4.0215   23.8496  -26.8695 H   0  0  0  0  0  0  0  0  0  0  0  0
   -2.7220   23.4020  -28.5170 C   0  0  0  0  0  0  0  0  0  0  0  0
   -2.4668   22.5715  -27.8423 H   0  0  0  0  0  0  0  0  0  0  0  0
   -3.1523   23.0174  -29.4534 H   0  0  0  0  0  0  0  0  0  0  0  0
   -1.2390   24.3180  -28.9040 Cl  0  0  0  0  0  0  0  0  0  0  0  0
  1  2  1  0
  2  3  2  3
  3  4  1  0
  3  5  1  0
  5  6  1  0
  5  7  1  0
  5  8  1  0
  8  9  1  0
  8 10  1  0
  8 11  1  0
 11 12  1  0
 11 13  1  0
 11 14  1  0
 14 15  1  0
 14 16  1  0
 14 17  1  0
 17 18  1  0
 17 19  1  0
 17 20  1  0
  2 21  1  0
 21 22  1  0
 21 23  1  0
 21 24  1  0
 24 25  1  0
 24 26  2  0
 26 27  1  0
 26 28  1  0
 28 29  1  0
 28 30  1  0
 28 31  1  0
 31 32  1  0
 31 33  1  0
 31 34  1  0
 34 35  1  0
 34 36  1  0
 34 37  1  0
 37 38  1  0
 37 39  1  0
 37 40  1  0
 40 41  1  0
 40 42  1  0
 40 43  1  0
 43 44  1  0
 43 45  1  0
 43 46  1  0
 46 47  1  0
 46 48  1  0
 46 49  1  0
 49 50  2  0
 49 51  1  0
 51 52  1  0
 51 53  1  0
 53 54  1  0
 53 55  1  0
 53 56  1  0
 56 57  1  0
 56 58  1  0
 56 59  1  0
M  END
>  <UniqueID>  (18) 
18

>  <SMILES>  (18) 
CCCCCC=CC/C=C\CCCCCCCC(=O)NCCCl

>  <Energy>  (18) 
27.299922802964463

>  <Genealogy>  (18) 
CCCCCC=CC/C=C\CCCCCCCC(=O)NCCCl (cis-trans isomerization)
CCCCCC=CC/C=C\CCCCCCCC(=O)NCCCl (3D coordinates assigned)
CCCCCC=CC/C=C\CCCCCCCC(=O)NCCCl (optimized conformer: 27.299922802964463 kcal/mol)

>  <smiles>  (18) 
CCCCCC=CCC=CCCCCCCCC(=O)NCCCl

>  <score_type>  (18) 
oracle

>  <origin>  (18) 
adg

>  <m_score__min__energy>  (18) 
-7.5999999999999996

>  <m_primary>  (18) 
energy

$$$$
18:0
     RDKit          3D

 95100  0  0  0  0  0  0  0  0999 V2000
    0.1550   18.6790  -35.7080 C   0  0  0  0  0  0  0  0  0  0  0  0
   -0.2420   19.3910  -34.4070 C   0  0  0  0  0  0  0  0  0  0  0  0
   -0.8230   20.7410  -34.6290 N   0  0  0  0  0  0  0  0  0  0  0  0
   -0.1000   21.4480  -35.7220 C   0  0  0  0  0  0  0  0  0  0  0  0
    1.2560   22.0220  -35.2780 C   0  0  0  0  0  0  0  0  0  0  0  0
   -0.7590   21.5320  -33.3700 C   0  0  0  0  0  0  0  0  0  0  0  0
   -2.0320   21.3950  -32.4960 C   0  0  0  0  0  0  0  0  0  0  0  0
   -3.2310   21.7790  -33.2420 N   0  0  0  0  0  0  0  0  0  0  0  0
   -4.5330   21.3050  -32.8690 C   0  0  0  0  0  0  0  0  0  0  0  0
   -4.9400   20.0180  -33.2100 C   0  0  0  0  0  0  0  0  0  0  0  0
   -6.2150   19.5650  -32.8870 C   0  0  0  0  0  0  0  0  0  0  0  0
   -7.1230   20.3280  -32.2080 N   0  0  0  0  0  0  0  0  0  0  0  0
   -8.4600   19.7960  -31.8930 C   0  0  0  0  0  0  0  0  0  0  0  0
   -6.7450   21.6040  -31.8140 C   0  0  0  0  0  0  0  0  0  0  0  0
   -7.6250   22.4420  -31.0870 C   0  0  0  0  0  0  0  0  0  0  0  0
   -7.2360   23.7230  -30.6930 C   0  0  0  0  0  0  0  0  0  0  0  0
   -5.9700   24.2030  -31.0090 C   0  0  0  0  0  0  0  0  0  0  0  0
   -5.0770   23.4090  -31.7220 C   0  0  0  0  0  0  0  0  0  0  0  0
   -5.4390   22.1090  -32.1360 C   0  0  0  0  0  0  0  0  0  0  0  0
   -6.2810   18.1740  -33.3440 C   0  0  0  0  0  0  0  0  0  0  0  0
   -7.1590   17.2030  -33.3600 O   0  0  0  0  0  0  0  0  0  0  0  0
   -6.5590   16.1650  -33.9300 C   0  0  0  0  0  0  0  0  0  0  0  0
   -5.2420   16.4930  -34.2760 C   0  0  0  0  0  0  0  0  0  0  0  0
   -4.2250   15.6320  -34.9590 C   0  0  0  0  0  0  0  0  0  0  0  0
   -2.8790   15.9950  -34.4950 N   0  0  0  0  0  0  0  0  0  0  0  0
   -2.6490   15.6320  -33.0870 C   0  0  0  0  0  0  0  0  0  0  0  0
   -1.1740   15.2840  -32.8040 C   0  0  0  0  0  0  0  0  0  0  0  0
   -0.2750   16.5320  -32.7280 C   0  0  0  0  0  0  0  0  0  0  0  0
   -0.1050   17.1280  -31.3160 C   0  0  0  0  0  0  0  0  0  0  0  0
   -0.5060   18.6170  -31.2150 C   0  0  0  0  0  0  0  0  0  0  0  0
    0.6560   19.5340  -30.8070 C   0  0  0  0  0  0  0  0  0  0  0  0
    1.2770   19.0610  -29.5630 N   0  0  0  0  0  0  0  0  0  0  0  0
    1.0630   19.9960  -28.4500 C   0  0  0  0  0  0  0  0  0  0  0  0
   -0.3920   20.0440  -28.0090 C   0  0  0  0  0  0  0  0  0  0  0  0
   -0.8630   18.9680  -27.2360 C   0  0  0  0  0  0  0  0  0  0  0  0
   -2.1900   18.9120  -26.8130 C   0  0  0  0  0  0  0  0  0  0  0  0
   -3.0790   19.9270  -27.1540 C   0  0  0  0  0  0  0  0  0  0  0  0
   -2.6490   21.0110  -27.9290 C   0  0  0  0  0  0  0  0  0  0  0  0
   -3.5600   22.0230  -28.2710 C   0  0  0  0  0  0  0  0  0  0  0  0
   -3.1530   23.1010  -29.0540 C   0  0  0  0  0  0  0  0  0  0  0  0
   -1.8350   23.1850  -29.4980 C   0  0  0  0  0  0  0  0  0  0  0  0
   -0.9120   22.1930  -29.1610 C   0  0  0  0  0  0  0  0  0  0  0  0
   -1.2970   21.0850  -28.3710 C   0  0  0  0  0  0  0  0  0  0  0  0
   -5.1180   17.8030  -33.8890 C   0  0  0  0  0  0  0  0  0  0  0  0
   -4.1860   18.9140  -33.8440 C   0  0  0  0  0  0  0  0  0  0  0  0
   -2.9790   18.9050  -34.1970 O   0  0  0  0  0  0  0  0  0  0  0  0
    0.6778   17.7414  -35.4680 H   0  0  0  0  0  0  0  0  0  0  0  0
   -0.7486   18.4553  -36.2940 H   0  0  0  0  0  0  0  0  0  0  0  0
    0.8203   19.3301  -36.2940 H   0  0  0  0  0  0  0  0  0  0  0  0
   -0.9860   18.7725  -33.8836 H   0  0  0  0  0  0  0  0  0  0  0  0
    0.6759   19.5247  -33.8157 H   0  0  0  0  0  0  0  0  0  0  0  0
   -1.8280   20.6320  -34.9070 H   0  0  0  0  0  0  0  0  0  0  0  0
    0.0731   20.7374  -36.5436 H   0  0  0  0  0  0  0  0  0  0  0  0
   -0.7276   22.2956  -36.0347 H   0  0  0  0  0  0  0  0  0  0  0  0
    1.3036   22.0421  -34.1792 H   0  0  0  0  0  0  0  0  0  0  0  0
    2.0673   21.3901  -35.6686 H   0  0  0  0  0  0  0  0  0  0  0  0
    1.3670   23.0443  -35.6686 H   0  0  0  0  0  0  0  0  0  0  0  0
    0.1058   21.1870  -32.7842 H   0  0  0  0  0  0  0  0  0  0  0  0
   -0.6705   22.5910  -33.6540 H   0  0  0  0  0  0  0  0  0  0  0  0
   -2.1322   20.3493  -32.1697 H   0  0  0  0  0  0  0  0  0  0  0  0
   -1.9324   22.0645  -31.6289 H   0  0  0  0  0  0  0  0  0  0  0  0
   -3.1250   22.2670  -34.1640 H   0  0  0  0  0  0  0  0  0  0  0  0
   -8.5867   19.7456  -30.8015 H   0  0  0  0  0  0  0  0  0  0  0  0
   -9.2279   20.4571  -32.3211 H   0  0  0  0  0  0  0  0  0  0  0  0
   -8.5638   18.7881  -32.3211 H   0  0  0  0  0  0  0  0  0  0  0  0
   -8.6304   22.0778  -30.8289 H   0  0  0  0  0  0  0  0  0  0  0  0
   -7.9356   24.3571  -30.1287 H   0  0  0  0  0  0  0  0  0  0  0  0
   -5.6732   25.2143  -30.6942 H   0  0  0  0  0  0  0  0  0  0  0  0
   -4.0777   23.7988  -31.9658 H   0  0  0  0  0  0  0  0  0  0  0  0
   -7.0294   15.1863  -34.1056 H   0  0  0  0  0  0  0  0  0  0  0  0
   -4.4213   14.5759  -34.7221 H   0  0  0  0  0  0  0  0  0  0  0  0
   -4.2894   15.7840  -36.0465 H   0  0  0  0  0  0  0  0  0  0  0  0
   -2.7440   17.0280  -34.6070 H   0  0  0  0  0  0  0  0  0  0  0  0
   -2.9401   16.4810  -32.4511 H   0  0  0  0  0  0  0  0  0  0  0  0
   -3.2527   14.7390  -32.8676 H   0  0  0  0  0  0  0  0  0  0  0  0
   -1.1161   14.7492  -31.8445 H   0  0  0  0  0  0  0  0  0  0  0  0
   -0.8125   14.6633  -33.6371 H   0  0  0  0  0  0  0  0  0  0  0  0
    0.7214   16.2582  -33.1050 H   0  0  0  0  0  0  0  0  0  0  0  0
   -0.7725   17.3063  -33.3305 H   0  0  0  0  0  0  0  0  0  0  0  0
   -0.7313   16.5521  -30.6188 H   0  0  0  0  0  0  0  0  0  0  0  0
    0.9652   17.0670  -31.0693 H   0  0  0  0  0  0  0  0  0  0  0  0
   -0.8812   18.9446  -32.1958 H   0  0  0  0  0  0  0  0  0  0  0  0
   -1.2727   18.6948  -30.4301 H   0  0  0  0  0  0  0  0  0  0  0  0
    1.4101   19.5397  -31.6078 H   0  0  0  0  0  0  0  0  0  0  0  0
    0.2655   20.5493  -30.6441 H   0  0  0  0  0  0  0  0  0  0  0  0
    0.8720   18.1260  -29.3130 H   0  0  0  0  0  0  0  0  0  0  0  0
    1.6810   19.6784  -27.5972 H   0  0  0  0  0  0  0  0  0  0  0  0
    1.3434   21.0017  -28.7963 H   0  0  0  0  0  0  0  0  0  0  0  0
   -0.1728   18.1570  -26.9605 H   0  0  0  0  0  0  0  0  0  0  0  0
   -2.5361   18.0617  -26.2070 H   0  0  0  0  0  0  0  0  0  0  0  0
   -4.1237   19.8775  -26.8133 H   0  0  0  0  0  0  0  0  0  0  0  0
   -4.6005   21.9644  -27.9189 H   0  0  0  0  0  0  0  0  0  0  0  0
   -3.8737   23.8875  -29.3223 H   0  0  0  0  0  0  0  0  0  0  0  0
   -1.5198   24.0376  -30.1175 H   0  0  0  0  0  0  0  0  0  0  0  0
    0.1266   22.2743  -29.5141 H   0  0  0  0  0  0  0  0  0  0  0  0
  1  2  1  0
  2  3  1  0
  3  4  1  0
  4  5  1  0
  3  6  1  0
  6  7  1  0
  7  8  1  0
  8  9  1  0
  9 10  2  0
 10 11  1  0
 11 12  2  0
 12 13  1  0
 12 14  1  0
 14 15  2  0
 15 16  1  0
 16 17  2  0
 17 18  1  0
 18 19  2  0
 11 20  1  0
 20 21  1  0
 21 22  1  0
 22 23  2  0
 23 24  1  0
 24 25  1  0
 25 26  1  0
 26 27  1  0
 27 28  1  0
 28 29  1  0
 29 30  1  0
 30 31  1  0
 31 32  1  0
 32 33  1  0
 33 34  1  0
 34 35  2  0
 35 36  1  0
 36 37  2  0
 37 38  1  0
 38 39  2  0
 39 40  1  0
 40 41  2  0
 41 42  1  0
 42 43  2  0
 23 44  1  0
 44 45  1  0
 45 46  2  0
 19  9  1  0
 44 20  2  0
 45 10  1  0
 19 14  1  0
 43 34  1  0
 43 38  1  0
  1 47  1  0
  1 48  1  0
  1 49  1  0
  2 50  1  0
  2 51  1  0
  3 52  1  0
  4 53  1  0
  4 54  1  0
  5 55  1  0
  5 56  1  0
  5 57  1  0
  6 58  1  0
  6 59  1  0
  7 60  1  0
  7 61  1  0
  8 62  1  0
 13 63  1  0
 13 64  1  0
 13 65  1  0
 15 66  1  0
 16 67  1  0
 17 68  1  0
 18 69  1  0
 22 70  1  0
 24 71  1  0
 24 72  1  0
 25 73  1  0
 26 74  1  0
 26 75  1  0
 27 76  1  0
 27 77  1  0
 28 78  1  0
 28 79  1  0
 29 80  1  0
 29 81  1  0
 30 82  1  0
 30 83  1  0
 31 84  1  0
 31 85  1  0
 32 86  1  0
 33 87  1  0
 33 88  1  0
 35 89  1  0
 36 90  1  0
 37 91  1  0
 39 92  1  0
 40 93  1  0
 41 94  1  0
 42 95  1  0
M  CHG  2   3   1  12   1
M  END
>  <UniqueID>  (19) 
19

>  <SMILES>  (19) 
CC[NH+](CC)CCNc1c2c([n+](C)c3ccccc13)-c1occ(CNCCCCCCNCc3cccc4ccccc34)c1C2=O

>  <Energy>  (19) 
202.7339281800263

>  <Genealogy>  (19) 
CC[NH+](CC)CCNc1c2c([n+](C)c3ccccc13)-c1occ(CNCCCCCCNCc3cccc4ccccc34)c1C2=O (protonated)
CC[NH+](CC)CCNc1c2c([n+](C)c3ccccc13)-c1occ(CNCCCCCCNCc3cccc4ccccc34)c1C2=O (3D coordinates assigned)
CC[NH+](CC)CCNc1c2c([n+](C)c3ccccc13)-c1occ(CNCCCCCCNCc3cccc4ccccc34)c1C2=O (nonaromatic ring conformer: 202.7339281800263 kcal/mol)

>  <smiles>  (19) 
CCN(CC)CCNc1c2c([n+](C)c3ccccc13)-c1occ(CNCCCCCCNCc3cccc4ccccc34)c1C2=O

>  <score_type>  (19) 
oracle

>  <origin>  (19) 
adg

>  <m_score__min__energy>  (19) 
-10.09

>  <m_primary>  (19) 
energy

$$$$
19:0
     RDKit          3D

 65 67  0  0  0  0  0  0  0  0999 V2000
   -0.0110   27.1650  -23.3320 C   0  0  0  0  0  0  0  0  0  0  0  0
   -0.7680   26.0930  -24.1180 C   0  0  0  0  0  0  0  0  0  0  0  0
   -0.1920   24.7470  -23.9310 N   0  0  0  0  0  0  0  0  0  0  0  0
   -0.4190   23.8490  -25.0870 C   0  0  0  0  0  0  0  0  0  0  0  0
   -1.2680   24.5080  -26.1910 C   0  0  0  0  0  0  0  0  0  0  0  0
   -1.5140   23.5600  -27.3770 C   0  0  0  0  0  0  0  0  0  0  0  0
   -2.9460   23.6760  -27.9100 C   0  0  0  0  0  0  0  0  0  0  0  0
   -3.3820   22.3960  -28.4870 N   0  0  0  0  0  0  0  0  0  0  0  0
   -3.7470   22.5170  -29.9070 C   0  0  0  0  0  0  0  0  0  0  0  0
   -3.2570   21.3190  -30.7430 C   0  0  0  0  0  0  0  0  0  0  0  0
   -3.1520   21.6500  -32.2370 C   0  0  0  0  0  0  0  0  0  0  0  0
   -4.4600   21.9750  -32.8160 N   0  0  0  0  0  0  0  0  0  0  0  0
   -5.5750   21.0680  -32.7670 C   0  0  0  0  0  0  0  0  0  0  0  0
   -5.4010   19.7320  -33.1750 C   0  0  0  0  0  0  0  0  0  0  0  0
   -4.2050   19.3120  -33.7990 C   0  0  0  0  0  0  0  0  0  0  0  0
   -4.0420   17.9940  -34.2160 C   0  0  0  0  0  0  0  0  0  0  0  0
   -5.0700   17.0770  -34.0430 C   0  0  0  0  0  0  0  0  0  0  0  0
   -6.2670   17.4710  -33.4450 C   0  0  0  0  0  0  0  0  0  0  0  0
   -6.4530   18.8000  -32.9850 C   0  0  0  0  0  0  0  0  0  0  0  0
   -7.6290   19.2010  -32.3850 N   0  0  0  0  0  0  0  0  0  0  0  0
   -8.5940   18.1860  -31.9050 C   0  0  0  0  0  0  0  0  0  0  0  0
   -7.8980   20.5480  -32.2210 C   0  0  0  0  0  0  0  0  0  0  0  0
   -9.2020   20.9980  -31.9100 C   0  0  0  0  0  0  0  0  0  0  0  0
   -9.4640   22.3430  -31.6810 C   0  0  0  0  0  0  0  0  0  0  0  0
   -8.4460   23.2780  -31.7690 C   0  0  0  0  0  0  0  0  0  0  0  0
   -7.1430   22.8920  -32.1240 C   0  0  0  0  0  0  0  0  0  0  0  0
   -6.1280   23.8560  -32.2390 O   0  0  0  0  0  0  0  0  0  0  0  0
   -5.7430   24.7710  -31.2160 C   0  0  0  0  0  0  0  0  0  0  0  0
   -6.8610   21.5150  -32.3760 C   0  0  0  0  0  0  0  0  0  0  0  0
   -0.1369   26.9867  -22.2539 H   0  0  0  0  0  0  0  0  0  0  0  0
    1.0578   27.1215  -23.5885 H   0  0  0  0  0  0  0  0  0  0  0  0
   -0.4095   28.1577  -23.5885 H   0  0  0  0  0  0  0  0  0  0  0  0
   -1.8146   26.0796  -23.7795 H   0  0  0  0  0  0  0  0  0  0  0  0
   -0.6933   26.3446  -25.1862 H   0  0  0  0  0  0  0  0  0  0  0  0
   -0.6580   24.3240  -23.0920 H   0  0  0  0  0  0  0  0  0  0  0  0
    0.8250   24.8390  -23.6960 H   0  0  0  0  0  0  0  0  0  0  0  0
    0.5560   23.5688  -25.5123 H   0  0  0  0  0  0  0  0  0  0  0  0
   -0.9704   22.9696  -24.7227 H   0  0  0  0  0  0  0  0  0  0  0  0
   -2.2386   24.8011  -25.7643 H   0  0  0  0  0  0  0  0  0  0  0  0
   -0.7156   25.3823  -26.5658 H   0  0  0  0  0  0  0  0  0  0  0  0
   -0.8116   23.8113  -28.1854 H   0  0  0  0  0  0  0  0  0  0  0  0
   -1.3615   22.5282  -27.0276 H   0  0  0  0  0  0  0  0  0  0  0  0
   -3.6193   23.9497  -27.0843 H   0  0  0  0  0  0  0  0  0  0  0  0
   -2.9747   24.4488  -28.6922 H   0  0  0  0  0  0  0  0  0  0  0  0
   -4.2010   22.0340  -27.9430 H   0  0  0  0  0  0  0  0  0  0  0  0
   -4.8424   22.5788  -29.9863 H   0  0  0  0  0  0  0  0  0  0  0  0
   -3.2629   23.4223  -30.3020 H   0  0  0  0  0  0  0  0  0  0  0  0
   -2.2644   21.0164  -30.3780 H   0  0  0  0  0  0  0  0  0  0  0  0
   -3.9930   20.5093  -30.6307 H   0  0  0  0  0  0  0  0  0  0  0  0
   -2.4819   22.5130  -32.3643 H   0  0  0  0  0  0  0  0  0  0  0  0
   -2.7585   20.7640  -32.7568 H   0  0  0  0  0  0  0  0  0  0  0  0
   -4.5320   22.8080  -33.4440 H   0  0  0  0  0  0  0  0  0  0  0  0
   -3.3921   20.0360  -33.9573 H   0  0  0  0  0  0  0  0  0  0  0  0
   -3.0974   17.6786  -34.6832 H   0  0  0  0  0  0  0  0  0  0  0  0
   -4.9402   16.0374  -34.3783 H   0  0  0  0  0  0  0  0  0  0  0  0
   -7.0800   16.7393  -33.3282 H   0  0  0  0  0  0  0  0  0  0  0  0
   -8.6013   18.1783  -30.8051 H   0  0  0  0  0  0  0  0  0  0  0  0
   -9.5998   18.4316  -32.2767 H   0  0  0  0  0  0  0  0  0  0  0  0
   -8.2979   17.1939  -32.2767 H   0  0  0  0  0  0  0  0  0  0  0  0
  -10.0241   20.2697  -31.8483 H   0  0  0  0  0  0  0  0  0  0  0  0
  -10.4845   22.6668  -31.4287 H   0  0  0  0  0  0  0  0  0  0  0  0
   -8.6606   24.3361  -31.5582 H   0  0  0  0  0  0  0  0  0  0  0  0
   -5.9326   24.3203  -30.2306 H   0  0  0  0  0  0  0  0  0  0  0  0
   -4.6718   25.0010  -31.3140 H   0  0  0  0  0  0  0  0  0  0  0  0
   -6.3275   25.6977  -31.3140 H   0  0  0  0  0  0  0  0  0  0  0  0
  1  2  1  0
  2  3  1  0
  3  4  1  0
  4  5  1  0
  5  6  1  0
  6  7  1  0
  7  8  1  0
  8  9  1  0
  9 10  1  0
 10 11  1  0
 11 12  1  0
 12 13  1  0
 13 14  2  0
 14 15  1  0
 15 16  2  0
 16 17  1  0
 17 18  2  0
 18 19  1  0
 19 20  2  0
 20 21  1  0
 20 22  1  0
 22 23  2  0
 23 24  1  0
 24 25  2  0
 25 26  1  0
 26 27  1  0
 27 28  1  0
 26 29  2  0
 29 13  1  0
 19 14  1  0
 29 22  1  0
  1 30  1  0
  1 31  1  0
  1 32  1  0
  2 33  1  0
  2 34  1  0
  3 35  1  0
  3 36  1  0
  4 37  1  0
  4 38  1  0
  5 39  1  0
  5 40  1  0
  6 41  1  0
  6 42  1  0
  7 43  1  0
  7 44  1  0
  8 45  1  0
  9 46  1  0
  9 47  1  0
 10 48  1  0
 10 49  1  0
 11 50  1  0
 11 51  1  0
 12 52  1  0
 15 53  1  0
 16 54  1  0
 17 55  1  0
 18 56  1  0
 21 57  1  0
 21 58  1  0
 21 59  1  0
 23 60  1  0
 24 61  1  0
 25 62  1  0
 28 63  1  0
 28 64  1  0
 28 65  1  0
M  CHG  2   3   1  20   1
M  END
>  <UniqueID>  (20) 
20

>  <SMILES>  (20) 
CC[NH2+]CCCCNCCCNc1c2ccccc2[n+](C)c2cccc(OC)c12

>  <Energy>  (20) 
87.7158670673929

>  <Genealogy>  (20) 
CC[NH2+]CCCCNCCCNc1c2ccccc2[n+](C)c2cccc(OC)c12 (protonated)
CC[NH2+]CCCCNCCCNc1c2ccccc2[n+](C)c2cccc(OC)c12 (3D coordinates assigned)
CC[NH2+]CCCCNCCCNc1c2ccccc2[n+](C)c2cccc(OC)c12 (optimized conformer: 87.7158670673929 kcal/mol)

>  <smiles>  (20) 
CCNCCCCNCCCNc1c2ccccc2[n+](C)c2cccc(OC)c12

>  <score_type>  (20) 
oracle

>  <origin>  (20) 
adg

>  <m_score__min__energy>  (20) 
-8.5899999999999999

>  <m_primary>  (20) 
energy

$$$$
20:0
     RDKit          3D

 58 60  0  0  0  0  0  0  0  0999 V2000
   -1.1890   20.5630  -30.2920 C   0  0  0  0  0  0  0  0  0  0  0  0
   -1.2170   21.8620  -31.0830 C   0  0  0  0  0  0  0  0  0  0  0  0
   -1.9560   22.8910  -30.3430 N   0  0  0  0  0  0  0  0  0  0  0  0
   -1.7040   22.8030  -28.8960 C   0  0  0  0  0  0  0  0  0  0  0  0
   -2.9320   22.2530  -28.1770 C   0  0  0  0  0  0  0  0  0  0  0  0
   -4.0220   22.2020  -29.0730 O   0  0  0  0  0  0  0  0  0  0  0  0
   -5.0130   23.1220  -28.6700 C   0  0  0  0  0  0  0  0  0  0  0  0
   -4.7480   24.4850  -29.3160 C   0  0  0  0  0  0  0  0  0  0  0  0
   -4.4650   24.3590  -30.7540 N   0  0  0  0  0  0  0  0  0  0  0  0
   -5.6930   24.3790  -31.5630 C   0  0  0  0  0  0  0  0  0  0  0  0
   -5.7230   23.1970  -32.5420 C   0  0  0  0  0  0  0  0  0  0  0  0
   -5.0050   22.0320  -32.0150 N   0  0  0  0  0  0  0  0  0  0  0  0
   -5.2870   20.6910  -32.4530 C   0  0  0  0  0  0  0  0  0  0  0  0
   -6.5520   20.1260  -32.2160 C   0  0  0  0  0  0  0  0  0  0  0  0
   -7.5200   20.8130  -31.4510 C   0  0  0  0  0  0  0  0  0  0  0  0
   -8.7530   20.2290  -31.1770 C   0  0  0  0  0  0  0  0  0  0  0  0
   -9.0460   18.9600  -31.6600 C   0  0  0  0  0  0  0  0  0  0  0  0
   -8.1160   18.2740  -32.4380 C   0  0  0  0  0  0  0  0  0  0  0  0
   -6.8620   18.8540  -32.7640 C   0  0  0  0  0  0  0  0  0  0  0  0
   -5.9530   18.2120  -33.5830 N   0  0  0  0  0  0  0  0  0  0  0  0
   -6.3800   17.0490  -34.3960 C   0  0  0  0  0  0  0  0  0  0  0  0
   -4.6480   18.6650  -33.6550 C   0  0  0  0  0  0  0  0  0  0  0  0
   -3.6200   17.8900  -34.2510 C   0  0  0  0  0  0  0  0  0  0  0  0
   -2.3130   18.3670  -34.3310 C   0  0  0  0  0  0  0  0  0  0  0  0
   -1.9860   19.6090  -33.7970 C   0  0  0  0  0  0  0  0  0  0  0  0
   -0.1850   20.2430  -33.8860 Br  0  0  0  0  0  0  0  0  0  0  0  0
   -2.9670   20.3780  -33.1740 C   0  0  0  0  0  0  0  0  0  0  0  0
   -4.3010   19.9260  -33.1000 C   0  0  0  0  0  0  0  0  0  0  0  0
   -1.1939   20.7891  -29.2155 H   0  0  0  0  0  0  0  0  0  0  0  0
   -2.0744   19.9609  -30.5443 H   0  0  0  0  0  0  0  0  0  0  0  0
   -0.2785   19.9996  -30.5443 H   0  0  0  0  0  0  0  0  0  0  0  0
   -0.1861   22.2064  -31.2524 H   0  0  0  0  0  0  0  0  0  0  0  0
   -1.7172   21.6844  -32.0465 H   0  0  0  0  0  0  0  0  0  0  0  0
   -2.9810   22.7340  -30.5040 H   0  0  0  0  0  0  0  0  0  0  0  0
   -0.8489   22.1347  -28.7166 H   0  0  0  0  0  0  0  0  0  0  0  0
   -1.4838   23.8090  -28.5094 H   0  0  0  0  0  0  0  0  0  0  0  0
   -2.7158   21.2405  -27.8055 H   0  0  0  0  0  0  0  0  0  0  0  0
   -3.1847   22.9094  -27.3312 H   0  0  0  0  0  0  0  0  0  0  0  0
   -6.0014   22.7550  -28.9837 H   0  0  0  0  0  0  0  0  0  0  0  0
   -4.9875   23.2275  -27.5754 H   0  0  0  0  0  0  0  0  0  0  0  0
   -5.6348   25.1218  -29.1815 H   0  0  0  0  0  0  0  0  0  0  0  0
   -3.8667   24.9294  -28.8304 H   0  0  0  0  0  0  0  0  0  0  0  0
   -4.0060   23.4280  -30.8950 H   0  0  0  0  0  0  0  0  0  0  0  0
   -6.5651   24.3161  -30.8956 H   0  0  0  0  0  0  0  0  0  0  0  0
   -5.7182   25.3147  -32.1407 H   0  0  0  0  0  0  0  0  0  0  0  0
   -6.7700   22.9154  -32.7275 H   0  0  0  0  0  0  0  0  0  0  0  0
   -5.2263   23.5117  -33.4716 H   0  0  0  0  0  0  0  0  0  0  0  0
   -4.3600   22.1690  -31.2040 H   0  0  0  0  0  0  0  0  0  0  0  0
   -7.2971   21.8198  -31.0679 H   0  0  0  0  0  0  0  0  0  0  0  0
   -9.4970   20.7733  -30.5768 H   0  0  0  0  0  0  0  0  0  0  0  0
  -10.0155   18.4952  -31.4274 H   0  0  0  0  0  0  0  0  0  0  0  0
   -8.3575   17.2659  -32.8059 H   0  0  0  0  0  0  0  0  0  0  0  0
   -6.6818   16.2271  -33.7301 H   0  0  0  0  0  0  0  0  0  0  0  0
   -7.2307   17.3378  -35.0307 H   0  0  0  0  0  0  0  0  0  0  0  0
   -5.5445   16.7187  -35.0307 H   0  0  0  0  0  0  0  0  0  0  0  0
   -3.8586   16.8958  -34.6568 H   0  0  0  0  0  0  0  0  0  0  0  0
   -1.5368   17.7588  -34.8184 H   0  0  0  0  0  0  0  0  0  0  0  0
   -2.6976   21.3497  -32.7344 H   0  0  0  0  0  0  0  0  0  0  0  0
  1  2  1  0
  2  3  1  0
  3  4  1  0
  4  5  1  0
  5  6  1  0
  6  7  1  0
  7  8  1  0
  8  9  1  0
  9 10  1  0
 10 11  1  0
 11 12  1  0
 12 13  1  0
 13 14  2  0
 14 15  1  0
 15 16  2  0
 16 17  1  0
 17 18  2  0
 18 19  1  0
 19 20  2  0
 20 21  1  0
 20 22  1  0
 22 23  2  0
 23 24  1  0
 24 25  2  0
 25 26  1  0
 25 27  1  0
 27 28  2  0
 28 13  1  0
 19 14  1  0
 28 22  1  0
  1 29  1  0
  1 30  1  0
  1 31  1  0
  2 32  1  0
  2 33  1  0
  3 34  1  0
  4 35  1  0
  4 36  1  0
  5 37  1  0
  5 38  1  0
  7 39  1  0
  7 40  1  0
  8 41  1  0
  8 42  1  0
  9 43  1  0
 10 44  1  0
 10 45  1  0
 11 46  1  0
 11 47  1  0
 12 48  1  0
 15 49  1  0
 16 50  1  0
 17 51  1  0
 18 52  1  0
 21 53  1  0
 21 54  1  0
 21 55  1  0
 23 56  1  0
 24 57  1  0
 27 58  1  0
M  CHG  1  20   1
M  END
>  <UniqueID>  (21) 
21

>  <SMILES>  (21) 
CCNCCOCCNCCNc1c2ccccc2[n+](C)c2ccc(Br)cc12

>  <Energy>  (21) 
71.84423854419505

>  <Genealogy>  (21) 
CCNCCOCCNCCNc1c2ccccc2[n+](C)c2ccc(Br)cc12 (3D coordinates assigned)
CCNCCOCCNCCNc1c2ccccc2[n+](C)c2ccc(Br)cc12 (optimized conformer: 71.84423854419505 kcal/mol)

>  <smiles>  (21) 
CCNCCOCCNCCNc1c2ccccc2[n+](C)c2ccc(Br)cc12

>  <score_type>  (21) 
oracle

>  <origin>  (21) 
adg

>  <m_score__min__energy>  (21) 
-9.0199999999999996

>  <m_primary>  (21) 
energy

$$$$
21:0
     RDKit          3D

 33 33  0  0  0  0  0  0  0  0999 V2000
   -9.4740   19.3920  -32.3670 C   0  0  0  0  0  0  0  0  0  0  0  0
   -8.2890   18.5490  -31.8740 C   0  0  0  0  0  0  0  0  0  0  0  0
   -7.0000   18.8560  -32.5420 N   0  0  0  0  0  0  0  0  0  0  0  0
   -6.4120   17.7140  -33.2800 C   0  0  0  0  0  0  0  0  0  0  0  0
   -5.7260   18.1610  -34.5710 C   0  0  0  0  0  0  0  0  0  0  0  0
   -7.0890   20.0620  -33.3940 C   0  0  0  0  0  0  0  0  0  0  0  0
   -6.5460   21.2580  -32.6600 C   0  0  0  0  0  0  0  0  0  0  0  0
   -5.1640   21.5080  -32.6560 C   0  0  0  0  0  0  0  0  0  0  0  0
   -4.6520   22.6260  -31.9900 C   0  0  0  0  0  0  0  0  0  0  0  0
   -5.5140   23.5000  -31.3220 C   0  0  0  0  0  0  0  0  0  0  0  0
   -4.8560   24.9370  -30.4720 S   0  0  0  0  0  0  0  0  0  0  0  0
   -6.4550   25.3750  -29.7200 C   0  0  0  0  0  0  0  0  0  0  0  0
   -6.8940   23.2610  -31.3280 C   0  0  0  0  0  0  0  0  0  0  0  0
   -7.4080   22.1450  -31.9940 C   0  0  0  0  0  0  0  0  0  0  0  0
  -10.0283   19.7863  -31.5025 H   0  0  0  0  0  0  0  0  0  0  0  0
   -9.1007   20.2286  -32.9758 H   0  0  0  0  0  0  0  0  0  0  0  0
  -10.1419   18.7649  -32.9758 H   0  0  0  0  0  0  0  0  0  0  0  0
   -8.1676   18.7236  -30.7948 H   0  0  0  0  0  0  0  0  0  0  0  0
   -8.5262   17.5021  -32.1143 H   0  0  0  0  0  0  0  0  0  0  0  0
   -5.6701   17.2189  -32.6363 H   0  0  0  0  0  0  0  0  0  0  0  0
   -7.2272   17.0258  -33.5482 H   0  0  0  0  0  0  0  0  0  0  0  0
   -4.8277   18.7463  -34.3252 H   0  0  0  0  0  0  0  0  0  0  0  0
   -5.4380   17.2767  -35.1584 H   0  0  0  0  0  0  0  0  0  0  0  0
   -6.4187   18.7816  -35.1584 H   0  0  0  0  0  0  0  0  0  0  0  0
   -6.5039   19.9025  -34.3118 H   0  0  0  0  0  0  0  0  0  0  0  0
   -8.1435   20.2450  -33.6479 H   0  0  0  0  0  0  0  0  0  0  0  0
   -4.4816   20.8217  -33.1788 H   0  0  0  0  0  0  0  0  0  0  0  0
   -3.5689   22.8178  -31.9919 H   0  0  0  0  0  0  0  0  0  0  0  0
   -6.3639   25.3500  -28.6241 H   0  0  0  0  0  0  0  0  0  0  0  0
   -6.7464   26.3860  -30.0408 H   0  0  0  0  0  0  0  0  0  0  0  0
   -7.2209   24.6536  -30.0408 H   0  0  0  0  0  0  0  0  0  0  0  0
   -7.5738   23.9521  -30.8082 H   0  0  0  0  0  0  0  0  0  0  0  0
   -8.4924   21.9604  -31.9967 H   0  0  0  0  0  0  0  0  0  0  0  0
  1  2  1  0
  2  3  1  0
  3  4  1  0
  4  5  1  0
  3  6  1  0
  6  7  1  0
  7  8  2  0
  8  9  1  0
  9 10  2  0
 10 11  1  0
 11 12  1  0
 10 13  1  0
 13 14  2  0
 14  7  1  0
  1 15  1  0
  1 16  1  0
  1 17  1  0
  2 18  1  0
  2 19  1  0
  4 20  1  0
  4 21  1  0
  5 22  1  0
  5 23  1  0
  5 24  1  0
  6 25  1  0
  6 26  1  0
  8 27  1  0
  9 28  1  0
 12 29  1  0
 12 30  1  0
 12 31  1  0
 13 32  1  0
 14 33  1  0
M  END
>  <UniqueID>  (22) 
22

>  <SMILES>  (22) 
CCN(CC)Cc1ccc(SC)cc1

>  <Energy>  (22) 
27.208960994046507

>  <Genealogy>  (22) 
CCN(CC)Cc1ccc(SC)cc1 (3D coordinates assigned)
CCN(CC)Cc1ccc(SC)cc1 (optimized conformer: 27.208960994046507 kcal/mol)

>  <smiles>  (22) 
CCN(CC)Cc1ccc(SC)cc1

>  <score_type>  (22) 
oracle

>  <origin>  (22) 
adg

>  <m_score__min__energy>  (22) 
-5.9400000000000004

>  <m_primary>  (22) 
energy

$$$$
22:0
     RDKit          3D

 61 64  0  0  0  0  0  0  0  0999 V2000
   -0.4780   21.5340  -31.3760 C   0  0  0  0  0  0  0  0  0  0  0  0
   -1.2590   20.5280  -30.6330 N   0  0  0  0  0  0  0  0  0  0  0  0
   -0.8680   19.1560  -31.0460 C   0  0  0  0  0  0  0  0  0  0  0  0
   -0.9020   19.0340  -32.5750 C   0  0  0  0  0  0  0  0  0  0  0  0
   -2.2360   19.0680  -33.0440 O   0  0  0  0  0  0  0  0  0  0  0  0
   -2.4140   20.0570  -34.0440 C   0  0  0  0  0  0  0  0  0  0  0  0
   -3.0840   21.3080  -33.4620 C   0  0  0  0  0  0  0  0  0  0  0  0
   -3.4520   21.1650  -32.0380 N   0  0  0  0  0  0  0  0  0  0  0  0
   -4.8820   21.3490  -31.8040 C   0  0  0  0  0  0  0  0  0  0  0  0
   -5.8140   20.2880  -32.0110 C   0  0  0  0  0  0  0  0  0  0  0  0
   -5.4060   18.9810  -32.3920 C   0  0  0  0  0  0  0  0  0  0  0  0
   -6.3280   17.9460  -32.5310 C   0  0  0  0  0  0  0  0  0  0  0  0
   -7.6740   18.1730  -32.2900 C   0  0  0  0  0  0  0  0  0  0  0  0
   -8.1120   19.4440  -31.9360 C   0  0  0  0  0  0  0  0  0  0  0  0
   -7.2080   20.5340  -31.8280 C   0  0  0  0  0  0  0  0  0  0  0  0
   -7.6600   21.8050  -31.5390 N   0  0  0  0  0  0  0  0  0  0  0  0
   -9.1010   22.1300  -31.6870 C   0  0  0  0  0  0  0  0  0  0  0  0
   -6.7740   22.7840  -31.1470 C   0  0  0  0  0  0  0  0  0  0  0  0
   -7.2300   23.9900  -30.5510 C   0  0  0  0  0  0  0  0  0  0  0  0
   -6.3440   25.0120  -30.2200 C   0  0  0  0  0  0  0  0  0  0  0  0
   -4.9870   24.8600  -30.4620 C   0  0  0  0  0  0  0  0  0  0  0  0
   -4.5020   23.6710  -31.0020 C   0  0  0  0  0  0  0  0  0  0  0  0
   -5.3730   22.5980  -31.3220 C   0  0  0  0  0  0  0  0  0  0  0  0
   -1.0860   20.7410  -29.1810 C   0  0  0  0  0  0  0  0  0  0  0  0
   -1.9520   21.8760  -28.6940 C   0  0  0  0  0  0  0  0  0  0  0  0
   -1.4440   23.1860  -28.6700 C   0  0  0  0  0  0  0  0  0  0  0  0
   -2.2360   24.2440  -28.2060 C   0  0  0  0  0  0  0  0  0  0  0  0
   -3.5480   24.0010  -27.7760 C   0  0  0  0  0  0  0  0  0  0  0  0
   -4.0660   22.7020  -27.8080 C   0  0  0  0  0  0  0  0  0  0  0  0
   -3.2720   21.6400  -28.2620 C   0  0  0  0  0  0  0  0  0  0  0  0
    0.0367   22.1970  -30.6650 H   0  0  0  0  0  0  0  0  0  0  0  0
    0.2654   21.0270  -32.0087 H   0  0  0  0  0  0  0  0  0  0  0  0
   -1.1535   22.1285  -32.0087 H   0  0  0  0  0  0  0  0  0  0  0  0
    0.1500   18.9446  -30.6870 H   0  0  0  0  0  0  0  0  0  0  0  0
   -1.5761   18.4346  -30.6122 H   0  0  0  0  0  0  0  0  0  0  0  0
   -0.3410   19.8703  -33.0177 H   0  0  0  0  0  0  0  0  0  0  0  0
   -0.4463   18.0761  -32.8662 H   0  0  0  0  0  0  0  0  0  0  0  0
   -1.4324   20.3329  -34.4567 H   0  0  0  0  0  0  0  0  0  0  0  0
   -3.0606   19.6466  -34.8336 H   0  0  0  0  0  0  0  0  0  0  0  0
   -2.3880   22.1542  -33.5595 H   0  0  0  0  0  0  0  0  0  0  0  0
   -4.0153   21.4704  -34.0245 H   0  0  0  0  0  0  0  0  0  0  0  0
   -3.1720   20.2110  -31.7110 H   0  0  0  0  0  0  0  0  0  0  0  0
   -2.8550   21.7760  -31.4420 H   0  0  0  0  0  0  0  0  0  0  0  0
   -4.3407   18.7827  -32.5809 H   0  0  0  0  0  0  0  0  0  0  0  0
   -5.9866   16.9449  -32.8331 H   0  0  0  0  0  0  0  0  0  0  0  0
   -8.3956   17.3475  -32.3789 H   0  0  0  0  0  0  0  0  0  0  0  0
   -9.1809   19.6089  -31.7354 H   0  0  0  0  0  0  0  0  0  0  0  0
   -9.5578   22.2330  -30.6916 H   0  0  0  0  0  0  0  0  0  0  0  0
   -9.2089   23.0750  -32.2395 H   0  0  0  0  0  0  0  0  0  0  0  0
   -9.6041   21.3228  -32.2395 H   0  0  0  0  0  0  0  0  0  0  0  0
   -8.3032   24.1190  -30.3471 H   0  0  0  0  0  0  0  0  0  0  0  0
   -6.7208   25.9405  -29.7663 H   0  0  0  0  0  0  0  0  0  0  0  0
   -4.2923   25.6799  -30.2271 H   0  0  0  0  0  0  0  0  0  0  0  0
   -3.4226   23.5620  -31.1838 H   0  0  0  0  0  0  0  0  0  0  0  0
   -1.3650   19.8208  -28.6467 H   0  0  0  0  0  0  0  0  0  0  0  0
   -0.0335   20.9952  -28.9871 H   0  0  0  0  0  0  0  0  0  0  0  0
   -0.4188   23.3816  -29.0175 H   0  0  0  0  0  0  0  0  0  0  0  0
   -1.8286   25.2654  -28.1790 H   0  0  0  0  0  0  0  0  0  0  0  0
   -4.1704   24.8322  -27.4132 H   0  0  0  0  0  0  0  0  0  0  0  0
   -5.0978   22.5138  -27.4764 H   0  0  0  0  0  0  0  0  0  0  0  0
   -3.6808   20.6190  -28.2811 H   0  0  0  0  0  0  0  0  0  0  0  0
  1  2  1  0
  2  3  1  0
  3  4  1  0
  4  5  1  0
  5  6  1  0
  6  7  1  0
  7  8  1  0
  8  9  1  0
  9 10  1  0
 10 11  2  0
 11 12  1  0
 12 13  2  0
 13 14  1  0
 14 15  2  0
 15 16  1  0
 16 17  1  0
 16 18  2  0
 18 19  1  0
 19 20  2  0
 20 21  1  0
 21 22  2  0
 22 23  1  0
  2 24  1  0
 24 25  1  0
 25 26  2  0
 26 27  1  0
 27 28  2  0
 28 29  1  0
 29 30  2  0
 23  9  2  0
 30 25  1  0
 15 10  1  0
 23 18  1  0
  1 31  1  0
  1 32  1  0
  1 33  1  0
  3 34  1  0
  3 35  1  0
  4 36  1  0
  4 37  1  0
  6 38  1  0
  6 39  1  0
  7 40  1  0
  7 41  1  0
  8 42  1  0
  8 43  1  0
 11 44  1  0
 12 45  1  0
 13 46  1  0
 14 47  1  0
 17 48  1  0
 17 49  1  0
 17 50  1  0
 19 51  1  0
 20 52  1  0
 21 53  1  0
 22 54  1  0
 24 55  1  0
 24 56  1  0
 26 57  1  0
 27 58  1  0
 28 59  1  0
 29 60  1  0
 30 61  1  0
M  CHG  2   8   1  16   1
M  END
>  <UniqueID>  (23) 
23

>  <SMILES>  (23) 
CN(CCOCC[NH2+]c1c2ccccc2[n+](C)c2ccccc12)Cc1ccccc1

>  <Energy>  (23) 
96.70809760599656

>  <Genealogy>  (23) 
CN(CCOCC[NH2+]c1c2ccccc2[n+](C)c2ccccc12)Cc1ccccc1 (protonated)
CN(CCOCC[NH2+]c1c2ccccc2[n+](C)c2ccccc12)Cc1ccccc1 (3D coordinates assigned)
CN(CCOCC[NH2+]c1c2ccccc2[n+](C)c2ccccc12)Cc1ccccc1 (optimized conformer: 96.70809760599656 kcal/mol)

>  <smiles>  (23) 
CN(CCOCCNc1c2ccccc2[n+](C)c2ccccc12)Cc1ccccc1

>  <score_type>  (23) 
oracle

>  <origin>  (23) 
adg

>  <m_score__min__energy>  (23) 
-9.0399999999999991

>  <m_primary>  (23) 
energy

$$$$
