0:0
     RDKit          3D

 45 46  0  0  0  0  0  0  0  0999 V2000
   -1.9770   25.3460  -26.6650 C   0  0  0  0  0  0  0  0  0  0  0  0
   -1.9640   24.9330  -28.1330 C   0  0  0  0  0  0  0  0  0  0  0  0
   -3.0380   23.9650  -28.4090 N   0  0  0  0  0  0  0  0  0  0  0  0
   -3.2040   22.8170  -27.5010 C   0  0  0  0  0  0  0  0  0  0  0  0
   -2.2160   21.7020  -27.8360 C   0  0  0  0  0  0  0  0  0  0  0  0
   -3.8750   24.1630  -29.5760 C   0  0  0  0  0  0  0  0  0  0  0  0
   -3.4910   24.9550  -30.4820 O   0  0  0  0  0  0  0  0  0  0  0  0
   -5.2430   23.5160  -29.7280 C   0  0  1  0  0  0  0  0  0  0  0  0
   -6.1870   24.4470  -30.4460 C   0  0  0  0  0  0  0  0  0  0  0  0
   -6.0500   25.6590  -30.3490 O   0  0  0  0  0  0  0  0  0  0  0  0
   -7.3550   23.9160  -31.2180 C   0  0  0  0  0  0  0  0  0  0  0  0
   -7.5240   22.3970  -31.0560 C   0  0  0  0  0  0  0  0  0  0  0  0
   -6.2650   21.6210  -31.1850 N   0  0  1  0  0  0  0  0  0  0  0  0
   -5.9170   21.2580  -32.5830 C   0  0  0  0  0  0  0  0  0  0  0  0
   -6.2340   19.8280  -32.9610 C   0  0  0  0  0  0  0  0  0  0  0  0
   -5.4500   19.1470  -33.9060 C   0  0  0  0  0  0  0  0  0  0  0  0
   -5.7450   17.8240  -34.2490 C   0  0  0  0  0  0  0  0  0  0  0  0
   -6.8130   17.1640  -33.6350 C   0  0  0  0  0  0  0  0  0  0  0  0
   -7.5810   17.8220  -32.6710 C   0  0  0  0  0  0  0  0  0  0  0  0
   -7.2890   19.1460  -32.3280 C   0  0  0  0  0  0  0  0  0  0  0  0
   -5.1430   22.1860  -30.4530 C   0  0  0  0  0  0  0  0  0  0  0  0
   -4.1270   21.5140  -30.3160 O   0  0  0  0  0  0  0  0  0  0  0  0
   -1.9487   24.4475  -26.0311 H   0  0  0  0  0  0  0  0  0  0  0  0
   -1.0981   25.9725  -26.4525 H   0  0  0  0  0  0  0  0  0  0  0  0
   -2.8935   25.9159  -26.4525 H   0  0  0  0  0  0  0  0  0  0  0  0
   -2.1109   25.8244  -28.7605 H   0  0  0  0  0  0  0  0  0  0  0  0
   -0.9960   24.4626  -28.3602 H   0  0  0  0  0  0  0  0  0  0  0  0
   -3.0326   23.1497  -26.4666 H   0  0  0  0  0  0  0  0  0  0  0  0
   -4.2251   22.4249  -27.6176 H   0  0  0  0  0  0  0  0  0  0  0  0
   -1.8279   21.2640  -26.9046 H   0  0  0  0  0  0  0  0  0  0  0  0
   -2.7264   20.9238  -28.4224 H   0  0  0  0  0  0  0  0  0  0  0  0
   -1.3820   22.1150  -28.4224 H   0  0  0  0  0  0  0  0  0  0  0  0
   -5.6427   23.3196  -28.7222 H   0  0  0  0  0  0  0  0  0  0  0  0
   -8.2693   24.4130  -30.8614 H   0  0  0  0  0  0  0  0  0  0  0  0
   -7.1734   24.1211  -32.2834 H   0  0  0  0  0  0  0  0  0  0  0  0
   -7.9470   22.2026  -30.0594 H   0  0  0  0  0  0  0  0  0  0  0  0
   -8.1811   22.0660  -31.8738 H   0  0  0  0  0  0  0  0  0  0  0  0
   -6.4630   20.7060  -30.7130 H   0  0  0  0  0  0  0  0  0  0  0  0
   -6.4747   21.9230  -33.2589 H   0  0  0  0  0  0  0  0  0  0  0  0
   -4.8261   21.3687  -32.6710 H   0  0  0  0  0  0  0  0  0  0  0  0
   -4.5984   19.6575  -34.3794 H   0  0  0  0  0  0  0  0  0  0  0  0
   -5.1363   17.3025  -35.0023 H   0  0  0  0  0  0  0  0  0  0  0  0
   -7.0491   16.1257  -33.9109 H   0  0  0  0  0  0  0  0  0  0  0  0
   -8.4156   17.2985  -32.1817 H   0  0  0  0  0  0  0  0  0  0  0  0
   -7.8874   19.6567  -31.5592 H   0  0  0  0  0  0  0  0  0  0  0  0
  1  2  1  0
  2  3  1  0
  3  4  1  0
  4  5  1  0
  3  6  1  0
  6  7  2  0
  6  8  1  0
  8  9  1  0
  9 10  2  0
  9 11  1  0
 11 12  1  0
 12 13  1  0
 13 14  1  0
 14 15  1  0
 15 16  2  0
 16 17  1  0
 17 18  2  0
 18 19  1  0
 19 20  2  0
 13 21  1  0
 21 22  2  0
 21  8  1  0
 20 15  1  0
  1 23  1  0
  1 24  1  0
  1 25  1  0
  2 26  1  0
  2 27  1  0
  4 28  1  0
  4 29  1  0
  5 30  1  0
  5 31  1  0
  5 32  1  0
  8 33  1  1
 11 34  1  0
 11 35  1  0
 12 36  1  0
 12 37  1  0
 13 38  1  1
 14 39  1  0
 14 40  1  0
 16 41  1  0
 17 42  1  0
 18 43  1  0
 19 44  1  0
 20 45  1  0
M  CHG  1  13   1
M  END
>  <UniqueID>  (1) 
1

>  <SMILES>  (1) 
CCN(CC)C(=O)[C@H]1C(=O)CC[N@@H+](Cc2ccccc2)C1=O

>  <Energy>  (1) 
48.12668311424492

>  <Genealogy>  (1) 
CCN(CC)C(=O)C1C(=O)CC[NH+](Cc2ccccc2)C1=O (protonated)
CCN(CC)C(=O)[C@H]1C(=O)CC[N@@H+](Cc2ccccc2)C1=O (chirality)
CCN(CC)C(=O)[C@H]1C(=O)CC[N@@H+](Cc2ccccc2)C1=O (3D coordinates assigned)
CCN(CC)C(=O)[C@H]1C(=O)CC[N@@H+](Cc2ccccc2)C1=O (nonaromatic ring conformer: 48.12668311424492 kcal/mol)

>  <smiles>  (1) 
CCN(CC)C(=O)C1C(=O)CCN(Cc2ccccc2)C1=O

>  <score_type>  (1) 
oracle

>  <origin>  (1) 
adg

>  <m_score__min__energy>  (1) 
-7.3300000000000001

>  <m_primary>  (1) 
energy

$$$$
1:0
     RDKit          3D

 43 46  0  0  0  0  0  0  0  0999 V2000
  -10.8871   20.7992  -32.2518 H   0  0  0  0  0  0  0  0  0  0  0  0
   -9.7880   20.8090  -32.2080 C   0  0  0  0  0  0  0  0  0  0  0  0
   -9.0570   19.6890  -32.6670 C   0  0  0  0  0  0  0  0  0  0  0  0
   -9.5902   18.8127  -33.0643 H   0  0  0  0  0  0  0  0  0  0  0  0
   -7.6520   19.6900  -32.6180 C   0  0  0  0  0  0  0  0  0  0  0  0
   -7.0766   18.8219  -32.9721 H   0  0  0  0  0  0  0  0  0  0  0  0
   -7.0030   20.8170  -32.1100 C   0  0  0  0  0  0  0  0  0  0  0  0
   -7.7260   21.9090  -31.6600 C   0  0  0  0  0  0  0  0  0  0  0  0
   -9.1210   21.9330  -31.6970 C   0  0  0  0  0  0  0  0  0  0  0  0
   -9.6816   22.8079  -31.3360 H   0  0  0  0  0  0  0  0  0  0  0  0
   -6.7890   22.9140  -31.2010 C   0  0  0  0  0  0  0  0  0  0  0  0
   -7.0220   24.1620  -30.6270 C   0  0  0  0  0  0  0  0  0  0  0  0
   -8.0468   24.5326  -30.4774 H   0  0  0  0  0  0  0  0  0  0  0  0
   -5.9140   24.9330  -30.2450 C   0  0  0  0  0  0  0  0  0  0  0  0
   -6.0708   25.9159  -29.7768 H   0  0  0  0  0  0  0  0  0  0  0  0
   -4.5990   24.4610  -30.4550 C   0  0  0  0  0  0  0  0  0  0  0  0
   -3.5000   25.2800  -30.0350 N   0  0  0  0  0  0  0  0  0  0  0  0
   -2.5080   24.9170  -29.0630 C   0  0  0  0  0  0  0  0  0  0  0  0
   -1.2790   25.0420  -29.3250 O   0  0  0  0  0  0  0  0  0  0  0  0
   -2.9220   24.4640  -27.6920 C   0  0  0  0  0  0  0  0  0  0  0  0
   -4.0205   24.4351  -27.6416 H   0  0  0  0  0  0  0  0  0  0  0  0
   -2.5149   25.1734  -26.9565 H   0  0  0  0  0  0  0  0  0  0  0  0
   -2.3920   23.1210  -27.3830 N   0  0  0  0  0  0  0  0  0  0  0  0
   -3.1180   22.0770  -27.9040 C   0  0  0  0  0  0  0  0  0  0  0  0
   -4.0112   22.2938  -28.5083 H   0  0  0  0  0  0  0  0  0  0  0  0
   -2.7510   20.7510  -27.6860 C   0  0  0  0  0  0  0  0  0  0  0  0
   -3.3439   19.9327  -28.1205 H   0  0  0  0  0  0  0  0  0  0  0  0
   -1.6340   20.4720  -26.9180 C   0  0  0  0  0  0  0  0  0  0  0  0
   -1.3263   19.4298  -26.7475 H   0  0  0  0  0  0  0  0  0  0  0  0
   -0.9040   21.5150  -26.3640 C   0  0  0  0  0  0  0  0  0  0  0  0
   -0.0202   21.2940  -25.7475 H   0  0  0  0  0  0  0  0  0  0  0  0
   -1.2830   22.8490  -26.5830 C   0  0  0  0  0  0  0  0  0  0  0  0
   -0.5430   23.7470  -25.9790 N   0  0  0  0  0  0  0  0  0  0  0  0
   -0.3830   24.1550  -24.5880 C   0  0  0  0  0  0  0  0  0  0  0  0
   -0.7039   23.3367  -23.9266 H   0  0  0  0  0  0  0  0  0  0  0  0
    0.6739   24.3901  -24.3941 H   0  0  0  0  0  0  0  0  0  0  0  0
   -0.9984   25.0459  -24.3941 H   0  0  0  0  0  0  0  0  0  0  0  0
   -4.3960   23.1810  -31.0160 C   0  0  0  0  0  0  0  0  0  0  0  0
   -3.3788   22.7880  -31.1606 H   0  0  0  0  0  0  0  0  0  0  0  0
   -5.5100   22.4230  -31.3840 C   0  0  0  0  0  0  0  0  0  0  0  0
   -5.5240   21.0370  -31.9720 C   0  0  0  0  0  0  0  0  0  0  0  0
   -5.0152   21.0036  -32.9467 H   0  0  0  0  0  0  0  0  0  0  0  0
   -5.0003   20.2779  -31.3724 H   0  0  0  0  0  0  0  0  0  0  0  0
  1  2  1  0
  2  3  2  0
  3  4  1  0
  3  5  1  0
  5  6  1  0
  5  7  2  0
  7  8  1  0
  8  9  2  0
  9 10  1  0
  8 11  1  0
 11 12  2  0
 12 13  1  0
 12 14  1  0
 14 15  1  0
 14 16  2  0
 16 17  1  0
 17 18  1  0
 18 19  2  0
 18 20  1  0
 20 21  1  0
 20 22  1  0
 20 23  1  0
 23 24  1  0
 24 25  1  0
 24 26  2  0
 26 27  1  0
 26 28  1  0
 28 29  1  0
 28 30  2  0
 30 31  1  0
 30 32  1  0
 32 33  2  0
 33 34  1  0
 34 35  1  0
 34 36  1  0
 34 37  1  0
 16 38  1  0
 38 39  1  0
 38 40  2  0
 40 41  1  0
 41 42  1  0
 41 43  1  0
  9  2  1  0
 40 11  1  0
 41  7  1  0
 32 23  1  0
M  CHG  1  17  -1
M  END
>  <UniqueID>  (2) 
2

>  <SMILES>  (2) 
C/N=c1/ccccn1CC(=O)[N-]c1ccc2c(c1)Cc1ccccc1-2

>  <Energy>  (2) 
88.18662431090894

>  <Genealogy>  (2) 
CN=c1ccccn1CC(=O)[N-]c1ccc2c(c1)Cc1ccccc1-2 (protonated)
C/N=c1/ccccn1CC(=O)[N-]c1ccc2c(c1)Cc1ccccc1-2 (cis-trans isomerization)
C/N=c1/ccccn1CC(=O)[N-]c1ccc2c(c1)Cc1ccccc1-2 (3D coordinates assigned)
C/N=c1/ccccn1CC(=O)[N-]c1ccc2c(c1)Cc1ccccc1-2 (nonaromatic ring conformer: 88.18662431090894 kcal/mol)

>  <smiles>  (2) 
CN=c1ccccn1CC(=O)Nc1ccc2c(c1)Cc1ccccc1-2

>  <score_type>  (2) 
oracle

>  <origin>  (2) 
adg

>  <m_score__min__energy>  (2) 
-11.109999999999999

>  <m_primary>  (2) 
energy

$$$$
2:0
     RDKit          3D

 45 47  0  0  0  0  0  0  0  0999 V2000
   -1.2315   23.8743  -29.0067 H   0  0  0  0  0  0  0  0  0  0  0  0
   -2.1000   23.2090  -29.1210 C   0  0  0  0  0  0  0  0  0  0  0  0
   -2.5420   22.9610  -30.3190 N   0  0  0  0  0  0  0  0  0  0  0  0
   -3.7980   23.4100  -30.8420 C   0  0  0  0  0  0  0  0  0  0  0  0
   -4.0470   24.6450  -30.8480 O   0  0  0  0  0  0  0  0  0  0  0  0
   -4.8210   22.4390  -31.3000 C   0  0  0  0  0  0  0  0  0  0  0  0
   -4.7020   21.1980  -30.9170 N   0  0  0  0  0  0  0  0  0  0  0  0
   -3.9970   20.1640  -31.6150 C   0  0  0  0  0  0  0  0  0  0  0  0
   -2.7390   20.1400  -31.5640 O   0  0  0  0  0  0  0  0  0  0  0  0
   -4.7120   19.1740  -32.4390 C   0  0  0  0  0  0  0  0  0  0  0  0
   -5.8820   18.0950  -31.8930 S   0  0  0  0  0  0  0  0  0  0  0  0
   -6.1940   17.3850  -33.3830 C   0  0  0  0  0  0  0  0  0  0  0  0
   -6.9162   16.5775  -33.5737 H   0  0  0  0  0  0  0  0  0  0  0  0
   -5.3830   17.9930  -34.3330 C   0  0  0  0  0  0  0  0  0  0  0  0
   -5.3883   17.7129  -35.3967 H   0  0  0  0  0  0  0  0  0  0  0  0
   -4.5580   18.9960  -33.8090 C   0  0  0  0  0  0  0  0  0  0  0  0
   -3.8580   19.5843  -34.4205 H   0  0  0  0  0  0  0  0  0  0  0  0
   -6.0220   22.9230  -32.0900 C   0  0  0  0  0  0  0  0  0  0  0  0
   -6.3897   23.8601  -31.6464 H   0  0  0  0  0  0  0  0  0  0  0  0
   -5.7118   23.0841  -33.1330 H   0  0  0  0  0  0  0  0  0  0  0  0
   -7.1300   21.9030  -32.0730 C   0  0  0  0  0  0  0  0  0  0  0  0
   -8.0830   21.8940  -31.0450 C   0  0  0  0  0  0  0  0  0  0  0  0
   -8.0202   22.6309  -30.2308 H   0  0  0  0  0  0  0  0  0  0  0  0
   -9.1110   20.9510  -31.0540 C   0  0  0  0  0  0  0  0  0  0  0  0
   -9.8640   20.9429  -30.2522 H   0  0  0  0  0  0  0  0  0  0  0  0
   -9.1750   20.0180  -32.0900 C   0  0  0  0  0  0  0  0  0  0  0  0
   -9.9817   19.2704  -32.1061 H   0  0  0  0  0  0  0  0  0  0  0  0
   -8.2420   20.0310  -33.0800 N   0  0  0  0  0  0  0  0  0  0  0  0
   -8.3030   19.3250  -33.8480 H   0  0  0  0  0  0  0  0  0  0  0  0
   -7.2310   20.9430  -33.0930 C   0  0  0  0  0  0  0  0  0  0  0  0
   -6.4902   20.9277  -33.9060 H   0  0  0  0  0  0  0  0  0  0  0  0
   -2.7280   22.6230  -27.8840 C   0  0  0  0  0  0  0  0  0  0  0  0
   -2.4589   23.2421  -27.0155 H   0  0  0  0  0  0  0  0  0  0  0  0
   -3.8196   22.6044  -28.0188 H   0  0  0  0  0  0  0  0  0  0  0  0
   -2.2480   21.2170  -27.6540 C   0  0  0  0  0  0  0  0  0  0  0  0
   -0.9120   20.8710  -27.9170 C   0  0  0  0  0  0  0  0  0  0  0  0
   -0.2188   21.6263  -28.3156 H   0  0  0  0  0  0  0  0  0  0  0  0
   -0.4600   19.5700  -27.6740 C   0  0  0  0  0  0  0  0  0  0  0  0
    0.5854   19.3023  -27.8871 H   0  0  0  0  0  0  0  0  0  0  0  0
   -1.3370   18.6090  -27.1600 C   0  0  0  0  0  0  0  0  0  0  0  0
   -0.9822   17.5847  -26.9730 H   0  0  0  0  0  0  0  0  0  0  0  0
   -2.6640   18.9500  -26.8840 C   0  0  0  0  0  0  0  0  0  0  0  0
   -3.3513   18.1944  -26.4756 H   0  0  0  0  0  0  0  0  0  0  0  0
   -3.1200   20.2500  -27.1260 C   0  0  0  0  0  0  0  0  0  0  0  0
   -4.1637   20.5159  -26.9024 H   0  0  0  0  0  0  0  0  0  0  0  0
  1  2  1  0
  2  3  2  0
  3  4  1  0
  4  5  2  0
  4  6  1  0
  6  7  2  3
  7  8  1  0
  8  9  2  0
  8 10  1  0
 10 11  1  0
 11 12  1  0
 12 13  1  0
 12 14  2  0
 14 15  1  0
 14 16  1  0
 16 17  1  0
  6 18  1  0
 18 19  1  0
 18 20  1  0
 18 21  1  0
 21 22  2  0
 22 23  1  0
 22 24  1  0
 24 25  1  0
 24 26  2  0
 26 27  1  0
 26 28  1  0
 28 29  1  0
 28 30  2  0
 30 31  1  0
  2 32  1  0
 32 33  1  0
 32 34  1  0
 32 35  1  0
 35 36  2  0
 36 37  1  0
 36 38  1  0
 38 39  1  0
 38 40  2  0
 40 41  1  0
 40 42  1  0
 42 43  1  0
 42 44  2  0
 44 45  1  0
 16 10  2  0
 30 21  1  0
 44 35  1  0
M  CHG  1  28   1
M  END
>  <UniqueID>  (3) 
3

>  <SMILES>  (3) 
O=C(/N=C\Cc1ccccc1)C(Cc1ccc[nH+]c1)=NC(=O)c1cccs1

>  <Energy>  (3) 
84.77469084853377

>  <Genealogy>  (3) 
O=C(N=CCc1ccccc1)C(Cc1ccc[nH+]c1)=NC(=O)c1cccs1 (protonated)
O=C(/N=C\Cc1ccccc1)C(Cc1ccc[nH+]c1)=NC(=O)c1cccs1 (cis-trans isomerization)
O=C(/N=C\Cc1ccccc1)C(Cc1ccc[nH+]c1)=NC(=O)c1cccs1 (3D coordinates assigned)
O=C(/N=C\Cc1ccccc1)C(Cc1ccc[nH+]c1)=NC(=O)c1cccs1 (optimized conformer: 84.77469084853377 kcal/mol)

>  <smiles>  (3) 
O=C(N=CCc1ccccc1)C(Cc1cccnc1)=NC(=O)c1cccs1

>  <score_type>  (3) 
oracle

>  <origin>  (3) 
adg

>  <m_score__min__energy>  (3) 
-9.0199999999999996

>  <m_primary>  (3) 
energy

$$$$
3:0
     RDKit          3D

 27 29  0  0  0  0  0  0  0  0999 V2000
   -3.8950   25.2260  -30.8070 O   0  0  0  0  0  0  0  0  0  0  0  0
   -4.0100   24.0160  -30.4780 C   0  0  0  0  0  0  0  0  0  0  0  0
   -2.9090   23.3720  -29.7280 C   0  0  0  0  0  0  0  0  0  0  0  0
   -1.9210   22.6730  -30.4420 C   0  0  0  0  0  0  0  0  0  0  0  0
   -0.8570   22.0650  -29.7710 C   0  0  0  0  0  0  0  0  0  0  0  0
   -0.7730   22.1390  -28.3810 C   0  0  0  0  0  0  0  0  0  0  0  0
   -1.7590   22.8110  -27.6560 C   0  0  0  0  0  0  0  0  0  0  0  0
   -2.8310   23.4250  -28.3170 C   0  0  0  0  0  0  0  0  0  0  0  0
   -4.0850   24.1790  -27.3370 Cl  0  0  0  0  0  0  0  0  0  0  0  0
   -5.2700   23.2930  -30.7690 C   0  0  0  0  0  0  0  0  0  0  0  0
   -6.4970   23.6860  -30.2230 C   0  0  0  0  0  0  0  0  0  0  0  0
   -7.7160   22.6750  -30.8030 S   0  0  0  0  0  0  0  0  0  0  0  0
   -6.7050   21.7260  -31.7480 C   0  0  0  0  0  0  0  0  0  0  0  0
   -7.0430   20.6280  -32.5430 C   0  0  0  0  0  0  0  0  0  0  0  0
   -8.7030   20.0710  -32.6830 Cl  0  0  0  0  0  0  0  0  0  0  0  0
   -6.0160   19.9660  -33.2320 C   0  0  0  0  0  0  0  0  0  0  0  0
   -4.6850   20.4020  -33.1120 C   0  0  0  0  0  0  0  0  0  0  0  0
   -4.3660   21.5080  -32.3070 C   0  0  0  0  0  0  0  0  0  0  0  0
   -5.3950   22.1800  -31.6290 C   0  0  0  0  0  0  0  0  0  0  0  0
   -1.9858   22.6040  -31.5379 H   0  0  0  0  0  0  0  0  0  0  0  0
   -0.0844   21.5271  -30.3400 H   0  0  0  0  0  0  0  0  0  0  0  0
    0.0706   21.6677  -27.8554 H   0  0  0  0  0  0  0  0  0  0  0  0
   -1.6938   22.8587  -26.5590 H   0  0  0  0  0  0  0  0  0  0  0  0
   -6.6436   24.5233  -29.5248 H   0  0  0  0  0  0  0  0  0  0  0  0
   -6.2533   19.1014  -33.8693 H   0  0  0  0  0  0  0  0  0  0  0  0
   -3.8867   19.8727  -33.6529 H   0  0  0  0  0  0  0  0  0  0  0  0
   -3.3229   21.8433  -32.2092 H   0  0  0  0  0  0  0  0  0  0  0  0
  1  2  2  0
  2  3  1  0
  3  4  2  0
  4  5  1  0
  5  6  2  0
  6  7  1  0
  7  8  2  0
  8  9  1  0
  2 10  1  0
 10 11  2  0
 11 12  1  0
 12 13  1  0
 13 14  2  0
 14 15  1  0
 14 16  1  0
 16 17  2  0
 17 18  1  0
 18 19  2  0
  8  3  1  0
 19 10  1  0
 19 13  1  0
  4 20  1  0
  5 21  1  0
  6 22  1  0
  7 23  1  0
 11 24  1  0
 16 25  1  0
 17 26  1  0
 18 27  1  0
M  END
>  <UniqueID>  (4) 
4

>  <SMILES>  (4) 
O=C(c1ccccc1Cl)c1csc2c(Cl)cccc12

>  <Energy>  (4) 
70.39284557063506

>  <Genealogy>  (4) 
O=C(c1ccccc1Cl)c1csc2c(Cl)cccc12 (3D coordinates assigned)
O=C(c1ccccc1Cl)c1csc2c(Cl)cccc12 (optimized conformer: 70.39284557063506 kcal/mol)

>  <smiles>  (4) 
O=C(c1ccccc1Cl)c1csc2c(Cl)cccc12

>  <score_type>  (4) 
oracle

>  <origin>  (4) 
adg

>  <m_score__min__energy>  (4) 
-8.2799999999999994

>  <m_primary>  (4) 
energy

$$$$
4:0
     RDKit          3D

 50 53  0  0  0  0  0  0  0  0999 V2000
   -4.2000   19.7160  -33.4340 C   0  0  0  0  0  0  0  0  0  0  0  0
   -4.0220   21.2310  -33.4000 C   0  0  0  0  0  0  0  0  0  0  0  0
   -3.5790   21.6660  -32.0700 N   0  0  0  0  0  0  0  0  0  0  0  0
   -2.4360   21.2340  -31.4740 C   0  0  0  0  0  0  0  0  0  0  0  0
   -1.7110   20.3170  -31.9460 O   0  0  0  0  0  0  0  0  0  0  0  0
   -2.1430   21.8930  -30.3310 N   0  0  0  0  0  0  0  0  0  0  0  0
   -1.0280   21.6390  -29.4170 C   0  0  0  0  0  0  0  0  0  0  0  0
   -1.4100   20.5800  -28.4330 C   0  0  0  0  0  0  0  0  0  0  0  0
   -2.6600   20.5680  -27.8960 N   0  0  0  0  0  0  0  0  0  0  0  0
   -3.0390   19.5920  -27.0310 C   0  0  0  0  0  0  0  0  0  0  0  0
   -2.1440   18.5780  -26.6910 C   0  0  0  0  0  0  0  0  0  0  0  0
   -0.8710   18.5980  -27.2590 C   0  0  0  0  0  0  0  0  0  0  0  0
   -0.5290   19.5920  -28.1200 N   0  0  0  0  0  0  0  0  0  0  0  0
   -3.1500   22.7760  -30.1960 C   0  0  0  0  0  0  0  0  0  0  0  0
   -3.3370   23.7140  -29.1860 C   0  0  0  0  0  0  0  0  0  0  0  0
   -4.4250   24.5260  -29.2560 N   0  0  0  0  0  0  0  0  0  0  0  0
   -5.3330   24.4380  -30.2730 C   0  0  0  0  0  0  0  0  0  0  0  0
   -5.1870   23.4810  -31.3050 C   0  0  0  0  0  0  0  0  0  0  0  0
   -6.2690   23.3860  -32.3500 C   0  0  0  0  0  0  0  0  0  0  0  0
   -7.5840   23.6140  -31.7400 N   0  0  0  0  0  0  0  0  0  0  0  0
   -7.9260   22.5730  -30.7590 C   0  0  0  0  0  0  0  0  0  0  0  0
   -8.1200   21.2240  -31.4070 C   0  0  0  0  0  0  0  0  0  0  0  0
   -9.2910   20.9520  -32.1360 C   0  0  0  0  0  0  0  0  0  0  0  0
   -9.4830   19.6950  -32.7150 C   0  0  0  0  0  0  0  0  0  0  0  0
   -8.5140   18.6990  -32.5670 C   0  0  0  0  0  0  0  0  0  0  0  0
   -7.3480   18.9590  -31.8380 C   0  0  0  0  0  0  0  0  0  0  0  0
   -6.1360   17.7060  -31.6460 Cl  0  0  0  0  0  0  0  0  0  0  0  0
   -7.1520   20.2160  -31.2590 C   0  0  0  0  0  0  0  0  0  0  0  0
   -4.0330   22.6550  -31.2450 C   0  0  0  0  0  0  0  0  0  0  0  0
   -4.2455   19.3290  -32.4053 H   0  0  0  0  0  0  0  0  0  0  0  0
   -5.1334   19.4682  -33.9606 H   0  0  0  0  0  0  0  0  0  0  0  0
   -3.3494   19.2586  -33.9606 H   0  0  0  0  0  0  0  0  0  0  0  0
   -3.2689   21.5240  -34.1463 H   0  0  0  0  0  0  0  0  0  0  0  0
   -4.9866   21.7081  -33.6278 H   0  0  0  0  0  0  0  0  0  0  0  0
   -0.1529   21.3036  -29.9930 H   0  0  0  0  0  0  0  0  0  0  0  0
   -0.7835   22.5654  -28.8766 H   0  0  0  0  0  0  0  0  0  0  0  0
   -4.0506   19.6013  -26.5991 H   0  0  0  0  0  0  0  0  0  0  0  0
   -2.4356   17.7811  -25.9911 H   0  0  0  0  0  0  0  0  0  0  0  0
   -0.1445   17.8103  -27.0105 H   0  0  0  0  0  0  0  0  0  0  0  0
   -2.6235   23.7965  -28.3529 H   0  0  0  0  0  0  0  0  0  0  0  0
   -6.1931   25.1235  -30.2899 H   0  0  0  0  0  0  0  0  0  0  0  0
   -6.0920   24.1450  -33.1263 H   0  0  0  0  0  0  0  0  0  0  0  0
   -6.2498   22.3808  -32.7963 H   0  0  0  0  0  0  0  0  0  0  0  0
   -7.5850   24.5510  -31.2700 H   0  0  0  0  0  0  0  0  0  0  0  0
   -7.1125   22.4989  -30.0223 H   0  0  0  0  0  0  0  0  0  0  0  0
   -8.8741   22.8579  -30.2794 H   0  0  0  0  0  0  0  0  0  0  0  0
  -10.0586   21.7315  -32.2509 H   0  0  0  0  0  0  0  0  0  0  0  0
  -10.3988   19.4890  -33.2885 H   0  0  0  0  0  0  0  0  0  0  0  0
   -8.6678   17.7102  -33.0237 H   0  0  0  0  0  0  0  0  0  0  0  0
   -6.2356   20.4172  -30.6847 H   0  0  0  0  0  0  0  0  0  0  0  0
  1  2  1  0
  2  3  1  0
  3  4  1  0
  4  5  2  0
  4  6  1  0
  6  7  1  0
  7  8  1  0
  8  9  2  0
  9 10  1  0
 10 11  2  0
 11 12  1  0
 12 13  2  0
  6 14  1  0
 14 15  2  0
 15 16  1  0
 16 17  2  0
 17 18  1  0
 18 19  1  0
 19 20  1  0
 20 21  1  0
 21 22  1  0
 22 23  2  0
 23 24  1  0
 24 25  2  0
 25 26  1  0
 26 27  1  0
 26 28  2  0
 18 29  2  0
 29  3  1  0
 13  8  1  0
 29 14  1  0
 28 22  1  0
  1 30  1  0
  1 31  1  0
  1 32  1  0
  2 33  1  0
  2 34  1  0
  7 35  1  0
  7 36  1  0
 10 37  1  0
 11 38  1  0
 12 39  1  0
 15 40  1  0
 17 41  1  0
 19 42  1  0
 19 43  1  0
 20 44  1  0
 21 45  1  0
 21 46  1  0
 23 47  1  0
 24 48  1  0
 25 49  1  0
 28 50  1  0
M  END
>  <UniqueID>  (5) 
5

>  <SMILES>  (5) 
CCn1c(=O)n(Cc2ncccn2)c2cncc(CNCc3cccc(Cl)c3)c21

>  <Energy>  (5) 
97.5987761766262

>  <Genealogy>  (5) 
CCn1c(=O)n(Cc2ncccn2)c2cncc(CNCc3cccc(Cl)c3)c21 (3D coordinates assigned)
CCn1c(=O)n(Cc2ncccn2)c2cncc(CNCc3cccc(Cl)c3)c21 (optimized conformer: 97.5987761766262 kcal/mol)

>  <smiles>  (5) 
CCn1c(=O)n(Cc2ncccn2)c2cncc(CNCc3cccc(Cl)c3)c21

>  <score_type>  (5) 
oracle

>  <origin>  (5) 
adg

>  <m_score__min__energy>  (5) 
-8.6699999999999999

>  <m_primary>  (5) 
energy

$$$$
5:0
     RDKit          3D

 47 50  0  0  0  0  0  0  0  0999 V2000
   -2.4540   24.5600  -28.7310 C   0  0  0  0  0  0  0  0  0  0  0  0
   -3.0560   24.5780  -30.0220 O   0  0  0  0  0  0  0  0  0  0  0  0
   -3.6480   23.4630  -30.6350 C   0  0  0  0  0  0  0  0  0  0  0  0
   -5.0060   23.1390  -30.4580 C   0  0  0  0  0  0  0  0  0  0  0  0
   -5.5540   22.0180  -31.0880 C   0  0  0  0  0  0  0  0  0  0  0  0
   -4.7540   21.1920  -31.9070 C   0  0  0  0  0  0  0  0  0  0  0  0
   -5.2660   20.0460  -32.5640 C   0  0  0  0  0  0  0  0  0  0  0  0
   -6.6880   19.6660  -32.4100 C   0  0  0  0  0  0  0  0  0  0  0  0
   -7.6890   20.3880  -33.0770 C   0  0  0  0  0  0  0  0  0  0  0  0
   -9.0310   20.0240  -32.9310 C   0  0  0  0  0  0  0  0  0  0  0  0
   -9.3790   18.9430  -32.1170 C   0  0  0  0  0  0  0  0  0  0  0  0
   -8.3850   18.2230  -31.4460 C   0  0  0  0  0  0  0  0  0  0  0  0
   -7.0430   18.5820  -31.5900 C   0  0  0  0  0  0  0  0  0  0  0  0
   -4.4040   19.2700  -33.3760 C   0  0  0  0  0  0  0  0  0  0  0  0
   -4.9590   17.8110  -34.2230 S   0  0  0  0  0  0  0  0  0  0  0  0
   -6.4470   17.8420  -34.4300 O   0  0  0  0  0  0  0  0  0  0  0  0
   -4.2990   17.7680  -35.5730 O   0  0  0  0  0  0  0  0  0  0  0  0
   -4.5390   16.3440  -33.3110 C   0  0  0  0  0  0  0  0  0  0  0  0
   -5.2600   16.0740  -32.1360 C   0  0  0  0  0  0  0  0  0  0  0  0
   -4.9870   14.9730  -31.3880 N   0  0  0  0  0  0  0  0  0  0  0  0
   -4.0110   14.1010  -31.7420 C   0  0  0  0  0  0  0  0  0  0  0  0
   -3.2690   14.3110  -32.9030 C   0  0  0  0  0  0  0  0  0  0  0  0
   -3.5330   15.4250  -33.7230 C   0  0  0  0  0  0  0  0  0  0  0  0
   -2.6880   15.6320  -34.9680 C   0  0  0  0  0  0  0  0  0  0  0  0
   -1.6840   14.6830  -35.0620 F   0  0  0  0  0  0  0  0  0  0  0  0
   -2.0970   16.8810  -34.9220 F   0  0  0  0  0  0  0  0  0  0  0  0
   -3.4580   15.5290  -36.1110 F   0  0  0  0  0  0  0  0  0  0  0  0
   -3.0700   19.6720  -33.5260 C   0  0  0  0  0  0  0  0  0  0  0  0
   -2.6020   20.7700  -32.8850 N   0  0  0  0  0  0  0  0  0  0  0  0
   -3.3940   21.5300  -32.0860 C   0  0  0  0  0  0  0  0  0  0  0  0
   -2.8530   22.6540  -31.4510 C   0  0  0  0  0  0  0  0  0  0  0  0
   -3.2385   24.5835  -27.9603 H   0  0  0  0  0  0  0  0  0  0  0  0
   -1.8562   23.6436  -28.6179 H   0  0  0  0  0  0  0  0  0  0  0  0
   -1.8025   25.4391  -28.6179 H   0  0  0  0  0  0  0  0  0  0  0  0
   -5.6402   23.7719  -29.8199 H   0  0  0  0  0  0  0  0  0  0  0  0
   -6.6177   21.7774  -30.9444 H   0  0  0  0  0  0  0  0  0  0  0  0
   -7.4177   21.2415  -33.7156 H   0  0  0  0  0  0  0  0  0  0  0  0
   -9.8139   20.5894  -33.4577 H   0  0  0  0  0  0  0  0  0  0  0  0
  -10.4354   18.6580  -32.0037 H   0  0  0  0  0  0  0  0  0  0  0  0
   -8.6606   17.3732  -30.8043 H   0  0  0  0  0  0  0  0  0  0  0  0
   -6.2629   18.0152  -31.0606 H   0  0  0  0  0  0  0  0  0  0  0  0
   -6.0561   16.7630  -31.8173 H   0  0  0  0  0  0  0  0  0  0  0  0
   -5.5360   14.7980  -30.5180 H   0  0  0  0  0  0  0  0  0  0  0  0
   -3.8040   13.2244  -31.1105 H   0  0  0  0  0  0  0  0  0  0  0  0
   -2.4736   13.6034  -33.1800 H   0  0  0  0  0  0  0  0  0  0  0  0
   -2.3956   19.0898  -34.1711 H   0  0  0  0  0  0  0  0  0  0  0  0
   -1.7914   22.9029  -31.5958 H   0  0  0  0  0  0  0  0  0  0  0  0
  1  2  1  0
  2  3  1  0
  3  4  2  0
  4  5  1  0
  5  6  2  0
  6  7  1  0
  7  8  1  0
  8  9  2  0
  9 10  1  0
 10 11  2  0
 11 12  1  0
 12 13  2  0
  7 14  2  0
 14 15  1  0
 15 16  2  0
 15 17  2  0
 15 18  1  0
 18 19  2  0
 19 20  1  0
 20 21  2  0
 21 22  1  0
 22 23  2  0
 23 24  1  0
 24 25  1  0
 24 26  1  0
 24 27  1  0
 14 28  1  0
 28 29  2  0
 29 30  1  0
 30 31  2  0
 31  3  1  0
 30  6  1  0
 13  8  1  0
 23 18  1  0
  1 32  1  0
  1 33  1  0
  1 34  1  0
  4 35  1  0
  5 36  1  0
  9 37  1  0
 10 38  1  0
 11 39  1  0
 12 40  1  0
 13 41  1  0
 19 42  1  0
 20 43  1  0
 21 44  1  0
 22 45  1  0
 28 46  1  0
 31 47  1  0
M  CHG  1  20   1
M  END
>  <UniqueID>  (6) 
6

>  <SMILES>  (6) 
COc1ccc2c(-c3ccccc3)c(S(=O)(=O)c3c[nH+]ccc3C(F)(F)F)cnc2c1

>  <Energy>  (6) 
71.6683739874632

>  <Genealogy>  (6) 
COc1ccc2c(-c3ccccc3)c(S(=O)(=O)c3c[nH+]ccc3C(F)(F)F)cnc2c1 (protonated)
COc1ccc2c(-c3ccccc3)c(S(=O)(=O)c3c[nH+]ccc3C(F)(F)F)cnc2c1 (3D coordinates assigned)
COc1ccc2c(-c3ccccc3)c(S(=O)(=O)c3c[nH+]ccc3C(F)(F)F)cnc2c1 (optimized conformer: 71.6683739874632 kcal/mol)

>  <smiles>  (6) 
COc1ccc2c(-c3ccccc3)c(S(=O)(=O)c3cnccc3C(F)(F)F)cnc2c1

>  <score_type>  (6) 
oracle

>  <origin>  (6) 
adg

>  <m_score__min__energy>  (6) 
-8.3599999999999994

>  <m_primary>  (6) 
energy

$$$$
6:0
     RDKit          3D

 41 44  0  0  0  0  0  0  0  0999 V2000
   -7.3251   23.9947  -31.3870 H   0  0  0  0  0  0  0  0  0  0  0  0
   -6.2730   23.6850  -31.3020 C   0  0  0  0  0  0  0  0  0  0  0  0
   -5.8850   22.4780  -31.8040 N   0  0  0  0  0  0  0  0  0  0  0  0
   -4.5940   22.0940  -31.6640 C   0  0  0  0  0  0  0  0  0  0  0  0
   -3.6490   22.8840  -31.0810 C   0  0  0  0  0  0  0  0  0  0  0  0
   -3.9870   24.1330  -30.5190 C   0  0  0  0  0  0  0  0  0  0  0  0
   -3.1470   24.9110  -29.8910 N   0  0  0  0  0  0  0  0  0  0  0  0
   -2.1620   24.5560  -28.9140 C   0  0  0  0  0  0  0  0  0  0  0  0
   -1.9870   25.2860  -27.9010 O   0  0  0  0  0  0  0  0  0  0  0  0
   -1.2550   23.4760  -29.1560 N   0  0  0  0  0  0  0  0  0  0  0  0
   -1.2990   22.1860  -28.5290 C   0  0  0  0  0  0  0  0  0  0  0  0
   -0.1600   21.3630  -28.4490 C   0  0  0  0  0  0  0  0  0  0  0  0
    0.7989   21.7121  -28.8597 H   0  0  0  0  0  0  0  0  0  0  0  0
   -0.2440   20.1030  -27.8490 C   0  0  0  0  0  0  0  0  0  0  0  0
    0.6513   19.4678  -27.7781 H   0  0  0  0  0  0  0  0  0  0  0  0
   -1.4640   19.6490  -27.3390 C   0  0  0  0  0  0  0  0  0  0  0  0
   -1.5420   18.4260  -26.7580 F   0  0  0  0  0  0  0  0  0  0  0  0
   -2.6030   20.4510  -27.4390 C   0  0  0  0  0  0  0  0  0  0  0  0
   -3.5642   20.0902  -27.0441 H   0  0  0  0  0  0  0  0  0  0  0  0
   -2.5250   21.7120  -28.0400 C   0  0  0  0  0  0  0  0  0  0  0  0
   -3.6400   22.4790  -28.1330 F   0  0  0  0  0  0  0  0  0  0  0  0
   -5.3380   24.5480  -30.6710 C   0  0  0  0  0  0  0  0  0  0  0  0
   -5.8010   25.8720  -30.1250 C   0  0  0  0  0  0  0  0  0  0  0  0
   -5.7896   25.8394  -29.0255 H   0  0  0  0  0  0  0  0  0  0  0  0
   -5.1281   26.6686  -30.4752 H   0  0  0  0  0  0  0  0  0  0  0  0
   -6.8237   26.0756  -30.4752 H   0  0  0  0  0  0  0  0  0  0  0  0
   -2.4500   22.3260  -31.3540 N   0  0  0  0  0  0  0  0  0  0  0  0
   -1.4970   22.7050  -31.1760 H   0  0  0  0  0  0  0  0  0  0  0  0
   -2.6780   21.2220  -32.0590 N   0  0  0  0  0  0  0  0  0  0  0  0
   -3.9820   21.0490  -32.2510 N   0  0  0  0  0  0  0  0  0  0  0  0
   -4.5560   19.9860  -33.0350 C   0  0  0  0  0  0  0  0  0  0  0  0
   -5.9510   19.8460  -33.1600 C   0  0  0  0  0  0  0  0  0  0  0  0
   -6.6195   20.5613  -32.6585 H   0  0  0  0  0  0  0  0  0  0  0  0
   -6.4920   18.8030  -33.9180 C   0  0  0  0  0  0  0  0  0  0  0  0
   -7.5831   18.7049  -34.0170 H   0  0  0  0  0  0  0  0  0  0  0  0
   -5.6490   17.8850  -34.5500 C   0  0  0  0  0  0  0  0  0  0  0  0
   -6.0759   17.0672  -35.1492 H   0  0  0  0  0  0  0  0  0  0  0  0
   -4.2640   18.0070  -34.4200 C   0  0  0  0  0  0  0  0  0  0  0  0
   -3.6005   17.2819  -34.9139 H   0  0  0  0  0  0  0  0  0  0  0  0
   -3.7190   19.0480  -33.6640 C   0  0  0  0  0  0  0  0  0  0  0  0
   -2.6273   19.1342  -33.5603 H   0  0  0  0  0  0  0  0  0  0  0  0
  1  2  1  0
  2  3  1  0
  3  4  1  0
  4  5  2  0
  5  6  1  0
  6  7  2  0
  7  8  1  0
  8  9  2  0
  8 10  1  0
 10 11  1  0
 11 12  2  0
 12 13  1  0
 12 14  1  0
 14 15  1  0
 14 16  2  0
 16 17  1  0
 16 18  1  0
 18 19  1  0
 18 20  2  0
 20 21  1  0
  6 22  1  0
 22 23  1  0
 23 24  1  0
 23 25  1  0
 23 26  1  0
  5 27  1  0
 27 28  1  0
 27 29  2  0
 29 30  1  0
 30 31  1  0
 31 32  2  0
 32 33  1  0
 32 34  1  0
 34 35  1  0
 34 36  2  0
 36 37  1  0
 36 38  1  0
 38 39  1  0
 38 40  2  0
 40 41  1  0
 22  2  2  0
 40 31  1  0
 30  4  1  0
 20 11  1  0
M  CHG  3   3  -1  10  -1  27   1
M  END
>  <UniqueID>  (7) 
7

>  <SMILES>  (7) 
Cc1c[n-]c2c([nH+]nn2-c2ccccc2)/c1=N\C(=O)[N-]c1ccc(F)cc1F

>  <Energy>  (7) 
112.60675109473188

>  <Genealogy>  (7) 
Cc1c[n-]c2c([nH+]nn2-c2ccccc2)c1=NC(=O)[N-]c1ccc(F)cc1F (protonated)
Cc1c[n-]c2c([nH+]nn2-c2ccccc2)/c1=N\C(=O)[N-]c1ccc(F)cc1F (cis-trans isomerization)
Cc1c[n-]c2c([nH+]nn2-c2ccccc2)/c1=N\C(=O)[N-]c1ccc(F)cc1F (3D coordinates assigned)
Cc1c[n-]c2c([nH+]nn2-c2ccccc2)/c1=N\C(=O)[N-]c1ccc(F)cc1F (optimized conformer: 112.60675109473188 kcal/mol)

>  <smiles>  (7) 
Cc1c[nH]c2c(nnn2-c2ccccc2)c1=NC(=O)Nc1ccc(F)cc1F

>  <score_type>  (7) 
oracle

>  <origin>  (7) 
adg

>  <m_score__min__energy>  (7) 
-9.3599999999999994

>  <m_primary>  (7) 
energy

$$$$
7:0
     RDKit          3D

 33 35  0  0  0  0  0  0  0  0999 V2000
    0.3810   18.5210  -29.4360 C   0  0  0  0  0  0  0  0  0  0  0  0
   -0.2470   19.0610  -28.2770 O   0  0  0  0  0  0  0  0  0  0  0  0
   -1.0230   20.2300  -28.2690 C   0  0  0  0  0  0  0  0  0  0  0  0
   -1.3870   20.8860  -27.0800 C   0  0  0  0  0  0  0  0  0  0  0  0
   -2.1630   22.0480  -27.1200 C   0  0  0  0  0  0  0  0  0  0  0  0
   -2.5940   22.5860  -28.3510 C   0  0  0  0  0  0  0  0  0  0  0  0
   -3.4560   23.8520  -28.4390 C   0  0  1  0  0  0  0  0  0  0  0  0
   -3.8710   24.4630  -27.0880 C   0  0  0  0  0  0  0  0  0  0  0  0
   -2.7820   24.9070  -29.2840 C   0  0  0  0  0  0  0  0  0  0  0  0
   -1.6790   25.4400  -28.9920 O   0  0  0  0  0  0  0  0  0  0  0  0
   -3.5070   25.2570  -30.4610 N   0  0  0  0  0  0  0  0  0  0  0  0
   -4.6550   24.4280  -30.4010 C   0  0  0  0  0  0  0  0  0  0  0  0
   -5.6770   24.3850  -31.3480 C   0  0  0  0  0  0  0  0  0  0  0  0
   -6.7420   23.4910  -31.1480 C   0  0  0  0  0  0  0  0  0  0  0  0
   -8.0430   23.4150  -32.3240 Cl  0  0  0  0  0  0  0  0  0  0  0  0
   -6.7620   22.6560  -30.0100 C   0  0  0  0  0  0  0  0  0  0  0  0
   -7.7870   21.7890  -29.8170 F   0  0  0  0  0  0  0  0  0  0  0  0
   -5.7210   22.7150  -29.0690 C   0  0  0  0  0  0  0  0  0  0  0  0
   -4.6730   23.6140  -29.2860 C   0  0  0  0  0  0  0  0  0  0  0  0
   -2.2240   21.9140  -29.5360 C   0  0  0  0  0  0  0  0  0  0  0  0
   -1.4480   20.7540  -29.4910 C   0  0  0  0  0  0  0  0  0  0  0  0
    1.1824   17.8319  -29.1313 H   0  0  0  0  0  0  0  0  0  0  0  0
   -0.3628   17.9761  -30.0358 H   0  0  0  0  0  0  0  0  0  0  0  0
    0.8083   19.3381  -30.0358 H   0  0  0  0  0  0  0  0  0  0  0  0
   -1.0587   20.4819  -26.1110 H   0  0  0  0  0  0  0  0  0  0  0  0
   -2.4408   22.5487  -26.1808 H   0  0  0  0  0  0  0  0  0  0  0  0
   -3.4585   23.8557  -26.2688 H   0  0  0  0  0  0  0  0  0  0  0  0
   -3.4825   25.4895  -27.0150 H   0  0  0  0  0  0  0  0  0  0  0  0
   -4.9684   24.4802  -27.0150 H   0  0  0  0  0  0  0  0  0  0  0  0
   -5.6501   25.0374  -32.2333 H   0  0  0  0  0  0  0  0  0  0  0  0
   -5.7303   22.0673  -28.1799 H   0  0  0  0  0  0  0  0  0  0  0  0
   -2.5516   22.3098  -30.5086 H   0  0  0  0  0  0  0  0  0  0  0  0
   -1.1690   20.2484  -30.4272 H   0  0  0  0  0  0  0  0  0  0  0  0
  1  2  1  0
  2  3  1  0
  3  4  2  0
  4  5  1  0
  5  6  2  0
  6  7  1  0
  7  8  1  1
  7  9  1  0
  9 10  2  0
  9 11  1  0
 11 12  1  0
 12 13  2  0
 13 14  1  0
 14 15  1  0
 14 16  2  0
 16 17  1  0
 16 18  1  0
 18 19  2  0
  6 20  1  0
 20 21  2  0
 21  3  1  0
 19  7  1  0
 19 12  1  0
  1 22  1  0
  1 23  1  0
  1 24  1  0
  4 25  1  0
  5 26  1  0
  8 27  1  0
  8 28  1  0
  8 29  1  0
 13 30  1  0
 18 31  1  0
 20 32  1  0
 21 33  1  0
M  CHG  1  11  -1
M  END
>  <UniqueID>  (8) 
8

>  <SMILES>  (8) 
COc1ccc([C@@]2(C)C(=O)[N-]c3cc(Cl)c(F)cc32)cc1

>  <Energy>  (8) 
56.228411856804414

>  <Genealogy>  (8) 
COc1ccc(C2(C)C(=O)[N-]c3cc(Cl)c(F)cc32)cc1 (protonated)
COc1ccc([C@@]2(C)C(=O)[N-]c3cc(Cl)c(F)cc32)cc1 (chirality)
COc1ccc([C@@]2(C)C(=O)[N-]c3cc(Cl)c(F)cc32)cc1 (3D coordinates assigned)
COc1ccc([C@@]2(C)C(=O)[N-]c3cc(Cl)c(F)cc32)cc1 (nonaromatic ring conformer: 56.228411856804414 kcal/mol)

>  <smiles>  (8) 
COc1ccc(C2(C)C(=O)Nc3cc(Cl)c(F)cc32)cc1

>  <score_type>  (8) 
oracle

>  <origin>  (8) 
adg

>  <m_score__min__energy>  (8) 
-8.7100000000000009

>  <m_primary>  (8) 
energy

$$$$
8:0
     RDKit          3D

 42 44  0  0  0  0  0  0  0  0999 V2000
   -3.5890   25.2490  -26.3010 C   0  0  0  0  0  0  0  0  0  0  0  0
   -2.3810   24.8550  -27.1080 C   0  0  0  0  0  0  0  0  0  0  0  0
   -1.1090   25.3000  -26.7080 C   0  0  0  0  0  0  0  0  0  0  0  0
    0.0270   24.9510  -27.4420 C   0  0  0  0  0  0  0  0  0  0  0  0
   -0.0950   24.1660  -28.5880 C   0  0  0  0  0  0  0  0  0  0  0  0
   -1.3540   23.7270  -29.0050 C   0  0  0  0  0  0  0  0  0  0  0  0
   -2.5060   24.0580  -28.2700 C   0  0  0  0  0  0  0  0  0  0  0  0
   -3.8040   23.6370  -28.7310 N   0  0  0  0  0  0  0  0  0  0  0  0
   -4.5030   24.2690  -29.8140 C   0  0  0  0  0  0  0  0  0  0  0  0
   -3.9330   25.1360  -30.5290 O   0  0  0  0  0  0  0  0  0  0  0  0
   -5.9210   23.8970  -30.1020 C   0  0  0  0  0  0  0  0  0  0  0  0
   -6.2770   24.1960  -31.8620 S   0  0  0  0  0  0  0  0  0  0  0  0
   -6.0180   22.4750  -32.3310 C   0  0  0  0  0  0  0  0  0  0  0  0
   -4.7390   22.0910  -32.7130 C   0  0  0  0  0  0  0  0  0  0  0  0
   -4.4790   20.7740  -33.0860 C   0  0  0  0  0  0  0  0  0  0  0  0
   -3.3010   20.4720  -33.4240 O   0  0  0  0  0  0  0  0  0  0  0  0
   -5.4800   19.8300  -33.0850 N   0  0  0  0  0  0  0  0  0  0  0  0
   -5.1700   18.4410  -33.4830 C   0  0  0  0  0  0  0  0  0  0  0  0
   -6.7660   20.1830  -32.7150 C   0  0  0  0  0  0  0  0  0  0  0  0
   -7.8240   19.2390  -32.7040 C   0  0  0  0  0  0  0  0  0  0  0  0
   -9.1140   19.6110  -32.3290 C   0  0  0  0  0  0  0  0  0  0  0  0
   -9.3860   20.9230  -31.9560 C   0  0  0  0  0  0  0  0  0  0  0  0
   -8.3690   21.8750  -31.9550 C   0  0  0  0  0  0  0  0  0  0  0  0
   -7.0560   21.5250  -32.3300 C   0  0  0  0  0  0  0  0  0  0  0  0
   -3.3547   25.1726  -25.2290 H   0  0  0  0  0  0  0  0  0  0  0  0
   -3.8691   26.2851  -26.5421 H   0  0  0  0  0  0  0  0  0  0  0  0
   -4.4261   24.5773  -26.5421 H   0  0  0  0  0  0  0  0  0  0  0  0
   -1.0075   25.9277  -25.8104 H   0  0  0  0  0  0  0  0  0  0  0  0
    1.0192   25.2959  -27.1156 H   0  0  0  0  0  0  0  0  0  0  0  0
    0.8010   23.8921  -29.1643 H   0  0  0  0  0  0  0  0  0  0  0  0
   -1.4448   23.1173  -29.9160 H   0  0  0  0  0  0  0  0  0  0  0  0
   -4.2410   22.7950  -28.2950 H   0  0  0  0  0  0  0  0  0  0  0  0
   -6.0755   22.8325  -29.8717 H   0  0  0  0  0  0  0  0  0  0  0  0
   -6.5947   24.5062  -29.4815 H   0  0  0  0  0  0  0  0  0  0  0  0
   -3.9258   22.8317  -32.7211 H   0  0  0  0  0  0  0  0  0  0  0  0
   -5.0322   17.8238  -32.5830 H   0  0  0  0  0  0  0  0  0  0  0  0
   -6.0001   18.0370  -34.0811 H   0  0  0  0  0  0  0  0  0  0  0  0
   -4.2469   18.4283  -34.0811 H   0  0  0  0  0  0  0  0  0  0  0  0
   -7.6238   18.1975  -32.9958 H   0  0  0  0  0  0  0  0  0  0  0  0
   -9.9208   18.8633  -32.3281 H   0  0  0  0  0  0  0  0  0  0  0  0
  -10.4063   21.2095  -31.6612 H   0  0  0  0  0  0  0  0  0  0  0  0
   -8.5928   22.9104  -31.6586 H   0  0  0  0  0  0  0  0  0  0  0  0
  1  2  1  0
  2  3  2  0
  3  4  1  0
  4  5  2  0
  5  6  1  0
  6  7  2  0
  7  8  1  0
  8  9  1  0
  9 10  2  0
  9 11  1  0
 11 12  1  0
 12 13  1  0
 13 14  2  0
 14 15  1  0
 15 16  2  0
 15 17  1  0
 17 18  1  0
 17 19  1  0
 19 20  2  0
 20 21  1  0
 21 22  2  0
 22 23  1  0
 23 24  2  0
  7  2  1  0
 24 13  1  0
 24 19  1  0
  1 25  1  0
  1 26  1  0
  1 27  1  0
  3 28  1  0
  4 29  1  0
  5 30  1  0
  6 31  1  0
  8 32  1  0
 11 33  1  0
 11 34  1  0
 14 35  1  0
 18 36  1  0
 18 37  1  0
 18 38  1  0
 20 39  1  0
 21 40  1  0
 22 41  1  0
 23 42  1  0
M  END
>  <UniqueID>  (9) 
9

>  <SMILES>  (9) 
Cc1ccccc1NC(=O)CSc1cc(=O)n(C)c2ccccc12

>  <Energy>  (9) 
54.38657240444222

>  <Genealogy>  (9) 
Cc1ccccc1NC(=O)CSc1cc(=O)n(C)c2ccccc12 (3D coordinates assigned)
Cc1ccccc1NC(=O)CSc1cc(=O)n(C)c2ccccc12 (optimized conformer: 54.38657240444222 kcal/mol)

>  <smiles>  (9) 
Cc1ccccc1NC(=O)CSc1cc(=O)n(C)c2ccccc12

>  <score_type>  (9) 
oracle

>  <origin>  (9) 
adg

>  <m_score__min__energy>  (9) 
-9.4800000000000004

>  <m_primary>  (9) 
energy

$$$$
9:0
     RDKit          3D

 55 58  0  0  0  0  0  0  0  0999 V2000
   -8.7240   18.5310  -31.7350 O   0  0  0  0  0  0  0  0  0  0  0  0
   -7.7170   19.2090  -32.0760 C   0  0  0  0  0  0  0  0  0  0  0  0
   -7.7430   20.6650  -31.8440 C   0  0  0  0  0  0  0  0  0  0  0  0
   -8.7830   21.4040  -31.3050 C   0  0  0  0  0  0  0  0  0  0  0  0
   -8.3570   22.7140  -31.3110 C   0  0  0  0  0  0  0  0  0  0  0  0
   -7.0870   22.6930  -31.8550 C   0  0  0  0  0  0  0  0  0  0  0  0
   -6.2230   23.8840  -32.1040 C   0  0  0  0  0  0  0  0  0  0  0  0
   -5.4620   24.4200  -30.5840 S   0  0  0  0  0  0  0  0  0  0  0  0
   -4.5670   25.5990  -30.8500 O   0  0  0  0  0  0  0  0  0  0  0  0
   -6.5210   24.8310  -29.5990 O   0  0  0  0  0  0  0  0  0  0  0  0
   -4.5170   23.0950  -29.9150 C   0  0  0  0  0  0  0  0  0  0  0  0
   -4.0840   22.0470  -30.7420 C   0  0  0  0  0  0  0  0  0  0  0  0
   -3.3460   20.9880  -30.2040 C   0  0  0  0  0  0  0  0  0  0  0  0
   -3.0430   20.9660  -28.8390 C   0  0  0  0  0  0  0  0  0  0  0  0
   -2.3290   19.9370  -28.3190 F   0  0  0  0  0  0  0  0  0  0  0  0
   -3.4800   22.0050  -28.0110 C   0  0  0  0  0  0  0  0  0  0  0  0
   -4.2170   23.0660  -28.5450 C   0  0  0  0  0  0  0  0  0  0  0  0
   -6.7520   21.4640  -32.1700 O   0  0  0  0  0  0  0  0  0  0  0  0
   -6.5830   18.5450  -32.6650 N   0  0  0  0  0  0  0  0  0  0  0  0
   -6.2940   17.1560  -32.2960 C   0  0  0  0  0  0  0  0  0  0  0  0
   -4.9050   16.7490  -32.8030 C   0  0  0  0  0  0  0  0  0  0  0  0
   -4.7630   16.9230  -34.2760 N   0  0  0  0  0  0  0  0  0  0  0  0
   -3.3320   16.9850  -34.6650 C   0  0  0  0  0  0  0  0  0  0  0  0
   -2.5670   18.0200  -33.8710 C   0  0  0  0  0  0  0  0  0  0  0  0
   -1.6820   17.6270  -32.8530 C   0  0  0  0  0  0  0  0  0  0  0  0
   -0.9580   18.5870  -32.1390 C   0  0  0  0  0  0  0  0  0  0  0  0
   -1.1110   19.9440  -32.4360 C   0  0  0  0  0  0  0  0  0  0  0  0
   -1.9880   20.3430  -33.4490 C   0  0  0  0  0  0  0  0  0  0  0  0
   -2.7120   19.3860  -34.1660 C   0  0  0  0  0  0  0  0  0  0  0  0
   -5.5040   18.1020  -34.8180 C   0  0  0  0  0  0  0  0  0  0  0  0
   -5.8180   19.1610  -33.7540 C   0  0  0  0  0  0  0  0  0  0  0  0
   -9.7504   21.0231  -30.9459 H   0  0  0  0  0  0  0  0  0  0  0  0
   -8.9128   23.5945  -30.9562 H   0  0  0  0  0  0  0  0  0  0  0  0
   -5.4394   23.6193  -32.8292 H   0  0  0  0  0  0  0  0  0  0  0  0
   -6.8430   24.7005  -32.5027 H   0  0  0  0  0  0  0  0  0  0  0  0
   -4.3255   22.0586  -31.8151 H   0  0  0  0  0  0  0  0  0  0  0  0
   -3.0032   20.1708  -30.8557 H   0  0  0  0  0  0  0  0  0  0  0  0
   -3.2432   21.9872  -26.9369 H   0  0  0  0  0  0  0  0  0  0  0  0
   -4.5622   23.8794  -27.8899 H   0  0  0  0  0  0  0  0  0  0  0  0
   -6.3238   17.0577  -31.2008 H   0  0  0  0  0  0  0  0  0  0  0  0
   -7.0487   16.4996  -32.7537 H   0  0  0  0  0  0  0  0  0  0  0  0
   -4.1495   17.3702  -32.2997 H   0  0  0  0  0  0  0  0  0  0  0  0
   -4.7657   15.6815  -32.5770 H   0  0  0  0  0  0  0  0  0  0  0  0
   -5.1740   16.0720  -34.7310 H   0  0  0  0  0  0  0  0  0  0  0  0
   -2.8756   15.9990  -34.4936 H   0  0  0  0  0  0  0  0  0  0  0  0
   -3.2833   17.2706  -35.7262 H   0  0  0  0  0  0  0  0  0  0  0  0
   -1.5581   16.5599  -32.6167 H   0  0  0  0  0  0  0  0  0  0  0  0
   -0.2671   18.2736  -31.3425 H   0  0  0  0  0  0  0  0  0  0  0  0
   -0.5415   20.6980  -31.8728 H   0  0  0  0  0  0  0  0  0  0  0  0
   -2.1085   21.4112  -33.6821 H   0  0  0  0  0  0  0  0  0  0  0  0
   -3.3983   19.7038  -34.9647 H   0  0  0  0  0  0  0  0  0  0  0  0
   -4.8922   18.5677  -35.6046 H   0  0  0  0  0  0  0  0  0  0  0  0
   -6.4653   17.7334  -35.2053 H   0  0  0  0  0  0  0  0  0  0  0  0
   -4.8782   19.5713  -33.3560 H   0  0  0  0  0  0  0  0  0  0  0  0
   -6.4088   19.9717  -34.2054 H   0  0  0  0  0  0  0  0  0  0  0  0
  1  2  2  0
  2  3  1  0
  3  4  2  0
  4  5  1  0
  5  6  2  0
  6  7  1  0
  7  8  1  0
  8  9  2  0
  8 10  2  0
  8 11  1  0
 11 12  2  0
 12 13  1  0
 13 14  2  0
 14 15  1  0
 14 16  1  0
 16 17  2  0
  6 18  1  0
  2 19  1  0
 19 20  1  0
 20 21  1  0
 21 22  1  0
 22 23  1  0
 23 24  1  0
 24 25  2  0
 25 26  1  0
 26 27  2  0
 27 28  1  0
 28 29  2  0
 22 30  1  0
 30 31  1  0
 18  3  1  0
 31 19  1  0
 17 11  1  0
 29 24  1  0
  4 32  1  0
  5 33  1  0
  7 34  1  0
  7 35  1  0
 12 36  1  0
 13 37  1  0
 16 38  1  0
 17 39  1  0
 20 40  1  0
 20 41  1  0
 21 42  1  0
 21 43  1  0
 22 44  1  0
 23 45  1  0
 23 46  1  0
 25 47  1  0
 26 48  1  0
 27 49  1  0
 28 50  1  0
 29 51  1  0
 30 52  1  0
 30 53  1  0
 31 54  1  0
 31 55  1  0
M  CHG  1  22   1
M  END
>  <UniqueID>  (10) 
10

>  <SMILES>  (10) 
O=C(c1ccc(CS(=O)(=O)c2ccc(F)cc2)o1)N1CC[NH+](Cc2ccccc2)CC1

>  <Energy>  (10) 
91.28538944209477

>  <Genealogy>  (10) 
O=C(c1ccc(CS(=O)(=O)c2ccc(F)cc2)o1)N1CC[NH+](Cc2ccccc2)CC1 (protonated)
O=C(c1ccc(CS(=O)(=O)c2ccc(F)cc2)o1)N1CC[NH+](Cc2ccccc2)CC1 (3D coordinates assigned)
O=C(c1ccc(CS(=O)(=O)c2ccc(F)cc2)o1)N1CC[NH+](Cc2ccccc2)CC1 (nonaromatic ring conformer: 91.28538944209477 kcal/mol)

>  <smiles>  (10) 
O=C(c1ccc(CS(=O)(=O)c2ccc(F)cc2)o1)N1CCN(Cc2ccccc2)CC1

>  <score_type>  (10) 
oracle

>  <origin>  (10) 
adg

>  <m_score__min__energy>  (10) 
-10.109999999999999

>  <m_primary>  (10) 
energy

$$$$
10:0
     RDKit          3D

 58 61  0  0  0  0  0  0  0  0999 V2000
   -5.5900   25.0220  -30.0220 C   0  0  0  0  0  0  0  0  0  0  0  0
   -4.4390   24.8700  -30.8480 O   0  0  0  0  0  0  0  0  0  0  0  0
   -3.5290   23.8030  -30.7760 C   0  0  0  0  0  0  0  0  0  0  0  0
   -3.6200   22.7150  -31.6650 C   0  0  0  0  0  0  0  0  0  0  0  0
   -2.7150   21.6440  -31.5980 C   0  0  0  0  0  0  0  0  0  0  0  0
   -2.8050   20.4970  -32.5390 C   0  0  0  0  0  0  0  0  0  0  0  0
   -1.6710   19.7770  -32.9420 C   0  0  0  0  0  0  0  0  0  0  0  0
   -1.8180   18.7130  -33.8250 C   0  0  0  0  0  0  0  0  0  0  0  0
   -3.0860   18.3900  -34.2990 C   0  0  0  0  0  0  0  0  0  0  0  0
   -4.1670   19.1190  -33.8950 N   0  0  0  0  0  0  0  0  0  0  0  0
   -5.5130   18.7840  -34.3660 C   0  0  0  0  0  0  0  0  0  0  0  0
   -5.9370   17.3830  -33.8970 C   0  0  0  0  0  0  0  0  0  0  0  0
   -5.7690   17.1530  -32.3840 C   0  0  0  0  0  0  0  0  0  0  0  0
   -7.0470   17.4550  -31.5930 C   0  0  0  0  0  0  0  0  0  0  0  0
   -7.4160   18.8970  -31.7370 C   0  0  0  0  0  0  0  0  0  0  0  0
   -8.7120   19.4040  -31.6880 C   0  0  0  0  0  0  0  0  0  0  0  0
   -8.5480   20.7620  -31.8360 C   0  0  0  0  0  0  0  0  0  0  0  0
   -9.4810   21.7960  -31.8640 C   0  0  0  0  0  0  0  0  0  0  0  0
   -8.9980   23.1080  -32.0280 C   0  0  0  0  0  0  0  0  0  0  0  0
   -7.6110   23.3490  -32.1580 C   0  0  0  0  0  0  0  0  0  0  0  0
   -6.6950   22.2810  -32.1220 C   0  0  0  0  0  0  0  0  0  0  0  0
   -7.2030   20.9950  -31.9590 C   0  0  0  0  0  0  0  0  0  0  0  0
   -6.5350   19.8690  -31.8960 O   0  0  0  0  0  0  0  0  0  0  0  0
   -4.0180   20.1380  -33.0430 N   0  0  0  0  0  0  0  0  0  0  0  0
   -1.6910   21.6810  -30.6410 C   0  0  0  0  0  0  0  0  0  0  0  0
   -1.5810   22.7560  -29.7440 C   0  0  0  0  0  0  0  0  0  0  0  0
   -0.5660   22.8100  -28.7740 O   0  0  0  0  0  0  0  0  0  0  0  0
   -0.3530   21.8220  -27.7700 C   0  0  0  0  0  0  0  0  0  0  0  0
   -2.4980   23.8180  -29.8010 C   0  0  0  0  0  0  0  0  0  0  0  0
   -2.3230   24.8540  -28.8630 O   0  0  0  0  0  0  0  0  0  0  0  0
   -2.5130   24.7670  -27.4560 C   0  0  0  0  0  0  0  0  0  0  0  0
   -5.2902   24.9824  -28.9644 H   0  0  0  0  0  0  0  0  0  0  0  0
   -6.0666   25.9909  -30.2320 H   0  0  0  0  0  0  0  0  0  0  0  0
   -6.3018   24.2101  -30.2320 H   0  0  0  0  0  0  0  0  0  0  0  0
   -4.4145   22.7040  -32.4257 H   0  0  0  0  0  0  0  0  0  0  0  0
   -0.6753   20.0512  -32.5634 H   0  0  0  0  0  0  0  0  0  0  0  0
   -0.9406   18.1322  -34.1458 H   0  0  0  0  0  0  0  0  0  0  0  0
   -3.2167   17.5499  -34.9970 H   0  0  0  0  0  0  0  0  0  0  0  0
   -6.2249   19.5243  -33.9721 H   0  0  0  0  0  0  0  0  0  0  0  0
   -5.5083   18.7949  -35.4659 H   0  0  0  0  0  0  0  0  0  0  0  0
   -6.9968   17.2381  -34.1536 H   0  0  0  0  0  0  0  0  0  0  0  0
   -5.2770   16.6638  -34.4040 H   0  0  0  0  0  0  0  0  0  0  0  0
   -5.4920   16.1017  -32.2167 H   0  0  0  0  0  0  0  0  0  0  0  0
   -4.9883   17.8415  -32.0284 H   0  0  0  0  0  0  0  0  0  0  0  0
   -7.8673   16.8302  -31.9760 H   0  0  0  0  0  0  0  0  0  0  0  0
   -6.8711   17.2344  -30.5298 H   0  0  0  0  0  0  0  0  0  0  0  0
   -9.6516   18.8465  -31.5602 H   0  0  0  0  0  0  0  0  0  0  0  0
  -10.5575   21.5943  -31.7615 H   0  0  0  0  0  0  0  0  0  0  0  0
   -9.7041   23.9510  -32.0552 H   0  0  0  0  0  0  0  0  0  0  0  0
   -7.2452   24.3782  -32.2882 H   0  0  0  0  0  0  0  0  0  0  0  0
   -5.6135   22.4565  -32.2194 H   0  0  0  0  0  0  0  0  0  0  0  0
   -0.9640   20.8569  -30.5921 H   0  0  0  0  0  0  0  0  0  0  0  0
   -0.4522   22.2822  -26.7758 H   0  0  0  0  0  0  0  0  0  0  0  0
   -1.0991   21.0212  -27.8795 H   0  0  0  0  0  0  0  0  0  0  0  0
    0.6568   21.3997  -27.8795 H   0  0  0  0  0  0  0  0  0  0  0  0
   -1.6293   25.1717  -26.9410 H   0  0  0  0  0  0  0  0  0  0  0  0
   -3.4023   25.3476  -27.1695 H   0  0  0  0  0  0  0  0  0  0  0  0
   -2.6544   23.7144  -27.1695 H   0  0  0  0  0  0  0  0  0  0  0  0
  1  2  1  0
  2  3  1  0
  3  4  2  0
  4  5  1  0
  5  6  1  0
  6  7  2  0
  7  8  1  0
  8  9  2  0
  9 10  1  0
 10 11  1  0
 11 12  1  0
 12 13  1  0
 13 14  1  0
 14 15  1  0
 15 16  2  0
 16 17  1  0
 17 18  2  0
 18 19  1  0
 19 20  2  0
 20 21  1  0
 21 22  2  0
 22 23  1  0
 10 24  2  0
  5 25  2  0
 25 26  1  0
 26 27  1  0
 27 28  1  0
 26 29  2  0
 29 30  1  0
 30 31  1  0
 29  3  1  0
 24  6  1  0
 23 15  1  0
 22 17  1  0
  1 32  1  0
  1 33  1  0
  1 34  1  0
  4 35  1  0
  7 36  1  0
  8 37  1  0
  9 38  1  0
 11 39  1  0
 11 40  1  0
 12 41  1  0
 12 42  1  0
 13 43  1  0
 13 44  1  0
 14 45  1  0
 14 46  1  0
 16 47  1  0
 18 48  1  0
 19 49  1  0
 20 50  1  0
 21 51  1  0
 25 52  1  0
 28 53  1  0
 28 54  1  0
 28 55  1  0
 31 56  1  0
 31 57  1  0
 31 58  1  0
M  CHG  1  10   1
M  END
>  <UniqueID>  (11) 
11

>  <SMILES>  (11) 
COc1cc(-c2ccc[n+](CCCCc3cc4ccccc4o3)n2)cc(OC)c1OC

>  <Energy>  (11) 
93.97570420747812

>  <Genealogy>  (11) 
COc1cc(-c2ccc[n+](CCCCc3cc4ccccc4o3)n2)cc(OC)c1OC (3D coordinates assigned)
COc1cc(-c2ccc[n+](CCCCc3cc4ccccc4o3)n2)cc(OC)c1OC (optimized conformer: 93.97570420747812 kcal/mol)

>  <smiles>  (11) 
COc1cc(-c2ccc[n+](CCCCc3cc4ccccc4o3)n2)cc(OC)c1OC

>  <score_type>  (11) 
oracle

>  <origin>  (11) 
adg

>  <m_score__min__energy>  (11) 
-9.2200000000000006

>  <m_primary>  (11) 
energy

$$$$
11:0
     RDKit          3D

 29 31  0  0  0  0  0  0  0  0999 V2000
   -3.4860   25.2810  -30.4500 O   0  0  0  0  0  0  0  0  0  0  0  0
   -3.0970   24.4260  -29.4330 C   0  0  0  0  0  0  0  0  0  0  0  0
   -2.3770   24.9130  -28.3530 C   0  0  0  0  0  0  0  0  0  0  0  0
   -1.9690   24.0740  -27.3110 C   0  0  0  0  0  0  0  0  0  0  0  0
   -2.2900   22.7310  -27.3570 C   0  0  0  0  0  0  0  0  0  0  0  0
   -3.0080   22.2240  -28.4250 C   0  0  0  0  0  0  0  0  0  0  0  0
   -3.4060   23.0640  -29.4520 C   0  0  0  0  0  0  0  0  0  0  0  0
   -4.1740   22.5620  -30.6080 C   0  0  0  0  0  0  0  0  0  0  0  0
   -4.7030   23.2690  -31.6220 N   0  0  0  0  0  0  0  0  0  0  0  0
   -5.3080   22.4130  -32.4410 N   0  0  0  0  0  0  0  0  0  0  0  0
   -5.1600   21.1660  -31.9410 C   0  0  0  0  0  0  0  0  0  0  0  0
   -5.6800   19.9460  -32.5450 C   0  0  0  0  0  0  0  0  0  0  0  0
   -5.1160   19.4540  -33.7000 C   0  0  0  0  0  0  0  0  0  0  0  0
   -5.6390   18.2950  -34.2390 C   0  0  0  0  0  0  0  0  0  0  0  0
   -6.7120   17.6330  -33.6360 C   0  0  0  0  0  0  0  0  0  0  0  0
   -7.2210   16.4890  -34.1790 F   0  0  0  0  0  0  0  0  0  0  0  0
   -7.2720   18.1450  -32.4670 C   0  0  0  0  0  0  0  0  0  0  0  0
   -6.7460   19.2980  -31.9360 C   0  0  0  0  0  0  0  0  0  0  0  0
   -4.4550   21.2690  -30.8040 N   0  0  0  0  0  0  0  0  0  0  0  0
   -3.4880   24.9330  -31.4140 H   0  0  0  0  0  0  0  0  0  0  0  0
   -2.1211   25.9821  -28.3148 H   0  0  0  0  0  0  0  0  0  0  0  0
   -1.3979   24.4796  -26.4628 H   0  0  0  0  0  0  0  0  0  0  0  0
   -1.9737   22.0632  -26.5421 H   0  0  0  0  0  0  0  0  0  0  0  0
   -3.2628   21.1544  -28.4588 H   0  0  0  0  0  0  0  0  0  0  0  0
   -5.8010   22.7220  -33.3110 H   0  0  0  0  0  0  0  0  0  0  0  0
   -4.2717   19.9698  -34.1807 H   0  0  0  0  0  0  0  0  0  0  0  0
   -5.2023   17.8847  -35.1614 H   0  0  0  0  0  0  0  0  0  0  0  0
   -8.1172   17.6368  -31.9797 H   0  0  0  0  0  0  0  0  0  0  0  0
   -7.1766   19.7143  -31.0134 H   0  0  0  0  0  0  0  0  0  0  0  0
  1  2  1  0
  2  3  2  0
  3  4  1  0
  4  5  2  0
  5  6  1  0
  6  7  2  0
  7  8  1  0
  8  9  2  0
  9 10  1  0
 10 11  1  0
 11 12  1  0
 12 13  2  0
 13 14  1  0
 14 15  2  0
 15 16  1  0
 15 17  1  0
 17 18  2  0
 11 19  2  0
  7  2  1  0
 19  8  1  0
 18 12  1  0
  1 20  1  0
  3 21  1  0
  4 22  1  0
  5 23  1  0
  6 24  1  0
 10 25  1  0
 13 26  1  0
 14 27  1  0
 17 28  1  0
 18 29  1  0
M  END
>  <smiles>  (12) 
Oc1ccccc1-c1n[nH]c(-c2ccc(F)cc2)n1

>  <score_type>  (12) 
oracle

>  <origin>  (12) 
adg

>  <m_score__min__energy>  (12) 
-7.8700000000000001

>  <m_primary>  (12) 
energy

$$$$
12:0
     RDKit          3D

 40 42  0  0  0  0  0  0  0  0999 V2000
   -3.4990   25.2990  -30.5420 O   0  0  0  0  0  0  0  0  0  0  0  0
   -3.5640   24.2400  -29.6660 N   0  0  0  0  0  0  0  0  0  0  0  0
   -3.5780   24.4930  -28.3270 C   0  0  0  0  0  0  0  0  0  0  0  0
   -3.6350   23.4400  -27.4110 C   0  0  0  0  0  0  0  0  0  0  0  0
   -3.6850   22.1280  -27.8810 C   0  0  0  0  0  0  0  0  0  0  0  0
   -3.6740   21.8830  -29.2530 C   0  0  0  0  0  0  0  0  0  0  0  0
   -3.6040   22.9610  -30.1440 C   0  0  0  0  0  0  0  0  0  0  0  0
   -3.5390   22.6410  -31.9130 S   0  0  0  0  0  0  0  0  0  0  0  0
   -2.6230   21.0660  -31.7750 C   0  0  0  0  0  0  0  0  0  0  0  0
   -2.6530   20.3240  -33.1070 C   0  0  0  0  0  0  0  0  0  0  0  0
   -3.7360   19.4160  -33.1200 O   0  0  0  0  0  0  0  0  0  0  0  0
   -3.5900   18.5200  -34.2020 C   0  0  0  0  0  0  0  0  0  0  0  0
   -4.9460   17.9150  -34.5620 C   0  0  0  0  0  0  0  0  0  0  0  0
   -5.8180   17.2750  -33.0870 S   0  0  0  0  0  0  0  0  0  0  0  0
   -6.7420   18.7730  -32.7540 C   0  0  0  0  0  0  0  0  0  0  0  0
   -6.1840   20.0060  -32.7240 N   0  0  0  0  0  0  0  0  0  0  0  0
   -7.0870   20.9530  -32.3610 C   0  0  0  0  0  0  0  0  0  0  0  0
   -6.8130   22.3180  -32.2430 C   0  0  0  0  0  0  0  0  0  0  0  0
   -7.8590   23.1890  -31.8930 C   0  0  0  0  0  0  0  0  0  0  0  0
   -9.1550   22.6890  -31.6550 C   0  0  0  0  0  0  0  0  0  0  0  0
   -9.4160   21.3140  -31.7600 C   0  0  0  0  0  0  0  0  0  0  0  0
   -8.3640   20.4720  -32.1120 C   0  0  0  0  0  0  0  0  0  0  0  0
   -8.3790   18.8060  -32.3260 S   0  0  0  0  0  0  0  0  0  0  0  0
   -3.5443   25.5315  -27.9658 H   0  0  0  0  0  0  0  0  0  0  0  0
   -3.6404   23.6436  -26.3300 H   0  0  0  0  0  0  0  0  0  0  0  0
   -3.7330   21.2891  -27.1711 H   0  0  0  0  0  0  0  0  0  0  0  0
   -3.7199   20.8516  -29.6327 H   0  0  0  0  0  0  0  0  0  0  0  0
   -1.5791   21.2752  -31.4985 H   0  0  0  0  0  0  0  0  0  0  0  0
   -3.0963   20.4406  -31.0037 H   0  0  0  0  0  0  0  0  0  0  0  0
   -2.7724   21.0479  -33.9266 H   0  0  0  0  0  0  0  0  0  0  0  0
   -1.7112   19.7710  -33.2382 H   0  0  0  0  0  0  0  0  0  0  0  0
   -3.1892   19.0608  -35.0720 H   0  0  0  0  0  0  0  0  0  0  0  0
   -2.8985   17.7143  -33.9145 H   0  0  0  0  0  0  0  0  0  0  0  0
   -5.5674   18.6900  -35.0345 H   0  0  0  0  0  0  0  0  0  0  0  0
   -4.7732   17.0733  -35.2488 H   0  0  0  0  0  0  0  0  0  0  0  0
   -5.1810   20.1990  -32.9390 H   0  0  0  0  0  0  0  0  0  0  0  0
   -5.7982   22.7035  -32.4206 H   0  0  0  0  0  0  0  0  0  0  0  0
   -7.6649   24.2681  -31.8042 H   0  0  0  0  0  0  0  0  0  0  0  0
   -9.9668   23.3805  -31.3853 H   0  0  0  0  0  0  0  0  0  0  0  0
  -10.4225   20.9129  -31.5698 H   0  0  0  0  0  0  0  0  0  0  0  0
  1  2  1  0
  2  3  2  0
  3  4  1  0
  4  5  2  0
  5  6  1  0
  6  7  2  0
  7  8  1  0
  8  9  1  0
  9 10  1  0
 10 11  1  0
 11 12  1  0
 12 13  1  0
 13 14  1  0
 14 15  1  0
 15 16  2  0
 16 17  1  0
 17 18  2  0
 18 19  1  0
 19 20  2  0
 20 21  1  0
 21 22  2  0
 22 23  1  0
  7  2  1  0
 23 15  1  0
 22 17  1  0
  3 24  1  0
  4 25  1  0
  5 26  1  0
  6 27  1  0
  9 28  1  0
  9 29  1  0
 10 30  1  0
 10 31  1  0
 12 32  1  0
 12 33  1  0
 13 34  1  0
 13 35  1  0
 16 36  1  0
 18 37  1  0
 19 38  1  0
 20 39  1  0
 21 40  1  0
M  CHG  3   1  -1   2   1  16   1
M  END
>  <UniqueID>  (13) 
12

>  <SMILES>  (13) 
[O-][n+]1ccccc1SCCOCCSc1[nH+]c2ccccc2s1

>  <Energy>  (13) 
64.22126110996022

>  <Genealogy>  (13) 
[O-][n+]1ccccc1SCCOCCSc1[nH+]c2ccccc2s1 (protonated)
[O-][n+]1ccccc1SCCOCCSc1[nH+]c2ccccc2s1 (3D coordinates assigned)
[O-][n+]1ccccc1SCCOCCSc1[nH+]c2ccccc2s1 (optimized conformer: 64.22126110996022 kcal/mol)

>  <smiles>  (13) 
[O-][n+]1ccccc1SCCOCCSc1nc2ccccc2s1

>  <score_type>  (13) 
oracle

>  <origin>  (13) 
adg

>  <m_score__min__energy>  (13) 
-8.8399999999999999

>  <m_primary>  (13) 
energy

$$$$
13:0
     RDKit          3D

 67 71  0  0  0  0  0  0  0  0999 V2000
   -6.5040   25.6260  -29.3400 C   0  0  0  0  0  0  0  0  0  0  0  0
   -6.5750   25.2010  -30.6970 O   0  0  0  0  0  0  0  0  0  0  0  0
   -6.8650   23.8890  -31.1000 C   0  0  0  0  0  0  0  0  0  0  0  0
   -6.4860   23.3840  -32.3590 C   0  0  0  0  0  0  0  0  0  0  0  0
   -6.8010   22.0690  -32.7140 C   0  0  0  0  0  0  0  0  0  0  0  0
   -7.4890   21.2410  -31.8190 C   0  0  0  0  0  0  0  0  0  0  0  0
   -7.9200   19.6040  -32.3020 S   0  0  0  0  0  0  0  0  0  0  0  0
   -7.5680   18.6610  -31.1860 O   0  0  0  0  0  0  0  0  0  0  0  0
   -9.3940   19.4990  -32.5780 O   0  0  0  0  0  0  0  0  0  0  0  0
   -7.0270   19.1760  -33.7200 N   0  0  0  0  0  0  0  0  0  0  0  0
   -6.2140   17.9940  -33.7630 C   0  0  0  0  0  0  0  0  0  0  0  0
   -6.7990   16.7720  -34.1350 C   0  0  0  0  0  0  0  0  0  0  0  0
   -6.0530   15.5930  -34.1160 C   0  0  0  0  0  0  0  0  0  0  0  0
   -4.7170   15.6190  -33.7180 C   0  0  0  0  0  0  0  0  0  0  0  0
   -4.1180   16.8270  -33.3560 C   0  0  0  0  0  0  0  0  0  0  0  0
   -4.8470   18.0290  -33.3880 C   0  0  0  0  0  0  0  0  0  0  0  0
   -4.1360   19.2920  -33.0830 C   0  0  0  0  0  0  0  0  0  0  0  0
   -3.2420   19.8830  -33.9060 N   0  0  0  0  0  0  0  0  0  0  0  0
   -2.8400   20.9660  -33.2170 C   0  0  0  0  0  0  0  0  0  0  0  0
   -3.4950   20.9930  -32.0020 C   0  0  0  0  0  0  0  0  0  0  0  0
   -3.3740   21.9950  -30.9210 C   0  0  0  0  0  0  0  0  0  0  0  0
   -3.7090   23.3440  -31.1300 C   0  0  0  0  0  0  0  0  0  0  0  0
   -3.5940   24.2700  -30.0890 C   0  0  0  0  0  0  0  0  0  0  0  0
   -3.1560   23.8590  -28.8290 C   0  0  0  0  0  0  0  0  0  0  0  0
   -2.8370   22.5130  -28.5950 C   0  0  0  0  0  0  0  0  0  0  0  0
   -2.3610   22.0680  -27.2330 C   0  0  0  0  0  0  0  0  0  0  0  0
   -1.0470   22.6260  -26.8490 N   0  0  0  0  0  0  0  0  0  0  0  0
    0.0340   22.5110  -27.8470 C   0  0  0  0  0  0  0  0  0  0  0  0
    0.2250   23.7960  -28.6710 C   0  0  0  0  0  0  0  0  0  0  0  0
    0.3280   25.0020  -27.8310 N   0  0  0  0  0  0  0  0  0  0  0  0
    1.6120   25.0910  -27.1150 C   0  0  0  0  0  0  0  0  0  0  0  0
   -0.8340   25.1310  -26.9360 C   0  0  0  0  0  0  0  0  0  0  0  0
   -1.0630   23.8800  -26.0700 C   0  0  0  0  0  0  0  0  0  0  0  0
   -2.9240   21.5920  -29.6510 C   0  0  0  0  0  0  0  0  0  0  0  0
   -4.2820   19.9460  -31.9520 O   0  0  0  0  0  0  0  0  0  0  0  0
   -7.8720   21.7430  -30.5680 C   0  0  0  0  0  0  0  0  0  0  0  0
   -7.5590   23.0580  -30.2120 C   0  0  0  0  0  0  0  0  0  0  0  0
   -6.6486   24.7605  -28.6767 H   0  0  0  0  0  0  0  0  0  0  0  0
   -5.5184   26.0749  -29.1475 H   0  0  0  0  0  0  0  0  0  0  0  0
   -7.2901   26.3709  -29.1475 H   0  0  0  0  0  0  0  0  0  0  0  0
   -5.9402   24.0266  -33.0655 H   0  0  0  0  0  0  0  0  0  0  0  0
   -6.5069   21.6831  -33.7012 H   0  0  0  0  0  0  0  0  0  0  0  0
   -7.1880   19.7290  -34.5910 H   0  0  0  0  0  0  0  0  0  0  0  0
   -7.8544   16.7445  -34.4439 H   0  0  0  0  0  0  0  0  0  0  0  0
   -6.5191   14.6426  -34.4152 H   0  0  0  0  0  0  0  0  0  0  0  0
   -4.1342   14.6865  -33.6892 H   0  0  0  0  0  0  0  0  0  0  0  0
   -3.0638   16.8386  -33.0422 H   0  0  0  0  0  0  0  0  0  0  0  0
   -2.1080   21.7096  -33.5652 H   0  0  0  0  0  0  0  0  0  0  0  0
   -4.0636   23.6729  -32.1180 H   0  0  0  0  0  0  0  0  0  0  0  0
   -3.8494   25.3256  -30.2634 H   0  0  0  0  0  0  0  0  0  0  0  0
   -3.0605   24.5937  -28.0159 H   0  0  0  0  0  0  0  0  0  0  0  0
   -3.1038   22.3838  -26.4857 H   0  0  0  0  0  0  0  0  0  0  0  0
   -2.2451   20.9749  -27.2752 H   0  0  0  0  0  0  0  0  0  0  0  0
    0.9744   22.2873  -27.3220 H   0  0  0  0  0  0  0  0  0  0  0  0
   -0.2448   21.7084  -28.5456 H   0  0  0  0  0  0  0  0  0  0  0  0
    1.1471   23.7002  -29.2631 H   0  0  0  0  0  0  0  0  0  0  0  0
   -0.6610   23.9134  -29.3123 H   0  0  0  0  0  0  0  0  0  0  0  0
    1.4287   25.0783  -26.0305 H   0  0  0  0  0  0  0  0  0  0  0  0
    2.2452   24.2346  -27.3899 H   0  0  0  0  0  0  0  0  0  0  0  0
    2.1210   26.0266  -27.3899 H   0  0  0  0  0  0  0  0  0  0  0  0
   -0.6719   25.9929  -26.2720 H   0  0  0  0  0  0  0  0  0  0  0  0
   -1.7248   25.2634  -27.5677 H   0  0  0  0  0  0  0  0  0  0  0  0
   -0.2694   23.8302  -25.3099 H   0  0  0  0  0  0  0  0  0  0  0  0
   -2.0613   23.9724  -25.6174 H   0  0  0  0  0  0  0  0  0  0  0  0
   -2.6370   20.5434  -29.4832 H   0  0  0  0  0  0  0  0  0  0  0  0
   -8.4207   21.1002  -29.8639 H   0  0  0  0  0  0  0  0  0  0  0  0
   -7.8602   23.4430  -29.2266 H   0  0  0  0  0  0  0  0  0  0  0  0
  1  2  1  0
  2  3  1  0
  3  4  2  0
  4  5  1  0
  5  6  2  0
  6  7  1  0
  7  8  2  0
  7  9  2  0
  7 10  1  0
 10 11  1  0
 11 12  2  0
 12 13  1  0
 13 14  2  0
 14 15  1  0
 15 16  2  0
 16 17  1  0
 17 18  2  0
 18 19  1  0
 19 20  2  0
 20 21  1  0
 21 22  2  0
 22 23  1  0
 23 24  2  0
 24 25  1  0
 25 26  1  0
 26 27  1  0
 27 28  1  0
 28 29  1  0
 29 30  1  0
 30 31  1  0
 30 32  1  0
 32 33  1  0
 25 34  2  0
 20 35  1  0
  6 36  1  0
 36 37  2  0
 37  3  1  0
 16 11  1  0
 35 17  1  0
 34 21  1  0
 33 27  1  0
  1 38  1  0
  1 39  1  0
  1 40  1  0
  4 41  1  0
  5 42  1  0
 10 43  1  0
 12 44  1  0
 13 45  1  0
 14 46  1  0
 15 47  1  0
 19 48  1  0
 22 49  1  0
 23 50  1  0
 24 51  1  0
 26 52  1  0
 26 53  1  0
 28 54  1  0
 28 55  1  0
 29 56  1  0
 29 57  1  0
 31 58  1  0
 31 59  1  0
 31 60  1  0
 32 61  1  0
 32 62  1  0
 33 63  1  0
 33 64  1  0
 34 65  1  0
 36 66  1  0
 37 67  1  0
M  END
>  <UniqueID>  (14) 
13

>  <SMILES>  (14) 
COc1ccc(S(=O)(=O)Nc2ccccc2-c2ncc(-c3cccc(CN4CCN(C)CC4)c3)o2)cc1

>  <Energy>  (14) 
120.31897934503625

>  <Genealogy>  (14) 
COc1ccc(S(=O)(=O)Nc2ccccc2-c2ncc(-c3cccc(CN4CCN(C)CC4)c3)o2)cc1 (3D coordinates assigned)
COc1ccc(S(=O)(=O)Nc2ccccc2-c2ncc(-c3cccc(CN4CCN(C)CC4)c3)o2)cc1 (nonaromatic ring conformer: 120.31897934503625 kcal/mol)

>  <smiles>  (14) 
COc1ccc(S(=O)(=O)Nc2ccccc2-c2ncc(-c3cccc(CN4CCN(C)CC4)c3)o2)cc1

>  <score_type>  (14) 
oracle

>  <origin>  (14) 
adg

>  <m_score__min__energy>  (14) 
-10.51

>  <m_primary>  (14) 
energy

$$$$
14:0
     RDKit          3D

 46 48  0  0  0  0  0  0  0  0999 V2000
   -2.9410   23.9890  -27.4640 C   0  0  0  0  0  0  0  0  0  0  0  0
   -4.1740   23.4420  -28.1720 C   0  0  0  0  0  0  0  0  0  0  0  0
   -5.0270   24.5470  -28.6150 N   0  0  0  0  0  0  0  0  0  0  0  0
   -5.0500   24.6120  -30.3520 S   0  0  0  0  0  0  0  0  0  0  0  0
   -3.8560   25.3830  -30.8450 O   0  0  0  0  0  0  0  0  0  0  0  0
   -6.2930   25.3230  -30.8040 O   0  0  0  0  0  0  0  0  0  0  0  0
   -5.0400   22.9840  -31.0270 C   0  0  0  0  0  0  0  0  0  0  0  0
   -6.2070   22.2100  -31.0390 C   0  0  0  0  0  0  0  0  0  0  0  0
   -6.1970   20.9290  -31.5950 C   0  0  0  0  0  0  0  0  0  0  0  0
   -5.0170   20.4010  -32.1510 C   0  0  0  0  0  0  0  0  0  0  0  0
   -5.0050   19.0390  -32.7440 C   0  0  0  0  0  0  0  0  0  0  0  0
   -3.7860   18.4580  -33.1850 C   0  0  0  0  0  0  0  0  0  0  0  0
   -3.7570   17.1620  -33.7550 C   0  0  0  0  0  0  0  0  0  0  0  0
   -2.5690   16.5640  -34.1990 O   0  0  0  0  0  0  0  0  0  0  0  0
   -1.4500   16.2790  -33.3680 C   0  0  0  0  0  0  0  0  0  0  0  0
   -4.9780   16.4820  -33.8630 C   0  0  0  0  0  0  0  0  0  0  0  0
   -6.1510   17.0410  -33.4390 C   0  0  0  0  0  0  0  0  0  0  0  0
   -6.2070   18.3110  -32.8750 C   0  0  0  0  0  0  0  0  0  0  0  0
   -7.1850   16.2090  -33.6610 N   0  0  0  0  0  0  0  0  0  0  0  0
   -6.5940   15.1290  -34.2310 C   0  0  0  0  0  0  0  0  0  0  0  0
   -5.2510   15.2590  -34.3620 N   0  0  0  0  0  0  0  0  0  0  0  0
   -4.3570   14.2810  -34.9890 C   0  0  0  0  0  0  0  0  0  0  0  0
   -3.6950   13.3920  -33.9360 C   0  0  0  0  0  0  0  0  0  0  0  0
   -4.2260   12.1160  -33.9770 F   0  0  0  0  0  0  0  0  0  0  0  0
   -3.8940   13.9240  -32.6740 F   0  0  0  0  0  0  0  0  0  0  0  0
   -2.3370   13.3210  -34.1830 F   0  0  0  0  0  0  0  0  0  0  0  0
   -3.8500   21.1860  -32.1410 C   0  0  0  0  0  0  0  0  0  0  0  0
   -3.8640   22.4680  -31.5850 C   0  0  0  0  0  0  0  0  0  0  0  0
   -3.0848   23.9252  -26.3753 H   0  0  0  0  0  0  0  0  0  0  0  0
   -2.0597   23.3974  -27.7527 H   0  0  0  0  0  0  0  0  0  0  0  0
   -2.7882   25.0394  -27.7527 H   0  0  0  0  0  0  0  0  0  0  0  0
   -3.8607   22.8507  -29.0450 H   0  0  0  0  0  0  0  0  0  0  0  0
   -4.7391   22.8060  -27.4748 H   0  0  0  0  0  0  0  0  0  0  0  0
   -6.0070   24.3470  -28.3090 H   0  0  0  0  0  0  0  0  0  0  0  0
   -7.1357   22.6128  -30.6086 H   0  0  0  0  0  0  0  0  0  0  0  0
   -7.1184   20.3282  -31.5984 H   0  0  0  0  0  0  0  0  0  0  0  0
   -2.8487   19.0244  -33.0820 H   0  0  0  0  0  0  0  0  0  0  0  0
   -1.7486   16.3551  -32.3121 H   0  0  0  0  0  0  0  0  0  0  0  0
   -1.0897   15.2604  -33.5747 H   0  0  0  0  0  0  0  0  0  0  0  0
   -0.6464   17.0011  -33.5747 H   0  0  0  0  0  0  0  0  0  0  0  0
   -7.1639   18.7373  -32.5395 H   0  0  0  0  0  0  0  0  0  0  0  0
   -7.1494   14.2364  -34.5547 H   0  0  0  0  0  0  0  0  0  0  0  0
   -4.9390   13.6509  -35.6777 H   0  0  0  0  0  0  0  0  0  0  0  0
   -3.5710   14.8233  -35.5350 H   0  0  0  0  0  0  0  0  0  0  0  0
   -2.9202   20.7882  -32.5737 H   0  0  0  0  0  0  0  0  0  0  0  0
   -2.9465   23.0748  -31.5857 H   0  0  0  0  0  0  0  0  0  0  0  0
  1  2  1  0
  2  3  1  0
  3  4  1  0
  4  5  2  0
  4  6  2  0
  4  7  1  0
  7  8  2  0
  8  9  1  0
  9 10  2  0
 10 11  1  0
 11 12  2  0
 12 13  1  0
 13 14  1  0
 14 15  1  0
 13 16  2  0
 16 17  1  0
 17 18  2  0
 17 19  1  0
 19 20  2  0
 20 21  1  0
 21 22  1  0
 22 23  1  0
 23 24  1  0
 23 25  1  0
 23 26  1  0
 10 27  1  0
 27 28  2  0
 28  7  1  0
 18 11  1  0
 21 16  1  0
  1 29  1  0
  1 30  1  0
  1 31  1  0
  2 32  1  0
  2 33  1  0
  3 34  1  0
  8 35  1  0
  9 36  1  0
 12 37  1  0
 15 38  1  0
 15 39  1  0
 15 40  1  0
 18 41  1  0
 20 42  1  0
 22 43  1  0
 22 44  1  0
 27 45  1  0
 28 46  1  0
M  END
>  <UniqueID>  (15) 
14

>  <SMILES>  (15) 
CCNS(=O)(=O)c1ccc(-c2cc(OC)c3c(c2)ncn3CC(F)(F)F)cc1

>  <Energy>  (15) 
82.1275459862778

>  <Genealogy>  (15) 
CCNS(=O)(=O)c1ccc(-c2cc(OC)c3c(c2)ncn3CC(F)(F)F)cc1 (3D coordinates assigned)
CCNS(=O)(=O)c1ccc(-c2cc(OC)c3c(c2)ncn3CC(F)(F)F)cc1 (optimized conformer: 82.1275459862778 kcal/mol)

>  <smiles>  (15) 
CCNS(=O)(=O)c1ccc(-c2cc(OC)c3c(c2)ncn3CC(F)(F)F)cc1

>  <score_type>  (15) 
oracle

>  <origin>  (15) 
adg

>  <m_score__min__energy>  (15) 
-7.1500000000000004

>  <m_primary>  (15) 
energy

$$$$
15:0
     RDKit          3D

 61 65  0  0  0  0  0  0  0  0999 V2000
   -0.8900   13.8410  -31.9690 C   0  0  0  0  0  0  0  0  0  0  0  0
   -1.2820   14.9540  -32.7670 O   0  0  0  0  0  0  0  0  0  0  0  0
   -2.6090   15.2570  -33.1040 C   0  0  0  0  0  0  0  0  0  0  0  0
   -2.8420   16.1170  -34.1840 C   0  0  0  0  0  0  0  0  0  0  0  0
   -4.1460   16.4560  -34.5540 C   0  0  0  0  0  0  0  0  0  0  0  0
   -5.2420   15.9480  -33.8390 C   0  0  0  0  0  0  0  0  0  0  0  0
   -6.6510   16.3390  -34.2140 C   0  0  0  0  0  0  0  0  0  0  0  0
   -7.0190   17.6990  -33.7630 N   0  0  0  0  0  0  0  0  0  0  0  0
   -7.6520   17.7920  -32.4320 C   0  0  0  0  0  0  0  0  0  0  0  0
   -6.6700   18.1390  -31.2970 C   0  0  0  0  0  0  0  0  0  0  0  0
   -5.3470   18.7420  -31.7800 C   0  0  0  0  0  0  0  0  0  0  0  0
   -5.5150   19.6530  -33.0240 C   0  0  0  0  0  0  0  0  0  0  0  0
   -6.4340   20.8790  -32.7220 C   0  0  0  0  0  0  0  0  0  0  0  0
   -5.8880   21.7480  -31.5750 C   0  0  0  0  0  0  0  0  0  0  0  0
   -4.4200   21.7820  -31.5860 N   0  0  0  0  0  0  0  0  0  0  0  0
   -3.6980   22.0550  -30.3690 C   0  0  0  0  0  0  0  0  0  0  0  0
   -3.2910   23.3630  -30.0590 C   0  0  0  0  0  0  0  0  0  0  0  0
   -2.5870   23.6010  -28.9230 N   0  0  0  0  0  0  0  0  0  0  0  0
   -2.2640   22.5940  -28.0710 C   0  0  0  0  0  0  0  0  0  0  0  0
   -1.5420   22.8570  -26.9030 C   0  0  0  0  0  0  0  0  0  0  0  0
   -1.2130   21.8100  -26.0360 C   0  0  0  0  0  0  0  0  0  0  0  0
   -1.6050   20.5000  -26.3350 C   0  0  0  0  0  0  0  0  0  0  0  0
   -2.3270   20.2310  -27.5020 C   0  0  0  0  0  0  0  0  0  0  0  0
   -2.6610   21.2750  -28.3780 C   0  0  0  0  0  0  0  0  0  0  0  0
   -3.3640   21.0380  -29.5210 N   0  0  0  0  0  0  0  0  0  0  0  0
   -3.7180   21.5510  -32.8520 C   0  0  0  0  0  0  0  0  0  0  0  0
   -4.1050   20.1880  -33.4630 C   0  0  0  0  0  0  0  0  0  0  0  0
   -6.1190   18.7990  -34.1880 C   0  0  0  0  0  0  0  0  0  0  0  0
   -5.0120   15.0670  -32.7700 C   0  0  0  0  0  0  0  0  0  0  0  0
   -3.7070   14.7280  -32.4000 C   0  0  0  0  0  0  0  0  0  0  0  0
   -0.9821   14.1025  -30.9045 H   0  0  0  0  0  0  0  0  0  0  0  0
   -1.5397   12.9822  -32.1931 H   0  0  0  0  0  0  0  0  0  0  0  0
    0.1545   13.5789  -32.1931 H   0  0  0  0  0  0  0  0  0  0  0  0
   -1.9911   16.5293  -34.7461 H   0  0  0  0  0  0  0  0  0  0  0  0
   -4.3148   17.1250  -35.4107 H   0  0  0  0  0  0  0  0  0  0  0  0
   -6.7457   16.2964  -35.3091 H   0  0  0  0  0  0  0  0  0  0  0  0
   -7.3300   15.6338  -33.7123 H   0  0  0  0  0  0  0  0  0  0  0  0
   -8.4265   18.5721  -32.4705 H   0  0  0  0  0  0  0  0  0  0  0  0
   -8.0648   16.7981  -32.2045 H   0  0  0  0  0  0  0  0  0  0  0  0
   -7.1568   18.8640  -30.6281 H   0  0  0  0  0  0  0  0  0  0  0  0
   -6.4229   17.1945  -30.7902 H   0  0  0  0  0  0  0  0  0  0  0  0
   -4.9153   19.3396  -30.9636 H   0  0  0  0  0  0  0  0  0  0  0  0
   -4.6911   17.9076  -32.0692 H   0  0  0  0  0  0  0  0  0  0  0  0
   -6.5096   21.4967  -33.6290 H   0  0  0  0  0  0  0  0  0  0  0  0
   -7.4181   20.4951  -32.4151 H   0  0  0  0  0  0  0  0  0  0  0  0
   -6.2713   22.7729  -31.6877 H   0  0  0  0  0  0  0  0  0  0  0  0
   -6.2188   21.3125  -30.6206 H   0  0  0  0  0  0  0  0  0  0  0  0
   -3.5423   24.1931  -30.7356 H   0  0  0  0  0  0  0  0  0  0  0  0
   -1.2332   23.8859  -26.6663 H   0  0  0  0  0  0  0  0  0  0  0  0
   -0.6449   22.0165  -25.1170 H   0  0  0  0  0  0  0  0  0  0  0  0
   -1.3444   19.6797  -25.6500 H   0  0  0  0  0  0  0  0  0  0  0  0
   -2.6333   19.2002  -27.7334 H   0  0  0  0  0  0  0  0  0  0  0  0
   -3.6660   20.0630  -29.7450 H   0  0  0  0  0  0  0  0  0  0  0  0
   -3.9827   22.3500  -33.5602 H   0  0  0  0  0  0  0  0  0  0  0  0
   -2.6357   21.5503  -32.6555 H   0  0  0  0  0  0  0  0  0  0  0  0
   -4.1020   20.2894  -34.5583 H   0  0  0  0  0  0  0  0  0  0  0  0
   -3.3665   19.4601  -33.0959 H   0  0  0  0  0  0  0  0  0  0  0  0
   -6.6908   19.4727  -34.8431 H   0  0  0  0  0  0  0  0  0  0  0  0
   -5.2655   18.3188  -34.6890 H   0  0  0  0  0  0  0  0  0  0  0  0
   -5.8641   14.6408  -32.2201 H   0  0  0  0  0  0  0  0  0  0  0  0
   -3.5376   14.0447  -31.5548 H   0  0  0  0  0  0  0  0  0  0  0  0
  1  2  1  0
  2  3  1  0
  3  4  2  0
  4  5  1  0
  5  6  2  0
  6  7  1  0
  7  8  1  0
  8  9  1  0
  9 10  1  0
 10 11  1  0
 11 12  1  0
 12 13  1  0
 13 14  1  0
 14 15  1  0
 15 16  1  0
 16 17  2  0
 17 18  1  0
 18 19  2  0
 19 20  1  0
 20 21  2  0
 21 22  1  0
 22 23  2  0
 23 24  1  0
 24 25  2  0
 15 26  1  0
 26 27  1  0
 12 28  1  0
  6 29  1  0
 29 30  2  0
 30  3  1  0
 28  8  1  0
 27 12  1  0
 25 16  1  0
 24 19  1  0
  1 31  1  0
  1 32  1  0
  1 33  1  0
  4 34  1  0
  5 35  1  0
  7 36  1  0
  7 37  1  0
  9 38  1  0
  9 39  1  0
 10 40  1  0
 10 41  1  0
 11 42  1  0
 11 43  1  0
 13 44  1  0
 13 45  1  0
 14 46  1  0
 14 47  1  0
 17 48  1  0
 20 49  1  0
 21 50  1  0
 22 51  1  0
 23 52  1  0
 25 53  1  0
 26 54  1  0
 26 55  1  0
 27 56  1  0
 27 57  1  0
 28 58  1  0
 28 59  1  0
 29 60  1  0
 30 61  1  0
M  CHG  1  25   1
M  END
>  <UniqueID>  (16) 
15

>  <SMILES>  (16) 
COc1ccc(CN2CCCC3(CCN(c4cnc5ccccc5[nH+]4)CC3)C2)cc1

>  <Energy>  (16) 
93.56391022018302

>  <Genealogy>  (16) 
COc1ccc(CN2CCCC3(CCN(c4cnc5ccccc5[nH+]4)CC3)C2)cc1 (protonated)
COc1ccc(CN2CCCC3(CCN(c4cnc5ccccc5[nH+]4)CC3)C2)cc1 (3D coordinates assigned)
COc1ccc(CN2CCCC3(CCN(c4cnc5ccccc5[nH+]4)CC3)C2)cc1 (nonaromatic ring conformer: 93.56391022018302 kcal/mol)

>  <smiles>  (16) 
COc1ccc(CN2CCCC3(CCN(c4cnc5ccccc5n4)CC3)C2)cc1

>  <score_type>  (16) 
oracle

>  <origin>  (16) 
adg

>  <m_score__min__energy>  (16) 
-8.7799999999999994

>  <m_primary>  (16) 
energy

$$$$
16:0
     RDKit          3D

 33 34  0  0  0  0  0  0  0  0999 V2000
   -8.7250   20.0390  -32.6410 C   0  0  0  0  0  0  0  0  0  0  0  0
   -7.8570   18.9380  -32.0410 C   0  0  0  0  0  0  0  0  0  0  0  0
   -6.6450   18.7300  -32.8650 N   0  0  0  0  0  0  0  0  0  0  0  0
   -5.4430   18.4940  -32.0360 C   0  0  0  0  0  0  0  0  0  0  0  0
   -5.0700   19.7420  -31.2180 C   0  0  0  0  0  0  0  0  0  0  0  0
   -5.2920   20.9600  -32.0060 N   0  0  0  0  0  0  0  0  0  0  0  0
   -5.4430   22.2330  -31.3450 C   0  0  0  0  0  0  0  0  0  0  0  0
   -6.6440   22.5590  -30.6920 C   0  0  0  0  0  0  0  0  0  0  0  0
   -6.7830   23.7860  -30.0390 C   0  0  0  0  0  0  0  0  0  0  0  0
   -5.7250   24.6980  -30.0270 C   0  0  0  0  0  0  0  0  0  0  0  0
   -4.5210   24.3840  -30.6650 C   0  0  0  0  0  0  0  0  0  0  0  0
   -3.4730   25.3010  -30.6430 O   0  0  0  0  0  0  0  0  0  0  0  0
   -4.3790   23.1520  -31.3200 C   0  0  0  0  0  0  0  0  0  0  0  0
   -5.3700   20.8460  -33.4650 C   0  0  0  0  0  0  0  0  0  0  0  0
   -6.4430   19.8140  -33.8660 C   0  0  0  0  0  0  0  0  0  0  0  0
   -9.1863   20.6241  -31.8318 H   0  0  0  0  0  0  0  0  0  0  0  0
   -8.1021   20.6996  -33.2620 H   0  0  0  0  0  0  0  0  0  0  0  0
   -9.5127   19.5875  -33.2620 H   0  0  0  0  0  0  0  0  0  0  0  0
   -7.5578   19.2268  -31.0226 H   0  0  0  0  0  0  0  0  0  0  0  0
   -8.4351   18.0026  -32.0141 H   0  0  0  0  0  0  0  0  0  0  0  0
   -5.6422   17.6606  -31.3462 H   0  0  0  0  0  0  0  0  0  0  0  0
   -4.6031   18.2555  -32.7050 H   0  0  0  0  0  0  0  0  0  0  0  0
   -5.6918   19.7794  -30.3114 H   0  0  0  0  0  0  0  0  0  0  0  0
   -4.0056   19.6837  -30.9466 H   0  0  0  0  0  0  0  0  0  0  0  0
   -7.4796   21.8436  -30.6951 H   0  0  0  0  0  0  0  0  0  0  0  0
   -7.7276   24.0346  -29.5331 H   0  0  0  0  0  0  0  0  0  0  0  0
   -5.8392   25.6648  -29.5148 H   0  0  0  0  0  0  0  0  0  0  0  0
   -3.1120   25.6720  -29.7710 H   0  0  0  0  0  0  0  0  0  0  0  0
   -3.4298   22.9032  -31.8171 H   0  0  0  0  0  0  0  0  0  0  0  0
   -5.6316   21.8255  -33.8918 H   0  0  0  0  0  0  0  0  0  0  0  0
   -4.3943   20.5148  -33.8501 H   0  0  0  0  0  0  0  0  0  0  0  0
   -7.3981   20.3427  -34.0008 H   0  0  0  0  0  0  0  0  0  0  0  0
   -6.0914   19.3322  -34.7903 H   0  0  0  0  0  0  0  0  0  0  0  0
  1  2  1  0
  2  3  1  0
  3  4  1  0
  4  5  1  0
  5  6  1  0
  6  7  1  0
  7  8  2  0
  8  9  1  0
  9 10  2  0
 10 11  1  0
 11 12  1  0
 11 13  2  0
  6 14  1  0
 14 15  1  0
 15  3  1  0
 13  7  1  0
  1 16  1  0
  1 17  1  0
  1 18  1  0
  2 19  1  0
  2 20  1  0
  4 21  1  0
  4 22  1  0
  5 23  1  0
  5 24  1  0
  8 25  1  0
  9 26  1  0
 10 27  1  0
 12 28  1  0
 13 29  1  0
 14 30  1  0
 14 31  1  0
 15 32  1  0
 15 33  1  0
M  END
>  <UniqueID>  (17) 
16

>  <SMILES>  (17) 
CCN1CCN(c2cccc(O)c2)CC1

>  <Energy>  (17) 
41.705915584612015

>  <Genealogy>  (17) 
CCN1CCN(c2cccc(O)c2)CC1 (3D coordinates assigned)
CCN1CCN(c2cccc(O)c2)CC1 (nonaromatic ring conformer: 41.705915584612015 kcal/mol)

>  <smiles>  (17) 
CCN1CCN(c2cccc(O)c2)CC1

>  <score_type>  (17) 
oracle

>  <origin>  (17) 
adg

>  <m_score__min__energy>  (17) 
-6.9299999999999997

>  <m_primary>  (17) 
energy

$$$$
17:0
     RDKit          3D

 36 38  0  0  0  0  0  0  0  0999 V2000
   -6.8150   19.2110  -31.6200 C   0  0  0  0  0  0  0  0  0  0  0  0
   -7.4700   20.5570  -31.7520 C   0  0  0  0  0  0  0  0  0  0  0  0
   -8.8540   20.6810  -31.5370 C   0  0  0  0  0  0  0  0  0  0  0  0
   -9.4810   21.9230  -31.6630 C   0  0  0  0  0  0  0  0  0  0  0  0
   -8.7370   23.0540  -31.9960 C   0  0  0  0  0  0  0  0  0  0  0  0
   -7.3590   22.9490  -32.1980 C   0  0  0  0  0  0  0  0  0  0  0  0
   -6.7140   21.7090  -32.0710 C   0  0  0  0  0  0  0  0  0  0  0  0
   -5.2950   21.6310  -32.2690 N   0  0  0  0  0  0  0  0  0  0  0  0
   -4.6710   20.8530  -33.1750 C   0  0  0  0  0  0  0  0  0  0  0  0
   -3.3040   21.0090  -33.0630 C   0  0  0  0  0  0  0  0  0  0  0  0
   -3.0870   21.9180  -32.0450 C   0  0  0  0  0  0  0  0  0  0  0  0
   -4.3360   22.2800  -31.5770 C   0  0  0  0  0  0  0  0  0  0  0  0
   -4.6280   23.4560  -30.3000 S   0  0  0  0  0  0  0  0  0  0  0  0
   -4.5000   24.8510  -30.8470 O   0  0  0  0  0  0  0  0  0  0  0  0
   -6.0170   23.2710  -29.7540 O   0  0  0  0  0  0  0  0  0  0  0  0
   -3.4420   23.2440  -29.0160 C   0  0  0  0  0  0  0  0  0  0  0  0
   -3.1960   21.9650  -28.4970 C   0  0  0  0  0  0  0  0  0  0  0  0
   -2.2720   21.7930  -27.4620 C   0  0  0  0  0  0  0  0  0  0  0  0
   -1.5930   22.8970  -26.9370 C   0  0  0  0  0  0  0  0  0  0  0  0
   -0.4350   22.6800  -25.6370 Cl  0  0  0  0  0  0  0  0  0  0  0  0
   -1.8420   24.1760  -27.4470 C   0  0  0  0  0  0  0  0  0  0  0  0
   -2.7650   24.3500  -28.4830 C   0  0  0  0  0  0  0  0  0  0  0  0
   -6.6950   18.9645  -30.5547 H   0  0  0  0  0  0  0  0  0  0  0  0
   -7.4428   18.4486  -32.1043 H   0  0  0  0  0  0  0  0  0  0  0  0
   -5.8276   19.2346  -32.1043 H   0  0  0  0  0  0  0  0  0  0  0  0
   -9.4468   19.7944  -31.2679 H   0  0  0  0  0  0  0  0  0  0  0  0
  -10.5653   22.0089  -31.4989 H   0  0  0  0  0  0  0  0  0  0  0  0
   -9.2353   24.0292  -32.0997 H   0  0  0  0  0  0  0  0  0  0  0  0
   -6.7753   23.8442  -32.4584 H   0  0  0  0  0  0  0  0  0  0  0  0
   -5.1753   20.1926  -33.8958 H   0  0  0  0  0  0  0  0  0  0  0  0
   -2.5350   20.5063  -33.6679 H   0  0  0  0  0  0  0  0  0  0  0  0
   -2.1148   22.2808  -31.6802 H   0  0  0  0  0  0  0  0  0  0  0  0
   -3.7312   21.0949  -28.9051 H   0  0  0  0  0  0  0  0  0  0  0  0
   -2.0788   20.7875  -27.0599 H   0  0  0  0  0  0  0  0  0  0  0  0
   -1.3111   25.0456  -27.0325 H   0  0  0  0  0  0  0  0  0  0  0  0
   -2.9603   25.3568  -28.8806 H   0  0  0  0  0  0  0  0  0  0  0  0
  1  2  1  0
  2  3  2  0
  3  4  1  0
  4  5  2  0
  5  6  1  0
  6  7  2  0
  7  8  1  0
  8  9  1  0
  9 10  2  0
 10 11  1  0
 11 12  2  0
 12 13  1  0
 13 14  2  0
 13 15  2  0
 13 16  1  0
 16 17  2  0
 17 18  1  0
 18 19  2  0
 19 20  1  0
 19 21  1  0
 21 22  2  0
  7  2  1  0
 12  8  1  0
 22 16  1  0
  1 23  1  0
  1 24  1  0
  1 25  1  0
  3 26  1  0
  4 27  1  0
  5 28  1  0
  6 29  1  0
  9 30  1  0
 10 31  1  0
 11 32  1  0
 17 33  1  0
 18 34  1  0
 21 35  1  0
 22 36  1  0
M  END
>  <UniqueID>  (18) 
17

>  <SMILES>  (18) 
Cc1ccccc1-n1cccc1S(=O)(=O)c1ccc(Cl)cc1

>  <Energy>  (18) 
72.34387487772003

>  <Genealogy>  (18) 
Cc1ccccc1-n1cccc1S(=O)(=O)c1ccc(Cl)cc1 (3D coordinates assigned)
Cc1ccccc1-n1cccc1S(=O)(=O)c1ccc(Cl)cc1 (optimized conformer: 72.34387487772003 kcal/mol)

>  <smiles>  (18) 
Cc1ccccc1-n1cccc1S(=O)(=O)c1ccc(Cl)cc1

>  <score_type>  (18) 
oracle

>  <origin>  (18) 
adg

>  <m_score__min__energy>  (18) 
-8.3599999999999994

>  <m_primary>  (18) 
energy

$$$$
18:0
     RDKit          3D

 41 43  0  0  0  0  0  0  0  0999 V2000
   -2.0620   24.8760  -28.1690 C   0  0  0  0  0  0  0  0  0  0  0  0
   -2.7500   25.2730  -29.3500 O   0  0  0  0  0  0  0  0  0  0  0  0
   -3.8610   24.6010  -29.8830 C   0  0  0  0  0  0  0  0  0  0  0  0
   -4.8940   25.2700  -30.5660 C   0  0  0  0  0  0  0  0  0  0  0  0
   -5.9780   24.5540  -31.0810 C   0  0  0  0  0  0  0  0  0  0  0  0
   -6.0370   23.1580  -30.9420 C   0  0  0  0  0  0  0  0  0  0  0  0
   -7.1880   22.3810  -31.4500 C   0  0  0  0  0  0  0  0  0  0  0  0
   -7.1140   21.3800  -32.3400 C   0  0  0  0  0  0  0  0  0  0  0  0
   -7.6650   20.0210  -32.1390 C   0  0  0  0  0  0  0  0  0  0  0  0
   -8.8060   19.7010  -31.4220 C   0  0  0  0  0  0  0  0  0  0  0  0
   -8.9960   18.3400  -31.5730 C   0  0  0  0  0  0  0  0  0  0  0  0
   -7.9780   17.8840  -32.3850 C   0  0  0  0  0  0  0  0  0  0  0  0
   -7.1790   18.9100  -32.7310 N   0  0  0  0  0  0  0  0  0  0  0  0
   -5.7850   18.7970  -33.7600 S   0  0  0  0  0  0  0  0  0  0  0  0
   -6.1320   19.2760  -35.1420 O   0  0  0  0  0  0  0  0  0  0  0  0
   -5.3540   17.3590  -33.8350 O   0  0  0  0  0  0  0  0  0  0  0  0
   -4.4870   19.7930  -33.1120 C   0  0  0  0  0  0  0  0  0  0  0  0
   -3.5360   19.2400  -32.2420 C   0  0  0  0  0  0  0  0  0  0  0  0
   -2.5100   20.0370  -31.7260 C   0  0  0  0  0  0  0  0  0  0  0  0
   -2.4280   21.3880  -32.0780 C   0  0  0  0  0  0  0  0  0  0  0  0
   -3.3710   21.9420  -32.9480 C   0  0  0  0  0  0  0  0  0  0  0  0
   -4.3980   21.1470  -33.4660 C   0  0  0  0  0  0  0  0  0  0  0  0
   -5.0230   22.4960  -30.2360 C   0  0  0  0  0  0  0  0  0  0  0  0
   -3.9380   23.2130  -29.7210 C   0  0  0  0  0  0  0  0  0  0  0  0
   -2.6301   25.2038  -27.2860 H   0  0  0  0  0  0  0  0  0  0  0  0
   -1.9610   23.7808  -28.1541 H   0  0  0  0  0  0  0  0  0  0  0  0
   -1.0632   25.3366  -28.1541 H   0  0  0  0  0  0  0  0  0  0  0  0
   -4.8478   26.3614  -30.6950 H   0  0  0  0  0  0  0  0  0  0  0  0
   -6.7895   25.0870  -31.5981 H   0  0  0  0  0  0  0  0  0  0  0  0
   -8.1849   22.6450  -31.0674 H   0  0  0  0  0  0  0  0  0  0  0  0
   -6.6043   21.5850  -33.2930 H   0  0  0  0  0  0  0  0  0  0  0  0
   -9.4370   20.3936  -30.8457 H   0  0  0  0  0  0  0  0  0  0  0  0
   -9.8030   17.7371  -31.1311 H   0  0  0  0  0  0  0  0  0  0  0  0
   -7.8403   16.8396  -32.7017 H   0  0  0  0  0  0  0  0  0  0  0  0
   -3.5976   18.1772  -31.9652 H   0  0  0  0  0  0  0  0  0  0  0  0
   -1.7665   19.6011  -31.0425 H   0  0  0  0  0  0  0  0  0  0  0  0
   -1.6212   22.0146  -31.6700 H   0  0  0  0  0  0  0  0  0  0  0  0
   -3.3052   23.0044  -33.2255 H   0  0  0  0  0  0  0  0  0  0  0  0
   -5.1377   21.5846  -34.1526 H   0  0  0  0  0  0  0  0  0  0  0  0
   -5.0808   21.4078  -30.0863 H   0  0  0  0  0  0  0  0  0  0  0  0
   -3.1385   22.6814  -29.1841 H   0  0  0  0  0  0  0  0  0  0  0  0
  1  2  1  0
  2  3  1  0
  3  4  2  0
  4  5  1  0
  5  6  2  0
  6  7  1  0
  7  8  2  3
  8  9  1  0
  9 10  2  0
 10 11  1  0
 11 12  2  0
 12 13  1  0
 13 14  1  0
 14 15  2  0
 14 16  2  0
 14 17  1  0
 17 18  2  0
 18 19  1  0
 19 20  2  0
 20 21  1  0
 21 22  2  0
  6 23  1  0
 23 24  2  0
 24  3  1  0
 13  9  1  0
 22 17  1  0
  1 25  1  0
  1 26  1  0
  1 27  1  0
  4 28  1  0
  5 29  1  0
  7 30  1  0
  8 31  1  0
 10 32  1  0
 11 33  1  0
 12 34  1  0
 18 35  1  0
 19 36  1  0
 20 37  1  0
 21 38  1  0
 22 39  1  0
 23 40  1  0
 24 41  1  0
M  END
>  <UniqueID>  (19) 
18

>  <SMILES>  (19) 
COc1ccc(C=Cc2cccn2S(=O)(=O)c2ccccc2)cc1

>  <Energy>  (19) 
78.40751030974198

>  <Genealogy>  (19) 
COc1ccc(C=Cc2cccn2S(=O)(=O)c2ccccc2)cc1 (3D coordinates assigned)
COc1ccc(C=Cc2cccn2S(=O)(=O)c2ccccc2)cc1 (optimized conformer: 78.40751030974198 kcal/mol)

>  <smiles>  (19) 
COc1ccc(C=Cc2cccn2S(=O)(=O)c2ccccc2)cc1

>  <score_type>  (19) 
oracle

>  <origin>  (19) 
adg

>  <m_score__min__energy>  (19) 
-9.0700000000000003

>  <m_primary>  (19) 
energy

$$$$
19:0
     RDKit          3D

 36 38  0  0  0  0  0  0  0  0999 V2000
   -8.6601   19.5398  -33.6109 H   0  0  0  0  0  0  0  0  0  0  0  0
   -7.7010   19.6560  -33.0850 C   0  0  0  0  0  0  0  0  0  0  0  0
   -7.4530   20.8450  -32.4980 C   0  0  0  0  0  0  0  0  0  0  0  0
   -6.0910   21.4040  -32.2970 C   0  0  0  0  0  0  0  0  0  0  0  0
   -5.1030   20.9490  -32.9360 O   0  0  0  0  0  0  0  0  0  0  0  0
   -5.9120   22.5570  -31.3820 C   0  0  0  0  0  0  0  0  0  0  0  0
   -4.6560   23.1760  -31.2390 C   0  0  0  0  0  0  0  0  0  0  0  0
   -3.7936   22.7976  -31.8075 H   0  0  0  0  0  0  0  0  0  0  0  0
   -4.4940   24.2760  -30.3740 C   0  0  0  0  0  0  0  0  0  0  0  0
   -3.2610   24.9230  -30.2030 O   0  0  0  0  0  0  0  0  0  0  0  0
   -2.2550   24.5130  -29.2840 C   0  0  0  0  0  0  0  0  0  0  0  0
   -2.6160   24.6601  -28.2554 H   0  0  0  0  0  0  0  0  0  0  0  0
   -2.0246   23.4492  -29.4431 H   0  0  0  0  0  0  0  0  0  0  0  0
   -1.3467   25.1127  -29.4431 H   0  0  0  0  0  0  0  0  0  0  0  0
   -5.5940   24.7450  -29.6520 C   0  0  0  0  0  0  0  0  0  0  0  0
   -5.4743   25.6019  -28.9727 H   0  0  0  0  0  0  0  0  0  0  0  0
   -6.8440   24.1370  -29.7840 C   0  0  0  0  0  0  0  0  0  0  0  0
   -7.6981   24.5104  -29.1999 H   0  0  0  0  0  0  0  0  0  0  0  0
   -7.0170   23.0530  -30.6570 C   0  0  0  0  0  0  0  0  0  0  0  0
   -8.3610   22.3650  -30.7310 C   0  0  0  0  0  0  0  0  0  0  0  0
   -9.1505   23.1050  -30.5330 H   0  0  0  0  0  0  0  0  0  0  0  0
   -8.3734   21.5606  -29.9808 H   0  0  0  0  0  0  0  0  0  0  0  0
   -8.6070   21.7340  -32.1080 C   0  0  0  0  0  0  0  0  0  0  0  0
   -8.7177   22.5321  -32.8569 H   0  0  0  0  0  0  0  0  0  0  0  0
   -9.5228   21.1265  -32.0613 H   0  0  0  0  0  0  0  0  0  0  0  0
   -6.7840   18.4980  -33.0760 C   0  0  0  0  0  0  0  0  0  0  0  0
   -6.6210   17.7630  -31.8930 C   0  0  0  0  0  0  0  0  0  0  0  0
   -7.1950   18.0363  -30.9953 H   0  0  0  0  0  0  0  0  0  0  0  0
   -5.7320   16.6840  -31.8490 C   0  0  0  0  0  0  0  0  0  0  0  0
   -5.6195   16.1020  -30.9224 H   0  0  0  0  0  0  0  0  0  0  0  0
   -4.9870   16.3450  -32.9810 C   0  0  0  0  0  0  0  0  0  0  0  0
   -4.2952   15.4904  -32.9479 H   0  0  0  0  0  0  0  0  0  0  0  0
   -5.1200   17.0910  -34.1560 C   0  0  0  0  0  0  0  0  0  0  0  0
   -4.5258   16.8279  -35.0435 H   0  0  0  0  0  0  0  0  0  0  0  0
   -6.0070   18.1710  -34.2050 C   0  0  0  0  0  0  0  0  0  0  0  0
   -6.0920   18.9080  -35.3430 F   0  0  0  0  0  0  0  0  0  0  0  0
  1  2  1  0
  2  3  2  0
  3  4  1  0
  4  5  2  0
  4  6  1  0
  6  7  2  0
  7  8  1  0
  7  9  1  0
  9 10  1  0
 10 11  1  0
 11 12  1  0
 11 13  1  0
 11 14  1  0
  9 15  2  0
 15 16  1  0
 15 17  1  0
 17 18  1  0
 17 19  2  0
 19 20  1  0
 20 21  1  0
 20 22  1  0
 20 23  1  0
 23 24  1  0
 23 25  1  0
  2 26  1  0
 26 27  2  0
 27 28  1  0
 27 29  1  0
 29 30  1  0
 29 31  2  0
 31 32  1  0
 31 33  1  0
 33 34  1  0
 33 35  2  0
 35 36  1  0
 23  3  1  0
 35 26  1  0
 19  6  1  0
M  END
>  <UniqueID>  (20) 
19

>  <SMILES>  (20) 
COc1ccc2c(c1)C(=O)/C(=C\c1ccccc1F)CC2

>  <Energy>  (20) 
48.892041741747335

>  <Genealogy>  (20) 
COc1ccc2c(c1)C(=O)/C(=C\c1ccccc1F)CC2 (cis-trans isomerization)
COc1ccc2c(c1)C(=O)/C(=C\c1ccccc1F)CC2 (3D coordinates assigned)
COc1ccc2c(c1)C(=O)/C(=C\c1ccccc1F)CC2 (nonaromatic ring conformer: 48.892041741747335 kcal/mol)

>  <smiles>  (20) 
COc1ccc2c(c1)C(=O)C(=Cc1ccccc1F)CC2

>  <score_type>  (20) 
oracle

>  <origin>  (20) 
adg

>  <m_score__min__energy>  (20) 
-8.7899999999999991

>  <m_primary>  (20) 
energy

$$$$
20:0
     RDKit          3D

 33 35  0  0  0  0  0  0  0  0999 V2000
   -1.0460   24.4632  -28.0701 H   0  0  0  0  0  0  0  0  0  0  0  0
   -1.6730   24.1320  -28.9110 C   0  0  0  0  0  0  0  0  0  0  0  0
   -1.4270   22.9350  -29.5160 N   0  0  0  0  0  0  0  0  0  0  0  0
   -2.2030   22.5710  -30.5330 N   0  0  0  0  0  0  0  0  0  0  0  0
   -2.1580   21.4540  -31.2640 C   0  0  0  0  0  0  0  0  0  0  0  0
   -1.4518   20.6175  -31.1567 H   0  0  0  0  0  0  0  0  0  0  0  0
   -3.1890   21.5690  -32.1880 C   0  0  0  0  0  0  0  0  0  0  0  0
   -3.5640   20.5610  -33.1370 N   0  0  0  0  0  0  0  0  0  0  0  0
   -3.5360   20.9670  -34.1020 H   0  0  0  0  0  0  0  0  0  0  0  0
   -2.8780   19.7700  -33.1040 H   0  0  0  0  0  0  0  0  0  0  0  0
   -4.8900   20.0890  -32.8320 C   0  0  0  0  0  0  0  0  0  0  0  0
   -6.0020   20.9360  -32.9950 C   0  0  0  0  0  0  0  0  0  0  0  0
   -5.8557   21.9727  -33.3325 H   0  0  0  0  0  0  0  0  0  0  0  0
   -7.2920   20.4660  -32.7300 C   0  0  0  0  0  0  0  0  0  0  0  0
   -8.1558   21.1360  -32.8524 H   0  0  0  0  0  0  0  0  0  0  0  0
   -7.4870   19.1470  -32.3100 C   0  0  0  0  0  0  0  0  0  0  0  0
   -9.1060   18.5600  -31.9820 Cl  0  0  0  0  0  0  0  0  0  0  0  0
   -6.3880   18.2940  -32.1570 C   0  0  0  0  0  0  0  0  0  0  0  0
   -6.5408   17.2551  -31.8293 H   0  0  0  0  0  0  0  0  0  0  0  0
   -5.0960   18.7600  -32.4200 C   0  0  0  0  0  0  0  0  0  0  0  0
   -4.2363   18.0837  -32.3041 H   0  0  0  0  0  0  0  0  0  0  0  0
   -3.8730   22.7320  -32.0220 N   0  0  0  0  0  0  0  0  0  0  0  0
   -3.2150   23.3110  -30.9940 C   0  0  0  0  0  0  0  0  0  0  0  0
   -3.4950   24.5330  -30.3940 C   0  0  0  0  0  0  0  0  0  0  0  0
   -4.4750   25.2760  -30.8190 N   0  0  0  0  0  0  0  0  0  0  0  0
   -5.8110   25.3140  -30.2260 C   0  0  0  0  0  0  0  0  0  0  0  0
   -6.3365   26.2138  -30.5784 H   0  0  0  0  0  0  0  0  0  0  0  0
   -5.7103   25.3337  -29.1308 H   0  0  0  0  0  0  0  0  0  0  0  0
   -6.6140   24.0790  -30.6210 C   0  0  0  0  0  0  0  0  0  0  0  0
   -6.9535   23.5569  -29.7143 H   0  0  0  0  0  0  0  0  0  0  0  0
   -7.4868   24.3843  -31.2168 H   0  0  0  0  0  0  0  0  0  0  0  0
   -5.9809   23.4051  -31.2168 H   0  0  0  0  0  0  0  0  0  0  0  0
   -2.7000   24.9200  -29.3510 N   0  0  0  0  0  0  0  0  0  0  0  0
  1  2  1  0
  2  3  2  0
  3  4  1  0
  4  5  1  0
  5  6  1  0
  5  7  2  0
  7  8  1  0
  8  9  1  0
  8 10  1  0
  8 11  1  0
 11 12  2  0
 12 13  1  0
 12 14  1  0
 14 15  1  0
 14 16  2  0
 16 17  1  0
 16 18  1  0
 18 19  1  0
 18 20  2  0
 20 21  1  0
  7 22  1  0
 22 23  2  0
 23 24  1  0
 24 25  2  0
 25 26  1  0
 26 27  1  0
 26 28  1  0
 26 29  1  0
 29 30  1  0
 29 31  1  0
 29 32  1  0
 24 33  1  0
 33  2  1  0
 23  4  1  0
 20 11  1  0
M  CHG  2   8   1  33  -1
M  END
>  <UniqueID>  (21) 
20

>  <SMILES>  (21) 
CC/N=c1\[n-]cnn2cc([NH2+]c3ccc(Cl)cc3)nc12

>  <Energy>  (21) 
71.92890418271682

>  <Genealogy>  (21) 
CCN=c1[n-]cnn2cc([NH2+]c3ccc(Cl)cc3)nc12 (protonated)
CC/N=c1\[n-]cnn2cc([NH2+]c3ccc(Cl)cc3)nc12 (cis-trans isomerization)
CC/N=c1\[n-]cnn2cc([NH2+]c3ccc(Cl)cc3)nc12 (3D coordinates assigned)
CC/N=c1\[n-]cnn2cc([NH2+]c3ccc(Cl)cc3)nc12 (optimized conformer: 71.92890418271682 kcal/mol)

>  <smiles>  (21) 
CCN=c1[nH]cnn2cc(Nc3ccc(Cl)cc3)nc12

>  <score_type>  (21) 
oracle

>  <origin>  (21) 
adg

>  <m_score__min__energy>  (21) 
-7.9800000000000004

>  <m_primary>  (21) 
energy

$$$$
21:0
     RDKit          3D

 35 37  0  0  0  0  0  0  0  0999 V2000
   -2.5410   25.6720  -25.5850 C   0  0  0  0  0  0  0  0  0  0  0  0
   -3.5510   24.9250  -26.4520 C   0  0  0  0  0  0  0  0  0  0  0  0
   -2.8970   24.3960  -27.7100 C   0  0  0  0  0  0  0  0  0  0  0  0
   -1.4960   24.3450  -27.7640 C   0  0  0  0  0  0  0  0  0  0  0  0
   -0.8670   23.8710  -28.9160 C   0  0  0  0  0  0  0  0  0  0  0  0
    0.3890   23.8130  -28.9660 O   0  0  0  0  0  0  0  0  0  0  0  0
   -1.5840   23.4810  -29.9620 O   0  0  0  0  0  0  0  0  0  0  0  0
   -2.9120   23.5220  -29.9790 C   0  0  0  0  0  0  0  0  0  0  0  0
   -3.5920   23.1010  -31.1260 C   0  0  0  0  0  0  0  0  0  0  0  0
   -4.9940   23.1540  -31.1840 C   0  0  0  0  0  0  0  0  0  0  0  0
   -5.7120   22.7030  -32.3450 N   0  0  0  0  0  0  0  0  0  0  0  0
   -6.8500   21.8240  -32.3060 C   0  0  0  0  0  0  0  0  0  0  0  0
   -8.1010   22.3310  -31.9230 C   0  0  0  0  0  0  0  0  0  0  0  0
   -9.2260   21.5010  -31.9030 C   0  0  0  0  0  0  0  0  0  0  0  0
   -9.1130   20.1600  -32.2820 C   0  0  0  0  0  0  0  0  0  0  0  0
   -7.8770   19.6510  -32.6870 C   0  0  0  0  0  0  0  0  0  0  0  0
   -6.7500   20.4790  -32.7080 C   0  0  0  0  0  0  0  0  0  0  0  0
   -5.7090   23.5980  -30.0640 C   0  0  0  0  0  0  0  0  0  0  0  0
   -5.0400   24.0180  -28.9120 C   0  0  0  0  0  0  0  0  0  0  0  0
   -3.6320   23.9870  -28.8510 C   0  0  0  0  0  0  0  0  0  0  0  0
   -2.7720   25.5012  -24.5232 H   0  0  0  0  0  0  0  0  0  0  0  0
   -1.5275   25.3045  -25.8035 H   0  0  0  0  0  0  0  0  0  0  0  0
   -2.5956   26.7487  -25.8035 H   0  0  0  0  0  0  0  0  0  0  0  0
   -3.9635   24.0817  -25.8787 H   0  0  0  0  0  0  0  0  0  0  0  0
   -4.3514   25.6229  -26.7391 H   0  0  0  0  0  0  0  0  0  0  0  0
   -0.8968   24.6767  -26.9032 H   0  0  0  0  0  0  0  0  0  0  0  0
   -3.0241   22.7253  -31.9899 H   0  0  0  0  0  0  0  0  0  0  0  0
   -5.3830   23.0330  -33.2810 H   0  0  0  0  0  0  0  0  0  0  0  0
   -8.1973   23.3887  -31.6365 H   0  0  0  0  0  0  0  0  0  0  0  0
  -10.2004   21.9033  -31.5889 H   0  0  0  0  0  0  0  0  0  0  0  0
   -9.9972   19.5060  -32.2612 H   0  0  0  0  0  0  0  0  0  0  0  0
   -7.7898   18.5971  -32.9900 H   0  0  0  0  0  0  0  0  0  0  0  0
   -5.7814   20.0772  -33.0401 H   0  0  0  0  0  0  0  0  0  0  0  0
   -6.8085   23.6160  -30.0921 H   0  0  0  0  0  0  0  0  0  0  0  0
   -5.6162   24.3756  -28.0459 H   0  0  0  0  0  0  0  0  0  0  0  0
  1  2  1  0
  2  3  1  0
  3  4  2  0
  4  5  1  0
  5  6  2  0
  5  7  1  0
  7  8  1  0
  8  9  2  0
  9 10  1  0
 10 11  1  0
 11 12  1  0
 12 13  2  0
 13 14  1  0
 14 15  2  0
 15 16  1  0
 16 17  2  0
 10 18  2  0
 18 19  1  0
 19 20  2  0
 20  3  1  0
 20  8  1  0
 17 12  1  0
  1 21  1  0
  1 22  1  0
  1 23  1  0
  2 24  1  0
  2 25  1  0
  4 26  1  0
  9 27  1  0
 11 28  1  0
 13 29  1  0
 14 30  1  0
 15 31  1  0
 16 32  1  0
 17 33  1  0
 18 34  1  0
 19 35  1  0
M  END
>  <UniqueID>  (22) 
21

>  <SMILES>  (22) 
CCc1cc(=O)oc2cc(Nc3ccccc3)ccc12

>  <Energy>  (22) 
46.25232837669

>  <Genealogy>  (22) 
CCc1cc(=O)oc2cc(Nc3ccccc3)ccc12 (3D coordinates assigned)
CCc1cc(=O)oc2cc(Nc3ccccc3)ccc12 (optimized conformer: 46.25232837669 kcal/mol)

>  <smiles>  (22) 
CCc1cc(=O)oc2cc(Nc3ccccc3)ccc12

>  <score_type>  (22) 
oracle

>  <origin>  (22) 
adg

>  <m_score__min__energy>  (22) 
-7.71

>  <m_primary>  (22) 
energy

$$$$
22:0
     RDKit          3D

 18 19  0  0  0  0  0  0  0  0999 V2000
   -8.4990   19.4540  -32.1970 Br  0  0  0  0  0  0  0  0  0  0  0  0
   -6.9340   20.5180  -32.3330 C   0  0  0  0  0  0  0  0  0  0  0  0
   -5.8760   20.0220  -33.0790 C   0  0  0  0  0  0  0  0  0  0  0  0
   -4.7310   20.8020  -33.1770 C   0  0  0  0  0  0  0  0  0  0  0  0
   -4.6430   22.0390  -32.5510 C   0  0  0  0  0  0  0  0  0  0  0  0
   -5.6970   22.5320  -31.8080 C   0  0  0  0  0  0  0  0  0  0  0  0
   -5.5650   23.8340  -31.1660 C   0  0  0  0  0  0  0  0  0  0  0  0
   -6.4620   24.5790  -30.5180 N   0  0  0  0  0  0  0  0  0  0  0  0
   -5.8970   25.7270  -30.0820 C   0  0  0  0  0  0  0  0  0  0  0  0
   -4.5960   25.6900  -30.4780 N   0  0  0  0  0  0  0  0  0  0  0  0
   -4.4060   24.5540  -31.1260 N   0  0  0  0  0  0  0  0  0  0  0  0
   -6.8410   21.7640  -31.7050 C   0  0  0  0  0  0  0  0  0  0  0  0
   -5.9412   19.0432  -33.5768 H   0  0  0  0  0  0  0  0  0  0  0  0
   -3.8761   20.4326  -33.7624 H   0  0  0  0  0  0  0  0  0  0  0  0
   -3.7223   22.6330  -32.6485 H   0  0  0  0  0  0  0  0  0  0  0  0
   -6.3914   26.5320  -29.5184 H   0  0  0  0  0  0  0  0  0  0  0  0
   -3.8620   26.4150  -30.3110 H   0  0  0  0  0  0  0  0  0  0  0  0
   -7.6931   22.1391  -31.1191 H   0  0  0  0  0  0  0  0  0  0  0  0
  1  2  1  0
  2  3  2  0
  3  4  1  0
  4  5  2  0
  5  6  1  0
  6  7  1  0
  7  8  1  0
  8  9  2  0
  9 10  1  0
 10 11  1  0
  6 12  2  0
 12  2  1  0
 11  7  2  0
  3 13  1  0
  4 14  1  0
  5 15  1  0
  9 16  1  0
 10 17  1  0
 12 18  1  0
M  END
>  <smiles>  (23) 
Brc1cccc(-c2nc[nH]n2)c1

>  <score_type>  (23) 
oracle

>  <origin>  (23) 
adg

>  <m_score__min__energy>  (23) 
-6.96

>  <m_primary>  (23) 
energy

$$$$
23:0
     RDKit          3D

 41 43  0  0  0  0  0  0  0  0999 V2000
   -8.6480   19.2600  -31.7070 C   0  0  0  0  0  0  0  0  0  0  0  0
   -7.9530   20.2530  -32.4530 O   0  0  0  0  0  0  0  0  0  0  0  0
   -7.2720   21.3470  -31.8910 C   0  0  0  0  0  0  0  0  0  0  0  0
   -7.9570   22.3700  -31.2190 C   0  0  0  0  0  0  0  0  0  0  0  0
   -7.2680   23.4430  -30.6620 C   0  0  0  0  0  0  0  0  0  0  0  0
   -5.8730   23.5340  -30.7530 C   0  0  0  0  0  0  0  0  0  0  0  0
   -5.0630   24.9260  -30.0070 S   0  0  0  0  0  0  0  0  0  0  0  0
   -3.8880   25.3460  -30.8430 O   0  0  0  0  0  0  0  0  0  0  0  0
   -6.0460   26.0600  -29.9160 O   0  0  0  0  0  0  0  0  0  0  0  0
   -4.4820   24.5380  -28.4170 N   0  0  0  0  0  0  0  0  0  0  0  0
   -3.5220   23.4960  -28.2080 C   0  0  0  0  0  0  0  0  0  0  0  0
   -3.9680   22.1760  -28.0540 C   0  0  0  0  0  0  0  0  0  0  0  0
   -3.0520   21.1420  -27.8480 C   0  0  0  0  0  0  0  0  0  0  0  0
   -1.6840   21.4160  -27.8080 C   0  0  0  0  0  0  0  0  0  0  0  0
   -1.2280   22.7250  -27.9860 C   0  0  0  0  0  0  0  0  0  0  0  0
   -2.1390   23.7690  -28.1970 C   0  0  0  0  0  0  0  0  0  0  0  0
   -1.5030   25.4240  -28.5030 S   0  0  0  0  0  0  0  0  0  0  0  0
   -1.5160   25.8880  -26.7450 C   0  0  0  0  0  0  0  0  0  0  0  0
   -5.1570   22.5210  -31.4450 C   0  0  0  0  0  0  0  0  0  0  0  0
   -3.7530   22.5700  -31.5990 C   0  0  0  0  0  0  0  0  0  0  0  0
   -3.0740   21.5580  -32.2780 C   0  0  0  0  0  0  0  0  0  0  0  0
   -3.7730   20.4820  -32.8180 C   0  0  0  0  0  0  0  0  0  0  0  0
   -5.1590   20.4120  -32.6890 C   0  0  0  0  0  0  0  0  0  0  0  0
   -5.8680   21.4210  -32.0090 C   0  0  0  0  0  0  0  0  0  0  0  0
   -8.5153   19.4495  -30.6316 H   0  0  0  0  0  0  0  0  0  0  0  0
   -9.7187   19.2965  -31.9564 H   0  0  0  0  0  0  0  0  0  0  0  0
   -8.2471   18.2665  -31.9564 H   0  0  0  0  0  0  0  0  0  0  0  0
   -9.0525   22.3235  -31.1312 H   0  0  0  0  0  0  0  0  0  0  0  0
   -7.8284   24.2334  -30.1412 H   0  0  0  0  0  0  0  0  0  0  0  0
   -4.6270   25.2430  -27.6600 H   0  0  0  0  0  0  0  0  0  0  0  0
   -5.0445   21.9535  -28.0956 H   0  0  0  0  0  0  0  0  0  0  0  0
   -3.4093   20.1099  -27.7171 H   0  0  0  0  0  0  0  0  0  0  0  0
   -0.9648   20.6016  -27.6364 H   0  0  0  0  0  0  0  0  0  0  0  0
   -0.1489   22.9370  -27.9604 H   0  0  0  0  0  0  0  0  0  0  0  0
   -1.4905   24.9792  -26.1257 H   0  0  0  0  0  0  0  0  0  0  0  0
   -0.6349   26.5079  -26.5229 H   0  0  0  0  0  0  0  0  0  0  0  0
   -2.4305   26.4576  -26.5229 H   0  0  0  0  0  0  0  0  0  0  0  0
   -3.1891   23.4158  -31.1787 H   0  0  0  0  0  0  0  0  0  0  0  0
   -1.9807   21.6105  -32.3873 H   0  0  0  0  0  0  0  0  0  0  0  0
   -3.2302   19.6852  -33.3477 H   0  0  0  0  0  0  0  0  0  0  0  0
   -5.7042   19.5606  -33.1224 H   0  0  0  0  0  0  0  0  0  0  0  0
  1  2  1  0
  2  3  1  0
  3  4  2  0
  4  5  1  0
  5  6  2  0
  6  7  1  0
  7  8  2  0
  7  9  2  0
  7 10  1  0
 10 11  1  0
 11 12  2  0
 12 13  1  0
 13 14  2  0
 14 15  1  0
 15 16  2  0
 16 17  1  0
 17 18  1  0
  6 19  1  0
 19 20  2  0
 20 21  1  0
 21 22  2  0
 22 23  1  0
 23 24  2  0
 24  3  1  0
 16 11  1  0
 24 19  1  0
  1 25  1  0
  1 26  1  0
  1 27  1  0
  4 28  1  0
  5 29  1  0
 10 30  1  0
 12 31  1  0
 13 32  1  0
 14 33  1  0
 15 34  1  0
 18 35  1  0
 18 36  1  0
 18 37  1  0
 20 38  1  0
 21 39  1  0
 22 40  1  0
 23 41  1  0
M  END
>  <UniqueID>  (24) 
22

>  <SMILES>  (24) 
COc1ccc(S(=O)(=O)Nc2ccccc2SC)c2ccccc12

>  <Energy>  (24) 
54.37077397604169

>  <Genealogy>  (24) 
COc1ccc(S(=O)(=O)Nc2ccccc2SC)c2ccccc12 (3D coordinates assigned)
COc1ccc(S(=O)(=O)Nc2ccccc2SC)c2ccccc12 (optimized conformer: 54.37077397604169 kcal/mol)

>  <smiles>  (24) 
COc1ccc(S(=O)(=O)Nc2ccccc2SC)c2ccccc12

>  <score_type>  (24) 
oracle

>  <origin>  (24) 
adg

>  <m_score__min__energy>  (24) 
-9.3399999999999999

>  <m_primary>  (24) 
energy

$$$$
24:0
     RDKit          3D

 36 39  0  0  0  0  0  0  0  0999 V2000
   -4.9980   25.7020  -31.1960 O   0  0  0  0  0  0  0  0  0  0  0  0
   -4.8470   24.5910  -30.6210 C   0  0  0  0  0  0  0  0  0  0  0  0
   -3.9660   24.5110  -29.4460 C   0  0  0  0  0  0  0  0  0  0  0  0
   -4.1830   23.7630  -28.3020 C   0  0  0  0  0  0  0  0  0  0  0  0
   -3.0850   23.9830  -27.4980 C   0  0  0  0  0  0  0  0  0  0  0  0
   -2.2690   24.8430  -28.2020 C   0  0  0  0  0  0  0  0  0  0  0  0
   -0.5860   25.5130  -27.6080 Br  0  0  0  0  0  0  0  0  0  0  0  0
   -2.8150   25.1380  -29.3590 O   0  0  0  0  0  0  0  0  0  0  0  0
   -5.5330   23.4340  -31.1280 N   0  0  0  0  0  0  0  0  0  0  0  0
   -6.9440   23.2310  -30.6920 C   0  0  0  0  0  0  0  0  0  0  0  0
   -7.6090   21.9120  -31.1830 C   0  0  0  0  0  0  0  0  0  0  0  0
   -6.9290   21.4410  -32.3870 N   0  0  2  0  0  0  0  0  0  0  0  0
   -7.3550   20.1960  -32.9540 C   0  0  0  0  0  0  0  0  0  0  0  0
   -8.5610   19.8640  -33.1090 O   0  0  0  0  0  0  0  0  0  0  0  0
   -6.2140   19.4710  -33.4760 C   0  0  0  0  0  0  0  0  0  0  0  0
   -6.1380   18.3420  -34.2900 C   0  0  0  0  0  0  0  0  0  0  0  0
   -4.8620   17.8760  -34.6500 C   0  0  0  0  0  0  0  0  0  0  0  0
   -3.7040   18.5360  -34.1850 C   0  0  0  0  0  0  0  0  0  0  0  0
   -3.8130   19.6670  -33.3590 C   0  0  0  0  0  0  0  0  0  0  0  0
   -5.0900   20.1380  -33.0490 C   0  0  0  0  0  0  0  0  0  0  0  0
   -5.5160   21.1780  -32.0630 C   0  0  1  0  0  0  0  0  0  0  0  0
   -4.7810   22.5010  -32.0010 C   0  0  0  0  0  0  0  0  0  0  0  0
   -5.0514   23.1253  -28.0803 H   0  0  0  0  0  0  0  0  0  0  0  0
   -2.8983   23.5595  -26.5001 H   0  0  0  0  0  0  0  0  0  0  0  0
   -6.9633   23.2323  -29.5922 H   0  0  0  0  0  0  0  0  0  0  0  0
   -7.5228   24.0499  -31.1441 H   0  0  0  0  0  0  0  0  0  0  0  0
   -7.5317   21.1476  -30.3958 H   0  0  0  0  0  0  0  0  0  0  0  0
   -8.6688   22.0991  -31.4107 H   0  0  0  0  0  0  0  0  0  0  0  0
   -7.0180   22.1650  -33.1430 H   0  0  0  0  0  0  0  0  0  0  0  0
   -7.0478   17.8320  -34.6395 H   0  0  0  0  0  0  0  0  0  0  0  0
   -4.7650   16.9922  -35.2976 H   0  0  0  0  0  0  0  0  0  0  0  0
   -2.7099   18.1622  -34.4713 H   0  0  0  0  0  0  0  0  0  0  0  0
   -2.9158   20.1682  -32.9668 H   0  0  0  0  0  0  0  0  0  0  0  0
   -5.2927   20.7567  -31.0717 H   0  0  0  0  0  0  0  0  0  0  0  0
   -3.7731   22.3434  -31.5897 H   0  0  0  0  0  0  0  0  0  0  0  0
   -4.6975   22.9260  -33.0121 H   0  0  0  0  0  0  0  0  0  0  0  0
  1  2  2  0
  2  3  1  0
  3  4  2  0
  4  5  1  0
  5  6  2  0
  6  7  1  0
  6  8  1  0
  2  9  1  0
  9 10  1  0
 10 11  1  0
 11 12  1  0
 12 13  1  0
 13 14  2  0
 13 15  1  0
 15 16  2  0
 16 17  1  0
 17 18  2  0
 18 19  1  0
 19 20  2  0
 20 21  1  0
 21 22  1  0
  8  3  1  0
 22  9  1  0
 21 12  1  0
 20 15  1  0
  4 23  1  0
  5 24  1  0
 10 25  1  0
 10 26  1  0
 11 27  1  0
 11 28  1  0
 12 29  1  6
 16 30  1  0
 17 31  1  0
 18 32  1  0
 19 33  1  0
 21 34  1  1
 22 35  1  0
 22 36  1  0
M  CHG  1  12   1
M  END
>  <UniqueID>  (25) 
23

>  <SMILES>  (25) 
O=C(c1ccc(Br)o1)N1CC[N@@H+]2C(=O)c3ccccc3[C@H]2C1

>  <Energy>  (25) 
105.00532543505709

>  <Genealogy>  (25) 
O=C(c1ccc(Br)o1)N1CC[NH+]2C(=O)c3ccccc3C2C1 (protonated)
O=C(c1ccc(Br)o1)N1CC[N@@H+]2C(=O)c3ccccc3[C@H]2C1 (chirality)
O=C(c1ccc(Br)o1)N1CC[N@@H+]2C(=O)c3ccccc3[C@H]2C1 (3D coordinates assigned)
O=C(c1ccc(Br)o1)N1CC[N@@H+]2C(=O)c3ccccc3[C@H]2C1 (nonaromatic ring conformer: 105.00532543505709 kcal/mol)

>  <smiles>  (25) 
O=C(c1ccc(Br)o1)N1CCN2C(=O)c3ccccc3C2C1

>  <score_type>  (25) 
oracle

>  <origin>  (25) 
adg

>  <m_score__min__energy>  (25) 
-8.8900000000000006

>  <m_primary>  (25) 
energy

$$$$
25:0
     RDKit          3D

 56 60  0  0  0  0  0  0  0  0999 V2000
   -0.0850   23.0400  -24.0890 C   0  0  0  0  0  0  0  0  0  0  0  0
   -0.8130   21.9160  -24.5710 O   0  0  0  0  0  0  0  0  0  0  0  0
   -0.8870   21.5420  -25.9210 C   0  0  0  0  0  0  0  0  0  0  0  0
   -0.2590   22.2760  -26.9440 C   0  0  0  0  0  0  0  0  0  0  0  0
   -0.3610   21.8600  -28.2750 C   0  0  0  0  0  0  0  0  0  0  0  0
   -1.0840   20.7020  -28.6040 C   0  0  0  0  0  0  0  0  0  0  0  0
   -1.1880   20.2630  -30.0170 C   0  0  0  0  0  0  0  0  0  0  0  0
   -2.1340   20.8720  -30.8480 C   0  0  0  0  0  0  0  0  0  0  0  0
   -2.3070   20.4150  -32.1580 C   0  0  0  0  0  0  0  0  0  0  0  0
   -3.2400   20.9920  -33.0310 O   0  0  0  0  0  0  0  0  0  0  0  0
   -4.5840   21.2530  -32.7270 C   0  0  0  0  0  0  0  0  0  0  0  0
   -4.9390   22.5400  -32.3070 C   0  0  0  0  0  0  0  0  0  0  0  0
   -6.2670   22.8490  -32.0030 C   0  0  0  0  0  0  0  0  0  0  0  0
   -7.2650   21.8700  -32.1280 C   0  0  0  0  0  0  0  0  0  0  0  0
   -8.6020   22.1670  -31.8230 C   0  0  0  0  0  0  0  0  0  0  0  0
   -9.5880   21.1850  -31.9580 C   0  0  0  0  0  0  0  0  0  0  0  0
   -9.2470   19.9030  -32.3990 C   0  0  0  0  0  0  0  0  0  0  0  0
   -7.9190   19.5950  -32.7060 C   0  0  0  0  0  0  0  0  0  0  0  0
   -6.9190   20.5710  -32.5720 C   0  0  0  0  0  0  0  0  0  0  0  0
   -5.5830   20.2730  -32.8770 C   0  0  0  0  0  0  0  0  0  0  0  0
   -1.5200   19.4080  -32.6120 N   0  0  0  0  0  0  0  0  0  0  0  0
   -0.6030   18.8240  -31.8390 N   0  0  0  0  0  0  0  0  0  0  0  0
   -0.3950   19.2190  -30.5500 C   0  0  0  0  0  0  0  0  0  0  0  0
    0.6810   18.5670  -29.7650 C   0  0  0  0  0  0  0  0  0  0  0  0
    2.0190   18.9400  -29.9640 C   0  0  0  0  0  0  0  0  0  0  0  0
    3.0380   18.3280  -29.2300 C   0  0  0  0  0  0  0  0  0  0  0  0
    2.7410   17.3430  -28.2810 C   0  0  0  0  0  0  0  0  0  0  0  0
    3.8000   16.7560  -27.5740 O   0  0  0  0  0  0  0  0  0  0  0  0
    3.6430   15.9630  -26.4020 C   0  0  0  0  0  0  0  0  0  0  0  0
    1.3980   16.9780  -28.0690 C   0  0  0  0  0  0  0  0  0  0  0  0
    0.3760   17.5910  -28.8020 C   0  0  0  0  0  0  0  0  0  0  0  0
   -1.7210   19.9790  -27.5830 C   0  0  0  0  0  0  0  0  0  0  0  0
   -1.6170   20.3950  -26.2540 C   0  0  0  0  0  0  0  0  0  0  0  0
   -0.0884   23.0348  -22.9890 H   0  0  0  0  0  0  0  0  0  0  0  0
    0.9519   22.9887  -24.4527 H   0  0  0  0  0  0  0  0  0  0  0  0
   -0.5558   23.9652  -24.4527 H   0  0  0  0  0  0  0  0  0  0  0  0
    0.3147   23.1811  -26.6956 H   0  0  0  0  0  0  0  0  0  0  0  0
    0.1280   22.4433  -29.0691 H   0  0  0  0  0  0  0  0  0  0  0  0
   -2.7407   21.7088  -30.4716 H   0  0  0  0  0  0  0  0  0  0  0  0
   -4.1647   23.3159  -32.2154 H   0  0  0  0  0  0  0  0  0  0  0  0
   -6.5312   23.8619  -31.6649 H   0  0  0  0  0  0  0  0  0  0  0  0
   -8.8750   23.1748  -31.4769 H   0  0  0  0  0  0  0  0  0  0  0  0
  -10.6347   21.4218  -31.7166 H   0  0  0  0  0  0  0  0  0  0  0  0
  -10.0266   19.1342  -32.5047 H   0  0  0  0  0  0  0  0  0  0  0  0
   -7.6565   18.5849  -33.0536 H   0  0  0  0  0  0  0  0  0  0  0  0
   -5.3145   19.2682  -33.2353 H   0  0  0  0  0  0  0  0  0  0  0  0
   -0.0200   18.0620  -32.2520 H   0  0  0  0  0  0  0  0  0  0  0  0
    2.2667   19.7178  -30.7013 H   0  0  0  0  0  0  0  0  0  0  0  0
    4.0840   18.6231  -29.3995 H   0  0  0  0  0  0  0  0  0  0  0  0
    3.7684   16.5962  -25.5113 H   0  0  0  0  0  0  0  0  0  0  0  0
    2.6386   15.5145  -26.3946 H   0  0  0  0  0  0  0  0  0  0  0  0
    4.4007   15.1656  -26.3946 H   0  0  0  0  0  0  0  0  0  0  0  0
    1.1510   16.2075  -27.3238 H   0  0  0  0  0  0  0  0  0  0  0  0
   -0.6716   17.3072  -28.6232 H   0  0  0  0  0  0  0  0  0  0  0  0
   -2.3049   19.0804  -27.8311 H   0  0  0  0  0  0  0  0  0  0  0  0
   -2.1134   19.8159  -25.4614 H   0  0  0  0  0  0  0  0  0  0  0  0
  1  2  1  0
  2  3  1  0
  3  4  2  0
  4  5  1  0
  5  6  2  0
  6  7  1  0
  7  8  2  0
  8  9  1  0
  9 10  1  0
 10 11  1  0
 11 12  2  0
 12 13  1  0
 13 14  2  0
 14 15  1  0
 15 16  2  0
 16 17  1  0
 17 18  2  0
 18 19  1  0
 19 20  2  0
  9 21  2  0
 21 22  1  0
 22 23  2  0
 23 24  1  0
 24 25  2  0
 25 26  1  0
 26 27  2  0
 27 28  1  0
 28 29  1  0
 27 30  1  0
 30 31  2  0
  6 32  1  0
 32 33  2  0
 33  3  1  0
 23  7  1  0
 31 24  1  0
 20 11  1  0
 19 14  1  0
  1 34  1  0
  1 35  1  0
  1 36  1  0
  4 37  1  0
  5 38  1  0
  8 39  1  0
 12 40  1  0
 13 41  1  0
 15 42  1  0
 16 43  1  0
 17 44  1  0
 18 45  1  0
 20 46  1  0
 22 47  1  0
 25 48  1  0
 26 49  1  0
 29 50  1  0
 29 51  1  0
 29 52  1  0
 30 53  1  0
 31 54  1  0
 32 55  1  0
 33 56  1  0
M  CHG  1  22   1
M  END
>  <UniqueID>  (26) 
24

>  <SMILES>  (26) 
COc1ccc(-c2cc(Oc3ccc4ccccc4c3)n[nH+]c2-c2ccc(OC)cc2)cc1

>  <Energy>  (26) 
83.45053760347984

>  <Genealogy>  (26) 
COc1ccc(-c2cc(Oc3ccc4ccccc4c3)n[nH+]c2-c2ccc(OC)cc2)cc1 (protonated)
COc1ccc(-c2cc(Oc3ccc4ccccc4c3)n[nH+]c2-c2ccc(OC)cc2)cc1 (3D coordinates assigned)
COc1ccc(-c2cc(Oc3ccc4ccccc4c3)n[nH+]c2-c2ccc(OC)cc2)cc1 (optimized conformer: 83.45053760347984 kcal/mol)

>  <smiles>  (26) 
COc1ccc(-c2cc(Oc3ccc4ccccc4c3)nnc2-c2ccc(OC)cc2)cc1

>  <score_type>  (26) 
oracle

>  <origin>  (26) 
adg

>  <m_score__min__energy>  (26) 
-9.1500000000000004

>  <m_primary>  (26) 
energy

$$$$
26:0
     RDKit          3D

 48 50  0  0  0  0  0  0  0  0999 V2000
   -1.4910   21.4020  -31.7700 C   0  0  0  0  0  0  0  0  0  0  0  0
   -2.7240   20.8150  -32.4570 C   0  0  0  0  0  0  0  0  0  0  0  0
   -3.5900   21.8920  -33.1250 C   0  0  0  0  0  0  0  0  0  0  0  0
   -5.0320   21.7830  -32.7150 C   0  0  0  0  0  0  0  0  0  0  0  0
   -5.8400   20.7710  -33.1130 N   0  0  0  0  0  0  0  0  0  0  0  0
   -7.0430   21.0250  -32.5710 C   0  0  0  0  0  0  0  0  0  0  0  0
   -8.1990   20.2550  -32.6870 C   0  0  0  0  0  0  0  0  0  0  0  0
   -9.3560   20.7000  -32.0220 C   0  0  0  0  0  0  0  0  0  0  0  0
   -9.3300   21.8900  -31.2610 C   0  0  0  0  0  0  0  0  0  0  0  0
   -8.1500   22.6480  -31.1620 C   0  0  0  0  0  0  0  0  0  0  0  0
   -7.0190   22.1850  -31.8380 C   0  0  0  0  0  0  0  0  0  0  0  0
   -5.7390   22.6980  -31.9310 C   0  0  0  0  0  0  0  0  0  0  0  0
   -5.2060   23.9230  -31.2440 C   0  0  0  0  0  0  0  0  0  0  0  0
   -3.7750   23.6930  -30.7670 C   0  0  0  0  0  0  0  0  0  0  0  0
   -3.2750   24.8990  -30.1230 N   0  0  0  0  0  0  0  0  0  0  0  0
   -2.1860   24.8900  -29.1930 C   0  0  0  0  0  0  0  0  0  0  0  0
   -1.6000   25.9700  -28.9080 O   0  0  0  0  0  0  0  0  0  0  0  0
   -1.7520   23.6190  -28.5670 C   0  0  0  0  0  0  0  0  0  0  0  0
   -0.4430   23.1390  -28.7520 C   0  0  0  0  0  0  0  0  0  0  0  0
   -0.0370   21.9390  -28.1610 C   0  0  0  0  0  0  0  0  0  0  0  0
   -0.9340   21.1940  -27.3740 C   0  0  0  0  0  0  0  0  0  0  0  0
   -0.5740   19.9840  -26.7630 O   0  0  0  0  0  0  0  0  0  0  0  0
   -1.0950   18.7110  -27.1310 C   0  0  0  0  0  0  0  0  0  0  0  0
   -2.2350   21.6720  -27.1870 C   0  0  0  0  0  0  0  0  0  0  0  0
   -2.6440   22.8720  -27.7770 C   0  0  0  0  0  0  0  0  0  0  0  0
   -1.6161   21.3425  -30.6788 H   0  0  0  0  0  0  0  0  0  0  0  0
   -0.5988   20.8320  -32.0684 H   0  0  0  0  0  0  0  0  0  0  0  0
   -1.3709   22.4539  -32.0684 H   0  0  0  0  0  0  0  0  0  0  0  0
   -2.3937   20.1005  -33.2254 H   0  0  0  0  0  0  0  0  0  0  0  0
   -3.3355   20.3236  -31.6859 H   0  0  0  0  0  0  0  0  0  0  0  0
   -3.2115   22.8834  -32.8353 H   0  0  0  0  0  0  0  0  0  0  0  0
   -3.5327   21.7495  -34.2142 H   0  0  0  0  0  0  0  0  0  0  0  0
   -5.5810   19.9580  -33.7160 H   0  0  0  0  0  0  0  0  0  0  0  0
   -8.2064   19.3285  -33.2799 H   0  0  0  0  0  0  0  0  0  0  0  0
  -10.2865   20.1179  -32.0950 H   0  0  0  0  0  0  0  0  0  0  0  0
  -10.2398   22.2260  -30.7420 H   0  0  0  0  0  0  0  0  0  0  0  0
   -8.1186   23.5755  -30.5714 H   0  0  0  0  0  0  0  0  0  0  0  0
   -5.2206   24.7676  -31.9486 H   0  0  0  0  0  0  0  0  0  0  0  0
   -5.8389   24.1434  -30.3717 H   0  0  0  0  0  0  0  0  0  0  0  0
   -3.7580   22.8604  -30.0484 H   0  0  0  0  0  0  0  0  0  0  0  0
   -3.1374   23.4483  -31.6293 H   0  0  0  0  0  0  0  0  0  0  0  0
    0.2668   23.7123  -29.3665 H   0  0  0  0  0  0  0  0  0  0  0  0
    0.9900   21.5751  -28.3122 H   0  0  0  0  0  0  0  0  0  0  0  0
   -1.3307   18.1351  -26.2239 H   0  0  0  0  0  0  0  0  0  0  0  0
   -2.0096   18.8474  -27.7267 H   0  0  0  0  0  0  0  0  0  0  0  0
   -0.3472   18.1670  -27.7267 H   0  0  0  0  0  0  0  0  0  0  0  0
   -2.9429   21.0988  -26.5703 H   0  0  0  0  0  0  0  0  0  0  0  0
   -3.6710   23.2343  -27.6221 H   0  0  0  0  0  0  0  0  0  0  0  0
  1  2  1  0
  2  3  1  0
  3  4  1  0
  4  5  1  0
  5  6  1  0
  6  7  2  0
  7  8  1  0
  8  9  2  0
  9 10  1  0
 10 11  2  0
 11 12  1  0
 12 13  1  0
 13 14  1  0
 14 15  1  0
 15 16  1  0
 16 17  2  0
 16 18  1  0
 18 19  2  0
 19 20  1  0
 20 21  2  0
 21 22  1  0
 22 23  1  0
 21 24  1  0
 24 25  2  0
 12  4  2  0
 25 18  1  0
 11  6  1  0
  1 26  1  0
  1 27  1  0
  1 28  1  0
  2 29  1  0
  2 30  1  0
  3 31  1  0
  3 32  1  0
  5 33  1  0
  7 34  1  0
  8 35  1  0
  9 36  1  0
 10 37  1  0
 13 38  1  0
 13 39  1  0
 14 40  1  0
 14 41  1  0
 19 42  1  0
 20 43  1  0
 23 44  1  0
 23 45  1  0
 23 46  1  0
 24 47  1  0
 25 48  1  0
M  CHG  1  15  -1
M  END
>  <UniqueID>  (27) 
25

>  <SMILES>  (27) 
CCCc1[nH]c2ccccc2c1CC[N-]C(=O)c1ccc(OC)cc1

>  <Energy>  (27) 
71.46394114602488

>  <Genealogy>  (27) 
CCCc1[nH]c2ccccc2c1CC[N-]C(=O)c1ccc(OC)cc1 (protonated)
CCCc1[nH]c2ccccc2c1CC[N-]C(=O)c1ccc(OC)cc1 (3D coordinates assigned)
CCCc1[nH]c2ccccc2c1CC[N-]C(=O)c1ccc(OC)cc1 (optimized conformer: 71.46394114602488 kcal/mol)

>  <smiles>  (27) 
CCCc1[nH]c2ccccc2c1CCNC(=O)c1ccc(OC)cc1

>  <score_type>  (27) 
oracle

>  <origin>  (27) 
adg

>  <m_score__min__energy>  (27) 
-10.029999999999999

>  <m_primary>  (27) 
energy

$$$$
27:0
     RDKit          3D

 31 32  0  0  1  0  0  0  0  0999 V2000
   -2.4220   24.6320  -28.5750 C   0  0  0  0  0  0  0  0  0  0  0  0
   -3.1130   25.0930  -29.7100 O   0  0  0  0  0  0  0  0  0  0  0  0
   -4.0020   24.3550  -30.4620 C   0  0  0  0  0  0  0  0  0  0  0  0
   -5.2460   24.9040  -30.6940 C   0  0  0  0  0  0  0  0  0  0  0  0
   -6.1840   24.2270  -31.4340 C   0  0  0  0  0  0  0  0  0  0  0  0
   -5.8840   22.9770  -31.9590 C   0  0  0  0  0  0  0  0  0  0  0  0
   -6.9170   22.3510  -32.7130 N   0  0  0  0  0  0  0  0  0  0  0  0
   -7.1510   21.1000  -32.6340 C   0  0  0  0  0  0  0  0  0  0  0  0
   -6.4950   20.2120  -33.3990 N   0  0  0  0  0  0  0  0  0  0  0  0
   -6.8030   18.9110  -33.2520 C   0  0  0  0  0  0  0  0  0  0  0  0
   -6.1230   17.8440  -34.0640 C   0  0  0  0  0  0  0  0  0  0  0  0
   -7.7340   18.4680  -32.3790 N   0  0  0  0  0  0  0  0  0  0  0  0
   -8.4220   19.3270  -31.5860 C   0  0  0  0  0  0  0  0  0  0  0  0
   -8.0970   20.6690  -31.7440 C   0  0  0  0  0  0  0  0  0  0  0  0
   -8.8120   21.5830  -30.9170 N   0  0  0  0  0  0  0  0  0  0  0  0
  -10.0280   21.8240  -31.0830 O   0  0  0  0  0  0  0  0  0  0  0  0
   -8.0960   22.2100  -29.9010 O   0  0  0  0  0  0  0  0  0  0  0  0
   -4.6500   22.3980  -31.7460 C   0  0  0  0  0  0  0  0  0  0  0  0
   -3.7460   23.1220  -30.9950 C   0  0  0  0  0  0  0  0  0  0  0  0
   -2.9381   24.9763  -27.6666 H   0  0  0  0  0  0  0  0  0  0  0  0
   -2.3922   23.5325  -28.5854 H   0  0  0  0  0  0  0  0  0  0  0  0
   -1.3953   25.0267  -28.5854 H   0  0  0  0  0  0  0  0  0  0  0  0
   -5.4892   25.8945  -30.2819 H   0  0  0  0  0  0  0  0  0  0  0  0
   -7.1730   24.6749  -31.6109 H   0  0  0  0  0  0  0  0  0  0  0  0
   -5.6561   17.1114  -33.3892 H   0  0  0  0  0  0  0  0  0  0  0  0
   -6.8651   17.3373  -34.6984 H   0  0  0  0  0  0  0  0  0  0  0  0
   -5.3503   18.3026  -34.6984 H   0  0  0  0  0  0  0  0  0  0  0  0
   -7.9610   17.4360  -32.2790 H   0  0  0  0  0  0  0  0  0  0  0  0
   -9.1831   18.9857  -30.8689 H   0  0  0  0  0  0  0  0  0  0  0  0
   -4.3988   21.4081  -32.1546 H   0  0  0  0  0  0  0  0  0  0  0  0
   -2.7558   22.6785  -30.8136 H   0  0  0  0  0  0  0  0  0  0  0  0
  1  2  1  0
  2  3  1  0
  3  4  2  0
  4  5  1  0
  5  6  2  0
  6  7  1  0
  7  8  2  0
  8  9  1  0
  9 10  2  0
 10 11  1  0
 10 12  1  0
 12 13  1  0
 13 14  2  0
 14 15  1  0
 15 16  2  0
 15 17  1  0
  6 18  1  0
 18 19  2  0
 19  3  1  0
 14  8  1  0
  1 20  1  0
  1 21  1  0
  1 22  1  0
  4 23  1  0
  5 24  1  0
 11 25  1  0
 11 26  1  0
 11 27  1  0
 12 28  1  0
 13 29  1  0
 18 30  1  0
 19 31  1  0
M  CHG  2  15   1  17  -1
M  END
>  <smiles>  (28) 
COc1ccc(N=c2nc(C)[nH]cc2[N+](=O)[O-])cc1

>  <score_type>  (28) 
oracle

>  <origin>  (28) 
adg

>  <m_score__min__energy>  (28) 
-6.9299999999999997

>  <m_primary>  (28) 
energy

$$$$
28:0
     RDKit          3D

 52 54  0  0  0  0  0  0  0  0999 V2000
   -0.0960   17.5470  -27.4170 C   0  0  0  0  0  0  0  0  0  0  0  0
   -0.7660   18.8260  -27.8070 C   0  0  0  0  0  0  0  0  0  0  0  0
   -0.2570   19.6090  -28.8450 C   0  0  0  0  0  0  0  0  0  0  0  0
   -0.8930   20.8020  -29.1740 C   0  0  0  0  0  0  0  0  0  0  0  0
   -2.0320   21.2010  -28.4550 C   0  0  0  0  0  0  0  0  0  0  0  0
   -2.7390   22.4270  -28.7650 N   0  0  0  0  0  0  0  0  0  0  0  0
   -4.0470   22.7120  -28.1580 C   0  0  0  0  0  0  0  0  0  0  0  0
   -5.1310   22.8300  -29.2480 C   0  0  0  0  0  0  0  0  0  0  0  0
   -4.5710   23.1890  -30.5780 N   0  0  0  0  0  0  0  0  0  0  0  0
   -5.6060   23.7370  -31.4810 C   0  0  0  0  0  0  0  0  0  0  0  0
   -7.0200   23.2980  -31.0600 C   0  0  0  0  0  0  0  0  0  0  0  0
   -7.5210   22.0370  -31.8070 C   0  0  0  0  0  0  0  0  0  0  0  0
   -8.8740   21.5740  -31.2280 C   0  0  0  0  0  0  0  0  0  0  0  0
   -9.4760   20.4080  -32.0370 C   0  0  0  0  0  0  0  0  0  0  0  0
   -8.4160   19.5090  -32.7030 C   0  0  0  0  0  0  0  0  0  0  0  0
   -7.1190   19.4760  -31.8910 C   0  0  0  0  0  0  0  0  0  0  0  0
   -6.4880   20.8770  -31.7690 C   0  0  0  0  0  0  0  0  0  0  0  0
   -3.4280   24.1120  -30.4470 C   0  0  0  0  0  0  0  0  0  0  0  0
   -2.2520   23.3560  -29.8040 C   0  0  1  0  0  0  0  0  0  0  0  0
   -1.2550   24.3250  -29.2320 C   0  0  0  0  0  0  0  0  0  0  0  0
   -1.5940   25.7030  -29.0770 N   0  0  0  0  0  0  0  0  0  0  0  0
   -0.1000   23.9290  -28.9250 O   0  0  0  0  0  0  0  0  0  0  0  0
   -2.4760   20.3970  -27.4480 N   0  0  0  0  0  0  0  0  0  0  0  0
   -1.8650   19.2540  -27.1330 N   0  0  0  0  0  0  0  0  0  0  0  0
   -0.0572   17.4730  -26.3202 H   0  0  0  0  0  0  0  0  0  0  0  0
   -0.6646   16.6969  -27.8220 H   0  0  0  0  0  0  0  0  0  0  0  0
    0.9266   17.5304  -27.8220 H   0  0  0  0  0  0  0  0  0  0  0  0
    0.6379   19.2859  -29.3971 H   0  0  0  0  0  0  0  0  0  0  0  0
   -0.5066   21.4284  -29.9915 H   0  0  0  0  0  0  0  0  0  0  0  0
   -4.3126   21.8962  -27.4695 H   0  0  0  0  0  0  0  0  0  0  0  0
   -3.9864   23.6641  -27.6104 H   0  0  0  0  0  0  0  0  0  0  0  0
   -5.6502   21.8641  -29.3339 H   0  0  0  0  0  0  0  0  0  0  0  0
   -5.8173   23.6356  -28.9481 H   0  0  0  0  0  0  0  0  0  0  0  0
   -5.5526   24.8355  -31.4592 H   0  0  0  0  0  0  0  0  0  0  0  0
   -5.4153   23.3528  -32.4939 H   0  0  0  0  0  0  0  0  0  0  0  0
   -7.0117   23.0838  -29.9811 H   0  0  0  0  0  0  0  0  0  0  0  0
   -7.7047   24.1201  -31.3157 H   0  0  0  0  0  0  0  0  0  0  0  0
   -7.6543   22.3154  -32.8628 H   0  0  0  0  0  0  0  0  0  0  0  0
   -8.7226   21.2454  -30.1892 H   0  0  0  0  0  0  0  0  0  0  0  0
   -9.5741   22.4210  -31.2777 H   0  0  0  0  0  0  0  0  0  0  0  0
  -10.0805   19.7888  -31.3579 H   0  0  0  0  0  0  0  0  0  0  0  0
  -10.0773   20.8513  -32.8444 H   0  0  0  0  0  0  0  0  0  0  0  0
   -8.8137   18.4866  -32.7832 H   0  0  0  0  0  0  0  0  0  0  0  0
   -8.1902   19.9202  -33.6979 H   0  0  0  0  0  0  0  0  0  0  0  0
   -7.3390   19.0949  -30.8828 H   0  0  0  0  0  0  0  0  0  0  0  0
   -6.4044   18.8218  -32.4120 H   0  0  0  0  0  0  0  0  0  0  0  0
   -5.9427   20.9296  -30.8151 H   0  0  0  0  0  0  0  0  0  0  0  0
   -5.8284   21.0075  -32.6396 H   0  0  0  0  0  0  0  0  0  0  0  0
   -3.1327   24.4784  -31.4413 H   0  0  0  0  0  0  0  0  0  0  0  0
   -3.7099   24.9695  -29.8183 H   0  0  0  0  0  0  0  0  0  0  0  0
   -1.7485   22.7641  -30.5826 H   0  0  0  0  0  0  0  0  0  0  0  0
   -1.1930   26.4270  -29.7130 H   0  0  0  0  0  0  0  0  0  0  0  0
  1  2  1  0
  2  3  2  0
  3  4  1  0
  4  5  2  0
  5  6  1  0
  6  7  1  0
  7  8  1  0
  8  9  1  0
  9 10  1  0
 10 11  1  0
 11 12  1  0
 12 13  1  0
 13 14  1  0
 14 15  1  0
 15 16  1  0
 16 17  1  0
  9 18  1  0
 18 19  1  0
 19 20  1  0
 20 21  1  0
 20 22  2  0
  5 23  1  0
 23 24  2  0
 24  2  1  0
 19  6  1  0
 17 12  1  0
  1 25  1  0
  1 26  1  0
  1 27  1  0
  3 28  1  0
  4 29  1  0
  7 30  1  0
  7 31  1  0
  8 32  1  0
  8 33  1  0
 10 34  1  0
 10 35  1  0
 11 36  1  0
 11 37  1  0
 12 38  1  0
 13 39  1  0
 13 40  1  0
 14 41  1  0
 14 42  1  0
 15 43  1  0
 15 44  1  0
 16 45  1  0
 16 46  1  0
 17 47  1  0
 17 48  1  0
 18 49  1  0
 18 50  1  0
 19 51  1  6
 21 52  1  0
M  CHG  1  21  -1
M  END
>  <UniqueID>  (29) 
26

>  <SMILES>  (29) 
Cc1ccc(N2CCN(CCC3CCCCC3)C[C@H]2C([NH-])=O)nn1

>  <Energy>  (29) 
59.36718283773115

>  <Genealogy>  (29) 
Cc1ccc(N2CCN(CCC3CCCCC3)CC2C([NH-])=O)nn1 (protonated)
Cc1ccc(N2CCN(CCC3CCCCC3)C[C@H]2C([NH-])=O)nn1 (chirality)
Cc1ccc(N2CCN(CCC3CCCCC3)C[C@H]2C([NH-])=O)nn1 (3D coordinates assigned)
Cc1ccc(N2CCN(CCC3CCCCC3)C[C@H]2C([NH-])=O)nn1 (nonaromatic ring conformer: 59.36718283773115 kcal/mol)

>  <smiles>  (29) 
Cc1ccc(N2CCN(CCC3CCCCC3)CC2C(N)=O)nn1

>  <score_type>  (29) 
oracle

>  <origin>  (29) 
adg

>  <m_score__min__energy>  (29) 
-11.18

>  <m_primary>  (29) 
energy

$$$$
29:0
     RDKit          3D

 48 51  0  0  0  0  0  0  0  0999 V2000
   -9.7880   22.9880  -32.3510 F   0  0  0  0  0  0  0  0  0  0  0  0
   -9.1860   21.8850  -31.7730 C   0  0  0  0  0  0  0  0  0  0  0  0
   -9.2900   20.8170  -32.6450 F   0  0  0  0  0  0  0  0  0  0  0  0
   -9.8400   21.5850  -30.5940 F   0  0  0  0  0  0  0  0  0  0  0  0
   -7.7460   22.1900  -31.4880 C   0  0  0  0  0  0  0  0  0  0  0  0
   -7.3530   23.3130  -30.9110 O   0  0  0  0  0  0  0  0  0  0  0  0
   -6.0460   23.2800  -30.8130 C   0  0  0  0  0  0  0  0  0  0  0  0
   -5.2150   24.2530  -30.2660 C   0  0  0  0  0  0  0  0  0  0  0  0
   -3.8180   24.0080  -30.2520 C   0  0  0  0  0  0  0  0  0  0  0  0
   -2.8950   24.9260  -29.7270 O   0  0  0  0  0  0  0  0  0  0  0  0
   -2.2080   24.7920  -28.4820 C   0  0  0  0  0  0  0  0  0  0  0  0
   -2.8170   23.6670  -27.6310 C   0  0  0  0  0  0  0  0  0  0  0  0
   -2.2110   22.3540  -27.9440 N   0  0  0  0  0  0  0  0  0  0  0  0
   -3.1860   21.2490  -27.7860 C   0  0  0  0  0  0  0  0  0  0  0  0
   -2.4730   19.9140  -27.5140 C   0  0  0  0  0  0  0  0  0  0  0  0
   -1.6950   19.9140  -26.3240 O   0  0  0  0  0  0  0  0  0  0  0  0
   -1.2030   21.1980  -25.9640 C   0  0  0  0  0  0  0  0  0  0  0  0
   -0.9670   22.1280  -27.1670 C   0  0  0  0  0  0  0  0  0  0  0  0
   -3.3200   22.7900  -30.7710 C   0  0  0  0  0  0  0  0  0  0  0  0
   -4.1870   21.8270  -31.3160 C   0  0  0  0  0  0  0  0  0  0  0  0
   -5.5520   22.1120  -31.3300 C   0  0  0  0  0  0  0  0  0  0  0  0
   -6.6390   21.3800  -31.7680 C   0  0  0  0  0  0  0  0  0  0  0  0
   -6.6150   20.0490  -32.4080 C   0  0  0  0  0  0  0  0  0  0  0  0
   -7.0940   18.9190  -31.7240 C   0  0  0  0  0  0  0  0  0  0  0  0
   -7.0670   17.6620  -32.3360 C   0  0  0  0  0  0  0  0  0  0  0  0
   -6.5610   17.5230  -33.6300 C   0  0  0  0  0  0  0  0  0  0  0  0
   -6.0780   18.6410  -34.3150 C   0  0  0  0  0  0  0  0  0  0  0  0
   -6.1020   19.9000  -33.7070 C   0  0  0  0  0  0  0  0  0  0  0  0
   -5.6298   25.1857  -29.8561 H   0  0  0  0  0  0  0  0  0  0  0  0
   -1.1506   24.5613  -28.6785 H   0  0  0  0  0  0  0  0  0  0  0  0
   -2.3016   25.7379  -27.9284 H   0  0  0  0  0  0  0  0  0  0  0  0
   -2.6481   23.8931  -26.5678 H   0  0  0  0  0  0  0  0  0  0  0  0
   -3.8922   23.6106  -27.8564 H   0  0  0  0  0  0  0  0  0  0  0  0
   -3.8540   21.4776  -26.9425 H   0  0  0  0  0  0  0  0  0  0  0  0
   -3.7596   21.1540  -28.7198 H   0  0  0  0  0  0  0  0  0  0  0  0
   -3.2342   19.1242  -27.4313 H   0  0  0  0  0  0  0  0  0  0  0  0
   -1.7802   19.7430  -28.3512 H   0  0  0  0  0  0  0  0  0  0  0  0
   -1.9336   21.6749  -25.2941 H   0  0  0  0  0  0  0  0  0  0  0  0
   -0.2276   21.0448  -25.4791 H   0  0  0  0  0  0  0  0  0  0  0  0
   -0.5958   23.0964  -26.8004 H   0  0  0  0  0  0  0  0  0  0  0  0
   -0.2331   21.6475  -27.8306 H   0  0  0  0  0  0  0  0  0  0  0  0
   -2.2380   22.5934  -30.7478 H   0  0  0  0  0  0  0  0  0  0  0  0
   -3.8010   20.8789  -31.7186 H   0  0  0  0  0  0  0  0  0  0  0  0
   -7.4916   19.0235  -30.7037 H   0  0  0  0  0  0  0  0  0  0  0  0
   -7.4452   16.7809  -31.7969 H   0  0  0  0  0  0  0  0  0  0  0  0
   -6.5426   16.5335  -34.1101 H   0  0  0  0  0  0  0  0  0  0  0  0
   -5.6784   18.5306  -35.3339 H   0  0  0  0  0  0  0  0  0  0  0  0
   -5.7176   20.7771  -34.2482 H   0  0  0  0  0  0  0  0  0  0  0  0
  1  2  1  0
  2  3  1  0
  2  4  1  0
  2  5  1  0
  5  6  1  0
  6  7  1  0
  7  8  2  0
  8  9  1  0
  9 10  1  0
 10 11  1  0
 11 12  1  0
 12 13  1  0
 13 14  1  0
 14 15  1  0
 15 16  1  0
 16 17  1  0
 17 18  1  0
  9 19  2  0
 19 20  1  0
 20 21  2  0
 21 22  1  0
 22 23  1  0
 23 24  2  0
 24 25  1  0
 25 26  2  0
 26 27  1  0
 27 28  2  0
 22  5  2  0
 28 23  1  0
 21  7  1  0
 18 13  1  0
  8 29  1  0
 11 30  1  0
 11 31  1  0
 12 32  1  0
 12 33  1  0
 14 34  1  0
 14 35  1  0
 15 36  1  0
 15 37  1  0
 17 38  1  0
 17 39  1  0
 18 40  1  0
 18 41  1  0
 19 42  1  0
 20 43  1  0
 24 44  1  0
 25 45  1  0
 26 46  1  0
 27 47  1  0
 28 48  1  0
M  END
>  <UniqueID>  (30) 
27

>  <SMILES>  (30) 
FC(F)(F)c1oc2cc(OCCN3CCOCC3)ccc2c1-c1ccccc1

>  <Energy>  (30) 
103.87378949721784

>  <Genealogy>  (30) 
FC(F)(F)c1oc2cc(OCCN3CCOCC3)ccc2c1-c1ccccc1 (3D coordinates assigned)
FC(F)(F)c1oc2cc(OCCN3CCOCC3)ccc2c1-c1ccccc1 (nonaromatic ring conformer: 103.87378949721784 kcal/mol)

>  <smiles>  (30) 
FC(F)(F)c1oc2cc(OCCN3CCOCC3)ccc2c1-c1ccccc1

>  <score_type>  (30) 
oracle

>  <origin>  (30) 
adg

>  <m_score__min__energy>  (30) 
-8.5999999999999996

>  <m_primary>  (30) 
energy

$$$$
30:0
     RDKit          3D

 39 42  0  0  0  0  0  0  0  0999 V2000
   -3.9820   24.2200  -26.7050 C   0  0  0  0  0  0  0  0  0  0  0  0
   -3.3240   23.1570  -27.5240 C   0  0  0  0  0  0  0  0  0  0  0  0
   -3.2050   21.9090  -27.1380 O   0  0  0  0  0  0  0  0  0  0  0  0
   -2.5790   21.1960  -28.0270 N   0  0  0  0  0  0  0  0  0  0  0  0
   -2.2730   22.0130  -29.0550 C   0  0  0  0  0  0  0  0  0  0  0  0
   -1.6000   21.5390  -30.2820 C   0  0  0  0  0  0  0  0  0  0  0  0
   -2.1490   21.8420  -31.5390 C   0  0  0  0  0  0  0  0  0  0  0  0
   -1.5080   21.4220  -32.7090 C   0  0  0  0  0  0  0  0  0  0  0  0
   -0.3070   20.7120  -32.6330 C   0  0  0  0  0  0  0  0  0  0  0  0
    0.2590   20.4280  -31.3880 C   0  0  0  0  0  0  0  0  0  0  0  0
   -0.3790   20.8460  -30.2160 C   0  0  0  0  0  0  0  0  0  0  0  0
   -2.7320   23.2940  -28.7690 C   0  0  0  0  0  0  0  0  0  0  0  0
   -2.5320   24.5380  -29.5400 C   0  0  0  0  0  0  0  0  0  0  0  0
   -1.5220   25.2570  -29.3170 O   0  0  0  0  0  0  0  0  0  0  0  0
   -3.5240   24.9600  -30.4840 N   0  0  0  0  0  0  0  0  0  0  0  0
   -4.8240   24.3840  -30.6710 C   0  0  0  0  0  0  0  0  0  0  0  0
   -5.9960   25.0380  -30.2470 C   0  0  0  0  0  0  0  0  0  0  0  0
   -7.2500   24.4570  -30.4670 C   0  0  0  0  0  0  0  0  0  0  0  0
   -7.3470   23.2270  -31.1240 C   0  0  0  0  0  0  0  0  0  0  0  0
   -8.5650   22.6600  -31.3400 N   0  0  0  0  0  0  0  0  0  0  0  0
   -8.6950   21.4690  -31.9820 C   0  0  0  0  0  0  0  0  0  0  0  0
   -7.5620   20.7920  -32.4430 C   0  0  0  0  0  0  0  0  0  0  0  0
   -6.2980   21.3480  -32.2390 C   0  0  0  0  0  0  0  0  0  0  0  0
   -6.1770   22.5760  -31.5750 C   0  0  0  0  0  0  0  0  0  0  0  0
   -4.9230   23.1630  -31.3520 C   0  0  0  0  0  0  0  0  0  0  0  0
   -3.8443   23.9976  -25.6366 H   0  0  0  0  0  0  0  0  0  0  0  0
   -3.5293   25.1951  -26.9378 H   0  0  0  0  0  0  0  0  0  0  0  0
   -5.0567   24.2497  -26.9378 H   0  0  0  0  0  0  0  0  0  0  0  0
   -3.0874   22.4123  -31.6034 H   0  0  0  0  0  0  0  0  0  0  0  0
   -1.9498   21.6509  -33.6900 H   0  0  0  0  0  0  0  0  0  0  0  0
    0.1928   20.3767  -33.5537 H   0  0  0  0  0  0  0  0  0  0  0  0
    1.2079   19.8748  -31.3294 H   0  0  0  0  0  0  0  0  0  0  0  0
    0.0767   20.6315  -29.2381 H   0  0  0  0  0  0  0  0  0  0  0  0
   -5.9259   26.0115  -29.7397 H   0  0  0  0  0  0  0  0  0  0  0  0
   -8.1606   24.9690  -30.1224 H   0  0  0  0  0  0  0  0  0  0  0  0
   -9.6942   21.0367  -32.1392 H   0  0  0  0  0  0  0  0  0  0  0  0
   -7.6659   19.8281  -32.9627 H   0  0  0  0  0  0  0  0  0  0  0  0
   -5.4000   20.8240  -32.5982 H   0  0  0  0  0  0  0  0  0  0  0  0
   -4.0125   22.6626  -31.7134 H   0  0  0  0  0  0  0  0  0  0  0  0
  1  2  1  0
  2  3  1  0
  3  4  1  0
  4  5  2  0
  5  6  1  0
  6  7  2  0
  7  8  1  0
  8  9  2  0
  9 10  1  0
 10 11  2  0
  5 12  1  0
 12 13  1  0
 13 14  2  0
 13 15  1  0
 15 16  1  0
 16 17  2  0
 17 18  1  0
 18 19  2  0
 19 20  1  0
 20 21  2  0
 21 22  1  0
 22 23  2  0
 23 24  1  0
 24 25  2  0
 12  2  2  0
 25 16  1  0
 11  6  1  0
 24 19  1  0
  1 26  1  0
  1 27  1  0
  1 28  1  0
  7 29  1  0
  8 30  1  0
  9 31  1  0
 10 32  1  0
 11 33  1  0
 17 34  1  0
 18 35  1  0
 21 36  1  0
 22 37  1  0
 23 38  1  0
 25 39  1  0
M  CHG  1  15  -1
M  END
>  <UniqueID>  (31) 
28

>  <SMILES>  (31) 
Cc1onc(-c2ccccc2)c1C(=O)[N-]c1ccc2ncccc2c1

>  <Energy>  (31) 
86.2737439569295

>  <Genealogy>  (31) 
Cc1onc(-c2ccccc2)c1C(=O)[N-]c1ccc2ncccc2c1 (protonated)
Cc1onc(-c2ccccc2)c1C(=O)[N-]c1ccc2ncccc2c1 (3D coordinates assigned)
Cc1onc(-c2ccccc2)c1C(=O)[N-]c1ccc2ncccc2c1 (optimized conformer: 86.2737439569295 kcal/mol)

>  <smiles>  (31) 
Cc1onc(-c2ccccc2)c1C(=O)Nc1ccc2ncccc2c1

>  <score_type>  (31) 
oracle

>  <origin>  (31) 
adg

>  <m_score__min__energy>  (31) 
-9.8399999999999999

>  <m_primary>  (31) 
energy

$$$$
31:0
     RDKit          3D

 34 35  0  0  0  0  0  0  0  0999 V2000
   -0.3600   19.8750  -27.5470 C   0  0  0  0  0  0  0  0  0  0  0  0
   -0.1590   21.2790  -27.6710 O   0  0  0  0  0  0  0  0  0  0  0  0
   -1.0090   22.1410  -28.3790 C   0  0  0  0  0  0  0  0  0  0  0  0
   -0.7980   23.5200  -28.2710 C   0  0  0  0  0  0  0  0  0  0  0  0
   -1.6200   24.4210  -28.9550 C   0  0  0  0  0  0  0  0  0  0  0  0
   -2.6670   23.9560  -29.7590 C   0  0  0  0  0  0  0  0  0  0  0  0
   -3.4900   24.9160  -30.4370 N   0  0  0  0  0  0  0  0  0  0  0  0
   -5.2230   24.9220  -30.4420 S   0  0  0  0  0  0  0  0  0  0  0  0
   -5.7090   26.1190  -31.2130 O   0  0  0  0  0  0  0  0  0  0  0  0
   -5.7200   25.0180  -29.0270 O   0  0  0  0  0  0  0  0  0  0  0  0
   -5.8270   23.4300  -31.1570 C   0  0  0  0  0  0  0  0  0  0  0  0
   -5.0810   22.7570  -32.1370 C   0  0  0  0  0  0  0  0  0  0  0  0
   -5.5610   21.5670  -32.6900 C   0  0  0  0  0  0  0  0  0  0  0  0
   -6.7920   21.0440  -32.2720 C   0  0  0  0  0  0  0  0  0  0  0  0
   -7.4040   19.5150  -32.9790 S   0  0  0  0  0  0  0  0  0  0  0  0
   -9.0810   19.7320  -32.3030 C   0  0  0  0  0  0  0  0  0  0  0  0
   -7.5360   21.7140  -31.2930 C   0  0  0  0  0  0  0  0  0  0  0  0
   -7.0560   22.9040  -30.7390 C   0  0  0  0  0  0  0  0  0  0  0  0
   -2.8800   22.5700  -29.8760 C   0  0  0  0  0  0  0  0  0  0  0  0
   -2.0590   21.6700  -29.1890 C   0  0  0  0  0  0  0  0  0  0  0  0
   -0.3990   19.6028  -26.4819 H   0  0  0  0  0  0  0  0  0  0  0  0
   -1.3072   19.5960  -28.0316 H   0  0  0  0  0  0  0  0  0  0  0  0
    0.4709   19.3414  -28.0316 H   0  0  0  0  0  0  0  0  0  0  0  0
    0.0216   23.8986  -27.6426 H   0  0  0  0  0  0  0  0  0  0  0  0
   -1.4426   25.5025  -28.8605 H   0  0  0  0  0  0  0  0  0  0  0  0
   -4.1164   23.1673  -32.4704 H   0  0  0  0  0  0  0  0  0  0  0  0
   -4.9716   21.0399  -33.4547 H   0  0  0  0  0  0  0  0  0  0  0  0
   -9.0369   19.7263  -31.2039 H   0  0  0  0  0  0  0  0  0  0  0  0
   -9.4943   20.6911  -32.6484 H   0  0  0  0  0  0  0  0  0  0  0  0
   -9.7248   18.9097  -32.6484 H   0  0  0  0  0  0  0  0  0  0  0  0
   -8.5002   21.3029  -30.9593 H   0  0  0  0  0  0  0  0  0  0  0  0
   -7.6451   23.4290  -29.9726 H   0  0  0  0  0  0  0  0  0  0  0  0
   -3.6956   22.1928  -30.5104 H   0  0  0  0  0  0  0  0  0  0  0  0
   -2.2349   20.5882  -29.2823 H   0  0  0  0  0  0  0  0  0  0  0  0
  1  2  1  0
  2  3  1  0
  3  4  2  0
  4  5  1  0
  5  6  2  0
  6  7  1  0
  7  8  1  0
  8  9  2  0
  8 10  2  0
  8 11  1  0
 11 12  2  0
 12 13  1  0
 13 14  2  0
 14 15  1  0
 15 16  1  0
 14 17  1  0
 17 18  2  0
  6 19  1  0
 19 20  2  0
 20  3  1  0
 18 11  1  0
  1 21  1  0
  1 22  1  0
  1 23  1  0
  4 24  1  0
  5 25  1  0
 12 26  1  0
 13 27  1  0
 16 28  1  0
 16 29  1  0
 16 30  1  0
 17 31  1  0
 18 32  1  0
 19 33  1  0
 20 34  1  0
M  CHG  1   7  -1
M  END
>  <UniqueID>  (32) 
29

>  <SMILES>  (32) 
COc1ccc([N-]S(=O)(=O)c2ccc(SC)cc2)cc1

>  <Energy>  (32) 
32.41784970273585

>  <Genealogy>  (32) 
COc1ccc([N-]S(=O)(=O)c2ccc(SC)cc2)cc1 (protonated)
COc1ccc([N-]S(=O)(=O)c2ccc(SC)cc2)cc1 (3D coordinates assigned)
COc1ccc([N-]S(=O)(=O)c2ccc(SC)cc2)cc1 (optimized conformer: 32.41784970273585 kcal/mol)

>  <smiles>  (32) 
COc1ccc(NS(=O)(=O)c2ccc(SC)cc2)cc1

>  <score_type>  (32) 
oracle

>  <origin>  (32) 
adg

>  <m_score__min__energy>  (32) 
-8.5500000000000007

>  <m_primary>  (32) 
energy

$$$$
32:0
     RDKit          3D

 44 45  0  0  0  0  0  0  0  0999 V2000
   -6.3923   26.2939  -30.7136 H   0  0  0  0  0  0  0  0  0  0  0  0
   -6.1960   25.2470  -30.4390 C   0  0  0  0  0  0  0  0  0  0  0  0
   -4.8150   24.8920  -30.0580 C   0  0  0  0  0  0  0  0  0  0  0  0
   -3.8650   25.2960  -30.7810 O   0  0  0  0  0  0  0  0  0  0  0  0
   -4.5390   24.1590  -28.8540 N   0  0  0  0  0  0  0  0  0  0  0  0
   -5.3020   24.0060  -28.1560 H   0  0  0  0  0  0  0  0  0  0  0  0
   -3.2140   23.6240  -28.5530 C   0  0  0  0  0  0  0  0  0  0  0  0
   -3.2983   22.8746  -27.7522 H   0  0  0  0  0  0  0  0  0  0  0  0
   -2.8003   23.1599  -29.4604 H   0  0  0  0  0  0  0  0  0  0  0  0
   -2.3020   24.7210  -28.1080 C   0  0  0  0  0  0  0  0  0  0  0  0
   -1.7750   25.6130  -28.9160 O   0  0  0  0  0  0  0  0  0  0  0  0
   -1.0430   26.4380  -28.2030 C   0  0  0  0  0  0  0  0  0  0  0  0
   -0.4742   27.2890  -28.6058 H   0  0  0  0  0  0  0  0  0  0  0  0
   -1.0950   26.0760  -26.8710 C   0  0  0  0  0  0  0  0  0  0  0  0
   -0.5881   26.5726  -26.0305 H   0  0  0  0  0  0  0  0  0  0  0  0
   -1.9110   24.9660  -26.8080 C   0  0  0  0  0  0  0  0  0  0  0  0
   -2.1912   24.3959  -25.9100 H   0  0  0  0  0  0  0  0  0  0  0  0
   -7.2310   24.3940  -30.4770 C   0  0  0  0  0  0  0  0  0  0  0  0
   -8.1260   24.6576  -29.8944 H   0  0  0  0  0  0  0  0  0  0  0  0
   -7.2640   23.1260  -31.2410 C   0  0  0  0  0  0  0  0  0  0  0  0
   -8.4150   22.3270  -31.2770 C   0  0  0  0  0  0  0  0  0  0  0  0
   -9.3182   22.6437  -30.7348 H   0  0  0  0  0  0  0  0  0  0  0  0
   -8.4210   21.1320  -31.9970 C   0  0  0  0  0  0  0  0  0  0  0  0
   -9.3335   20.5185  -32.0291 H   0  0  0  0  0  0  0  0  0  0  0  0
   -7.2690   20.7060  -32.6820 C   0  0  0  0  0  0  0  0  0  0  0  0
   -7.2320   19.5140  -33.4260 O   0  0  0  0  0  0  0  0  0  0  0  0
   -6.4090   18.3810  -33.1440 C   0  0  0  0  0  0  0  0  0  0  0  0
   -7.0323   17.5779  -32.7239 H   0  0  0  0  0  0  0  0  0  0  0  0
   -5.6328   18.6791  -32.4238 H   0  0  0  0  0  0  0  0  0  0  0  0
   -5.7310   17.8760  -34.4130 C   0  0  0  0  0  0  0  0  0  0  0  0
   -4.8758   17.2390  -34.1432 H   0  0  0  0  0  0  0  0  0  0  0  0
   -6.4506   17.2921  -35.0056 H   0  0  0  0  0  0  0  0  0  0  0  0
   -5.3776   18.7326  -35.0056 H   0  0  0  0  0  0  0  0  0  0  0  0
   -6.1000   21.4830  -32.6220 C   0  0  0  0  0  0  0  0  0  0  0  0
   -4.9620   21.0200  -33.3040 O   0  0  0  0  0  0  0  0  0  0  0  0
   -3.6370   21.5310  -33.1620 C   0  0  0  0  0  0  0  0  0  0  0  0
   -3.4927   22.3608  -33.8696 H   0  0  0  0  0  0  0  0  0  0  0  0
   -3.5033   21.8819  -32.1281 H   0  0  0  0  0  0  0  0  0  0  0  0
   -2.6050   20.4460  -33.4470 C   0  0  0  0  0  0  0  0  0  0  0  0
   -2.2231   20.0445  -32.4968 H   0  0  0  0  0  0  0  0  0  0  0  0
   -3.0744   19.6363  -34.0250 H   0  0  0  0  0  0  0  0  0  0  0  0
   -1.7728   20.8742  -34.0250 H   0  0  0  0  0  0  0  0  0  0  0  0
   -6.1020   22.6860  -31.8870 C   0  0  0  0  0  0  0  0  0  0  0  0
   -5.1818   23.2849  -31.8203 H   0  0  0  0  0  0  0  0  0  0  0  0
  1  2  1  0
  2  3  1  0
  3  4  2  0
  3  5  1  0
  5  6  1  0
  5  7  1  0
  7  8  1  0
  7  9  1  0
  7 10  1  0
 10 11  1  0
 11 12  1  0
 12 13  1  0
 12 14  2  0
 14 15  1  0
 14 16  1  0
 16 17  1  0
  2 18  2  0
 18 19  1  0
 18 20  1  0
 20 21  2  0
 21 22  1  0
 21 23  1  0
 23 24  1  0
 23 25  2  0
 25 26  1  0
 26 27  1  0
 27 28  1  0
 27 29  1  0
 27 30  1  0
 30 31  1  0
 30 32  1  0
 30 33  1  0
 25 34  1  0
 34 35  1  0
 35 36  1  0
 36 37  1  0
 36 38  1  0
 36 39  1  0
 39 40  1  0
 39 41  1  0
 39 42  1  0
 34 43  2  0
 43 44  1  0
 16 10  2  0
 43 20  1  0
M  END
>  <UniqueID>  (33) 
30

>  <SMILES>  (33) 
CCOc1ccc(/C=C\C(=O)NCc2ccco2)cc1OCC

>  <Energy>  (33) 
70.0959154471043

>  <Genealogy>  (33) 
CCOc1ccc(/C=C\C(=O)NCc2ccco2)cc1OCC (cis-trans isomerization)
CCOc1ccc(/C=C\C(=O)NCc2ccco2)cc1OCC (3D coordinates assigned)
CCOc1ccc(/C=C\C(=O)NCc2ccco2)cc1OCC (optimized conformer: 70.0959154471043 kcal/mol)

>  <smiles>  (33) 
CCOc1ccc(C=CC(=O)NCc2ccco2)cc1OCC

>  <score_type>  (33) 
oracle

>  <origin>  (33) 
adg

>  <m_score__min__energy>  (33) 
-8.3900000000000006

>  <m_primary>  (33) 
energy

$$$$
33:0
     RDKit          3D

 36 37  0  0  0  0  0  0  0  0999 V2000
   -3.1030   19.4650  -27.0800 C   0  0  0  0  0  0  0  0  0  0  0  0
   -2.5220   20.7950  -27.4630 C   0  0  0  0  0  0  0  0  0  0  0  0
   -1.3210   21.2310  -26.8940 C   0  0  0  0  0  0  0  0  0  0  0  0
   -0.7940   22.4790  -27.2310 C   0  0  0  0  0  0  0  0  0  0  0  0
   -1.4650   23.3270  -28.1310 C   0  0  0  0  0  0  0  0  0  0  0  0
   -0.8900   24.6650  -28.4190 C   0  0  0  0  0  0  0  0  0  0  0  0
   -1.7070   25.6930  -28.9780 N   0  0  0  0  0  0  0  0  0  0  0  0
    0.3280   24.9020  -28.2040 O   0  0  0  0  0  0  0  0  0  0  0  0
   -2.6910   22.8930  -28.6990 C   0  0  0  0  0  0  0  0  0  0  0  0
   -3.3630   23.6770  -29.6970 N   0  0  0  0  0  0  0  0  0  0  0  0
   -4.4980   24.5030  -29.4030 C   0  0  0  0  0  0  0  0  0  0  0  0
   -4.7120   24.8960  -28.2250 O   0  0  0  0  0  0  0  0  0  0  0  0
   -5.4180   24.9380  -30.5050 C   0  0  0  0  0  0  0  0  0  0  0  0
   -5.3510   24.0290  -31.6040 O   0  0  0  0  0  0  0  0  0  0  0  0
   -6.1770   22.9060  -31.7810 C   0  0  0  0  0  0  0  0  0  0  0  0
   -7.5500   22.9230  -31.4610 C   0  0  0  0  0  0  0  0  0  0  0  0
   -8.3310   21.7790  -31.6370 C   0  0  0  0  0  0  0  0  0  0  0  0
   -7.7560   20.6080  -32.1400 C   0  0  0  0  0  0  0  0  0  0  0  0
   -8.7390   19.1720  -32.3590 Cl  0  0  0  0  0  0  0  0  0  0  0  0
   -6.3980   20.5830  -32.4690 C   0  0  0  0  0  0  0  0  0  0  0  0
   -5.6110   21.7270  -32.2920 C   0  0  0  0  0  0  0  0  0  0  0  0
   -3.9040   21.6650  -32.7030 Cl  0  0  0  0  0  0  0  0  0  0  0  0
   -3.2060   21.6310  -28.3540 C   0  0  0  0  0  0  0  0  0  0  0  0
   -3.1390   19.3826  -25.9837 H   0  0  0  0  0  0  0  0  0  0  0  0
   -4.1209   19.3784  -27.4878 H   0  0  0  0  0  0  0  0  0  0  0  0
   -2.4748   18.6593  -27.4878 H   0  0  0  0  0  0  0  0  0  0  0  0
   -0.7892   20.5875  -26.1776 H   0  0  0  0  0  0  0  0  0  0  0  0
    0.1586   22.8037  -26.7870 H   0  0  0  0  0  0  0  0  0  0  0  0
   -2.7440   25.6760  -28.8620 H   0  0  0  0  0  0  0  0  0  0  0  0
   -3.0530   23.5940  -30.6920 H   0  0  0  0  0  0  0  0  0  0  0  0
   -6.4494   24.9689  -30.1238 H   0  0  0  0  0  0  0  0  0  0  0  0
   -5.1100   25.9358  -30.8509 H   0  0  0  0  0  0  0  0  0  0  0  0
   -8.0088   23.8432  -31.0703 H   0  0  0  0  0  0  0  0  0  0  0  0
   -9.4003   21.7991  -31.3795 H   0  0  0  0  0  0  0  0  0  0  0  0
   -5.9467   19.6625  -32.8678 H   0  0  0  0  0  0  0  0  0  0  0  0
   -4.1588   21.2960  -28.7898 H   0  0  0  0  0  0  0  0  0  0  0  0
  1  2  1  0
  2  3  2  0
  3  4  1  0
  4  5  2  0
  5  6  1  0
  6  7  1  0
  6  8  2  0
  5  9  1  0
  9 10  1  0
 10 11  1  0
 11 12  2  0
 11 13  1  0
 13 14  1  0
 14 15  1  0
 15 16  2  0
 16 17  1  0
 17 18  2  0
 18 19  1  0
 18 20  1  0
 20 21  2  0
 21 22  1  0
  9 23  2  0
 23  2  1  0
 21 15  1  0
  1 24  1  0
  1 25  1  0
  1 26  1  0
  3 27  1  0
  4 28  1  0
  7 29  1  0
 10 30  1  0
 13 31  1  0
 13 32  1  0
 16 33  1  0
 17 34  1  0
 20 35  1  0
 23 36  1  0
M  CHG  1   7  -1
M  END
>  <UniqueID>  (34) 
31

>  <SMILES>  (34) 
Cc1ccc(C([NH-])=O)c(NC(=O)COc2ccc(Cl)cc2Cl)c1

>  <Energy>  (34) 
41.482941026683726

>  <Genealogy>  (34) 
Cc1ccc(C([NH-])=O)c(NC(=O)COc2ccc(Cl)cc2Cl)c1 (protonated)
Cc1ccc(C([NH-])=O)c(NC(=O)COc2ccc(Cl)cc2Cl)c1 (3D coordinates assigned)
Cc1ccc(C([NH-])=O)c(NC(=O)COc2ccc(Cl)cc2Cl)c1 (optimized conformer: 41.482941026683726 kcal/mol)

>  <smiles>  (34) 
Cc1ccc(C(N)=O)c(NC(=O)COc2ccc(Cl)cc2Cl)c1

>  <score_type>  (34) 
oracle

>  <origin>  (34) 
adg

>  <m_score__min__energy>  (34) 
-11.08

>  <m_primary>  (34) 
energy

$$$$
34:0
     RDKit          3D

 47 49  0  0  0  0  0  0  0  0999 V2000
   -3.2070   16.2430  -35.3110 C   0  0  0  0  0  0  0  0  0  0  0  0
   -4.3620   16.6870  -34.4610 C   0  0  0  0  0  0  0  0  0  0  0  0
   -5.3640   17.5070  -35.0010 C   0  0  0  0  0  0  0  0  0  0  0  0
   -6.4540   17.8980  -34.2190 C   0  0  0  0  0  0  0  0  0  0  0  0
   -6.5560   17.4860  -32.8800 C   0  0  0  0  0  0  0  0  0  0  0  0
   -7.7460   17.9010  -32.0370 C   0  0  0  0  0  0  0  0  0  0  0  0
   -7.8530   19.3770  -31.8710 N   0  0  2  0  0  0  0  0  0  0  0  0
   -9.0360   19.9340  -32.5810 C   0  0  0  0  0  0  0  0  0  0  0  0
   -9.6150   21.2070  -31.9610 C   0  0  0  0  0  0  0  0  0  0  0  0
   -8.8730   21.5840  -30.8220 O   0  0  0  0  0  0  0  0  0  0  0  0
   -7.7100   22.3390  -31.1280 C   0  0  1  0  0  0  0  0  0  0  0  0
   -6.9890   22.9230  -29.8880 C   0  0  0  0  0  0  0  0  0  0  0  0
   -5.9910   23.9610  -30.2580 N   0  0  0  0  0  0  0  0  0  0  0  0
   -6.5400   25.3180  -30.1070 C   0  0  0  0  0  0  0  0  0  0  0  0
   -5.3920   23.7850  -31.6040 C   0  0  0  0  0  0  0  0  0  0  0  0
   -5.3110   22.3070  -32.0100 C   0  0  0  0  0  0  0  0  0  0  0  0
   -6.7230   21.6860  -32.1510 C   0  0  1  0  0  0  0  0  0  0  0  0
   -6.5980   20.1340  -32.1320 C   0  0  0  0  0  0  0  0  0  0  0  0
   -5.5740   16.6280  -32.3550 C   0  0  0  0  0  0  0  0  0  0  0  0
   -4.4830   16.2340  -33.1370 C   0  0  0  0  0  0  0  0  0  0  0  0
   -3.5500   15.4050  -32.6060 F   0  0  0  0  0  0  0  0  0  0  0  0
   -2.3768   15.9239  -34.6638 H   0  0  0  0  0  0  0  0  0  0  0  0
   -3.5212   15.4016  -35.9460 H   0  0  0  0  0  0  0  0  0  0  0  0
   -2.8767   17.0782  -35.9460 H   0  0  0  0  0  0  0  0  0  0  0  0
   -5.2912   17.8440  -36.0456 H   0  0  0  0  0  0  0  0  0  0  0  0
   -7.2385   18.5336  -34.6555 H   0  0  0  0  0  0  0  0  0  0  0  0
   -8.6635   17.5349  -32.5209 H   0  0  0  0  0  0  0  0  0  0  0  0
   -7.6090   17.4657  -31.0361 H   0  0  0  0  0  0  0  0  0  0  0  0
   -8.0650   19.5360  -30.8580 H   0  0  0  0  0  0  0  0  0  0  0  0
   -8.7386   20.1617  -33.6153 H   0  0  0  0  0  0  0  0  0  0  0  0
   -9.8250   19.1705  -32.5147 H   0  0  0  0  0  0  0  0  0  0  0  0
   -9.5785   22.0193  -32.7018 H   0  0  0  0  0  0  0  0  0  0  0  0
  -10.6553   21.0144  -31.6599 H   0  0  0  0  0  0  0  0  0  0  0  0
   -8.1271   23.1990  -31.6725 H   0  0  0  0  0  0  0  0  0  0  0  0
   -7.7389   23.3738  -29.2214 H   0  0  0  0  0  0  0  0  0  0  0  0
   -6.4539   22.1014  -29.3894 H   0  0  0  0  0  0  0  0  0  0  0  0
   -6.6369   25.5575  -29.0378 H   0  0  0  0  0  0  0  0  0  0  0  0
   -5.8642   26.0423  -30.5852 H   0  0  0  0  0  0  0  0  0  0  0  0
   -7.5293   25.3686  -30.5852 H   0  0  0  0  0  0  0  0  0  0  0  0
   -6.0087   24.3219  -32.3398 H   0  0  0  0  0  0  0  0  0  0  0  0
   -4.3678   24.1853  -31.5745 H   0  0  0  0  0  0  0  0  0  0  0  0
   -4.7865   22.2280  -32.9737 H   0  0  0  0  0  0  0  0  0  0  0  0
   -4.7669   21.7600  -31.2259 H   0  0  0  0  0  0  0  0  0  0  0  0
   -7.1859   21.9148  -33.1223 H   0  0  0  0  0  0  0  0  0  0  0  0
   -6.2120   19.8163  -33.1118 H   0  0  0  0  0  0  0  0  0  0  0  0
   -5.9332   19.9024  -31.2868 H   0  0  0  0  0  0  0  0  0  0  0  0
   -5.6642   16.2635  -31.3211 H   0  0  0  0  0  0  0  0  0  0  0  0
  1  2  1  0
  2  3  2  0
  3  4  1  0
  4  5  2  0
  5  6  1  0
  6  7  1  0
  7  8  1  0
  8  9  1  0
  9 10  1  0
 10 11  1  0
 11 12  1  0
 12 13  1  0
 13 14  1  0
 13 15  1  0
 15 16  1  0
 16 17  1  0
 17 18  1  0
  5 19  1  0
 19 20  2  0
 20 21  1  0
 20  2  1  0
 18  7  1  0
 17 11  1  0
  1 22  1  0
  1 23  1  0
  1 24  1  0
  3 25  1  0
  4 26  1  0
  6 27  1  0
  6 28  1  0
  7 29  1  1
  8 30  1  0
  8 31  1  0
  9 32  1  0
  9 33  1  0
 11 34  1  6
 12 35  1  0
 12 36  1  0
 14 37  1  0
 14 38  1  0
 14 39  1  0
 15 40  1  0
 15 41  1  0
 16 42  1  0
 16 43  1  0
 17 44  1  6
 18 45  1  0
 18 46  1  0
 19 47  1  0
M  CHG  1   7   1
M  END
>  <UniqueID>  (35) 
32

>  <SMILES>  (35) 
Cc1ccc(C[N@@H+]2CCO[C@H]3CN(C)CCC3C2)cc1F

>  <Energy>  (35) 
80.26517432384541

>  <Genealogy>  (35) 
Cc1ccc(C[NH+]2CCOC3CN(C)CCC3C2)cc1F (protonated)
Cc1ccc(C[N@@H+]2CCO[C@H]3CN(C)CCC3C2)cc1F (chirality)
Cc1ccc(C[N@@H+]2CCO[C@H]3CN(C)CCC3C2)cc1F (3D coordinates assigned)
Cc1ccc(C[N@@H+]2CCO[C@H]3CN(C)CCC3C2)cc1F (nonaromatic ring conformer: 80.26517432384541 kcal/mol)

>  <smiles>  (35) 
Cc1ccc(CN2CCOC3CN(C)CCC3C2)cc1F

>  <score_type>  (35) 
oracle

>  <origin>  (35) 
adg

>  <m_score__min__energy>  (35) 
-5.5199999999999996

>  <m_primary>  (35) 
energy

$$$$
35:0
     RDKit          3D

 38 38  0  0  0  0  0  0  0  0999 V2000
   -3.9110   24.2040  -27.1560 C   0  0  0  0  0  0  0  0  0  0  0  0
   -2.5700   24.8820  -26.9220 C   0  0  0  0  0  0  0  0  0  0  0  0
   -1.7800   25.2630  -28.5240 S   0  0  0  0  0  0  0  0  0  0  0  0
   -2.1570   23.6550  -29.3220 C   0  0  0  0  0  0  0  0  0  0  0  0
   -3.0890   23.7990  -30.5340 C   0  0  2  0  0  0  0  0  0  0  0  0
   -3.8400   25.0500  -30.4530 N   0  0  0  0  0  0  0  0  0  0  0  0
   -5.2630   25.1250  -30.5850 C   0  0  0  0  0  0  0  0  0  0  0  0
   -6.0970   25.4980  -29.4070 C   0  0  0  0  0  0  0  0  0  0  0  0
   -5.8140   24.9100  -31.6980 O   0  0  0  0  0  0  0  0  0  0  0  0
   -4.0230   22.6230  -30.6640 C   0  0  0  0  0  0  0  0  0  0  0  0
   -4.1230   21.8100  -29.7050 O   0  0  0  0  0  0  0  0  0  0  0  0
   -4.8000   22.4270  -31.8550 N   0  0  0  0  0  0  0  0  0  0  0  0
   -5.3770   21.1320  -32.1980 C   0  0  0  0  0  0  0  0  0  0  0  0
   -6.8740   21.1950  -32.0660 C   0  0  0  0  0  0  0  0  0  0  0  0
   -7.6500   20.0270  -32.1540 C   0  0  0  0  0  0  0  0  0  0  0  0
   -9.0440   20.1030  -32.0850 C   0  0  0  0  0  0  0  0  0  0  0  0
   -9.6720   21.3420  -31.9350 C   0  0  0  0  0  0  0  0  0  0  0  0
   -8.9080   22.5090  -31.8560 C   0  0  0  0  0  0  0  0  0  0  0  0
   -7.5130   22.4380  -31.9220 C   0  0  0  0  0  0  0  0  0  0  0  0
   -4.3767   23.9685  -26.1877 H   0  0  0  0  0  0  0  0  0  0  0  0
   -4.5684   24.8781  -27.7248 H   0  0  0  0  0  0  0  0  0  0  0  0
   -3.7579   23.2750  -27.7248 H   0  0  0  0  0  0  0  0  0  0  0  0
   -2.7258   25.8152  -26.3608 H   0  0  0  0  0  0  0  0  0  0  0  0
   -1.9180   24.2077  -26.3473 H   0  0  0  0  0  0  0  0  0  0  0  0
   -1.2137   23.1980  -29.6558 H   0  0  0  0  0  0  0  0  0  0  0  0
   -2.6722   23.0282  -28.5793 H   0  0  0  0  0  0  0  0  0  0  0  0
   -2.4617   23.8203  -31.4374 H   0  0  0  0  0  0  0  0  0  0  0  0
   -5.5540   25.2552  -28.4817 H   0  0  0  0  0  0  0  0  0  0  0  0
   -6.3095   26.5769  -29.4350 H   0  0  0  0  0  0  0  0  0  0  0  0
   -7.0429   24.9372  -29.4350 H   0  0  0  0  0  0  0  0  0  0  0  0
   -4.8470   23.1880  -32.5700 H   0  0  0  0  0  0  0  0  0  0  0  0
   -5.1114   20.8760  -33.2343 H   0  0  0  0  0  0  0  0  0  0  0  0
   -4.9824   20.3644  -31.5160 H   0  0  0  0  0  0  0  0  0  0  0  0
   -7.1593   19.0503  -32.2775 H   0  0  0  0  0  0  0  0  0  0  0  0
   -9.6477   19.1857  -32.1489 H   0  0  0  0  0  0  0  0  0  0  0  0
  -10.7691   21.3987  -31.8790 H   0  0  0  0  0  0  0  0  0  0  0  0
   -9.4040   23.4841  -31.7418 H   0  0  0  0  0  0  0  0  0  0  0  0
   -6.9138   23.3585  -31.8610 H   0  0  0  0  0  0  0  0  0  0  0  0
  1  2  1  0
  2  3  1  0
  3  4  1  0
  4  5  1  0
  5  6  1  0
  6  7  1  0
  7  8  1  0
  7  9  2  0
  5 10  1  0
 10 11  2  0
 10 12  1  0
 12 13  1  0
 13 14  1  0
 14 15  2  0
 15 16  1  0
 16 17  2  0
 17 18  1  0
 18 19  2  0
 19 14  1  0
  1 20  1  0
  1 21  1  0
  1 22  1  0
  2 23  1  0
  2 24  1  0
  4 25  1  0
  4 26  1  0
  5 27  1  6
  8 28  1  0
  8 29  1  0
  8 30  1  0
 12 31  1  0
 13 32  1  0
 13 33  1  0
 15 34  1  0
 16 35  1  0
 17 36  1  0
 18 37  1  0
 19 38  1  0
M  CHG  1   6  -1
M  END
>  <UniqueID>  (36) 
33

>  <SMILES>  (36) 
CCSC[C@H]([N-]C(C)=O)C(=O)NCc1ccccc1

>  <Energy>  (36) 
20.812726501076433

>  <Genealogy>  (36) 
CCSCC([N-]C(C)=O)C(=O)NCc1ccccc1 (protonated)
CCSC[C@H]([N-]C(C)=O)C(=O)NCc1ccccc1 (chirality)
CCSC[C@H]([N-]C(C)=O)C(=O)NCc1ccccc1 (3D coordinates assigned)
CCSC[C@H]([N-]C(C)=O)C(=O)NCc1ccccc1 (optimized conformer: 20.812726501076433 kcal/mol)

>  <smiles>  (36) 
CCSCC(NC(C)=O)C(=O)NCc1ccccc1

>  <score_type>  (36) 
oracle

>  <origin>  (36) 
adg

>  <m_score__min__energy>  (36) 
-9.1500000000000004

>  <m_primary>  (36) 
energy

$$$$
36:0
     RDKit          3D

 36 37  0  0  0  0  0  0  0  0999 V2000
   -6.4770   15.9170  -33.8920 C   0  0  0  0  0  0  0  0  0  0  0  0
   -6.6820   17.3420  -33.4720 C   0  0  0  0  0  0  0  0  0  0  0  0
   -7.5170   17.6460  -32.3870 C   0  0  0  0  0  0  0  0  0  0  0  0
   -7.7380   18.9760  -32.0180 C   0  0  0  0  0  0  0  0  0  0  0  0
   -7.1560   20.0260  -32.7490 C   0  0  0  0  0  0  0  0  0  0  0  0
   -7.3990   21.4690  -32.3430 C   0  0  0  0  0  0  0  0  0  0  0  0
   -6.2100   22.3540  -32.4600 N   0  0  0  0  0  0  0  0  0  0  0  0
   -5.0930   21.9270  -31.5780 C   0  0  0  0  0  0  0  0  0  0  0  0
   -4.0410   23.0380  -31.4400 C   0  0  0  0  0  0  0  0  0  0  0  0
   -4.6070   24.2750  -30.8430 N   0  0  0  0  0  0  0  0  0  0  0  0
   -4.2390   24.4020  -29.4250 C   0  0  0  0  0  0  0  0  0  0  0  0
   -6.0760   24.3970  -31.0050 C   0  0  0  0  0  0  0  0  0  0  0  0
   -6.5370   23.8030  -32.3450 C   0  0  0  0  0  0  0  0  0  0  0  0
   -6.3060   19.7150  -33.8250 C   0  0  0  0  0  0  0  0  0  0  0  0
   -6.0840   18.3850  -34.1930 C   0  0  0  0  0  0  0  0  0  0  0  0
   -6.3855   15.2811  -32.9991 H   0  0  0  0  0  0  0  0  0  0  0  0
   -7.3366   15.5844  -34.4925 H   0  0  0  0  0  0  0  0  0  0  0  0
   -5.5586   15.8402  -34.4925 H   0  0  0  0  0  0  0  0  0  0  0  0
   -8.0002   16.8341  -31.8238 H   0  0  0  0  0  0  0  0  0  0  0  0
   -8.3725   19.2027  -31.1485 H   0  0  0  0  0  0  0  0  0  0  0  0
   -8.1943   21.8765  -32.9844 H   0  0  0  0  0  0  0  0  0  0  0  0
   -7.6705   21.4513  -31.2772 H   0  0  0  0  0  0  0  0  0  0  0  0
   -5.8650   22.2150  -33.4410 H   0  0  0  0  0  0  0  0  0  0  0  0
   -5.4936   21.6859  -30.5823 H   0  0  0  0  0  0  0  0  0  0  0  0
   -4.6123   21.0446  -32.0256 H   0  0  0  0  0  0  0  0  0  0  0  0
   -3.2251   22.6756  -30.7973 H   0  0  0  0  0  0  0  0  0  0  0  0
   -3.6765   23.2854  -32.4480 H   0  0  0  0  0  0  0  0  0  0  0  0
   -5.0926   24.1074  -28.7969 H   0  0  0  0  0  0  0  0  0  0  0  0
   -3.3815   23.7478  -29.2087 H   0  0  0  0  0  0  0  0  0  0  0  0
   -3.9676   25.4458  -29.2087 H   0  0  0  0  0  0  0  0  0  0  0  0
   -6.5736   23.8600  -30.1840 H   0  0  0  0  0  0  0  0  0  0  0  0
   -6.3416   25.4643  -30.9866 H   0  0  0  0  0  0  0  0  0  0  0  0
   -7.6263   23.9284  -32.4321 H   0  0  0  0  0  0  0  0  0  0  0  0
   -6.0075   24.3338  -33.1499 H   0  0  0  0  0  0  0  0  0  0  0  0
   -5.8118   20.5249  -34.3816 H   0  0  0  0  0  0  0  0  0  0  0  0
   -5.4370   18.1556  -35.0525 H   0  0  0  0  0  0  0  0  0  0  0  0
  1  2  1  0
  2  3  2  0
  3  4  1  0
  4  5  2  0
  5  6  1  0
  6  7  1  0
  7  8  1  0
  8  9  1  0
  9 10  1  0
 10 11  1  0
 10 12  1  0
 12 13  1  0
  5 14  1  0
 14 15  2  0
 15  2  1  0
 13  7  1  0
  1 16  1  0
  1 17  1  0
  1 18  1  0
  3 19  1  0
  4 20  1  0
  6 21  1  0
  6 22  1  0
  7 23  1  0
  8 24  1  0
  8 25  1  0
  9 26  1  0
  9 27  1  0
 11 28  1  0
 11 29  1  0
 11 30  1  0
 12 31  1  0
 12 32  1  0
 13 33  1  0
 13 34  1  0
 14 35  1  0
 15 36  1  0
M  CHG  1   7   1
M  END
>  <UniqueID>  (37) 
34

>  <SMILES>  (37) 
Cc1ccc(C[NH+]2CCN(C)CC2)cc1

>  <Energy>  (37) 
49.366818470065034

>  <Genealogy>  (37) 
Cc1ccc(C[NH+]2CCN(C)CC2)cc1 (protonated)
Cc1ccc(C[NH+]2CCN(C)CC2)cc1 (3D coordinates assigned)
Cc1ccc(C[NH+]2CCN(C)CC2)cc1 (nonaromatic ring conformer: 49.366818470065034 kcal/mol)

>  <smiles>  (37) 
Cc1ccc(CN2CCN(C)CC2)cc1

>  <score_type>  (37) 
oracle

>  <origin>  (37) 
adg

>  <m_score__min__energy>  (37) 
-6.21

>  <m_primary>  (37) 
energy

$$$$
37:0
     RDKit          3D

 30 31  0  0  0  0  0  0  0  0999 V2000
   -6.0930   17.9950  -34.8930 F   0  0  0  0  0  0  0  0  0  0  0  0
   -5.7360   19.1800  -34.2200 C   0  0  0  0  0  0  0  0  0  0  0  0
   -4.3770   19.0360  -33.9080 F   0  0  0  0  0  0  0  0  0  0  0  0
   -6.5270   19.3170  -33.1140 O   0  0  0  0  0  0  0  0  0  0  0  0
   -7.2460   20.3620  -32.6390 C   0  0  0  0  0  0  0  0  0  0  0  0
   -8.6100   20.1060  -32.4130 C   0  0  0  0  0  0  0  0  0  0  0  0
   -9.4780   21.0460  -31.9350 C   0  0  0  0  0  0  0  0  0  0  0  0
   -8.9980   22.3020  -31.6630 C   0  0  0  0  0  0  0  0  0  0  0  0
   -7.6600   22.5710  -31.8810 C   0  0  0  0  0  0  0  0  0  0  0  0
   -6.7610   21.6440  -32.3600 C   0  0  0  0  0  0  0  0  0  0  0  0
   -5.4750   21.9050  -32.5660 O   0  0  0  0  0  0  0  0  0  0  0  0
   -4.2870   21.5430  -31.9680 C   0  0  0  0  0  0  0  0  0  0  0  0
   -3.4980   22.6180  -31.3040 C   0  0  0  0  0  0  0  0  0  0  0  0
   -4.3990   23.6670  -30.7040 C   0  0  0  0  0  0  0  0  0  0  0  0
   -5.1630   23.4710  -29.5730 C   0  0  0  0  0  0  0  0  0  0  0  0
   -5.8250   24.6290  -29.3540 N   0  0  0  0  0  0  0  0  0  0  0  0
   -5.4870   25.5280  -30.3200 C   0  0  0  0  0  0  0  0  0  0  0  0
   -4.6070   24.9220  -31.1460 N   0  0  0  0  0  0  0  0  0  0  0  0
   -5.8842   20.0910  -34.8184 H   0  0  0  0  0  0  0  0  0  0  0  0
   -8.9968   19.0998  -32.6318 H   0  0  0  0  0  0  0  0  0  0  0  0
  -10.5380   20.8015  -31.7718 H   0  0  0  0  0  0  0  0  0  0  0  0
   -9.6685   23.0839  -31.2769 H   0  0  0  0  0  0  0  0  0  0  0  0
   -7.2919   23.5836  -31.6592 H   0  0  0  0  0  0  0  0  0  0  0  0
   -4.5191   20.7851  -31.2053 H   0  0  0  0  0  0  0  0  0  0  0  0
   -3.6499   21.1967  -32.7952 H   0  0  0  0  0  0  0  0  0  0  0  0
   -2.8858   22.1725  -30.5061 H   0  0  0  0  0  0  0  0  0  0  0  0
   -2.8607   23.0990  -32.0606 H   0  0  0  0  0  0  0  0  0  0  0  0
   -5.2221   22.5538  -28.9686 H   0  0  0  0  0  0  0  0  0  0  0  0
   -6.4880   24.7770  -28.5560 H   0  0  0  0  0  0  0  0  0  0  0  0
   -5.8619   26.5582  -30.4106 H   0  0  0  0  0  0  0  0  0  0  0  0
  1  2  1  0
  2  3  1  0
  2  4  1  0
  4  5  1  0
  5  6  2  0
  6  7  1  0
  7  8  2  0
  8  9  1  0
  9 10  2  0
 10 11  1  0
 11 12  1  0
 12 13  1  0
 13 14  1  0
 14 15  2  0
 15 16  1  0
 16 17  1  0
 17 18  2  0
 10  5  1  0
 18 14  1  0
  2 19  1  0
  6 20  1  0
  7 21  1  0
  8 22  1  0
  9 23  1  0
 12 24  1  0
 12 25  1  0
 13 26  1  0
 13 27  1  0
 15 28  1  0
 16 29  1  0
 17 30  1  0
M  END
>  <smiles>  (38) 
FC(F)Oc1ccccc1OCCc1c[nH]cn1

>  <score_type>  (38) 
oracle

>  <origin>  (38) 
adg

>  <m_score__min__energy>  (38) 
-5.6699999999999999

>  <m_primary>  (38) 
energy

$$$$
38:0
     RDKit          3D

 41 43  0  0  0  0  0  0  0  0999 V2000
    0.4530   19.9020  -35.2470 C   0  0  0  0  0  0  0  0  0  0  0  0
   -0.5350   19.0320  -34.7020 O   0  0  0  0  0  0  0  0  0  0  0  0
   -1.7650   19.4590  -34.1810 C   0  0  0  0  0  0  0  0  0  0  0  0
   -2.7640   18.5040  -33.9660 C   0  0  0  0  0  0  0  0  0  0  0  0
   -4.0060   18.8780  -33.4450 C   0  0  0  0  0  0  0  0  0  0  0  0
   -4.2630   20.2180  -33.1160 C   0  0  0  0  0  0  0  0  0  0  0  0
   -5.5870   20.6000  -32.5810 C   0  0  0  0  0  0  0  0  0  0  0  0
   -6.7190   19.9360  -32.8920 N   0  0  0  0  0  0  0  0  0  0  0  0
   -7.6920   20.6360  -32.2750 C   0  0  0  0  0  0  0  0  0  0  0  0
   -9.4230   20.1850  -32.3520 S   0  0  0  0  0  0  0  0  0  0  0  0
   -9.1200   18.4840  -31.7820 C   0  0  0  0  0  0  0  0  0  0  0  0
   -7.2340   21.7010  -31.5930 N   0  0  0  0  0  0  0  0  0  0  0  0
   -5.9020   21.6850  -31.7690 C   0  0  0  0  0  0  0  0  0  0  0  0
   -4.9810   22.6300  -31.1000 C   0  0  0  0  0  0  0  0  0  0  0  0
   -3.8390   22.1670  -30.4240 C   0  0  0  0  0  0  0  0  0  0  0  0
   -2.9840   23.0680  -29.7860 C   0  0  0  0  0  0  0  0  0  0  0  0
   -3.2570   24.4400  -29.7980 C   0  0  0  0  0  0  0  0  0  0  0  0
   -2.3660   25.3040  -29.1430 O   0  0  0  0  0  0  0  0  0  0  0  0
   -1.8180   25.0650  -27.8510 C   0  0  0  0  0  0  0  0  0  0  0  0
   -4.4110   24.9040  -30.4570 C   0  0  0  0  0  0  0  0  0  0  0  0
   -5.2680   24.0030  -31.0970 C   0  0  0  0  0  0  0  0  0  0  0  0
   -3.2700   21.1830  -33.3530 C   0  0  0  0  0  0  0  0  0  0  0  0
   -2.0280   20.8070  -33.8720 C   0  0  0  0  0  0  0  0  0  0  0  0
    1.0050   20.3881  -34.4290 H   0  0  0  0  0  0  0  0  0  0  0  0
    1.1520   19.3207  -35.8664 H   0  0  0  0  0  0  0  0  0  0  0  0
   -0.0352   20.6689  -35.8664 H   0  0  0  0  0  0  0  0  0  0  0  0
   -2.5705   17.4488  -34.2092 H   0  0  0  0  0  0  0  0  0  0  0  0
   -4.7863   18.1179  -33.2920 H   0  0  0  0  0  0  0  0  0  0  0  0
   -9.1159   18.4611  -30.6822 H   0  0  0  0  0  0  0  0  0  0  0  0
   -9.9147   17.8237  -32.1596 H   0  0  0  0  0  0  0  0  0  0  0  0
   -8.1462   18.1388  -32.1596 H   0  0  0  0  0  0  0  0  0  0  0  0
   -7.7950   22.3680  -31.0190 H   0  0  0  0  0  0  0  0  0  0  0  0
   -3.6177   21.0898  -30.3974 H   0  0  0  0  0  0  0  0  0  0  0  0
   -2.0873   22.6954  -29.2691 H   0  0  0  0  0  0  0  0  0  0  0  0
   -2.5396   25.3797  -27.0827 H   0  0  0  0  0  0  0  0  0  0  0  0
   -1.6045   23.9921  -27.7360 H   0  0  0  0  0  0  0  0  0  0  0  0
   -0.8864   25.6386  -27.7360 H   0  0  0  0  0  0  0  0  0  0  0  0
   -4.6397   25.9799  -30.4687 H   0  0  0  0  0  0  0  0  0  0  0  0
   -6.1728   24.3734  -31.6012 H   0  0  0  0  0  0  0  0  0  0  0  0
   -3.4712   22.2409  -33.1287 H   0  0  0  0  0  0  0  0  0  0  0  0
   -1.2520   21.5683  -34.0399 H   0  0  0  0  0  0  0  0  0  0  0  0
  1  2  1  0
  2  3  1  0
  3  4  2  0
  4  5  1  0
  5  6  2  0
  6  7  1  0
  7  8  1  0
  8  9  2  0
  9 10  1  0
 10 11  1  0
  9 12  1  0
 12 13  1  0
 13 14  1  0
 14 15  2  0
 15 16  1  0
 16 17  2  0
 17 18  1  0
 18 19  1  0
 17 20  1  0
 20 21  2  0
  6 22  1  0
 22 23  2  0
 23  3  1  0
 13  7  2  0
 21 14  1  0
  1 24  1  0
  1 25  1  0
  1 26  1  0
  4 27  1  0
  5 28  1  0
 11 29  1  0
 11 30  1  0
 11 31  1  0
 12 32  1  0
 15 33  1  0
 16 34  1  0
 19 35  1  0
 19 36  1  0
 19 37  1  0
 20 38  1  0
 21 39  1  0
 22 40  1  0
 23 41  1  0
M  END
>  <UniqueID>  (39) 
35

>  <SMILES>  (39) 
COc1ccc(-c2nc(SC)[nH]c2-c2ccc(OC)cc2)cc1

>  <Energy>  (39) 
74.39580671945087

>  <Genealogy>  (39) 
COc1ccc(-c2nc(SC)[nH]c2-c2ccc(OC)cc2)cc1 (3D coordinates assigned)
COc1ccc(-c2nc(SC)[nH]c2-c2ccc(OC)cc2)cc1 (optimized conformer: 74.39580671945087 kcal/mol)

>  <smiles>  (39) 
COc1ccc(-c2nc(SC)[nH]c2-c2ccc(OC)cc2)cc1

>  <score_type>  (39) 
oracle

>  <origin>  (39) 
adg

>  <m_score__min__energy>  (39) 
-7.3300000000000001

>  <m_primary>  (39) 
energy

$$$$
39:0
     RDKit          3D

 40 42  0  0  0  0  0  0  0  0999 V2000
   -5.2140   25.6870  -30.4400 C   0  0  0  0  0  0  0  0  0  0  0  0
   -3.8690   25.2130  -30.4970 O   0  0  0  0  0  0  0  0  0  0  0  0
   -3.6670   23.8430  -30.4670 C   0  0  0  0  0  0  0  0  0  0  0  0
   -3.8100   23.0490  -31.5950 C   0  0  0  0  0  0  0  0  0  0  0  0
   -3.6040   21.6720  -31.5500 C   0  0  0  0  0  0  0  0  0  0  0  0
   -3.7750   20.8990  -32.7970 C   0  0  0  0  0  0  0  0  0  0  0  0
   -5.1100   20.3080  -32.8830 N   0  0  0  0  0  0  0  0  0  0  0  0
   -5.3540   19.0810  -33.3800 C   0  0  0  0  0  0  0  0  0  0  0  0
   -6.6920   18.8470  -33.3120 N   0  0  0  0  0  0  0  0  0  0  0  0
   -7.2600   19.9350  -32.7730 C   0  0  0  0  0  0  0  0  0  0  0  0
   -8.5690   20.2380  -32.4790 C   0  0  0  0  0  0  0  0  0  0  0  0
   -9.4950   19.3890  -32.7270 N   0  0  0  0  0  0  0  0  0  0  0  0
   -8.8320   21.4420  -31.9280 N   0  0  0  0  0  0  0  0  0  0  0  0
   -7.8570   22.3340  -31.6680 C   0  0  0  0  0  0  0  0  0  0  0  0
   -6.5530   22.0720  -31.9440 N   0  0  0  0  0  0  0  0  0  0  0  0
   -6.2720   20.8680  -32.4960 C   0  0  0  0  0  0  0  0  0  0  0  0
   -3.2480   21.0960  -30.3390 C   0  0  0  0  0  0  0  0  0  0  0  0
   -3.1010   21.8690  -29.2050 C   0  0  0  0  0  0  0  0  0  0  0  0
   -2.7480   21.3520  -27.9680 O   0  0  0  0  0  0  0  0  0  0  0  0
   -1.4960   20.7680  -27.7110 C   0  0  0  0  0  0  0  0  0  0  0  0
   -3.3120   23.2380  -29.2800 C   0  0  0  0  0  0  0  0  0  0  0  0
   -3.1700   24.0210  -28.1590 O   0  0  0  0  0  0  0  0  0  0  0  0
   -4.2110   24.2340  -27.2170 C   0  0  0  0  0  0  0  0  0  0  0  0
   -5.5205   25.7950  -29.3891 H   0  0  0  0  0  0  0  0  0  0  0  0
   -5.2806   26.6627  -30.9435 H   0  0  0  0  0  0  0  0  0  0  0  0
   -5.8776   24.9686  -30.9435 H   0  0  0  0  0  0  0  0  0  0  0  0
   -4.0931   23.5181  -32.5488 H   0  0  0  0  0  0  0  0  0  0  0  0
   -3.6248   21.5691  -33.6563 H   0  0  0  0  0  0  0  0  0  0  0  0
   -3.0361   20.0841  -32.8018 H   0  0  0  0  0  0  0  0  0  0  0  0
   -4.5988   18.3852  -33.7745 H   0  0  0  0  0  0  0  0  0  0  0  0
   -9.3580   18.7180  -33.4900 H   0  0  0  0  0  0  0  0  0  0  0  0
   -9.8350   21.6480  -31.7130 H   0  0  0  0  0  0  0  0  0  0  0  0
   -8.1242   23.3022  -31.2194 H   0  0  0  0  0  0  0  0  0  0  0  0
   -3.0809   20.0103  -30.2820 H   0  0  0  0  0  0  0  0  0  0  0  0
   -1.3412   20.6958  -26.6243 H   0  0  0  0  0  0  0  0  0  0  0  0
   -1.4630   19.7616  -28.1537 H   0  0  0  0  0  0  0  0  0  0  0  0
   -0.7037   21.3895  -28.1537 H   0  0  0  0  0  0  0  0  0  0  0  0
   -3.8058   24.1511  -26.1977 H   0  0  0  0  0  0  0  0  0  0  0  0
   -4.6368   25.2379  -27.3618 H   0  0  0  0  0  0  0  0  0  0  0  0
   -4.9969   23.4780  -27.3618 H   0  0  0  0  0  0  0  0  0  0  0  0
  1  2  1  0
  2  3  1  0
  3  4  2  0
  4  5  1  0
  5  6  1  0
  6  7  1  0
  7  8  1  0
  8  9  2  0
  9 10  1  0
 10 11  1  0
 11 12  2  3
 11 13  1  0
 13 14  1  0
 14 15  2  0
 15 16  1  0
  5 17  2  0
 17 18  1  0
 18 19  1  0
 19 20  1  0
 18 21  2  0
 21 22  1  0
 22 23  1  0
 21  3  1  0
 16  7  1  0
 16 10  2  0
  1 24  1  0
  1 25  1  0
  1 26  1  0
  4 27  1  0
  6 28  1  0
  6 29  1  0
  8 30  1  0
 12 31  1  0
 13 32  1  0
 14 33  1  0
 17 34  1  0
 20 35  1  0
 20 36  1  0
 20 37  1  0
 23 38  1  0
 23 39  1  0
 23 40  1  0
M  END
>  <smiles>  (40) 
COc1cc(Cn2cnc3c(=N)[nH]cnc32)cc(OC)c1OC

>  <score_type>  (40) 
oracle

>  <origin>  (40) 
adg

>  <m_score__min__energy>  (40) 
-6.4299999999999997

>  <m_primary>  (40) 
energy

$$$$
40:0
     RDKit          3D

 33 35  0  0  0  0  0  0  0  0999 V2000
   -6.9160   17.9910  -32.0590 C   0  0  0  0  0  0  0  0  0  0  0  0
   -7.9730   19.0400  -32.1490 C   0  0  0  0  0  0  0  0  0  0  0  0
   -9.2330   18.8290  -32.5970 N   0  0  0  0  0  0  0  0  0  0  0  0
   -9.8640   20.0040  -32.5910 N   0  0  0  0  0  0  0  0  0  0  0  0
   -8.9690   20.9070  -32.1500 C   0  0  0  0  0  0  0  0  0  0  0  0
   -9.1470   22.2700  -31.9740 C   0  0  0  0  0  0  0  0  0  0  0  0
   -8.0430   23.0020  -31.5060 C   0  0  0  0  0  0  0  0  0  0  0  0
   -6.8100   22.3470  -31.2420 C   0  0  0  0  0  0  0  0  0  0  0  0
   -5.6200   23.0850  -30.7450 C   0  0  0  0  0  0  0  0  0  0  0  0
   -5.5340   24.4760  -30.9240 C   0  0  0  0  0  0  0  0  0  0  0  0
   -4.4240   25.1860  -30.4570 C   0  0  0  0  0  0  0  0  0  0  0  0
   -3.3840   24.5260  -29.7950 C   0  0  0  0  0  0  0  0  0  0  0  0
   -2.2680   25.2990  -29.3330 N   0  0  0  0  0  0  0  0  0  0  0  0
   -0.9180   24.6940  -28.4280 S   0  0  0  0  0  0  0  0  0  0  0  0
   -1.4900   23.7550  -27.0280 C   0  0  0  0  0  0  0  0  0  0  0  0
   -0.1100   25.8580  -27.9290 O   0  0  0  0  0  0  0  0  0  0  0  0
   -0.0470   23.8440  -29.3090 O   0  0  0  0  0  0  0  0  0  0  0  0
   -3.4680   23.1360  -29.6040 C   0  0  0  0  0  0  0  0  0  0  0  0
   -4.5770   22.4240  -30.0710 C   0  0  0  0  0  0  0  0  0  0  0  0
   -6.7270   20.9960  -31.4370 N   0  0  0  0  0  0  0  0  0  0  0  0
   -7.7970   20.3380  -31.8760 N   0  0  0  0  0  0  0  0  0  0  0  0
   -6.7006   17.7773  -31.0017 H   0  0  0  0  0  0  0  0  0  0  0  0
   -7.2667   17.0737  -32.5545 H   0  0  0  0  0  0  0  0  0  0  0  0
   -6.0013   18.3486  -32.5545 H   0  0  0  0  0  0  0  0  0  0  0  0
  -10.1093   22.7568  -32.1909 H   0  0  0  0  0  0  0  0  0  0  0  0
   -8.1334   24.0861  -31.3433 H   0  0  0  0  0  0  0  0  0  0  0  0
   -6.3473   25.0110  -31.4361 H   0  0  0  0  0  0  0  0  0  0  0  0
   -4.3682   26.2736  -30.6117 H   0  0  0  0  0  0  0  0  0  0  0  0
   -1.1835   24.2582  -26.0991 H   0  0  0  0  0  0  0  0  0  0  0  0
   -2.5870   23.6806  -27.0599 H   0  0  0  0  0  0  0  0  0  0  0  0
   -1.0529   22.7461  -27.0599 H   0  0  0  0  0  0  0  0  0  0  0  0
   -2.6567   22.6054  -29.0842 H   0  0  0  0  0  0  0  0  0  0  0  0
   -4.6345   21.3374  -29.9100 H   0  0  0  0  0  0  0  0  0  0  0  0
  1  2  1  0
  2  3  2  0
  3  4  1  0
  4  5  2  0
  5  6  1  0
  6  7  2  0
  7  8  1  0
  8  9  1  0
  9 10  2  0
 10 11  1  0
 11 12  2  0
 12 13  1  0
 13 14  1  0
 14 15  1  0
 14 16  2  0
 14 17  2  0
 12 18  1  0
 18 19  2  0
  8 20  2  0
 20 21  1  0
 21  2  1  0
 21  5  1  0
 19  9  1  0
  1 22  1  0
  1 23  1  0
  1 24  1  0
  6 25  1  0
  7 26  1  0
 10 27  1  0
 11 28  1  0
 15 29  1  0
 15 30  1  0
 15 31  1  0
 18 32  1  0
 19 33  1  0
M  CHG  1  13  -1
M  END
>  <UniqueID>  (41) 
36

>  <SMILES>  (41) 
Cc1nnc2ccc(-c3ccc([N-]S(C)(=O)=O)cc3)nn12

>  <Energy>  (41) 
80.28773094830636

>  <Genealogy>  (41) 
Cc1nnc2ccc(-c3ccc([N-]S(C)(=O)=O)cc3)nn12 (protonated)
Cc1nnc2ccc(-c3ccc([N-]S(C)(=O)=O)cc3)nn12 (3D coordinates assigned)
Cc1nnc2ccc(-c3ccc([N-]S(C)(=O)=O)cc3)nn12 (optimized conformer: 80.28773094830636 kcal/mol)

>  <smiles>  (41) 
Cc1nnc2ccc(-c3ccc(NS(C)(=O)=O)cc3)nn12

>  <score_type>  (41) 
oracle

>  <origin>  (41) 
adg

>  <m_score__min__energy>  (41) 
-10.300000000000001

>  <m_primary>  (41) 
energy

$$$$
41:0
     RDKit          3D

 28 29  0  0  0  0  0  0  0  0999 V2000
   -1.5390   24.5790  -28.8550 C   0  0  0  0  0  0  0  0  0  0  0  0
   -2.7330   24.2510  -29.6940 C   0  0  0  0  0  0  0  0  0  0  0  0
   -2.9980   22.9290  -30.0630 C   0  0  0  0  0  0  0  0  0  0  0  0
   -4.1220   22.6450  -30.8380 C   0  0  0  0  0  0  0  0  0  0  0  0
   -4.9850   23.6800  -31.2470 C   0  0  0  0  0  0  0  0  0  0  0  0
   -6.1550   23.4180  -32.0500 N   0  0  0  0  0  0  0  0  0  0  0  0
   -7.4640   23.0460  -31.5080 C   0  0  0  0  0  0  0  0  0  0  0  0
   -7.8260   21.6400  -31.9110 C   0  0  0  0  0  0  0  0  0  0  0  0
   -6.8340   20.7430  -32.3330 C   0  0  0  0  0  0  0  0  0  0  0  0
   -7.1820   19.4460  -32.7120 C   0  0  0  0  0  0  0  0  0  0  0  0
   -8.5220   19.0580  -32.6750 C   0  0  0  0  0  0  0  0  0  0  0  0
   -9.4750   19.9400  -32.2740 N   0  0  0  0  0  0  0  0  0  0  0  0
   -9.1630   21.2100  -31.8990 C   0  0  0  0  0  0  0  0  0  0  0  0
   -4.6810   24.9950  -30.8430 C   0  0  0  0  0  0  0  0  0  0  0  0
   -5.4220   25.9560  -31.1790 O   0  0  0  0  0  0  0  0  0  0  0  0
   -3.5780   25.2420  -30.0880 N   0  0  0  0  0  0  0  0  0  0  0  0
   -1.8073   24.5053  -27.7908 H   0  0  0  0  0  0  0  0  0  0  0  0
   -0.7279   23.8704  -29.0786 H   0  0  0  0  0  0  0  0  0  0  0  0
   -1.2037   25.6025  -29.0786 H   0  0  0  0  0  0  0  0  0  0  0  0
   -2.3252   22.1191  -29.7445 H   0  0  0  0  0  0  0  0  0  0  0  0
   -4.3358   21.6067  -31.1315 H   0  0  0  0  0  0  0  0  0  0  0  0
   -6.0730   23.4550  -33.0910 H   0  0  0  0  0  0  0  0  0  0  0  0
   -7.4321   23.1104  -30.4103 H   0  0  0  0  0  0  0  0  0  0  0  0
   -8.2220   23.7354  -31.9083 H   0  0  0  0  0  0  0  0  0  0  0  0
   -5.7817   21.0619  -32.3652 H   0  0  0  0  0  0  0  0  0  0  0  0
   -6.4073   18.7359  -33.0369 H   0  0  0  0  0  0  0  0  0  0  0  0
   -8.8071   18.0375  -32.9706 H   0  0  0  0  0  0  0  0  0  0  0  0
   -9.9593   21.9013  -31.5858 H   0  0  0  0  0  0  0  0  0  0  0  0
  1  2  1  0
  2  3  2  0
  3  4  1  0
  4  5  2  0
  5  6  1  0
  6  7  1  0
  7  8  1  0
  8  9  2  0
  9 10  1  0
 10 11  2  0
 11 12  1  0
 12 13  2  0
  5 14  1  0
 14 15  2  0
 14 16  1  0
 16  2  1  0
 13  8  1  0
  1 17  1  0
  1 18  1  0
  1 19  1  0
  3 20  1  0
  4 21  1  0
  6 22  1  0
  7 23  1  0
  7 24  1  0
  9 25  1  0
 10 26  1  0
 11 27  1  0
 13 28  1  0
M  CHG  1  16  -1
M  END
>  <UniqueID>  (42) 
37

>  <SMILES>  (42) 
Cc1ccc(NCc2cccnc2)c(=O)[n-]1

>  <Energy>  (42) 
28.9988793329041

>  <Genealogy>  (42) 
Cc1ccc(NCc2cccnc2)c(=O)[n-]1 (protonated)
Cc1ccc(NCc2cccnc2)c(=O)[n-]1 (3D coordinates assigned)
Cc1ccc(NCc2cccnc2)c(=O)[n-]1 (optimized conformer: 28.9988793329041 kcal/mol)

>  <smiles>  (42) 
Cc1ccc(NCc2cccnc2)c(=O)[nH]1

>  <score_type>  (42) 
oracle

>  <origin>  (42) 
adg

>  <m_score__min__energy>  (42) 
-8.4100000000000001

>  <m_primary>  (42) 
energy

$$$$
42:0
     RDKit          3D

 41 43  0  0  1  0  0  0  0  0999 V2000
   -7.1950   24.1850  -30.4700 C   0  0  0  0  0  0  0  0  0  0  0  0
   -6.0930   25.2600  -29.5540 S   0  0  0  0  0  0  0  0  0  0  0  0
   -4.6280   24.4230  -29.0070 C   0  0  0  0  0  0  0  0  0  0  0  0
   -4.2510   24.4130  -27.6810 C   0  0  0  0  0  0  0  0  0  0  0  0
   -3.1050   23.7520  -27.2880 C   0  0  0  0  0  0  0  0  0  0  0  0
   -2.3130   23.0890  -28.2190 C   0  0  0  0  0  0  0  0  0  0  0  0
   -2.7120   23.1180  -29.5180 C   0  0  0  0  0  0  0  0  0  0  0  0
   -3.8620   23.7740  -29.9510 C   0  0  0  0  0  0  0  0  0  0  0  0
   -4.2450   23.7800  -31.3280 N   0  0  0  0  0  0  0  0  0  0  0  0
   -4.3050   22.6320  -31.9170 C   0  0  0  0  0  0  0  0  0  0  0  0
   -5.5190   21.9820  -32.0900 C   0  0  0  0  0  0  0  0  0  0  0  0
   -5.5900   20.7590  -32.7170 C   0  0  0  0  0  0  0  0  0  0  0  0
   -6.7990   20.0450  -32.9230 N   0  0  0  0  0  0  0  0  0  0  0  0
   -8.1000   20.6520  -32.5940 C   0  0  0  0  0  0  0  0  0  0  0  0
   -9.1090   19.5160  -32.4320 C   0  0  0  0  0  0  0  0  0  0  0  0
   -8.4310   18.4380  -31.6180 C   0  0  0  0  0  0  0  0  0  0  0  0
   -7.2550   17.8050  -32.3160 C   0  0  0  0  0  0  0  0  0  0  0  0
   -6.8500   18.7040  -33.4580 C   0  0  0  0  0  0  0  0  0  0  0  0
   -4.4430   20.2230  -33.1530 N   0  0  0  0  0  0  0  0  0  0  0  0
   -3.2390   20.8330  -33.0000 C   0  0  0  0  0  0  0  0  0  0  0  0
   -3.1990   22.0290  -32.3830 N   0  0  0  0  0  0  0  0  0  0  0  0
   -7.8002   23.5947  -29.7662 H   0  0  0  0  0  0  0  0  0  0  0  0
   -7.8579   24.7930  -31.1031 H   0  0  0  0  0  0  0  0  0  0  0  0
   -6.6036   23.5072  -31.1031 H   0  0  0  0  0  0  0  0  0  0  0  0
   -4.8663   24.9342  -26.9329 H   0  0  0  0  0  0  0  0  0  0  0  0
   -2.8150   23.7496  -26.2269 H   0  0  0  0  0  0  0  0  0  0  0  0
   -1.3973   22.5605  -27.9154 H   0  0  0  0  0  0  0  0  0  0  0  0
   -2.0955   22.5970  -30.2653 H   0  0  0  0  0  0  0  0  0  0  0  0
   -6.4413   22.4530  -31.7192 H   0  0  0  0  0  0  0  0  0  0  0  0
   -8.0222   21.2218  -31.6563 H   0  0  0  0  0  0  0  0  0  0  0  0
   -8.4179   21.3420  -33.3895 H   0  0  0  0  0  0  0  0  0  0  0  0
  -10.0054   19.8784  -31.9075 H   0  0  0  0  0  0  0  0  0  0  0  0
   -9.4257   19.1286  -33.4116 H   0  0  0  0  0  0  0  0  0  0  0  0
   -8.0779   18.8835  -30.6763 H   0  0  0  0  0  0  0  0  0  0  0  0
   -9.1737   17.6437  -31.4523 H   0  0  0  0  0  0  0  0  0  0  0  0
   -6.4172   17.6964  -31.6115 H   0  0  0  0  0  0  0  0  0  0  0  0
   -7.5264   16.8079  -32.6930 H   0  0  0  0  0  0  0  0  0  0  0  0
   -5.8621   18.4097  -33.8419 H   0  0  0  0  0  0  0  0  0  0  0  0
   -7.5632   18.6344  -34.2926 H   0  0  0  0  0  0  0  0  0  0  0  0
   -4.3920   19.2870  -33.6480 H   0  0  0  0  0  0  0  0  0  0  0  0
   -2.3177   20.3606  -33.3717 H   0  0  0  0  0  0  0  0  0  0  0  0
  1  2  1  0
  2  3  1  0
  3  4  2  0
  4  5  1  0
  5  6  2  0
  6  7  1  0
  7  8  2  0
  8  9  1  0
  9 10  2  0
 10 11  1  0
 11 12  2  0
 12 13  1  0
 13 14  1  0
 14 15  1  0
 15 16  1  0
 16 17  1  0
 17 18  1  0
 12 19  1  0
 19 20  1  0
 20 21  2  0
  8  3  1  0
 21 10  1  0
 18 13  1  0
  1 22  1  0
  1 23  1  0
  1 24  1  0
  4 25  1  0
  5 26  1  0
  6 27  1  0
  7 28  1  0
 11 29  1  0
 14 30  1  0
 14 31  1  0
 15 32  1  0
 15 33  1  0
 16 34  1  0
 16 35  1  0
 17 36  1  0
 17 37  1  0
 18 38  1  0
 18 39  1  0
 19 40  1  0
 20 41  1  0
M  END
>  <smiles>  (43) 
CSc1ccccc1N=c1cc(N2CCCCC2)[nH]cn1

>  <score_type>  (43) 
oracle

>  <origin>  (43) 
adg

>  <m_score__min__energy>  (43) 
-8.1899999999999995

>  <m_primary>  (43) 
energy

$$$$
43:0
     RDKit          3D

 45 46  0  0  0  0  0  0  0  0999 V2000
   -9.1140   20.0570  -32.1920 C   0  0  0  0  0  0  0  0  0  0  0  0
   -9.0540   21.0620  -31.3130 C   0  0  0  0  0  0  0  0  0  0  0  0
   -8.9940   22.4940  -31.7600 C   0  0  0  0  0  0  0  0  0  0  0  0
   -7.6210   22.9860  -31.7020 N   0  0  0  0  0  0  0  0  0  0  0  0
   -7.1800   24.0680  -31.0340 C   0  0  0  0  0  0  0  0  0  0  0  0
   -5.8120   24.1060  -31.2150 C   0  0  0  0  0  0  0  0  0  0  0  0
   -4.9000   25.1550  -30.7150 C   0  0  0  0  0  0  0  0  0  0  0  0
   -5.3770   26.2890  -30.4480 O   0  0  0  0  0  0  0  0  0  0  0  0
   -3.5060   24.9270  -30.4720 N   0  0  0  0  0  0  0  0  0  0  0  0
   -2.9430   23.9370  -29.5600 C   0  0  0  0  0  0  0  0  0  0  0  0
   -2.1130   22.9000  -30.3440 C   0  0  0  0  0  0  0  0  0  0  0  0
   -2.8970   22.0040  -31.2250 N   0  0  0  0  0  0  0  0  0  0  0  0
   -3.5980   20.9160  -30.5190 C   0  0  0  0  0  0  0  0  0  0  0  0
   -4.4230   20.0640  -31.5050 C   0  0  0  0  0  0  0  0  0  0  0  0
   -4.4690   20.6990  -32.8410 N   0  0  0  0  0  0  0  0  0  0  0  0
   -5.3270   19.9330  -33.7710 C   0  0  0  0  0  0  0  0  0  0  0  0
   -6.1000   18.8490  -33.0230 C   0  0  0  0  0  0  0  0  0  0  0  0
   -3.1010   20.8280  -33.3890 C   0  0  0  0  0  0  0  0  0  0  0  0
   -2.1390   21.4870  -32.3770 C   0  0  0  0  0  0  0  0  0  0  0  0
   -5.4800   23.0580  -31.9960 N   0  0  0  0  0  0  0  0  0  0  0  0
   -6.5870   22.3880  -32.2730 N   0  0  0  0  0  0  0  0  0  0  0  0
   -9.1571   19.0170  -31.8363 H   0  0  0  0  0  0  0  0  0  0  0  0
   -9.1203   20.2698  -33.2712 H   0  0  0  0  0  0  0  0  0  0  0  0
   -9.0484   20.8346  -30.2368 H   0  0  0  0  0  0  0  0  0  0  0  0
   -9.3622   22.5671  -32.7940 H   0  0  0  0  0  0  0  0  0  0  0  0
   -9.6209   23.1036  -31.0926 H   0  0  0  0  0  0  0  0  0  0  0  0
   -7.7888   24.7806  -30.4581 H   0  0  0  0  0  0  0  0  0  0  0  0
   -2.2951   24.4433  -28.8294 H   0  0  0  0  0  0  0  0  0  0  0  0
   -3.7637   23.4206  -29.0406 H   0  0  0  0  0  0  0  0  0  0  0  0
   -1.3896   23.4445  -30.9687 H   0  0  0  0  0  0  0  0  0  0  0  0
   -1.6411   22.2524  -29.5904 H   0  0  0  0  0  0  0  0  0  0  0  0
   -2.8571   20.2739  -30.0203 H   0  0  0  0  0  0  0  0  0  0  0  0
   -4.2812   21.3590  -29.7794 H   0  0  0  0  0  0  0  0  0  0  0  0
   -3.9619   19.0693  -31.5947 H   0  0  0  0  0  0  0  0  0  0  0  0
   -5.4502   19.9780  -31.1211 H   0  0  0  0  0  0  0  0  0  0  0  0
   -6.0403   20.6185  -34.2520 H   0  0  0  0  0  0  0  0  0  0  0  0
   -4.6887   19.4539  -34.5280 H   0  0  0  0  0  0  0  0  0  0  0  0
   -5.9907   19.0023  -31.9392 H   0  0  0  0  0  0  0  0  0  0  0  0
   -7.1643   18.9034  -33.2955 H   0  0  0  0  0  0  0  0  0  0  0  0
   -5.7018   17.8605  -33.2955 H   0  0  0  0  0  0  0  0  0  0  0  0
   -2.7221   19.8264  -33.6406 H   0  0  0  0  0  0  0  0  0  0  0  0
   -3.1490   21.4678  -34.2825 H   0  0  0  0  0  0  0  0  0  0  0  0
   -1.4100   20.7407  -32.0282 H   0  0  0  0  0  0  0  0  0  0  0  0
   -1.6142   22.3202  -32.8674 H   0  0  0  0  0  0  0  0  0  0  0  0
   -4.5430   22.8160  -32.3810 H   0  0  0  0  0  0  0  0  0  0  0  0
  1  2  2  0
  2  3  1  0
  3  4  1  0
  4  5  1  0
  5  6  2  0
  6  7  1  0
  7  8  2  0
  7  9  1  0
  9 10  1  0
 10 11  1  0
 11 12  1  0
 12 13  1  0
 13 14  1  0
 14 15  1  0
 15 16  1  0
 16 17  1  0
 15 18  1  0
 18 19  1  0
  6 20  1  0
 20 21  2  0
 21  4  1  0
 19 12  1  0
  1 22  1  0
  1 23  1  0
  2 24  1  0
  3 25  1  0
  3 26  1  0
  5 27  1  0
 10 28  1  0
 10 29  1  0
 11 30  1  0
 11 31  1  0
 13 32  1  0
 13 33  1  0
 14 34  1  0
 14 35  1  0
 16 36  1  0
 16 37  1  0
 17 38  1  0
 17 39  1  0
 17 40  1  0
 18 41  1  0
 18 42  1  0
 19 43  1  0
 19 44  1  0
 20 45  1  0
M  CHG  2   9  -1  20   1
M  END
>  <UniqueID>  (44) 
38

>  <SMILES>  (44) 
C=CCn1cc(C(=O)[N-]CCN2CCN(CC)CC2)[nH+]n1

>  <Energy>  (44) 
87.51330822454298

>  <Genealogy>  (44) 
C=CCn1cc(C(=O)[N-]CCN2CCN(CC)CC2)[nH+]n1 (protonated)
C=CCn1cc(C(=O)[N-]CCN2CCN(CC)CC2)[nH+]n1 (3D coordinates assigned)
C=CCn1cc(C(=O)[N-]CCN2CCN(CC)CC2)[nH+]n1 (nonaromatic ring conformer: 87.51330822454298 kcal/mol)

>  <smiles>  (44) 
C=CCn1cc(C(=O)NCCN2CCN(CC)CC2)nn1

>  <score_type>  (44) 
oracle

>  <origin>  (44) 
adg

>  <m_score__min__energy>  (44) 
-7.5

>  <m_primary>  (44) 
energy

$$$$
44:0
     RDKit          3D

 38 41  0  0  0  0  0  0  0  0999 V2000
   -4.2380   25.6680  -30.9140 O   0  0  0  0  0  0  0  0  0  0  0  0
   -3.8140   24.8560  -30.0500 C   0  0  0  0  0  0  0  0  0  0  0  0
   -2.6740   25.2270  -29.2600 N   0  0  0  0  0  0  0  0  0  0  0  0
   -1.7430   24.4430  -28.7990 C   0  0  0  0  0  0  0  0  0  0  0  0
   -1.9850   23.1290  -28.5320 N   0  0  0  0  0  0  0  0  0  0  0  0
   -1.0080   22.3160  -28.0530 C   0  0  0  0  0  0  0  0  0  0  0  0
    0.2700   22.8260  -27.8290 C   0  0  0  0  0  0  0  0  0  0  0  0
    1.2590   22.0320  -27.3530 F   0  0  0  0  0  0  0  0  0  0  0  0
    0.5070   24.1710  -28.1080 C   0  0  0  0  0  0  0  0  0  0  0  0
   -0.4990   24.9500  -28.5850 N   0  0  0  0  0  0  0  0  0  0  0  0
   -4.5010   23.6150  -29.8290 N   0  0  0  0  0  0  0  0  0  0  0  0
   -5.6090   23.1030  -30.5840 C   0  0  0  0  0  0  0  0  0  0  0  0
   -6.7150   23.9340  -30.7940 C   0  0  0  0  0  0  0  0  0  0  0  0
   -7.8250   23.4670  -31.4980 C   0  0  0  0  0  0  0  0  0  0  0  0
   -7.8460   22.1610  -31.9900 C   0  0  0  0  0  0  0  0  0  0  0  0
   -6.7530   21.3020  -31.7790 C   0  0  0  0  0  0  0  0  0  0  0  0
   -6.8020   19.9060  -32.2880 C   0  0  0  0  0  0  0  0  0  0  0  0
   -7.9800   19.1350  -32.2350 C   0  0  0  0  0  0  0  0  0  0  0  0
   -7.9740   17.8610  -32.7070 N   0  0  0  0  0  0  0  0  0  0  0  0
   -6.8500   17.3070  -33.2300 C   0  0  0  0  0  0  0  0  0  0  0  0
   -6.8580   15.9950  -33.7140 C   0  0  0  0  0  0  0  0  0  0  0  0
   -5.6870   15.4410  -34.2440 C   0  0  0  0  0  0  0  0  0  0  0  0
   -4.5090   16.1980  -34.2910 C   0  0  0  0  0  0  0  0  0  0  0  0
   -4.4960   17.5100  -33.8070 C   0  0  0  0  0  0  0  0  0  0  0  0
   -5.6650   18.0680  -33.2770 C   0  0  0  0  0  0  0  0  0  0  0  0
   -5.6740   19.3400  -32.8040 N   0  0  0  0  0  0  0  0  0  0  0  0
   -5.6410   21.7790  -31.0560 C   0  0  0  0  0  0  0  0  0  0  0  0
   -1.2245   21.2583  -27.8424 H   0  0  0  0  0  0  0  0  0  0  0  0
    1.5060   24.6007  -27.9424 H   0  0  0  0  0  0  0  0  0  0  0  0
   -6.7091   24.9616  -30.4016 H   0  0  0  0  0  0  0  0  0  0  0  0
   -8.6865   24.1301  -31.6659 H   0  0  0  0  0  0  0  0  0  0  0  0
   -8.7238   21.8012  -32.5467 H   0  0  0  0  0  0  0  0  0  0  0  0
   -8.9013   19.5630  -31.8130 H   0  0  0  0  0  0  0  0  0  0  0  0
   -7.7824   15.3998  -33.6783 H   0  0  0  0  0  0  0  0  0  0  0  0
   -5.6916   14.4089  -34.6245 H   0  0  0  0  0  0  0  0  0  0  0  0
   -3.5915   15.7590  -34.7099 H   0  0  0  0  0  0  0  0  0  0  0  0
   -3.5695   18.1018  -33.8428 H   0  0  0  0  0  0  0  0  0  0  0  0
   -4.7907   21.1095  -30.8593 H   0  0  0  0  0  0  0  0  0  0  0  0
  1  2  2  0
  2  3  1  0
  3  4  2  3
  4  5  1  0
  5  6  2  0
  6  7  1  0
  7  8  1  0
  7  9  2  0
  9 10  1  0
  2 11  1  0
 11 12  1  0
 12 13  2  0
 13 14  1  0
 14 15  2  0
 15 16  1  0
 16 17  1  0
 17 18  2  0
 18 19  1  0
 19 20  2  0
 20 21  1  0
 21 22  2  0
 22 23  1  0
 23 24  2  0
 24 25  1  0
 25 26  2  0
 16 27  2  0
 10  4  1  0
 27 12  1  0
 26 17  1  0
 25 20  1  0
  6 28  1  0
  9 29  1  0
 13 30  1  0
 14 31  1  0
 15 32  1  0
 18 33  1  0
 21 34  1  0
 22 35  1  0
 23 36  1  0
 24 37  1  0
 27 38  1  0
M  CHG  2  10  -1  11  -1
M  END
>  <UniqueID>  (45) 
39

>  <SMILES>  (45) 
O=C(N=c1ncc(F)c[n-]1)[N-]c1cccc(-c2cnc3ccccc3n2)c1

>  <Energy>  (45) 
57.95086550014566

>  <Genealogy>  (45) 
O=C(N=c1ncc(F)c[n-]1)[N-]c1cccc(-c2cnc3ccccc3n2)c1 (protonated)
O=C(N=c1ncc(F)c[n-]1)[N-]c1cccc(-c2cnc3ccccc3n2)c1 (3D coordinates assigned)
O=C(N=c1ncc(F)c[n-]1)[N-]c1cccc(-c2cnc3ccccc3n2)c1 (optimized conformer: 57.95086550014566 kcal/mol)

>  <smiles>  (45) 
O=C(N=c1ncc(F)c[nH]1)Nc1cccc(-c2cnc3ccccc3n2)c1

>  <score_type>  (45) 
oracle

>  <origin>  (45) 
adg

>  <m_score__min__energy>  (45) 
-11.140000000000001

>  <m_primary>  (45) 
energy

$$$$
45:0
     RDKit          3D

 57 60  0  0  0  0  0  0  0  0999 V2000
   -0.8440   26.7750  -23.7460 C   0  0  0  0  0  0  0  0  0  0  0  0
   -0.5010   25.9960  -24.8880 O   0  0  0  0  0  0  0  0  0  0  0  0
   -1.4230   25.2760  -25.6600 C   0  0  0  0  0  0  0  0  0  0  0  0
   -0.9800   24.1220  -26.3160 C   0  0  0  0  0  0  0  0  0  0  0  0
   -1.8610   23.3650  -27.0920 C   0  0  0  0  0  0  0  0  0  0  0  0
   -3.2020   23.7550  -27.2270 C   0  0  0  0  0  0  0  0  0  0  0  0
   -4.1580   22.9390  -28.0660 C   0  0  0  0  0  0  0  0  0  0  0  0
   -4.7330   23.6950  -29.2810 C   0  0  2  0  0  0  0  0  0  0  0  0
   -5.5760   22.8150  -30.0990 N   0  0  0  0  0  0  0  0  0  0  0  0
   -6.9520   23.1100  -30.3910 C   0  0  0  0  0  0  0  0  0  0  0  0
   -7.4300   24.2380  -30.0790 O   0  0  0  0  0  0  0  0  0  0  0  0
   -7.8180   22.1240  -31.0810 C   0  0  0  0  0  0  0  0  0  0  0  0
   -9.0550   22.5020  -31.6380 C   0  0  0  0  0  0  0  0  0  0  0  0
   -9.8580   21.5570  -32.2870 C   0  0  0  0  0  0  0  0  0  0  0  0
   -9.4300   20.2320  -32.3990 C   0  0  0  0  0  0  0  0  0  0  0  0
   -8.1980   19.8490  -31.8650 C   0  0  0  0  0  0  0  0  0  0  0  0
   -7.3940   20.7880  -31.2110 C   0  0  0  0  0  0  0  0  0  0  0  0
   -3.6550   24.3220  -30.1240 C   0  0  0  0  0  0  0  0  0  0  0  0
   -3.9260   25.3350  -30.8200 O   0  0  0  0  0  0  0  0  0  0  0  0
   -2.3230   23.7970  -30.0980 N   0  0  0  0  0  0  0  0  0  0  0  0
   -1.9640   22.4630  -30.5630 C   0  0  0  0  0  0  0  0  0  0  0  0
   -3.0540   21.8930  -31.4110 C   0  0  0  0  0  0  0  0  0  0  0  0
   -3.3570   20.5810  -31.4710 N   0  0  0  0  0  0  0  0  0  0  0  0
   -4.3630   20.5810  -32.3730 C   0  0  0  0  0  0  0  0  0  0  0  0
   -5.0650   19.3590  -32.8200 C   0  0  0  0  0  0  0  0  0  0  0  0
   -5.4130   18.3530  -31.8990 C   0  0  0  0  0  0  0  0  0  0  0  0
   -6.1000   17.2130  -32.3270 C   0  0  0  0  0  0  0  0  0  0  0  0
   -6.4440   17.0650  -33.6740 C   0  0  0  0  0  0  0  0  0  0  0  0
   -6.1020   18.0590  -34.5960 C   0  0  0  0  0  0  0  0  0  0  0  0
   -5.4090   19.1970  -34.1740 C   0  0  0  0  0  0  0  0  0  0  0  0
   -4.6470   21.8200  -32.8250 N   0  0  0  0  0  0  0  0  0  0  0  0
   -3.8140   22.6020  -32.2070 O   0  0  0  0  0  0  0  0  0  0  0  0
   -3.6490   24.9120  -26.5710 C   0  0  0  0  0  0  0  0  0  0  0  0
   -2.7680   25.6670  -25.7920 C   0  0  0  0  0  0  0  0  0  0  0  0
   -0.5972   26.2145  -22.8322 H   0  0  0  0  0  0  0  0  0  0  0  0
   -0.2779   27.7180  -23.7619 H   0  0  0  0  0  0  0  0  0  0  0  0
   -1.9218   26.9941  -23.7619 H   0  0  0  0  0  0  0  0  0  0  0  0
    0.0700   23.8086  -26.2199 H   0  0  0  0  0  0  0  0  0  0  0  0
   -1.5014   22.4581  -27.6001 H   0  0  0  0  0  0  0  0  0  0  0  0
   -3.6233   22.0507  -28.4334 H   0  0  0  0  0  0  0  0  0  0  0  0
   -5.0102   22.6846  -27.4186 H   0  0  0  0  0  0  0  0  0  0  0  0
   -5.3556   24.5095  -28.8823 H   0  0  0  0  0  0  0  0  0  0  0  0
   -5.1190   22.0210  -30.6020 H   0  0  0  0  0  0  0  0  0  0  0  0
   -9.3922   23.5463  -31.5626 H   0  0  0  0  0  0  0  0  0  0  0  0
  -10.8279   21.8582  -32.7096 H   0  0  0  0  0  0  0  0  0  0  0  0
  -10.0634   19.4905  -32.9078 H   0  0  0  0  0  0  0  0  0  0  0  0
   -7.8592   18.8067  -31.9589 H   0  0  0  0  0  0  0  0  0  0  0  0
   -6.4232   20.4803  -30.7952 H   0  0  0  0  0  0  0  0  0  0  0  0
   -1.0388   22.5229  -31.1549 H   0  0  0  0  0  0  0  0  0  0  0  0
   -1.8145   21.8105  -29.6901 H   0  0  0  0  0  0  0  0  0  0  0  0
   -5.1434   18.4642  -30.8384 H   0  0  0  0  0  0  0  0  0  0  0  0
   -6.3704   16.4308  -31.6024 H   0  0  0  0  0  0  0  0  0  0  0  0
   -6.9836   16.1667  -34.0084 H   0  0  0  0  0  0  0  0  0  0  0  0
   -6.3787   17.9452  -35.6545 H   0  0  0  0  0  0  0  0  0  0  0  0
   -5.1310   19.9704  -34.9051 H   0  0  0  0  0  0  0  0  0  0  0  0
   -4.6984   25.2264  -26.6704 H   0  0  0  0  0  0  0  0  0  0  0  0
   -3.1279   26.5714  -25.2796 H   0  0  0  0  0  0  0  0  0  0  0  0
  1  2  1  0
  2  3  1  0
  3  4  2  0
  4  5  1  0
  5  6  2  0
  6  7  1  0
  7  8  1  0
  8  9  1  0
  9 10  1  0
 10 11  2  0
 10 12  1  0
 12 13  2  0
 13 14  1  0
 14 15  2  0
 15 16  1  0
 16 17  2  0
  8 18  1  0
 18 19  2  0
 18 20  1  0
 20 21  1  0
 21 22  1  0
 22 23  2  0
 23 24  1  0
 24 25  1  0
 25 26  2  0
 26 27  1  0
 27 28  2  0
 28 29  1  0
 29 30  2  0
 24 31  2  0
 31 32  1  0
  6 33  1  0
 33 34  2  0
 34  3  1  0
 17 12  1  0
 32 22  1  0
 30 25  1  0
  1 35  1  0
  1 36  1  0
  1 37  1  0
  4 38  1  0
  5 39  1  0
  7 40  1  0
  7 41  1  0
  8 42  1  1
  9 43  1  0
 13 44  1  0
 14 45  1  0
 15 46  1  0
 16 47  1  0
 17 48  1  0
 21 49  1  0
 21 50  1  0
 26 51  1  0
 27 52  1  0
 28 53  1  0
 29 54  1  0
 30 55  1  0
 33 56  1  0
 34 57  1  0
M  CHG  1  20  -1
M  END
>  <UniqueID>  (46) 
40

>  <SMILES>  (46) 
COc1ccc(C[C@H](NC(=O)c2ccccc2)C(=O)[N-]Cc2nc(-c3ccccc3)no2)cc1

>  <Energy>  (46) 
87.35381587444093

>  <Genealogy>  (46) 
COc1ccc(CC(NC(=O)c2ccccc2)C(=O)[N-]Cc2nc(-c3ccccc3)no2)cc1 (protonated)
COc1ccc(C[C@H](NC(=O)c2ccccc2)C(=O)[N-]Cc2nc(-c3ccccc3)no2)cc1 (chirality)
COc1ccc(C[C@H](NC(=O)c2ccccc2)C(=O)[N-]Cc2nc(-c3ccccc3)no2)cc1 (3D coordinates assigned)
COc1ccc(C[C@H](NC(=O)c2ccccc2)C(=O)[N-]Cc2nc(-c3ccccc3)no2)cc1 (optimized conformer: 87.35381587444093 kcal/mol)

>  <smiles>  (46) 
COc1ccc(CC(NC(=O)c2ccccc2)C(=O)NCc2nc(-c3ccccc3)no2)cc1

>  <score_type>  (46) 
oracle

>  <origin>  (46) 
adg

>  <m_score__min__energy>  (46) 
-12.67

>  <m_primary>  (46) 
energy

$$$$
46:0
     RDKit          3D

 26 27  0  0  0  0  0  0  0  0999 V2000
   -4.1910   25.6710  -31.6180 H   0  0  0  0  0  0  0  0  0  0  0  0
   -3.8310   25.4500  -30.6980 O   0  0  0  0  0  0  0  0  0  0  0  0
   -3.7050   24.1400  -30.2360 C   0  0  0  0  0  0  0  0  0  0  0  0
   -2.9610   23.9070  -29.0720 C   0  0  0  0  0  0  0  0  0  0  0  0
   -2.4936   24.7512  -28.5439 H   0  0  0  0  0  0  0  0  0  0  0  0
   -2.8090   22.6100  -28.5780 C   0  0  0  0  0  0  0  0  0  0  0  0
   -1.8730   22.3310  -27.1200 Cl  0  0  0  0  0  0  0  0  0  0  0  0
   -3.3940   21.5350  -29.2490 C   0  0  0  0  0  0  0  0  0  0  0  0
   -3.2689   20.5130  -28.8620 H   0  0  0  0  0  0  0  0  0  0  0  0
   -4.1380   21.7540  -30.4110 C   0  0  0  0  0  0  0  0  0  0  0  0
   -4.5891   20.9012  -30.9394 H   0  0  0  0  0  0  0  0  0  0  0  0
   -4.3150   23.0620  -30.9120 C   0  0  0  0  0  0  0  0  0  0  0  0
   -5.0610   23.3270  -32.1130 N   0  0  0  0  0  0  0  0  0  0  0  0
   -6.3550   23.3870  -32.2210 C   0  0  0  0  0  0  0  0  0  0  0  0
   -6.8399   24.3643  -32.3612 H   0  0  0  0  0  0  0  0  0  0  0  0
   -7.1880   22.1660  -32.1590 C   0  0  0  0  0  0  0  0  0  0  0  0
   -8.4580   22.2460  -31.5600 C   0  0  0  0  0  0  0  0  0  0  0  0
   -8.8088   23.2050  -31.1511 H   0  0  0  0  0  0  0  0  0  0  0  0
   -9.2780   21.1170  -31.4800 C   0  0  0  0  0  0  0  0  0  0  0  0
  -10.2703   21.1911  -31.0111 H   0  0  0  0  0  0  0  0  0  0  0  0
   -8.8400   19.8960  -31.9940 C   0  0  0  0  0  0  0  0  0  0  0  0
   -9.4870   19.0087  -31.9300 H   0  0  0  0  0  0  0  0  0  0  0  0
   -7.5820   19.8000  -32.5890 C   0  0  0  0  0  0  0  0  0  0  0  0
   -7.2396   18.8357  -32.9926 H   0  0  0  0  0  0  0  0  0  0  0  0
   -6.7530   20.9250  -32.6750 C   0  0  0  0  0  0  0  0  0  0  0  0
   -5.5350   20.7910  -33.2570 F   0  0  0  0  0  0  0  0  0  0  0  0
  1  2  1  0
  2  3  1  0
  3  4  2  0
  4  5  1  0
  4  6  1  0
  6  7  1  0
  6  8  2  0
  8  9  1  0
  8 10  1  0
 10 11  1  0
 10 12  2  0
 12 13  1  0
 13 14  2  0
 14 15  1  0
 14 16  1  0
 16 17  2  0
 17 18  1  0
 17 19  1  0
 19 20  1  0
 19 21  2  0
 21 22  1  0
 21 23  1  0
 23 24  1  0
 23 25  2  0
 25 26  1  0
 12  3  1  0
 25 16  1  0
M  END
>  <UniqueID>  (47) 
41

>  <SMILES>  (47) 
Oc1cc(Cl)ccc1/N=C/c1ccccc1F

>  <Energy>  (47) 
31.081752895196647

>  <Genealogy>  (47) 
Oc1cc(Cl)ccc1/N=C/c1ccccc1F (cis-trans isomerization)
Oc1cc(Cl)ccc1/N=C/c1ccccc1F (3D coordinates assigned)
Oc1cc(Cl)ccc1/N=C/c1ccccc1F (optimized conformer: 31.081752895196647 kcal/mol)

>  <smiles>  (47) 
Oc1cc(Cl)ccc1N=Cc1ccccc1F

>  <score_type>  (47) 
oracle

>  <origin>  (47) 
adg

>  <m_score__min__energy>  (47) 
-7.6500000000000004

>  <m_primary>  (47) 
energy

$$$$
47:0
     RDKit          3D

 28 30  0  0  1  0  0  0  0  0999 V2000
   -4.2080   25.4180  -30.8710 O   0  0  0  0  0  0  0  0  0  0  0  0
   -4.6220   24.3720  -30.2550 C   0  0  0  0  0  0  0  0  0  0  0  0
   -3.9380   23.8180  -29.1780 N   0  0  0  0  0  0  0  0  0  0  0  0
   -2.7510   24.0230  -28.8780 C   0  0  0  0  0  0  0  0  0  0  0  0
   -2.2660   25.2960  -29.0030 N   0  0  0  0  0  0  0  0  0  0  0  0
   -0.9950   25.6050  -28.6980 C   0  0  0  0  0  0  0  0  0  0  0  0
   -0.1450   24.6500  -28.2520 N   0  0  0  0  0  0  0  0  0  0  0  0
   -0.6200   23.4020  -28.1290 C   0  0  0  0  0  0  0  0  0  0  0  0
    0.0160   22.2650  -27.7060 C   0  0  0  0  0  0  0  0  0  0  0  0
   -0.8780   21.2740  -27.7610 N   0  0  0  0  0  0  0  0  0  0  0  0
   -2.0830   21.7310  -28.2060 C   0  0  0  0  0  0  0  0  0  0  0  0
   -1.9180   23.0510  -28.4330 C   0  0  0  0  0  0  0  0  0  0  0  0
   -5.8760   23.7030  -30.6730 C   0  0  0  0  0  0  0  0  0  0  0  0
   -6.3560   23.8360  -31.9630 C   0  0  0  0  0  0  0  0  0  0  0  0
   -7.5370   23.2130  -32.3750 C   0  0  0  0  0  0  0  0  0  0  0  0
   -8.2590   22.4460  -31.4990 C   0  0  0  0  0  0  0  0  0  0  0  0
   -7.7960   22.2980  -30.2030 C   0  0  0  0  0  0  0  0  0  0  0  0
   -6.6140   22.9280  -29.8080 C   0  0  0  0  0  0  0  0  0  0  0  0
   -2.8840   26.0500  -29.3400 H   0  0  0  0  0  0  0  0  0  0  0  0
   -0.6423   26.6407  -28.8113 H   0  0  0  0  0  0  0  0  0  0  0  0
    1.0642   22.1834  -27.3824 H   0  0  0  0  0  0  0  0  0  0  0  0
   -0.6340   20.2890  -27.4850 H   0  0  0  0  0  0  0  0  0  0  0  0
   -3.0019   21.1438  -28.3505 H   0  0  0  0  0  0  0  0  0  0  0  0
   -5.7936   24.4481  -32.6835 H   0  0  0  0  0  0  0  0  0  0  0  0
   -7.8893   23.3392  -33.4094 H   0  0  0  0  0  0  0  0  0  0  0  0
   -9.1903   21.9564  -31.8200 H   0  0  0  0  0  0  0  0  0  0  0  0
   -8.3590   21.6843  -29.4844 H   0  0  0  0  0  0  0  0  0  0  0  0
   -6.2621   22.8008  -28.7736 H   0  0  0  0  0  0  0  0  0  0  0  0
  1  2  2  0
  2  3  1  0
  3  4  2  0
  4  5  1  0
  5  6  1  0
  6  7  2  0
  7  8  1  0
  8  9  2  0
  9 10  1  0
 10 11  1  0
 11 12  2  0
  2 13  1  0
 13 14  2  0
 14 15  1  0
 15 16  2  0
 16 17  1  0
 17 18  2  0
 12  4  1  0
 18 13  1  0
 12  8  1  0
  5 19  1  0
  6 20  1  0
  9 21  1  0
 10 22  1  0
 11 23  1  0
 14 24  1  0
 15 25  1  0
 16 26  1  0
 17 27  1  0
 18 28  1  0
M  END
>  <smiles>  (48) 
O=C(N=c1[nH]cnc2c[nH]cc12)c1ccccc1

>  <score_type>  (48) 
oracle

>  <origin>  (48) 
adg

>  <m_score__min__energy>  (48) 
-7.1900000000000004

>  <m_primary>  (48) 
energy

$$$$
