0:0
     RDKit          3D

 29 30  0  0  0  0  0  0  0  0999 V2000
   -2.7800   19.5190  -33.8420 C   0  0  0  0  0  0  0  0  0  0  0  0
   -2.7080   20.6320  -32.7940 C   0  0  0  0  0  0  0  0  0  0  0  0
   -3.4960   21.8140  -33.1800 N   0  0  0  0  0  0  0  0  0  0  0  0
   -4.8490   21.7200  -32.6960 C   0  0  0  0  0  0  0  0  0  0  0  0
   -5.6190   20.6200  -32.8740 N   0  0  0  0  0  0  0  0  0  0  0  0
   -6.7670   20.9300  -32.2310 C   0  0  0  0  0  0  0  0  0  0  0  0
   -7.8970   20.1090  -32.1430 C   0  0  0  0  0  0  0  0  0  0  0  0
   -7.9140   18.7360  -32.7500 C   0  0  0  0  0  0  0  0  0  0  0  0
   -9.0050   20.6080  -31.4310 C   0  0  0  0  0  0  0  0  0  0  0  0
   -8.9670   21.8920  -30.8620 C   0  0  0  0  0  0  0  0  0  0  0  0
   -7.8120   22.6740  -30.9910 C   0  0  0  0  0  0  0  0  0  0  0  0
   -6.7490   22.1510  -31.6610 N   0  0  0  0  0  0  0  0  0  0  0  0
   -5.5400   22.6690  -31.9440 C   0  0  0  0  0  0  0  0  0  0  0  0
   -5.0640   23.9500  -31.5040 N   0  0  0  0  0  0  0  0  0  0  0  0
   -5.8470   24.9140  -31.3870 O   0  0  0  0  0  0  0  0  0  0  0  0
   -3.7320   24.1360  -31.2160 O   0  0  0  0  0  0  0  0  0  0  0  0
   -2.8431   18.5437  -33.3373 H   0  0  0  0  0  0  0  0  0  0  0  0
   -3.6706   19.6647  -34.4710 H   0  0  0  0  0  0  0  0  0  0  0  0
   -1.8781   19.5487  -34.4710 H   0  0  0  0  0  0  0  0  0  0  0  0
   -3.0949   20.2450  -31.8397 H   0  0  0  0  0  0  0  0  0  0  0  0
   -1.6566   20.9428  -32.7045 H   0  0  0  0  0  0  0  0  0  0  0  0
   -3.0600   22.6570  -32.7400 H   0  0  0  0  0  0  0  0  0  0  0  0
   -3.4650   21.9550  -34.2150 H   0  0  0  0  0  0  0  0  0  0  0  0
   -7.9233   17.9814  -31.9497 H   0  0  0  0  0  0  0  0  0  0  0  0
   -8.8136   18.6214  -33.3725 H   0  0  0  0  0  0  0  0  0  0  0  0
   -7.0175   18.5992  -33.3725 H   0  0  0  0  0  0  0  0  0  0  0  0
   -9.9067   19.9879  -31.3196 H   0  0  0  0  0  0  0  0  0  0  0  0
   -9.8401   22.2814  -30.3178 H   0  0  0  0  0  0  0  0  0  0  0  0
   -7.7653   23.6856  -30.5615 H   0  0  0  0  0  0  0  0  0  0  0  0
  1  2  1  0
  2  3  1  0
  3  4  1  0
  4  5  1  0
  5  6  2  0
  6  7  1  0
  7  8  1  0
  7  9  2  0
  9 10  1  0
 10 11  2  0
 11 12  1  0
 12 13  1  0
 13 14  1  0
 14 15  2  0
 14 16  1  0
 13  4  2  0
 12  6  1  0
  1 17  1  0
  1 18  1  0
  1 19  1  0
  2 20  1  0
  2 21  1  0
  3 22  1  0
  3 23  1  0
  8 24  1  0
  8 25  1  0
  8 26  1  0
  9 27  1  0
 10 28  1  0
 11 29  1  0
M  CHG  3   3   1  14   1  16  -1
M  END
>  <UniqueID>  (1) 
1

>  <SMILES>  (1) 
CC[NH2+]c1nc2c(C)cccn2c1[N+](=O)[O-]

>  <Energy>  (1) 
67.36121103062008

>  <Genealogy>  (1) 
CC[NH2+]c1nc2c(C)cccn2c1[N+](=O)[O-] (protonated)
CC[NH2+]c1nc2c(C)cccn2c1[N+](=O)[O-] (3D coordinates assigned)
CC[NH2+]c1nc2c(C)cccn2c1[N+](=O)[O-] (optimized conformer: 67.36121103062008 kcal/mol)

>  <smiles>  (1) 
CCNc1nc2c(C)cccn2c1[N+](=O)[O-]

>  <score_type>  (1) 
oracle

>  <origin>  (1) 
adg

>  <m_score__min__energy>  (1) 
-5.9800000000000004

>  <m_primary>  (1) 
energy

$$$$
1:0
     RDKit          3D

 43 43  0  0  0  0  0  0  0  0999 V2000
   -8.2120   22.6920  -31.6670 C   0  0  0  0  0  0  0  0  0  0  0  0
   -6.8850   23.3530  -32.0240 C   0  0  0  0  0  0  0  0  0  0  0  0
   -5.7640   22.5820  -31.4650 N   0  0  0  0  0  0  0  0  0  0  0  0
   -5.0880   21.7430  -32.4740 C   0  0  0  0  0  0  0  0  0  0  0  0
   -3.6180   22.1440  -32.6940 C   0  0  0  0  0  0  0  0  0  0  0  0
   -3.0240   22.6870  -31.4620 N   0  0  0  0  0  0  0  0  0  0  0  0
   -2.4060   21.6440  -30.6220 C   0  0  0  0  0  0  0  0  0  0  0  0
   -1.9290   22.1860  -29.2410 C   0  0  0  0  0  0  0  0  0  0  0  0
   -2.9260   21.8550  -28.1090 C   0  0  0  0  0  0  0  0  0  0  0  0
   -4.2480   22.6510  -28.2220 C   0  0  0  0  0  0  0  0  0  0  0  0
   -4.1420   23.7970  -29.1540 N   0  0  0  0  0  0  0  0  0  0  0  0
   -5.3410   24.6630  -29.0780 C   0  0  0  0  0  0  0  0  0  0  0  0
   -5.3880   25.6040  -30.2850 C   0  0  0  0  0  0  0  0  0  0  0  0
   -4.3930   25.2830  -31.2170 O   0  0  0  0  0  0  0  0  0  0  0  0
   -2.9030   24.5540  -28.9000 C   0  0  0  0  0  0  0  0  0  0  0  0
   -1.6670   23.7130  -29.2760 C   0  0  0  0  0  0  0  0  0  0  0  0
   -8.3138   22.6413  -30.5729 H   0  0  0  0  0  0  0  0  0  0  0  0
   -9.0402   23.2829  -32.0853 H   0  0  0  0  0  0  0  0  0  0  0  0
   -8.2393   21.6750  -32.0853 H   0  0  0  0  0  0  0  0  0  0  0  0
   -6.7847   23.3976  -33.1185 H   0  0  0  0  0  0  0  0  0  0  0  0
   -6.8663   24.3687  -31.6022 H   0  0  0  0  0  0  0  0  0  0  0  0
   -5.0820   23.2420  -31.0230 H   0  0  0  0  0  0  0  0  0  0  0  0
   -5.1205   20.6957  -32.1393 H   0  0  0  0  0  0  0  0  0  0  0  0
   -5.6162   21.8823  -33.4288 H   0  0  0  0  0  0  0  0  0  0  0  0
   -3.0472   21.2572  -33.0068 H   0  0  0  0  0  0  0  0  0  0  0  0
   -3.5819   22.9225  -33.4703 H   0  0  0  0  0  0  0  0  0  0  0  0
   -3.7630   23.1950  -30.9240 H   0  0  0  0  0  0  0  0  0  0  0  0
   -3.1446   20.8470  -30.4508 H   0  0  0  0  0  0  0  0  0  0  0  0
   -1.5196   21.2706  -31.1557 H   0  0  0  0  0  0  0  0  0  0  0  0
   -0.9798   21.6727  -29.0278 H   0  0  0  0  0  0  0  0  0  0  0  0
   -3.1583   20.7805  -28.1484 H   0  0  0  0  0  0  0  0  0  0  0  0
   -2.4511   22.1354  -27.1572 H   0  0  0  0  0  0  0  0  0  0  0  0
   -5.0372   21.9749  -28.5826 H   0  0  0  0  0  0  0  0  0  0  0  0
   -4.4832   23.0517  -27.2249 H   0  0  0  0  0  0  0  0  0  0  0  0
   -6.2438   24.0346  -29.0713 H   0  0  0  0  0  0  0  0  0  0  0  0
   -5.2947   25.2617  -28.1564 H   0  0  0  0  0  0  0  0  0  0  0  0
   -6.3727   25.5191  -30.7679 H   0  0  0  0  0  0  0  0  0  0  0  0
   -5.2161   26.6316  -29.9322 H   0  0  0  0  0  0  0  0  0  0  0  0
   -4.4020   24.2960  -31.3140 H   0  0  0  0  0  0  0  0  0  0  0  0
   -2.9114   25.4740  -29.5029 H   0  0  0  0  0  0  0  0  0  0  0  0
   -2.8515   24.8013  -27.8294 H   0  0  0  0  0  0  0  0  0  0  0  0
   -1.3530   23.9899  -30.2932 H   0  0  0  0  0  0  0  0  0  0  0  0
   -0.8887   23.9266  -28.5285 H   0  0  0  0  0  0  0  0  0  0  0  0
  1  2  1  0
  2  3  1  0
  3  4  1  0
  4  5  1  0
  5  6  1  0
  6  7  1  0
  7  8  1  0
  8  9  1  0
  9 10  1  0
 10 11  1  0
 11 12  1  0
 12 13  1  0
 13 14  1  0
 11 15  1  0
 15 16  1  0
 16  8  1  0
  1 17  1  0
  1 18  1  0
  1 19  1  0
  2 20  1  0
  2 21  1  0
  3 22  1  0
  4 23  1  0
  4 24  1  0
  5 25  1  0
  5 26  1  0
  6 27  1  0
  7 28  1  0
  7 29  1  0
  8 30  1  0
  9 31  1  0
  9 32  1  0
 10 33  1  0
 10 34  1  0
 12 35  1  0
 12 36  1  0
 13 37  1  0
 13 38  1  0
 14 39  1  0
 15 40  1  0
 15 41  1  0
 16 42  1  0
 16 43  1  0
M  END
>  <UniqueID>  (2) 
2

>  <SMILES>  (2) 
CCNCCNCC1CCN(CCO)CC1

>  <Energy>  (2) 
45.44663829385765

>  <Genealogy>  (2) 
CCNCCNCC1CCN(CCO)CC1 (3D coordinates assigned)
CCNCCNCC1CCN(CCO)CC1 (nonaromatic ring conformer: 45.44663829385765 kcal/mol)

>  <smiles>  (2) 
CCNCCNCC1CCN(CCO)CC1

>  <score_type>  (2) 
oracle

>  <origin>  (2) 
adg

>  <m_score__min__energy>  (2) 
-3.6899999999999999

>  <m_primary>  (2) 
energy

$$$$
2:0
     RDKit          3D

 44 45  0  0  0  0  0  0  0  0999 V2000
   -9.8570   21.5450  -31.6010 C   0  0  0  0  0  0  0  0  0  0  0  0
   -8.8050   21.7340  -30.5130 C   0  0  0  0  0  0  0  0  0  0  0  0
   -7.9980   22.9320  -30.7920 N   0  0  0  0  0  0  0  0  0  0  0  0
   -7.0390   23.1950  -29.7080 C   0  0  0  0  0  0  0  0  0  0  0  0
   -6.5730   24.6560  -29.7660 C   0  0  0  0  0  0  0  0  0  0  0  0
   -5.6450   24.9240  -30.9590 C   0  0  0  0  0  0  0  0  0  0  0  0
   -4.7590   23.7800  -31.2060 N   0  0  0  0  0  0  0  0  0  0  0  0
   -3.5940   23.7300  -30.5540 N   0  0  0  0  0  0  0  0  0  0  0  0
   -2.6990   22.7270  -30.7420 C   0  0  0  0  0  0  0  0  0  0  0  0
   -1.4100   22.7230  -29.9850 C   0  0  0  0  0  0  0  0  0  0  0  0
   -2.9890   21.7150  -31.6570 C   0  0  0  0  0  0  0  0  0  0  0  0
   -4.1970   21.7490  -32.3600 C   0  0  0  0  0  0  0  0  0  0  0  0
   -4.5320   20.6410  -33.3300 C   0  0  0  0  0  0  0  0  0  0  0  0
   -5.6600   19.8000  -32.7960 C   0  0  0  0  0  0  0  0  0  0  0  0
   -5.4170   18.8400  -31.7960 C   0  0  0  0  0  0  0  0  0  0  0  0
   -6.4680   18.0750  -31.2810 C   0  0  0  0  0  0  0  0  0  0  0  0
   -7.7700   18.2660  -31.7530 C   0  0  0  0  0  0  0  0  0  0  0  0
   -8.0230   19.2250  -32.7400 C   0  0  0  0  0  0  0  0  0  0  0  0
   -6.9740   19.9920  -33.2600 C   0  0  0  0  0  0  0  0  0  0  0  0
   -5.0940   22.8030  -32.1090 C   0  0  0  0  0  0  0  0  0  0  0  0
   -6.2030   22.8460  -32.7130 O   0  0  0  0  0  0  0  0  0  0  0  0
  -10.8381   21.3687  -31.1358 H   0  0  0  0  0  0  0  0  0  0  0  0
   -9.9046   22.4490  -32.2260 H   0  0  0  0  0  0  0  0  0  0  0  0
   -9.5870   20.6810  -32.2260 H   0  0  0  0  0  0  0  0  0  0  0  0
   -9.3048   21.8506  -29.5401 H   0  0  0  0  0  0  0  0  0  0  0  0
   -8.1463   20.8532  -30.4925 H   0  0  0  0  0  0  0  0  0  0  0  0
   -7.4570   22.7540  -31.6710 H   0  0  0  0  0  0  0  0  0  0  0  0
   -7.5230   23.0047  -28.7387 H   0  0  0  0  0  0  0  0  0  0  0  0
   -6.1689   22.5324  -29.8255 H   0  0  0  0  0  0  0  0  0  0  0  0
   -7.4563   25.3060  -29.8518 H   0  0  0  0  0  0  0  0  0  0  0  0
   -6.0079   24.8660  -28.8459 H   0  0  0  0  0  0  0  0  0  0  0  0
   -6.2557   25.1057  -31.8556 H   0  0  0  0  0  0  0  0  0  0  0  0
   -5.0251   25.8031  -30.7292 H   0  0  0  0  0  0  0  0  0  0  0  0
   -1.6190   22.7236  -28.9050 H   0  0  0  0  0  0  0  0  0  0  0  0
   -0.8340   21.8231  -30.2465 H   0  0  0  0  0  0  0  0  0  0  0  0
   -0.8284   23.6193  -30.2465 H   0  0  0  0  0  0  0  0  0  0  0  0
   -2.2731   20.8968  -31.8241 H   0  0  0  0  0  0  0  0  0  0  0  0
   -4.8318   21.0804  -34.2928 H   0  0  0  0  0  0  0  0  0  0  0  0
   -3.6451   20.0045  -33.4650 H   0  0  0  0  0  0  0  0  0  0  0  0
   -4.3950   18.6907  -31.4176 H   0  0  0  0  0  0  0  0  0  0  0  0
   -6.2702   17.3222  -30.5037 H   0  0  0  0  0  0  0  0  0  0  0  0
   -8.5957   17.6623  -31.3484 H   0  0  0  0  0  0  0  0  0  0  0  0
   -9.0485   19.3764  -33.1080 H   0  0  0  0  0  0  0  0  0  0  0  0
   -7.1777   20.7470  -34.0336 H   0  0  0  0  0  0  0  0  0  0  0  0
  1  2  1  0
  2  3  1  0
  3  4  1  0
  4  5  1  0
  5  6  1  0
  6  7  1  0
  7  8  1  0
  8  9  2  0
  9 10  1  0
  9 11  1  0
 11 12  2  0
 12 13  1  0
 13 14  1  0
 14 15  2  0
 15 16  1  0
 16 17  2  0
 17 18  1  0
 18 19  2  0
 12 20  1  0
 20 21  2  0
 20  7  1  0
 19 14  1  0
  1 22  1  0
  1 23  1  0
  1 24  1  0
  2 25  1  0
  2 26  1  0
  3 27  1  0
  4 28  1  0
  4 29  1  0
  5 30  1  0
  5 31  1  0
  6 32  1  0
  6 33  1  0
 10 34  1  0
 10 35  1  0
 10 36  1  0
 11 37  1  0
 13 38  1  0
 13 39  1  0
 15 40  1  0
 16 41  1  0
 17 42  1  0
 18 43  1  0
 19 44  1  0
M  END
>  <UniqueID>  (3) 
3

>  <SMILES>  (3) 
CCNCCCn1nc(C)cc(Cc2ccccc2)c1=O

>  <Energy>  (3) 
36.116698540051644

>  <Genealogy>  (3) 
CCNCCCn1nc(C)cc(Cc2ccccc2)c1=O (3D coordinates assigned)
CCNCCCn1nc(C)cc(Cc2ccccc2)c1=O (optimized conformer: 36.116698540051644 kcal/mol)

>  <smiles>  (3) 
CCNCCCn1nc(C)cc(Cc2ccccc2)c1=O

>  <score_type>  (3) 
oracle

>  <origin>  (3) 
adg

>  <m_score__min__energy>  (3) 
-8.0399999999999991

>  <m_primary>  (3) 
energy

$$$$
3:0
     RDKit          3D

 39 40  0  0  0  0  0  0  0  0999 V2000
   -1.2160   25.5100  -28.5350 C   0  0  0  0  0  0  0  0  0  0  0  0
   -1.3220   24.0870  -28.9790 C   0  0  0  0  0  0  0  0  0  0  0  0
   -0.4270   23.1240  -28.4950 C   0  0  0  0  0  0  0  0  0  0  0  0
   -0.5720   21.7940  -28.8910 C   0  0  0  0  0  0  0  0  0  0  0  0
   -1.6110   21.4340  -29.7520 C   0  0  0  0  0  0  0  0  0  0  0  0
   -2.5020   22.4190  -30.2020 C   0  0  0  0  0  0  0  0  0  0  0  0
   -3.6680   22.0510  -31.0740 C   0  0  0  0  0  0  0  0  0  0  0  0
   -4.4560   23.2490  -31.4550 N   0  0  0  0  0  0  0  0  0  0  0  0
   -5.2530   23.7450  -30.3060 C   0  0  0  0  0  0  0  0  0  0  0  0
   -5.0300   25.2450  -30.1150 C   0  0  0  0  0  0  0  0  0  0  0  0
   -3.9110   25.6720  -30.8420 O   0  0  0  0  0  0  0  0  0  0  0  0
   -5.3220   22.9910  -32.6340 C   0  0  0  0  0  0  0  0  0  0  0  0
   -6.5010   22.1320  -32.2560 C   0  0  0  0  0  0  0  0  0  0  0  0
   -6.3940   20.7340  -32.2470 C   0  0  0  0  0  0  0  0  0  0  0  0
   -7.5090   19.9590  -31.9180 C   0  0  0  0  0  0  0  0  0  0  0  0
   -8.6870   20.5580  -31.5940 N   0  0  0  0  0  0  0  0  0  0  0  0
   -8.8120   21.9120  -31.5730 C   0  0  0  0  0  0  0  0  0  0  0  0
   -7.7210   22.7230  -31.8970 C   0  0  0  0  0  0  0  0  0  0  0  0
   -2.3350   23.7110  -29.8060 N   0  0  0  0  0  0  0  0  0  0  0  0
   -1.2129   25.5519  -27.4358 H   0  0  0  0  0  0  0  0  0  0  0  0
   -0.2829   25.9461  -28.9212 H   0  0  0  0  0  0  0  0  0  0  0  0
   -2.0742   26.0795  -28.9212 H   0  0  0  0  0  0  0  0  0  0  0  0
    0.3826   23.4138  -27.8091 H   0  0  0  0  0  0  0  0  0  0  0  0
    0.1306   21.0305  -28.5258 H   0  0  0  0  0  0  0  0  0  0  0  0
   -1.7292   20.3888  -30.0738 H   0  0  0  0  0  0  0  0  0  0  0  0
   -3.2934   21.5636  -31.9862 H   0  0  0  0  0  0  0  0  0  0  0  0
   -4.3223   21.3704  -30.5095 H   0  0  0  0  0  0  0  0  0  0  0  0
   -6.3201   23.5580  -30.4967 H   0  0  0  0  0  0  0  0  0  0  0  0
   -4.9352   23.2168  -29.3950 H   0  0  0  0  0  0  0  0  0  0  0  0
   -5.9187   25.7904  -30.4652 H   0  0  0  0  0  0  0  0  0  0  0  0
   -4.8578   25.4456  -29.0472 H   0  0  0  0  0  0  0  0  0  0  0  0
   -3.5080   24.8540  -31.2330 H   0  0  0  0  0  0  0  0  0  0  0  0
   -5.6871   23.9502  -33.0297 H   0  0  0  0  0  0  0  0  0  0  0  0
   -4.7308   22.4618  -33.3959 H   0  0  0  0  0  0  0  0  0  0  0  0
   -5.4382   20.2504  -32.4974 H   0  0  0  0  0  0  0  0  0  0  0  0
   -7.4343   18.8615  -31.9209 H   0  0  0  0  0  0  0  0  0  0  0  0
   -9.5120   19.9640  -31.3530 H   0  0  0  0  0  0  0  0  0  0  0  0
   -9.7742   22.3700  -31.3003 H   0  0  0  0  0  0  0  0  0  0  0  0
   -7.8186   23.8183  -31.8706 H   0  0  0  0  0  0  0  0  0  0  0  0
  1  2  1  0
  2  3  2  0
  3  4  1  0
  4  5  2  0
  5  6  1  0
  6  7  1  0
  7  8  1  0
  8  9  1  0
  9 10  1  0
 10 11  1  0
  8 12  1  0
 12 13  1  0
 13 14  2  0
 14 15  1  0
 15 16  2  0
 16 17  1  0
 17 18  2  0
  6 19  2  0
 19  2  1  0
 18 13  1  0
  1 20  1  0
  1 21  1  0
  1 22  1  0
  3 23  1  0
  4 24  1  0
  5 25  1  0
  7 26  1  0
  7 27  1  0
  9 28  1  0
  9 29  1  0
 10 30  1  0
 10 31  1  0
 11 32  1  0
 12 33  1  0
 12 34  1  0
 14 35  1  0
 15 36  1  0
 16 37  1  0
 17 38  1  0
 18 39  1  0
M  CHG  1  16   1
M  END
>  <UniqueID>  (4) 
4

>  <SMILES>  (4) 
Cc1cccc(CN(CCO)Cc2cc[nH+]cc2)n1

>  <Energy>  (4) 
36.7389531271848

>  <Genealogy>  (4) 
Cc1cccc(CN(CCO)Cc2cc[nH+]cc2)n1 (protonated)
Cc1cccc(CN(CCO)Cc2cc[nH+]cc2)n1 (3D coordinates assigned)
Cc1cccc(CN(CCO)Cc2cc[nH+]cc2)n1 (optimized conformer: 36.7389531271848 kcal/mol)

>  <smiles>  (4) 
Cc1cccc(CN(CCO)Cc2ccncc2)n1

>  <score_type>  (4) 
oracle

>  <origin>  (4) 
adg

>  <m_score__min__energy>  (4) 
-6.9400000000000004

>  <m_primary>  (4) 
energy

$$$$
4:0
     RDKit          3D

 49 50  0  0  0  0  0  0  0  0999 V2000
   -9.1580   19.2960  -32.5840 C   0  0  0  0  0  0  0  0  0  0  0  0
   -8.3190   18.4930  -31.5910 C   0  0  0  0  0  0  0  0  0  0  0  0
   -6.9250   18.3490  -32.0660 N   0  0  0  0  0  0  0  0  0  0  0  0
   -6.1700   17.4250  -31.1890 C   0  0  0  0  0  0  0  0  0  0  0  0
   -5.3740   16.4130  -32.0120 C   0  0  0  0  0  0  0  0  0  0  0  0
   -6.8670   17.9290  -33.4910 C   0  0  0  0  0  0  0  0  0  0  0  0
   -6.0920   18.9740  -34.2980 C   0  0  0  0  0  0  0  0  0  0  0  0
   -5.0940   19.6510  -33.4650 N   0  0  0  0  0  0  0  0  0  0  0  0
   -5.3670   20.8690  -32.7380 C   0  0  0  0  0  0  0  0  0  0  0  0
   -6.6740   21.3680  -32.6340 C   0  0  0  0  0  0  0  0  0  0  0  0
   -6.9590   22.4930  -31.9110 N   0  0  0  0  0  0  0  0  0  0  0  0
   -8.3610   22.9380  -31.8500 C   0  0  0  0  0  0  0  0  0  0  0  0
   -5.9550   23.1820  -31.2640 C   0  0  0  0  0  0  0  0  0  0  0  0
   -6.2240   24.3510  -30.5150 C   0  0  0  0  0  0  0  0  0  0  0  0
   -5.1980   25.0510  -29.8810 C   0  0  0  0  0  0  0  0  0  0  0  0
   -3.8700   24.6100  -29.9800 C   0  0  0  0  0  0  0  0  0  0  0  0
   -2.8050   25.2880  -29.3690 O   0  0  0  0  0  0  0  0  0  0  0  0
   -2.0870   24.8060  -28.2370 C   0  0  0  0  0  0  0  0  0  0  0  0
   -3.5880   23.4560  -30.7130 C   0  0  0  0  0  0  0  0  0  0  0  0
   -4.6140   22.7250  -31.3490 C   0  0  0  0  0  0  0  0  0  0  0  0
   -4.3260   21.5570  -32.0880 C   0  0  0  0  0  0  0  0  0  0  0  0
   -2.9790   21.0770  -32.1950 N   0  0  0  0  0  0  0  0  0  0  0  0
   -2.2680   20.9690  -31.1750 O   0  0  0  0  0  0  0  0  0  0  0  0
   -2.4920   20.6560  -33.4110 O   0  0  0  0  0  0  0  0  0  0  0  0
   -9.8462   19.9547  -32.0340 H   0  0  0  0  0  0  0  0  0  0  0  0
   -8.4949   19.9045  -33.2164 H   0  0  0  0  0  0  0  0  0  0  0  0
   -9.7369   18.6068  -33.2164 H   0  0  0  0  0  0  0  0  0  0  0  0
   -8.3163   19.0117  -30.6210 H   0  0  0  0  0  0  0  0  0  0  0  0
   -8.7598   17.4901  -31.4918 H   0  0  0  0  0  0  0  0  0  0  0  0
   -5.4752   18.0078  -30.5665 H   0  0  0  0  0  0  0  0  0  0  0  0
   -6.8865   16.8771  -30.5593 H   0  0  0  0  0  0  0  0  0  0  0  0
   -4.8377   15.7312  -31.3357 H   0  0  0  0  0  0  0  0  0  0  0  0
   -6.0616   15.8344  -32.6464 H   0  0  0  0  0  0  0  0  0  0  0  0
   -4.6497   16.9449  -32.6464 H   0  0  0  0  0  0  0  0  0  0  0  0
   -6.3590   16.9563  -33.5665 H   0  0  0  0  0  0  0  0  0  0  0  0
   -7.8883   17.8402  -33.8897 H   0  0  0  0  0  0  0  0  0  0  0  0
   -5.5822   18.4753  -35.1355 H   0  0  0  0  0  0  0  0  0  0  0  0
   -6.8036   19.7256  -34.6705 H   0  0  0  0  0  0  0  0  0  0  0  0
   -4.1360   19.2370  -33.4140 H   0  0  0  0  0  0  0  0  0  0  0  0
   -7.4911   20.8403  -33.1477 H   0  0  0  0  0  0  0  0  0  0  0  0
   -8.6692   23.0358  -30.7986 H   0  0  0  0  0  0  0  0  0  0  0  0
   -8.4589   23.9114  -32.3529 H   0  0  0  0  0  0  0  0  0  0  0  0
   -9.0024   22.1993  -32.3529 H   0  0  0  0  0  0  0  0  0  0  0  0
   -7.2590   24.7139  -30.4312 H   0  0  0  0  0  0  0  0  0  0  0  0
   -5.4316   25.9550  -29.2994 H   0  0  0  0  0  0  0  0  0  0  0  0
   -2.5864   25.1413  -27.3160 H   0  0  0  0  0  0  0  0  0  0  0  0
   -2.0607   23.7066  -28.2604 H   0  0  0  0  0  0  0  0  0  0  0  0
   -1.0595   25.1980  -28.2604 H   0  0  0  0  0  0  0  0  0  0  0  0
   -2.5471   23.1101  -30.7964 H   0  0  0  0  0  0  0  0  0  0  0  0
  1  2  1  0
  2  3  1  0
  3  4  1  0
  4  5  1  0
  3  6  1  0
  6  7  1  0
  7  8  1  0
  8  9  1  0
  9 10  2  0
 10 11  1  0
 11 12  1  0
 11 13  2  0
 13 14  1  0
 14 15  2  0
 15 16  1  0
 16 17  1  0
 17 18  1  0
 16 19  2  0
 19 20  1  0
 20 21  2  0
 21 22  1  0
 22 23  2  0
 22 24  1  0
 21  9  1  0
 20 13  1  0
  1 25  1  0
  1 26  1  0
  1 27  1  0
  2 28  1  0
  2 29  1  0
  4 30  1  0
  4 31  1  0
  5 32  1  0
  5 33  1  0
  5 34  1  0
  6 35  1  0
  6 36  1  0
  7 37  1  0
  7 38  1  0
  8 39  1  0
 10 40  1  0
 12 41  1  0
 12 42  1  0
 12 43  1  0
 14 44  1  0
 15 45  1  0
 18 46  1  0
 18 47  1  0
 18 48  1  0
 19 49  1  0
M  CHG  3  11   1  22   1  24  -1
M  END
>  <UniqueID>  (5) 
5

>  <SMILES>  (5) 
CCN(CC)CCNc1c[n+](C)c2ccc(OC)cc2c1[N+](=O)[O-]

>  <Energy>  (5) 
62.528596977407304

>  <Genealogy>  (5) 
CCN(CC)CCNc1c[n+](C)c2ccc(OC)cc2c1[N+](=O)[O-] (3D coordinates assigned)
CCN(CC)CCNc1c[n+](C)c2ccc(OC)cc2c1[N+](=O)[O-] (optimized conformer: 62.528596977407304 kcal/mol)

>  <smiles>  (5) 
CCN(CC)CCNc1c[n+](C)c2ccc(OC)cc2c1[N+](=O)[O-]

>  <score_type>  (5) 
oracle

>  <origin>  (5) 
adg

>  <m_score__min__energy>  (5) 
-6.8700000000000001

>  <m_primary>  (5) 
energy

$$$$
5:0
     RDKit          3D

 57 60  0  0  0  0  0  0  0  0999 V2000
   -5.6130   25.0250  -30.2200 C   0  0  0  0  0  0  0  0  0  0  0  0
   -5.4610   23.6340  -29.6050 C   0  0  0  0  0  0  0  0  0  0  0  0
   -4.0500   23.2950  -29.3670 N   0  0  0  0  0  0  0  0  0  0  0  0
   -3.5430   21.9560  -29.7110 C   0  0  0  0  0  0  0  0  0  0  0  0
   -4.2720   21.3570  -30.9290 C   0  0  0  0  0  0  0  0  0  0  0  0
   -3.5800   21.6500  -32.2700 C   0  0  0  0  0  0  0  0  0  0  0  0
   -4.5360   21.6980  -33.3890 N   0  0  0  0  0  0  0  0  0  0  0  0
   -5.6720   20.8250  -33.1400 C   0  0  0  0  0  0  0  0  0  0  0  0
   -5.6150   19.4430  -33.4610 C   0  0  0  0  0  0  0  0  0  0  0  0
   -4.5330   18.8900  -34.1910 C   0  0  0  0  0  0  0  0  0  0  0  0
   -4.5070   17.5390  -34.5240 C   0  0  0  0  0  0  0  0  0  0  0  0
   -5.5580   16.7100  -34.1590 C   0  0  0  0  0  0  0  0  0  0  0  0
   -6.6340   17.2230  -33.4390 C   0  0  0  0  0  0  0  0  0  0  0  0
   -6.6760   18.5870  -33.0510 C   0  0  0  0  0  0  0  0  0  0  0  0
   -7.7240   19.0860  -32.3050 N   0  0  0  0  0  0  0  0  0  0  0  0
   -8.6420   18.1610  -31.6030 C   0  0  0  0  0  0  0  0  0  0  0  0
   -7.9110   20.4510  -32.2080 C   0  0  0  0  0  0  0  0  0  0  0  0
   -9.1310   20.9940  -31.7300 C   0  0  0  0  0  0  0  0  0  0  0  0
   -9.3080   22.3690  -31.6040 C   0  0  0  0  0  0  0  0  0  0  0  0
   -8.2890   23.2390  -31.9650 C   0  0  0  0  0  0  0  0  0  0  0  0
   -7.0910   22.7400  -32.4700 C   0  0  0  0  0  0  0  0  0  0  0  0
   -6.8790   21.3450  -32.6050 C   0  0  0  0  0  0  0  0  0  0  0  0
   -3.2990   24.0920  -28.4340 C   0  0  0  0  0  0  0  0  0  0  0  0
   -3.8650   24.4640  -27.2070 C   0  0  0  0  0  0  0  0  0  0  0  0
   -3.1380   25.2480  -26.3060 C   0  0  0  0  0  0  0  0  0  0  0  0
   -1.8410   25.6590  -26.6260 C   0  0  0  0  0  0  0  0  0  0  0  0
   -1.2700   25.2900  -27.8480 C   0  0  0  0  0  0  0  0  0  0  0  0
   -1.9970   24.5090  -28.7510 C   0  0  0  0  0  0  0  0  0  0  0  0
   -5.6948   25.7735  -29.4181 H   0  0  0  0  0  0  0  0  0  0  0  0
   -4.7340   25.2488  -30.8423 H   0  0  0  0  0  0  0  0  0  0  0  0
   -6.5196   25.0537  -30.8423 H   0  0  0  0  0  0  0  0  0  0  0  0
   -6.0005   23.6072  -28.6467 H   0  0  0  0  0  0  0  0  0  0  0  0
   -5.8752   22.8998  -30.3117 H   0  0  0  0  0  0  0  0  0  0  0  0
   -2.4700   22.0311  -29.9412 H   0  0  0  0  0  0  0  0  0  0  0  0
   -3.7205   21.2945  -28.8502 H   0  0  0  0  0  0  0  0  0  0  0  0
   -4.3278   20.2662  -30.7982 H   0  0  0  0  0  0  0  0  0  0  0  0
   -5.2659   21.8265  -30.9712 H   0  0  0  0  0  0  0  0  0  0  0  0
   -3.0674   22.6207  -32.1998 H   0  0  0  0  0  0  0  0  0  0  0  0
   -2.8678   20.8354  -32.4682 H   0  0  0  0  0  0  0  0  0  0  0  0
   -4.0720   21.4410  -34.2880 H   0  0  0  0  0  0  0  0  0  0  0  0
   -4.8580   22.6770  -33.5420 H   0  0  0  0  0  0  0  0  0  0  0  0
   -3.7003   19.5393  -34.4993 H   0  0  0  0  0  0  0  0  0  0  0  0
   -3.6507   17.1272  -35.0782 H   0  0  0  0  0  0  0  0  0  0  0  0
   -5.5413   15.6463  -34.4387 H   0  0  0  0  0  0  0  0  0  0  0  0
   -7.4668   16.5583  -33.1660 H   0  0  0  0  0  0  0  0  0  0  0  0
   -8.5229   18.2810  -30.5161 H   0  0  0  0  0  0  0  0  0  0  0  0
   -9.6801   18.3900  -31.8856 H   0  0  0  0  0  0  0  0  0  0  0  0
   -8.4051   17.1247  -31.8856 H   0  0  0  0  0  0  0  0  0  0  0  0
   -9.9522   20.3163  -31.4538 H   0  0  0  0  0  0  0  0  0  0  0  0
  -10.2579   22.7668  -31.2174 H   0  0  0  0  0  0  0  0  0  0  0  0
   -8.4277   24.3244  -31.8521 H   0  0  0  0  0  0  0  0  0  0  0  0
   -6.2965   23.4396  -32.7689 H   0  0  0  0  0  0  0  0  0  0  0  0
   -4.8842   24.1382  -26.9520 H   0  0  0  0  0  0  0  0  0  0  0  0
   -3.5867   25.5413  -25.3455 H   0  0  0  0  0  0  0  0  0  0  0  0
   -1.2686   26.2736  -25.9156 H   0  0  0  0  0  0  0  0  0  0  0  0
   -0.2492   25.6142  -28.0985 H   0  0  0  0  0  0  0  0  0  0  0  0
   -1.5474   24.2205  -29.7126 H   0  0  0  0  0  0  0  0  0  0  0  0
  1  2  1  0
  2  3  1  0
  3  4  1  0
  4  5  1  0
  5  6  1  0
  6  7  1  0
  7  8  1  0
  8  9  1  0
  9 10  2  0
 10 11  1  0
 11 12  2  0
 12 13  1  0
 13 14  2  0
 14 15  1  0
 15 16  1  0
 15 17  2  0
 17 18  1  0
 18 19  2  0
 19 20  1  0
 20 21  2  0
 21 22  1  0
  3 23  1  0
 23 24  2  0
 24 25  1  0
 25 26  2  0
 26 27  1  0
 27 28  2  0
 22  8  2  0
 28 23  1  0
 14  9  1  0
 22 17  1  0
  1 29  1  0
  1 30  1  0
  1 31  1  0
  2 32  1  0
  2 33  1  0
  4 34  1  0
  4 35  1  0
  5 36  1  0
  5 37  1  0
  6 38  1  0
  6 39  1  0
  7 40  1  0
  7 41  1  0
 10 42  1  0
 11 43  1  0
 12 44  1  0
 13 45  1  0
 16 46  1  0
 16 47  1  0
 16 48  1  0
 18 49  1  0
 19 50  1  0
 20 51  1  0
 21 52  1  0
 24 53  1  0
 25 54  1  0
 26 55  1  0
 27 56  1  0
 28 57  1  0
M  CHG  2   7   1  15   1
M  END
>  <UniqueID>  (6) 
6

>  <SMILES>  (6) 
CCN(CCC[NH2+]c1c2ccccc2[n+](C)c2ccccc12)c1ccccc1

>  <Energy>  (6) 
87.58331099224648

>  <Genealogy>  (6) 
CCN(CCC[NH2+]c1c2ccccc2[n+](C)c2ccccc12)c1ccccc1 (protonated)
CCN(CCC[NH2+]c1c2ccccc2[n+](C)c2ccccc12)c1ccccc1 (3D coordinates assigned)
CCN(CCC[NH2+]c1c2ccccc2[n+](C)c2ccccc12)c1ccccc1 (optimized conformer: 87.58331099224648 kcal/mol)

>  <smiles>  (6) 
CCN(CCCNc1c2ccccc2[n+](C)c2ccccc12)c1ccccc1

>  <score_type>  (6) 
oracle

>  <origin>  (6) 
adg

>  <m_score__min__energy>  (6) 
-8.9600000000000009

>  <m_primary>  (6) 
energy

$$$$
6:0
     RDKit          3D

 37 40  0  0  0  0  0  0  0  0999 V2000
   -5.6070   21.3250  -32.7170 C   0  0  0  0  0  0  0  0  0  0  0  0
   -6.9490   20.7520  -32.6160 N   0  0  0  0  0  0  0  0  0  0  0  0
   -7.3630   19.4940  -32.9120 C   0  0  0  0  0  0  0  0  0  0  0  0
   -6.5010   18.3840  -33.3840 C   0  0  0  0  0  0  0  0  0  0  0  0
   -6.4390   17.1760  -32.6690 C   0  0  0  0  0  0  0  0  0  0  0  0
   -5.6140   16.1460  -33.1260 C   0  0  0  0  0  0  0  0  0  0  0  0
   -4.8580   16.3230  -34.2840 C   0  0  0  0  0  0  0  0  0  0  0  0
   -4.9390   17.5340  -34.9720 C   0  0  0  0  0  0  0  0  0  0  0  0
   -5.7490   18.5250  -34.5110 N   0  0  0  0  0  0  0  0  0  0  0  0
   -8.6900   19.3550  -32.7010 N   0  0  0  0  0  0  0  0  0  0  0  0
   -9.1270   20.5250  -32.2650 N   0  0  0  0  0  0  0  0  0  0  0  0
   -8.0800   21.3630  -32.2060 C   0  0  0  0  0  0  0  0  0  0  0  0
   -8.1930   23.0540  -31.6060 S   0  0  0  0  0  0  0  0  0  0  0  0
   -7.5550   22.6680  -29.9370 C   0  0  0  0  0  0  0  0  0  0  0  0
   -6.1310   23.1180  -29.7900 C   0  0  0  0  0  0  0  0  0  0  0  0
   -5.6540   24.2380  -30.4990 C   0  0  0  0  0  0  0  0  0  0  0  0
   -4.3360   24.6630  -30.2870 C   0  0  0  0  0  0  0  0  0  0  0  0
   -3.8880   25.6680  -30.9020 O   0  0  0  0  0  0  0  0  0  0  0  0
   -3.5590   23.9780  -29.4040 N   0  0  0  0  0  0  0  0  0  0  0  0
   -2.2680   24.2540  -29.0690 C   0  0  0  0  0  0  0  0  0  0  0  0
   -1.7280   23.3830  -28.1230 C   0  0  0  0  0  0  0  0  0  0  0  0
   -2.9060   22.2420  -27.7010 S   0  0  0  0  0  0  0  0  0  0  0  0
   -4.0410   22.9060  -28.7390 C   0  0  0  0  0  0  0  0  0  0  0  0
   -5.3120   22.4690  -28.9140 N   0  0  0  0  0  0  0  0  0  0  0  0
   -5.2047   21.4968  -31.7077 H   0  0  0  0  0  0  0  0  0  0  0  0
   -4.9508   20.6286  -33.2596 H   0  0  0  0  0  0  0  0  0  0  0  0
   -5.6562   22.2806  -33.2596 H   0  0  0  0  0  0  0  0  0  0  0  0
   -7.0365   17.0424  -31.7551 H   0  0  0  0  0  0  0  0  0  0  0  0
   -5.5607   15.1965  -32.5732 H   0  0  0  0  0  0  0  0  0  0  0  0
   -4.2053   15.5172  -34.6509 H   0  0  0  0  0  0  0  0  0  0  0  0
   -4.3480   17.6875  -35.8870 H   0  0  0  0  0  0  0  0  0  0  0  0
  -10.1150   20.7320  -32.0000 H   0  0  0  0  0  0  0  0  0  0  0  0
   -8.1742   23.1820  -29.1871 H   0  0  0  0  0  0  0  0  0  0  0  0
   -7.5962   21.5788  -29.7886 H   0  0  0  0  0  0  0  0  0  0  0  0
   -6.3058   24.7702  -31.2075 H   0  0  0  0  0  0  0  0  0  0  0  0
   -1.7015   25.0897  -29.5058 H   0  0  0  0  0  0  0  0  0  0  0  0
   -0.7063   23.4295  -27.7181 H   0  0  0  0  0  0  0  0  0  0  0  0
  1  2  1  0
  2  3  1  0
  3  4  1  0
  4  5  2  0
  5  6  1  0
  6  7  2  0
  7  8  1  0
  8  9  2  0
  3 10  2  0
 10 11  1  0
 11 12  2  0
 12 13  1  0
 13 14  1  0
 14 15  1  0
 15 16  2  0
 16 17  1  0
 17 18  2  0
 17 19  1  0
 19 20  1  0
 20 21  2  0
 21 22  1  0
 22 23  1  0
 23 24  2  0
 12  2  1  0
 24 15  1  0
  9  4  1  0
 23 19  1  0
  1 25  1  0
  1 26  1  0
  1 27  1  0
  5 28  1  0
  6 29  1  0
  7 30  1  0
  8 31  1  0
 11 32  1  0
 14 33  1  0
 14 34  1  0
 16 35  1  0
 20 36  1  0
 21 37  1  0
M  CHG  1  11   1
M  END
>  <UniqueID>  (7) 
7

>  <SMILES>  (7) 
Cn1c(-c2ccccn2)n[nH+]c1SCc1cc(=O)n2ccsc2n1

>  <Energy>  (7) 
107.17043639929814

>  <Genealogy>  (7) 
Cn1c(-c2ccccn2)n[nH+]c1SCc1cc(=O)n2ccsc2n1 (protonated)
Cn1c(-c2ccccn2)n[nH+]c1SCc1cc(=O)n2ccsc2n1 (3D coordinates assigned)
Cn1c(-c2ccccn2)n[nH+]c1SCc1cc(=O)n2ccsc2n1 (optimized conformer: 107.17043639929814 kcal/mol)

>  <smiles>  (7) 
Cn1c(SCc2cc(=O)n3ccsc3n2)nnc1-c1ccccn1

>  <score_type>  (7) 
oracle

>  <origin>  (7) 
adg

>  <m_score__min__energy>  (7) 
-8.1999999999999993

>  <m_primary>  (7) 
energy

$$$$
7:0
     RDKit          3D

 45 47  0  0  0  0  0  0  0  0999 V2000
   -1.9730   21.5130  -32.1800 C   0  0  0  0  0  0  0  0  0  0  0  0
   -2.7890   20.5300  -31.3460 C   0  0  0  0  0  0  0  0  0  0  0  0
   -4.1350   20.5700  -31.7680 O   0  0  0  0  0  0  0  0  0  0  0  0
   -4.2100   20.7290  -33.1740 C   0  0  0  0  0  0  0  0  0  0  0  0
   -5.1720   19.7060  -33.8000 C   0  0  0  0  0  0  0  0  0  0  0  0
   -5.1390   18.3400  -33.0930 C   0  0  0  0  0  0  0  0  0  0  0  0
   -5.7540   18.4110  -31.7570 N   0  0  0  0  0  0  0  0  0  0  0  0
   -7.1260   17.8840  -31.7650 C   0  0  0  0  0  0  0  0  0  0  0  0
   -8.0950   19.0110  -31.9400 C   0  0  0  0  0  0  0  0  0  0  0  0
   -9.4040   18.9220  -32.4130 C   0  0  0  0  0  0  0  0  0  0  0  0
   -9.9470   20.1270  -32.4780 O   0  0  0  0  0  0  0  0  0  0  0  0
   -9.0460   20.9950  -32.0750 C   0  0  0  0  0  0  0  0  0  0  0  0
   -9.1610   22.3750  -31.9700 C   0  0  0  0  0  0  0  0  0  0  0  0
   -8.0390   23.0880  -31.5080 C   0  0  0  0  0  0  0  0  0  0  0  0
   -6.8400   22.3980  -31.1750 C   0  0  0  0  0  0  0  0  0  0  0  0
   -5.6540   23.1480  -30.6840 C   0  0  0  0  0  0  0  0  0  0  0  0
   -5.3140   24.4020  -31.2200 C   0  0  0  0  0  0  0  0  0  0  0  0
   -4.2180   25.0720  -30.7660 N   0  0  0  0  0  0  0  0  0  0  0  0
   -3.4200   24.5610  -29.7920 C   0  0  0  0  0  0  0  0  0  0  0  0
   -3.7100   23.3130  -29.2340 C   0  0  0  0  0  0  0  0  0  0  0  0
   -2.5990   22.5910  -27.8610 Br  0  0  0  0  0  0  0  0  0  0  0  0
   -4.8310   22.6060  -29.6810 C   0  0  0  0  0  0  0  0  0  0  0  0
   -6.7860   21.0290  -31.3040 N   0  0  0  0  0  0  0  0  0  0  0  0
   -7.8870   20.3600  -31.7420 C   0  0  0  0  0  0  0  0  0  0  0  0
   -1.4148   22.1855  -31.5120 H   0  0  0  0  0  0  0  0  0  0  0  0
   -1.2669   20.9575  -32.8146 H   0  0  0  0  0  0  0  0  0  0  0  0
   -2.6490   22.1048  -32.8146 H   0  0  0  0  0  0  0  0  0  0  0  0
   -2.3909   19.5135  -31.4814 H   0  0  0  0  0  0  0  0  0  0  0  0
   -2.7263   20.8059  -30.2830 H   0  0  0  0  0  0  0  0  0  0  0  0
   -4.5681   21.7439  -33.4015 H   0  0  0  0  0  0  0  0  0  0  0  0
   -3.2073   20.5671  -33.5963 H   0  0  0  0  0  0  0  0  0  0  0  0
   -6.1951   20.1059  -33.7426 H   0  0  0  0  0  0  0  0  0  0  0  0
   -4.8517   19.5463  -34.8402 H   0  0  0  0  0  0  0  0  0  0  0  0
   -5.6901   17.6084  -33.7022 H   0  0  0  0  0  0  0  0  0  0  0  0
   -4.0882   18.0370  -32.9745 H   0  0  0  0  0  0  0  0  0  0  0  0
   -5.1870   17.8080  -31.1120 H   0  0  0  0  0  0  0  0  0  0  0  0
   -7.2396   17.1711  -32.5950 H   0  0  0  0  0  0  0  0  0  0  0  0
   -7.3271   17.3737  -30.8115 H   0  0  0  0  0  0  0  0  0  0  0  0
   -9.9112   17.9864  -32.6915 H   0  0  0  0  0  0  0  0  0  0  0  0
  -10.0944   22.8916  -32.2380 H   0  0  0  0  0  0  0  0  0  0  0  0
   -8.0891   24.1819  -31.4040 H   0  0  0  0  0  0  0  0  0  0  0  0
   -5.9367   24.8453  -32.0110 H   0  0  0  0  0  0  0  0  0  0  0  0
   -2.5456   25.1298  -29.4427 H   0  0  0  0  0  0  0  0  0  0  0  0
   -5.0693   21.6238  -29.2469 H   0  0  0  0  0  0  0  0  0  0  0  0
   -5.9100   20.5030  -31.0870 H   0  0  0  0  0  0  0  0  0  0  0  0
  1  2  1  0
  2  3  1  0
  3  4  1  0
  4  5  1  0
  5  6  1  0
  6  7  1  0
  7  8  1  0
  8  9  1  0
  9 10  2  0
 10 11  1  0
 11 12  1  0
 12 13  2  0
 13 14  1  0
 14 15  2  0
 15 16  1  0
 16 17  2  0
 17 18  1  0
 18 19  2  0
 19 20  1  0
 20 21  1  0
 20 22  2  0
 15 23  1  0
 23 24  2  0
 24  9  1  0
 24 12  1  0
 22 16  1  0
  1 25  1  0
  1 26  1  0
  1 27  1  0
  2 28  1  0
  2 29  1  0
  4 30  1  0
  4 31  1  0
  5 32  1  0
  5 33  1  0
  6 34  1  0
  6 35  1  0
  7 36  1  0
  8 37  1  0
  8 38  1  0
 10 39  1  0
 13 40  1  0
 14 41  1  0
 17 42  1  0
 19 43  1  0
 22 44  1  0
 23 45  1  0
M  CHG  1  23   1
M  END
>  <UniqueID>  (8) 
8

>  <SMILES>  (8) 
CCOCCCNCc1coc2ccc(-c3cncc(Br)c3)[nH+]c12

>  <Energy>  (8) 
82.95241969778631

>  <Genealogy>  (8) 
CCOCCCNCc1coc2ccc(-c3cncc(Br)c3)[nH+]c12 (protonated)
CCOCCCNCc1coc2ccc(-c3cncc(Br)c3)[nH+]c12 (3D coordinates assigned)
CCOCCCNCc1coc2ccc(-c3cncc(Br)c3)[nH+]c12 (optimized conformer: 82.95241969778631 kcal/mol)

>  <smiles>  (8) 
CCOCCCNCc1coc2ccc(-c3cncc(Br)c3)nc12

>  <score_type>  (8) 
oracle

>  <origin>  (8) 
adg

>  <m_score__min__energy>  (8) 
-7

>  <m_primary>  (8) 
energy

$$$$
8:0
     RDKit          3D

 63 65  0  0  0  0  0  0  0  0999 V2000
   -1.1270   18.8240  -33.9520 C   0  0  0  0  0  0  0  0  0  0  0  0
   -0.8650   20.1960  -34.5710 C   0  0  0  0  0  0  0  0  0  0  0  0
   -1.8890   21.1710  -34.1570 N   0  0  0  0  0  0  0  0  0  0  0  0
   -2.1100   21.1060  -32.7030 C   0  0  0  0  0  0  0  0  0  0  0  0
   -3.4680   21.7150  -32.3170 C   0  0  0  0  0  0  0  0  0  0  0  0
   -4.4760   21.4740  -33.3450 N   0  0  0  0  0  0  0  0  0  0  0  0
   -5.6570   20.7200  -33.0440 C   0  0  0  0  0  0  0  0  0  0  0  0
   -6.7980   21.3700  -32.5420 C   0  0  0  0  0  0  0  0  0  0  0  0
   -6.7970   22.7680  -32.3430 C   0  0  0  0  0  0  0  0  0  0  0  0
   -7.9480   23.4250  -31.9180 C   0  0  0  0  0  0  0  0  0  0  0  0
   -9.1170   22.7030  -31.6930 C   0  0  0  0  0  0  0  0  0  0  0  0
   -9.1350   21.3180  -31.8610 C   0  0  0  0  0  0  0  0  0  0  0  0
   -7.9640   20.6120  -32.2500 C   0  0  0  0  0  0  0  0  0  0  0  0
   -7.9440   19.2300  -32.3680 N   0  0  0  0  0  0  0  0  0  0  0  0
   -9.0660   18.4250  -31.8340 C   0  0  0  0  0  0  0  0  0  0  0  0
   -6.8710   18.6030  -32.9830 C   0  0  0  0  0  0  0  0  0  0  0  0
   -6.8980   17.2220  -33.3170 C   0  0  0  0  0  0  0  0  0  0  0  0
   -5.7980   16.6020  -33.9060 C   0  0  0  0  0  0  0  0  0  0  0  0
   -4.6680   17.3420  -34.2460 C   0  0  0  0  0  0  0  0  0  0  0  0
   -3.5910   16.7350  -34.8810 O   0  0  0  0  0  0  0  0  0  0  0  0
   -2.5730   16.0150  -35.5570 C   0  0  0  0  0  0  0  0  0  0  0  0
   -1.9260   14.9100  -34.6840 C   0  0  0  0  0  0  0  0  0  0  0  0
   -2.8480   13.9310  -34.0140 N   0  0  0  0  0  0  0  0  0  0  0  0
   -3.2650   14.5040  -32.7080 C   0  0  0  0  0  0  0  0  0  0  0  0
   -2.1480   12.6540  -33.7410 C   0  0  0  0  0  0  0  0  0  0  0  0
   -4.0700   13.6630  -34.8130 C   0  0  0  0  0  0  0  0  0  0  0  0
   -4.6160   18.7010  -33.9400 C   0  0  0  0  0  0  0  0  0  0  0  0
   -5.7070   19.3440  -33.3160 C   0  0  0  0  0  0  0  0  0  0  0  0
   -1.1111   18.9075  -32.8553 H   0  0  0  0  0  0  0  0  0  0  0  0
   -2.1115   18.4568  -34.2775 H   0  0  0  0  0  0  0  0  0  0  0  0
   -0.3471   18.1199  -34.2775 H   0  0  0  0  0  0  0  0  0  0  0  0
    0.1232   20.5536  -34.2460 H   0  0  0  0  0  0  0  0  0  0  0  0
   -0.9005   20.0969  -35.6660 H   0  0  0  0  0  0  0  0  0  0  0  0
   -1.5650   22.1330  -34.4230 H   0  0  0  0  0  0  0  0  0  0  0  0
   -2.7920   20.9610  -34.6490 H   0  0  0  0  0  0  0  0  0  0  0  0
   -2.0853   20.0537  -32.3834 H   0  0  0  0  0  0  0  0  0  0  0  0
   -1.3166   21.6825  -32.2049 H   0  0  0  0  0  0  0  0  0  0  0  0
   -3.8062   21.2638  -31.3725 H   0  0  0  0  0  0  0  0  0  0  0  0
   -3.3396   22.8021  -32.2088 H   0  0  0  0  0  0  0  0  0  0  0  0
   -4.4240   21.9670  -34.2660 H   0  0  0  0  0  0  0  0  0  0  0  0
   -5.8775   23.3434  -32.5257 H   0  0  0  0  0  0  0  0  0  0  0  0
   -7.9341   24.5135  -31.7600 H   0  0  0  0  0  0  0  0  0  0  0  0
  -10.0320   23.2277  -31.3809 H   0  0  0  0  0  0  0  0  0  0  0  0
  -10.0697   20.7638  -31.6898 H   0  0  0  0  0  0  0  0  0  0  0  0
   -9.0399   18.4437  -30.7345 H   0  0  0  0  0  0  0  0  0  0  0  0
  -10.0194   18.8464  -32.1854 H   0  0  0  0  0  0  0  0  0  0  0  0
   -8.9723   17.3869  -32.1854 H   0  0  0  0  0  0  0  0  0  0  0  0
   -7.8027   16.6325  -33.1070 H   0  0  0  0  0  0  0  0  0  0  0  0
   -5.8221   15.5202  -34.1039 H   0  0  0  0  0  0  0  0  0  0  0  0
   -3.0112   15.5441  -36.4493 H   0  0  0  0  0  0  0  0  0  0  0  0
   -1.7811   16.7331  -35.8163 H   0  0  0  0  0  0  0  0  0  0  0  0
   -1.2464   14.3346  -35.3299 H   0  0  0  0  0  0  0  0  0  0  0  0
   -1.4414   15.4512  -33.8580 H   0  0  0  0  0  0  0  0  0  0  0  0
   -2.8315   13.9084  -31.8911 H   0  0  0  0  0  0  0  0  0  0  0  0
   -2.9099   15.5424  -32.6330 H   0  0  0  0  0  0  0  0  0  0  0  0
   -4.3623   14.4854  -32.6330 H   0  0  0  0  0  0  0  0  0  0  0  0
   -2.0666   12.5055  -32.6541 H   0  0  0  0  0  0  0  0  0  0  0  0
   -2.7164   11.8225  -34.1831 H   0  0  0  0  0  0  0  0  0  0  0  0
   -1.1413   12.6859  -34.1831 H   0  0  0  0  0  0  0  0  0  0  0  0
   -4.9171   13.4772  -34.1363 H   0  0  0  0  0  0  0  0  0  0  0  0
   -4.2916   14.5339  -35.4474 H   0  0  0  0  0  0  0  0  0  0  0  0
   -3.9068   12.7793  -35.4474 H   0  0  0  0  0  0  0  0  0  0  0  0
   -3.7138   19.2795  -34.1878 H   0  0  0  0  0  0  0  0  0  0  0  0
  1  2  1  0
  2  3  1  0
  3  4  1  0
  4  5  1  0
  5  6  1  0
  6  7  1  0
  7  8  2  0
  8  9  1  0
  9 10  2  0
 10 11  1  0
 11 12  2  0
 12 13  1  0
 13 14  2  0
 14 15  1  0
 14 16  1  0
 16 17  2  0
 17 18  1  0
 18 19  2  0
 19 20  1  0
 20 21  1  0
 21 22  1  0
 22 23  1  0
 23 24  1  0
 23 25  1  0
 23 26  1  0
 19 27  1  0
 27 28  2  0
 28  7  1  0
 13  8  1  0
 28 16  1  0
  1 29  1  0
  1 30  1  0
  1 31  1  0
  2 32  1  0
  2 33  1  0
  3 34  1  0
  3 35  1  0
  4 36  1  0
  4 37  1  0
  5 38  1  0
  5 39  1  0
  6 40  1  0
  9 41  1  0
 10 42  1  0
 11 43  1  0
 12 44  1  0
 15 45  1  0
 15 46  1  0
 15 47  1  0
 17 48  1  0
 18 49  1  0
 21 50  1  0
 21 51  1  0
 22 52  1  0
 22 53  1  0
 24 54  1  0
 24 55  1  0
 24 56  1  0
 25 57  1  0
 25 58  1  0
 25 59  1  0
 26 60  1  0
 26 61  1  0
 26 62  1  0
 27 63  1  0
M  CHG  3   3   1  14   1  23   1
M  END
>  <UniqueID>  (9) 
9

>  <SMILES>  (9) 
CC[NH2+]CCNc1c2ccccc2[n+](C)c2ccc(OCC[N+](C)(C)C)cc12

>  <Energy>  (9) 
147.02603023068215

>  <Genealogy>  (9) 
CC[NH2+]CCNc1c2ccccc2[n+](C)c2ccc(OCC[N+](C)(C)C)cc12 (protonated)
CC[NH2+]CCNc1c2ccccc2[n+](C)c2ccc(OCC[N+](C)(C)C)cc12 (3D coordinates assigned)
CC[NH2+]CCNc1c2ccccc2[n+](C)c2ccc(OCC[N+](C)(C)C)cc12 (optimized conformer: 147.02603023068215 kcal/mol)

>  <smiles>  (9) 
CCNCCNc1c2ccccc2[n+](C)c2ccc(OCC[N+](C)(C)C)cc12

>  <score_type>  (9) 
oracle

>  <origin>  (9) 
adg

>  <m_score__min__energy>  (9) 
-6.5999999999999996

>  <m_primary>  (9) 
energy

$$$$
9:0
     RDKit          3D

 43 45  0  0  0  0  0  0  0  0999 V2000
   -1.6800   25.9240  -26.5060 C   0  0  0  0  0  0  0  0  0  0  0  0
   -1.1830   26.4730  -27.8390 C   0  0  0  0  0  0  0  0  0  0  0  0
   -1.6210   25.6500  -28.9210 O   0  0  0  0  0  0  0  0  0  0  0  0
   -1.4230   24.2620  -29.0370 C   0  0  0  0  0  0  0  0  0  0  0  0
   -0.2220   23.6480  -28.6270 C   0  0  0  0  0  0  0  0  0  0  0  0
   -0.0490   22.2680  -28.7560 C   0  0  0  0  0  0  0  0  0  0  0  0
   -1.0650   21.4840  -29.2980 C   0  0  0  0  0  0  0  0  0  0  0  0
   -2.2590   22.0750  -29.7130 C   0  0  0  0  0  0  0  0  0  0  0  0
   -2.4540   23.4640  -29.5900 C   0  0  0  0  0  0  0  0  0  0  0  0
   -3.7360   24.0600  -30.0400 C   0  0  0  0  0  0  0  0  0  0  0  0
   -4.9080   23.3860  -30.0530 N   0  0  0  0  0  0  0  0  0  0  0  0
   -5.7810   24.2960  -30.5230 C   0  0  0  0  0  0  0  0  0  0  0  0
   -7.2360   24.0260  -30.7460 C   0  0  0  0  0  0  0  0  0  0  0  0
   -7.6580   22.8170  -30.0250 N   0  0  0  0  0  0  0  0  0  0  0  0
   -8.5130   21.9340  -30.8380 C   0  0  0  0  0  0  0  0  0  0  0  0
   -7.7090   20.9420  -31.6430 C   0  0  0  0  0  0  0  0  0  0  0  0
   -8.3550   19.9010  -32.3250 C   0  0  0  0  0  0  0  0  0  0  0  0
   -7.6030   19.0030  -33.0830 C   0  0  0  0  0  0  0  0  0  0  0  0
   -6.2170   19.1500  -33.1590 C   0  0  0  0  0  0  0  0  0  0  0  0
   -5.2560   18.0320  -34.1090 Cl  0  0  0  0  0  0  0  0  0  0  0  0
   -5.6030   20.2000  -32.4700 C   0  0  0  0  0  0  0  0  0  0  0  0
   -6.3520   21.0670  -31.7340 N   0  0  0  0  0  0  0  0  0  0  0  0
   -5.1240   25.4770  -30.7820 C   0  0  0  0  0  0  0  0  0  0  0  0
   -3.8640   25.2970  -30.4720 O   0  0  0  0  0  0  0  0  0  0  0  0
   -1.1911   26.4641  -25.6818 H   0  0  0  0  0  0  0  0  0  0  0  0
   -2.7696   26.0587  -26.4373 H   0  0  0  0  0  0  0  0  0  0  0  0
   -1.4379   24.8532  -26.4373 H   0  0  0  0  0  0  0  0  0  0  0  0
   -1.5752   27.4912  -27.9785 H   0  0  0  0  0  0  0  0  0  0  0  0
   -0.0831   26.4848  -27.8276 H   0  0  0  0  0  0  0  0  0  0  0  0
    0.5861   24.2612  -28.2017 H   0  0  0  0  0  0  0  0  0  0  0  0
    0.8910   21.7995  -28.4291 H   0  0  0  0  0  0  0  0  0  0  0  0
   -0.9258   20.3975  -29.3990 H   0  0  0  0  0  0  0  0  0  0  0  0
   -3.0562   21.4492  -30.1407 H   0  0  0  0  0  0  0  0  0  0  0  0
   -7.8217   24.8843  -30.3850 H   0  0  0  0  0  0  0  0  0  0  0  0
   -7.4057   23.8726  -31.8220 H   0  0  0  0  0  0  0  0  0  0  0  0
   -8.1840   23.1070  -29.1680 H   0  0  0  0  0  0  0  0  0  0  0  0
   -9.1889   21.3816  -30.1687 H   0  0  0  0  0  0  0  0  0  0  0  0
   -9.0739   22.5645  -31.5435 H   0  0  0  0  0  0  0  0  0  0  0  0
   -9.4479   19.7930  -32.2628 H   0  0  0  0  0  0  0  0  0  0  0  0
   -8.1008   18.1816  -33.6191 H   0  0  0  0  0  0  0  0  0  0  0  0
   -4.5115   20.3263  -32.5225 H   0  0  0  0  0  0  0  0  0  0  0  0
   -5.8640   21.8440  -31.2340 H   0  0  0  0  0  0  0  0  0  0  0  0
   -5.5733   26.4005  -31.1761 H   0  0  0  0  0  0  0  0  0  0  0  0
  1  2  1  0
  2  3  1  0
  3  4  1  0
  4  5  2  0
  5  6  1  0
  6  7  2  0
  7  8  1  0
  8  9  2  0
  9 10  1  0
 10 11  2  0
 11 12  1  0
 12 13  1  0
 13 14  1  0
 14 15  1  0
 15 16  1  0
 16 17  2  0
 17 18  1  0
 18 19  2  0
 19 20  1  0
 19 21  1  0
 21 22  2  0
 12 23  2  0
 23 24  1  0
  9  4  1  0
 24 10  1  0
 22 16  1  0
  1 25  1  0
  1 26  1  0
  1 27  1  0
  2 28  1  0
  2 29  1  0
  5 30  1  0
  6 31  1  0
  7 32  1  0
  8 33  1  0
 13 34  1  0
 13 35  1  0
 14 36  1  0
 15 37  1  0
 15 38  1  0
 17 39  1  0
 18 40  1  0
 21 41  1  0
 22 42  1  0
 23 43  1  0
M  CHG  1  22   1
M  END
>  <UniqueID>  (10) 
10

>  <SMILES>  (10) 
CCOc1ccccc1-c1nc(CNCc2ccc(Cl)c[nH+]2)co1

>  <Energy>  (10) 
73.11308802833067

>  <Genealogy>  (10) 
CCOc1ccccc1-c1nc(CNCc2ccc(Cl)c[nH+]2)co1 (protonated)
CCOc1ccccc1-c1nc(CNCc2ccc(Cl)c[nH+]2)co1 (3D coordinates assigned)
CCOc1ccccc1-c1nc(CNCc2ccc(Cl)c[nH+]2)co1 (optimized conformer: 73.11308802833067 kcal/mol)

>  <smiles>  (10) 
CCOc1ccccc1-c1nc(CNCc2ccc(Cl)cn2)co1

>  <score_type>  (10) 
oracle

>  <origin>  (10) 
adg

>  <m_score__min__energy>  (10) 
-8.4299999999999997

>  <m_primary>  (10) 
energy

$$$$
10:0
     RDKit          3D

 46 48  0  0  0  0  0  0  0  0999 V2000
   -8.8880   20.7490  -30.9240 C   0  0  0  0  0  0  0  0  0  0  0  0
   -9.5160   20.9140  -32.3020 C   0  0  0  0  0  0  0  0  0  0  0  0
   -9.5250   19.6270  -33.0110 N   0  0  0  0  0  0  0  0  0  0  0  0
   -8.7350   18.6030  -32.3070 C   0  0  0  0  0  0  0  0  0  0  0  0
   -7.3910   18.2920  -32.9890 C   0  0  0  0  0  0  0  0  0  0  0  0
   -6.7830   19.5070  -33.5360 N   0  0  0  0  0  0  0  0  0  0  0  0
   -6.0040   20.4770  -32.8030 C   0  0  0  0  0  0  0  0  0  0  0  0
   -6.3710   21.8320  -32.7100 C   0  0  0  0  0  0  0  0  0  0  0  0
   -5.5800   22.7380  -31.9980 C   0  0  0  0  0  0  0  0  0  0  0  0
   -4.3940   22.3250  -31.3480 C   0  0  0  0  0  0  0  0  0  0  0  0
   -3.6080   23.2800  -30.6290 C   0  0  0  0  0  0  0  0  0  0  0  0
   -4.0170   24.4760  -30.6050 O   0  0  0  0  0  0  0  0  0  0  0  0
   -2.3910   22.9810  -29.9350 C   0  0  0  0  0  0  0  0  0  0  0  0
   -1.6960   24.0110  -29.2550 C   0  0  0  0  0  0  0  0  0  0  0  0
   -0.4950   23.7510  -28.5670 C   0  0  0  0  0  0  0  0  0  0  0  0
    0.2300   24.7770  -27.8740 N   0  0  0  0  0  0  0  0  0  0  0  0
   -0.3730   26.3490  -27.4570 S   0  0  0  0  0  0  0  0  0  0  0  0
   -1.3700   26.2550  -25.9840 C   0  0  0  0  0  0  0  0  0  0  0  0
   -1.2300   26.8510  -28.5850 O   0  0  0  0  0  0  0  0  0  0  0  0
    0.7700   27.3040  -27.2580 O   0  0  0  0  0  0  0  0  0  0  0  0
    0.0170   22.4520  -28.5480 C   0  0  0  0  0  0  0  0  0  0  0  0
   -0.6480   21.4210  -29.2070 C   0  0  0  0  0  0  0  0  0  0  0  0
   -1.8370   21.6810  -29.8930 C   0  0  0  0  0  0  0  0  0  0  0  0
   -2.6360   20.4340  -30.6890 S   0  0  0  0  0  0  0  0  0  0  0  0
   -4.0410   20.9620  -31.4480 C   0  0  0  0  0  0  0  0  0  0  0  0
   -4.8330   20.0550  -32.1610 C   0  0  0  0  0  0  0  0  0  0  0  0
   -9.6442   20.9477  -30.1503 H   0  0  0  0  0  0  0  0  0  0  0  0
   -8.5114   19.7214  -30.8133 H   0  0  0  0  0  0  0  0  0  0  0  0
   -8.0549   21.4587  -30.8133 H   0  0  0  0  0  0  0  0  0  0  0  0
  -10.5491   21.2748  -32.1900 H   0  0  0  0  0  0  0  0  0  0  0  0
   -8.9265   21.6398  -32.8814 H   0  0  0  0  0  0  0  0  0  0  0  0
   -9.1630   19.7560  -33.9830 H   0  0  0  0  0  0  0  0  0  0  0  0
   -8.5337   18.9590  -31.2859 H   0  0  0  0  0  0  0  0  0  0  0  0
   -9.3256   17.6750  -32.3150 H   0  0  0  0  0  0  0  0  0  0  0  0
   -6.7070   17.8496  -32.2498 H   0  0  0  0  0  0  0  0  0  0  0  0
   -7.5734   17.5901  -33.8161 H   0  0  0  0  0  0  0  0  0  0  0  0
   -7.0130   19.7220  -34.5340 H   0  0  0  0  0  0  0  0  0  0  0  0
   -7.2901   22.1820  -33.2028 H   0  0  0  0  0  0  0  0  0  0  0  0
   -5.8861   23.7931  -31.9422 H   0  0  0  0  0  0  0  0  0  0  0  0
   -2.1020   25.0333  -29.2645 H   0  0  0  0  0  0  0  0  0  0  0  0
   -0.7214   26.3162  -25.0977 H   0  0  0  0  0  0  0  0  0  0  0  0
   -2.0865   27.0896  -25.9723 H   0  0  0  0  0  0  0  0  0  0  0  0
   -1.9179   25.3012  -25.9723 H   0  0  0  0  0  0  0  0  0  0  0  0
    0.9523   22.2416  -28.0086 H   0  0  0  0  0  0  0  0  0  0  0  0
   -0.2367   20.4010  -29.1874 H   0  0  0  0  0  0  0  0  0  0  0  0
   -4.5324   18.9984  -32.2179 H   0  0  0  0  0  0  0  0  0  0  0  0
  1  2  1  0
  2  3  1  0
  3  4  1  0
  4  5  1  0
  5  6  1  0
  6  7  1  0
  7  8  2  0
  8  9  1  0
  9 10  2  0
 10 11  1  0
 11 12  2  0
 11 13  1  0
 13 14  2  0
 14 15  1  0
 15 16  1  0
 16 17  1  0
 17 18  1  0
 17 19  2  0
 17 20  2  0
 15 21  2  0
 21 22  1  0
 22 23  2  0
 23 24  1  0
 24 25  1  0
 25 26  2  0
 26  7  1  0
 25 10  1  0
 23 13  1  0
  1 27  1  0
  1 28  1  0
  1 29  1  0
  2 30  1  0
  2 31  1  0
  3 32  1  0
  4 33  1  0
  4 34  1  0
  5 35  1  0
  5 36  1  0
  6 37  1  0
  8 38  1  0
  9 39  1  0
 14 40  1  0
 18 41  1  0
 18 42  1  0
 18 43  1  0
 21 44  1  0
 22 45  1  0
 26 46  1  0
M  CHG  1  16  -1
M  END
>  <UniqueID>  (11) 
11

>  <SMILES>  (11) 
CCNCCNc1ccc2c(=O)c3cc([N-]S(C)(=O)=O)ccc3sc2c1

>  <Energy>  (11) 
56.62063480276012

>  <Genealogy>  (11) 
CCNCCNc1ccc2c(=O)c3cc([N-]S(C)(=O)=O)ccc3sc2c1 (protonated)
CCNCCNc1ccc2c(=O)c3cc([N-]S(C)(=O)=O)ccc3sc2c1 (3D coordinates assigned)
CCNCCNc1ccc2c(=O)c3cc([N-]S(C)(=O)=O)ccc3sc2c1 (optimized conformer: 56.62063480276012 kcal/mol)

>  <smiles>  (11) 
CCNCCNc1ccc2c(=O)c3cc(NS(C)(=O)=O)ccc3sc2c1

>  <score_type>  (11) 
oracle

>  <origin>  (11) 
adg

>  <m_score__min__energy>  (11) 
-10.01

>  <m_primary>  (11) 
energy

$$$$
11:0
     RDKit          3D

 43 45  0  0  0  0  0  0  0  0999 V2000
    0.6280   20.0480  -33.1490 C   0  0  0  0  0  0  0  0  0  0  0  0
   -0.6160   20.7190  -32.6480 C   0  0  0  0  0  0  0  0  0  0  0  0
   -1.7400   20.8370  -33.4790 C   0  0  0  0  0  0  0  0  0  0  0  0
   -2.8870   21.4970  -33.0270 C   0  0  0  0  0  0  0  0  0  0  0  0
   -2.9220   22.0580  -31.7390 C   0  0  0  0  0  0  0  0  0  0  0  0
   -4.1240   22.7710  -31.2640 C   0  0  0  0  0  0  0  0  0  0  0  0
   -5.3460   22.2020  -31.1740 N   0  0  0  0  0  0  0  0  0  0  0  0
   -6.1320   23.2100  -30.7510 C   0  0  0  0  0  0  0  0  0  0  0  0
   -7.6140   23.0850  -30.5160 C   0  0  0  0  0  0  0  0  0  0  0  0
   -8.0790   21.6890  -30.6030 N   0  0  0  0  0  0  0  0  0  0  0  0
   -8.5720   21.3100  -31.9380 C   0  0  0  0  0  0  0  0  0  0  0  0
   -7.7760   20.1880  -32.5580 C   0  0  0  0  0  0  0  0  0  0  0  0
   -6.6490   20.3660  -33.3390 C   0  0  0  0  0  0  0  0  0  0  0  0
   -6.1750   19.1040  -33.6390 C   0  0  0  0  0  0  0  0  0  0  0  0
   -7.0330   18.2060  -33.0380 C   0  0  0  0  0  0  0  0  0  0  0  0
   -8.0160   18.8670  -32.3950 N   0  0  0  0  0  0  0  0  0  0  0  0
   -9.0570   18.2370  -31.5870 C   0  0  0  0  0  0  0  0  0  0  0  0
   -5.3560   24.3370  -30.5730 C   0  0  0  0  0  0  0  0  0  0  0  0
   -5.8040   25.6850  -30.1120 C   0  0  0  0  0  0  0  0  0  0  0  0
   -4.1260   24.0370  -30.9030 O   0  0  0  0  0  0  0  0  0  0  0  0
   -1.7880   21.9560  -30.9160 C   0  0  0  0  0  0  0  0  0  0  0  0
   -0.6430   21.2960  -31.3700 C   0  0  0  0  0  0  0  0  0  0  0  0
    1.2371   19.7194  -32.2940 H   0  0  0  0  0  0  0  0  0  0  0  0
    0.3533   19.1757  -33.7602 H   0  0  0  0  0  0  0  0  0  0  0  0
    1.2061   20.7567  -33.7602 H   0  0  0  0  0  0  0  0  0  0  0  0
   -1.7190   20.4080  -34.4917 H   0  0  0  0  0  0  0  0  0  0  0  0
   -3.7663   21.5775  -33.6830 H   0  0  0  0  0  0  0  0  0  0  0  0
   -7.8471   23.4736  -29.5137 H   0  0  0  0  0  0  0  0  0  0  0  0
   -8.1284   23.6602  -31.2999 H   0  0  0  0  0  0  0  0  0  0  0  0
   -7.3420   21.0270  -30.2700 H   0  0  0  0  0  0  0  0  0  0  0  0
   -9.6203   20.9891  -31.8476 H   0  0  0  0  0  0  0  0  0  0  0  0
   -8.4695   22.1892  -32.5910 H   0  0  0  0  0  0  0  0  0  0  0  0
   -6.2150   21.3249  -33.6587 H   0  0  0  0  0  0  0  0  0  0  0  0
   -5.2862   18.8618  -34.2402 H   0  0  0  0  0  0  0  0  0  0  0  0
   -6.9299   17.1116  -33.0778 H   0  0  0  0  0  0  0  0  0  0  0  0
   -8.8275   18.3759  -30.5202 H   0  0  0  0  0  0  0  0  0  0  0  0
  -10.0288   18.6987  -31.8161 H   0  0  0  0  0  0  0  0  0  0  0  0
   -9.0987   17.1619  -31.8161 H   0  0  0  0  0  0  0  0  0  0  0  0
   -5.8130   25.7122  -29.0124 H   0  0  0  0  0  0  0  0  0  0  0  0
   -5.1122   26.4511  -30.4920 H   0  0  0  0  0  0  0  0  0  0  0  0
   -6.8168   25.8846  -30.4920 H   0  0  0  0  0  0  0  0  0  0  0  0
   -1.8015   22.3980  -29.9088 H   0  0  0  0  0  0  0  0  0  0  0  0
    0.2426   21.2286  -30.7210 H   0  0  0  0  0  0  0  0  0  0  0  0
  1  2  1  0
  2  3  2  0
  3  4  1  0
  4  5  2  0
  5  6  1  0
  6  7  2  0
  7  8  1  0
  8  9  1  0
  9 10  1  0
 10 11  1  0
 11 12  1  0
 12 13  2  0
 13 14  1  0
 14 15  2  0
 15 16  1  0
 16 17  1  0
  8 18  2  0
 18 19  1  0
 18 20  1  0
  5 21  1  0
 21 22  2  0
 22  2  1  0
 20  6  1  0
 16 12  1  0
  1 23  1  0
  1 24  1  0
  1 25  1  0
  3 26  1  0
  4 27  1  0
  9 28  1  0
  9 29  1  0
 10 30  1  0
 11 31  1  0
 11 32  1  0
 13 33  1  0
 14 34  1  0
 15 35  1  0
 17 36  1  0
 17 37  1  0
 17 38  1  0
 19 39  1  0
 19 40  1  0
 19 41  1  0
 21 42  1  0
 22 43  1  0
M  END
>  <UniqueID>  (12) 
12

>  <SMILES>  (12) 
Cc1ccc(-c2nc(CNCc3cccn3C)c(C)o2)cc1

>  <Energy>  (12) 
94.98265882119323

>  <Genealogy>  (12) 
Cc1ccc(-c2nc(CNCc3cccn3C)c(C)o2)cc1 (3D coordinates assigned)
Cc1ccc(-c2nc(CNCc3cccn3C)c(C)o2)cc1 (optimized conformer: 94.98265882119323 kcal/mol)

>  <smiles>  (12) 
Cc1ccc(-c2nc(CNCc3cccn3C)c(C)o2)cc1

>  <score_type>  (12) 
oracle

>  <origin>  (12) 
adg

>  <m_score__min__energy>  (12) 
-7.3700000000000001

>  <m_primary>  (12) 
energy

$$$$
12:0
     RDKit          3D

 37 39  0  0  0  0  0  0  0  0999 V2000
   -5.7430   15.8900  -33.5970 C   0  0  0  0  0  0  0  0  0  0  0  0
   -5.3990   16.7240  -32.3580 C   0  0  0  0  0  0  0  0  0  0  0  0
   -6.1180   18.0210  -32.3210 N   0  0  0  0  0  0  0  0  0  0  0  0
   -7.5870   17.8420  -32.4340 C   0  0  0  0  0  0  0  0  0  0  0  0
   -8.4100   18.7000  -31.4610 C   0  0  0  0  0  0  0  0  0  0  0  0
   -5.4930   19.1560  -33.5100 S   0  0  0  0  0  0  0  0  0  0  0  0
   -4.2200   18.6010  -34.0860 O   0  0  0  0  0  0  0  0  0  0  0  0
   -6.4640   19.3180  -34.6420 O   0  0  0  0  0  0  0  0  0  0  0  0
   -5.0640   20.7030  -32.7410 C   0  0  0  0  0  0  0  0  0  0  0  0
   -3.6720   20.9490  -32.5590 C   0  0  0  0  0  0  0  0  0  0  0  0
   -3.2030   22.1280  -31.9420 C   0  0  0  0  0  0  0  0  0  0  0  0
   -4.1390   23.0560  -31.5080 C   0  0  0  0  0  0  0  0  0  0  0  0
   -5.4710   22.8150  -31.6800 C   0  0  0  0  0  0  0  0  0  0  0  0
   -6.2100   23.8390  -31.1770 C   0  0  0  0  0  0  0  0  0  0  0  0
   -7.6000   23.8110  -31.2330 C   0  0  0  0  0  0  0  0  0  0  0  0
   -8.2050   22.6830  -31.8290 C   0  0  0  0  0  0  0  0  0  0  0  0
   -7.4190   21.6230  -32.3490 C   0  0  0  0  0  0  0  0  0  0  0  0
   -6.0020   21.6770  -32.2780 C   0  0  0  0  0  0  0  0  0  0  0  0
   -5.2380   24.7890  -30.6520 C   0  0  0  0  0  0  0  0  0  0  0  0
   -5.5120   25.8850  -30.0960 O   0  0  0  0  0  0  0  0  0  0  0  0
   -3.9000   24.3070  -30.8540 N   0  0  0  0  0  0  0  0  0  0  0  0
   -6.1450   14.9154  -33.2830 H   0  0  0  0  0  0  0  0  0  0  0  0
   -6.4957   16.4205  -34.1986 H   0  0  0  0  0  0  0  0  0  0  0  0
   -4.8352   15.7355  -34.1986 H   0  0  0  0  0  0  0  0  0  0  0  0
   -5.6675   16.1475  -31.4605 H   0  0  0  0  0  0  0  0  0  0  0  0
   -4.3217   16.9432  -32.3947 H   0  0  0  0  0  0  0  0  0  0  0  0
   -5.9550   18.4580  -31.3840 H   0  0  0  0  0  0  0  0  0  0  0  0
   -7.8869   18.1024  -33.4598 H   0  0  0  0  0  0  0  0  0  0  0  0
   -7.7949   16.7925  -32.1784 H   0  0  0  0  0  0  0  0  0  0  0  0
   -8.1517   18.4308  -30.4262 H   0  0  0  0  0  0  0  0  0  0  0  0
   -8.1856   19.7635  -31.6301 H   0  0  0  0  0  0  0  0  0  0  0  0
   -9.4819   18.5201  -31.6301 H   0  0  0  0  0  0  0  0  0  0  0  0
   -2.9451   20.2009  -32.9083 H   0  0  0  0  0  0  0  0  0  0  0  0
   -2.1258   22.3065  -31.8088 H   0  0  0  0  0  0  0  0  0  0  0  0
   -8.2045   24.6362  -30.8284 H   0  0  0  0  0  0  0  0  0  0  0  0
   -9.3017   22.6255  -31.8909 H   0  0  0  0  0  0  0  0  0  0  0  0
   -7.9104   20.7536  -32.8102 H   0  0  0  0  0  0  0  0  0  0  0  0
  1  2  1  0
  2  3  1  0
  3  4  1  0
  4  5  1  0
  3  6  1  0
  6  7  2  0
  6  8  2  0
  6  9  1  0
  9 10  2  0
 10 11  1  0
 11 12  2  0
 12 13  1  0
 13 14  2  0
 14 15  1  0
 15 16  2  0
 16 17  1  0
 17 18  2  0
 14 19  1  0
 19 20  2  0
 19 21  1  0
 18  9  1  0
 21 12  1  0
 18 13  1  0
  1 22  1  0
  1 23  1  0
  1 24  1  0
  2 25  1  0
  2 26  1  0
  3 27  1  0
  4 28  1  0
  4 29  1  0
  5 30  1  0
  5 31  1  0
  5 32  1  0
 10 33  1  0
 11 34  1  0
 15 35  1  0
 16 36  1  0
 17 37  1  0
M  CHG  2   3   1  21  -1
M  END
>  <UniqueID>  (13) 
13

>  <SMILES>  (13) 
CC[NH+](CC)S(=O)(=O)c1ccc2c3c(cccc13)C(=O)[N-]2

>  <Energy>  (13) 
85.28891010267867

>  <Genealogy>  (13) 
CC[NH+](CC)S(=O)(=O)c1ccc2c3c(cccc13)C(=O)[N-]2 (protonated)
CC[NH+](CC)S(=O)(=O)c1ccc2c3c(cccc13)C(=O)[N-]2 (3D coordinates assigned)
CC[NH+](CC)S(=O)(=O)c1ccc2c3c(cccc13)C(=O)[N-]2 (nonaromatic ring conformer: 85.28891010267867 kcal/mol)

>  <smiles>  (13) 
CCN(CC)S(=O)(=O)c1ccc2c3c(cccc13)C(=O)N2

>  <score_type>  (13) 
oracle

>  <origin>  (13) 
adg

>  <m_score__min__energy>  (13) 
-8.8399999999999999

>  <m_primary>  (13) 
energy

$$$$
13:0
     RDKit          3D

 61 63  0  0  0  0  0  0  0  0999 V2000
   -2.7640   19.6160  -27.1000 C   0  0  0  0  0  0  0  0  0  0  0  0
   -2.0430   20.5470  -28.0920 C   0  0  0  0  0  0  0  0  0  0  0  0
   -2.8750   21.0620  -29.2190 N   0  0  0  0  0  0  0  0  0  0  0  0
   -3.0650   22.5370  -29.1700 C   0  0  0  0  0  0  0  0  0  0  0  0
   -3.8800   23.0470  -27.9760 C   0  0  0  0  0  0  0  0  0  0  0  0
   -2.4670   20.5240  -30.5470 C   0  0  0  0  0  0  0  0  0  0  0  0
   -2.4600   21.5530  -31.7020 C   0  0  0  0  0  0  0  0  0  0  0  0
   -3.0020   21.0380  -33.0440 C   0  0  0  0  0  0  0  0  0  0  0  0
   -4.2410   21.7230  -33.4150 N   0  0  0  0  0  0  0  0  0  0  0  0
   -5.4260   21.6050  -32.6080 C   0  0  0  0  0  0  0  0  0  0  0  0
   -5.8090   22.6570  -31.7560 C   0  0  0  0  0  0  0  0  0  0  0  0
   -4.9850   23.7910  -31.5940 C   0  0  0  0  0  0  0  0  0  0  0  0
   -5.3440   24.8110  -30.7160 C   0  0  0  0  0  0  0  0  0  0  0  0
   -6.5120   24.7090  -29.9710 C   0  0  0  0  0  0  0  0  0  0  0  0
   -7.3410   23.5970  -30.1130 C   0  0  0  0  0  0  0  0  0  0  0  0
   -7.0250   22.5600  -31.0280 C   0  0  0  0  0  0  0  0  0  0  0  0
   -7.8540   21.4670  -31.2040 N   0  0  0  0  0  0  0  0  0  0  0  0
   -9.2390   21.4980  -30.6830 C   0  0  0  0  0  0  0  0  0  0  0  0
   -7.3950   20.3560  -31.8870 C   0  0  0  0  0  0  0  0  0  0  0  0
   -8.0960   19.1260  -31.8660 C   0  0  0  0  0  0  0  0  0  0  0  0
   -7.6610   18.0310  -32.6100 C   0  0  0  0  0  0  0  0  0  0  0  0
   -6.4990   18.1070  -33.3930 C   0  0  0  0  0  0  0  0  0  0  0  0
   -6.0570   16.9740  -34.1860 N   0  0  0  0  0  0  0  0  0  0  0  0
   -6.8280   15.7250  -34.1980 C   0  0  0  0  0  0  0  0  0  0  0  0
   -4.8330   17.0590  -34.9930 C   0  0  0  0  0  0  0  0  0  0  0  0
   -5.7670   19.3040  -33.3780 C   0  0  0  0  0  0  0  0  0  0  0  0
   -6.1870   20.4210  -32.6260 C   0  0  0  0  0  0  0  0  0  0  0  0
   -2.5266   19.9226  -26.0706 H   0  0  0  0  0  0  0  0  0  0  0  0
   -3.8504   19.6801  -27.2603 H   0  0  0  0  0  0  0  0  0  0  0  0
   -2.4302   18.5802  -27.2603 H   0  0  0  0  0  0  0  0  0  0  0  0
   -1.6642   21.4126  -27.5287 H   0  0  0  0  0  0  0  0  0  0  0  0
   -1.2544   19.9368  -28.5564 H   0  0  0  0  0  0  0  0  0  0  0  0
   -3.8260   20.6690  -29.0300 H   0  0  0  0  0  0  0  0  0  0  0  0
   -2.0716   23.0077  -29.1308 H   0  0  0  0  0  0  0  0  0  0  0  0
   -3.6396   22.8025  -30.0697 H   0  0  0  0  0  0  0  0  0  0  0  0
   -3.3902   22.7405  -27.0400 H   0  0  0  0  0  0  0  0  0  0  0  0
   -3.9409   24.1446  -28.0156 H   0  0  0  0  0  0  0  0  0  0  0  0
   -4.8938   22.6219  -28.0156 H   0  0  0  0  0  0  0  0  0  0  0  0
   -1.4507   20.1144  -30.4503 H   0  0  0  0  0  0  0  0  0  0  0  0
   -3.2217   19.7700  -30.8152 H   0  0  0  0  0  0  0  0  0  0  0  0
   -3.0740   22.4125  -31.3950 H   0  0  0  0  0  0  0  0  0  0  0  0
   -1.4039   21.8057  -31.8776 H   0  0  0  0  0  0  0  0  0  0  0  0
   -2.2481   21.2126  -33.8257 H   0  0  0  0  0  0  0  0  0  0  0  0
   -3.2160   19.9638  -32.9429 H   0  0  0  0  0  0  0  0  0  0  0  0
   -4.2240   22.4180  -34.1940 H   0  0  0  0  0  0  0  0  0  0  0  0
   -4.0494   23.8703  -32.1671 H   0  0  0  0  0  0  0  0  0  0  0  0
   -4.7020   25.6982  -30.6125 H   0  0  0  0  0  0  0  0  0  0  0  0
   -6.7839   25.5087  -29.2663 H   0  0  0  0  0  0  0  0  0  0  0  0
   -8.2551   23.5226  -29.5056 H   0  0  0  0  0  0  0  0  0  0  0  0
   -9.2171   21.4975  -29.5832 H   0  0  0  0  0  0  0  0  0  0  0  0
   -9.7445   22.4077  -31.0393 H   0  0  0  0  0  0  0  0  0  0  0  0
   -9.7847   20.6118  -31.0393 H   0  0  0  0  0  0  0  0  0  0  0  0
   -9.0025   19.0329  -31.2498 H   0  0  0  0  0  0  0  0  0  0  0  0
   -8.2365   17.0940  -32.5831 H   0  0  0  0  0  0  0  0  0  0  0  0
   -7.0250   15.4058  -33.1639 H   0  0  0  0  0  0  0  0  0  0  0  0
   -7.7826   15.8884  -34.7195 H   0  0  0  0  0  0  0  0  0  0  0  0
   -6.2541   14.9448  -34.7195 H   0  0  0  0  0  0  0  0  0  0  0  0
   -3.9589   17.1197  -34.3280 H   0  0  0  0  0  0  0  0  0  0  0  0
   -4.7494   16.1645  -35.6277 H   0  0  0  0  0  0  0  0  0  0  0  0
   -4.8739   17.9565  -35.6277 H   0  0  0  0  0  0  0  0  0  0  0  0
   -4.8413   19.3731  -33.9682 H   0  0  0  0  0  0  0  0  0  0  0  0
  1  2  1  0
  2  3  1  0
  3  4  1  0
  4  5  1  0
  3  6  1  0
  6  7  1  0
  7  8  1  0
  8  9  1  0
  9 10  1  0
 10 11  2  0
 11 12  1  0
 12 13  2  0
 13 14  1  0
 14 15  2  0
 15 16  1  0
 16 17  2  0
 17 18  1  0
 17 19  1  0
 19 20  2  0
 20 21  1  0
 21 22  2  0
 22 23  1  0
 23 24  1  0
 23 25  1  0
 22 26  1  0
 26 27  2  0
 27 10  1  0
 16 11  1  0
 27 19  1  0
  1 28  1  0
  1 29  1  0
  1 30  1  0
  2 31  1  0
  2 32  1  0
  3 33  1  0
  4 34  1  0
  4 35  1  0
  5 36  1  0
  5 37  1  0
  5 38  1  0
  6 39  1  0
  6 40  1  0
  7 41  1  0
  7 42  1  0
  8 43  1  0
  8 44  1  0
  9 45  1  0
 12 46  1  0
 13 47  1  0
 14 48  1  0
 15 49  1  0
 18 50  1  0
 18 51  1  0
 18 52  1  0
 20 53  1  0
 21 54  1  0
 24 55  1  0
 24 56  1  0
 24 57  1  0
 25 58  1  0
 25 59  1  0
 25 60  1  0
 26 61  1  0
M  CHG  2   3   1  17   1
M  END
>  <UniqueID>  (14) 
14

>  <SMILES>  (14) 
CC[NH+](CC)CCCNc1c2ccccc2[n+](C)c2ccc(N(C)C)cc12

>  <Energy>  (14) 
95.421978413004

>  <Genealogy>  (14) 
CC[NH+](CC)CCCNc1c2ccccc2[n+](C)c2ccc(N(C)C)cc12 (protonated)
CC[NH+](CC)CCCNc1c2ccccc2[n+](C)c2ccc(N(C)C)cc12 (3D coordinates assigned)
CC[NH+](CC)CCCNc1c2ccccc2[n+](C)c2ccc(N(C)C)cc12 (optimized conformer: 95.421978413004 kcal/mol)

>  <smiles>  (14) 
CCN(CC)CCCNc1c2ccccc2[n+](C)c2ccc(N(C)C)cc12

>  <score_type>  (14) 
oracle

>  <origin>  (14) 
adg

>  <m_score__min__energy>  (14) 
-7.0199999999999996

>  <m_primary>  (14) 
energy

$$$$
14:0
     RDKit          3D

 40 42  0  0  0  0  0  0  0  0999 V2000
   -3.7020   16.1610  -34.9840 C   0  0  0  0  0  0  0  0  0  0  0  0
   -4.6100   17.0670  -34.1470 C   0  0  2  0  0  0  0  0  0  0  0  0
   -5.6910   16.2430  -33.4120 C   0  0  0  0  0  0  0  0  0  0  0  0
   -6.9250   17.0870  -33.0280 C   0  0  0  0  0  0  0  0  0  0  0  0
   -6.5780   18.5140  -32.8900 N   0  0  2  0  0  0  0  0  0  0  0  0
   -7.9430   19.4020  -32.2600 S   0  0  0  0  0  0  0  0  0  0  0  0
   -8.9370   19.6560  -33.3590 O   0  0  0  0  0  0  0  0  0  0  0  0
   -8.6200   18.6060  -31.1760 O   0  0  0  0  0  0  0  0  0  0  0  0
   -7.4020   20.9500  -31.6190 C   0  0  0  0  0  0  0  0  0  0  0  0
   -8.2830   21.7240  -30.8220 C   0  0  0  0  0  0  0  0  0  0  0  0
   -7.8820   22.9730  -30.3130 C   0  0  0  0  0  0  0  0  0  0  0  0
   -6.5980   23.4160  -30.6300 C   0  0  0  0  0  0  0  0  0  0  0  0
   -5.7450   22.6710  -31.3960 C   0  0  0  0  0  0  0  0  0  0  0  0
   -6.1080   21.4330  -31.9160 C   0  0  0  0  0  0  0  0  0  0  0  0
   -4.6070   23.3110  -31.5230 O   0  0  0  0  0  0  0  0  0  0  0  0
   -4.7530   24.4350  -30.8430 C   0  0  0  0  0  0  0  0  0  0  0  0
   -3.8430   25.2980  -30.7310 O   0  0  0  0  0  0  0  0  0  0  0  0
   -5.9800   24.5570  -30.2780 N   0  0  0  0  0  0  0  0  0  0  0  0
   -6.4720   25.6170  -29.4020 C   0  0  0  0  0  0  0  0  0  0  0  0
   -6.1510   19.1000  -34.1830 C   0  0  0  0  0  0  0  0  0  0  0  0
   -5.2600   18.1520  -35.0190 C   0  0  0  0  0  0  0  0  0  0  0  0
   -3.0834   15.5438  -34.3158 H   0  0  0  0  0  0  0  0  0  0  0  0
   -4.3196   15.5085  -35.6186 H   0  0  0  0  0  0  0  0  0  0  0  0
   -3.0508   16.7800  -35.6186 H   0  0  0  0  0  0  0  0  0  0  0  0
   -3.9828   17.5624  -33.3912 H   0  0  0  0  0  0  0  0  0  0  0  0
   -5.2514   15.8248  -32.4945 H   0  0  0  0  0  0  0  0  0  0  0  0
   -6.0296   15.4525  -34.0979 H   0  0  0  0  0  0  0  0  0  0  0  0
   -7.3250   16.7215  -32.0707 H   0  0  0  0  0  0  0  0  0  0  0  0
   -7.6747   16.9883  -33.8269 H   0  0  0  0  0  0  0  0  0  0  0  0
   -5.8030   18.6130  -32.1920 H   0  0  0  0  0  0  0  0  0  0  0  0
   -9.2909   21.3439  -30.5992 H   0  0  0  0  0  0  0  0  0  0  0  0
   -8.5561   23.5775  -29.6883 H   0  0  0  0  0  0  0  0  0  0  0  0
   -5.4117   20.8503  -32.5369 H   0  0  0  0  0  0  0  0  0  0  0  0
   -6.3336   25.3189  -28.3522 H   0  0  0  0  0  0  0  0  0  0  0  0
   -5.9118   26.5434  -29.5970 H   0  0  0  0  0  0  0  0  0  0  0  0
   -7.5411   25.7871  -29.5970 H   0  0  0  0  0  0  0  0  0  0  0  0
   -5.5857   20.0213  -33.9792 H   0  0  0  0  0  0  0  0  0  0  0  0
   -7.0611   19.2938  -34.7696 H   0  0  0  0  0  0  0  0  0  0  0  0
   -4.4680   18.7420  -35.5033 H   0  0  0  0  0  0  0  0  0  0  0  0
   -5.8952   17.6555  -35.7673 H   0  0  0  0  0  0  0  0  0  0  0  0
  1  2  1  0
  2  3  1  0
  3  4  1  0
  4  5  1  0
  5  6  1  0
  6  7  2  0
  6  8  2  0
  6  9  1  0
  9 10  2  0
 10 11  1  0
 11 12  2  0
 12 13  1  0
 13 14  2  0
 13 15  1  0
 15 16  1  0
 16 17  2  0
 16 18  1  0
 18 19  1  0
  5 20  1  0
 20 21  1  0
 21  2  1  0
 14  9  1  0
 18 12  1  0
  1 22  1  0
  1 23  1  0
  1 24  1  0
  2 25  1  6
  3 26  1  0
  3 27  1  0
  4 28  1  0
  4 29  1  0
  5 30  1  6
 10 31  1  0
 11 32  1  0
 14 33  1  0
 19 34  1  0
 19 35  1  0
 19 36  1  0
 20 37  1  0
 20 38  1  0
 21 39  1  0
 21 40  1  0
M  CHG  1   5   1
M  END
>  <UniqueID>  (15) 
15

>  <SMILES>  (15) 
CC1CC[NH+](S(=O)(=O)c2ccc3c(c2)oc(=O)n3C)CC1

>  <Energy>  (15) 
83.38021330602736

>  <Genealogy>  (15) 
CC1CC[NH+](S(=O)(=O)c2ccc3c(c2)oc(=O)n3C)CC1 (protonated)
CC1CC[NH+](S(=O)(=O)c2ccc3c(c2)oc(=O)n3C)CC1 (3D coordinates assigned)
CC1CC[NH+](S(=O)(=O)c2ccc3c(c2)oc(=O)n3C)CC1 (nonaromatic ring conformer: 83.38021330602736 kcal/mol)

>  <smiles>  (15) 
CC1CCN(S(=O)(=O)c2ccc3c(c2)oc(=O)n3C)CC1

>  <score_type>  (15) 
oracle

>  <origin>  (15) 
adg

>  <m_score__min__energy>  (15) 
-8.2799999999999994

>  <m_primary>  (15) 
energy

$$$$
15:0
     RDKit          3D

 49 51  0  0  0  0  0  0  0  0999 V2000
   -1.9380   21.1980  -29.2470 C   0  0  0  0  0  0  0  0  0  0  0  0
   -1.4010   21.6970  -30.5920 C   0  0  0  0  0  0  0  0  0  0  0  0
   -1.4840   20.6690  -31.6430 N   0  0  0  0  0  0  0  0  0  0  0  0
   -1.8410   21.2220  -32.9580 C   0  0  0  0  0  0  0  0  0  0  0  0
   -3.2850   20.8660  -33.3270 C   0  0  0  0  0  0  0  0  0  0  0  0
   -4.0620   20.5340  -32.1330 N   0  0  0  0  0  0  0  0  0  0  0  0
   -5.3900   21.0510  -31.9380 C   0  0  0  0  0  0  0  0  0  0  0  0
   -6.5100   20.2360  -32.1840 C   0  0  0  0  0  0  0  0  0  0  0  0
   -6.3550   18.8680  -32.4950 C   0  0  0  0  0  0  0  0  0  0  0  0
   -7.4650   18.0530  -32.6970 C   0  0  0  0  0  0  0  0  0  0  0  0
   -8.7460   18.5780  -32.5690 C   0  0  0  0  0  0  0  0  0  0  0  0
   -8.9250   19.9240  -32.2520 C   0  0  0  0  0  0  0  0  0  0  0  0
   -7.8140   20.7890  -32.0780 C   0  0  0  0  0  0  0  0  0  0  0  0
   -7.9770   22.1310  -31.7890 N   0  0  0  0  0  0  0  0  0  0  0  0
   -9.2980   22.7730  -31.9700 C   0  0  0  0  0  0  0  0  0  0  0  0
   -6.8990   22.8780  -31.3500 C   0  0  0  0  0  0  0  0  0  0  0  0
   -7.0660   24.1700  -30.7900 C   0  0  0  0  0  0  0  0  0  0  0  0
   -5.9690   24.9390  -30.4070 C   0  0  0  0  0  0  0  0  0  0  0  0
   -4.6700   24.4380  -30.5430 C   0  0  0  0  0  0  0  0  0  0  0  0
   -3.5130   25.2150  -30.1970 N   0  0  0  0  0  0  0  0  0  0  0  0
   -2.5640   24.9250  -29.1640 C   0  0  0  0  0  0  0  0  0  0  0  0
   -2.9820   24.1000  -27.9950 C   0  0  0  0  0  0  0  0  0  0  0  0
   -1.3830   25.3630  -29.2260 O   0  0  0  0  0  0  0  0  0  0  0  0
   -4.4840   23.1630  -31.0760 C   0  0  0  0  0  0  0  0  0  0  0  0
   -5.5820   22.3580  -31.4510 C   0  0  0  0  0  0  0  0  0  0  0  0
   -1.3995   21.6984  -28.4287 H   0  0  0  0  0  0  0  0  0  0  0  0
   -3.0115   21.4266  -29.1732 H   0  0  0  0  0  0  0  0  0  0  0  0
   -1.7887   20.1107  -29.1732 H   0  0  0  0  0  0  0  0  0  0  0  0
   -1.9898   22.5717  -30.9054 H   0  0  0  0  0  0  0  0  0  0  0  0
   -0.3402   21.9545  -30.4562 H   0  0  0  0  0  0  0  0  0  0  0  0
   -0.5690   20.1650  -31.7180 H   0  0  0  0  0  0  0  0  0  0  0  0
   -1.7361   22.3166  -32.9289 H   0  0  0  0  0  0  0  0  0  0  0  0
   -1.1685   20.7916  -33.7147 H   0  0  0  0  0  0  0  0  0  0  0  0
   -3.7501   21.7255  -33.8319 H   0  0  0  0  0  0  0  0  0  0  0  0
   -3.2720   19.9904  -33.9927 H   0  0  0  0  0  0  0  0  0  0  0  0
   -3.5590   20.1080  -31.3220 H   0  0  0  0  0  0  0  0  0  0  0  0
   -5.3448   18.4409  -32.5787 H   0  0  0  0  0  0  0  0  0  0  0  0
   -7.3287   16.9931  -32.9580 H   0  0  0  0  0  0  0  0  0  0  0  0
   -9.6216   17.9291  -32.7184 H   0  0  0  0  0  0  0  0  0  0  0  0
   -9.9439   20.3216  -32.1350 H   0  0  0  0  0  0  0  0  0  0  0  0
   -9.7394   22.9875  -30.9855 H   0  0  0  0  0  0  0  0  0  0  0  0
   -9.1757   23.7121  -32.5295 H   0  0  0  0  0  0  0  0  0  0  0  0
   -9.9609   22.0965  -32.5295 H   0  0  0  0  0  0  0  0  0  0  0  0
   -8.0807   24.5728  -30.6554 H   0  0  0  0  0  0  0  0  0  0  0  0
   -6.1255   25.9468  -29.9949 H   0  0  0  0  0  0  0  0  0  0  0  0
   -2.7172   24.6226  -27.0640 H   0  0  0  0  0  0  0  0  0  0  0  0
   -4.0698   23.9402  -28.0292 H   0  0  0  0  0  0  0  0  0  0  0  0
   -2.4674   23.1284  -28.0292 H   0  0  0  0  0  0  0  0  0  0  0  0
   -3.4624   22.7768  -31.2069 H   0  0  0  0  0  0  0  0  0  0  0  0
  1  2  1  0
  2  3  1  0
  3  4  1  0
  4  5  1  0
  5  6  1  0
  6  7  1  0
  7  8  2  0
  8  9  1  0
  9 10  2  0
 10 11  1  0
 11 12  2  0
 12 13  1  0
 13 14  2  0
 14 15  1  0
 14 16  1  0
 16 17  2  0
 17 18  1  0
 18 19  2  0
 19 20  1  0
 20 21  1  0
 21 22  1  0
 21 23  2  0
 19 24  1  0
 24 25  2  0
 25  7  1  0
 13  8  1  0
 25 16  1  0
  1 26  1  0
  1 27  1  0
  1 28  1  0
  2 29  1  0
  2 30  1  0
  3 31  1  0
  4 32  1  0
  4 33  1  0
  5 34  1  0
  5 35  1  0
  6 36  1  0
  9 37  1  0
 10 38  1  0
 11 39  1  0
 12 40  1  0
 15 41  1  0
 15 42  1  0
 15 43  1  0
 17 44  1  0
 18 45  1  0
 22 46  1  0
 22 47  1  0
 22 48  1  0
 24 49  1  0
M  CHG  2  14   1  20  -1
M  END
>  <UniqueID>  (16) 
16

>  <SMILES>  (16) 
CCNCCNc1c2ccccc2[n+](C)c2ccc([N-]C(C)=O)cc12

>  <Energy>  (16) 
74.51953001469866

>  <Genealogy>  (16) 
CCNCCNc1c2ccccc2[n+](C)c2ccc([N-]C(C)=O)cc12 (protonated)
CCNCCNc1c2ccccc2[n+](C)c2ccc([N-]C(C)=O)cc12 (3D coordinates assigned)
CCNCCNc1c2ccccc2[n+](C)c2ccc([N-]C(C)=O)cc12 (optimized conformer: 74.51953001469866 kcal/mol)

>  <smiles>  (16) 
CCNCCNc1c2ccccc2[n+](C)c2ccc(NC(C)=O)cc12

>  <score_type>  (16) 
oracle

>  <origin>  (16) 
adg

>  <m_score__min__energy>  (16) 
-10.42

>  <m_primary>  (16) 
energy

$$$$
16:0
     RDKit          3D

 97 99  0  0  0  0  0  0  0  0999 V2000
   -3.3900   21.9130  -28.7200 C   0  0  0  0  0  0  0  0  0  0  0  0
   -2.3080   20.8800  -29.0880 C   0  0  0  0  0  0  0  0  0  0  0  0
   -2.0210   19.8480  -28.0470 N   0  0  0  0  0  0  0  0  0  0  0  0
   -3.1170   19.6830  -27.0550 C   0  0  0  0  0  0  0  0  0  0  0  0
   -2.8420   18.5760  -26.0280 C   0  0  0  0  0  0  0  0  0  0  0  0
   -0.6540   19.9610  -27.4610 C   0  0  0  0  0  0  0  0  0  0  0  0
    0.2450   18.7200  -27.6130 C   0  0  0  0  0  0  0  0  0  0  0  0
   -0.3160   17.8350  -28.5670 O   0  0  0  0  0  0  0  0  0  0  0  0
    0.6380   17.3120  -29.4770 C   0  0  0  0  0  0  0  0  0  0  0  0
    0.4810   17.9160  -30.9050 C   0  0  2  0  0  0  0  0  0  0  0  0
   -0.0960   19.3440  -30.7990 C   0  0  0  0  0  0  0  0  0  0  0  0
   -0.4860   17.0510  -31.7570 C   0  0  0  0  0  0  0  0  0  0  0  0
   -1.0640   17.7960  -32.7990 O   0  0  0  0  0  0  0  0  0  0  0  0
    1.8920   17.9810  -31.5670 C   0  0  0  0  0  0  0  0  0  0  0  0
    1.8060   18.4160  -32.9890 N   0  0  0  0  0  0  0  0  0  0  0  0
    2.5270   19.6910  -33.1870 C   0  0  0  0  0  0  0  0  0  0  0  0
    2.3020   17.3800  -33.9270 C   0  0  0  0  0  0  0  0  0  0  0  0
    1.8010   17.6440  -35.3530 C   0  0  0  0  0  0  0  0  0  0  0  0
    0.4640   18.2800  -35.3150 N   0  0  0  0  0  0  0  0  0  0  0  0
   -0.5800   17.3260  -35.7280 C   0  0  0  0  0  0  0  0  0  0  0  0
    0.4010   19.5030  -36.1420 C   0  0  0  0  0  0  0  0  0  0  0  0
   -0.1400   20.6790  -35.3070 C   0  0  0  0  0  0  0  0  0  0  0  0
   -0.6220   20.2530  -33.9850 N   0  0  0  0  0  0  0  0  0  0  0  0
   -0.7040   21.3680  -33.0300 C   0  0  0  0  0  0  0  0  0  0  0  0
   -2.1430   21.5310  -32.5300 C   0  0  0  0  0  0  0  0  0  0  0  0
   -3.1240   21.1690  -33.5590 N   0  0  0  0  0  0  0  0  0  0  0  0
   -4.4330   20.6570  -33.2470 C   0  0  0  0  0  0  0  0  0  0  0  0
   -5.3980   21.5070  -32.6770 C   0  0  0  0  0  0  0  0  0  0  0  0
   -5.0800   22.8450  -32.3530 C   0  0  0  0  0  0  0  0  0  0  0  0
   -6.0470   23.7020  -31.8370 C   0  0  0  0  0  0  0  0  0  0  0  0
   -7.3490   23.2540  -31.6530 C   0  0  0  0  0  0  0  0  0  0  0  0
   -7.6900   21.9400  -31.9700 C   0  0  0  0  0  0  0  0  0  0  0  0
   -6.7160   21.0240  -32.4490 C   0  0  0  0  0  0  0  0  0  0  0  0
   -7.0260   19.7010  -32.7100 N   0  0  0  0  0  0  0  0  0  0  0  0
   -8.3130   19.1400  -32.2410 C   0  0  0  0  0  0  0  0  0  0  0  0
   -6.1160   18.8910  -33.3660 C   0  0  0  0  0  0  0  0  0  0  0  0
   -6.4720   17.6040  -33.8490 C   0  0  0  0  0  0  0  0  0  0  0  0
   -5.5190   16.7560  -34.4140 C   0  0  0  0  0  0  0  0  0  0  0  0
   -4.1950   17.1650  -34.5130 C   0  0  0  0  0  0  0  0  0  0  0  0
   -3.8260   18.4410  -34.0990 C   0  0  0  0  0  0  0  0  0  0  0  0
   -4.7840   19.3360  -33.5770 C   0  0  0  0  0  0  0  0  0  0  0  0
   -3.4683   21.9878  -27.6253 H   0  0  0  0  0  0  0  0  0  0  0  0
   -3.1169   22.8940  -29.1359 H   0  0  0  0  0  0  0  0  0  0  0  0
   -4.3573   21.5948  -29.1359 H   0  0  0  0  0  0  0  0  0  0  0  0
   -2.6337   20.3590  -30.0004 H   0  0  0  0  0  0  0  0  0  0  0  0
   -1.3759   21.4510  -29.2109 H   0  0  0  0  0  0  0  0  0  0  0  0
   -1.9940   18.9450  -28.5800 H   0  0  0  0  0  0  0  0  0  0  0  0
   -3.2480   20.6337  -26.5175 H   0  0  0  0  0  0  0  0  0  0  0  0
   -4.0209   19.3949  -27.6117 H   0  0  0  0  0  0  0  0  0  0  0  0
   -2.9436   18.9850  -25.0119 H   0  0  0  0  0  0  0  0  0  0  0  0
   -3.5643   17.7583  -26.1680 H   0  0  0  0  0  0  0  0  0  0  0  0
   -1.8210   18.1913  -26.1680 H   0  0  0  0  0  0  0  0  0  0  0  0
   -0.1468   20.8069  -27.9482 H   0  0  0  0  0  0  0  0  0  0  0  0
   -0.8027   20.0915  -26.3789 H   0  0  0  0  0  0  0  0  0  0  0  0
    1.2450   19.0323  -27.9483 H   0  0  0  0  0  0  0  0  0  0  0  0
    0.3228   18.2068  -26.6432 H   0  0  0  0  0  0  0  0  0  0  0  0
    1.6469   17.5420  -29.1039 H   0  0  0  0  0  0  0  0  0  0  0  0
    0.4763   16.2264  -29.5495 H   0  0  0  0  0  0  0  0  0  0  0  0
   -0.2064   19.6171  -29.7392 H   0  0  0  0  0  0  0  0  0  0  0  0
    0.5864   20.0527  -31.2911 H   0  0  0  0  0  0  0  0  0  0  0  0
   -1.0791   19.3797  -31.2911 H   0  0  0  0  0  0  0  0  0  0  0  0
    0.0746   16.2087  -32.1886 H   0  0  0  0  0  0  0  0  0  0  0  0
   -1.2933   16.6909  -31.1023 H   0  0  0  0  0  0  0  0  0  0  0  0
   -0.3150   18.1870  -33.3230 H   0  0  0  0  0  0  0  0  0  0  0  0
    2.5155   18.6966  -31.0110 H   0  0  0  0  0  0  0  0  0  0  0  0
    2.3340   16.9741  -31.5393 H   0  0  0  0  0  0  0  0  0  0  0  0
    2.7742   20.1282  -32.2084 H   0  0  0  0  0  0  0  0  0  0  0  0
    3.4535   19.5047  -33.7500 H   0  0  0  0  0  0  0  0  0  0  0  0
    1.8899   20.3889  -33.7500 H   0  0  0  0  0  0  0  0  0  0  0  0
    3.4020   17.3896  -33.9246 H   0  0  0  0  0  0  0  0  0  0  0  0
    1.9244   16.4004  -33.5987 H   0  0  0  0  0  0  0  0  0  0  0  0
    2.5068   18.3120  -35.8684 H   0  0  0  0  0  0  0  0  0  0  0  0
    1.7286   16.6874  -35.8912 H   0  0  0  0  0  0  0  0  0  0  0  0
   -1.0544   16.8925  -34.8353 H   0  0  0  0  0  0  0  0  0  0  0  0
   -1.3384   17.8496  -36.3285 H   0  0  0  0  0  0  0  0  0  0  0  0
   -0.1267   16.5236  -36.3285 H   0  0  0  0  0  0  0  0  0  0  0  0
    1.4096   19.7486  -36.5057 H   0  0  0  0  0  0  0  0  0  0  0  0
   -0.2716   19.3271  -36.9944 H   0  0  0  0  0  0  0  0  0  0  0  0
    0.6662   21.4145  -35.1689 H   0  0  0  0  0  0  0  0  0  0  0  0
   -0.9922   21.1124  -35.8510 H   0  0  0  0  0  0  0  0  0  0  0  0
    0.0090   19.5110  -33.5990 H   0  0  0  0  0  0  0  0  0  0  0  0
   -0.0431   21.1634  -32.1748 H   0  0  0  0  0  0  0  0  0  0  0  0
   -0.3913   22.2951  -33.5327 H   0  0  0  0  0  0  0  0  0  0  0  0
   -2.2907   20.8823  -31.6540 H   0  0  0  0  0  0  0  0  0  0  0  0
   -2.2959   22.5889  -32.2704 H   0  0  0  0  0  0  0  0  0  0  0  0
   -2.8150   21.1630  -34.5590 H   0  0  0  0  0  0  0  0  0  0  0  0
   -4.0556   23.2135  -32.5106 H   0  0  0  0  0  0  0  0  0  0  0  0
   -5.7800   24.7363  -31.5742 H   0  0  0  0  0  0  0  0  0  0  0  0
   -8.1133   23.9382  -31.2559 H   0  0  0  0  0  0  0  0  0  0  0  0
   -8.7311   21.6069  -31.8471 H   0  0  0  0  0  0  0  0  0  0  0  0
   -8.3306   19.1323  -31.1412 H   0  0  0  0  0  0  0  0  0  0  0  0
   -9.1413   19.7587  -32.6167 H   0  0  0  0  0  0  0  0  0  0  0  0
   -8.4235   18.1121  -32.6167 H   0  0  0  0  0  0  0  0  0  0  0  0
   -7.5175   17.2698  -33.7764 H   0  0  0  0  0  0  0  0  0  0  0  0
   -5.8162   15.7627  -34.7814 H   0  0  0  0  0  0  0  0  0  0  0  0
   -3.4372   16.4789  -34.9193 H   0  0  0  0  0  0  0  0  0  0  0  0
   -2.7751   18.7559  -34.1795 H   0  0  0  0  0  0  0  0  0  0  0  0
  1  2  1  0
  2  3  1  0
  3  4  1  0
  4  5  1  0
  3  6  1  0
  6  7  1  0
  7  8  1  0
  8  9  1  0
 10  9  1  1
 10 11  1  0
 10 12  1  0
 12 13  1  0
 10 14  1  0
 14 15  1  0
 15 16  1  0
 15 17  1  0
 17 18  1  0
 18 19  1  0
 19 20  1  0
 19 21  1  0
 21 22  1  0
 22 23  1  0
 23 24  1  0
 24 25  1  0
 25 26  1  0
 26 27  1  0
 27 28  2  0
 28 29  1  0
 29 30  2  0
 30 31  1  0
 31 32  2  0
 32 33  1  0
 33 34  2  0
 34 35  1  0
 34 36  1  0
 36 37  2  0
 37 38  1  0
 38 39  2  0
 39 40  1  0
 40 41  2  0
 41 27  1  0
 33 28  1  0
 41 36  1  0
  1 42  1  0
  1 43  1  0
  1 44  1  0
  2 45  1  0
  2 46  1  0
  3 47  1  0
  4 48  1  0
  4 49  1  0
  5 50  1  0
  5 51  1  0
  5 52  1  0
  6 53  1  0
  6 54  1  0
  7 55  1  0
  7 56  1  0
  9 57  1  0
  9 58  1  0
 11 59  1  0
 11 60  1  0
 11 61  1  0
 12 62  1  0
 12 63  1  0
 13 64  1  0
 14 65  1  0
 14 66  1  0
 16 67  1  0
 16 68  1  0
 16 69  1  0
 17 70  1  0
 17 71  1  0
 18 72  1  0
 18 73  1  0
 20 74  1  0
 20 75  1  0
 20 76  1  0
 21 77  1  0
 21 78  1  0
 22 79  1  0
 22 80  1  0
 23 81  1  0
 24 82  1  0
 24 83  1  0
 25 84  1  0
 25 85  1  0
 26 86  1  0
 29 87  1  0
 30 88  1  0
 31 89  1  0
 32 90  1  0
 35 91  1  0
 35 92  1  0
 35 93  1  0
 37 94  1  0
 38 95  1  0
 39 96  1  0
 40 97  1  0
M  CHG  2   3   1  34   1
M  END
>  <UniqueID>  (17) 
17

>  <SMILES>  (17) 
CC[NH+](CC)CCOC[C@](C)(CO)CN(C)CCN(C)CCNCCNc1c2ccccc2[n+](C)c2ccccc12

>  <Energy>  (17) 
130.67493798558277

>  <Genealogy>  (17) 
CC[NH+](CC)CCOCC(C)(CO)CN(C)CCN(C)CCNCCNc1c2ccccc2[n+](C)c2ccccc12 (protonated)
CC[NH+](CC)CCOC[C@](C)(CO)CN(C)CCN(C)CCNCCNc1c2ccccc2[n+](C)c2ccccc12 (chirality)
CC[NH+](CC)CCOC[C@](C)(CO)CN(C)CCN(C)CCNCCNc1c2ccccc2[n+](C)c2ccccc12 (3D coordinates assigned)
CC[NH+](CC)CCOC[C@](C)(CO)CN(C)CCN(C)CCNCCNc1c2ccccc2[n+](C)c2ccccc12 (optimized conformer: 130.67493798558277 kcal/mol)

>  <smiles>  (17) 
CCN(CC)CCOCC(C)(CO)CN(C)CCN(C)CCNCCNc1c2ccccc2[n+](C)c2ccccc12

>  <score_type>  (17) 
oracle

>  <origin>  (17) 
adg

>  <m_score__min__energy>  (17) 
-8.7200000000000006

>  <m_primary>  (17) 
energy

$$$$
17:0
     RDKit          3D

 52 55  0  0  0  0  0  0  0  0999 V2000
   -3.2120   18.9060  -26.3470 C   0  0  0  0  0  0  0  0  0  0  0  0
   -2.1030   19.8550  -26.7880 C   0  0  0  0  0  0  0  0  0  0  0  0
   -2.1760   20.0900  -28.1820 O   0  0  0  0  0  0  0  0  0  0  0  0
   -3.0990   21.1210  -28.4630 C   0  0  0  0  0  0  0  0  0  0  0  0
   -2.4100   22.1860  -29.3190 C   0  0  0  0  0  0  0  0  0  0  0  0
   -3.3420   23.3610  -29.6250 C   0  0  0  0  0  0  0  0  0  0  0  0
   -3.5920   23.4760  -31.0650 N   0  0  0  0  0  0  0  0  0  0  0  0
   -4.0150   22.3360  -31.8280 C   0  0  0  0  0  0  0  0  0  0  0  0
   -3.0660   21.4230  -32.3460 C   0  0  0  0  0  0  0  0  0  0  0  0
   -1.6830   21.6880  -32.2560 C   0  0  0  0  0  0  0  0  0  0  0  0
   -0.7500   20.7900  -32.7700 C   0  0  0  0  0  0  0  0  0  0  0  0
   -1.1730   19.6180  -33.3880 C   0  0  0  0  0  0  0  0  0  0  0  0
   -2.5340   19.3390  -33.5090 C   0  0  0  0  0  0  0  0  0  0  0  0
   -3.5100   20.2320  -33.0050 C   0  0  0  0  0  0  0  0  0  0  0  0
   -4.8620   19.9760  -33.1500 N   0  0  0  0  0  0  0  0  0  0  0  0
   -5.3180   19.0350  -34.1860 C   0  0  0  0  0  0  0  0  0  0  0  0
   -5.7520   20.7880  -32.4920 C   0  0  0  0  0  0  0  0  0  0  0  0
   -7.1420   20.7110  -32.3560 C   0  0  0  0  0  0  0  0  0  0  0  0
   -8.0790   19.6540  -32.4170 C   0  0  0  0  0  0  0  0  0  0  0  0
   -7.6150   17.7940  -32.4070 Br  0  0  0  0  0  0  0  0  0  0  0  0
   -9.4340   19.9620  -32.2020 C   0  0  0  0  0  0  0  0  0  0  0  0
   -9.8320   21.2620  -31.8520 C   0  0  0  0  0  0  0  0  0  0  0  0
   -8.8770   22.2670  -31.6610 C   0  0  0  0  0  0  0  0  0  0  0  0
   -7.5320   21.9620  -31.9000 C   0  0  0  0  0  0  0  0  0  0  0  0
   -6.4670   22.7680  -31.6780 N   0  0  0  0  0  0  0  0  0  0  0  0
   -6.5370   24.1690  -31.2540 C   0  0  0  0  0  0  0  0  0  0  0  0
   -5.3740   22.0170  -31.9780 C   0  0  0  0  0  0  0  0  0  0  0  0
   -3.2508   18.8728  -25.2482 H   0  0  0  0  0  0  0  0  0  0  0  0
   -4.1766   19.2627  -26.7373 H   0  0  0  0  0  0  0  0  0  0  0  0
   -3.0087   17.8979  -26.7373 H   0  0  0  0  0  0  0  0  0  0  0  0
   -2.2107   20.8105  -26.2538 H   0  0  0  0  0  0  0  0  0  0  0  0
   -1.1301   19.3975  -26.5551 H   0  0  0  0  0  0  0  0  0  0  0  0
   -3.9588   20.7073  -29.0103 H   0  0  0  0  0  0  0  0  0  0  0  0
   -3.4520   21.5705  -27.5231 H   0  0  0  0  0  0  0  0  0  0  0  0
   -1.5290   22.5620  -28.7783 H   0  0  0  0  0  0  0  0  0  0  0  0
   -2.1204   21.7222  -30.2735 H   0  0  0  0  0  0  0  0  0  0  0  0
   -4.2990   23.2050  -29.1057 H   0  0  0  0  0  0  0  0  0  0  0  0
   -2.8607   24.2877  -29.2791 H   0  0  0  0  0  0  0  0  0  0  0  0
   -3.1180   24.2510  -31.5820 H   0  0  0  0  0  0  0  0  0  0  0  0
   -1.3374   22.6146  -31.7743 H   0  0  0  0  0  0  0  0  0  0  0  0
    0.3248   21.0087  -32.6868 H   0  0  0  0  0  0  0  0  0  0  0  0
   -0.4311   18.9083  -33.7829 H   0  0  0  0  0  0  0  0  0  0  0  0
   -2.8542   18.4103  -34.0039 H   0  0  0  0  0  0  0  0  0  0  0  0
   -5.7499   18.1437  -33.7073 H   0  0  0  0  0  0  0  0  0  0  0  0
   -6.0807   19.5207  -34.8124 H   0  0  0  0  0  0  0  0  0  0  0  0
   -4.4642   18.7374  -34.8124 H   0  0  0  0  0  0  0  0  0  0  0  0
  -10.1930   19.1731  -32.3096 H   0  0  0  0  0  0  0  0  0  0  0  0
  -10.9004   21.4919  -31.7272 H   0  0  0  0  0  0  0  0  0  0  0  0
   -9.1763   23.2727  -31.3309 H   0  0  0  0  0  0  0  0  0  0  0  0
   -6.5395   24.2198  -30.1552 H   0  0  0  0  0  0  0  0  0  0  0  0
   -5.6650   24.7142  -31.6443 H   0  0  0  0  0  0  0  0  0  0  0  0
   -7.4590   24.6246  -31.6443 H   0  0  0  0  0  0  0  0  0  0  0  0
  1  2  1  0
  2  3  1  0
  3  4  1  0
  4  5  1  0
  5  6  1  0
  6  7  1  0
  7  8  1  0
  8  9  2  0
  9 10  1  0
 10 11  2  0
 11 12  1  0
 12 13  2  0
 13 14  1  0
 14 15  2  0
 15 16  1  0
 15 17  1  0
 17 18  1  0
 18 19  2  0
 19 20  1  0
 19 21  1  0
 21 22  2  0
 22 23  1  0
 23 24  2  0
 24 25  1  0
 25 26  1  0
 25 27  1  0
 27  8  1  0
 14  9  1  0
 27 17  2  0
 24 18  1  0
  1 28  1  0
  1 29  1  0
  1 30  1  0
  2 31  1  0
  2 32  1  0
  4 33  1  0
  4 34  1  0
  5 35  1  0
  5 36  1  0
  6 37  1  0
  6 38  1  0
  7 39  1  0
 10 40  1  0
 11 41  1  0
 12 42  1  0
 13 43  1  0
 16 44  1  0
 16 45  1  0
 16 46  1  0
 21 47  1  0
 22 48  1  0
 23 49  1  0
 26 50  1  0
 26 51  1  0
 26 52  1  0
M  CHG  1  15   1
M  END
>  <UniqueID>  (18) 
18

>  <SMILES>  (18) 
CCOCCCNc1c2ccccc2[n+](C)c2c3c(Br)cccc3n(C)c12

>  <Energy>  (18) 
127.80563310495013

>  <Genealogy>  (18) 
CCOCCCNc1c2ccccc2[n+](C)c2c3c(Br)cccc3n(C)c12 (3D coordinates assigned)
CCOCCCNc1c2ccccc2[n+](C)c2c3c(Br)cccc3n(C)c12 (optimized conformer: 127.80563310495013 kcal/mol)

>  <smiles>  (18) 
CCOCCCNc1c2ccccc2[n+](C)c2c3c(Br)cccc3n(C)c12

>  <score_type>  (18) 
oracle

>  <origin>  (18) 
adg

>  <m_score__min__energy>  (18) 
-9.1600000000000001

>  <m_primary>  (18) 
energy

$$$$
18:0
     RDKit          3D

 34 33  0  0  0  0  0  0  0  0999 V2000
   -6.3730   19.1720  -33.7630 C   0  0  0  0  0  0  0  0  0  0  0  0
   -7.1030   18.4300  -32.6400 C   0  0  0  0  0  0  0  0  0  0  0  0
   -8.5650   18.6030  -32.6990 N   0  0  0  0  0  0  0  0  0  0  0  0
   -9.1110   19.4120  -31.5950 C   0  0  0  0  0  0  0  0  0  0  0  0
   -8.7010   20.8190  -31.7020 C   0  0  0  0  0  0  0  0  0  0  0  0
   -8.3500   21.9670  -31.8030 C   0  0  0  0  0  0  0  0  0  0  0  0
   -7.9280   23.3680  -31.9610 C   0  0  0  0  0  0  0  0  0  0  0  0
   -6.5950   23.4560  -32.5790 N   0  0  0  0  0  0  0  0  0  0  0  0
   -5.7610   22.2830  -32.2520 C   0  0  0  0  0  0  0  0  0  0  0  0
   -4.3510   22.6880  -31.7890 C   0  0  0  0  0  0  0  0  0  0  0  0
   -4.3460   23.5680  -30.5300 C   0  0  0  0  0  0  0  0  0  0  0  0
   -4.6190   24.9210  -30.8470 O   0  0  0  0  0  0  0  0  0  0  0  0
   -5.7020   25.3980  -30.0780 C   0  0  0  0  0  0  0  0  0  0  0  0
   -5.6648   19.8919  -33.3269 H   0  0  0  0  0  0  0  0  0  0  0  0
   -5.8247   18.4487  -34.3844 H   0  0  0  0  0  0  0  0  0  0  0  0
   -7.1051   19.7085  -34.3844 H   0  0  0  0  0  0  0  0  0  0  0  0
   -6.8723   17.3574  -32.7193 H   0  0  0  0  0  0  0  0  0  0  0  0
   -6.7574   18.8516  -31.6846 H   0  0  0  0  0  0  0  0  0  0  0  0
   -8.8560   18.9880  -33.6290 H   0  0  0  0  0  0  0  0  0  0  0  0
  -10.2093   19.3571  -31.6214 H   0  0  0  0  0  0  0  0  0  0  0  0
   -8.7205   19.0106  -30.6482 H   0  0  0  0  0  0  0  0  0  0  0  0
   -8.6547   23.8918  -32.5994 H   0  0  0  0  0  0  0  0  0  0  0  0
   -7.8814   23.8322  -30.9648 H   0  0  0  0  0  0  0  0  0  0  0  0
   -6.1210   24.3400  -32.2730 H   0  0  0  0  0  0  0  0  0  0  0  0
   -6.7280   23.4960  -33.6160 H   0  0  0  0  0  0  0  0  0  0  0  0
   -6.2490   21.7138  -31.4471 H   0  0  0  0  0  0  0  0  0  0  0  0
   -5.6575   21.6757  -33.1633 H   0  0  0  0  0  0  0  0  0  0  0  0
   -3.7788   21.7730  -31.5760 H   0  0  0  0  0  0  0  0  0  0  0  0
   -3.9037   23.2821  -32.5995 H   0  0  0  0  0  0  0  0  0  0  0  0
   -5.1141   23.2011  -29.8333 H   0  0  0  0  0  0  0  0  0  0  0  0
   -3.3474   23.5133  -30.0721 H   0  0  0  0  0  0  0  0  0  0  0  0
   -5.4662   25.2941  -29.0086 H   0  0  0  0  0  0  0  0  0  0  0  0
   -5.8799   26.4578  -30.3130 H   0  0  0  0  0  0  0  0  0  0  0  0
   -6.6040   24.8139  -30.3130 H   0  0  0  0  0  0  0  0  0  0  0  0
  1  2  1  0
  2  3  1  0
  3  4  1  0
  4  5  1  0
  5  6  3  0
  6  7  1  0
  7  8  1  0
  8  9  1  0
  9 10  1  0
 10 11  1  0
 11 12  1  0
 12 13  1  0
  1 14  1  0
  1 15  1  0
  1 16  1  0
  2 17  1  0
  2 18  1  0
  3 19  1  0
  4 20  1  0
  4 21  1  0
  7 22  1  0
  7 23  1  0
  8 24  1  0
  8 25  1  0
  9 26  1  0
  9 27  1  0
 10 28  1  0
 10 29  1  0
 11 30  1  0
 11 31  1  0
 13 32  1  0
 13 33  1  0
 13 34  1  0
M  CHG  1   8   1
M  END
>  <UniqueID>  (19) 
19

>  <SMILES>  (19) 
CCNCC#CC[NH2+]CCCOC

>  <Energy>  (19) 
22.291514954091436

>  <Genealogy>  (19) 
CCNCC#CC[NH2+]CCCOC (protonated)
CCNCC#CC[NH2+]CCCOC (3D coordinates assigned)
CCNCC#CC[NH2+]CCCOC (optimized conformer: 22.291514954091436 kcal/mol)

>  <smiles>  (19) 
CCNCC#CCNCCCOC

>  <score_type>  (19) 
oracle

>  <origin>  (19) 
adg

>  <m_score__min__energy>  (19) 
-4.2699999999999996

>  <m_primary>  (19) 
energy

$$$$
19:0
     RDKit          3D

 64 67  0  0  0  0  0  0  0  0999 V2000
   -7.2770   23.1950  -32.3430 C   0  0  0  0  0  0  0  0  0  0  0  0
   -7.4250   22.9400  -30.8430 C   0  0  0  0  0  0  0  0  0  0  0  0
   -8.3880   21.8600  -30.5870 N   0  0  0  0  0  0  0  0  0  0  0  0
   -9.4890   21.9050  -31.5600 C   0  0  0  0  0  0  0  0  0  0  0  0
   -9.5800   20.5940  -32.3440 C   0  0  0  0  0  0  0  0  0  0  0  0
   -8.2820   20.1290  -32.6190 O   0  0  0  0  0  0  0  0  0  0  0  0
   -7.9580   19.2850  -31.6040 N   0  0  0  0  0  0  0  0  0  0  0  0
   -7.9760   17.9030  -32.1020 C   0  0  0  0  0  0  0  0  0  0  0  0
   -7.1910   17.7220  -33.4170 C   0  0  0  0  0  0  0  0  0  0  0  0
   -6.4460   18.9300  -33.7830 N   0  0  0  0  0  0  0  0  0  0  0  0
   -5.0920   19.2020  -33.3650 C   0  0  0  0  0  0  0  0  0  0  0  0
   -4.8140   20.3470  -32.6220 C   0  0  0  0  0  0  0  0  0  0  0  0
   -3.5200   20.6080  -32.1320 C   0  0  0  0  0  0  0  0  0  0  0  0
   -3.2420   21.8070  -31.3960 C   0  0  0  0  0  0  0  0  0  0  0  0
   -4.1420   22.8960  -31.3080 C   0  0  0  0  0  0  0  0  0  0  0  0
   -3.8310   24.0420  -30.5490 C   0  0  0  0  0  0  0  0  0  0  0  0
   -4.7180   25.1260  -30.4310 O   0  0  0  0  0  0  0  0  0  0  0  0
   -5.7420   25.2340  -29.4470 C   0  0  0  0  0  0  0  0  0  0  0  0
   -2.6010   24.1260  -29.8880 C   0  0  0  0  0  0  0  0  0  0  0  0
   -2.3200   25.2850  -29.1470 O   0  0  0  0  0  0  0  0  0  0  0  0
   -1.8080   25.2920  -27.8190 C   0  0  0  0  0  0  0  0  0  0  0  0
   -1.6880   23.0670  -29.9910 C   0  0  0  0  0  0  0  0  0  0  0  0
   -1.9970   21.9270  -30.7430 C   0  0  0  0  0  0  0  0  0  0  0  0
   -1.0690   20.9020  -30.8420 C   0  0  0  0  0  0  0  0  0  0  0  0
   -1.3420   19.7940  -31.6260 C   0  0  0  0  0  0  0  0  0  0  0  0
   -2.5240   19.6600  -32.3180 N   0  0  0  0  0  0  0  0  0  0  0  0
   -2.7390   18.5760  -33.1610 C   0  0  0  0  0  0  0  0  0  0  0  0
   -1.6860   17.7100  -33.5750 C   0  0  0  0  0  0  0  0  0  0  0  0
   -1.9290   16.6130  -34.4000 C   0  0  0  0  0  0  0  0  0  0  0  0
   -3.2080   16.3610  -34.8710 C   0  0  0  0  0  0  0  0  0  0  0  0
   -4.2540   17.2140  -34.5320 C   0  0  0  0  0  0  0  0  0  0  0  0
   -4.0410   18.3230  -33.6800 C   0  0  0  0  0  0  0  0  0  0  0  0
   -6.7307   24.1363  -32.5028 H   0  0  0  0  0  0  0  0  0  0  0  0
   -6.7201   22.3653  -32.8028 H   0  0  0  0  0  0  0  0  0  0  0  0
   -8.2737   23.2669  -32.8028 H   0  0  0  0  0  0  0  0  0  0  0  0
   -6.4467   22.6561  -30.4277 H   0  0  0  0  0  0  0  0  0  0  0  0
   -7.7932   23.8597  -30.3649 H   0  0  0  0  0  0  0  0  0  0  0  0
   -8.7810   21.9640  -29.6220 H   0  0  0  0  0  0  0  0  0  0  0  0
   -7.8950   20.9390  -30.6610 H   0  0  0  0  0  0  0  0  0  0  0  0
  -10.4357   22.0709  -31.0250 H   0  0  0  0  0  0  0  0  0  0  0  0
   -9.2985   22.7250  -32.2681 H   0  0  0  0  0  0  0  0  0  0  0  0
  -10.1204   19.8448  -31.7467 H   0  0  0  0  0  0  0  0  0  0  0  0
  -10.1193   20.7642  -33.2875 H   0  0  0  0  0  0  0  0  0  0  0  0
   -6.9900   19.5250  -31.2930 H   0  0  0  0  0  0  0  0  0  0  0  0
   -7.5318   17.2496  -31.3367 H   0  0  0  0  0  0  0  0  0  0  0  0
   -9.0247   17.6430  -32.3084 H   0  0  0  0  0  0  0  0  0  0  0  0
   -6.4813   16.8904  -33.2953 H   0  0  0  0  0  0  0  0  0  0  0  0
   -7.9148   17.5136  -34.2186 H   0  0  0  0  0  0  0  0  0  0  0  0
   -6.9490   19.6290  -34.3750 H   0  0  0  0  0  0  0  0  0  0  0  0
   -5.6228   21.0628  -32.4136 H   0  0  0  0  0  0  0  0  0  0  0  0
   -5.1023   22.8468  -31.8422 H   0  0  0  0  0  0  0  0  0  0  0  0
   -5.2931   25.1867  -28.4439 H   0  0  0  0  0  0  0  0  0  0  0  0
   -6.2677   26.1926  -29.5686 H   0  0  0  0  0  0  0  0  0  0  0  0
   -6.4561   24.4062  -29.5686 H   0  0  0  0  0  0  0  0  0  0  0  0
   -2.6437   25.2806  -27.1038 H   0  0  0  0  0  0  0  0  0  0  0  0
   -1.1800   24.4024  -27.6634 H   0  0  0  0  0  0  0  0  0  0  0  0
   -1.2046   26.1985  -27.6634 H   0  0  0  0  0  0  0  0  0  0  0  0
   -0.7185   23.1324  -29.4755 H   0  0  0  0  0  0  0  0  0  0  0  0
   -0.1155   20.9690  -30.2976 H   0  0  0  0  0  0  0  0  0  0  0  0
   -0.5896   18.9948  -31.6981 H   0  0  0  0  0  0  0  0  0  0  0  0
   -0.6590   17.9115  -33.2362 H   0  0  0  0  0  0  0  0  0  0  0  0
   -1.1015   15.9439  -34.6787 H   0  0  0  0  0  0  0  0  0  0  0  0
   -3.3961   15.4873  -35.5123 H   0  0  0  0  0  0  0  0  0  0  0  0
   -5.2607   17.0232  -34.9322 H   0  0  0  0  0  0  0  0  0  0  0  0
  1  2  1  0
  2  3  1  0
  3  4  1  0
  4  5  1  0
  5  6  1  0
  6  7  1  0
  7  8  1  0
  8  9  1  0
  9 10  1  0
 10 11  1  0
 11 12  2  0
 12 13  1  0
 13 14  2  0
 14 15  1  0
 15 16  2  0
 16 17  1  0
 17 18  1  0
 16 19  1  0
 19 20  1  0
 20 21  1  0
 19 22  2  0
 22 23  1  0
 23 24  2  0
 24 25  1  0
 25 26  2  0
 26 27  1  0
 27 28  2  0
 28 29  1  0
 29 30  2  0
 30 31  1  0
 31 32  2  0
 32 11  1  0
 26 13  1  0
 32 27  1  0
 23 14  1  0
  1 33  1  0
  1 34  1  0
  1 35  1  0
  2 36  1  0
  2 37  1  0
  3 38  1  0
  3 39  1  0
  4 40  1  0
  4 41  1  0
  5 42  1  0
  5 43  1  0
  7 44  1  0
  8 45  1  0
  8 46  1  0
  9 47  1  0
  9 48  1  0
 10 49  1  0
 12 50  1  0
 15 51  1  0
 18 52  1  0
 18 53  1  0
 18 54  1  0
 21 55  1  0
 21 56  1  0
 21 57  1  0
 22 58  1  0
 24 59  1  0
 25 60  1  0
 28 61  1  0
 29 62  1  0
 30 63  1  0
 31 64  1  0
M  CHG  2   3   1  26   1
M  END
>  <UniqueID>  (20) 
20

>  <SMILES>  (20) 
CC[NH2+]CCONCCNc1cc2c3cc(OC)c(OC)cc3cc[n+]2c2ccccc12

>  <Energy>  (20) 
86.50286685200331

>  <Genealogy>  (20) 
CC[NH2+]CCONCCNc1cc2c3cc(OC)c(OC)cc3cc[n+]2c2ccccc12 (protonated)
CC[NH2+]CCONCCNc1cc2c3cc(OC)c(OC)cc3cc[n+]2c2ccccc12 (3D coordinates assigned)
CC[NH2+]CCONCCNc1cc2c3cc(OC)c(OC)cc3cc[n+]2c2ccccc12 (optimized conformer: 86.50286685200331 kcal/mol)

>  <smiles>  (20) 
CCNCCONCCNc1cc2c3cc(OC)c(OC)cc3cc[n+]2c2ccccc12

>  <score_type>  (20) 
oracle

>  <origin>  (20) 
adg

>  <m_score__min__energy>  (20) 
-10.029999999999999

>  <m_primary>  (20) 
energy

$$$$
20:0
     RDKit          3D

 57 59  0  0  0  0  0  0  0  0999 V2000
   -1.1720   26.4550  -26.7390 C   0  0  0  0  0  0  0  0  0  0  0  0
   -0.8950   26.4690  -28.2380 C   0  0  0  0  0  0  0  0  0  0  0  0
   -1.6960   25.4980  -28.9080 O   0  0  0  0  0  0  0  0  0  0  0  0
   -1.9620   24.1900  -28.4600 C   0  0  0  0  0  0  0  0  0  0  0  0
   -0.9680   23.3830  -27.8690 C   0  0  0  0  0  0  0  0  0  0  0  0
   -1.2770   22.1000  -27.4140 C   0  0  0  0  0  0  0  0  0  0  0  0
   -2.5760   21.6060  -27.5350 C   0  0  0  0  0  0  0  0  0  0  0  0
   -3.5710   22.3910  -28.1190 C   0  0  0  0  0  0  0  0  0  0  0  0
   -3.2740   23.6810  -28.5900 C   0  0  0  0  0  0  0  0  0  0  0  0
   -4.3750   24.5030  -29.2190 C   0  0  0  0  0  0  0  0  0  0  0  0
   -4.3960   24.3490  -30.6910 N   0  0  0  0  0  0  0  0  0  0  0  0
   -5.7640   24.6140  -31.2070 C   0  0  0  0  0  0  0  0  0  0  0  0
   -6.0760   23.8110  -32.4820 C   0  0  0  0  0  0  0  0  0  0  0  0
   -5.9880   22.3430  -32.2530 N   0  0  0  0  0  0  0  0  0  0  0  0
   -7.3150   21.7820  -31.8930 C   0  0  0  0  0  0  0  0  0  0  0  0
   -7.3760   20.2810  -32.1010 C   0  0  0  0  0  0  0  0  0  0  0  0
   -8.4460   19.5580  -31.5460 C   0  0  0  0  0  0  0  0  0  0  0  0
   -8.5520   18.1810  -31.7480 C   0  0  0  0  0  0  0  0  0  0  0  0
   -7.5960   17.5120  -32.5110 C   0  0  0  0  0  0  0  0  0  0  0  0
   -6.5300   18.2150  -33.0760 C   0  0  0  0  0  0  0  0  0  0  0  0
   -6.4090   19.6060  -32.8800 C   0  0  0  0  0  0  0  0  0  0  0  0
   -5.3530   20.3380  -33.4450 O   0  0  0  0  0  0  0  0  0  0  0  0
   -4.0650   19.8090  -33.7470 C   0  0  0  0  0  0  0  0  0  0  0  0
   -3.0080   20.8640  -33.4640 C   0  0  0  0  0  0  0  0  0  0  0  0
   -4.9560   21.9790  -31.2420 C   0  0  0  0  0  0  0  0  0  0  0  0
   -3.8540   23.0390  -31.1330 C   0  0  0  0  0  0  0  0  0  0  0  0
   -0.2201   26.5031  -26.1898 H   0  0  0  0  0  0  0  0  0  0  0  0
   -1.7932   27.3229  -26.4728 H   0  0  0  0  0  0  0  0  0  0  0  0
   -1.7025   25.5289  -26.4728 H   0  0  0  0  0  0  0  0  0  0  0  0
   -1.1268   27.4669  -28.6387 H   0  0  0  0  0  0  0  0  0  0  0  0
    0.1654   26.2278  -28.4038 H   0  0  0  0  0  0  0  0  0  0  0  0
    0.0576   23.7670  -27.7659 H   0  0  0  0  0  0  0  0  0  0  0  0
   -0.4936   21.4764  -26.9585 H   0  0  0  0  0  0  0  0  0  0  0  0
   -2.8162   20.5966  -27.1697 H   0  0  0  0  0  0  0  0  0  0  0  0
   -4.5941   21.9975  -28.2112 H   0  0  0  0  0  0  0  0  0  0  0  0
   -5.3427   24.1749  -28.8118 H   0  0  0  0  0  0  0  0  0  0  0  0
   -4.1899   25.5620  -28.9862 H   0  0  0  0  0  0  0  0  0  0  0  0
   -6.4935   24.3410  -30.4303 H   0  0  0  0  0  0  0  0  0  0  0  0
   -5.8256   25.6827  -31.4603 H   0  0  0  0  0  0  0  0  0  0  0  0
   -7.0945   24.0576  -32.8165 H   0  0  0  0  0  0  0  0  0  0  0  0
   -5.3301   24.0809  -33.2441 H   0  0  0  0  0  0  0  0  0  0  0  0
   -5.7040   21.9150  -33.1680 H   0  0  0  0  0  0  0  0  0  0  0  0
   -7.5175   22.0018  -30.8344 H   0  0  0  0  0  0  0  0  0  0  0  0
   -8.0674   22.2453  -32.5482 H   0  0  0  0  0  0  0  0  0  0  0  0
   -9.2060   20.0817  -30.9476 H   0  0  0  0  0  0  0  0  0  0  0  0
   -9.3903   17.6233  -31.3049 H   0  0  0  0  0  0  0  0  0  0  0  0
   -7.6818   16.4267  -32.6685 H   0  0  0  0  0  0  0  0  0  0  0  0
   -5.7802   17.6804  -33.6776 H   0  0  0  0  0  0  0  0  0  0  0  0
   -3.8762   18.9233  -33.1226 H   0  0  0  0  0  0  0  0  0  0  0  0
   -4.0244   19.5230  -34.8084 H   0  0  0  0  0  0  0  0  0  0  0  0
   -2.8897   20.9821  -32.3768 H   0  0  0  0  0  0  0  0  0  0  0  0
   -2.0502   20.5510  -33.9052 H   0  0  0  0  0  0  0  0  0  0  0  0
   -3.3192   21.8224  -33.9052 H   0  0  0  0  0  0  0  0  0  0  0  0
   -5.4428   21.8718  -30.2614 H   0  0  0  0  0  0  0  0  0  0  0  0
   -4.4878   21.0362  -31.5613 H   0  0  0  0  0  0  0  0  0  0  0  0
   -3.1031   22.6994  -30.4044 H   0  0  0  0  0  0  0  0  0  0  0  0
   -3.4047   23.1712  -32.1283 H   0  0  0  0  0  0  0  0  0  0  0  0
  1  2  1  0
  2  3  1  0
  3  4  1  0
  4  5  2  0
  5  6  1  0
  6  7  2  0
  7  8  1  0
  8  9  2  0
  9 10  1  0
 10 11  1  0
 11 12  1  0
 12 13  1  0
 13 14  1  0
 14 15  1  0
 15 16  1  0
 16 17  2  0
 17 18  1  0
 18 19  2  0
 19 20  1  0
 20 21  2  0
 21 22  1  0
 22 23  1  0
 23 24  1  0
 14 25  1  0
 25 26  1  0
  9  4  1  0
 26 11  1  0
 21 16  1  0
  1 27  1  0
  1 28  1  0
  1 29  1  0
  2 30  1  0
  2 31  1  0
  5 32  1  0
  6 33  1  0
  7 34  1  0
  8 35  1  0
 10 36  1  0
 10 37  1  0
 12 38  1  0
 12 39  1  0
 13 40  1  0
 13 41  1  0
 14 42  1  0
 15 43  1  0
 15 44  1  0
 17 45  1  0
 18 46  1  0
 19 47  1  0
 20 48  1  0
 23 49  1  0
 23 50  1  0
 24 51  1  0
 24 52  1  0
 24 53  1  0
 25 54  1  0
 25 55  1  0
 26 56  1  0
 26 57  1  0
M  CHG  1  14   1
M  END
>  <UniqueID>  (21) 
21

>  <SMILES>  (21) 
CCOc1ccccc1CN1CC[NH+](Cc2ccccc2OCC)CC1

>  <Energy>  (21) 
65.74601071463569

>  <Genealogy>  (21) 
CCOc1ccccc1CN1CC[NH+](Cc2ccccc2OCC)CC1 (protonated)
CCOc1ccccc1CN1CC[NH+](Cc2ccccc2OCC)CC1 (3D coordinates assigned)
CCOc1ccccc1CN1CC[NH+](Cc2ccccc2OCC)CC1 (nonaromatic ring conformer: 65.74601071463569 kcal/mol)

>  <smiles>  (21) 
CCOc1ccccc1CN1CCN(Cc2ccccc2OCC)CC1

>  <score_type>  (21) 
oracle

>  <origin>  (21) 
adg

>  <m_score__min__energy>  (21) 
-7.8700000000000001

>  <m_primary>  (21) 
energy

$$$$
21:0
     RDKit          3D

 24 23  0  0  0  0  0  0  0  0999 V2000
   -8.2270   19.5920  -32.3090 C   0  0  0  0  0  0  0  0  0  0  0  0
   -7.0570   20.5590  -32.5420 C   0  0  0  0  0  0  0  0  0  0  0  0
   -7.0270   21.7200  -31.6140 N   0  0  0  0  0  0  0  0  0  0  0  0
   -8.3610   22.0280  -31.0500 C   0  0  0  0  0  0  0  0  0  0  0  0
   -9.1030   22.9830  -31.9760 C   0  0  0  0  0  0  0  0  0  0  0  0
   -6.3470   22.9250  -32.1440 C   0  0  0  0  0  0  0  0  0  0  0  0
   -4.8800   23.0080  -31.7050 C   0  0  0  0  0  0  0  0  0  0  0  0
   -4.5990   24.3220  -31.1340 N   0  0  0  0  0  0  0  0  0  0  0  0
   -5.4200   24.9100  -30.3620 C   0  0  0  0  0  0  0  0  0  0  0  0
   -6.4610   25.6550  -29.3830 S   0  0  0  0  0  0  0  0  0  0  0  0
   -8.3851   19.4614  -31.2283 H   0  0  0  0  0  0  0  0  0  0  0  0
   -9.1392   20.0033  -32.7659 H   0  0  0  0  0  0  0  0  0  0  0  0
   -7.9948   18.6187  -32.7659 H   0  0  0  0  0  0  0  0  0  0  0  0
   -6.1181   19.9985  -32.4225 H   0  0  0  0  0  0  0  0  0  0  0  0
   -7.1850   20.9692  -33.5546 H   0  0  0  0  0  0  0  0  0  0  0  0
   -8.9379   21.0971  -30.9466 H   0  0  0  0  0  0  0  0  0  0  0  0
   -8.2390   22.4990  -30.0635 H   0  0  0  0  0  0  0  0  0  0  0  0
   -9.6684   23.7108  -31.3755 H   0  0  0  0  0  0  0  0  0  0  0  0
   -8.3790   23.5150  -32.6106 H   0  0  0  0  0  0  0  0  0  0  0  0
   -9.7974   22.4129  -32.6106 H   0  0  0  0  0  0  0  0  0  0  0  0
   -6.3861   22.8982  -33.2430 H   0  0  0  0  0  0  0  0  0  0  0  0
   -6.8676   23.8076  -31.7440 H   0  0  0  0  0  0  0  0  0  0  0  0
   -4.6823   22.2335  -30.9493 H   0  0  0  0  0  0  0  0  0  0  0  0
   -4.2334   22.8512  -32.5810 H   0  0  0  0  0  0  0  0  0  0  0  0
  1  2  1  0
  2  3  1  0
  3  4  1  0
  4  5  1  0
  3  6  1  0
  6  7  1  0
  7  8  1  0
  8  9  2  0
  9 10  2  0
  1 11  1  0
  1 12  1  0
  1 13  1  0
  2 14  1  0
  2 15  1  0
  4 16  1  0
  4 17  1  0
  5 18  1  0
  5 19  1  0
  5 20  1  0
  6 21  1  0
  6 22  1  0
  7 23  1  0
  7 24  1  0
M  END
>  <UniqueID>  (22) 
22

>  <SMILES>  (22) 
CCN(CC)CCN=C=S

>  <Energy>  (22) 
19.05744455485042

>  <Genealogy>  (22) 
CCN(CC)CCN=C=S (3D coordinates assigned)
CCN(CC)CCN=C=S (optimized conformer: 19.05744455485042 kcal/mol)

>  <smiles>  (22) 
CCN(CC)CCN=C=S

>  <score_type>  (22) 
oracle

>  <origin>  (22) 
adg

>  <m_score__min__energy>  (22) 
-4.0599999999999996

>  <m_primary>  (22) 
energy

$$$$
22:0
     RDKit          3D

 30 32  0  0  0  0  0  0  0  0999 V2000
   -1.4490   24.9940  -29.3300 O   0  0  0  0  0  0  0  0  0  0  0  0
   -2.5100   24.3520  -29.5530 C   0  0  0  0  0  0  0  0  0  0  0  0
   -3.5450   24.9220  -30.3630 N   0  0  0  0  0  0  0  0  0  0  0  0
   -4.8200   24.3350  -30.6630 C   0  0  0  0  0  0  0  0  0  0  0  0
   -4.8630   23.2220  -31.5130 C   0  0  0  0  0  0  0  0  0  0  0  0
   -6.0830   22.6080  -31.8150 C   0  0  0  0  0  0  0  0  0  0  0  0
   -7.2680   23.0910  -31.2550 C   0  0  0  0  0  0  0  0  0  0  0  0
   -8.7970   22.3180  -31.6300 Cl  0  0  0  0  0  0  0  0  0  0  0  0
   -7.2320   24.1860  -30.3840 C   0  0  0  0  0  0  0  0  0  0  0  0
   -6.0140   24.8030  -30.0820 C   0  0  0  0  0  0  0  0  0  0  0  0
   -2.6950   23.0030  -28.9930 C   0  0  0  0  0  0  0  0  0  0  0  0
   -3.3660   22.7030  -27.4790 S   0  0  0  0  0  0  0  0  0  0  0  0
   -3.1190   21.0420  -27.4690 C   0  0  0  0  0  0  0  0  0  0  0  0
   -2.4990   20.6900  -28.6600 C   0  0  0  0  0  0  0  0  0  0  0  0
   -2.2690   21.7770  -29.5200 C   0  0  0  0  0  0  0  0  0  0  0  0
   -1.7050   21.6040  -30.8290 N   0  0  0  0  0  0  0  0  0  0  0  0
   -2.3860   21.4480  -31.9820 C   0  0  0  0  0  0  0  0  0  0  0  0
   -1.5030   21.2120  -33.0160 C   0  0  0  0  0  0  0  0  0  0  0  0
   -0.2370   21.2090  -32.4620 C   0  0  0  0  0  0  0  0  0  0  0  0
   -0.3980   21.4410  -31.1120 C   0  0  0  0  0  0  0  0  0  0  0  0
   -3.9313   22.8285  -31.9456 H   0  0  0  0  0  0  0  0  0  0  0  0
   -6.1093   21.7434  -32.4946 H   0  0  0  0  0  0  0  0  0  0  0  0
   -8.1637   24.5620  -29.9361 H   0  0  0  0  0  0  0  0  0  0  0  0
   -5.9887   25.6565  -29.3885 H   0  0  0  0  0  0  0  0  0  0  0  0
   -3.3998   20.3526  -26.6592 H   0  0  0  0  0  0  0  0  0  0  0  0
   -2.2144   19.6567  -28.9074 H   0  0  0  0  0  0  0  0  0  0  0  0
   -3.4801   21.5008  -32.0833 H   0  0  0  0  0  0  0  0  0  0  0  0
   -1.7574   21.0566  -34.0748 H   0  0  0  0  0  0  0  0  0  0  0  0
    0.7132   21.0523  -32.9936 H   0  0  0  0  0  0  0  0  0  0  0  0
    0.4186   21.4862  -30.3764 H   0  0  0  0  0  0  0  0  0  0  0  0
  1  2  2  0
  2  3  1  0
  3  4  1  0
  4  5  2  0
  5  6  1  0
  6  7  2  0
  7  8  1  0
  7  9  1  0
  9 10  2  0
  2 11  1  0
 11 12  1  0
 12 13  1  0
 13 14  2  0
 14 15  1  0
 15 16  1  0
 16 17  1  0
 17 18  2  0
 18 19  1  0
 19 20  2  0
 10  4  1  0
 15 11  2  0
 20 16  1  0
  5 21  1  0
  6 22  1  0
  9 23  1  0
 10 24  1  0
 13 25  1  0
 14 26  1  0
 17 27  1  0
 18 28  1  0
 19 29  1  0
 20 30  1  0
M  CHG  1   3  -1
M  END
>  <UniqueID>  (23) 
23

>  <SMILES>  (23) 
O=C([N-]c1ccc(Cl)cc1)c1sccc1-n1cccc1

>  <Energy>  (23) 
93.34067315009122

>  <Genealogy>  (23) 
O=C([N-]c1ccc(Cl)cc1)c1sccc1-n1cccc1 (protonated)
O=C([N-]c1ccc(Cl)cc1)c1sccc1-n1cccc1 (3D coordinates assigned)
O=C([N-]c1ccc(Cl)cc1)c1sccc1-n1cccc1 (optimized conformer: 93.34067315009122 kcal/mol)

>  <smiles>  (23) 
O=C(Nc1ccc(Cl)cc1)c1sccc1-n1cccc1

>  <score_type>  (23) 
oracle

>  <origin>  (23) 
adg

>  <m_score__min__energy>  (23) 
-8.5099999999999998

>  <m_primary>  (23) 
energy

$$$$
23:0
     RDKit          3D

 67 69  0  0  0  0  0  0  0  0999 V2000
    0.9010   27.5760  -23.0640 C   0  0  0  0  0  0  0  0  0  0  0  0
   -0.2290   26.5980  -23.4020 C   0  0  0  0  0  0  0  0  0  0  0  0
   -1.1330   27.1070  -24.4660 N   0  0  0  0  0  0  0  0  0  0  0  0
   -0.3600   28.0000  -25.3690 C   0  0  0  0  0  0  0  0  0  0  0  0
   -0.8500   29.4520  -25.3190 C   0  0  0  0  0  0  0  0  0  0  0  0
   -1.7660   25.9870  -25.2310 C   0  0  0  0  0  0  0  0  0  0  0  0
   -0.8770   24.7290  -25.3040 C   0  0  0  0  0  0  0  0  0  0  0  0
   -1.3630   23.7390  -26.3330 C   0  0  0  0  0  0  0  0  0  0  0  0
   -2.4390   24.0600  -27.1740 C   0  0  0  0  0  0  0  0  0  0  0  0
   -2.9000   23.1390  -28.1300 C   0  0  0  0  0  0  0  0  0  0  0  0
   -4.0240   23.5130  -29.0640 C   0  0  0  0  0  0  0  0  0  0  0  0
   -3.5420   24.2830  -30.3010 C   0  0  0  0  0  0  0  0  0  0  0  0
   -4.5040   25.3250  -30.7020 N   0  0  0  0  0  0  0  0  0  0  0  0
   -5.8690   24.7890  -30.8320 C   0  0  0  0  0  0  0  0  0  0  0  0
   -6.1210   24.1460  -32.2050 C   0  0  0  0  0  0  0  0  0  0  0  0
   -6.7560   22.7770  -32.0880 C   0  0  0  0  0  0  0  0  0  0  0  0
   -8.1310   22.6920  -31.8010 C   0  0  0  0  0  0  0  0  0  0  0  0
   -8.7570   21.4510  -31.6680 C   0  0  0  0  0  0  0  0  0  0  0  0
   -8.0200   20.2760  -31.8230 C   0  0  0  0  0  0  0  0  0  0  0  0
   -8.8020   18.7180  -31.6350 Cl  0  0  0  0  0  0  0  0  0  0  0  0
   -6.6590   20.3420  -32.1350 C   0  0  0  0  0  0  0  0  0  0  0  0
   -6.0210   21.5820  -32.2730 C   0  0  0  0  0  0  0  0  0  0  0  0
   -4.3210   21.5830  -32.7250 Cl  0  0  0  0  0  0  0  0  0  0  0  0
   -2.2780   21.8840  -28.2340 C   0  0  0  0  0  0  0  0  0  0  0  0
   -1.1900   21.5620  -27.4090 C   0  0  0  0  0  0  0  0  0  0  0  0
   -0.5180   20.2550  -27.5400 C   0  0  0  0  0  0  0  0  0  0  0  0
    0.7610   20.1980  -28.1150 C   0  0  0  0  0  0  0  0  0  0  0  0
    1.4160   18.9730  -28.2600 C   0  0  0  0  0  0  0  0  0  0  0  0
    0.8000   17.7950  -27.8340 C   0  0  0  0  0  0  0  0  0  0  0  0
   -0.4730   17.8400  -27.2610 C   0  0  0  0  0  0  0  0  0  0  0  0
   -1.1390   19.0630  -27.1120 C   0  0  0  0  0  0  0  0  0  0  0  0
   -2.7290   19.0710  -26.3560 Cl  0  0  0  0  0  0  0  0  0  0  0  0
   -0.7410   22.4870  -26.4580 C   0  0  0  0  0  0  0  0  0  0  0  0
    0.9984   27.6603  -21.9716 H   0  0  0  0  0  0  0  0  0  0  0  0
    1.8457   27.2058  -23.4889 H   0  0  0  0  0  0  0  0  0  0  0  0
    0.6701   28.5640  -23.4889 H   0  0  0  0  0  0  0  0  0  0  0  0
    0.2158   25.6512  -23.7422 H   0  0  0  0  0  0  0  0  0  0  0  0
   -0.8323   26.4622  -22.4923 H   0  0  0  0  0  0  0  0  0  0  0  0
   -1.8570   27.6970  -23.9930 H   0  0  0  0  0  0  0  0  0  0  0  0
    0.6981   27.9742  -25.0695 H   0  0  0  0  0  0  0  0  0  0  0  0
   -0.4981   27.6358  -26.3977 H   0  0  0  0  0  0  0  0  0  0  0  0
   -0.9564   29.7672  -24.2705 H   0  0  0  0  0  0  0  0  0  0  0  0
   -0.1216   30.1024  -25.8253 H   0  0  0  0  0  0  0  0  0  0  0  0
   -1.8236   29.5281  -25.8253 H   0  0  0  0  0  0  0  0  0  0  0  0
   -2.7133   25.7188  -24.7403 H   0  0  0  0  0  0  0  0  0  0  0  0
   -1.9225   26.3395  -26.2612 H   0  0  0  0  0  0  0  0  0  0  0  0
    0.1470   25.0350  -25.5645 H   0  0  0  0  0  0  0  0  0  0  0  0
   -0.9133   24.2358  -24.3214 H   0  0  0  0  0  0  0  0  0  0  0  0
   -2.9265   25.0420  -27.0842 H   0  0  0  0  0  0  0  0  0  0  0  0
   -4.5247   22.5919  -29.3971 H   0  0  0  0  0  0  0  0  0  0  0  0
   -4.7074   24.1733  -28.5100 H   0  0  0  0  0  0  0  0  0  0  0  0
   -2.5766   24.7579  -30.0718 H   0  0  0  0  0  0  0  0  0  0  0  0
   -3.4421   23.5696  -31.1323 H   0  0  0  0  0  0  0  0  0  0  0  0
   -4.2290   25.6680  -31.6530 H   0  0  0  0  0  0  0  0  0  0  0  0
   -6.0251   24.0287  -30.0525 H   0  0  0  0  0  0  0  0  0  0  0  0
   -6.5698   25.6298  -30.7232 H   0  0  0  0  0  0  0  0  0  0  0  0
   -6.7907   24.7987  -32.7842 H   0  0  0  0  0  0  0  0  0  0  0  0
   -5.1485   24.0253  -32.7047 H   0  0  0  0  0  0  0  0  0  0  0  0
   -8.7193   23.6136  -31.6801 H   0  0  0  0  0  0  0  0  0  0  0  0
   -9.8321   21.3994  -31.4408 H   0  0  0  0  0  0  0  0  0  0  0  0
   -6.0848   19.4140  -32.2732 H   0  0  0  0  0  0  0  0  0  0  0  0
   -2.6458   21.1499  -28.9660 H   0  0  0  0  0  0  0  0  0  0  0  0
    1.2503   21.1233  -28.4533 H   0  0  0  0  0  0  0  0  0  0  0  0
    2.4188   18.9364  -28.7106 H   0  0  0  0  0  0  0  0  0  0  0  0
    1.3172   16.8311  -27.9496 H   0  0  0  0  0  0  0  0  0  0  0  0
   -0.9550   16.9100  -26.9250 H   0  0  0  0  0  0  0  0  0  0  0  0
    0.1055   22.2303  -25.8041 H   0  0  0  0  0  0  0  0  0  0  0  0
  1  2  1  0
  2  3  1  0
  3  4  1  0
  4  5  1  0
  3  6  1  0
  6  7  1  0
  7  8  1  0
  8  9  2  0
  9 10  1  0
 10 11  1  0
 11 12  1  0
 12 13  1  0
 13 14  1  0
 14 15  1  0
 15 16  1  0
 16 17  2  0
 17 18  1  0
 18 19  2  0
 19 20  1  0
 19 21  1  0
 21 22  2  0
 22 23  1  0
 10 24  2  0
 24 25  1  0
 25 26  1  0
 26 27  2  0
 27 28  1  0
 28 29  2  0
 29 30  1  0
 30 31  2  0
 31 32  1  0
 25 33  2  0
 33  8  1  0
 22 16  1  0
 31 26  1  0
  1 34  1  0
  1 35  1  0
  1 36  1  0
  2 37  1  0
  2 38  1  0
  3 39  1  0
  4 40  1  0
  4 41  1  0
  5 42  1  0
  5 43  1  0
  5 44  1  0
  6 45  1  0
  6 46  1  0
  7 47  1  0
  7 48  1  0
  9 49  1  0
 11 50  1  0
 11 51  1  0
 12 52  1  0
 12 53  1  0
 13 54  1  0
 14 55  1  0
 14 56  1  0
 15 57  1  0
 15 58  1  0
 17 59  1  0
 18 60  1  0
 21 61  1  0
 24 62  1  0
 27 63  1  0
 28 64  1  0
 29 65  1  0
 30 66  1  0
 33 67  1  0
M  CHG  1   3   1
M  END
>  <UniqueID>  (24) 
24

>  <SMILES>  (24) 
CC[NH+](CC)CCc1cc(CCNCCc2ccc(Cl)cc2Cl)cc(-c2ccccc2Cl)c1

>  <Energy>  (24) 
67.57398792975305

>  <Genealogy>  (24) 
CC[NH+](CC)CCc1cc(CCNCCc2ccc(Cl)cc2Cl)cc(-c2ccccc2Cl)c1 (protonated)
CC[NH+](CC)CCc1cc(CCNCCc2ccc(Cl)cc2Cl)cc(-c2ccccc2Cl)c1 (3D coordinates assigned)
CC[NH+](CC)CCc1cc(CCNCCc2ccc(Cl)cc2Cl)cc(-c2ccccc2Cl)c1 (optimized conformer: 67.57398792975305 kcal/mol)

>  <smiles>  (24) 
CCN(CC)CCc1cc(CCNCCc2ccc(Cl)cc2Cl)cc(-c2ccccc2Cl)c1

>  <score_type>  (24) 
oracle

>  <origin>  (24) 
adg

>  <m_score__min__energy>  (24) 
-11.41

>  <m_primary>  (24) 
energy

$$$$
24:0
     RDKit          3D

 69 70  0  0  0  0  0  0  0  0999 V2000
   -2.4160   20.0500  -27.2930 C   0  0  0  0  0  0  0  0  0  0  0  0
   -1.5740   21.3130  -27.1480 C   0  0  0  0  0  0  0  0  0  0  0  0
   -1.2090   21.8390  -28.4260 O   0  0  0  0  0  0  0  0  0  0  0  0
   -2.0920   22.2290  -29.4500 C   0  0  0  0  0  0  0  0  0  0  0  0
   -2.4890   21.3270  -30.4590 C   0  0  0  0  0  0  0  0  0  0  0  0
   -3.3180   21.7360  -31.5140 C   0  0  0  0  0  0  0  0  0  0  0  0
   -3.6590   20.8030  -32.6160 C   0  0  0  0  0  0  0  0  0  0  0  0
   -4.7220   20.9750  -33.2720 O   0  0  0  0  0  0  0  0  0  0  0  0
   -2.7790   19.7190  -32.9590 N   0  0  0  0  0  0  0  0  0  0  0  0
   -3.1440   18.7210  -33.9650 C   0  0  0  0  0  0  0  0  0  0  0  0
   -3.1260   17.3130  -33.3610 C   0  0  0  0  0  0  0  0  0  0  0  0
   -4.4890   16.7360  -33.3790 N   0  0  0  0  0  0  0  0  0  0  0  0
   -5.0570   16.5870  -32.0120 C   0  0  0  0  0  0  0  0  0  0  0  0
   -6.1490   17.6210  -31.7090 C   0  0  0  0  0  0  0  0  0  0  0  0
   -7.3520   17.4490  -32.6780 C   0  0  0  0  0  0  0  0  0  0  0  0
   -8.2620   18.6370  -32.7090 N   0  0  0  0  0  0  0  0  0  0  0  0
   -9.0940   18.7330  -31.4860 C   0  0  0  0  0  0  0  0  0  0  0  0
   -7.6040   19.9440  -32.9810 C   0  0  0  0  0  0  0  0  0  0  0  0
   -7.9090   21.0400  -31.9410 C   0  0  0  0  0  0  0  0  0  0  0  0
   -6.8410   17.1020  -34.1110 C   0  0  0  0  0  0  0  0  0  0  0  0
   -5.3660   17.4700  -34.3180 C   0  0  0  0  0  0  0  0  0  0  0  0
   -3.8140   23.0440  -31.5200 C   0  0  0  0  0  0  0  0  0  0  0  0
   -3.4620   23.9500  -30.5050 C   0  0  0  0  0  0  0  0  0  0  0  0
   -3.9590   25.2620  -30.4780 O   0  0  0  0  0  0  0  0  0  0  0  0
   -5.3430   25.6090  -30.4780 C   0  0  0  0  0  0  0  0  0  0  0  0
   -6.1400   24.5030  -29.8090 C   0  0  0  0  0  0  0  0  0  0  0  0
   -2.5970   23.5530  -29.4740 C   0  0  0  0  0  0  0  0  0  0  0  0
   -2.2910   24.5240  -28.5010 O   0  0  0  0  0  0  0  0  0  0  0  0
   -2.7240   24.5300  -27.1400 C   0  0  0  0  0  0  0  0  0  0  0  0
   -4.2100   24.2190  -27.0860 C   0  0  0  0  0  0  0  0  0  0  0  0
   -2.6732   19.6642  -26.2955 H   0  0  0  0  0  0  0  0  0  0  0  0
   -3.3384   20.2855  -27.8441 H   0  0  0  0  0  0  0  0  0  0  0  0
   -1.8438   19.2891  -27.8441 H   0  0  0  0  0  0  0  0  0  0  0  0
   -2.1541   22.0704  -26.6004 H   0  0  0  0  0  0  0  0  0  0  0  0
   -0.6548   21.0585  -26.6000 H   0  0  0  0  0  0  0  0  0  0  0  0
   -2.1422   20.2839  -30.4178 H   0  0  0  0  0  0  0  0  0  0  0  0
   -1.8220   19.6810  -32.5260 H   0  0  0  0  0  0  0  0  0  0  0  0
   -4.1543   18.9399  -34.3411 H   0  0  0  0  0  0  0  0  0  0  0  0
   -2.4139   18.7631  -34.7867 H   0  0  0  0  0  0  0  0  0  0  0  0
   -2.4519   16.6730  -33.9493 H   0  0  0  0  0  0  0  0  0  0  0  0
   -2.7726   17.3712  -32.3209 H   0  0  0  0  0  0  0  0  0  0  0  0
   -5.4900   15.5801  -31.9186 H   0  0  0  0  0  0  0  0  0  0  0  0
   -4.2397   16.7464  -31.2933 H   0  0  0  0  0  0  0  0  0  0  0  0
   -6.4967   17.4864  -30.6741 H   0  0  0  0  0  0  0  0  0  0  0  0
   -5.7287   18.6288  -31.8421 H   0  0  0  0  0  0  0  0  0  0  0  0
   -7.9558   16.6146  -32.2919 H   0  0  0  0  0  0  0  0  0  0  0  0
   -8.4498   18.6587  -30.5975 H   0  0  0  0  0  0  0  0  0  0  0  0
   -9.6219   19.6980  -31.4765 H   0  0  0  0  0  0  0  0  0  0  0  0
   -9.8278   17.9136  -31.4765 H   0  0  0  0  0  0  0  0  0  0  0  0
   -6.5160   19.7834  -33.0023 H   0  0  0  0  0  0  0  0  0  0  0  0
   -8.0039   20.3026  -33.9409 H   0  0  0  0  0  0  0  0  0  0  0  0
   -7.7940   20.6266  -30.9282 H   0  0  0  0  0  0  0  0  0  0  0  0
   -7.2101   21.8786  -32.0763 H   0  0  0  0  0  0  0  0  0  0  0  0
   -8.9406   21.3970  -32.0763 H   0  0  0  0  0  0  0  0  0  0  0  0
   -6.9605   16.0209  -34.2752 H   0  0  0  0  0  0  0  0  0  0  0  0
   -7.4341   17.6898  -34.8270 H   0  0  0  0  0  0  0  0  0  0  0  0
   -5.0759   17.2190  -35.3490 H   0  0  0  0  0  0  0  0  0  0  0  0
   -5.2487   18.5475  -34.1305 H   0  0  0  0  0  0  0  0  0  0  0  0
   -4.4869   23.3669  -32.3280 H   0  0  0  0  0  0  0  0  0  0  0  0
   -5.4856   26.5497  -29.9259 H   0  0  0  0  0  0  0  0  0  0  0  0
   -5.6899   25.7369  -31.5140 H   0  0  0  0  0  0  0  0  0  0  0  0
   -6.0653   24.6066  -28.7164 H   0  0  0  0  0  0  0  0  0  0  0  0
   -7.1947   24.5757  -30.1130 H   0  0  0  0  0  0  0  0  0  0  0  0
   -5.7373   23.5255  -30.1130 H   0  0  0  0  0  0  0  0  0  0  0  0
   -2.1681   23.7681  -26.5739 H   0  0  0  0  0  0  0  0  0  0  0  0
   -2.5378   25.5198  -26.6978 H   0  0  0  0  0  0  0  0  0  0  0  0
   -4.5326   24.1515  -26.0365 H   0  0  0  0  0  0  0  0  0  0  0  0
   -4.7707   25.0193  -27.5912 H   0  0  0  0  0  0  0  0  0  0  0  0
   -4.4027   23.2611  -27.5912 H   0  0  0  0  0  0  0  0  0  0  0  0
  1  2  1  0
  2  3  1  0
  3  4  1  0
  4  5  2  0
  5  6  1  0
  6  7  1  0
  7  8  2  0
  7  9  1  0
  9 10  1  0
 10 11  1  0
 11 12  1  0
 12 13  1  0
 13 14  1  0
 14 15  1  0
 15 16  1  0
 16 17  1  0
 16 18  1  0
 18 19  1  0
 15 20  1  0
 20 21  1  0
  6 22  2  0
 22 23  1  0
 23 24  1  0
 24 25  1  0
 25 26  1  0
 23 27  2  0
 27 28  1  0
 28 29  1  0
 29 30  1  0
 27  4  1  0
 21 12  1  0
  1 31  1  0
  1 32  1  0
  1 33  1  0
  2 34  1  0
  2 35  1  0
  5 36  1  0
  9 37  1  0
 10 38  1  0
 10 39  1  0
 11 40  1  0
 11 41  1  0
 13 42  1  0
 13 43  1  0
 14 44  1  0
 14 45  1  0
 15 46  1  0
 17 47  1  0
 17 48  1  0
 17 49  1  0
 18 50  1  0
 18 51  1  0
 19 52  1  0
 19 53  1  0
 19 54  1  0
 20 55  1  0
 20 56  1  0
 21 57  1  0
 21 58  1  0
 22 59  1  0
 25 60  1  0
 25 61  1  0
 26 62  1  0
 26 63  1  0
 26 64  1  0
 29 65  1  0
 29 66  1  0
 30 67  1  0
 30 68  1  0
 30 69  1  0
M  END
>  <UniqueID>  (25) 
25

>  <SMILES>  (25) 
CCOc1cc(C(=O)NCCN2CCC(N(C)CC)CC2)cc(OCC)c1OCC

>  <Energy>  (25) 
80.59291074309428

>  <Genealogy>  (25) 
CCOc1cc(C(=O)NCCN2CCC(N(C)CC)CC2)cc(OCC)c1OCC (3D coordinates assigned)
CCOc1cc(C(=O)NCCN2CCC(N(C)CC)CC2)cc(OCC)c1OCC (nonaromatic ring conformer: 80.59291074309428 kcal/mol)

>  <smiles>  (25) 
CCOc1cc(C(=O)NCCN2CCC(N(C)CC)CC2)cc(OCC)c1OCC

>  <score_type>  (25) 
oracle

>  <origin>  (25) 
adg

>  <m_score__min__energy>  (25) 
-8.5099999999999998

>  <m_primary>  (25) 
energy

$$$$
25:0
     RDKit          3D

 53 55  0  0  0  0  0  0  0  0999 V2000
    0.3040   21.7190  -35.2870 C   0  0  0  0  0  0  0  0  0  0  0  0
   -0.1220   20.7890  -34.1520 C   0  0  0  0  0  0  0  0  0  0  0  0
   -1.5420   20.1680  -34.3030 C   0  0  0  0  0  0  0  0  0  0  0  0
   -1.9660   19.1000  -33.3210 N   0  0  2  0  0  0  0  0  0  0  0  0
   -0.8050   18.5750  -32.5510 C   0  0  0  0  0  0  0  0  0  0  0  0
   -2.6160   17.9890  -34.1040 C   0  0  0  0  0  0  0  0  0  0  0  0
   -4.1110   18.1820  -34.4360 C   0  0  0  0  0  0  0  0  0  0  0  0
   -3.0150   19.6850  -32.4000 C   0  0  0  0  0  0  0  0  0  0  0  0
   -3.0960   21.2360  -32.2720 C   0  0  0  0  0  0  0  0  0  0  0  0
   -4.2280   21.8940  -33.0930 C   0  0  0  0  0  0  0  0  0  0  0  0
   -5.4300   22.1480  -32.2770 N   0  0  0  0  0  0  0  0  0  0  0  0
   -5.5020   23.3020  -31.3910 C   0  0  0  0  0  0  0  0  0  0  0  0
   -4.3500   23.8650  -30.8010 C   0  0  0  0  0  0  0  0  0  0  0  0
   -4.4620   24.8490  -29.8150 C   0  0  0  0  0  0  0  0  0  0  0  0
   -5.7180   25.2980  -29.4080 C   0  0  0  0  0  0  0  0  0  0  0  0
   -6.8660   24.7970  -30.0210 C   0  0  0  0  0  0  0  0  0  0  0  0
   -6.7590   23.8310  -31.0270 C   0  0  0  0  0  0  0  0  0  0  0  0
   -8.2080   23.4180  -31.9870 S   0  0  0  0  0  0  0  0  0  0  0  0
   -7.8480   21.6690  -31.9800 C   0  0  0  0  0  0  0  0  0  0  0  0
   -8.8970   20.7610  -31.8050 C   0  0  0  0  0  0  0  0  0  0  0  0
   -8.6900   19.3990  -32.0200 C   0  0  0  0  0  0  0  0  0  0  0  0
   -7.4370   18.9440  -32.4350 C   0  0  0  0  0  0  0  0  0  0  0  0
   -7.1900   17.2370  -32.7550 Cl  0  0  0  0  0  0  0  0  0  0  0  0
   -6.3760   19.8450  -32.5870 C   0  0  0  0  0  0  0  0  0  0  0  0
   -6.5530   21.2200  -32.3110 C   0  0  0  0  0  0  0  0  0  0  0  0
    0.7271   22.6426  -34.8651 H   0  0  0  0  0  0  0  0  0  0  0  0
    1.0624   21.2179  -35.9065 H   0  0  0  0  0  0  0  0  0  0  0  0
   -0.5707   21.9660  -35.9065 H   0  0  0  0  0  0  0  0  0  0  0  0
    0.6054   19.9658  -34.0951 H   0  0  0  0  0  0  0  0  0  0  0  0
   -0.1545   21.4093  -33.2442 H   0  0  0  0  0  0  0  0  0  0  0  0
   -2.2674   20.9909  -34.2223 H   0  0  0  0  0  0  0  0  0  0  0  0
   -1.5088   19.6478  -35.2717 H   0  0  0  0  0  0  0  0  0  0  0  0
   -1.0078   18.6667  -31.4738 H   0  0  0  0  0  0  0  0  0  0  0  0
   -0.6447   17.5168  -32.8052 H   0  0  0  0  0  0  0  0  0  0  0  0
    0.0954   19.1536  -32.8052 H   0  0  0  0  0  0  0  0  0  0  0  0
   -2.0711   17.8827  -35.0536 H   0  0  0  0  0  0  0  0  0  0  0  0
   -2.5676   17.1012  -33.4563 H   0  0  0  0  0  0  0  0  0  0  0  0
   -4.6874   18.2564  -33.5020 H   0  0  0  0  0  0  0  0  0  0  0  0
   -4.2405   19.1043  -35.0213 H   0  0  0  0  0  0  0  0  0  0  0  0
   -4.4705   17.3228  -35.0213 H   0  0  0  0  0  0  0  0  0  0  0  0
   -3.9949   19.3350  -32.7568 H   0  0  0  0  0  0  0  0  0  0  0  0
   -2.7206   19.3424  -31.3970 H   0  0  0  0  0  0  0  0  0  0  0  0
   -3.2527   21.4845  -31.2120 H   0  0  0  0  0  0  0  0  0  0  0  0
   -2.1512   21.6305  -32.6742 H   0  0  0  0  0  0  0  0  0  0  0  0
   -3.8640   22.8508  -33.4956 H   0  0  0  0  0  0  0  0  0  0  0  0
   -4.5072   21.2013  -33.9006 H   0  0  0  0  0  0  0  0  0  0  0  0
   -3.3536   23.5257  -31.1206 H   0  0  0  0  0  0  0  0  0  0  0  0
   -3.5551   25.2714  -29.3577 H   0  0  0  0  0  0  0  0  0  0  0  0
   -5.8029   26.0455  -28.6055 H   0  0  0  0  0  0  0  0  0  0  0  0
   -7.8570   25.1619  -29.7130 H   0  0  0  0  0  0  0  0  0  0  0  0
   -9.8891   21.1226  -31.4966 H   0  0  0  0  0  0  0  0  0  0  0  0
   -9.5118   18.6848  -31.8631 H   0  0  0  0  0  0  0  0  0  0  0  0
   -5.3950   19.4792  -32.9245 H   0  0  0  0  0  0  0  0  0  0  0  0
  1  2  1  0
  2  3  1  0
  4  3  1  6
  4  5  1  0
  4  6  1  0
  6  7  1  0
  4  8  1  0
  8  9  1  0
  9 10  1  0
 10 11  1  0
 11 12  1  0
 12 13  2  0
 13 14  1  0
 14 15  2  0
 15 16  1  0
 16 17  2  0
 17 18  1  0
 18 19  1  0
 19 20  2  0
 20 21  1  0
 21 22  2  0
 22 23  1  0
 22 24  1  0
 24 25  2  0
 25 11  1  0
 17 12  1  0
 25 19  1  0
  1 26  1  0
  1 27  1  0
  1 28  1  0
  2 29  1  0
  2 30  1  0
  3 31  1  0
  3 32  1  0
  5 33  1  0
  5 34  1  0
  5 35  1  0
  6 36  1  0
  6 37  1  0
  7 38  1  0
  7 39  1  0
  7 40  1  0
  8 41  1  0
  8 42  1  0
  9 43  1  0
  9 44  1  0
 10 45  1  0
 10 46  1  0
 13 47  1  0
 14 48  1  0
 15 49  1  0
 16 50  1  0
 20 51  1  0
 21 52  1  0
 24 53  1  0
M  CHG  1   4   1
M  END
>  <UniqueID>  (26) 
26

>  <SMILES>  (26) 
CCC[N@+](C)(CC)CCCN1c2ccccc2Sc2ccc(Cl)cc21

>  <Energy>  (26) 
96.47290177779522

>  <Genealogy>  (26) 
CCC[N@+](C)(CC)CCCN1c2ccccc2Sc2ccc(Cl)cc21 (chirality)
CCC[N@+](C)(CC)CCCN1c2ccccc2Sc2ccc(Cl)cc21 (3D coordinates assigned)
CCC[N@+](C)(CC)CCCN1c2ccccc2Sc2ccc(Cl)cc21 (nonaromatic ring conformer: 96.47290177779522 kcal/mol)

>  <smiles>  (26) 
CCC[N+](C)(CC)CCCN1c2ccccc2Sc2ccc(Cl)cc21

>  <score_type>  (26) 
oracle

>  <origin>  (26) 
adg

>  <m_score__min__energy>  (26) 
-7.8099999999999996

>  <m_primary>  (26) 
energy

$$$$
26:0
     RDKit          3D

 67 69  0  0  0  0  0  0  0  0999 V2000
   -2.7020   19.7050  -27.3720 C   0  0  0  0  0  0  0  0  0  0  0  0
   -1.6250   20.5260  -28.0740 C   0  0  0  0  0  0  0  0  0  0  0  0
   -1.8760   20.5530  -29.5190 N   0  0  0  0  0  0  0  0  0  0  0  0
   -0.9770   19.6310  -30.2270 C   0  0  0  0  0  0  0  0  0  0  0  0
   -0.4170   20.2970  -31.4850 C   0  0  0  0  0  0  0  0  0  0  0  0
   -1.0960   21.5190  -31.7350 O   0  0  0  0  0  0  0  0  0  0  0  0
   -1.7310   21.4960  -32.9980 C   0  0  0  0  0  0  0  0  0  0  0  0
   -3.2520   21.5290  -32.7930 C   0  0  0  0  0  0  0  0  0  0  0  0
   -3.6220   21.3470  -31.3730 N   0  0  0  0  0  0  0  0  0  0  0  0
   -5.0390   21.6020  -31.1370 C   0  0  0  0  0  0  0  0  0  0  0  0
   -6.0150   20.6850  -31.5930 C   0  0  0  0  0  0  0  0  0  0  0  0
   -5.7010   19.3260  -31.8240 C   0  0  0  0  0  0  0  0  0  0  0  0
   -6.6760   18.4330  -32.2650 C   0  0  0  0  0  0  0  0  0  0  0  0
   -7.9800   18.8690  -32.4660 C   0  0  0  0  0  0  0  0  0  0  0  0
   -8.3130   20.2060  -32.2500 C   0  0  0  0  0  0  0  0  0  0  0  0
   -7.3340   21.1450  -31.8350 C   0  0  0  0  0  0  0  0  0  0  0  0
   -7.6310   22.4820  -31.6800 N   0  0  0  0  0  0  0  0  0  0  0  0
   -8.8560   23.0400  -32.2930 C   0  0  0  0  0  0  0  0  0  0  0  0
   -6.7940   23.2830  -30.9270 C   0  0  0  0  0  0  0  0  0  0  0  0
   -7.2120   24.5580  -30.4770 C   0  0  0  0  0  0  0  0  0  0  0  0
   -6.3930   25.3380  -29.6770 C   0  0  0  0  0  0  0  0  0  0  0  0
   -5.1770   24.8480  -29.2310 C   0  0  0  0  0  0  0  0  0  0  0  0
   -4.7250   23.5780  -29.6210 C   0  0  0  0  0  0  0  0  0  0  0  0
   -3.6100   22.9870  -28.9190 N   0  0  0  0  0  0  0  0  0  0  0  0
   -3.4050   23.0270  -27.4670 C   0  0  0  0  0  0  0  0  0  0  0  0
   -2.1380   23.8050  -27.0780 C   0  0  0  0  0  0  0  0  0  0  0  0
   -1.7160   24.8370  -28.1330 C   0  0  0  0  0  0  0  0  0  0  0  0
   -0.6720   24.2510  -29.0930 C   0  0  0  0  0  0  0  0  0  0  0  0
   -1.2400   23.1740  -29.9010 N   0  0  0  0  0  0  0  0  0  0  0  0
   -5.4950   22.8210  -30.5610 C   0  0  0  0  0  0  0  0  0  0  0  0
   -2.5813   19.7970  -26.2825 H   0  0  0  0  0  0  0  0  0  0  0  0
   -3.6952   20.0772  -27.6636 H   0  0  0  0  0  0  0  0  0  0  0  0
   -2.6062   18.6487  -27.6636 H   0  0  0  0  0  0  0  0  0  0  0  0
   -1.6380   21.5540  -27.6829 H   0  0  0  0  0  0  0  0  0  0  0  0
   -0.6427   20.0677  -27.8869 H   0  0  0  0  0  0  0  0  0  0  0  0
   -1.6590   21.5190  -29.8620 H   0  0  0  0  0  0  0  0  0  0  0  0
   -0.1454   19.3533  -29.5626 H   0  0  0  0  0  0  0  0  0  0  0  0
   -1.5422   18.7335  -30.5186 H   0  0  0  0  0  0  0  0  0  0  0  0
    0.6549   20.4991  -31.3430 H   0  0  0  0  0  0  0  0  0  0  0  0
   -0.5611   19.6236  -32.3428 H   0  0  0  0  0  0  0  0  0  0  0  0
   -1.4187   22.3730  -33.5839 H   0  0  0  0  0  0  0  0  0  0  0  0
   -1.4486   20.5811  -33.5395 H   0  0  0  0  0  0  0  0  0  0  0  0
   -3.6363   22.4999  -33.1388 H   0  0  0  0  0  0  0  0  0  0  0  0
   -3.6911   20.7005  -33.3682 H   0  0  0  0  0  0  0  0  0  0  0  0
   -3.0070   21.9860  -30.8340 H   0  0  0  0  0  0  0  0  0  0  0  0
   -3.3810   20.3790  -31.0590 H   0  0  0  0  0  0  0  0  0  0  0  0
   -4.6746   18.9690  -31.6536 H   0  0  0  0  0  0  0  0  0  0  0  0
   -6.4129   17.3818  -32.4542 H   0  0  0  0  0  0  0  0  0  0  0  0
   -8.7515   18.1579  -32.7963 H   0  0  0  0  0  0  0  0  0  0  0  0
   -9.3505   20.5374  -32.4038 H   0  0  0  0  0  0  0  0  0  0  0  0
   -9.5508   23.3565  -31.5011 H   0  0  0  0  0  0  0  0  0  0  0  0
   -8.5918   23.9066  -32.9169 H   0  0  0  0  0  0  0  0  0  0  0  0
   -9.3364   22.2719  -32.9169 H   0  0  0  0  0  0  0  0  0  0  0  0
   -8.2035   24.9359  -30.7672 H   0  0  0  0  0  0  0  0  0  0  0  0
   -6.7105   26.3526  -29.3944 H   0  0  0  0  0  0  0  0  0  0  0  0
   -4.5569   25.4627  -28.5619 H   0  0  0  0  0  0  0  0  0  0  0  0
   -2.9070   22.4480  -29.4800 H   0  0  0  0  0  0  0  0  0  0  0  0
   -4.2751   23.5118  -27.0001 H   0  0  0  0  0  0  0  0  0  0  0  0
   -3.2853   21.9916  -27.1154 H   0  0  0  0  0  0  0  0  0  0  0  0
   -2.3273   24.3307  -26.1305 H   0  0  0  0  0  0  0  0  0  0  0  0
   -1.3200   23.0750  -26.9884 H   0  0  0  0  0  0  0  0  0  0  0  0
   -2.6013   25.1443  -28.7091 H   0  0  0  0  0  0  0  0  0  0  0  0
   -1.2707   25.7009  -27.6179 H   0  0  0  0  0  0  0  0  0  0  0  0
   -0.3114   25.0478  -29.7602 H   0  0  0  0  0  0  0  0  0  0  0  0
    0.1555   23.8388  -28.4969 H   0  0  0  0  0  0  0  0  0  0  0  0
   -1.2080   23.4510  -30.9100 H   0  0  0  0  0  0  0  0  0  0  0  0
   -0.6490   22.3170  -29.7870 H   0  0  0  0  0  0  0  0  0  0  0  0
  1  2  1  0
  2  3  1  0
  3  4  1  0
  4  5  1  0
  5  6  1  0
  6  7  1  0
  7  8  1  0
  8  9  1  0
  9 10  1  0
 10 11  2  0
 11 12  1  0
 12 13  2  0
 13 14  1  0
 14 15  2  0
 15 16  1  0
 16 17  2  0
 17 18  1  0
 17 19  1  0
 19 20  2  0
 20 21  1  0
 21 22  2  0
 22 23  1  0
 23 24  1  0
 24 25  1  0
 25 26  1  0
 26 27  1  0
 27 28  1  0
 28 29  1  0
 23 30  2  0
 30 10  1  0
 16 11  1  0
 30 19  1  0
  1 31  1  0
  1 32  1  0
  1 33  1  0
  2 34  1  0
  2 35  1  0
  3 36  1  0
  4 37  1  0
  4 38  1  0
  5 39  1  0
  5 40  1  0
  7 41  1  0
  7 42  1  0
  8 43  1  0
  8 44  1  0
  9 45  1  0
  9 46  1  0
 12 47  1  0
 13 48  1  0
 14 49  1  0
 15 50  1  0
 18 51  1  0
 18 52  1  0
 18 53  1  0
 20 54  1  0
 21 55  1  0
 22 56  1  0
 24 57  1  0
 25 58  1  0
 25 59  1  0
 26 60  1  0
 26 61  1  0
 27 62  1  0
 27 63  1  0
 28 64  1  0
 28 65  1  0
 29 66  1  0
 29 67  1  0
M  CHG  2   9   1  17   1
M  END
>  <UniqueID>  (27) 
27

>  <SMILES>  (27) 
CCNCCOCC[NH2+]c1c2ccccc2[n+](C)c2cccc(NCCCCN)c12

>  <Energy>  (27) 
94.91900540579167

>  <Genealogy>  (27) 
CCNCCOCC[NH2+]c1c2ccccc2[n+](C)c2cccc(NCCCCN)c12 (protonated)
CCNCCOCC[NH2+]c1c2ccccc2[n+](C)c2cccc(NCCCCN)c12 (3D coordinates assigned)
CCNCCOCC[NH2+]c1c2ccccc2[n+](C)c2cccc(NCCCCN)c12 (optimized conformer: 94.91900540579167 kcal/mol)

>  <smiles>  (27) 
CCNCCOCCNc1c2ccccc2[n+](C)c2cccc(NCCCCN)c12

>  <score_type>  (27) 
oracle

>  <origin>  (27) 
adg

>  <m_score__min__energy>  (27) 
-6.3899999999999997

>  <m_primary>  (27) 
energy

$$$$
27:0
     RDKit          3D

 67 69  0  0  0  0  0  0  0  0999 V2000
   -7.4360   17.8350  -31.6920 C   0  0  0  0  0  0  0  0  0  0  0  0
   -8.8620   18.4030  -31.7160 C   0  0  0  0  0  0  0  0  0  0  0  0
   -9.0750   19.4020  -32.7810 N   0  0  0  0  0  0  0  0  0  0  0  0
   -9.0970   20.8130  -32.3430 C   0  0  0  0  0  0  0  0  0  0  0  0
   -7.7480   21.3310  -31.8030 C   0  0  0  0  0  0  0  0  0  0  0  0
   -6.7790   21.5520  -32.8790 N   0  0  0  0  0  0  0  0  0  0  0  0
   -5.4240   21.0660  -32.8180 C   0  0  0  0  0  0  0  0  0  0  0  0
   -5.0800   19.8470  -33.4310 C   0  0  0  0  0  0  0  0  0  0  0  0
   -6.0340   19.1310  -34.1910 C   0  0  0  0  0  0  0  0  0  0  0  0
   -5.7090   17.9180  -34.7870 C   0  0  0  0  0  0  0  0  0  0  0  0
   -4.4380   17.3830  -34.6290 C   0  0  0  0  0  0  0  0  0  0  0  0
   -3.4790   18.0670  -33.8880 C   0  0  0  0  0  0  0  0  0  0  0  0
   -3.7680   19.3230  -33.2820 C   0  0  0  0  0  0  0  0  0  0  0  0
   -2.8200   20.0250  -32.5500 N   0  0  0  0  0  0  0  0  0  0  0  0
   -1.4210   19.5250  -32.4830 C   0  0  0  0  0  0  0  0  0  0  0  0
   -3.1730   21.1930  -31.8880 C   0  0  0  0  0  0  0  0  0  0  0  0
   -2.2960   21.8420  -30.9860 C   0  0  0  0  0  0  0  0  0  0  0  0
   -2.5760   23.1080  -30.4580 C   0  0  0  0  0  0  0  0  0  0  0  0
   -1.5720   23.6540  -29.6470 O   0  0  0  0  0  0  0  0  0  0  0  0
   -1.4740   23.7220  -28.2260 C   0  0  0  0  0  0  0  0  0  0  0  0
   -1.2730   25.1670  -27.7090 C   0  0  0  0  0  0  0  0  0  0  0  0
   -1.6080   25.4280  -26.2620 N   0  0  0  0  0  0  0  0  0  0  0  0
   -3.0660   25.2960  -25.9720 C   0  0  0  0  0  0  0  0  0  0  0  0
   -0.8470   24.4980  -25.3820 C   0  0  0  0  0  0  0  0  0  0  0  0
   -1.2000   26.8120  -25.9150 C   0  0  0  0  0  0  0  0  0  0  0  0
   -3.7760   23.7560  -30.8050 C   0  0  0  0  0  0  0  0  0  0  0  0
   -4.0290   25.0660  -30.3470 O   0  0  0  0  0  0  0  0  0  0  0  0
   -5.3230   25.6410  -30.1830 C   0  0  0  0  0  0  0  0  0  0  0  0
   -4.7050   23.0770  -31.6070 C   0  0  0  0  0  0  0  0  0  0  0  0
   -4.4440   21.7770  -32.1010 C   0  0  0  0  0  0  0  0  0  0  0  0
   -7.1105   17.7053  -30.6493 H   0  0  0  0  0  0  0  0  0  0  0  0
   -7.4202   16.8619  -32.2047 H   0  0  0  0  0  0  0  0  0  0  0  0
   -6.7555   18.5307  -32.2047 H   0  0  0  0  0  0  0  0  0  0  0  0
   -9.5661   17.5722  -31.8709 H   0  0  0  0  0  0  0  0  0  0  0  0
   -9.0260   18.9119  -30.7547 H   0  0  0  0  0  0  0  0  0  0  0  0
   -8.3410   19.2690  -33.5190 H   0  0  0  0  0  0  0  0  0  0  0  0
   -9.9890   19.2000  -33.2510 H   0  0  0  0  0  0  0  0  0  0  0  0
   -9.3863   21.4360  -33.2022 H   0  0  0  0  0  0  0  0  0  0  0  0
   -9.8137   20.8734  -31.5107 H   0  0  0  0  0  0  0  0  0  0  0  0
   -7.9171   22.2814  -31.2756 H   0  0  0  0  0  0  0  0  0  0  0  0
   -7.3367   20.5693  -31.1242 H   0  0  0  0  0  0  0  0  0  0  0  0
   -7.1040   22.0200  -33.7560 H   0  0  0  0  0  0  0  0  0  0  0  0
   -7.0479   19.5400  -34.3122 H   0  0  0  0  0  0  0  0  0  0  0  0
   -6.4603   17.3812  -35.3848 H   0  0  0  0  0  0  0  0  0  0  0  0
   -4.1882   16.4162  -35.0905 H   0  0  0  0  0  0  0  0  0  0  0  0
   -2.4773   17.6286  -33.7679 H   0  0  0  0  0  0  0  0  0  0  0  0
   -1.1201   19.4174  -31.4304 H   0  0  0  0  0  0  0  0  0  0  0  0
   -1.3563   18.5481  -32.9845 H   0  0  0  0  0  0  0  0  0  0  0  0
   -0.7518   20.2396  -32.9845 H   0  0  0  0  0  0  0  0  0  0  0  0
   -1.3652   21.3356  -30.6907 H   0  0  0  0  0  0  0  0  0  0  0  0
   -2.3994   23.3178  -27.7898 H   0  0  0  0  0  0  0  0  0  0  0  0
   -0.5927   23.1363  -27.9256 H   0  0  0  0  0  0  0  0  0  0  0  0
   -0.2149   25.4286  -27.8573 H   0  0  0  0  0  0  0  0  0  0  0  0
   -1.9857   25.7779  -28.2824 H   0  0  0  0  0  0  0  0  0  0  0  0
   -3.2235   25.2817  -24.8834 H   0  0  0  0  0  0  0  0  0  0  0  0
   -3.6055   26.1490  -26.4094 H   0  0  0  0  0  0  0  0  0  0  0  0
   -3.4436   24.3600  -26.4094 H   0  0  0  0  0  0  0  0  0  0  0  0
   -1.0477   24.7433  -24.3286 H   0  0  0  0  0  0  0  0  0  0  0  0
   -1.1607   23.4632  -25.5837 H   0  0  0  0  0  0  0  0  0  0  0  0
    0.2295   24.6007  -25.5837 H   0  0  0  0  0  0  0  0  0  0  0  0
   -1.1678   26.9214  -24.8209 H   0  0  0  0  0  0  0  0  0  0  0  0
   -0.2034   27.0163  -26.3334 H   0  0  0  0  0  0  0  0  0  0  0  0
   -1.9264   27.5242  -26.3334 H   0  0  0  0  0  0  0  0  0  0  0  0
   -5.5468   25.7405  -29.1106 H   0  0  0  0  0  0  0  0  0  0  0  0
   -5.3457   26.6339  -30.6559 H   0  0  0  0  0  0  0  0  0  0  0  0
   -6.0751   24.9924  -30.6559 H   0  0  0  0  0  0  0  0  0  0  0  0
   -5.6579   23.5661  -31.8576 H   0  0  0  0  0  0  0  0  0  0  0  0
  1  2  1  0
  2  3  1  0
  3  4  1  0
  4  5  1  0
  5  6  1  0
  6  7  1  0
  7  8  2  0
  8  9  1  0
  9 10  2  0
 10 11  1  0
 11 12  2  0
 12 13  1  0
 13 14  2  0
 14 15  1  0
 14 16  1  0
 16 17  2  0
 17 18  1  0
 18 19  1  0
 19 20  1  0
 20 21  1  0
 21 22  1  0
 22 23  1  0
 22 24  1  0
 22 25  1  0
 18 26  2  0
 26 27  1  0
 27 28  1  0
 26 29  1  0
 29 30  2  0
 30  7  1  0
 13  8  1  0
 30 16  1  0
  1 31  1  0
  1 32  1  0
  1 33  1  0
  2 34  1  0
  2 35  1  0
  3 36  1  0
  3 37  1  0
  4 38  1  0
  4 39  1  0
  5 40  1  0
  5 41  1  0
  6 42  1  0
  9 43  1  0
 10 44  1  0
 11 45  1  0
 12 46  1  0
 15 47  1  0
 15 48  1  0
 15 49  1  0
 17 50  1  0
 20 51  1  0
 20 52  1  0
 21 53  1  0
 21 54  1  0
 23 55  1  0
 23 56  1  0
 23 57  1  0
 24 58  1  0
 24 59  1  0
 24 60  1  0
 25 61  1  0
 25 62  1  0
 25 63  1  0
 28 64  1  0
 28 65  1  0
 28 66  1  0
 29 67  1  0
M  CHG  3   3   1  14   1  22   1
M  END
>  <UniqueID>  (28) 
28

>  <SMILES>  (28) 
CC[NH2+]CCNc1c2ccccc2[n+](C)c2cc(OCC[N+](C)(C)C)c(OC)cc12

>  <Energy>  (28) 
110.51458441856218

>  <Genealogy>  (28) 
CC[NH2+]CCNc1c2ccccc2[n+](C)c2cc(OCC[N+](C)(C)C)c(OC)cc12 (protonated)
CC[NH2+]CCNc1c2ccccc2[n+](C)c2cc(OCC[N+](C)(C)C)c(OC)cc12 (3D coordinates assigned)
CC[NH2+]CCNc1c2ccccc2[n+](C)c2cc(OCC[N+](C)(C)C)c(OC)cc12 (optimized conformer: 110.51458441856218 kcal/mol)

>  <smiles>  (28) 
CCNCCNc1c2ccccc2[n+](C)c2cc(OCC[N+](C)(C)C)c(OC)cc12

>  <score_type>  (28) 
oracle

>  <origin>  (28) 
adg

>  <m_score__min__energy>  (28) 
-6.9100000000000001

>  <m_primary>  (28) 
energy

$$$$
