0:0
     RDKit          3D

 49 49  0  0  0  0  0  0  0  0999 V2000
   -0.9640   26.1430  -27.4420 C   0  0  0  0  0  0  0  0  0  0  0  0
   -0.9270   25.1070  -28.5600 C   0  0  0  0  0  0  0  0  0  0  0  0
   -2.2940   24.5990  -28.8200 N   0  0  0  0  0  0  0  0  0  0  0  0
   -3.1320   24.5280  -27.5990 C   0  0  0  0  0  0  0  0  0  0  0  0
   -4.0270   23.2810  -27.5150 C   0  0  0  0  0  0  0  0  0  0  0  0
   -2.3100   23.3470  -29.6060 C   0  0  0  0  0  0  0  0  0  0  0  0
   -3.3930   23.4080  -30.6870 C   0  0  0  0  0  0  0  0  0  0  0  0
   -3.9310   24.7270  -30.7740 O   0  0  0  0  0  0  0  0  0  0  0  0
   -5.2960   25.0090  -30.6520 C   0  0  0  0  0  0  0  0  0  0  0  0
   -5.7340   26.1760  -30.8470 O   0  0  0  0  0  0  0  0  0  0  0  0
   -6.2470   23.9010  -30.3300 C   0  0  0  0  0  0  0  0  0  0  0  0
   -6.8990   23.3670  -31.6110 C   0  0  0  0  0  0  0  0  0  0  0  0
   -7.1720   21.9170  -31.4820 N   0  0  0  0  0  0  0  0  0  0  0  0
   -8.6000   21.6670  -31.1630 C   0  0  0  0  0  0  0  0  0  0  0  0
   -9.3170   20.9320  -32.3050 C   0  0  0  0  0  0  0  0  0  0  0  0
   -9.1320   19.4070  -32.2860 C   0  0  0  0  0  0  0  0  0  0  0  0
   -7.7520   18.9960  -31.7360 C   0  0  0  0  0  0  0  0  0  0  0  0
   -6.5750   19.6880  -32.4400 C   0  0  0  0  0  0  0  0  0  0  0  0
   -6.7700   21.1870  -32.7130 C   0  0  0  0  0  0  0  0  0  0  0  0
   -0.9458   25.6322  -26.4680 H   0  0  0  0  0  0  0  0  0  0  0  0
   -0.0889   26.8042  -27.5257 H   0  0  0  0  0  0  0  0  0  0  0  0
   -1.8840   26.7401  -27.5257 H   0  0  0  0  0  0  0  0  0  0  0  0
   -0.5300   25.5712  -29.4748 H   0  0  0  0  0  0  0  0  0  0  0  0
   -0.2803   24.2701  -28.2578 H   0  0  0  0  0  0  0  0  0  0  0  0
   -2.4658   24.5330  -26.7237 H   0  0  0  0  0  0  0  0  0  0  0  0
   -3.8060   25.3968  -27.6297 H   0  0  0  0  0  0  0  0  0  0  0  0
   -4.2074   23.0296  -26.4594 H   0  0  0  0  0  0  0  0  0  0  0  0
   -4.9867   23.4842  -28.0127 H   0  0  0  0  0  0  0  0  0  0  0  0
   -3.5273   22.4368  -28.0127 H   0  0  0  0  0  0  0  0  0  0  0  0
   -1.3291   23.2065  -30.0835 H   0  0  0  0  0  0  0  0  0  0  0  0
   -2.5267   22.5055  -28.9315 H   0  0  0  0  0  0  0  0  0  0  0  0
   -2.9541   23.1302  -31.6567 H   0  0  0  0  0  0  0  0  0  0  0  0
   -4.2004   22.7084  -30.4250 H   0  0  0  0  0  0  0  0  0  0  0  0
   -5.6992   23.0856  -29.8350 H   0  0  0  0  0  0  0  0  0  0  0  0
   -7.0327   24.2873  -29.6641 H   0  0  0  0  0  0  0  0  0  0  0  0
   -7.8450   23.9003  -31.7864 H   0  0  0  0  0  0  0  0  0  0  0  0
   -6.2135   23.5286  -32.4560 H   0  0  0  0  0  0  0  0  0  0  0  0
   -8.6596   21.0539  -30.2516 H   0  0  0  0  0  0  0  0  0  0  0  0
   -9.0940   22.6390  -31.0173 H   0  0  0  0  0  0  0  0  0  0  0  0
  -10.3928   21.1500  -32.2338 H   0  0  0  0  0  0  0  0  0  0  0  0
   -8.8703   21.2931  -33.2431 H   0  0  0  0  0  0  0  0  0  0  0  0
   -9.9131   18.9630  -31.6513 H   0  0  0  0  0  0  0  0  0  0  0  0
   -9.2049   19.0445  -33.3220 H   0  0  0  0  0  0  0  0  0  0  0  0
   -7.7148   19.2502  -30.6664 H   0  0  0  0  0  0  0  0  0  0  0  0
   -7.6435   17.9161  -31.9151 H   0  0  0  0  0  0  0  0  0  0  0  0
   -5.6826   19.5699  -31.8079 H   0  0  0  0  0  0  0  0  0  0  0  0
   -6.4808   19.2067  -33.4246 H   0  0  0  0  0  0  0  0  0  0  0  0
   -5.8248   21.6084  -33.0859 H   0  0  0  0  0  0  0  0  0  0  0  0
   -7.5705   21.3008  -33.4588 H   0  0  0  0  0  0  0  0  0  0  0  0
  1  2  1  0
  2  3  1  0
  3  4  1  0
  4  5  1  0
  3  6  1  0
  6  7  1  0
  7  8  1  0
  8  9  1  0
  9 10  2  0
  9 11  1  0
 11 12  1  0
 12 13  1  0
 13 14  1  0
 14 15  1  0
 15 16  1  0
 16 17  1  0
 17 18  1  0
 18 19  1  0
 19 13  1  0
  1 20  1  0
  1 21  1  0
  1 22  1  0
  2 23  1  0
  2 24  1  0
  4 25  1  0
  4 26  1  0
  5 27  1  0
  5 28  1  0
  5 29  1  0
  6 30  1  0
  6 31  1  0
  7 32  1  0
  7 33  1  0
 11 34  1  0
 11 35  1  0
 12 36  1  0
 12 37  1  0
 14 38  1  0
 14 39  1  0
 15 40  1  0
 15 41  1  0
 16 42  1  0
 16 43  1  0
 17 44  1  0
 17 45  1  0
 18 46  1  0
 18 47  1  0
 19 48  1  0
 19 49  1  0
M  END
>  <UniqueID>  (1) 
1

>  <SMILES>  (1) 
CCN(CC)CCOC(=O)CCN1CCCCCC1

>  <Energy>  (1) 
45.841735584759036

>  <Genealogy>  (1) 
CCN(CC)CCOC(=O)CCN1CCCCCC1 (3D coordinates assigned)
CCN(CC)CCOC(=O)CCN1CCCCCC1 (nonaromatic ring conformer: 45.841735584759036 kcal/mol)

>  <smiles>  (1) 
CCN(CC)CCOC(=O)CCN1CCCCCC1

>  <score_type>  (1) 
oracle

>  <origin>  (1) 
adg

>  <m_score__min__energy>  (1) 
-4.5700000000000003

>  <m_primary>  (1) 
energy

$$$$
1:0
     RDKit          3D

 55 57  0  0  0  0  0  0  0  0999 V2000
   -9.0980   23.1160  -31.9620 C   0  0  0  0  0  0  0  0  0  0  0  0
   -8.2030   22.6500  -30.9570 O   0  0  0  0  0  0  0  0  0  0  0  0
   -6.9240   23.1810  -30.7270 C   0  0  0  0  0  0  0  0  0  0  0  0
   -6.8120   24.5470  -30.4600 C   0  0  0  0  0  0  0  0  0  0  0  0
   -5.5640   25.1270  -30.2280 C   0  0  0  0  0  0  0  0  0  0  0  0
   -4.3940   24.3430  -30.2570 C   0  0  0  0  0  0  0  0  0  0  0  0
   -3.1260   24.9040  -30.0390 O   0  0  0  0  0  0  0  0  0  0  0  0
   -2.2760   24.5820  -28.9430 C   0  0  0  0  0  0  0  0  0  0  0  0
   -4.5010   22.9600  -30.5160 C   0  0  0  0  0  0  0  0  0  0  0  0
   -3.2760   22.0760  -30.5800 C   0  0  0  0  0  0  0  0  0  0  0  0
   -2.6250   22.1730  -31.9050 N   0  0  0  0  0  0  0  0  0  0  0  0
   -1.3860   21.3710  -32.0010 C   0  0  0  0  0  0  0  0  0  0  0  0
   -1.6650   19.8540  -32.0780 C   0  0  0  0  0  0  0  0  0  0  0  0
   -2.9260   19.5300  -32.7940 N   0  0  0  0  0  0  0  0  0  0  0  0
   -2.8970   18.1720  -33.3980 C   0  0  0  0  0  0  0  0  0  0  0  0
   -4.2490   17.4320  -33.4020 C   0  0  0  0  0  0  0  0  0  0  0  0
   -5.0180   17.8110  -32.2610 O   0  0  0  0  0  0  0  0  0  0  0  0
   -6.2480   18.4810  -32.3180 C   0  0  0  0  0  0  0  0  0  0  0  0
   -6.4220   19.6840  -33.0320 C   0  0  0  0  0  0  0  0  0  0  0  0
   -7.6710   20.3140  -33.0550 C   0  0  0  0  0  0  0  0  0  0  0  0
   -8.7520   19.7530  -32.3690 C   0  0  0  0  0  0  0  0  0  0  0  0
   -8.5850   18.5610  -31.6600 C   0  0  0  0  0  0  0  0  0  0  0  0
   -7.3390   17.9280  -31.6350 C   0  0  0  0  0  0  0  0  0  0  0  0
   -3.3050   20.5830  -33.7580 C   0  0  0  0  0  0  0  0  0  0  0  0
   -3.5630   21.9180  -33.0310 C   0  0  0  0  0  0  0  0  0  0  0  0
   -5.7630   22.3890  -30.7550 C   0  0  0  0  0  0  0  0  0  0  0  0
   -9.9776   23.5740  -31.4859 H   0  0  0  0  0  0  0  0  0  0  0  0
   -8.5891   23.8636  -32.5882 H   0  0  0  0  0  0  0  0  0  0  0  0
   -9.4186   22.2704  -32.5882 H   0  0  0  0  0  0  0  0  0  0  0  0
   -7.7166   25.1723  -30.4322 H   0  0  0  0  0  0  0  0  0  0  0  0
   -5.4934   26.2050  -30.0208 H   0  0  0  0  0  0  0  0  0  0  0  0
   -2.8036   24.7819  -27.9987 H   0  0  0  0  0  0  0  0  0  0  0  0
   -2.0020   23.5178  -28.9918 H   0  0  0  0  0  0  0  0  0  0  0  0
   -1.3657   25.1976  -28.9918 H   0  0  0  0  0  0  0  0  0  0  0  0
   -2.5629   22.3916  -29.8042 H   0  0  0  0  0  0  0  0  0  0  0  0
   -3.5854   21.0333  -30.4154 H   0  0  0  0  0  0  0  0  0  0  0  0
   -0.8388   21.6749  -32.9055 H   0  0  0  0  0  0  0  0  0  0  0  0
   -0.7981   21.5558  -31.0899 H   0  0  0  0  0  0  0  0  0  0  0  0
   -0.8290   19.3704  -32.6045 H   0  0  0  0  0  0  0  0  0  0  0  0
   -1.7692   19.4864  -31.0465 H   0  0  0  0  0  0  0  0  0  0  0  0
   -3.6890   19.4950  -32.0750 H   0  0  0  0  0  0  0  0  0  0  0  0
   -2.5580   18.2691  -34.4400 H   0  0  0  0  0  0  0  0  0  0  0  0
   -2.2198   17.5717  -32.7726 H   0  0  0  0  0  0  0  0  0  0  0  0
   -4.8028   17.6907  -34.3165 H   0  0  0  0  0  0  0  0  0  0  0  0
   -4.0665   16.3477  -33.3696 H   0  0  0  0  0  0  0  0  0  0  0  0
   -5.5734   20.1286  -33.5726 H   0  0  0  0  0  0  0  0  0  0  0  0
   -7.8025   21.2523  -33.6138 H   0  0  0  0  0  0  0  0  0  0  0  0
   -9.7333   20.2497  -32.3874 H   0  0  0  0  0  0  0  0  0  0  0  0
   -9.4358   18.1196  -31.1203 H   0  0  0  0  0  0  0  0  0  0  0  0
   -7.2143   16.9893  -31.0753 H   0  0  0  0  0  0  0  0  0  0  0  0
   -2.4899   20.7186  -34.4841 H   0  0  0  0  0  0  0  0  0  0  0  0
   -4.2271   20.2763  -34.2734 H   0  0  0  0  0  0  0  0  0  0  0  0
   -3.4625   22.7360  -33.7596 H   0  0  0  0  0  0  0  0  0  0  0  0
   -4.5745   21.8620  -32.6023 H   0  0  0  0  0  0  0  0  0  0  0  0
   -5.8428   21.3124  -30.9659 H   0  0  0  0  0  0  0  0  0  0  0  0
  1  2  1  0
  2  3  1  0
  3  4  2  0
  4  5  1  0
  5  6  2  0
  6  7  1  0
  7  8  1  0
  6  9  1  0
  9 10  1  0
 10 11  1  0
 11 12  1  0
 12 13  1  0
 13 14  1  0
 14 15  1  0
 15 16  1  0
 16 17  1  0
 17 18  1  0
 18 19  2  0
 19 20  1  0
 20 21  2  0
 21 22  1  0
 22 23  2  0
 14 24  1  0
 24 25  1  0
  9 26  2  0
 26  3  1  0
 25 11  1  0
 23 18  1  0
  1 27  1  0
  1 28  1  0
  1 29  1  0
  4 30  1  0
  5 31  1  0
  8 32  1  0
  8 33  1  0
  8 34  1  0
 10 35  1  0
 10 36  1  0
 12 37  1  0
 12 38  1  0
 13 39  1  0
 13 40  1  0
 14 41  1  0
 15 42  1  0
 15 43  1  0
 16 44  1  0
 16 45  1  0
 19 46  1  0
 20 47  1  0
 21 48  1  0
 22 49  1  0
 23 50  1  0
 24 51  1  0
 24 52  1  0
 25 53  1  0
 25 54  1  0
 26 55  1  0
M  CHG  1  14   1
M  END
>  <UniqueID>  (2) 
2

>  <SMILES>  (2) 
COc1ccc(OC)c(CN2CC[NH+](CCOc3ccccc3)CC2)c1

>  <Energy>  (2) 
70.36135803613381

>  <Genealogy>  (2) 
COc1ccc(OC)c(CN2CC[NH+](CCOc3ccccc3)CC2)c1 (protonated)
COc1ccc(OC)c(CN2CC[NH+](CCOc3ccccc3)CC2)c1 (3D coordinates assigned)
COc1ccc(OC)c(CN2CC[NH+](CCOc3ccccc3)CC2)c1 (nonaromatic ring conformer: 70.36135803613381 kcal/mol)

>  <smiles>  (2) 
COc1ccc(OC)c(CN2CCN(CCOc3ccccc3)CC2)c1

>  <score_type>  (2) 
oracle

>  <origin>  (2) 
adg

>  <m_score__min__energy>  (2) 
-6.8799999999999999

>  <m_primary>  (2) 
energy

$$$$
2:0
     RDKit          3D

 59 62  0  0  0  0  0  0  0  0999 V2000
   -3.9260   24.2050  -27.4570 C   0  0  0  0  0  0  0  0  0  0  0  0
   -3.9990   22.9370  -28.3020 C   0  0  0  0  0  0  0  0  0  0  0  0
   -4.2200   23.2890  -29.7270 N   0  0  0  0  0  0  0  0  0  0  0  0
   -5.5780   23.8710  -29.8900 C   0  0  0  0  0  0  0  0  0  0  0  0
   -5.5200   25.2850  -30.4600 C   0  0  0  0  0  0  0  0  0  0  0  0
   -4.0650   22.1120  -30.6210 C   0  0  0  0  0  0  0  0  0  0  0  0
   -3.5860   22.4570  -32.0530 C   0  0  0  0  0  0  0  0  0  0  0  0
   -4.6530   22.4030  -33.0780 N   0  0  0  0  0  0  0  0  0  0  0  0
   -5.5760   21.2970  -32.8470 C   0  0  0  0  0  0  0  0  0  0  0  0
   -6.9230   21.5650  -32.4660 C   0  0  0  0  0  0  0  0  0  0  0  0
   -7.4250   22.8860  -32.3670 C   0  0  0  0  0  0  0  0  0  0  0  0
   -8.7320   23.1310  -31.9540 C   0  0  0  0  0  0  0  0  0  0  0  0
   -9.5720   22.0730  -31.6300 C   0  0  0  0  0  0  0  0  0  0  0  0
   -9.1080   20.7640  -31.7210 C   0  0  0  0  0  0  0  0  0  0  0  0
   -7.7830   20.4830  -32.1390 C   0  0  0  0  0  0  0  0  0  0  0  0
   -7.3300   19.1880  -32.2270 N   0  0  0  0  0  0  0  0  0  0  0  0
   -7.9810   18.1520  -31.3940 C   0  0  0  0  0  0  0  0  0  0  0  0
   -6.1590   18.9100  -32.9040 C   0  0  0  0  0  0  0  0  0  0  0  0
   -5.1940   19.9410  -33.0620 C   0  0  0  0  0  0  0  0  0  0  0  0
   -3.8770   19.5740  -33.4100 C   0  0  0  0  0  0  0  0  0  0  0  0
   -3.5390   18.2540  -33.6800 C   0  0  0  0  0  0  0  0  0  0  0  0
   -4.5240   17.2610  -33.7430 C   0  0  0  0  0  0  0  0  0  0  0  0
   -4.2120   15.9390  -34.1640 C   0  0  0  0  0  0  0  0  0  0  0  0
   -2.7950   15.5000  -34.4420 C   0  0  0  0  0  0  0  0  0  0  0  0
   -5.2510   15.0210  -34.3700 C   0  0  0  0  0  0  0  0  0  0  0  0
   -6.5750   15.4000  -34.1840 C   0  0  0  0  0  0  0  0  0  0  0  0
   -6.8830   16.6810  -33.7320 C   0  0  0  0  0  0  0  0  0  0  0  0
   -5.8640   17.6080  -33.4220 C   0  0  0  0  0  0  0  0  0  0  0  0
   -3.9415   23.9363  -26.3904 H   0  0  0  0  0  0  0  0  0  0  0  0
   -2.9953   24.7449  -27.6856 H   0  0  0  0  0  0  0  0  0  0  0  0
   -4.7886   24.8482  -27.6856 H   0  0  0  0  0  0  0  0  0  0  0  0
   -3.0549   22.3806  -28.2063 H   0  0  0  0  0  0  0  0  0  0  0  0
   -4.8354   22.3156  -27.9495 H   0  0  0  0  0  0  0  0  0  0  0  0
   -6.1592   23.2345  -30.5734 H   0  0  0  0  0  0  0  0  0  0  0  0
   -6.0520   23.9196  -28.8986 H   0  0  0  0  0  0  0  0  0  0  0  0
   -5.4902   26.0120  -29.6350 H   0  0  0  0  0  0  0  0  0  0  0  0
   -4.6166   25.3945  -31.0780 H   0  0  0  0  0  0  0  0  0  0  0  0
   -6.4114   25.4681  -31.0780 H   0  0  0  0  0  0  0  0  0  0  0  0
   -3.3312   21.4294  -30.1675 H   0  0  0  0  0  0  0  0  0  0  0  0
   -5.0630   21.6609  -30.7232 H   0  0  0  0  0  0  0  0  0  0  0  0
   -3.1693   23.4750  -32.0418 H   0  0  0  0  0  0  0  0  0  0  0  0
   -2.8419   21.6957  -32.3300 H   0  0  0  0  0  0  0  0  0  0  0  0
   -5.1210   23.3220  -33.1940 H   0  0  0  0  0  0  0  0  0  0  0  0
   -4.2160   22.2780  -34.0200 H   0  0  0  0  0  0  0  0  0  0  0  0
   -6.7708   23.7331  -32.6209 H   0  0  0  0  0  0  0  0  0  0  0  0
   -9.1004   24.1651  -31.8841 H   0  0  0  0  0  0  0  0  0  0  0  0
  -10.6033   22.2697  -31.3017 H   0  0  0  0  0  0  0  0  0  0  0  0
   -9.7813   19.9329  -31.4641 H   0  0  0  0  0  0  0  0  0  0  0  0
   -7.8317   18.3895  -30.3304 H   0  0  0  0  0  0  0  0  0  0  0  0
   -9.0580   18.1261  -31.6163 H   0  0  0  0  0  0  0  0  0  0  0  0
   -7.5371   17.1704  -31.6163 H   0  0  0  0  0  0  0  0  0  0  0  0
   -3.1003   20.3507  -33.4689 H   0  0  0  0  0  0  0  0  0  0  0  0
   -2.4852   17.9858  -33.8462 H   0  0  0  0  0  0  0  0  0  0  0  0
   -2.2683   15.3368  -33.4902 H   0  0  0  0  0  0  0  0  0  0  0  0
   -2.8078   14.5637  -35.0192 H   0  0  0  0  0  0  0  0  0  0  0  0
   -2.2762   16.2795  -35.0192 H   0  0  0  0  0  0  0  0  0  0  0  0
   -5.0165   13.9924  -34.6814 H   0  0  0  0  0  0  0  0  0  0  0  0
   -7.3838   14.6848  -34.3948 H   0  0  0  0  0  0  0  0  0  0  0  0
   -7.9365   16.9751  -33.6147 H   0  0  0  0  0  0  0  0  0  0  0  0
  1  2  1  0
  2  3  1  0
  3  4  1  0
  4  5  1  0
  3  6  1  0
  6  7  1  0
  7  8  1  0
  8  9  1  0
  9 10  2  0
 10 11  1  0
 11 12  2  0
 12 13  1  0
 13 14  2  0
 14 15  1  0
 15 16  2  0
 16 17  1  0
 16 18  1  0
 18 19  2  0
 19 20  1  0
 20 21  2  0
 21 22  1  0
 22 23  2  0
 23 24  1  0
 23 25  1  0
 25 26  2  0
 26 27  1  0
 27 28  2  0
 19  9  1  0
 28 22  1  0
 15 10  1  0
 28 18  1  0
  1 29  1  0
  1 30  1  0
  1 31  1  0
  2 32  1  0
  2 33  1  0
  4 34  1  0
  4 35  1  0
  5 36  1  0
  5 37  1  0
  5 38  1  0
  6 39  1  0
  6 40  1  0
  7 41  1  0
  7 42  1  0
  8 43  1  0
  8 44  1  0
 11 45  1  0
 12 46  1  0
 13 47  1  0
 14 48  1  0
 17 49  1  0
 17 50  1  0
 17 51  1  0
 20 52  1  0
 21 53  1  0
 24 54  1  0
 24 55  1  0
 24 56  1  0
 25 57  1  0
 26 58  1  0
 27 59  1  0
M  CHG  2   8   1  16   1
M  END
>  <UniqueID>  (3) 
3

>  <SMILES>  (3) 
CCN(CC)CC[NH2+]c1c2ccccc2[n+](C)c2c1ccc1c(C)cccc12

>  <Energy>  (3) 
109.67070231516668

>  <Genealogy>  (3) 
CCN(CC)CC[NH2+]c1c2ccccc2[n+](C)c2c1ccc1c(C)cccc12 (protonated)
CCN(CC)CC[NH2+]c1c2ccccc2[n+](C)c2c1ccc1c(C)cccc12 (3D coordinates assigned)
CCN(CC)CC[NH2+]c1c2ccccc2[n+](C)c2c1ccc1c(C)cccc12 (optimized conformer: 109.67070231516668 kcal/mol)

>  <smiles>  (3) 
CCN(CC)CCNc1c2ccccc2[n+](C)c2c1ccc1c(C)cccc12

>  <score_type>  (3) 
oracle

>  <origin>  (3) 
adg

>  <m_score__min__energy>  (3) 
-9.0899999999999999

>  <m_primary>  (3) 
energy

$$$$
3:0
     RDKit          3D

 46 48  0  0  0  0  0  0  0  0999 V2000
   -7.4888   23.5859  -30.2357 H   0  0  0  0  0  0  0  0  0  0  0  0
   -7.2410   23.0350  -31.1550 C   0  0  0  0  0  0  0  0  0  0  0  0
   -8.2250   22.0710  -31.6870 C   0  0  0  0  0  0  0  0  0  0  0  0
   -9.4200   22.4520  -31.8140 O   0  0  0  0  0  0  0  0  0  0  0  0
   -7.8760   20.6800  -32.0600 C   0  0  0  0  0  0  0  0  0  0  0  0
   -8.6220   19.5920  -31.5720 C   0  0  0  0  0  0  0  0  0  0  0  0
   -9.4679   19.7727  -30.8925 H   0  0  0  0  0  0  0  0  0  0  0  0
   -8.2990   18.2840  -31.9420 C   0  0  0  0  0  0  0  0  0  0  0  0
   -8.8846   17.4418  -31.5448 H   0  0  0  0  0  0  0  0  0  0  0  0
   -7.2320   18.0410  -32.8170 C   0  0  0  0  0  0  0  0  0  0  0  0
   -6.9000   16.7300  -33.1940 C   0  0  0  0  0  0  0  0  0  0  0  0
   -7.4781   15.8818  -32.7986 H   0  0  0  0  0  0  0  0  0  0  0  0
   -5.8360   16.5010  -34.0710 C   0  0  0  0  0  0  0  0  0  0  0  0
   -5.5786   15.4724  -34.3639 H   0  0  0  0  0  0  0  0  0  0  0  0
   -5.0980   17.5750  -34.5770 C   0  0  0  0  0  0  0  0  0  0  0  0
   -4.2615   17.3885  -35.2666 H   0  0  0  0  0  0  0  0  0  0  0  0
   -5.4190   18.8850  -34.2100 C   0  0  0  0  0  0  0  0  0  0  0  0
   -4.8359   19.7264  -34.6125 H   0  0  0  0  0  0  0  0  0  0  0  0
   -6.4850   19.1290  -33.3280 C   0  0  0  0  0  0  0  0  0  0  0  0
   -6.8160   20.4390  -32.9520 C   0  0  0  0  0  0  0  0  0  0  0  0
   -6.2418   21.2848  -33.3582 H   0  0  0  0  0  0  0  0  0  0  0  0
   -6.0610   23.2680  -31.7420 C   0  0  0  0  0  0  0  0  0  0  0  0
   -6.0481   23.5592  -32.8027 H   0  0  0  0  0  0  0  0  0  0  0  0
   -4.7730   23.1500  -31.0230 C   0  0  0  0  0  0  0  0  0  0  0  0
   -4.2240   21.8750  -30.8650 C   0  0  0  0  0  0  0  0  0  0  0  0
   -4.7295   21.0061  -31.3116 H   0  0  0  0  0  0  0  0  0  0  0  0
   -3.0450   21.6920  -30.1490 C   0  0  0  0  0  0  0  0  0  0  0  0
   -2.6335   20.6788  -30.0298 H   0  0  0  0  0  0  0  0  0  0  0  0
   -2.3720   22.7880  -29.5750 C   0  0  0  0  0  0  0  0  0  0  0  0
   -1.1940   22.6020  -28.8350 O   0  0  0  0  0  0  0  0  0  0  0  0
   -1.0880   21.8240  -27.6470 C   0  0  0  0  0  0  0  0  0  0  0  0
   -1.1775   22.4810  -26.7693 H   0  0  0  0  0  0  0  0  0  0  0  0
   -1.8922   21.0738  -27.6270 H   0  0  0  0  0  0  0  0  0  0  0  0
   -0.1124   21.3163  -27.6270 H   0  0  0  0  0  0  0  0  0  0  0  0
   -2.9000   24.0920  -29.7580 C   0  0  0  0  0  0  0  0  0  0  0  0
   -2.2990   25.2570  -29.2440 O   0  0  0  0  0  0  0  0  0  0  0  0
   -1.6180   25.3840  -28.0010 C   0  0  0  0  0  0  0  0  0  0  0  0
   -2.3331   25.2506  -27.1758 H   0  0  0  0  0  0  0  0  0  0  0  0
   -0.8326   24.6168  -27.9331 H   0  0  0  0  0  0  0  0  0  0  0  0
   -1.1619   26.3827  -27.9331 H   0  0  0  0  0  0  0  0  0  0  0  0
   -4.0810   24.2670  -30.5010 C   0  0  0  0  0  0  0  0  0  0  0  0
   -4.5390   25.5700  -30.7200 O   0  0  0  0  0  0  0  0  0  0  0  0
   -5.7370   26.0530  -30.1240 C   0  0  0  0  0  0  0  0  0  0  0  0
   -5.6428   26.0150  -29.0287 H   0  0  0  0  0  0  0  0  0  0  0  0
   -5.9114   27.0917  -30.4412 H   0  0  0  0  0  0  0  0  0  0  0  0
   -6.5831   25.4257  -30.4412 H   0  0  0  0  0  0  0  0  0  0  0  0
  1  2  1  0
  2  3  1  0
  3  4  2  0
  3  5  1  0
  5  6  2  0
  6  7  1  0
  6  8  1  0
  8  9  1  0
  8 10  2  0
 10 11  1  0
 11 12  1  0
 11 13  2  0
 13 14  1  0
 13 15  1  0
 15 16  1  0
 15 17  2  0
 17 18  1  0
 17 19  1  0
 19 20  2  0
 20 21  1  0
  2 22  2  0
 22 23  1  0
 22 24  1  0
 24 25  2  0
 25 26  1  0
 25 27  1  0
 27 28  1  0
 27 29  2  0
 29 30  1  0
 30 31  1  0
 31 32  1  0
 31 33  1  0
 31 34  1  0
 29 35  1  0
 35 36  1  0
 36 37  1  0
 37 38  1  0
 37 39  1  0
 37 40  1  0
 35 41  2  0
 41 42  1  0
 42 43  1  0
 43 44  1  0
 43 45  1  0
 43 46  1  0
 20  5  1  0
 41 24  1  0
 19 10  1  0
M  END
>  <UniqueID>  (4) 
4

>  <SMILES>  (4) 
COc1ccc(/C=C/C(=O)c2ccc3ccccc3c2)c(OC)c1OC

>  <Energy>  (4) 
68.18363858195846

>  <Genealogy>  (4) 
COc1ccc(/C=C/C(=O)c2ccc3ccccc3c2)c(OC)c1OC (cis-trans isomerization)
COc1ccc(/C=C/C(=O)c2ccc3ccccc3c2)c(OC)c1OC (3D coordinates assigned)
COc1ccc(/C=C/C(=O)c2ccc3ccccc3c2)c(OC)c1OC (optimized conformer: 68.18363858195846 kcal/mol)

>  <smiles>  (4) 
COc1ccc(C=CC(=O)c2ccc3ccccc3c2)c(OC)c1OC

>  <score_type>  (4) 
oracle

>  <origin>  (4) 
adg

>  <m_score__min__energy>  (4) 
-10.19

>  <m_primary>  (4) 
energy

$$$$
4:0
     RDKit          3D

 48 50  0  0  0  0  0  0  0  0999 V2000
   -4.5150   19.8990  -33.1060 C   0  0  0  0  0  0  0  0  0  0  0  0
   -5.3960   21.0160  -33.0490 O   0  0  0  0  0  0  0  0  0  0  0  0
   -6.7530   20.9460  -32.6910 C   0  0  0  0  0  0  0  0  0  0  0  0
   -7.4630   19.7300  -32.7170 C   0  0  0  0  0  0  0  0  0  0  0  0
   -8.8080   19.6880  -32.3410 C   0  0  0  0  0  0  0  0  0  0  0  0
   -9.4570   20.8520  -31.9320 C   0  0  0  0  0  0  0  0  0  0  0  0
   -8.7670   22.0640  -31.9000 C   0  0  0  0  0  0  0  0  0  0  0  0
   -7.4160   22.1260  -32.2860 C   0  0  0  0  0  0  0  0  0  0  0  0
   -6.6820   23.4420  -32.1900 C   0  0  0  0  0  0  0  0  0  0  0  0
   -6.5170   23.8920  -30.7330 C   0  0  0  0  0  0  0  0  0  0  0  0
   -5.1640   23.6240  -30.2480 N   0  0  0  0  0  0  0  0  0  0  0  0
   -4.4640   22.4860  -30.4340 C   0  0  0  0  0  0  0  0  0  0  0  0
   -3.1920   22.6280  -29.9150 C   0  0  0  0  0  0  0  0  0  0  0  0
   -3.1260   23.9130  -29.4090 C   0  0  0  0  0  0  0  0  0  0  0  0
   -1.9440   24.5450  -28.7290 C   0  0  0  0  0  0  0  0  0  0  0  0
   -2.3330   25.2810  -27.5180 N   0  0  0  0  0  0  0  0  0  0  0  0
   -1.8910   24.5940  -26.2970 C   0  0  0  0  0  0  0  0  0  0  0  0
   -1.2470   25.5840  -25.3670 C   0  0  0  0  0  0  0  0  0  0  0  0
   -1.3140   26.9590  -25.6290 C   0  0  0  0  0  0  0  0  0  0  0  0
   -0.6790   27.8620  -24.7750 C   0  0  0  0  0  0  0  0  0  0  0  0
    0.0280   27.3810  -23.6720 C   0  0  0  0  0  0  0  0  0  0  0  0
    0.0990   26.0430  -23.4360 N   0  0  0  0  0  0  0  0  0  0  0  0
   -0.5120   25.1430  -24.2560 C   0  0  0  0  0  0  0  0  0  0  0  0
   -4.3580   24.5010  -29.6210 C   0  0  0  0  0  0  0  0  0  0  0  0
   -4.2624   19.5787  -32.0844 H   0  0  0  0  0  0  0  0  0  0  0  0
   -5.0062   19.0714  -33.6388 H   0  0  0  0  0  0  0  0  0  0  0  0
   -3.5958   20.1838  -33.6388 H   0  0  0  0  0  0  0  0  0  0  0  0
   -6.9554   18.8075  -33.0353 H   0  0  0  0  0  0  0  0  0  0  0  0
   -9.3559   18.7345  -32.3678 H   0  0  0  0  0  0  0  0  0  0  0  0
  -10.5152   20.8147  -31.6339 H   0  0  0  0  0  0  0  0  0  0  0  0
   -9.2833   22.9777  -31.5705 H   0  0  0  0  0  0  0  0  0  0  0  0
   -5.6863   23.3292  -32.6436 H   0  0  0  0  0  0  0  0  0  0  0  0
   -7.2716   24.2041  -32.7206 H   0  0  0  0  0  0  0  0  0  0  0  0
   -6.7150   24.9720  -30.6662 H   0  0  0  0  0  0  0  0  0  0  0  0
   -7.2284   23.3287  -30.1113 H   0  0  0  0  0  0  0  0  0  0  0  0
   -4.8488   21.5803  -30.9256 H   0  0  0  0  0  0  0  0  0  0  0  0
   -2.3932   21.8718  -29.9060 H   0  0  0  0  0  0  0  0  0  0  0  0
   -1.2306   23.7553  -28.4506 H   0  0  0  0  0  0  0  0  0  0  0  0
   -1.4917   25.2612  -29.4308 H   0  0  0  0  0  0  0  0  0  0  0  0
   -3.3750   25.3780  -27.4950 H   0  0  0  0  0  0  0  0  0  0  0  0
   -2.7588   24.1357  -25.8001 H   0  0  0  0  0  0  0  0  0  0  0  0
   -1.1628   23.8127  -26.5604 H   0  0  0  0  0  0  0  0  0  0  0  0
   -1.8663   27.3261  -26.5066 H   0  0  0  0  0  0  0  0  0  0  0  0
   -0.7353   28.9432  -24.9695 H   0  0  0  0  0  0  0  0  0  0  0  0
    0.5291   28.0854  -22.9918 H   0  0  0  0  0  0  0  0  0  0  0  0
    0.6380   25.6970  -22.6110 H   0  0  0  0  0  0  0  0  0  0  0  0
   -0.4289   24.0664  -24.0464 H   0  0  0  0  0  0  0  0  0  0  0  0
   -4.6361   25.5232  -29.3246 H   0  0  0  0  0  0  0  0  0  0  0  0
  1  2  1  0
  2  3  1  0
  3  4  2  0
  4  5  1  0
  5  6  2  0
  6  7  1  0
  7  8  2  0
  8  9  1  0
  9 10  1  0
 10 11  1  0
 11 12  1  0
 12 13  2  0
 13 14  1  0
 14 15  1  0
 15 16  1  0
 16 17  1  0
 17 18  1  0
 18 19  2  0
 19 20  1  0
 20 21  2  0
 21 22  1  0
 22 23  2  0
 14 24  2  0
  8  3  1  0
 24 11  1  0
 23 18  1  0
  1 25  1  0
  1 26  1  0
  1 27  1  0
  4 28  1  0
  5 29  1  0
  6 30  1  0
  7 31  1  0
  9 32  1  0
  9 33  1  0
 10 34  1  0
 10 35  1  0
 12 36  1  0
 13 37  1  0
 15 38  1  0
 15 39  1  0
 16 40  1  0
 17 41  1  0
 17 42  1  0
 19 43  1  0
 20 44  1  0
 21 45  1  0
 22 46  1  0
 23 47  1  0
 24 48  1  0
M  CHG  1  22   1
M  END
>  <UniqueID>  (5) 
5

>  <SMILES>  (5) 
COc1ccccc1CCn1ccc(CNCc2ccc[nH+]c2)c1

>  <Energy>  (5) 
68.1767986299225

>  <Genealogy>  (5) 
COc1ccccc1CCn1ccc(CNCc2ccc[nH+]c2)c1 (protonated)
COc1ccccc1CCn1ccc(CNCc2ccc[nH+]c2)c1 (3D coordinates assigned)
COc1ccccc1CCn1ccc(CNCc2ccc[nH+]c2)c1 (optimized conformer: 68.1767986299225 kcal/mol)

>  <smiles>  (5) 
COc1ccccc1CCn1ccc(CNCc2cccnc2)c1

>  <score_type>  (5) 
oracle

>  <origin>  (5) 
adg

>  <m_score__min__energy>  (5) 
-8.4299999999999997

>  <m_primary>  (5) 
energy

$$$$
5:0
     RDKit          3D

 41 42  0  0  0  0  0  0  0  0999 V2000
   -8.7290   19.1690  -31.9990 C   0  0  0  0  0  0  0  0  0  0  0  0
   -7.7490   20.0410  -32.8000 C   0  0  0  0  0  0  0  0  0  0  0  0
   -6.4190   19.4270  -33.0130 N   0  0  0  0  0  0  0  0  0  0  0  0
   -6.0990   19.0880  -34.4170 C   0  0  0  0  0  0  0  0  0  0  0  0
   -5.7720   17.6050  -34.5820 C   0  0  0  0  0  0  0  0  0  0  0  0
   -5.3150   19.9900  -32.1950 C   0  0  0  0  0  0  0  0  0  0  0  0
   -4.3120   20.8710  -32.9690 C   0  0  0  0  0  0  0  0  0  0  0  0
   -4.6820   22.2850  -32.9300 N   0  0  0  0  0  0  0  0  0  0  0  0
   -4.8360   22.9630  -31.6800 C   0  0  0  0  0  0  0  0  0  0  0  0
   -3.8570   23.2570  -30.8640 O   0  0  0  0  0  0  0  0  0  0  0  0
   -4.3980   23.8810  -29.8370 C   0  0  0  0  0  0  0  0  0  0  0  0
   -3.6220   24.3820  -28.6860 C   0  0  0  0  0  0  0  0  0  0  0  0
   -2.2750   24.7610  -28.8380 C   0  0  0  0  0  0  0  0  0  0  0  0
   -1.5470   25.2340  -27.7430 C   0  0  0  0  0  0  0  0  0  0  0  0
   -2.1530   25.3340  -26.4870 C   0  0  0  0  0  0  0  0  0  0  0  0
   -1.1550   25.9800  -24.9920 Br  0  0  0  0  0  0  0  0  0  0  0  0
   -3.4900   24.9590  -26.3270 C   0  0  0  0  0  0  0  0  0  0  0  0
   -4.2230   24.4860  -27.4200 C   0  0  0  0  0  0  0  0  0  0  0  0
   -5.7420   24.0100  -29.9520 N   0  0  0  0  0  0  0  0  0  0  0  0
   -6.0100   23.4210  -31.1320 C   0  0  0  0  0  0  0  0  0  0  0  0
   -7.3250   23.3160  -31.7010 C   0  0  0  0  0  0  0  0  0  0  0  0
   -8.3840   23.2320  -32.1590 N   0  0  0  0  0  0  0  0  0  0  0  0
   -8.5590   19.3203  -30.9228 H   0  0  0  0  0  0  0  0  0  0  0  0
   -9.7617   19.4523  -32.2505 H   0  0  0  0  0  0  0  0  0  0  0  0
   -8.5676   18.1104  -32.2505 H   0  0  0  0  0  0  0  0  0  0  0  0
   -8.1955   20.2452  -33.7844 H   0  0  0  0  0  0  0  0  0  0  0  0
   -7.5830   20.9528  -32.2074 H   0  0  0  0  0  0  0  0  0  0  0  0
   -6.9650   19.3341  -35.0490 H   0  0  0  0  0  0  0  0  0  0  0  0
   -5.2138   19.6687  -34.7158 H   0  0  0  0  0  0  0  0  0  0  0  0
   -5.6694   17.1396  -33.5906 H   0  0  0  0  0  0  0  0  0  0  0  0
   -6.5826   17.1103  -35.1371 H   0  0  0  0  0  0  0  0  0  0  0  0
   -4.8285   17.4971  -35.1371 H   0  0  0  0  0  0  0  0  0  0  0  0
   -5.7600   20.6013  -31.3961 H   0  0  0  0  0  0  0  0  0  0  0  0
   -4.7417   19.1296  -31.8196 H   0  0  0  0  0  0  0  0  0  0  0  0
   -3.3148   20.7522  -32.5202 H   0  0  0  0  0  0  0  0  0  0  0  0
   -4.3160   20.5474  -34.0203 H   0  0  0  0  0  0  0  0  0  0  0  0
   -4.8400   22.8200  -33.8130 H   0  0  0  0  0  0  0  0  0  0  0  0
   -1.7929   24.6845  -29.8238 H   0  0  0  0  0  0  0  0  0  0  0  0
   -0.4947   25.5283  -27.8695 H   0  0  0  0  0  0  0  0  0  0  0  0
   -3.9669   25.0361  -25.3387 H   0  0  0  0  0  0  0  0  0  0  0  0
   -5.2753   24.1939  -27.2881 H   0  0  0  0  0  0  0  0  0  0  0  0
  1  2  1  0
  2  3  1  0
  3  4  1  0
  4  5  1  0
  3  6  1  0
  6  7  1  0
  7  8  1  0
  8  9  1  0
  9 10  1  0
 10 11  1  0
 11 12  1  0
 12 13  2  0
 13 14  1  0
 14 15  2  0
 15 16  1  0
 15 17  1  0
 17 18  2  0
 11 19  2  0
 19 20  1  0
 20 21  1  0
 21 22  3  0
 20  9  2  0
 18 12  1  0
  1 23  1  0
  1 24  1  0
  1 25  1  0
  2 26  1  0
  2 27  1  0
  4 28  1  0
  4 29  1  0
  5 30  1  0
  5 31  1  0
  5 32  1  0
  6 33  1  0
  6 34  1  0
  7 35  1  0
  7 36  1  0
  8 37  1  0
 13 38  1  0
 14 39  1  0
 17 40  1  0
 18 41  1  0
M  END
>  <UniqueID>  (6) 
6

>  <SMILES>  (6) 
CCN(CC)CCNc1oc(-c2ccc(Br)cc2)nc1C#N

>  <Energy>  (6) 
74.79365247360563

>  <Genealogy>  (6) 
CCN(CC)CCNc1oc(-c2ccc(Br)cc2)nc1C#N (3D coordinates assigned)
CCN(CC)CCNc1oc(-c2ccc(Br)cc2)nc1C#N (optimized conformer: 74.79365247360563 kcal/mol)

>  <smiles>  (6) 
CCN(CC)CCNc1oc(-c2ccc(Br)cc2)nc1C#N

>  <score_type>  (6) 
oracle

>  <origin>  (6) 
adg

>  <m_score__min__energy>  (6) 
-7.1500000000000004

>  <m_primary>  (6) 
energy

$$$$
6:0
     RDKit          3D

 34 36  0  0  0  0  0  0  0  0999 V2000
   -9.8620   21.5560  -31.9910 C   0  0  0  0  0  0  0  0  0  0  0  0
   -8.5550   20.9200  -32.1350 N   0  0  0  0  0  0  0  0  0  0  0  0
   -8.3160   19.8680  -32.8950 N   0  0  0  0  0  0  0  0  0  0  0  0
   -7.0260   19.5270  -32.6970 C   0  0  0  0  0  0  0  0  0  0  0  0
   -6.3270   18.3970  -33.3600 C   0  0  0  0  0  0  0  0  0  0  0  0
   -5.2630   18.6150  -34.2580 C   0  0  0  0  0  0  0  0  0  0  0  0
   -4.6190   17.5330  -34.8680 C   0  0  0  0  0  0  0  0  0  0  0  0
   -5.0260   16.2270  -34.5920 C   0  0  0  0  0  0  0  0  0  0  0  0
   -6.0790   15.9970  -33.7050 C   0  0  0  0  0  0  0  0  0  0  0  0
   -6.7280   17.0740  -33.0910 C   0  0  0  0  0  0  0  0  0  0  0  0
   -6.4280   20.3450  -31.8000 N   0  0  0  0  0  0  0  0  0  0  0  0
   -7.4150   21.2060  -31.4720 C   0  0  0  0  0  0  0  0  0  0  0  0
   -7.2480   22.3260  -30.4630 C   0  0  0  0  0  0  0  0  0  0  0  0
   -7.0860   23.6910  -31.0270 N   0  0  0  0  0  0  0  0  0  0  0  0
   -6.8010   24.7170  -30.0140 C   0  0  0  0  0  0  0  0  0  0  0  0
   -5.4250   25.0110  -30.5850 C   0  0  0  0  0  0  0  0  0  0  0  0
   -5.7750   23.9700  -31.6340 C   0  0  0  0  0  0  0  0  0  0  0  0
  -10.0982   21.6709  -30.9228 H   0  0  0  0  0  0  0  0  0  0  0  0
   -9.8431   22.5456  -32.4709 H   0  0  0  0  0  0  0  0  0  0  0  0
  -10.6291   20.9304  -32.4709 H   0  0  0  0  0  0  0  0  0  0  0  0
   -9.0210   19.4080  -33.5120 H   0  0  0  0  0  0  0  0  0  0  0  0
   -4.9369   19.6417  -34.4806 H   0  0  0  0  0  0  0  0  0  0  0  0
   -3.7892   17.7124  -35.5674 H   0  0  0  0  0  0  0  0  0  0  0  0
   -4.5171   15.3789  -35.0734 H   0  0  0  0  0  0  0  0  0  0  0  0
   -6.3992   14.9672  -33.4883 H   0  0  0  0  0  0  0  0  0  0  0  0
   -7.5573   16.8859  -32.3932 H   0  0  0  0  0  0  0  0  0  0  0  0
   -8.1380   22.3323  -29.8165 H   0  0  0  0  0  0  0  0  0  0  0  0
   -6.3086   22.1104  -29.9329 H   0  0  0  0  0  0  0  0  0  0  0  0
   -7.4855   25.5769  -30.0579 H   0  0  0  0  0  0  0  0  0  0  0  0
   -6.8875   24.4502  -28.9504 H   0  0  0  0  0  0  0  0  0  0  0  0
   -5.2870   26.0327  -30.9686 H   0  0  0  0  0  0  0  0  0  0  0  0
   -4.5061   24.9658  -29.9821 H   0  0  0  0  0  0  0  0  0  0  0  0
   -5.8427   24.3804  -32.6523 H   0  0  0  0  0  0  0  0  0  0  0  0
   -5.0805   23.1342  -31.8047 H   0  0  0  0  0  0  0  0  0  0  0  0
  1  2  1  0
  2  3  1  0
  3  4  2  0
  4  5  1  0
  5  6  2  0
  6  7  1  0
  7  8  2  0
  8  9  1  0
  9 10  2  0
  4 11  1  0
 11 12  2  0
 12 13  1  0
 13 14  1  0
 14 15  1  0
 15 16  1  0
 16 17  1  0
 12  2  1  0
 17 14  1  0
 10  5  1  0
  1 18  1  0
  1 19  1  0
  1 20  1  0
  3 21  1  0
  6 22  1  0
  7 23  1  0
  8 24  1  0
  9 25  1  0
 10 26  1  0
 13 27  1  0
 13 28  1  0
 15 29  1  0
 15 30  1  0
 16 31  1  0
 16 32  1  0
 17 33  1  0
 17 34  1  0
M  CHG  1   3   1
M  END
>  <UniqueID>  (7) 
7

>  <SMILES>  (7) 
Cn1[nH+]c(-c2ccccc2)nc1CN1CCC1

>  <Energy>  (7) 
143.69800871421418

>  <Genealogy>  (7) 
Cn1[nH+]c(-c2ccccc2)nc1CN1CCC1 (protonated)
Cn1[nH+]c(-c2ccccc2)nc1CN1CCC1 (3D coordinates assigned)
Cn1[nH+]c(-c2ccccc2)nc1CN1CCC1 (nonaromatic ring conformer: 143.69800871421418 kcal/mol)

>  <smiles>  (7) 
Cn1nc(-c2ccccc2)nc1CN1CCC1

>  <score_type>  (7) 
oracle

>  <origin>  (7) 
adg

>  <m_score__min__energy>  (7) 
-6.3399999999999999

>  <m_primary>  (7) 
energy

$$$$
7:0
     RDKit          3D

 31 33  0  0  0  0  0  0  0  0999 V2000
   -7.6010   22.6670  -30.2940 C   0  0  0  0  0  0  0  0  0  0  0  0
   -6.9720   23.6930  -30.3740 C   0  0  0  0  0  0  0  0  0  0  0  0
   -6.2080   24.9410  -30.4710 C   0  0  0  0  0  0  0  0  0  0  0  0
   -4.8760   24.7770  -29.8860 N   0  0  0  0  0  0  0  0  0  0  0  0
   -3.9100   23.8450  -30.4110 C   0  0  0  0  0  0  0  0  0  0  0  0
   -4.2530   23.0180  -31.4980 C   0  0  0  0  0  0  0  0  0  0  0  0
   -3.3680   22.0410  -31.9570 C   0  0  0  0  0  0  0  0  0  0  0  0
   -2.1320   21.8720  -31.3380 C   0  0  0  0  0  0  0  0  0  0  0  0
   -1.7670   22.6900  -30.2680 C   0  0  0  0  0  0  0  0  0  0  0  0
   -2.6360   23.6930  -29.8030 C   0  0  0  0  0  0  0  0  0  0  0  0
   -2.1600   24.5930  -28.7240 C   0  0  0  0  0  0  0  0  0  0  0  0
   -1.3590   25.6650  -28.9650 N   0  0  0  0  0  0  0  0  0  0  0  0
   -1.2200   26.2090  -27.7480 C   0  0  0  0  0  0  0  0  0  0  0  0
   -0.4890   27.3430  -27.3970 C   0  0  0  0  0  0  0  0  0  0  0  0
   -0.4960   27.7310  -26.0440 C   0  0  0  0  0  0  0  0  0  0  0  0
   -1.2250   26.9840  -25.0900 C   0  0  0  0  0  0  0  0  0  0  0  0
   -1.9530   25.8440  -25.4830 C   0  0  0  0  0  0  0  0  0  0  0  0
   -1.9220   25.4910  -26.8300 C   0  0  0  0  0  0  0  0  0  0  0  0
   -2.5380   24.4590  -27.4240 N   0  0  0  0  0  0  0  0  0  0  0  0
   -8.1747   21.7313  -30.2210 H   0  0  0  0  0  0  0  0  0  0  0  0
   -6.1058   25.2208  -31.5299 H   0  0  0  0  0  0  0  0  0  0  0  0
   -6.7430   25.7279  -29.9192 H   0  0  0  0  0  0  0  0  0  0  0  0
   -4.6130   25.3590  -29.0590 H   0  0  0  0  0  0  0  0  0  0  0  0
   -5.2286   23.1432  -31.9905 H   0  0  0  0  0  0  0  0  0  0  0  0
   -3.6473   21.4036  -32.8089 H   0  0  0  0  0  0  0  0  0  0  0  0
   -1.4422   21.0923  -31.6932 H   0  0  0  0  0  0  0  0  0  0  0  0
   -0.7896   22.5488  -29.7834 H   0  0  0  0  0  0  0  0  0  0  0  0
    0.0732   27.9141  -28.1505 H   0  0  0  0  0  0  0  0  0  0  0  0
    0.0687   28.6202  -25.7270 H   0  0  0  0  0  0  0  0  0  0  0  0
   -1.2236   27.2950  -24.0349 H   0  0  0  0  0  0  0  0  0  0  0  0
   -2.5255   25.2537  -24.7523 H   0  0  0  0  0  0  0  0  0  0  0  0
  1  2  3  0
  2  3  1  0
  3  4  1  0
  4  5  1  0
  5  6  2  0
  6  7  1  0
  7  8  2  0
  8  9  1  0
  9 10  2  0
 10 11  1  0
 11 12  2  0
 12 13  1  0
 13 14  2  0
 14 15  1  0
 15 16  2  0
 16 17  1  0
 17 18  2  0
 18 19  1  0
 10  5  1  0
 19 11  1  0
 18 13  1  0
  1 20  1  0
  3 21  1  0
  3 22  1  0
  4 23  1  0
  6 24  1  0
  7 25  1  0
  8 26  1  0
  9 27  1  0
 14 28  1  0
 15 29  1  0
 16 30  1  0
 17 31  1  0
M  CHG  1  19  -1
M  END
>  <UniqueID>  (8) 
8

>  <SMILES>  (8) 
C#CCNc1ccccc1-c1nc2ccccc2[n-]1

>  <Energy>  (8) 
71.61316957020259

>  <Genealogy>  (8) 
C#CCNc1ccccc1-c1nc2ccccc2[n-]1 (protonated)
C#CCNc1ccccc1-c1nc2ccccc2[n-]1 (3D coordinates assigned)
C#CCNc1ccccc1-c1nc2ccccc2[n-]1 (optimized conformer: 71.61316957020259 kcal/mol)

>  <smiles>  (8) 
C#CCNc1ccccc1-c1nc2ccccc2[nH]1

>  <score_type>  (8) 
oracle

>  <origin>  (8) 
adg

>  <m_score__min__energy>  (8) 
-7.6100000000000003

>  <m_primary>  (8) 
energy

$$$$
8:0
     RDKit          3D

 54 57  0  0  0  0  0  0  0  0999 V2000
   -2.7990   16.2990  -35.0840 C   0  0  0  0  0  0  0  0  0  0  0  0
   -4.0870   15.6690  -34.5450 C   0  0  0  0  0  0  0  0  0  0  0  0
   -4.2600   15.8690  -33.0830 N   0  0  2  0  0  0  0  0  0  0  0  0
   -4.2840   14.5480  -32.4260 C   0  0  0  0  0  0  0  0  0  0  0  0
   -5.5030   16.6290  -32.7570 C   0  0  0  0  0  0  0  0  0  0  0  0
   -6.3860   16.9000  -33.9960 C   0  0  0  0  0  0  0  0  0  0  0  0
   -6.3150   18.2990  -34.4280 N   0  0  0  0  0  0  0  0  0  0  0  0
   -6.1360   19.3880  -33.5040 C   0  0  0  0  0  0  0  0  0  0  0  0
   -7.2430   19.9660  -32.8560 C   0  0  0  0  0  0  0  0  0  0  0  0
   -8.5250   19.3840  -32.9470 C   0  0  0  0  0  0  0  0  0  0  0  0
   -9.6250   19.9810  -32.3350 C   0  0  0  0  0  0  0  0  0  0  0  0
   -9.4650   21.1580  -31.6120 C   0  0  0  0  0  0  0  0  0  0  0  0
   -8.2030   21.7330  -31.4760 C   0  0  0  0  0  0  0  0  0  0  0  0
   -7.0630   21.1420  -32.0800 C   0  0  0  0  0  0  0  0  0  0  0  0
   -5.8030   21.6820  -31.9240 N   0  0  0  0  0  0  0  0  0  0  0  0
   -5.6380   22.8970  -31.1610 C   0  0  0  0  0  0  0  0  0  0  0  0
   -5.1190   22.8460  -29.8600 C   0  0  0  0  0  0  0  0  0  0  0  0
   -4.9600   24.0220  -29.1210 C   0  0  0  0  0  0  0  0  0  0  0  0
   -5.3190   25.2520  -29.6800 C   0  0  0  0  0  0  0  0  0  0  0  0
   -5.8360   25.3090  -30.9780 C   0  0  0  0  0  0  0  0  0  0  0  0
   -5.9960   24.1340  -31.7190 C   0  0  0  0  0  0  0  0  0  0  0  0
   -4.6970   21.0740  -32.4810 C   0  0  0  0  0  0  0  0  0  0  0  0
   -3.3910   21.5950  -32.2950 C   0  0  0  0  0  0  0  0  0  0  0  0
   -2.2820   20.9780  -32.8710 C   0  0  0  0  0  0  0  0  0  0  0  0
   -2.4410   19.8330  -33.6440 C   0  0  0  0  0  0  0  0  0  0  0  0
   -3.7110   19.2980  -33.8460 C   0  0  0  0  0  0  0  0  0  0  0  0
   -4.8490   19.9060  -33.2740 C   0  0  0  0  0  0  0  0  0  0  0  0
   -2.1629   16.6101  -34.2423 H   0  0  0  0  0  0  0  0  0  0  0  0
   -2.2600   15.5628  -35.6984 H   0  0  0  0  0  0  0  0  0  0  0  0
   -3.0492   17.1764  -35.6984 H   0  0  0  0  0  0  0  0  0  0  0  0
   -4.9438   16.1221  -35.0651 H   0  0  0  0  0  0  0  0  0  0  0  0
   -4.0253   14.5856  -34.7252 H   0  0  0  0  0  0  0  0  0  0  0  0
   -3.4140   16.3670  -32.7200 H   0  0  0  0  0  0  0  0  0  0  0  0
   -4.2816   14.6814  -31.3341 H   0  0  0  0  0  0  0  0  0  0  0  0
   -5.1922   14.0052  -32.7270 H   0  0  0  0  0  0  0  0  0  0  0  0
   -3.3962   13.9726  -32.7270 H   0  0  0  0  0  0  0  0  0  0  0  0
   -6.0886   16.0481  -32.0292 H   0  0  0  0  0  0  0  0  0  0  0  0
   -5.1961   17.6043  -32.3513 H   0  0  0  0  0  0  0  0  0  0  0  0
   -6.0468   16.2563  -34.8210 H   0  0  0  0  0  0  0  0  0  0  0  0
   -7.4291   16.6822  -33.7230 H   0  0  0  0  0  0  0  0  0  0  0  0
   -6.4890   18.5230  -35.4330 H   0  0  0  0  0  0  0  0  0  0  0  0
   -8.6577   18.4472  -33.5081 H   0  0  0  0  0  0  0  0  0  0  0  0
  -10.6203   19.5212  -32.4237 H   0  0  0  0  0  0  0  0  0  0  0  0
  -10.3383   21.6372  -31.1455 H   0  0  0  0  0  0  0  0  0  0  0  0
   -8.0888   22.6582  -30.8921 H   0  0  0  0  0  0  0  0  0  0  0  0
   -4.8362   21.8785  -29.4195 H   0  0  0  0  0  0  0  0  0  0  0  0
   -4.5526   23.9795  -28.1001 H   0  0  0  0  0  0  0  0  0  0  0  0
   -5.1945   26.1769  -29.0976 H   0  0  0  0  0  0  0  0  0  0  0  0
   -6.1168   26.2781  -31.4161 H   0  0  0  0  0  0  0  0  0  0  0  0
   -6.4028   24.1792  -32.7400 H   0  0  0  0  0  0  0  0  0  0  0  0
   -3.2512   22.5006  -31.6864 H   0  0  0  0  0  0  0  0  0  0  0  0
   -1.2776   21.3981  -32.7137 H   0  0  0  0  0  0  0  0  0  0  0  0
   -1.5628   19.3493  -34.0964 H   0  0  0  0  0  0  0  0  0  0  0  0
   -3.8283   18.3916  -34.4581 H   0  0  0  0  0  0  0  0  0  0  0  0
  1  2  1  0
  2  3  1  0
  3  4  1  0
  3  5  1  0
  5  6  1  0
  6  7  1  0
  7  8  1  0
  8  9  2  0
  9 10  1  0
 10 11  2  0
 11 12  1  0
 12 13  2  0
 13 14  1  0
 14 15  2  0
 15 16  1  0
 16 17  2  0
 17 18  1  0
 18 19  2  0
 19 20  1  0
 20 21  2  0
 15 22  1  0
 22 23  2  0
 23 24  1  0
 24 25  2  0
 25 26  1  0
 26 27  2  0
 27  8  1  0
 14  9  1  0
 21 16  1  0
 27 22  1  0
  1 28  1  0
  1 29  1  0
  1 30  1  0
  2 31  1  0
  2 32  1  0
  3 33  1  1
  4 34  1  0
  4 35  1  0
  4 36  1  0
  5 37  1  0
  5 38  1  0
  6 39  1  0
  6 40  1  0
  7 41  1  0
 10 42  1  0
 11 43  1  0
 12 44  1  0
 13 45  1  0
 17 46  1  0
 18 47  1  0
 19 48  1  0
 20 49  1  0
 21 50  1  0
 23 51  1  0
 24 52  1  0
 25 53  1  0
 26 54  1  0
M  CHG  2   3   1  15   1
M  END
>  <UniqueID>  (9) 
9

>  <SMILES>  (9) 
CC[N@H+](C)CCNc1c2ccccc2[n+](-c2ccccc2)c2ccccc12

>  <Energy>  (9) 
86.3490367793909

>  <Genealogy>  (9) 
CC[NH+](C)CCNc1c2ccccc2[n+](-c2ccccc2)c2ccccc12 (protonated)
CC[N@H+](C)CCNc1c2ccccc2[n+](-c2ccccc2)c2ccccc12 (chirality)
CC[N@H+](C)CCNc1c2ccccc2[n+](-c2ccccc2)c2ccccc12 (3D coordinates assigned)
CC[N@H+](C)CCNc1c2ccccc2[n+](-c2ccccc2)c2ccccc12 (optimized conformer: 86.3490367793909 kcal/mol)

>  <smiles>  (9) 
CCN(C)CCNc1c2ccccc2[n+](-c2ccccc2)c2ccccc12

>  <score_type>  (9) 
oracle

>  <origin>  (9) 
adg

>  <m_score__min__energy>  (9) 
-7.7800000000000002

>  <m_primary>  (9) 
energy

$$$$
9:0
     RDKit          3D

 41 43  0  0  0  0  0  0  0  0999 V2000
   -6.5570   25.7440  -29.3450 C   0  0  0  0  0  0  0  0  0  0  0  0
   -5.7250   25.5080  -30.6030 C   0  0  0  0  0  0  0  0  0  0  0  0
   -4.9480   24.2640  -30.5180 N   0  0  0  0  0  0  0  0  0  0  0  0
   -3.8270   24.1670  -29.5780 C   0  0  0  0  0  0  0  0  0  0  0  0
   -5.5560   23.0500  -30.9950 C   0  0  0  0  0  0  0  0  0  0  0  0
   -6.9140   22.8420  -30.7650 C   0  0  0  0  0  0  0  0  0  0  0  0
   -7.5630   21.6920  -31.2240 C   0  0  0  0  0  0  0  0  0  0  0  0
   -9.0180   21.5220  -30.8580 C   0  0  0  0  0  0  0  0  0  0  0  0
   -6.8470   20.7480  -32.0120 C   0  0  0  0  0  0  0  0  0  0  0  0
   -5.4650   20.9670  -32.2780 C   0  0  0  0  0  0  0  0  0  0  0  0
   -4.8020   22.0880  -31.6970 C   0  0  0  0  0  0  0  0  0  0  0  0
   -3.3020   22.2630  -31.7920 C   0  0  0  0  0  0  0  0  0  0  0  0
   -4.7480   20.0120  -33.1790 C   0  0  0  0  0  0  0  0  0  0  0  0
   -3.6760   20.3450  -33.7530 O   0  0  0  0  0  0  0  0  0  0  0  0
   -5.3290   18.6860  -33.4680 C   0  0  0  0  0  0  0  0  0  0  0  0
   -4.5550   17.6760  -34.0670 C   0  0  0  0  0  0  0  0  0  0  0  0
   -5.1210   16.4320  -34.3550 C   0  0  0  0  0  0  0  0  0  0  0  0
   -6.4620   16.1880  -34.0570 C   0  0  0  0  0  0  0  0  0  0  0  0
   -7.2400   17.1870  -33.4680 C   0  0  0  0  0  0  0  0  0  0  0  0
   -6.6790   18.4430  -33.1680 C   0  0  0  0  0  0  0  0  0  0  0  0
   -7.4990   19.5170  -32.5680 C   0  0  0  0  0  0  0  0  0  0  0  0
   -8.7520   19.3820  -32.5550 O   0  0  0  0  0  0  0  0  0  0  0  0
   -5.9346   25.5675  -28.4553 H   0  0  0  0  0  0  0  0  0  0  0  0
   -6.9228   26.7813  -29.3366 H   0  0  0  0  0  0  0  0  0  0  0  0
   -7.4130   25.0532  -29.3366 H   0  0  0  0  0  0  0  0  0  0  0  0
   -6.3995   25.4480  -31.4699 H   0  0  0  0  0  0  0  0  0  0  0  0
   -5.0194   26.3453  -30.7082 H   0  0  0  0  0  0  0  0  0  0  0  0
   -4.2091   24.2001  -28.5470 H   0  0  0  0  0  0  0  0  0  0  0  0
   -3.2929   23.2193  -29.7409 H   0  0  0  0  0  0  0  0  0  0  0  0
   -3.1380   25.0089  -29.7409 H   0  0  0  0  0  0  0  0  0  0  0  0
   -7.4880   23.5988  -30.2103 H   0  0  0  0  0  0  0  0  0  0  0  0
   -9.1216   21.5099  -29.7630 H   0  0  0  0  0  0  0  0  0  0  0  0
   -9.6004   22.3582  -31.2722 H   0  0  0  0  0  0  0  0  0  0  0  0
   -9.3919   20.5741  -31.2722 H   0  0  0  0  0  0  0  0  0  0  0  0
   -2.8739   22.3130  -30.7800 H   0  0  0  0  0  0  0  0  0  0  0  0
   -2.8668   21.4095  -32.3325 H   0  0  0  0  0  0  0  0  0  0  0  0
   -3.0749   23.1937  -32.3325 H   0  0  0  0  0  0  0  0  0  0  0  0
   -3.4992   17.8666  -34.3098 H   0  0  0  0  0  0  0  0  0  0  0  0
   -4.5088   15.6437  -34.8173 H   0  0  0  0  0  0  0  0  0  0  0  0
   -6.9066   15.2083  -34.2861 H   0  0  0  0  0  0  0  0  0  0  0  0
   -8.2975   16.9914  -33.2370 H   0  0  0  0  0  0  0  0  0  0  0  0
  1  2  1  0
  2  3  1  0
  3  4  1  0
  3  5  1  0
  5  6  2  0
  6  7  1  0
  7  8  1  0
  7  9  2  0
  9 10  1  0
 10 11  2  0
 11 12  1  0
 10 13  1  0
 13 14  2  0
 13 15  1  0
 15 16  2  0
 16 17  1  0
 17 18  2  0
 18 19  1  0
 19 20  2  0
 20 21  1  0
 21 22  2  0
 11  5  1  0
 20 15  1  0
 21  9  1  0
  1 23  1  0
  1 24  1  0
  1 25  1  0
  2 26  1  0
  2 27  1  0
  4 28  1  0
  4 29  1  0
  4 30  1  0
  6 31  1  0
  8 32  1  0
  8 33  1  0
  8 34  1  0
 12 35  1  0
 12 36  1  0
 12 37  1  0
 16 38  1  0
 17 39  1  0
 18 40  1  0
 19 41  1  0
M  END
>  <UniqueID>  (10) 
10

>  <SMILES>  (10) 
CCN(C)c1cc(C)c2c(c1C)C(=O)c1ccccc1C2=O

>  <Energy>  (10) 
61.460432425614016

>  <Genealogy>  (10) 
CCN(C)c1cc(C)c2c(c1C)C(=O)c1ccccc1C2=O (3D coordinates assigned)
CCN(C)c1cc(C)c2c(c1C)C(=O)c1ccccc1C2=O (nonaromatic ring conformer: 61.460432425614016 kcal/mol)

>  <smiles>  (10) 
CCN(C)c1cc(C)c2c(c1C)C(=O)c1ccccc1C2=O

>  <score_type>  (10) 
oracle

>  <origin>  (10) 
adg

>  <m_score__min__energy>  (10) 
-8.5999999999999996

>  <m_primary>  (10) 
energy

$$$$
10:0
     RDKit          3D

 41 42  0  0  0  0  0  0  0  0999 V2000
   -6.3820   17.4260  -31.5340 C   0  0  0  0  0  0  0  0  0  0  0  0
   -6.6800   17.4280  -33.0300 C   0  0  0  0  0  0  0  0  0  0  0  0
   -7.0450   18.7350  -33.4710 O   0  0  0  0  0  0  0  0  0  0  0  0
   -7.7500   19.6980  -32.7280 C   0  0  0  0  0  0  0  0  0  0  0  0
   -9.1570   19.7680  -32.7810 C   0  0  0  0  0  0  0  0  0  0  0  0
   -9.8510   20.7170  -32.0330 C   0  0  0  0  0  0  0  0  0  0  0  0
   -9.1610   21.6110  -31.2230 C   0  0  0  0  0  0  0  0  0  0  0  0
   -7.7610   21.5730  -31.1530 C   0  0  0  0  0  0  0  0  0  0  0  0
   -7.0320   22.5700  -30.2710 C   0  0  0  0  0  0  0  0  0  0  0  0
   -5.7160   22.9630  -30.8360 N   0  0  0  0  0  0  0  0  0  0  0  0
   -4.7060   23.0360  -29.7490 C   0  0  0  0  0  0  0  0  0  0  0  0
   -3.5060   23.9030  -30.1540 C   0  0  0  0  0  0  0  0  0  0  0  0
   -3.8970   25.2960  -30.4400 N   0  0  0  0  0  0  0  0  0  0  0  0
   -5.3060   25.4460  -30.8450 C   0  0  0  0  0  0  0  0  0  0  0  0
   -5.8020   24.2220  -31.6310 C   0  0  0  0  0  0  0  0  0  0  0  0
   -7.0430   20.6100  -31.8980 C   0  0  0  0  0  0  0  0  0  0  0  0
   -5.6390   20.6110  -31.7700 O   0  0  0  0  0  0  0  0  0  0  0  0
   -4.6870   20.3380  -32.7930 C   0  0  0  0  0  0  0  0  0  0  0  0
   -7.3275   17.4323  -30.9718 H   0  0  0  0  0  0  0  0  0  0  0  0
   -5.8078   16.5240  -31.2757 H   0  0  0  0  0  0  0  0  0  0  0  0
   -5.7958   18.3202  -31.2757 H   0  0  0  0  0  0  0  0  0  0  0  0
   -5.7838   17.0998  -33.5769 H   0  0  0  0  0  0  0  0  0  0  0  0
   -7.5185   16.7429  -33.2239 H   0  0  0  0  0  0  0  0  0  0  0  0
   -9.7130   19.0659  -33.4197 H   0  0  0  0  0  0  0  0  0  0  0  0
  -10.9490   20.7587  -32.0838 H   0  0  0  0  0  0  0  0  0  0  0  0
   -9.7172   22.3539  -30.6324 H   0  0  0  0  0  0  0  0  0  0  0  0
   -7.6549   23.4704  -30.1648 H   0  0  0  0  0  0  0  0  0  0  0  0
   -6.8515   22.0904  -29.2977 H   0  0  0  0  0  0  0  0  0  0  0  0
   -5.3980   22.2050  -31.4880 H   0  0  0  0  0  0  0  0  0  0  0  0
   -5.1750   23.4704  -28.8538 H   0  0  0  0  0  0  0  0  0  0  0  0
   -4.3433   22.0176  -29.5457 H   0  0  0  0  0  0  0  0  0  0  0  0
   -2.7746   23.9018  -29.3323 H   0  0  0  0  0  0  0  0  0  0  0  0
   -3.0763   23.4772  -31.0727 H   0  0  0  0  0  0  0  0  0  0  0  0
   -3.7480   25.8690  -29.5760 H   0  0  0  0  0  0  0  0  0  0  0  0
   -5.9255   25.5667  -29.9441 H   0  0  0  0  0  0  0  0  0  0  0  0
   -5.3846   26.3285  -31.4969 H   0  0  0  0  0  0  0  0  0  0  0  0
   -6.8509   24.3877  -31.9179 H   0  0  0  0  0  0  0  0  0  0  0  0
   -5.1562   24.1060  -32.5139 H   0  0  0  0  0  0  0  0  0  0  0  0
   -3.7256   20.0623  -32.3351 H   0  0  0  0  0  0  0  0  0  0  0  0
   -5.0475   19.5070  -33.4171 H   0  0  0  0  0  0  0  0  0  0  0  0
   -4.5524   21.2337  -33.4171 H   0  0  0  0  0  0  0  0  0  0  0  0
  1  2  1  0
  2  3  1  0
  3  4  1  0
  4  5  2  0
  5  6  1  0
  6  7  2  0
  7  8  1  0
  8  9  1  0
  9 10  1  0
 10 11  1  0
 11 12  1  0
 12 13  1  0
 13 14  1  0
 14 15  1  0
  8 16  2  0
 16 17  1  0
 17 18  1  0
 16  4  1  0
 15 10  1  0
  1 19  1  0
  1 20  1  0
  1 21  1  0
  2 22  1  0
  2 23  1  0
  5 24  1  0
  6 25  1  0
  7 26  1  0
  9 27  1  0
  9 28  1  0
 10 29  1  0
 11 30  1  0
 11 31  1  0
 12 32  1  0
 12 33  1  0
 13 34  1  0
 14 35  1  0
 14 36  1  0
 15 37  1  0
 15 38  1  0
 18 39  1  0
 18 40  1  0
 18 41  1  0
M  CHG  1  10   1
M  END
>  <UniqueID>  (11) 
11

>  <SMILES>  (11) 
CCOc1cccc(C[NH+]2CCNCC2)c1OC

>  <Energy>  (11) 
52.25498673272625

>  <Genealogy>  (11) 
CCOc1cccc(C[NH+]2CCNCC2)c1OC (protonated)
CCOc1cccc(C[NH+]2CCNCC2)c1OC (3D coordinates assigned)
CCOc1cccc(C[NH+]2CCNCC2)c1OC (nonaromatic ring conformer: 52.25498673272625 kcal/mol)

>  <smiles>  (11) 
CCOc1cccc(CN2CCNCC2)c1OC

>  <score_type>  (11) 
oracle

>  <origin>  (11) 
adg

>  <m_score__min__energy>  (11) 
-6.6600000000000001

>  <m_primary>  (11) 
energy

$$$$
11:0
     RDKit          3D

 53 56  0  0  0  0  0  0  0  0999 V2000
   -3.8380   23.7390  -28.5370 C   0  0  0  0  0  0  0  0  0  0  0  0
   -3.2410   24.5050  -29.7150 C   0  0  0  0  0  0  0  0  0  0  0  0
   -4.1990   24.5380  -30.8440 N   0  0  0  0  0  0  0  0  0  0  0  0
   -5.3200   25.4650  -30.5660 C   0  0  0  0  0  0  0  0  0  0  0  0
   -6.5650   24.6830  -30.1580 C   0  0  0  0  0  0  0  0  0  0  0  0
   -4.6980   23.1810  -31.1650 C   0  0  0  0  0  0  0  0  0  0  0  0
   -3.6820   22.4450  -32.0670 C   0  0  0  0  0  0  0  0  0  0  0  0
   -4.2370   21.8480  -33.3110 N   0  0  0  0  0  0  0  0  0  0  0  0
   -4.4550   20.4120  -33.2800 C   0  0  0  0  0  0  0  0  0  0  0  0
   -3.3860   19.5140  -33.5750 C   0  0  0  0  0  0  0  0  0  0  0  0
   -2.0500   19.9690  -33.6780 C   0  0  0  0  0  0  0  0  0  0  0  0
   -1.0070   19.0880  -33.9470 C   0  0  0  0  0  0  0  0  0  0  0  0
   -1.2620   17.7350  -34.1190 C   0  0  0  0  0  0  0  0  0  0  0  0
   -2.5650   17.2520  -34.0280 C   0  0  0  0  0  0  0  0  0  0  0  0
   -3.6540   18.1220  -33.7650 C   0  0  0  0  0  0  0  0  0  0  0  0
   -4.9470   17.6460  -33.6990 N   0  0  0  0  0  0  0  0  0  0  0  0
   -5.2480   16.2280  -33.9910 C   0  0  0  0  0  0  0  0  0  0  0  0
   -5.9480   18.4980  -33.3190 C   0  0  0  0  0  0  0  0  0  0  0  0
   -7.5730   18.0890  -33.0910 S   0  0  0  0  0  0  0  0  0  0  0  0
   -8.0450   19.6170  -32.6160 C   0  0  0  0  0  0  0  0  0  0  0  0
   -9.3250   19.9960  -32.2190 C   0  0  0  0  0  0  0  0  0  0  0  0
   -9.5220   21.3040  -31.7670 C   0  0  0  0  0  0  0  0  0  0  0  0
   -8.4400   22.1910  -31.6940 C   0  0  0  0  0  0  0  0  0  0  0  0
   -7.1560   21.7890  -32.0940 C   0  0  0  0  0  0  0  0  0  0  0  0
   -6.9520   20.4890  -32.6030 C   0  0  0  0  0  0  0  0  0  0  0  0
   -5.7450   19.8590  -33.0520 C   0  0  0  0  0  0  0  0  0  0  0  0
   -3.4895   24.1862  -27.5944 H   0  0  0  0  0  0  0  0  0  0  0  0
   -4.9357   23.7916  -28.5839 H   0  0  0  0  0  0  0  0  0  0  0  0
   -3.5189   22.6873  -28.5839 H   0  0  0  0  0  0  0  0  0  0  0  0
   -3.0142   25.5346  -29.4011 H   0  0  0  0  0  0  0  0  0  0  0  0
   -2.3201   23.9995  -30.0413 H   0  0  0  0  0  0  0  0  0  0  0  0
   -5.0348   26.1448  -29.7496 H   0  0  0  0  0  0  0  0  0  0  0  0
   -5.5418   26.0414  -31.4762 H   0  0  0  0  0  0  0  0  0  0  0  0
   -6.6293   24.6426  -29.0606 H   0  0  0  0  0  0  0  0  0  0  0  0
   -7.4593   25.1819  -30.5596 H   0  0  0  0  0  0  0  0  0  0  0  0
   -6.5039   23.6608  -30.5596 H   0  0  0  0  0  0  0  0  0  0  0  0
   -4.8359   22.6134  -30.2329 H   0  0  0  0  0  0  0  0  0  0  0  0
   -5.6579   23.2650  -31.6956 H   0  0  0  0  0  0  0  0  0  0  0  0
   -2.9031   23.1658  -32.3565 H   0  0  0  0  0  0  0  0  0  0  0  0
   -3.3086   21.5999  -31.4700 H   0  0  0  0  0  0  0  0  0  0  0  0
   -5.1060   22.3400  -33.6090 H   0  0  0  0  0  0  0  0  0  0  0  0
   -3.5970   22.0760  -34.1050 H   0  0  0  0  0  0  0  0  0  0  0  0
   -1.8320   21.0387  -33.5430 H   0  0  0  0  0  0  0  0  0  0  0  0
    0.0233   19.4656  -34.0236 H   0  0  0  0  0  0  0  0  0  0  0  0
   -0.4332   17.0425  -34.3277 H   0  0  0  0  0  0  0  0  0  0  0  0
   -2.7531   16.1766  -34.1625 H   0  0  0  0  0  0  0  0  0  0  0  0
   -5.3652   15.6761  -33.0467 H   0  0  0  0  0  0  0  0  0  0  0  0
   -6.1799   16.1630  -34.5717 H   0  0  0  0  0  0  0  0  0  0  0  0
   -4.4228   15.7901  -34.5717 H   0  0  0  0  0  0  0  0  0  0  0  0
  -10.1614   19.2827  -32.2602 H   0  0  0  0  0  0  0  0  0  0  0  0
  -10.5270   21.6370  -31.4685 H   0  0  0  0  0  0  0  0  0  0  0  0
   -8.5983   23.2130  -31.3193 H   0  0  0  0  0  0  0  0  0  0  0  0
   -6.3097   22.4868  -32.0107 H   0  0  0  0  0  0  0  0  0  0  0  0
  1  2  1  0
  2  3  1  0
  3  4  1  0
  4  5  1  0
  3  6  1  0
  6  7  1  0
  7  8  1  0
  8  9  1  0
  9 10  2  0
 10 11  1  0
 11 12  2  0
 12 13  1  0
 13 14  2  0
 14 15  1  0
 15 16  2  0
 16 17  1  0
 16 18  1  0
 18 19  1  0
 19 20  1  0
 20 21  2  0
 21 22  1  0
 22 23  2  0
 23 24  1  0
 24 25  2  0
 25 26  1  0
 26  9  1  0
 15 10  1  0
 26 18  2  0
 25 20  1  0
  1 27  1  0
  1 28  1  0
  1 29  1  0
  2 30  1  0
  2 31  1  0
  4 32  1  0
  4 33  1  0
  5 34  1  0
  5 35  1  0
  5 36  1  0
  6 37  1  0
  6 38  1  0
  7 39  1  0
  7 40  1  0
  8 41  1  0
  8 42  1  0
 11 43  1  0
 12 44  1  0
 13 45  1  0
 14 46  1  0
 17 47  1  0
 17 48  1  0
 17 49  1  0
 21 50  1  0
 22 51  1  0
 23 52  1  0
 24 53  1  0
M  CHG  2   8   1  16   1
M  END
>  <UniqueID>  (12) 
12

>  <SMILES>  (12) 
CCN(CC)CC[NH2+]c1c2ccccc2[n+](C)c2sc3ccccc3c12

>  <Energy>  (12) 
118.6741996437654

>  <Genealogy>  (12) 
CCN(CC)CC[NH2+]c1c2ccccc2[n+](C)c2sc3ccccc3c12 (protonated)
CCN(CC)CC[NH2+]c1c2ccccc2[n+](C)c2sc3ccccc3c12 (3D coordinates assigned)
CCN(CC)CC[NH2+]c1c2ccccc2[n+](C)c2sc3ccccc3c12 (optimized conformer: 118.6741996437654 kcal/mol)

>  <smiles>  (12) 
CCN(CC)CCNc1c2ccccc2[n+](C)c2sc3ccccc3c12

>  <score_type>  (12) 
oracle

>  <origin>  (12) 
adg

>  <m_score__min__energy>  (12) 
-9.0899999999999999

>  <m_primary>  (12) 
energy

$$$$
12:0
     RDKit          3D

 33 35  0  0  0  0  0  0  0  0999 V2000
   -5.1620   12.0770  -33.2360 C   0  0  0  0  0  0  0  0  0  0  0  0
   -5.4000   13.1500  -34.1410 O   0  0  0  0  0  0  0  0  0  0  0  0
   -5.6450   14.4760  -33.7510 C   0  0  0  0  0  0  0  0  0  0  0  0
   -6.7090   15.2330  -34.2730 C   0  0  0  0  0  0  0  0  0  0  0  0
   -6.9110   16.5500  -33.8520 C   0  0  0  0  0  0  0  0  0  0  0  0
   -6.0600   17.1390  -32.8990 C   0  0  0  0  0  0  0  0  0  0  0  0
   -6.2830   18.4990  -32.4760 N   0  0  0  0  0  0  0  0  0  0  0  0
   -5.3620   19.4650  -32.2610 C   0  0  0  0  0  0  0  0  0  0  0  0
   -6.0520   20.5940  -31.8590 C   0  0  0  0  0  0  0  0  0  0  0  0
   -5.4840   21.9180  -31.5010 C   0  0  0  0  0  0  0  0  0  0  0  0
   -6.2850   23.0760  -31.5360 C   0  0  0  0  0  0  0  0  0  0  0  0
   -5.7470   24.3210  -31.1980 C   0  0  0  0  0  0  0  0  0  0  0  0
   -4.4060   24.4280  -30.8220 C   0  0  0  0  0  0  0  0  0  0  0  0
   -3.8730   25.6670  -30.4870 O   0  0  0  0  0  0  0  0  0  0  0  0
   -3.6010   23.2880  -30.7820 C   0  0  0  0  0  0  0  0  0  0  0  0
   -4.1340   22.0390  -31.1190 C   0  0  0  0  0  0  0  0  0  0  0  0
   -7.3620   20.2730  -31.8440 N   0  0  0  0  0  0  0  0  0  0  0  0
   -7.4790   19.0090  -32.2190 N   0  0  0  0  0  0  0  0  0  0  0  0
   -4.9950   16.3750  -32.3830 C   0  0  0  0  0  0  0  0  0  0  0  0
   -4.7940   15.0590  -32.8060 C   0  0  0  0  0  0  0  0  0  0  0  0
   -5.2435   12.4443  -32.2023 H   0  0  0  0  0  0  0  0  0  0  0  0
   -5.9062   11.2844  -33.4032 H   0  0  0  0  0  0  0  0  0  0  0  0
   -4.1525   11.6734  -33.4032 H   0  0  0  0  0  0  0  0  0  0  0  0
   -7.3856   14.7862  -35.0164 H   0  0  0  0  0  0  0  0  0  0  0  0
   -7.7448   17.1328  -34.2704 H   0  0  0  0  0  0  0  0  0  0  0  0
   -4.2728   19.3710  -32.3825 H   0  0  0  0  0  0  0  0  0  0  0  0
   -7.3418   23.0000  -31.8315 H   0  0  0  0  0  0  0  0  0  0  0  0
   -6.3815   25.2191  -31.2282 H   0  0  0  0  0  0  0  0  0  0  0  0
   -2.5452   23.3720  -30.4848 H   0  0  0  0  0  0  0  0  0  0  0  0
   -3.4939   21.1451  -31.0853 H   0  0  0  0  0  0  0  0  0  0  0  0
   -8.1700   20.8870  -31.6050 H   0  0  0  0  0  0  0  0  0  0  0  0
   -4.3156   16.8187  -31.6403 H   0  0  0  0  0  0  0  0  0  0  0  0
   -3.9585   14.4754  -32.3920 H   0  0  0  0  0  0  0  0  0  0  0  0
  1  2  1  0
  2  3  1  0
  3  4  2  0
  4  5  1  0
  5  6  2  0
  6  7  1  0
  7  8  1  0
  8  9  2  0
  9 10  1  0
 10 11  2  0
 11 12  1  0
 12 13  2  0
 13 14  1  0
 13 15  1  0
 15 16  2  0
  9 17  1  0
 17 18  2  0
  6 19  1  0
 19 20  2  0
 20  3  1  0
 18  7  1  0
 16 10  1  0
  1 21  1  0
  1 22  1  0
  1 23  1  0
  4 24  1  0
  5 25  1  0
  8 26  1  0
 11 27  1  0
 12 28  1  0
 15 29  1  0
 16 30  1  0
 17 31  1  0
 19 32  1  0
 20 33  1  0
M  CHG  2  14  -1  17   1
M  END
>  <UniqueID>  (13) 
13

>  <SMILES>  (13) 
COc1ccc(-n2cc(-c3ccc([O-])cc3)[nH+]n2)cc1

>  <Energy>  (13) 
75.31796235800661

>  <Genealogy>  (13) 
COc1ccc(-n2cc(-c3ccc([O-])cc3)[nH+]n2)cc1 (protonated)
COc1ccc(-n2cc(-c3ccc([O-])cc3)[nH+]n2)cc1 (3D coordinates assigned)
COc1ccc(-n2cc(-c3ccc([O-])cc3)[nH+]n2)cc1 (optimized conformer: 75.31796235800661 kcal/mol)

>  <smiles>  (13) 
COc1ccc(-n2cc(-c3ccc(O)cc3)nn2)cc1

>  <score_type>  (13) 
oracle

>  <origin>  (13) 
adg

>  <m_score__min__energy>  (13) 
-8.8800000000000008

>  <m_primary>  (13) 
energy

$$$$
13:0
     RDKit          3D

 41 43  0  0  0  0  0  0  0  0999 V2000
   -3.1740   21.6540  -32.7600 C   0  0  0  0  0  0  0  0  0  0  0  0
   -3.1020   22.5550  -31.6590 O   0  0  0  0  0  0  0  0  0  0  0  0
   -3.0230   22.1630  -30.3120 C   0  0  0  0  0  0  0  0  0  0  0  0
   -3.0770   20.8080  -29.9280 C   0  0  0  0  0  0  0  0  0  0  0  0
   -3.0010   20.4520  -28.5790 C   0  0  0  0  0  0  0  0  0  0  0  0
   -2.8650   21.4380  -27.6000 C   0  0  0  0  0  0  0  0  0  0  0  0
   -2.8110   22.7830  -27.9670 C   0  0  0  0  0  0  0  0  0  0  0  0
   -2.9000   23.1570  -29.3180 C   0  0  0  0  0  0  0  0  0  0  0  0
   -2.8260   24.5840  -29.6920 C   0  0  0  0  0  0  0  0  0  0  0  0
   -1.8220   25.2590  -29.3420 O   0  0  0  0  0  0  0  0  0  0  0  0
   -3.8500   25.2180  -30.4680 N   0  0  0  0  0  0  0  0  0  0  0  0
   -5.2790   24.9720  -30.3110 C   0  0  0  0  0  0  0  0  0  0  0  0
   -5.8850   24.5230  -31.6400 C   0  0  0  0  0  0  0  0  0  0  0  0
   -6.5580   23.1890  -31.5040 C   0  0  0  0  0  0  0  0  0  0  0  0
   -7.6420   22.9680  -30.6580 C   0  0  0  0  0  0  0  0  0  0  0  0
   -8.1280   21.3720  -30.8650 S   0  0  0  0  0  0  0  0  0  0  0  0
   -6.9520   21.0310  -32.0230 C   0  0  0  0  0  0  0  0  0  0  0  0
   -6.7620   19.7350  -32.7130 C   0  0  0  0  0  0  0  0  0  0  0  0
   -5.9390   19.6540  -33.8510 C   0  0  0  0  0  0  0  0  0  0  0  0
   -5.7510   18.4320  -34.5050 C   0  0  0  0  0  0  0  0  0  0  0  0
   -6.3810   17.2790  -34.0300 C   0  0  0  0  0  0  0  0  0  0  0  0
   -7.2010   17.3470  -32.9010 C   0  0  0  0  0  0  0  0  0  0  0  0
   -7.3930   18.5660  -32.2450 C   0  0  0  0  0  0  0  0  0  0  0  0
   -6.1870   22.1220  -32.2620 N   0  0  0  0  0  0  0  0  0  0  0  0
   -3.2564   20.6231  -32.3853 H   0  0  0  0  0  0  0  0  0  0  0  0
   -4.0559   21.8931  -33.3724 H   0  0  0  0  0  0  0  0  0  0  0  0
   -2.2653   21.7500  -33.3724 H   0  0  0  0  0  0  0  0  0  0  0  0
   -3.1796   20.0261  -30.6949 H   0  0  0  0  0  0  0  0  0  0  0  0
   -3.0484   19.3923  -28.2877 H   0  0  0  0  0  0  0  0  0  0  0  0
   -2.8004   21.1544  -26.5391 H   0  0  0  0  0  0  0  0  0  0  0  0
   -2.6979   23.5561  -27.1927 H   0  0  0  0  0  0  0  0  0  0  0  0
   -5.4319   24.1854  -29.5575 H   0  0  0  0  0  0  0  0  0  0  0  0
   -5.7704   25.9015  -29.9876 H   0  0  0  0  0  0  0  0  0  0  0  0
   -6.6260   25.2675  -31.9666 H   0  0  0  0  0  0  0  0  0  0  0  0
   -5.0759   24.4321  -32.3797 H   0  0  0  0  0  0  0  0  0  0  0  0
   -8.0971   23.7035  -29.9784 H   0  0  0  0  0  0  0  0  0  0  0  0
   -5.4397   20.5582  -34.2293 H   0  0  0  0  0  0  0  0  0  0  0  0
   -5.1062   18.3787  -35.3946 H   0  0  0  0  0  0  0  0  0  0  0  0
   -6.2315   16.3184  -34.5446 H   0  0  0  0  0  0  0  0  0  0  0  0
   -7.6967   16.4389  -32.5275 H   0  0  0  0  0  0  0  0  0  0  0  0
   -8.0411   18.6128  -31.3574 H   0  0  0  0  0  0  0  0  0  0  0  0
  1  2  1  0
  2  3  1  0
  3  4  2  0
  4  5  1  0
  5  6  2  0
  6  7  1  0
  7  8  2  0
  8  9  1  0
  9 10  2  0
  9 11  1  0
 11 12  1  0
 12 13  1  0
 13 14  1  0
 14 15  2  0
 15 16  1  0
 16 17  1  0
 17 18  1  0
 18 19  2  0
 19 20  1  0
 20 21  2  0
 21 22  1  0
 22 23  2  0
 17 24  2  0
  8  3  1  0
 24 14  1  0
 23 18  1  0
  1 25  1  0
  1 26  1  0
  1 27  1  0
  4 28  1  0
  5 29  1  0
  6 30  1  0
  7 31  1  0
 12 32  1  0
 12 33  1  0
 13 34  1  0
 13 35  1  0
 15 36  1  0
 19 37  1  0
 20 38  1  0
 21 39  1  0
 22 40  1  0
 23 41  1  0
M  CHG  1  11  -1
M  END
>  <UniqueID>  (14) 
14

>  <SMILES>  (14) 
COc1ccccc1C(=O)[N-]CCc1csc(-c2ccccc2)n1

>  <Energy>  (14) 
74.30747026068127

>  <Genealogy>  (14) 
COc1ccccc1C(=O)[N-]CCc1csc(-c2ccccc2)n1 (protonated)
COc1ccccc1C(=O)[N-]CCc1csc(-c2ccccc2)n1 (3D coordinates assigned)
COc1ccccc1C(=O)[N-]CCc1csc(-c2ccccc2)n1 (optimized conformer: 74.30747026068127 kcal/mol)

>  <smiles>  (14) 
COc1ccccc1C(=O)NCCc1csc(-c2ccccc2)n1

>  <score_type>  (14) 
oracle

>  <origin>  (14) 
adg

>  <m_score__min__energy>  (14) 
-10.529999999999999

>  <m_primary>  (14) 
energy

$$$$
14:0
     RDKit          3D

 60 63  0  0  0  0  0  0  0  0999 V2000
   -5.3660   16.1830  -31.3680 C   0  0  0  0  0  0  0  0  0  0  0  0
   -6.1340   17.4360  -30.9270 C   0  0  0  0  0  0  0  0  0  0  0  0
   -7.0200   18.0150  -31.9900 N   0  0  0  0  0  0  0  0  0  0  0  0
   -8.2940   18.4660  -31.3500 C   0  0  0  0  0  0  0  0  0  0  0  0
   -9.1740   19.3210  -32.2840 C   0  0  0  0  0  0  0  0  0  0  0  0
   -7.2090   17.0120  -33.0880 C   0  0  0  0  0  0  0  0  0  0  0  0
   -6.4560   17.2800  -34.4300 C   0  0  0  0  0  0  0  0  0  0  0  0
   -6.1220   18.7050  -34.5820 N   0  0  0  0  0  0  0  0  0  0  0  0
   -5.0230   19.3350  -33.9010 C   0  0  0  0  0  0  0  0  0  0  0  0
   -3.7430   18.7560  -33.9410 C   0  0  0  0  0  0  0  0  0  0  0  0
   -3.5520   17.4610  -34.4800 C   0  0  0  0  0  0  0  0  0  0  0  0
   -2.2700   16.9250  -34.6140 C   0  0  0  0  0  0  0  0  0  0  0  0
   -1.1700   17.6430  -34.1700 C   0  0  0  0  0  0  0  0  0  0  0  0
   -1.3400   18.8980  -33.5890 C   0  0  0  0  0  0  0  0  0  0  0  0
   -2.6300   19.4970  -33.4670 C   0  0  0  0  0  0  0  0  0  0  0  0
   -2.8130   20.7660  -32.9080 N   0  0  0  0  0  0  0  0  0  0  0  0
   -1.6360   21.6510  -32.7810 C   0  0  0  0  0  0  0  0  0  0  0  0
   -4.1000   21.2360  -32.6210 C   0  0  0  0  0  0  0  0  0  0  0  0
   -5.2170   20.5420  -33.1910 C   0  0  0  0  0  0  0  0  0  0  0  0
   -6.5210   21.0520  -33.0680 C   0  0  0  0  0  0  0  0  0  0  0  0
   -6.7640   22.2620  -32.4420 C   0  0  0  0  0  0  0  0  0  0  0  0
   -5.7250   22.9590  -31.8220 C   0  0  0  0  0  0  0  0  0  0  0  0
   -6.0330   24.1610  -31.1530 C   0  0  0  0  0  0  0  0  0  0  0  0
   -5.0590   24.8400  -30.4320 C   0  0  0  0  0  0  0  0  0  0  0  0
   -3.7780   24.3030  -30.3100 C   0  0  0  0  0  0  0  0  0  0  0  0
   -2.7620   24.9300  -29.5730 O   0  0  0  0  0  0  0  0  0  0  0  0
   -2.3490   24.5580  -28.2610 C   0  0  0  0  0  0  0  0  0  0  0  0
   -3.4730   23.0890  -30.9580 C   0  0  0  0  0  0  0  0  0  0  0  0
   -4.4000   22.4300  -31.8170 C   0  0  0  0  0  0  0  0  0  0  0  0
   -5.0267   15.6294  -30.4801 H   0  0  0  0  0  0  0  0  0  0  0  0
   -6.0261   15.5413  -31.9701 H   0  0  0  0  0  0  0  0  0  0  0  0
   -4.4946   16.4800  -31.9701 H   0  0  0  0  0  0  0  0  0  0  0  0
   -6.7596   17.1715  -30.0617 H   0  0  0  0  0  0  0  0  0  0  0  0
   -5.3818   18.2022  -30.6879 H   0  0  0  0  0  0  0  0  0  0  0  0
   -6.5310   18.8480  -32.4020 H   0  0  0  0  0  0  0  0  0  0  0  0
   -8.8667   17.5771  -31.0470 H   0  0  0  0  0  0  0  0  0  0  0  0
   -8.0225   19.0958  -30.4900 H   0  0  0  0  0  0  0  0  0  0  0  0
   -9.8338   19.9620  -31.6809 H   0  0  0  0  0  0  0  0  0  0  0  0
   -8.5321   19.9496  -32.9187 H   0  0  0  0  0  0  0  0  0  0  0  0
   -9.7839   18.6613  -32.9187 H   0  0  0  0  0  0  0  0  0  0  0  0
   -6.8725   16.0362  -32.7077 H   0  0  0  0  0  0  0  0  0  0  0  0
   -8.2774   17.0663  -33.3440 H   0  0  0  0  0  0  0  0  0  0  0  0
   -5.5270   16.6911  -34.4431 H   0  0  0  0  0  0  0  0  0  0  0  0
   -7.1146   16.9878  -35.2612 H   0  0  0  0  0  0  0  0  0  0  0  0
   -6.7220   19.3030  -35.1980 H   0  0  0  0  0  0  0  0  0  0  0  0
   -4.4240   16.8701  -34.7970 H   0  0  0  0  0  0  0  0  0  0  0  0
   -2.1326   15.9341  -35.0713 H   0  0  0  0  0  0  0  0  0  0  0  0
   -0.1600   17.2205  -34.2768 H   0  0  0  0  0  0  0  0  0  0  0  0
   -0.4589   19.4403  -33.2153 H   0  0  0  0  0  0  0  0  0  0  0  0
   -1.4152   21.8170  -31.7162 H   0  0  0  0  0  0  0  0  0  0  0  0
   -0.7686   21.1795  -33.2661 H   0  0  0  0  0  0  0  0  0  0  0  0
   -1.8482   22.6152  -33.2661 H   0  0  0  0  0  0  0  0  0  0  0  0
   -7.3652   20.4779  -33.4775 H   0  0  0  0  0  0  0  0  0  0  0  0
   -7.7825   22.6775  -32.4328 H   0  0  0  0  0  0  0  0  0  0  0  0
   -7.0548   24.5653  -31.2024 H   0  0  0  0  0  0  0  0  0  0  0  0
   -5.2986   25.8026  -29.9567 H   0  0  0  0  0  0  0  0  0  0  0  0
   -2.9523   25.1014  -27.5188 H   0  0  0  0  0  0  0  0  0  0  0  0
   -2.4890   23.4754  -28.1257 H   0  0  0  0  0  0  0  0  0  0  0  0
   -1.2869   24.8101  -28.1257 H   0  0  0  0  0  0  0  0  0  0  0  0
   -2.4848   22.6342  -30.7950 H   0  0  0  0  0  0  0  0  0  0  0  0
  1  2  1  0
  2  3  1  0
  3  4  1  0
  4  5  1  0
  3  6  1  0
  6  7  1  0
  7  8  1  0
  8  9  1  0
  9 10  2  0
 10 11  1  0
 11 12  2  0
 12 13  1  0
 13 14  2  0
 14 15  1  0
 15 16  2  0
 16 17  1  0
 16 18  1  0
 18 19  2  0
 19 20  1  0
 20 21  2  0
 21 22  1  0
 22 23  2  0
 23 24  1  0
 24 25  2  0
 25 26  1  0
 26 27  1  0
 25 28  1  0
 28 29  2  0
 19  9  1  0
 29 22  1  0
 15 10  1  0
 29 18  1  0
  1 30  1  0
  1 31  1  0
  1 32  1  0
  2 33  1  0
  2 34  1  0
  3 35  1  0
  4 36  1  0
  4 37  1  0
  5 38  1  0
  5 39  1  0
  5 40  1  0
  6 41  1  0
  6 42  1  0
  7 43  1  0
  7 44  1  0
  8 45  1  0
 11 46  1  0
 12 47  1  0
 13 48  1  0
 14 49  1  0
 17 50  1  0
 17 51  1  0
 17 52  1  0
 20 53  1  0
 21 54  1  0
 23 55  1  0
 24 56  1  0
 27 57  1  0
 27 58  1  0
 27 59  1  0
 28 60  1  0
M  CHG  2   3   1  16   1
M  END
>  <UniqueID>  (15) 
15

>  <SMILES>  (15) 
CC[NH+](CC)CCNc1c2ccccc2[n+](C)c2c1ccc1ccc(OC)cc12

>  <Energy>  (15) 
118.7870481750765

>  <Genealogy>  (15) 
CC[NH+](CC)CCNc1c2ccccc2[n+](C)c2c1ccc1ccc(OC)cc12 (protonated)
CC[NH+](CC)CCNc1c2ccccc2[n+](C)c2c1ccc1ccc(OC)cc12 (3D coordinates assigned)
CC[NH+](CC)CCNc1c2ccccc2[n+](C)c2c1ccc1ccc(OC)cc12 (optimized conformer: 118.7870481750765 kcal/mol)

>  <smiles>  (15) 
CCN(CC)CCNc1c2ccccc2[n+](C)c2c1ccc1ccc(OC)cc12

>  <score_type>  (15) 
oracle

>  <origin>  (15) 
adg

>  <m_score__min__energy>  (15) 
-7.7199999999999998

>  <m_primary>  (15) 
energy

$$$$
15:0
     RDKit          3D

 47 47  0  0  0  0  0  0  0  0999 V2000
   -2.5760   24.5490  -29.2950 C   0  0  0  0  0  0  0  0  0  0  0  0
   -3.5060   25.0890  -30.2290 O   0  0  0  0  0  0  0  0  0  0  0  0
   -4.7360   24.4980  -30.5540 C   0  0  0  0  0  0  0  0  0  0  0  0
   -5.9640   25.0030  -30.0830 C   0  0  0  0  0  0  0  0  0  0  0  0
   -7.1630   24.3770  -30.4360 C   0  0  0  0  0  0  0  0  0  0  0  0
   -7.1610   23.2450  -31.2590 C   0  0  0  0  0  0  0  0  0  0  0  0
   -8.3920   22.6550  -31.5830 O   0  0  0  0  0  0  0  0  0  0  0  0
   -8.7210   21.2910  -31.3340 C   0  0  0  0  0  0  0  0  0  0  0  0
   -8.3390   20.4460  -32.5520 C   0  0  0  0  0  0  0  0  0  0  0  0
   -8.1520   18.9390  -32.2050 C   0  0  0  0  0  0  0  0  0  0  0  0
   -6.7750   18.3720  -32.3950 N   0  0  0  0  0  0  0  0  0  0  0  0
   -6.4650   17.4830  -31.2390 C   0  0  0  0  0  0  0  0  0  0  0  0
   -6.6720   17.5600  -33.6290 C   0  0  0  0  0  0  0  0  0  0  0  0
   -5.7500   19.4820  -32.3650 C   0  0  0  0  0  0  0  0  0  0  0  0
   -4.5690   19.5140  -33.3990 C   0  0  0  0  0  0  0  0  0  0  0  0
   -3.8020   20.8470  -33.4670 C   0  0  0  0  0  0  0  0  0  0  0  0
   -3.6130   18.3160  -33.3850 C   0  0  0  0  0  0  0  0  0  0  0  0
   -5.9340   22.7410  -31.7280 C   0  0  0  0  0  0  0  0  0  0  0  0
   -4.7350   23.3660  -31.3760 C   0  0  0  0  0  0  0  0  0  0  0  0
   -2.9247   24.7515  -28.2716 H   0  0  0  0  0  0  0  0  0  0  0  0
   -2.4935   23.4625  -29.4461 H   0  0  0  0  0  0  0  0  0  0  0  0
   -1.5916   25.0160  -29.4461 H   0  0  0  0  0  0  0  0  0  0  0  0
   -5.9793   25.8923  -29.4357 H   0  0  0  0  0  0  0  0  0  0  0  0
   -8.1172   24.7779  -30.0634 H   0  0  0  0  0  0  0  0  0  0  0  0
   -8.1680   20.9351  -30.4522 H   0  0  0  0  0  0  0  0  0  0  0  0
   -9.8015   21.2013  -31.1485 H   0  0  0  0  0  0  0  0  0  0  0  0
   -9.1342   20.5371  -33.3066 H   0  0  0  0  0  0  0  0  0  0  0  0
   -7.3759   20.8219  -32.9276 H   0  0  0  0  0  0  0  0  0  0  0  0
   -8.4261   18.8032  -31.1484 H   0  0  0  0  0  0  0  0  0  0  0  0
   -8.7905   18.3957  -32.9172 H   0  0  0  0  0  0  0  0  0  0  0  0
   -6.6535   18.0237  -30.2998 H   0  0  0  0  0  0  0  0  0  0  0  0
   -7.1044   16.5890  -31.2822 H   0  0  0  0  0  0  0  0  0  0  0  0
   -5.4083   17.1804  -31.2822 H   0  0  0  0  0  0  0  0  0  0  0  0
   -6.5377   16.5016  -33.3613 H   0  0  0  0  0  0  0  0  0  0  0  0
   -7.5919   17.6746  -34.2212 H   0  0  0  0  0  0  0  0  0  0  0  0
   -5.8099   17.9006  -34.2212 H   0  0  0  0  0  0  0  0  0  0  0  0
   -6.3038   20.4239  -32.4921 H   0  0  0  0  0  0  0  0  0  0  0  0
   -5.2330   19.3110  -31.4093 H   0  0  0  0  0  0  0  0  0  0  0  0
   -5.1279   19.4174  -34.3415 H   0  0  0  0  0  0  0  0  0  0  0  0
   -3.5965   21.2042  -32.4471 H   0  0  0  0  0  0  0  0  0  0  0  0
   -2.8523   20.6967  -34.0012 H   0  0  0  0  0  0  0  0  0  0  0  0
   -4.4092   21.5926  -34.0012 H   0  0  0  0  0  0  0  0  0  0  0  0
   -3.3902   18.0368  -32.3446 H   0  0  0  0  0  0  0  0  0  0  0  0
   -4.0834   17.4655  -33.9002 H   0  0  0  0  0  0  0  0  0  0  0  0
   -2.6793   18.5859  -33.9002 H   0  0  0  0  0  0  0  0  0  0  0  0
   -5.9186   21.8512  -32.3745 H   0  0  0  0  0  0  0  0  0  0  0  0
   -3.7813   22.9642  -31.7487 H   0  0  0  0  0  0  0  0  0  0  0  0
  1  2  1  0
  2  3  1  0
  3  4  2  0
  4  5  1  0
  5  6  2  0
  6  7  1  0
  7  8  1  0
  8  9  1  0
  9 10  1  0
 10 11  1  0
 11 12  1  0
 11 13  1  0
 11 14  1  0
 14 15  1  0
 15 16  1  0
 15 17  1  0
  6 18  1  0
 18 19  2  0
 19  3  1  0
  1 20  1  0
  1 21  1  0
  1 22  1  0
  4 23  1  0
  5 24  1  0
  8 25  1  0
  8 26  1  0
  9 27  1  0
  9 28  1  0
 10 29  1  0
 10 30  1  0
 12 31  1  0
 12 32  1  0
 12 33  1  0
 13 34  1  0
 13 35  1  0
 13 36  1  0
 14 37  1  0
 14 38  1  0
 15 39  1  0
 16 40  1  0
 16 41  1  0
 16 42  1  0
 17 43  1  0
 17 44  1  0
 17 45  1  0
 18 46  1  0
 19 47  1  0
M  CHG  1  11   1
M  END
>  <UniqueID>  (16) 
16

>  <SMILES>  (16) 
COc1ccc(OCCC[N+](C)(C)CC(C)C)cc1

>  <Energy>  (16) 
62.159847068413974

>  <Genealogy>  (16) 
COc1ccc(OCCC[N+](C)(C)CC(C)C)cc1 (3D coordinates assigned)
COc1ccc(OCCC[N+](C)(C)CC(C)C)cc1 (optimized conformer: 62.159847068413974 kcal/mol)

>  <smiles>  (16) 
COc1ccc(OCCC[N+](C)(C)CC(C)C)cc1

>  <score_type>  (16) 
oracle

>  <origin>  (16) 
adg

>  <m_score__min__energy>  (16) 
-6.0700000000000003

>  <m_primary>  (16) 
energy

$$$$
16:0
     RDKit          3D

 42 45  0  0  0  0  0  0  0  0999 V2000
   -6.9930   18.3830  -31.5900 C   0  0  0  0  0  0  0  0  0  0  0  0
   -6.2200   17.7250  -32.7020 C   0  0  0  0  0  0  0  0  0  0  0  0
   -6.0920   16.3250  -32.6990 C   0  0  0  0  0  0  0  0  0  0  0  0
   -5.3310   15.6790  -33.6760 C   0  0  0  0  0  0  0  0  0  0  0  0
   -4.6850   16.4220  -34.6630 C   0  0  0  0  0  0  0  0  0  0  0  0
   -4.8180   17.8110  -34.6920 C   0  0  0  0  0  0  0  0  0  0  0  0
   -5.6150   18.4730  -33.7460 C   0  0  0  0  0  0  0  0  0  0  0  0
   -5.7810   19.8960  -33.8660 N   0  0  0  0  0  0  0  0  0  0  0  0
   -5.1930   20.8500  -32.9640 C   0  0  0  0  0  0  0  0  0  0  0  0
   -3.8170   20.9650  -32.7130 C   0  0  0  0  0  0  0  0  0  0  0  0
   -2.7400   20.0860  -33.2030 C   0  0  0  0  0  0  0  0  0  0  0  0
   -2.6130   18.7750  -32.7180 C   0  0  0  0  0  0  0  0  0  0  0  0
   -1.6010   17.9400  -33.2020 C   0  0  0  0  0  0  0  0  0  0  0  0
   -0.7010   18.4140  -34.1600 C   0  0  0  0  0  0  0  0  0  0  0  0
   -0.8070   19.7270  -34.6300 C   0  0  0  0  0  0  0  0  0  0  0  0
   -1.8190   20.5630  -34.1480 C   0  0  0  0  0  0  0  0  0  0  0  0
   -3.5660   22.2770  -31.6830 S   0  0  0  0  0  0  0  0  0  0  0  0
   -5.1890   22.6980  -31.5170 C   0  0  0  0  0  0  0  0  0  0  0  0
   -5.7690   23.7540  -30.7880 C   0  0  0  0  0  0  0  0  0  0  0  0
   -4.9860   24.6650  -29.9900 N   0  0  0  0  0  0  0  0  0  0  0  0
   -5.2730   24.8580  -28.7900 O   0  0  0  0  0  0  0  0  0  0  0  0
   -3.8820   25.3010  -30.5080 O   0  0  0  0  0  0  0  0  0  0  0  0
   -7.1710   23.8990  -30.8670 C   0  0  0  0  0  0  0  0  0  0  0  0
   -7.9450   23.0210  -31.6440 C   0  0  0  0  0  0  0  0  0  0  0  0
   -7.3410   21.9780  -32.3580 C   0  0  0  0  0  0  0  0  0  0  0  0
   -5.9530   21.8190  -32.2830 C   0  0  0  0  0  0  0  0  0  0  0  0
   -6.5980   18.0468  -30.6200 H   0  0  0  0  0  0  0  0  0  0  0  0
   -6.8907   19.4754  -31.6688 H   0  0  0  0  0  0  0  0  0  0  0  0
   -8.0550   18.1076  -31.6688 H   0  0  0  0  0  0  0  0  0  0  0  0
   -6.5956   15.7332  -31.9204 H   0  0  0  0  0  0  0  0  0  0  0  0
   -5.2413   14.5827  -33.6666 H   0  0  0  0  0  0  0  0  0  0  0  0
   -4.0699   15.9130  -35.4197 H   0  0  0  0  0  0  0  0  0  0  0  0
   -4.2928   18.3924  -35.4641 H   0  0  0  0  0  0  0  0  0  0  0  0
   -6.4370   20.2530  -34.5960 H   0  0  0  0  0  0  0  0  0  0  0  0
   -3.3120   18.4030  -31.9544 H   0  0  0  0  0  0  0  0  0  0  0  0
   -1.5134   16.9092  -32.8282 H   0  0  0  0  0  0  0  0  0  0  0  0
    0.0909   17.7544  -34.5445 H   0  0  0  0  0  0  0  0  0  0  0  0
   -0.0941   20.1021  -35.3790 H   0  0  0  0  0  0  0  0  0  0  0  0
   -1.8934   21.5987  -34.5111 H   0  0  0  0  0  0  0  0  0  0  0  0
   -7.6643   24.7108  -30.3124 H   0  0  0  0  0  0  0  0  0  0  0  0
   -9.0359   23.1538  -31.6922 H   0  0  0  0  0  0  0  0  0  0  0  0
   -7.9490   21.2942  -32.9685 H   0  0  0  0  0  0  0  0  0  0  0  0
  1  2  1  0
  2  3  2  0
  3  4  1  0
  4  5  2  0
  5  6  1  0
  6  7  2  0
  7  8  1  0
  8  9  1  0
  9 10  2  0
 10 11  1  0
 11 12  2  0
 12 13  1  0
 13 14  2  0
 14 15  1  0
 15 16  2  0
 10 17  1  0
 17 18  1  0
 18 19  2  0
 19 20  1  0
 20 21  2  0
 20 22  1  0
 19 23  1  0
 23 24  2  0
 24 25  1  0
 25 26  2  0
  7  2  1  0
 26  9  1  0
 16 11  1  0
 26 18  1  0
  1 27  1  0
  1 28  1  0
  1 29  1  0
  3 30  1  0
  4 31  1  0
  5 32  1  0
  6 33  1  0
  8 34  1  0
 12 35  1  0
 13 36  1  0
 14 37  1  0
 15 38  1  0
 16 39  1  0
 23 40  1  0
 24 41  1  0
 25 42  1  0
M  CHG  2  20   1  22  -1
M  END
>  <UniqueID>  (17) 
17

>  <SMILES>  (17) 
Cc1ccccc1Nc1c(-c2ccccc2)sc2c([N+](=O)[O-])cccc12

>  <Energy>  (17) 
91.2008065262004

>  <Genealogy>  (17) 
Cc1ccccc1Nc1c(-c2ccccc2)sc2c([N+](=O)[O-])cccc12 (3D coordinates assigned)
Cc1ccccc1Nc1c(-c2ccccc2)sc2c([N+](=O)[O-])cccc12 (optimized conformer: 91.2008065262004 kcal/mol)

>  <smiles>  (17) 
Cc1ccccc1Nc1c(-c2ccccc2)sc2c([N+](=O)[O-])cccc12

>  <score_type>  (17) 
oracle

>  <origin>  (17) 
adg

>  <m_score__min__energy>  (17) 
-9.3599999999999994

>  <m_primary>  (17) 
energy

$$$$
17:0
     RDKit          3D

 58 60  0  0  0  0  0  0  0  0999 V2000
   -9.4930   20.5240  -32.2780 C   0  0  0  0  0  0  0  0  0  0  0  0
   -8.3150   20.1150  -31.5810 O   0  0  0  0  0  0  0  0  0  0  0  0
   -7.2400   19.4310  -32.1670 C   0  0  0  0  0  0  0  0  0  0  0  0
   -7.2140   18.0290  -32.2650 C   0  0  0  0  0  0  0  0  0  0  0  0
   -6.1240   17.3790  -32.8560 C   0  0  0  0  0  0  0  0  0  0  0  0
   -5.0540   18.1130  -33.3580 C   0  0  0  0  0  0  0  0  0  0  0  0
   -3.5710   17.2160  -34.1690 Br  0  0  0  0  0  0  0  0  0  0  0  0
   -5.0590   19.5080  -33.2670 C   0  0  0  0  0  0  0  0  0  0  0  0
   -6.1470   20.1760  -32.6730 C   0  0  0  0  0  0  0  0  0  0  0  0
   -6.1440   21.6870  -32.6210 C   0  0  0  0  0  0  0  0  0  0  0  0
   -6.0460   22.1770  -31.2380 N   0  0  0  0  0  0  0  0  0  0  0  0
   -7.2870   22.5060  -30.5220 C   0  0  0  0  0  0  0  0  0  0  0  0
   -7.2410   23.8280  -29.7480 C   0  0  0  0  0  0  0  0  0  0  0  0
   -6.5240   24.9430  -30.5220 C   0  0  0  0  0  0  0  0  0  0  0  0
   -5.0220   25.0020  -30.2110 C   0  0  0  0  0  0  0  0  0  0  0  0
   -4.1460   23.8620  -30.7740 C   0  0  1  0  0  0  0  0  0  0  0  0
   -2.7700   23.9110  -30.2720 N   0  0  0  0  0  0  0  0  0  0  0  0
   -2.2670   24.4740  -29.0540 C   0  0  0  0  0  0  0  0  0  0  0  0
   -1.6360   25.5620  -29.0460 O   0  0  0  0  0  0  0  0  0  0  0  0
   -2.4750   23.7290  -27.7690 C   0  0  0  0  0  0  0  0  0  0  0  0
   -1.1850   23.0320  -27.3200 C   0  0  0  0  0  0  0  0  0  0  0  0
   -1.1800   21.5990  -27.6930 N   0  0  0  0  0  0  0  0  0  0  0  0
    0.2040   21.0790  -27.7700 C   0  0  0  0  0  0  0  0  0  0  0  0
    0.2000   19.5960  -28.1980 C   0  0  0  0  0  0  0  0  0  0  0  0
   -1.1030   19.0510  -28.2240 O   0  0  0  0  0  0  0  0  0  0  0  0
   -1.7420   19.2810  -26.9840 C   0  0  0  0  0  0  0  0  0  0  0  0
   -1.9720   20.7850  -26.7470 C   0  0  0  0  0  0  0  0  0  0  0  0
   -4.7430   22.4730  -30.7100 C   0  0  0  0  0  0  0  0  0  0  0  0
   -4.1290   21.5800  -30.0640 O   0  0  0  0  0  0  0  0  0  0  0  0
  -10.2734   20.7949  -31.5516 H   0  0  0  0  0  0  0  0  0  0  0  0
   -9.2618   21.3945  -32.9095 H   0  0  0  0  0  0  0  0  0  0  0  0
   -9.8509   19.6975  -32.9095 H   0  0  0  0  0  0  0  0  0  0  0  0
   -8.0560   17.4385  -31.8746 H   0  0  0  0  0  0  0  0  0  0  0  0
   -6.1135   16.2811  -32.9239 H   0  0  0  0  0  0  0  0  0  0  0  0
   -4.2099   20.0859  -33.6608 H   0  0  0  0  0  0  0  0  0  0  0  0
   -5.2846   22.0630  -33.1955 H   0  0  0  0  0  0  0  0  0  0  0  0
   -7.0897   22.0496  -33.0501 H   0  0  0  0  0  0  0  0  0  0  0  0
   -8.1027   22.5664  -31.2575 H   0  0  0  0  0  0  0  0  0  0  0  0
   -7.4390   21.7114  -29.7766 H   0  0  0  0  0  0  0  0  0  0  0  0
   -8.2720   24.1505  -29.5407 H   0  0  0  0  0  0  0  0  0  0  0  0
   -6.6760   23.6508  -28.8210 H   0  0  0  0  0  0  0  0  0  0  0  0
   -6.6544   24.7646  -31.5996 H   0  0  0  0  0  0  0  0  0  0  0  0
   -6.9670   25.9017  -30.2144 H   0  0  0  0  0  0  0  0  0  0  0  0
   -4.6358   25.9488  -30.6164 H   0  0  0  0  0  0  0  0  0  0  0  0
   -4.9518   24.9039  -29.1176 H   0  0  0  0  0  0  0  0  0  0  0  0
   -4.1129   24.0724  -31.8532 H   0  0  0  0  0  0  0  0  0  0  0  0
   -2.7902   24.4382  -26.9895 H   0  0  0  0  0  0  0  0  0  0  0  0
   -3.2480   22.9632  -27.9303 H   0  0  0  0  0  0  0  0  0  0  0  0
   -0.3269   23.5279  -27.7973 H   0  0  0  0  0  0  0  0  0  0  0  0
   -1.1203   23.1019  -26.2241 H   0  0  0  0  0  0  0  0  0  0  0  0
    0.7714   21.6670  -28.5064 H   0  0  0  0  0  0  0  0  0  0  0  0
    0.6715   21.1622  -26.7778 H   0  0  0  0  0  0  0  0  0  0  0  0
    0.6372   19.5167  -29.2043 H   0  0  0  0  0  0  0  0  0  0  0  0
    0.7877   19.0303  -27.4601 H   0  0  0  0  0  0  0  0  0  0  0  0
   -2.7131   18.7644  -26.9794 H   0  0  0  0  0  0  0  0  0  0  0  0
   -1.0947   18.8968  -26.1819 H   0  0  0  0  0  0  0  0  0  0  0  0
   -3.0396   21.0114  -26.8844 H   0  0  0  0  0  0  0  0  0  0  0  0
   -1.6539   21.0304  -25.7230 H   0  0  0  0  0  0  0  0  0  0  0  0
  1  2  1  0
  2  3  1  0
  3  4  2  0
  4  5  1  0
  5  6  2  0
  6  7  1  0
  6  8  1  0
  8  9  2  0
  9 10  1  0
 10 11  1  0
 11 12  1  0
 12 13  1  0
 13 14  1  0
 14 15  1  0
 15 16  1  0
 16 17  1  0
 17 18  1  0
 18 19  2  0
 18 20  1  0
 20 21  1  0
 21 22  1  0
 22 23  1  0
 23 24  1  0
 24 25  1  0
 25 26  1  0
 26 27  1  0
 16 28  1  0
 28 29  2  0
  9  3  1  0
 28 11  1  0
 27 22  1  0
  1 30  1  0
  1 31  1  0
  1 32  1  0
  4 33  1  0
  5 34  1  0
  8 35  1  0
 10 36  1  0
 10 37  1  0
 12 38  1  0
 12 39  1  0
 13 40  1  0
 13 41  1  0
 14 42  1  0
 14 43  1  0
 15 44  1  0
 15 45  1  0
 16 46  1  6
 20 47  1  0
 20 48  1  0
 21 49  1  0
 21 50  1  0
 23 51  1  0
 23 52  1  0
 24 53  1  0
 24 54  1  0
 26 55  1  0
 26 56  1  0
 27 57  1  0
 27 58  1  0
M  CHG  1  17  -1
M  END
>  <UniqueID>  (18) 
18

>  <SMILES>  (18) 
COc1ccc(Br)cc1CN1CCCC[C@@H]([N-]C(=O)CCN2CCOCC2)C1=O

>  <Energy>  (18) 
73.40214607752789

>  <Genealogy>  (18) 
COc1ccc(Br)cc1CN1CCCCC([N-]C(=O)CCN2CCOCC2)C1=O (protonated)
COc1ccc(Br)cc1CN1CCCC[C@@H]([N-]C(=O)CCN2CCOCC2)C1=O (chirality)
COc1ccc(Br)cc1CN1CCCC[C@@H]([N-]C(=O)CCN2CCOCC2)C1=O (3D coordinates assigned)
COc1ccc(Br)cc1CN1CCCC[C@@H]([N-]C(=O)CCN2CCOCC2)C1=O (nonaromatic ring conformer: 73.40214607752789 kcal/mol)

>  <smiles>  (18) 
COc1ccc(Br)cc1CN1CCCCC(NC(=O)CCN2CCOCC2)C1=O

>  <score_type>  (18) 
oracle

>  <origin>  (18) 
adg

>  <m_score__min__energy>  (18) 
-8.3399999999999999

>  <m_primary>  (18) 
energy

$$$$
18:0
     RDKit          3D

 46 48  0  0  0  0  0  0  0  0999 V2000
   -5.2240   18.5510  -34.2990 C   0  0  0  0  0  0  0  0  0  0  0  0
   -6.2460   19.0660  -33.3300 C   0  0  0  0  0  0  0  0  0  0  0  0
   -7.4210   18.3410  -33.0910 C   0  0  0  0  0  0  0  0  0  0  0  0
   -8.3880   18.8400  -32.2160 C   0  0  0  0  0  0  0  0  0  0  0  0
   -8.1970   20.0700  -31.5820 C   0  0  0  0  0  0  0  0  0  0  0  0
   -7.0310   20.8210  -31.8230 C   0  0  0  0  0  0  0  0  0  0  0  0
   -6.8070   22.1350  -31.1740 C   0  0  0  0  0  0  0  0  0  0  0  0
   -6.0530   23.1360  -31.6810 N   0  0  0  0  0  0  0  0  0  0  0  0
   -6.1330   24.1130  -30.7620 C   0  0  0  0  0  0  0  0  0  0  0  0
   -5.3810   25.4070  -30.8250 C   0  0  0  0  0  0  0  0  0  0  0  0
   -3.9700   25.1810  -30.4920 N   0  0  0  0  0  0  0  0  0  0  0  0
   -3.7990   24.0820  -29.5250 C   0  0  0  0  0  0  0  0  0  0  0  0
   -2.6320   23.1600  -29.9320 C   0  0  2  0  0  0  0  0  0  0  0  0
   -3.0790   22.0510  -30.8890 C   0  0  0  0  0  0  0  0  0  0  0  0
   -3.2740   20.8140  -30.0310 C   0  0  0  0  0  0  0  0  0  0  0  0
   -2.2660   20.9490  -28.8900 C   0  0  2  0  0  0  0  0  0  0  0  0
   -2.7760   20.3070  -27.5950 C   0  0  0  0  0  0  0  0  0  0  0  0
   -1.9840   22.4510  -28.7300 C   0  0  0  0  0  0  0  0  0  0  0  0
   -6.9210   23.6790  -29.7200 C   0  0  0  0  0  0  0  0  0  0  0  0
   -7.3240   22.4630  -30.0070 O   0  0  0  0  0  0  0  0  0  0  0  0
   -6.0630   20.3110  -32.7050 C   0  0  0  0  0  0  0  0  0  0  0  0
   -4.3756   18.1235  -33.7445 H   0  0  0  0  0  0  0  0  0  0  0  0
   -5.6775   17.7738  -34.9317 H   0  0  0  0  0  0  0  0  0  0  0  0
   -4.8692   19.3779  -34.9317 H   0  0  0  0  0  0  0  0  0  0  0  0
   -7.5821   17.3761  -33.5941 H   0  0  0  0  0  0  0  0  0  0  0  0
   -9.3042   18.2620  -32.0251 H   0  0  0  0  0  0  0  0  0  0  0  0
   -8.9618   20.4538  -30.8908 H   0  0  0  0  0  0  0  0  0  0  0  0
   -5.5050   23.1580  -32.5680 H   0  0  0  0  0  0  0  0  0  0  0  0
   -5.4540   25.8223  -31.8410 H   0  0  0  0  0  0  0  0  0  0  0  0
   -5.8150   26.1138  -30.1025 H   0  0  0  0  0  0  0  0  0  0  0  0
   -3.4720   24.9220  -31.3750 H   0  0  0  0  0  0  0  0  0  0  0  0
   -3.5916   24.5067  -28.5317 H   0  0  0  0  0  0  0  0  0  0  0  0
   -4.7238   23.4868  -29.5060 H   0  0  0  0  0  0  0  0  0  0  0  0
   -1.9103   23.8350  -30.4153 H   0  0  0  0  0  0  0  0  0  0  0  0
   -4.0230   22.3279  -31.3811 H   0  0  0  0  0  0  0  0  0  0  0  0
   -2.3368   21.8790  -31.6824 H   0  0  0  0  0  0  0  0  0  0  0  0
   -4.3000   20.7774  -29.6359 H   0  0  0  0  0  0  0  0  0  0  0  0
   -3.1201   19.8888  -30.6058 H   0  0  0  0  0  0  0  0  0  0  0  0
   -1.3366   20.4085  -29.1227 H   0  0  0  0  0  0  0  0  0  0  0  0
   -2.3530   20.8395  -26.7304 H   0  0  0  0  0  0  0  0  0  0  0  0
   -3.8738   20.3690  -27.5626 H   0  0  0  0  0  0  0  0  0  0  0  0
   -2.4673   19.2517  -27.5626 H   0  0  0  0  0  0  0  0  0  0  0  0
   -2.4234   22.8202  -27.7916 H   0  0  0  0  0  0  0  0  0  0  0  0
   -0.9020   22.6461  -28.6953 H   0  0  0  0  0  0  0  0  0  0  0  0
   -7.1682   24.2480  -28.8116 H   0  0  0  0  0  0  0  0  0  0  0  0
   -5.1520   20.8930  -32.9083 H   0  0  0  0  0  0  0  0  0  0  0  0
  1  2  1  0
  2  3  2  0
  3  4  1  0
  4  5  2  0
  5  6  1  0
  6  7  1  0
  7  8  2  0
  8  9  1  0
  9 10  1  0
 10 11  1  0
 11 12  1  0
 12 13  1  0
 13 14  1  0
 14 15  1  0
 15 16  1  0
 16 17  1  0
 16 18  1  0
  9 19  2  0
 19 20  1  0
  6 21  2  0
 21  2  1  0
 20  7  1  0
 18 13  1  0
  1 22  1  0
  1 23  1  0
  1 24  1  0
  3 25  1  0
  4 26  1  0
  5 27  1  0
  8 28  1  0
 10 29  1  0
 10 30  1  0
 11 31  1  0
 12 32  1  0
 12 33  1  0
 13 34  1  6
 14 35  1  0
 14 36  1  0
 15 37  1  0
 15 38  1  0
 16 39  1  6
 17 40  1  0
 17 41  1  0
 17 42  1  0
 18 43  1  0
 18 44  1  0
 19 45  1  0
 21 46  1  0
M  CHG  1   8   1
M  END
>  <UniqueID>  (19) 
19

>  <SMILES>  (19) 
Cc1cccc(-c2[nH+]c(CNC[C@@H]3CC[C@H](C)C3)co2)c1

>  <Energy>  (19) 
74.09317886882545

>  <Genealogy>  (19) 
Cc1cccc(-c2[nH+]c(CNCC3CCC(C)C3)co2)c1 (protonated)
Cc1cccc(-c2[nH+]c(CNC[C@@H]3CC[C@H](C)C3)co2)c1 (chirality)
Cc1cccc(-c2[nH+]c(CNC[C@@H]3CC[C@H](C)C3)co2)c1 (3D coordinates assigned)
Cc1cccc(-c2[nH+]c(CNC[C@@H]3CC[C@H](C)C3)co2)c1 (nonaromatic ring conformer: 74.09317886882545 kcal/mol)

>  <smiles>  (19) 
Cc1cccc(-c2nc(CNCC3CCC(C)C3)co2)c1

>  <score_type>  (19) 
oracle

>  <origin>  (19) 
adg

>  <m_score__min__energy>  (19) 
-7.6500000000000004

>  <m_primary>  (19) 
energy

$$$$
19:0
     RDKit          3D

 44 45  0  0  0  0  0  0  0  0999 V2000
   -1.8060   25.4970  -26.9080 C   0  0  0  0  0  0  0  0  0  0  0  0
   -1.2330   25.9260  -28.2490 C   0  0  0  0  0  0  0  0  0  0  0  0
   -1.9790   25.2920  -29.3280 N   0  0  0  0  0  0  0  0  0  0  0  0
   -2.1420   23.8740  -29.4250 C   0  0  0  0  0  0  0  0  0  0  0  0
   -1.3260   23.1080  -28.8390 O   0  0  0  0  0  0  0  0  0  0  0  0
   -3.2120   23.3350  -30.2300 N   0  0  1  0  0  0  0  0  0  0  0  0
   -3.4400   21.8950  -29.9740 C   0  0  0  0  0  0  0  0  0  0  0  0
   -3.7560   21.0820  -31.2120 C   0  0  0  0  0  0  0  0  0  0  0  0
   -4.8700   20.2250  -31.2370 C   0  0  0  0  0  0  0  0  0  0  0  0
   -5.1630   19.4820  -32.3850 C   0  0  0  0  0  0  0  0  0  0  0  0
   -4.3570   19.5990  -33.5200 C   0  0  0  0  0  0  0  0  0  0  0  0
   -3.2590   20.4620  -33.5120 C   0  0  0  0  0  0  0  0  0  0  0  0
   -2.9620   21.2060  -32.3660 C   0  0  0  0  0  0  0  0  0  0  0  0
   -4.6680   24.2950  -30.0940 S   0  0  0  0  0  0  0  0  0  0  0  0
   -4.5310   25.5910  -30.8440 O   0  0  0  0  0  0  0  0  0  0  0  0
   -4.9460   24.6050  -28.6490 O   0  0  0  0  0  0  0  0  0  0  0  0
   -6.0210   23.3790  -30.7530 C   0  0  0  0  0  0  0  0  0  0  0  0
   -6.1810   23.2470  -32.1390 C   0  0  0  0  0  0  0  0  0  0  0  0
   -7.2420   22.4970  -32.6570 C   0  0  0  0  0  0  0  0  0  0  0  0
   -8.1550   21.8660  -31.7890 C   0  0  0  0  0  0  0  0  0  0  0  0
   -9.2350   21.1040  -32.2600 O   0  0  0  0  0  0  0  0  0  0  0  0
   -9.1900   19.6970  -32.4820 C   0  0  0  0  0  0  0  0  0  0  0  0
   -7.9840   21.9970  -30.4060 C   0  0  0  0  0  0  0  0  0  0  0  0
   -6.9230   22.7460  -29.8890 C   0  0  0  0  0  0  0  0  0  0  0  0
   -1.2118   25.9419  -26.0962 H   0  0  0  0  0  0  0  0  0  0  0  0
   -2.8487   25.8383  -26.8287 H   0  0  0  0  0  0  0  0  0  0  0  0
   -1.7721   24.4004  -26.8287 H   0  0  0  0  0  0  0  0  0  0  0  0
   -1.3082   27.0192  -28.3458 H   0  0  0  0  0  0  0  0  0  0  0  0
   -0.1777   25.6213  -28.3081 H   0  0  0  0  0  0  0  0  0  0  0  0
   -2.9160   23.4180  -31.2310 H   0  0  0  0  0  0  0  0  0  0  0  0
   -2.5322   21.4797  -29.5121 H   0  0  0  0  0  0  0  0  0  0  0  0
   -4.3225   21.8281  -29.3207 H   0  0  0  0  0  0  0  0  0  0  0  0
   -5.5142   20.1384  -30.3496 H   0  0  0  0  0  0  0  0  0  0  0  0
   -6.0295   18.8044  -32.3943 H   0  0  0  0  0  0  0  0  0  0  0  0
   -4.5873   19.0110  -34.4207 H   0  0  0  0  0  0  0  0  0  0  0  0
   -2.6275   20.5565  -34.4077 H   0  0  0  0  0  0  0  0  0  0  0  0
   -2.1023   21.8923  -32.3671 H   0  0  0  0  0  0  0  0  0  0  0  0
   -5.4698   23.7348  -32.8218 H   0  0  0  0  0  0  0  0  0  0  0  0
   -7.3640   22.3995  -33.7459 H   0  0  0  0  0  0  0  0  0  0  0  0
   -9.1733   19.1735  -31.5147 H   0  0  0  0  0  0  0  0  0  0  0  0
  -10.0787   19.3870  -33.0513 H   0  0  0  0  0  0  0  0  0  0  0  0
   -8.2833   19.4444  -33.0513 H   0  0  0  0  0  0  0  0  0  0  0  0
   -8.6904   21.5065  -29.7202 H   0  0  0  0  0  0  0  0  0  0  0  0
   -6.7963   22.8384  -28.8002 H   0  0  0  0  0  0  0  0  0  0  0  0
  1  2  1  0
  2  3  1  0
  3  4  1  0
  4  5  2  0
  4  6  1  0
  6  7  1  0
  7  8  1  0
  8  9  2  0
  9 10  1  0
 10 11  2  0
 11 12  1  0
 12 13  2  0
  6 14  1  0
 14 15  2  0
 14 16  2  0
 14 17  1  0
 17 18  2  0
 18 19  1  0
 19 20  2  0
 20 21  1  0
 21 22  1  0
 20 23  1  0
 23 24  2  0
 13  8  1  0
 24 17  1  0
  1 25  1  0
  1 26  1  0
  1 27  1  0
  2 28  1  0
  2 29  1  0
  6 30  1  6
  7 31  1  0
  7 32  1  0
  9 33  1  0
 10 34  1  0
 11 35  1  0
 12 36  1  0
 13 37  1  0
 18 38  1  0
 19 39  1  0
 22 40  1  0
 22 41  1  0
 22 42  1  0
 23 43  1  0
 24 44  1  0
M  CHG  2   3  -1   6   1
M  END
>  <UniqueID>  (20) 
20

>  <SMILES>  (20) 
CC[N-]C(=O)[N@@H+](Cc1ccccc1)S(=O)(=O)c1ccc(OC)cc1

>  <Energy>  (20) 
41.019584240749055

>  <Genealogy>  (20) 
CC[N-]C(=O)[NH+](Cc1ccccc1)S(=O)(=O)c1ccc(OC)cc1 (protonated)
CC[N-]C(=O)[N@@H+](Cc1ccccc1)S(=O)(=O)c1ccc(OC)cc1 (chirality)
CC[N-]C(=O)[N@@H+](Cc1ccccc1)S(=O)(=O)c1ccc(OC)cc1 (3D coordinates assigned)
CC[N-]C(=O)[N@@H+](Cc1ccccc1)S(=O)(=O)c1ccc(OC)cc1 (optimized conformer: 41.019584240749055 kcal/mol)

>  <smiles>  (20) 
CCNC(=O)N(Cc1ccccc1)S(=O)(=O)c1ccc(OC)cc1

>  <score_type>  (20) 
oracle

>  <origin>  (20) 
adg

>  <m_score__min__energy>  (20) 
-8.4199999999999999

>  <m_primary>  (20) 
energy

$$$$
20:0
     RDKit          3D

 59 62  0  0  0  0  0  0  0  0999 V2000
   -5.3760   16.7790  -31.8360 C   0  0  0  0  0  0  0  0  0  0  0  0
   -5.7810   18.1100  -32.4120 C   0  0  0  0  0  0  0  0  0  0  0  0
   -7.1450   18.4500  -32.4420 C   0  0  0  0  0  0  0  0  0  0  0  0
   -7.5720   19.6760  -32.9820 C   0  0  0  0  0  0  0  0  0  0  0  0
   -8.9640   20.0500  -33.0120 N   0  0  0  0  0  0  0  0  0  0  0  0
   -9.5750   20.9530  -32.0330 C   0  0  0  0  0  0  0  0  0  0  0  0
   -8.5690   21.9530  -31.5320 C   0  0  0  0  0  0  0  0  0  0  0  0
   -7.9820   21.7930  -30.2670 C   0  0  0  0  0  0  0  0  0  0  0  0
   -7.0210   22.7020  -29.8160 C   0  0  0  0  0  0  0  0  0  0  0  0
   -6.6260   23.7730  -30.6280 C   0  0  0  0  0  0  0  0  0  0  0  0
   -5.4260   24.9210  -30.0430 S   0  0  0  0  0  0  0  0  0  0  0  0
   -4.8920   24.4520  -28.4670 N   0  0  0  0  0  0  0  0  0  0  0  0
   -4.2540   24.9460  -30.9840 O   0  0  0  0  0  0  0  0  0  0  0  0
   -6.0200   26.3000  -29.9780 O   0  0  0  0  0  0  0  0  0  0  0  0
   -7.2030   23.9300  -31.8950 C   0  0  0  0  0  0  0  0  0  0  0  0
   -8.1630   23.0210  -32.3490 C   0  0  0  0  0  0  0  0  0  0  0  0
   -6.6170   20.5580  -33.5040 C   0  0  0  0  0  0  0  0  0  0  0  0
   -5.2630   20.2220  -33.4970 C   0  0  0  0  0  0  0  0  0  0  0  0
   -4.8350   18.9980  -32.9720 C   0  0  0  0  0  0  0  0  0  0  0  0
   -3.0740   18.6200  -33.0200 S   0  0  0  0  0  0  0  0  0  0  0  0
   -2.6550   19.8900  -31.8250 C   0  0  0  0  0  0  0  0  0  0  0  0
   -3.6610   20.5010  -31.0680 C   0  0  0  0  0  0  0  0  0  0  0  0
   -3.3360   21.4930  -30.1380 C   0  0  0  0  0  0  0  0  0  0  0  0
   -1.9990   21.8820  -29.9510 C   0  0  0  0  0  0  0  0  0  0  0  0
   -1.6670   22.8980  -28.9840 N   0  0  0  0  0  0  0  0  0  0  0  0
   -2.3240   22.8970  -27.6710 C   0  0  0  0  0  0  0  0  0  0  0  0
   -2.0450   24.2090  -26.9350 C   0  0  0  0  0  0  0  0  0  0  0  0
   -2.0530   25.2760  -27.8590 O   0  0  0  0  0  0  0  0  0  0  0  0
   -0.8800   25.2380  -28.6560 C   0  0  0  0  0  0  0  0  0  0  0  0
   -0.5720   23.8410  -29.2450 C   0  0  0  0  0  0  0  0  0  0  0  0
   -0.9910   21.2470  -30.6980 C   0  0  0  0  0  0  0  0  0  0  0  0
   -1.3190   20.2560  -31.6280 C   0  0  0  0  0  0  0  0  0  0  0  0
   -5.3929   16.8344  -30.7375 H   0  0  0  0  0  0  0  0  0  0  0  0
   -6.0789   16.0037  -32.1748 H   0  0  0  0  0  0  0  0  0  0  0  0
   -4.3604   16.5266  -32.1748 H   0  0  0  0  0  0  0  0  0  0  0  0
   -7.8883   17.7472  -32.0375 H   0  0  0  0  0  0  0  0  0  0  0  0
   -9.5610   19.6600  -33.7770 H   0  0  0  0  0  0  0  0  0  0  0  0
  -10.4106   21.4882  -32.5076 H   0  0  0  0  0  0  0  0  0  0  0  0
   -9.9372   20.3585  -31.1813 H   0  0  0  0  0  0  0  0  0  0  0  0
   -8.2796   20.9486  -29.6280 H   0  0  0  0  0  0  0  0  0  0  0  0
   -6.5729   22.5760  -28.8193 H   0  0  0  0  0  0  0  0  0  0  0  0
   -5.7150   24.5410  -27.8290 H   0  0  0  0  0  0  0  0  0  0  0  0
   -4.1940   25.1650  -28.1580 H   0  0  0  0  0  0  0  0  0  0  0  0
   -6.8995   24.7717  -32.5349 H   0  0  0  0  0  0  0  0  0  0  0  0
   -8.6023   23.1426  -33.3501 H   0  0  0  0  0  0  0  0  0  0  0  0
   -6.9373   21.5234  -33.9228 H   0  0  0  0  0  0  0  0  0  0  0  0
   -4.5249   20.9263  -33.9082 H   0  0  0  0  0  0  0  0  0  0  0  0
   -4.7101   20.2000  -31.2050 H   0  0  0  0  0  0  0  0  0  0  0  0
   -4.1321   21.9719  -29.5490 H   0  0  0  0  0  0  0  0  0  0  0  0
   -3.4093   22.7822  -27.8087 H   0  0  0  0  0  0  0  0  0  0  0  0
   -1.9286   22.0617  -27.0744 H   0  0  0  0  0  0  0  0  0  0  0  0
   -2.8225   24.3759  -26.1750 H   0  0  0  0  0  0  0  0  0  0  0  0
   -1.0612   24.1539  -26.4460 H   0  0  0  0  0  0  0  0  0  0  0  0
   -1.0030   25.9463  -29.4886 H   0  0  0  0  0  0  0  0  0  0  0  0
   -0.0375   25.5027  -28.0001 H   0  0  0  0  0  0  0  0  0  0  0  0
   -0.4306   23.9338  -30.3319 H   0  0  0  0  0  0  0  0  0  0  0  0
    0.3396   23.4555  -28.7651 H   0  0  0  0  0  0  0  0  0  0  0  0
    0.0612   21.5315  -30.5498 H   0  0  0  0  0  0  0  0  0  0  0  0
   -0.5243   19.7625  -32.2066 H   0  0  0  0  0  0  0  0  0  0  0  0
  1  2  1  0
  2  3  2  0
  3  4  1  0
  4  5  1  0
  5  6  1  0
  6  7  1  0
  7  8  2  0
  8  9  1  0
  9 10  2  0
 10 11  1  0
 11 12  1  0
 11 13  2  0
 11 14  2  0
 10 15  1  0
 15 16  2  0
  4 17  2  0
 17 18  1  0
 18 19  2  0
 19 20  1  0
 20 21  1  0
 21 22  2  0
 22 23  1  0
 23 24  2  0
 24 25  1  0
 25 26  1  0
 26 27  1  0
 27 28  1  0
 28 29  1  0
 29 30  1  0
 24 31  1  0
 31 32  2  0
 19  2  1  0
 32 21  1  0
 16  7  1  0
 30 25  1  0
  1 33  1  0
  1 34  1  0
  1 35  1  0
  3 36  1  0
  5 37  1  0
  6 38  1  0
  6 39  1  0
  8 40  1  0
  9 41  1  0
 12 42  1  0
 12 43  1  0
 15 44  1  0
 16 45  1  0
 17 46  1  0
 18 47  1  0
 22 48  1  0
 23 49  1  0
 26 50  1  0
 26 51  1  0
 27 52  1  0
 27 53  1  0
 29 54  1  0
 29 55  1  0
 30 56  1  0
 30 57  1  0
 31 58  1  0
 32 59  1  0
M  END
>  <UniqueID>  (21) 
21

>  <SMILES>  (21) 
Cc1cc(NCc2ccc(S(N)(=O)=O)cc2)ccc1Sc1ccc(N2CCOCC2)cc1

>  <Energy>  (21) 
67.05217250973878

>  <Genealogy>  (21) 
Cc1cc(NCc2ccc(S(N)(=O)=O)cc2)ccc1Sc1ccc(N2CCOCC2)cc1 (3D coordinates assigned)
Cc1cc(NCc2ccc(S(N)(=O)=O)cc2)ccc1Sc1ccc(N2CCOCC2)cc1 (nonaromatic ring conformer: 67.05217250973878 kcal/mol)

>  <smiles>  (21) 
Cc1cc(NCc2ccc(S(N)(=O)=O)cc2)ccc1Sc1ccc(N2CCOCC2)cc1

>  <score_type>  (21) 
oracle

>  <origin>  (21) 
adg

>  <m_score__min__energy>  (21) 
-11.52

>  <m_primary>  (21) 
energy

$$$$
21:0
     RDKit          3D

 30 32  0  0  0  0  0  0  0  0999 V2000
   -6.0880   15.1110  -34.1270 C   0  0  0  0  0  0  0  0  0  0  0  0
   -6.8950   16.2790  -34.2340 O   0  0  0  0  0  0  0  0  0  0  0  0
   -6.5300   17.5410  -33.7410 C   0  0  0  0  0  0  0  0  0  0  0  0
   -5.3060   18.1500  -34.0590 C   0  0  0  0  0  0  0  0  0  0  0  0
   -4.9920   19.4100  -33.5510 C   0  0  0  0  0  0  0  0  0  0  0  0
   -5.8910   20.0930  -32.7140 C   0  0  0  0  0  0  0  0  0  0  0  0
   -5.5470   21.4080  -32.2350 N   0  0  0  0  0  0  0  0  0  0  0  0
   -6.3560   22.5000  -32.2710 C   0  0  0  0  0  0  0  0  0  0  0  0
   -5.6570   23.5210  -31.6830 C   0  0  0  0  0  0  0  0  0  0  0  0
   -5.9970   24.8140  -31.4640 N   0  0  0  0  0  0  0  0  0  0  0  0
   -5.0800   25.6180  -30.8410 C   0  0  0  0  0  0  0  0  0  0  0  0
   -3.8630   25.1170  -30.4540 N   0  0  0  0  0  0  0  0  0  0  0  0
   -3.5290   23.8110  -30.6760 C   0  0  0  0  0  0  0  0  0  0  0  0
   -2.4080   23.3630  -30.3170 O   0  0  0  0  0  0  0  0  0  0  0  0
   -4.4620   23.0050  -31.3100 C   0  0  0  0  0  0  0  0  0  0  0  0
   -4.3900   21.7040  -31.6420 N   0  0  0  0  0  0  0  0  0  0  0  0
   -7.1170   19.4730  -32.3680 C   0  0  0  0  0  0  0  0  0  0  0  0
   -8.1030   20.1320  -31.4410 C   0  0  0  0  0  0  0  0  0  0  0  0
   -7.4260   18.2090  -32.9000 C   0  0  0  0  0  0  0  0  0  0  0  0
   -5.9245   14.8743  -33.0653 H   0  0  0  0  0  0  0  0  0  0  0  0
   -6.5969   14.2676  -34.6165 H   0  0  0  0  0  0  0  0  0  0  0  0
   -5.1191   15.2887  -34.6165 H   0  0  0  0  0  0  0  0  0  0  0  0
   -4.5902   17.6302  -34.7128 H   0  0  0  0  0  0  0  0  0  0  0  0
   -4.0290   19.8751  -33.8085 H   0  0  0  0  0  0  0  0  0  0  0  0
   -7.3718   22.5533  -32.6898 H   0  0  0  0  0  0  0  0  0  0  0  0
   -5.3212   26.6740  -30.6494 H   0  0  0  0  0  0  0  0  0  0  0  0
   -7.8122   19.9376  -30.3981 H   0  0  0  0  0  0  0  0  0  0  0  0
   -8.1096   21.2167  -31.6237 H   0  0  0  0  0  0  0  0  0  0  0  0
   -9.1078   19.7233  -31.6237 H   0  0  0  0  0  0  0  0  0  0  0  0
   -8.3881   17.7376  -32.6508 H   0  0  0  0  0  0  0  0  0  0  0  0
  1  2  1  0
  2  3  1  0
  3  4  2  0
  4  5  1  0
  5  6  2  0
  6  7  1  0
  7  8  1  0
  8  9  2  0
  9 10  1  0
 10 11  1  0
 11 12  2  0
 12 13  1  0
 13 14  2  0
 13 15  1  0
 15 16  2  0
  6 17  1  0
 17 18  1  0
 17 19  2  0
 19  3  1  0
 16  7  1  0
 15  9  1  0
  1 20  1  0
  1 21  1  0
  1 22  1  0
  4 23  1  0
  5 24  1  0
  8 25  1  0
 11 26  1  0
 18 27  1  0
 18 28  1  0
 18 29  1  0
 19 30  1  0
M  CHG  1  10  -1
M  END
>  <UniqueID>  (22) 
22

>  <SMILES>  (22) 
COc1ccc(-n2cc3[n-]cnc(=O)c3n2)c(C)c1

>  <Energy>  (22) 
79.900257183938

>  <Genealogy>  (22) 
COc1ccc(-n2cc3[n-]cnc(=O)c3n2)c(C)c1 (protonated)
COc1ccc(-n2cc3[n-]cnc(=O)c3n2)c(C)c1 (3D coordinates assigned)
COc1ccc(-n2cc3[n-]cnc(=O)c3n2)c(C)c1 (optimized conformer: 79.900257183938 kcal/mol)

>  <smiles>  (22) 
COc1ccc(-n2cc3[nH]cnc(=O)c3n2)c(C)c1

>  <score_type>  (22) 
oracle

>  <origin>  (22) 
adg

>  <m_score__min__energy>  (22) 
-7.8499999999999996

>  <m_primary>  (22) 
energy

$$$$
22:0
     RDKit          3D

 71 74  0  0  0  0  0  0  0  0999 V2000
   -7.9260   23.3120  -32.1830 C   0  0  0  0  0  0  0  0  0  0  0  0
   -7.9750   22.6610  -30.8060 C   0  0  0  0  0  0  0  0  0  0  0  0
   -8.7050   21.4530  -30.8940 O   0  0  0  0  0  0  0  0  0  0  0  0
   -7.9580   20.4670  -31.5860 C   0  0  0  0  0  0  0  0  0  0  0  0
   -8.8700   19.6460  -32.5040 C   0  0  0  0  0  0  0  0  0  0  0  0
   -8.7470   18.2650  -32.2180 O   0  0  0  0  0  0  0  0  0  0  0  0
   -7.3870   17.8790  -32.1920 C   0  0  0  0  0  0  0  0  0  0  0  0
   -6.6720   18.4030  -33.4450 C   0  0  0  0  0  0  0  0  0  0  0  0
   -5.8650   17.3500  -34.1090 N   0  0  0  0  0  0  0  0  0  0  0  0
   -5.3850   17.8020  -35.4300 C   0  0  0  0  0  0  0  0  0  0  0  0
   -4.7160   16.9640  -33.2560 C   0  0  0  0  0  0  0  0  0  0  0  0
   -4.0220   18.2100  -32.6910 C   0  0  0  0  0  0  0  0  0  0  0  0
   -3.0140   18.6650  -33.5890 O   0  0  0  0  0  0  0  0  0  0  0  0
   -2.0770   19.5790  -33.0130 C   0  0  0  0  0  0  0  0  0  0  0  0
   -2.9170   20.7460  -32.4180 C   0  0  0  0  0  0  0  0  0  0  0  0
   -3.0670   20.9370  -31.0220 C   0  0  0  0  0  0  0  0  0  0  0  0
   -3.9490   21.8960  -30.5170 C   0  0  0  0  0  0  0  0  0  0  0  0
   -4.7330   22.6530  -31.3860 C   0  0  0  0  0  0  0  0  0  0  0  0
   -4.6600   22.4320  -32.7610 C   0  0  0  0  0  0  0  0  0  0  0  0
   -3.7800   21.4750  -33.2700 C   0  0  0  0  0  0  0  0  0  0  0  0
   -1.0880   18.8770  -32.0610 C   0  0  0  0  0  0  0  0  0  0  0  0
   -0.5070   19.5870  -30.9840 C   0  0  0  0  0  0  0  0  0  0  0  0
    0.4380   18.9930  -30.1510 C   0  0  0  0  0  0  0  0  0  0  0  0
    0.8840   17.7050  -30.4130 C   0  0  0  0  0  0  0  0  0  0  0  0
    0.4390   17.0340  -31.5480 C   0  0  0  0  0  0  0  0  0  0  0  0
   -0.4940   17.6260  -32.4250 C   0  0  0  0  0  0  0  0  0  0  0  0
   -0.8210   16.8620  -33.7070 C   0  0  0  0  0  0  0  0  0  0  0  0
   -0.9230   17.6530  -35.0430 C   0  0  0  0  0  0  0  0  0  0  0  0
   -0.5230   19.1190  -35.0110 C   0  0  0  0  0  0  0  0  0  0  0  0
    0.4540   19.5570  -35.9260 C   0  0  0  0  0  0  0  0  0  0  0  0
    0.8980   20.8770  -35.9220 C   0  0  0  0  0  0  0  0  0  0  0  0
    0.3970   21.7760  -34.9890 C   0  0  0  0  0  0  0  0  0  0  0  0
   -0.5730   21.3670  -34.0760 C   0  0  0  0  0  0  0  0  0  0  0  0
   -1.1170   20.0590  -34.1170 C   0  0  0  0  0  0  0  0  0  0  0  0
   -7.8439   24.4031  -32.0700 H   0  0  0  0  0  0  0  0  0  0  0  0
   -7.0538   22.9340  -32.7365 H   0  0  0  0  0  0  0  0  0  0  0  0
   -8.8450   23.0688  -32.7365 H   0  0  0  0  0  0  0  0  0  0  0  0
   -6.9520   22.4495  -30.4613 H   0  0  0  0  0  0  0  0  0  0  0  0
   -8.4636   23.3394  -30.0911 H   0  0  0  0  0  0  0  0  0  0  0  0
   -7.1834   20.9594  -32.1922 H   0  0  0  0  0  0  0  0  0  0  0  0
   -7.4941   19.7926  -30.8512 H   0  0  0  0  0  0  0  0  0  0  0  0
   -9.9139   19.9563  -32.3489 H   0  0  0  0  0  0  0  0  0  0  0  0
   -8.5739   19.8209  -33.5489 H   0  0  0  0  0  0  0  0  0  0  0  0
   -6.9060   18.2975  -31.2956 H   0  0  0  0  0  0  0  0  0  0  0  0
   -7.3222   16.7811  -32.1701 H   0  0  0  0  0  0  0  0  0  0  0  0
   -7.4263   18.7724  -34.1553 H   0  0  0  0  0  0  0  0  0  0  0  0
   -5.9890   19.2071  -33.1337 H   0  0  0  0  0  0  0  0  0  0  0  0
   -4.5902   18.5504  -35.2949 H   0  0  0  0  0  0  0  0  0  0  0  0
   -4.9878   16.9423  -35.9896 H   0  0  0  0  0  0  0  0  0  0  0  0
   -6.2193   18.2501  -35.9896 H   0  0  0  0  0  0  0  0  0  0  0  0
   -5.0764   16.3419  -32.4235 H   0  0  0  0  0  0  0  0  0  0  0  0
   -3.9941   16.4012  -33.8660 H   0  0  0  0  0  0  0  0  0  0  0  0
   -4.7669   19.0067  -32.5479 H   0  0  0  0  0  0  0  0  0  0  0  0
   -3.5545   17.9536  -31.7288 H   0  0  0  0  0  0  0  0  0  0  0  0
   -2.4800   20.3208  -30.3250 H   0  0  0  0  0  0  0  0  0  0  0  0
   -4.0248   22.0539  -29.4310 H   0  0  0  0  0  0  0  0  0  0  0  0
   -5.4087   23.4241  -30.9875 H   0  0  0  0  0  0  0  0  0  0  0  0
   -5.2964   23.0123  -33.4453 H   0  0  0  0  0  0  0  0  0  0  0  0
   -3.7572   21.2843  -34.3531 H   0  0  0  0  0  0  0  0  0  0  0  0
   -0.8077   20.6291  -30.8008 H   0  0  0  0  0  0  0  0  0  0  0  0
    0.8313   19.5451  -29.2847 H   0  0  0  0  0  0  0  0  0  0  0  0
    1.5883   17.2153  -29.7244 H   0  0  0  0  0  0  0  0  0  0  0  0
    0.8210   16.0255  -31.7649 H   0  0  0  0  0  0  0  0  0  0  0  0
   -0.0370   16.1019  -33.8398 H   0  0  0  0  0  0  0  0  0  0  0  0
   -1.8413   16.4859  -33.5408 H   0  0  0  0  0  0  0  0  0  0  0  0
   -0.2769   17.1490  -35.7768 H   0  0  0  0  0  0  0  0  0  0  0  0
   -1.9945   17.6554  -35.2916 H   0  0  0  0  0  0  0  0  0  0  0  0
    0.8723   18.8464  -36.6541 H   0  0  0  0  0  0  0  0  0  0  0  0
    1.6457   21.2078  -36.6579 H   0  0  0  0  0  0  0  0  0  0  0  0
    0.7664   22.8120  -34.9709 H   0  0  0  0  0  0  0  0  0  0  0  0
   -0.9232   22.0730  -33.3086 H   0  0  0  0  0  0  0  0  0  0  0  0
  1  2  1  0
  2  3  1  0
  3  4  1  0
  4  5  1  0
  5  6  1  0
  6  7  1  0
  7  8  1  0
  8  9  1  0
  9 10  1  0
  9 11  1  0
 11 12  1  0
 12 13  1  0
 13 14  1  0
 14 15  1  0
 15 16  2  0
 16 17  1  0
 17 18  2  0
 18 19  1  0
 19 20  2  0
 14 21  1  0
 21 22  2  0
 22 23  1  0
 23 24  2  0
 24 25  1  0
 25 26  2  0
 26 27  1  0
 27 28  1  0
 28 29  1  0
 29 30  2  0
 30 31  1  0
 31 32  2  0
 32 33  1  0
 33 34  2  0
 34 14  1  0
 20 15  1  0
 26 21  1  0
 34 29  1  0
  1 35  1  0
  1 36  1  0
  1 37  1  0
  2 38  1  0
  2 39  1  0
  4 40  1  0
  4 41  1  0
  5 42  1  0
  5 43  1  0
  7 44  1  0
  7 45  1  0
  8 46  1  0
  8 47  1  0
 10 48  1  0
 10 49  1  0
 10 50  1  0
 11 51  1  0
 11 52  1  0
 12 53  1  0
 12 54  1  0
 16 55  1  0
 17 56  1  0
 18 57  1  0
 19 58  1  0
 20 59  1  0
 22 60  1  0
 23 61  1  0
 24 62  1  0
 25 63  1  0
 27 64  1  0
 27 65  1  0
 28 66  1  0
 28 67  1  0
 30 68  1  0
 31 69  1  0
 32 70  1  0
 33 71  1  0
M  END
>  <UniqueID>  (23) 
23

>  <SMILES>  (23) 
CCOCCOCCN(C)CCOC1(c2ccccc2)c2ccccc2CCc2ccccc21

>  <Energy>  (23) 
116.25761197254715

>  <Genealogy>  (23) 
CCOCCOCCN(C)CCOC1(c2ccccc2)c2ccccc2CCc2ccccc21 (3D coordinates assigned)
CCOCCOCCN(C)CCOC1(c2ccccc2)c2ccccc2CCc2ccccc21 (nonaromatic ring conformer: 116.25761197254715 kcal/mol)

>  <smiles>  (23) 
CCOCCOCCN(C)CCOC1(c2ccccc2)c2ccccc2CCc2ccccc21

>  <score_type>  (23) 
oracle

>  <origin>  (23) 
adg

>  <m_score__min__energy>  (23) 
-6.7000000000000002

>  <m_primary>  (23) 
energy

$$$$
23:0
     RDKit          3D

 56 58  0  0  0  0  0  0  0  0999 V2000
   -2.5330   19.4680  -34.0090 C   0  0  0  0  0  0  0  0  0  0  0  0
   -3.5380   18.5130  -33.3660 C   0  0  0  0  0  0  0  0  0  0  0  0
   -4.0070   17.4750  -34.3140 N   0  0  0  0  0  0  0  0  0  0  0  0
   -3.9860   16.1220  -33.7130 C   0  0  0  0  0  0  0  0  0  0  0  0
   -5.0080   16.0070  -32.5850 C   0  0  0  0  0  0  0  0  0  0  0  0
   -5.3030   17.7880  -34.9720 C   0  0  0  0  0  0  0  0  0  0  0  0
   -6.0820   18.9820  -34.3790 C   0  0  0  0  0  0  0  0  0  0  0  0
   -6.5710   18.6580  -33.0910 O   0  0  0  0  0  0  0  0  0  0  0  0
   -7.9320   19.0200  -32.9370 C   0  0  0  0  0  0  0  0  0  0  0  0
   -8.1330   20.0830  -31.8430 C   0  0  0  0  0  0  0  0  0  0  0  0
   -6.8740   20.5040  -31.2200 N   0  0  0  0  0  0  0  0  0  0  0  0
   -6.4820   21.8790  -31.0740 C   0  0  0  0  0  0  0  0  0  0  0  0
   -7.4720   22.8570  -31.1700 C   0  0  0  0  0  0  0  0  0  0  0  0
   -7.1740   24.1940  -30.9680 C   0  0  0  0  0  0  0  0  0  0  0  0
   -5.8760   24.6050  -30.6440 C   0  0  0  0  0  0  0  0  0  0  0  0
   -5.6670   26.0870  -30.4350 C   0  0  0  0  0  0  0  0  0  0  0  0
   -4.8310   23.6300  -30.5360 C   0  0  0  0  0  0  0  0  0  0  0  0
   -3.5010   23.9770  -30.1600 C   0  0  0  0  0  0  0  0  0  0  0  0
   -3.1600   25.2880  -29.8440 O   0  0  0  0  0  0  0  0  0  0  0  0
   -2.4950   22.9980  -30.0860 C   0  0  0  0  0  0  0  0  0  0  0  0
   -1.1850   23.3430  -29.6920 C   0  0  0  0  0  0  0  0  0  0  0  0
   -0.1860   22.3710  -29.6160 C   0  0  0  0  0  0  0  0  0  0  0  0
   -0.4750   21.0470  -29.9370 C   0  0  0  0  0  0  0  0  0  0  0  0
   -1.7630   20.6890  -30.3320 C   0  0  0  0  0  0  0  0  0  0  0  0
   -2.7880   21.6560  -30.4030 C   0  0  0  0  0  0  0  0  0  0  0  0
   -4.0930   21.2900  -30.7660 C   0  0  0  0  0  0  0  0  0  0  0  0
   -4.3380   19.9570  -31.0880 O   0  0  0  0  0  0  0  0  0  0  0  0
   -5.1350   22.2540  -30.8030 C   0  0  0  0  0  0  0  0  0  0  0  0
   -1.9756   19.9977  -33.2224 H   0  0  0  0  0  0  0  0  0  0  0  0
   -1.8313   18.8958  -34.6337 H   0  0  0  0  0  0  0  0  0  0  0  0
   -3.0687   20.1979  -34.6337 H   0  0  0  0  0  0  0  0  0  0  0  0
   -3.0587   18.0190  -32.5080 H   0  0  0  0  0  0  0  0  0  0  0  0
   -4.4114   19.1028  -33.0508 H   0  0  0  0  0  0  0  0  0  0  0  0
   -4.2229   15.3800  -34.4897 H   0  0  0  0  0  0  0  0  0  0  0  0
   -2.9841   15.9394  -33.2973 H   0  0  0  0  0  0  0  0  0  0  0  0
   -4.4919   16.0651  -31.6153 H   0  0  0  0  0  0  0  0  0  0  0  0
   -5.7347   16.8290  -32.6634 H   0  0  0  0  0  0  0  0  0  0  0  0
   -5.5338   15.0440  -32.6634 H   0  0  0  0  0  0  0  0  0  0  0  0
   -5.1004   18.0084  -36.0305 H   0  0  0  0  0  0  0  0  0  0  0  0
   -5.9406   16.9055  -34.8151 H   0  0  0  0  0  0  0  0  0  0  0  0
   -5.4123   19.8515  -34.3048 H   0  0  0  0  0  0  0  0  0  0  0  0
   -6.9323   19.2165  -35.0362 H   0  0  0  0  0  0  0  0  0  0  0  0
   -8.3017   19.4211  -33.8922 H   0  0  0  0  0  0  0  0  0  0  0  0
   -8.4881   18.1194  -32.6375 H   0  0  0  0  0  0  0  0  0  0  0  0
   -8.6138   20.9639  -32.2933 H   0  0  0  0  0  0  0  0  0  0  0  0
   -8.7573   19.6340  -31.0564 H   0  0  0  0  0  0  0  0  0  0  0  0
   -6.1300   19.7770  -31.1230 H   0  0  0  0  0  0  0  0  0  0  0  0
   -8.5042   22.5618  -31.4096 H   0  0  0  0  0  0  0  0  0  0  0  0
   -7.9711   24.9460  -31.0638 H   0  0  0  0  0  0  0  0  0  0  0  0
   -5.6363   26.3046  -29.3572 H   0  0  0  0  0  0  0  0  0  0  0  0
   -4.7169   26.3922  -30.8979 H   0  0  0  0  0  0  0  0  0  0  0  0
   -6.4956   26.6430  -30.8979 H   0  0  0  0  0  0  0  0  0  0  0  0
   -0.9486   24.3879  -29.4423 H   0  0  0  0  0  0  0  0  0  0  0  0
    0.8304   22.6511  -29.3023 H   0  0  0  0  0  0  0  0  0  0  0  0
    0.3141   20.2828  -29.8788 H   0  0  0  0  0  0  0  0  0  0  0  0
   -1.9824   19.6426  -30.5908 H   0  0  0  0  0  0  0  0  0  0  0  0
  1  2  1  0
  2  3  1  0
  3  4  1  0
  4  5  1  0
  3  6  1  0
  6  7  1  0
  7  8  1  0
  8  9  1  0
  9 10  1  0
 10 11  1  0
 11 12  1  0
 12 13  2  0
 13 14  1  0
 14 15  2  0
 15 16  1  0
 15 17  1  0
 17 18  2  0
 18 19  1  0
 18 20  1  0
 20 21  2  0
 21 22  1  0
 22 23  2  0
 23 24  1  0
 24 25  2  0
 25 26  1  0
 26 27  1  0
 26 28  2  0
 28 12  1  0
 28 17  1  0
 25 20  1  0
  1 29  1  0
  1 30  1  0
  1 31  1  0
  2 32  1  0
  2 33  1  0
  4 34  1  0
  4 35  1  0
  5 36  1  0
  5 37  1  0
  5 38  1  0
  6 39  1  0
  6 40  1  0
  7 41  1  0
  7 42  1  0
  9 43  1  0
  9 44  1  0
 10 45  1  0
 10 46  1  0
 11 47  1  0
 13 48  1  0
 14 49  1  0
 16 50  1  0
 16 51  1  0
 16 52  1  0
 21 53  1  0
 22 54  1  0
 23 55  1  0
 24 56  1  0
M  CHG  2  19  -1  27  -1
M  END
>  <UniqueID>  (24) 
24

>  <SMILES>  (24) 
CCN(CC)CCOCCNc1ccc(C)c2c([O-])c3ccccc3c([O-])c12

>  <Energy>  (24) 
80.97301089898572

>  <Genealogy>  (24) 
CCN(CC)CCOCCNc1ccc(C)c2c([O-])c3ccccc3c([O-])c12 (protonated)
CCN(CC)CCOCCNc1ccc(C)c2c([O-])c3ccccc3c([O-])c12 (3D coordinates assigned)
CCN(CC)CCOCCNc1ccc(C)c2c([O-])c3ccccc3c([O-])c12 (optimized conformer: 80.97301089898572 kcal/mol)

>  <smiles>  (24) 
CCN(CC)CCOCCNc1ccc(C)c2c(O)c3ccccc3c(O)c12

>  <score_type>  (24) 
oracle

>  <origin>  (24) 
adg

>  <m_score__min__energy>  (24) 
-10.640000000000001

>  <m_primary>  (24) 
energy

$$$$
24:0
     RDKit          3D

 20 20  0  0  0  0  0  0  0  0999 V2000
   -2.6120   24.5400  -29.3380 C   0  0  0  0  0  0  0  0  0  0  0  0
   -3.4880   25.0720  -30.3270 O   0  0  0  0  0  0  0  0  0  0  0  0
   -4.7510   24.5440  -30.6330 C   0  0  0  0  0  0  0  0  0  0  0  0
   -4.8210   23.4160  -31.4570 C   0  0  0  0  0  0  0  0  0  0  0  0
   -6.0560   22.8520  -31.7890 C   0  0  0  0  0  0  0  0  0  0  0  0
   -7.2440   23.4090  -31.3030 C   0  0  0  0  0  0  0  0  0  0  0  0
   -8.4590   22.8080  -31.6650 O   0  0  0  0  0  0  0  0  0  0  0  0
   -8.7070   21.4070  -31.6170 C   0  0  0  0  0  0  0  0  0  0  0  0
   -7.1810   24.5440  -30.4730 C   0  0  0  0  0  0  0  0  0  0  0  0
   -5.9450   25.1070  -30.1400 C   0  0  0  0  0  0  0  0  0  0  0  0
   -3.0020   24.7769  -28.3371 H   0  0  0  0  0  0  0  0  0  0  0  0
   -2.5449   23.4485  -29.4565 H   0  0  0  0  0  0  0  0  0  0  0  0
   -1.6125   24.9838  -29.4565 H   0  0  0  0  0  0  0  0  0  0  0  0
   -3.8952   22.9684  -31.8475 H   0  0  0  0  0  0  0  0  0  0  0  0
   -6.0943   21.9639  -32.4370 H   0  0  0  0  0  0  0  0  0  0  0  0
   -8.7648   21.0806  -30.5681 H   0  0  0  0  0  0  0  0  0  0  0  0
   -9.6583   21.1855  -32.1229 H   0  0  0  0  0  0  0  0  0  0  0  0
   -7.8895   20.8724  -32.1229 H   0  0  0  0  0  0  0  0  0  0  0  0
   -8.1083   24.9902  -30.0845 H   0  0  0  0  0  0  0  0  0  0  0  0
   -5.9046   25.9936  -29.4901 H   0  0  0  0  0  0  0  0  0  0  0  0
  1  2  1  0
  2  3  1  0
  3  4  2  0
  4  5  1  0
  5  6  2  0
  6  7  1  0
  7  8  1  0
  6  9  1  0
  9 10  2  0
 10  3  1  0
  1 11  1  0
  1 12  1  0
  1 13  1  0
  4 14  1  0
  5 15  1  0
  8 16  1  0
  8 17  1  0
  8 18  1  0
  9 19  1  0
 10 20  1  0
M  END
>  <UniqueID>  (25) 
25

>  <SMILES>  (25) 
COc1ccc(OC)cc1

>  <Energy>  (25) 
16.96036774116148

>  <Genealogy>  (25) 
COc1ccc(OC)cc1 (3D coordinates assigned)
COc1ccc(OC)cc1 (optimized conformer: 16.96036774116148 kcal/mol)

>  <smiles>  (25) 
COc1ccc(OC)cc1

>  <score_type>  (25) 
oracle

>  <origin>  (25) 
adg

>  <m_score__min__energy>  (25) 
-4.1900000000000004

>  <m_primary>  (25) 
energy

$$$$
25:0
     RDKit          3D

 59 61  0  0  0  0  0  0  0  0999 V2000
   -1.6610   21.1770  -33.4390 C   0  0  0  0  0  0  0  0  0  0  0  0
   -2.5200   20.7640  -32.2430 C   0  0  0  0  0  0  0  0  0  0  0  0
   -3.2730   19.4480  -32.4810 C   0  0  0  0  0  0  0  0  0  0  0  0
   -3.1930   18.9800  -33.9390 C   0  0  0  0  0  0  0  0  0  0  0  0
   -4.6450   18.0330  -34.3840 S   0  0  0  0  0  0  0  0  0  0  0  0
   -4.4150   17.3450  -35.7000 O   0  0  0  0  0  0  0  0  0  0  0  0
   -4.9030   16.9950  -33.3290 O   0  0  0  0  0  0  0  0  0  0  0  0
   -6.0350   19.0700  -34.4970 N   0  0  0  0  0  0  0  0  0  0  0  0
   -6.8660   18.9370  -33.2940 C   0  0  0  0  0  0  0  0  0  0  0  0
   -7.7610   20.1820  -33.0930 C   0  0  1  0  0  0  0  0  0  0  0  0
   -9.1240   19.7470  -32.5060 C   0  0  0  0  0  0  0  0  0  0  0  0
   -9.9150   20.9410  -31.9830 C   0  0  0  0  0  0  0  0  0  0  0  0
   -9.1560   21.5930  -30.8310 C   0  0  0  0  0  0  0  0  0  0  0  0
   -7.7500   21.9590  -31.2310 C   0  0  0  0  0  0  0  0  0  0  0  0
   -7.0850   22.9610  -30.5070 C   0  0  0  0  0  0  0  0  0  0  0  0
   -5.7880   23.3500  -30.8540 C   0  0  0  0  0  0  0  0  0  0  0  0
   -4.9570   24.5890  -29.9220 S   0  0  0  0  0  0  0  0  0  0  0  0
   -5.9500   25.3840  -29.1210 O   0  0  0  0  0  0  0  0  0  0  0  0
   -4.2410   25.5340  -30.8470 O   0  0  0  0  0  0  0  0  0  0  0  0
   -3.8020   23.8130  -28.8460 C   0  0  0  0  0  0  0  0  0  0  0  0
   -3.3060   24.5000  -27.7300 C   0  0  0  0  0  0  0  0  0  0  0  0
   -2.4080   23.8760  -26.8600 C   0  0  0  0  0  0  0  0  0  0  0  0
   -1.9990   22.5490  -27.0930 C   0  0  0  0  0  0  0  0  0  0  0  0
   -1.1020   21.8780  -26.2500 O   0  0  0  0  0  0  0  0  0  0  0  0
   -0.4700   22.4670  -25.1180 C   0  0  0  0  0  0  0  0  0  0  0  0
   -2.5060   21.8640  -28.2050 C   0  0  0  0  0  0  0  0  0  0  0  0
   -3.4040   22.4890  -29.0750 C   0  0  0  0  0  0  0  0  0  0  0  0
   -5.1440   22.7310  -31.9270 C   0  0  0  0  0  0  0  0  0  0  0  0
   -5.7870   21.7200  -32.6440 C   0  0  0  0  0  0  0  0  0  0  0  0
   -7.0750   21.2820  -32.2800 C   0  0  0  0  0  0  0  0  0  0  0  0
   -0.7241   21.6275  -33.0794 H   0  0  0  0  0  0  0  0  0  0  0  0
   -1.4313   20.2909  -34.0489 H   0  0  0  0  0  0  0  0  0  0  0  0
   -2.2097   21.9098  -34.0489 H   0  0  0  0  0  0  0  0  0  0  0  0
   -1.8671   20.6423  -31.3661 H   0  0  0  0  0  0  0  0  0  0  0  0
   -3.2706   21.5524  -32.0849 H   0  0  0  0  0  0  0  0  0  0  0  0
   -2.8366   18.6706  -31.8367 H   0  0  0  0  0  0  0  0  0  0  0  0
   -4.3329   19.6223  -32.2440 H   0  0  0  0  0  0  0  0  0  0  0  0
   -3.1205   19.8590  -34.5963 H   0  0  0  0  0  0  0  0  0  0  0  0
   -2.3058   18.3402  -34.0554 H   0  0  0  0  0  0  0  0  0  0  0  0
   -6.5860   18.7370  -35.3200 H   0  0  0  0  0  0  0  0  0  0  0  0
   -7.5056   18.0479  -33.3960 H   0  0  0  0  0  0  0  0  0  0  0  0
   -6.2032   18.8395  -32.4215 H   0  0  0  0  0  0  0  0  0  0  0  0
   -7.9441   20.6439  -34.0744 H   0  0  0  0  0  0  0  0  0  0  0  0
   -9.7089   19.2479  -33.2927 H   0  0  0  0  0  0  0  0  0  0  0  0
   -8.9348   19.0638  -31.6649 H   0  0  0  0  0  0  0  0  0  0  0  0
  -10.0509   21.6731  -32.7927 H   0  0  0  0  0  0  0  0  0  0  0  0
  -10.8980   20.5999  -31.6261 H   0  0  0  0  0  0  0  0  0  0  0  0
   -9.6886   22.5049  -30.5232 H   0  0  0  0  0  0  0  0  0  0  0  0
   -9.1017   20.8717  -30.0023 H   0  0  0  0  0  0  0  0  0  0  0  0
   -7.5897   23.4450  -29.6579 H   0  0  0  0  0  0  0  0  0  0  0  0
   -3.6249   25.5351  -27.5379 H   0  0  0  0  0  0  0  0  0  0  0  0
   -2.0189   24.4240  -25.9892 H   0  0  0  0  0  0  0  0  0  0  0  0
   -0.9104   22.0566  -24.1973 H   0  0  0  0  0  0  0  0  0  0  0  0
    0.6066   22.2427  -25.1411 H   0  0  0  0  0  0  0  0  0  0  0  0
   -0.6180   23.5567  -25.1411 H   0  0  0  0  0  0  0  0  0  0  0  0
   -2.1949   20.8261  -28.3950 H   0  0  0  0  0  0  0  0  0  0  0  0
   -3.7995   21.9398  -29.9422 H   0  0  0  0  0  0  0  0  0  0  0  0
   -4.1267   23.0408  -32.2085 H   0  0  0  0  0  0  0  0  0  0  0  0
   -5.2806   21.2593  -33.5050 H   0  0  0  0  0  0  0  0  0  0  0  0
  1  2  1  0
  2  3  1  0
  3  4  1  0
  4  5  1  0
  5  6  2  0
  5  7  2  0
  5  8  1  0
  8  9  1  0
  9 10  1  0
 10 11  1  0
 11 12  1  0
 12 13  1  0
 13 14  1  0
 14 15  2  0
 15 16  1  0
 16 17  1  0
 17 18  2  0
 17 19  2  0
 17 20  1  0
 20 21  2  0
 21 22  1  0
 22 23  2  0
 23 24  1  0
 24 25  1  0
 23 26  1  0
 26 27  2  0
 16 28  2  0
 28 29  1  0
 29 30  2  0
 30 10  1  0
 30 14  1  0
 27 20  1  0
  1 31  1  0
  1 32  1  0
  1 33  1  0
  2 34  1  0
  2 35  1  0
  3 36  1  0
  3 37  1  0
  4 38  1  0
  4 39  1  0
  8 40  1  0
  9 41  1  0
  9 42  1  0
 10 43  1  6
 11 44  1  0
 11 45  1  0
 12 46  1  0
 12 47  1  0
 13 48  1  0
 13 49  1  0
 15 50  1  0
 21 51  1  0
 22 52  1  0
 25 53  1  0
 25 54  1  0
 25 55  1  0
 26 56  1  0
 27 57  1  0
 28 58  1  0
 29 59  1  0
M  END
>  <UniqueID>  (26) 
26

>  <SMILES>  (26) 
CCCCS(=O)(=O)NC[C@H]1CCCc2cc(S(=O)(=O)c3ccc(OC)cc3)ccc21

>  <Energy>  (26) 
48.72993832575247

>  <Genealogy>  (26) 
CCCCS(=O)(=O)NC[C@H]1CCCc2cc(S(=O)(=O)c3ccc(OC)cc3)ccc21 (chirality)
CCCCS(=O)(=O)NC[C@H]1CCCc2cc(S(=O)(=O)c3ccc(OC)cc3)ccc21 (3D coordinates assigned)
CCCCS(=O)(=O)NC[C@H]1CCCc2cc(S(=O)(=O)c3ccc(OC)cc3)ccc21 (nonaromatic ring conformer: 48.72993832575247 kcal/mol)

>  <smiles>  (26) 
CCCCS(=O)(=O)NCC1CCCc2cc(S(=O)(=O)c3ccc(OC)cc3)ccc21

>  <score_type>  (26) 
oracle

>  <origin>  (26) 
adg

>  <m_score__min__energy>  (26) 
-10.27

>  <m_primary>  (26) 
energy

$$$$
26:0
     RDKit          3D

 56 58  0  0  0  0  0  0  0  0999 V2000
    0.3184   22.8661  -29.3954 H   0  0  0  0  0  0  0  0  0  0  0  0
   -0.7320   22.8820  -29.0690 C   0  0  0  0  0  0  0  0  0  0  0  0
   -0.9620   23.2030  -27.7850 C   0  0  0  0  0  0  0  0  0  0  0  0
   -0.6809   24.2182  -27.4683 H   0  0  0  0  0  0  0  0  0  0  0  0
   -1.5680   22.3060  -26.7370 C   0  0  0  0  0  0  0  0  0  0  0  0
   -2.6231   22.1276  -26.9920 H   0  0  0  0  0  0  0  0  0  0  0  0
   -1.4680   22.8110  -25.7649 H   0  0  0  0  0  0  0  0  0  0  0  0
   -0.8800   21.0110  -26.6420 N   0  0  0  0  0  0  0  0  0  0  0  0
   -0.1980   20.9620  -27.4360 H   0  0  0  0  0  0  0  0  0  0  0  0
   -1.8130   19.8820  -26.7730 C   0  0  0  0  0  0  0  0  0  0  0  0
   -2.6777   20.1921  -27.3781 H   0  0  0  0  0  0  0  0  0  0  0  0
   -2.1500   19.5734  -25.7724 H   0  0  0  0  0  0  0  0  0  0  0  0
   -1.1120   18.7000  -27.4560 C   0  0  0  0  0  0  0  0  0  0  0  0
   -1.8243   18.1952  -28.1252 H   0  0  0  0  0  0  0  0  0  0  0  0
   -0.7569   18.0038  -26.6819 H   0  0  0  0  0  0  0  0  0  0  0  0
    0.0500   19.1670  -28.2460 N   0  0  0  0  0  0  0  0  0  0  0  0
    1.2720   18.4330  -27.8700 C   0  0  0  0  0  0  0  0  0  0  0  0
    1.3492   18.3866  -26.7737 H   0  0  0  0  0  0  0  0  0  0  0  0
    1.2268   17.4124  -28.2779 H   0  0  0  0  0  0  0  0  0  0  0  0
    2.1518   18.9523  -28.2779 H   0  0  0  0  0  0  0  0  0  0  0  0
   -0.2020   19.0100  -29.6870 C   0  0  0  0  0  0  0  0  0  0  0  0
   -1.1269   18.4338  -29.8368 H   0  0  0  0  0  0  0  0  0  0  0  0
   -0.3087   20.0017  -30.1508 H   0  0  0  0  0  0  0  0  0  0  0  0
    0.6412   18.4771  -30.1508 H   0  0  0  0  0  0  0  0  0  0  0  0
   -1.7540   22.5470  -30.0900 C   0  0  0  0  0  0  0  0  0  0  0  0
   -3.0910   22.9720  -29.9940 C   0  0  0  0  0  0  0  0  0  0  0  0
   -3.4130   23.5716  -29.1298 H   0  0  0  0  0  0  0  0  0  0  0  0
   -4.0150   22.6370  -30.9910 C   0  0  0  0  0  0  0  0  0  0  0  0
   -5.0680   22.9367  -30.8846 H   0  0  0  0  0  0  0  0  0  0  0  0
   -3.6030   21.9190  -32.1280 C   0  0  0  0  0  0  0  0  0  0  0  0
   -4.5150   21.5760  -33.1860 N   0  0  0  0  0  0  0  0  0  0  0  0
   -4.6010   22.2320  -33.9990 H   0  0  0  0  0  0  0  0  0  0  0  0
   -5.1540   20.2970  -33.3150 C   0  0  0  0  0  0  0  0  0  0  0  0
   -4.4320   19.2160  -33.8180 C   0  0  0  0  0  0  0  0  0  0  0  0
   -3.3977   19.3584  -34.1643 H   0  0  0  0  0  0  0  0  0  0  0  0
   -5.0210   17.9550  -33.8820 C   0  0  0  0  0  0  0  0  0  0  0  0
   -4.4489   17.1122  -34.2973 H   0  0  0  0  0  0  0  0  0  0  0  0
   -6.2970   17.7460  -33.4380 N   0  0  0  0  0  0  0  0  0  0  0  0
   -6.8460   16.3830  -33.5260 C   0  0  0  0  0  0  0  0  0  0  0  0
   -7.0059   15.9860  -32.5127 H   0  0  0  0  0  0  0  0  0  0  0  0
   -7.8043   16.4078  -34.0655 H   0  0  0  0  0  0  0  0  0  0  0  0
   -6.1381   15.7367  -34.0655 H   0  0  0  0  0  0  0  0  0  0  0  0
   -7.0380   18.7940  -32.9240 C   0  0  0  0  0  0  0  0  0  0  0  0
   -8.3630   18.6150  -32.4580 C   0  0  0  0  0  0  0  0  0  0  0  0
   -8.8223   17.6163  -32.4988 H   0  0  0  0  0  0  0  0  0  0  0  0
   -9.0950   19.6900  -31.9470 C   0  0  0  0  0  0  0  0  0  0  0  0
  -10.1246   19.5320  -31.5935 H   0  0  0  0  0  0  0  0  0  0  0  0
   -8.5280   20.9600  -31.8830 C   0  0  0  0  0  0  0  0  0  0  0  0
   -9.1102   21.8019  -31.4801 H   0  0  0  0  0  0  0  0  0  0  0  0
   -7.2230   21.1660  -32.3290 C   0  0  0  0  0  0  0  0  0  0  0  0
   -6.7793   22.1710  -32.2728 H   0  0  0  0  0  0  0  0  0  0  0  0
   -6.4670   20.0950  -32.8520 C   0  0  0  0  0  0  0  0  0  0  0  0
   -2.2620   21.5270  -32.2340 C   0  0  0  0  0  0  0  0  0  0  0  0
   -1.9261   20.9720  -33.1223 H   0  0  0  0  0  0  0  0  0  0  0  0
   -1.3480   21.8330  -31.2250 C   0  0  0  0  0  0  0  0  0  0  0  0
   -0.3006   21.5111  -31.3215 H   0  0  0  0  0  0  0  0  0  0  0  0
  1  2  1  0
  2  3  2  0
  3  4  1  0
  3  5  1  0
  5  6  1  0
  5  7  1  0
  5  8  1  0
  8  9  1  0
  8 10  1  0
 10 11  1  0
 10 12  1  0
 10 13  1  0
 13 14  1  0
 13 15  1  0
 13 16  1  0
 16 17  1  0
 17 18  1  0
 17 19  1  0
 17 20  1  0
 16 21  1  0
 21 22  1  0
 21 23  1  0
 21 24  1  0
  2 25  1  0
 25 26  2  0
 26 27  1  0
 26 28  1  0
 28 29  1  0
 28 30  2  0
 30 31  1  0
 31 32  1  0
 31 33  1  0
 33 34  2  0
 34 35  1  0
 34 36  1  0
 36 37  1  0
 36 38  2  0
 38 39  1  0
 39 40  1  0
 39 41  1  0
 39 42  1  0
 38 43  1  0
 43 44  2  0
 44 45  1  0
 44 46  1  0
 46 47  1  0
 46 48  2  0
 48 49  1  0
 48 50  1  0
 50 51  1  0
 50 52  2  0
 30 53  1  0
 53 54  1  0
 53 55  2  0
 55 56  1  0
 55 25  1  0
 52 33  1  0
 52 43  1  0
M  CHG  1  38   1
M  END
>  <UniqueID>  (27) 
27

>  <SMILES>  (27) 
CN(C)CCNC/C=C\c1ccc(Nc2cc[n+](C)c3ccccc23)cc1

>  <Energy>  (27) 
73.37799121057182

>  <Genealogy>  (27) 
CN(C)CCNC/C=C\c1ccc(Nc2cc[n+](C)c3ccccc23)cc1 (cis-trans isomerization)
CN(C)CCNC/C=C\c1ccc(Nc2cc[n+](C)c3ccccc23)cc1 (3D coordinates assigned)
CN(C)CCNC/C=C\c1ccc(Nc2cc[n+](C)c3ccccc23)cc1 (optimized conformer: 73.37799121057182 kcal/mol)

>  <smiles>  (27) 
CN(C)CCNCC=Cc1ccc(Nc2cc[n+](C)c3ccccc23)cc1

>  <score_type>  (27) 
oracle

>  <origin>  (27) 
adg

>  <m_score__min__energy>  (27) 
-8.3300000000000001

>  <m_primary>  (27) 
energy

$$$$
27:0
     RDKit          3D

 50 52  0  0  0  0  0  0  0  0999 V2000
   -4.5050   22.8780  -28.5520 C   0  0  0  0  0  0  0  0  0  0  0  0
   -5.3110   22.8050  -29.8440 C   0  0  0  0  0  0  0  0  0  0  0  0
   -4.5680   23.4880  -30.9350 N   0  0  0  0  0  0  0  0  0  0  0  0
   -4.3530   24.9220  -30.6330 C   0  0  0  0  0  0  0  0  0  0  0  0
   -5.6790   25.6280  -30.3520 C   0  0  0  0  0  0  0  0  0  0  0  0
   -3.2790   22.8230  -31.2310 C   0  0  0  0  0  0  0  0  0  0  0  0
   -3.4260   21.7060  -32.2800 C   0  0  0  0  0  0  0  0  0  0  0  0
   -4.5560   21.9170  -33.2130 N   0  0  0  0  0  0  0  0  0  0  0  0
   -5.6680   21.0070  -32.9590 C   0  0  0  0  0  0  0  0  0  0  0  0
   -6.9350   21.4850  -32.5130 C   0  0  0  0  0  0  0  0  0  0  0  0
   -7.2020   22.8670  -32.3280 C   0  0  0  0  0  0  0  0  0  0  0  0
   -8.4670   23.3190  -31.9660 C   0  0  0  0  0  0  0  0  0  0  0  0
   -9.5020   22.4170  -31.7800 C   0  0  0  0  0  0  0  0  0  0  0  0
   -9.2680   21.0530  -31.9180 C   0  0  0  0  0  0  0  0  0  0  0  0
   -7.9800   20.5550  -32.2420 C   0  0  0  0  0  0  0  0  0  0  0  0
   -7.7390   19.1980  -32.3070 N   0  0  0  0  0  0  0  0  0  0  0  0
   -8.7030   18.2480  -31.7030 C   0  0  0  0  0  0  0  0  0  0  0  0
   -6.5900   18.7250  -32.9030 C   0  0  0  0  0  0  0  0  0  0  0  0
   -6.4520   17.3550  -33.2450 C   0  0  0  0  0  0  0  0  0  0  0  0
   -5.2720   16.8600  -33.7900 C   0  0  0  0  0  0  0  0  0  0  0  0
   -4.2030   17.7130  -34.0220 C   0  0  0  0  0  0  0  0  0  0  0  0
   -2.5830   17.0270  -34.7670 Br  0  0  0  0  0  0  0  0  0  0  0  0
   -4.3210   19.0720  -33.7380 C   0  0  0  0  0  0  0  0  0  0  0  0
   -5.5180   19.6110  -33.2000 C   0  0  0  0  0  0  0  0  0  0  0  0
   -5.1865   22.8163  -27.6907 H   0  0  0  0  0  0  0  0  0  0  0  0
   -3.7925   22.0407  -28.5165 H   0  0  0  0  0  0  0  0  0  0  0  0
   -3.9545   23.8297  -28.5165 H   0  0  0  0  0  0  0  0  0  0  0  0
   -5.4729   21.7514  -30.1153 H   0  0  0  0  0  0  0  0  0  0  0  0
   -6.2818   23.3011  -29.6972 H   0  0  0  0  0  0  0  0  0  0  0  0
   -3.7044   25.0100  -29.7490 H   0  0  0  0  0  0  0  0  0  0  0  0
   -3.8816   25.3969  -31.5061 H   0  0  0  0  0  0  0  0  0  0  0  0
   -5.8288   25.7078  -29.2652 H   0  0  0  0  0  0  0  0  0  0  0  0
   -5.6592   26.6350  -30.7943 H   0  0  0  0  0  0  0  0  0  0  0  0
   -6.5034   25.0494  -30.7943 H   0  0  0  0  0  0  0  0  0  0  0  0
   -2.5720   23.5750  -31.6115 H   0  0  0  0  0  0  0  0  0  0  0  0
   -2.9148   22.3647  -30.2997 H   0  0  0  0  0  0  0  0  0  0  0  0
   -2.4962   21.6536  -32.8655 H   0  0  0  0  0  0  0  0  0  0  0  0
   -3.6278   20.7731  -31.7332 H   0  0  0  0  0  0  0  0  0  0  0  0
   -4.2280   21.9030  -34.2010 H   0  0  0  0  0  0  0  0  0  0  0  0
   -4.8940   22.9000  -33.1190 H   0  0  0  0  0  0  0  0  0  0  0  0
   -6.3913   23.5961  -32.4740 H   0  0  0  0  0  0  0  0  0  0  0  0
   -8.6459   24.3954  -31.8271 H   0  0  0  0  0  0  0  0  0  0  0  0
  -10.5083   22.7795  -31.5233 H   0  0  0  0  0  0  0  0  0  0  0  0
  -10.0984   20.3463  -31.7730 H   0  0  0  0  0  0  0  0  0  0  0  0
   -8.6405   18.3096  -30.6065 H   0  0  0  0  0  0  0  0  0  0  0  0
   -9.7224   18.5044  -32.0271 H   0  0  0  0  0  0  0  0  0  0  0  0
   -8.4616   17.2249  -32.0271 H   0  0  0  0  0  0  0  0  0  0  0  0
   -7.2959   16.6700  -33.0756 H   0  0  0  0  0  0  0  0  0  0  0  0
   -5.1864   15.7916  -34.0372 H   0  0  0  0  0  0  0  0  0  0  0  0
   -3.4695   19.7400  -33.9348 H   0  0  0  0  0  0  0  0  0  0  0  0
  1  2  1  0
  2  3  1  0
  3  4  1  0
  4  5  1  0
  3  6  1  0
  6  7  1  0
  7  8  1  0
  8  9  1  0
  9 10  2  0
 10 11  1  0
 11 12  2  0
 12 13  1  0
 13 14  2  0
 14 15  1  0
 15 16  2  0
 16 17  1  0
 16 18  1  0
 18 19  2  0
 19 20  1  0
 20 21  2  0
 21 22  1  0
 21 23  1  0
 23 24  2  0
 24  9  1  0
 15 10  1  0
 24 18  1  0
  1 25  1  0
  1 26  1  0
  1 27  1  0
  2 28  1  0
  2 29  1  0
  4 30  1  0
  4 31  1  0
  5 32  1  0
  5 33  1  0
  5 34  1  0
  6 35  1  0
  6 36  1  0
  7 37  1  0
  7 38  1  0
  8 39  1  0
  8 40  1  0
 11 41  1  0
 12 42  1  0
 13 43  1  0
 14 44  1  0
 17 45  1  0
 17 46  1  0
 17 47  1  0
 19 48  1  0
 20 49  1  0
 23 50  1  0
M  CHG  2   8   1  16   1
M  END
>  <UniqueID>  (28) 
28

>  <SMILES>  (28) 
CCN(CC)CC[NH2+]c1c2ccccc2[n+](C)c2ccc(Br)cc12

>  <Energy>  (28) 
79.07640550433852

>  <Genealogy>  (28) 
CCN(CC)CC[NH2+]c1c2ccccc2[n+](C)c2ccc(Br)cc12 (protonated)
CCN(CC)CC[NH2+]c1c2ccccc2[n+](C)c2ccc(Br)cc12 (3D coordinates assigned)
CCN(CC)CC[NH2+]c1c2ccccc2[n+](C)c2ccc(Br)cc12 (optimized conformer: 79.07640550433852 kcal/mol)

>  <smiles>  (28) 
CCN(CC)CCNc1c2ccccc2[n+](C)c2ccc(Br)cc12

>  <score_type>  (28) 
oracle

>  <origin>  (28) 
adg

>  <m_score__min__energy>  (28) 
-8.6799999999999997

>  <m_primary>  (28) 
energy

$$$$
28:0
     RDKit          3D

 59 61  0  0  0  0  0  0  0  0999 V2000
   -3.9650   24.1520  -27.9810 C   0  0  0  0  0  0  0  0  0  0  0  0
   -2.8990   24.5330  -29.0010 C   0  0  0  0  0  0  0  0  0  0  0  0
   -3.4890   25.1730  -30.1310 O   0  0  0  0  0  0  0  0  0  0  0  0
   -4.7370   24.8150  -30.6600 C   0  0  0  0  0  0  0  0  0  0  0  0
   -5.6240   25.6970  -30.8210 O   0  0  0  0  0  0  0  0  0  0  0  0
   -5.0030   23.3960  -31.0250 C   0  0  0  0  0  0  0  0  0  0  0  0
   -3.9760   22.4520  -30.8900 C   0  0  0  0  0  0  0  0  0  0  0  0
   -4.1580   21.1340  -31.2160 N   0  0  0  0  0  0  0  0  0  0  0  0
   -2.9900   20.2330  -31.0910 C   0  0  0  0  0  0  0  0  0  0  0  0
   -2.0120   20.4510  -32.2220 C   0  0  0  0  0  0  0  0  0  0  0  0
   -2.3690   20.1330  -33.5420 C   0  0  0  0  0  0  0  0  0  0  0  0
   -1.4710   20.3520  -34.5900 C   0  0  0  0  0  0  0  0  0  0  0  0
   -0.1980   20.8750  -34.3380 C   0  0  0  0  0  0  0  0  0  0  0  0
    0.6640   21.0820  -35.4250 O   0  0  0  0  0  0  0  0  0  0  0  0
    1.9590   21.6660  -35.3240 C   0  0  0  0  0  0  0  0  0  0  0  0
    0.1740   21.1680  -33.0120 C   0  0  0  0  0  0  0  0  0  0  0  0
   -0.7250   20.9510  -31.9640 C   0  0  0  0  0  0  0  0  0  0  0  0
   -5.3810   20.6940  -31.6840 C   0  0  0  0  0  0  0  0  0  0  0  0
   -5.6090   19.3390  -32.0170 C   0  0  0  0  0  0  0  0  0  0  0  0
   -6.8330   18.9170  -32.5520 C   0  0  0  0  0  0  0  0  0  0  0  0
   -7.0240   17.4790  -32.9830 C   0  0  0  0  0  0  0  0  0  0  0  0
   -6.0290   17.0620  -34.0030 N   0  0  1  0  0  0  0  0  0  0  0  0
   -5.7430   18.1740  -34.9370 C   0  0  0  0  0  0  0  0  0  0  0  0
   -4.7880   16.6090  -33.3270 C   0  0  0  0  0  0  0  0  0  0  0  0
   -4.9370   15.2310  -32.6710 C   0  0  0  0  0  0  0  0  0  0  0  0
   -7.8630   19.8450  -32.7310 C   0  0  0  0  0  0  0  0  0  0  0  0
   -7.6770   21.1790  -32.3770 C   0  0  0  0  0  0  0  0  0  0  0  0
   -6.4440   21.6190  -31.8570 C   0  0  0  0  0  0  0  0  0  0  0  0
   -6.2490   22.9700  -31.5180 C   0  0  0  0  0  0  0  0  0  0  0  0
   -7.1920   23.7960  -31.6630 O   0  0  0  0  0  0  0  0  0  0  0  0
   -3.5678   24.2940  -26.9651 H   0  0  0  0  0  0  0  0  0  0  0  0
   -4.8506   24.7892  -28.1208 H   0  0  0  0  0  0  0  0  0  0  0  0
   -4.2461   23.0977  -28.1208 H   0  0  0  0  0  0  0  0  0  0  0  0
   -2.1793   25.2199  -28.5318 H   0  0  0  0  0  0  0  0  0  0  0  0
   -2.3892   23.6185  -29.3384 H   0  0  0  0  0  0  0  0  0  0  0  0
   -2.9961   22.7786  -30.5116 H   0  0  0  0  0  0  0  0  0  0  0  0
   -2.4837   20.4315  -30.1348 H   0  0  0  0  0  0  0  0  0  0  0  0
   -3.3451   19.1927  -31.1315 H   0  0  0  0  0  0  0  0  0  0  0  0
   -3.3618   19.7088  -33.7526 H   0  0  0  0  0  0  0  0  0  0  0  0
   -1.7674   20.1112  -35.6216 H   0  0  0  0  0  0  0  0  0  0  0  0
    2.2254   21.7861  -34.2635 H   0  0  0  0  0  0  0  0  0  0  0  0
    2.6952   21.0127  -35.8152 H   0  0  0  0  0  0  0  0  0  0  0  0
    1.9567   22.6502  -35.8152 H   0  0  0  0  0  0  0  0  0  0  0  0
    1.1760   21.5692  -32.8000 H   0  0  0  0  0  0  0  0  0  0  0  0
   -0.4225   21.1733  -30.9300 H   0  0  0  0  0  0  0  0  0  0  0  0
   -4.8095   18.6016  -31.8527 H   0  0  0  0  0  0  0  0  0  0  0  0
   -6.9218   16.8286  -32.1018 H   0  0  0  0  0  0  0  0  0  0  0  0
   -8.0245   17.3912  -33.4317 H   0  0  0  0  0  0  0  0  0  0  0  0
   -6.4280   16.2610  -34.5470 H   0  0  0  0  0  0  0  0  0  0  0  0
   -5.5091   19.0833  -34.3639 H   0  0  0  0  0  0  0  0  0  0  0  0
   -4.8838   17.9089  -35.5706 H   0  0  0  0  0  0  0  0  0  0  0  0
   -6.6235   18.3563  -35.5706 H   0  0  0  0  0  0  0  0  0  0  0  0
   -3.9806   16.5579  -34.0723 H   0  0  0  0  0  0  0  0  0  0  0  0
   -4.5626   17.3324  -32.5296 H   0  0  0  0  0  0  0  0  0  0  0  0
   -4.9249   15.3426  -31.5767 H   0  0  0  0  0  0  0  0  0  0  0  0
   -5.8894   14.7775  -32.9828 H   0  0  0  0  0  0  0  0  0  0  0  0
   -4.1035   14.5844  -32.9828 H   0  0  0  0  0  0  0  0  0  0  0  0
   -8.8252   19.5200  -33.1536 H   0  0  0  0  0  0  0  0  0  0  0  0
   -8.5012   21.8963  -32.5047 H   0  0  0  0  0  0  0  0  0  0  0  0
  1  2  1  0
  2  3  1  0
  3  4  1  0
  4  5  2  0
  4  6  1  0
  6  7  2  0
  7  8  1  0
  8  9  1  0
  9 10  1  0
 10 11  2  0
 11 12  1  0
 12 13  2  0
 13 14  1  0
 14 15  1  0
 13 16  1  0
 16 17  2  0
  8 18  1  0
 18 19  2  0
 19 20  1  0
 20 21  1  0
 21 22  1  0
 22 23  1  0
 22 24  1  0
 24 25  1  0
 20 26  2  0
 26 27  1  0
 27 28  2  0
 28 29  1  0
 29 30  2  0
 29  6  1  0
 17 10  1  0
 28 18  1  0
  1 31  1  0
  1 32  1  0
  1 33  1  0
  2 34  1  0
  2 35  1  0
  7 36  1  0
  9 37  1  0
  9 38  1  0
 11 39  1  0
 12 40  1  0
 15 41  1  0
 15 42  1  0
 15 43  1  0
 16 44  1  0
 17 45  1  0
 19 46  1  0
 21 47  1  0
 21 48  1  0
 22 49  1  6
 23 50  1  0
 23 51  1  0
 23 52  1  0
 24 53  1  0
 24 54  1  0
 25 55  1  0
 25 56  1  0
 25 57  1  0
 26 58  1  0
 27 59  1  0
M  CHG  1  22   1
M  END
>  <UniqueID>  (29) 
29

>  <SMILES>  (29) 
CCOC(=O)c1cn(Cc2ccc(OC)cc2)c2cc(C[N@@H+](C)CC)ccc2c1=O

>  <Energy>  (29) 
66.72648283685739

>  <Genealogy>  (29) 
CCOC(=O)c1cn(Cc2ccc(OC)cc2)c2cc(C[NH+](C)CC)ccc2c1=O (protonated)
CCOC(=O)c1cn(Cc2ccc(OC)cc2)c2cc(C[N@@H+](C)CC)ccc2c1=O (chirality)
CCOC(=O)c1cn(Cc2ccc(OC)cc2)c2cc(C[N@@H+](C)CC)ccc2c1=O (3D coordinates assigned)
CCOC(=O)c1cn(Cc2ccc(OC)cc2)c2cc(C[N@@H+](C)CC)ccc2c1=O (optimized conformer: 66.72648283685739 kcal/mol)

>  <smiles>  (29) 
CCOC(=O)c1cn(Cc2ccc(OC)cc2)c2cc(CN(C)CC)ccc2c1=O

>  <score_type>  (29) 
oracle

>  <origin>  (29) 
adg

>  <m_score__min__energy>  (29) 
-8.0800000000000001

>  <m_primary>  (29) 
energy

$$$$
29:0
     RDKit          3D

 53 56  0  0  0  0  0  0  0  0999 V2000
   -6.8080   25.0150  -30.0040 C   0  0  0  0  0  0  0  0  0  0  0  0
   -5.5210   25.6950  -30.4610 C   0  0  0  0  0  0  0  0  0  0  0  0
   -4.4910   24.6810  -30.7840 N   0  0  0  0  0  0  0  0  0  0  0  0
   -3.4810   24.5500  -29.7030 C   0  0  0  0  0  0  0  0  0  0  0  0
   -3.9920   23.8270  -28.4490 C   0  0  0  0  0  0  0  0  0  0  0  0
   -5.1080   23.3960  -31.1940 C   0  0  0  0  0  0  0  0  0  0  0  0
   -4.0920   22.4570  -31.8610 C   0  0  0  0  0  0  0  0  0  0  0  0
   -4.6400   21.8880  -33.0920 N   0  0  0  0  0  0  0  0  0  0  0  0
   -5.1300   20.5400  -33.1390 C   0  0  0  0  0  0  0  0  0  0  0  0
   -6.4630   20.2370  -32.7990 C   0  0  0  0  0  0  0  0  0  0  0  0
   -7.3130   21.2100  -32.2390 C   0  0  0  0  0  0  0  0  0  0  0  0
   -8.6210   20.8880  -31.8840 C   0  0  0  0  0  0  0  0  0  0  0  0
   -9.0940   19.5910  -32.0600 C   0  0  0  0  0  0  0  0  0  0  0  0
   -8.2670   18.6060  -32.6000 C   0  0  0  0  0  0  0  0  0  0  0  0
   -6.9400   18.9030  -32.9950 C   0  0  0  0  0  0  0  0  0  0  0  0
   -6.1090   17.9400  -33.5410 N   0  0  0  0  0  0  0  0  0  0  0  0
   -6.6070   16.5910  -33.8710 C   0  0  0  0  0  0  0  0  0  0  0  0
   -4.7920   18.2630  -33.7480 C   0  0  0  0  0  0  0  0  0  0  0  0
   -3.8200   17.4020  -34.1530 N   0  0  0  0  0  0  0  0  0  0  0  0
   -2.7150   18.1660  -34.2100 C   0  0  0  0  0  0  0  0  0  0  0  0
   -1.4240   17.7680  -34.5470 C   0  0  0  0  0  0  0  0  0  0  0  0
   -0.4070   18.7360  -34.5010 C   0  0  0  0  0  0  0  0  0  0  0  0
   -0.6990   20.0610  -34.1120 C   0  0  0  0  0  0  0  0  0  0  0  0
   -2.0110   20.4340  -33.7680 C   0  0  0  0  0  0  0  0  0  0  0  0
   -3.0110   19.4560  -33.8440 C   0  0  0  0  0  0  0  0  0  0  0  0
   -4.3300   19.5200  -33.5480 N   0  0  0  0  0  0  0  0  0  0  0  0
   -6.8426   24.9967  -28.9047 H   0  0  0  0  0  0  0  0  0  0  0  0
   -7.6742   25.5731  -30.3889 H   0  0  0  0  0  0  0  0  0  0  0  0
   -6.8351   23.9849  -30.3889 H   0  0  0  0  0  0  0  0  0  0  0  0
   -5.7282   26.2998  -31.3562 H   0  0  0  0  0  0  0  0  0  0  0  0
   -5.1484   26.3380  -29.6500 H   0  0  0  0  0  0  0  0  0  0  0  0
   -2.6223   23.9882  -30.0993 H   0  0  0  0  0  0  0  0  0  0  0  0
   -3.2154   25.5714  -29.3929 H   0  0  0  0  0  0  0  0  0  0  0  0
   -3.6251   24.3462  -27.5513 H   0  0  0  0  0  0  0  0  0  0  0  0
   -5.0920   23.8268  -28.4485 H   0  0  0  0  0  0  0  0  0  0  0  0
   -3.6251   22.7900  -28.4485 H   0  0  0  0  0  0  0  0  0  0  0  0
   -5.5191   22.8991  -30.3029 H   0  0  0  0  0  0  0  0  0  0  0  0
   -5.8983   23.6170  -31.9265 H   0  0  0  0  0  0  0  0  0  0  0  0
   -3.1803   23.0239  -32.1005 H   0  0  0  0  0  0  0  0  0  0  0  0
   -3.8614   21.6364  -31.1657 H   0  0  0  0  0  0  0  0  0  0  0  0
   -4.6140   22.4460  -33.9750 H   0  0  0  0  0  0  0  0  0  0  0  0
   -6.9410   22.2330  -32.0805 H   0  0  0  0  0  0  0  0  0  0  0  0
   -9.2815   21.6606  -31.4636 H   0  0  0  0  0  0  0  0  0  0  0  0
  -10.1257   19.3412  -31.7717 H   0  0  0  0  0  0  0  0  0  0  0  0
   -8.6517   17.5826  -32.7209 H   0  0  0  0  0  0  0  0  0  0  0  0
   -6.8111   16.0381  -32.9422 H   0  0  0  0  0  0  0  0  0  0  0  0
   -7.5332   16.6756  -34.4584 H   0  0  0  0  0  0  0  0  0  0  0  0
   -5.8480   16.0535  -34.4584 H   0  0  0  0  0  0  0  0  0  0  0  0
   -3.8700   16.3760  -34.3380 H   0  0  0  0  0  0  0  0  0  0  0  0
   -1.2076   16.7299  -34.8396 H   0  0  0  0  0  0  0  0  0  0  0  0
    0.6232   18.4597  -34.7698 H   0  0  0  0  0  0  0  0  0  0  0  0
    0.1069   20.8089  -34.0775 H   0  0  0  0  0  0  0  0  0  0  0  0
   -2.2442   21.4607  -33.4495 H   0  0  0  0  0  0  0  0  0  0  0  0
  1  2  1  0
  2  3  1  0
  3  4  1  0
  4  5  1  0
  3  6  1  0
  6  7  1  0
  7  8  1  0
  8  9  1  0
  9 10  2  0
 10 11  1  0
 11 12  2  0
 12 13  1  0
 13 14  2  0
 14 15  1  0
 15 16  2  0
 16 17  1  0
 16 18  1  0
 18 19  2  0
 19 20  1  0
 20 21  2  0
 21 22  1  0
 22 23  2  0
 23 24  1  0
 24 25  2  0
 25 26  1  0
 26  9  1  0
 15 10  1  0
 26 18  1  0
 25 20  1  0
  1 27  1  0
  1 28  1  0
  1 29  1  0
  2 30  1  0
  2 31  1  0
  4 32  1  0
  4 33  1  0
  5 34  1  0
  5 35  1  0
  5 36  1  0
  6 37  1  0
  6 38  1  0
  7 39  1  0
  7 40  1  0
  8 41  1  0
 11 42  1  0
 12 43  1  0
 13 44  1  0
 14 45  1  0
 17 46  1  0
 17 47  1  0
 17 48  1  0
 19 49  1  0
 21 50  1  0
 22 51  1  0
 23 52  1  0
 24 53  1  0
M  CHG  2  16   1  19   1
M  END
>  <UniqueID>  (30) 
30

>  <SMILES>  (30) 
CCN(CC)CCNc1c2ccccc2[n+](C)c2[nH+]c3ccccc3n12

>  <Energy>  (30) 
118.11768551422324

>  <Genealogy>  (30) 
CCN(CC)CCNc1c2ccccc2[n+](C)c2[nH+]c3ccccc3n12 (protonated)
CCN(CC)CCNc1c2ccccc2[n+](C)c2[nH+]c3ccccc3n12 (3D coordinates assigned)
CCN(CC)CCNc1c2ccccc2[n+](C)c2[nH+]c3ccccc3n12 (optimized conformer: 118.11768551422324 kcal/mol)

>  <smiles>  (30) 
CCN(CC)CCNc1c2ccccc2[n+](C)c2nc3ccccc3n12

>  <score_type>  (30) 
oracle

>  <origin>  (30) 
adg

>  <m_score__min__energy>  (30) 
-8.4600000000000009

>  <m_primary>  (30) 
energy

$$$$
30:0
     RDKit          3D

 55 56  0  0  0  0  0  0  0  0999 V2000
   -0.4280   23.1460  -29.0150 C   0  0  0  0  0  0  0  0  0  0  0  0
   -1.0280   21.8310  -28.5040 C   0  0  0  0  0  0  0  0  0  0  0  0
   -2.5120   21.8540  -28.4450 N   0  0  0  0  0  0  0  0  0  0  0  0
   -3.1120   20.5820  -27.9530 C   0  0  0  0  0  0  0  0  0  0  0  0
   -2.2200   19.7830  -26.9890 C   0  0  0  0  0  0  0  0  0  0  0  0
   -2.9970   23.0330  -27.6620 C   0  0  0  0  0  0  0  0  0  0  0  0
   -3.3930   24.2140  -28.5640 C   0  0  0  0  0  0  0  0  0  0  0  0
   -3.5190   23.8000  -29.9240 O   0  0  0  0  0  0  0  0  0  0  0  0
   -4.6330   24.0930  -30.7210 C   0  0  0  0  0  0  0  0  0  0  0  0
   -4.9760   25.2930  -30.9010 O   0  0  0  0  0  0  0  0  0  0  0  0
   -5.4080   22.9830  -31.3340 C   0  0  0  0  0  0  0  0  0  0  0  0
   -6.7830   23.1630  -31.5610 C   0  0  0  0  0  0  0  0  0  0  0  0
   -7.5500   22.1520  -32.1410 C   0  0  0  0  0  0  0  0  0  0  0  0
   -6.9670   20.9370  -32.5120 C   0  0  0  0  0  0  0  0  0  0  0  0
   -7.7920   19.9120  -33.1010 N   0  0  0  0  0  0  0  0  0  0  0  0
   -7.8160   18.5140  -32.6670 C   0  0  0  0  0  0  0  0  0  0  0  0
   -6.6280   17.7650  -33.2130 C   0  0  0  0  0  0  0  0  0  0  0  0
   -6.0660   18.1380  -34.4460 C   0  0  0  0  0  0  0  0  0  0  0  0
   -4.9640   17.4440  -34.9560 C   0  0  0  0  0  0  0  0  0  0  0  0
   -4.4110   16.3790  -34.2380 C   0  0  0  0  0  0  0  0  0  0  0  0
   -2.9090   15.4320  -34.9380 Br  0  0  0  0  0  0  0  0  0  0  0  0
   -4.9580   16.0100  -33.0050 C   0  0  0  0  0  0  0  0  0  0  0  0
   -6.0590   16.7020  -32.4910 C   0  0  0  0  0  0  0  0  0  0  0  0
   -5.5890   20.7510  -32.3020 C   0  0  0  0  0  0  0  0  0  0  0  0
   -4.8020   21.7590  -31.7060 C   0  0  0  0  0  0  0  0  0  0  0  0
   -3.4300   21.5660  -31.4710 O   0  0  0  0  0  0  0  0  0  0  0  0
   -2.5310   20.9260  -32.3730 C   0  0  0  0  0  0  0  0  0  0  0  0
   -0.1410   23.7750  -28.1594 H   0  0  0  0  0  0  0  0  0  0  0  0
    0.4609   22.9304  -29.6261 H   0  0  0  0  0  0  0  0  0  0  0  0
   -1.1734   23.6761  -29.6261 H   0  0  0  0  0  0  0  0  0  0  0  0
   -0.7166   21.0187  -29.1772 H   0  0  0  0  0  0  0  0  0  0  0  0
   -0.6604   21.6784  -27.4785 H   0  0  0  0  0  0  0  0  0  0  0  0
   -2.8360   21.9600  -29.4360 H   0  0  0  0  0  0  0  0  0  0  0  0
   -4.0496   20.8244  -27.4313 H   0  0  0  0  0  0  0  0  0  0  0  0
   -3.2618   19.9459  -28.8378 H   0  0  0  0  0  0  0  0  0  0  0  0
   -2.4917   20.0263  -25.9512 H   0  0  0  0  0  0  0  0  0  0  0  0
   -2.3643   18.7065  -27.1630 H   0  0  0  0  0  0  0  0  0  0  0  0
   -1.1658   20.0445  -27.1630 H   0  0  0  0  0  0  0  0  0  0  0  0
   -3.8747   22.7288  -27.0729 H   0  0  0  0  0  0  0  0  0  0  0  0
   -2.1728   23.3674  -27.0147 H   0  0  0  0  0  0  0  0  0  0  0  0
   -4.3557   24.6211  -28.2214 H   0  0  0  0  0  0  0  0  0  0  0  0
   -2.6064   24.9805  -28.5028 H   0  0  0  0  0  0  0  0  0  0  0  0
   -7.2606   24.1126  -31.2780 H   0  0  0  0  0  0  0  0  0  0  0  0
   -8.6253   22.3129  -32.3081 H   0  0  0  0  0  0  0  0  0  0  0  0
   -8.4540   20.1840  -33.8620 H   0  0  0  0  0  0  0  0  0  0  0  0
   -7.7919   18.4769  -31.5679 H   0  0  0  0  0  0  0  0  0  0  0  0
   -8.7350   18.0425  -33.0454 H   0  0  0  0  0  0  0  0  0  0  0  0
   -6.4943   18.9785  -35.0118 H   0  0  0  0  0  0  0  0  0  0  0  0
   -4.5313   17.7366  -35.9241 H   0  0  0  0  0  0  0  0  0  0  0  0
   -4.5215   15.1741  -32.4386 H   0  0  0  0  0  0  0  0  0  0  0  0
   -6.4816   16.4131  -31.5174 H   0  0  0  0  0  0  0  0  0  0  0  0
   -5.1175   19.8052  -32.6071 H   0  0  0  0  0  0  0  0  0  0  0  0
   -1.7650   20.3807  -31.8021 H   0  0  0  0  0  0  0  0  0  0  0  0
   -3.0879   20.2200  -33.0065 H   0  0  0  0  0  0  0  0  0  0  0  0
   -2.0462   21.6833  -33.0065 H   0  0  0  0  0  0  0  0  0  0  0  0
  1  2  1  0
  2  3  1  0
  3  4  1  0
  4  5  1  0
  3  6  1  0
  6  7  1  0
  7  8  1  0
  8  9  1  0
  9 10  2  0
  9 11  1  0
 11 12  2  0
 12 13  1  0
 13 14  2  0
 14 15  1  0
 15 16  1  0
 16 17  1  0
 17 18  2  0
 18 19  1  0
 19 20  2  0
 20 21  1  0
 20 22  1  0
 22 23  2  0
 14 24  1  0
 24 25  2  0
 25 26  1  0
 26 27  1  0
 25 11  1  0
 23 17  1  0
  1 28  1  0
  1 29  1  0
  1 30  1  0
  2 31  1  0
  2 32  1  0
  3 33  1  0
  4 34  1  0
  4 35  1  0
  5 36  1  0
  5 37  1  0
  5 38  1  0
  6 39  1  0
  6 40  1  0
  7 41  1  0
  7 42  1  0
 12 43  1  0
 13 44  1  0
 15 45  1  0
 16 46  1  0
 16 47  1  0
 18 48  1  0
 19 49  1  0
 22 50  1  0
 23 51  1  0
 24 52  1  0
 27 53  1  0
 27 54  1  0
 27 55  1  0
M  CHG  1   3   1
M  END
>  <UniqueID>  (31) 
31

>  <SMILES>  (31) 
CC[NH+](CC)CCOC(=O)c1ccc(NCc2ccc(Br)cc2)cc1OC

>  <Energy>  (31) 
57.281190764894696

>  <Genealogy>  (31) 
CC[NH+](CC)CCOC(=O)c1ccc(NCc2ccc(Br)cc2)cc1OC (protonated)
CC[NH+](CC)CCOC(=O)c1ccc(NCc2ccc(Br)cc2)cc1OC (3D coordinates assigned)
CC[NH+](CC)CCOC(=O)c1ccc(NCc2ccc(Br)cc2)cc1OC (optimized conformer: 57.281190764894696 kcal/mol)

>  <smiles>  (31) 
CCN(CC)CCOC(=O)c1ccc(NCc2ccc(Br)cc2)cc1OC

>  <score_type>  (31) 
oracle

>  <origin>  (31) 
adg

>  <m_score__min__energy>  (31) 
-8.0899999999999999

>  <m_primary>  (31) 
energy

$$$$
31:0
     RDKit          3D

 49 51  0  0  0  0  0  0  0  0999 V2000
   -6.4030   25.1720  -30.0370 C   0  0  0  0  0  0  0  0  0  0  0  0
   -5.0750   25.3340  -30.7670 C   0  0  0  0  0  0  0  0  0  0  0  0
   -4.2610   24.1000  -30.6380 N   0  0  0  0  0  0  0  0  0  0  0  0
   -3.1290   24.3260  -29.7060 C   0  0  0  0  0  0  0  0  0  0  0  0
   -3.5750   24.1690  -28.2560 C   0  0  0  0  0  0  0  0  0  0  0  0
   -5.0990   22.9670  -30.1790 C   0  0  0  0  0  0  0  0  0  0  0  0
   -4.5060   21.6090  -30.6230 C   0  0  0  0  0  0  0  0  0  0  0  0
   -3.6790   21.7020  -31.8390 N   0  0  0  0  0  0  0  0  0  0  0  0
   -4.4630   21.7370  -33.0840 C   0  0  0  0  0  0  0  0  0  0  0  0
   -5.6710   20.8010  -33.0170 C   0  0  0  0  0  0  0  0  0  0  0  0
   -5.5280   19.4220  -33.3560 C   0  0  0  0  0  0  0  0  0  0  0  0
   -4.3890   18.9290  -34.0350 C   0  0  0  0  0  0  0  0  0  0  0  0
   -4.2550   17.5670  -34.3130 C   0  0  0  0  0  0  0  0  0  0  0  0
   -5.2530   16.6710  -33.9350 C   0  0  0  0  0  0  0  0  0  0  0  0
   -6.4010   17.1360  -33.2940 C   0  0  0  0  0  0  0  0  0  0  0  0
   -6.5540   18.5040  -33.0160 C   0  0  0  0  0  0  0  0  0  0  0  0
   -7.7270   18.9550  -32.4080 C   0  0  0  0  0  0  0  0  0  0  0  0
   -7.9440   20.3190  -32.2060 C   0  0  0  0  0  0  0  0  0  0  0  0
   -9.1710   20.7520  -31.6750 C   0  0  0  0  0  0  0  0  0  0  0  0
   -9.4340   22.1110  -31.5260 C   0  0  0  0  0  0  0  0  0  0  0  0
   -8.4890   23.0510  -31.9270 C   0  0  0  0  0  0  0  0  0  0  0  0
   -7.2600   22.6380  -32.4460 C   0  0  0  0  0  0  0  0  0  0  0  0
   -6.9390   21.2630  -32.5530 C   0  0  0  0  0  0  0  0  0  0  0  0
   -6.2294   25.1932  -28.9510 H   0  0  0  0  0  0  0  0  0  0  0  0
   -7.0778   25.9945  -30.3166 H   0  0  0  0  0  0  0  0  0  0  0  0
   -6.8603   24.2114  -30.3166 H   0  0  0  0  0  0  0  0  0  0  0  0
   -5.2682   25.5313  -31.8318 H   0  0  0  0  0  0  0  0  0  0  0  0
   -4.5227   26.1745  -30.3215 H   0  0  0  0  0  0  0  0  0  0  0  0
   -2.3357   23.5945  -29.9195 H   0  0  0  0  0  0  0  0  0  0  0  0
   -2.7566   25.3511  -29.8490 H   0  0  0  0  0  0  0  0  0  0  0  0
   -2.7522   24.4587  -27.5859 H   0  0  0  0  0  0  0  0  0  0  0  0
   -4.4455   24.8147  -28.0682 H   0  0  0  0  0  0  0  0  0  0  0  0
   -3.8490   23.1204  -28.0682 H   0  0  0  0  0  0  0  0  0  0  0  0
   -5.1598   22.9889  -29.0809 H   0  0  0  0  0  0  0  0  0  0  0  0
   -6.0978   23.0715  -30.6279 H   0  0  0  0  0  0  0  0  0  0  0  0
   -3.8823   21.2169  -29.8061 H   0  0  0  0  0  0  0  0  0  0  0  0
   -5.3519   20.9452  -30.8551 H   0  0  0  0  0  0  0  0  0  0  0  0
   -3.0680   22.5500  -31.7930 H   0  0  0  0  0  0  0  0  0  0  0  0
   -4.8169   22.7646  -33.2539 H   0  0  0  0  0  0  0  0  0  0  0  0
   -3.8148   21.4027  -33.9075 H   0  0  0  0  0  0  0  0  0  0  0  0
   -3.5989   19.6274  -34.3480 H   0  0  0  0  0  0  0  0  0  0  0  0
   -3.3577   17.1999  -34.8327 H   0  0  0  0  0  0  0  0  0  0  0  0
   -5.1354   15.5971  -34.1422 H   0  0  0  0  0  0  0  0  0  0  0  0
   -7.1910   16.4273  -33.0046 H   0  0  0  0  0  0  0  0  0  0  0  0
   -8.4874   18.2286  -32.0851 H   0  0  0  0  0  0  0  0  0  0  0  0
   -9.9283   20.0126  -31.3753 H   0  0  0  0  0  0  0  0  0  0  0  0
  -10.3887   22.4419  -31.0913 H   0  0  0  0  0  0  0  0  0  0  0  0
   -8.7113   24.1243  -31.8347 H   0  0  0  0  0  0  0  0  0  0  0  0
   -6.5305   23.3920  -32.7766 H   0  0  0  0  0  0  0  0  0  0  0  0
  1  2  1  0
  2  3  1  0
  3  4  1  0
  4  5  1  0
  3  6  1  0
  6  7  1  0
  7  8  1  0
  8  9  1  0
  9 10  1  0
 10 11  2  0
 11 12  1  0
 12 13  2  0
 13 14  1  0
 14 15  2  0
 15 16  1  0
 16 17  2  0
 17 18  1  0
 18 19  2  0
 19 20  1  0
 20 21  2  0
 21 22  1  0
 22 23  2  0
 23 10  1  0
 16 11  1  0
 23 18  1  0
  1 24  1  0
  1 25  1  0
  1 26  1  0
  2 27  1  0
  2 28  1  0
  4 29  1  0
  4 30  1  0
  5 31  1  0
  5 32  1  0
  5 33  1  0
  6 34  1  0
  6 35  1  0
  7 36  1  0
  7 37  1  0
  8 38  1  0
  9 39  1  0
  9 40  1  0
 12 41  1  0
 13 42  1  0
 14 43  1  0
 15 44  1  0
 17 45  1  0
 19 46  1  0
 20 47  1  0
 21 48  1  0
 22 49  1  0
M  END
>  <UniqueID>  (32) 
32

>  <SMILES>  (32) 
CCN(CC)CCNCc1c2ccccc2cc2ccccc12

>  <Energy>  (32) 
64.62590131032054

>  <Genealogy>  (32) 
CCN(CC)CCNCc1c2ccccc2cc2ccccc12 (3D coordinates assigned)
CCN(CC)CCNCc1c2ccccc2cc2ccccc12 (optimized conformer: 64.62590131032054 kcal/mol)

>  <smiles>  (32) 
CCN(CC)CCNCc1c2ccccc2cc2ccccc12

>  <score_type>  (32) 
oracle

>  <origin>  (32) 
adg

>  <m_score__min__energy>  (32) 
-9.0199999999999996

>  <m_primary>  (32) 
energy

$$$$
32:0
     RDKit          3D

 38 39  0  0  0  0  0  0  0  0999 V2000
   -9.3720   21.7360  -31.9670 C   0  0  0  0  0  0  0  0  0  0  0  0
   -7.9510   22.1020  -31.6430 C   0  0  0  0  0  0  0  0  0  0  0  0
   -7.6880   23.3050  -30.9750 C   0  0  0  0  0  0  0  0  0  0  0  0
   -6.3820   23.6730  -30.6530 C   0  0  0  0  0  0  0  0  0  0  0  0
   -6.1110   25.3340  -29.7330 Br  0  0  0  0  0  0  0  0  0  0  0  0
   -5.3110   22.8260  -30.9850 C   0  0  0  0  0  0  0  0  0  0  0  0
   -3.5140   23.3120  -30.4890 Br  0  0  0  0  0  0  0  0  0  0  0  0
   -5.5600   21.6210  -31.6730 C   0  0  0  0  0  0  0  0  0  0  0  0
   -4.1220   20.3790  -31.9920 Br  0  0  0  0  0  0  0  0  0  0  0  0
   -6.8790   21.2830  -32.0480 C   0  0  0  0  0  0  0  0  0  0  0  0
   -7.1400   20.1220  -32.7880 O   0  0  0  0  0  0  0  0  0  0  0  0
   -8.0410   19.1020  -32.3470 C   0  0  0  0  0  0  0  0  0  0  0  0
   -7.4720   17.6980  -32.6240 C   0  0  0  0  0  0  0  0  0  0  0  0
   -6.0780   17.7180  -33.1360 N   0  0  1  0  0  0  0  0  0  0  0  0
   -5.3170   16.5240  -32.7050 C   0  0  0  0  0  0  0  0  0  0  0  0
   -3.8260   16.6310  -33.0900 C   0  0  0  0  0  0  0  0  0  0  0  0
   -3.5890   17.5380  -34.3070 C   0  0  1  0  0  0  0  0  0  0  0  0
   -2.4150   17.1740  -34.9420 F   0  0  0  0  0  0  0  0  0  0  0  0
   -4.7570   17.4440  -35.2880 C   0  0  0  0  0  0  0  0  0  0  0  0
   -6.0990   17.8210  -34.6200 C   0  0  0  0  0  0  0  0  0  0  0  0
   -9.9353   21.5909  -31.0334 H   0  0  0  0  0  0  0  0  0  0  0  0
   -9.8345   22.5443  -32.5524 H   0  0  0  0  0  0  0  0  0  0  0  0
   -9.3864   20.8048  -32.5524 H   0  0  0  0  0  0  0  0  0  0  0  0
   -8.5222   23.9677  -30.7010 H   0  0  0  0  0  0  0  0  0  0  0  0
   -8.2084   19.2143  -31.2656 H   0  0  0  0  0  0  0  0  0  0  0  0
   -8.9862   19.2098  -32.8993 H   0  0  0  0  0  0  0  0  0  0  0  0
   -7.4912   17.1226  -31.6867 H   0  0  0  0  0  0  0  0  0  0  0  0
   -8.0985   17.2414  -33.4044 H   0  0  0  0  0  0  0  0  0  0  0  0
   -5.6050   18.5750  -32.7590 H   0  0  0  0  0  0  0  0  0  0  0  0
   -5.7471   15.6335  -33.1867 H   0  0  0  0  0  0  0  0  0  0  0  0
   -5.3850   16.4495  -31.6096 H   0  0  0  0  0  0  0  0  0  0  0  0
   -3.4502   15.6239  -33.3237 H   0  0  0  0  0  0  0  0  0  0  0  0
   -3.2947   17.0768  -32.2362 H   0  0  0  0  0  0  0  0  0  0  0  0
   -3.5095   18.5776  -33.9563 H   0  0  0  0  0  0  0  0  0  0  0  0
   -4.8239   16.4125  -35.6643 H   0  0  0  0  0  0  0  0  0  0  0  0
   -4.5724   18.1529  -36.1086 H   0  0  0  0  0  0  0  0  0  0  0  0
   -6.8793   17.1474  -35.0039 H   0  0  0  0  0  0  0  0  0  0  0  0
   -6.2959   18.8748  -34.8664 H   0  0  0  0  0  0  0  0  0  0  0  0
  1  2  1  0
  2  3  2  0
  3  4  1  0
  4  5  1  0
  4  6  2  0
  6  7  1  0
  6  8  1  0
  8  9  1  0
  8 10  2  0
 10 11  1  0
 11 12  1  0
 12 13  1  0
 13 14  1  0
 14 15  1  0
 15 16  1  0
 16 17  1  0
 17 18  1  0
 17 19  1  0
 19 20  1  0
 10  2  1  0
 20 14  1  0
  1 21  1  0
  1 22  1  0
  1 23  1  0
  3 24  1  0
 12 25  1  0
 12 26  1  0
 13 27  1  0
 13 28  1  0
 14 29  1  1
 15 30  1  0
 15 31  1  0
 16 32  1  0
 16 33  1  0
 17 34  1  1
 19 35  1  0
 19 36  1  0
 20 37  1  0
 20 38  1  0
M  CHG  1  14   1
M  END
>  <UniqueID>  (33) 
33

>  <SMILES>  (33) 
Cc1cc(Br)c(Br)c(Br)c1OCC[NH+]1CCC(F)CC1

>  <Energy>  (33) 
53.73099988053928

>  <Genealogy>  (33) 
Cc1cc(Br)c(Br)c(Br)c1OCC[NH+]1CCC(F)CC1 (protonated)
Cc1cc(Br)c(Br)c(Br)c1OCC[NH+]1CCC(F)CC1 (3D coordinates assigned)
Cc1cc(Br)c(Br)c(Br)c1OCC[NH+]1CCC(F)CC1 (nonaromatic ring conformer: 53.73099988053928 kcal/mol)

>  <smiles>  (33) 
Cc1cc(Br)c(Br)c(Br)c1OCCN1CCC(F)CC1

>  <score_type>  (33) 
oracle

>  <origin>  (33) 
adg

>  <m_score__min__energy>  (33) 
-7.3700000000000001

>  <m_primary>  (33) 
energy

$$$$
33:0
     RDKit          3D

 26 28  0  0  0  0  0  0  0  0999 V2000
   -0.2410   26.6870  -23.9950 C   0  0  0  0  0  0  0  0  0  0  0  0
   -0.7150   26.3030  -25.3650 C   0  0  0  0  0  0  0  0  0  0  0  0
   -0.0440   26.7970  -26.5150 C   0  0  0  0  0  0  0  0  0  0  0  0
   -0.5020   26.4750  -27.8060 C   0  0  0  0  0  0  0  0  0  0  0  0
   -1.6330   25.6720  -27.9040 C   0  0  0  0  0  0  0  0  0  0  0  0
   -2.2450   25.2450  -28.9760 O   0  0  0  0  0  0  0  0  0  0  0  0
   -3.2650   24.5270  -28.5370 C   0  0  0  0  0  0  0  0  0  0  0  0
   -4.1980   23.8720  -29.4090 C   0  0  0  0  0  0  0  0  0  0  0  0
   -4.9820   23.3220  -30.1410 C   0  0  0  0  0  0  0  0  0  0  0  0
   -5.9170   22.6670  -31.0140 C   0  0  0  0  0  0  0  0  0  0  0  0
   -7.2800   22.9880  -31.0530 C   0  0  0  0  0  0  0  0  0  0  0  0
   -7.9980   22.2300  -31.9680 C   0  0  0  0  0  0  0  0  0  0  0  0
   -6.9300   21.1700  -32.7180 S   0  0  0  0  0  0  0  0  0  0  0  0
   -5.5480   21.6570  -31.8950 C   0  0  0  0  0  0  0  0  0  0  0  0
   -3.3490   24.4650  -27.1830 N   0  0  0  0  0  0  0  0  0  0  0  0
   -2.2920   25.2060  -26.8080 C   0  0  0  0  0  0  0  0  0  0  0  0
   -1.8700   25.5020  -25.5150 C   0  0  0  0  0  0  0  0  0  0  0  0
   -0.8613   26.1845  -23.2382 H   0  0  0  0  0  0  0  0  0  0  0  0
    0.8083   26.3812  -23.8710 H   0  0  0  0  0  0  0  0  0  0  0  0
   -0.3224   27.7770  -23.8710 H   0  0  0  0  0  0  0  0  0  0  0  0
    0.8423   27.4375  -26.3954 H   0  0  0  0  0  0  0  0  0  0  0  0
    0.0151   26.8446  -28.7038 H   0  0  0  0  0  0  0  0  0  0  0  0
   -7.7364   23.7641  -30.4210 H   0  0  0  0  0  0  0  0  0  0  0  0
   -9.0769   22.3091  -32.1674 H   0  0  0  0  0  0  0  0  0  0  0  0
   -4.5348   21.2502  -32.0292 H   0  0  0  0  0  0  0  0  0  0  0  0
   -2.4174   25.1249  -24.6386 H   0  0  0  0  0  0  0  0  0  0  0  0
  1  2  1  0
  2  3  2  0
  3  4  1  0
  4  5  2  0
  5  6  1  0
  6  7  1  0
  7  8  1  0
  8  9  3  0
  9 10  1  0
 10 11  1  0
 11 12  2  0
 12 13  1  0
 13 14  1  0
  7 15  2  0
 15 16  1  0
 16 17  2  0
 17  2  1  0
 16  5  1  0
 14 10  2  0
  1 18  1  0
  1 19  1  0
  1 20  1  0
  3 21  1  0
  4 22  1  0
 11 23  1  0
 12 24  1  0
 14 25  1  0
 17 26  1  0
M  END
>  <UniqueID>  (34) 
34

>  <SMILES>  (34) 
Cc1ccc2oc(C#Cc3ccsc3)nc2c1

>  <Energy>  (34) 
86.5957465528699

>  <Genealogy>  (34) 
Cc1ccc2oc(C#Cc3ccsc3)nc2c1 (3D coordinates assigned)
Cc1ccc2oc(C#Cc3ccsc3)nc2c1 (optimized conformer: 86.5957465528699 kcal/mol)

>  <smiles>  (34) 
Cc1ccc2oc(C#Cc3ccsc3)nc2c1

>  <score_type>  (34) 
oracle

>  <origin>  (34) 
adg

>  <m_score__min__energy>  (34) 
-5.9699999999999998

>  <m_primary>  (34) 
energy

$$$$
34:0
     RDKit          3D

 52 54  0  0  0  0  0  0  0  0999 V2000
   -6.7560   24.7810  -28.9790 H   0  0  0  0  0  0  0  0  0  0  0  0
   -7.2530   24.1080  -29.6020 N   0  0  0  0  0  0  0  0  0  0  0  0
   -6.7200   23.3980  -30.5540 C   0  0  0  0  0  0  0  0  0  0  0  0
   -5.4690   23.8360  -31.0620 C   0  0  0  0  0  0  0  0  0  0  0  0
   -4.8750   25.1190  -30.5960 C   0  0  0  0  0  0  0  0  0  0  0  0
   -5.6360   26.0960  -30.3510 O   0  0  0  0  0  0  0  0  0  0  0  0
   -3.4970   25.2390  -30.3740 O   0  0  0  0  0  0  0  0  0  0  0  0
   -2.7690   24.4120  -29.4680 C   0  0  0  0  0  0  0  0  0  0  0  0
   -2.5468   23.4509  -29.9547 H   0  0  0  0  0  0  0  0  0  0  0  0
   -1.8352   24.9241  -29.1927 H   0  0  0  0  0  0  0  0  0  0  0  0
   -3.5810   24.1570  -28.2030 C   0  0  0  0  0  0  0  0  0  0  0  0
   -2.9553   24.3535  -27.3199 H   0  0  0  0  0  0  0  0  0  0  0  0
   -4.4558   24.8237  -28.1882 H   0  0  0  0  0  0  0  0  0  0  0  0
   -3.9177   23.1099  -28.1882 H   0  0  0  0  0  0  0  0  0  0  0  0
   -4.7030   23.1680  -31.9640 N   0  0  0  0  0  0  0  0  0  0  0  0
   -4.8070   22.0160  -32.6670 C   0  0  0  0  0  0  0  0  0  0  0  0
   -3.7440   21.6960  -33.5210 O   0  0  0  0  0  0  0  0  0  0  0  0
   -3.0130   20.4980  -33.4930 C   0  0  0  0  0  0  0  0  0  0  0  0
   -3.5910   19.2580  -33.8280 C   0  0  0  0  0  0  0  0  0  0  0  0
   -4.6502   19.2080  -34.1205 H   0  0  0  0  0  0  0  0  0  0  0  0
   -2.8230   18.0910  -33.7900 C   0  0  0  0  0  0  0  0  0  0  0  0
   -3.2753   17.1268  -34.0653 H   0  0  0  0  0  0  0  0  0  0  0  0
   -1.4820   18.1470  -33.4030 C   0  0  0  0  0  0  0  0  0  0  0  0
   -0.8775   17.2282  -33.3800 H   0  0  0  0  0  0  0  0  0  0  0  0
   -0.9080   19.3700  -33.0450 C   0  0  0  0  0  0  0  0  0  0  0  0
    0.1456   19.4126  -32.7319 H   0  0  0  0  0  0  0  0  0  0  0  0
   -1.6740   20.5400  -33.0850 C   0  0  0  0  0  0  0  0  0  0  0  0
   -1.2214   21.4994  -32.7940 H   0  0  0  0  0  0  0  0  0  0  0  0
   -5.8830   21.2030  -32.6300 N   0  0  0  0  0  0  0  0  0  0  0  0
   -7.0240   21.2860  -31.9230 C   0  0  0  0  0  0  0  0  0  0  0  0
   -7.3990   22.2460  -31.0010 C   0  0  0  0  0  0  0  0  0  0  0  0
   -8.6620   21.8070  -30.5880 C   0  0  0  0  0  0  0  0  0  0  0  0
   -9.2938   22.3195  -29.8476 H   0  0  0  0  0  0  0  0  0  0  0  0
   -8.9940   20.6690  -31.2250 N   0  0  0  0  0  0  0  0  0  0  0  0
   -7.9950   20.3570  -32.0290 N   0  0  0  0  0  0  0  0  0  0  0  0
   -7.9910   19.1760  -32.8920 C   0  0  0  0  0  0  0  0  0  0  0  0
   -8.8585   18.5476  -32.6420 H   0  0  0  0  0  0  0  0  0  0  0  0
   -8.0399   19.5127  -33.9381 H   0  0  0  0  0  0  0  0  0  0  0  0
   -6.7100   18.3520  -32.7110 C   0  0  0  0  0  0  0  0  0  0  0  0
   -6.7541   17.4776  -33.3769 H   0  0  0  0  0  0  0  0  0  0  0  0
   -5.8547   18.9988  -32.9561 H   0  0  0  0  0  0  0  0  0  0  0  0
   -6.5340   17.8650  -31.2670 C   0  0  0  0  0  0  0  0  0  0  0  0
   -6.0381   18.6492  -30.6762 H   0  0  0  0  0  0  0  0  0  0  0  0
   -7.5224   17.6430  -30.8383 H   0  0  0  0  0  0  0  0  0  0  0  0
   -5.7440   16.6910  -31.2440 O   0  0  0  0  0  0  0  0  0  0  0  0
   -5.3830   16.3110  -32.5550 C   0  0  0  0  0  0  0  0  0  0  0  0
   -6.2913   16.1338  -33.1496 H   0  0  0  0  0  0  0  0  0  0  0  0
   -4.7927   17.1130  -33.0222 H   0  0  0  0  0  0  0  0  0  0  0  0
   -4.5560   15.0360  -32.4980 C   0  0  0  0  0  0  0  0  0  0  0  0
   -4.3778   14.7612  -31.4479 H   0  0  0  0  0  0  0  0  0  0  0  0
   -5.0995   14.2235  -33.0024 H   0  0  0  0  0  0  0  0  0  0  0  0
   -3.5925   15.2010  -33.0024 H   0  0  0  0  0  0  0  0  0  0  0  0
  1  2  1  0
  2  3  2  0
  3  4  1  0
  4  5  1  0
  5  6  2  0
  5  7  1  0
  7  8  1  0
  8  9  1  0
  8 10  1  0
  8 11  1  0
 11 12  1  0
 11 13  1  0
 11 14  1  0
  4 15  2  0
 15 16  1  0
 16 17  1  0
 17 18  1  0
 18 19  2  0
 19 20  1  0
 19 21  1  0
 21 22  1  0
 21 23  2  0
 23 24  1  0
 23 25  1  0
 25 26  1  0
 25 27  2  0
 27 28  1  0
 16 29  2  0
 29 30  1  0
 30 31  2  0
 31 32  1  0
 32 33  1  0
 32 34  2  0
 34 35  1  0
 35 36  1  0
 36 37  1  0
 36 38  1  0
 36 39  1  0
 39 40  1  0
 39 41  1  0
 39 42  1  0
 42 43  1  0
 42 44  1  0
 42 45  1  0
 45 46  1  0
 46 47  1  0
 46 48  1  0
 46 49  1  0
 49 50  1  0
 49 51  1  0
 49 52  1  0
 31  3  1  0
 27 18  1  0
 35 30  1  0
M  END
>  <UniqueID>  (35) 
35

>  <SMILES>  (35) 
[H]/N=c1/c(C(=O)OCC)nc(Oc2ccccc2)nc2c1cnn2CCCOCC

>  <Energy>  (35) 
105.30033654094679

>  <Genealogy>  (35) 
[H]/N=c1/c(C(=O)OCC)nc(Oc2ccccc2)nc2c1cnn2CCCOCC (cis-trans isomerization)
[H]/N=c1/c(C(=O)OCC)nc(Oc2ccccc2)nc2c1cnn2CCCOCC (3D coordinates assigned)
[H]/N=c1/c(C(=O)OCC)nc(Oc2ccccc2)nc2c1cnn2CCCOCC (optimized conformer: 105.30033654094679 kcal/mol)

>  <smiles>  (35) 
CCOCCCn1ncc2c(=N)c(C(=O)OCC)nc(Oc3ccccc3)nc21

>  <score_type>  (35) 
oracle

>  <origin>  (35) 
adg

>  <m_score__min__energy>  (35) 
-8.2300000000000004

>  <m_primary>  (35) 
energy

$$$$
35:0
     RDKit          3D

 45 46  0  0  0  0  0  0  0  0999 V2000
   -3.2210   18.9320  -26.4500 C   0  0  0  0  0  0  0  0  0  0  0  0
   -1.9490   19.7720  -26.3560 C   0  0  0  0  0  0  0  0  0  0  0  0
   -1.9440   20.8330  -27.3900 N   0  0  0  0  0  0  0  0  0  0  0  0
   -2.7530   20.4190  -28.5530 C   0  0  0  0  0  0  0  0  0  0  0  0
   -0.5580   21.1530  -27.8040 C   0  0  0  0  0  0  0  0  0  0  0  0
   -0.3900   22.6440  -28.1400 C   0  0  0  0  0  0  0  0  0  0  0  0
   -1.6790   23.2650  -28.4430 N   0  0  0  0  0  0  0  0  0  0  0  0
   -1.7910   24.5880  -28.9890 C   0  0  0  0  0  0  0  0  0  0  0  0
   -0.7650   25.3060  -29.1220 O   0  0  0  0  0  0  0  0  0  0  0  0
   -3.0690   25.1390  -29.3310 N   0  0  0  0  0  0  0  0  0  0  0  0
   -4.1510   24.4310  -29.9500 C   0  0  0  0  0  0  0  0  0  0  0  0
   -4.3750   23.0930  -29.5980 C   0  0  0  0  0  0  0  0  0  0  0  0
   -5.4400   22.3840  -30.1600 C   0  0  0  0  0  0  0  0  0  0  0  0
   -6.3070   23.0140  -31.0600 C   0  0  0  0  0  0  0  0  0  0  0  0
   -7.6750   22.1000  -31.7770 S   0  0  0  0  0  0  0  0  0  0  0  0
   -6.6090   20.8140  -32.4410 C   0  0  0  0  0  0  0  0  0  0  0  0
   -5.3370   21.1650  -32.9150 C   0  0  0  0  0  0  0  0  0  0  0  0
   -4.4800   20.1890  -33.4300 C   0  0  0  0  0  0  0  0  0  0  0  0
   -4.8920   18.8550  -33.4830 C   0  0  0  0  0  0  0  0  0  0  0  0
   -6.1640   18.4980  -33.0260 C   0  0  0  0  0  0  0  0  0  0  0  0
   -7.0290   19.4700  -32.5090 C   0  0  0  0  0  0  0  0  0  0  0  0
   -8.7740   18.9230  -31.9350 Br  0  0  0  0  0  0  0  0  0  0  0  0
   -6.0980   24.3540  -31.4040 C   0  0  0  0  0  0  0  0  0  0  0  0
   -5.0330   25.0650  -30.8420 C   0  0  0  0  0  0  0  0  0  0  0  0
   -3.5797   18.6952  -25.4374 H   0  0  0  0  0  0  0  0  0  0  0  0
   -3.9947   19.4974  -26.9901 H   0  0  0  0  0  0  0  0  0  0  0  0
   -3.0048   17.9984  -26.9901 H   0  0  0  0  0  0  0  0  0  0  0  0
   -1.8966   20.2376  -25.3608 H   0  0  0  0  0  0  0  0  0  0  0  0
   -1.0801   19.1170  -26.5175 H   0  0  0  0  0  0  0  0  0  0  0  0
   -3.6814   19.9439  -28.2034 H   0  0  0  0  0  0  0  0  0  0  0  0
   -2.9994   21.3018  -29.1612 H   0  0  0  0  0  0  0  0  0  0  0  0
   -2.1811   19.7028  -29.1612 H   0  0  0  0  0  0  0  0  0  0  0  0
    0.1271   20.8940  -26.9833 H   0  0  0  0  0  0  0  0  0  0  0  0
   -0.3297   20.5716  -28.7094 H   0  0  0  0  0  0  0  0  0  0  0  0
    0.0623   23.1574  -27.2787 H   0  0  0  0  0  0  0  0  0  0  0  0
    0.2562   22.7314  -29.0259 H   0  0  0  0  0  0  0  0  0  0  0  0
   -2.5450   22.7200  -28.2340 H   0  0  0  0  0  0  0  0  0  0  0  0
   -3.7090   22.5984  -28.8756 H   0  0  0  0  0  0  0  0  0  0  0  0
   -5.5973   21.3282  -29.8944 H   0  0  0  0  0  0  0  0  0  0  0  0
   -5.0117   22.2153  -32.8812 H   0  0  0  0  0  0  0  0  0  0  0  0
   -3.4809   20.4709  -33.7937 H   0  0  0  0  0  0  0  0  0  0  0  0
   -4.2157   18.0859  -33.8842 H   0  0  0  0  0  0  0  0  0  0  0  0
   -6.4871   17.4476  -33.0729 H   0  0  0  0  0  0  0  0  0  0  0  0
   -6.7727   24.8492  -32.1179 H   0  0  0  0  0  0  0  0  0  0  0  0
   -4.8850   26.1243  -31.0990 H   0  0  0  0  0  0  0  0  0  0  0  0
  1  2  1  0
  2  3  1  0
  3  4  1  0
  3  5  1  0
  5  6  1  0
  6  7  1  0
  7  8  1  0
  8  9  2  0
  8 10  1  0
 10 11  1  0
 11 12  2  0
 12 13  1  0
 13 14  2  0
 14 15  1  0
 15 16  1  0
 16 17  2  0
 17 18  1  0
 18 19  2  0
 19 20  1  0
 20 21  2  0
 21 22  1  0
 14 23  1  0
 23 24  2  0
 24 11  1  0
 21 16  1  0
  1 25  1  0
  1 26  1  0
  1 27  1  0
  2 28  1  0
  2 29  1  0
  4 30  1  0
  4 31  1  0
  4 32  1  0
  5 33  1  0
  5 34  1  0
  6 35  1  0
  6 36  1  0
  7 37  1  0
 12 38  1  0
 13 39  1  0
 17 40  1  0
 18 41  1  0
 19 42  1  0
 20 43  1  0
 23 44  1  0
 24 45  1  0
M  CHG  1  10  -1
M  END
>  <UniqueID>  (36) 
36

>  <SMILES>  (36) 
CCN(C)CCNC(=O)[N-]c1ccc(Sc2ccccc2Br)cc1

>  <Energy>  (36) 
42.218336910862824

>  <Genealogy>  (36) 
CCN(C)CCNC(=O)[N-]c1ccc(Sc2ccccc2Br)cc1 (protonated)
CCN(C)CCNC(=O)[N-]c1ccc(Sc2ccccc2Br)cc1 (3D coordinates assigned)
CCN(C)CCNC(=O)[N-]c1ccc(Sc2ccccc2Br)cc1 (optimized conformer: 42.218336910862824 kcal/mol)

>  <smiles>  (36) 
CCN(C)CCNC(=O)Nc1ccc(Sc2ccccc2Br)cc1

>  <score_type>  (36) 
oracle

>  <origin>  (36) 
adg

>  <m_score__min__energy>  (36) 
-9.4299999999999997

>  <m_primary>  (36) 
energy

$$$$
36:0
     RDKit          3D

 51 53  0  0  0  0  0  0  0  0999 V2000
   -3.3200   24.5220  -27.1260 C   0  0  0  0  0  0  0  0  0  0  0  0
   -2.2610   24.0900  -28.1360 C   0  0  0  0  0  0  0  0  0  0  0  0
   -2.8760   23.5610  -29.3620 N   0  0  0  0  0  0  0  0  0  0  0  0
   -2.1400   22.5850  -30.1810 C   0  0  0  0  0  0  0  0  0  0  0  0
   -3.0790   21.8110  -31.0720 C   0  0  0  0  0  0  0  0  0  0  0  0
   -3.5850   20.5720  -30.6570 C   0  0  0  0  0  0  0  0  0  0  0  0
   -4.4250   19.8350  -31.4960 C   0  0  0  0  0  0  0  0  0  0  0  0
   -4.7890   20.3320  -32.7590 C   0  0  0  0  0  0  0  0  0  0  0  0
   -5.6960   19.5230  -33.6700 C   0  0  0  0  0  0  0  0  0  0  0  0
   -7.1480   19.6730  -33.3890 N   0  0  0  0  0  0  0  0  0  0  0  0
   -7.4930   20.9580  -32.7180 C   0  0  0  0  0  0  0  0  0  0  0  0
   -7.8670   20.7610  -31.2410 C   0  0  0  0  0  0  0  0  0  0  0  0
   -9.0270   19.8630  -31.0920 N   0  0  0  0  0  0  0  0  0  0  0  0
   -9.1010   18.8020  -32.1170 C   0  0  0  0  0  0  0  0  0  0  0  0
   -7.7250   18.4820  -32.7160 C   0  0  0  0  0  0  0  0  0  0  0  0
   -4.2510   21.5580  -33.1860 C   0  0  0  0  0  0  0  0  0  0  0  0
   -3.4120   22.2960  -32.3460 C   0  0  0  0  0  0  0  0  0  0  0  0
   -4.2320   23.9310  -29.7010 C   0  0  0  0  0  0  0  0  0  0  0  0
   -4.4920   25.1410  -30.3670 C   0  0  0  0  0  0  0  0  0  0  0  0
   -5.8020   25.4920  -30.7120 C   0  0  0  0  0  0  0  0  0  0  0  0
   -6.8610   24.6420  -30.3920 C   0  0  0  0  0  0  0  0  0  0  0  0
   -6.6150   23.4390  -29.7250 C   0  0  0  0  0  0  0  0  0  0  0  0
   -5.3080   23.0840  -29.3780 C   0  0  0  0  0  0  0  0  0  0  0  0
   -2.9389   24.3665  -26.1059 H   0  0  0  0  0  0  0  0  0  0  0  0
   -3.5531   25.5871  -27.2720 H   0  0  0  0  0  0  0  0  0  0  0  0
   -4.2315   23.9238  -27.2720 H   0  0  0  0  0  0  0  0  0  0  0  0
   -1.6368   24.9582  -28.3941 H   0  0  0  0  0  0  0  0  0  0  0  0
   -1.6524   23.2942  -27.6818 H   0  0  0  0  0  0  0  0  0  0  0  0
   -1.4086   23.1184  -30.8060 H   0  0  0  0  0  0  0  0  0  0  0  0
   -1.6301   21.8778  -29.5103 H   0  0  0  0  0  0  0  0  0  0  0  0
   -3.3195   20.1773  -29.6652 H   0  0  0  0  0  0  0  0  0  0  0  0
   -4.8047   18.8571  -31.1649 H   0  0  0  0  0  0  0  0  0  0  0  0
   -5.5126   19.8408  -34.7070 H   0  0  0  0  0  0  0  0  0  0  0  0
   -5.4519   18.4651  -33.4935 H   0  0  0  0  0  0  0  0  0  0  0  0
   -7.6020   19.7130  -34.3340 H   0  0  0  0  0  0  0  0  0  0  0  0
   -6.6256   21.6320  -32.7767 H   0  0  0  0  0  0  0  0  0  0  0  0
   -8.3669   21.3832  -33.2332 H   0  0  0  0  0  0  0  0  0  0  0  0
   -7.0077   20.3259  -30.7097 H   0  0  0  0  0  0  0  0  0  0  0  0
   -8.1332   21.7413  -30.8189 H   0  0  0  0  0  0  0  0  0  0  0  0
   -8.9660   19.4130  -30.1480 H   0  0  0  0  0  0  0  0  0  0  0  0
   -9.5077   17.8902  -31.6552 H   0  0  0  0  0  0  0  0  0  0  0  0
   -9.7495   19.1606  -32.9299 H   0  0  0  0  0  0  0  0  0  0  0  0
   -7.0480   18.1605  -31.9108 H   0  0  0  0  0  0  0  0  0  0  0  0
   -7.8445   17.6818  -33.4612 H   0  0  0  0  0  0  0  0  0  0  0  0
   -4.4920   21.9399  -34.1890 H   0  0  0  0  0  0  0  0  0  0  0  0
   -3.0106   23.2622  -32.6855 H   0  0  0  0  0  0  0  0  0  0  0  0
   -3.6608   25.8162  -30.6186 H   0  0  0  0  0  0  0  0  0  0  0  0
   -5.9970   26.4392  -31.2361 H   0  0  0  0  0  0  0  0  0  0  0  0
   -7.8900   24.9189  -30.6649 H   0  0  0  0  0  0  0  0  0  0  0  0
   -7.4510   22.7702  -29.4725 H   0  0  0  0  0  0  0  0  0  0  0  0
   -5.1200   22.1376  -28.8498 H   0  0  0  0  0  0  0  0  0  0  0  0
  1  2  1  0
  2  3  1  0
  3  4  1  0
  4  5  1  0
  5  6  2  0
  6  7  1  0
  7  8  2  0
  8  9  1  0
  9 10  1  0
 10 11  1  0
 11 12  1  0
 12 13  1  0
 13 14  1  0
 14 15  1  0
  8 16  1  0
 16 17  2  0
  3 18  1  0
 18 19  2  0
 19 20  1  0
 20 21  2  0
 21 22  1  0
 22 23  2  0
 17  5  1  0
 23 18  1  0
 15 10  1  0
  1 24  1  0
  1 25  1  0
  1 26  1  0
  2 27  1  0
  2 28  1  0
  4 29  1  0
  4 30  1  0
  6 31  1  0
  7 32  1  0
  9 33  1  0
  9 34  1  0
 10 35  1  0
 11 36  1  0
 11 37  1  0
 12 38  1  0
 12 39  1  0
 13 40  1  0
 14 41  1  0
 14 42  1  0
 15 43  1  0
 15 44  1  0
 16 45  1  0
 17 46  1  0
 19 47  1  0
 20 48  1  0
 21 49  1  0
 22 50  1  0
 23 51  1  0
M  CHG  1  10   1
M  END
>  <UniqueID>  (37) 
37

>  <SMILES>  (37) 
CCN(Cc1ccc(C[NH+]2CCNCC2)cc1)c1ccccc1

>  <Energy>  (37) 
64.91725091680601

>  <Genealogy>  (37) 
CCN(Cc1ccc(C[NH+]2CCNCC2)cc1)c1ccccc1 (protonated)
CCN(Cc1ccc(C[NH+]2CCNCC2)cc1)c1ccccc1 (3D coordinates assigned)
CCN(Cc1ccc(C[NH+]2CCNCC2)cc1)c1ccccc1 (nonaromatic ring conformer: 64.91725091680601 kcal/mol)

>  <smiles>  (37) 
CCN(Cc1ccc(CN2CCNCC2)cc1)c1ccccc1

>  <score_type>  (37) 
oracle

>  <origin>  (37) 
adg

>  <m_score__min__energy>  (37) 
-7.5499999999999998

>  <m_primary>  (37) 
energy

$$$$
37:0
     RDKit          3D

 69 73  0  0  0  0  0  0  0  0999 V2000
   -5.5100   25.5310  -30.3200 C   0  0  0  0  0  0  0  0  0  0  0  0
   -5.1290   24.5790  -31.3070 O   0  0  0  0  0  0  0  0  0  0  0  0
   -5.8880   23.4510  -31.6560 C   0  0  0  0  0  0  0  0  0  0  0  0
   -5.3330   22.3440  -32.3270 C   0  0  0  0  0  0  0  0  0  0  0  0
   -6.1310   21.2410  -32.6480 C   0  0  0  0  0  0  0  0  0  0  0  0
   -7.4890   21.2210  -32.2960 C   0  0  0  0  0  0  0  0  0  0  0  0
   -8.3510   20.0430  -32.6620 C   0  0  0  0  0  0  0  0  0  0  0  0
   -8.2000   18.9140  -31.6250 C   0  0  0  0  0  0  0  0  0  0  0  0
   -7.2450   17.8640  -32.0620 N   0  0  0  0  0  0  0  0  0  0  0  0
   -7.2410   17.7380  -33.5480 C   0  0  0  0  0  0  0  0  0  0  0  0
   -6.0710   18.4950  -34.1930 C   0  0  0  0  0  0  0  0  0  0  0  0
   -4.7630   17.9570  -33.7410 N   0  0  0  0  0  0  0  0  0  0  0  0
   -3.6750   18.9440  -33.9250 C   0  0  0  0  0  0  0  0  0  0  0  0
   -2.5480   18.7460  -32.9020 C   0  0  0  0  0  0  0  0  0  0  0  0
   -1.2760   19.2970  -33.4130 N   0  0  0  0  0  0  0  0  0  0  0  0
   -0.0410   18.7350  -32.8590 C   0  0  1  0  0  0  0  0  0  0  0  0
    1.1400   19.2280  -33.7920 C   0  0  0  0  0  0  0  0  0  0  0  0
    0.6620   20.1140  -35.0200 C   0  0  0  0  0  0  0  0  0  0  0  0
   -0.4770   21.1700  -34.6810 C   0  0  0  0  0  0  0  0  0  0  0  0
   -1.1500   20.7640  -33.3540 C   0  0  2  0  0  0  0  0  0  0  0  0
   -1.3190   21.2100  -31.9250 C   0  0  0  0  0  0  0  0  0  0  0  0
   -2.0460   22.3480  -31.5660 C   0  0  0  0  0  0  0  0  0  0  0  0
   -2.1720   22.6900  -30.2140 C   0  0  0  0  0  0  0  0  0  0  0  0
   -2.8910   23.8210  -29.8510 O   0  0  0  0  0  0  0  0  0  0  0  0
   -1.5730   21.8950  -29.2270 C   0  0  0  0  0  0  0  0  0  0  0  0
   -0.8450   20.7510  -29.5770 C   0  0  0  0  0  0  0  0  0  0  0  0
   -0.7160   20.3880  -30.9230 C   0  0  0  0  0  0  0  0  0  0  0  0
    0.1030   19.1490  -31.3360 C   0  0  0  0  0  0  0  0  0  0  0  0
   -4.7970   17.4300  -32.3530 C   0  0  0  0  0  0  0  0  0  0  0  0
   -5.8860   18.1030  -31.5050 C   0  0  0  0  0  0  0  0  0  0  0  0
   -8.0440   22.3310  -31.6410 C   0  0  0  0  0  0  0  0  0  0  0  0
   -7.2470   23.4340  -31.3210 C   0  0  0  0  0  0  0  0  0  0  0  0
   -5.3409   25.1085  -29.3185 H   0  0  0  0  0  0  0  0  0  0  0  0
   -4.9079   26.4438  -30.4393 H   0  0  0  0  0  0  0  0  0  0  0  0
   -6.5756   25.7764  -30.4393 H   0  0  0  0  0  0  0  0  0  0  0  0
   -4.2674   22.3469  -32.5998 H   0  0  0  0  0  0  0  0  0  0  0  0
   -5.6913   20.3842  -33.1795 H   0  0  0  0  0  0  0  0  0  0  0  0
   -9.4030   20.3625  -32.6971 H   0  0  0  0  0  0  0  0  0  0  0  0
   -8.0337   19.6647  -33.6450 H   0  0  0  0  0  0  0  0  0  0  0  0
   -7.8391   19.3482  -30.6809 H   0  0  0  0  0  0  0  0  0  0  0  0
   -9.1848   18.4396  -31.5018 H   0  0  0  0  0  0  0  0  0  0  0  0
   -7.5890   16.9500  -31.6820 H   0  0  0  0  0  0  0  0  0  0  0  0
   -7.1625   16.6732  -33.8127 H   0  0  0  0  0  0  0  0  0  0  0  0
   -8.1759   18.1775  -33.9259 H   0  0  0  0  0  0  0  0  0  0  0  0
   -6.1401   18.3963  -35.2864 H   0  0  0  0  0  0  0  0  0  0  0  0
   -6.1338   19.5511  -33.8918 H   0  0  0  0  0  0  0  0  0  0  0  0
   -3.2604   18.8325  -34.9378 H   0  0  0  0  0  0  0  0  0  0  0  0
   -4.0967   19.9495  -33.7794 H   0  0  0  0  0  0  0  0  0  0  0  0
   -2.8146   19.2605  -31.9670 H   0  0  0  0  0  0  0  0  0  0  0  0
   -2.4195   17.6685  -32.7216 H   0  0  0  0  0  0  0  0  0  0  0  0
   -0.0340   17.6350  -32.8520 H   0  0  0  0  0  0  0  0  0  0  0  0
    1.8357   19.8250  -33.1840 H   0  0  0  0  0  0  0  0  0  0  0  0
    1.6124   18.3278  -34.2121 H   0  0  0  0  0  0  0  0  0  0  0  0
    1.5338   20.6636  -35.4046 H   0  0  0  0  0  0  0  0  0  0  0  0
    0.2283   19.4173  -35.7525 H   0  0  0  0  0  0  0  0  0  0  0  0
   -0.0344   22.1719  -34.5800 H   0  0  0  0  0  0  0  0  0  0  0  0
   -1.2232   21.1882  -35.4890 H   0  0  0  0  0  0  0  0  0  0  0  0
   -1.6755   21.7245  -33.4600 H   0  0  0  0  0  0  0  0  0  0  0  0
   -2.5164   22.9714  -32.3407 H   0  0  0  0  0  0  0  0  0  0  0  0
   -1.6758   22.1724  -28.1675 H   0  0  0  0  0  0  0  0  0  0  0  0
   -0.3745   20.1376  -28.7944 H   0  0  0  0  0  0  0  0  0  0  0  0
    1.1644   19.3585  -31.1371 H   0  0  0  0  0  0  0  0  0  0  0  0
   -0.2907   18.3071  -30.7476 H   0  0  0  0  0  0  0  0  0  0  0  0
   -4.9938   16.3484  -32.3892 H   0  0  0  0  0  0  0  0  0  0  0  0
   -3.8243   17.6438  -31.8861 H   0  0  0  0  0  0  0  0  0  0  0  0
   -5.8433   17.6976  -30.4833 H   0  0  0  0  0  0  0  0  0  0  0  0
   -5.7007   19.1873  -31.5075 H   0  0  0  0  0  0  0  0  0  0  0  0
   -9.1121   22.3332  -31.3779 H   0  0  0  0  0  0  0  0  0  0  0  0
   -7.6915   24.2958  -30.8016 H   0  0  0  0  0  0  0  0  0  0  0  0
  1  2  1  0
  2  3  1  0
  3  4  2  0
  4  5  1  0
  5  6  2  0
  6  7  1  0
  7  8  1  0
  8  9  1  0
  9 10  1  0
 10 11  1  0
 11 12  1  0
 12 13  1  0
 13 14  1  0
 14 15  1  0
 15 16  1  0
 16 17  1  0
 17 18  1  0
 18 19  1  0
 19 20  1  0
 20 21  1  0
 21 22  2  0
 22 23  1  0
 23 24  1  0
 23 25  2  0
 25 26  1  0
 26 27  2  0
 27 28  1  0
 12 29  1  0
 29 30  1  0
  6 31  1  0
 31 32  2  0
 32  3  1  0
 30  9  1  0
 20 15  1  0
 27 21  1  0
 28 16  1  0
  1 33  1  0
  1 34  1  0
  1 35  1  0
  4 36  1  0
  5 37  1  0
  7 38  1  0
  7 39  1  0
  8 40  1  0
  8 41  1  0
  9 42  1  0
 10 43  1  0
 10 44  1  0
 11 45  1  0
 11 46  1  0
 13 47  1  0
 13 48  1  0
 14 49  1  0
 14 50  1  0
 16 51  1  1
 17 52  1  0
 17 53  1  0
 18 54  1  0
 18 55  1  0
 19 56  1  0
 19 57  1  0
 20 58  1  6
 22 59  1  0
 25 60  1  0
 26 61  1  0
 28 62  1  0
 28 63  1  0
 29 64  1  0
 29 65  1  0
 30 66  1  0
 30 67  1  0
 31 68  1  0
 32 69  1  0
M  CHG  2   9   1  24  -1
M  END
>  <UniqueID>  (38) 
38

>  <SMILES>  (38) 
COc1ccc(CC[NH+]2CCN(CCN3[C@H]4CCC[C@H]3c3cc([O-])ccc3C4)CC2)cc1

>  <Energy>  (38) 
197.22418323354913

>  <Genealogy>  (38) 
COc1ccc(CC[NH+]2CCN(CCN3C4CCCC3c3cc([O-])ccc3C4)CC2)cc1 (protonated)
COc1ccc(CC[NH+]2CCN(CCN3[C@H]4CCC[C@H]3c3cc([O-])ccc3C4)CC2)cc1 (chirality)
COc1ccc(CC[NH+]2CCN(CCN3[C@H]4CCC[C@H]3c3cc([O-])ccc3C4)CC2)cc1 (3D coordinates assigned)
COc1ccc(CC[NH+]2CCN(CCN3[C@H]4CCC[C@H]3c3cc([O-])ccc3C4)CC2)cc1 (nonaromatic ring conformer: 197.22418323354913 kcal/mol)

>  <smiles>  (38) 
COc1ccc(CCN2CCN(CCN3C4CCCC3c3cc(O)ccc3C4)CC2)cc1

>  <score_type>  (38) 
oracle

>  <origin>  (38) 
adg

>  <m_score__min__energy>  (38) 
-11.369999999999999

>  <m_primary>  (38) 
energy

$$$$
38:0
     RDKit          3D

 37 38  0  0  0  0  0  0  0  0999 V2000
   -6.4870   16.6890  -33.3680 C   0  0  0  0  0  0  0  0  0  0  0  0
   -6.0940   17.7270  -34.4150 C   0  0  0  0  0  0  0  0  0  0  0  0
   -5.4350   18.8800  -33.7800 N   0  0  0  0  0  0  0  0  0  0  0  0
   -3.9720   18.9840  -33.8480 C   0  0  0  0  0  0  0  0  0  0  0  0
   -6.1740   19.9150  -33.0830 C   0  0  0  0  0  0  0  0  0  0  0  0
   -7.5690   19.8590  -32.9130 C   0  0  0  0  0  0  0  0  0  0  0  0
   -8.2080   20.8970  -32.2280 C   0  0  0  0  0  0  0  0  0  0  0  0
   -9.6900   20.8720  -32.0280 C   0  0  0  0  0  0  0  0  0  0  0  0
   -7.4790   21.9350  -31.7440 N   0  0  0  0  0  0  0  0  0  0  0  0
   -6.1300   21.9890  -31.9070 C   0  0  0  0  0  0  0  0  0  0  0  0
   -5.3750   23.1020  -31.3820 N   0  0  0  0  0  0  0  0  0  0  0  0
   -5.9420   24.4570  -31.4320 C   0  0  0  0  0  0  0  0  0  0  0  0
   -5.2870   25.3540  -30.3780 C   0  0  0  0  0  0  0  0  0  0  0  0
   -3.8780   25.2870  -30.4670 O   0  0  0  0  0  0  0  0  0  0  0  0
   -3.4460   23.9860  -30.1240 C   0  0  0  0  0  0  0  0  0  0  0  0
   -3.9300   22.9620  -31.1550 C   0  0  0  0  0  0  0  0  0  0  0  0
   -5.5000   20.9840  -32.5720 N   0  0  0  0  0  0  0  0  0  0  0  0
   -6.3295   17.1051  -32.3620 H   0  0  0  0  0  0  0  0  0  0  0  0
   -7.5474   16.4248  -33.4936 H   0  0  0  0  0  0  0  0  0  0  0  0
   -5.8675   15.7888  -33.4936 H   0  0  0  0  0  0  0  0  0  0  0  0
   -5.4027   17.2681  -35.1372 H   0  0  0  0  0  0  0  0  0  0  0  0
   -7.0030   18.0759  -34.9269 H   0  0  0  0  0  0  0  0  0  0  0  0
   -3.5587   19.0134  -32.8290 H   0  0  0  0  0  0  0  0  0  0  0  0
   -3.5669   18.1124  -34.3830 H   0  0  0  0  0  0  0  0  0  0  0  0
   -3.6943   19.9042  -34.3830 H   0  0  0  0  0  0  0  0  0  0  0  0
   -8.1476   19.0129  -33.3122 H   0  0  0  0  0  0  0  0  0  0  0  0
   -9.9147   20.8682  -30.9512 H   0  0  0  0  0  0  0  0  0  0  0  0
  -10.1378   21.7627  -32.4929 H   0  0  0  0  0  0  0  0  0  0  0  0
  -10.1075   19.9667  -32.4929 H   0  0  0  0  0  0  0  0  0  0  0  0
   -5.7677   24.8853  -32.4301 H   0  0  0  0  0  0  0  0  0  0  0  0
   -7.0210   24.3979  -31.2266 H   0  0  0  0  0  0  0  0  0  0  0  0
   -5.6094   26.3934  -30.5384 H   0  0  0  0  0  0  0  0  0  0  0  0
   -5.5940   25.0074  -29.3802 H   0  0  0  0  0  0  0  0  0  0  0  0
   -2.3467   23.9690  -30.0876 H   0  0  0  0  0  0  0  0  0  0  0  0
   -3.8660   23.7228  -29.1420 H   0  0  0  0  0  0  0  0  0  0  0  0
   -3.3974   23.1243  -32.1037 H   0  0  0  0  0  0  0  0  0  0  0  0
   -3.7267   21.9505  -30.7735 H   0  0  0  0  0  0  0  0  0  0  0  0
  1  2  1  0
  2  3  1  0
  3  4  1  0
  3  5  1  0
  5  6  2  0
  6  7  1  0
  7  8  1  0
  7  9  2  0
  9 10  1  0
 10 11  1  0
 11 12  1  0
 12 13  1  0
 13 14  1  0
 14 15  1  0
 15 16  1  0
 10 17  2  0
 17  5  1  0
 16 11  1  0
  1 18  1  0
  1 19  1  0
  1 20  1  0
  2 21  1  0
  2 22  1  0
  4 23  1  0
  4 24  1  0
  4 25  1  0
  6 26  1  0
  8 27  1  0
  8 28  1  0
  8 29  1  0
 12 30  1  0
 12 31  1  0
 13 32  1  0
 13 33  1  0
 15 34  1  0
 15 35  1  0
 16 36  1  0
 16 37  1  0
M  END
>  <UniqueID>  (39) 
39

>  <SMILES>  (39) 
CCN(C)c1cc(C)nc(N2CCOCC2)n1

>  <Energy>  (39) 
34.215430459235414

>  <Genealogy>  (39) 
CCN(C)c1cc(C)nc(N2CCOCC2)n1 (3D coordinates assigned)
CCN(C)c1cc(C)nc(N2CCOCC2)n1 (nonaromatic ring conformer: 34.215430459235414 kcal/mol)

>  <smiles>  (39) 
CCN(C)c1cc(C)nc(N2CCOCC2)n1

>  <score_type>  (39) 
oracle

>  <origin>  (39) 
adg

>  <m_score__min__energy>  (39) 
-6.8700000000000001

>  <m_primary>  (39) 
energy

$$$$
39:0
     RDKit          3D

 45 47  0  0  0  0  0  0  0  0999 V2000
   -8.0890   23.4260  -31.9210 C   0  0  0  0  0  0  0  0  0  0  0  0
   -7.2390   23.1890  -30.6780 C   0  0  0  0  0  0  0  0  0  0  0  0
   -5.9300   23.8320  -30.8120 N   0  0  0  0  0  0  0  0  0  0  0  0
   -4.7830   23.3460  -31.3380 C   0  0  0  0  0  0  0  0  0  0  0  0
   -4.6280   22.0280  -31.9880 C   0  0  0  0  0  0  0  0  0  0  0  0
   -5.7530   21.4320  -32.5790 C   0  0  0  0  0  0  0  0  0  0  0  0
   -5.6420   20.2130  -33.2470 C   0  0  0  0  0  0  0  0  0  0  0  0
   -4.4050   19.5790  -33.3400 C   0  0  0  0  0  0  0  0  0  0  0  0
   -3.2750   20.1590  -32.7620 C   0  0  0  0  0  0  0  0  0  0  0  0
   -3.3660   21.3900  -32.0790 C   0  0  0  0  0  0  0  0  0  0  0  0
   -2.2020   21.9620  -31.4430 N   0  0  0  0  0  0  0  0  0  0  0  0
   -1.2930   21.1860  -30.5960 C   0  0  0  0  0  0  0  0  0  0  0  0
   -0.9420   21.9500  -29.3470 C   0  0  0  0  0  0  0  0  0  0  0  0
    0.2610   21.9590  -28.9710 O   0  0  0  0  0  0  0  0  0  0  0  0
   -1.9490   22.6310  -28.5620 N   0  0  0  0  0  0  0  0  0  0  0  0
   -1.5470   23.4820  -27.4320 C   0  0  0  0  0  0  0  0  0  0  0  0
   -2.4520   24.7260  -27.3120 C   0  0  0  0  0  0  0  0  0  0  0  0
   -3.8460   24.5190  -27.7550 N   0  0  0  0  0  0  0  0  0  0  0  0
   -4.2440   23.1080  -27.7630 C   0  0  0  0  0  0  0  0  0  0  0  0
   -3.3740   22.3160  -28.7440 C   0  0  0  0  0  0  0  0  0  0  0  0
   -3.7670   24.2230  -31.1970 N   0  0  0  0  0  0  0  0  0  0  0  0
   -4.2500   25.2870  -30.5690 N   0  0  0  0  0  0  0  0  0  0  0  0
   -5.5500   25.0340  -30.3410 C   0  0  0  0  0  0  0  0  0  0  0  0
   -6.3170   25.8310  -29.7370 O   0  0  0  0  0  0  0  0  0  0  0  0
   -9.1080   23.7101  -31.6196 H   0  0  0  0  0  0  0  0  0  0  0  0
   -7.6449   24.2346  -32.5202 H   0  0  0  0  0  0  0  0  0  0  0  0
   -8.1274   22.5043  -32.5202 H   0  0  0  0  0  0  0  0  0  0  0  0
   -7.7574   23.6058  -29.8019 H   0  0  0  0  0  0  0  0  0  0  0  0
   -7.0887   22.1063  -30.5551 H   0  0  0  0  0  0  0  0  0  0  0  0
   -6.7312   21.9311  -32.5146 H   0  0  0  0  0  0  0  0  0  0  0  0
   -6.5316   19.7518  -33.7007 H   0  0  0  0  0  0  0  0  0  0  0  0
   -4.3188   18.6191  -33.8702 H   0  0  0  0  0  0  0  0  0  0  0  0
   -2.3026   19.6507  -32.8398 H   0  0  0  0  0  0  0  0  0  0  0  0
   -2.0110   22.9830  -31.5640 H   0  0  0  0  0  0  0  0  0  0  0  0
   -1.7805   20.2407  -30.3154 H   0  0  0  0  0  0  0  0  0  0  0  0
   -0.3691   20.9882  -31.1594 H   0  0  0  0  0  0  0  0  0  0  0  0
   -1.6165   22.8982  -26.5023 H   0  0  0  0  0  0  0  0  0  0  0  0
   -0.5149   23.8210  -27.6048 H   0  0  0  0  0  0  0  0  0  0  0  0
   -2.4701   25.0363  -26.2568 H   0  0  0  0  0  0  0  0  0  0  0  0
   -2.0234   25.4882  -27.9794 H   0  0  0  0  0  0  0  0  0  0  0  0
   -3.9510   24.8960  -28.7270 H   0  0  0  0  0  0  0  0  0  0  0  0
   -4.1229   22.6910  -26.7523 H   0  0  0  0  0  0  0  0  0  0  0  0
   -5.2956   23.0345  -28.0774 H   0  0  0  0  0  0  0  0  0  0  0  0
   -3.5287   21.2403  -28.5736 H   0  0  0  0  0  0  0  0  0  0  0  0
   -3.6643   22.5910  -29.7687 H   0  0  0  0  0  0  0  0  0  0  0  0
  1  2  1  0
  2  3  1  0
  3  4  1  0
  4  5  1  0
  5  6  2  0
  6  7  1  0
  7  8  2  0
  8  9  1  0
  9 10  2  0
 10 11  1  0
 11 12  1  0
 12 13  1  0
 13 14  2  0
 13 15  1  0
 15 16  1  0
 16 17  1  0
 17 18  1  0
 18 19  1  0
 19 20  1  0
  4 21  2  0
 21 22  1  0
 22 23  1  0
 23 24  2  0
 23  3  1  0
 10  5  1  0
 20 15  1  0
  1 25  1  0
  1 26  1  0
  1 27  1  0
  2 28  1  0
  2 29  1  0
  6 30  1  0
  7 31  1  0
  8 32  1  0
  9 33  1  0
 11 34  1  0
 12 35  1  0
 12 36  1  0
 16 37  1  0
 16 38  1  0
 17 39  1  0
 17 40  1  0
 18 41  1  0
 19 42  1  0
 19 43  1  0
 20 44  1  0
 20 45  1  0
M  CHG  1  22  -1
M  END
>  <UniqueID>  (40) 
40

>  <SMILES>  (40) 
CCn1c(-c2ccccc2NCC(=O)N2CCNCC2)n[n-]c1=O

>  <Energy>  (40) 
89.81015732999694

>  <Genealogy>  (40) 
CCn1c(-c2ccccc2NCC(=O)N2CCNCC2)n[n-]c1=O (protonated)
CCn1c(-c2ccccc2NCC(=O)N2CCNCC2)n[n-]c1=O (3D coordinates assigned)
CCn1c(-c2ccccc2NCC(=O)N2CCNCC2)n[n-]c1=O (nonaromatic ring conformer: 89.81015732999694 kcal/mol)

>  <smiles>  (40) 
CCn1c(-c2ccccc2NCC(=O)N2CCNCC2)n[nH]c1=O

>  <score_type>  (40) 
oracle

>  <origin>  (40) 
adg

>  <m_score__min__energy>  (40) 
-9.4800000000000004

>  <m_primary>  (40) 
energy

$$$$
