0:0
     RDKit          3D

 57 59  0  0  0  0  0  0  0  0999 V2000
   -0.1450   22.8270  -24.4900 C   0  0  0  0  0  0  0  0  0  0  0  0
   -0.4440   22.8890  -25.9920 C   0  0  0  0  0  0  0  0  0  0  0  0
   -1.1220   24.1510  -26.3810 N   0  0  0  0  0  0  0  0  0  0  0  0
   -0.8130   25.2280  -25.4070 C   0  0  0  0  0  0  0  0  0  0  0  0
   -1.9380   26.2610  -25.2770 C   0  0  0  0  0  0  0  0  0  0  0  0
   -0.6310   24.6090  -28.0030 S   0  0  0  0  0  0  0  0  0  0  0  0
   -0.6780   26.1050  -28.1530 O   0  0  0  0  0  0  0  0  0  0  0  0
    0.7870   24.1770  -28.2490 O   0  0  0  0  0  0  0  0  0  0  0  0
   -1.6890   23.8880  -29.2170 C   0  0  0  0  0  0  0  0  0  0  0  0
   -1.2570   22.7540  -29.9460 C   0  0  0  0  0  0  0  0  0  0  0  0
   -2.0750   22.1850  -30.9390 C   0  0  0  0  0  0  0  0  0  0  0  0
   -3.3230   22.7690  -31.1670 C   0  0  0  0  0  0  0  0  0  0  0  0
   -3.7410   23.8630  -30.4660 C   0  0  0  0  0  0  0  0  0  0  0  0
   -2.9540   24.4560  -29.4820 C   0  0  0  0  0  0  0  0  0  0  0  0
   -4.9680   24.2420  -30.8650 N   0  0  0  0  0  0  0  0  0  0  0  0
   -5.2690   23.3310  -31.8240 C   0  0  0  0  0  0  0  0  0  0  0  0
   -6.8330   23.3520  -32.7100 S   0  0  0  0  0  0  0  0  0  0  0  0
   -7.8590   23.4920  -31.2060 C   0  0  0  0  0  0  0  0  0  0  0  0
   -7.6290   22.2930  -30.2860 C   0  0  0  0  0  0  0  0  0  0  0  0
   -8.3160   21.1590  -30.7820 O   0  0  0  0  0  0  0  0  0  0  0  0
   -9.4990   21.5500  -31.4440 C   0  0  0  0  0  0  0  0  0  0  0  0
   -4.2820   22.4200  -32.0420 N   0  0  0  0  0  0  0  0  0  0  0  0
   -4.2740   21.3170  -33.0080 C   0  0  0  0  0  0  0  0  0  0  0  0
   -5.3420   20.3090  -32.6750 C   0  0  0  0  0  0  0  0  0  0  0  0
   -5.1400   19.3820  -31.6370 C   0  0  0  0  0  0  0  0  0  0  0  0
   -6.1340   18.4500  -31.3220 C   0  0  0  0  0  0  0  0  0  0  0  0
   -7.3370   18.4390  -32.0350 C   0  0  0  0  0  0  0  0  0  0  0  0
   -7.5470   19.3580  -33.0660 C   0  0  0  0  0  0  0  0  0  0  0  0
   -6.5530   20.2870  -33.3890 C   0  0  0  0  0  0  0  0  0  0  0  0
   -1.0686   23.0185  -23.9241 H   0  0  0  0  0  0  0  0  0  0  0  0
    0.2417   21.8296  -24.2340 H   0  0  0  0  0  0  0  0  0  0  0  0
    0.6065   23.5884  -24.2340 H   0  0  0  0  0  0  0  0  0  0  0  0
    0.5040   22.8121  -26.5446 H   0  0  0  0  0  0  0  0  0  0  0  0
   -1.1199   22.0558  -26.2347 H   0  0  0  0  0  0  0  0  0  0  0  0
   -2.1560   23.9870  -26.4080 H   0  0  0  0  0  0  0  0  0  0  0  0
   -0.6421   24.7704  -24.4214 H   0  0  0  0  0  0  0  0  0  0  0  0
    0.0782   25.7576  -25.7749 H   0  0  0  0  0  0  0  0  0  0  0  0
   -2.1423   26.4486  -24.2125 H   0  0  0  0  0  0  0  0  0  0  0  0
   -1.6320   27.1994  -25.7626 H   0  0  0  0  0  0  0  0  0  0  0  0
   -2.8470   25.8763  -25.7626 H   0  0  0  0  0  0  0  0  0  0  0  0
   -0.2717   22.3133  -29.7338 H   0  0  0  0  0  0  0  0  0  0  0  0
   -1.7429   21.3096  -31.5164 H   0  0  0  0  0  0  0  0  0  0  0  0
   -3.3068   25.3389  -28.9288 H   0  0  0  0  0  0  0  0  0  0  0  0
   -7.5922   24.4152  -30.6707 H   0  0  0  0  0  0  0  0  0  0  0  0
   -8.9187   23.5161  -31.4999 H   0  0  0  0  0  0  0  0  0  0  0  0
   -6.5523   22.0733  -30.2373 H   0  0  0  0  0  0  0  0  0  0  0  0
   -8.0085   22.5324  -29.2817 H   0  0  0  0  0  0  0  0  0  0  0  0
  -10.2685   21.8043  -30.7002 H   0  0  0  0  0  0  0  0  0  0  0  0
   -9.2936   22.4280  -32.0740 H   0  0  0  0  0  0  0  0  0  0  0  0
   -9.8573   20.7225  -32.0740 H   0  0  0  0  0  0  0  0  0  0  0  0
   -4.4580   21.7183  -34.0155 H   0  0  0  0  0  0  0  0  0  0  0  0
   -3.2938   20.8194  -32.9680 H   0  0  0  0  0  0  0  0  0  0  0  0
   -4.1969   19.3900  -31.0709 H   0  0  0  0  0  0  0  0  0  0  0  0
   -5.9693   17.7243  -30.5119 H   0  0  0  0  0  0  0  0  0  0  0  0
   -8.1182   17.7064  -31.7839 H   0  0  0  0  0  0  0  0  0  0  0  0
   -8.4949   19.3508  -33.6241 H   0  0  0  0  0  0  0  0  0  0  0  0
   -6.7194   21.0044  -34.2061 H   0  0  0  0  0  0  0  0  0  0  0  0
  1  2  1  0
  2  3  1  0
  3  4  1  0
  4  5  1  0
  3  6  1  0
  6  7  2  0
  6  8  2  0
  6  9  1  0
  9 10  2  0
 10 11  1  0
 11 12  2  0
 12 13  1  0
 13 14  2  0
 13 15  1  0
 15 16  2  0
 16 17  1  0
 17 18  1  0
 18 19  1  0
 19 20  1  0
 20 21  1  0
 16 22  1  0
 22 23  1  0
 23 24  1  0
 24 25  2  0
 25 26  1  0
 26 27  2  0
 27 28  1  0
 28 29  2  0
 14  9  1  0
 29 24  1  0
 22 12  1  0
  1 30  1  0
  1 31  1  0
  1 32  1  0
  2 33  1  0
  2 34  1  0
  3 35  1  0
  4 36  1  0
  4 37  1  0
  5 38  1  0
  5 39  1  0
  5 40  1  0
 10 41  1  0
 11 42  1  0
 14 43  1  0
 18 44  1  0
 18 45  1  0
 19 46  1  0
 19 47  1  0
 21 48  1  0
 21 49  1  0
 21 50  1  0
 23 51  1  0
 23 52  1  0
 25 53  1  0
 26 54  1  0
 27 55  1  0
 28 56  1  0
 29 57  1  0
M  CHG  1   3   1
M  END
>  <UniqueID>  (1) 
1

>  <SMILES>  (1) 
CC[NH+](CC)S(=O)(=O)c1ccc2c(c1)nc(SCCOC)n2Cc1ccccc1

>  <Energy>  (1) 
88.84354002703218

>  <Genealogy>  (1) 
CC[NH+](CC)S(=O)(=O)c1ccc2c(c1)nc(SCCOC)n2Cc1ccccc1 (protonated)
CC[NH+](CC)S(=O)(=O)c1ccc2c(c1)nc(SCCOC)n2Cc1ccccc1 (3D coordinates assigned)
CC[NH+](CC)S(=O)(=O)c1ccc2c(c1)nc(SCCOC)n2Cc1ccccc1 (optimized conformer: 88.84354002703218 kcal/mol)

>  <smiles>  (1) 
CCN(CC)S(=O)(=O)c1ccc2c(c1)nc(SCCOC)n2Cc1ccccc1

>  <score_type>  (1) 
oracle

>  <origin>  (1) 
adg

>  <m_score__min__energy>  (1) 
-8.0099999999999998

>  <m_primary>  (1) 
energy

$$$$
1:0
     RDKit          3D

 53 57  0  0  0  0  0  0  0  0999 V2000
    0.4240   18.3370  -33.5180 C   0  0  0  0  0  0  0  0  0  0  0  0
   -0.4520   19.5010  -33.5910 N   0  0  0  0  0  0  0  0  0  0  0  0
   -0.0490   20.7160  -33.9520 N   0  0  0  0  0  0  0  0  0  0  0  0
   -1.1200   21.5460  -33.9110 C   0  0  0  0  0  0  0  0  0  0  0  0
   -2.2200   20.8160  -33.5110 C   0  0  0  0  0  0  0  0  0  0  0  0
   -3.5500   21.1720  -33.3080 C   0  0  0  0  0  0  0  0  0  0  0  0
   -4.4390   20.1610  -32.8820 C   0  0  0  0  0  0  0  0  0  0  0  0
   -5.8630   20.4800  -32.6640 C   0  0  0  0  0  0  0  0  0  0  0  0
   -6.8130   19.4780  -32.9090 C   0  0  0  0  0  0  0  0  0  0  0  0
   -8.1720   19.7280  -32.7200 C   0  0  0  0  0  0  0  0  0  0  0  0
   -8.6020   20.9810  -32.2860 C   0  0  0  0  0  0  0  0  0  0  0  0
   -9.9310   21.2060  -32.1310 F   0  0  0  0  0  0  0  0  0  0  0  0
   -7.6660   21.9970  -32.0260 C   0  0  0  0  0  0  0  0  0  0  0  0
   -6.2910   21.7560  -32.2170 C   0  0  0  0  0  0  0  0  0  0  0  0
   -5.3350   22.9170  -32.0430 C   0  0  0  0  0  0  0  0  0  0  0  0
   -5.7490   23.7920  -30.9310 N   0  0  0  0  0  0  0  0  0  0  0  0
   -4.7620   24.5440  -30.2020 C   0  0  0  0  0  0  0  0  0  0  0  0
   -3.8740   25.1940  -30.8220 O   0  0  0  0  0  0  0  0  0  0  0  0
   -4.7870   24.5520  -28.8010 O   0  0  0  0  0  0  0  0  0  0  0  0
   -3.9320   23.7430  -27.9970 C   0  0  0  0  0  0  0  0  0  0  0  0
   -3.0200   22.9230  -28.8680 C   0  0  0  0  0  0  0  0  0  0  0  0
   -3.3800   21.6210  -29.2570 C   0  0  0  0  0  0  0  0  0  0  0  0
   -2.5130   20.8570  -30.0440 C   0  0  0  0  0  0  0  0  0  0  0  0
   -1.2830   21.3850  -30.4460 C   0  0  0  0  0  0  0  0  0  0  0  0
   -0.9160   22.6760  -30.0600 C   0  0  0  0  0  0  0  0  0  0  0  0
   -1.7790   23.4440  -29.2720 C   0  0  0  0  0  0  0  0  0  0  0  0
   -7.1670   23.9580  -30.5660 C   0  0  0  0  0  0  0  0  0  0  0  0
   -8.1120   23.3730  -31.6210 C   0  0  0  0  0  0  0  0  0  0  0  0
   -3.9710   18.8340  -32.6960 C   0  0  0  0  0  0  0  0  0  0  0  0
   -2.6170   18.5150  -32.9110 C   0  0  0  0  0  0  0  0  0  0  0  0
   -1.7680   19.5430  -33.3200 C   0  0  0  0  0  0  0  0  0  0  0  0
    0.6130   18.0859  -32.4639 H   0  0  0  0  0  0  0  0  0  0  0  0
   -0.0578   17.4836  -34.0175 H   0  0  0  0  0  0  0  0  0  0  0  0
    1.3774   18.5637  -34.0175 H   0  0  0  0  0  0  0  0  0  0  0  0
   -1.1131   22.6186  -34.1550 H   0  0  0  0  0  0  0  0  0  0  0  0
   -3.8960   22.2030  -33.4733 H   0  0  0  0  0  0  0  0  0  0  0  0
   -6.4836   18.4865  -33.2531 H   0  0  0  0  0  0  0  0  0  0  0  0
   -8.9074   18.9334  -32.9142 H   0  0  0  0  0  0  0  0  0  0  0  0
   -4.3290   22.5242  -31.8340 H   0  0  0  0  0  0  0  0  0  0  0  0
   -5.3375   23.5097  -32.9696 H   0  0  0  0  0  0  0  0  0  0  0  0
   -3.3266   24.3905  -27.3457 H   0  0  0  0  0  0  0  0  0  0  0  0
   -4.5486   23.0664  -27.3870 H   0  0  0  0  0  0  0  0  0  0  0  0
   -4.3468   21.2020  -28.9412 H   0  0  0  0  0  0  0  0  0  0  0  0
   -2.7993   19.8391  -30.3472 H   0  0  0  0  0  0  0  0  0  0  0  0
   -0.6033   20.7831  -31.0671 H   0  0  0  0  0  0  0  0  0  0  0  0
    0.0531   23.0893  -30.3762 H   0  0  0  0  0  0  0  0  0  0  0  0
   -1.4854   24.4594  -28.9674 H   0  0  0  0  0  0  0  0  0  0  0  0
   -7.3476   23.4484  -29.6080 H   0  0  0  0  0  0  0  0  0  0  0  0
   -7.3713   25.0364  -30.4925 H   0  0  0  0  0  0  0  0  0  0  0  0
   -9.1282   23.3154  -31.2038 H   0  0  0  0  0  0  0  0  0  0  0  0
   -8.1007   24.0245  -32.5073 H   0  0  0  0  0  0  0  0  0  0  0  0
   -4.6728   18.0477  -32.3810 H   0  0  0  0  0  0  0  0  0  0  0  0
   -2.2420   17.4917  -32.7618 H   0  0  0  0  0  0  0  0  0  0  0  0
  1  2  1  0
  2  3  1  0
  3  4  2  0
  4  5  1  0
  5  6  2  0
  6  7  1  0
  7  8  1  0
  8  9  2  0
  9 10  1  0
 10 11  2  0
 11 12  1  0
 11 13  1  0
 13 14  2  0
 14 15  1  0
 15 16  1  0
 16 17  1  0
 17 18  2  0
 17 19  1  0
 19 20  1  0
 20 21  1  0
 21 22  2  0
 22 23  1  0
 23 24  2  0
 24 25  1  0
 25 26  2  0
 16 27  1  0
 27 28  1  0
  7 29  2  0
 29 30  1  0
 30 31  2  0
 31  2  1  0
 31  5  1  0
 14  8  1  0
 26 21  1  0
 28 13  1  0
  1 32  1  0
  1 33  1  0
  1 34  1  0
  4 35  1  0
  6 36  1  0
  9 37  1  0
 10 38  1  0
 15 39  1  0
 15 40  1  0
 20 41  1  0
 20 42  1  0
 22 43  1  0
 23 44  1  0
 24 45  1  0
 25 46  1  0
 26 47  1  0
 27 48  1  0
 27 49  1  0
 28 50  1  0
 28 51  1  0
 29 52  1  0
 30 53  1  0
M  END
>  <UniqueID>  (2) 
2

>  <SMILES>  (2) 
Cn1ncc2cc(-c3ccc(F)c4c3CN(C(=O)OCc3ccccc3)CC4)ccc21

>  <Energy>  (2) 
105.77346464977423

>  <Genealogy>  (2) 
Cn1ncc2cc(-c3ccc(F)c4c3CN(C(=O)OCc3ccccc3)CC4)ccc21 (3D coordinates assigned)
Cn1ncc2cc(-c3ccc(F)c4c3CN(C(=O)OCc3ccccc3)CC4)ccc21 (nonaromatic ring conformer: 105.77346464977423 kcal/mol)

>  <smiles>  (2) 
Cn1ncc2cc(-c3ccc(F)c4c3CN(C(=O)OCc3ccccc3)CC4)ccc21

>  <score_type>  (2) 
oracle

>  <origin>  (2) 
adg

>  <m_score__min__energy>  (2) 
-10.359999999999999

>  <m_primary>  (2) 
energy

$$$$
2:0
     RDKit          3D

 49 50  0  0  0  0  0  0  0  0999 V2000
   -2.0650   18.8460  -26.7710 C   0  0  0  0  0  0  0  0  0  0  0  0
   -2.3330   20.3470  -26.8160 C   0  0  0  0  0  0  0  0  0  0  0  0
   -1.4350   21.0720  -27.8250 C   0  0  0  0  0  0  0  0  0  0  0  0
   -2.2480   21.9400  -28.7200 N   0  0  0  0  0  0  0  0  0  0  0  0
   -2.5630   21.2480  -29.9940 C   0  0  0  0  0  0  0  0  0  0  0  0
   -1.4970   21.5330  -31.0630 C   0  0  0  0  0  0  0  0  0  0  0  0
   -1.8640   20.9260  -32.4150 C   0  0  0  0  0  0  0  0  0  0  0  0
   -3.4850   22.3970  -28.0380 C   0  0  0  0  0  0  0  0  0  0  0  0
   -3.9140   23.8060  -28.4870 C   0  0  0  0  0  0  0  0  0  0  0  0
   -2.8690   24.4760  -29.3840 C   0  0  0  0  0  0  0  0  0  0  0  0
   -3.5210   25.2170  -30.4590 N   0  0  0  0  0  0  0  0  0  0  0  0
   -4.9120   25.0950  -30.7830 C   0  0  0  0  0  0  0  0  0  0  0  0
   -5.6720   26.0890  -30.6320 O   0  0  0  0  0  0  0  0  0  0  0  0
   -5.4490   23.8020  -31.2870 C   0  0  0  0  0  0  0  0  0  0  0  0
   -4.5910   22.9070  -31.9540 C   0  0  0  0  0  0  0  0  0  0  0  0
   -5.0550   21.7210  -32.4240 N   0  0  0  0  0  0  0  0  0  0  0  0
   -6.3510   21.3440  -32.2770 C   0  0  0  0  0  0  0  0  0  0  0  0
   -6.7780   20.1110  -32.7810 C   0  0  0  0  0  0  0  0  0  0  0  0
   -8.1100   19.7180  -32.6350 C   0  0  0  0  0  0  0  0  0  0  0  0
   -9.0210   20.5540  -31.9850 C   0  0  0  0  0  0  0  0  0  0  0  0
   -8.6040   21.7880  -31.4780 C   0  0  0  0  0  0  0  0  0  0  0  0
   -7.2640   22.1970  -31.6190 C   0  0  0  0  0  0  0  0  0  0  0  0
   -6.8050   23.4340  -31.1220 C   0  0  0  0  0  0  0  0  0  0  0  0
   -7.6100   24.2090  -30.5330 O   0  0  0  0  0  0  0  0  0  0  0  0
   -2.0060   18.5153  -25.7235 H   0  0  0  0  0  0  0  0  0  0  0  0
   -2.8821   18.3123  -27.2785 H   0  0  0  0  0  0  0  0  0  0  0  0
   -1.1137   18.6280  -27.2785 H   0  0  0  0  0  0  0  0  0  0  0  0
   -3.3838   20.5098  -27.0978 H   0  0  0  0  0  0  0  0  0  0  0  0
   -2.1146   20.7563  -25.8186 H   0  0  0  0  0  0  0  0  0  0  0  0
   -0.7083   21.6934  -27.2812 H   0  0  0  0  0  0  0  0  0  0  0  0
   -0.9118   20.3225  -28.4370 H   0  0  0  0  0  0  0  0  0  0  0  0
   -2.6066   20.1641  -29.8116 H   0  0  0  0  0  0  0  0  0  0  0  0
   -3.5308   21.6204  -30.3611 H   0  0  0  0  0  0  0  0  0  0  0  0
   -1.3933   22.6219  -31.1793 H   0  0  0  0  0  0  0  0  0  0  0  0
   -0.5532   21.0759  -30.7310 H   0  0  0  0  0  0  0  0  0  0  0  0
   -2.4273   19.9943  -32.2579 H   0  0  0  0  0  0  0  0  0  0  0  0
   -2.4831   21.6379  -32.9806 H   0  0  0  0  0  0  0  0  0  0  0  0
   -0.9460   20.7085  -32.9806 H   0  0  0  0  0  0  0  0  0  0  0  0
   -4.2965   21.6905  -28.2667 H   0  0  0  0  0  0  0  0  0  0  0  0
   -3.2787   22.4364  -26.9582 H   0  0  0  0  0  0  0  0  0  0  0  0
   -4.8592   23.7268  -29.0441 H   0  0  0  0  0  0  0  0  0  0  0  0
   -4.0285   24.4252  -27.5851 H   0  0  0  0  0  0  0  0  0  0  0  0
   -2.2645   25.1693  -28.7807 H   0  0  0  0  0  0  0  0  0  0  0  0
   -2.2265   23.6994  -29.8247 H   0  0  0  0  0  0  0  0  0  0  0  0
   -3.5328   23.1717  -32.0959 H   0  0  0  0  0  0  0  0  0  0  0  0
   -6.0634   19.4499  -33.2932 H   0  0  0  0  0  0  0  0  0  0  0  0
   -8.4426   18.7479  -33.0328 H   0  0  0  0  0  0  0  0  0  0  0  0
  -10.0693   20.2404  -31.8719 H   0  0  0  0  0  0  0  0  0  0  0  0
   -9.3255   22.4423  -30.9668 H   0  0  0  0  0  0  0  0  0  0  0  0
  1  2  1  0
  2  3  1  0
  3  4  1  0
  4  5  1  0
  5  6  1  0
  6  7  1  0
  4  8  1  0
  8  9  1  0
  9 10  1  0
 10 11  1  0
 11 12  1  0
 12 13  2  0
 12 14  1  0
 14 15  2  0
 15 16  1  0
 16 17  1  0
 17 18  2  0
 18 19  1  0
 19 20  2  0
 20 21  1  0
 21 22  2  0
 22 23  1  0
 23 24  2  0
 23 14  1  0
 22 17  1  0
  1 25  1  0
  1 26  1  0
  1 27  1  0
  2 28  1  0
  2 29  1  0
  3 30  1  0
  3 31  1  0
  5 32  1  0
  5 33  1  0
  6 34  1  0
  6 35  1  0
  7 36  1  0
  7 37  1  0
  7 38  1  0
  8 39  1  0
  8 40  1  0
  9 41  1  0
  9 42  1  0
 10 43  1  0
 10 44  1  0
 15 45  1  0
 18 46  1  0
 19 47  1  0
 20 48  1  0
 21 49  1  0
M  CHG  2  11  -1  16  -1
M  END
>  <UniqueID>  (3) 
3

>  <SMILES>  (3) 
CCCN(CCC)CCC[N-]C(=O)c1c[n-]c2ccccc2c1=O

>  <Energy>  (3) 
45.90917798641275

>  <Genealogy>  (3) 
CCCN(CCC)CCC[N-]C(=O)c1c[n-]c2ccccc2c1=O (protonated)
CCCN(CCC)CCC[N-]C(=O)c1c[n-]c2ccccc2c1=O (3D coordinates assigned)
CCCN(CCC)CCC[N-]C(=O)c1c[n-]c2ccccc2c1=O (optimized conformer: 45.90917798641275 kcal/mol)

>  <smiles>  (3) 
CCCN(CCC)CCCNC(=O)c1c[nH]c2ccccc2c1=O

>  <score_type>  (3) 
oracle

>  <origin>  (3) 
adg

>  <m_score__min__energy>  (3) 
-9.6300000000000008

>  <m_primary>  (3) 
energy

$$$$
3:0
     RDKit          3D

 50 52  0  0  0  0  0  0  0  0999 V2000
   -1.1340   21.5510  -31.1560 C   0  0  0  0  0  0  0  0  0  0  0  0
   -2.4220   20.8860  -31.6420 C   0  0  0  0  0  0  0  0  0  0  0  0
   -3.0820   21.6510  -32.7990 C   0  0  0  0  0  0  0  0  0  0  0  0
   -4.4410   21.0640  -33.1970 C   0  0  0  0  0  0  0  0  0  0  0  0
   -4.3260   19.6240  -33.4010 N   0  0  0  0  0  0  0  0  0  0  0  0
   -5.3900   18.8070  -33.9010 C   0  0  0  0  0  0  0  0  0  0  0  0
   -6.1700   19.2460  -34.7900 O   0  0  0  0  0  0  0  0  0  0  0  0
   -5.5650   17.4180  -33.3720 C   0  0  0  0  0  0  0  0  0  0  0  0
   -6.1360   17.4330  -31.6360 S   0  0  0  0  0  0  0  0  0  0  0  0
   -7.2880   18.7890  -31.8620 C   0  0  0  0  0  0  0  0  0  0  0  0
   -8.5900   18.5440  -32.3510 C   0  0  0  0  0  0  0  0  0  0  0  0
   -9.4780   19.6140  -32.5400 C   0  0  0  0  0  0  0  0  0  0  0  0
   -9.0130   20.8810  -32.2110 C   0  0  0  0  0  0  0  0  0  0  0  0
   -9.6460   22.0580  -32.3430 N   0  0  0  0  0  0  0  0  0  0  0  0
   -8.8020   23.0060  -31.9430 N   0  0  0  0  0  0  0  0  0  0  0  0
   -7.6560   22.3840  -31.5630 C   0  0  0  0  0  0  0  0  0  0  0  0
   -6.4560   23.1010  -31.0690 C   0  0  0  0  0  0  0  0  0  0  0  0
   -5.4480   22.4370  -30.3460 C   0  0  0  0  0  0  0  0  0  0  0  0
   -4.3310   23.1370  -29.8800 C   0  0  0  0  0  0  0  0  0  0  0  0
   -4.2050   24.5170  -30.1230 C   0  0  0  0  0  0  0  0  0  0  0  0
   -3.1050   25.2630  -29.6760 O   0  0  0  0  0  0  0  0  0  0  0  0
   -2.3180   24.9350  -28.5340 C   0  0  0  0  0  0  0  0  0  0  0  0
   -1.0490   24.2260  -28.9790 C   0  0  0  0  0  0  0  0  0  0  0  0
   -5.2130   25.1790  -30.8320 C   0  0  0  0  0  0  0  0  0  0  0  0
   -6.3310   24.4810  -31.2970 C   0  0  0  0  0  0  0  0  0  0  0  0
   -7.7810   21.0530  -31.7290 N   0  0  0  0  0  0  0  0  0  0  0  0
   -6.9070   20.0630  -31.5590 N   0  0  0  0  0  0  0  0  0  0  0  0
   -1.1180   21.5592  -30.0561 H   0  0  0  0  0  0  0  0  0  0  0  0
   -0.2666   20.9881  -31.5311 H   0  0  0  0  0  0  0  0  0  0  0  0
   -1.0907   22.5842  -31.5311 H   0  0  0  0  0  0  0  0  0  0  0  0
   -2.1855   19.8672  -31.9829 H   0  0  0  0  0  0  0  0  0  0  0  0
   -3.1307   20.8783  -30.8008 H   0  0  0  0  0  0  0  0  0  0  0  0
   -3.2269   22.6973  -32.4918 H   0  0  0  0  0  0  0  0  0  0  0  0
   -2.4173   21.5717  -33.6718 H   0  0  0  0  0  0  0  0  0  0  0  0
   -5.1703   21.2609  -32.3974 H   0  0  0  0  0  0  0  0  0  0  0  0
   -4.7754   21.5342  -34.1335 H   0  0  0  0  0  0  0  0  0  0  0  0
   -6.3080   16.8911  -33.9887 H   0  0  0  0  0  0  0  0  0  0  0  0
   -4.5917   16.9070  -33.4120 H   0  0  0  0  0  0  0  0  0  0  0  0
   -8.9074   17.5167  -32.5832 H   0  0  0  0  0  0  0  0  0  0  0  0
  -10.4944   19.4569  -32.9303 H   0  0  0  0  0  0  0  0  0  0  0  0
  -10.6120   22.2250  -32.7010 H   0  0  0  0  0  0  0  0  0  0  0  0
   -5.5394   21.3592  -30.1459 H   0  0  0  0  0  0  0  0  0  0  0  0
   -3.5467   22.6060  -29.3205 H   0  0  0  0  0  0  0  0  0  0  0  0
   -2.0532   25.8563  -27.9944 H   0  0  0  0  0  0  0  0  0  0  0  0
   -2.8937   24.2734  -27.8700 H   0  0  0  0  0  0  0  0  0  0  0  0
   -0.4779   23.9069  -28.0947 H   0  0  0  0  0  0  0  0  0  0  0  0
   -1.3135   23.3450  -29.5822 H   0  0  0  0  0  0  0  0  0  0  0  0
   -0.4374   24.9131  -29.5822 H   0  0  0  0  0  0  0  0  0  0  0  0
   -5.1249   26.2583  -31.0252 H   0  0  0  0  0  0  0  0  0  0  0  0
   -7.1193   25.0169  -31.8460 H   0  0  0  0  0  0  0  0  0  0  0  0
  1  2  1  0
  2  3  1  0
  3  4  1  0
  4  5  1  0
  5  6  1  0
  6  7  2  0
  6  8  1  0
  8  9  1  0
  9 10  1  0
 10 11  1  0
 11 12  2  0
 12 13  1  0
 13 14  2  0
 14 15  1  0
 15 16  2  0
 16 17  1  0
 17 18  2  0
 18 19  1  0
 19 20  2  0
 20 21  1  0
 21 22  1  0
 22 23  1  0
 20 24  1  0
 24 25  2  0
 16 26  1  0
 26 27  1  0
 27 10  2  0
 26 13  1  0
 25 17  1  0
  1 28  1  0
  1 29  1  0
  1 30  1  0
  2 31  1  0
  2 32  1  0
  3 33  1  0
  3 34  1  0
  4 35  1  0
  4 36  1  0
  8 37  1  0
  8 38  1  0
 11 39  1  0
 12 40  1  0
 14 41  1  0
 18 42  1  0
 19 43  1  0
 22 44  1  0
 22 45  1  0
 23 46  1  0
 23 47  1  0
 23 48  1  0
 24 49  1  0
 25 50  1  0
M  CHG  2   5  -1  14   1
M  END
>  <UniqueID>  (4) 
4

>  <SMILES>  (4) 
CCCC[N-]C(=O)CSc1ccc2[nH+]nc(-c3ccc(OCC)cc3)n2n1

>  <Energy>  (4) 
81.01530848847774

>  <Genealogy>  (4) 
CCCC[N-]C(=O)CSc1ccc2[nH+]nc(-c3ccc(OCC)cc3)n2n1 (protonated)
CCCC[N-]C(=O)CSc1ccc2[nH+]nc(-c3ccc(OCC)cc3)n2n1 (3D coordinates assigned)
CCCC[N-]C(=O)CSc1ccc2[nH+]nc(-c3ccc(OCC)cc3)n2n1 (optimized conformer: 81.01530848847774 kcal/mol)

>  <smiles>  (4) 
CCCCNC(=O)CSc1ccc2nnc(-c3ccc(OCC)cc3)n2n1

>  <score_type>  (4) 
oracle

>  <origin>  (4) 
adg

>  <m_score__min__energy>  (4) 
-10.01

>  <m_primary>  (4) 
energy

$$$$
4:0
     RDKit          3D

 39 39  0  0  0  0  0  0  0  0999 V2000
   -3.1220   21.8820  -27.8750 C   0  0  0  0  0  0  0  0  0  0  0  0
   -2.6860   21.6760  -29.3260 C   0  0  0  0  0  0  0  0  0  0  0  0
   -2.4810   23.0030  -30.0800 C   0  0  0  0  0  0  0  0  0  0  0  0
   -3.0100   24.2410  -29.3240 C   0  0  1  0  0  0  0  0  0  0  0  0
   -2.0010   25.2960  -29.3290 N   0  0  0  0  0  0  0  0  0  0  0  0
   -0.9650   25.3860  -28.3500 C   0  0  0  0  0  0  0  0  0  0  0  0
    0.1200   24.7800  -28.5500 O   0  0  0  0  0  0  0  0  0  0  0  0
   -1.1710   26.1470  -27.1890 O   0  0  0  0  0  0  0  0  0  0  0  0
   -1.5840   25.6530  -25.9070 C   0  0  0  0  0  0  0  0  0  0  0  0
   -3.0720   25.2900  -26.0220 C   0  0  0  0  0  0  0  0  0  0  0  0
   -0.7890   24.3880  -25.5320 C   0  0  0  0  0  0  0  0  0  0  0  0
   -1.4180   26.7400  -24.8270 C   0  0  0  0  0  0  0  0  0  0  0  0
   -4.2630   24.7680  -29.9620 C   0  0  0  0  0  0  0  0  0  0  0  0
   -4.1800   25.6720  -30.8390 O   0  0  0  0  0  0  0  0  0  0  0  0
   -5.5390   24.2470  -29.5540 N   0  0  0  0  0  0  0  0  0  0  0  0
   -6.3430   23.5320  -30.2830 C   0  0  0  0  0  0  0  0  0  0  0  0
   -7.2970   22.7120  -29.7890 N   0  0  0  0  0  0  0  0  0  0  0  0
   -7.9820   22.0900  -30.7850 C   0  0  0  0  0  0  0  0  0  0  0  0
   -7.5730   22.4150  -32.0750 C   0  0  0  0  0  0  0  0  0  0  0  0
   -6.3090   23.5200  -31.9600 S   0  0  0  0  0  0  0  0  0  0  0  0
   -2.3367   21.5110  -27.2000 H   0  0  0  0  0  0  0  0  0  0  0  0
   -3.2878   22.9537  -27.6906 H   0  0  0  0  0  0  0  0  0  0  0  0
   -4.0552   21.3295  -27.6906 H   0  0  0  0  0  0  0  0  0  0  0  0
   -1.7383   21.1176  -29.3326 H   0  0  0  0  0  0  0  0  0  0  0  0
   -3.4877   21.1237  -29.8382 H   0  0  0  0  0  0  0  0  0  0  0  0
   -1.4036   23.1387  -30.2554 H   0  0  0  0  0  0  0  0  0  0  0  0
   -3.0556   22.9306  -31.0152 H   0  0  0  0  0  0  0  0  0  0  0  0
   -3.2342   23.9352  -28.2914 H   0  0  0  0  0  0  0  0  0  0  0  0
   -3.5027   25.1849  -25.0153 H   0  0  0  0  0  0  0  0  0  0  0  0
   -3.6024   26.0851  -26.5665 H   0  0  0  0  0  0  0  0  0  0  0  0
   -3.1766   24.3400  -26.5665 H   0  0  0  0  0  0  0  0  0  0  0  0
   -0.7341   24.3007  -24.4368 H   0  0  0  0  0  0  0  0  0  0  0  0
   -1.2930   23.5021  -25.9457 H   0  0  0  0  0  0  0  0  0  0  0  0
    0.2278   24.4579  -25.9457 H   0  0  0  0  0  0  0  0  0  0  0  0
   -1.4882   26.2802  -23.8302 H   0  0  0  0  0  0  0  0  0  0  0  0
   -0.4358   27.2222  -24.9400 H   0  0  0  0  0  0  0  0  0  0  0  0
   -2.2115   27.4934  -24.9400 H   0  0  0  0  0  0  0  0  0  0  0  0
   -8.7997   21.3817  -30.5859 H   0  0  0  0  0  0  0  0  0  0  0  0
   -8.0014   22.0186  -33.0074 H   0  0  0  0  0  0  0  0  0  0  0  0
  1  2  1  0
  2  3  1  0
  3  4  1  0
  4  5  1  0
  5  6  1  0
  6  7  2  0
  6  8  1  0
  8  9  1  0
  9 10  1  0
  9 11  1  0
  9 12  1  0
  4 13  1  0
 13 14  2  0
 13 15  1  0
 15 16  2  3
 16 17  1  0
 17 18  1  0
 18 19  2  0
 19 20  1  0
 20 16  1  0
  1 21  1  0
  1 22  1  0
  1 23  1  0
  2 24  1  0
  2 25  1  0
  3 26  1  0
  3 27  1  0
  4 28  1  1
 10 29  1  0
 10 30  1  0
 10 31  1  0
 11 32  1  0
 11 33  1  0
 11 34  1  0
 12 35  1  0
 12 36  1  0
 12 37  1  0
 18 38  1  0
 19 39  1  0
M  CHG  2   5  -1  17  -1
M  END
>  <UniqueID>  (5) 
5

>  <SMILES>  (5) 
CCC[C@@H]([N-]C(=O)OC(C)(C)C)C(=O)N=c1[n-]ccs1

>  <Energy>  (5) 
54.90939980896173

>  <Genealogy>  (5) 
CCCC([N-]C(=O)OC(C)(C)C)C(=O)N=c1[n-]ccs1 (protonated)
CCC[C@@H]([N-]C(=O)OC(C)(C)C)C(=O)N=c1[n-]ccs1 (chirality)
CCC[C@@H]([N-]C(=O)OC(C)(C)C)C(=O)N=c1[n-]ccs1 (3D coordinates assigned)
CCC[C@@H]([N-]C(=O)OC(C)(C)C)C(=O)N=c1[n-]ccs1 (optimized conformer: 54.90939980896173 kcal/mol)

>  <smiles>  (5) 
CCCC(NC(=O)OC(C)(C)C)C(=O)N=c1[nH]ccs1

>  <score_type>  (5) 
oracle

>  <origin>  (5) 
adg

>  <m_score__min__energy>  (5) 
-8.9700000000000006

>  <m_primary>  (5) 
energy

$$$$
5:0
     RDKit          3D

 49 51  0  0  0  0  0  0  0  0999 V2000
   -4.5440   18.5650  -34.1990 C   0  0  0  0  0  0  0  0  0  0  0  0
   -5.4410   19.6200  -33.8660 O   0  0  0  0  0  0  0  0  0  0  0  0
   -6.5580   19.4810  -33.0280 C   0  0  0  0  0  0  0  0  0  0  0  0
   -7.3100   18.2890  -32.9770 C   0  0  0  0  0  0  0  0  0  0  0  0
   -8.4000   18.1790  -32.1100 C   0  0  0  0  0  0  0  0  0  0  0  0
   -8.7520   19.2490  -31.2870 C   0  0  0  0  0  0  0  0  0  0  0  0
   -8.0180   20.4360  -31.3320 C   0  0  0  0  0  0  0  0  0  0  0  0
   -6.9260   20.5630  -32.2050 C   0  0  0  0  0  0  0  0  0  0  0  0
   -6.1790   21.7890  -32.2440 N   0  0  0  0  0  0  0  0  0  0  0  0
   -4.7230   21.7590  -32.4430 C   0  0  0  0  0  0  0  0  0  0  0  0
   -4.0080   22.7540  -31.5030 C   0  0  0  0  0  0  0  0  0  0  0  0
   -4.9270   23.7830  -30.9690 N   0  0  0  0  0  0  0  0  0  0  0  0
   -4.2390   24.8950  -30.2780 C   0  0  0  0  0  0  0  0  0  0  0  0
   -3.3620   24.4550  -29.0860 C   0  0  0  0  0  0  0  0  0  0  0  0
   -2.1890   25.3190  -28.9650 N   0  0  0  0  0  0  0  0  0  0  0  0
   -0.9450   24.9440  -28.3560 C   0  0  0  0  0  0  0  0  0  0  0  0
   -0.0070   24.5360  -29.0900 O   0  0  0  0  0  0  0  0  0  0  0  0
   -0.7410   24.9950  -26.8950 C   0  0  0  0  0  0  0  0  0  0  0  0
   -1.0970   26.1330  -26.1580 C   0  0  0  0  0  0  0  0  0  0  0  0
   -0.9030   26.1470  -24.7750 C   0  0  0  0  0  0  0  0  0  0  0  0
   -0.3580   25.0680  -24.1510 N   0  0  0  0  0  0  0  0  0  0  0  0
    0.0180   23.9610  -24.8470 C   0  0  0  0  0  0  0  0  0  0  0  0
   -0.1590   23.9070  -26.2320 C   0  0  0  0  0  0  0  0  0  0  0  0
   -5.9180   24.2270  -31.9640 C   0  0  0  0  0  0  0  0  0  0  0  0
   -6.8900   23.0740  -32.2270 C   0  0  0  0  0  0  0  0  0  0  0  0
   -4.1560   18.1087  -33.2764 H   0  0  0  0  0  0  0  0  0  0  0  0
   -5.0759   17.8040  -34.7889 H   0  0  0  0  0  0  0  0  0  0  0  0
   -3.7074   18.9675  -34.7889 H   0  0  0  0  0  0  0  0  0  0  0  0
   -7.0370   17.4416  -33.6231 H   0  0  0  0  0  0  0  0  0  0  0  0
   -8.9822   17.2463  -32.0762 H   0  0  0  0  0  0  0  0  0  0  0  0
   -9.6081   19.1576  -30.6024 H   0  0  0  0  0  0  0  0  0  0  0  0
   -8.2971   21.2765  -30.6796 H   0  0  0  0  0  0  0  0  0  0  0  0
   -4.3540   20.7433  -32.2374 H   0  0  0  0  0  0  0  0  0  0  0  0
   -4.5085   22.0478  -33.4825 H   0  0  0  0  0  0  0  0  0  0  0  0
   -3.5748   22.1953  -30.6603 H   0  0  0  0  0  0  0  0  0  0  0  0
   -3.2304   23.2683  -32.0868 H   0  0  0  0  0  0  0  0  0  0  0  0
   -3.5962   25.4092  -31.0076 H   0  0  0  0  0  0  0  0  0  0  0  0
   -5.0250   25.5462  -29.8680 H   0  0  0  0  0  0  0  0  0  0  0  0
   -3.9530   24.5158  -28.1603 H   0  0  0  0  0  0  0  0  0  0  0  0
   -3.0258   23.4214  -29.2550 H   0  0  0  0  0  0  0  0  0  0  0  0
   -1.5264   27.0093  -26.6657 H   0  0  0  0  0  0  0  0  0  0  0  0
   -1.1914   27.0322  -24.1892 H   0  0  0  0  0  0  0  0  0  0  0  0
   -0.2200   25.0920  -23.1160 H   0  0  0  0  0  0  0  0  0  0  0  0
    0.4629   23.1056  -24.3175 H   0  0  0  0  0  0  0  0  0  0  0  0
    0.1561   23.0174  -26.7970 H   0  0  0  0  0  0  0  0  0  0  0  0
   -6.4693   25.0964  -31.5766 H   0  0  0  0  0  0  0  0  0  0  0  0
   -5.4127   24.5152  -32.8976 H   0  0  0  0  0  0  0  0  0  0  0  0
   -7.6510   23.0551  -31.4330 H   0  0  0  0  0  0  0  0  0  0  0  0
   -7.3647   23.2284  -33.2072 H   0  0  0  0  0  0  0  0  0  0  0  0
  1  2  1  0
  2  3  1  0
  3  4  2  0
  4  5  1  0
  5  6  2  0
  6  7  1  0
  7  8  2  0
  8  9  1  0
  9 10  1  0
 10 11  1  0
 11 12  1  0
 12 13  1  0
 13 14  1  0
 14 15  1  0
 15 16  1  0
 16 17  2  0
 16 18  1  0
 18 19  2  0
 19 20  1  0
 20 21  2  0
 21 22  1  0
 22 23  2  0
 12 24  1  0
 24 25  1  0
  8  3  1  0
 25  9  1  0
 23 18  1  0
  1 26  1  0
  1 27  1  0
  1 28  1  0
  4 29  1  0
  5 30  1  0
  6 31  1  0
  7 32  1  0
 10 33  1  0
 10 34  1  0
 11 35  1  0
 11 36  1  0
 13 37  1  0
 13 38  1  0
 14 39  1  0
 14 40  1  0
 19 41  1  0
 20 42  1  0
 21 43  1  0
 22 44  1  0
 23 45  1  0
 24 46  1  0
 24 47  1  0
 25 48  1  0
 25 49  1  0
M  CHG  2  15  -1  21   1
M  END
>  <UniqueID>  (6) 
6

>  <SMILES>  (6) 
COc1ccccc1N1CCN(CC[N-]C(=O)c2cc[nH+]cc2)CC1

>  <Energy>  (6) 
65.03850334248096

>  <Genealogy>  (6) 
COc1ccccc1N1CCN(CC[N-]C(=O)c2cc[nH+]cc2)CC1 (protonated)
COc1ccccc1N1CCN(CC[N-]C(=O)c2cc[nH+]cc2)CC1 (3D coordinates assigned)
COc1ccccc1N1CCN(CC[N-]C(=O)c2cc[nH+]cc2)CC1 (nonaromatic ring conformer: 65.03850334248096 kcal/mol)

>  <smiles>  (6) 
COc1ccccc1N1CCN(CCNC(=O)c2ccncc2)CC1

>  <score_type>  (6) 
oracle

>  <origin>  (6) 
adg

>  <m_score__min__energy>  (6) 
-10.109999999999999

>  <m_primary>  (6) 
energy

$$$$
6:0
     RDKit          3D

 64 67  0  0  0  0  0  0  0  0999 V2000
    0.7760   25.0750  -25.8190 C   0  0  0  0  0  0  0  0  0  0  0  0
   -0.1410   24.1820  -26.5520 N   0  0  0  0  0  0  0  0  0  0  0  0
   -1.5470   24.4410  -26.1670 C   0  0  0  0  0  0  0  0  0  0  0  0
   -2.1220   25.6580  -26.9130 C   0  0  0  0  0  0  0  0  0  0  0  0
   -1.2530   26.0990  -28.1000 C   0  0  0  0  0  0  0  0  0  0  0  0
   -1.5900   25.3650  -29.3230 N   0  0  0  0  0  0  0  0  0  0  0  0
   -2.3550   24.1530  -29.4050 C   0  0  0  0  0  0  0  0  0  0  0  0
   -1.9150   23.1230  -28.8330 O   0  0  0  0  0  0  0  0  0  0  0  0
   -3.6160   24.0560  -30.1580 C   0  0  0  0  0  0  0  0  0  0  0  0
   -4.4290   22.9470  -30.2790 C   0  0  0  0  0  0  0  0  0  0  0  0
   -5.4960   23.4040  -31.0300 C   0  0  0  0  0  0  0  0  0  0  0  0
   -6.7060   22.6510  -31.4270 C   0  0  0  0  0  0  0  0  0  0  0  0
   -7.9150   23.3370  -31.6340 C   0  0  0  0  0  0  0  0  0  0  0  0
   -9.0770   22.6370  -31.9780 C   0  0  0  0  0  0  0  0  0  0  0  0
   -9.0420   21.2480  -32.1200 C   0  0  0  0  0  0  0  0  0  0  0  0
   -7.8450   20.5560  -31.9210 C   0  0  0  0  0  0  0  0  0  0  0  0
   -6.6820   21.2500  -31.5740 C   0  0  0  0  0  0  0  0  0  0  0  0
   -5.2800   24.6640  -31.3350 O   0  0  0  0  0  0  0  0  0  0  0  0
   -4.1570   25.0860  -30.8330 N   0  0  0  0  0  0  0  0  0  0  0  0
    0.2190   22.7610  -26.3220 C   0  0  0  0  0  0  0  0  0  0  0  0
   -0.7910   22.0920  -25.3790 C   0  0  0  0  0  0  0  0  0  0  0  0
   -1.3090   20.7530  -25.9160 C   0  0  0  0  0  0  0  0  0  0  0  0
   -1.6070   20.8460  -27.3450 N   0  0  0  0  0  0  0  0  0  0  0  0
   -0.8110   20.1580  -28.3210 C   0  0  0  0  0  0  0  0  0  0  0  0
    0.1820   19.4800  -27.9490 O   0  0  0  0  0  0  0  0  0  0  0  0
   -1.1580   20.2480  -29.7590 C   0  0  0  0  0  0  0  0  0  0  0  0
   -2.4070   20.5850  -30.1770 N   0  0  0  0  0  0  0  0  0  0  0  0
   -2.3040   20.5630  -31.5160 C   0  0  0  0  0  0  0  0  0  0  0  0
   -3.3050   20.8380  -32.4450 C   0  0  0  0  0  0  0  0  0  0  0  0
   -2.9720   20.7620  -33.8100 C   0  0  0  0  0  0  0  0  0  0  0  0
   -1.6610   20.4200  -34.2070 C   0  0  0  0  0  0  0  0  0  0  0  0
   -0.6720   20.1470  -33.2440 C   0  0  0  0  0  0  0  0  0  0  0  0
   -1.0370   20.2250  -31.8950 C   0  0  0  0  0  0  0  0  0  0  0  0
   -0.2950   20.0120  -30.7910 N   0  0  0  0  0  0  0  0  0  0  0  0
    1.1210   19.6480  -30.7200 C   0  0  0  0  0  0  0  0  0  0  0  0
    0.6347   24.9374  -24.7368 H   0  0  0  0  0  0  0  0  0  0  0  0
    1.8152   24.8333  -26.0868 H   0  0  0  0  0  0  0  0  0  0  0  0
    0.5620   26.1202  -26.0868 H   0  0  0  0  0  0  0  0  0  0  0  0
   -2.1526   23.5550  -26.4086 H   0  0  0  0  0  0  0  0  0  0  0  0
   -1.5755   24.6530  -25.0880 H   0  0  0  0  0  0  0  0  0  0  0  0
   -3.1228   25.3984  -27.2885 H   0  0  0  0  0  0  0  0  0  0  0  0
   -2.1556   26.4953  -26.2004 H   0  0  0  0  0  0  0  0  0  0  0  0
   -1.4085   27.1737  -28.2754 H   0  0  0  0  0  0  0  0  0  0  0  0
   -0.2024   25.8870  -27.8523 H   0  0  0  0  0  0  0  0  0  0  0  0
   -4.2662   21.9375  -29.8734 H   0  0  0  0  0  0  0  0  0  0  0  0
   -7.9482   24.4311  -31.5249 H   0  0  0  0  0  0  0  0  0  0  0  0
  -10.0194   23.1816  -32.1368 H   0  0  0  0  0  0  0  0  0  0  0  0
   -9.9567   20.6992  -32.3884 H   0  0  0  0  0  0  0  0  0  0  0  0
   -7.8174   19.4625  -32.0376 H   0  0  0  0  0  0  0  0  0  0  0  0
   -5.7432   20.6993  -31.4149 H   0  0  0  0  0  0  0  0  0  0  0  0
    0.2219   22.2287  -27.2846 H   0  0  0  0  0  0  0  0  0  0  0  0
    1.2164   22.7188  -25.8600 H   0  0  0  0  0  0  0  0  0  0  0  0
   -0.3031   21.9164  -24.4089 H   0  0  0  0  0  0  0  0  0  0  0  0
   -1.6542   22.7674  -25.2855 H   0  0  0  0  0  0  0  0  0  0  0  0
   -0.5426   19.9801  -25.7571 H   0  0  0  0  0  0  0  0  0  0  0  0
   -2.2333   20.4922  -25.3796 H   0  0  0  0  0  0  0  0  0  0  0  0
   -2.4250   21.4130  -27.6640 H   0  0  0  0  0  0  0  0  0  0  0  0
   -4.3219   21.1057  -32.1222 H   0  0  0  0  0  0  0  0  0  0  0  0
   -3.7374   20.9702  -34.5721 H   0  0  0  0  0  0  0  0  0  0  0  0
   -1.4109   20.3666  -35.2769 H   0  0  0  0  0  0  0  0  0  0  0  0
    0.3532   19.8813  -33.5413 H   0  0  0  0  0  0  0  0  0  0  0  0
    1.4270   19.5693  -29.6663 H   0  0  0  0  0  0  0  0  0  0  0  0
    1.2765   18.6807  -31.2201 H   0  0  0  0  0  0  0  0  0  0  0  0
    1.7237   20.4204  -31.2201 H   0  0  0  0  0  0  0  0  0  0  0  0
  1  2  1  0
  2  3  1  0
  3  4  1  0
  4  5  1  0
  5  6  1  0
  6  7  1  0
  7  8  2  0
  7  9  1  0
  9 10  1  0
 10 11  2  0
 11 12  1  0
 12 13  2  0
 13 14  1  0
 14 15  2  0
 15 16  1  0
 16 17  2  0
 11 18  1  0
 18 19  1  0
  2 20  1  0
 20 21  1  0
 21 22  1  0
 22 23  1  0
 23 24  1  0
 24 25  2  0
 24 26  1  0
 26 27  2  0
 27 28  1  0
 28 29  2  0
 29 30  1  0
 30 31  2  0
 31 32  1  0
 32 33  2  0
 33 34  1  0
 34 35  1  0
 19  9  2  0
 34 26  1  0
 17 12  1  0
 33 28  1  0
  1 36  1  0
  1 37  1  0
  1 38  1  0
  3 39  1  0
  3 40  1  0
  4 41  1  0
  4 42  1  0
  5 43  1  0
  5 44  1  0
 10 45  1  0
 13 46  1  0
 14 47  1  0
 15 48  1  0
 16 49  1  0
 17 50  1  0
 20 51  1  0
 20 52  1  0
 21 53  1  0
 21 54  1  0
 22 55  1  0
 22 56  1  0
 23 57  1  0
 29 58  1  0
 30 59  1  0
 31 60  1  0
 32 61  1  0
 35 62  1  0
 35 63  1  0
 35 64  1  0
M  CHG  1   6  -1
M  END
>  <UniqueID>  (7) 
7

>  <SMILES>  (7) 
CN(CCC[N-]C(=O)c1cc(-c2ccccc2)on1)CCCNC(=O)c1nc2ccccc2n1C

>  <Energy>  (7) 
131.69738540726593

>  <Genealogy>  (7) 
CN(CCC[N-]C(=O)c1cc(-c2ccccc2)on1)CCCNC(=O)c1nc2ccccc2n1C (protonated)
CN(CCC[N-]C(=O)c1cc(-c2ccccc2)on1)CCCNC(=O)c1nc2ccccc2n1C (3D coordinates assigned)
CN(CCC[N-]C(=O)c1cc(-c2ccccc2)on1)CCCNC(=O)c1nc2ccccc2n1C (optimized conformer: 131.69738540726593 kcal/mol)

>  <smiles>  (7) 
CN(CCCNC(=O)c1cc(-c2ccccc2)on1)CCCNC(=O)c1nc2ccccc2n1C

>  <score_type>  (7) 
oracle

>  <origin>  (7) 
adg

>  <m_score__min__energy>  (7) 
-10.75

>  <m_primary>  (7) 
energy

$$$$
7:0
     RDKit          3D

 55 58  0  0  0  0  0  0  0  0999 V2000
   -3.2040   17.5250  -33.2740 C   0  0  0  0  0  0  0  0  0  0  0  0
   -4.0570   18.7310  -33.2310 N   0  0  2  0  0  0  0  0  0  0  0  0
   -5.3330   18.4960  -33.9480 C   0  0  0  0  0  0  0  0  0  0  0  0
   -6.5300   18.9310  -33.1350 C   0  0  0  0  0  0  0  0  0  0  0  0
   -6.8740   20.2920  -33.0570 C   0  0  0  0  0  0  0  0  0  0  0  0
   -7.9720   20.6990  -32.2950 C   0  0  0  0  0  0  0  0  0  0  0  0
   -8.7350   19.7540  -31.6040 C   0  0  0  0  0  0  0  0  0  0  0  0
   -8.3980   18.4000  -31.6730 C   0  0  0  0  0  0  0  0  0  0  0  0
   -7.3000   17.9880  -32.4350 C   0  0  0  0  0  0  0  0  0  0  0  0
   -3.3490   19.8900  -33.8310 C   0  0  0  0  0  0  0  0  0  0  0  0
   -2.4120   20.5470  -32.8460 C   0  0  0  0  0  0  0  0  0  0  0  0
   -1.0440   20.6110  -32.9780 C   0  0  0  0  0  0  0  0  0  0  0  0
   -0.5240   21.2350  -31.9070 N   0  0  0  0  0  0  0  0  0  0  0  0
   -1.5900   21.5530  -31.1410 C   0  0  0  0  0  0  0  0  0  0  0  0
   -2.7650   21.1230  -31.6750 N   0  0  0  0  0  0  0  0  0  0  0  0
   -4.1320   21.3540  -31.1870 C   0  0  0  0  0  0  0  0  0  0  0  0
   -4.1480   21.7800  -29.7130 C   0  0  0  0  0  0  0  0  0  0  0  0
   -3.6600   23.1520  -29.4770 N   0  0  0  0  0  0  0  0  0  0  0  0
   -4.6050   24.1080  -28.9390 C   0  0  0  0  0  0  0  0  0  0  0  0
   -4.5120   24.4470  -27.7240 O   0  0  0  0  0  0  0  0  0  0  0  0
   -5.6890   24.7250  -29.8010 C   0  0  0  0  0  0  0  0  0  0  0  0
   -6.9810   23.9090  -29.7970 C   0  0  0  0  0  0  0  0  0  0  0  0
   -6.8460   23.6820  -31.2980 C   0  0  0  0  0  0  0  0  0  0  0  0
   -5.5580   24.4960  -31.3110 C   0  0  0  0  0  0  0  0  0  0  0  0
   -2.2270   23.4800  -29.5980 C   0  0  0  0  0  0  0  0  0  0  0  0
   -1.4060   22.2070  -29.7970 C   0  0  0  0  0  0  0  0  0  0  0  0
   -2.9749   17.2011  -32.2480 H   0  0  0  0  0  0  0  0  0  0  0  0
   -3.7343   16.7195  -33.8030 H   0  0  0  0  0  0  0  0  0  0  0  0
   -2.2678   17.7567  -33.8030 H   0  0  0  0  0  0  0  0  0  0  0  0
   -4.2700   18.9440  -32.2280 H   0  0  0  0  0  0  0  0  0  0  0  0
   -5.3197   19.0625  -34.8908 H   0  0  0  0  0  0  0  0  0  0  0  0
   -5.4237   17.4155  -34.1331 H   0  0  0  0  0  0  0  0  0  0  0  0
   -6.2759   21.0398  -33.5984 H   0  0  0  0  0  0  0  0  0  0  0  0
   -8.2364   21.7653  -32.2389 H   0  0  0  0  0  0  0  0  0  0  0  0
   -9.6004   20.0760  -31.0061 H   0  0  0  0  0  0  0  0  0  0  0  0
   -8.9973   17.6566  -31.1270 H   0  0  0  0  0  0  0  0  0  0  0  0
   -7.0384   16.9208  -32.4862 H   0  0  0  0  0  0  0  0  0  0  0  0
   -2.7676   19.5421  -34.6976 H   0  0  0  0  0  0  0  0  0  0  0  0
   -4.1030   20.6321  -34.1323 H   0  0  0  0  0  0  0  0  0  0  0  0
   -0.4669   20.2141  -33.8262 H   0  0  0  0  0  0  0  0  0  0  0  0
   -4.5964   22.1470  -31.7916 H   0  0  0  0  0  0  0  0  0  0  0  0
   -4.6901   20.4102  -31.2756 H   0  0  0  0  0  0  0  0  0  0  0  0
   -5.1826   21.7134  -29.3454 H   0  0  0  0  0  0  0  0  0  0  0  0
   -3.4633   21.1039  -29.1801 H   0  0  0  0  0  0  0  0  0  0  0  0
   -5.6465   25.7526  -29.4109 H   0  0  0  0  0  0  0  0  0  0  0  0
   -6.9282   22.9882  -29.1975 H   0  0  0  0  0  0  0  0  0  0  0  0
   -7.9058   24.3346  -29.3803 H   0  0  0  0  0  0  0  0  0  0  0  0
   -6.7128   22.6276  -31.5817 H   0  0  0  0  0  0  0  0  0  0  0  0
   -7.6732   23.9415  -31.9750 H   0  0  0  0  0  0  0  0  0  0  0  0
   -4.6664   23.9215  -31.6026 H   0  0  0  0  0  0  0  0  0  0  0  0
   -5.4449   25.3491  -31.9962 H   0  0  0  0  0  0  0  0  0  0  0  0
   -2.0789   24.1458  -30.4610 H   0  0  0  0  0  0  0  0  0  0  0  0
   -1.8952   23.9789  -28.6755 H   0  0  0  0  0  0  0  0  0  0  0  0
   -0.3422   22.4618  -29.6809 H   0  0  0  0  0  0  0  0  0  0  0  0
   -1.7580   21.4852  -29.0453 H   0  0  0  0  0  0  0  0  0  0  0  0
  1  2  1  0
  2  3  1  0
  3  4  1  0
  4  5  2  0
  5  6  1  0
  6  7  2  0
  7  8  1  0
  8  9  2  0
  2 10  1  0
 10 11  1  0
 11 12  2  0
 12 13  1  0
 13 14  2  0
 14 15  1  0
 15 16  1  0
 16 17  1  0
 17 18  1  0
 18 19  1  0
 19 20  2  0
 19 21  1  0
 21 22  1  0
 22 23  1  0
 23 24  1  0
 18 25  1  0
 25 26  1  0
  9  4  1  0
 15 11  1  0
 24 21  1  0
 26 14  1  0
  1 27  1  0
  1 28  1  0
  1 29  1  0
  2 30  1  1
  3 31  1  0
  3 32  1  0
  5 33  1  0
  6 34  1  0
  7 35  1  0
  8 36  1  0
  9 37  1  0
 10 38  1  0
 10 39  1  0
 12 40  1  0
 16 41  1  0
 16 42  1  0
 17 43  1  0
 17 44  1  0
 21 45  1  0
 22 46  1  0
 22 47  1  0
 23 48  1  0
 23 49  1  0
 24 50  1  0
 24 51  1  0
 25 52  1  0
 25 53  1  0
 26 54  1  0
 26 55  1  0
M  CHG  1   2   1
M  END
>  <UniqueID>  (8) 
8

>  <SMILES>  (8) 
C[N@H+](Cc1ccccc1)Cc1cnc2n1CCN(C(=O)C1CCC1)CC2

>  <Energy>  (8) 
153.6978334059376

>  <Genealogy>  (8) 
C[NH+](Cc1ccccc1)Cc1cnc2n1CCN(C(=O)C1CCC1)CC2 (protonated)
C[N@H+](Cc1ccccc1)Cc1cnc2n1CCN(C(=O)C1CCC1)CC2 (chirality)
C[N@H+](Cc1ccccc1)Cc1cnc2n1CCN(C(=O)C1CCC1)CC2 (3D coordinates assigned)
C[N@H+](Cc1ccccc1)Cc1cnc2n1CCN(C(=O)C1CCC1)CC2 (nonaromatic ring conformer: 153.6978334059376 kcal/mol)

>  <smiles>  (8) 
CN(Cc1ccccc1)Cc1cnc2n1CCN(C(=O)C1CCC1)CC2

>  <score_type>  (8) 
oracle

>  <origin>  (8) 
adg

>  <m_score__min__energy>  (8) 
-6.6699999999999999

>  <m_primary>  (8) 
energy

$$$$
8:0
     RDKit          3D

 42 44  0  0  0  0  0  0  0  0999 V2000
   -0.3290   19.6870  -29.2600 C   0  0  0  0  0  0  0  0  0  0  0  0
   -0.7810   19.6400  -27.8650 N   0  0  0  0  0  0  0  0  0  0  0  0
   -0.6990   18.3890  -27.1070 C   0  0  0  0  0  0  0  0  0  0  0  0
   -1.1620   20.8500  -27.1780 C   0  0  0  0  0  0  0  0  0  0  0  0
   -0.9680   20.9470  -25.9360 O   0  0  0  0  0  0  0  0  0  0  0  0
   -1.7680   21.9920  -27.8960 C   0  0  0  0  0  0  0  0  0  0  0  0
   -3.1340   22.2830  -27.7570 C   0  0  0  0  0  0  0  0  0  0  0  0
   -3.6960   23.3730  -28.4280 C   0  0  0  0  0  0  0  0  0  0  0  0
   -2.9040   24.1840  -29.2500 C   0  0  0  0  0  0  0  0  0  0  0  0
   -3.5130   25.2970  -29.9190 N   0  0  0  0  0  0  0  0  0  0  0  0
   -4.8040   25.3020  -30.5470 C   0  0  0  0  0  0  0  0  0  0  0  0
   -5.3600   26.4100  -30.7690 O   0  0  0  0  0  0  0  0  0  0  0  0
   -5.5160   24.0490  -30.8910 C   0  0  0  0  0  0  0  0  0  0  0  0
   -6.7940   23.8000  -30.3720 C   0  0  0  0  0  0  0  0  0  0  0  0
   -7.4750   22.6220  -30.6920 C   0  0  0  0  0  0  0  0  0  0  0  0
   -6.8870   21.6610  -31.5350 C   0  0  0  0  0  0  0  0  0  0  0  0
   -7.6200   20.4130  -31.8740 C   0  0  0  0  0  0  0  0  0  0  0  0
   -8.9820   20.2910  -32.1590 C   0  0  0  0  0  0  0  0  0  0  0  0
   -9.3810   18.9780  -32.4400 C   0  0  0  0  0  0  0  0  0  0  0  0
   -8.3490   18.0530  -32.3800 C   0  0  0  0  0  0  0  0  0  0  0  0
   -6.9400   18.8730  -31.9750 S   0  0  0  0  0  0  0  0  0  0  0  0
   -5.5960   21.9040  -32.0380 C   0  0  0  0  0  0  0  0  0  0  0  0
   -4.9160   23.0830  -31.7150 C   0  0  0  0  0  0  0  0  0  0  0  0
   -1.5280   23.9220  -29.3540 C   0  0  0  0  0  0  0  0  0  0  0  0
   -0.9650   22.8340  -28.6810 C   0  0  0  0  0  0  0  0  0  0  0  0
    0.7648   19.8007  -29.2874 H   0  0  0  0  0  0  0  0  0  0  0  0
   -0.6135   18.7544  -29.7693 H   0  0  0  0  0  0  0  0  0  0  0  0
   -0.7993   20.5411  -29.7693 H   0  0  0  0  0  0  0  0  0  0  0  0
   -0.7136   18.6113  -26.0298 H   0  0  0  0  0  0  0  0  0  0  0  0
   -1.5572   17.7494  -27.3610 H   0  0  0  0  0  0  0  0  0  0  0  0
    0.2353   17.8669  -27.3610 H   0  0  0  0  0  0  0  0  0  0  0  0
   -3.7658   21.6499  -27.1166 H   0  0  0  0  0  0  0  0  0  0  0  0
   -4.7668   23.5949  -28.3095 H   0  0  0  0  0  0  0  0  0  0  0  0
   -7.2654   24.5384  -29.7068 H   0  0  0  0  0  0  0  0  0  0  0  0
   -8.4798   22.4446  -30.2810 H   0  0  0  0  0  0  0  0  0  0  0  0
   -9.6754   21.1449  -32.1624 H   0  0  0  0  0  0  0  0  0  0  0  0
  -10.4179   18.7053  -32.6858 H   0  0  0  0  0  0  0  0  0  0  0  0
   -8.4377   16.9723  -32.5651 H   0  0  0  0  0  0  0  0  0  0  0  0
   -5.1168   21.1600  -32.6913 H   0  0  0  0  0  0  0  0  0  0  0  0
   -3.9036   23.2548  -32.1094 H   0  0  0  0  0  0  0  0  0  0  0  0
   -0.8908   24.5758  -29.9676 H   0  0  0  0  0  0  0  0  0  0  0  0
    0.1137   22.6365  -28.7671 H   0  0  0  0  0  0  0  0  0  0  0  0
  1  2  1  0
  2  3  1  0
  2  4  1  0
  4  5  2  0
  4  6  1  0
  6  7  2  0
  7  8  1  0
  8  9  2  0
  9 10  1  0
 10 11  1  0
 11 12  2  0
 11 13  1  0
 13 14  2  0
 14 15  1  0
 15 16  2  0
 16 17  1  0
 17 18  2  0
 18 19  1  0
 19 20  2  0
 20 21  1  0
 16 22  1  0
 22 23  2  0
  9 24  1  0
 24 25  2  0
 25  6  1  0
 23 13  1  0
 21 17  1  0
  1 26  1  0
  1 27  1  0
  1 28  1  0
  3 29  1  0
  3 30  1  0
  3 31  1  0
  7 32  1  0
  8 33  1  0
 14 34  1  0
 15 35  1  0
 18 36  1  0
 19 37  1  0
 20 38  1  0
 22 39  1  0
 23 40  1  0
 24 41  1  0
 25 42  1  0
M  CHG  1  10  -1
M  END
>  <UniqueID>  (9) 
9

>  <SMILES>  (9) 
CN(C)C(=O)c1ccc([N-]C(=O)c2ccc(-c3cccs3)cc2)cc1

>  <Energy>  (9) 
82.52103816850077

>  <Genealogy>  (9) 
CN(C)C(=O)c1ccc([N-]C(=O)c2ccc(-c3cccs3)cc2)cc1 (protonated)
CN(C)C(=O)c1ccc([N-]C(=O)c2ccc(-c3cccs3)cc2)cc1 (3D coordinates assigned)
CN(C)C(=O)c1ccc([N-]C(=O)c2ccc(-c3cccs3)cc2)cc1 (optimized conformer: 82.52103816850077 kcal/mol)

>  <smiles>  (9) 
CN(C)C(=O)c1ccc(NC(=O)c2ccc(-c3cccs3)cc2)cc1

>  <score_type>  (9) 
oracle

>  <origin>  (9) 
adg

>  <m_score__min__energy>  (9) 
-10.6

>  <m_primary>  (9) 
energy

$$$$
9:0
     RDKit          3D

 44 46  0  0  0  0  0  0  0  0999 V2000
   -2.9470   21.5870  -33.4390 C   0  0  0  0  0  0  0  0  0  0  0  0
   -3.3670   22.3470  -32.3110 O   0  0  0  0  0  0  0  0  0  0  0  0
   -4.6630   22.3220  -31.7690 C   0  0  0  0  0  0  0  0  0  0  0  0
   -5.6680   21.4820  -32.2910 C   0  0  0  0  0  0  0  0  0  0  0  0
   -6.9590   21.5080  -31.7570 C   0  0  0  0  0  0  0  0  0  0  0  0
   -7.2650   22.3680  -30.7030 C   0  0  0  0  0  0  0  0  0  0  0  0
   -8.5200   22.3930  -30.1920 F   0  0  0  0  0  0  0  0  0  0  0  0
   -6.2790   23.2020  -30.1730 C   0  0  0  0  0  0  0  0  0  0  0  0
   -4.9710   23.1760  -30.6870 C   0  0  0  0  0  0  0  0  0  0  0  0
   -3.9480   24.0670  -30.0990 C   0  0  0  0  0  0  0  0  0  0  0  0
   -3.8550   25.2490  -30.5340 O   0  0  0  0  0  0  0  0  0  0  0  0
   -3.0710   23.6260  -29.0400 N   0  0  0  0  0  0  0  0  0  0  0  0
   -3.6000   22.9060  -27.8700 C   0  0  0  0  0  0  0  0  0  0  0  0
   -3.4840   21.3830  -28.0340 C   0  0  0  0  0  0  0  0  0  0  0  0
   -2.0380   20.8840  -27.8750 C   0  0  0  0  0  0  0  0  0  0  0  0
   -1.0510   21.6830  -28.6300 N   0  0  0  0  0  0  0  0  0  0  0  0
   -0.4150   21.0760  -29.7710 C   0  0  0  0  0  0  0  0  0  0  0  0
    0.5290   20.1130  -29.5840 N   0  0  0  0  0  0  0  0  0  0  0  0
    1.1490   19.5220  -30.6380 C   0  0  0  0  0  0  0  0  0  0  0  0
    0.8170   19.9000  -31.9370 C   0  0  0  0  0  0  0  0  0  0  0  0
    1.4220   19.3190  -33.0030 F   0  0  0  0  0  0  0  0  0  0  0  0
   -0.1580   20.8780  -32.1180 C   0  0  0  0  0  0  0  0  0  0  0  0
   -0.7590   21.4470  -31.0380 N   0  0  0  0  0  0  0  0  0  0  0  0
   -0.7520   23.0850  -28.2830 C   0  0  0  0  0  0  0  0  0  0  0  0
   -1.6750   24.0830  -29.0210 C   0  0  0  0  0  0  0  0  0  0  0  0
   -2.4413   20.6720  -33.0969 H   0  0  0  0  0  0  0  0  0  0  0  0
   -3.8237   21.3165  -34.0459 H   0  0  0  0  0  0  0  0  0  0  0  0
   -2.2515   22.1853  -34.0459 H   0  0  0  0  0  0  0  0  0  0  0  0
   -5.4343   20.8021  -33.1236 H   0  0  0  0  0  0  0  0  0  0  0  0
   -7.7363   20.8479  -32.1694 H   0  0  0  0  0  0  0  0  0  0  0  0
   -6.5275   23.8846  -29.3470 H   0  0  0  0  0  0  0  0  0  0  0  0
   -3.0334   23.2118  -26.9782 H   0  0  0  0  0  0  0  0  0  0  0  0
   -4.6660   23.1577  -27.7682 H   0  0  0  0  0  0  0  0  0  0  0  0
   -4.1111   20.8970  -27.2720 H   0  0  0  0  0  0  0  0  0  0  0  0
   -3.8161   21.1293  -29.0515 H   0  0  0  0  0  0  0  0  0  0  0  0
   -1.7726   20.9209  -26.8081 H   0  0  0  0  0  0  0  0  0  0  0  0
   -2.0029   19.8616  -28.2793 H   0  0  0  0  0  0  0  0  0  0  0  0
    1.9109   18.7473  -30.4664 H   0  0  0  0  0  0  0  0  0  0  0  0
   -0.4421   21.1903  -33.1338 H   0  0  0  0  0  0  0  0  0  0  0  0
   -1.5110   22.1550  -31.1980 H   0  0  0  0  0  0  0  0  0  0  0  0
   -0.8838   23.2168  -27.1989 H   0  0  0  0  0  0  0  0  0  0  0  0
    0.2832   23.2940  -28.5906 H   0  0  0  0  0  0  0  0  0  0  0  0
   -1.6263   25.0565  -28.5111 H   0  0  0  0  0  0  0  0  0  0  0  0
   -1.3280   24.1630  -30.0618 H   0  0  0  0  0  0  0  0  0  0  0  0
  1  2  1  0
  2  3  1  0
  3  4  2  0
  4  5  1  0
  5  6  2  0
  6  7  1  0
  6  8  1  0
  8  9  2  0
  9 10  1  0
 10 11  2  0
 10 12  1  0
 12 13  1  0
 13 14  1  0
 14 15  1  0
 15 16  1  0
 16 17  1  0
 17 18  2  0
 18 19  1  0
 19 20  2  0
 20 21  1  0
 20 22  1  0
 22 23  2  0
 16 24  1  0
 24 25  1  0
  9  3  1  0
 25 12  1  0
 23 17  1  0
  1 26  1  0
  1 27  1  0
  1 28  1  0
  4 29  1  0
  5 30  1  0
  8 31  1  0
 13 32  1  0
 13 33  1  0
 14 34  1  0
 14 35  1  0
 15 36  1  0
 15 37  1  0
 19 38  1  0
 22 39  1  0
 23 40  1  0
 24 41  1  0
 24 42  1  0
 25 43  1  0
 25 44  1  0
M  CHG  1  23   1
M  END
>  <UniqueID>  (10) 
10

>  <SMILES>  (10) 
COc1ccc(F)cc1C(=O)N1CCCN(c2ncc(F)c[nH+]2)CC1

>  <Energy>  (10) 
59.49040668181096

>  <Genealogy>  (10) 
COc1ccc(F)cc1C(=O)N1CCCN(c2ncc(F)c[nH+]2)CC1 (protonated)
COc1ccc(F)cc1C(=O)N1CCCN(c2ncc(F)c[nH+]2)CC1 (3D coordinates assigned)
COc1ccc(F)cc1C(=O)N1CCCN(c2ncc(F)c[nH+]2)CC1 (nonaromatic ring conformer: 59.49040668181096 kcal/mol)

>  <smiles>  (10) 
COc1ccc(F)cc1C(=O)N1CCCN(c2ncc(F)cn2)CC1

>  <score_type>  (10) 
oracle

>  <origin>  (10) 
adg

>  <m_score__min__energy>  (10) 
-5.5999999999999996

>  <m_primary>  (10) 
energy

$$$$
10:0
     RDKit          3D

 44 46  0  0  0  0  0  0  0  0999 V2000
   -4.1770   24.8960  -26.4420 C   0  0  0  0  0  0  0  0  0  0  0  0
   -2.9040   24.7450  -27.2340 C   0  0  0  0  0  0  0  0  0  0  0  0
   -1.6740   24.9350  -26.5860 C   0  0  0  0  0  0  0  0  0  0  0  0
   -0.4850   24.8210  -27.3060 C   0  0  0  0  0  0  0  0  0  0  0  0
   -0.5160   24.5190  -28.6300 N   0  0  0  0  0  0  0  0  0  0  0  0
   -1.6860   24.3120  -29.2870 C   0  0  0  0  0  0  0  0  0  0  0  0
   -2.9120   24.4010  -28.6080 C   0  0  0  0  0  0  0  0  0  0  0  0
   -4.1640   24.1380  -29.3520 C   0  0  0  0  0  0  0  0  0  0  0  0
   -4.5270   24.9590  -30.4310 C   0  0  0  0  0  0  0  0  0  0  0  0
   -5.7010   24.7040  -31.1480 C   0  0  0  0  0  0  0  0  0  0  0  0
   -6.5270   23.6270  -30.7930 C   0  0  0  0  0  0  0  0  0  0  0  0
   -7.7580   23.3130  -31.6000 C   0  0  0  0  0  0  0  0  0  0  0  0
   -7.6960   21.9300  -32.0880 N   0  0  0  0  0  0  0  0  0  0  0  0
   -6.4290   21.4610  -32.6810 C   0  0  0  0  0  0  0  0  0  0  0  0
   -5.8000   20.2690  -31.9460 C   0  0  0  0  0  0  0  0  0  0  0  0
   -6.4650   18.9300  -32.3000 C   0  0  0  0  0  0  0  0  0  0  0  0
   -7.8820   18.7590  -31.7340 C   0  0  0  0  0  0  0  0  0  0  0  0
   -8.9080   19.6680  -32.4180 C   0  0  0  0  0  0  0  0  0  0  0  0
   -8.8620   21.0930  -31.9280 C   0  0  0  0  0  0  0  0  0  0  0  0
   -9.9030   21.5770  -31.4060 O   0  0  0  0  0  0  0  0  0  0  0  0
   -6.1530   22.7930  -29.7290 C   0  0  0  0  0  0  0  0  0  0  0  0
   -4.9790   23.0460  -29.0130 C   0  0  0  0  0  0  0  0  0  0  0  0
   -3.9455   24.8685  -25.3670 H   0  0  0  0  0  0  0  0  0  0  0  0
   -4.6516   25.8567  -26.6904 H   0  0  0  0  0  0  0  0  0  0  0  0
   -4.8632   24.0730  -26.6904 H   0  0  0  0  0  0  0  0  0  0  0  0
   -1.6476   25.1733  -25.5125 H   0  0  0  0  0  0  0  0  0  0  0  0
    0.4797   24.9759  -26.8007 H   0  0  0  0  0  0  0  0  0  0  0  0
   -1.6735   24.0725  -30.3605 H   0  0  0  0  0  0  0  0  0  0  0  0
   -3.8856   25.8066  -30.7141 H   0  0  0  0  0  0  0  0  0  0  0  0
   -5.9776   25.3507  -31.9937 H   0  0  0  0  0  0  0  0  0  0  0  0
   -8.6498   23.4372  -30.9682 H   0  0  0  0  0  0  0  0  0  0  0  0
   -7.8125   23.9981  -32.4589 H   0  0  0  0  0  0  0  0  0  0  0  0
   -6.6237   21.1623  -33.7216 H   0  0  0  0  0  0  0  0  0  0  0  0
   -5.7147   22.2942  -32.6065 H   0  0  0  0  0  0  0  0  0  0  0  0
   -4.7347   20.2136  -32.2144 H   0  0  0  0  0  0  0  0  0  0  0  0
   -5.9424   20.4335  -30.8677 H   0  0  0  0  0  0  0  0  0  0  0  0
   -6.5200   18.8518  -33.3958 H   0  0  0  0  0  0  0  0  0  0  0  0
   -5.8471   18.1416  -31.8455 H   0  0  0  0  0  0  0  0  0  0  0  0
   -8.1919   17.7127  -31.8725 H   0  0  0  0  0  0  0  0  0  0  0  0
   -7.8497   19.0376  -30.6704 H   0  0  0  0  0  0  0  0  0  0  0  0
   -8.7112   19.6643  -33.5002 H   0  0  0  0  0  0  0  0  0  0  0  0
   -9.9058   19.2725  -32.1770 H   0  0  0  0  0  0  0  0  0  0  0  0
   -6.7863   21.9359  -29.4566 H   0  0  0  0  0  0  0  0  0  0  0  0
   -4.6926   22.3866  -28.1804 H   0  0  0  0  0  0  0  0  0  0  0  0
  1  2  1  0
  2  3  2  0
  3  4  1  0
  4  5  2  0
  5  6  1  0
  6  7  2  0
  7  8  1  0
  8  9  2  0
  9 10  1  0
 10 11  2  0
 11 12  1  0
 12 13  1  0
 13 14  1  0
 14 15  1  0
 15 16  1  0
 16 17  1  0
 17 18  1  0
 18 19  1  0
 19 20  2  0
 11 21  1  0
 21 22  2  0
  7  2  1  0
 22  8  1  0
 19 13  1  0
  1 23  1  0
  1 24  1  0
  1 25  1  0
  3 26  1  0
  4 27  1  0
  6 28  1  0
  9 29  1  0
 10 30  1  0
 12 31  1  0
 12 32  1  0
 14 33  1  0
 14 34  1  0
 15 35  1  0
 15 36  1  0
 16 37  1  0
 16 38  1  0
 17 39  1  0
 17 40  1  0
 18 41  1  0
 18 42  1  0
 21 43  1  0
 22 44  1  0
M  END
>  <UniqueID>  (11) 
11

>  <SMILES>  (11) 
Cc1ccncc1-c1ccc(CN2CCCCCC2=O)cc1

>  <Energy>  (11) 
55.915227664210484

>  <Genealogy>  (11) 
Cc1ccncc1-c1ccc(CN2CCCCCC2=O)cc1 (3D coordinates assigned)
Cc1ccncc1-c1ccc(CN2CCCCCC2=O)cc1 (nonaromatic ring conformer: 55.915227664210484 kcal/mol)

>  <smiles>  (11) 
Cc1ccncc1-c1ccc(CN2CCCCCC2=O)cc1

>  <score_type>  (11) 
oracle

>  <origin>  (11) 
adg

>  <m_score__min__energy>  (11) 
-6.6200000000000001

>  <m_primary>  (11) 
energy

$$$$
11:0
     RDKit          3D

 43 45  0  0  1  0  0  0  0  0999 V2000
   -6.8630   17.0800  -33.7440 C   0  0  0  0  0  0  0  0  0  0  0  0
   -6.1510   18.2220  -33.0150 C   0  0  0  0  0  0  0  0  0  0  0  0
   -4.7870   18.3610  -33.6030 C   0  0  0  0  0  0  0  0  0  0  0  0
   -4.1880   19.7190  -33.4570 C   0  0  0  0  0  0  0  0  0  0  0  0
   -4.9240   20.6120  -32.6000 N   0  0  0  0  0  0  0  0  0  0  0  0
   -4.2510   21.5470  -31.7870 C   0  0  0  0  0  0  0  0  0  0  0  0
   -4.6120   22.8720  -31.6640 C   0  0  0  0  0  0  0  0  0  0  0  0
   -3.8860   23.7330  -30.8330 C   0  0  0  0  0  0  0  0  0  0  0  0
   -4.3150   24.9390  -30.8130 N   0  0  0  0  0  0  0  0  0  0  0  0
   -5.7240   25.2400  -30.8580 C   0  0  0  0  0  0  0  0  0  0  0  0
   -6.1420   25.6730  -29.4020 C   0  0  0  0  0  0  0  0  0  0  0  0
   -6.7770   24.5730  -30.0850 C   0  0  0  0  0  0  0  0  0  0  0  0
   -2.8180   23.3290  -30.1220 N   0  0  0  0  0  0  0  0  0  0  0  0
   -2.0610   24.1870  -29.2590 C   0  0  0  0  0  0  0  0  0  0  0  0
   -2.4830   22.0070  -30.2670 C   0  0  0  0  0  0  0  0  0  0  0  0
   -1.3160   21.4240  -29.5470 C   0  0  0  0  0  0  0  0  0  0  0  0
   -1.2050   20.0440  -29.7700 F   0  0  0  0  0  0  0  0  0  0  0  0
   -0.1490   22.0990  -29.7290 F   0  0  0  0  0  0  0  0  0  0  0  0
   -1.5760   21.4960  -28.1700 F   0  0  0  0  0  0  0  0  0  0  0  0
   -3.1750   21.1730  -31.0620 N   0  0  0  0  0  0  0  0  0  0  0  0
   -6.3890   20.6070  -32.5180 C   0  0  0  0  0  0  0  0  0  0  0  0
   -7.0110   19.4490  -33.2270 C   0  0  0  0  0  0  0  0  0  0  0  0
   -7.2949   16.3872  -33.0067 H   0  0  0  0  0  0  0  0  0  0  0  0
   -7.6651   17.4912  -34.3746 H   0  0  0  0  0  0  0  0  0  0  0  0
   -6.1408   16.5408  -34.3746 H   0  0  0  0  0  0  0  0  0  0  0  0
   -6.0237   18.0534  -31.9355 H   0  0  0  0  0  0  0  0  0  0  0  0
   -4.1234   17.6373  -33.1072 H   0  0  0  0  0  0  0  0  0  0  0  0
   -4.8908   18.1784  -34.6828 H   0  0  0  0  0  0  0  0  0  0  0  0
   -3.1752   19.6042  -33.0434 H   0  0  0  0  0  0  0  0  0  0  0  0
   -4.1971   20.1721  -34.4593 H   0  0  0  0  0  0  0  0  0  0  0  0
   -5.4778   23.2556  -32.2236 H   0  0  0  0  0  0  0  0  0  0  0  0
   -5.7198   25.5190  -31.9220 H   0  0  0  0  0  0  0  0  0  0  0  0
   -5.4695   25.4854  -28.5520 H   0  0  0  0  0  0  0  0  0  0  0  0
   -6.4780   26.6033  -28.9207 H   0  0  0  0  0  0  0  0  0  0  0  0
   -6.6055   23.5488  -29.7222 H   0  0  0  0  0  0  0  0  0  0  0  0
   -7.8298   24.3435  -30.3064 H   0  0  0  0  0  0  0  0  0  0  0  0
   -2.2805   23.9382  -28.2102 H   0  0  0  0  0  0  0  0  0  0  0  0
   -0.9873   24.0465  -29.4522 H   0  0  0  0  0  0  0  0  0  0  0  0
   -2.3342   25.2349  -29.4522 H   0  0  0  0  0  0  0  0  0  0  0  0
   -6.6803   20.5661  -31.4581 H   0  0  0  0  0  0  0  0  0  0  0  0
   -6.7483   21.5237  -33.0085 H   0  0  0  0  0  0  0  0  0  0  0  0
   -8.0183   19.2675  -32.8239 H   0  0  0  0  0  0  0  0  0  0  0  0
   -7.0867   19.6686  -34.3022 H   0  0  0  0  0  0  0  0  0  0  0  0
  1  2  1  0
  2  3  1  0
  3  4  1  0
  4  5  1  0
  5  6  1  0
  6  7  2  0
  7  8  1  0
  8  9  2  0
  9 10  1  0
 10 11  1  0
 11 12  1  0
  8 13  1  0
 13 14  1  0
 13 15  1  0
 15 16  1  0
 16 17  1  0
 16 18  1  0
 16 19  1  0
 15 20  2  0
  5 21  1  0
 21 22  1  0
 22  2  1  0
 20  6  1  0
 12 10  1  0
  1 23  1  0
  1 24  1  0
  1 25  1  0
  2 26  1  0
  3 27  1  0
  3 28  1  0
  4 29  1  0
  4 30  1  0
  7 31  1  0
 10 32  1  0
 11 33  1  0
 11 34  1  0
 12 35  1  0
 12 36  1  0
 14 37  1  0
 14 38  1  0
 14 39  1  0
 21 40  1  0
 21 41  1  0
 22 42  1  0
 22 43  1  0
M  END
>  <smiles>  (12) 
CC1CCN(c2cc(=NC3CC3)n(C)c(C(F)(F)F)n2)CC1

>  <score_type>  (12) 
oracle

>  <origin>  (12) 
adg

>  <m_score__min__energy>  (12) 
-6.6900000000000004

>  <m_primary>  (12) 
energy

$$$$
12:0
     RDKit          3D

 56 60  0  0  0  0  0  0  0  0999 V2000
   -1.1380   26.5660  -27.6530 C   0  0  0  0  0  0  0  0  0  0  0  0
   -1.8850   25.3290  -27.4360 N   0  0  0  0  0  0  0  0  0  0  0  0
   -2.7070   25.2100  -26.2320 C   0  0  0  0  0  0  0  0  0  0  0  0
   -1.4670   24.1370  -28.1190 C   0  0  0  0  0  0  0  0  0  0  0  0
   -0.2080   23.5910  -27.8380 C   0  0  0  0  0  0  0  0  0  0  0  0
    0.2300   22.4530  -28.5090 C   0  0  0  0  0  0  0  0  0  0  0  0
   -0.5780   21.8530  -29.4740 C   0  0  0  0  0  0  0  0  0  0  0  0
   -1.8520   22.3740  -29.7760 C   0  0  0  0  0  0  0  0  0  0  0  0
   -2.2990   23.5210  -29.0800 C   0  0  0  0  0  0  0  0  0  0  0  0
   -3.9090   24.1320  -29.4100 S   0  0  0  0  0  0  0  0  0  0  0  0
   -3.8630   25.1850  -30.4810 O   0  0  0  0  0  0  0  0  0  0  0  0
   -4.5530   24.6850  -28.1690 O   0  0  0  0  0  0  0  0  0  0  0  0
   -4.8410   22.7330  -29.9610 C   0  0  0  0  0  0  0  0  0  0  0  0
   -4.0640   21.9640  -31.0080 C   0  0  0  0  0  0  0  0  0  0  0  0
   -4.7250   21.3070  -32.0750 C   0  0  0  0  0  0  0  0  0  0  0  0
   -6.1700   21.4620  -32.3400 C   0  0  0  0  0  0  0  0  0  0  0  0
   -6.6120   22.6050  -32.6390 O   0  0  0  0  0  0  0  0  0  0  0  0
   -7.0630   20.3270  -32.3210 N   0  0  0  0  0  0  0  0  0  0  0  0
   -6.5980   19.0130  -31.8520 C   0  0  0  0  0  0  0  0  0  0  0  0
   -7.7750   18.1890  -31.3240 C   0  0  0  0  0  0  0  0  0  0  0  0
   -8.8270   18.1490  -32.2680 O   0  0  0  0  0  0  0  0  0  0  0  0
   -9.3620   19.4480  -32.4310 C   0  0  0  0  0  0  0  0  0  0  0  0
   -8.3300   20.3870  -33.0630 C   0  0  0  0  0  0  0  0  0  0  0  0
   -4.0210   20.4970  -32.9050 N   0  0  0  0  0  0  0  0  0  0  0  0
   -2.6920   20.2900  -32.7450 C   0  0  0  0  0  0  0  0  0  0  0  0
   -1.9550   19.3970  -33.6590 C   0  0  0  0  0  0  0  0  0  0  0  0
   -2.4070   18.0940  -33.9320 C   0  0  0  0  0  0  0  0  0  0  0  0
   -1.6750   17.2820  -34.8020 C   0  0  0  0  0  0  0  0  0  0  0  0
   -0.5070   17.7680  -35.3910 C   0  0  0  0  0  0  0  0  0  0  0  0
   -0.0850   19.0650  -35.0990 C   0  0  0  0  0  0  0  0  0  0  0  0
   -0.8090   19.8430  -34.2500 N   0  0  0  0  0  0  0  0  0  0  0  0
   -2.0390   20.9100  -31.7340 N   0  0  0  0  0  0  0  0  0  0  0  0
   -2.6700   21.7350  -30.8550 C   0  0  0  0  0  0  0  0  0  0  0  0
   -0.8709   27.0082  -26.6819 H   0  0  0  0  0  0  0  0  0  0  0  0
   -0.2215   26.3462  -28.2202 H   0  0  0  0  0  0  0  0  0  0  0  0
   -1.7592   27.2748  -28.2202 H   0  0  0  0  0  0  0  0  0  0  0  0
   -2.0682   25.3025  -25.3413 H   0  0  0  0  0  0  0  0  0  0  0  0
   -3.4642   26.0079  -26.2246 H   0  0  0  0  0  0  0  0  0  0  0  0
   -3.2068   24.2301  -26.2246 H   0  0  0  0  0  0  0  0  0  0  0  0
    0.4376   24.0639  -27.0834 H   0  0  0  0  0  0  0  0  0  0  0  0
    1.2167   22.0256  -28.2773 H   0  0  0  0  0  0  0  0  0  0  0  0
   -0.2162   20.9612  -30.0066 H   0  0  0  0  0  0  0  0  0  0  0  0
   -5.0467   22.0738  -29.1047 H   0  0  0  0  0  0  0  0  0  0  0  0
   -5.7858   23.0834  -30.4020 H   0  0  0  0  0  0  0  0  0  0  0  0
   -6.1254   18.4761  -32.6877 H   0  0  0  0  0  0  0  0  0  0  0  0
   -5.8717   19.1603  -31.0391 H   0  0  0  0  0  0  0  0  0  0  0  0
   -7.4340   17.1630  -31.1211 H   0  0  0  0  0  0  0  0  0  0  0  0
   -8.1478   18.6595  -30.4022 H   0  0  0  0  0  0  0  0  0  0  0  0
  -10.2469   19.3943  -33.0822 H   0  0  0  0  0  0  0  0  0  0  0  0
   -9.6374   19.8421  -31.4417 H   0  0  0  0  0  0  0  0  0  0  0  0
   -8.1544   20.0839  -34.1057 H   0  0  0  0  0  0  0  0  0  0  0  0
   -8.7156   21.4166  -33.0293 H   0  0  0  0  0  0  0  0  0  0  0  0
   -3.3288   17.7172  -33.4648 H   0  0  0  0  0  0  0  0  0  0  0  0
   -2.0190   16.2607  -35.0224 H   0  0  0  0  0  0  0  0  0  0  0  0
    0.0744   17.1354  -36.0779 H   0  0  0  0  0  0  0  0  0  0  0  0
    0.8346   19.4593  -35.5560 H   0  0  0  0  0  0  0  0  0  0  0  0
  1  2  1  0
  2  3  1  0
  2  4  1  0
  4  5  2  0
  5  6  1  0
  6  7  2  0
  7  8  1  0
  8  9  2  0
  9 10  1  0
 10 11  2  0
 10 12  2  0
 10 13  1  0
 13 14  1  0
 14 15  2  0
 15 16  1  0
 16 17  2  0
 16 18  1  0
 18 19  1  0
 19 20  1  0
 20 21  1  0
 21 22  1  0
 22 23  1  0
 15 24  1  0
 24 25  2  0
 25 26  1  0
 26 27  2  0
 27 28  1  0
 28 29  2  0
 29 30  1  0
 30 31  2  0
 25 32  1  0
 32 33  2  0
  9  4  1  0
 33 14  1  0
 33  8  1  0
 23 18  1  0
 31 26  1  0
  1 34  1  0
  1 35  1  0
  1 36  1  0
  3 37  1  0
  3 38  1  0
  3 39  1  0
  5 40  1  0
  6 41  1  0
  7 42  1  0
 13 43  1  0
 13 44  1  0
 19 45  1  0
 19 46  1  0
 20 47  1  0
 20 48  1  0
 22 49  1  0
 22 50  1  0
 23 51  1  0
 23 52  1  0
 27 53  1  0
 28 54  1  0
 29 55  1  0
 30 56  1  0
M  END
>  <UniqueID>  (13) 
12

>  <SMILES>  (13) 
CN(C)c1cccc2c1S(=O)(=O)Cc1c(C(=O)N3CCOCC3)nc(-c3ccccn3)nc1-2

>  <Energy>  (13) 
81.74995932238006

>  <Genealogy>  (13) 
CN(C)c1cccc2c1S(=O)(=O)Cc1c(C(=O)N3CCOCC3)nc(-c3ccccn3)nc1-2 (3D coordinates assigned)
CN(C)c1cccc2c1S(=O)(=O)Cc1c(C(=O)N3CCOCC3)nc(-c3ccccn3)nc1-2 (nonaromatic ring conformer: 81.74995932238006 kcal/mol)

>  <smiles>  (13) 
CN(C)c1cccc2c1S(=O)(=O)Cc1c(C(=O)N3CCOCC3)nc(-c3ccccn3)nc1-2

>  <score_type>  (13) 
oracle

>  <origin>  (13) 
adg

>  <m_score__min__energy>  (13) 
-9.0899999999999999

>  <m_primary>  (13) 
energy

$$$$
13:0
     RDKit          3D

 33 35  0  0  0  0  0  0  0  0999 V2000
   -2.6200   19.8860  -33.8440 C   0  0  0  0  0  0  0  0  0  0  0  0
   -4.0490   19.7180  -33.4320 C   0  0  0  0  0  0  0  0  0  0  0  0
   -4.7590   18.5470  -33.7920 C   0  0  0  0  0  0  0  0  0  0  0  0
   -6.1000   18.3740  -33.3830 C   0  0  0  0  0  0  0  0  0  0  0  0
   -6.8550   17.1300  -33.7450 C   0  0  0  0  0  0  0  0  0  0  0  0
   -6.6670   19.4080  -32.6240 C   0  0  0  0  0  0  0  0  0  0  0  0
   -7.8940   19.6060  -32.0040 C   0  0  0  0  0  0  0  0  0  0  0  0
   -9.0730   18.6860  -31.9890 C   0  0  0  0  0  0  0  0  0  0  0  0
   -7.8710   20.7940  -31.3520 N   0  0  0  0  0  0  0  0  0  0  0  0
   -6.6840   21.3580  -31.5470 N   0  0  0  0  0  0  0  0  0  0  0  0
   -6.2990   22.6250  -30.9810 C   0  0  0  0  0  0  0  0  0  0  0  0
   -7.2240   23.6840  -30.9470 C   0  0  0  0  0  0  0  0  0  0  0  0
   -6.8630   24.9220  -30.4070 C   0  0  0  0  0  0  0  0  0  0  0  0
   -5.5750   25.1190  -29.9050 C   0  0  0  0  0  0  0  0  0  0  0  0
   -4.6410   24.0800  -29.9490 C   0  0  0  0  0  0  0  0  0  0  0  0
   -3.0160   24.3370  -29.3380 Cl  0  0  0  0  0  0  0  0  0  0  0  0
   -4.9980   22.8390  -30.4890 C   0  0  0  0  0  0  0  0  0  0  0  0
   -5.9490   20.5270  -32.3110 C   0  0  0  0  0  0  0  0  0  0  0  0
   -4.6540   20.6870  -32.6830 N   0  0  0  0  0  0  0  0  0  0  0  0
   -1.9864   19.9605  -32.9479 H   0  0  0  0  0  0  0  0  0  0  0  0
   -2.3068   19.0185  -34.4434 H   0  0  0  0  0  0  0  0  0  0  0  0
   -2.5165   20.8025  -34.4434 H   0  0  0  0  0  0  0  0  0  0  0  0
   -4.2645   17.7692  -34.3924 H   0  0  0  0  0  0  0  0  0  0  0  0
   -7.1695   16.6118  -32.8271 H   0  0  0  0  0  0  0  0  0  0  0  0
   -7.7425   17.3988  -34.3367 H   0  0  0  0  0  0  0  0  0  0  0  0
   -6.2069   16.4668  -34.3367 H   0  0  0  0  0  0  0  0  0  0  0  0
   -9.3539   18.4668  -30.9483 H   0  0  0  0  0  0  0  0  0  0  0  0
   -9.9187   19.1653  -32.5038 H   0  0  0  0  0  0  0  0  0  0  0  0
   -8.8136   17.7492  -32.5038 H   0  0  0  0  0  0  0  0  0  0  0  0
   -8.2378   23.5372  -31.3478 H   0  0  0  0  0  0  0  0  0  0  0  0
   -7.5951   25.7425  -30.3775 H   0  0  0  0  0  0  0  0  0  0  0  0
   -5.2953   26.0920  -29.4748 H   0  0  0  0  0  0  0  0  0  0  0  0
   -4.2576   22.0265  -30.5290 H   0  0  0  0  0  0  0  0  0  0  0  0
  1  2  1  0
  2  3  2  0
  3  4  1  0
  4  5  1  0
  4  6  2  0
  6  7  1  0
  7  8  1  0
  7  9  2  0
  9 10  1  0
 10 11  1  0
 11 12  2  0
 12 13  1  0
 13 14  2  0
 14 15  1  0
 15 16  1  0
 15 17  2  0
 10 18  1  0
 18 19  2  0
 19  2  1  0
 18  6  1  0
 17 11  1  0
  1 20  1  0
  1 21  1  0
  1 22  1  0
  3 23  1  0
  5 24  1  0
  5 25  1  0
  5 26  1  0
  8 27  1  0
  8 28  1  0
  8 29  1  0
 12 30  1  0
 13 31  1  0
 14 32  1  0
 17 33  1  0
M  END
>  <UniqueID>  (14) 
13

>  <SMILES>  (14) 
Cc1cc(C)c2c(C)nn(-c3cccc(Cl)c3)c2n1

>  <Energy>  (14) 
77.86615849387555

>  <Genealogy>  (14) 
Cc1cc(C)c2c(C)nn(-c3cccc(Cl)c3)c2n1 (3D coordinates assigned)
Cc1cc(C)c2c(C)nn(-c3cccc(Cl)c3)c2n1 (optimized conformer: 77.86615849387555 kcal/mol)

>  <smiles>  (14) 
Cc1cc(C)c2c(C)nn(-c3cccc(Cl)c3)c2n1

>  <score_type>  (14) 
oracle

>  <origin>  (14) 
adg

>  <m_score__min__energy>  (14) 
-7.8200000000000003

>  <m_primary>  (14) 
energy

$$$$
14:0
     RDKit          3D

 37 39  0  0  0  0  0  0  0  0999 V2000
   -6.3940   13.1170  -34.5730 C   0  0  0  0  0  0  0  0  0  0  0  0
   -5.4350   13.7690  -33.7480 O   0  0  0  0  0  0  0  0  0  0  0  0
   -5.3460   15.1600  -33.5850 C   0  0  0  0  0  0  0  0  0  0  0  0
   -6.4490   16.0130  -33.7630 C   0  0  0  0  0  0  0  0  0  0  0  0
   -6.3090   17.3930  -33.5890 C   0  0  0  0  0  0  0  0  0  0  0  0
   -5.0670   17.9490  -33.2330 C   0  0  0  0  0  0  0  0  0  0  0  0
   -4.9190   19.3760  -33.0630 N   0  0  0  0  0  0  0  0  0  0  0  0
   -3.6900   20.0490  -33.4850 C   0  0  0  0  0  0  0  0  0  0  0  0
   -6.2040   20.3280  -32.3690 S   0  0  0  0  0  0  0  0  0  0  0  0
   -6.8350   19.5780  -31.2290 O   0  0  0  0  0  0  0  0  0  0  0  0
   -7.2510   20.5720  -33.4200 O   0  0  0  0  0  0  0  0  0  0  0  0
   -5.5810   21.8660  -31.7790 C   0  0  0  0  0  0  0  0  0  0  0  0
   -6.2810   23.0620  -32.0640 C   0  0  0  0  0  0  0  0  0  0  0  0
   -5.7990   24.3010  -31.6050 C   0  0  0  0  0  0  0  0  0  0  0  0
   -4.6190   24.3090  -30.8630 C   0  0  0  0  0  0  0  0  0  0  0  0
   -4.0050   25.3860  -30.3410 N   0  0  0  0  0  0  0  0  0  0  0  0
   -2.9180   24.8670  -29.7200 C   0  0  0  0  0  0  0  0  0  0  0  0
   -1.9940   25.6470  -29.0370 O   0  0  0  0  0  0  0  0  0  0  0  0
   -2.8370   23.4870  -29.8420 C   0  0  0  0  0  0  0  0  0  0  0  0
   -3.9440   23.1500  -30.5820 C   0  0  0  0  0  0  0  0  0  0  0  0
   -4.3940   21.9070  -31.0210 C   0  0  0  0  0  0  0  0  0  0  0  0
   -3.9670   17.0900  -33.0620 C   0  0  0  0  0  0  0  0  0  0  0  0
   -4.1090   15.7100  -33.2340 C   0  0  0  0  0  0  0  0  0  0  0  0
   -7.1382   12.6110  -33.9405 H   0  0  0  0  0  0  0  0  0  0  0  0
   -6.8975   13.8608  -35.2081 H   0  0  0  0  0  0  0  0  0  0  0  0
   -5.8875   12.3753  -35.2081 H   0  0  0  0  0  0  0  0  0  0  0  0
   -7.4269   15.5927  -34.0405 H   0  0  0  0  0  0  0  0  0  0  0  0
   -7.1790   18.0508  -33.7320 H   0  0  0  0  0  0  0  0  0  0  0  0
   -3.1197   20.3613  -32.5977 H   0  0  0  0  0  0  0  0  0  0  0  0
   -3.0818   19.3580  -34.0873 H   0  0  0  0  0  0  0  0  0  0  0  0
   -3.9446   20.9336  -34.0873 H   0  0  0  0  0  0  0  0  0  0  0  0
   -7.2110   23.0225  -32.6501 H   0  0  0  0  0  0  0  0  0  0  0  0
   -6.3367   25.2351  -31.8248 H   0  0  0  0  0  0  0  0  0  0  0  0
   -2.0637   22.8168  -29.4386 H   0  0  0  0  0  0  0  0  0  0  0  0
   -3.8403   20.9867  -30.7835 H   0  0  0  0  0  0  0  0  0  0  0  0
   -2.9862   17.5075  -32.7905 H   0  0  0  0  0  0  0  0  0  0  0  0
   -3.2400   15.0508  -33.0920 H   0  0  0  0  0  0  0  0  0  0  0  0
  1  2  1  0
  2  3  1  0
  3  4  2  0
  4  5  1  0
  5  6  2  0
  6  7  1  0
  7  8  1  0
  7  9  1  0
  9 10  2  0
  9 11  2  0
  9 12  1  0
 12 13  2  0
 13 14  1  0
 14 15  2  0
 15 16  1  0
 16 17  1  0
 17 18  1  0
 17 19  2  0
 19 20  1  0
 20 21  2  0
  6 22  1  0
 22 23  2  0
 23  3  1  0
 21 12  1  0
 20 15  1  0
  1 24  1  0
  1 25  1  0
  1 26  1  0
  4 27  1  0
  5 28  1  0
  8 29  1  0
  8 30  1  0
  8 31  1  0
 13 32  1  0
 14 33  1  0
 19 34  1  0
 21 35  1  0
 22 36  1  0
 23 37  1  0
M  CHG  2  16  -1  18  -1
M  END
>  <UniqueID>  (15) 
14

>  <SMILES>  (15) 
COc1ccc(N(C)S(=O)(=O)c2ccc3[n-]c([O-])cc3c2)cc1

>  <Energy>  (15) 
74.87360208724539

>  <Genealogy>  (15) 
COc1ccc(N(C)S(=O)(=O)c2ccc3[n-]c([O-])cc3c2)cc1 (protonated)
COc1ccc(N(C)S(=O)(=O)c2ccc3[n-]c([O-])cc3c2)cc1 (3D coordinates assigned)
COc1ccc(N(C)S(=O)(=O)c2ccc3[n-]c([O-])cc3c2)cc1 (optimized conformer: 74.87360208724539 kcal/mol)

>  <smiles>  (15) 
COc1ccc(N(C)S(=O)(=O)c2ccc3[nH]c(O)cc3c2)cc1

>  <score_type>  (15) 
oracle

>  <origin>  (15) 
adg

>  <m_score__min__energy>  (15) 
-11.890000000000001

>  <m_primary>  (15) 
energy

$$$$
15:0
     RDKit          3D

 44 46  0  0  0  0  0  0  0  0999 V2000
   -9.4650   23.5790  -32.3350 C   0  0  0  0  0  0  0  0  0  0  0  0
   -8.6980   22.5810  -31.5730 N   0  0  0  0  0  0  0  0  0  0  0  0
   -9.3600   21.3220  -31.3390 C   0  0  0  0  0  0  0  0  0  0  0  0
   -8.6300   20.1460  -31.8550 C   0  0  0  0  0  0  0  0  0  0  0  0
   -9.1020   18.8560  -31.8170 C   0  0  0  0  0  0  0  0  0  0  0  0
   -8.4070   17.8120  -32.3040 N   0  0  0  0  0  0  0  0  0  0  0  0
   -7.1970   18.0080  -32.8570 C   0  0  0  0  0  0  0  0  0  0  0  0
   -6.5330   16.9380  -33.3340 N   0  0  0  0  0  0  0  0  0  0  0  0
   -5.3070   17.1060  -33.8990 C   0  0  0  0  0  0  0  0  0  0  0  0
   -4.7500   18.3320  -33.9880 N   0  0  0  0  0  0  0  0  0  0  0  0
   -5.4220   19.4100  -33.5070 C   0  0  0  0  0  0  0  0  0  0  0  0
   -4.8840   20.5810  -33.5950 N   0  0  0  0  0  0  0  0  0  0  0  0
   -6.6630   19.2800  -32.9290 C   0  0  0  0  0  0  0  0  0  0  0  0
   -7.3770   20.3550  -32.4290 C   0  0  0  0  0  0  0  0  0  0  0  0
   -7.3880   22.9000  -31.1300 C   0  0  0  0  0  0  0  0  0  0  0  0
   -6.9700   22.8060  -29.8250 C   0  0  0  0  0  0  0  0  0  0  0  0
   -5.6920   23.1210  -29.4160 C   0  0  0  0  0  0  0  0  0  0  0  0
   -4.7710   23.5530  -30.3430 C   0  0  0  0  0  0  0  0  0  0  0  0
   -3.4070   23.9010  -29.9780 C   0  0  0  0  0  0  0  0  0  0  0  0
   -2.4840   23.3670  -30.6400 O   0  0  0  0  0  0  0  0  0  0  0  0
   -3.1130   24.7980  -28.9300 N   0  0  0  0  0  0  0  0  0  0  0  0
   -1.7790   25.1140  -28.6010 C   0  0  0  0  0  0  0  0  0  0  0  0
   -0.7280   24.6880  -29.1370 N   0  0  0  0  0  0  0  0  0  0  0  0
   -1.6080   26.0500  -27.5030 N   0  0  0  0  0  0  0  0  0  0  0  0
   -5.1950   23.6460  -31.6510 C   0  0  0  0  0  0  0  0  0  0  0  0
   -6.4700   23.3330  -32.0590 C   0  0  0  0  0  0  0  0  0  0  0  0
   -9.9834   24.2536  -31.6377 H   0  0  0  0  0  0  0  0  0  0  0  0
   -8.7804   24.1621  -32.9685 H   0  0  0  0  0  0  0  0  0  0  0  0
  -10.2046   23.0675  -32.9685 H   0  0  0  0  0  0  0  0  0  0  0  0
   -9.4902   21.1977  -30.2538 H   0  0  0  0  0  0  0  0  0  0  0  0
  -10.3155   21.3629  -31.8824 H   0  0  0  0  0  0  0  0  0  0  0  0
  -10.0894   18.6691  -31.3697 H   0  0  0  0  0  0  0  0  0  0  0  0
   -4.7633   16.2324  -34.2878 H   0  0  0  0  0  0  0  0  0  0  0  0
   -3.8150   18.3990  -34.4280 H   0  0  0  0  0  0  0  0  0  0  0  0
   -5.2950   21.3230  -34.1690 H   0  0  0  0  0  0  0  0  0  0  0  0
   -6.9574   21.3703  -32.4843 H   0  0  0  0  0  0  0  0  0  0  0  0
   -7.6910   22.4622  -29.0687 H   0  0  0  0  0  0  0  0  0  0  0  0
   -5.4103   23.0278  -28.3568 H   0  0  0  0  0  0  0  0  0  0  0  0
   -3.8770   25.2270  -28.3980 H   0  0  0  0  0  0  0  0  0  0  0  0
   -0.5690   24.2870  -30.0420 H   0  0  0  0  0  0  0  0  0  0  0  0
   -2.2730   26.0440  -26.7000 H   0  0  0  0  0  0  0  0  0  0  0  0
   -0.8200   26.7260  -27.5160 H   0  0  0  0  0  0  0  0  0  0  0  0
   -4.4751   23.9889  -32.4087 H   0  0  0  0  0  0  0  0  0  0  0  0
   -6.7534   23.4278  -33.1176 H   0  0  0  0  0  0  0  0  0  0  0  0
  1  2  1  0
  2  3  1  0
  3  4  1  0
  4  5  2  0
  5  6  1  0
  6  7  2  0
  7  8  1  0
  8  9  2  0
  9 10  1  0
 10 11  1  0
 11 12  2  3
 11 13  1  0
 13 14  2  0
  2 15  1  0
 15 16  2  0
 16 17  1  0
 17 18  2  0
 18 19  1  0
 19 20  2  0
 19 21  1  0
 21 22  1  0
 22 23  2  3
 22 24  1  0
 18 25  1  0
 25 26  2  0
 14  4  1  0
 26 15  1  0
 13  7  1  0
  1 27  1  0
  1 28  1  0
  1 29  1  0
  3 30  1  0
  3 31  1  0
  5 32  1  0
  9 33  1  0
 10 34  1  0
 12 35  1  0
 14 36  1  0
 16 37  1  0
 17 38  1  0
 21 39  1  0
 23 40  1  0
 24 41  1  0
 24 42  1  0
 25 43  1  0
 26 44  1  0
M  END
>  <smiles>  (16) 
CN(Cc1cnc2nc[nH]c(=N)c2c1)c1ccc(C(=O)NC(=N)N)cc1

>  <score_type>  (16) 
oracle

>  <origin>  (16) 
adg

>  <m_score__min__energy>  (16) 
-8.6899999999999995

>  <m_primary>  (16) 
energy

$$$$
16:0
     RDKit          3D

 49 50  0  0  0  0  0  0  0  0999 V2000
   -2.4290   24.7110  -28.4940 C   0  0  0  0  0  0  0  0  0  0  0  0
   -3.1170   25.0420  -29.6960 O   0  0  0  0  0  0  0  0  0  0  0  0
   -3.8030   24.1180  -30.4960 C   0  0  0  0  0  0  0  0  0  0  0  0
   -5.1800   24.2320  -30.7700 C   0  0  0  0  0  0  0  0  0  0  0  0
   -5.8260   23.2820  -31.5760 C   0  0  0  0  0  0  0  0  0  0  0  0
   -7.2810   23.4410  -31.9050 C   0  0  0  0  0  0  0  0  0  0  0  0
   -5.0870   22.2270  -32.1290 C   0  0  0  0  0  0  0  0  0  0  0  0
   -3.7180   22.0950  -31.8510 C   0  0  0  0  0  0  0  0  0  0  0  0
   -2.9280   20.9820  -32.4810 C   0  0  0  0  0  0  0  0  0  0  0  0
   -3.4940   20.6590  -33.7940 N   0  0  0  0  0  0  0  0  0  0  0  0
   -3.3780   19.2200  -34.0700 C   0  0  0  0  0  0  0  0  0  0  0  0
   -4.6960   18.4790  -33.7620 C   0  0  0  0  0  0  0  0  0  0  0  0
   -5.8950   19.0160  -34.5860 C   0  0  0  0  0  0  0  0  0  0  0  0
   -6.8250   19.8840  -33.7290 C   0  0  0  0  0  0  0  0  0  0  0  0
   -7.4050   19.1150  -32.6010 N   0  0  0  0  0  0  0  0  0  0  0  0
   -8.0230   20.0190  -31.6050 C   0  0  0  0  0  0  0  0  0  0  0  0
   -9.4710   20.3370  -31.9910 C   0  0  0  0  0  0  0  0  0  0  0  0
   -9.8860   19.5730  -33.0910 O   0  0  0  0  0  0  0  0  0  0  0  0
   -6.4670   18.1350  -31.9820 C   0  0  0  0  0  0  0  0  0  0  0  0
   -4.9920   18.4680  -32.2450 C   0  0  0  0  0  0  0  0  0  0  0  0
   -3.0830   23.0490  -31.0430 C   0  0  0  0  0  0  0  0  0  0  0  0
   -3.0407   25.0053  -27.6284 H   0  0  0  0  0  0  0  0  0  0  0  0
   -2.2468   23.6267  -28.4625 H   0  0  0  0  0  0  0  0  0  0  0  0
   -1.4680   25.2454  -28.4625 H   0  0  0  0  0  0  0  0  0  0  0  0
   -5.7529   25.0715  -30.3493 H   0  0  0  0  0  0  0  0  0  0  0  0
   -7.8627   23.5046  -30.9736 H   0  0  0  0  0  0  0  0  0  0  0  0
   -7.4260   24.3603  -32.4913 H   0  0  0  0  0  0  0  0  0  0  0  0
   -7.6211   22.5747  -32.4913 H   0  0  0  0  0  0  0  0  0  0  0  0
   -5.5838   21.4975  -32.7855 H   0  0  0  0  0  0  0  0  0  0  0  0
   -1.8814   21.2986  -32.6014 H   0  0  0  0  0  0  0  0  0  0  0  0
   -2.9718   20.0923  -31.8356 H   0  0  0  0  0  0  0  0  0  0  0  0
   -2.9310   21.1720  -34.5130 H   0  0  0  0  0  0  0  0  0  0  0  0
   -3.1276   19.0784  -35.1317 H   0  0  0  0  0  0  0  0  0  0  0  0
   -2.5895   18.8063  -33.4241 H   0  0  0  0  0  0  0  0  0  0  0  0
   -4.5553   17.4357  -34.0810 H   0  0  0  0  0  0  0  0  0  0  0  0
   -5.5120   19.6204  -35.4215 H   0  0  0  0  0  0  0  0  0  0  0  0
   -6.4715   18.1553  -34.9559 H   0  0  0  0  0  0  0  0  0  0  0  0
   -6.2510   20.7312  -33.3255 H   0  0  0  0  0  0  0  0  0  0  0  0
   -7.6503   20.2357  -34.3656 H   0  0  0  0  0  0  0  0  0  0  0  0
   -8.0103   19.5327  -30.6184 H   0  0  0  0  0  0  0  0  0  0  0  0
   -7.4499   20.9574  -31.5740 H   0  0  0  0  0  0  0  0  0  0  0  0
  -10.1262   20.1176  -31.1351 H   0  0  0  0  0  0  0  0  0  0  0  0
   -9.5309   21.4005  -32.2654 H   0  0  0  0  0  0  0  0  0  0  0  0
   -9.0660   19.1810  -33.4890 H   0  0  0  0  0  0  0  0  0  0  0  0
   -6.6360   18.1265  -30.8951 H   0  0  0  0  0  0  0  0  0  0  0  0
   -6.6689   17.1540  -32.4367 H   0  0  0  0  0  0  0  0  0  0  0  0
   -4.7654   19.4594  -31.8258 H   0  0  0  0  0  0  0  0  0  0  0  0
   -4.3657   17.6996  -31.7682 H   0  0  0  0  0  0  0  0  0  0  0  0
   -2.0065   22.9564  -30.8365 H   0  0  0  0  0  0  0  0  0  0  0  0
  1  2  1  0
  2  3  1  0
  3  4  2  0
  4  5  1  0
  5  6  1  0
  5  7  2  0
  7  8  1  0
  8  9  1  0
  9 10  1  0
 10 11  1  0
 11 12  1  0
 12 13  1  0
 13 14  1  0
 14 15  1  0
 15 16  1  0
 16 17  1  0
 17 18  1  0
 15 19  1  0
 19 20  1  0
  8 21  2  0
 21  3  1  0
 20 12  1  0
  1 22  1  0
  1 23  1  0
  1 24  1  0
  4 25  1  0
  6 26  1  0
  6 27  1  0
  6 28  1  0
  7 29  1  0
  9 30  1  0
  9 31  1  0
 10 32  1  0
 11 33  1  0
 11 34  1  0
 12 35  1  0
 13 36  1  0
 13 37  1  0
 14 38  1  0
 14 39  1  0
 16 40  1  0
 16 41  1  0
 17 42  1  0
 17 43  1  0
 18 44  1  0
 19 45  1  0
 19 46  1  0
 20 47  1  0
 20 48  1  0
 21 49  1  0
M  END
>  <UniqueID>  (17) 
15

>  <SMILES>  (17) 
COc1cc(C)cc(CNCC2CCN(CCO)CC2)c1

>  <Energy>  (17) 
50.94324460358583

>  <Genealogy>  (17) 
COc1cc(C)cc(CNCC2CCN(CCO)CC2)c1 (3D coordinates assigned)
COc1cc(C)cc(CNCC2CCN(CCO)CC2)c1 (nonaromatic ring conformer: 50.94324460358583 kcal/mol)

>  <smiles>  (17) 
COc1cc(C)cc(CNCC2CCN(CCO)CC2)c1

>  <score_type>  (17) 
oracle

>  <origin>  (17) 
adg

>  <m_score__min__energy>  (17) 
-7.8300000000000001

>  <m_primary>  (17) 
energy

$$$$
17:0
     RDKit          3D

 46 47  0  0  0  0  0  0  0  0999 V2000
   -3.3530   24.2090  -29.7060 C   0  0  0  0  0  0  0  0  0  0  0  0
   -3.9650   25.2280  -30.4640 O   0  0  0  0  0  0  0  0  0  0  0  0
   -5.3630   25.0340  -30.4670 C   0  0  0  0  0  0  0  0  0  0  0  0
   -5.7450   23.8860  -31.4070 C   0  0  0  0  0  0  0  0  0  0  0  0
   -7.0760   23.1510  -31.0880 C   0  0  0  0  0  0  0  0  0  0  0  0
   -7.5520   22.1670  -32.0930 N   0  0  0  0  0  0  0  0  0  0  0  0
   -6.4770   21.5060  -32.8670 C   0  0  0  0  0  0  0  0  0  0  0  0
   -6.9330   20.1780  -33.4990 C   0  0  0  0  0  0  0  0  0  0  0  0
   -7.5210   19.2300  -32.5090 N   0  0  1  0  0  0  0  0  0  0  0  0
   -6.4810   18.3140  -31.9730 C   0  0  0  0  0  0  0  0  0  0  0  0
   -5.3900   18.0230  -32.9910 C   0  0  0  0  0  0  0  0  0  0  0  0
   -5.6020   17.0140  -33.9540 C   0  0  0  0  0  0  0  0  0  0  0  0
   -6.7780   16.3350  -33.9980 F   0  0  0  0  0  0  0  0  0  0  0  0
   -4.6100   16.7020  -34.8860 C   0  0  0  0  0  0  0  0  0  0  0  0
   -3.3980   17.3920  -34.8770 C   0  0  0  0  0  0  0  0  0  0  0  0
   -3.1760   18.4010  -33.9420 C   0  0  0  0  0  0  0  0  0  0  0  0
   -4.1610   18.7270  -33.0010 C   0  0  0  0  0  0  0  0  0  0  0  0
   -3.8100   20.0400  -31.8790 Cl  0  0  0  0  0  0  0  0  0  0  0  0
   -8.2820   19.9000  -31.4150 C   0  0  0  0  0  0  0  0  0  0  0  0
   -8.7370   21.3140  -31.8120 C   0  0  1  0  0  0  0  0  0  0  0  0
   -9.7620   21.9190  -30.8360 C   0  0  0  0  0  0  0  0  0  0  0  0
   -3.4809   24.4220  -28.6344 H   0  0  0  0  0  0  0  0  0  0  0  0
   -3.8202   23.2425  -29.9461 H   0  0  0  0  0  0  0  0  0  0  0  0
   -2.2803   24.1674  -29.9461 H   0  0  0  0  0  0  0  0  0  0  0  0
   -5.6969   24.7927  -29.4471 H   0  0  0  0  0  0  0  0  0  0  0  0
   -5.8488   25.9566  -30.8175 H   0  0  0  0  0  0  0  0  0  0  0  0
   -5.8245   24.2975  -32.4240 H   0  0  0  0  0  0  0  0  0  0  0  0
   -4.9552   23.1303  -31.2842 H   0  0  0  0  0  0  0  0  0  0  0  0
   -6.9417   22.6166  -30.1359 H   0  0  0  0  0  0  0  0  0  0  0  0
   -7.8436   23.9386  -31.0686 H   0  0  0  0  0  0  0  0  0  0  0  0
   -6.1522   22.1848  -33.6694 H   0  0  0  0  0  0  0  0  0  0  0  0
   -5.6564   21.2790  -32.1705 H   0  0  0  0  0  0  0  0  0  0  0  0
   -7.6903   20.3973  -34.2661 H   0  0  0  0  0  0  0  0  0  0  0  0
   -6.0417   19.6950  -33.9260 H   0  0  0  0  0  0  0  0  0  0  0  0
   -8.2040   18.6460  -33.0480 H   0  0  0  0  0  0  0  0  0  0  0  0
   -6.0235   18.7778  -31.0867 H   0  0  0  0  0  0  0  0  0  0  0  0
   -6.9690   17.3611  -31.7203 H   0  0  0  0  0  0  0  0  0  0  0  0
   -4.7849   15.9100  -35.6291 H   0  0  0  0  0  0  0  0  0  0  0  0
   -2.6165   17.1394  -35.6088 H   0  0  0  0  0  0  0  0  0  0  0  0
   -2.2202   18.9455  -33.9429 H   0  0  0  0  0  0  0  0  0  0  0  0
   -9.1694   19.2950  -31.1776 H   0  0  0  0  0  0  0  0  0  0  0  0
   -7.6166   19.9894  -30.5437 H   0  0  0  0  0  0  0  0  0  0  0  0
   -9.3069   21.2511  -32.7507 H   0  0  0  0  0  0  0  0  0  0  0  0
   -9.4399   21.7289  -29.8016 H   0  0  0  0  0  0  0  0  0  0  0  0
   -9.8328   23.0037  -31.0045 H   0  0  0  0  0  0  0  0  0  0  0  0
  -10.7459   21.4568  -31.0045 H   0  0  0  0  0  0  0  0  0  0  0  0
  1  2  1  0
  2  3  1  0
  3  4  1  0
  4  5  1  0
  5  6  1  0
  6  7  1  0
  7  8  1  0
  8  9  1  0
  9 10  1  0
 10 11  1  0
 11 12  2  0
 12 13  1  0
 12 14  1  0
 14 15  2  0
 15 16  1  0
 16 17  2  0
 17 18  1  0
  9 19  1  0
 19 20  1  0
 20 21  1  0
 20  6  1  0
 17 11  1  0
  1 22  1  0
  1 23  1  0
  1 24  1  0
  3 25  1  0
  3 26  1  0
  4 27  1  0
  4 28  1  0
  5 29  1  0
  5 30  1  0
  7 31  1  0
  7 32  1  0
  8 33  1  0
  8 34  1  0
  9 35  1  6
 10 36  1  0
 10 37  1  0
 14 38  1  0
 15 39  1  0
 16 40  1  0
 19 41  1  0
 19 42  1  0
 20 43  1  6
 21 44  1  0
 21 45  1  0
 21 46  1  0
M  CHG  1   9   1
M  END
>  <UniqueID>  (18) 
16

>  <SMILES>  (18) 
COCCCN1CC[N@@H+](Cc2c(F)cccc2Cl)C[C@H]1C

>  <Energy>  (18) 
71.41879497489181

>  <Genealogy>  (18) 
COCCCN1CC[NH+](Cc2c(F)cccc2Cl)CC1C (protonated)
COCCCN1CC[N@@H+](Cc2c(F)cccc2Cl)C[C@H]1C (chirality)
COCCCN1CC[N@@H+](Cc2c(F)cccc2Cl)C[C@H]1C (3D coordinates assigned)
COCCCN1CC[N@@H+](Cc2c(F)cccc2Cl)C[C@H]1C (nonaromatic ring conformer: 71.41879497489181 kcal/mol)

>  <smiles>  (18) 
COCCCN1CCN(Cc2c(F)cccc2Cl)CC1C

>  <score_type>  (18) 
oracle

>  <origin>  (18) 
adg

>  <m_score__min__energy>  (18) 
-7.0899999999999999

>  <m_primary>  (18) 
energy

$$$$
18:0
     RDKit          3D

 30 31  0  0  0  0  0  0  0  0999 V2000
   -8.0030   17.9100  -32.0400 C   0  0  0  0  0  0  0  0  0  0  0  0
   -7.5250   18.8150  -33.0880 N   0  0  0  0  0  0  0  0  0  0  0  0
   -6.4640   19.7110  -32.6020 C   0  0  0  0  0  0  0  0  0  0  0  0
   -6.9990   21.0770  -32.2220 C   0  0  0  0  0  0  0  0  0  0  0  0
   -8.3470   21.2480  -32.2890 N   0  0  0  0  0  0  0  0  0  0  0  0
   -8.9580   22.4150  -31.9690 C   0  0  0  0  0  0  0  0  0  0  0  0
   -8.2040   23.5050  -31.5480 C   0  0  0  0  0  0  0  0  0  0  0  0
   -6.8130   23.3850  -31.4510 C   0  0  0  0  0  0  0  0  0  0  0  0
   -6.0480   24.4770  -31.0200 C   0  0  0  0  0  0  0  0  0  0  0  0
   -4.6620   24.3730  -30.9070 C   0  0  0  0  0  0  0  0  0  0  0  0
   -3.9390   25.4840  -30.4710 O   0  0  0  0  0  0  0  0  0  0  0  0
   -4.0150   23.1680  -31.2240 C   0  0  0  0  0  0  0  0  0  0  0  0
   -2.6190   23.0960  -31.0890 O   0  0  0  0  0  0  0  0  0  0  0  0
   -1.9120   21.9870  -30.5440 C   0  0  0  0  0  0  0  0  0  0  0  0
   -4.7800   22.0680  -31.6640 C   0  0  0  0  0  0  0  0  0  0  0  0
   -6.1830   22.1600  -31.7850 C   0  0  0  0  0  0  0  0  0  0  0  0
   -7.7761   18.3395  -31.0531 H   0  0  0  0  0  0  0  0  0  0  0  0
   -9.0901   17.7749  -32.1400 H   0  0  0  0  0  0  0  0  0  0  0  0
   -7.5017   16.9360  -32.1400 H   0  0  0  0  0  0  0  0  0  0  0  0
   -8.3330   19.3840  -33.4330 H   0  0  0  0  0  0  0  0  0  0  0  0
   -5.9934   19.2562  -31.7179 H   0  0  0  0  0  0  0  0  0  0  0  0
   -5.7372   19.8472  -33.4164 H   0  0  0  0  0  0  0  0  0  0  0  0
  -10.0523   22.4999  -32.0425 H   0  0  0  0  0  0  0  0  0  0  0  0
   -8.6973   24.4546  -31.2931 H   0  0  0  0  0  0  0  0  0  0  0  0
   -6.5455   25.4253  -30.7684 H   0  0  0  0  0  0  0  0  0  0  0  0
   -2.9970   25.6760  -30.7900 H   0  0  0  0  0  0  0  0  0  0  0  0
   -1.9433   22.0362  -29.4455 H   0  0  0  0  0  0  0  0  0  0  0  0
   -2.3805   21.0512  -30.8827 H   0  0  0  0  0  0  0  0  0  0  0  0
   -0.8659   22.0168  -30.8827 H   0  0  0  0  0  0  0  0  0  0  0  0
   -4.2754   21.1238  -31.9168 H   0  0  0  0  0  0  0  0  0  0  0  0
  1  2  1  0
  2  3  1  0
  3  4  1  0
  4  5  2  0
  5  6  1  0
  6  7  2  0
  7  8  1  0
  8  9  2  0
  9 10  1  0
 10 11  1  0
 10 12  2  0
 12 13  1  0
 13 14  1  0
 12 15  1  0
 15 16  2  0
 16  4  1  0
 16  8  1  0
  1 17  1  0
  1 18  1  0
  1 19  1  0
  2 20  1  0
  3 21  1  0
  3 22  1  0
  6 23  1  0
  7 24  1  0
  9 25  1  0
 11 26  1  0
 14 27  1  0
 14 28  1  0
 14 29  1  0
 15 30  1  0
M  END
>  <UniqueID>  (19) 
17

>  <SMILES>  (19) 
CNCc1nccc2cc(O)c(OC)cc12

>  <Energy>  (19) 
35.96016819668808

>  <Genealogy>  (19) 
CNCc1nccc2cc(O)c(OC)cc12 (3D coordinates assigned)
CNCc1nccc2cc(O)c(OC)cc12 (optimized conformer: 35.96016819668808 kcal/mol)

>  <smiles>  (19) 
CNCc1nccc2cc(O)c(OC)cc12

>  <score_type>  (19) 
oracle

>  <origin>  (19) 
adg

>  <m_score__min__energy>  (19) 
-7.1100000000000003

>  <m_primary>  (19) 
energy

$$$$
19:0
     RDKit          3D

 36 38  0  0  0  0  0  0  0  0999 V2000
   -0.8570   26.5520  -27.9070 C   0  0  0  0  0  0  0  0  0  0  0  0
   -1.6110   25.9400  -28.9470 O   0  0  0  0  0  0  0  0  0  0  0  0
   -2.4030   24.7930  -28.7830 C   0  0  0  0  0  0  0  0  0  0  0  0
   -2.0730   23.9010  -27.7570 C   0  0  0  0  0  0  0  0  0  0  0  0
   -2.8320   22.7460  -27.5530 C   0  0  0  0  0  0  0  0  0  0  0  0
   -3.9260   22.4700  -28.3740 C   0  0  0  0  0  0  0  0  0  0  0  0
   -4.2750   23.3510  -29.4130 C   0  0  0  0  0  0  0  0  0  0  0  0
   -5.4350   23.0640  -30.2930 C   0  0  0  0  0  0  0  0  0  0  0  0
   -6.3300   24.0850  -30.6480 C   0  0  0  0  0  0  0  0  0  0  0  0
   -7.4080   23.7990  -31.4850 C   0  0  0  0  0  0  0  0  0  0  0  0
   -7.5870   22.5040  -31.9680 C   0  0  0  0  0  0  0  0  0  0  0  0
   -6.6770   21.5010  -31.6080 C   0  0  0  0  0  0  0  0  0  0  0  0
   -6.8580   20.1190  -32.1110 C   0  0  0  0  0  0  0  0  0  0  0  0
   -8.0830   19.4620  -31.8980 C   0  0  0  0  0  0  0  0  0  0  0  0
   -8.2730   18.1540  -32.3470 C   0  0  0  0  0  0  0  0  0  0  0  0
   -7.2460   17.4880  -33.0180 C   0  0  0  0  0  0  0  0  0  0  0  0
   -6.0280   18.1310  -33.2460 C   0  0  0  0  0  0  0  0  0  0  0  0
   -5.8260   19.4430  -32.8000 C   0  0  0  0  0  0  0  0  0  0  0  0
   -4.2940   20.2250  -33.1830 Cl  0  0  0  0  0  0  0  0  0  0  0  0
   -5.6370   21.7990  -30.7730 N   0  0  0  0  0  0  0  0  0  0  0  0
   -3.5080   24.5140  -29.6110 C   0  0  0  0  0  0  0  0  0  0  0  0
   -1.2512   26.2320  -26.9312 H   0  0  0  0  0  0  0  0  0  0  0  0
    0.1976   26.2512  -27.9929 H   0  0  0  0  0  0  0  0  0  0  0  0
   -0.9344   27.6459  -27.9929 H   0  0  0  0  0  0  0  0  0  0  0  0
   -1.2107   24.1103  -27.1070 H   0  0  0  0  0  0  0  0  0  0  0  0
   -2.5662   22.0517  -26.7423 H   0  0  0  0  0  0  0  0  0  0  0  0
   -4.5186   21.5584  -28.2076 H   0  0  0  0  0  0  0  0  0  0  0  0
   -6.1818   25.1064  -30.2676 H   0  0  0  0  0  0  0  0  0  0  0  0
   -8.1156   24.5938  -31.7635 H   0  0  0  0  0  0  0  0  0  0  0  0
   -8.4364   22.2709  -32.6270 H   0  0  0  0  0  0  0  0  0  0  0  0
   -8.8977   19.9828  -31.3736 H   0  0  0  0  0  0  0  0  0  0  0  0
   -9.2335   17.6473  -32.1718 H   0  0  0  0  0  0  0  0  0  0  0  0
   -7.3965   16.4559  -33.3673 H   0  0  0  0  0  0  0  0  0  0  0  0
   -5.2226   17.6042  -33.7788 H   0  0  0  0  0  0  0  0  0  0  0  0
   -5.0010   21.0290  -30.4680 H   0  0  0  0  0  0  0  0  0  0  0  0
   -3.7735   25.2113  -30.4193 H   0  0  0  0  0  0  0  0  0  0  0  0
  1  2  1  0
  2  3  1  0
  3  4  2  0
  4  5  1  0
  5  6  2  0
  6  7  1  0
  7  8  1  0
  8  9  2  0
  9 10  1  0
 10 11  2  0
 11 12  1  0
 12 13  1  0
 13 14  2  0
 14 15  1  0
 15 16  2  0
 16 17  1  0
 17 18  2  0
 18 19  1  0
 12 20  2  0
  7 21  2  0
 21  3  1  0
 20  8  1  0
 18 13  1  0
  1 22  1  0
  1 23  1  0
  1 24  1  0
  4 25  1  0
  5 26  1  0
  6 27  1  0
  9 28  1  0
 10 29  1  0
 11 30  1  0
 14 31  1  0
 15 32  1  0
 16 33  1  0
 17 34  1  0
 20 35  1  0
 21 36  1  0
M  CHG  1  20   1
M  END
>  <UniqueID>  (20) 
18

>  <SMILES>  (20) 
COc1cccc(-c2cccc(-c3ccccc3Cl)[nH+]2)c1

>  <Energy>  (20) 
49.88833340900084

>  <Genealogy>  (20) 
COc1cccc(-c2cccc(-c3ccccc3Cl)[nH+]2)c1 (protonated)
COc1cccc(-c2cccc(-c3ccccc3Cl)[nH+]2)c1 (3D coordinates assigned)
COc1cccc(-c2cccc(-c3ccccc3Cl)[nH+]2)c1 (optimized conformer: 49.88833340900084 kcal/mol)

>  <smiles>  (20) 
COc1cccc(-c2cccc(-c3ccccc3Cl)n2)c1

>  <score_type>  (20) 
oracle

>  <origin>  (20) 
adg

>  <m_score__min__energy>  (20) 
-8

>  <m_primary>  (20) 
energy

$$$$
20:0
     RDKit          3D

 43 44  0  0  0  0  0  0  0  0999 V2000
   -2.8410   18.9140  -26.5390 C   0  0  0  0  0  0  0  0  0  0  0  0
   -1.8440   20.0540  -26.3540 C   0  0  0  0  0  0  0  0  0  0  0  0
   -1.5080   20.6410  -27.6110 O   0  0  0  0  0  0  0  0  0  0  0  0
   -2.3800   21.3810  -28.4260 C   0  0  0  0  0  0  0  0  0  0  0  0
   -3.5220   21.9360  -27.8360 C   0  0  0  0  0  0  0  0  0  0  0  0
   -4.4160   22.6980  -28.5950 C   0  0  0  0  0  0  0  0  0  0  0  0
   -4.1810   22.9090  -29.9600 C   0  0  0  0  0  0  0  0  0  0  0  0
   -5.2670   23.9190  -30.9160 S   0  0  0  0  0  0  0  0  0  0  0  0
   -4.5950   25.2300  -31.2150 O   0  0  0  0  0  0  0  0  0  0  0  0
   -6.5170   24.1860  -30.1270 O   0  0  0  0  0  0  0  0  0  0  0  0
   -5.6750   23.1490  -32.4160 N   0  0  0  0  0  0  0  0  0  0  0  0
   -6.0190   21.7600  -32.4760 C   0  0  0  0  0  0  0  0  0  0  0  0
   -5.0780   20.8130  -32.9510 C   0  0  0  0  0  0  0  0  0  0  0  0
   -3.7210   21.2130  -33.4660 C   0  0  0  0  0  0  0  0  0  0  0  0
   -5.4090   19.4500  -32.9540 C   0  0  0  0  0  0  0  0  0  0  0  0
   -6.6660   19.0260  -32.5290 C   0  0  0  0  0  0  0  0  0  0  0  0
   -7.6130   19.9570  -32.1060 C   0  0  0  0  0  0  0  0  0  0  0  0
   -7.3090   21.3280  -32.0820 C   0  0  0  0  0  0  0  0  0  0  0  0
   -8.3690   22.2920  -31.6010 C   0  0  0  0  0  0  0  0  0  0  0  0
   -9.4930   21.5620  -30.8720 C   0  0  0  0  0  0  0  0  0  0  0  0
   -3.0520   22.3360  -30.5600 C   0  0  0  0  0  0  0  0  0  0  0  0
   -2.1560   21.5790  -29.8020 C   0  0  0  0  0  0  0  0  0  0  0  0
   -3.1634   18.5454  -25.5540 H   0  0  0  0  0  0  0  0  0  0  0  0
   -3.7153   19.2786  -27.0982 H   0  0  0  0  0  0  0  0  0  0  0  0
   -2.3631   18.0961  -27.0982 H   0  0  0  0  0  0  0  0  0  0  0  0
   -2.2902   20.8219  -25.7049 H   0  0  0  0  0  0  0  0  0  0  0  0
   -0.9283   19.6515  -25.8962 H   0  0  0  0  0  0  0  0  0  0  0  0
   -3.7178   21.7713  -26.7662 H   0  0  0  0  0  0  0  0  0  0  0  0
   -5.3068   23.1332  -28.1186 H   0  0  0  0  0  0  0  0  0  0  0  0
   -5.8570   23.7540  -33.2460 H   0  0  0  0  0  0  0  0  0  0  0  0
   -3.0502   21.4107  -32.6169 H   0  0  0  0  0  0  0  0  0  0  0  0
   -3.3067   20.3988  -34.0787 H   0  0  0  0  0  0  0  0  0  0  0  0
   -3.8146   22.1218  -34.0787 H   0  0  0  0  0  0  0  0  0  0  0  0
   -4.6700   18.7099  -33.2947 H   0  0  0  0  0  0  0  0  0  0  0  0
   -6.9118   17.9538  -32.5272 H   0  0  0  0  0  0  0  0  0  0  0  0
   -8.6087   19.6145  -31.7877 H   0  0  0  0  0  0  0  0  0  0  0  0
   -7.9084   23.0174  -30.9142 H   0  0  0  0  0  0  0  0  0  0  0  0
   -8.7971   22.8022  -32.4765 H   0  0  0  0  0  0  0  0  0  0  0  0
   -9.3475   21.6565  -29.7858 H   0  0  0  0  0  0  0  0  0  0  0  0
  -10.4601   22.0048  -31.1523 H   0  0  0  0  0  0  0  0  0  0  0  0
   -9.4817   20.4984  -31.1523 H   0  0  0  0  0  0  0  0  0  0  0  0
   -2.8702   22.4833  -31.6348 H   0  0  0  0  0  0  0  0  0  0  0  0
   -1.2713   21.1354  -30.2821 H   0  0  0  0  0  0  0  0  0  0  0  0
  1  2  1  0
  2  3  1  0
  3  4  1  0
  4  5  2  0
  5  6  1  0
  6  7  2  0
  7  8  1  0
  8  9  2  0
  8 10  2  0
  8 11  1  0
 11 12  1  0
 12 13  2  0
 13 14  1  0
 13 15  1  0
 15 16  2  0
 16 17  1  0
 17 18  2  0
 18 19  1  0
 19 20  1  0
  7 21  1  0
 21 22  2  0
 22  4  1  0
 18 12  1  0
  1 23  1  0
  1 24  1  0
  1 25  1  0
  2 26  1  0
  2 27  1  0
  5 28  1  0
  6 29  1  0
 11 30  1  0
 14 31  1  0
 14 32  1  0
 14 33  1  0
 15 34  1  0
 16 35  1  0
 17 36  1  0
 19 37  1  0
 19 38  1  0
 20 39  1  0
 20 40  1  0
 20 41  1  0
 21 42  1  0
 22 43  1  0
M  END
>  <UniqueID>  (21) 
19

>  <SMILES>  (21) 
CCOc1ccc(S(=O)(=O)Nc2c(C)cccc2CC)cc1

>  <Energy>  (21) 
45.159057889012445

>  <Genealogy>  (21) 
CCOc1ccc(S(=O)(=O)Nc2c(C)cccc2CC)cc1 (3D coordinates assigned)
CCOc1ccc(S(=O)(=O)Nc2c(C)cccc2CC)cc1 (optimized conformer: 45.159057889012445 kcal/mol)

>  <smiles>  (21) 
CCOc1ccc(S(=O)(=O)Nc2c(C)cccc2CC)cc1

>  <score_type>  (21) 
oracle

>  <origin>  (21) 
adg

>  <m_score__min__energy>  (21) 
-8.6500000000000004

>  <m_primary>  (21) 
energy

$$$$
21:0
     RDKit          3D

 43 46  0  0  0  0  0  0  0  0999 V2000
   -0.8520   20.7200  -34.6090 C   0  0  0  0  0  0  0  0  0  0  0  0
   -1.6770   20.8120  -33.3600 C   0  0  0  0  0  0  0  0  0  0  0  0
   -1.0860   20.6000  -32.1050 C   0  0  0  0  0  0  0  0  0  0  0  0
   -1.8450   20.7280  -30.9390 C   0  0  0  0  0  0  0  0  0  0  0  0
   -3.1960   21.0750  -31.0160 C   0  0  0  0  0  0  0  0  0  0  0  0
   -3.8010   21.2930  -32.2640 C   0  0  0  0  0  0  0  0  0  0  0  0
   -5.1880   21.6680  -32.3560 N   0  0  0  0  0  0  0  0  0  0  0  0
   -6.2830   20.8680  -32.5490 C   0  0  0  0  0  0  0  0  0  0  0  0
   -6.2250   19.4390  -32.9280 C   0  0  0  0  0  0  0  0  0  0  0  0
   -6.5610   18.4340  -32.0060 C   0  0  0  0  0  0  0  0  0  0  0  0
   -6.4840   17.0870  -32.3730 C   0  0  0  0  0  0  0  0  0  0  0  0
   -6.0690   16.7340  -33.6600 C   0  0  0  0  0  0  0  0  0  0  0  0
   -5.7250   17.7270  -34.5800 C   0  0  0  0  0  0  0  0  0  0  0  0
   -5.8030   19.0750  -34.2170 C   0  0  0  0  0  0  0  0  0  0  0  0
   -7.4480   21.6140  -32.2950 C   0  0  0  0  0  0  0  0  0  0  0  0
   -8.8570   21.1310  -32.1660 C   0  0  0  0  0  0  0  0  0  0  0  0
   -7.0290   22.8500  -31.9910 N   0  0  0  0  0  0  0  0  0  0  0  0
   -7.5000   23.7800  -31.1850 N   0  0  0  0  0  0  0  0  0  0  0  0
   -6.4170   24.4610  -30.7270 C   0  0  0  0  0  0  0  0  0  0  0  0
   -6.4820   25.4800  -29.6390 C   0  0  0  0  0  0  0  0  0  0  0  0
   -5.2350   23.8770  -31.2160 C   0  0  0  0  0  0  0  0  0  0  0  0
   -5.7180   22.8590  -32.0150 C   0  0  0  0  0  0  0  0  0  0  0  0
   -3.0310   21.1770  -33.4310 C   0  0  0  0  0  0  0  0  0  0  0  0
    0.2081   20.6018  -34.3403 H   0  0  0  0  0  0  0  0  0  0  0  0
   -1.1790   19.8528  -35.2014 H   0  0  0  0  0  0  0  0  0  0  0  0
   -0.9800   21.6380  -35.2014 H   0  0  0  0  0  0  0  0  0  0  0  0
   -0.0212   20.3320  -32.0390 H   0  0  0  0  0  0  0  0  0  0  0  0
   -1.3778   20.5552  -29.9583 H   0  0  0  0  0  0  0  0  0  0  0  0
   -3.7883   21.1779  -30.0948 H   0  0  0  0  0  0  0  0  0  0  0  0
   -6.8859   18.7077  -30.9914 H   0  0  0  0  0  0  0  0  0  0  0  0
   -6.7504   16.3040  -31.6477 H   0  0  0  0  0  0  0  0  0  0  0  0
   -6.0133   15.6740  -33.9484 H   0  0  0  0  0  0  0  0  0  0  0  0
   -5.3925   17.4484  -35.5908 H   0  0  0  0  0  0  0  0  0  0  0  0
   -5.5325   19.8543  -34.9447 H   0  0  0  0  0  0  0  0  0  0  0  0
   -9.1179   21.0416  -31.1011 H   0  0  0  0  0  0  0  0  0  0  0  0
   -9.5361   21.8476  -32.6510 H   0  0  0  0  0  0  0  0  0  0  0  0
   -8.9536   20.1484  -32.6510 H   0  0  0  0  0  0  0  0  0  0  0  0
   -8.4870   23.8520  -30.8490 H   0  0  0  0  0  0  0  0  0  0  0  0
   -6.4498   24.9757  -28.6619 H   0  0  0  0  0  0  0  0  0  0  0  0
   -5.6257   26.1649  -29.7265 H   0  0  0  0  0  0  0  0  0  0  0  0
   -7.4184   26.0506  -29.7265 H   0  0  0  0  0  0  0  0  0  0  0  0
   -4.1912   24.1591  -31.0137 H   0  0  0  0  0  0  0  0  0  0  0  0
   -3.4920   21.3737  -34.4102 H   0  0  0  0  0  0  0  0  0  0  0  0
  1  2  1  0
  2  3  2  0
  3  4  1  0
  4  5  2  0
  5  6  1  0
  6  7  1  0
  7  8  1  0
  8  9  1  0
  9 10  2  0
 10 11  1  0
 11 12  2  0
 12 13  1  0
 13 14  2  0
  8 15  2  0
 15 16  1  0
 15 17  1  0
 17 18  1  0
 18 19  2  0
 19 20  1  0
 19 21  1  0
 21 22  2  0
  6 23  2  0
 23  2  1  0
 22  7  1  0
 14  9  1  0
 22 17  1  0
  1 24  1  0
  1 25  1  0
  1 26  1  0
  3 27  1  0
  4 28  1  0
  5 29  1  0
 10 30  1  0
 11 31  1  0
 12 32  1  0
 13 33  1  0
 14 34  1  0
 16 35  1  0
 16 36  1  0
 16 37  1  0
 18 38  1  0
 20 39  1  0
 20 40  1  0
 20 41  1  0
 21 42  1  0
 23 43  1  0
M  CHG  1  18   1
M  END
>  <UniqueID>  (22) 
20

>  <SMILES>  (22) 
Cc1cccc(-n2c(-c3ccccc3)c(C)n3[nH+]c(C)cc23)c1

>  <Energy>  (22) 
144.38912025917662

>  <Genealogy>  (22) 
Cc1cccc(-n2c(-c3ccccc3)c(C)n3[nH+]c(C)cc23)c1 (protonated)
Cc1cccc(-n2c(-c3ccccc3)c(C)n3[nH+]c(C)cc23)c1 (3D coordinates assigned)
Cc1cccc(-n2c(-c3ccccc3)c(C)n3[nH+]c(C)cc23)c1 (optimized conformer: 144.38912025917662 kcal/mol)

>  <smiles>  (22) 
Cc1cccc(-n2c(-c3ccccc3)c(C)n3nc(C)cc23)c1

>  <score_type>  (22) 
oracle

>  <origin>  (22) 
adg

>  <m_score__min__energy>  (22) 
-7.9299999999999997

>  <m_primary>  (22) 
energy

$$$$
22:0
     RDKit          3D

 31 33  0  0  0  0  0  0  0  0999 V2000
   -6.3210   25.3040  -29.7180 C   0  0  0  0  0  0  0  0  0  0  0  0
   -5.3510   25.6600  -30.8390 C   0  0  0  0  0  0  0  0  0  0  0  0
   -4.2170   24.7400  -30.8530 N   0  0  0  0  0  0  0  0  0  0  0  0
   -4.2930   23.3410  -30.5510 C   0  0  0  0  0  0  0  0  0  0  0  0
   -4.5570   22.9810  -29.3740 O   0  0  0  0  0  0  0  0  0  0  0  0
   -4.0430   22.3140  -31.5740 C   0  0  0  0  0  0  0  0  0  0  0  0
   -2.7240   22.0760  -32.0130 C   0  0  0  0  0  0  0  0  0  0  0  0
   -2.4500   21.0590  -32.9480 C   0  0  0  0  0  0  0  0  0  0  0  0
   -3.4840   20.2600  -33.4550 C   0  0  0  0  0  0  0  0  0  0  0  0
   -4.7820   20.5050  -33.0150 C   0  0  0  0  0  0  0  0  0  0  0  0
   -5.0700   21.5120  -32.1000 C   0  0  0  0  0  0  0  0  0  0  0  0
   -6.5320   21.5290  -31.8990 C   0  0  0  0  0  0  0  0  0  0  0  0
   -7.3470   22.3850  -31.1500 C   0  0  0  0  0  0  0  0  0  0  0  0
   -8.7370   22.1800  -31.1750 C   0  0  0  0  0  0  0  0  0  0  0  0
   -9.2940   21.1440  -31.9510 C   0  0  0  0  0  0  0  0  0  0  0  0
   -8.4670   20.3070  -32.7160 C   0  0  0  0  0  0  0  0  0  0  0  0
   -7.0910   20.5230  -32.6730 C   0  0  0  0  0  0  0  0  0  0  0  0
   -6.0240   19.8450  -33.3960 C   0  0  0  0  0  0  0  0  0  0  0  0
   -6.1510   18.8890  -34.2040 O   0  0  0  0  0  0  0  0  0  0  0  0
   -5.8384   25.4811  -28.7455 H   0  0  0  0  0  0  0  0  0  0  0  0
   -7.2217   25.9302  -29.7998 H   0  0  0  0  0  0  0  0  0  0  0  0
   -6.6028   24.2439  -29.7998 H   0  0  0  0  0  0  0  0  0  0  0  0
   -5.8764   25.6000  -31.8036 H   0  0  0  0  0  0  0  0  0  0  0  0
   -4.9761   26.6804  -30.6710 H   0  0  0  0  0  0  0  0  0  0  0  0
   -1.9006   22.6911  -31.6210 H   0  0  0  0  0  0  0  0  0  0  0  0
   -1.4160   20.8903  -33.2831 H   0  0  0  0  0  0  0  0  0  0  0  0
   -3.2755   19.4606  -34.1813 H   0  0  0  0  0  0  0  0  0  0  0  0
   -6.9094   23.2001  -30.5549 H   0  0  0  0  0  0  0  0  0  0  0  0
   -9.3956   22.8335  -30.5841 H   0  0  0  0  0  0  0  0  0  0  0  0
  -10.3832   20.9904  -31.9572 H   0  0  0  0  0  0  0  0  0  0  0  0
   -8.8935   19.5022  -33.3328 H   0  0  0  0  0  0  0  0  0  0  0  0
  1  2  1  0
  2  3  1  0
  3  4  1  0
  4  5  2  0
  4  6  1  0
  6  7  2  0
  7  8  1  0
  8  9  2  0
  9 10  1  0
 10 11  2  0
 11 12  1  0
 12 13  2  0
 13 14  1  0
 14 15  2  0
 15 16  1  0
 16 17  2  0
 17 18  1  0
 18 19  2  0
 11  6  1  0
 17 12  1  0
 18 10  1  0
  1 20  1  0
  1 21  1  0
  1 22  1  0
  2 23  1  0
  2 24  1  0
  7 25  1  0
  8 26  1  0
  9 27  1  0
 13 28  1  0
 14 29  1  0
 15 30  1  0
 16 31  1  0
M  CHG  1   3  -1
M  END
>  <UniqueID>  (23) 
21

>  <SMILES>  (23) 
CC[N-]C(=O)c1cccc2c1-c1ccccc1C2=O

>  <Energy>  (23) 
69.92726762706728

>  <Genealogy>  (23) 
CC[N-]C(=O)c1cccc2c1-c1ccccc1C2=O (protonated)
CC[N-]C(=O)c1cccc2c1-c1ccccc1C2=O (3D coordinates assigned)
CC[N-]C(=O)c1cccc2c1-c1ccccc1C2=O (nonaromatic ring conformer: 69.92726762706728 kcal/mol)

>  <smiles>  (23) 
CCNC(=O)c1cccc2c1-c1ccccc1C2=O

>  <score_type>  (23) 
oracle

>  <origin>  (23) 
adg

>  <m_score__min__energy>  (23) 
-8.8800000000000008

>  <m_primary>  (23) 
energy

$$$$
23:0
     RDKit          3D

 42 44  0  0  0  0  0  0  0  0999 V2000
   -6.2740   18.2010  -33.7180 C   0  0  0  0  0  0  0  0  0  0  0  0
   -7.4080   17.9620  -32.7300 C   0  0  0  0  0  0  0  0  0  0  0  0
   -7.8620   19.2280  -32.1670 N   0  0  0  0  0  0  0  0  0  0  0  0
   -7.5020   20.4600  -32.5670 C   0  0  0  0  0  0  0  0  0  0  0  0
   -8.2430   21.3350  -31.8050 C   0  0  0  0  0  0  0  0  0  0  0  0
   -8.2680   22.8260  -31.9290 C   0  0  0  0  0  0  0  0  0  0  0  0
   -7.0010   23.4110  -31.3710 C   0  0  0  0  0  0  0  0  0  0  0  0
   -5.7550   22.8630  -31.7180 C   0  0  0  0  0  0  0  0  0  0  0  0
   -4.5750   23.4310  -31.2300 C   0  0  0  0  0  0  0  0  0  0  0  0
   -4.6240   24.5530  -30.3840 C   0  0  0  0  0  0  0  0  0  0  0  0
   -3.4620   25.1590  -29.8850 O   0  0  0  0  0  0  0  0  0  0  0  0
   -2.5720   24.5790  -28.9680 C   0  0  0  0  0  0  0  0  0  0  0  0
   -3.0560   23.6000  -28.0920 C   0  0  0  0  0  0  0  0  0  0  0  0
   -2.2000   22.9910  -27.1720 C   0  0  0  0  0  0  0  0  0  0  0  0
   -0.8500   23.3470  -27.1290 C   0  0  0  0  0  0  0  0  0  0  0  0
   -0.3400   24.3070  -28.0110 C   0  0  0  0  0  0  0  0  0  0  0  0
    1.0250   24.6240  -27.9360 O   0  0  0  0  0  0  0  0  0  0  0  0
    1.7980   24.5690  -26.7410 C   0  0  0  0  0  0  0  0  0  0  0  0
   -1.2080   24.9190  -28.9390 C   0  0  0  0  0  0  0  0  0  0  0  0
   -5.8650   25.1170  -30.0660 C   0  0  0  0  0  0  0  0  0  0  0  0
   -7.0470   24.5510  -30.5530 C   0  0  0  0  0  0  0  0  0  0  0  0
   -9.0460   20.6220  -30.9910 N   0  0  0  0  0  0  0  0  0  0  0  0
   -8.7920   19.3430  -31.2320 N   0  0  0  0  0  0  0  0  0  0  0  0
   -5.3426   18.3973  -33.1667 H   0  0  0  0  0  0  0  0  0  0  0  0
   -6.1449   17.3103  -34.3505 H   0  0  0  0  0  0  0  0  0  0  0  0
   -6.5154   19.0680  -34.3505 H   0  0  0  0  0  0  0  0  0  0  0  0
   -8.2459   17.4745  -33.2499 H   0  0  0  0  0  0  0  0  0  0  0  0
   -7.0444   17.3176  -31.9160 H   0  0  0  0  0  0  0  0  0  0  0  0
   -6.7664   20.7163  -33.3437 H   0  0  0  0  0  0  0  0  0  0  0  0
   -8.3597   23.1015  -32.9900 H   0  0  0  0  0  0  0  0  0  0  0  0
   -9.1261   23.2203  -31.3649 H   0  0  0  0  0  0  0  0  0  0  0  0
   -5.7079   21.9832  -32.3765 H   0  0  0  0  0  0  0  0  0  0  0  0
   -3.6030   22.9981  -31.5091 H   0  0  0  0  0  0  0  0  0  0  0  0
   -4.1162   23.3090  -28.1286 H   0  0  0  0  0  0  0  0  0  0  0  0
   -2.5895   22.2297  -26.4801 H   0  0  0  0  0  0  0  0  0  0  0  0
   -0.1826   22.8694  -26.3966 H   0  0  0  0  0  0  0  0  0  0  0  0
    1.1291   24.6166  -25.8691 H   0  0  0  0  0  0  0  0  0  0  0  0
    2.3672   23.6281  -26.7155 H   0  0  0  0  0  0  0  0  0  0  0  0
    2.4947   25.4198  -26.7155 H   0  0  0  0  0  0  0  0  0  0  0  0
   -0.8156   25.6666  -29.6441 H   0  0  0  0  0  0  0  0  0  0  0  0
   -5.9106   26.0121  -29.4283 H   0  0  0  0  0  0  0  0  0  0  0  0
   -8.0169   25.0007  -30.2942 H   0  0  0  0  0  0  0  0  0  0  0  0
  1  2  1  0
  2  3  1  0
  3  4  1  0
  4  5  2  0
  5  6  1  0
  6  7  1  0
  7  8  2  0
  8  9  1  0
  9 10  2  0
 10 11  1  0
 11 12  1  0
 12 13  2  0
 13 14  1  0
 14 15  2  0
 15 16  1  0
 16 17  1  0
 17 18  1  0
 16 19  2  0
 10 20  1  0
 20 21  2  0
  5 22  1  0
 22 23  2  0
 23  3  1  0
 21  7  1  0
 19 12  1  0
  1 24  1  0
  1 25  1  0
  1 26  1  0
  2 27  1  0
  2 28  1  0
  4 29  1  0
  6 30  1  0
  6 31  1  0
  8 32  1  0
  9 33  1  0
 13 34  1  0
 14 35  1  0
 15 36  1  0
 18 37  1  0
 18 38  1  0
 18 39  1  0
 19 40  1  0
 20 41  1  0
 21 42  1  0
M  END
>  <UniqueID>  (24) 
22

>  <SMILES>  (24) 
CCn1cc(Cc2ccc(Oc3cccc(OC)c3)cc2)nn1

>  <Energy>  (24) 
78.7390180879796

>  <Genealogy>  (24) 
CCn1cc(Cc2ccc(Oc3cccc(OC)c3)cc2)nn1 (3D coordinates assigned)
CCn1cc(Cc2ccc(Oc3cccc(OC)c3)cc2)nn1 (optimized conformer: 78.7390180879796 kcal/mol)

>  <smiles>  (24) 
CCn1cc(Cc2ccc(Oc3cccc(OC)c3)cc2)nn1

>  <score_type>  (24) 
oracle

>  <origin>  (24) 
adg

>  <m_score__min__energy>  (24) 
-8.6199999999999992

>  <m_primary>  (24) 
energy

$$$$
24:0
     RDKit          3D

 43 45  0  0  0  0  0  0  0  0999 V2000
   -6.2960   17.4130  -31.1540 C   0  0  0  0  0  0  0  0  0  0  0  0
   -6.2050   18.1060  -32.4690 N   0  0  0  0  0  0  0  0  0  0  0  0
   -7.1330   19.2910  -32.4870 C   0  0  0  0  0  0  0  0  0  0  0  0
   -6.7760   20.4480  -33.4560 C   0  0  0  0  0  0  0  0  0  0  0  0
   -6.5350   21.7090  -32.7580 N   0  0  0  0  0  0  0  0  0  0  0  0
   -7.4350   22.3790  -31.8650 C   0  0  0  0  0  0  0  0  0  0  0  0
   -8.6490   22.0780  -31.7210 O   0  0  0  0  0  0  0  0  0  0  0  0
   -6.7320   23.4390  -31.1520 C   0  0  0  0  0  0  0  0  0  0  0  0
   -7.1600   24.3640  -30.2040 C   0  0  0  0  0  0  0  0  0  0  0  0
   -6.2050   25.2590  -29.6930 C   0  0  0  0  0  0  0  0  0  0  0  0
   -4.8670   25.1930  -30.1420 C   0  0  0  0  0  0  0  0  0  0  0  0
   -4.4910   24.2660  -31.0730 N   0  0  0  0  0  0  0  0  0  0  0  0
   -5.4230   23.4100  -31.5630 C   0  0  0  0  0  0  0  0  0  0  0  0
   -5.2690   22.3410  -32.5360 C   0  0  0  0  0  0  0  0  0  0  0  0
   -4.1910   21.9910  -33.0840 O   0  0  0  0  0  0  0  0  0  0  0  0
   -4.7950   18.6120  -32.5800 C   0  0  0  0  0  0  0  0  0  0  0  0
   -4.1920   18.6470  -34.0040 C   0  0  0  0  0  0  0  0  0  0  0  0
   -3.7410   17.2920  -34.5810 C   0  0  0  0  0  0  0  0  0  0  0  0
   -4.1740   16.0760  -33.7470 C   0  0  0  0  0  0  0  0  0  0  0  0
   -5.7030   15.8550  -33.6280 C   0  0  0  0  0  0  0  0  0  0  0  0
   -6.5670   17.1370  -33.5610 C   0  0  0  0  0  0  0  0  0  0  0  0
   -6.1992   18.1503  -30.3435 H   0  0  0  0  0  0  0  0  0  0  0  0
   -7.2685   16.9053  -31.0736 H   0  0  0  0  0  0  0  0  0  0  0  0
   -5.4875   16.6715  -31.0736 H   0  0  0  0  0  0  0  0  0  0  0  0
   -8.1336   18.9252  -32.7608 H   0  0  0  0  0  0  0  0  0  0  0  0
   -7.0595   19.7277  -31.4801 H   0  0  0  0  0  0  0  0  0  0  0  0
   -5.8678   20.1740  -34.0129 H   0  0  0  0  0  0  0  0  0  0  0  0
   -7.6336   20.5971  -34.1285 H   0  0  0  0  0  0  0  0  0  0  0  0
   -8.2068   24.3932  -29.8674 H   0  0  0  0  0  0  0  0  0  0  0  0
   -6.4986   26.0098  -28.9446 H   0  0  0  0  0  0  0  0  0  0  0  0
   -4.1214   25.8940  -29.7386 H   0  0  0  0  0  0  0  0  0  0  0  0
   -4.7739   19.6370  -32.1814 H   0  0  0  0  0  0  0  0  0  0  0  0
   -4.1797   17.8945  -32.0174 H   0  0  0  0  0  0  0  0  0  0  0  0
   -4.9519   19.0646  -34.6809 H   0  0  0  0  0  0  0  0  0  0  0  0
   -3.2779   19.2535  -33.9236 H   0  0  0  0  0  0  0  0  0  0  0  0
   -4.1671   17.1877  -35.5897 H   0  0  0  0  0  0  0  0  0  0  0  0
   -2.6410   17.2992  -34.5813 H   0  0  0  0  0  0  0  0  0  0  0  0
   -3.7371   15.1774  -34.2070 H   0  0  0  0  0  0  0  0  0  0  0  0
   -3.8180   16.2706  -32.7246 H   0  0  0  0  0  0  0  0  0  0  0  0
   -6.0289   15.2741  -34.5034 H   0  0  0  0  0  0  0  0  0  0  0  0
   -5.8561   15.3418  -32.6672 H   0  0  0  0  0  0  0  0  0  0  0  0
   -6.4718   17.6605  -34.5238 H   0  0  0  0  0  0  0  0  0  0  0  0
   -7.5902   16.8001  -33.3385 H   0  0  0  0  0  0  0  0  0  0  0  0
  1  2  1  0
  2  3  1  0
  3  4  1  0
  4  5  1  0
  5  6  1  0
  6  7  2  0
  6  8  1  0
  8  9  2  0
  9 10  1  0
 10 11  2  0
 11 12  1  0
 12 13  2  0
 13 14  1  0
 14 15  2  0
  2 16  1  0
 16 17  1  0
 17 18  1  0
 18 19  1  0
 19 20  1  0
 20 21  1  0
 21  2  1  0
 14  5  1  0
 13  8  1  0
  1 22  1  0
  1 23  1  0
  1 24  1  0
  3 25  1  0
  3 26  1  0
  4 27  1  0
  4 28  1  0
  9 29  1  0
 10 30  1  0
 11 31  1  0
 16 32  1  0
 16 33  1  0
 17 34  1  0
 17 35  1  0
 18 36  1  0
 18 37  1  0
 19 38  1  0
 19 39  1  0
 20 40  1  0
 20 41  1  0
 21 42  1  0
 21 43  1  0
M  CHG  1   2   1
M  END
>  <UniqueID>  (25) 
23

>  <SMILES>  (25) 
C[N+]1(CCN2C(=O)c3cccnc3C2=O)CCCCCC1

>  <Energy>  (25) 
102.25928634979448

>  <Genealogy>  (25) 
C[N+]1(CCN2C(=O)c3cccnc3C2=O)CCCCCC1 (3D coordinates assigned)
C[N+]1(CCN2C(=O)c3cccnc3C2=O)CCCCCC1 (nonaromatic ring conformer: 102.25928634979448 kcal/mol)

>  <smiles>  (25) 
C[N+]1(CCN2C(=O)c3cccnc3C2=O)CCCCCC1

>  <score_type>  (25) 
oracle

>  <origin>  (25) 
adg

>  <m_score__min__energy>  (25) 
-5.1900000000000004

>  <m_primary>  (25) 
energy

$$$$
25:0
     RDKit          3D

 46 48  0  0  0  0  0  0  0  0999 V2000
   -1.2948   18.9337  -31.1311 H   0  0  0  0  0  0  0  0  0  0  0  0
   -1.2450   19.9680  -30.7600 C   0  0  0  0  0  0  0  0  0  0  0  0
   -0.5250   20.2590  -29.5980 C   0  0  0  0  0  0  0  0  0  0  0  0
   -0.0067   19.4539  -29.0566 H   0  0  0  0  0  0  0  0  0  0  0  0
   -0.4630   21.5730  -29.1230 C   0  0  0  0  0  0  0  0  0  0  0  0
    0.1093   21.8000  -28.2115 H   0  0  0  0  0  0  0  0  0  0  0  0
   -1.1300   22.6050  -29.8070 C   0  0  0  0  0  0  0  0  0  0  0  0
   -1.0340   24.0290  -29.3170 C   0  0  0  0  0  0  0  0  0  0  0  0
   -0.9132   24.6922  -30.1863 H   0  0  0  0  0  0  0  0  0  0  0  0
   -0.1722   24.0869  -28.6359 H   0  0  0  0  0  0  0  0  0  0  0  0
   -2.2260   24.4560  -28.5610 N   0  0  0  0  0  0  0  0  0  0  0  0
   -3.5330   24.5710  -29.1240 C   0  0  0  0  0  0  0  0  0  0  0  0
   -3.8010   24.8950  -30.3570 N   0  0  0  0  0  0  0  0  0  0  0  0
   -5.0620   24.7460  -31.0130 C   0  0  0  0  0  0  0  0  0  0  0  0
   -5.9820   25.5730  -30.7850 O   0  0  0  0  0  0  0  0  0  0  0  0
   -5.2690   23.7110  -31.9830 N   0  0  0  0  0  0  0  0  0  0  0  0
   -6.4070   22.8400  -31.9760 C   0  0  0  0  0  0  0  0  0  0  0  0
   -7.6620   23.3830  -31.6650 C   0  0  0  0  0  0  0  0  0  0  0  0
   -7.7558   24.4606  -31.4652 H   0  0  0  0  0  0  0  0  0  0  0  0
   -8.7920   22.5680  -31.6070 C   0  0  0  0  0  0  0  0  0  0  0  0
   -9.7670   22.9996  -31.3367 H   0  0  0  0  0  0  0  0  0  0  0  0
   -8.6880   21.2070  -31.8910 C   0  0  0  0  0  0  0  0  0  0  0  0
   -9.5786   20.5639  -31.8338 H   0  0  0  0  0  0  0  0  0  0  0  0
   -7.4540   20.6600  -32.2480 C   0  0  0  0  0  0  0  0  0  0  0  0
   -7.3836   19.5897  -32.4921 H   0  0  0  0  0  0  0  0  0  0  0  0
   -6.2990   21.4630  -32.2990 C   0  0  0  0  0  0  0  0  0  0  0  0
   -5.0080   20.8440  -32.7890 C   0  0  0  0  0  0  0  0  0  0  0  0
   -4.3404   20.6866  -31.9290 H   0  0  0  0  0  0  0  0  0  0  0  0
   -4.5575   21.5306  -33.5209 H   0  0  0  0  0  0  0  0  0  0  0  0
   -5.2450   19.5030  -33.4820 C   0  0  0  0  0  0  0  0  0  0  0  0
   -5.3837   18.7180  -32.7240 H   0  0  0  0  0  0  0  0  0  0  0  0
   -6.1454   19.5691  -34.1104 H   0  0  0  0  0  0  0  0  0  0  0  0
   -4.3765   19.2565  -34.1104 H   0  0  0  0  0  0  0  0  0  0  0  0
   -4.6030   24.3590  -28.1280 C   0  0  0  0  0  0  0  0  0  0  0  0
   -5.3963   25.1140  -28.2311 H   0  0  0  0  0  0  0  0  0  0  0  0
   -5.1110   23.3889  -28.2324 H   0  0  0  0  0  0  0  0  0  0  0  0
   -3.8620   24.5160  -26.8020 C   0  0  0  0  0  0  0  0  0  0  0  0
   -4.0291   25.5217  -26.3890 H   0  0  0  0  0  0  0  0  0  0  0  0
   -4.2185   23.7903  -26.0562 H   0  0  0  0  0  0  0  0  0  0  0  0
   -2.3730   24.3100  -27.1140 C   0  0  0  0  0  0  0  0  0  0  0  0
   -1.7677   25.0662  -26.5927 H   0  0  0  0  0  0  0  0  0  0  0  0
   -2.0303   23.3202  -26.7781 H   0  0  0  0  0  0  0  0  0  0  0  0
   -1.8420   22.3050  -30.9790 C   0  0  0  0  0  0  0  0  0  0  0  0
   -2.3553   23.1075  -31.5290 H   0  0  0  0  0  0  0  0  0  0  0  0
   -1.9010   20.9890  -31.4500 C   0  0  0  0  0  0  0  0  0  0  0  0
   -2.4653   20.7584  -32.3656 H   0  0  0  0  0  0  0  0  0  0  0  0
  1  2  1  0
  2  3  2  0
  3  4  1  0
  3  5  1  0
  5  6  1  0
  5  7  2  0
  7  8  1  0
  8  9  1  0
  8 10  1  0
  8 11  1  0
 11 12  1  0
 12 13  2  0
 13 14  1  0
 14 15  2  0
 14 16  1  0
 16 17  1  0
 17 18  2  0
 18 19  1  0
 18 20  1  0
 20 21  1  0
 20 22  2  0
 22 23  1  0
 22 24  1  0
 24 25  1  0
 24 26  2  0
 26 27  1  0
 27 28  1  0
 27 29  1  0
 27 30  1  0
 30 31  1  0
 30 32  1  0
 30 33  1  0
 12 34  1  0
 34 35  1  0
 34 36  1  0
 34 37  1  0
 37 38  1  0
 37 39  1  0
 37 40  1  0
 40 41  1  0
 40 42  1  0
  7 43  1  0
 43 44  1  0
 43 45  2  0
 45 46  1  0
 45  2  1  0
 40 11  1  0
 26 17  1  0
M  CHG  1  16  -1
M  END
>  <UniqueID>  (26) 
24

>  <SMILES>  (26) 
CCc1ccccc1[N-]C(=O)/N=C1/CCCN1Cc1ccccc1

>  <Energy>  (26) 
67.28665199527458

>  <Genealogy>  (26) 
CCc1ccccc1[N-]C(=O)N=C1CCCN1Cc1ccccc1 (protonated)
CCc1ccccc1[N-]C(=O)/N=C1/CCCN1Cc1ccccc1 (cis-trans isomerization)
CCc1ccccc1[N-]C(=O)/N=C1/CCCN1Cc1ccccc1 (3D coordinates assigned)
CCc1ccccc1[N-]C(=O)/N=C1/CCCN1Cc1ccccc1 (nonaromatic ring conformer: 67.28665199527458 kcal/mol)

>  <smiles>  (26) 
CCc1ccccc1NC(=O)N=C1CCCN1Cc1ccccc1

>  <score_type>  (26) 
oracle

>  <origin>  (26) 
adg

>  <m_score__min__energy>  (26) 
-9.5500000000000007

>  <m_primary>  (26) 
energy

$$$$
26:0
     RDKit          3D

 62 66  0  0  0  0  0  0  0  0999 V2000
   -3.2490   18.6660  -26.0920 C   0  0  0  0  0  0  0  0  0  0  0  0
   -2.0040   19.2690  -26.6730 C   0  0  0  0  0  0  0  0  0  0  0  0
   -1.1840   18.5060  -27.5170 C   0  0  0  0  0  0  0  0  0  0  0  0
   -0.0330   19.0670  -28.0740 C   0  0  0  0  0  0  0  0  0  0  0  0
    0.2990   20.3980  -27.8080 C   0  0  0  0  0  0  0  0  0  0  0  0
   -0.5240   21.1870  -26.9880 C   0  0  0  0  0  0  0  0  0  0  0  0
   -0.1700   22.5560  -26.7020 N   0  0  0  0  0  0  0  0  0  0  0  0
    0.8690   23.2500  -27.4730 C   0  0  0  0  0  0  0  0  0  0  0  0
    0.2840   24.4830  -28.1800 C   0  0  0  0  0  0  0  0  0  0  0  0
   -0.8110   25.2130  -27.3490 C   0  0  0  0  0  0  0  0  0  0  0  0
   -2.2170   25.0610  -27.9720 C   0  0  0  0  0  0  0  0  0  0  0  0
   -2.1440   24.4940  -29.3150 N   0  0  0  0  0  0  0  0  0  0  0  0
   -3.2750   24.3090  -30.1670 C   0  0  0  0  0  0  0  0  0  0  0  0
   -3.9820   25.3040  -30.4770 O   0  0  0  0  0  0  0  0  0  0  0  0
   -3.6210   22.9790  -30.7020 C   0  0  0  0  0  0  0  0  0  0  0  0
   -4.9670   22.6940  -30.9550 C   0  0  0  0  0  0  0  0  0  0  0  0
   -5.3390   21.4410  -31.4660 C   0  0  0  0  0  0  0  0  0  0  0  0
   -6.7680   21.1420  -31.7500 C   0  0  0  0  0  0  0  0  0  0  0  0
   -7.7650   22.1120  -31.5310 C   0  0  0  0  0  0  0  0  0  0  0  0
   -9.1060   21.8230  -31.8010 C   0  0  0  0  0  0  0  0  0  0  0  0
   -9.4670   20.5660  -32.2900 C   0  0  0  0  0  0  0  0  0  0  0  0
   -8.4880   19.5950  -32.5110 C   0  0  0  0  0  0  0  0  0  0  0  0
   -7.1450   19.8800  -32.2450 C   0  0  0  0  0  0  0  0  0  0  0  0
   -4.3790   20.5010  -31.7080 N   0  0  0  0  0  0  0  0  0  0  0  0
   -3.0550   20.7440  -31.4770 C   0  0  0  0  0  0  0  0  0  0  0  0
   -2.0990   19.7490  -31.7380 C   0  0  0  0  0  0  0  0  0  0  0  0
   -0.7440   19.9910  -31.5010 C   0  0  0  0  0  0  0  0  0  0  0  0
   -0.3300   21.2260  -31.0010 C   0  0  0  0  0  0  0  0  0  0  0  0
   -1.2680   22.2280  -30.7330 C   0  0  0  0  0  0  0  0  0  0  0  0
   -2.6400   21.9990  -30.9670 C   0  0  0  0  0  0  0  0  0  0  0  0
   -0.7820   24.8130  -25.8540 C   0  0  0  0  0  0  0  0  0  0  0  0
   -0.8820   23.2930  -25.6470 C   0  0  0  0  0  0  0  0  0  0  0  0
   -1.6780   20.6110  -26.4220 C   0  0  0  0  0  0  0  0  0  0  0  0
   -3.1918   18.6937  -24.9938 H   0  0  0  0  0  0  0  0  0  0  0  0
   -4.1255   19.2394  -26.4281 H   0  0  0  0  0  0  0  0  0  0  0  0
   -3.3425   17.6228  -26.4281 H   0  0  0  0  0  0  0  0  0  0  0  0
   -1.4485   17.4620  -27.7410 H   0  0  0  0  0  0  0  0  0  0  0  0
    0.6141   18.4596  -28.7239 H   0  0  0  0  0  0  0  0  0  0  0  0
    1.2115   20.8308  -28.2440 H   0  0  0  0  0  0  0  0  0  0  0  0
    1.6714   23.5703  -26.7921 H   0  0  0  0  0  0  0  0  0  0  0  0
    1.2673   22.5610  -28.2324 H   0  0  0  0  0  0  0  0  0  0  0  0
    1.1016   25.1918  -28.3776 H   0  0  0  0  0  0  0  0  0  0  0  0
   -0.1938   24.1293  -29.1055 H   0  0  0  0  0  0  0  0  0  0  0  0
   -0.5675   26.2851  -27.3864 H   0  0  0  0  0  0  0  0  0  0  0  0
   -2.8211   24.3977  -27.3355 H   0  0  0  0  0  0  0  0  0  0  0  0
   -2.6757   26.0584  -28.0409 H   0  0  0  0  0  0  0  0  0  0  0  0
   -5.7360   23.4541  -30.7528 H   0  0  0  0  0  0  0  0  0  0  0  0
   -7.4869   23.1038  -31.1449 H   0  0  0  0  0  0  0  0  0  0  0  0
   -9.8780   22.5872  -31.6279 H   0  0  0  0  0  0  0  0  0  0  0  0
  -10.5227   20.3405  -32.5012 H   0  0  0  0  0  0  0  0  0  0  0  0
   -8.7736   18.6045  -32.8949 H   0  0  0  0  0  0  0  0  0  0  0  0
   -6.3779   19.1122  -32.4240 H   0  0  0  0  0  0  0  0  0  0  0  0
   -4.6630   19.5590  -32.0620 H   0  0  0  0  0  0  0  0  0  0  0  0
   -2.4193   18.7730  -32.1315 H   0  0  0  0  0  0  0  0  0  0  0  0
   -0.0017   19.2063  -31.7090 H   0  0  0  0  0  0  0  0  0  0  0  0
    0.7384   21.4123  -30.8169 H   0  0  0  0  0  0  0  0  0  0  0  0
   -0.9344   23.1989  -30.3380 H   0  0  0  0  0  0  0  0  0  0  0  0
    0.1612   25.1674  -25.4127 H   0  0  0  0  0  0  0  0  0  0  0  0
   -1.6551   25.2736  -25.3687 H   0  0  0  0  0  0  0  0  0  0  0  0
   -0.4420   23.0356  -24.6723 H   0  0  0  0  0  0  0  0  0  0  0  0
   -1.9441   23.0092  -25.6852 H   0  0  0  0  0  0  0  0  0  0  0  0
   -2.3299   21.2186  -25.7772 H   0  0  0  0  0  0  0  0  0  0  0  0
  1  2  1  0
  2  3  2  0
  3  4  1  0
  4  5  2  0
  5  6  1  0
  6  7  1  0
  7  8  1  0
  8  9  1  0
  9 10  1  0
 10 11  1  0
 11 12  1  0
 12 13  1  0
 13 14  2  0
 13 15  1  0
 15 16  2  0
 16 17  1  0
 17 18  1  0
 18 19  2  0
 19 20  1  0
 20 21  2  0
 21 22  1  0
 22 23  2  0
 17 24  2  0
 24 25  1  0
 25 26  2  0
 26 27  1  0
 27 28  2  0
 28 29  1  0
 29 30  2  0
 10 31  1  0
 31 32  1  0
  6 33  2  0
 33  2  1  0
 32  7  1  0
 30 15  1  0
 23 18  1  0
 30 25  1  0
  1 34  1  0
  1 35  1  0
  1 36  1  0
  3 37  1  0
  4 38  1  0
  5 39  1  0
  8 40  1  0
  8 41  1  0
  9 42  1  0
  9 43  1  0
 10 44  1  0
 11 45  1  0
 11 46  1  0
 16 47  1  0
 19 48  1  0
 20 49  1  0
 21 50  1  0
 22 51  1  0
 23 52  1  0
 24 53  1  0
 26 54  1  0
 27 55  1  0
 28 56  1  0
 29 57  1  0
 31 58  1  0
 31 59  1  0
 32 60  1  0
 32 61  1  0
 33 62  1  0
M  CHG  2  12  -1  24   1
M  END
>  <UniqueID>  (27) 
25

>  <SMILES>  (27) 
Cc1cccc(N2CCC(C[N-]C(=O)c3cc(-c4ccccc4)[nH+]c4ccccc34)CC2)c1

>  <Energy>  (27) 
86.4229092248377

>  <Genealogy>  (27) 
Cc1cccc(N2CCC(C[N-]C(=O)c3cc(-c4ccccc4)[nH+]c4ccccc34)CC2)c1 (protonated)
Cc1cccc(N2CCC(C[N-]C(=O)c3cc(-c4ccccc4)[nH+]c4ccccc34)CC2)c1 (3D coordinates assigned)
Cc1cccc(N2CCC(C[N-]C(=O)c3cc(-c4ccccc4)[nH+]c4ccccc34)CC2)c1 (nonaromatic ring conformer: 86.4229092248377 kcal/mol)

>  <smiles>  (27) 
Cc1cccc(N2CCC(CNC(=O)c3cc(-c4ccccc4)nc4ccccc34)CC2)c1

>  <score_type>  (27) 
oracle

>  <origin>  (27) 
adg

>  <m_score__min__energy>  (27) 
-11.85

>  <m_primary>  (27) 
energy

$$$$
27:0
     RDKit          3D

 39 42  0  0  0  0  0  0  0  0999 V2000
   -7.7710   22.1340  -32.3210 C   0  0  0  0  0  0  0  0  0  0  0  0
   -6.3910   21.9280  -31.8840 N   0  0  0  0  0  0  0  0  0  0  0  0
   -5.6200   20.8060  -31.9860 C   0  0  0  0  0  0  0  0  0  0  0  0
   -6.0400   19.5430  -32.6310 C   0  0  0  0  0  0  0  0  0  0  0  0
   -5.5620   19.1830  -33.9030 C   0  0  0  0  0  0  0  0  0  0  0  0
   -5.9500   17.9720  -34.4860 C   0  0  0  0  0  0  0  0  0  0  0  0
   -6.8070   17.1080  -33.8010 C   0  0  0  0  0  0  0  0  0  0  0  0
   -7.2710   17.4480  -32.5280 C   0  0  0  0  0  0  0  0  0  0  0  0
   -6.8830   18.6570  -31.9400 C   0  0  0  0  0  0  0  0  0  0  0  0
   -4.3940   20.9480  -31.4180 N   0  0  0  0  0  0  0  0  0  0  0  0
   -4.4040   22.2170  -30.9760 C   0  0  0  0  0  0  0  0  0  0  0  0
   -3.3820   22.8890  -30.3100 C   0  0  0  0  0  0  0  0  0  0  0  0
   -3.6040   24.2360  -29.9360 C   0  0  0  0  0  0  0  0  0  0  0  0
   -2.6040   24.9860  -29.2240 N   0  0  0  0  0  0  0  0  0  0  0  0
   -2.2530   24.7490  -27.8510 C   0  0  0  0  0  0  0  0  0  0  0  0
   -2.5460   23.6520  -27.3030 O   0  0  0  0  0  0  0  0  0  0  0  0
   -1.5090   25.7580  -27.0760 C   0  0  0  0  0  0  0  0  0  0  0  0
   -1.4990   25.9060  -25.6920 C   0  0  0  0  0  0  0  0  0  0  0  0
   -0.6760   26.9510  -25.2530 C   0  0  0  0  0  0  0  0  0  0  0  0
   -0.0330   27.6260  -26.2820 C   0  0  0  0  0  0  0  0  0  0  0  0
   -0.4880   26.9200  -27.7390 S   0  0  0  0  0  0  0  0  0  0  0  0
   -4.8530   24.8420  -30.2180 C   0  0  0  0  0  0  0  0  0  0  0  0
   -5.8640   24.1330  -30.8920 C   0  0  0  0  0  0  0  0  0  0  0  0
   -5.5960   22.8130  -31.2580 C   0  0  0  0  0  0  0  0  0  0  0  0
   -8.4236   22.2314  -31.4409 H   0  0  0  0  0  0  0  0  0  0  0  0
   -7.8312   23.0511  -32.9254 H   0  0  0  0  0  0  0  0  0  0  0  0
   -8.0964   21.2745  -32.9254 H   0  0  0  0  0  0  0  0  0  0  0  0
   -4.8798   19.8566  -34.4424 H   0  0  0  0  0  0  0  0  0  0  0  0
   -5.5795   17.7000  -35.4854 H   0  0  0  0  0  0  0  0  0  0  0  0
   -7.1168   16.1595  -34.2640 H   0  0  0  0  0  0  0  0  0  0  0  0
   -7.9421   16.7645  -31.9872 H   0  0  0  0  0  0  0  0  0  0  0  0
   -7.2398   18.9148  -30.9319 H   0  0  0  0  0  0  0  0  0  0  0  0
   -2.4300   22.3876  -30.0813 H   0  0  0  0  0  0  0  0  0  0  0  0
   -2.0330   25.6710  -29.7680 H   0  0  0  0  0  0  0  0  0  0  0  0
   -2.0794   25.2662  -25.0110 H   0  0  0  0  0  0  0  0  0  0  0  0
   -0.5508   27.2125  -24.1919 H   0  0  0  0  0  0  0  0  0  0  0  0
    0.6553   28.4760  -26.1645 H   0  0  0  0  0  0  0  0  0  0  0  0
   -5.0348   25.8810  -29.9057 H   0  0  0  0  0  0  0  0  0  0  0  0
   -6.8317   24.6024  -31.1225 H   0  0  0  0  0  0  0  0  0  0  0  0
  1  2  1  0
  2  3  1  0
  3  4  1  0
  4  5  2  0
  5  6  1  0
  6  7  2  0
  7  8  1  0
  8  9  2  0
  3 10  2  0
 10 11  1  0
 11 12  2  0
 12 13  1  0
 13 14  1  0
 14 15  1  0
 15 16  2  0
 15 17  1  0
 17 18  2  0
 18 19  1  0
 19 20  2  0
 20 21  1  0
 13 22  2  0
 22 23  1  0
 23 24  2  0
 24  2  1  0
  9  4  1  0
 24 11  1  0
 21 17  1  0
  1 25  1  0
  1 26  1  0
  1 27  1  0
  5 28  1  0
  6 29  1  0
  7 30  1  0
  8 31  1  0
  9 32  1  0
 12 33  1  0
 14 34  1  0
 18 35  1  0
 19 36  1  0
 20 37  1  0
 22 38  1  0
 23 39  1  0
M  END
>  <UniqueID>  (28) 
26

>  <SMILES>  (28) 
Cn1c(-c2ccccc2)nc2cc(NC(=O)c3cccs3)ccc21

>  <Energy>  (28) 
114.95593793339621

>  <Genealogy>  (28) 
Cn1c(-c2ccccc2)nc2cc(NC(=O)c3cccs3)ccc21 (3D coordinates assigned)
Cn1c(-c2ccccc2)nc2cc(NC(=O)c3cccs3)ccc21 (optimized conformer: 114.95593793339621 kcal/mol)

>  <smiles>  (28) 
Cn1c(-c2ccccc2)nc2cc(NC(=O)c3cccs3)ccc21

>  <score_type>  (28) 
oracle

>  <origin>  (28) 
adg

>  <m_score__min__energy>  (28) 
-8.5999999999999996

>  <m_primary>  (28) 
energy

$$$$
28:0
     RDKit          3D

 50 51  0  0  0  0  0  0  0  0999 V2000
   -6.5120   17.6960  -33.4010 C   0  0  0  0  0  0  0  0  0  0  0  0
   -6.1760   19.1300  -33.8070 C   0  0  0  0  0  0  0  0  0  0  0  0
   -7.2800   20.0410  -33.4720 N   0  0  0  0  0  0  0  0  0  0  0  0
   -7.9430   19.6250  -32.2250 C   0  0  0  0  0  0  0  0  0  0  0  0
   -9.1290   20.5530  -31.8800 C   0  0  0  0  0  0  0  0  0  0  0  0
   -8.7010   21.9160  -31.3040 C   0  0  0  0  0  0  0  0  0  0  0  0
   -7.2200   21.9800  -30.8820 C   0  0  0  0  0  0  0  0  0  0  0  0
   -6.3340   22.2960  -32.0260 N   0  0  0  0  0  0  0  0  0  0  0  0
   -6.2850   23.7520  -32.2980 C   0  0  0  0  0  0  0  0  0  0  0  0
   -5.5580   24.5130  -31.1780 C   0  0  0  0  0  0  0  0  0  0  0  0
   -4.3810   23.7640  -30.7240 N   0  0  0  0  0  0  0  0  0  0  0  0
   -3.7940   24.0490  -29.4390 C   0  0  0  0  0  0  0  0  0  0  0  0
   -4.6080   24.1890  -28.3030 C   0  0  0  0  0  0  0  0  0  0  0  0
   -4.0380   24.4340  -27.0530 C   0  0  0  0  0  0  0  0  0  0  0  0
   -2.6520   24.5440  -26.9220 C   0  0  0  0  0  0  0  0  0  0  0  0
   -1.8190   24.4250  -28.0480 C   0  0  0  0  0  0  0  0  0  0  0  0
   -0.3200   24.4820  -27.9000 C   0  0  0  0  0  0  0  0  0  0  0  0
    0.1120   25.7940  -27.7920 F   0  0  0  0  0  0  0  0  0  0  0  0
    0.0520   23.7900  -26.7620 F   0  0  0  0  0  0  0  0  0  0  0  0
    0.3000   23.9120  -28.9980 F   0  0  0  0  0  0  0  0  0  0  0  0
   -2.4000   24.1500  -29.2990 C   0  0  0  0  0  0  0  0  0  0  0  0
   -3.8640   22.6930  -31.5780 C   0  0  0  0  0  0  0  0  0  0  0  0
   -4.9820   21.6830  -31.8930 C   0  0  0  0  0  0  0  0  0  0  0  0
   -6.5298   17.6202  -32.3038 H   0  0  0  0  0  0  0  0  0  0  0  0
   -7.4985   17.4226  -33.8035 H   0  0  0  0  0  0  0  0  0  0  0  0
   -5.7496   17.0128  -33.8035 H   0  0  0  0  0  0  0  0  0  0  0  0
   -5.2688   19.4521  -33.2747 H   0  0  0  0  0  0  0  0  0  0  0  0
   -6.0133   19.1590  -34.8945 H   0  0  0  0  0  0  0  0  0  0  0  0
   -6.9040   21.0110  -33.3680 H   0  0  0  0  0  0  0  0  0  0  0  0
   -7.9840   20.0330  -34.2470 H   0  0  0  0  0  0  0  0  0  0  0  0
   -8.3158   18.5969  -32.3437 H   0  0  0  0  0  0  0  0  0  0  0  0
   -7.2095   19.6824  -31.4073 H   0  0  0  0  0  0  0  0  0  0  0  0
   -9.7095   20.7304  -32.7973 H   0  0  0  0  0  0  0  0  0  0  0  0
   -9.7185   20.0458  -31.1020 H   0  0  0  0  0  0  0  0  0  0  0  0
   -8.8762   22.6858  -32.0700 H   0  0  0  0  0  0  0  0  0  0  0  0
   -9.2987   22.0797  -30.3952 H   0  0  0  0  0  0  0  0  0  0  0  0
   -7.1020   22.7593  -30.1147 H   0  0  0  0  0  0  0  0  0  0  0  0
   -6.9335   20.9926  -30.4909 H   0  0  0  0  0  0  0  0  0  0  0  0
   -5.7541   23.9202  -33.2466 H   0  0  0  0  0  0  0  0  0  0  0  0
   -7.3178   24.1264  -32.3539 H   0  0  0  0  0  0  0  0  0  0  0  0
   -5.2376   25.4947  -31.5570 H   0  0  0  0  0  0  0  0  0  0  0  0
   -6.2470   24.6387  -30.3298 H   0  0  0  0  0  0  0  0  0  0  0  0
   -5.7006   24.1051  -28.3991 H   0  0  0  0  0  0  0  0  0  0  0  0
   -4.6825   24.5408  -26.1680 H   0  0  0  0  0  0  0  0  0  0  0  0
   -2.2093   24.7249  -25.9314 H   0  0  0  0  0  0  0  0  0  0  0  0
   -1.7545   24.0123  -30.1790 H   0  0  0  0  0  0  0  0  0  0  0  0
   -3.4888   23.1254  -32.5173 H   0  0  0  0  0  0  0  0  0  0  0  0
   -3.0479   22.1752  -31.0527 H   0  0  0  0  0  0  0  0  0  0  0  0
   -4.7362   21.1792  -32.8394 H   0  0  0  0  0  0  0  0  0  0  0  0
   -5.0307   20.9872  -31.0424 H   0  0  0  0  0  0  0  0  0  0  0  0
  1  2  1  0
  2  3  1  0
  3  4  1  0
  4  5  1  0
  5  6  1  0
  6  7  1  0
  7  8  1  0
  8  9  1  0
  9 10  1  0
 10 11  1  0
 11 12  1  0
 12 13  2  0
 13 14  1  0
 14 15  2  0
 15 16  1  0
 16 17  1  0
 17 18  1  0
 17 19  1  0
 17 20  1  0
 16 21  2  0
 11 22  1  0
 22 23  1  0
 23  8  1  0
 21 12  1  0
  1 24  1  0
  1 25  1  0
  1 26  1  0
  2 27  1  0
  2 28  1  0
  3 29  1  0
  3 30  1  0
  4 31  1  0
  4 32  1  0
  5 33  1  0
  5 34  1  0
  6 35  1  0
  6 36  1  0
  7 37  1  0
  7 38  1  0
  9 39  1  0
  9 40  1  0
 10 41  1  0
 10 42  1  0
 13 43  1  0
 14 44  1  0
 15 45  1  0
 21 46  1  0
 22 47  1  0
 22 48  1  0
 23 49  1  0
 23 50  1  0
M  CHG  1   3   1
M  END
>  <UniqueID>  (29) 
27

>  <SMILES>  (29) 
CC[NH2+]CCCCN1CCN(c2cccc(C(F)(F)F)c2)CC1

>  <Energy>  (29) 
55.158118715696595

>  <Genealogy>  (29) 
CC[NH2+]CCCCN1CCN(c2cccc(C(F)(F)F)c2)CC1 (protonated)
CC[NH2+]CCCCN1CCN(c2cccc(C(F)(F)F)c2)CC1 (3D coordinates assigned)
CC[NH2+]CCCCN1CCN(c2cccc(C(F)(F)F)c2)CC1 (nonaromatic ring conformer: 55.158118715696595 kcal/mol)

>  <smiles>  (29) 
CCNCCCCN1CCN(c2cccc(C(F)(F)F)c2)CC1

>  <score_type>  (29) 
oracle

>  <origin>  (29) 
adg

>  <m_score__min__energy>  (29) 
-6.6699999999999999

>  <m_primary>  (29) 
energy

$$$$
29:0
     RDKit          3D

 42 44  0  0  0  0  0  0  0  0999 V2000
   -5.8010   15.9570  -33.7880 C   0  0  0  0  0  0  0  0  0  0  0  0
   -6.4770   17.0890  -34.5620 C   0  0  0  0  0  0  0  0  0  0  0  0
   -5.4880   18.1860  -34.9750 C   0  0  0  0  0  0  0  0  0  0  0  0
   -3.8230   17.9350  -34.2560 S   0  0  0  0  0  0  0  0  0  0  0  0
   -3.6820   19.5980  -33.5910 C   0  0  0  0  0  0  0  0  0  0  0  0
   -2.6570   20.4230  -33.8600 N   0  0  0  0  0  0  0  0  0  0  0  0
   -2.9020   21.5870  -33.2800 N   0  0  0  0  0  0  0  0  0  0  0  0
   -4.0880   21.4540  -32.6470 C   0  0  0  0  0  0  0  0  0  0  0  0
   -4.7010   22.5450  -31.8570 C   0  0  0  0  0  0  0  0  0  0  0  0
   -5.8990   23.1510  -32.2680 C   0  0  0  0  0  0  0  0  0  0  0  0
   -6.4700   24.1760  -31.5060 C   0  0  0  0  0  0  0  0  0  0  0  0
   -5.8530   24.6070  -30.3230 C   0  0  0  0  0  0  0  0  0  0  0  0
   -6.4880   25.6790  -29.4860 C   0  0  0  0  0  0  0  0  0  0  0  0
   -4.6780   23.9750  -29.8900 C   0  0  0  0  0  0  0  0  0  0  0  0
   -4.1070   22.9510  -30.6520 C   0  0  0  0  0  0  0  0  0  0  0  0
   -4.6030   20.2110  -32.8200 N   0  0  0  0  0  0  0  0  0  0  0  0
   -5.8990   19.7120  -32.4510 C   0  0  0  0  0  0  0  0  0  0  0  0
   -6.0140   18.6190  -31.5770 C   0  0  0  0  0  0  0  0  0  0  0  0
   -7.2760   18.1310  -31.2230 C   0  0  0  0  0  0  0  0  0  0  0  0
   -8.4290   18.7290  -31.7390 C   0  0  0  0  0  0  0  0  0  0  0  0
   -8.3220   19.8160  -32.6110 C   0  0  0  0  0  0  0  0  0  0  0  0
   -7.0620   20.3060  -32.9680 C   0  0  0  0  0  0  0  0  0  0  0  0
   -5.9081   16.1363  -32.7080 H   0  0  0  0  0  0  0  0  0  0  0  0
   -6.2754   14.9996  -34.0496 H   0  0  0  0  0  0  0  0  0  0  0  0
   -4.7332   15.9206  -34.0496 H   0  0  0  0  0  0  0  0  0  0  0  0
   -6.9393   16.6706  -35.4682 H   0  0  0  0  0  0  0  0  0  0  0  0
   -7.2281   17.5458  -33.9009 H   0  0  0  0  0  0  0  0  0  0  0  0
   -5.4020   18.1889  -36.0716 H   0  0  0  0  0  0  0  0  0  0  0  0
   -5.8744   19.1441  -34.5973 H   0  0  0  0  0  0  0  0  0  0  0  0
   -1.8160   20.2130  -34.4400 H   0  0  0  0  0  0  0  0  0  0  0  0
   -6.3911   22.8182  -33.1938 H   0  0  0  0  0  0  0  0  0  0  0  0
   -7.4078   24.6462  -31.8367 H   0  0  0  0  0  0  0  0  0  0  0  0
   -6.3484   25.4433  -28.4207 H   0  0  0  0  0  0  0  0  0  0  0  0
   -6.0177   26.6474  -29.7120 H   0  0  0  0  0  0  0  0  0  0  0  0
   -7.5632   25.7319  -29.7120 H   0  0  0  0  0  0  0  0  0  0  0  0
   -4.2039   24.2861  -28.9474 H   0  0  0  0  0  0  0  0  0  0  0  0
   -3.1859   22.4603  -30.3046 H   0  0  0  0  0  0  0  0  0  0  0  0
   -5.1088   18.1451  -31.1695 H   0  0  0  0  0  0  0  0  0  0  0  0
   -7.3612   17.2751  -30.5373 H   0  0  0  0  0  0  0  0  0  0  0  0
   -9.4207   18.3442  -31.4588 H   0  0  0  0  0  0  0  0  0  0  0  0
   -9.2298   20.2864  -33.0168 H   0  0  0  0  0  0  0  0  0  0  0  0
   -6.9813   21.1601  -33.6565 H   0  0  0  0  0  0  0  0  0  0  0  0
  1  2  1  0
  2  3  1  0
  3  4  1  0
  4  5  1  0
  5  6  2  0
  6  7  1  0
  7  8  2  0
  8  9  1  0
  9 10  2  0
 10 11  1  0
 11 12  2  0
 12 13  1  0
 12 14  1  0
 14 15  2  0
  8 16  1  0
 16 17  1  0
 17 18  2  0
 18 19  1  0
 19 20  2  0
 20 21  1  0
 21 22  2  0
 16  5  1  0
 22 17  1  0
 15  9  1  0
  1 23  1  0
  1 24  1  0
  1 25  1  0
  2 26  1  0
  2 27  1  0
  3 28  1  0
  3 29  1  0
  6 30  1  0
 10 31  1  0
 11 32  1  0
 13 33  1  0
 13 34  1  0
 13 35  1  0
 14 36  1  0
 15 37  1  0
 18 38  1  0
 19 39  1  0
 20 40  1  0
 21 41  1  0
 22 42  1  0
M  CHG  1   6   1
M  END
>  <UniqueID>  (30) 
28

>  <SMILES>  (30) 
CCCSc1[nH+]nc(-c2ccc(C)cc2)n1-c1ccccc1

>  <Energy>  (30) 
79.74828176289093

>  <Genealogy>  (30) 
CCCSc1[nH+]nc(-c2ccc(C)cc2)n1-c1ccccc1 (protonated)
CCCSc1[nH+]nc(-c2ccc(C)cc2)n1-c1ccccc1 (3D coordinates assigned)
CCCSc1[nH+]nc(-c2ccc(C)cc2)n1-c1ccccc1 (optimized conformer: 79.74828176289093 kcal/mol)

>  <smiles>  (30) 
CCCSc1nnc(-c2ccc(C)cc2)n1-c1ccccc1

>  <score_type>  (30) 
oracle

>  <origin>  (30) 
adg

>  <m_score__min__energy>  (30) 
-7.6600000000000001

>  <m_primary>  (30) 
energy

$$$$
30:0
     RDKit          3D

 41 44  0  0  0  0  0  0  0  0999 V2000
   -6.8090   25.4210  -29.4240 C   0  0  0  0  0  0  0  0  0  0  0  0
   -5.5840   24.7290  -29.9250 C   0  0  0  0  0  0  0  0  0  0  0  0
   -4.5160   24.5000  -29.2030 O   0  0  0  0  0  0  0  0  0  0  0  0
   -3.6660   23.8520  -29.9710 C   0  0  0  0  0  0  0  0  0  0  0  0
   -2.3380   23.4110  -29.5210 C   0  0  0  0  0  0  0  0  0  0  0  0
   -1.7660   22.1870  -29.9020 C   0  0  0  0  0  0  0  0  0  0  0  0
   -0.5060   21.9710  -29.3630 C   0  0  0  0  0  0  0  0  0  0  0  0
   -0.1100   23.3010  -28.4150 S   0  0  0  0  0  0  0  0  0  0  0  0
   -1.5280   24.1650  -28.6770 C   0  0  0  0  0  0  0  0  0  0  0  0
   -4.1460   23.6320  -31.2150 N   0  0  0  0  0  0  0  0  0  0  0  0
   -5.3690   24.1940  -31.1810 C   0  0  0  0  0  0  0  0  0  0  0  0
   -6.3330   24.1710  -32.3360 C   0  0  0  0  0  0  0  0  0  0  0  0
   -7.0030   22.8560  -32.4730 N   0  0  2  0  0  0  0  0  0  0  0  0
   -8.2270   22.7950  -31.6420 C   0  0  0  0  0  0  0  0  0  0  0  0
   -9.0130   21.5100  -31.9290 C   0  0  0  0  0  0  0  0  0  0  0  0
   -8.1250   20.2950  -31.9380 C   0  0  0  0  0  0  0  0  0  0  0  0
   -8.7050   19.0180  -31.8940 C   0  0  0  0  0  0  0  0  0  0  0  0
   -7.9030   17.8750  -31.9550 C   0  0  0  0  0  0  0  0  0  0  0  0
   -6.5170   17.9990  -32.0660 C   0  0  0  0  0  0  0  0  0  0  0  0
   -5.9290   19.2660  -32.1230 C   0  0  0  0  0  0  0  0  0  0  0  0
   -6.7270   20.4210  -32.0790 C   0  0  0  0  0  0  0  0  0  0  0  0
   -6.0670   21.7800  -32.0760 C   0  0  0  0  0  0  0  0  0  0  0  0
   -6.8068   25.4198  -28.3240 H   0  0  0  0  0  0  0  0  0  0  0  0
   -6.8195   26.4584  -29.7895 H   0  0  0  0  0  0  0  0  0  0  0  0
   -7.7030   24.8945  -29.7895 H   0  0  0  0  0  0  0  0  0  0  0  0
   -2.2690   21.4675  -30.5649 H   0  0  0  0  0  0  0  0  0  0  0  0
    0.1238   21.0842  -29.5274 H   0  0  0  0  0  0  0  0  0  0  0  0
   -1.7724   25.1514  -28.2560 H   0  0  0  0  0  0  0  0  0  0  0  0
   -7.0983   24.9446  -32.1755 H   0  0  0  0  0  0  0  0  0  0  0  0
   -5.7637   24.3603  -33.2580 H   0  0  0  0  0  0  0  0  0  0  0  0
   -7.2590   22.7110  -33.4780 H   0  0  0  0  0  0  0  0  0  0  0  0
   -7.9435   22.8152  -30.5794 H   0  0  0  0  0  0  0  0  0  0  0  0
   -8.8623   23.6598  -31.8838 H   0  0  0  0  0  0  0  0  0  0  0  0
   -9.7810   21.3826  -31.1519 H   0  0  0  0  0  0  0  0  0  0  0  0
   -9.4674   21.6057  -32.9262 H   0  0  0  0  0  0  0  0  0  0  0  0
   -9.7971   18.9160  -31.8110 H   0  0  0  0  0  0  0  0  0  0  0  0
   -8.3642   16.8771  -31.9155 H   0  0  0  0  0  0  0  0  0  0  0  0
   -5.8867   17.0985  -32.1087 H   0  0  0  0  0  0  0  0  0  0  0  0
   -4.8358   19.3589  -32.2027 H   0  0  0  0  0  0  0  0  0  0  0  0
   -5.6940   21.9906  -31.0628 H   0  0  0  0  0  0  0  0  0  0  0  0
   -5.2461   21.7588  -32.8079 H   0  0  0  0  0  0  0  0  0  0  0  0
  1  2  1  0
  2  3  1  0
  3  4  1  0
  4  5  1  0
  5  6  1  0
  6  7  2  0
  7  8  1  0
  8  9  1  0
  4 10  2  0
 10 11  1  0
 11 12  1  0
 12 13  1  0
 13 14  1  0
 14 15  1  0
 15 16  1  0
 16 17  2  0
 17 18  1  0
 18 19  2  0
 19 20  1  0
 20 21  2  0
 21 22  1  0
 11  2  2  0
 22 13  1  0
  9  5  2  0
 21 16  1  0
  1 23  1  0
  1 24  1  0
  1 25  1  0
  6 26  1  0
  7 27  1  0
  9 28  1  0
 12 29  1  0
 12 30  1  0
 13 31  1  6
 14 32  1  0
 14 33  1  0
 15 34  1  0
 15 35  1  0
 17 36  1  0
 18 37  1  0
 19 38  1  0
 20 39  1  0
 22 40  1  0
 22 41  1  0
M  CHG  1  13   1
M  END
>  <UniqueID>  (31) 
29

>  <SMILES>  (31) 
Cc1oc(-c2ccsc2)nc1C[N@@H+]1CCc2ccccc2C1

>  <Energy>  (31) 
101.17123334073716

>  <Genealogy>  (31) 
Cc1oc(-c2ccsc2)nc1C[NH+]1CCc2ccccc2C1 (protonated)
Cc1oc(-c2ccsc2)nc1C[N@@H+]1CCc2ccccc2C1 (chirality)
Cc1oc(-c2ccsc2)nc1C[N@@H+]1CCc2ccccc2C1 (3D coordinates assigned)
Cc1oc(-c2ccsc2)nc1C[N@@H+]1CCc2ccccc2C1 (nonaromatic ring conformer: 101.17123334073716 kcal/mol)

>  <smiles>  (31) 
Cc1oc(-c2ccsc2)nc1CN1CCc2ccccc2C1

>  <score_type>  (31) 
oracle

>  <origin>  (31) 
adg

>  <m_score__min__energy>  (31) 
-7.5999999999999996

>  <m_primary>  (31) 
energy

$$$$
31:0
     RDKit          3D

 47 49  0  0  0  0  0  0  0  0999 V2000
   -4.6080   15.2710  -32.2740 C   0  0  0  0  0  0  0  0  0  0  0  0
   -5.2380   15.4920  -33.6450 C   0  0  0  0  0  0  0  0  0  0  0  0
   -5.0310   16.8740  -34.0920 N   0  0  0  0  0  0  0  0  0  0  0  0
   -4.4270   17.1380  -35.4050 C   0  0  0  0  0  0  0  0  0  0  0  0
   -3.2890   16.1640  -35.6860 C   0  0  0  0  0  0  0  0  0  0  0  0
   -5.7200   17.9340  -33.4110 C   0  0  0  0  0  0  0  0  0  0  0  0
   -7.0280   17.7810  -33.0340 N   0  0  0  0  0  0  0  0  0  0  0  0
   -7.7030   18.7720  -32.3640 C   0  0  0  0  0  0  0  0  0  0  0  0
   -9.1180   18.5570  -31.9330 C   0  0  0  0  0  0  0  0  0  0  0  0
   -7.0750   19.9450  -32.0530 N   0  0  0  0  0  0  0  0  0  0  0  0
   -5.7900   20.1110  -32.4430 C   0  0  0  0  0  0  0  0  0  0  0  0
   -5.0940   19.1420  -33.0970 C   0  0  0  0  0  0  0  0  0  0  0  0
   -3.8220   19.6780  -33.2610 C   0  0  0  0  0  0  0  0  0  0  0  0
   -2.6170   19.0250  -33.8560 C   0  0  0  0  0  0  0  0  0  0  0  0
   -3.7910   20.9070  -32.6870 N   0  0  0  0  0  0  0  0  0  0  0  0
   -5.0010   21.1740  -32.2110 N   0  0  0  0  0  0  0  0  0  0  0  0
   -5.3320   22.3650  -31.4830 C   0  0  0  0  0  0  0  0  0  0  0  0
   -6.5560   23.0000  -31.7310 C   0  0  0  0  0  0  0  0  0  0  0  0
   -6.9020   24.1680  -31.0470 C   0  0  0  0  0  0  0  0  0  0  0  0
   -6.0250   24.7180  -30.1020 C   0  0  0  0  0  0  0  0  0  0  0  0
   -6.4130   25.9480  -29.3370 C   0  0  0  0  0  0  0  0  0  0  0  0
   -4.8170   24.0630  -29.8200 C   0  0  0  0  0  0  0  0  0  0  0  0
   -4.4660   22.8930  -30.5040 C   0  0  0  0  0  0  0  0  0  0  0  0
   -2.9800   22.0680  -30.0450 Cl  0  0  0  0  0  0  0  0  0  0  0  0
   -5.3364   15.5265  -31.4903 H   0  0  0  0  0  0  0  0  0  0  0  0
   -4.3139   14.2160  -32.1714 H   0  0  0  0  0  0  0  0  0  0  0  0
   -3.7193   15.9111  -32.1714 H   0  0  0  0  0  0  0  0  0  0  0  0
   -4.7769   14.8048  -34.3697 H   0  0  0  0  0  0  0  0  0  0  0  0
   -6.3189   15.3007  -33.5735 H   0  0  0  0  0  0  0  0  0  0  0  0
   -5.1959   17.0278  -36.1838 H   0  0  0  0  0  0  0  0  0  0  0  0
   -4.0225   18.1609  -35.4064 H   0  0  0  0  0  0  0  0  0  0  0  0
   -2.8699   15.8053  -34.7343 H   0  0  0  0  0  0  0  0  0  0  0  0
   -3.6719   15.3095  -36.2633 H   0  0  0  0  0  0  0  0  0  0  0  0
   -2.5038   16.6742  -36.2633 H   0  0  0  0  0  0  0  0  0  0  0  0
   -7.5160   16.8790  -33.2410 H   0  0  0  0  0  0  0  0  0  0  0  0
   -9.1695   18.5492  -30.8342 H   0  0  0  0  0  0  0  0  0  0  0  0
   -9.7479   19.3698  -32.3238 H   0  0  0  0  0  0  0  0  0  0  0  0
   -9.4780   17.5938  -32.3238 H   0  0  0  0  0  0  0  0  0  0  0  0
   -1.9582   18.6680  -33.0507 H   0  0  0  0  0  0  0  0  0  0  0  0
   -2.9308   18.1735  -34.4777 H   0  0  0  0  0  0  0  0  0  0  0  0
   -2.0749   19.7528  -34.4777 H   0  0  0  0  0  0  0  0  0  0  0  0
   -7.2506   22.5752  -32.4707 H   0  0  0  0  0  0  0  0  0  0  0  0
   -7.8658   24.6576  -31.2507 H   0  0  0  0  0  0  0  0  0  0  0  0
   -6.3487   25.7442  -28.2580 H   0  0  0  0  0  0  0  0  0  0  0  0
   -5.7309   26.7712  -29.5959 H   0  0  0  0  0  0  0  0  0  0  0  0
   -7.4440   26.2308  -29.5959 H   0  0  0  0  0  0  0  0  0  0  0  0
   -4.1402   24.4719  -29.0554 H   0  0  0  0  0  0  0  0  0  0  0  0
  1  2  1  0
  2  3  1  0
  3  4  1  0
  4  5  1  0
  3  6  1  0
  6  7  2  0
  7  8  1  0
  8  9  1  0
  8 10  2  0
 10 11  1  0
 11 12  2  0
 12 13  1  0
 13 14  1  0
 13 15  2  0
 15 16  1  0
 16 17  1  0
 17 18  2  0
 18 19  1  0
 19 20  2  0
 20 21  1  0
 20 22  1  0
 22 23  2  0
 23 24  1  0
 12  6  1  0
 23 17  1  0
 16 11  1  0
  1 25  1  0
  1 26  1  0
  1 27  1  0
  2 28  1  0
  2 29  1  0
  4 30  1  0
  4 31  1  0
  5 32  1  0
  5 33  1  0
  5 34  1  0
  7 35  1  0
  9 36  1  0
  9 37  1  0
  9 38  1  0
 14 39  1  0
 14 40  1  0
 14 41  1  0
 18 42  1  0
 19 43  1  0
 21 44  1  0
 21 45  1  0
 21 46  1  0
 22 47  1  0
M  CHG  1   7   1
M  END
>  <UniqueID>  (32) 
30

>  <SMILES>  (32) 
CCN(CC)c1[nH+]c(C)nc2c1c(C)nn2-c1ccc(C)cc1Cl

>  <Energy>  (32) 
91.53512576143902

>  <Genealogy>  (32) 
CCN(CC)c1[nH+]c(C)nc2c1c(C)nn2-c1ccc(C)cc1Cl (protonated)
CCN(CC)c1[nH+]c(C)nc2c1c(C)nn2-c1ccc(C)cc1Cl (3D coordinates assigned)
CCN(CC)c1[nH+]c(C)nc2c1c(C)nn2-c1ccc(C)cc1Cl (optimized conformer: 91.53512576143902 kcal/mol)

>  <smiles>  (32) 
CCN(CC)c1nc(C)nc2c1c(C)nn2-c1ccc(C)cc1Cl

>  <score_type>  (32) 
oracle

>  <origin>  (32) 
adg

>  <m_score__min__energy>  (32) 
-6.9900000000000002

>  <m_primary>  (32) 
energy

$$$$
32:0
     RDKit          3D

 40 41  0  0  0  0  0  0  0  0999 V2000
   -0.9600   20.7590  -31.7640 C   0  0  0  0  0  0  0  0  0  0  0  0
   -1.5010   21.9430  -31.1890 O   0  0  0  0  0  0  0  0  0  0  0  0
   -2.2140   21.9950  -29.9800 C   0  0  0  0  0  0  0  0  0  0  0  0
   -1.7450   21.3340  -28.8260 C   0  0  0  0  0  0  0  0  0  0  0  0
   -2.4640   21.3920  -27.6320 C   0  0  0  0  0  0  0  0  0  0  0  0
   -3.6570   22.1070  -27.5710 C   0  0  0  0  0  0  0  0  0  0  0  0
   -4.1370   22.7660  -28.7020 C   0  0  0  0  0  0  0  0  0  0  0  0
   -3.4280   22.7250  -29.9200 C   0  0  0  0  0  0  0  0  0  0  0  0
   -3.9800   23.4260  -31.1620 C   0  0  2  0  0  0  0  0  0  0  0  0
   -4.2400   24.8320  -30.8680 N   0  0  0  0  0  0  0  0  0  0  0  0
   -5.5400   25.2600  -30.4660 C   0  0  0  0  0  0  0  0  0  0  0  0
   -5.7270   26.4460  -30.0910 O   0  0  0  0  0  0  0  0  0  0  0  0
   -6.6260   24.3330  -30.4830 N   0  0  0  0  0  0  0  0  0  0  0  0
   -6.5220   23.1460  -31.0070 C   0  0  0  0  0  0  0  0  0  0  0  0
   -7.7510   22.2840  -31.0010 C   0  0  0  0  0  0  0  0  0  0  0  0
   -5.2510   22.7510  -31.7640 C   0  0  2  0  0  0  0  0  0  0  0  0
   -5.0690   21.2450  -31.9100 C   0  0  0  0  0  0  0  0  0  0  0  0
   -4.9170   20.5600  -30.9100 O   0  0  0  0  0  0  0  0  0  0  0  0
   -5.0920   20.5590  -33.2640 C   0  0  0  0  0  0  0  0  0  0  0  0
   -3.8560   19.6770  -33.4660 C   0  0  0  0  0  0  0  0  0  0  0  0
   -6.3810   19.7560  -33.4670 C   0  0  0  0  0  0  0  0  0  0  0  0
   -0.6465   20.0728  -30.9635 H   0  0  0  0  0  0  0  0  0  0  0  0
   -1.7246   20.2712  -32.3865 H   0  0  0  0  0  0  0  0  0  0  0  0
   -0.0908   21.0178  -32.3865 H   0  0  0  0  0  0  0  0  0  0  0  0
   -0.8032   20.7672  -28.8678 H   0  0  0  0  0  0  0  0  0  0  0  0
   -2.0881   20.8725  -26.7382 H   0  0  0  0  0  0  0  0  0  0  0  0
   -4.2222   22.1521  -26.6284 H   0  0  0  0  0  0  0  0  0  0  0  0
   -5.0821   23.3258  -28.6432 H   0  0  0  0  0  0  0  0  0  0  0  0
   -3.2021   23.3373  -31.9346 H   0  0  0  0  0  0  0  0  0  0  0  0
   -8.0478   22.0758  -29.9625 H   0  0  0  0  0  0  0  0  0  0  0  0
   -8.5686   22.8076  -31.5181 H   0  0  0  0  0  0  0  0  0  0  0  0
   -7.5372   21.3370  -31.5181 H   0  0  0  0  0  0  0  0  0  0  0  0
   -5.3865   23.1381  -32.7847 H   0  0  0  0  0  0  0  0  0  0  0  0
   -5.0685   21.3490  -34.0291 H   0  0  0  0  0  0  0  0  0  0  0  0
   -3.4488   19.3864  -32.4863 H   0  0  0  0  0  0  0  0  0  0  0  0
   -4.1375   18.7745  -34.0284 H   0  0  0  0  0  0  0  0  0  0  0  0
   -3.0941   20.2367  -34.0284 H   0  0  0  0  0  0  0  0  0  0  0  0
   -6.8061   19.4912  -32.4876 H   0  0  0  0  0  0  0  0  0  0  0  0
   -7.1061   20.3625  -34.0296 H   0  0  0  0  0  0  0  0  0  0  0  0
   -6.1563   18.8378  -34.0296 H   0  0  0  0  0  0  0  0  0  0  0  0
  1  2  1  0
  2  3  1  0
  3  4  2  0
  4  5  1  0
  5  6  2  0
  6  7  1  0
  7  8  2  0
  8  9  1  0
  9 10  1  0
 10 11  1  0
 11 12  2  0
 11 13  1  0
 13 14  2  0
 14 15  1  0
 14 16  1  0
 16 17  1  0
 17 18  2  0
 17 19  1  0
 19 20  1  0
 19 21  1  0
  8  3  1  0
 16  9  1  0
  1 22  1  0
  1 23  1  0
  1 24  1  0
  4 25  1  0
  5 26  1  0
  6 27  1  0
  7 28  1  0
  9 29  1  6
 15 30  1  0
 15 31  1  0
 15 32  1  0
 16 33  1  6
 19 34  1  0
 20 35  1  0
 20 36  1  0
 20 37  1  0
 21 38  1  0
 21 39  1  0
 21 40  1  0
M  CHG  1  10  -1
M  END
>  <UniqueID>  (33) 
31

>  <SMILES>  (33) 
COc1ccccc1[C@@H]1[N-]C(=O)N=C(C)[C@@H]1C(=O)C(C)C

>  <Energy>  (33) 
37.46294055101002

>  <Genealogy>  (33) 
COc1ccccc1C1[N-]C(=O)N=C(C)C1C(=O)C(C)C (protonated)
COc1ccccc1[C@@H]1[N-]C(=O)N=C(C)[C@@H]1C(=O)C(C)C (chirality)
COc1ccccc1[C@@H]1[N-]C(=O)N=C(C)[C@@H]1C(=O)C(C)C (3D coordinates assigned)
COc1ccccc1[C@@H]1[N-]C(=O)N=C(C)[C@@H]1C(=O)C(C)C (nonaromatic ring conformer: 37.46294055101002 kcal/mol)

>  <smiles>  (33) 
COc1ccccc1C1NC(=O)N=C(C)C1C(=O)C(C)C

>  <score_type>  (33) 
oracle

>  <origin>  (33) 
adg

>  <m_score__min__energy>  (33) 
-7.3700000000000001

>  <m_primary>  (33) 
energy

$$$$
33:0
     RDKit          3D

 55 57  0  0  0  0  0  0  0  0999 V2000
   -4.2470   22.6640  -27.9800 C   0  0  0  0  0  0  0  0  0  0  0  0
   -3.7230   24.0150  -27.4940 C   0  0  0  0  0  0  0  0  0  0  0  0
   -2.6740   24.6170  -28.4460 C   0  0  0  0  0  0  0  0  0  0  0  0
   -2.9340   24.2920  -29.9200 C   0  0  0  0  0  0  0  0  0  0  0  0
   -3.8650   25.2540  -30.4940 N   0  0  0  0  0  0  0  0  0  0  0  0
   -5.2830   25.1410  -30.3480 C   0  0  0  0  0  0  0  0  0  0  0  0
   -5.8430   25.4890  -29.2730 O   0  0  0  0  0  0  0  0  0  0  0  0
   -6.1070   24.6350  -31.4890 C   0  0  0  0  0  0  0  0  0  0  0  0
   -6.9580   23.0830  -31.0380 S   0  0  0  0  0  0  0  0  0  0  0  0
   -5.8740   22.0320  -32.0060 C   0  0  0  0  0  0  0  0  0  0  0  0
   -4.5600   22.3040  -32.3610 C   0  0  0  0  0  0  0  0  0  0  0  0
   -4.0430   21.2620  -33.0570 N   0  0  0  0  0  0  0  0  0  0  0  0
   -2.6590   21.1430  -33.5150 C   0  0  0  0  0  0  0  0  0  0  0  0
   -1.9890   19.9340  -32.8600 C   0  0  0  0  0  0  0  0  0  0  0  0
   -2.0320   20.0520  -31.4050 N   0  0  0  0  0  0  0  0  0  0  0  0
   -1.2690   21.0410  -30.6920 C   0  0  0  0  0  0  0  0  0  0  0  0
   -0.6110   21.9040  -31.3380 O   0  0  0  0  0  0  0  0  0  0  0  0
   -1.2490   21.0760  -29.2110 C   0  0  0  0  0  0  0  0  0  0  0  0
   -2.0080   20.1450  -28.4760 C   0  0  0  0  0  0  0  0  0  0  0  0
   -2.0010   20.1700  -27.0780 C   0  0  0  0  0  0  0  0  0  0  0  0
   -1.2460   21.1280  -26.3980 C   0  0  0  0  0  0  0  0  0  0  0  0
   -1.2430   21.1520  -25.0420 F   0  0  0  0  0  0  0  0  0  0  0  0
   -0.5000   22.0660  -27.1150 C   0  0  0  0  0  0  0  0  0  0  0  0
   -0.5010   22.0440  -28.5140 C   0  0  0  0  0  0  0  0  0  0  0  0
   -5.0190   20.3310  -33.1300 C   0  0  0  0  0  0  0  0  0  0  0  0
   -4.9610   19.0620  -33.7140 C   0  0  0  0  0  0  0  0  0  0  0  0
   -6.1110   18.2550  -33.6510 C   0  0  0  0  0  0  0  0  0  0  0  0
   -7.2810   18.7220  -33.0130 C   0  0  0  0  0  0  0  0  0  0  0  0
   -7.3110   19.9990  -32.4280 C   0  0  0  0  0  0  0  0  0  0  0  0
   -6.1560   20.7780  -32.5050 C   0  0  0  0  0  0  0  0  0  0  0  0
   -4.4920   22.0324  -27.1133 H   0  0  0  0  0  0  0  0  0  0  0  0
   -5.1505   22.8184  -28.5882 H   0  0  0  0  0  0  0  0  0  0  0  0
   -3.4757   22.1688  -28.5882 H   0  0  0  0  0  0  0  0  0  0  0  0
   -4.5690   24.7135  -27.4140 H   0  0  0  0  0  0  0  0  0  0  0  0
   -3.2377   23.8547  -26.5200 H   0  0  0  0  0  0  0  0  0  0  0  0
   -2.6785   25.7102  -28.3237 H   0  0  0  0  0  0  0  0  0  0  0  0
   -1.7026   24.1736  -28.1817 H   0  0  0  0  0  0  0  0  0  0  0  0
   -1.9841   24.3320  -30.4733 H   0  0  0  0  0  0  0  0  0  0  0  0
   -3.3707   23.2850  -29.9924 H   0  0  0  0  0  0  0  0  0  0  0  0
   -6.8578   25.3934  -31.7556 H   0  0  0  0  0  0  0  0  0  0  0  0
   -5.4423   24.4369  -32.3428 H   0  0  0  0  0  0  0  0  0  0  0  0
   -4.0181   23.2288  -32.1140 H   0  0  0  0  0  0  0  0  0  0  0  0
   -2.6472   21.0174  -34.6077 H   0  0  0  0  0  0  0  0  0  0  0  0
   -2.1086   22.0537  -33.2362 H   0  0  0  0  0  0  0  0  0  0  0  0
   -2.5168   19.0183  -33.1648 H   0  0  0  0  0  0  0  0  0  0  0  0
   -0.9383   19.8910  -33.1828 H   0  0  0  0  0  0  0  0  0  0  0  0
   -2.6660   19.4050  -30.8840 H   0  0  0  0  0  0  0  0  0  0  0  0
   -2.6108   19.3926  -29.0056 H   0  0  0  0  0  0  0  0  0  0  0  0
   -2.5913   19.4337  -26.5128 H   0  0  0  0  0  0  0  0  0  0  0  0
    0.0898   22.8239  -26.5786 H   0  0  0  0  0  0  0  0  0  0  0  0
    0.0862   22.7876  -29.0728 H   0  0  0  0  0  0  0  0  0  0  0  0
   -4.0445   18.7060  -34.2073 H   0  0  0  0  0  0  0  0  0  0  0  0
   -6.0990   17.2519  -34.1023 H   0  0  0  0  0  0  0  0  0  0  0  0
   -8.1747   18.0818  -32.9738 H   0  0  0  0  0  0  0  0  0  0  0  0
   -8.2155   20.3725  -31.9257 H   0  0  0  0  0  0  0  0  0  0  0  0
  1  2  1  0
  2  3  1  0
  3  4  1  0
  4  5  1  0
  5  6  1  0
  6  7  2  0
  6  8  1  0
  8  9  1  0
  9 10  1  0
 10 11  2  0
 11 12  1  0
 12 13  1  0
 13 14  1  0
 14 15  1  0
 15 16  1  0
 16 17  2  0
 16 18  1  0
 18 19  2  0
 19 20  1  0
 20 21  2  0
 21 22  1  0
 21 23  1  0
 23 24  2  0
 12 25  1  0
 25 26  2  0
 26 27  1  0
 27 28  2  0
 28 29  1  0
 29 30  2  0
 30 10  1  0
 24 18  1  0
 30 25  1  0
  1 31  1  0
  1 32  1  0
  1 33  1  0
  2 34  1  0
  2 35  1  0
  3 36  1  0
  3 37  1  0
  4 38  1  0
  4 39  1  0
  8 40  1  0
  8 41  1  0
 11 42  1  0
 13 43  1  0
 13 44  1  0
 14 45  1  0
 14 46  1  0
 15 47  1  0
 19 48  1  0
 20 49  1  0
 23 50  1  0
 24 51  1  0
 26 52  1  0
 27 53  1  0
 28 54  1  0
 29 55  1  0
M  CHG  1   5  -1
M  END
>  <UniqueID>  (34) 
32

>  <SMILES>  (34) 
CCCC[N-]C(=O)CSc1cn(CCNC(=O)c2ccc(F)cc2)c2ccccc12

>  <Energy>  (34) 
73.08651092993733

>  <Genealogy>  (34) 
CCCC[N-]C(=O)CSc1cn(CCNC(=O)c2ccc(F)cc2)c2ccccc12 (protonated)
CCCC[N-]C(=O)CSc1cn(CCNC(=O)c2ccc(F)cc2)c2ccccc12 (3D coordinates assigned)
CCCC[N-]C(=O)CSc1cn(CCNC(=O)c2ccc(F)cc2)c2ccccc12 (optimized conformer: 73.08651092993733 kcal/mol)

>  <smiles>  (34) 
CCCCNC(=O)CSc1cn(CCNC(=O)c2ccc(F)cc2)c2ccccc12

>  <score_type>  (34) 
oracle

>  <origin>  (34) 
adg

>  <m_score__min__energy>  (34) 
-10.23

>  <m_primary>  (34) 
energy

$$$$
34:0
     RDKit          3D

 57 60  0  0  0  0  0  0  0  0999 V2000
   -5.7870   15.7640  -33.8080 C   0  0  0  0  0  0  0  0  0  0  0  0
   -6.8500   16.7080  -33.9120 O   0  0  0  0  0  0  0  0  0  0  0  0
   -6.7830   18.0370  -33.4710 C   0  0  0  0  0  0  0  0  0  0  0  0
   -5.6960   18.8790  -33.7730 C   0  0  0  0  0  0  0  0  0  0  0  0
   -5.6750   20.2000  -33.3210 C   0  0  0  0  0  0  0  0  0  0  0  0
   -6.7500   20.7270  -32.5660 C   0  0  0  0  0  0  0  0  0  0  0  0
   -6.7970   22.0610  -32.0860 C   0  0  0  0  0  0  0  0  0  0  0  0
   -5.7090   23.0960  -32.3600 C   0  0  0  0  0  0  0  0  0  0  0  0
   -4.6440   23.1480  -31.3280 N   0  0  0  0  0  0  0  0  0  0  0  0
   -4.8940   24.1010  -30.2160 C   0  0  0  0  0  0  0  0  0  0  0  0
   -4.6330   23.4190  -28.8680 C   0  0  0  0  0  0  0  0  0  0  0  0
   -4.0550   24.3920  -27.8330 C   0  0  0  0  0  0  0  0  0  0  0  0
   -2.5520   24.4470  -27.9550 C   0  0  0  0  0  0  0  0  0  0  0  0
   -1.8140   25.3590  -27.1810 C   0  0  0  0  0  0  0  0  0  0  0  0
   -0.4250   25.4190  -27.3350 C   0  0  0  0  0  0  0  0  0  0  0  0
    0.2000   24.6070  -28.2280 N   0  0  0  0  0  0  0  0  0  0  0  0
   -0.4910   23.7250  -29.0010 C   0  0  0  0  0  0  0  0  0  0  0  0
   -1.8830   23.6280  -28.8750 C   0  0  0  0  0  0  0  0  0  0  0  0
   -4.1000   21.8430  -30.8820 C   0  0  0  0  0  0  0  0  0  0  0  0
   -2.8350   21.5140  -31.6290 C   0  0  0  0  0  0  0  0  0  0  0  0
   -2.8100   21.5280  -33.0350 C   0  0  0  0  0  0  0  0  0  0  0  0
   -1.6280   21.2100  -33.7170 C   0  0  0  0  0  0  0  0  0  0  0  0
   -0.4760   20.8610  -33.0060 C   0  0  0  0  0  0  0  0  0  0  0  0
   -0.5020   20.8230  -31.6080 C   0  0  0  0  0  0  0  0  0  0  0  0
   -1.6800   21.1390  -30.9210 C   0  0  0  0  0  0  0  0  0  0  0  0
   -7.8980   22.4600  -31.3190 C   0  0  0  0  0  0  0  0  0  0  0  0
   -8.9200   21.5490  -31.0540 C   0  0  0  0  0  0  0  0  0  0  0  0
   -9.9120   21.8970  -30.3630 O   0  0  0  0  0  0  0  0  0  0  0  0
   -8.8520   20.3050  -31.5190 O   0  0  0  0  0  0  0  0  0  0  0  0
   -7.8340   19.8680  -32.2540 C   0  0  0  0  0  0  0  0  0  0  0  0
   -7.8430   18.5460  -32.7100 C   0  0  0  0  0  0  0  0  0  0  0  0
   -5.5701   15.5714  -32.7469 H   0  0  0  0  0  0  0  0  0  0  0  0
   -6.0817   14.8245  -34.2984 H   0  0  0  0  0  0  0  0  0  0  0  0
   -4.8889   16.1676  -34.2984 H   0  0  0  0  0  0  0  0  0  0  0  0
   -4.8564   18.4932  -34.3699 H   0  0  0  0  0  0  0  0  0  0  0  0
   -4.8113   20.8398  -33.5549 H   0  0  0  0  0  0  0  0  0  0  0  0
   -5.2412   22.8569  -33.3265 H   0  0  0  0  0  0  0  0  0  0  0  0
   -6.2009   24.0799  -32.3558 H   0  0  0  0  0  0  0  0  0  0  0  0
   -4.2237   24.9668  -30.3214 H   0  0  0  0  0  0  0  0  0  0  0  0
   -5.9423   24.4319  -30.2547 H   0  0  0  0  0  0  0  0  0  0  0  0
   -5.5819   23.0155  -28.4847 H   0  0  0  0  0  0  0  0  0  0  0  0
   -3.8961   22.6185  -29.0298 H   0  0  0  0  0  0  0  0  0  0  0  0
   -4.4709   25.3957  -28.0053 H   0  0  0  0  0  0  0  0  0  0  0  0
   -4.3216   24.0443  -26.8240 H   0  0  0  0  0  0  0  0  0  0  0  0
   -2.3229   26.0181  -26.4623 H   0  0  0  0  0  0  0  0  0  0  0  0
    0.1634   26.1257  -26.7314 H   0  0  0  0  0  0  0  0  0  0  0  0
    0.0425   23.0896  -29.7232 H   0  0  0  0  0  0  0  0  0  0  0  0
   -2.4468   22.9143  -29.4936 H   0  0  0  0  0  0  0  0  0  0  0  0
   -3.8819   21.8912  -29.8049 H   0  0  0  0  0  0  0  0  0  0  0  0
   -4.8455   21.0599  -31.0842 H   0  0  0  0  0  0  0  0  0  0  0  0
   -3.7178   21.7884  -33.5990 H   0  0  0  0  0  0  0  0  0  0  0  0
   -1.6064   21.2351  -34.8165 H   0  0  0  0  0  0  0  0  0  0  0  0
    0.4507   20.6163  -33.5458 H   0  0  0  0  0  0  0  0  0  0  0  0
    0.4033   20.5448  -31.0484 H   0  0  0  0  0  0  0  0  0  0  0  0
   -1.7019   21.0937  -29.8222 H   0  0  0  0  0  0  0  0  0  0  0  0
   -7.9566   23.4863  -30.9276 H   0  0  0  0  0  0  0  0  0  0  0  0
   -8.6962   17.8955  -32.4671 H   0  0  0  0  0  0  0  0  0  0  0  0
  1  2  1  0
  2  3  1  0
  3  4  2  0
  4  5  1  0
  5  6  2  0
  6  7  1  0
  7  8  1  0
  8  9  1  0
  9 10  1  0
 10 11  1  0
 11 12  1  0
 12 13  1  0
 13 14  2  0
 14 15  1  0
 15 16  2  0
 16 17  1  0
 17 18  2  0
  9 19  1  0
 19 20  1  0
 20 21  2  0
 21 22  1  0
 22 23  2  0
 23 24  1  0
 24 25  2  0
  7 26  2  0
 26 27  1  0
 27 28  2  0
 27 29  1  0
 29 30  1  0
 30 31  2  0
 31  3  1  0
 30  6  1  0
 18 13  1  0
 25 20  1  0
  1 32  1  0
  1 33  1  0
  1 34  1  0
  4 35  1  0
  5 36  1  0
  8 37  1  0
  8 38  1  0
 10 39  1  0
 10 40  1  0
 11 41  1  0
 11 42  1  0
 12 43  1  0
 12 44  1  0
 14 45  1  0
 15 46  1  0
 17 47  1  0
 18 48  1  0
 19 49  1  0
 19 50  1  0
 21 51  1  0
 22 52  1  0
 23 53  1  0
 24 54  1  0
 25 55  1  0
 26 56  1  0
 31 57  1  0
M  END
>  <UniqueID>  (35) 
33

>  <SMILES>  (35) 
COc1ccc2c(CN(CCCc3ccncc3)Cc3ccccc3)cc(=O)oc2c1

>  <Energy>  (35) 
73.76838742206333

>  <Genealogy>  (35) 
COc1ccc2c(CN(CCCc3ccncc3)Cc3ccccc3)cc(=O)oc2c1 (3D coordinates assigned)
COc1ccc2c(CN(CCCc3ccncc3)Cc3ccccc3)cc(=O)oc2c1 (optimized conformer: 73.76838742206333 kcal/mol)

>  <smiles>  (35) 
COc1ccc2c(CN(CCCc3ccncc3)Cc3ccccc3)cc(=O)oc2c1

>  <score_type>  (35) 
oracle

>  <origin>  (35) 
adg

>  <m_score__min__energy>  (35) 
-9.2699999999999996

>  <m_primary>  (35) 
energy

$$$$
36:0
     RDKit          3D

 43 44  0  0  0  0  0  0  0  0999 V2000
   -5.1514   21.6238  -33.7533 H   0  0  0  0  0  0  0  0  0  0  0  0
   -5.4630   21.4610  -32.7110 C   0  0  0  0  0  0  0  0  0  0  0  0
   -6.7100   20.6810  -32.4960 C   0  0  0  0  0  0  0  0  0  0  0  0
   -7.8200   21.3720  -31.9840 C   0  0  0  0  0  0  0  0  0  0  0  0
   -7.7376   22.4405  -31.7359 H   0  0  0  0  0  0  0  0  0  0  0  0
   -9.0250   20.7020  -31.7910 C   0  0  0  0  0  0  0  0  0  0  0  0
   -9.9026   21.2429  -31.4073 H   0  0  0  0  0  0  0  0  0  0  0  0
   -9.1140   19.3480  -32.0850 C   0  0  0  0  0  0  0  0  0  0  0  0
  -10.0700   18.8169  -31.9664 H   0  0  0  0  0  0  0  0  0  0  0  0
   -7.9820   18.6660  -32.5320 C   0  0  0  0  0  0  0  0  0  0  0  0
   -8.0506   17.5922  -32.7606 H   0  0  0  0  0  0  0  0  0  0  0  0
   -6.7870   19.3150  -32.6900 N   0  0  0  0  0  0  0  0  0  0  0  0
   -5.6150   18.5020  -33.0470 C   0  0  0  0  0  0  0  0  0  0  0  0
   -5.1158   18.1557  -32.1300 H   0  0  0  0  0  0  0  0  0  0  0  0
   -5.9381   17.6331  -33.6391 H   0  0  0  0  0  0  0  0  0  0  0  0
   -4.9143   19.1090  -33.6391 H   0  0  0  0  0  0  0  0  0  0  0  0
   -4.6700   21.9930  -31.7410 C   0  0  0  0  0  0  0  0  0  0  0  0
   -3.6100   21.1870  -31.2570 C   0  0  0  0  0  0  0  0  0  0  0  0
   -3.5860   19.8140  -31.5030 O   0  0  0  0  0  0  0  0  0  0  0  0
   -2.5200   21.7560  -30.5940 C   0  0  0  0  0  0  0  0  0  0  0  0
   -1.4530   20.9290  -30.2320 O   0  0  0  0  0  0  0  0  0  0  0  0
   -0.5890   20.3390  -31.1980 C   0  0  0  0  0  0  0  0  0  0  0  0
    0.2145   19.7903  -30.6848 H   0  0  0  0  0  0  0  0  0  0  0  0
   -1.1635   19.6437  -31.8277 H   0  0  0  0  0  0  0  0  0  0  0  0
   -0.1505   21.1272  -31.8277 H   0  0  0  0  0  0  0  0  0  0  0  0
   -2.4940   23.1370  -30.3460 C   0  0  0  0  0  0  0  0  0  0  0  0
   -1.4230   23.7400  -29.6810 O   0  0  0  0  0  0  0  0  0  0  0  0
   -1.4920   24.1110  -28.3070 C   0  0  0  0  0  0  0  0  0  0  0  0
   -1.3269   23.2233  -27.6788 H   0  0  0  0  0  0  0  0  0  0  0  0
   -0.7182   24.8623  -28.0908 H   0  0  0  0  0  0  0  0  0  0  0  0
   -2.4842   24.5338  -28.0908 H   0  0  0  0  0  0  0  0  0  0  0  0
   -3.5760   23.9350  -30.7290 C   0  0  0  0  0  0  0  0  0  0  0  0
   -3.5150   25.2990  -30.4470 O   0  0  0  0  0  0  0  0  0  0  0  0
   -4.7340   23.3610  -31.3110 C   0  0  0  0  0  0  0  0  0  0  0  0
   -5.8660   24.1120  -31.3180 C   0  0  0  0  0  0  0  0  0  0  0  0
   -6.1463   24.5977  -32.2643 H   0  0  0  0  0  0  0  0  0  0  0  0
   -6.7690   24.3320  -30.1290 C   0  0  0  0  0  0  0  0  0  0  0  0
   -6.6258   23.5133  -29.4084 H   0  0  0  0  0  0  0  0  0  0  0  0
   -7.8137   24.3537  -30.4728 H   0  0  0  0  0  0  0  0  0  0  0  0
   -6.4420   25.6600  -29.4530 C   0  0  0  0  0  0  0  0  0  0  0  0
   -6.4733   25.5330  -28.3608 H   0  0  0  0  0  0  0  0  0  0  0  0
   -5.4364   25.9875  -29.7554 H   0  0  0  0  0  0  0  0  0  0  0  0
   -7.1806   26.4170  -29.7554 H   0  0  0  0  0  0  0  0  0  0  0  0
  1  2  1  0
  2  3  1  0
  3  4  2  0
  4  5  1  0
  4  6  1  0
  6  7  1  0
  6  8  2  0
  8  9  1  0
  8 10  1  0
 10 11  1  0
 10 12  2  0
 12 13  1  0
 13 14  1  0
 13 15  1  0
 13 16  1  0
  2 17  2  0
 17 18  1  0
 18 19  1  0
 18 20  2  0
 20 21  1  0
 21 22  1  0
 22 23  1  0
 22 24  1  0
 22 25  1  0
 20 26  1  0
 26 27  1  0
 27 28  1  0
 28 29  1  0
 28 30  1  0
 28 31  1  0
 26 32  2  0
 32 33  1  0
 32 34  1  0
 34 35  2  0
 35 36  1  0
 35 37  1  0
 37 38  1  0
 37 39  1  0
 37 40  1  0
 40 41  1  0
 40 42  1  0
 40 43  1  0
 12  3  1  0
 34 17  1  0
M  CHG  3  12   1  19  -1  33  -1
M  END
>  <UniqueID>  (36) 
34

>  <SMILES>  (36) 
CC/C=c1/c([O-])c(OC)c(OC)c([O-])/c1=C/c1cccc[n+]1C

>  <Energy>  (36) 
90.65959348904562

>  <Genealogy>  (36) 
CCC=c1c([O-])c(OC)c(OC)c([O-])c1=Cc1cccc[n+]1C (protonated)
CC/C=c1/c([O-])c(OC)c(OC)c([O-])/c1=C/c1cccc[n+]1C (cis-trans isomerization)
CC/C=c1/c([O-])c(OC)c(OC)c([O-])/c1=C/c1cccc[n+]1C (3D coordinates assigned)
CC/C=c1/c([O-])c(OC)c(OC)c([O-])/c1=C/c1cccc[n+]1C (optimized conformer: 90.65959348904562 kcal/mol)

>  <smiles>  (36) 
CCC=c1c(O)c(OC)c(OC)c(O)c1=Cc1cccc[n+]1C

>  <score_type>  (36) 
oracle

>  <origin>  (36) 
adg

>  <m_score__min__energy>  (36) 
-9.8000000000000007

>  <m_primary>  (36) 
energy

$$$$
37:0
     RDKit          3D

 55 58  0  0  0  0  0  0  0  0999 V2000
   -9.8830   21.1950  -31.8010 C   0  0  0  0  0  0  0  0  0  0  0  0
   -8.5490   20.7710  -32.3240 C   0  0  0  0  0  0  0  0  0  0  0  0
   -8.2410   19.5350  -32.6400 O   0  0  0  0  0  0  0  0  0  0  0  0
   -6.9930   19.5330  -33.0600 C   0  0  0  0  0  0  0  0  0  0  0  0
   -6.2830   18.3080  -33.4980 C   0  0  0  0  0  0  0  0  0  0  0  0
   -5.0410   18.4210  -34.1470 C   0  0  0  0  0  0  0  0  0  0  0  0
   -4.3610   17.2820  -34.5850 C   0  0  0  0  0  0  0  0  0  0  0  0
   -4.9100   16.0150  -34.3790 C   0  0  0  0  0  0  0  0  0  0  0  0
   -4.0510   14.5840  -34.9230 Cl  0  0  0  0  0  0  0  0  0  0  0  0
   -6.1430   15.8880  -33.7320 C   0  0  0  0  0  0  0  0  0  0  0  0
   -6.8270   17.0260  -33.2930 C   0  0  0  0  0  0  0  0  0  0  0  0
   -6.4580   20.7750  -33.0280 N   0  0  0  0  0  0  0  0  0  0  0  0
   -7.4390   21.5620  -32.5530 C   0  0  0  0  0  0  0  0  0  0  0  0
   -7.3040   23.0490  -32.3250 C   0  0  0  0  0  0  0  0  0  0  0  0
   -6.2270   23.4120  -31.3760 N   0  0  0  0  0  0  0  0  0  0  0  0
   -6.2180   24.8430  -31.0210 C   0  0  0  0  0  0  0  0  0  0  0  0
   -5.3440   25.0820  -29.7740 C   0  0  0  0  0  0  0  0  0  0  0  0
   -4.3520   23.9270  -29.5200 C   0  0  0  0  0  0  0  0  0  0  0  0
   -3.2620   24.3640  -28.5790 C   0  0  0  0  0  0  0  0  0  0  0  0
   -3.2560   23.9390  -27.3920 O   0  0  0  0  0  0  0  0  0  0  0  0
   -2.2640   25.2930  -29.0170 N   0  0  0  0  0  0  0  0  0  0  0  0
   -0.9170   25.3470  -28.4600 C   0  0  0  0  0  0  0  0  0  0  0  0
   -0.9130   26.1780  -27.2080 C   0  0  0  0  0  0  0  0  0  0  0  0
   -0.4820   27.5120  -27.2520 C   0  0  0  0  0  0  0  0  0  0  0  0
   -0.5240   28.2880  -26.0930 C   0  0  0  0  0  0  0  0  0  0  0  0
   -0.9840   27.7530  -24.9290 N   0  0  0  0  0  0  0  0  0  0  0  0
   -1.4060   26.4630  -24.8570 C   0  0  0  0  0  0  0  0  0  0  0  0
   -1.3820   25.6520  -25.9950 C   0  0  0  0  0  0  0  0  0  0  0  0
   -3.7750   23.4040  -30.8460 C   0  0  0  0  0  0  0  0  0  0  0  0
   -4.8900   22.9590  -31.8210 C   0  0  0  0  0  0  0  0  0  0  0  0
   -9.8644   21.1891  -30.7012 H   0  0  0  0  0  0  0  0  0  0  0  0
  -10.1113   22.2100  -32.1584 H   0  0  0  0  0  0  0  0  0  0  0  0
  -10.6554   20.4981  -32.1584 H   0  0  0  0  0  0  0  0  0  0  0  0
   -4.6006   19.4155  -34.3114 H   0  0  0  0  0  0  0  0  0  0  0  0
   -3.3908   17.3836  -35.0933 H   0  0  0  0  0  0  0  0  0  0  0  0
   -6.5761   14.8903  -33.5679 H   0  0  0  0  0  0  0  0  0  0  0  0
   -7.7963   16.9186  -32.7842 H   0  0  0  0  0  0  0  0  0  0  0  0
   -5.5010   21.0780  -33.3090 H   0  0  0  0  0  0  0  0  0  0  0  0
   -7.0919   23.5303  -33.2911 H   0  0  0  0  0  0  0  0  0  0  0  0
   -8.2506   23.3928  -31.8826 H   0  0  0  0  0  0  0  0  0  0  0  0
   -5.8135   25.4229  -31.8637 H   0  0  0  0  0  0  0  0  0  0  0  0
   -7.2474   25.1626  -30.8017 H   0  0  0  0  0  0  0  0  0  0  0  0
   -4.7742   26.0123  -29.9151 H   0  0  0  0  0  0  0  0  0  0  0  0
   -6.0130   25.1469  -28.9032 H   0  0  0  0  0  0  0  0  0  0  0  0
   -4.8946   23.0974  -29.0432 H   0  0  0  0  0  0  0  0  0  0  0  0
   -0.5799   24.3274  -28.2218 H   0  0  0  0  0  0  0  0  0  0  0  0
   -0.2386   25.8008  -29.1975 H   0  0  0  0  0  0  0  0  0  0  0  0
   -0.1132   27.9437  -28.1941 H   0  0  0  0  0  0  0  0  0  0  0  0
   -0.1847   29.3340  -26.1201 H   0  0  0  0  0  0  0  0  0  0  0  0
   -1.7672   26.0564  -23.9009 H   0  0  0  0  0  0  0  0  0  0  0  0
   -1.7282   24.6093  -25.9400 H   0  0  0  0  0  0  0  0  0  0  0  0
   -3.1869   24.2044  -31.3188 H   0  0  0  0  0  0  0  0  0  0  0  0
   -3.1455   22.5297  -30.6241 H   0  0  0  0  0  0  0  0  0  0  0  0
   -4.6835   23.3833  -32.8146 H   0  0  0  0  0  0  0  0  0  0  0  0
   -4.8961   21.8595  -31.8522 H   0  0  0  0  0  0  0  0  0  0  0  0
  1  2  1  0
  2  3  1  0
  3  4  1  0
  4  5  1  0
  5  6  2  0
  6  7  1  0
  7  8  2  0
  8  9  1  0
  8 10  1  0
 10 11  2  0
  4 12  2  0
 12 13  1  0
 13 14  1  0
 14 15  1  0
 15 16  1  0
 16 17  1  0
 17 18  1  0
 18 19  1  0
 19 20  2  0
 19 21  1  0
 21 22  1  0
 22 23  1  0
 23 24  2  0
 24 25  1  0
 25 26  2  0
 26 27  1  0
 27 28  2  0
 18 29  1  0
 29 30  1  0
 13  2  2  0
 30 15  1  0
 11  5  1  0
 28 23  1  0
  1 31  1  0
  1 32  1  0
  1 33  1  0
  6 34  1  0
  7 35  1  0
 10 36  1  0
 11 37  1  0
 12 38  1  0
 14 39  1  0
 14 40  1  0
 16 41  1  0
 16 42  1  0
 17 43  1  0
 17 44  1  0
 18 45  1  0
 22 46  1  0
 22 47  1  0
 24 48  1  0
 25 49  1  0
 27 50  1  0
 28 51  1  0
 29 52  1  0
 29 53  1  0
 30 54  1  0
 30 55  1  0
M  CHG  2  12   1  21  -1
M  END
>  <UniqueID>  (37) 
35

>  <SMILES>  (37) 
Cc1oc(-c2ccc(Cl)cc2)[nH+]c1CN1CCC(C(=O)[N-]Cc2ccncc2)CC1

>  <Energy>  (37) 
93.59997078155986

>  <Genealogy>  (37) 
Cc1oc(-c2ccc(Cl)cc2)[nH+]c1CN1CCC(C(=O)[N-]Cc2ccncc2)CC1 (protonated)
Cc1oc(-c2ccc(Cl)cc2)[nH+]c1CN1CCC(C(=O)[N-]Cc2ccncc2)CC1 (3D coordinates assigned)
Cc1oc(-c2ccc(Cl)cc2)[nH+]c1CN1CCC(C(=O)[N-]Cc2ccncc2)CC1 (nonaromatic ring conformer: 93.59997078155986 kcal/mol)

>  <smiles>  (37) 
Cc1oc(-c2ccc(Cl)cc2)nc1CN1CCC(C(=O)NCc2ccncc2)CC1

>  <score_type>  (37) 
oracle

>  <origin>  (37) 
adg

>  <m_score__min__energy>  (37) 
-10.31

>  <m_primary>  (37) 
energy

$$$$
38:0
     RDKit          3D

 28 31  0  0  0  0  0  0  0  0999 V2000
   -5.7170   24.9260  -29.7200 C   0  0  0  0  0  0  0  0  0  0  0  0
   -6.1120   24.9000  -31.1910 C   0  0  0  0  0  0  0  0  0  0  0  0
   -6.3610   23.4980  -31.6400 C   0  0  0  0  0  0  0  0  0  0  0  0
   -7.4480   22.6030  -31.5910 C   0  0  0  0  0  0  0  0  0  0  0  0
   -8.7630   22.2090  -31.2850 C   0  0  0  0  0  0  0  0  0  0  0  0
   -9.1090   20.8320  -31.6060 C   0  0  0  0  0  0  0  0  0  0  0  0
   -8.1260   19.9410  -32.2020 C   0  0  0  0  0  0  0  0  0  0  0  0
   -8.3180   18.5860  -32.5150 C   0  0  0  0  0  0  0  0  0  0  0  0
   -7.2400   17.8300  -33.0530 C   0  0  0  0  0  0  0  0  0  0  0  0
   -5.9610   18.4100  -33.2750 C   0  0  0  0  0  0  0  0  0  0  0  0
   -5.7510   19.7640  -32.9690 C   0  0  0  0  0  0  0  0  0  0  0  0
   -4.4950   20.4870  -33.0940 C   0  0  0  0  0  0  0  0  0  0  0  0
   -4.4000   21.8830  -32.6920 C   0  0  0  0  0  0  0  0  0  0  0  0
   -5.5810   22.4630  -32.1930 C   0  0  0  0  0  0  0  0  0  0  0  0
   -6.6600   21.7080  -32.1530 C   0  0  0  0  0  0  0  0  0  0  0  0
   -6.8570   20.4520  -32.4720 C   0  0  0  0  0  0  0  0  0  0  0  0
   -6.6212   24.8665  -29.0964 H   0  0  0  0  0  0  0  0  0  0  0  0
   -5.0633   24.0689  -29.5007 H   0  0  0  0  0  0  0  0  0  0  0  0
   -5.1813   25.8614  -29.5007 H   0  0  0  0  0  0  0  0  0  0  0  0
   -7.0279   25.4930  -31.3306 H   0  0  0  0  0  0  0  0  0  0  0  0
   -5.2912   25.3246  -31.7877 H   0  0  0  0  0  0  0  0  0  0  0  0
   -9.4873   22.9006  -30.8299 H   0  0  0  0  0  0  0  0  0  0  0  0
  -10.1233   20.4619  -31.3959 H   0  0  0  0  0  0  0  0  0  0  0  0
   -9.2960   18.1119  -32.3452 H   0  0  0  0  0  0  0  0  0  0  0  0
   -7.3997   16.7709  -33.3034 H   0  0  0  0  0  0  0  0  0  0  0  0
   -5.1410   17.8015  -33.6840 H   0  0  0  0  0  0  0  0  0  0  0  0
   -3.6088   19.9742  -33.4960 H   0  0  0  0  0  0  0  0  0  0  0  0
   -3.4612   22.4505  -32.7735 H   0  0  0  0  0  0  0  0  0  0  0  0
  1  2  1  0
  2  3  1  0
  3  4  2  0
  4  5  1  0
  5  6  2  0
  6  7  1  0
  7  8  2  0
  8  9  1  0
  9 10  2  0
 10 11  1  0
 11 12  2  0
 12 13  1  0
 13 14  2  0
 14 15  1  0
 15 16  2  0
 14  3  1  0
 15  4  1  0
 16  7  1  0
 16 11  1  0
  1 17  1  0
  1 18  1  0
  1 19  1  0
  2 20  1  0
  2 21  1  0
  5 22  1  0
  6 23  1  0
  8 24  1  0
  9 25  1  0
 10 26  1  0
 12 27  1  0
 13 28  1  0
M  END
>  <UniqueID>  (38) 
36

>  <SMILES>  (38) 
CCc1c2ccc3cccc4ccc1c2c34

>  <Energy>  (38) 
99.75737022084259

>  <Genealogy>  (38) 
CCc1c2ccc3cccc4ccc1c2c34 (3D coordinates assigned)
CCc1c2ccc3cccc4ccc1c2c34 (optimized conformer: 99.75737022084259 kcal/mol)

>  <smiles>  (38) 
CCc1c2ccc3cccc4ccc1c2c34

>  <score_type>  (38) 
oracle

>  <origin>  (38) 
adg

>  <m_score__min__energy>  (38) 
-7.8200000000000003

>  <m_primary>  (38) 
energy

$$$$
39:0
     RDKit          3D

 26 27  0  0  0  0  0  0  0  0999 V2000
   -1.9030   25.6650  -26.5620 C   0  0  0  0  0  0  0  0  0  0  0  0
   -0.9990   26.0420  -27.7290 C   0  0  0  0  0  0  0  0  0  0  0  0
   -1.5900   25.6590  -28.9690 O   0  0  0  0  0  0  0  0  0  0  0  0
   -2.1740   24.4070  -29.1900 C   0  0  0  0  0  0  0  0  0  0  0  0
   -1.6490   23.3590  -28.7250 O   0  0  0  0  0  0  0  0  0  0  0  0
   -3.4140   24.3140  -29.9630 C   0  0  0  0  0  0  0  0  0  0  0  0
   -4.1750   23.2060  -30.0320 N   0  0  0  0  0  0  0  0  0  0  0  0
   -5.1740   23.6190  -30.8440 C   0  0  0  0  0  0  0  0  0  0  0  0
   -6.3080   22.7640  -31.2540 C   0  0  0  0  0  0  0  0  0  0  0  0
   -7.6250   23.2560  -31.2090 C   0  0  0  0  0  0  0  0  0  0  0  0
   -8.6960   22.4450  -31.5970 C   0  0  0  0  0  0  0  0  0  0  0  0
   -8.4640   21.1390  -32.0340 C   0  0  0  0  0  0  0  0  0  0  0  0
   -7.1590   20.6390  -32.0840 C   0  0  0  0  0  0  0  0  0  0  0  0
   -6.8440   18.8520  -32.6810 Br  0  0  0  0  0  0  0  0  0  0  0  0
   -6.0850   21.4470  -31.6950 C   0  0  0  0  0  0  0  0  0  0  0  0
   -5.0180   24.9000  -31.2360 N   0  0  0  0  0  0  0  0  0  0  0  0
   -3.9180   25.2950  -30.6700 O   0  0  0  0  0  0  0  0  0  0  0  0
   -1.3874   25.8800  -25.6144 H   0  0  0  0  0  0  0  0  0  0  0  0
   -2.8329   26.2503  -26.6145 H   0  0  0  0  0  0  0  0  0  0  0  0
   -2.1415   24.5924  -26.6145 H   0  0  0  0  0  0  0  0  0  0  0  0
   -0.8402   27.1305  -27.7257 H   0  0  0  0  0  0  0  0  0  0  0  0
   -0.0395   25.5158  -27.6172 H   0  0  0  0  0  0  0  0  0  0  0  0
   -7.8134   24.2843  -30.8667 H   0  0  0  0  0  0  0  0  0  0  0  0
   -9.7233   22.8364  -31.5579 H   0  0  0  0  0  0  0  0  0  0  0  0
   -9.3083   20.5033  -32.3390 H   0  0  0  0  0  0  0  0  0  0  0  0
   -5.0599   21.0499  -31.7343 H   0  0  0  0  0  0  0  0  0  0  0  0
  1  2  1  0
  2  3  1  0
  3  4  1  0
  4  5  2  0
  4  6  1  0
  6  7  2  0
  7  8  1  0
  8  9  1  0
  9 10  2  0
 10 11  1  0
 11 12  2  0
 12 13  1  0
 13 14  1  0
 13 15  2  0
  8 16  2  0
 16 17  1  0
 17  6  1  0
 15  9  1  0
  1 18  1  0
  1 19  1  0
  1 20  1  0
  2 21  1  0
  2 22  1  0
 10 23  1  0
 11 24  1  0
 12 25  1  0
 15 26  1  0
M  END
>  <UniqueID>  (39) 
37

>  <SMILES>  (39) 
CCOC(=O)c1nc(-c2cccc(Br)c2)no1

>  <Energy>  (39) 
54.21749635788292

>  <Genealogy>  (39) 
CCOC(=O)c1nc(-c2cccc(Br)c2)no1 (3D coordinates assigned)
CCOC(=O)c1nc(-c2cccc(Br)c2)no1 (optimized conformer: 54.21749635788292 kcal/mol)

>  <smiles>  (39) 
CCOC(=O)c1nc(-c2cccc(Br)c2)no1

>  <score_type>  (39) 
oracle

>  <origin>  (39) 
adg

>  <m_score__min__energy>  (39) 
-7.9900000000000002

>  <m_primary>  (39) 
energy

$$$$
40:0
     RDKit          3D

 33 35  0  0  0  0  0  0  0  0999 V2000
   -2.9170   21.6950  -32.3090 C   0  0  0  0  0  0  0  0  0  0  0  0
   -4.0730   22.5000  -31.9250 N   0  0  0  0  0  0  0  0  0  0  0  0
   -5.2250   22.4700  -32.5750 N   0  0  0  0  0  0  0  0  0  0  0  0
   -6.0970   23.2870  -31.9630 C   0  0  0  0  0  0  0  0  0  0  0  0
   -7.4110   23.4480  -32.4290 O   0  0  0  0  0  0  0  0  0  0  0  0
   -8.5420   22.6710  -32.0430 C   0  0  0  0  0  0  0  0  0  0  0  0
   -8.2790   21.2000  -32.2130 C   0  0  0  0  0  0  0  0  0  0  0  0
   -9.0330   20.2460  -31.5120 C   0  0  0  0  0  0  0  0  0  0  0  0
   -8.7410   18.8900  -31.6700 C   0  0  0  0  0  0  0  0  0  0  0  0
   -7.6960   18.4980  -32.5090 C   0  0  0  0  0  0  0  0  0  0  0  0
   -6.9510   19.4750  -33.1740 C   0  0  0  0  0  0  0  0  0  0  0  0
   -7.2520   20.7900  -33.0080 N   0  0  0  0  0  0  0  0  0  0  0  0
   -5.4680   23.8850  -30.8700 C   0  0  0  0  0  0  0  0  0  0  0  0
   -6.1120   25.2390  -29.6740 Br  0  0  0  0  0  0  0  0  0  0  0  0
   -4.1780   23.3670  -30.8880 C   0  0  0  0  0  0  0  0  0  0  0  0
   -3.1120   23.7050  -29.9210 C   0  0  0  0  0  0  0  0  0  0  0  0
   -2.4000   22.8260  -29.1230 C   0  0  0  0  0  0  0  0  0  0  0  0
   -1.5110   23.6020  -28.4110 C   0  0  0  0  0  0  0  0  0  0  0  0
   -1.7280   24.9010  -28.8160 C   0  0  0  0  0  0  0  0  0  0  0  0
   -2.6830   24.9290  -29.7150 O   0  0  0  0  0  0  0  0  0  0  0  0
   -2.4029   21.3370  -31.4048 H   0  0  0  0  0  0  0  0  0  0  0  0
   -3.2519   20.8337  -32.9057 H   0  0  0  0  0  0  0  0  0  0  0  0
   -2.2254   22.3078  -32.9057 H   0  0  0  0  0  0  0  0  0  0  0  0
   -5.4210   21.8860  -33.4190 H   0  0  0  0  0  0  0  0  0  0  0  0
   -8.7724   22.8740  -30.9867 H   0  0  0  0  0  0  0  0  0  0  0  0
   -9.3896   22.9485  -32.6868 H   0  0  0  0  0  0  0  0  0  0  0  0
   -9.8469   20.5640  -30.8439 H   0  0  0  0  0  0  0  0  0  0  0  0
   -9.3325   18.1325  -31.1350 H   0  0  0  0  0  0  0  0  0  0  0  0
   -7.4619   17.4318  -32.6449 H   0  0  0  0  0  0  0  0  0  0  0  0
   -6.1205   19.1799  -33.8322 H   0  0  0  0  0  0  0  0  0  0  0  0
   -2.5192   21.7338  -29.0685 H   0  0  0  0  0  0  0  0  0  0  0  0
   -0.7767   23.2546  -27.6693 H   0  0  0  0  0  0  0  0  0  0  0  0
   -1.1834   25.7807  -28.4424 H   0  0  0  0  0  0  0  0  0  0  0  0
  1  2  1  0
  2  3  1  0
  3  4  2  0
  4  5  1  0
  5  6  1  0
  6  7  1  0
  7  8  2  0
  8  9  1  0
  9 10  2  0
 10 11  1  0
 11 12  2  0
  4 13  1  0
 13 14  1  0
 13 15  2  0
 15 16  1  0
 16 17  2  0
 17 18  1  0
 18 19  2  0
 19 20  1  0
 15  2  1  0
 20 16  1  0
 12  7  1  0
  1 21  1  0
  1 22  1  0
  1 23  1  0
  3 24  1  0
  6 25  1  0
  6 26  1  0
  8 27  1  0
  9 28  1  0
 10 29  1  0
 11 30  1  0
 17 31  1  0
 18 32  1  0
 19 33  1  0
M  CHG  1   3   1
M  END
>  <UniqueID>  (40) 
38

>  <SMILES>  (40) 
Cn1[nH+]c(OCc2ccccn2)c(Br)c1-c1ccco1

>  <Energy>  (40) 
97.94112176251157

>  <Genealogy>  (40) 
Cn1[nH+]c(OCc2ccccn2)c(Br)c1-c1ccco1 (protonated)
Cn1[nH+]c(OCc2ccccn2)c(Br)c1-c1ccco1 (3D coordinates assigned)
Cn1[nH+]c(OCc2ccccn2)c(Br)c1-c1ccco1 (optimized conformer: 97.94112176251157 kcal/mol)

>  <smiles>  (40) 
Cn1nc(OCc2ccccn2)c(Br)c1-c1ccco1

>  <score_type>  (40) 
oracle

>  <origin>  (40) 
adg

>  <m_score__min__energy>  (40) 
-7.3399999999999999

>  <m_primary>  (40) 
energy

$$$$
41:0
     RDKit          3D

 47 49  0  0  0  0  0  0  0  0999 V2000
   -6.0780   17.4970  -34.2890 C   0  0  0  0  0  0  0  0  0  0  0  0
   -5.8120   18.9570  -33.9420 C   0  0  0  0  0  0  0  0  0  0  0  0
   -6.9020   19.4990  -33.0740 C   0  0  0  0  0  0  0  0  0  0  0  0
   -7.2350   20.8070  -33.0250 N   0  0  0  0  0  0  0  0  0  0  0  0
   -8.2970   21.0280  -32.2040 C   0  0  0  0  0  0  0  0  0  0  0  0
   -8.8390   22.4080  -31.9730 C   0  0  0  0  0  0  0  0  0  0  0  0
   -7.8270   23.2760  -31.3350 N   0  0  0  0  0  0  0  0  0  0  0  0
   -7.3180   22.6570  -30.0990 C   0  0  0  0  0  0  0  0  0  0  0  0
   -6.7250   23.6750  -32.2440 C   0  0  0  0  0  0  0  0  0  0  0  0
   -5.4230   23.9310  -31.5360 C   0  0  0  0  0  0  0  0  0  0  0  0
   -5.0000   25.1550  -31.1680 N   0  0  0  0  0  0  0  0  0  0  0  0
   -3.8650   24.9480  -30.5730 O   0  0  0  0  0  0  0  0  0  0  0  0
   -3.5960   23.6650  -30.5730 C   0  0  0  0  0  0  0  0  0  0  0  0
   -2.3730   23.0550  -29.9530 C   0  0  2  0  0  0  0  0  0  0  0  0
   -2.4860   21.5290  -29.9100 C   0  0  0  0  0  0  0  0  0  0  0  0
   -1.9890   21.1140  -28.5280 C   0  0  0  0  0  0  0  0  0  0  0  0
   -2.1110   22.3530  -27.6510 C   0  0  0  0  0  0  0  0  0  0  0  0
   -2.2200   23.4780  -28.5660 N   0  0  0  0  0  0  0  0  0  0  0  0
   -2.0460   24.8410  -28.1300 C   0  0  0  0  0  0  0  0  0  0  0  0
   -2.3140   25.2530  -26.7150 C   0  0  0  0  0  0  0  0  0  0  0  0
   -1.6320   25.7080  -28.9470 O   0  0  0  0  0  0  0  0  0  0  0  0
   -4.5660   22.9530  -31.1770 N   0  0  0  0  0  0  0  0  0  0  0  0
   -8.8270   19.8890  -31.6010 C   0  0  0  0  0  0  0  0  0  0  0  0
   -7.9280   18.5680  -32.1210 S   0  0  0  0  0  0  0  0  0  0  0  0
   -6.1843   16.9134  -33.3626 H   0  0  0  0  0  0  0  0  0  0  0  0
   -7.0044   17.4229  -34.8774 H   0  0  0  0  0  0  0  0  0  0  0  0
   -5.2372   17.1009  -34.8774 H   0  0  0  0  0  0  0  0  0  0  0  0
   -4.8533   19.0327  -33.4080 H   0  0  0  0  0  0  0  0  0  0  0  0
   -5.7764   19.5418  -34.8730 H   0  0  0  0  0  0  0  0  0  0  0  0
   -9.1307   22.8460  -32.9390 H   0  0  0  0  0  0  0  0  0  0  0  0
   -9.7090   22.3347  -31.3039 H   0  0  0  0  0  0  0  0  0  0  0  0
   -7.7440   23.1751  -29.2271 H   0  0  0  0  0  0  0  0  0  0  0  0
   -7.6087   21.5964  -30.0734 H   0  0  0  0  0  0  0  0  0  0  0  0
   -6.2212   22.7373  -30.0734 H   0  0  0  0  0  0  0  0  0  0  0  0
   -6.5698   22.8694  -32.9768 H   0  0  0  0  0  0  0  0  0  0  0  0
   -7.0252   24.6207  -32.7190 H   0  0  0  0  0  0  0  0  0  0  0  0
   -1.5214   23.3813  -30.5681 H   0  0  0  0  0  0  0  0  0  0  0  0
   -3.5318   21.2183  -30.0502 H   0  0  0  0  0  0  0  0  0  0  0  0
   -1.8976   21.0568  -30.7105 H   0  0  0  0  0  0  0  0  0  0  0  0
   -2.6094   20.2989  -28.1271 H   0  0  0  0  0  0  0  0  0  0  0  0
   -0.9531   20.7460  -28.5651 H   0  0  0  0  0  0  0  0  0  0  0  0
   -3.0076   22.2867  -27.0172 H   0  0  0  0  0  0  0  0  0  0  0  0
   -1.2463   22.4600  -26.9796 H   0  0  0  0  0  0  0  0  0  0  0  0
   -1.8454   24.5326  -26.0283 H   0  0  0  0  0  0  0  0  0  0  0  0
   -1.8938   26.2542  -26.5388 H   0  0  0  0  0  0  0  0  0  0  0  0
   -3.3996   25.2747  -26.5388 H   0  0  0  0  0  0  0  0  0  0  0  0
   -9.6811   19.8599  -30.9085 H   0  0  0  0  0  0  0  0  0  0  0  0
  1  2  1  0
  2  3  1  0
  3  4  2  0
  4  5  1  0
  5  6  1  0
  6  7  1  0
  7  8  1  0
  7  9  1  0
  9 10  1  0
 10 11  2  0
 11 12  1  0
 12 13  1  0
 13 14  1  0
 14 15  1  0
 15 16  1  0
 16 17  1  0
 17 18  1  0
 18 19  1  0
 19 20  1  0
 19 21  2  0
 13 22  2  0
  5 23  2  0
 23 24  1  0
 24  3  1  0
 22 10  1  0
 18 14  1  0
  1 25  1  0
  1 26  1  0
  1 27  1  0
  2 28  1  0
  2 29  1  0
  6 30  1  0
  6 31  1  0
  8 32  1  0
  8 33  1  0
  8 34  1  0
  9 35  1  0
  9 36  1  0
 14 37  1  6
 15 38  1  0
 15 39  1  0
 16 40  1  0
 16 41  1  0
 17 42  1  0
 17 43  1  0
 20 44  1  0
 20 45  1  0
 20 46  1  0
 23 47  1  0
M  END
>  <UniqueID>  (41) 
39

>  <SMILES>  (41) 
CCc1nc(CN(C)Cc2noc([C@@H]3CCCN3C(C)=O)n2)cs1

>  <Energy>  (41) 
104.32604554462492

>  <Genealogy>  (41) 
CCc1nc(CN(C)Cc2noc([C@@H]3CCCN3C(C)=O)n2)cs1 (chirality)
CCc1nc(CN(C)Cc2noc([C@@H]3CCCN3C(C)=O)n2)cs1 (3D coordinates assigned)
CCc1nc(CN(C)Cc2noc([C@@H]3CCCN3C(C)=O)n2)cs1 (nonaromatic ring conformer: 104.32604554462492 kcal/mol)

>  <smiles>  (41) 
CCc1nc(CN(C)Cc2noc(C3CCCN3C(C)=O)n2)cs1

>  <score_type>  (41) 
oracle

>  <origin>  (41) 
adg

>  <m_score__min__energy>  (41) 
-9.5700000000000003

>  <m_primary>  (41) 
energy

$$$$
42:0
     RDKit          3D

 33 34  0  0  0  0  0  0  0  0999 V2000
    2.4070   24.2880  -27.3370 C   0  0  0  0  0  0  0  0  0  0  0  0
    1.3750   24.4970  -28.2940 O   0  0  0  0  0  0  0  0  0  0  0  0
    0.0080   24.5740  -27.9860 C   0  0  0  0  0  0  0  0  0  0  0  0
   -0.8960   23.9010  -28.8160 C   0  0  0  0  0  0  0  0  0  0  0  0
   -2.2750   23.9370  -28.5530 C   0  0  0  0  0  0  0  0  0  0  0  0
   -3.2180   23.2680  -29.4110 N   0  0  0  0  0  0  0  0  0  0  0  0
   -4.2090   23.9540  -30.1960 C   0  0  0  0  0  0  0  0  0  0  0  0
   -4.0410   25.1690  -30.4890 O   0  0  0  0  0  0  0  0  0  0  0  0
   -5.4010   23.2370  -30.7090 C   0  0  0  0  0  0  0  0  0  0  0  0
   -5.3040   22.4140  -31.8440 C   0  0  0  0  0  0  0  0  0  0  0  0
   -6.4320   21.7460  -32.3260 C   0  0  0  0  0  0  0  0  0  0  0  0
   -7.6560   21.9120  -31.6770 C   0  0  0  0  0  0  0  0  0  0  0  0
   -9.0860   21.0880  -32.2620 Cl  0  0  0  0  0  0  0  0  0  0  0  0
   -7.7420   22.7200  -30.5880 N   0  0  0  0  0  0  0  0  0  0  0  0
   -6.6590   23.3800  -30.0950 C   0  0  0  0  0  0  0  0  0  0  0  0
   -2.7470   24.6850  -27.4660 C   0  0  0  0  0  0  0  0  0  0  0  0
   -1.8600   25.3630  -26.6230 C   0  0  0  0  0  0  0  0  0  0  0  0
   -2.3910   26.0830  -25.5430 O   0  0  0  0  0  0  0  0  0  0  0  0
   -1.6110   26.7030  -24.5250 C   0  0  0  0  0  0  0  0  0  0  0  0
   -0.4780   25.3020  -26.8840 C   0  0  0  0  0  0  0  0  0  0  0  0
    1.9893   24.3726  -26.3229 H   0  0  0  0  0  0  0  0  0  0  0  0
    2.8365   23.2846  -27.4741 H   0  0  0  0  0  0  0  0  0  0  0  0
    3.1930   25.0452  -27.4741 H   0  0  0  0  0  0  0  0  0  0  0  0
   -0.5222   23.3377  -29.6838 H   0  0  0  0  0  0  0  0  0  0  0  0
   -3.0980   22.2410  -29.5600 H   0  0  0  0  0  0  0  0  0  0  0  0
   -4.3368   22.2955  -32.3544 H   0  0  0  0  0  0  0  0  0  0  0  0
   -6.3561   21.0949  -33.2093 H   0  0  0  0  0  0  0  0  0  0  0  0
   -6.7674   24.0280  -29.2128 H   0  0  0  0  0  0  0  0  0  0  0  0
   -3.8286   24.7397  -27.2732 H   0  0  0  0  0  0  0  0  0  0  0  0
   -1.9904   26.4014  -23.5375 H   0  0  0  0  0  0  0  0  0  0  0  0
   -0.5613   26.3901  -24.6257 H   0  0  0  0  0  0  0  0  0  0  0  0
   -1.6790   27.7963  -24.6257 H   0  0  0  0  0  0  0  0  0  0  0  0
    0.2267   25.8268  -26.2222 H   0  0  0  0  0  0  0  0  0  0  0  0
  1  2  1  0
  2  3  1  0
  3  4  2  0
  4  5  1  0
  5  6  1  0
  6  7  1  0
  7  8  2  0
  7  9  1  0
  9 10  2  0
 10 11  1  0
 11 12  2  0
 12 13  1  0
 12 14  1  0
 14 15  2  0
  5 16  2  0
 16 17  1  0
 17 18  1  0
 18 19  1  0
 17 20  2  0
 20  3  1  0
 15  9  1  0
  1 21  1  0
  1 22  1  0
  1 23  1  0
  4 24  1  0
  6 25  1  0
 10 26  1  0
 11 27  1  0
 15 28  1  0
 16 29  1  0
 19 30  1  0
 19 31  1  0
 19 32  1  0
 20 33  1  0
M  END
>  <UniqueID>  (42) 
40

>  <SMILES>  (42) 
COc1cc(NC(=O)c2ccc(Cl)nc2)cc(OC)c1

>  <Energy>  (42) 
38.395682444906264

>  <Genealogy>  (42) 
COc1cc(NC(=O)c2ccc(Cl)nc2)cc(OC)c1 (3D coordinates assigned)
COc1cc(NC(=O)c2ccc(Cl)nc2)cc(OC)c1 (optimized conformer: 38.395682444906264 kcal/mol)

>  <smiles>  (42) 
COc1cc(NC(=O)c2ccc(Cl)nc2)cc(OC)c1

>  <score_type>  (42) 
oracle

>  <origin>  (42) 
adg

>  <m_score__min__energy>  (42) 
-6.9500000000000002

>  <m_primary>  (42) 
energy

$$$$
43:0
     RDKit          3D

 47 49  0  0  0  0  0  0  0  0999 V2000
   -2.6450   24.1740  -29.4720 C   0  0  0  0  0  0  0  0  0  0  0  0
   -3.4880   24.7270  -30.4770 O   0  0  0  0  0  0  0  0  0  0  0  0
   -4.8570   24.4410  -30.6160 C   0  0  0  0  0  0  0  0  0  0  0  0
   -5.8390   25.1360  -29.8830 C   0  0  0  0  0  0  0  0  0  0  0  0
   -7.1920   24.8260  -30.0410 C   0  0  0  0  0  0  0  0  0  0  0  0
   -7.5810   23.8200  -30.9250 C   0  0  0  0  0  0  0  0  0  0  0  0
   -6.6190   23.1230  -31.6580 C   0  0  0  0  0  0  0  0  0  0  0  0
   -5.2540   23.4260  -31.5140 C   0  0  0  0  0  0  0  0  0  0  0  0
   -4.2270   22.6710  -32.3280 C   0  0  0  0  0  0  0  0  0  0  0  0
   -3.5210   21.5710  -31.4960 C   0  0  2  0  0  0  0  0  0  0  0  0
   -2.0120   21.4310  -31.8360 C   0  0  0  0  0  0  0  0  0  0  0  0
   -1.6860   20.1630  -32.6350 C   0  0  0  0  0  0  0  0  0  0  0  0
   -2.8200   19.8380  -33.6080 C   0  0  0  0  0  0  0  0  0  0  0  0
   -4.0800   19.4960  -32.8970 N   0  0  2  0  0  0  0  0  0  0  0  0
   -5.2400   19.6700  -33.8080 C   0  0  0  0  0  0  0  0  0  0  0  0
   -6.5560   19.3620  -33.1300 C   0  0  0  0  0  0  0  0  0  0  0  0
   -7.5570   20.3380  -33.0240 C   0  0  0  0  0  0  0  0  0  0  0  0
   -8.7640   20.0360  -32.3900 C   0  0  0  0  0  0  0  0  0  0  0  0
   -8.9600   18.7570  -31.8670 C   0  0  0  0  0  0  0  0  0  0  0  0
   -7.9830   17.8190  -31.9800 N   0  0  0  0  0  0  0  0  0  0  0  0
   -6.8000   18.0880  -32.5930 C   0  0  0  0  0  0  0  0  0  0  0  0
   -4.2570   20.2100  -31.5970 C   0  0  0  0  0  0  0  0  0  0  0  0
   -3.0401   24.4332  -28.4786 H   0  0  0  0  0  0  0  0  0  0  0  0
   -2.6144   23.0798  -29.5804 H   0  0  0  0  0  0  0  0  0  0  0  0
   -1.6291   24.5817  -29.5804 H   0  0  0  0  0  0  0  0  0  0  0  0
   -5.5384   25.9281  -29.1815 H   0  0  0  0  0  0  0  0  0  0  0  0
   -7.9520   25.3765  -29.4670 H   0  0  0  0  0  0  0  0  0  0  0  0
   -8.6468   23.5755  -31.0448 H   0  0  0  0  0  0  0  0  0  0  0  0
   -6.9316   22.3304  -32.3538 H   0  0  0  0  0  0  0  0  0  0  0  0
   -4.7300   22.1999  -33.1853 H   0  0  0  0  0  0  0  0  0  0  0  0
   -3.4625   23.3888  -32.6602 H   0  0  0  0  0  0  0  0  0  0  0  0
   -3.5737   21.9003  -30.4478 H   0  0  0  0  0  0  0  0  0  0  0  0
   -1.7048   22.3056  -32.4282 H   0  0  0  0  0  0  0  0  0  0  0  0
   -1.4676   21.3646  -30.8824 H   0  0  0  0  0  0  0  0  0  0  0  0
   -0.7566   20.3210  -33.2018 H   0  0  0  0  0  0  0  0  0  0  0  0
   -1.5649   19.3226  -31.9357 H   0  0  0  0  0  0  0  0  0  0  0  0
   -3.0000   20.7133  -34.2494 H   0  0  0  0  0  0  0  0  0  0  0  0
   -2.5175   18.9647  -34.2044 H   0  0  0  0  0  0  0  0  0  0  0  0
   -4.0130   18.4730  -32.6720 H   0  0  0  0  0  0  0  0  0  0  0  0
   -5.2594   20.7118  -34.1604 H   0  0  0  0  0  0  0  0  0  0  0  0
   -5.1196   18.9644  -34.6433 H   0  0  0  0  0  0  0  0  0  0  0  0
   -7.3914   21.3425  -33.4406 H   0  0  0  0  0  0  0  0  0  0  0  0
   -9.5522   20.7984  -32.3037 H   0  0  0  0  0  0  0  0  0  0  0  0
   -9.9056   18.5080  -31.3631 H   0  0  0  0  0  0  0  0  0  0  0  0
   -6.0313   17.3049  -32.6686 H   0  0  0  0  0  0  0  0  0  0  0  0
   -5.3320   20.3908  -31.4497 H   0  0  0  0  0  0  0  0  0  0  0  0
   -3.8156   19.5618  -30.8256 H   0  0  0  0  0  0  0  0  0  0  0  0
  1  2  1  0
  2  3  1  0
  3  4  2  0
  4  5  1  0
  5  6  2  0
  6  7  1  0
  7  8  2  0
  8  9  1  0
  9 10  1  0
 10 11  1  0
 11 12  1  0
 12 13  1  0
 13 14  1  0
 14 15  1  0
 15 16  1  0
 16 17  2  0
 17 18  1  0
 18 19  2  0
 19 20  1  0
 20 21  2  0
 14 22  1  0
  8  3  1  0
 22 10  1  0
 21 16  1  0
  1 23  1  0
  1 24  1  0
  1 25  1  0
  4 26  1  0
  5 27  1  0
  6 28  1  0
  7 29  1  0
  9 30  1  0
  9 31  1  0
 10 32  1  1
 11 33  1  0
 11 34  1  0
 12 35  1  0
 12 36  1  0
 13 37  1  0
 13 38  1  0
 14 39  1  1
 15 40  1  0
 15 41  1  0
 17 42  1  0
 18 43  1  0
 19 44  1  0
 21 45  1  0
 22 46  1  0
 22 47  1  0
M  CHG  1  14   1
M  END
>  <UniqueID>  (43) 
41

>  <SMILES>  (43) 
COc1ccccc1C[C@@H]1CCC[N@H+](Cc2cccnc2)C1

>  <Energy>  (43) 
58.783148062371296

>  <Genealogy>  (43) 
COc1ccccc1CC1CCC[NH+](Cc2cccnc2)C1 (protonated)
COc1ccccc1C[C@@H]1CCC[N@H+](Cc2cccnc2)C1 (chirality)
COc1ccccc1C[C@@H]1CCC[N@H+](Cc2cccnc2)C1 (3D coordinates assigned)
COc1ccccc1C[C@@H]1CCC[N@H+](Cc2cccnc2)C1 (nonaromatic ring conformer: 58.783148062371296 kcal/mol)

>  <smiles>  (43) 
COc1ccccc1CC1CCCN(Cc2cccnc2)C1

>  <score_type>  (43) 
oracle

>  <origin>  (43) 
adg

>  <m_score__min__energy>  (43) 
-7.5300000000000002

>  <m_primary>  (43) 
energy

$$$$
44:0
     RDKit          3D

 44 46  0  0  0  0  0  0  0  0999 V2000
    1.7140   21.2580  -35.4790 C   0  0  0  0  0  0  0  0  0  0  0  0
    1.9450   20.4540  -33.8630 S   0  0  0  0  0  0  0  0  0  0  0  0
    0.2690   20.7920  -33.3210 C   0  0  0  0  0  0  0  0  0  0  0  0
   -0.7630   20.8940  -34.2590 C   0  0  0  0  0  0  0  0  0  0  0  0
   -2.0680   21.1610  -33.8380 C   0  0  0  0  0  0  0  0  0  0  0  0
   -2.3560   21.3250  -32.4720 C   0  0  0  0  0  0  0  0  0  0  0  0
   -3.7460   21.6110  -32.0390 C   0  0  0  0  0  0  0  0  0  0  0  0
   -4.7590   20.7260  -32.3880 C   0  0  0  0  0  0  0  0  0  0  0  0
   -6.0710   20.9910  -32.0150 C   0  0  0  0  0  0  0  0  0  0  0  0
   -7.0970   20.1190  -32.3900 C   0  0  0  0  0  0  0  0  0  0  0  0
   -8.3870   20.3770  -32.0390 N   0  0  0  0  0  0  0  0  0  0  0  0
   -9.4540   19.4580  -32.4570 C   0  0  0  0  0  0  0  0  0  0  0  0
   -8.6860   21.5130  -31.3410 C   0  0  0  0  0  0  0  0  0  0  0  0
   -9.8820   21.7770  -31.0390 O   0  0  0  0  0  0  0  0  0  0  0  0
   -7.6980   22.3740  -30.9660 N   0  0  0  0  0  0  0  0  0  0  0  0
   -6.3800   22.1470  -31.2680 C   0  0  0  0  0  0  0  0  0  0  0  0
   -5.3600   23.0080  -30.8700 N   0  0  0  0  0  0  0  0  0  0  0  0
   -5.6030   24.2270  -30.0350 C   0  0  0  0  0  0  0  0  0  0  0  0
   -5.4380   25.5470  -30.8220 C   0  0  0  0  0  0  0  0  0  0  0  0
   -4.8130   24.1810  -28.7190 C   0  0  0  0  0  0  0  0  0  0  0  0
   -4.0600   22.7460  -31.2700 C   0  0  0  0  0  0  0  0  0  0  0  0
   -3.1160   23.5200  -30.9390 O   0  0  0  0  0  0  0  0  0  0  0  0
   -1.3100   21.2360  -31.5340 C   0  0  0  0  0  0  0  0  0  0  0  0
   -1.5470   21.4360  -30.2130 F   0  0  0  0  0  0  0  0  0  0  0  0
   -0.0050   20.9690  -31.9600 C   0  0  0  0  0  0  0  0  0  0  0  0
    1.4131   22.3052  -35.3279 H   0  0  0  0  0  0  0  0  0  0  0  0
    2.6578   21.2254  -36.0430 H   0  0  0  0  0  0  0  0  0  0  0  0
    0.9314   20.7294  -36.0430 H   0  0  0  0  0  0  0  0  0  0  0  0
   -0.5470   20.7638  -35.3297 H   0  0  0  0  0  0  0  0  0  0  0  0
   -2.8755   21.2434  -34.5804 H   0  0  0  0  0  0  0  0  0  0  0  0
   -4.5223   19.8162  -32.9592 H   0  0  0  0  0  0  0  0  0  0  0  0
   -6.8603   19.2170  -32.9734 H   0  0  0  0  0  0  0  0  0  0  0  0
   -9.9439   19.0360  -31.5671 H   0  0  0  0  0  0  0  0  0  0  0  0
  -10.1947   20.0054  -33.0584 H   0  0  0  0  0  0  0  0  0  0  0  0
   -9.0224   18.6444  -33.0584 H   0  0  0  0  0  0  0  0  0  0  0  0
   -8.0090   23.2160  -30.4490 H   0  0  0  0  0  0  0  0  0  0  0  0
   -6.6655   24.2135  -29.7505 H   0  0  0  0  0  0  0  0  0  0  0  0
   -5.3334   26.3841  -30.1161 H   0  0  0  0  0  0  0  0  0  0  0  0
   -4.5404   25.4867  -31.4550 H   0  0  0  0  0  0  0  0  0  0  0  0
   -6.3228   25.7096  -31.4550 H   0  0  0  0  0  0  0  0  0  0  0  0
   -5.5116   24.2217  -27.8703 H   0  0  0  0  0  0  0  0  0  0  0  0
   -4.2329   23.2476  -28.6720 H   0  0  0  0  0  0  0  0  0  0  0  0
   -4.1285   25.0408  -28.6720 H   0  0  0  0  0  0  0  0  0  0  0  0
    0.8086   20.8979  -31.2231 H   0  0  0  0  0  0  0  0  0  0  0  0
  1  2  1  0
  2  3  1  0
  3  4  2  0
  4  5  1  0
  5  6  2  0
  6  7  1  0
  7  8  2  0
  8  9  1  0
  9 10  2  0
 10 11  1  0
 11 12  1  0
 11 13  1  0
 13 14  2  0
 13 15  1  0
 15 16  2  0
 16 17  1  0
 17 18  1  0
 18 19  1  0
 18 20  1  0
 17 21  1  0
 21 22  2  0
  6 23  1  0
 23 24  1  0
 23 25  2  0
 25  3  1  0
 21  7  1  0
 16  9  1  0
  1 26  1  0
  1 27  1  0
  1 28  1  0
  4 29  1  0
  5 30  1  0
  8 31  1  0
 10 32  1  0
 12 33  1  0
 12 34  1  0
 12 35  1  0
 15 36  1  0
 18 37  1  0
 19 38  1  0
 19 39  1  0
 19 40  1  0
 20 41  1  0
 20 42  1  0
 20 43  1  0
 25 44  1  0
M  CHG  1  15   1
M  END
>  <UniqueID>  (44) 
42

>  <SMILES>  (44) 
CSc1ccc(-c2cc3cn(C)c(=O)[nH+]c3n(C(C)C)c2=O)c(F)c1

>  <Energy>  (44) 
67.16554606524237

>  <Genealogy>  (44) 
CSc1ccc(-c2cc3cn(C)c(=O)[nH+]c3n(C(C)C)c2=O)c(F)c1 (protonated)
CSc1ccc(-c2cc3cn(C)c(=O)[nH+]c3n(C(C)C)c2=O)c(F)c1 (3D coordinates assigned)
CSc1ccc(-c2cc3cn(C)c(=O)[nH+]c3n(C(C)C)c2=O)c(F)c1 (optimized conformer: 67.16554606524237 kcal/mol)

>  <smiles>  (44) 
CSc1ccc(-c2cc3cn(C)c(=O)nc3n(C(C)C)c2=O)c(F)c1

>  <score_type>  (44) 
oracle

>  <origin>  (44) 
adg

>  <m_score__min__energy>  (44) 
-6.9199999999999999

>  <m_primary>  (44) 
energy

$$$$
45:0
     RDKit          3D

 39 41  0  0  0  0  0  0  0  0999 V2000
    1.7770   24.4070  -27.3530 C   0  0  0  0  0  0  0  0  0  0  0  0
    0.9350   24.5290  -28.4940 O   0  0  0  0  0  0  0  0  0  0  0  0
   -0.2550   23.8080  -28.6870 C   0  0  0  0  0  0  0  0  0  0  0  0
   -0.2820   22.4020  -28.6540 C   0  0  0  0  0  0  0  0  0  0  0  0
   -1.4800   21.7180  -28.8430 C   0  0  0  0  0  0  0  0  0  0  0  0
   -2.6600   22.4210  -29.0700 C   0  0  0  0  0  0  0  0  0  0  0  0
   -2.6580   23.8260  -29.1280 C   0  0  0  0  0  0  0  0  0  0  0  0
   -3.8930   24.5290  -29.3320 N   0  0  0  0  0  0  0  0  0  0  0  0
   -4.6400   24.5950  -30.5550 C   0  0  0  0  0  0  0  0  0  0  0  0
   -4.6520   25.6790  -31.1960 O   0  0  0  0  0  0  0  0  0  0  0  0
   -5.3480   23.4160  -31.1060 C   0  0  0  0  0  0  0  0  0  0  0  0
   -4.6420   22.4570  -31.8570 C   0  0  0  0  0  0  0  0  0  0  0  0
   -5.3010   21.3380  -32.3790 C   0  0  0  0  0  0  0  0  0  0  0  0
   -6.6660   21.1620  -32.1430 C   0  0  0  0  0  0  0  0  0  0  0  0
   -7.3800   22.1170  -31.4090 C   0  0  0  0  0  0  0  0  0  0  0  0
   -6.7240   23.2280  -30.8730 C   0  0  0  0  0  0  0  0  0  0  0  0
   -8.7550   21.9390  -31.2190 O   0  0  0  0  0  0  0  0  0  0  0  0
   -9.4860   20.9760  -31.9830 C   0  0  0  0  0  0  0  0  0  0  0  0
   -8.6500   19.7030  -32.1730 C   0  0  0  0  0  0  0  0  0  0  0  0
   -7.3380   20.0370  -32.6330 O   0  0  0  0  0  0  0  0  0  0  0  0
   -1.4390   24.5300  -28.9220 C   0  0  0  0  0  0  0  0  0  0  0  0
   -1.3250   25.9340  -28.9490 O   0  0  0  0  0  0  0  0  0  0  0  0
   -0.8830   26.7760  -27.8900 C   0  0  0  0  0  0  0  0  0  0  0  0
    1.1711   24.4948  -26.4391 H   0  0  0  0  0  0  0  0  0  0  0  0
    2.2765   23.4271  -27.3690 H   0  0  0  0  0  0  0  0  0  0  0  0
    2.5341   25.2048  -27.3690 H   0  0  0  0  0  0  0  0  0  0  0  0
    0.6474   21.8404  -28.4781 H   0  0  0  0  0  0  0  0  0  0  0  0
   -1.4941   20.6185  -28.8129 H   0  0  0  0  0  0  0  0  0  0  0  0
   -3.6035   21.8718  -29.2054 H   0  0  0  0  0  0  0  0  0  0  0  0
   -3.5644   22.5882  -32.0348 H   0  0  0  0  0  0  0  0  0  0  0  0
   -4.7448   20.5987  -32.9740 H   0  0  0  0  0  0  0  0  0  0  0  0
   -7.2832   23.9570  -30.2681 H   0  0  0  0  0  0  0  0  0  0  0  0
  -10.4168   20.7235  -31.4539 H   0  0  0  0  0  0  0  0  0  0  0  0
   -9.7181   21.4029  -32.9698 H   0  0  0  0  0  0  0  0  0  0  0  0
   -8.5739   19.1718  -31.2128 H   0  0  0  0  0  0  0  0  0  0  0  0
   -9.1393   19.0609  -32.9202 H   0  0  0  0  0  0  0  0  0  0  0  0
   -1.1278   26.3097  -26.9243 H   0  0  0  0  0  0  0  0  0  0  0  0
    0.2054   26.9171  -27.9636 H   0  0  0  0  0  0  0  0  0  0  0  0
   -1.3850   27.7520  -27.9636 H   0  0  0  0  0  0  0  0  0  0  0  0
  1  2  1  0
  2  3  1  0
  3  4  2  0
  4  5  1  0
  5  6  2  0
  6  7  1  0
  7  8  1  0
  8  9  1  0
  9 10  2  0
  9 11  1  0
 11 12  2  0
 12 13  1  0
 13 14  2  0
 14 15  1  0
 15 16  2  0
 15 17  1  0
 17 18  1  0
 18 19  1  0
 19 20  1  0
  7 21  2  0
 21 22  1  0
 22 23  1  0
 21  3  1  0
 16 11  1  0
 20 14  1  0
  1 24  1  0
  1 25  1  0
  1 26  1  0
  4 27  1  0
  5 28  1  0
  6 29  1  0
 12 30  1  0
 13 31  1  0
 16 32  1  0
 18 33  1  0
 18 34  1  0
 19 35  1  0
 19 36  1  0
 23 37  1  0
 23 38  1  0
 23 39  1  0
M  CHG  1   8  -1
M  END
>  <UniqueID>  (45) 
43

>  <SMILES>  (45) 
COc1cccc([N-]C(=O)c2ccc3c(c2)OCCO3)c1OC

>  <Energy>  (45) 
51.20694143787646

>  <Genealogy>  (45) 
COc1cccc([N-]C(=O)c2ccc3c(c2)OCCO3)c1OC (protonated)
COc1cccc([N-]C(=O)c2ccc3c(c2)OCCO3)c1OC (3D coordinates assigned)
COc1cccc([N-]C(=O)c2ccc3c(c2)OCCO3)c1OC (nonaromatic ring conformer: 51.20694143787646 kcal/mol)

>  <smiles>  (45) 
COc1cccc(NC(=O)c2ccc3c(c2)OCCO3)c1OC

>  <score_type>  (45) 
oracle

>  <origin>  (45) 
adg

>  <m_score__min__energy>  (45) 
-9.4199999999999999

>  <m_primary>  (45) 
energy

$$$$
46:0
     RDKit          3D

 45 48  0  0  0  0  0  0  0  0999 V2000
   -2.1604   19.1866  -35.0122 H   0  0  0  0  0  0  0  0  0  0  0  0
   -1.8580   19.6670  -34.0700 C   0  0  0  0  0  0  0  0  0  0  0  0
   -1.2370   20.9180  -34.0920 C   0  0  0  0  0  0  0  0  0  0  0  0
   -1.0521   21.4225  -35.0519 H   0  0  0  0  0  0  0  0  0  0  0  0
   -0.8500   21.5300  -32.8960 C   0  0  0  0  0  0  0  0  0  0  0  0
   -0.3614   22.5153  -32.9175 H   0  0  0  0  0  0  0  0  0  0  0  0
   -1.0830   20.8910  -31.6670 C   0  0  0  0  0  0  0  0  0  0  0  0
   -0.6490   21.5480  -30.3750 C   0  0  0  0  0  0  0  0  0  0  0  0
    0.2005   22.2149  -30.5838 H   0  0  0  0  0  0  0  0  0  0  0  0
   -0.3675   20.7536  -29.6682 H   0  0  0  0  0  0  0  0  0  0  0  0
   -1.7410   22.3420  -29.7600 N   0  0  1  0  0  0  0  0  0  0  0  0
   -2.4150   22.6280  -30.5090 H   0  0  0  0  0  0  0  0  0  0  0  0
   -2.4750   21.4980  -28.7970 C   0  0  0  0  0  0  0  0  0  0  0  0
   -2.2133   21.7989  -27.7718 H   0  0  0  0  0  0  0  0  0  0  0  0
   -3.5571   21.6224  -28.9507 H   0  0  0  0  0  0  0  0  0  0  0  0
   -2.2017   20.4437  -28.9507 H   0  0  0  0  0  0  0  0  0  0  0  0
   -1.2040   23.5520  -29.0890 C   0  0  0  0  0  0  0  0  0  0  0  0
   -0.8605   23.2773  -28.0807 H   0  0  0  0  0  0  0  0  0  0  0  0
   -0.3737   23.9404  -29.6970 H   0  0  0  0  0  0  0  0  0  0  0  0
   -2.2420   24.6310  -28.9720 C   0  0  0  0  0  0  0  0  0  0  0  0
   -2.3280   25.3010  -27.9070 O   0  0  0  0  0  0  0  0  0  0  0  0
   -3.1320   24.8700  -30.0750 N   0  0  0  0  0  0  0  0  0  0  0  0
   -3.9580   24.0110  -30.5910 C   0  0  0  0  0  0  0  0  0  0  0  0
   -3.6130   23.0830  -31.5180 N   0  0  0  0  0  0  0  0  0  0  0  0
   -4.6880   22.3310  -31.8700 C   0  0  0  0  0  0  0  0  0  0  0  0
   -4.6420   21.2960  -32.8050 C   0  0  0  0  0  0  0  0  0  0  0  0
   -3.6983   21.0413  -33.3096 H   0  0  0  0  0  0  0  0  0  0  0  0
   -5.8170   20.5850  -33.0920 C   0  0  0  0  0  0  0  0  0  0  0  0
   -5.7933   19.7661  -33.8260 H   0  0  0  0  0  0  0  0  0  0  0  0
   -7.0310   20.9120  -32.4460 C   0  0  0  0  0  0  0  0  0  0  0  0
   -8.2060   20.1990  -32.7340 C   0  0  0  0  0  0  0  0  0  0  0  0
   -8.1848   19.3796  -33.4675 H   0  0  0  0  0  0  0  0  0  0  0  0
   -9.4020   20.5280  -32.0910 C   0  0  0  0  0  0  0  0  0  0  0  0
  -10.3194   19.9666  -32.3216 H   0  0  0  0  0  0  0  0  0  0  0  0
   -9.4390   21.5670  -31.1560 C   0  0  0  0  0  0  0  0  0  0  0  0
  -10.3847   21.8189  -30.6538 H   0  0  0  0  0  0  0  0  0  0  0  0
   -8.2780   22.2870  -30.8570 C   0  0  0  0  0  0  0  0  0  0  0  0
   -8.3120   23.1044  -30.1217 H   0  0  0  0  0  0  0  0  0  0  0  0
   -7.0690   21.9670  -31.4950 C   0  0  0  0  0  0  0  0  0  0  0  0
   -5.8780   22.6560  -31.2330 C   0  0  0  0  0  0  0  0  0  0  0  0
   -5.5940   23.9390  -30.1760 S   0  0  0  0  0  0  0  0  0  0  0  0
   -1.7090   19.6340  -31.6530 C   0  0  0  0  0  0  0  0  0  0  0  0
   -1.8964   19.1257  -30.6956 H   0  0  0  0  0  0  0  0  0  0  0  0
   -2.0950   19.0260  -32.8520 C   0  0  0  0  0  0  0  0  0  0  0  0
   -2.5859   18.0417  -32.8356 H   0  0  0  0  0  0  0  0  0  0  0  0
  1  2  1  0
  2  3  2  0
  3  4  1  0
  3  5  1  0
  5  6  1  0
  5  7  2  0
  7  8  1  0
  8  9  1  0
  8 10  1  0
  8 11  1  0
 11 12  1  6
 11 13  1  0
 13 14  1  0
 13 15  1  0
 13 16  1  0
 11 17  1  0
 17 18  1  0
 17 19  1  0
 17 20  1  0
 20 21  2  0
 20 22  1  0
 22 23  2  0
 23 24  1  0
 24 25  1  0
 25 26  2  0
 26 27  1  0
 26 28  1  0
 28 29  1  0
 28 30  2  0
 30 31  1  0
 31 32  1  0
 31 33  2  0
 33 34  1  0
 33 35  1  0
 35 36  1  0
 35 37  2  0
 37 38  1  0
 37 39  1  0
 39 40  2  0
 40 41  1  0
  7 42  1  0
 42 43  1  0
 42 44  2  0
 44 45  1  0
 44  2  1  0
 41 23  1  0
 40 25  1  0
 39 30  1  0
M  CHG  2  11   1  24  -1
M  END
>  <UniqueID>  (46) 
44

>  <SMILES>  (46) 
C[N@@H+](CC(=O)/N=c1\[n-]c2ccc3ccccc3c2s1)Cc1ccccc1

>  <Energy>  (46) 
90.56098777622607

>  <Genealogy>  (46) 
C[NH+](CC(=O)N=c1[n-]c2ccc3ccccc3c2s1)Cc1ccccc1 (protonated)
C[N@@H+](CC(=O)N=c1[n-]c2ccc3ccccc3c2s1)Cc1ccccc1 (chirality)
C[N@@H+](CC(=O)/N=c1\[n-]c2ccc3ccccc3c2s1)Cc1ccccc1 (cis-trans isomerization)
C[N@@H+](CC(=O)/N=c1\[n-]c2ccc3ccccc3c2s1)Cc1ccccc1 (3D coordinates assigned)
C[N@@H+](CC(=O)/N=c1\[n-]c2ccc3ccccc3c2s1)Cc1ccccc1 (optimized conformer: 90.56098777622607 kcal/mol)

>  <smiles>  (46) 
CN(CC(=O)N=c1[nH]c2ccc3ccccc3c2s1)Cc1ccccc1

>  <score_type>  (46) 
oracle

>  <origin>  (46) 
adg

>  <m_score__min__energy>  (46) 
-9.1600000000000001

>  <m_primary>  (46) 
energy

$$$$
47:0
     RDKit          3D

 58 60  0  0  0  0  0  0  0  0999 V2000
   -2.7260   24.4810  -27.4830 C   0  0  0  0  0  0  0  0  0  0  0  0
   -4.2380   24.2910  -27.3460 C   0  0  0  0  0  0  0  0  0  0  0  0
   -4.9870   24.5600  -28.6570 C   0  0  0  0  0  0  0  0  0  0  0  0
   -4.3290   23.8850  -29.8250 C   0  0  0  0  0  0  0  0  0  0  0  0
   -3.9070   24.5890  -30.7830 O   0  0  0  0  0  0  0  0  0  0  0  0
   -4.1110   22.4650  -29.8060 N   0  0  0  0  0  0  0  0  0  0  0  0
   -3.5890   21.7200  -30.9180 C   0  0  0  0  0  0  0  0  0  0  0  0
   -3.9610   22.0190  -32.2410 C   0  0  0  0  0  0  0  0  0  0  0  0
   -3.4480   21.2710  -33.3040 C   0  0  0  0  0  0  0  0  0  0  0  0
   -2.5610   20.2110  -33.0640 C   0  0  0  0  0  0  0  0  0  0  0  0
   -1.9500   19.4500  -34.2160 C   0  0  0  0  0  0  0  0  0  0  0  0
   -2.3560   17.9660  -34.2080 C   0  0  0  0  0  0  0  0  0  0  0  0
   -3.7120   17.7720  -33.6510 N   0  0  0  0  0  0  0  0  0  0  0  0
   -3.9410   16.3640  -33.2920 C   0  0  0  0  0  0  0  0  0  0  0  0
   -5.2620   16.2160  -32.5060 C   0  0  0  0  0  0  0  0  0  0  0  0
   -6.2020   17.3430  -32.7180 N   0  0  0  0  0  0  0  0  0  0  0  0
   -6.0040   18.4400  -31.7400 C   0  0  0  0  0  0  0  0  0  0  0  0
   -7.1200   19.4480  -31.8320 C   0  0  0  0  0  0  0  0  0  0  0  0
   -6.8600   20.8100  -31.6020 C   0  0  0  0  0  0  0  0  0  0  0  0
   -7.8960   21.7470  -31.6790 C   0  0  0  0  0  0  0  0  0  0  0  0
   -9.1960   21.3330  -31.9800 C   0  0  0  0  0  0  0  0  0  0  0  0
   -9.4640   19.9780  -32.2020 C   0  0  0  0  0  0  0  0  0  0  0  0
   -8.4310   19.0370  -32.1280 C   0  0  0  0  0  0  0  0  0  0  0  0
   -6.1730   17.8040  -34.1230 C   0  0  0  0  0  0  0  0  0  0  0  0
   -4.7620   18.2400  -34.5800 C   0  0  0  0  0  0  0  0  0  0  0  0
   -2.2190   19.8900  -31.7400 C   0  0  0  0  0  0  0  0  0  0  0  0
   -2.7360   20.6340  -30.6770 C   0  0  0  0  0  0  0  0  0  0  0  0
   -2.2715   24.5381  -26.4829 H   0  0  0  0  0  0  0  0  0  0  0  0
   -2.2977   23.6296  -28.0323 H   0  0  0  0  0  0  0  0  0  0  0  0
   -2.5217   25.4119  -28.0323 H   0  0  0  0  0  0  0  0  0  0  0  0
   -4.4361   23.2552  -27.0332 H   0  0  0  0  0  0  0  0  0  0  0  0
   -4.5989   25.0156  -26.6012 H   0  0  0  0  0  0  0  0  0  0  0  0
   -6.0164   24.1839  -28.5623 H   0  0  0  0  0  0  0  0  0  0  0  0
   -4.9769   25.6447  -28.8395 H   0  0  0  0  0  0  0  0  0  0  0  0
   -4.2440   21.9610  -28.9000 H   0  0  0  0  0  0  0  0  0  0  0  0
   -4.6590   22.8455  -32.4399 H   0  0  0  0  0  0  0  0  0  0  0  0
   -3.7416   21.5149  -34.3357 H   0  0  0  0  0  0  0  0  0  0  0  0
   -2.2858   19.9047  -35.1596 H   0  0  0  0  0  0  0  0  0  0  0  0
   -0.8559   19.5029  -34.1153 H   0  0  0  0  0  0  0  0  0  0  0  0
   -2.3370   17.5858  -35.2400 H   0  0  0  0  0  0  0  0  0  0  0  0
   -1.6434   17.4194  -33.5728 H   0  0  0  0  0  0  0  0  0  0  0  0
   -3.9960   15.7604  -34.2099 H   0  0  0  0  0  0  0  0  0  0  0  0
   -3.1097   16.0174  -32.6605 H   0  0  0  0  0  0  0  0  0  0  0  0
   -5.7551   15.2858  -32.8247 H   0  0  0  0  0  0  0  0  0  0  0  0
   -5.0044   16.2043  -31.4367 H   0  0  0  0  0  0  0  0  0  0  0  0
   -5.9823   18.0179  -30.7244 H   0  0  0  0  0  0  0  0  0  0  0  0
   -5.0534   18.9455  -31.9655 H   0  0  0  0  0  0  0  0  0  0  0  0
   -5.8388   21.1402  -31.3607 H   0  0  0  0  0  0  0  0  0  0  0  0
   -7.6866   22.8123  -31.5021 H   0  0  0  0  0  0  0  0  0  0  0  0
  -10.0083   22.0721  -32.0424 H   0  0  0  0  0  0  0  0  0  0  0  0
  -10.4883   19.6518  -32.4351 H   0  0  0  0  0  0  0  0  0  0  0  0
   -8.6457   17.9723  -32.3020 H   0  0  0  0  0  0  0  0  0  0  0  0
   -6.5139   16.9822  -34.7699 H   0  0  0  0  0  0  0  0  0  0  0  0
   -6.8319   18.6816  -34.1979 H   0  0  0  0  0  0  0  0  0  0  0  0
   -4.5662   17.8209  -35.5780 H   0  0  0  0  0  0  0  0  0  0  0  0
   -4.7347   19.3395  -34.5989 H   0  0  0  0  0  0  0  0  0  0  0  0
   -1.5402   19.0480  -31.5392 H   0  0  0  0  0  0  0  0  0  0  0  0
   -2.4720   20.3659  -29.6434 H   0  0  0  0  0  0  0  0  0  0  0  0
  1  2  1  0
  2  3  1  0
  3  4  1  0
  4  5  2  0
  4  6  1  0
  6  7  1  0
  7  8  2  0
  8  9  1  0
  9 10  2  0
 10 11  1  0
 11 12  1  0
 12 13  1  0
 13 14  1  0
 14 15  1  0
 15 16  1  0
 16 17  1  0
 17 18  1  0
 18 19  2  0
 19 20  1  0
 20 21  2  0
 21 22  1  0
 22 23  2  0
 16 24  1  0
 24 25  1  0
 10 26  1  0
 26 27  2  0
 27  7  1  0
 25 13  1  0
 23 18  1  0
  1 28  1  0
  1 29  1  0
  1 30  1  0
  2 31  1  0
  2 32  1  0
  3 33  1  0
  3 34  1  0
  6 35  1  0
  8 36  1  0
  9 37  1  0
 11 38  1  0
 11 39  1  0
 12 40  1  0
 12 41  1  0
 14 42  1  0
 14 43  1  0
 15 44  1  0
 15 45  1  0
 17 46  1  0
 17 47  1  0
 19 48  1  0
 20 49  1  0
 21 50  1  0
 22 51  1  0
 23 52  1  0
 24 53  1  0
 24 54  1  0
 25 55  1  0
 25 56  1  0
 26 57  1  0
 27 58  1  0
M  END
>  <UniqueID>  (47) 
45

>  <SMILES>  (47) 
CCCC(=O)Nc1ccc(CCN2CCN(Cc3ccccc3)CC2)cc1

>  <Energy>  (47) 
63.18263096527082

>  <Genealogy>  (47) 
CCCC(=O)Nc1ccc(CCN2CCN(Cc3ccccc3)CC2)cc1 (3D coordinates assigned)
CCCC(=O)Nc1ccc(CCN2CCN(Cc3ccccc3)CC2)cc1 (nonaromatic ring conformer: 63.18263096527082 kcal/mol)

>  <smiles>  (47) 
CCCC(=O)Nc1ccc(CCN2CCN(Cc3ccccc3)CC2)cc1

>  <score_type>  (47) 
oracle

>  <origin>  (47) 
adg

>  <m_score__min__energy>  (47) 
-8.8699999999999992

>  <m_primary>  (47) 
energy

$$$$
48:0
     RDKit          3D

 31 33  0  0  0  0  0  0  0  0999 V2000
   -6.3500   13.5730  -34.3780 C   0  0  0  0  0  0  0  0  0  0  0  0
   -6.9970   14.8250  -34.5840 O   0  0  0  0  0  0  0  0  0  0  0  0
   -6.5130   16.0540  -34.1110 C   0  0  0  0  0  0  0  0  0  0  0  0
   -7.2190   16.6960  -33.0880 C   0  0  0  0  0  0  0  0  0  0  0  0
   -6.7790   17.9230  -32.5840 C   0  0  0  0  0  0  0  0  0  0  0  0
   -5.6230   18.5320  -33.1000 C   0  0  0  0  0  0  0  0  0  0  0  0
   -5.1530   19.8300  -32.5550 C   0  0  0  0  0  0  0  0  0  0  0  0
   -3.8000   19.9980  -32.2140 C   0  0  0  0  0  0  0  0  0  0  0  0
   -3.3550   21.1520  -31.7310 O   0  0  0  0  0  0  0  0  0  0  0  0
   -4.1460   22.2030  -31.5410 C   0  0  0  0  0  0  0  0  0  0  0  0
   -3.6080   23.3890  -31.0300 C   0  0  0  0  0  0  0  0  0  0  0  0
   -4.4300   24.5010  -30.8230 C   0  0  0  0  0  0  0  0  0  0  0  0
   -3.8920   25.6770  -30.3150 O   0  0  0  0  0  0  0  0  0  0  0  0
   -5.7930   24.4310  -31.1260 C   0  0  0  0  0  0  0  0  0  0  0  0
   -6.3410   23.2510  -31.6360 C   0  0  0  0  0  0  0  0  0  0  0  0
   -5.5220   22.1260  -31.8500 C   0  0  0  0  0  0  0  0  0  0  0  0
   -6.0270   20.9170  -32.3580 C   0  0  0  0  0  0  0  0  0  0  0  0
   -7.2570   20.7990  -32.6190 O   0  0  0  0  0  0  0  0  0  0  0  0
   -4.9090   17.8830  -34.1230 C   0  0  0  0  0  0  0  0  0  0  0  0
   -5.3510   16.6570  -34.6260 C   0  0  0  0  0  0  0  0  0  0  0  0
   -6.2523   13.3839  -33.2988 H   0  0  0  0  0  0  0  0  0  0  0  0
   -6.9469   12.7717  -34.8381 H   0  0  0  0  0  0  0  0  0  0  0  0
   -5.3511   13.5964  -34.8381 H   0  0  0  0  0  0  0  0  0  0  0  0
   -8.1275   16.2314  -32.6771 H   0  0  0  0  0  0  0  0  0  0  0  0
   -7.3419   18.4155  -31.7774 H   0  0  0  0  0  0  0  0  0  0  0  0
   -3.0992   19.1610  -32.3493 H   0  0  0  0  0  0  0  0  0  0  0  0
   -2.5359   23.4468  -30.7905 H   0  0  0  0  0  0  0  0  0  0  0  0
   -6.4365   25.3080  -30.9623 H   0  0  0  0  0  0  0  0  0  0  0  0
   -7.4145   23.2010  -31.8707 H   0  0  0  0  0  0  0  0  0  0  0  0
   -3.9967   18.3437  -34.5297 H   0  0  0  0  0  0  0  0  0  0  0  0
   -4.7872   16.1603  -35.4294 H   0  0  0  0  0  0  0  0  0  0  0  0
  1  2  1  0
  2  3  1  0
  3  4  2  0
  4  5  1  0
  5  6  2  0
  6  7  1  0
  7  8  2  0
  8  9  1  0
  9 10  1  0
 10 11  2  0
 11 12  1  0
 12 13  1  0
 12 14  2  0
 14 15  1  0
 15 16  2  0
 16 17  1  0
 17 18  2  0
  6 19  1  0
 19 20  2  0
 20  3  1  0
 17  7  1  0
 16 10  1  0
  1 21  1  0
  1 22  1  0
  1 23  1  0
  4 24  1  0
  5 25  1  0
  8 26  1  0
 11 27  1  0
 14 28  1  0
 15 29  1  0
 19 30  1  0
 20 31  1  0
M  CHG  1  13  -1
M  END
>  <UniqueID>  (48) 
46

>  <SMILES>  (48) 
COc1ccc(-c2coc3cc([O-])ccc3c2=O)cc1

>  <Energy>  (48) 
45.47020852715838

>  <Genealogy>  (48) 
COc1ccc(-c2coc3cc([O-])ccc3c2=O)cc1 (protonated)
COc1ccc(-c2coc3cc([O-])ccc3c2=O)cc1 (3D coordinates assigned)
COc1ccc(-c2coc3cc([O-])ccc3c2=O)cc1 (optimized conformer: 45.47020852715838 kcal/mol)

>  <smiles>  (48) 
COc1ccc(-c2coc3cc(O)ccc3c2=O)cc1

>  <score_type>  (48) 
oracle

>  <origin>  (48) 
adg

>  <m_score__min__energy>  (48) 
-9.3000000000000007

>  <m_primary>  (48) 
energy

$$$$
