0:0
     RDKit          3D

 51 51  0  0  0  0  0  0  0  0999 V2000
   -7.1430   17.4640  -32.6670 C   0  0  0  0  0  0  0  0  0  0  0  0
   -8.3160   18.2280  -32.0520 C   0  0  0  0  0  0  0  0  0  0  0  0
   -8.0580   19.7400  -31.9850 C   0  0  0  0  0  0  0  0  0  0  0  0
   -9.3280   20.5820  -32.2530 C   0  0  0  0  0  0  0  0  0  0  0  0
   -9.4390   21.8060  -31.3310 C   0  0  0  0  0  0  0  0  0  0  0  0
   -8.1500   22.5060  -31.2170 N   0  0  0  0  0  0  0  0  0  0  0  0
   -7.5790   23.0510  -32.3340 C   0  0  0  0  0  0  0  0  0  0  0  0
   -6.3730   23.7510  -32.2510 C   0  0  0  0  0  0  0  0  0  0  0  0
   -5.7330   23.8880  -31.0050 C   0  0  0  0  0  0  0  0  0  0  0  0
   -4.6060   24.5290  -30.8560 N   0  0  0  0  0  0  0  0  0  0  0  0
   -3.5680   24.2860  -29.8510 C   0  0  0  0  0  0  0  0  0  0  0  0
   -2.6190   23.1610  -30.2900 C   0  0  0  0  0  0  0  0  0  0  0  0
   -3.3280   21.7990  -30.3390 C   0  0  0  0  0  0  0  0  0  0  0  0
   -3.0320   21.1040  -31.6110 N   0  0  0  0  0  0  0  0  0  0  0  0
   -3.8960   21.5540  -32.7270 C   0  0  0  0  0  0  0  0  0  0  0  0
   -4.9920   20.5470  -33.1050 C   0  0  0  0  0  0  0  0  0  0  0  0
   -1.5920   21.1000  -31.9610 C   0  0  0  0  0  0  0  0  0  0  0  0
   -1.4390   21.1500  -33.4760 C   0  0  0  0  0  0  0  0  0  0  0  0
   -6.3320   23.3190  -29.8780 C   0  0  0  0  0  0  0  0  0  0  0  0
   -7.5380   22.6280  -30.0010 C   0  0  0  0  0  0  0  0  0  0  0  0
   -6.5122   17.0531  -31.8650 H   0  0  0  0  0  0  0  0  0  0  0  0
   -7.5267   16.6420  -33.2892 H   0  0  0  0  0  0  0  0  0  0  0  0
   -6.5463   18.1472  -33.2892 H   0  0  0  0  0  0  0  0  0  0  0  0
   -9.2132   18.0493  -32.6628 H   0  0  0  0  0  0  0  0  0  0  0  0
   -8.4507   17.8645  -31.0226 H   0  0  0  0  0  0  0  0  0  0  0  0
   -7.6788   19.9869  -30.9824 H   0  0  0  0  0  0  0  0  0  0  0  0
   -7.3288   19.9847  -32.7713 H   0  0  0  0  0  0  0  0  0  0  0  0
   -9.3051   20.9294  -33.2964 H   0  0  0  0  0  0  0  0  0  0  0  0
  -10.1983   19.9392  -32.0547 H   0  0  0  0  0  0  0  0  0  0  0  0
  -10.1879   22.4985  -31.7428 H   0  0  0  0  0  0  0  0  0  0  0  0
   -9.7376   21.4615  -30.3299 H   0  0  0  0  0  0  0  0  0  0  0  0
   -8.0752   22.9368  -33.3090 H   0  0  0  0  0  0  0  0  0  0  0  0
   -5.9262   24.1925  -33.1540 H   0  0  0  0  0  0  0  0  0  0  0  0
   -2.9870   25.2086  -29.7056 H   0  0  0  0  0  0  0  0  0  0  0  0
   -4.0566   23.9821  -28.9135 H   0  0  0  0  0  0  0  0  0  0  0  0
   -2.2294   23.3952  -31.2917 H   0  0  0  0  0  0  0  0  0  0  0  0
   -1.8051   23.0950  -29.5530 H   0  0  0  0  0  0  0  0  0  0  0  0
   -2.9800   21.1798  -29.4991 H   0  0  0  0  0  0  0  0  0  0  0  0
   -4.4136   21.9613  -30.2675 H   0  0  0  0  0  0  0  0  0  0  0  0
   -4.3783   22.4981  -32.4337 H   0  0  0  0  0  0  0  0  0  0  0  0
   -3.2480   21.6693  -33.6084 H   0  0  0  0  0  0  0  0  0  0  0  0
   -5.4417   20.1338  -32.1901 H   0  0  0  0  0  0  0  0  0  0  0  0
   -5.7674   21.0543  -33.6978 H   0  0  0  0  0  0  0  0  0  0  0  0
   -4.5520   19.7315  -33.6978 H   0  0  0  0  0  0  0  0  0  0  0  0
   -1.1032   21.9780  -31.5137 H   0  0  0  0  0  0  0  0  0  0  0  0
   -1.1226   20.1833  -31.5745 H   0  0  0  0  0  0  0  0  0  0  0  0
   -0.4219   21.4824  -33.7310 H   0  0  0  0  0  0  0  0  0  0  0  0
   -1.6133   20.1481  -33.8954 H   0  0  0  0  0  0  0  0  0  0  0  0
   -2.1713   21.8556  -33.8954 H   0  0  0  0  0  0  0  0  0  0  0  0
   -5.8523   23.4159  -28.8929 H   0  0  0  0  0  0  0  0  0  0  0  0
   -8.0006   22.1771  -29.1107 H   0  0  0  0  0  0  0  0  0  0  0  0
  1  2  1  0
  2  3  1  0
  3  4  1  0
  4  5  1  0
  5  6  1  0
  6  7  1  0
  7  8  2  0
  8  9  1  0
  9 10  2  3
 10 11  1  0
 11 12  1  0
 12 13  1  0
 13 14  1  0
 14 15  1  0
 15 16  1  0
 14 17  1  0
 17 18  1  0
  9 19  1  0
 19 20  2  0
 20  6  1  0
  1 21  1  0
  1 22  1  0
  1 23  1  0
  2 24  1  0
  2 25  1  0
  3 26  1  0
  3 27  1  0
  4 28  1  0
  4 29  1  0
  5 30  1  0
  5 31  1  0
  7 32  1  0
  8 33  1  0
 11 34  1  0
 11 35  1  0
 12 36  1  0
 12 37  1  0
 13 38  1  0
 13 39  1  0
 15 40  1  0
 15 41  1  0
 16 42  1  0
 16 43  1  0
 16 44  1  0
 17 45  1  0
 17 46  1  0
 18 47  1  0
 18 48  1  0
 18 49  1  0
 19 50  1  0
 20 51  1  0
M  END
>  <UniqueID>  (1) 
1

>  <SMILES>  (1) 
CCCCCn1ccc(=NCCCN(CC)CC)cc1

>  <Energy>  (1) 
42.74108446619648

>  <Genealogy>  (1) 
CCCCCn1ccc(=NCCCN(CC)CC)cc1 (3D coordinates assigned)
CCCCCn1ccc(=NCCCN(CC)CC)cc1 (optimized conformer: 42.74108446619648 kcal/mol)

>  <smiles>  (1) 
CCCCCn1ccc(=NCCCN(CC)CC)cc1

>  <score_type>  (1) 
oracle

>  <origin>  (1) 
adg

>  <m_score__min__energy>  (1) 
-6.2400000000000002

>  <m_primary>  (1) 
energy

$$$$
1:0
     RDKit          3D

 44 46  0  0  0  0  0  0  0  0999 V2000
   -8.1880   22.6400  -31.2150 C   0  0  0  0  0  0  0  0  0  0  0  0
   -6.9510   22.4530  -30.3450 C   0  0  0  0  0  0  0  0  0  0  0  0
   -6.0730   23.6190  -30.4480 N   0  0  0  0  0  0  0  0  0  0  0  0
   -6.4740   24.9010  -30.4430 C   0  0  0  0  0  0  0  0  0  0  0  0
   -5.3560   25.7010  -30.4770 C   0  0  0  0  0  0  0  0  0  0  0  0
   -4.2510   24.9330  -30.4920 N   0  0  0  0  0  0  0  0  0  0  0  0
   -4.7190   23.6650  -30.4740 C   0  0  0  0  0  0  0  0  0  0  0  0
   -3.8050   22.4620  -30.4530 C   0  0  0  0  0  0  0  0  0  0  0  0
   -3.0760   22.2500  -31.7240 N   0  0  0  0  0  0  0  0  0  0  0  0
   -3.9250   22.2480  -32.9400 C   0  0  0  0  0  0  0  0  0  0  0  0
   -3.8030   20.9630  -33.7730 C   0  0  0  0  0  0  0  0  0  0  0  0
   -3.6600   19.7950  -32.8930 N   0  0  0  0  0  0  0  0  0  0  0  0
   -4.4450   18.5920  -33.0620 C   0  0  0  0  0  0  0  0  0  0  0  0
   -4.0690   17.5270  -32.4950 O   0  0  0  0  0  0  0  0  0  0  0  0
   -5.6960   18.5800  -33.9050 C   0  0  0  0  0  0  0  0  0  0  0  0
   -6.9410   18.7580  -33.0880 C   0  0  0  0  0  0  0  0  0  0  0  0
   -7.5290   17.7950  -32.2790 C   0  0  0  0  0  0  0  0  0  0  0  0
   -8.7240   18.2240  -31.6900 C   0  0  0  0  0  0  0  0  0  0  0  0
   -9.0850   19.5200  -32.0430 C   0  0  0  0  0  0  0  0  0  0  0  0
   -7.9180   20.1270  -33.0900 S   0  0  0  0  0  0  0  0  0  0  0  0
   -2.5760   19.8010  -31.9030 C   0  0  0  0  0  0  0  0  0  0  0  0
   -2.0210   21.2170  -31.6780 C   0  0  0  0  0  0  0  0  0  0  0  0
   -9.0711   22.7735  -30.5729 H   0  0  0  0  0  0  0  0  0  0  0  0
   -8.0587   23.5288  -31.8501 H   0  0  0  0  0  0  0  0  0  0  0  0
   -8.3272   21.7527  -31.8501 H   0  0  0  0  0  0  0  0  0  0  0  0
   -7.2609   22.3242  -29.2974 H   0  0  0  0  0  0  0  0  0  0  0  0
   -6.4039   21.5632  -30.6898 H   0  0  0  0  0  0  0  0  0  0  0  0
   -7.5166   25.2506  -30.4163 H   0  0  0  0  0  0  0  0  0  0  0  0
   -5.3637   26.8009  -30.4900 H   0  0  0  0  0  0  0  0  0  0  0  0
   -3.0680   22.5991  -29.6480 H   0  0  0  0  0  0  0  0  0  0  0  0
   -4.4391   21.5775  -30.2931 H   0  0  0  0  0  0  0  0  0  0  0  0
   -4.9745   22.3642  -32.6316 H   0  0  0  0  0  0  0  0  0  0  0  0
   -3.5812   23.0779  -33.5749 H   0  0  0  0  0  0  0  0  0  0  0  0
   -4.7058   20.8438  -34.3901 H   0  0  0  0  0  0  0  0  0  0  0  0
   -2.9135   21.0370  -34.4158 H   0  0  0  0  0  0  0  0  0  0  0  0
   -5.6352   19.3979  -34.6381 H   0  0  0  0  0  0  0  0  0  0  0  0
   -5.7573   17.5986  -34.3980 H   0  0  0  0  0  0  0  0  0  0  0  0
   -7.0990   16.7955  -32.1172 H   0  0  0  0  0  0  0  0  0  0  0  0
   -9.3209   17.5959  -31.0124 H   0  0  0  0  0  0  0  0  0  0  0  0
   -9.9808   20.0561  -31.6964 H   0  0  0  0  0  0  0  0  0  0  0  0
   -2.9623   19.4134  -30.9487 H   0  0  0  0  0  0  0  0  0  0  0  0
   -1.7601   19.1687  -32.2832 H   0  0  0  0  0  0  0  0  0  0  0  0
   -1.5343   21.2530  -30.6922 H   0  0  0  0  0  0  0  0  0  0  0  0
   -1.3079   21.4300  -32.4880 H   0  0  0  0  0  0  0  0  0  0  0  0
  1  2  1  0
  2  3  1  0
  3  4  1  0
  4  5  2  0
  5  6  1  0
  6  7  2  0
  7  8  1  0
  8  9  1  0
  9 10  1  0
 10 11  1  0
 11 12  1  0
 12 13  1  0
 13 14  2  0
 13 15  1  0
 15 16  1  0
 16 17  2  0
 17 18  1  0
 18 19  2  0
 19 20  1  0
 12 21  1  0
 21 22  1  0
  7  3  1  0
 22  9  1  0
 20 16  1  0
  1 23  1  0
  1 24  1  0
  1 25  1  0
  2 26  1  0
  2 27  1  0
  4 28  1  0
  5 29  1  0
  8 30  1  0
  8 31  1  0
 10 32  1  0
 10 33  1  0
 11 34  1  0
 11 35  1  0
 15 36  1  0
 15 37  1  0
 17 38  1  0
 18 39  1  0
 19 40  1  0
 21 41  1  0
 21 42  1  0
 22 43  1  0
 22 44  1  0
M  END
>  <UniqueID>  (2) 
2

>  <SMILES>  (2) 
CCn1ccnc1CN1CCN(C(=O)Cc2cccs2)CC1

>  <Energy>  (2) 
105.71015511642415

>  <Genealogy>  (2) 
CCn1ccnc1CN1CCN(C(=O)Cc2cccs2)CC1 (3D coordinates assigned)
CCn1ccnc1CN1CCN(C(=O)Cc2cccs2)CC1 (nonaromatic ring conformer: 105.71015511642415 kcal/mol)

>  <smiles>  (2) 
CCn1ccnc1CN1CCN(C(=O)Cc2cccs2)CC1

>  <score_type>  (2) 
oracle

>  <origin>  (2) 
adg

>  <m_score__min__energy>  (2) 
-7.4900000000000002

>  <m_primary>  (2) 
energy

$$$$
2:0
     RDKit          3D

 38 39  0  0  0  0  0  0  0  0999 V2000
   -3.4300   18.9230  -25.7950 N   0  0  0  0  0  0  0  0  0  0  0  0
   -3.1030   19.5030  -27.0990 C   0  0  0  0  0  0  0  0  0  0  0  0
   -2.1600   20.7090  -26.9710 C   0  0  0  0  0  0  0  0  0  0  0  0
   -2.5630   21.8370  -27.8860 C   0  0  0  0  0  0  0  0  0  0  0  0
   -1.9600   21.9740  -29.1450 C   0  0  0  0  0  0  0  0  0  0  0  0
   -2.3500   23.0020  -30.0080 C   0  0  0  0  0  0  0  0  0  0  0  0
   -3.3580   23.9060  -29.6250 C   0  0  0  0  0  0  0  0  0  0  0  0
   -3.7950   24.9520  -30.4550 O   0  0  0  0  0  0  0  0  0  0  0  0
   -5.1590   25.2640  -30.7390 C   0  0  0  0  0  0  0  0  0  0  0  0
   -5.9230   24.0260  -31.1280 C   0  0  0  0  0  0  0  0  0  0  0  0
   -7.2000   23.7800  -30.6040 C   0  0  0  0  0  0  0  0  0  0  0  0
   -7.9010   22.6250  -30.9630 C   0  0  0  0  0  0  0  0  0  0  0  0
   -7.3390   21.7000  -31.8610 C   0  0  0  0  0  0  0  0  0  0  0  0
   -8.0750   20.4310  -32.2100 C   0  0  0  0  0  0  0  0  0  0  0  0
   -7.8490   19.4890  -31.2240 F   0  0  0  0  0  0  0  0  0  0  0  0
   -9.4350   20.6660  -32.3070 F   0  0  0  0  0  0  0  0  0  0  0  0
   -7.6350   19.9290  -33.4230 F   0  0  0  0  0  0  0  0  0  0  0  0
   -6.0420   21.9300  -32.3520 C   0  0  0  0  0  0  0  0  0  0  0  0
   -5.3430   23.0850  -31.9930 C   0  0  0  0  0  0  0  0  0  0  0  0
   -3.9570   23.7660  -28.3680 C   0  0  0  0  0  0  0  0  0  0  0  0
   -3.5680   22.7390  -27.5050 C   0  0  0  0  0  0  0  0  0  0  0  0
   -4.3860   19.2370  -25.5130 H   0  0  0  0  0  0  0  0  0  0  0  0
   -2.7480   19.2480  -25.0720 H   0  0  0  0  0  0  0  0  0  0  0  0
   -3.4210   17.8790  -25.8500 H   0  0  0  0  0  0  0  0  0  0  0  0
   -2.6156   18.7349  -27.7174 H   0  0  0  0  0  0  0  0  0  0  0  0
   -4.0388   19.8503  -27.5612 H   0  0  0  0  0  0  0  0  0  0  0  0
   -2.1819   21.0689  -25.9318 H   0  0  0  0  0  0  0  0  0  0  0  0
   -1.1489   20.3831  -27.2564 H   0  0  0  0  0  0  0  0  0  0  0  0
   -1.1754   21.2681  -29.4551 H   0  0  0  0  0  0  0  0  0  0  0  0
   -1.8668   23.1048  -30.9908 H   0  0  0  0  0  0  0  0  0  0  0  0
   -5.6212   25.7063  -29.8442 H   0  0  0  0  0  0  0  0  0  0  0  0
   -5.1899   25.9746  -31.5781 H   0  0  0  0  0  0  0  0  0  0  0  0
   -7.6529   24.4999  -29.9064 H   0  0  0  0  0  0  0  0  0  0  0  0
   -8.8992   22.4384  -30.5401 H   0  0  0  0  0  0  0  0  0  0  0  0
   -5.5742   21.1952  -33.0237 H   0  0  0  0  0  0  0  0  0  0  0  0
   -4.3321   23.2580  -32.3906 H   0  0  0  0  0  0  0  0  0  0  0  0
   -4.7415   24.4714  -28.0567 H   0  0  0  0  0  0  0  0  0  0  0  0
   -4.0516   22.6369  -26.5223 H   0  0  0  0  0  0  0  0  0  0  0  0
  1  2  1  0
  2  3  1  0
  3  4  1  0
  4  5  2  0
  5  6  1  0
  6  7  2  0
  7  8  1  0
  8  9  1  0
  9 10  1  0
 10 11  2  0
 11 12  1  0
 12 13  2  0
 13 14  1  0
 14 15  1  0
 14 16  1  0
 14 17  1  0
 13 18  1  0
 18 19  2  0
  7 20  1  0
 20 21  2  0
 21  4  1  0
 19 10  1  0
  1 22  1  0
  1 23  1  0
  1 24  1  0
  2 25  1  0
  2 26  1  0
  3 27  1  0
  3 28  1  0
  5 29  1  0
  6 30  1  0
  9 31  1  0
  9 32  1  0
 11 33  1  0
 12 34  1  0
 18 35  1  0
 19 36  1  0
 20 37  1  0
 21 38  1  0
M  CHG  1   1   1
M  END
>  <UniqueID>  (3) 
3

>  <SMILES>  (3) 
[NH3+]CCc1ccc(OCc2ccc(C(F)(F)F)cc2)cc1

>  <Energy>  (3) 
34.7450491005071

>  <Genealogy>  (3) 
[NH3+]CCc1ccc(OCc2ccc(C(F)(F)F)cc2)cc1 (protonated)
[NH3+]CCc1ccc(OCc2ccc(C(F)(F)F)cc2)cc1 (3D coordinates assigned)
[NH3+]CCc1ccc(OCc2ccc(C(F)(F)F)cc2)cc1 (optimized conformer: 34.7450491005071 kcal/mol)

>  <smiles>  (3) 
NCCc1ccc(OCc2ccc(C(F)(F)F)cc2)cc1

>  <score_type>  (3) 
oracle

>  <origin>  (3) 
adg

>  <m_score__min__energy>  (3) 
-7.7300000000000004

>  <m_primary>  (3) 
energy

$$$$
3:0
     RDKit          3D

 48 50  0  0  1  0  0  0  0  0999 V2000
   -4.3830   24.9240  -26.9970 N   0  0  0  0  0  0  0  0  0  0  0  0
   -3.1560   25.1690  -26.2860 C   0  0  0  0  0  0  0  0  0  0  0  0
   -2.0970   24.1540  -26.6610 C   0  0  0  0  0  0  0  0  0  0  0  0
   -0.8450   24.8620  -27.1350 C   0  0  0  0  0  0  0  0  0  0  0  0
   -1.0560   25.3550  -28.5510 C   0  0  0  0  0  0  0  0  0  0  0  0
   -1.9010   24.4070  -29.3070 C   0  0  0  0  0  0  0  0  0  0  0  0
   -1.4770   23.3600  -29.8430 O   0  0  0  0  0  0  0  0  0  0  0  0
   -3.2920   24.7280  -29.4220 N   0  0  0  0  0  0  0  0  0  0  0  0
   -4.2190   23.9190  -30.1130 C   0  0  0  0  0  0  0  0  0  0  0  0
   -5.4540   23.7110  -29.4940 C   0  0  0  0  0  0  0  0  0  0  0  0
   -6.4020   22.9220  -30.1310 C   0  0  0  0  0  0  0  0  0  0  0  0
   -7.6030   22.7010  -29.5620 N   0  0  0  0  0  0  0  0  0  0  0  0
   -8.5220   21.9360  -30.1810 C   0  0  0  0  0  0  0  0  0  0  0  0
   -8.3080   21.3570  -31.3770 N   0  0  0  0  0  0  0  0  0  0  0  0
   -7.1000   21.5740  -31.9550 C   0  0  0  0  0  0  0  0  0  0  0  0
   -6.8460   21.0320  -33.1170 N   0  0  0  0  0  0  0  0  0  0  0  0
   -6.2000   19.7450  -33.1930 C   0  0  0  0  0  0  0  0  0  0  0  0
   -4.8770   19.6510  -33.5780 C   0  0  0  0  0  0  0  0  0  0  0  0
   -4.3000   18.4010  -33.6360 C   0  0  0  0  0  0  0  0  0  0  0  0
   -5.0370   17.2750  -33.3140 C   0  0  0  0  0  0  0  0  0  0  0  0
   -6.3340   17.4420  -32.9440 N   0  0  0  0  0  0  0  0  0  0  0  0
   -6.9270   18.6250  -32.8750 C   0  0  0  0  0  0  0  0  0  0  0  0
   -8.3240   18.7150  -32.4680 C   0  0  0  0  0  0  0  0  0  0  0  0
   -9.2430   19.5910  -33.0950 N   0  0  0  0  0  0  0  0  0  0  0  0
   -8.7670   18.0000  -31.5250 O   0  0  0  0  0  0  0  0  0  0  0  0
   -6.1260   22.3510  -31.3610 C   0  0  0  0  0  0  0  0  0  0  0  0
   -4.8950   22.5770  -31.9440 C   0  0  0  0  0  0  0  0  0  0  0  0
   -3.9810   23.3510  -31.3060 N   0  0  0  0  0  0  0  0  0  0  0  0
   -4.9200   24.1060  -26.6910 H   0  0  0  0  0  0  0  0  0  0  0  0
   -4.9190   25.7920  -27.1520 H   0  0  0  0  0  0  0  0  0  0  0  0
   -2.7918   26.1768  -26.5345 H   0  0  0  0  0  0  0  0  0  0  0  0
   -3.3544   25.0848  -25.2073 H   0  0  0  0  0  0  0  0  0  0  0  0
   -1.8562   23.5374  -25.7825 H   0  0  0  0  0  0  0  0  0  0  0  0
   -2.4795   23.5160  -27.4714 H   0  0  0  0  0  0  0  0  0  0  0  0
   -0.6341   25.7169  -26.4757 H   0  0  0  0  0  0  0  0  0  0  0  0
    0.0052   24.1645  -27.1100 H   0  0  0  0  0  0  0  0  0  0  0  0
   -1.5499   26.3375  -28.5227 H   0  0  0  0  0  0  0  0  0  0  0  0
   -0.0787   25.4369  -29.0492 H   0  0  0  0  0  0  0  0  0  0  0  0
   -3.6670   25.6070  -28.9780 H   0  0  0  0  0  0  0  0  0  0  0  0
   -5.6720   24.1657  -28.5164 H   0  0  0  0  0  0  0  0  0  0  0  0
   -7.8060   23.1420  -28.6210 H   0  0  0  0  0  0  0  0  0  0  0  0
   -9.4918   21.7770  -29.6867 H   0  0  0  0  0  0  0  0  0  0  0  0
   -4.2984   20.5514  -33.8320 H   0  0  0  0  0  0  0  0  0  0  0  0
   -3.2479   18.2977  -33.9399 H   0  0  0  0  0  0  0  0  0  0  0  0
   -4.5857   16.2727  -33.3563 H   0  0  0  0  0  0  0  0  0  0  0  0
   -9.3530   20.5820  -32.7660 H   0  0  0  0  0  0  0  0  0  0  0  0
   -9.8310   19.2430  -33.9090 H   0  0  0  0  0  0  0  0  0  0  0  0
   -4.6563   22.1317  -32.9211 H   0  0  0  0  0  0  0  0  0  0  0  0
  1  2  1  0
  2  3  1  0
  3  4  1  0
  4  5  1  0
  5  6  1  0
  6  7  2  0
  6  8  1  0
  8  9  1  0
  9 10  2  0
 10 11  1  0
 11 12  1  0
 12 13  1  0
 13 14  2  0
 14 15  1  0
 15 16  2  0
 16 17  1  0
 17 18  2  0
 18 19  1  0
 19 20  2  0
 20 21  1  0
 21 22  2  0
 22 23  1  0
 23 24  1  0
 23 25  2  0
 15 26  1  0
 26 27  1  0
 27 28  2  0
 28  9  1  0
 26 11  2  0
 22 17  1  0
  1 29  1  0
  1 30  1  0
  2 31  1  0
  2 32  1  0
  3 33  1  0
  3 34  1  0
  4 35  1  0
  4 36  1  0
  5 37  1  0
  5 38  1  0
  8 39  1  0
 10 40  1  0
 12 41  1  0
 13 42  1  0
 18 43  1  0
 19 44  1  0
 20 45  1  0
 24 46  1  0
 24 47  1  0
 27 48  1  0
M  END
>  <smiles>  (4) 
NCCCCC(=O)Nc1cc2[nH]cnc(=Nc3cccnc3C(N)=O)c2cn1

>  <score_type>  (4) 
oracle

>  <origin>  (4) 
adg

>  <m_score__min__energy>  (4) 
-8.6600000000000001

>  <m_primary>  (4) 
energy

$$$$
4:0
     RDKit          3D

 36 38  0  0  0  0  0  0  0  0999 V2000
   -4.0180   15.9170  -33.7660 C   0  0  0  0  0  0  0  0  0  0  0  0
   -4.9400   17.0160  -33.4300 N   0  0  0  0  0  0  0  0  0  0  0  0
   -4.8460   18.0980  -34.4450 C   0  0  0  0  0  0  0  0  0  0  0  0
   -6.1050   18.9910  -34.5030 C   0  0  0  0  0  0  0  0  0  0  0  0
   -6.8640   18.9180  -33.2490 N   0  0  0  0  0  0  0  0  0  0  0  0
   -7.4400   20.0970  -32.6530 C   0  0  0  0  0  0  0  0  0  0  0  0
   -6.6260   21.1250  -32.1520 C   0  0  0  0  0  0  0  0  0  0  0  0
   -7.2110   22.2580  -31.5570 C   0  0  0  0  0  0  0  0  0  0  0  0
   -6.3630   23.3570  -31.0270 C   0  0  0  0  0  0  0  0  0  0  0  0
   -6.8670   24.4420  -30.2850 C   0  0  0  0  0  0  0  0  0  0  0  0
   -5.8960   25.3530  -29.8920 C   0  0  0  0  0  0  0  0  0  0  0  0
   -4.4130   24.8140  -30.4630 S   0  0  0  0  0  0  0  0  0  0  0  0
   -4.9820   23.4230  -31.2130 C   0  0  0  0  0  0  0  0  0  0  0  0
   -8.6110   22.3240  -31.4660 C   0  0  0  0  0  0  0  0  0  0  0  0
   -9.3860   21.2730  -31.9570 C   0  0  0  0  0  0  0  0  0  0  0  0
   -8.7920   20.1960  -32.5290 N   0  0  0  0  0  0  0  0  0  0  0  0
   -7.2310   17.5990  -32.7210 C   0  0  0  0  0  0  0  0  0  0  0  0
   -6.3190   16.5060  -33.2980 C   0  0  0  0  0  0  0  0  0  0  0  0
   -3.6365   15.4623  -32.8399 H   0  0  0  0  0  0  0  0  0  0  0  0
   -4.5526   15.1568  -34.3545 H   0  0  0  0  0  0  0  0  0  0  0  0
   -3.1765   16.3113  -34.3545 H   0  0  0  0  0  0  0  0  0  0  0  0
   -4.6380   17.4020  -32.5020 H   0  0  0  0  0  0  0  0  0  0  0  0
   -3.9798   18.7308  -34.2018 H   0  0  0  0  0  0  0  0  0  0  0  0
   -4.7430   17.6151  -35.4280 H   0  0  0  0  0  0  0  0  0  0  0  0
   -5.7984   20.0330  -34.6770 H   0  0  0  0  0  0  0  0  0  0  0  0
   -6.7480   18.6348  -35.3213 H   0  0  0  0  0  0  0  0  0  0  0  0
   -5.5313   21.0449  -32.2245 H   0  0  0  0  0  0  0  0  0  0  0  0
   -7.9329   24.5574  -30.0391 H   0  0  0  0  0  0  0  0  0  0  0  0
   -6.0687   26.2689  -29.3079 H   0  0  0  0  0  0  0  0  0  0  0  0
   -4.3700   22.6892  -31.7579 H   0  0  0  0  0  0  0  0  0  0  0  0
   -9.0942   23.2005  -31.0096 H   0  0  0  0  0  0  0  0  0  0  0  0
  -10.4824   21.3178  -31.8800 H   0  0  0  0  0  0  0  0  0  0  0  0
   -7.1326   17.6092  -31.6255 H   0  0  0  0  0  0  0  0  0  0  0  0
   -8.2694   17.3803  -33.0108 H   0  0  0  0  0  0  0  0  0  0  0  0
   -6.3226   15.6359  -32.6250 H   0  0  0  0  0  0  0  0  0  0  0  0
   -6.6915   16.2120  -34.2904 H   0  0  0  0  0  0  0  0  0  0  0  0
  1  2  1  0
  2  3  1  0
  3  4  1  0
  4  5  1  0
  5  6  1  0
  6  7  2  0
  7  8  1  0
  8  9  1  0
  9 10  1  0
 10 11  2  0
 11 12  1  0
 12 13  1  0
  8 14  2  0
 14 15  1  0
 15 16  2  0
  5 17  1  0
 17 18  1  0
 18  2  1  0
 16  6  1  0
 13  9  2  0
  1 19  1  0
  1 20  1  0
  1 21  1  0
  2 22  1  0
  3 23  1  0
  3 24  1  0
  4 25  1  0
  4 26  1  0
  7 27  1  0
 10 28  1  0
 11 29  1  0
 13 30  1  0
 14 31  1  0
 15 32  1  0
 17 33  1  0
 17 34  1  0
 18 35  1  0
 18 36  1  0
M  CHG  1   2   1
M  END
>  <UniqueID>  (5) 
4

>  <SMILES>  (5) 
C[NH+]1CCN(c2cc(-c3ccsc3)ccn2)CC1

>  <Energy>  (5) 
75.62360131974215

>  <Genealogy>  (5) 
C[NH+]1CCN(c2cc(-c3ccsc3)ccn2)CC1 (protonated)
C[NH+]1CCN(c2cc(-c3ccsc3)ccn2)CC1 (3D coordinates assigned)
C[NH+]1CCN(c2cc(-c3ccsc3)ccn2)CC1 (nonaromatic ring conformer: 75.62360131974215 kcal/mol)

>  <smiles>  (5) 
CN1CCN(c2cc(-c3ccsc3)ccn2)CC1

>  <score_type>  (5) 
oracle

>  <origin>  (5) 
adg

>  <m_score__min__energy>  (5) 
-6.71

>  <m_primary>  (5) 
energy

$$$$
5:0
     RDKit          3D

 45 47  0  0  0  0  0  0  0  0999 V2000
   -0.7660   23.1340  -26.4400 C   0  0  0  0  0  0  0  0  0  0  0  0
   -1.6760   24.3190  -26.7790 C   0  0  0  0  0  0  0  0  0  0  0  0
   -1.5640   25.4110  -25.7090 C   0  0  0  0  0  0  0  0  0  0  0  0
   -1.3250   24.8670  -28.1440 C   0  0  0  0  0  0  0  0  0  0  0  0
   -0.1220   24.8570  -28.5220 O   0  0  0  0  0  0  0  0  0  0  0  0
   -2.3330   25.2830  -29.0760 N   0  0  0  0  0  0  0  0  0  0  0  0
   -3.1590   24.4280  -29.8770 C   0  0  0  0  0  0  0  0  0  0  0  0
   -2.6490   23.2650  -30.4720 C   0  0  0  0  0  0  0  0  0  0  0  0
   -3.4810   22.4370  -31.2280 C   0  0  0  0  0  0  0  0  0  0  0  0
   -4.8450   22.7490  -31.3970 C   0  0  0  0  0  0  0  0  0  0  0  0
   -5.3700   23.8830  -30.7360 C   0  0  0  0  0  0  0  0  0  0  0  0
   -4.5210   24.7180  -29.9930 C   0  0  0  0  0  0  0  0  0  0  0  0
   -6.8260   24.2440  -30.8740 C   0  0  0  0  0  0  0  0  0  0  0  0
   -7.6780   23.0060  -31.1550 C   0  0  0  0  0  0  0  0  0  0  0  0
   -7.1330   22.2550  -32.3690 C   0  0  0  0  0  0  0  0  0  0  0  0
   -5.7210   21.8950  -32.1740 N   0  0  0  0  0  0  0  0  0  0  0  0
   -5.1950   20.8340  -32.9890 C   0  0  0  0  0  0  0  0  0  0  0  0
   -4.1440   21.0370  -33.6540 O   0  0  0  0  0  0  0  0  0  0  0  0
   -5.8750   19.5190  -33.0540 C   0  0  0  0  0  0  0  0  0  0  0  0
   -6.7640   19.1240  -32.0360 C   0  0  0  0  0  0  0  0  0  0  0  0
   -7.4080   17.8850  -32.1010 C   0  0  0  0  0  0  0  0  0  0  0  0
   -7.1790   17.0310  -33.1810 C   0  0  0  0  0  0  0  0  0  0  0  0
   -6.3060   17.4140  -34.2010 C   0  0  0  0  0  0  0  0  0  0  0  0
   -5.6580   18.6530  -34.1420 C   0  0  0  0  0  0  0  0  0  0  0  0
   -0.6880   23.0324  -25.3475 H   0  0  0  0  0  0  0  0  0  0  0  0
   -1.1907   22.2124  -26.8646 H   0  0  0  0  0  0  0  0  0  0  0  0
    0.2340   23.3064  -26.8646 H   0  0  0  0  0  0  0  0  0  0  0  0
   -2.7188   23.9696  -26.7983 H   0  0  0  0  0  0  0  0  0  0  0  0
   -1.6111   24.9521  -24.7104 H   0  0  0  0  0  0  0  0  0  0  0  0
   -0.6068   25.9406  -25.8244 H   0  0  0  0  0  0  0  0  0  0  0  0
   -2.3937   26.1239  -25.8244 H   0  0  0  0  0  0  0  0  0  0  0  0
   -1.5883   23.0039  -30.3425 H   0  0  0  0  0  0  0  0  0  0  0  0
   -3.0676   21.5317  -31.6966 H   0  0  0  0  0  0  0  0  0  0  0  0
   -4.9320   25.6097  -29.4970 H   0  0  0  0  0  0  0  0  0  0  0  0
   -7.1699   24.7118  -29.9397 H   0  0  0  0  0  0  0  0  0  0  0  0
   -6.9338   24.9403  -31.7187 H   0  0  0  0  0  0  0  0  0  0  0  0
   -7.6560   22.3429  -30.2776 H   0  0  0  0  0  0  0  0  0  0  0  0
   -8.7115   23.3209  -31.3619 H   0  0  0  0  0  0  0  0  0  0  0  0
   -7.7211   21.3375  -32.5185 H   0  0  0  0  0  0  0  0  0  0  0  0
   -7.2100   22.9091  -33.2500 H   0  0  0  0  0  0  0  0  0  0  0  0
   -6.9528   19.7944  -31.1846 H   0  0  0  0  0  0  0  0  0  0  0  0
   -8.0971   17.5822  -31.2988 H   0  0  0  0  0  0  0  0  0  0  0  0
   -7.6864   16.0562  -33.2285 H   0  0  0  0  0  0  0  0  0  0  0  0
   -6.1272   16.7408  -35.0524 H   0  0  0  0  0  0  0  0  0  0  0  0
   -4.9750   18.9518  -34.9508 H   0  0  0  0  0  0  0  0  0  0  0  0
  1  2  1  0
  2  3  1  0
  2  4  1  0
  4  5  2  0
  4  6  1  0
  6  7  1  0
  7  8  2  0
  8  9  1  0
  9 10  2  0
 10 11  1  0
 11 12  2  0
 11 13  1  0
 13 14  1  0
 14 15  1  0
 15 16  1  0
 16 17  1  0
 17 18  2  0
 17 19  1  0
 19 20  2  0
 20 21  1  0
 21 22  2  0
 22 23  1  0
 23 24  2  0
 12  7  1  0
 24 19  1  0
 16 10  1  0
  1 25  1  0
  1 26  1  0
  1 27  1  0
  2 28  1  0
  3 29  1  0
  3 30  1  0
  3 31  1  0
  8 32  1  0
  9 33  1  0
 12 34  1  0
 13 35  1  0
 13 36  1  0
 14 37  1  0
 14 38  1  0
 15 39  1  0
 15 40  1  0
 20 41  1  0
 21 42  1  0
 22 43  1  0
 23 44  1  0
 24 45  1  0
M  CHG  1   6  -1
M  END
>  <UniqueID>  (6) 
5

>  <SMILES>  (6) 
CC(C)C(=O)[N-]c1ccc2c(c1)CCCN2C(=O)c1ccccc1

>  <Energy>  (6) 
54.818240961885294

>  <Genealogy>  (6) 
CC(C)C(=O)[N-]c1ccc2c(c1)CCCN2C(=O)c1ccccc1 (protonated)
CC(C)C(=O)[N-]c1ccc2c(c1)CCCN2C(=O)c1ccccc1 (3D coordinates assigned)
CC(C)C(=O)[N-]c1ccc2c(c1)CCCN2C(=O)c1ccccc1 (nonaromatic ring conformer: 54.818240961885294 kcal/mol)

>  <smiles>  (6) 
CC(C)C(=O)Nc1ccc2c(c1)CCCN2C(=O)c1ccccc1

>  <score_type>  (6) 
oracle

>  <origin>  (6) 
adg

>  <m_score__min__energy>  (6) 
-10.82

>  <m_primary>  (6) 
energy

$$$$
6:0
     RDKit          3D

 45 48  0  0  0  0  0  0  0  0999 V2000
   -2.0620   25.2990  -29.3430 N   0  0  0  0  0  0  0  0  0  0  0  0
   -1.1340   24.3130  -28.8990 C   0  0  0  0  0  0  0  0  0  0  0  0
    0.1010   24.5430  -29.0060 O   0  0  0  0  0  0  0  0  0  0  0  0
   -1.6000   23.0460  -28.2760 C   0  0  0  0  0  0  0  0  0  0  0  0
   -0.9970   22.6210  -27.0760 C   0  0  0  0  0  0  0  0  0  0  0  0
   -1.4220   21.4530  -26.4390 C   0  0  0  0  0  0  0  0  0  0  0  0
   -2.4530   20.6910  -26.9870 C   0  0  0  0  0  0  0  0  0  0  0  0
   -3.0530   21.0880  -28.1820 C   0  0  0  0  0  0  0  0  0  0  0  0
   -2.6340   22.2550  -28.8390 C   0  0  0  0  0  0  0  0  0  0  0  0
   -3.2380   22.5810  -30.0990 N   0  0  0  0  0  0  0  0  0  0  0  0
   -2.6680   22.0270  -31.3060 C   0  0  0  0  0  0  0  0  0  0  0  0
   -3.4200   21.8720  -32.4840 C   0  0  0  0  0  0  0  0  0  0  0  0
   -2.8220   21.3430  -33.6310 C   0  0  0  0  0  0  0  0  0  0  0  0
   -1.4730   20.9750  -33.6070 C   0  0  0  0  0  0  0  0  0  0  0  0
   -0.8380   20.4440  -34.7410 C   0  0  0  0  0  0  0  0  0  0  0  0
    0.5150   20.0910  -34.6830 C   0  0  0  0  0  0  0  0  0  0  0  0
    1.2380   20.2650  -33.4970 C   0  0  0  0  0  0  0  0  0  0  0  0
    0.6130   20.7950  -32.3630 C   0  0  0  0  0  0  0  0  0  0  0  0
   -0.7410   21.1530  -32.4130 C   0  0  0  0  0  0  0  0  0  0  0  0
   -1.3510   21.6690  -31.3140 N   0  0  0  0  0  0  0  0  0  0  0  0
   -4.5200   23.7650  -30.1020 S   0  0  0  0  0  0  0  0  0  0  0  0
   -4.0820   24.9940  -30.8510 O   0  0  0  0  0  0  0  0  0  0  0  0
   -4.8290   24.1740  -28.6880 O   0  0  0  0  0  0  0  0  0  0  0  0
   -5.9910   23.0960  -30.8120 C   0  0  0  0  0  0  0  0  0  0  0  0
   -7.0140   23.9380  -31.2790 C   0  0  0  0  0  0  0  0  0  0  0  0
   -8.1690   23.3930  -31.8530 C   0  0  0  0  0  0  0  0  0  0  0  0
   -8.3120   22.0060  -31.9540 C   0  0  0  0  0  0  0  0  0  0  0  0
   -7.3060   21.1630  -31.4740 C   0  0  0  0  0  0  0  0  0  0  0  0
   -6.1530   21.7050  -30.8980 C   0  0  0  0  0  0  0  0  0  0  0  0
   -3.0420   25.3200  -28.9810 H   0  0  0  0  0  0  0  0  0  0  0  0
   -0.1827   23.2154  -26.6359 H   0  0  0  0  0  0  0  0  0  0  0  0
   -0.9420   21.1334  -25.5023 H   0  0  0  0  0  0  0  0  0  0  0  0
   -2.7930   19.7774  -26.4773 H   0  0  0  0  0  0  0  0  0  0  0  0
   -3.8622   20.4805  -28.6134 H   0  0  0  0  0  0  0  0  0  0  0  0
   -4.4795   22.1673  -32.5027 H   0  0  0  0  0  0  0  0  0  0  0  0
   -3.4114   21.2163  -34.5511 H   0  0  0  0  0  0  0  0  0  0  0  0
   -1.4035   20.3055  -35.6743 H   0  0  0  0  0  0  0  0  0  0  0  0
    1.0119   19.6755  -35.5721 H   0  0  0  0  0  0  0  0  0  0  0  0
    2.3008   19.9842  -33.4565 H   0  0  0  0  0  0  0  0  0  0  0  0
    1.1841   20.9306  -31.4327 H   0  0  0  0  0  0  0  0  0  0  0  0
   -6.9072   25.0295  -31.1934 H   0  0  0  0  0  0  0  0  0  0  0  0
   -8.9640   24.0563  -32.2245 H   0  0  0  0  0  0  0  0  0  0  0  0
   -9.2164   21.5782  -32.4113 H   0  0  0  0  0  0  0  0  0  0  0  0
   -7.4214   20.0717  -31.5494 H   0  0  0  0  0  0  0  0  0  0  0  0
   -5.3692   21.0376  -30.5104 H   0  0  0  0  0  0  0  0  0  0  0  0
  1  2  1  0
  2  3  2  0
  2  4  1  0
  4  5  2  0
  5  6  1  0
  6  7  2  0
  7  8  1  0
  8  9  2  0
  9 10  1  0
 10 11  1  0
 11 12  2  0
 12 13  1  0
 13 14  2  0
 14 15  1  0
 15 16  2  0
 16 17  1  0
 17 18  2  0
 18 19  1  0
 19 20  2  0
 10 21  1  0
 21 22  2  0
 21 23  2  0
 21 24  1  0
 24 25  2  0
 25 26  1  0
 26 27  2  0
 27 28  1  0
 28 29  2  0
  9  4  1  0
 20 11  1  0
 29 24  1  0
 19 14  1  0
  1 30  1  0
  5 31  1  0
  6 32  1  0
  7 33  1  0
  8 34  1  0
 12 35  1  0
 13 36  1  0
 15 37  1  0
 16 38  1  0
 17 39  1  0
 18 40  1  0
 25 41  1  0
 26 42  1  0
 27 43  1  0
 28 44  1  0
 29 45  1  0
M  CHG  1   1  -1
M  END
>  <UniqueID>  (7) 
6

>  <SMILES>  (7) 
[NH-]C(=O)c1ccccc1N(c1ccc2ccccc2n1)S(=O)(=O)c1ccccc1

>  <Energy>  (7) 
66.72173093000711

>  <Genealogy>  (7) 
[NH-]C(=O)c1ccccc1N(c1ccc2ccccc2n1)S(=O)(=O)c1ccccc1 (protonated)
[NH-]C(=O)c1ccccc1N(c1ccc2ccccc2n1)S(=O)(=O)c1ccccc1 (3D coordinates assigned)
[NH-]C(=O)c1ccccc1N(c1ccc2ccccc2n1)S(=O)(=O)c1ccccc1 (optimized conformer: 66.72173093000711 kcal/mol)

>  <smiles>  (7) 
NC(=O)c1ccccc1N(c1ccc2ccccc2n1)S(=O)(=O)c1ccccc1

>  <score_type>  (7) 
oracle

>  <origin>  (7) 
adg

>  <m_score__min__energy>  (7) 
-11.869999999999999

>  <m_primary>  (7) 
energy

$$$$
7:0
     RDKit          3D

 35 37  0  0  0  0  0  0  0  0999 V2000
   -1.7810   21.4890  -32.7050 C   0  0  0  0  0  0  0  0  0  0  0  0
   -3.2700   21.4120  -32.6540 C   0  0  0  0  0  0  0  0  0  0  0  0
   -3.9770   22.3510  -31.9460 N   0  0  0  0  0  0  0  0  0  0  0  0
   -5.3440   22.3430  -31.8980 C   0  0  0  0  0  0  0  0  0  0  0  0
   -6.0480   23.3270  -31.1170 N   0  0  0  0  0  0  0  0  0  0  0  0
   -7.3690   23.0420  -30.5530 C   0  0  0  0  0  0  0  0  0  0  0  0
   -5.4430   24.6450  -30.8970 C   0  0  0  0  0  0  0  0  0  0  0  0
   -4.3580   24.5440  -29.8730 C   0  0  0  0  0  0  0  0  0  0  0  0
   -4.4880   23.9980  -28.6120 C   0  0  0  0  0  0  0  0  0  0  0  0
   -3.2350   24.0790  -28.0450 C   0  0  0  0  0  0  0  0  0  0  0  0
   -2.4200   24.6620  -28.9950 C   0  0  0  0  0  0  0  0  0  0  0  0
   -3.1180   24.9250  -30.0760 O   0  0  0  0  0  0  0  0  0  0  0  0
   -6.0000   21.3270  -32.5930 C   0  0  0  0  0  0  0  0  0  0  0  0
   -7.3210   20.9380  -32.7310 C   0  0  0  0  0  0  0  0  0  0  0  0
   -7.3440   19.8300  -33.5130 N   0  0  0  0  0  0  0  0  0  0  0  0
   -6.1000   19.5080  -33.8520 N   0  0  0  0  0  0  0  0  0  0  0  0
   -5.7240   18.3820  -34.7010 C   0  0  0  0  0  0  0  0  0  0  0  0
   -5.2790   20.4120  -33.2970 C   0  0  0  0  0  0  0  0  0  0  0  0
   -3.9250   20.4320  -33.3470 N   0  0  0  0  0  0  0  0  0  0  0  0
   -1.3796   21.5098  -31.6811 H   0  0  0  0  0  0  0  0  0  0  0  0
   -1.3864   20.6101  -33.2358 H   0  0  0  0  0  0  0  0  0  0  0  0
   -1.4791   22.4040  -33.2358 H   0  0  0  0  0  0  0  0  0  0  0  0
   -7.3093   23.0549  -29.4547 H   0  0  0  0  0  0  0  0  0  0  0  0
   -8.0844   23.8065  -30.8903 H   0  0  0  0  0  0  0  0  0  0  0  0
   -7.7056   22.0506  -30.8903 H   0  0  0  0  0  0  0  0  0  0  0  0
   -5.0186   25.0137  -31.8425 H   0  0  0  0  0  0  0  0  0  0  0  0
   -6.2149   25.3418  -30.5383 H   0  0  0  0  0  0  0  0  0  0  0  0
   -5.3999   23.5852  -28.1559 H   0  0  0  0  0  0  0  0  0  0  0  0
   -2.9427   23.7462  -27.0381 H   0  0  0  0  0  0  0  0  0  0  0  0
   -1.3484   24.8741  -28.8660 H   0  0  0  0  0  0  0  0  0  0  0  0
   -8.1946   21.4373  -32.2867 H   0  0  0  0  0  0  0  0  0  0  0  0
   -8.1970   19.3010  -33.8000 H   0  0  0  0  0  0  0  0  0  0  0  0
   -5.4385   17.5269  -34.0707 H   0  0  0  0  0  0  0  0  0  0  0  0
   -6.5770   18.1008  -35.3361 H   0  0  0  0  0  0  0  0  0  0  0  0
   -4.8732   18.6697  -35.3361 H   0  0  0  0  0  0  0  0  0  0  0  0
  1  2  1  0
  2  3  2  0
  3  4  1  0
  4  5  1  0
  5  6  1  0
  5  7  1  0
  7  8  1  0
  8  9  2  0
  9 10  1  0
 10 11  2  0
 11 12  1  0
  4 13  2  0
 13 14  1  0
 14 15  2  0
 15 16  1  0
 16 17  1  0
 16 18  1  0
 18 19  2  0
 19  2  1  0
 12  8  1  0
 18 13  1  0
  1 20  1  0
  1 21  1  0
  1 22  1  0
  6 23  1  0
  6 24  1  0
  6 25  1  0
  7 26  1  0
  7 27  1  0
  9 28  1  0
 10 29  1  0
 11 30  1  0
 14 31  1  0
 15 32  1  0
 17 33  1  0
 17 34  1  0
 17 35  1  0
M  CHG  1  15   1
M  END
>  <UniqueID>  (8) 
7

>  <SMILES>  (8) 
Cc1nc(N(C)Cc2ccco2)c2c[nH+]n(C)c2n1

>  <Energy>  (8) 
103.40445914544256

>  <Genealogy>  (8) 
Cc1nc(N(C)Cc2ccco2)c2c[nH+]n(C)c2n1 (protonated)
Cc1nc(N(C)Cc2ccco2)c2c[nH+]n(C)c2n1 (3D coordinates assigned)
Cc1nc(N(C)Cc2ccco2)c2c[nH+]n(C)c2n1 (optimized conformer: 103.40445914544256 kcal/mol)

>  <smiles>  (8) 
Cc1nc(N(C)Cc2ccco2)c2cnn(C)c2n1

>  <score_type>  (8) 
oracle

>  <origin>  (8) 
adg

>  <m_score__min__energy>  (8) 
-6.7599999999999998

>  <m_primary>  (8) 
energy

$$$$
8:0
     RDKit          3D

 18 19  0  0  0  0  0  0  0  0999 V2000
   -3.8500   19.9530  -33.5210 F   0  0  0  0  0  0  0  0  0  0  0  0
   -4.9060   20.6890  -33.0400 C   0  0  0  0  0  0  0  0  0  0  0  0
   -6.1980   20.2440  -33.2120 C   0  0  0  0  0  0  0  0  0  0  0  0
   -7.2520   20.9680  -32.7380 N   0  0  0  0  0  0  0  0  0  0  0  0
   -7.0530   22.1370  -32.0900 C   0  0  0  0  0  0  0  0  0  0  0  0
   -5.7670   22.6000  -31.9070 C   0  0  0  0  0  0  0  0  0  0  0  0
   -5.5520   23.8600  -31.2090 C   0  0  0  0  0  0  0  0  0  0  0  0
   -6.4580   24.5370  -30.4210 C   0  0  0  0  0  0  0  0  0  0  0  0
   -5.8370   25.6940  -29.9530 C   0  0  0  0  0  0  0  0  0  0  0  0
   -4.5790   25.6820  -30.4710 N   0  0  0  0  0  0  0  0  0  0  0  0
   -4.4130   24.5950  -31.2150 N   0  0  0  0  0  0  0  0  0  0  0  0
   -4.6830   21.8950  -32.3720 C   0  0  0  0  0  0  0  0  0  0  0  0
   -6.3816   19.2950  -33.7370 H   0  0  0  0  0  0  0  0  0  0  0  0
   -7.9095   22.7143  -31.7117 H   0  0  0  0  0  0  0  0  0  0  0  0
   -7.4882   24.2205  -30.2006 H   0  0  0  0  0  0  0  0  0  0  0  0
   -6.2753   26.4612  -29.2977 H   0  0  0  0  0  0  0  0  0  0  0  0
   -3.8660   26.4340  -30.2940 H   0  0  0  0  0  0  0  0  0  0  0  0
   -3.6609   22.2727  -32.2212 H   0  0  0  0  0  0  0  0  0  0  0  0
  1  2  1  0
  2  3  2  0
  3  4  1  0
  4  5  2  0
  5  6  1  0
  6  7  1  0
  7  8  1  0
  8  9  2  0
  9 10  1  0
 10 11  1  0
  6 12  2  0
 12  2  1  0
 11  7  2  0
  3 13  1  0
  5 14  1  0
  8 15  1  0
  9 16  1  0
 10 17  1  0
 12 18  1  0
M  END
>  <smiles>  (9) 
Fc1cncc(-c2cc[nH]n2)c1

>  <score_type>  (9) 
oracle

>  <origin>  (9) 
adg

>  <m_score__min__energy>  (9) 
-5.9000000000000004

>  <m_primary>  (9) 
energy

$$$$
9:0
     RDKit          3D

 45 48  0  0  0  0  0  0  0  0999 V2000
   -2.2570   24.7450  -28.6820 C   0  0  0  0  0  0  0  0  0  0  0  0
   -3.1080   25.1990  -29.7300 O   0  0  0  0  0  0  0  0  0  0  0  0
   -4.2360   24.5040  -30.1890 C   0  0  0  0  0  0  0  0  0  0  0  0
   -4.2870   23.1190  -29.9990 C   0  0  0  0  0  0  0  0  0  0  0  0
   -5.3890   22.3810  -30.4420 C   0  0  0  0  0  0  0  0  0  0  0  0
   -6.4510   23.0210  -31.1010 C   0  0  0  0  0  0  0  0  0  0  0  0
   -7.6310   22.2560  -31.5410 C   0  0  0  0  0  0  0  0  0  0  0  0
   -8.8940   22.6740  -31.3060 N   0  0  0  0  0  0  0  0  0  0  0  0
   -9.7110   21.6930  -31.6680 N   0  0  0  0  0  0  0  0  0  0  0  0
   -8.9290   20.6890  -32.1060 C   0  0  0  0  0  0  0  0  0  0  0  0
   -7.6280   21.0130  -32.0730 N   0  0  0  0  0  0  0  0  0  0  0  0
   -6.6010   20.1410  -32.5770 C   0  0  0  0  0  0  0  0  0  0  0  0
   -5.3400   20.6090  -32.9760 C   0  0  0  0  0  0  0  0  0  0  0  0
   -4.3920   19.7230  -33.4940 C   0  0  0  0  0  0  0  0  0  0  0  0
   -4.6970   18.3610  -33.6500 C   0  0  0  0  0  0  0  0  0  0  0  0
   -3.7160   17.4470  -34.1870 N   0  0  0  0  0  0  0  0  0  0  0  0
   -3.1970   16.5230  -33.1610 C   0  0  0  0  0  0  0  0  0  0  0  0
   -4.0210   15.2310  -33.0320 C   0  0  0  0  0  0  0  0  0  0  0  0
   -3.1910   14.1400  -32.8550 F   0  0  0  0  0  0  0  0  0  0  0  0
   -4.7500   15.0430  -34.1910 F   0  0  0  0  0  0  0  0  0  0  0  0
   -4.8990   15.3190  -31.9670 F   0  0  0  0  0  0  0  0  0  0  0  0
   -5.9780   17.9010  -33.2990 C   0  0  0  0  0  0  0  0  0  0  0  0
   -6.9400   18.7880  -32.7960 C   0  0  0  0  0  0  0  0  0  0  0  0
   -8.3270   18.2940  -32.4260 C   0  0  0  0  0  0  0  0  0  0  0  0
   -9.4110   19.3750  -32.6370 C   0  0  0  0  0  0  0  0  0  0  0  0
   -6.4140   24.4120  -31.2710 C   0  0  0  0  0  0  0  0  0  0  0  0
   -5.3120   25.1500  -30.8290 C   0  0  0  0  0  0  0  0  0  0  0  0
   -2.7112   24.9873  -27.7099 H   0  0  0  0  0  0  0  0  0  0  0  0
   -2.1240   23.6561  -28.7634 H   0  0  0  0  0  0  0  0  0  0  0  0
   -1.2785   25.2410  -28.7634 H   0  0  0  0  0  0  0  0  0  0  0  0
   -3.4533   22.6062  -29.4970 H   0  0  0  0  0  0  0  0  0  0  0  0
   -5.4241   21.2945  -30.2735 H   0  0  0  0  0  0  0  0  0  0  0  0
   -5.0968   21.6775  -32.8806 H   0  0  0  0  0  0  0  0  0  0  0  0
   -3.3979   20.0955  -33.7822 H   0  0  0  0  0  0  0  0  0  0  0  0
   -4.1080   16.9080  -34.9930 H   0  0  0  0  0  0  0  0  0  0  0  0
   -2.9140   18.0070  -34.5620 H   0  0  0  0  0  0  0  0  0  0  0  0
   -2.1638   16.2531  -33.4250 H   0  0  0  0  0  0  0  0  0  0  0  0
   -3.2556   17.0442  -32.1941 H   0  0  0  0  0  0  0  0  0  0  0  0
   -6.2276   16.8365  -33.4200 H   0  0  0  0  0  0  0  0  0  0  0  0
   -8.5704   17.4224  -33.0513 H   0  0  0  0  0  0  0  0  0  0  0  0
   -8.3167   18.0322  -31.3577 H   0  0  0  0  0  0  0  0  0  0  0  0
   -9.6252   19.4721  -33.7116 H   0  0  0  0  0  0  0  0  0  0  0  0
  -10.3255   19.0809  -32.1011 H   0  0  0  0  0  0  0  0  0  0  0  0
   -7.2574   24.9260  -31.7552 H   0  0  0  0  0  0  0  0  0  0  0  0
   -5.2850   26.2390  -30.9815 H   0  0  0  0  0  0  0  0  0  0  0  0
  1  2  1  0
  2  3  1  0
  3  4  2  0
  4  5  1  0
  5  6  2  0
  6  7  1  0
  7  8  2  0
  8  9  1  0
  9 10  2  0
 10 11  1  0
 11 12  1  0
 12 13  2  0
 13 14  1  0
 14 15  2  0
 15 16  1  0
 16 17  1  0
 17 18  1  0
 18 19  1  0
 18 20  1  0
 18 21  1  0
 15 22  1  0
 22 23  2  0
 23 24  1  0
 24 25  1  0
  6 26  1  0
 26 27  2  0
 27  3  1  0
 11  7  1  0
 23 12  1  0
 25 10  1  0
  1 28  1  0
  1 29  1  0
  1 30  1  0
  4 31  1  0
  5 32  1  0
 13 33  1  0
 14 34  1  0
 16 35  1  0
 16 36  1  0
 17 37  1  0
 17 38  1  0
 22 39  1  0
 24 40  1  0
 24 41  1  0
 25 42  1  0
 25 43  1  0
 26 44  1  0
 27 45  1  0
M  CHG  1  16   1
M  END
>  <UniqueID>  (10) 
8

>  <SMILES>  (10) 
COc1ccc(-c2nnc3n2-c2ccc([NH2+]CC(F)(F)F)cc2CC3)cc1

>  <Energy>  (10) 
95.53002909352918

>  <Genealogy>  (10) 
COc1ccc(-c2nnc3n2-c2ccc([NH2+]CC(F)(F)F)cc2CC3)cc1 (protonated)
COc1ccc(-c2nnc3n2-c2ccc([NH2+]CC(F)(F)F)cc2CC3)cc1 (3D coordinates assigned)
COc1ccc(-c2nnc3n2-c2ccc([NH2+]CC(F)(F)F)cc2CC3)cc1 (nonaromatic ring conformer: 95.53002909352918 kcal/mol)

>  <smiles>  (10) 
COc1ccc(-c2nnc3n2-c2ccc(NCC(F)(F)F)cc2CC3)cc1

>  <score_type>  (10) 
oracle

>  <origin>  (10) 
adg

>  <m_score__min__energy>  (10) 
-8.5099999999999998

>  <m_primary>  (10) 
energy

$$$$
10:0
     RDKit          3D

 29 30  0  0  0  0  0  0  0  0999 V2000
   -6.1210   25.0840  -29.7380 C   0  0  0  0  0  0  0  0  0  0  0  0
   -4.8960   24.5760  -30.4310 C   0  0  0  0  0  0  0  0  0  0  0  0
   -3.8670   25.3000  -30.4770 O   0  0  0  0  0  0  0  0  0  0  0  0
   -4.8750   23.2440  -31.0610 C   0  0  0  0  0  0  0  0  0  0  0  0
   -4.0490   22.1770  -30.7140 C   0  0  0  0  0  0  0  0  0  0  0  0
   -4.2670   21.0320  -31.4900 C   0  0  0  0  0  0  0  0  0  0  0  0
   -5.2520   21.1990  -32.4580 C   0  0  0  0  0  0  0  0  0  0  0  0
   -5.7510   20.1360  -33.4030 C   0  0  0  0  0  0  0  0  0  0  0  0
   -7.0810   19.5810  -33.0690 N   0  0  0  0  0  0  0  0  0  0  0  0
   -7.0670   18.4390  -32.1540 C   0  0  0  0  0  0  0  0  0  0  0  0
   -8.4700   18.3510  -31.5670 C   0  0  0  0  0  0  0  0  0  0  0  0
   -9.1090   19.7100  -31.8240 C   0  0  0  0  0  0  0  0  0  0  0  0
   -8.0360   20.5400  -32.5130 C   0  0  0  0  0  0  0  0  0  0  0  0
   -5.8740   22.7580  -32.3250 S   0  0  0  0  0  0  0  0  0  0  0  0
   -5.9775   25.0245  -28.6490 H   0  0  0  0  0  0  0  0  0  0  0  0
   -6.2990   26.1301  -30.0278 H   0  0  0  0  0  0  0  0  0  0  0  0
   -6.9871   24.4708  -30.0278 H   0  0  0  0  0  0  0  0  0  0  0  0
   -3.2999   22.2289  -29.9102 H   0  0  0  0  0  0  0  0  0  0  0  0
   -3.7134   20.0921  -31.3480 H   0  0  0  0  0  0  0  0  0  0  0  0
   -5.8064   20.5733  -34.4108 H   0  0  0  0  0  0  0  0  0  0  0  0
   -5.0402   19.2996  -33.3300 H   0  0  0  0  0  0  0  0  0  0  0  0
   -6.8228   17.5156  -32.6996 H   0  0  0  0  0  0  0  0  0  0  0  0
   -6.3090   18.5640  -31.3667 H   0  0  0  0  0  0  0  0  0  0  0  0
   -9.0451   17.5563  -32.0647 H   0  0  0  0  0  0  0  0  0  0  0  0
   -8.4474   18.1088  -30.4942 H   0  0  0  0  0  0  0  0  0  0  0  0
   -9.9897   19.6039  -32.4745 H   0  0  0  0  0  0  0  0  0  0  0  0
   -9.4539   20.1816  -30.8920 H   0  0  0  0  0  0  0  0  0  0  0  0
   -8.4792   21.1476  -33.3158 H   0  0  0  0  0  0  0  0  0  0  0  0
   -7.5494   21.2331  -31.8110 H   0  0  0  0  0  0  0  0  0  0  0  0
  1  2  1  0
  2  3  2  0
  2  4  1  0
  4  5  2  0
  5  6  1  0
  6  7  2  0
  7  8  1  0
  8  9  1  0
  9 10  1  0
 10 11  1  0
 11 12  1  0
 12 13  1  0
  7 14  1  0
 14  4  1  0
 13  9  1  0
  1 15  1  0
  1 16  1  0
  1 17  1  0
  5 18  1  0
  6 19  1  0
  8 20  1  0
  8 21  1  0
 10 22  1  0
 10 23  1  0
 11 24  1  0
 11 25  1  0
 12 26  1  0
 12 27  1  0
 13 28  1  0
 13 29  1  0
M  END
>  <UniqueID>  (11) 
9

>  <SMILES>  (11) 
CC(=O)c1ccc(CN2CCCC2)s1

>  <Energy>  (11) 
57.70761137280543

>  <Genealogy>  (11) 
CC(=O)c1ccc(CN2CCCC2)s1 (3D coordinates assigned)
CC(=O)c1ccc(CN2CCCC2)s1 (nonaromatic ring conformer: 57.70761137280543 kcal/mol)

>  <smiles>  (11) 
CC(=O)c1ccc(CN2CCCC2)s1

>  <score_type>  (11) 
oracle

>  <origin>  (11) 
adg

>  <m_score__min__energy>  (11) 
-7.2999999999999998

>  <m_primary>  (11) 
energy

$$$$
11:0
     RDKit          3D

 37 40  0  0  0  0  0  0  0  0999 V2000
   -0.8700   26.6330  -27.9510 C   0  0  0  0  0  0  0  0  0  0  0  0
   -1.5910   25.9490  -28.9700 O   0  0  0  0  0  0  0  0  0  0  0  0
   -1.7120   24.5520  -29.0600 C   0  0  0  0  0  0  0  0  0  0  0  0
   -0.6800   23.6900  -28.6350 C   0  0  0  0  0  0  0  0  0  0  0  0
   -0.8250   22.3030  -28.7360 C   0  0  0  0  0  0  0  0  0  0  0  0
   -1.9960   21.7540  -29.2580 C   0  0  0  0  0  0  0  0  0  0  0  0
   -3.0320   22.5900  -29.6850 C   0  0  0  0  0  0  0  0  0  0  0  0
   -4.1710   22.0480  -30.1940 N   0  0  0  0  0  0  0  0  0  0  0  0
   -5.2050   22.8170  -30.6320 C   0  0  0  0  0  0  0  0  0  0  0  0
   -6.4300   22.1700  -31.1570 C   0  0  0  0  0  0  0  0  0  0  0  0
   -7.6710   22.7490  -30.8470 C   0  0  0  0  0  0  0  0  0  0  0  0
   -8.8600   22.1530  -31.2610 C   0  0  0  0  0  0  0  0  0  0  0  0
   -8.8380   20.9670  -31.9930 C   0  0  0  0  0  0  0  0  0  0  0  0
  -10.0160   20.4100  -32.3760 F   0  0  0  0  0  0  0  0  0  0  0  0
   -7.6130   20.3710  -32.3340 C   0  0  0  0  0  0  0  0  0  0  0  0
   -7.5890   19.1840  -33.0870 C   0  0  0  0  0  0  0  0  0  0  0  0
   -6.3730   18.6030  -33.4500 C   0  0  0  0  0  0  0  0  0  0  0  0
   -5.1720   19.2030  -33.0750 C   0  0  0  0  0  0  0  0  0  0  0  0
   -5.1750   20.3800  -32.3250 C   0  0  0  0  0  0  0  0  0  0  0  0
   -6.3920   20.9750  -31.9250 C   0  0  0  0  0  0  0  0  0  0  0  0
   -5.1140   24.2130  -30.5440 C   0  0  0  0  0  0  0  0  0  0  0  0
   -3.9590   24.8000  -30.0260 C   0  0  0  0  0  0  0  0  0  0  0  0
   -2.8950   23.9940  -29.5880 C   0  0  0  0  0  0  0  0  0  0  0  0
   -1.2229   26.2982  -26.9644 H   0  0  0  0  0  0  0  0  0  0  0  0
    0.2032   26.4131  -28.0506 H   0  0  0  0  0  0  0  0  0  0  0  0
   -1.0331   27.7163  -28.0506 H   0  0  0  0  0  0  0  0  0  0  0  0
    0.2472   24.1125  -28.2204 H   0  0  0  0  0  0  0  0  0  0  0  0
   -0.0117   21.6418  -28.4022 H   0  0  0  0  0  0  0  0  0  0  0  0
   -2.1046   20.6620  -29.3338 H   0  0  0  0  0  0  0  0  0  0  0  0
   -7.7047   23.6849  -30.2700 H   0  0  0  0  0  0  0  0  0  0  0  0
   -9.8227   22.6214  -31.0086 H   0  0  0  0  0  0  0  0  0  0  0  0
   -8.5339   18.7105  -33.3918 H   0  0  0  0  0  0  0  0  0  0  0  0
   -6.3624   17.6702  -34.0329 H   0  0  0  0  0  0  0  0  0  0  0  0
   -4.2164   18.7462  -33.3719 H   0  0  0  0  0  0  0  0  0  0  0  0
   -4.2207   20.8487  -32.0428 H   0  0  0  0  0  0  0  0  0  0  0  0
   -5.9498   24.8432  -30.8820 H   0  0  0  0  0  0  0  0  0  0  0  0
   -3.8815   25.8953  -29.9605 H   0  0  0  0  0  0  0  0  0  0  0  0
  1  2  1  0
  2  3  1  0
  3  4  2  0
  4  5  1  0
  5  6  2  0
  6  7  1  0
  7  8  2  0
  8  9  1  0
  9 10  1  0
 10 11  2  0
 11 12  1  0
 12 13  2  0
 13 14  1  0
 13 15  1  0
 15 16  2  0
 16 17  1  0
 17 18  2  0
 18 19  1  0
 19 20  2  0
  9 21  2  0
 21 22  1  0
 22 23  2  0
 23  3  1  0
 23  7  1  0
 20 10  1  0
 20 15  1  0
  1 24  1  0
  1 25  1  0
  1 26  1  0
  4 27  1  0
  5 28  1  0
  6 29  1  0
 11 30  1  0
 12 31  1  0
 16 32  1  0
 17 33  1  0
 18 34  1  0
 19 35  1  0
 21 36  1  0
 22 37  1  0
M  END
>  <UniqueID>  (12) 
10

>  <SMILES>  (12) 
COc1cccc2nc(-c3ccc(F)c4ccccc34)ccc12

>  <Energy>  (12) 
57.0237982831045

>  <Genealogy>  (12) 
COc1cccc2nc(-c3ccc(F)c4ccccc34)ccc12 (3D coordinates assigned)
COc1cccc2nc(-c3ccc(F)c4ccccc34)ccc12 (optimized conformer: 57.0237982831045 kcal/mol)

>  <smiles>  (12) 
COc1cccc2nc(-c3ccc(F)c4ccccc34)ccc12

>  <score_type>  (12) 
oracle

>  <origin>  (12) 
adg

>  <m_score__min__energy>  (12) 
-8.8900000000000006

>  <m_primary>  (12) 
energy

$$$$
12:0
     RDKit          3D

 32 34  0  0  0  0  0  0  0  0999 V2000
   -4.1180   24.9270  -30.0680 C   0  0  0  0  0  0  0  0  0  0  0  0
   -5.3150   25.5250  -30.4730 C   0  0  0  0  0  0  0  0  0  0  0  0
   -6.4990   24.7810  -30.4910 C   0  0  0  0  0  0  0  0  0  0  0  0
   -6.4920   23.4310  -30.0910 C   0  0  0  0  0  0  0  0  0  0  0  0
   -7.6540   22.6460  -30.1100 O   0  0  0  0  0  0  0  0  0  0  0  0
   -7.9740   21.6880  -31.0840 C   0  0  0  0  0  0  0  0  0  0  0  0
   -9.3010   21.3820  -31.4160 C   0  0  0  0  0  0  0  0  0  0  0  0
   -9.5590   20.4150  -32.3880 C   0  0  0  0  0  0  0  0  0  0  0  0
   -8.5340   19.7620  -32.9980 N   0  0  0  0  0  0  0  0  0  0  0  0
   -7.2270   20.0110  -32.6760 C   0  0  0  0  0  0  0  0  0  0  0  0
   -6.1450   19.2700  -33.3700 C   0  0  0  0  0  0  0  0  0  0  0  0
   -4.7870   19.5880  -33.1840 C   0  0  0  0  0  0  0  0  0  0  0  0
   -3.8080   18.8540  -33.8590 C   0  0  0  0  0  0  0  0  0  0  0  0
   -4.1820   17.8120  -34.7070 C   0  0  0  0  0  0  0  0  0  0  0  0
   -5.5350   17.5120  -34.8630 C   0  0  0  0  0  0  0  0  0  0  0  0
   -6.4740   18.2370  -34.1980 N   0  0  0  0  0  0  0  0  0  0  0  0
   -6.9360   20.9890  -31.7060 C   0  0  0  0  0  0  0  0  0  0  0  0
   -5.2840   22.8360  -29.7060 C   0  0  0  0  0  0  0  0  0  0  0  0
   -4.1020   23.5830  -29.6880 C   0  0  0  0  0  0  0  0  0  0  0  0
   -3.1886   25.5150  -30.0486 H   0  0  0  0  0  0  0  0  0  0  0  0
   -5.3255   26.5819  -30.7778 H   0  0  0  0  0  0  0  0  0  0  0  0
   -7.4379   25.2515  -30.8184 H   0  0  0  0  0  0  0  0  0  0  0  0
  -10.1318   21.8999  -30.9145 H   0  0  0  0  0  0  0  0  0  0  0  0
  -10.5978   20.1794  -32.6626 H   0  0  0  0  0  0  0  0  0  0  0  0
   -8.7690   19.0400  -33.7150 H   0  0  0  0  0  0  0  0  0  0  0  0
   -4.4978   20.4091  -32.5116 H   0  0  0  0  0  0  0  0  0  0  0  0
   -2.7442   19.0977  -33.7217 H   0  0  0  0  0  0  0  0  0  0  0  0
   -3.4182   17.2331  -35.2469 H   0  0  0  0  0  0  0  0  0  0  0  0
   -5.8428   16.6886  -35.5242 H   0  0  0  0  0  0  0  0  0  0  0  0
   -5.8910   21.2031  -31.4375 H   0  0  0  0  0  0  0  0  0  0  0  0
   -5.2649   21.7751  -29.4161 H   0  0  0  0  0  0  0  0  0  0  0  0
   -3.1588   23.1118  -29.3743 H   0  0  0  0  0  0  0  0  0  0  0  0
  1  2  2  0
  2  3  1  0
  3  4  2  0
  4  5  1  0
  5  6  1  0
  6  7  2  0
  7  8  1  0
  8  9  2  0
  9 10  1  0
 10 11  1  0
 11 12  2  0
 12 13  1  0
 13 14  2  0
 14 15  1  0
 15 16  2  0
 10 17  2  0
  4 18  1  0
 18 19  2  0
 19  1  1  0
 17  6  1  0
 16 11  1  0
  1 20  1  0
  2 21  1  0
  3 22  1  0
  7 23  1  0
  8 24  1  0
  9 25  1  0
 12 26  1  0
 13 27  1  0
 14 28  1  0
 15 29  1  0
 17 30  1  0
 18 31  1  0
 19 32  1  0
M  CHG  1   9   1
M  END
>  <UniqueID>  (13) 
11

>  <SMILES>  (13) 
c1ccc(Oc2cc[nH+]c(-c3ccccn3)c2)cc1

>  <Energy>  (13) 
46.04807156488992

>  <Genealogy>  (13) 
c1ccc(Oc2cc[nH+]c(-c3ccccn3)c2)cc1 (protonated)
c1ccc(Oc2cc[nH+]c(-c3ccccn3)c2)cc1 (3D coordinates assigned)
c1ccc(Oc2cc[nH+]c(-c3ccccn3)c2)cc1 (optimized conformer: 46.04807156488992 kcal/mol)

>  <smiles>  (13) 
c1ccc(Oc2ccnc(-c3ccccn3)c2)cc1

>  <score_type>  (13) 
oracle

>  <origin>  (13) 
adg

>  <m_score__min__energy>  (13) 
-6.6299999999999999

>  <m_primary>  (13) 
energy

$$$$
13:0
     RDKit          3D

 35 36  0  0  0  0  0  0  0  0999 V2000
   -3.6690   24.4410  -29.1950 C   0  0  0  0  0  0  0  0  0  0  0  0
   -4.1450   24.5430  -30.5850 N   0  0  0  0  0  0  0  0  0  0  0  0
   -5.3630   25.3580  -30.7130 C   0  0  0  0  0  0  0  0  0  0  0  0
   -6.6170   24.6480  -30.1730 C   0  0  0  0  0  0  0  0  0  0  0  0
   -6.7900   23.2560  -30.6600 N   0  0  0  0  0  0  0  0  0  0  0  0
   -7.6360   23.1250  -31.8760 C   0  0  0  0  0  0  0  0  0  0  0  0
   -8.6410   21.9940  -31.8380 C   0  0  0  0  0  0  0  0  0  0  0  0
   -9.8440   22.2930  -31.6020 O   0  0  0  0  0  0  0  0  0  0  0  0
   -8.2960   20.5660  -32.0930 C   0  0  0  0  0  0  0  0  0  0  0  0
   -9.0740   19.4990  -31.5920 C   0  0  0  0  0  0  0  0  0  0  0  0
   -8.7250   18.1740  -31.8700 C   0  0  0  0  0  0  0  0  0  0  0  0
   -7.6010   17.8900  -32.6460 C   0  0  0  0  0  0  0  0  0  0  0  0
   -6.8180   18.9320  -33.1450 C   0  0  0  0  0  0  0  0  0  0  0  0
   -5.2800   18.5440  -34.2090 Br  0  0  0  0  0  0  0  0  0  0  0  0
   -7.1590   20.2600  -32.8690 C   0  0  0  0  0  0  0  0  0  0  0  0
   -5.5360   22.4600  -30.6920 C   0  0  0  0  0  0  0  0  0  0  0  0
   -4.3160   23.2320  -31.2280 C   0  0  0  0  0  0  0  0  0  0  0  0
   -4.5076   24.6207  -28.5062 H   0  0  0  0  0  0  0  0  0  0  0  0
   -3.2601   23.4349  -29.0203 H   0  0  0  0  0  0  0  0  0  0  0  0
   -2.8838   25.1913  -29.0203 H   0  0  0  0  0  0  0  0  0  0  0  0
   -5.2202   26.2934  -30.1521 H   0  0  0  0  0  0  0  0  0  0  0  0
   -5.5247   25.5446  -31.7849 H   0  0  0  0  0  0  0  0  0  0  0  0
   -6.5526   24.6231  -29.0752 H   0  0  0  0  0  0  0  0  0  0  0  0
   -7.4834   25.2189  -30.5383 H   0  0  0  0  0  0  0  0  0  0  0  0
   -7.3710   22.7940  -29.9190 H   0  0  0  0  0  0  0  0  0  0  0  0
   -8.1876   24.0671  -32.0109 H   0  0  0  0  0  0  0  0  0  0  0  0
   -6.9494   22.8980  -32.7048 H   0  0  0  0  0  0  0  0  0  0  0  0
   -9.9616   19.7122  -30.9782 H   0  0  0  0  0  0  0  0  0  0  0  0
   -9.3395   17.3516  -31.4750 H   0  0  0  0  0  0  0  0  0  0  0  0
   -7.3322   16.8459  -32.8643 H   0  0  0  0  0  0  0  0  0  0  0  0
   -6.5332   21.0750  -33.2617 H   0  0  0  0  0  0  0  0  0  0  0  0
   -5.3117   22.1271  -29.6679 H   0  0  0  0  0  0  0  0  0  0  0  0
   -5.7096   21.6214  -31.3823 H   0  0  0  0  0  0  0  0  0  0  0  0
   -3.4125   22.6312  -31.0472 H   0  0  0  0  0  0  0  0  0  0  0  0
   -4.4804   23.4080  -32.3013 H   0  0  0  0  0  0  0  0  0  0  0  0
  1  2  1  0
  2  3  1  0
  3  4  1  0
  4  5  1  0
  5  6  1  0
  6  7  1  0
  7  8  2  0
  7  9  1  0
  9 10  2  0
 10 11  1  0
 11 12  2  0
 12 13  1  0
 13 14  1  0
 13 15  2  0
  5 16  1  0
 16 17  1  0
 17  2  1  0
 15  9  1  0
  1 18  1  0
  1 19  1  0
  1 20  1  0
  3 21  1  0
  3 22  1  0
  4 23  1  0
  4 24  1  0
  5 25  1  0
  6 26  1  0
  6 27  1  0
 10 28  1  0
 11 29  1  0
 12 30  1  0
 15 31  1  0
 16 32  1  0
 16 33  1  0
 17 34  1  0
 17 35  1  0
M  CHG  1   5   1
M  END
>  <UniqueID>  (14) 
12

>  <SMILES>  (14) 
CN1CC[NH+](CC(=O)c2cccc(Br)c2)CC1

>  <Energy>  (14) 
50.290432190253334

>  <Genealogy>  (14) 
CN1CC[NH+](CC(=O)c2cccc(Br)c2)CC1 (protonated)
CN1CC[NH+](CC(=O)c2cccc(Br)c2)CC1 (3D coordinates assigned)
CN1CC[NH+](CC(=O)c2cccc(Br)c2)CC1 (nonaromatic ring conformer: 50.290432190253334 kcal/mol)

>  <smiles>  (14) 
CN1CCN(CC(=O)c2cccc(Br)c2)CC1

>  <score_type>  (14) 
oracle

>  <origin>  (14) 
adg

>  <m_score__min__energy>  (14) 
-7.0599999999999996

>  <m_primary>  (14) 
energy

$$$$
14:0
     RDKit          3D

 78 84  0  0  0  0  0  0  0  0999 V2000
   -4.1900   21.9340  -28.1770 C   0  0  0  0  0  0  0  0  0  0  0  0
   -3.9400   23.0270  -29.2610 C   0  0  1  0  0  0  0  0  0  0  0  0
   -2.6880   23.7620  -28.8970 C   0  0  0  0  0  0  0  0  0  0  0  0
   -2.5630   24.8120  -28.0470 N   0  0  0  0  0  0  0  0  0  0  0  0
   -1.2430   24.8830  -27.7760 C   0  0  0  0  0  0  0  0  0  0  0  0
   -0.6150   25.7620  -26.8950 C   0  0  0  0  0  0  0  0  0  0  0  0
    0.7660   25.5980  -26.6720 C   0  0  0  0  0  0  0  0  0  0  0  0
    1.4760   24.5560  -27.3120 C   0  0  0  0  0  0  0  0  0  0  0  0
    0.8160   23.6750  -28.1910 C   0  0  0  0  0  0  0  0  0  0  0  0
   -0.5450   23.8790  -28.4110 C   0  0  0  0  0  0  0  0  0  0  0  0
   -1.4670   23.1600  -29.1450 C   0  0  0  0  0  0  0  0  0  0  0  0
   -1.3470   21.7980  -29.7840 C   0  0  0  0  0  0  0  0  0  0  0  0
   -2.4330   21.5710  -30.9050 C   0  0  2  0  0  0  0  0  0  0  0  0
   -1.7030   21.9360  -32.2470 C   0  0  0  0  0  0  0  0  0  0  0  0
   -2.0760   21.1150  -33.4090 N   0  0  0  0  0  0  0  0  0  0  0  0
   -2.6460   19.8310  -32.9740 C   0  0  0  0  0  0  0  0  0  0  0  0
   -2.7380   18.8400  -34.1490 C   0  0  0  0  0  0  0  0  0  0  0  0
   -3.9350   17.9390  -33.9990 C   0  0  0  0  0  0  0  0  0  0  0  0
   -3.8820   16.8530  -33.1080 C   0  0  0  0  0  0  0  0  0  0  0  0
   -5.0040   16.0400  -32.9180 C   0  0  0  0  0  0  0  0  0  0  0  0
   -6.1900   16.3100  -33.6110 C   0  0  0  0  0  0  0  0  0  0  0  0
   -6.2570   17.4000  -34.4860 C   0  0  0  0  0  0  0  0  0  0  0  0
   -5.1360   18.2160  -34.6790 C   0  0  0  0  0  0  0  0  0  0  0  0
   -3.7450   22.4440  -30.6760 C   0  0  1  0  0  0  0  0  0  0  0  0
   -5.0810   21.8700  -30.9150 N   0  0  0  0  0  0  0  0  0  0  0  0
   -5.3390   21.0700  -32.1310 C   0  0  0  0  0  0  0  0  0  0  0  0
   -6.5520   20.1960  -31.9500 C   0  0  0  0  0  0  0  0  0  0  0  0
   -7.8100   20.6050  -32.4340 C   0  0  0  0  0  0  0  0  0  0  0  0
   -8.9180   19.7610  -32.3160 C   0  0  0  0  0  0  0  0  0  0  0  0
   -8.7780   18.5020  -31.7230 C   0  0  0  0  0  0  0  0  0  0  0  0
   -9.8480   17.6770  -31.6260 F   0  0  0  0  0  0  0  0  0  0  0  0
   -7.5310   18.0860  -31.2450 C   0  0  0  0  0  0  0  0  0  0  0  0
   -6.4210   18.9280  -31.3580 C   0  0  0  0  0  0  0  0  0  0  0  0
   -6.0160   22.9860  -30.5590 C   0  0  2  0  0  0  0  0  0  0  0  0
   -7.3580   22.4490  -30.0260 C   0  0  0  0  0  0  0  0  0  0  0  0
   -6.2400   24.0130  -31.7140 C   0  0  0  0  0  0  0  0  0  0  0  0
   -5.6760   25.2920  -31.2110 C   0  0  0  0  0  0  0  0  0  0  0  0
   -5.1140   25.1740  -30.0220 C   0  0  0  0  0  0  0  0  0  0  0  0
   -5.2680   23.8030  -29.4460 C   0  0  2  0  0  0  0  0  0  0  0  0
   -4.0880   22.3797  -27.1765 H   0  0  0  0  0  0  0  0  0  0  0  0
   -5.2047   21.5259  -28.2949 H   0  0  0  0  0  0  0  0  0  0  0  0
   -3.4536   21.1254  -28.2949 H   0  0  0  0  0  0  0  0  0  0  0  0
   -3.3280   25.3720  -27.6110 H   0  0  0  0  0  0  0  0  0  0  0  0
   -1.1804   26.5589  -26.3897 H   0  0  0  0  0  0  0  0  0  0  0  0
    1.2957   26.2850  -25.9956 H   0  0  0  0  0  0  0  0  0  0  0  0
    2.5524   24.4324  -27.1220 H   0  0  0  0  0  0  0  0  0  0  0  0
    1.3560   22.8547  -28.6865 H   0  0  0  0  0  0  0  0  0  0  0  0
   -0.3477   21.7041  -30.2340 H   0  0  0  0  0  0  0  0  0  0  0  0
   -1.5048   21.0414  -29.0012 H   0  0  0  0  0  0  0  0  0  0  0  0
   -2.8022   20.5348  -30.9052 H   0  0  0  0  0  0  0  0  0  0  0  0
   -1.9329   22.9852  -32.4844 H   0  0  0  0  0  0  0  0  0  0  0  0
   -0.6334   21.7477  -32.0723 H   0  0  0  0  0  0  0  0  0  0  0  0
   -1.2260   20.9020  -33.9770 H   0  0  0  0  0  0  0  0  0  0  0  0
   -2.7960   21.6240  -33.9760 H   0  0  0  0  0  0  0  0  0  0  0  0
   -2.0055   19.4006  -32.1901 H   0  0  0  0  0  0  0  0  0  0  0  0
   -3.6602   20.0113  -32.5882 H   0  0  0  0  0  0  0  0  0  0  0  0
   -2.8270   19.4036  -35.0894 H   0  0  0  0  0  0  0  0  0  0  0  0
   -1.8297   18.2195  -34.1576 H   0  0  0  0  0  0  0  0  0  0  0  0
   -2.9534   16.6416  -32.5575 H   0  0  0  0  0  0  0  0  0  0  0  0
   -4.9546   15.1881  -32.2238 H   0  0  0  0  0  0  0  0  0  0  0  0
   -7.0695   15.6651  -33.4677 H   0  0  0  0  0  0  0  0  0  0  0  0
   -7.1923   17.6160  -35.0232 H   0  0  0  0  0  0  0  0  0  0  0  0
   -5.1938   19.0753  -35.3633 H   0  0  0  0  0  0  0  0  0  0  0  0
   -3.4759   23.1644  -31.4625 H   0  0  0  0  0  0  0  0  0  0  0  0
   -5.5073   21.7488  -32.9801 H   0  0  0  0  0  0  0  0  0  0  0  0
   -4.4669   20.4271  -32.3211 H   0  0  0  0  0  0  0  0  0  0  0  0
   -7.9209   21.5921  -32.9065 H   0  0  0  0  0  0  0  0  0  0  0  0
   -9.9000   20.0869  -32.6895 H   0  0  0  0  0  0  0  0  0  0  0  0
   -7.4237   17.0951  -30.7796 H   0  0  0  0  0  0  0  0  0  0  0  0
   -5.4415   18.5971  -30.9823 H   0  0  0  0  0  0  0  0  0  0  0  0
   -7.3443   22.4545  -28.9261 H   0  0  0  0  0  0  0  0  0  0  0  0
   -8.1776   23.0884  -30.3857 H   0  0  0  0  0  0  0  0  0  0  0  0
   -7.5103   21.4207  -30.3857 H   0  0  0  0  0  0  0  0  0  0  0  0
   -5.7137   23.6907  -32.6245 H   0  0  0  0  0  0  0  0  0  0  0  0
   -7.3032   24.1082  -31.9798 H   0  0  0  0  0  0  0  0  0  0  0  0
   -5.7218   26.2381  -31.7704 H   0  0  0  0  0  0  0  0  0  0  0  0
   -4.5897   25.9949  -29.5110 H   0  0  0  0  0  0  0  0  0  0  0  0
   -5.7549   23.9078  -28.4652 H   0  0  0  0  0  0  0  0  0  0  0  0
  2  1  1  1
  2  3  1  0
  3  4  1  0
  4  5  1  0
  5  6  2  0
  6  7  1  0
  7  8  2  0
  8  9  1  0
  9 10  2  0
 10 11  1  0
 11 12  1  0
 12 13  1  0
 13 14  1  0
 14 15  1  0
 15 16  1  0
 16 17  1  0
 17 18  1  0
 18 19  2  0
 19 20  1  0
 20 21  2  0
 21 22  1  0
 22 23  2  0
 13 24  1  0
 24 25  1  0
 25 26  1  0
 26 27  1  0
 27 28  2  0
 28 29  1  0
 29 30  2  0
 30 31  1  0
 30 32  1  0
 32 33  2  0
 25 34  1  0
 34 35  1  1
 34 36  1  0
 36 37  1  0
 37 38  2  0
 38 39  1  0
 24  2  1  0
 33 27  1  0
 39 34  1  0
 39  2  1  0
 11  3  2  0
 23 18  1  0
 10  5  1  0
  1 40  1  0
  1 41  1  0
  1 42  1  0
  4 43  1  0
  6 44  1  0
  7 45  1  0
  8 46  1  0
  9 47  1  0
 12 48  1  0
 12 49  1  0
 13 50  1  6
 14 51  1  0
 14 52  1  0
 15 53  1  0
 15 54  1  0
 16 55  1  0
 16 56  1  0
 17 57  1  0
 17 58  1  0
 19 59  1  0
 20 60  1  0
 21 61  1  0
 22 62  1  0
 23 63  1  0
 24 64  1  6
 26 65  1  0
 26 66  1  0
 28 67  1  0
 29 68  1  0
 32 69  1  0
 33 70  1  0
 35 71  1  0
 35 72  1  0
 35 73  1  0
 36 74  1  0
 36 75  1  0
 37 76  1  0
 38 77  1  0
 39 78  1  1
M  CHG  1  15   1
M  END
>  <UniqueID>  (15) 
13

>  <SMILES>  (15) 
CC12CC=CC1[C@]1(C)c3[nH]c4ccccc4c3C[C@H](C[NH2+]CCc3ccccc3)C1N2Cc1ccc(F)cc1

>  <Energy>  (15) 
172.55305998552848

>  <Genealogy>  (15) 
CC12c3[nH]c4ccccc4c3CC(C[NH2+]CCc3ccccc3)C1N(Cc1ccc(F)cc1)C1(C)CC=CC21 (protonated)
CC12CC=CC1[C@]1(C)c3[nH]c4ccccc4c3C[C@H](C[NH2+]CCc3ccccc3)C1N2Cc1ccc(F)cc1 (chirality)
CC12CC=CC1[C@]1(C)c3[nH]c4ccccc4c3C[C@H](C[NH2+]CCc3ccccc3)C1N2Cc1ccc(F)cc1 (3D coordinates assigned)
CC12CC=CC1[C@]1(C)c3[nH]c4ccccc4c3C[C@H](C[NH2+]CCc3ccccc3)C1N2Cc1ccc(F)cc1 (nonaromatic ring conformer: 172.55305998552848 kcal/mol)

>  <smiles>  (15) 
CC12c3[nH]c4ccccc4c3CC(CNCCc3ccccc3)C1N(Cc1ccc(F)cc1)C1(C)CC=CC21

>  <score_type>  (15) 
oracle

>  <origin>  (15) 
adg

>  <m_score__min__energy>  (15) 
-10.85

>  <m_primary>  (15) 
energy

$$$$
15:0
     RDKit          3D

 39 41  0  0  0  0  0  0  0  0999 V2000
    0.3350   18.9740  -35.5090 C   0  0  0  0  0  0  0  0  0  0  0  0
   -0.3370   20.2100  -35.2880 O   0  0  0  0  0  0  0  0  0  0  0  0
   -0.8450   20.6230  -34.0470 C   0  0  0  0  0  0  0  0  0  0  0  0
   -2.2140   20.8640  -33.8330 C   0  0  0  0  0  0  0  0  0  0  0  0
   -2.6700   21.2740  -32.5760 C   0  0  0  0  0  0  0  0  0  0  0  0
   -1.7730   21.4330  -31.5100 C   0  0  0  0  0  0  0  0  0  0  0  0
   -2.2660   21.8760  -30.2350 N   0  0  0  0  0  0  0  0  0  0  0  0
   -1.4310   22.3720  -29.1760 C   0  0  0  0  0  0  0  0  0  0  0  0
   -0.1770   22.2640  -29.2410 O   0  0  0  0  0  0  0  0  0  0  0  0
   -2.0540   22.9570  -27.9460 C   0  0  0  0  0  0  0  0  0  0  0  0
   -2.4180   24.7290  -28.1890 S   0  0  0  0  0  0  0  0  0  0  0  0
   -3.6490   24.4520  -29.4600 C   0  0  0  0  0  0  0  0  0  0  0  0
   -4.4690   23.3860  -29.4810 N   0  0  0  0  0  0  0  0  0  0  0  0
   -5.1910   23.6180  -30.5970 C   0  0  0  0  0  0  0  0  0  0  0  0
   -6.2570   22.7220  -31.0900 C   0  0  0  0  0  0  0  0  0  0  0  0
   -6.0120   21.8420  -32.1600 C   0  0  0  0  0  0  0  0  0  0  0  0
   -7.0230   20.9950  -32.6240 C   0  0  0  0  0  0  0  0  0  0  0  0
   -8.2860   21.0150  -32.0270 C   0  0  0  0  0  0  0  0  0  0  0  0
   -8.5400   21.8850  -30.9640 C   0  0  0  0  0  0  0  0  0  0  0  0
   -7.5320   22.7350  -30.4950 C   0  0  0  0  0  0  0  0  0  0  0  0
   -4.8280   24.7620  -31.2120 N   0  0  0  0  0  0  0  0  0  0  0  0
   -3.8540   25.2890  -30.4920 N   0  0  0  0  0  0  0  0  0  0  0  0
   -0.4030   21.2130  -31.7310 C   0  0  0  0  0  0  0  0  0  0  0  0
    0.0530   20.8040  -32.9880 C   0  0  0  0  0  0  0  0  0  0  0  0
    0.5849   18.5144  -34.5414 H   0  0  0  0  0  0  0  0  0  0  0  0
   -0.3195   18.2975  -36.0782 H   0  0  0  0  0  0  0  0  0  0  0  0
    1.2586   19.1555  -36.0782 H   0  0  0  0  0  0  0  0  0  0  0  0
   -2.9292   20.7294  -34.6579 H   0  0  0  0  0  0  0  0  0  0  0  0
   -3.7408   21.4733  -32.4224 H   0  0  0  0  0  0  0  0  0  0  0  0
   -3.2830   21.7440  -30.0280 H   0  0  0  0  0  0  0  0  0  0  0  0
   -2.9901   22.4227  -27.7261 H   0  0  0  0  0  0  0  0  0  0  0  0
   -1.3493   22.8520  -27.1079 H   0  0  0  0  0  0  0  0  0  0  0  0
   -5.0197   21.8202  -32.6341 H   0  0  0  0  0  0  0  0  0  0  0  0
   -6.8234   20.3107  -33.4618 H   0  0  0  0  0  0  0  0  0  0  0  0
   -9.0792   20.3467  -32.3935 H   0  0  0  0  0  0  0  0  0  0  0  0
   -9.5346   21.9020  -30.4945 H   0  0  0  0  0  0  0  0  0  0  0  0
   -7.7376   23.4169  -29.6567 H   0  0  0  0  0  0  0  0  0  0  0  0
    0.3146   21.3633  -30.9109 H   0  0  0  0  0  0  0  0  0  0  0  0
    1.1264   20.6229  -33.1463 H   0  0  0  0  0  0  0  0  0  0  0  0
  1  2  1  0
  2  3  1  0
  3  4  2  0
  4  5  1  0
  5  6  2  0
  6  7  1  0
  7  8  1  0
  8  9  2  0
  8 10  1  0
 10 11  1  0
 11 12  1  0
 12 13  2  0
 13 14  1  0
 14 15  1  0
 15 16  2  0
 16 17  1  0
 17 18  2  0
 18 19  1  0
 19 20  2  0
 14 21  2  0
 21 22  1  0
  6 23  1  0
 23 24  2  0
 24  3  1  0
 22 12  1  0
 20 15  1  0
  1 25  1  0
  1 26  1  0
  1 27  1  0
  4 28  1  0
  5 29  1  0
  7 30  1  0
 10 31  1  0
 10 32  1  0
 16 33  1  0
 17 34  1  0
 18 35  1  0
 19 36  1  0
 20 37  1  0
 23 38  1  0
 24 39  1  0
M  CHG  1  22  -1
M  END
>  <UniqueID>  (16) 
14

>  <SMILES>  (16) 
COc1ccc(NC(=O)CSc2nc(-c3ccccc3)n[n-]2)cc1

>  <Energy>  (16) 
71.66292988629213

>  <Genealogy>  (16) 
COc1ccc(NC(=O)CSc2nc(-c3ccccc3)n[n-]2)cc1 (protonated)
COc1ccc(NC(=O)CSc2nc(-c3ccccc3)n[n-]2)cc1 (3D coordinates assigned)
COc1ccc(NC(=O)CSc2nc(-c3ccccc3)n[n-]2)cc1 (optimized conformer: 71.66292988629213 kcal/mol)

>  <smiles>  (16) 
COc1ccc(NC(=O)CSc2nc(-c3ccccc3)n[nH]2)cc1

>  <score_type>  (16) 
oracle

>  <origin>  (16) 
adg

>  <m_score__min__energy>  (16) 
-8.4199999999999999

>  <m_primary>  (16) 
energy

$$$$
16:0
     RDKit          3D

 43 44  0  0  0  0  0  0  0  0999 V2000
   -4.2050   23.7700  -28.5610 C   0  0  0  0  0  0  0  0  0  0  0  0
   -3.5240   23.8240  -29.9230 C   0  0  0  0  0  0  0  0  0  0  0  0
   -4.3280   24.5380  -30.8600 O   0  0  0  0  0  0  0  0  0  0  0  0
   -5.7270   24.4650  -30.8930 C   0  0  0  0  0  0  0  0  0  0  0  0
   -6.4200   25.4100  -30.4230 O   0  0  0  0  0  0  0  0  0  0  0  0
   -6.3880   23.2820  -31.4840 C   0  0  0  0  0  0  0  0  0  0  0  0
   -5.6460   22.3290  -32.2050 C   0  0  0  0  0  0  0  0  0  0  0  0
   -6.2740   21.2140  -32.7650 C   0  0  0  0  0  0  0  0  0  0  0  0
   -7.6610   21.0310  -32.6240 C   0  0  0  0  0  0  0  0  0  0  0  0
   -8.3140   19.8820  -33.2080 N   0  0  0  0  0  0  0  0  0  0  0  0
   -8.7910   18.9370  -32.1820 C   0  0  0  0  0  0  0  0  0  0  0  0
   -7.6610   18.1070  -31.5440 C   0  0  0  0  0  0  0  0  0  0  0  0
   -6.5710   17.7570  -32.5270 C   0  0  0  0  0  0  0  0  0  0  0  0
   -6.8580   16.9680  -33.6540 C   0  0  0  0  0  0  0  0  0  0  0  0
   -5.8490   16.6380  -34.5630 C   0  0  0  0  0  0  0  0  0  0  0  0
   -4.5410   17.1100  -34.3700 C   0  0  0  0  0  0  0  0  0  0  0  0
   -3.4500   16.7220  -35.3230 C   0  0  0  0  0  0  0  0  0  0  0  0
   -4.2520   17.8940  -33.2450 C   0  0  0  0  0  0  0  0  0  0  0  0
   -5.2610   18.2250  -32.3360 C   0  0  0  0  0  0  0  0  0  0  0  0
   -8.4000   21.9750  -31.8910 C   0  0  0  0  0  0  0  0  0  0  0  0
   -7.7720   23.0910  -31.3300 C   0  0  0  0  0  0  0  0  0  0  0  0
   -3.4448   23.8303  -27.7683 H   0  0  0  0  0  0  0  0  0  0  0  0
   -4.9019   24.6157  -28.4657 H   0  0  0  0  0  0  0  0  0  0  0  0
   -4.7599   22.8250  -28.4657 H   0  0  0  0  0  0  0  0  0  0  0  0
   -2.5525   24.3299  -29.8213 H   0  0  0  0  0  0  0  0  0  0  0  0
   -3.3824   22.7963  -30.2889 H   0  0  0  0  0  0  0  0  0  0  0  0
   -4.5613   22.4630  -32.3290 H   0  0  0  0  0  0  0  0  0  0  0  0
   -5.6792   20.4738  -33.3203 H   0  0  0  0  0  0  0  0  0  0  0  0
   -7.6220   19.3860  -33.8180 H   0  0  0  0  0  0  0  0  0  0  0  0
   -9.1070   20.1740  -33.8260 H   0  0  0  0  0  0  0  0  0  0  0  0
   -9.2949   19.5085  -31.3886 H   0  0  0  0  0  0  0  0  0  0  0  0
   -9.4712   18.2311  -32.6810 H   0  0  0  0  0  0  0  0  0  0  0  0
   -7.2195   18.6875  -30.7205 H   0  0  0  0  0  0  0  0  0  0  0  0
   -8.1015   17.1647  -31.1861 H   0  0  0  0  0  0  0  0  0  0  0  0
   -7.8837   16.6077  -33.8218 H   0  0  0  0  0  0  0  0  0  0  0  0
   -6.0806   16.0060  -35.4330 H   0  0  0  0  0  0  0  0  0  0  0  0
   -2.5623   16.4063  -34.7552 H   0  0  0  0  0  0  0  0  0  0  0  0
   -3.7947   15.8913  -35.9564 H   0  0  0  0  0  0  0  0  0  0  0  0
   -3.1928   17.5838  -35.9564 H   0  0  0  0  0  0  0  0  0  0  0  0
   -3.2253   18.2510  -33.0763 H   0  0  0  0  0  0  0  0  0  0  0  0
   -5.0273   18.8559  -31.4658 H   0  0  0  0  0  0  0  0  0  0  0  0
   -9.4828   21.8346  -31.7573 H   0  0  0  0  0  0  0  0  0  0  0  0
   -8.3650   23.8246  -30.7642 H   0  0  0  0  0  0  0  0  0  0  0  0
  1  2  1  0
  2  3  1  0
  3  4  1  0
  4  5  2  0
  4  6  1  0
  6  7  2  0
  7  8  1  0
  8  9  2  0
  9 10  1  0
 10 11  1  0
 11 12  1  0
 12 13  1  0
 13 14  2  0
 14 15  1  0
 15 16  2  0
 16 17  1  0
 16 18  1  0
 18 19  2  0
  9 20  1  0
 20 21  2  0
 21  6  1  0
 19 13  1  0
  1 22  1  0
  1 23  1  0
  1 24  1  0
  2 25  1  0
  2 26  1  0
  7 27  1  0
  8 28  1  0
 10 29  1  0
 10 30  1  0
 11 31  1  0
 11 32  1  0
 12 33  1  0
 12 34  1  0
 14 35  1  0
 15 36  1  0
 17 37  1  0
 17 38  1  0
 17 39  1  0
 18 40  1  0
 19 41  1  0
 20 42  1  0
 21 43  1  0
M  CHG  1  10   1
M  END
>  <UniqueID>  (17) 
15

>  <SMILES>  (17) 
CCOC(=O)c1ccc([NH2+]CCc2ccc(C)cc2)cc1

>  <Energy>  (17) 
38.24537517316838

>  <Genealogy>  (17) 
CCOC(=O)c1ccc([NH2+]CCc2ccc(C)cc2)cc1 (protonated)
CCOC(=O)c1ccc([NH2+]CCc2ccc(C)cc2)cc1 (3D coordinates assigned)
CCOC(=O)c1ccc([NH2+]CCc2ccc(C)cc2)cc1 (optimized conformer: 38.24537517316838 kcal/mol)

>  <smiles>  (17) 
CCOC(=O)c1ccc(NCCc2ccc(C)cc2)cc1

>  <score_type>  (17) 
oracle

>  <origin>  (17) 
adg

>  <m_score__min__energy>  (17) 
-7.4500000000000002

>  <m_primary>  (17) 
energy

$$$$
17:0
     RDKit          3D

 38 40  0  0  0  0  0  0  0  0999 V2000
   -2.4250   18.3310  -34.1780 C   0  0  0  0  0  0  0  0  0  0  0  0
   -3.5090   18.4060  -33.1080 C   0  0  0  0  0  0  0  0  0  0  0  0
   -4.6240   17.5220  -33.4470 N   0  0  0  0  0  0  0  0  0  0  0  0
   -4.6100   16.1800  -33.3800 C   0  0  0  0  0  0  0  0  0  0  0  0
   -5.8210   15.7150  -33.8380 C   0  0  0  0  0  0  0  0  0  0  0  0
   -6.5970   16.7550  -34.2040 N   0  0  0  0  0  0  0  0  0  0  0  0
   -5.8350   17.8430  -33.9600 C   0  0  0  0  0  0  0  0  0  0  0  0
   -6.3200   19.2420  -34.2290 C   0  0  0  0  0  0  0  0  0  0  0  0
   -6.8140   19.8880  -32.9970 N   0  0  0  0  0  0  0  0  0  0  0  0
   -8.1940   19.5380  -32.6020 C   0  0  0  0  0  0  0  0  0  0  0  0
   -8.6030   20.1830  -31.2790 C   0  0  0  0  0  0  0  0  0  0  0  0
   -8.3660   21.6900  -31.3250 C   0  0  0  0  0  0  0  0  0  0  0  0
   -8.7080   22.2210  -30.0910 F   0  0  0  0  0  0  0  0  0  0  0  0
   -9.1700   22.2670  -32.2940 F   0  0  0  0  0  0  0  0  0  0  0  0
   -6.9210   21.9760  -31.6430 C   0  0  0  0  0  0  0  0  0  0  0  0
   -6.3280   23.1610  -31.1750 C   0  0  0  0  0  0  0  0  0  0  0  0
   -4.9810   23.4280  -31.4230 C   0  0  0  0  0  0  0  0  0  0  0  0
   -4.4120   24.6030  -30.9390 O   0  0  0  0  0  0  0  0  0  0  0  0
   -4.2160   22.5090  -32.1430 C   0  0  0  0  0  0  0  0  0  0  0  0
   -4.8000   21.3430  -32.6420 C   0  0  0  0  0  0  0  0  0  0  0  0
   -6.1730   21.0760  -32.4430 C   0  0  0  0  0  0  0  0  0  0  0  0
   -1.4384   18.2627  -33.6963 H   0  0  0  0  0  0  0  0  0  0  0  0
   -2.5893   17.4421  -34.8048 H   0  0  0  0  0  0  0  0  0  0  0  0
   -2.4653   19.2341  -34.8048 H   0  0  0  0  0  0  0  0  0  0  0  0
   -3.0848   18.0993  -32.1405 H   0  0  0  0  0  0  0  0  0  0  0  0
   -3.8796   19.4400  -33.0482 H   0  0  0  0  0  0  0  0  0  0  0  0
   -3.7749   15.5605  -33.0211 H   0  0  0  0  0  0  0  0  0  0  0  0
   -6.1119   14.6558  -33.8967 H   0  0  0  0  0  0  0  0  0  0  0  0
   -5.4890   19.8366  -34.6362 H   0  0  0  0  0  0  0  0  0  0  0  0
   -7.1507   19.1877  -34.9480 H   0  0  0  0  0  0  0  0  0  0  0  0
   -8.8835   19.8781  -33.3887 H   0  0  0  0  0  0  0  0  0  0  0  0
   -8.2385   18.4468  -32.4707 H   0  0  0  0  0  0  0  0  0  0  0  0
   -9.6703   19.9895  -31.0963 H   0  0  0  0  0  0  0  0  0  0  0  0
   -7.9962   19.7513  -30.4694 H   0  0  0  0  0  0  0  0  0  0  0  0
   -6.9314   23.8850  -30.6078 H   0  0  0  0  0  0  0  0  0  0  0  0
   -3.5060   24.9240  -31.2600 H   0  0  0  0  0  0  0  0  0  0  0  0
   -3.1477   22.7043  -32.3182 H   0  0  0  0  0  0  0  0  0  0  0  0
   -4.1824   20.6222  -33.1979 H   0  0  0  0  0  0  0  0  0  0  0  0
  1  2  1  0
  2  3  1  0
  3  4  1  0
  4  5  2  0
  5  6  1  0
  6  7  2  0
  7  8  1  0
  8  9  1  0
  9 10  1  0
 10 11  1  0
 11 12  1  0
 12 13  1  0
 12 14  1  0
 12 15  1  0
 15 16  2  0
 16 17  1  0
 17 18  1  0
 17 19  2  0
 19 20  1  0
 20 21  2  0
  7  3  1  0
 21  9  1  0
 21 15  1  0
  1 22  1  0
  1 23  1  0
  1 24  1  0
  2 25  1  0
  2 26  1  0
  4 27  1  0
  5 28  1  0
  8 29  1  0
  8 30  1  0
 10 31  1  0
 10 32  1  0
 11 33  1  0
 11 34  1  0
 16 35  1  0
 18 36  1  0
 19 37  1  0
 20 38  1  0
M  END
>  <UniqueID>  (18) 
16

>  <SMILES>  (18) 
CCn1ccnc1CN1CCC(F)(F)c2cc(O)ccc21

>  <Energy>  (18) 
69.05356100028534

>  <Genealogy>  (18) 
CCn1ccnc1CN1CCC(F)(F)c2cc(O)ccc21 (3D coordinates assigned)
CCn1ccnc1CN1CCC(F)(F)c2cc(O)ccc21 (nonaromatic ring conformer: 69.05356100028534 kcal/mol)

>  <smiles>  (18) 
CCn1ccnc1CN1CCC(F)(F)c2cc(O)ccc21

>  <score_type>  (18) 
oracle

>  <origin>  (18) 
adg

>  <m_score__min__energy>  (18) 
-7.0999999999999996

>  <m_primary>  (18) 
energy

$$$$
18:0
     RDKit          3D

 36 37  0  0  0  0  0  0  0  0999 V2000
   -4.1200   17.0720  -35.6660 O   0  0  0  0  0  0  0  0  0  0  0  0
   -5.0610   17.4420  -34.7130 C   0  0  0  0  0  0  0  0  0  0  0  0
   -5.9130   16.4810  -34.1610 C   0  0  0  0  0  0  0  0  0  0  0  0
   -6.8590   16.8520  -33.2000 C   0  0  0  0  0  0  0  0  0  0  0  0
   -6.9620   18.1900  -32.7870 C   0  0  0  0  0  0  0  0  0  0  0  0
   -7.9420   18.5860  -31.7140 C   0  0  0  0  0  0  0  0  0  0  0  0
   -9.2860   19.0550  -32.3010 C   0  0  0  0  0  0  0  0  0  0  0  0
   -9.3880   20.5240  -32.4110 N   0  0  0  0  0  0  0  0  0  0  0  0
   -8.1140   21.2080  -32.1400 C   0  0  0  0  0  0  0  0  0  0  0  0
   -8.3430   22.4150  -31.2270 C   0  0  0  0  0  0  0  0  0  0  0  0
   -7.0670   23.1930  -31.0530 C   0  0  0  0  0  0  0  0  0  0  0  0
   -7.0720   24.4260  -30.3810 C   0  0  0  0  0  0  0  0  0  0  0  0
   -5.8780   25.1280  -30.1880 C   0  0  0  0  0  0  0  0  0  0  0  0
   -4.6710   24.5990  -30.6540 C   0  0  0  0  0  0  0  0  0  0  0  0
   -3.4850   25.2980  -30.4610 O   0  0  0  0  0  0  0  0  0  0  0  0
   -4.6560   23.3650  -31.3130 C   0  0  0  0  0  0  0  0  0  0  0  0
   -5.8480   22.6610  -31.5080 C   0  0  0  0  0  0  0  0  0  0  0  0
   -6.1000   19.1500  -33.3430 C   0  0  0  0  0  0  0  0  0  0  0  0
   -5.1550   18.7760  -34.3040 C   0  0  0  0  0  0  0  0  0  0  0  0
   -5.8393   15.4317  -34.4829 H   0  0  0  0  0  0  0  0  0  0  0  0
   -7.5254   16.0921  -32.7658 H   0  0  0  0  0  0  0  0  0  0  0  0
   -8.1232   17.7190  -31.0617 H   0  0  0  0  0  0  0  0  0  0  0  0
   -7.5071   19.4251  -31.1512 H   0  0  0  0  0  0  0  0  0  0  0  0
   -9.4008   18.6198  -33.3047 H   0  0  0  0  0  0  0  0  0  0  0  0
  -10.0783   18.7213  -31.6148 H   0  0  0  0  0  0  0  0  0  0  0  0
  -10.1220   20.8900  -31.7610 H   0  0  0  0  0  0  0  0  0  0  0  0
   -7.4232   20.5071  -31.6486 H   0  0  0  0  0  0  0  0  0  0  0  0
   -7.6848   21.5553  -33.0914 H   0  0  0  0  0  0  0  0  0  0  0  0
   -9.1069   23.0678  -31.6745 H   0  0  0  0  0  0  0  0  0  0  0  0
   -8.6793   22.0579  -30.2424 H   0  0  0  0  0  0  0  0  0  0  0  0
   -8.0187   24.8412  -30.0050 H   0  0  0  0  0  0  0  0  0  0  0  0
   -5.8887   26.0977  -29.6688 H   0  0  0  0  0  0  0  0  0  0  0  0
   -3.7056   22.9484  -31.6780 H   0  0  0  0  0  0  0  0  0  0  0  0
   -5.8319   21.6872  -32.0193 H   0  0  0  0  0  0  0  0  0  0  0  0
   -6.1685   20.1997  -33.0214 H   0  0  0  0  0  0  0  0  0  0  0  0
   -4.4848   19.5322  -34.7387 H   0  0  0  0  0  0  0  0  0  0  0  0
  1  2  1  0
  2  3  2  0
  3  4  1  0
  4  5  2  0
  5  6  1  0
  6  7  1  0
  7  8  1  0
  8  9  1  0
  9 10  1  0
 10 11  1  0
 11 12  2  0
 12 13  1  0
 13 14  2  0
 14 15  1  0
 14 16  1  0
 16 17  2  0
  5 18  1  0
 18 19  2  0
 19  2  1  0
 17 11  1  0
  3 20  1  0
  4 21  1  0
  6 22  1  0
  6 23  1  0
  7 24  1  0
  7 25  1  0
  8 26  1  0
  9 27  1  0
  9 28  1  0
 10 29  1  0
 10 30  1  0
 12 31  1  0
 13 32  1  0
 16 33  1  0
 17 34  1  0
 18 35  1  0
 19 36  1  0
M  CHG  2   1  -1  15  -1
M  END
>  <UniqueID>  (19) 
17

>  <SMILES>  (19) 
[O-]c1ccc(CCNCCc2ccc([O-])cc2)cc1

>  <Energy>  (19) 
33.0040706673553

>  <Genealogy>  (19) 
[O-]c1ccc(CCNCCc2ccc([O-])cc2)cc1 (protonated)
[O-]c1ccc(CCNCCc2ccc([O-])cc2)cc1 (3D coordinates assigned)
[O-]c1ccc(CCNCCc2ccc([O-])cc2)cc1 (optimized conformer: 33.0040706673553 kcal/mol)

>  <smiles>  (19) 
Oc1ccc(CCNCCc2ccc(O)cc2)cc1

>  <score_type>  (19) 
oracle

>  <origin>  (19) 
adg

>  <m_score__min__energy>  (19) 
-11.130000000000001

>  <m_primary>  (19) 
energy

$$$$
19:0
     RDKit          3D

 60 63  0  0  0  0  0  0  0  0999 V2000
   -1.5050   24.4985  -29.5805 H   0  0  0  0  0  0  0  0  0  0  0  0
   -2.3370   23.8350  -29.3020 C   0  0  0  0  0  0  0  0  0  0  0  0
   -2.0300   22.7230  -28.6150 C   0  0  0  0  0  0  0  0  0  0  0  0
   -1.6966   22.8493  -27.5744 H   0  0  0  0  0  0  0  0  0  0  0  0
   -2.1040   21.3180  -29.1500 C   0  0  0  0  0  0  0  0  0  0  0  0
   -2.9410   21.2476  -29.8603 H   0  0  0  0  0  0  0  0  0  0  0  0
   -2.2551   20.6298  -28.3053 H   0  0  0  0  0  0  0  0  0  0  0  0
   -0.8500   20.9450  -29.8420 N   0  0  0  0  0  0  0  0  0  0  0  0
   -0.9220   19.5870  -30.4120 C   0  0  0  0  0  0  0  0  0  0  0  0
   -1.2517   18.8900  -29.6274 H   0  0  0  0  0  0  0  0  0  0  0  0
    0.0783   19.3230  -30.7857 H   0  0  0  0  0  0  0  0  0  0  0  0
   -1.9100   19.5060  -31.5980 C   0  0  0  0  0  0  0  0  0  0  0  0
   -2.8974   19.2105  -31.2137 H   0  0  0  0  0  0  0  0  0  0  0  0
   -1.5129   18.7683  -32.3108 H   0  0  0  0  0  0  0  0  0  0  0  0
   -2.0480   20.7960  -32.3190 N   0  0  0  0  0  0  0  0  0  0  0  0
   -2.4990   20.5910  -33.7130 C   0  0  0  0  0  0  0  0  0  0  0  0
   -1.6939   20.1020  -34.2811 H   0  0  0  0  0  0  0  0  0  0  0  0
   -2.7422   21.5728  -34.1454 H   0  0  0  0  0  0  0  0  0  0  0  0
   -3.7550   19.7140  -33.7730 C   0  0  0  0  0  0  0  0  0  0  0  0
   -3.7597   19.0252  -32.9154 H   0  0  0  0  0  0  0  0  0  0  0  0
   -3.7508   19.1407  -34.7118 H   0  0  0  0  0  0  0  0  0  0  0  0
   -4.9150   20.5260  -33.7290 O   0  0  0  0  0  0  0  0  0  0  0  0
   -6.0990   19.7500  -33.8410 C   0  0  0  0  0  0  0  0  0  0  0  0
   -6.4453   19.7925  -34.8842 H   0  0  0  0  0  0  0  0  0  0  0  0
   -7.1660   20.3090  -32.9250 C   0  0  0  0  0  0  0  0  0  0  0  0
   -8.4110   19.6680  -32.7800 C   0  0  0  0  0  0  0  0  0  0  0  0
   -8.6137   18.7372  -33.3301 H   0  0  0  0  0  0  0  0  0  0  0  0
   -9.3920   20.2070  -31.9410 C   0  0  0  0  0  0  0  0  0  0  0  0
  -10.3575   19.6931  -31.8240 H   0  0  0  0  0  0  0  0  0  0  0  0
   -9.1470   21.3980  -31.2510 C   0  0  0  0  0  0  0  0  0  0  0  0
  -10.0970   21.9150  -30.4350 F   0  0  0  0  0  0  0  0  0  0  0  0
   -7.9230   22.0560  -31.4060 C   0  0  0  0  0  0  0  0  0  0  0  0
   -7.7342   22.9976  -30.8696 H   0  0  0  0  0  0  0  0  0  0  0  0
   -6.9380   21.5190  -32.2420 C   0  0  0  0  0  0  0  0  0  0  0  0
   -5.9800   22.0451  -32.3664 H   0  0  0  0  0  0  0  0  0  0  0  0
   -5.8280   18.3050  -33.4740 C   0  0  0  0  0  0  0  0  0  0  0  0
   -5.7490   17.9060  -32.1260 C   0  0  0  0  0  0  0  0  0  0  0  0
   -5.8771   18.6505  -31.3264 H   0  0  0  0  0  0  0  0  0  0  0  0
   -5.5080   16.5650  -31.7980 C   0  0  0  0  0  0  0  0  0  0  0  0
   -5.4345   16.2623  -30.7430 H   0  0  0  0  0  0  0  0  0  0  0  0
   -5.3610   15.6120  -32.8090 C   0  0  0  0  0  0  0  0  0  0  0  0
   -5.1250   14.3120  -32.4900 F   0  0  0  0  0  0  0  0  0  0  0  0
   -5.4580   15.9970  -34.1500 C   0  0  0  0  0  0  0  0  0  0  0  0
   -5.3478   15.2457  -34.9458 H   0  0  0  0  0  0  0  0  0  0  0  0
   -5.6950   17.3360  -34.4820 C   0  0  0  0  0  0  0  0  0  0  0  0
   -5.7776   17.6311  -35.5385 H   0  0  0  0  0  0  0  0  0  0  0  0
   -0.7860   21.5520  -32.2960 C   0  0  0  0  0  0  0  0  0  0  0  0
   -0.8965   22.4615  -32.9048 H   0  0  0  0  0  0  0  0  0  0  0  0
    0.0170   20.9208  -32.7044 H   0  0  0  0  0  0  0  0  0  0  0  0
   -0.4270   21.9480  -30.8510 C   0  0  0  0  0  0  0  0  0  0  0  0
   -0.9187   22.9043  -30.6193 H   0  0  0  0  0  0  0  0  0  0  0  0
    0.6693   22.0200  -30.7971 H   0  0  0  0  0  0  0  0  0  0  0  0
   -3.6920   24.2450  -29.7160 C   0  0  0  0  0  0  0  0  0  0  0  0
   -3.9140   25.2930  -30.4730 O   0  0  0  0  0  0  0  0  0  0  0  0
   -5.2050   25.3960  -30.6860 C   0  0  0  0  0  0  0  0  0  0  0  0
   -5.6880   26.1867  -31.2789 H   0  0  0  0  0  0  0  0  0  0  0  0
   -5.8640   24.3630  -30.0540 C   0  0  0  0  0  0  0  0  0  0  0  0
   -6.9483   24.1780  -30.0449 H   0  0  0  0  0  0  0  0  0  0  0  0
   -4.8900   23.6090  -29.4360 C   0  0  0  0  0  0  0  0  0  0  0  0
   -5.0340   22.6932  -28.8439 H   0  0  0  0  0  0  0  0  0  0  0  0
  1  2  1  0
  2  3  2  0
  3  4  1  0
  3  5  1  0
  5  6  1  0
  5  7  1  0
  5  8  1  0
  8  9  1  0
  9 10  1  0
  9 11  1  0
  9 12  1  0
 12 13  1  0
 12 14  1  0
 12 15  1  0
 15 16  1  0
 16 17  1  0
 16 18  1  0
 16 19  1  0
 19 20  1  0
 19 21  1  0
 19 22  1  0
 22 23  1  0
 23 24  1  0
 23 25  1  0
 25 26  2  0
 26 27  1  0
 26 28  1  0
 28 29  1  0
 28 30  2  0
 30 31  1  0
 30 32  1  0
 32 33  1  0
 32 34  2  0
 34 35  1  0
 23 36  1  0
 36 37  2  0
 37 38  1  0
 37 39  1  0
 39 40  1  0
 39 41  2  0
 41 42  1  0
 41 43  1  0
 43 44  1  0
 43 45  2  0
 45 46  1  0
 15 47  1  0
 47 48  1  0
 47 49  1  0
 47 50  1  0
 50 51  1  0
 50 52  1  0
  2 53  1  0
 53 54  1  0
 54 55  1  0
 55 56  1  0
 55 57  2  0
 57 58  1  0
 57 59  1  0
 59 60  1  0
 50  8  1  0
 59 53  2  0
 34 25  1  0
 45 36  1  0
M  END
>  <UniqueID>  (20) 
18

>  <SMILES>  (20) 
Fc1ccc(C(OCCN2CCN(C/C=C\c3ccco3)CC2)c2ccc(F)cc2)cc1

>  <Energy>  (20) 
105.72623398597631

>  <Genealogy>  (20) 
Fc1ccc(C(OCCN2CCN(C/C=C\c3ccco3)CC2)c2ccc(F)cc2)cc1 (cis-trans isomerization)
Fc1ccc(C(OCCN2CCN(C/C=C\c3ccco3)CC2)c2ccc(F)cc2)cc1 (3D coordinates assigned)
Fc1ccc(C(OCCN2CCN(C/C=C\c3ccco3)CC2)c2ccc(F)cc2)cc1 (nonaromatic ring conformer: 105.72623398597631 kcal/mol)

>  <smiles>  (20) 
Fc1ccc(C(OCCN2CCN(CC=Cc3ccco3)CC2)c2ccc(F)cc2)cc1

>  <score_type>  (20) 
oracle

>  <origin>  (20) 
adg

>  <m_score__min__energy>  (20) 
-9.3300000000000001

>  <m_primary>  (20) 
energy

$$$$
20:0
     RDKit          3D

 30 31  0  0  0  0  0  0  0  0999 V2000
   -3.3990   21.2390  -33.0420 C   0  0  0  0  0  0  0  0  0  0  0  0
   -3.8550   22.3360  -32.2590 O   0  0  0  0  0  0  0  0  0  0  0  0
   -5.1980   22.5630  -31.9100 C   0  0  0  0  0  0  0  0  0  0  0  0
   -6.2450   21.7850  -32.4450 C   0  0  0  0  0  0  0  0  0  0  0  0
   -7.5700   22.0400  -32.0840 C   0  0  0  0  0  0  0  0  0  0  0  0
   -7.8670   23.0640  -31.1840 C   0  0  0  0  0  0  0  0  0  0  0  0
   -6.8390   23.8410  -30.6450 C   0  0  0  0  0  0  0  0  0  0  0  0
   -5.5040   23.6050  -31.0110 C   0  0  0  0  0  0  0  0  0  0  0  0
   -4.4290   24.4220  -30.4140 C   0  0  0  0  0  0  0  0  0  0  0  0
   -4.2460   25.5950  -30.8410 O   0  0  0  0  0  0  0  0  0  0  0  0
   -3.5950   23.9140  -29.3560 N   0  0  0  0  0  0  0  0  0  0  0  0
   -2.4060   24.6090  -28.8930 C   0  0  0  0  0  0  0  0  0  0  0  0
   -2.0370   23.9620  -27.5630 C   0  0  0  0  0  0  0  0  0  0  0  0
   -2.8190   22.6530  -27.5010 C   0  0  0  0  0  0  0  0  0  0  0  0
   -3.9580   22.7950  -28.5020 C   0  0  0  0  0  0  0  0  0  0  0  0
   -3.0624   20.4293  -32.3779 H   0  0  0  0  0  0  0  0  0  0  0  0
   -4.2204   20.8751  -33.6767 H   0  0  0  0  0  0  0  0  0  0  0  0
   -2.5617   21.5645  -33.6767 H   0  0  0  0  0  0  0  0  0  0  0  0
   -6.0171   20.9726  -33.1507 H   0  0  0  0  0  0  0  0  0  0  0  0
   -8.3815   21.4319  -32.5104 H   0  0  0  0  0  0  0  0  0  0  0  0
   -8.9112   23.2595  -30.8988 H   0  0  0  0  0  0  0  0  0  0  0  0
   -7.0765   24.6423  -29.9298 H   0  0  0  0  0  0  0  0  0  0  0  0
   -1.5866   24.4899  -29.6171 H   0  0  0  0  0  0  0  0  0  0  0  0
   -2.5861   25.6884  -28.7815 H   0  0  0  0  0  0  0  0  0  0  0  0
   -0.9558   23.7637  -27.5213 H   0  0  0  0  0  0  0  0  0  0  0  0
   -2.2811   24.6179  -26.7143 H   0  0  0  0  0  0  0  0  0  0  0  0
   -2.1713   21.8077  -27.7767 H   0  0  0  0  0  0  0  0  0  0  0  0
   -3.1969   22.4578  -26.4866 H   0  0  0  0  0  0  0  0  0  0  0  0
   -4.0618   21.8760  -29.0976 H   0  0  0  0  0  0  0  0  0  0  0  0
   -4.9214   22.9645  -27.9989 H   0  0  0  0  0  0  0  0  0  0  0  0
  1  2  1  0
  2  3  1  0
  3  4  2  0
  4  5  1  0
  5  6  2  0
  6  7  1  0
  7  8  2  0
  8  9  1  0
  9 10  2  0
  9 11  1  0
 11 12  1  0
 12 13  1  0
 13 14  1  0
 14 15  1  0
  8  3  1  0
 15 11  1  0
  1 16  1  0
  1 17  1  0
  1 18  1  0
  4 19  1  0
  5 20  1  0
  6 21  1  0
  7 22  1  0
 12 23  1  0
 12 24  1  0
 13 25  1  0
 13 26  1  0
 14 27  1  0
 14 28  1  0
 15 29  1  0
 15 30  1  0
M  END
>  <UniqueID>  (21) 
19

>  <SMILES>  (21) 
COc1ccccc1C(=O)N1CCCC1

>  <Energy>  (21) 
33.788601487197916

>  <Genealogy>  (21) 
COc1ccccc1C(=O)N1CCCC1 (3D coordinates assigned)
COc1ccccc1C(=O)N1CCCC1 (nonaromatic ring conformer: 33.788601487197916 kcal/mol)

>  <smiles>  (21) 
COc1ccccc1C(=O)N1CCCC1

>  <score_type>  (21) 
oracle

>  <origin>  (21) 
adg

>  <m_score__min__energy>  (21) 
-5.8799999999999999

>  <m_primary>  (21) 
energy

$$$$
21:0
     RDKit          3D

 36 38  0  0  0  0  0  0  0  0999 V2000
    0.8930   24.1520  -27.8160 C   0  0  0  0  0  0  0  0  0  0  0  0
   -0.1570   24.5330  -28.7000 O   0  0  0  0  0  0  0  0  0  0  0  0
   -1.5230   24.4400  -28.3930 C   0  0  0  0  0  0  0  0  0  0  0  0
   -1.9240   24.6770  -27.0730 C   0  0  0  0  0  0  0  0  0  0  0  0
   -3.2710   24.5970  -26.7180 C   0  0  0  0  0  0  0  0  0  0  0  0
   -4.2340   24.2800  -27.6790 C   0  0  0  0  0  0  0  0  0  0  0  0
   -3.8550   24.0430  -29.0110 C   0  0  0  0  0  0  0  0  0  0  0  0
   -4.8390   23.7050  -30.0080 N   0  0  0  0  0  0  0  0  0  0  0  0
   -5.4260   22.5210  -30.1090 N   0  0  0  0  0  0  0  0  0  0  0  0
   -6.2800   22.5570  -31.1530 C   0  0  0  0  0  0  0  0  0  0  0  0
   -7.0980   21.4510  -31.5650 N   0  0  0  0  0  0  0  0  0  0  0  0
   -6.6000   20.3350  -32.3470 C   0  0  0  0  0  0  0  0  0  0  0  0
   -7.7510   19.3400  -32.4200 C   0  0  0  0  0  0  0  0  0  0  0  0
   -9.0030   20.1130  -32.0100 C   0  0  0  0  0  0  0  0  0  0  0  0
   -8.5100   21.3350  -31.2460 C   0  0  0  0  0  0  0  0  0  0  0  0
   -6.2440   23.8060  -31.7510 C   0  0  0  0  0  0  0  0  0  0  0  0
   -5.3170   24.4940  -30.9950 C   0  0  0  0  0  0  0  0  0  0  0  0
   -4.9420   25.6770  -31.2120 O   0  0  0  0  0  0  0  0  0  0  0  0
   -2.4950   24.1200  -29.3600 C   0  0  0  0  0  0  0  0  0  0  0  0
    0.5583   24.2735  -26.7752 H   0  0  0  0  0  0  0  0  0  0  0  0
    1.1594   23.0999  -27.9951 H   0  0  0  0  0  0  0  0  0  0  0  0
    1.7721   24.7884  -27.9951 H   0  0  0  0  0  0  0  0  0  0  0  0
   -1.1721   24.9280  -26.3104 H   0  0  0  0  0  0  0  0  0  0  0  0
   -3.5757   24.7842  -25.6777 H   0  0  0  0  0  0  0  0  0  0  0  0
   -5.2938   24.2156  -27.3916 H   0  0  0  0  0  0  0  0  0  0  0  0
   -5.2580   21.7130  -29.4700 H   0  0  0  0  0  0  0  0  0  0  0  0
   -6.3168   20.6692  -33.3560 H   0  0  0  0  0  0  0  0  0  0  0  0
   -5.7035   19.8877  -31.8929 H   0  0  0  0  0  0  0  0  0  0  0  0
   -7.8584   18.9544  -33.4446 H   0  0  0  0  0  0  0  0  0  0  0  0
   -7.5782   18.4753  -31.7624 H   0  0  0  0  0  0  0  0  0  0  0  0
   -9.5702   20.4220  -32.9004 H   0  0  0  0  0  0  0  0  0  0  0  0
   -9.6739   19.4962  -31.3941 H   0  0  0  0  0  0  0  0  0  0  0  0
   -9.0523   22.2354  -31.5705 H   0  0  0  0  0  0  0  0  0  0  0  0
   -8.6758   21.2326  -30.1634 H   0  0  0  0  0  0  0  0  0  0  0  0
   -6.8166   24.1634  -32.6196 H   0  0  0  0  0  0  0  0  0  0  0  0
   -2.1875   23.9284  -30.3986 H   0  0  0  0  0  0  0  0  0  0  0  0
  1  2  1  0
  2  3  1  0
  3  4  2  0
  4  5  1  0
  5  6  2  0
  6  7  1  0
  7  8  1  0
  8  9  1  0
  9 10  1  0
 10 11  1  0
 11 12  1  0
 12 13  1  0
 13 14  1  0
 14 15  1  0
 10 16  2  0
 16 17  1  0
 17 18  2  0
  7 19  2  0
 19  3  1  0
 17  8  1  0
 15 11  1  0
  1 20  1  0
  1 21  1  0
  1 22  1  0
  4 23  1  0
  5 24  1  0
  6 25  1  0
  9 26  1  0
 12 27  1  0
 12 28  1  0
 13 29  1  0
 13 30  1  0
 14 31  1  0
 14 32  1  0
 15 33  1  0
 15 34  1  0
 16 35  1  0
 19 36  1  0
M  END
>  <UniqueID>  (22) 
20

>  <SMILES>  (22) 
COc1cccc(-n2[nH]c(N3CCCC3)cc2=O)c1

>  <Energy>  (22) 
72.57502425549984

>  <Genealogy>  (22) 
COc1cccc(-n2[nH]c(N3CCCC3)cc2=O)c1 (3D coordinates assigned)
COc1cccc(-n2[nH]c(N3CCCC3)cc2=O)c1 (nonaromatic ring conformer: 72.57502425549984 kcal/mol)

>  <smiles>  (22) 
COc1cccc(-n2[nH]c(N3CCCC3)cc2=O)c1

>  <score_type>  (22) 
oracle

>  <origin>  (22) 
adg

>  <m_score__min__energy>  (22) 
-7.2400000000000002

>  <m_primary>  (22) 
energy

$$$$
22:0
     RDKit          3D

 42 43  0  0  0  0  0  0  0  0999 V2000
   -5.4051   26.6031  -31.0269 H   0  0  0  0  0  0  0  0  0  0  0  0
   -5.1080   25.5630  -30.8270 C   0  0  0  0  0  0  0  0  0  0  0  0
   -3.8480   25.2910  -30.4050 N   0  0  0  0  0  0  0  0  0  0  0  0
   -3.4370   24.0220  -30.1470 C   0  0  0  0  0  0  0  0  0  0  0  0
   -2.1270   23.7940  -29.7120 C   0  0  0  0  0  0  0  0  0  0  0  0
   -1.4376   24.6411  -29.5808 H   0  0  0  0  0  0  0  0  0  0  0  0
   -1.6920   22.4950  -29.4440 C   0  0  0  0  0  0  0  0  0  0  0  0
   -0.6608   22.3207  -29.1031 H   0  0  0  0  0  0  0  0  0  0  0  0
   -2.5640   21.4160  -29.6080 C   0  0  0  0  0  0  0  0  0  0  0  0
   -2.2169   20.3940  -29.3958 H   0  0  0  0  0  0  0  0  0  0  0  0
   -3.8770   21.6300  -30.0410 C   0  0  0  0  0  0  0  0  0  0  0  0
   -4.5578   20.7753  -30.1677 H   0  0  0  0  0  0  0  0  0  0  0  0
   -4.3320   22.9370  -30.3160 C   0  0  0  0  0  0  0  0  0  0  0  0
   -5.6510   23.1960  -30.7580 C   0  0  0  0  0  0  0  0  0  0  0  0
   -6.4840   22.2000  -30.9150 N   0  0  0  0  0  0  0  0  0  0  0  0
   -7.9120   22.1660  -30.5980 C   0  0  0  0  0  0  0  0  0  0  0  0
   -8.1983   23.1130  -30.1172 H   0  0  0  0  0  0  0  0  0  0  0  0
   -8.1050   21.3217  -29.9198 H   0  0  0  0  0  0  0  0  0  0  0  0
   -8.7450   21.9760  -31.8760 C   0  0  0  0  0  0  0  0  0  0  0  0
   -8.2913   22.5666  -32.6855 H   0  0  0  0  0  0  0  0  0  0  0  0
   -9.7711   22.3102  -31.6629 H   0  0  0  0  0  0  0  0  0  0  0  0
   -8.8100   20.5000  -32.3150 C   0  0  0  0  0  0  0  0  0  0  0  0
   -9.1879   20.4556  -33.3471 H   0  0  0  0  0  0  0  0  0  0  0  0
   -9.4765   19.9734  -31.6161 H   0  0  0  0  0  0  0  0  0  0  0  0
   -7.4780   19.8270  -32.2640 N   0  0  0  0  0  0  0  0  0  0  0  0
   -6.9520   20.1730  -31.4270 H   0  0  0  0  0  0  0  0  0  0  0  0
   -7.5990   18.3540  -32.1130 C   0  0  0  0  0  0  0  0  0  0  0  0
   -7.5708   17.8924  -33.1110 H   0  0  0  0  0  0  0  0  0  0  0  0
   -8.5498   18.1447  -31.6009 H   0  0  0  0  0  0  0  0  0  0  0  0
   -6.4670   17.7620  -31.2630 C   0  0  0  0  0  0  0  0  0  0  0  0
   -6.7056   17.8868  -30.1965 H   0  0  0  0  0  0  0  0  0  0  0  0
   -6.3582   16.6915  -31.4916 H   0  0  0  0  0  0  0  0  0  0  0  0
   -5.5257   18.2833  -31.4916 H   0  0  0  0  0  0  0  0  0  0  0  0
   -6.6280   20.1980  -33.4290 C   0  0  0  0  0  0  0  0  0  0  0  0
   -7.2195   20.8471  -34.0914 H   0  0  0  0  0  0  0  0  0  0  0  0
   -5.7374   20.6951  -33.0171 H   0  0  0  0  0  0  0  0  0  0  0  0
   -6.1150   19.0060  -34.2590 C   0  0  0  0  0  0  0  0  0  0  0  0
   -5.7720   18.2090  -33.5829 H   0  0  0  0  0  0  0  0  0  0  0  0
   -6.9283   18.6239  -34.8934 H   0  0  0  0  0  0  0  0  0  0  0  0
   -5.2784   19.3340  -34.8934 H   0  0  0  0  0  0  0  0  0  0  0  0
   -6.0290   24.5320  -31.0090 C   0  0  0  0  0  0  0  0  0  0  0  0
   -7.0502   24.7602  -31.3482 H   0  0  0  0  0  0  0  0  0  0  0  0
  1  2  1  0
  2  3  1  0
  3  4  1  0
  4  5  2  0
  5  6  1  0
  5  7  1  0
  7  8  1  0
  7  9  2  0
  9 10  1  0
  9 11  1  0
 11 12  1  0
 11 13  2  0
 13 14  1  0
 14 15  2  0
 15 16  1  0
 16 17  1  0
 16 18  1  0
 16 19  1  0
 19 20  1  0
 19 21  1  0
 19 22  1  0
 22 23  1  0
 22 24  1  0
 22 25  1  0
 25 26  1  0
 25 27  1  0
 27 28  1  0
 27 29  1  0
 27 30  1  0
 30 31  1  0
 30 32  1  0
 30 33  1  0
 25 34  1  0
 34 35  1  0
 34 36  1  0
 34 37  1  0
 37 38  1  0
 37 39  1  0
 37 40  1  0
 14 41  1  0
 41 42  1  0
 41  2  2  0
 13  4  1  0
M  CHG  2   3  -1  25   1
M  END
>  <UniqueID>  (23) 
21

>  <SMILES>  (23) 
CC[NH+](CC)CCC/N=c1\cc[n-]c2ccccc12

>  <Energy>  (23) 
50.91770157026923

>  <Genealogy>  (23) 
CC[NH+](CC)CCCN=c1cc[n-]c2ccccc12 (protonated)
CC[NH+](CC)CCC/N=c1\cc[n-]c2ccccc12 (cis-trans isomerization)
CC[NH+](CC)CCC/N=c1\cc[n-]c2ccccc12 (3D coordinates assigned)
CC[NH+](CC)CCC/N=c1\cc[n-]c2ccccc12 (optimized conformer: 50.91770157026923 kcal/mol)

>  <smiles>  (23) 
CCN(CC)CCCN=c1cc[nH]c2ccccc12

>  <score_type>  (23) 
oracle

>  <origin>  (23) 
adg

>  <m_score__min__energy>  (23) 
-7.8300000000000001

>  <m_primary>  (23) 
energy

$$$$
23:0
     RDKit          3D

 32 34  0  0  0  0  0  0  0  0999 V2000
   -3.5120   22.1270  -30.0270 C   0  0  0  0  0  0  0  0  0  0  0  0
   -4.7230   22.7950  -30.5150 N   0  0  0  0  0  0  0  0  0  0  0  0
   -4.7460   24.2180  -30.7270 C   0  0  0  0  0  0  0  0  0  0  0  0
   -3.7350   24.9240  -30.4650 O   0  0  0  0  0  0  0  0  0  0  0  0
   -5.9610   24.8600  -31.3320 C   0  0  0  0  0  0  0  0  0  0  0  0
   -7.2360   24.1960  -30.8020 C   0  0  0  0  0  0  0  0  0  0  0  0
   -7.1650   22.7370  -30.9080 N   0  0  0  0  0  0  0  0  0  0  0  0
   -8.5940   21.7880  -30.5000 S   0  0  0  0  0  0  0  0  0  0  0  0
   -8.2030   20.5550  -31.7350 C   0  0  0  0  0  0  0  0  0  0  0  0
   -6.9420   20.1210  -31.9050 C   0  0  0  0  0  0  0  0  0  0  0  0
   -6.6650   18.9960  -32.8350 C   0  0  0  0  0  0  0  0  0  0  0  0
   -5.9640   19.2070  -34.0380 C   0  0  0  0  0  0  0  0  0  0  0  0
   -5.7150   18.1420  -34.9080 C   0  0  0  0  0  0  0  0  0  0  0  0
   -6.1630   16.8570  -34.5900 C   0  0  0  0  0  0  0  0  0  0  0  0
   -6.8610   16.6360  -33.4010 C   0  0  0  0  0  0  0  0  0  0  0  0
   -7.1140   17.6990  -32.5270 C   0  0  0  0  0  0  0  0  0  0  0  0
   -5.8300   20.8120  -31.2860 N   0  0  0  0  0  0  0  0  0  0  0  0
   -5.9050   22.0520  -30.8770 C   0  0  0  0  0  0  0  0  0  0  0  0
   -3.5114   22.1267  -28.9270 H   0  0  0  0  0  0  0  0  0  0  0  0
   -3.4920   21.0902  -30.3940 H   0  0  0  0  0  0  0  0  0  0  0  0
   -2.6243   22.6631  -30.3940 H   0  0  0  0  0  0  0  0  0  0  0  0
   -5.9738   25.9287  -31.0717 H   0  0  0  0  0  0  0  0  0  0  0  0
   -5.9226   24.7375  -32.4245 H   0  0  0  0  0  0  0  0  0  0  0  0
   -7.3699   24.4716  -29.7455 H   0  0  0  0  0  0  0  0  0  0  0  0
   -8.0848   24.5453  -31.4083 H   0  0  0  0  0  0  0  0  0  0  0  0
   -9.0064   20.1455  -32.3650 H   0  0  0  0  0  0  0  0  0  0  0  0
   -5.6102   20.2165  -34.2945 H   0  0  0  0  0  0  0  0  0  0  0  0
   -5.1653   18.3155  -35.8449 H   0  0  0  0  0  0  0  0  0  0  0  0
   -5.9659   16.0201  -35.2760 H   0  0  0  0  0  0  0  0  0  0  0  0
   -7.2127   15.6242  -33.1509 H   0  0  0  0  0  0  0  0  0  0  0  0
   -7.6673   17.5193  -31.5934 H   0  0  0  0  0  0  0  0  0  0  0  0
   -4.9050   20.3300  -31.2990 H   0  0  0  0  0  0  0  0  0  0  0  0
  1  2  1  0
  2  3  1  0
  3  4  2  0
  3  5  1  0
  5  6  1  0
  6  7  1  0
  7  8  1  0
  8  9  1  0
  9 10  2  0
 10 11  1  0
 11 12  2  0
 12 13  1  0
 13 14  2  0
 14 15  1  0
 15 16  2  0
 10 17  1  0
 17 18  2  0
 18  2  1  0
 18  7  1  0
 16 11  1  0
  1 19  1  0
  1 20  1  0
  1 21  1  0
  5 22  1  0
  5 23  1  0
  6 24  1  0
  6 25  1  0
  9 26  1  0
 12 27  1  0
 13 28  1  0
 14 29  1  0
 15 30  1  0
 16 31  1  0
 17 32  1  0
M  CHG  1  17   1
M  END
>  <UniqueID>  (24) 
22

>  <SMILES>  (24) 
CN1C(=O)CCN2SC=C(c3ccccc3)[NH+]=C21

>  <Energy>  (24) 
50.34448762373324

>  <Genealogy>  (24) 
CN1C(=O)CCN2SC=C(c3ccccc3)[NH+]=C21 (protonated)
CN1C(=O)CCN2SC=C(c3ccccc3)[NH+]=C21 (3D coordinates assigned)
CN1C(=O)CCN2SC=C(c3ccccc3)[NH+]=C21 (nonaromatic ring conformer: 50.34448762373324 kcal/mol)

>  <smiles>  (24) 
CN1C(=O)CCN2SC=C(c3ccccc3)N=C21

>  <score_type>  (24) 
oracle

>  <origin>  (24) 
adg

>  <m_score__min__energy>  (24) 
-7.1900000000000004

>  <m_primary>  (24) 
energy

$$$$
24:0
     RDKit          3D

 40 42  0  0  0  0  0  0  0  0999 V2000
   -4.4630   17.7050  -34.0230 C   0  0  0  0  0  0  0  0  0  0  0  0
   -3.4330   18.4430  -33.2810 N   0  0  0  0  0  0  0  0  0  0  0  0
   -2.1110   17.8310  -33.1020 C   0  0  0  0  0  0  0  0  0  0  0  0
   -3.7180   19.7580  -32.7350 C   0  0  0  0  0  0  0  0  0  0  0  0
   -4.1870   19.9080  -31.4150 C   0  0  0  0  0  0  0  0  0  0  0  0
   -4.4690   21.1740  -30.8940 C   0  0  0  0  0  0  0  0  0  0  0  0
   -4.3020   22.3190  -31.6830 C   0  0  0  0  0  0  0  0  0  0  0  0
   -4.6170   23.6610  -31.1540 C   0  0  0  0  0  0  0  0  0  0  0  0
   -3.6730   24.5680  -30.8360 N   0  0  0  0  0  0  0  0  0  0  0  0
   -4.2720   25.6770  -30.4280 N   0  0  0  0  0  0  0  0  0  0  0  0
   -5.6050   25.4950  -30.4900 C   0  0  0  0  0  0  0  0  0  0  0  0
   -5.8690   24.2270  -30.9620 C   0  0  0  0  0  0  0  0  0  0  0  0
   -7.2330   23.6620  -31.2550 C   0  0  0  0  0  0  0  0  0  0  0  0
   -7.1980   22.7460  -32.3960 N   0  0  0  0  0  0  0  0  0  0  0  0
   -7.5290   21.3470  -32.3230 C   0  0  0  0  0  0  0  0  0  0  0  0
   -8.4440   20.8460  -31.3820 C   0  0  0  0  0  0  0  0  0  0  0  0
   -8.7460   19.4830  -31.3590 C   0  0  0  0  0  0  0  0  0  0  0  0
   -8.1280   18.6280  -32.2740 C   0  0  0  0  0  0  0  0  0  0  0  0
   -7.2410   19.1250  -33.1760 N   0  0  0  0  0  0  0  0  0  0  0  0
   -6.9300   20.4480  -33.2190 C   0  0  0  0  0  0  0  0  0  0  0  0
   -3.8120   22.1840  -32.9880 C   0  0  0  0  0  0  0  0  0  0  0  0
   -3.5290   20.9200  -33.5110 C   0  0  0  0  0  0  0  0  0  0  0  0
   -5.1462   17.2155  -33.3133 H   0  0  0  0  0  0  0  0  0  0  0  0
   -5.0303   18.4034  -34.6558 H   0  0  0  0  0  0  0  0  0  0  0  0
   -3.9841   16.9432  -34.6558 H   0  0  0  0  0  0  0  0  0  0  0  0
   -1.8955   17.7312  -32.0279 H   0  0  0  0  0  0  0  0  0  0  0  0
   -2.1007   16.8365  -33.5720 H   0  0  0  0  0  0  0  0  0  0  0  0
   -1.3460   18.4666  -33.5720 H   0  0  0  0  0  0  0  0  0  0  0  0
   -4.3331   19.0173  -30.7863 H   0  0  0  0  0  0  0  0  0  0  0  0
   -4.8244   21.2716  -29.8576 H   0  0  0  0  0  0  0  0  0  0  0  0
   -6.3633   26.2404  -30.2085 H   0  0  0  0  0  0  0  0  0  0  0  0
   -7.5924   23.1171  -30.3696 H   0  0  0  0  0  0  0  0  0  0  0  0
   -7.9074   24.4955  -31.5009 H   0  0  0  0  0  0  0  0  0  0  0  0
   -6.9760   23.1550  -33.3320 H   0  0  0  0  0  0  0  0  0  0  0  0
   -8.9225   21.5276  -30.6633 H   0  0  0  0  0  0  0  0  0  0  0  0
   -9.4644   19.0862  -30.6266 H   0  0  0  0  0  0  0  0  0  0  0  0
   -8.3590   17.5526  -32.2647 H   0  0  0  0  0  0  0  0  0  0  0  0
   -6.2050   20.8157  -33.9601 H   0  0  0  0  0  0  0  0  0  0  0  0
   -3.6488   23.0796  -33.6055 H   0  0  0  0  0  0  0  0  0  0  0  0
   -3.1540   20.8300  -34.5412 H   0  0  0  0  0  0  0  0  0  0  0  0
  1  2  1  0
  2  3  1  0
  2  4  1  0
  4  5  2  0
  5  6  1  0
  6  7  2  0
  7  8  1  0
  8  9  1  0
  9 10  1  0
 10 11  2  0
 11 12  1  0
 12 13  1  0
 13 14  1  0
 14 15  1  0
 15 16  2  0
 16 17  1  0
 17 18  2  0
 18 19  1  0
 19 20  2  0
  7 21  1  0
 21 22  2  0
 22  4  1  0
 12  8  2  0
 20 15  1  0
  1 23  1  0
  1 24  1  0
  1 25  1  0
  3 26  1  0
  3 27  1  0
  3 28  1  0
  5 29  1  0
  6 30  1  0
 11 31  1  0
 13 32  1  0
 13 33  1  0
 14 34  1  0
 16 35  1  0
 17 36  1  0
 18 37  1  0
 20 38  1  0
 21 39  1  0
 22 40  1  0
M  CHG  1   9  -1
M  END
>  <UniqueID>  (25) 
23

>  <SMILES>  (25) 
CN(C)c1ccc(-c2[n-]ncc2CNc2cccnc2)cc1

>  <Energy>  (25) 
76.28317331863651

>  <Genealogy>  (25) 
CN(C)c1ccc(-c2[n-]ncc2CNc2cccnc2)cc1 (protonated)
CN(C)c1ccc(-c2[n-]ncc2CNc2cccnc2)cc1 (3D coordinates assigned)
CN(C)c1ccc(-c2[n-]ncc2CNc2cccnc2)cc1 (optimized conformer: 76.28317331863651 kcal/mol)

>  <smiles>  (25) 
CN(C)c1ccc(-c2[nH]ncc2CNc2cccnc2)cc1

>  <score_type>  (25) 
oracle

>  <origin>  (25) 
adg

>  <m_score__min__energy>  (25) 
-9.0700000000000003

>  <m_primary>  (25) 
energy

$$$$
25:0
     RDKit          3D

 36 38  0  0  0  0  0  0  0  0999 V2000
   -8.3610   18.3410  -31.7970 C   0  0  0  0  0  0  0  0  0  0  0  0
   -8.5460   19.5020  -32.7710 C   0  0  0  0  0  0  0  0  0  0  0  0
   -8.2300   20.8160  -32.1120 C   0  0  0  0  0  0  0  0  0  0  0  0
   -9.1980   21.5720  -31.5550 N   0  0  0  0  0  0  0  0  0  0  0  0
   -8.6560   22.6810  -31.0860 N   0  0  0  0  0  0  0  0  0  0  0  0
   -7.3410   22.5820  -31.3580 C   0  0  0  0  0  0  0  0  0  0  0  0
   -6.4140   23.5390  -31.0620 N   0  0  0  0  0  0  0  0  0  0  0  0
   -6.8230   24.7950  -30.4040 C   0  0  0  0  0  0  0  0  0  0  0  0
   -5.8480   25.1520  -29.2870 C   0  0  0  0  0  0  0  0  0  0  0  0
   -5.1130   23.3330  -31.4430 C   0  0  0  0  0  0  0  0  0  0  0  0
   -4.2420   24.2210  -31.2170 O   0  0  0  0  0  0  0  0  0  0  0  0
   -4.7350   22.1300  -32.0860 C   0  0  0  0  0  0  0  0  0  0  0  0
   -3.3980   21.8960  -32.4560 C   0  0  0  0  0  0  0  0  0  0  0  0
   -3.0320   20.7000  -33.0680 C   0  0  0  0  0  0  0  0  0  0  0  0
   -3.9910   19.7160  -33.3230 C   0  0  0  0  0  0  0  0  0  0  0  0
   -3.5790   18.4040  -33.9250 C   0  0  0  0  0  0  0  0  0  0  0  0
   -5.3250   19.9300  -32.9460 C   0  0  0  0  0  0  0  0  0  0  0  0
   -5.7250   21.1450  -32.3490 C   0  0  0  0  0  0  0  0  0  0  0  0
   -7.0180   21.4310  -31.9870 N   0  0  0  0  0  0  0  0  0  0  0  0
   -8.4207   18.7156  -30.7645 H   0  0  0  0  0  0  0  0  0  0  0  0
   -9.1515   17.5941  -31.9624 H   0  0  0  0  0  0  0  0  0  0  0  0
   -7.3776   17.8768  -31.9624 H   0  0  0  0  0  0  0  0  0  0  0  0
   -7.8745   19.3604  -33.6307 H   0  0  0  0  0  0  0  0  0  0  0  0
   -9.5957   19.5190  -33.0995 H   0  0  0  0  0  0  0  0  0  0  0  0
  -10.2170   21.3470  -31.5050 H   0  0  0  0  0  0  0  0  0  0  0  0
   -6.8356   25.6060  -31.1470 H   0  0  0  0  0  0  0  0  0  0  0  0
   -7.8262   24.6617  -29.9729 H   0  0  0  0  0  0  0  0  0  0  0  0
   -6.3269   24.9767  -28.3124 H   0  0  0  0  0  0  0  0  0  0  0  0
   -4.9481   24.5250  -29.3715 H   0  0  0  0  0  0  0  0  0  0  0  0
   -5.5657   26.2118  -29.3715 H   0  0  0  0  0  0  0  0  0  0  0  0
   -2.6354   22.6642  -32.2602 H   0  0  0  0  0  0  0  0  0  0  0  0
   -1.9832   20.5289  -33.3521 H   0  0  0  0  0  0  0  0  0  0  0  0
   -3.3538   17.6867  -33.1220 H   0  0  0  0  0  0  0  0  0  0  0  0
   -4.3976   18.0128  -34.5471 H   0  0  0  0  0  0  0  0  0  0  0  0
   -2.6838   18.5510  -34.5471 H   0  0  0  0  0  0  0  0  0  0  0  0
   -6.0703   19.1395  -33.1181 H   0  0  0  0  0  0  0  0  0  0  0  0
  1  2  1  0
  2  3  1  0
  3  4  2  0
  4  5  1  0
  5  6  2  0
  6  7  1  0
  7  8  1  0
  8  9  1  0
  7 10  1  0
 10 11  2  0
 10 12  1  0
 12 13  2  0
 13 14  1  0
 14 15  2  0
 15 16  1  0
 15 17  1  0
 17 18  2  0
 18 19  1  0
 19  3  1  0
 19  6  1  0
 18 12  1  0
  1 20  1  0
  1 21  1  0
  1 22  1  0
  2 23  1  0
  2 24  1  0
  4 25  1  0
  8 26  1  0
  8 27  1  0
  9 28  1  0
  9 29  1  0
  9 30  1  0
 13 31  1  0
 14 32  1  0
 16 33  1  0
 16 34  1  0
 16 35  1  0
 17 36  1  0
M  CHG  1   4   1
M  END
>  <UniqueID>  (26) 
24

>  <SMILES>  (26) 
CCc1[nH+]nc2n(CC)c(=O)c3ccc(C)cc3n12

>  <Energy>  (26) 
86.54449158160375

>  <Genealogy>  (26) 
CCc1[nH+]nc2n(CC)c(=O)c3ccc(C)cc3n12 (protonated)
CCc1[nH+]nc2n(CC)c(=O)c3ccc(C)cc3n12 (3D coordinates assigned)
CCc1[nH+]nc2n(CC)c(=O)c3ccc(C)cc3n12 (optimized conformer: 86.54449158160375 kcal/mol)

>  <smiles>  (26) 
CCc1nnc2n(CC)c(=O)c3ccc(C)cc3n12

>  <score_type>  (26) 
oracle

>  <origin>  (26) 
adg

>  <m_score__min__energy>  (26) 
-7.25

>  <m_primary>  (26) 
energy

$$$$
26:0
     RDKit          3D

 43 45  0  0  0  0  0  0  0  0999 V2000
   -4.0130   25.6370  -30.8530 O   0  0  0  0  0  0  0  0  0  0  0  0
   -4.9270   25.0620  -29.9600 C   0  0  0  0  0  0  0  0  0  0  0  0
   -4.1910   24.1070  -29.0220 C   0  0  0  0  0  0  0  0  0  0  0  0
   -3.3000   23.2110  -29.7900 N   0  0  0  0  0  0  0  0  0  0  0  0
   -1.8900   23.3800  -29.3980 C   0  0  0  0  0  0  0  0  0  0  0  0
   -0.9730   22.6100  -30.3720 C   0  0  0  0  0  0  0  0  0  0  0  0
   -1.6400   21.4540  -31.0190 N   0  0  0  0  0  0  0  0  0  0  0  0
   -2.2150   21.7950  -32.3400 C   0  0  0  0  0  0  0  0  0  0  0  0
   -3.5050   21.0660  -32.5570 C   0  0  0  0  0  0  0  0  0  0  0  0
   -3.6000   19.8590  -33.1470 N   0  0  0  0  0  0  0  0  0  0  0  0
   -4.9140   19.5850  -33.1620 C   0  0  0  0  0  0  0  0  0  0  0  0
   -5.5780   20.6490  -32.5760 C   0  0  0  0  0  0  0  0  0  0  0  0
   -7.0350   20.8070  -32.3680 C   0  0  0  0  0  0  0  0  0  0  0  0
   -7.5430   22.0380  -31.9130 C   0  0  0  0  0  0  0  0  0  0  0  0
   -8.9160   22.2080  -31.7120 C   0  0  0  0  0  0  0  0  0  0  0  0
   -9.7960   21.1520  -31.9590 C   0  0  0  0  0  0  0  0  0  0  0  0
   -9.3040   19.9250  -32.4100 C   0  0  0  0  0  0  0  0  0  0  0  0
   -7.9320   19.7490  -32.6130 C   0  0  0  0  0  0  0  0  0  0  0  0
   -4.6810   21.5410  -32.2180 O   0  0  0  0  0  0  0  0  0  0  0  0
   -2.6190   20.8160  -30.1110 C   0  0  0  0  0  0  0  0  0  0  0  0
   -3.7070   21.7990  -29.6250 C   0  0  0  0  0  0  0  0  0  0  0  0
   -3.4860   24.8840  -31.2290 H   0  0  0  0  0  0  0  0  0  0  0  0
   -5.4113   25.8543  -29.3703 H   0  0  0  0  0  0  0  0  0  0  0  0
   -5.6902   24.5059  -30.5241 H   0  0  0  0  0  0  0  0  0  0  0  0
   -3.5902   24.6910  -28.3093 H   0  0  0  0  0  0  0  0  0  0  0  0
   -4.9309   23.4967  -28.4834 H   0  0  0  0  0  0  0  0  0  0  0  0
   -1.6311   24.4488  -29.4226 H   0  0  0  0  0  0  0  0  0  0  0  0
   -1.7489   22.9841  -28.3815 H   0  0  0  0  0  0  0  0  0  0  0  0
   -0.6377   23.3035  -31.1573 H   0  0  0  0  0  0  0  0  0  0  0  0
   -0.1337   22.2126  -29.7825 H   0  0  0  0  0  0  0  0  0  0  0  0
   -2.3999   22.8784  -32.3851 H   0  0  0  0  0  0  0  0  0  0  0  0
   -1.5032   21.4977  -33.1242 H   0  0  0  0  0  0  0  0  0  0  0  0
   -2.8250   19.2660  -33.5200 H   0  0  0  0  0  0  0  0  0  0  0  0
   -5.3808   18.6755  -33.5682 H   0  0  0  0  0  0  0  0  0  0  0  0
   -6.8547   22.8726  -31.7140 H   0  0  0  0  0  0  0  0  0  0  0  0
   -9.3038   23.1749  -31.3588 H   0  0  0  0  0  0  0  0  0  0  0  0
  -10.8759   21.2865  -31.7985 H   0  0  0  0  0  0  0  0  0  0  0  0
   -9.9982   19.0946  -32.6061 H   0  0  0  0  0  0  0  0  0  0  0  0
   -7.5510   18.7793  -32.9659 H   0  0  0  0  0  0  0  0  0  0  0  0
   -3.1064   19.9869  -30.6449 H   0  0  0  0  0  0  0  0  0  0  0  0
   -2.0706   20.4618  -29.2257 H   0  0  0  0  0  0  0  0  0  0  0  0
   -4.6255   21.6253  -30.2048 H   0  0  0  0  0  0  0  0  0  0  0  0
   -3.8697   21.6183  -28.5522 H   0  0  0  0  0  0  0  0  0  0  0  0
  1  2  1  0
  2  3  1  0
  3  4  1  0
  4  5  1  0
  5  6  1  0
  6  7  1  0
  7  8  1  0
  8  9  1  0
  9 10  2  0
 10 11  1  0
 11 12  2  0
 12 13  1  0
 13 14  2  0
 14 15  1  0
 15 16  2  0
 16 17  1  0
 17 18  2  0
 12 19  1  0
  7 20  1  0
 20 21  1  0
 21  4  1  0
 19  9  1  0
 18 13  1  0
  1 22  1  0
  2 23  1  0
  2 24  1  0
  3 25  1  0
  3 26  1  0
  5 27  1  0
  5 28  1  0
  6 29  1  0
  6 30  1  0
  8 31  1  0
  8 32  1  0
 10 33  1  0
 11 34  1  0
 14 35  1  0
 15 36  1  0
 16 37  1  0
 17 38  1  0
 18 39  1  0
 20 40  1  0
 20 41  1  0
 21 42  1  0
 21 43  1  0
M  CHG  1  10   1
M  END
>  <UniqueID>  (27) 
25

>  <SMILES>  (27) 
OCCN1CCN(Cc2[nH+]cc(-c3ccccc3)o2)CC1

>  <Energy>  (27) 
84.82149487942422

>  <Genealogy>  (27) 
OCCN1CCN(Cc2[nH+]cc(-c3ccccc3)o2)CC1 (protonated)
OCCN1CCN(Cc2[nH+]cc(-c3ccccc3)o2)CC1 (3D coordinates assigned)
OCCN1CCN(Cc2[nH+]cc(-c3ccccc3)o2)CC1 (nonaromatic ring conformer: 84.82149487942422 kcal/mol)

>  <smiles>  (27) 
OCCN1CCN(Cc2ncc(-c3ccccc3)o2)CC1

>  <score_type>  (27) 
oracle

>  <origin>  (27) 
adg

>  <m_score__min__energy>  (27) 
-7.2000000000000002

>  <m_primary>  (27) 
energy

$$$$
27:0
     RDKit          3D

 40 42  0  0  0  0  0  0  0  0999 V2000
   -2.7340   23.7560  -29.7670 C   0  0  0  0  0  0  0  0  0  0  0  0
   -3.6290   24.0060  -30.8440 O   0  0  0  0  0  0  0  0  0  0  0  0
   -4.8230   23.2950  -31.0160 C   0  0  0  0  0  0  0  0  0  0  0  0
   -4.8050   22.0270  -31.5130 N   0  0  0  0  0  0  0  0  0  0  0  0
   -5.9410   21.2970  -31.6920 C   0  0  0  0  0  0  0  0  0  0  0  0
   -5.8540   19.9060  -32.2750 C   0  0  0  0  0  0  0  0  0  0  0  0
   -5.9380   19.9490  -33.8110 C   0  0  0  0  0  0  0  0  0  0  0  0
   -5.7550   18.5370  -34.3880 C   0  0  0  0  0  0  0  0  0  0  0  0
   -6.5180   17.5310  -33.6270 N   0  0  0  0  0  0  0  0  0  0  0  0
   -6.2740   16.1180  -33.8300 C   0  0  0  0  0  0  0  0  0  0  0  0
   -7.2480   15.3330  -34.3690 N   0  0  0  0  0  0  0  0  0  0  0  0
   -7.0620   14.0030  -34.5640 C   0  0  0  0  0  0  0  0  0  0  0  0
   -5.8530   13.4140  -34.2080 C   0  0  0  0  0  0  0  0  0  0  0  0
   -4.8600   14.2190  -33.6590 C   0  0  0  0  0  0  0  0  0  0  0  0
   -5.0810   15.5490  -33.4760 N   0  0  0  0  0  0  0  0  0  0  0  0
   -7.5380   17.9880  -32.6710 C   0  0  0  0  0  0  0  0  0  0  0  0
   -6.9400   18.9820  -31.6610 C   0  0  0  0  0  0  0  0  0  0  0  0
   -7.1820   21.8670  -31.3740 C   0  0  0  0  0  0  0  0  0  0  0  0
   -7.2300   23.1650  -30.8620 C   0  0  0  0  0  0  0  0  0  0  0  0
   -6.0480   23.8890  -30.6770 C   0  0  0  0  0  0  0  0  0  0  0  0
   -6.1000   25.2280  -30.1500 C   0  0  0  0  0  0  0  0  0  0  0  0
   -6.1410   26.3040  -29.7260 N   0  0  0  0  0  0  0  0  0  0  0  0
   -3.2596   23.9028  -28.8119 H   0  0  0  0  0  0  0  0  0  0  0  0
   -2.3668   22.7209  -29.8281 H   0  0  0  0  0  0  0  0  0  0  0  0
   -1.8835   24.4510  -29.8281 H   0  0  0  0  0  0  0  0  0  0  0  0
   -4.8744   19.4794  -32.0135 H   0  0  0  0  0  0  0  0  0  0  0  0
   -6.9213   20.3403  -34.1110 H   0  0  0  0  0  0  0  0  0  0  0  0
   -5.1421   20.6025  -34.1976 H   0  0  0  0  0  0  0  0  0  0  0  0
   -6.1013   18.5315  -35.4321 H   0  0  0  0  0  0  0  0  0  0  0  0
   -4.6881   18.2772  -34.3237 H   0  0  0  0  0  0  0  0  0  0  0  0
   -7.8650   13.3923  -35.0024 H   0  0  0  0  0  0  0  0  0  0  0  0
   -5.6861   12.3370  -34.3571 H   0  0  0  0  0  0  0  0  0  0  0  0
   -3.8935   13.7790  -33.3721 H   0  0  0  0  0  0  0  0  0  0  0  0
   -4.3070   16.1210  -33.0720 H   0  0  0  0  0  0  0  0  0  0  0  0
   -8.3524   18.4811  -33.2220 H   0  0  0  0  0  0  0  0  0  0  0  0
   -7.9188   17.1151  -32.1205 H   0  0  0  0  0  0  0  0  0  0  0  0
   -7.7522   19.6115  -31.2685 H   0  0  0  0  0  0  0  0  0  0  0  0
   -6.4543   18.3901  -30.8713 H   0  0  0  0  0  0  0  0  0  0  0  0
   -8.1099   21.2963  -31.5266 H   0  0  0  0  0  0  0  0  0  0  0  0
   -8.1984   23.6185  -30.6039 H   0  0  0  0  0  0  0  0  0  0  0  0
  1  2  1  0
  2  3  1  0
  3  4  2  0
  4  5  1  0
  5  6  1  0
  6  7  1  0
  7  8  1  0
  8  9  1  0
  9 10  1  0
 10 11  2  0
 11 12  1  0
 12 13  2  0
 13 14  1  0
 14 15  2  0
  9 16  1  0
 16 17  1  0
  5 18  2  0
 18 19  1  0
 19 20  2  0
 20 21  1  0
 21 22  3  0
 20  3  1  0
 17  6  1  0
 15 10  1  0
  1 23  1  0
  1 24  1  0
  1 25  1  0
  6 26  1  0
  7 27  1  0
  7 28  1  0
  8 29  1  0
  8 30  1  0
 12 31  1  0
 13 32  1  0
 14 33  1  0
 15 34  1  0
 16 35  1  0
 16 36  1  0
 17 37  1  0
 17 38  1  0
 18 39  1  0
 19 40  1  0
M  CHG  1  15   1
M  END
>  <UniqueID>  (28) 
26

>  <SMILES>  (28) 
COc1nc(C2CCN(c3nccc[nH+]3)CC2)ccc1C#N

>  <Energy>  (28) 
44.01925093631837

>  <Genealogy>  (28) 
COc1nc(C2CCN(c3nccc[nH+]3)CC2)ccc1C#N (protonated)
COc1nc(C2CCN(c3nccc[nH+]3)CC2)ccc1C#N (3D coordinates assigned)
COc1nc(C2CCN(c3nccc[nH+]3)CC2)ccc1C#N (nonaromatic ring conformer: 44.01925093631837 kcal/mol)

>  <smiles>  (28) 
COc1nc(C2CCN(c3ncccn3)CC2)ccc1C#N

>  <score_type>  (28) 
oracle

>  <origin>  (28) 
adg

>  <m_score__min__energy>  (28) 
-6.8899999999999997

>  <m_primary>  (28) 
energy

$$$$
28:0
     RDKit          3D

 47 49  0  0  0  0  0  0  0  0999 V2000
    0.7950   26.0950  -24.2210 N   0  0  0  0  0  0  0  0  0  0  0  0
   -0.6850   26.8850  -24.6360 S   0  0  0  0  0  0  0  0  0  0  0  0
   -1.5130   27.0760  -23.3970 O   0  0  0  0  0  0  0  0  0  0  0  0
   -0.3850   28.2340  -25.2270 O   0  0  0  0  0  0  0  0  0  0  0  0
   -1.5700   25.9070  -25.8030 C   0  0  0  0  0  0  0  0  0  0  0  0
   -2.9260   25.6340  -25.6060 C   0  0  0  0  0  0  0  0  0  0  0  0
   -3.6240   24.8500  -26.5250 C   0  0  0  0  0  0  0  0  0  0  0  0
   -2.9740   24.3100  -27.6460 C   0  0  0  0  0  0  0  0  0  0  0  0
   -3.7400   23.5620  -28.6050 N   0  0  0  0  0  0  0  0  0  0  0  0
   -3.9600   22.1250  -28.4100 C   0  0  0  0  0  0  0  0  0  0  0  0
   -2.6480   21.3930  -28.3890 C   0  0  0  0  0  0  0  0  0  0  0  0
   -2.0220   21.0870  -27.1680 C   0  0  0  0  0  0  0  0  0  0  0  0
   -0.8280   20.3610  -27.1510 C   0  0  0  0  0  0  0  0  0  0  0  0
   -0.2520   19.9310  -28.3500 C   0  0  0  0  0  0  0  0  0  0  0  0
   -0.8720   20.2230  -29.5680 C   0  0  0  0  0  0  0  0  0  0  0  0
   -0.3170   19.7980  -30.7300 F   0  0  0  0  0  0  0  0  0  0  0  0
   -2.0670   20.9500  -29.5900 C   0  0  0  0  0  0  0  0  0  0  0  0
   -4.7250   24.4280  -29.7480 S   0  0  0  0  0  0  0  0  0  0  0  0
   -3.8580   25.3020  -30.6140 O   0  0  0  0  0  0  0  0  0  0  0  0
   -5.6900   25.3090  -29.0060 O   0  0  0  0  0  0  0  0  0  0  0  0
   -5.6080   23.3000  -30.7720 C   0  0  0  0  0  0  0  0  0  0  0  0
   -4.9160   22.4240  -31.6220 C   0  0  0  0  0  0  0  0  0  0  0  0
   -5.6190   21.5110  -32.4130 C   0  0  0  0  0  0  0  0  0  0  0  0
   -7.0150   21.4710  -32.3640 C   0  0  0  0  0  0  0  0  0  0  0  0
   -7.7100   22.3480  -31.5270 C   0  0  0  0  0  0  0  0  0  0  0  0
   -7.0100   23.2610  -30.7330 C   0  0  0  0  0  0  0  0  0  0  0  0
   -1.5960   24.5680  -27.8430 C   0  0  0  0  0  0  0  0  0  0  0  0
   -0.8800   24.0140  -28.9610 N   0  0  0  0  0  0  0  0  0  0  0  0
   -1.4760   23.7670  -30.0300 O   0  0  0  0  0  0  0  0  0  0  0  0
    0.4880   23.8950  -28.9240 O   0  0  0  0  0  0  0  0  0  0  0  0
   -0.9110   25.3740  -26.9160 C   0  0  0  0  0  0  0  0  0  0  0  0
    1.4940   26.8430  -24.0160 H   0  0  0  0  0  0  0  0  0  0  0  0
    0.6280   25.5840  -23.3250 H   0  0  0  0  0  0  0  0  0  0  0  0
   -3.4445   26.0382  -24.7241 H   0  0  0  0  0  0  0  0  0  0  0  0
   -4.6950   24.6529  -26.3696 H   0  0  0  0  0  0  0  0  0  0  0  0
   -4.4802   21.9643  -27.4542 H   0  0  0  0  0  0  0  0  0  0  0  0
   -4.5698   21.7411  -29.2411 H   0  0  0  0  0  0  0  0  0  0  0  0
   -2.4739   21.4204  -26.2221 H   0  0  0  0  0  0  0  0  0  0  0  0
   -0.3407   20.1276  -26.1928 H   0  0  0  0  0  0  0  0  0  0  0  0
    0.6896   19.3626  -28.3348 H   0  0  0  0  0  0  0  0  0  0  0  0
   -2.5537   21.1758  -30.5503 H   0  0  0  0  0  0  0  0  0  0  0  0
   -3.8173   22.4559  -31.6659 H   0  0  0  0  0  0  0  0  0  0  0  0
   -5.0727   20.8230  -33.0750 H   0  0  0  0  0  0  0  0  0  0  0  0
   -7.5667   20.7492  -32.9842 H   0  0  0  0  0  0  0  0  0  0  0  0
   -8.8091   22.3199  -31.4929 H   0  0  0  0  0  0  0  0  0  0  0  0
   -7.5598   23.9508  -30.0758 H   0  0  0  0  0  0  0  0  0  0  0  0
    0.1572   25.5881  -27.0682 H   0  0  0  0  0  0  0  0  0  0  0  0
  1  2  1  0
  2  3  2  0
  2  4  2  0
  2  5  1  0
  5  6  2  0
  6  7  1  0
  7  8  2  0
  8  9  1  0
  9 10  1  0
 10 11  1  0
 11 12  2  0
 12 13  1  0
 13 14  2  0
 14 15  1  0
 15 16  1  0
 15 17  2  0
  9 18  1  0
 18 19  2  0
 18 20  2  0
 18 21  1  0
 21 22  2  0
 22 23  1  0
 23 24  2  0
 24 25  1  0
 25 26  2  0
  8 27  1  0
 27 28  1  0
 28 29  2  0
 28 30  1  0
 27 31  2  0
 31  5  1  0
 17 11  1  0
 26 21  1  0
  1 32  1  0
  1 33  1  0
  6 34  1  0
  7 35  1  0
 10 36  1  0
 10 37  1  0
 12 38  1  0
 13 39  1  0
 14 40  1  0
 17 41  1  0
 22 42  1  0
 23 43  1  0
 24 44  1  0
 25 45  1  0
 26 46  1  0
 31 47  1  0
M  CHG  2  28   1  30  -1
M  END
>  <UniqueID>  (29) 
27

>  <SMILES>  (29) 
NS(=O)(=O)c1ccc(N(Cc2cccc(F)c2)S(=O)(=O)c2ccccc2)c([N+](=O)[O-])c1

>  <Energy>  (29) 
55.20017175156014

>  <Genealogy>  (29) 
NS(=O)(=O)c1ccc(N(Cc2cccc(F)c2)S(=O)(=O)c2ccccc2)c([N+](=O)[O-])c1 (3D coordinates assigned)
NS(=O)(=O)c1ccc(N(Cc2cccc(F)c2)S(=O)(=O)c2ccccc2)c([N+](=O)[O-])c1 (optimized conformer: 55.20017175156014 kcal/mol)

>  <smiles>  (29) 
NS(=O)(=O)c1ccc(N(Cc2cccc(F)c2)S(=O)(=O)c2ccccc2)c([N+](=O)[O-])c1

>  <score_type>  (29) 
oracle

>  <origin>  (29) 
adg

>  <m_score__min__energy>  (29) 
-10.25

>  <m_primary>  (29) 
energy

$$$$
29:0
     RDKit          3D

 45 48  0  0  0  0  0  0  0  0999 V2000
   -5.8760   18.5410  -34.9590 O   0  0  0  0  0  0  0  0  0  0  0  0
   -5.6590   18.5540  -33.7160 C   0  0  0  0  0  0  0  0  0  0  0  0
   -5.3000   17.3350  -33.0440 N   0  0  0  0  0  0  0  0  0  0  0  0
   -5.5920   16.0230  -33.5570 C   0  0  0  0  0  0  0  0  0  0  0  0
   -6.8690   15.7540  -34.0750 C   0  0  0  0  0  0  0  0  0  0  0  0
   -7.1700   14.4920  -34.5980 C   0  0  0  0  0  0  0  0  0  0  0  0
   -6.1940   13.4930  -34.6200 C   0  0  0  0  0  0  0  0  0  0  0  0
   -4.9130   13.7560  -34.1260 C   0  0  0  0  0  0  0  0  0  0  0  0
   -4.6090   15.0160  -33.6020 C   0  0  0  0  0  0  0  0  0  0  0  0
   -5.7270   19.8370  -32.9770 C   0  0  0  0  0  0  0  0  0  0  0  0
   -4.5410   20.5300  -32.6440 C   0  0  0  0  0  0  0  0  0  0  0  0
   -4.5820   21.7530  -31.9500 C   0  0  0  0  0  0  0  0  0  0  0  0
   -3.0490   22.5390  -31.6080 Cl  0  0  0  0  0  0  0  0  0  0  0  0
   -5.8420   22.2760  -31.5910 C   0  0  0  0  0  0  0  0  0  0  0  0
   -6.9920   21.6090  -31.9310 C   0  0  0  0  0  0  0  0  0  0  0  0
   -6.9680   20.3980  -32.6200 C   0  0  0  0  0  0  0  0  0  0  0  0
   -8.2000   22.3550  -31.4880 C   0  0  0  0  0  0  0  0  0  0  0  0
   -7.6160   23.5980  -30.7890 C   0  0  0  0  0  0  0  0  0  0  0  0
   -6.1630   23.4850  -30.9030 N   0  0  0  0  0  0  0  0  0  0  0  0
   -5.0880   24.6310  -30.1600 S   0  0  0  0  0  0  0  0  0  0  0  0
   -5.8790   25.6600  -29.4010 O   0  0  0  0  0  0  0  0  0  0  0  0
   -4.2550   25.3100  -31.2100 O   0  0  0  0  0  0  0  0  0  0  0  0
   -4.0170   23.7970  -29.0360 C   0  0  0  0  0  0  0  0  0  0  0  0
   -2.8210   24.4010  -28.6200 C   0  0  0  0  0  0  0  0  0  0  0  0
   -1.9620   23.7280  -27.7450 C   0  0  0  0  0  0  0  0  0  0  0  0
   -2.2890   22.4490  -27.2870 C   0  0  0  0  0  0  0  0  0  0  0  0
   -3.4760   21.8390  -27.7060 C   0  0  0  0  0  0  0  0  0  0  0  0
   -4.3370   22.5090  -28.5800 C   0  0  0  0  0  0  0  0  0  0  0  0
   -4.6940   17.4030  -32.1950 H   0  0  0  0  0  0  0  0  0  0  0  0
   -7.6378   16.5408  -34.0695 H   0  0  0  0  0  0  0  0  0  0  0  0
   -8.1761   14.2862  -34.9922 H   0  0  0  0  0  0  0  0  0  0  0  0
   -6.4334   12.4991  -35.0261 H   0  0  0  0  0  0  0  0  0  0  0  0
   -4.1432   12.9706  -34.1496 H   0  0  0  0  0  0  0  0  0  0  0  0
   -3.5970   15.2216  -33.2231 H   0  0  0  0  0  0  0  0  0  0  0  0
   -3.5682   20.1053  -32.9327 H   0  0  0  0  0  0  0  0  0  0  0  0
   -7.9064   19.8870  -32.8815 H   0  0  0  0  0  0  0  0  0  0  0  0
   -8.8221   22.6431  -32.3482 H   0  0  0  0  0  0  0  0  0  0  0  0
   -8.8547   21.7618  -30.8327 H   0  0  0  0  0  0  0  0  0  0  0  0
   -7.9673   24.5148  -31.2851 H   0  0  0  0  0  0  0  0  0  0  0  0
   -7.9325   23.6520  -29.7369 H   0  0  0  0  0  0  0  0  0  0  0  0
   -2.5583   25.4057  -28.9826 H   0  0  0  0  0  0  0  0  0  0  0  0
   -1.0274   24.2064  -27.4169 H   0  0  0  0  0  0  0  0  0  0  0  0
   -1.6133   21.9221  -26.5973 H   0  0  0  0  0  0  0  0  0  0  0  0
   -3.7322   20.8311  -27.3474 H   0  0  0  0  0  0  0  0  0  0  0  0
   -5.2678   22.0253  -28.9112 H   0  0  0  0  0  0  0  0  0  0  0  0
  1  2  2  0
  2  3  1  0
  3  4  1  0
  4  5  2  0
  5  6  1  0
  6  7  2  0
  7  8  1  0
  8  9  2  0
  2 10  1  0
 10 11  2  0
 11 12  1  0
 12 13  1  0
 12 14  2  0
 14 15  1  0
 15 16  2  0
 15 17  1  0
 17 18  1  0
 18 19  1  0
 19 20  1  0
 20 21  2  0
 20 22  2  0
 20 23  1  0
 23 24  2  0
 24 25  1  0
 25 26  2  0
 26 27  1  0
 27 28  2  0
  9  4  1  0
 16 10  1  0
 28 23  1  0
 19 14  1  0
  3 29  1  0
  5 30  1  0
  6 31  1  0
  7 32  1  0
  8 33  1  0
  9 34  1  0
 11 35  1  0
 16 36  1  0
 17 37  1  0
 17 38  1  0
 18 39  1  0
 18 40  1  0
 24 41  1  0
 25 42  1  0
 26 43  1  0
 27 44  1  0
 28 45  1  0
M  END
>  <UniqueID>  (30) 
28

>  <SMILES>  (30) 
O=C(Nc1ccccc1)c1cc(Cl)c2c(c1)CCN2S(=O)(=O)c1ccccc1

>  <Energy>  (30) 
75.17263941789126

>  <Genealogy>  (30) 
O=C(Nc1ccccc1)c1cc(Cl)c2c(c1)CCN2S(=O)(=O)c1ccccc1 (3D coordinates assigned)
O=C(Nc1ccccc1)c1cc(Cl)c2c(c1)CCN2S(=O)(=O)c1ccccc1 (nonaromatic ring conformer: 75.17263941789126 kcal/mol)

>  <smiles>  (30) 
O=C(Nc1ccccc1)c1cc(Cl)c2c(c1)CCN2S(=O)(=O)c1ccccc1

>  <score_type>  (30) 
oracle

>  <origin>  (30) 
adg

>  <m_score__min__energy>  (30) 
-9.4299999999999997

>  <m_primary>  (30) 
energy

$$$$
30:0
     RDKit          3D

 62 65  0  0  0  0  0  0  0  0999 V2000
    1.1460   25.9650  -27.3230 C   0  0  0  0  0  0  0  0  0  0  0  0
    0.2630   24.8960  -27.8220 N   0  0  0  0  0  0  0  0  0  0  0  0
   -1.0430   24.9160  -27.1110 C   0  0  0  0  0  0  0  0  0  0  0  0
   -2.2290   24.3050  -27.8880 C   0  0  0  0  0  0  0  0  0  0  0  0
   -2.2970   22.7520  -27.9440 C   0  0  0  0  0  0  0  0  0  0  0  0
   -1.0210   22.0880  -28.3120 N   0  0  2  0  0  0  0  0  0  0  0  0
   -1.2280   20.6170  -28.3620 C   0  0  0  0  0  0  0  0  0  0  0  0
   -0.3310   19.9440  -29.3900 C   0  0  0  0  0  0  0  0  0  0  0  0
    0.6410   19.0350  -28.9300 C   0  0  0  0  0  0  0  0  0  0  0  0
    1.4460   18.3340  -29.8300 C   0  0  0  0  0  0  0  0  0  0  0  0
    1.2890   18.5220  -31.2010 C   0  0  0  0  0  0  0  0  0  0  0  0
    0.3330   19.4200  -31.6790 C   0  0  0  0  0  0  0  0  0  0  0  0
   -0.4730   20.1480  -30.7880 C   0  0  0  0  0  0  0  0  0  0  0  0
   -1.4480   21.1010  -31.3560 C   0  0  0  0  0  0  0  0  0  0  0  0
   -1.4120   22.3000  -30.9680 O   0  0  0  0  0  0  0  0  0  0  0  0
   -2.4670   20.6720  -32.2810 N   0  0  0  0  0  0  0  0  0  0  0  0
   -3.1250   21.6430  -33.1700 C   0  0  0  0  0  0  0  0  0  0  0  0
   -4.6480   21.5120  -33.0550 C   0  0  0  0  0  0  0  0  0  0  0  0
   -5.0690   20.1030  -33.0490 N   0  0  0  0  0  0  0  0  0  0  0  0
   -6.4410   19.7750  -32.7580 C   0  0  0  0  0  0  0  0  0  0  0  0
   -6.8310   18.4340  -32.5970 C   0  0  0  0  0  0  0  0  0  0  0  0
   -8.1570   18.1170  -32.2840 C   0  0  0  0  0  0  0  0  0  0  0  0
   -9.1020   19.1340  -32.1340 C   0  0  0  0  0  0  0  0  0  0  0  0
   -8.7230   20.4710  -32.2900 C   0  0  0  0  0  0  0  0  0  0  0  0
   -7.3970   20.7910  -32.6010 C   0  0  0  0  0  0  0  0  0  0  0  0
   -4.0740   19.0420  -33.2510 C   0  0  0  0  0  0  0  0  0  0  0  0
   -2.8900   19.2600  -32.3040 C   0  0  0  0  0  0  0  0  0  0  0  0
    0.0960   22.4150  -27.3790 C   0  0  0  0  0  0  0  0  0  0  0  0
    0.9870   23.6070  -27.7830 C   0  0  0  0  0  0  0  0  0  0  0  0
    1.1421   25.9602  -26.2230 H   0  0  0  0  0  0  0  0  0  0  0  0
    2.1700   25.7944  -27.6867 H   0  0  0  0  0  0  0  0  0  0  0  0
    0.7851   26.9384  -27.6867 H   0  0  0  0  0  0  0  0  0  0  0  0
   -0.9270   24.3546  -26.1722 H   0  0  0  0  0  0  0  0  0  0  0  0
   -1.2917   25.9773  -26.9634 H   0  0  0  0  0  0  0  0  0  0  0  0
   -3.1566   24.6632  -27.4175 H   0  0  0  0  0  0  0  0  0  0  0  0
   -2.0907   24.6277  -28.9305 H   0  0  0  0  0  0  0  0  0  0  0  0
   -2.5998   22.3863  -26.9518 H   0  0  0  0  0  0  0  0  0  0  0  0
   -3.0176   22.5009  -28.7362 H   0  0  0  0  0  0  0  0  0  0  0  0
   -0.7570   22.3740  -29.2800 H   0  0  0  0  0  0  0  0  0  0  0  0
   -1.0087   20.1947  -27.3702 H   0  0  0  0  0  0  0  0  0  0  0  0
   -2.2725   20.4332  -28.6540 H   0  0  0  0  0  0  0  0  0  0  0  0
    0.7676   18.8753  -27.8490 H   0  0  0  0  0  0  0  0  0  0  0  0
    2.2056   17.6320  -29.4555 H   0  0  0  0  0  0  0  0  0  0  0  0
    1.9190   17.9623  -31.9080 H   0  0  0  0  0  0  0  0  0  0  0  0
    0.2097   19.5588  -32.7632 H   0  0  0  0  0  0  0  0  0  0  0  0
   -2.8244   22.6615  -32.8829 H   0  0  0  0  0  0  0  0  0  0  0  0
   -2.8231   21.4434  -34.2088 H   0  0  0  0  0  0  0  0  0  0  0  0
   -4.9780   21.9876  -32.1196 H   0  0  0  0  0  0  0  0  0  0  0  0
   -5.1035   22.0045  -33.9268 H   0  0  0  0  0  0  0  0  0  0  0  0
   -6.0899   17.6301  -32.7177 H   0  0  0  0  0  0  0  0  0  0  0  0
   -8.4554   17.0660  -32.1560 H   0  0  0  0  0  0  0  0  0  0  0  0
  -10.1455   18.8832  -31.8929 H   0  0  0  0  0  0  0  0  0  0  0  0
   -9.4677   21.2714  -32.1682 H   0  0  0  0  0  0  0  0  0  0  0  0
   -7.1021   21.8437  -32.7231 H   0  0  0  0  0  0  0  0  0  0  0  0
   -4.5339   18.0646  -33.0430 H   0  0  0  0  0  0  0  0  0  0  0  0
   -3.7187   19.0681  -34.2917 H   0  0  0  0  0  0  0  0  0  0  0  0
   -3.1853   18.9591  -31.2880 H   0  0  0  0  0  0  0  0  0  0  0  0
   -2.0456   18.6534  -32.6632 H   0  0  0  0  0  0  0  0  0  0  0  0
   -0.3420   22.6403  -26.3955 H   0  0  0  0  0  0  0  0  0  0  0  0
    0.7562   21.5352  -27.3867 H   0  0  0  0  0  0  0  0  0  0  0  0
    1.8082   23.6904  -27.0559 H   0  0  0  0  0  0  0  0  0  0  0  0
    1.3515   23.4088  -28.8018 H   0  0  0  0  0  0  0  0  0  0  0  0
  1  2  1  0
  2  3  1  0
  3  4  1  0
  4  5  1  0
  5  6  1  0
  6  7  1  0
  7  8  1  0
  8  9  2  0
  9 10  1  0
 10 11  2  0
 11 12  1  0
 12 13  2  0
 13 14  1  0
 14 15  2  0
 14 16  1  0
 16 17  1  0
 17 18  1  0
 18 19  1  0
 19 20  1  0
 20 21  2  0
 21 22  1  0
 22 23  2  0
 23 24  1  0
 24 25  2  0
 19 26  1  0
 26 27  1  0
  6 28  1  0
 28 29  1  0
 29  2  1  0
 13  8  1  0
 27 16  1  0
 25 20  1  0
  1 30  1  0
  1 31  1  0
  1 32  1  0
  3 33  1  0
  3 34  1  0
  4 35  1  0
  4 36  1  0
  5 37  1  0
  5 38  1  0
  6 39  1  6
  7 40  1  0
  7 41  1  0
  9 42  1  0
 10 43  1  0
 11 44  1  0
 12 45  1  0
 17 46  1  0
 17 47  1  0
 18 48  1  0
 18 49  1  0
 21 50  1  0
 22 51  1  0
 23 52  1  0
 24 53  1  0
 25 54  1  0
 26 55  1  0
 26 56  1  0
 27 57  1  0
 27 58  1  0
 28 59  1  0
 28 60  1  0
 29 61  1  0
 29 62  1  0
M  CHG  1   6   1
M  END
>  <UniqueID>  (31) 
29

>  <SMILES>  (31) 
CN1CCC[N@H+](Cc2ccccc2C(=O)N2CCN(c3ccccc3)CC2)CC1

>  <Energy>  (31) 
98.2175846397322

>  <Genealogy>  (31) 
CN1CCC[NH+](Cc2ccccc2C(=O)N2CCN(c3ccccc3)CC2)CC1 (protonated)
CN1CCC[N@H+](Cc2ccccc2C(=O)N2CCN(c3ccccc3)CC2)CC1 (chirality)
CN1CCC[N@H+](Cc2ccccc2C(=O)N2CCN(c3ccccc3)CC2)CC1 (3D coordinates assigned)
CN1CCC[N@H+](Cc2ccccc2C(=O)N2CCN(c3ccccc3)CC2)CC1 (nonaromatic ring conformer: 98.2175846397322 kcal/mol)

>  <smiles>  (31) 
CN1CCCN(Cc2ccccc2C(=O)N2CCN(c3ccccc3)CC2)CC1

>  <score_type>  (31) 
oracle

>  <origin>  (31) 
adg

>  <m_score__min__energy>  (31) 
-6.29

>  <m_primary>  (31) 
energy

$$$$
31:0
     RDKit          3D

 36 37  0  0  0  0  0  0  0  0999 V2000
   -2.8540   21.7420  -31.8520 C   0  0  0  0  0  0  0  0  0  0  0  0
   -4.0820   22.2730  -32.5870 C   0  0  0  0  0  0  0  0  0  0  0  0
   -5.0590   22.8260  -31.6380 N   0  0  0  0  0  0  0  0  0  0  0  0
   -4.6100   23.7060  -30.5850 C   0  0  0  0  0  0  0  0  0  0  0  0
   -4.3180   24.9030  -30.8540 O   0  0  0  0  0  0  0  0  0  0  0  0
   -4.5240   23.2400  -29.2280 N   0  0  0  0  0  0  0  0  0  0  0  0
   -4.0880   24.1010  -28.1320 C   0  0  0  0  0  0  0  0  0  0  0  0
   -2.5920   24.2530  -28.1550 C   0  0  0  0  0  0  0  0  0  0  0  0
   -1.7970   23.3970  -28.9320 C   0  0  0  0  0  0  0  0  0  0  0  0
   -0.4110   23.5760  -28.9530 C   0  0  0  0  0  0  0  0  0  0  0  0
    0.1590   24.5750  -28.2260 N   0  0  0  0  0  0  0  0  0  0  0  0
   -0.5880   25.4200  -27.4680 C   0  0  0  0  0  0  0  0  0  0  0  0
   -1.9780   25.2770  -27.4200 C   0  0  0  0  0  0  0  0  0  0  0  0
   -6.4470   22.4440  -31.7310 C   0  0  0  0  0  0  0  0  0  0  0  0
   -7.4500   23.4190  -31.8820 C   0  0  0  0  0  0  0  0  0  0  0  0
   -8.7930   23.0410  -31.9780 C   0  0  0  0  0  0  0  0  0  0  0  0
   -9.1480   21.6900  -31.9270 C   0  0  0  0  0  0  0  0  0  0  0  0
   -8.1580   20.7140  -31.7830 C   0  0  0  0  0  0  0  0  0  0  0  0
   -6.8150   21.0870  -31.6880 C   0  0  0  0  0  0  0  0  0  0  0  0
   -3.0174   21.8126  -30.7665 H   0  0  0  0  0  0  0  0  0  0  0  0
   -2.6863   20.6910  -32.1299 H   0  0  0  0  0  0  0  0  0  0  0  0
   -1.9734   22.3397  -32.1299 H   0  0  0  0  0  0  0  0  0  0  0  0
   -3.7705   23.0634  -33.2857 H   0  0  0  0  0  0  0  0  0  0  0  0
   -4.5524   21.4426  -33.1339 H   0  0  0  0  0  0  0  0  0  0  0  0
   -4.8300   22.2680  -28.9960 H   0  0  0  0  0  0  0  0  0  0  0  0
   -4.5556   25.0909  -28.2394 H   0  0  0  0  0  0  0  0  0  0  0  0
   -4.3880   23.6458  -27.1766 H   0  0  0  0  0  0  0  0  0  0  0  0
   -2.2609   22.5914  -29.5200 H   0  0  0  0  0  0  0  0  0  0  0  0
    0.2199   22.9083  -29.5581 H   0  0  0  0  0  0  0  0  0  0  0  0
   -0.0981   26.2182  -26.8910 H   0  0  0  0  0  0  0  0  0  0  0  0
   -2.5851   25.9625  -26.8104 H   0  0  0  0  0  0  0  0  0  0  0  0
   -7.1766   24.4836  -31.9247 H   0  0  0  0  0  0  0  0  0  0  0  0
   -9.5720   23.8089  -32.0940 H   0  0  0  0  0  0  0  0  0  0  0  0
  -10.2053   21.3953  -32.0001 H   0  0  0  0  0  0  0  0  0  0  0  0
   -8.4367   19.6506  -31.7444 H   0  0  0  0  0  0  0  0  0  0  0  0
   -6.0399   20.3141  -31.5788 H   0  0  0  0  0  0  0  0  0  0  0  0
  1  2  1  0
  2  3  1  0
  3  4  1  0
  4  5  2  0
  4  6  1  0
  6  7  1  0
  7  8  1  0
  8  9  2  0
  9 10  1  0
 10 11  2  0
 11 12  1  0
 12 13  2  0
  3 14  1  0
 14 15  2  0
 15 16  1  0
 16 17  2  0
 17 18  1  0
 18 19  2  0
 13  8  1  0
 19 14  1  0
  1 20  1  0
  1 21  1  0
  1 22  1  0
  2 23  1  0
  2 24  1  0
  6 25  1  0
  7 26  1  0
  7 27  1  0
  9 28  1  0
 10 29  1  0
 12 30  1  0
 13 31  1  0
 15 32  1  0
 16 33  1  0
 17 34  1  0
 18 35  1  0
 19 36  1  0
M  END
>  <UniqueID>  (32) 
30

>  <SMILES>  (32) 
CCN(C(=O)NCc1ccncc1)c1ccccc1

>  <Energy>  (32) 
37.566170276976806

>  <Genealogy>  (32) 
CCN(C(=O)NCc1ccncc1)c1ccccc1 (3D coordinates assigned)
CCN(C(=O)NCc1ccncc1)c1ccccc1 (optimized conformer: 37.566170276976806 kcal/mol)

>  <smiles>  (32) 
CCN(C(=O)NCc1ccncc1)c1ccccc1

>  <score_type>  (32) 
oracle

>  <origin>  (32) 
adg

>  <m_score__min__energy>  (32) 
-6.8700000000000001

>  <m_primary>  (32) 
energy

$$$$
32:0
     RDKit          3D

 45 47  0  0  0  0  0  0  0  0999 V2000
   -8.9760   19.3120  -32.3470 C   0  0  0  0  0  0  0  0  0  0  0  0
   -8.6860   20.6690  -32.6640 O   0  0  0  0  0  0  0  0  0  0  0  0
   -7.7500   21.4590  -31.9800 C   0  0  0  0  0  0  0  0  0  0  0  0
   -8.0960   22.2500  -30.8680 C   0  0  0  0  0  0  0  0  0  0  0  0
   -7.1250   23.0190  -30.2190 C   0  0  0  0  0  0  0  0  0  0  0  0
   -5.7970   23.0020  -30.6670 C   0  0  0  0  0  0  0  0  0  0  0  0
   -4.5560   23.9570  -29.8580 S   0  0  0  0  0  0  0  0  0  0  0  0
   -5.1450   24.6960  -28.6880 O   0  0  0  0  0  0  0  0  0  0  0  0
   -4.0310   24.9640  -30.8410 O   0  0  0  0  0  0  0  0  0  0  0  0
   -3.2430   22.9370  -29.3140 N   0  0  0  0  0  0  0  0  0  0  0  0
   -3.5690   22.2240  -28.0540 C   0  0  0  0  0  0  0  0  0  0  0  0
   -2.7100   21.0170  -27.7780 C   0  0  0  0  0  0  0  0  0  0  0  0
   -3.1030   19.8690  -27.0980 C   0  0  0  0  0  0  0  0  0  0  0  0
   -2.0680   18.9450  -26.9290 C   0  0  0  0  0  0  0  0  0  0  0  0
   -0.8550   19.3640  -27.4580 C   0  0  0  0  0  0  0  0  0  0  0  0
   -1.0700   20.8880  -28.1320 S   0  0  0  0  0  0  0  0  0  0  0  0
   -1.9800   23.7030  -29.2820 C   0  0  0  0  0  0  0  0  0  0  0  0
   -2.0600   24.9240  -28.3480 C   0  0  1  0  0  0  0  0  0  0  0  0
   -1.4440   24.6490  -26.9730 C   0  0  0  0  0  0  0  0  0  0  0  0
   -0.5270   25.8200  -26.7420 C   0  0  0  0  0  0  0  0  0  0  0  0
   -0.8500   26.7620  -27.8800 C   0  0  0  0  0  0  0  0  0  0  0  0
   -1.3760   26.0060  -28.9370 O   0  0  0  0  0  0  0  0  0  0  0  0
   -5.4530   22.2220  -31.7780 C   0  0  0  0  0  0  0  0  0  0  0  0
   -6.4240   21.4530  -32.4270 C   0  0  0  0  0  0  0  0  0  0  0  0
   -9.0024   19.1883  -31.2543 H   0  0  0  0  0  0  0  0  0  0  0  0
   -9.9532   19.0372  -32.7709 H   0  0  0  0  0  0  0  0  0  0  0  0
   -8.1965   18.6618  -32.7709 H   0  0  0  0  0  0  0  0  0  0  0  0
   -9.1353   22.2632  -30.5079 H   0  0  0  0  0  0  0  0  0  0  0  0
   -7.4042   23.6391  -29.3544 H   0  0  0  0  0  0  0  0  0  0  0  0
   -3.4482   22.9297  -27.2189 H   0  0  0  0  0  0  0  0  0  0  0  0
   -4.6001   21.8560  -28.1609 H   0  0  0  0  0  0  0  0  0  0  0  0
   -4.1265   19.7047  -26.7299 H   0  0  0  0  0  0  0  0  0  0  0  0
   -2.2021   17.9769  -26.4243 H   0  0  0  0  0  0  0  0  0  0  0  0
    0.0864   18.7953  -27.4392 H   0  0  0  0  0  0  0  0  0  0  0  0
   -1.1741   23.0416  -28.9312 H   0  0  0  0  0  0  0  0  0  0  0  0
   -1.7839   24.0707  -30.3000 H   0  0  0  0  0  0  0  0  0  0  0  0
   -3.1255   25.1563  -28.2040 H   0  0  0  0  0  0  0  0  0  0  0  0
   -2.2231   24.6040  -26.1978 H   0  0  0  0  0  0  0  0  0  0  0  0
   -0.9166   23.6846  -26.9314 H   0  0  0  0  0  0  0  0  0  0  0  0
   -0.7334   26.2936  -25.7708 H   0  0  0  0  0  0  0  0  0  0  0  0
    0.5340   25.5308  -26.7177 H   0  0  0  0  0  0  0  0  0  0  0  0
   -1.5900   27.5057  -27.5495 H   0  0  0  0  0  0  0  0  0  0  0  0
    0.0579   27.2909  -28.2055 H   0  0  0  0  0  0  0  0  0  0  0  0
   -4.4149   22.2142  -32.1416 H   0  0  0  0  0  0  0  0  0  0  0  0
   -6.1434   20.8388  -33.2953 H   0  0  0  0  0  0  0  0  0  0  0  0
  1  2  1  0
  2  3  1  0
  3  4  2  0
  4  5  1  0
  5  6  2  0
  6  7  1  0
  7  8  2  0
  7  9  2  0
  7 10  1  0
 10 11  1  0
 11 12  1  0
 12 13  2  0
 13 14  1  0
 14 15  2  0
 15 16  1  0
 10 17  1  0
 17 18  1  0
 18 19  1  0
 19 20  1  0
 20 21  1  0
 21 22  1  0
  6 23  1  0
 23 24  2  0
 24  3  1  0
 16 12  1  0
 22 18  1  0
  1 25  1  0
  1 26  1  0
  1 27  1  0
  4 28  1  0
  5 29  1  0
 11 30  1  0
 11 31  1  0
 13 32  1  0
 14 33  1  0
 15 34  1  0
 17 35  1  0
 17 36  1  0
 18 37  1  1
 19 38  1  0
 19 39  1  0
 20 40  1  0
 20 41  1  0
 21 42  1  0
 21 43  1  0
 23 44  1  0
 24 45  1  0
M  END
>  <UniqueID>  (33) 
31

>  <SMILES>  (33) 
COc1ccc(S(=O)(=O)N(Cc2cccs2)C[C@H]2CCCO2)cc1

>  <Energy>  (33) 
72.12989239905232

>  <Genealogy>  (33) 
COc1ccc(S(=O)(=O)N(Cc2cccs2)C[C@H]2CCCO2)cc1 (chirality)
COc1ccc(S(=O)(=O)N(Cc2cccs2)C[C@H]2CCCO2)cc1 (3D coordinates assigned)
COc1ccc(S(=O)(=O)N(Cc2cccs2)C[C@H]2CCCO2)cc1 (nonaromatic ring conformer: 72.12989239905232 kcal/mol)

>  <smiles>  (33) 
COc1ccc(S(=O)(=O)N(Cc2cccs2)CC2CCCO2)cc1

>  <score_type>  (33) 
oracle

>  <origin>  (33) 
adg

>  <m_score__min__energy>  (33) 
-8.5299999999999994

>  <m_primary>  (33) 
energy

$$$$
33:0
     RDKit          3D

 22 23  0  0  0  0  0  0  0  0999 V2000
   -2.4610   25.0210  -29.2930 O   0  0  0  0  0  0  0  0  0  0  0  0
   -3.2940   24.5460  -30.1080 C   0  0  0  0  0  0  0  0  0  0  0  0
   -3.4010   23.0660  -30.2970 C   0  0  0  0  0  0  0  0  0  0  0  0
   -4.6330   22.6650  -31.0820 C   0  0  0  0  0  0  0  0  0  0  0  0
   -4.4920   21.5670  -31.9570 C   0  0  0  0  0  0  0  0  0  0  0  0
   -5.5790   21.0690  -32.6710 C   0  0  0  0  0  0  0  0  0  0  0  0
   -6.8350   21.6460  -32.5210 C   0  0  0  0  0  0  0  0  0  0  0  0
   -7.0070   22.7240  -31.6550 C   0  0  0  0  0  0  0  0  0  0  0  0
   -5.9320   23.2460  -30.9070 C   0  0  0  0  0  0  0  0  0  0  0  0
   -6.2650   24.4800  -30.0740 C   0  0  0  0  0  0  0  0  0  0  0  0
   -5.4750   25.7570  -30.3530 C   0  0  0  0  0  0  0  0  0  0  0  0
   -4.1450   25.4240  -30.8370 N   0  0  0  0  0  0  0  0  0  0  0  0
   -2.5096   22.7148  -30.8373 H   0  0  0  0  0  0  0  0  0  0  0  0
   -3.4785   22.6082  -29.2998 H   0  0  0  0  0  0  0  0  0  0  0  0
   -3.5054   21.0958  -32.0773 H   0  0  0  0  0  0  0  0  0  0  0  0
   -5.4437   20.2179  -33.3546 H   0  0  0  0  0  0  0  0  0  0  0  0
   -7.6926   21.2517  -33.0858 H   0  0  0  0  0  0  0  0  0  0  0  0
   -8.0038   23.1778  -31.5527 H   0  0  0  0  0  0  0  0  0  0  0  0
   -7.3286   24.7091  -30.2363 H   0  0  0  0  0  0  0  0  0  0  0  0
   -5.9932   24.2032  -29.0447 H   0  0  0  0  0  0  0  0  0  0  0  0
   -6.0012   26.3517  -31.1142 H   0  0  0  0  0  0  0  0  0  0  0  0
   -5.3856   26.3366  -29.4223 H   0  0  0  0  0  0  0  0  0  0  0  0
  1  2  2  0
  2  3  1  0
  3  4  1  0
  4  5  2  0
  5  6  1  0
  6  7  2  0
  7  8  1  0
  8  9  2  0
  9 10  1  0
 10 11  1  0
 11 12  1  0
 12  2  1  0
  9  4  1  0
  3 13  1  0
  3 14  1  0
  5 15  1  0
  6 16  1  0
  7 17  1  0
  8 18  1  0
 10 19  1  0
 10 20  1  0
 11 21  1  0
 11 22  1  0
M  CHG  1  12  -1
M  END
>  <UniqueID>  (34) 
32

>  <SMILES>  (34) 
O=C1Cc2ccccc2CC[N-]1

>  <Energy>  (34) 
28.99954748043362

>  <Genealogy>  (34) 
O=C1Cc2ccccc2CC[N-]1 (protonated)
O=C1Cc2ccccc2CC[N-]1 (3D coordinates assigned)
O=C1Cc2ccccc2CC[N-]1 (nonaromatic ring conformer: 28.99954748043362 kcal/mol)

>  <smiles>  (34) 
O=C1Cc2ccccc2CCN1

>  <score_type>  (34) 
oracle

>  <origin>  (34) 
adg

>  <m_score__min__energy>  (34) 
-6.3399999999999999

>  <m_primary>  (34) 
energy

$$$$
34:0
     RDKit          3D

 49 49  0  0  0  0  0  0  0  0999 V2000
   -2.7850   21.9170  -31.3930 C   0  0  0  0  0  0  0  0  0  0  0  0
   -2.2490   21.2010  -32.6280 C   0  0  0  0  0  0  0  0  0  0  0  0
   -3.3950   20.6340  -33.4800 C   0  0  0  0  0  0  0  0  0  0  0  0
   -3.7960   19.2090  -33.0470 C   0  0  0  0  0  0  0  0  0  0  0  0
   -4.6010   18.4430  -34.1100 C   0  0  0  0  0  0  0  0  0  0  0  0
   -5.4890   17.3440  -33.5100 C   0  0  0  0  0  0  0  0  0  0  0  0
   -6.8920   17.8800  -33.1940 C   0  0  0  0  0  0  0  0  0  0  0  0
   -7.1810   17.9770  -31.6870 C   0  0  0  0  0  0  0  0  0  0  0  0
   -8.4730   18.7270  -31.3020 C   0  0  0  0  0  0  0  0  0  0  0  0
   -8.8650   19.8670  -32.2660 C   0  0  0  0  0  0  0  0  0  0  0  0
   -8.0320   21.1130  -32.0730 C   0  0  0  0  0  0  0  0  0  0  0  0
   -6.6950   21.1550  -32.5020 C   0  0  0  0  0  0  0  0  0  0  0  0
   -5.9400   22.3200  -32.3480 C   0  0  0  0  0  0  0  0  0  0  0  0
   -6.5120   23.4650  -31.7690 C   0  0  0  0  0  0  0  0  0  0  0  0
   -5.7470   24.6610  -31.5550 N   0  0  0  0  0  0  0  0  0  0  0  0
   -5.0680   24.9800  -30.4900 C   0  0  0  0  0  0  0  0  0  0  0  0
   -5.6550   24.9600  -29.1830 N   0  0  0  0  0  0  0  0  0  0  0  0
   -3.6810   25.2930  -30.6230 N   0  0  0  0  0  0  0  0  0  0  0  0
   -7.8200   23.4020  -31.2780 C   0  0  0  0  0  0  0  0  0  0  0  0
   -8.5770   22.2370  -31.4270 C   0  0  0  0  0  0  0  0  0  0  0  0
   -2.4105   21.4168  -30.4877 H   0  0  0  0  0  0  0  0  0  0  0  0
   -2.4466   22.9636  -31.4002 H   0  0  0  0  0  0  0  0  0  0  0  0
   -3.8846   21.8871  -31.4002 H   0  0  0  0  0  0  0  0  0  0  0  0
   -1.6700   21.9138  -33.2335 H   0  0  0  0  0  0  0  0  0  0  0  0
   -1.6124   20.3664  -32.2991 H   0  0  0  0  0  0  0  0  0  0  0  0
   -4.2698   21.2934  -33.3803 H   0  0  0  0  0  0  0  0  0  0  0  0
   -3.0468   20.5838  -34.5222 H   0  0  0  0  0  0  0  0  0  0  0  0
   -2.8792   18.6412  -32.8298 H   0  0  0  0  0  0  0  0  0  0  0  0
   -4.4451   19.3119  -32.1649 H   0  0  0  0  0  0  0  0  0  0  0  0
   -5.2418   19.1576  -34.6474 H   0  0  0  0  0  0  0  0  0  0  0  0
   -3.8797   17.9545  -34.7816 H   0  0  0  0  0  0  0  0  0  0  0  0
   -5.5739   16.5172  -34.2305 H   0  0  0  0  0  0  0  0  0  0  0  0
   -5.0289   16.9946  -32.5739 H   0  0  0  0  0  0  0  0  0  0  0  0
   -6.9894   18.8837  -33.6335 H   0  0  0  0  0  0  0  0  0  0  0  0
   -7.6157   17.1691  -33.6193 H   0  0  0  0  0  0  0  0  0  0  0  0
   -7.2528   16.9537  -31.2898 H   0  0  0  0  0  0  0  0  0  0  0  0
   -6.3544   18.5636  -31.2597 H   0  0  0  0  0  0  0  0  0  0  0  0
   -9.2977   17.9996  -31.2773 H   0  0  0  0  0  0  0  0  0  0  0  0
   -8.2824   19.1959  -30.3254 H   0  0  0  0  0  0  0  0  0  0  0  0
   -8.7336   19.5136  -33.2994 H   0  0  0  0  0  0  0  0  0  0  0  0
   -9.9111   20.1332  -32.0542 H   0  0  0  0  0  0  0  0  0  0  0  0
   -6.2400   20.2653  -32.9618 H   0  0  0  0  0  0  0  0  0  0  0  0
   -4.8921   22.3410  -32.6818 H   0  0  0  0  0  0  0  0  0  0  0  0
   -6.5840   24.5240  -28.9970 H   0  0  0  0  0  0  0  0  0  0  0  0
   -5.1030   25.2850  -28.3600 H   0  0  0  0  0  0  0  0  0  0  0  0
   -3.2250   25.2900  -31.5630 H   0  0  0  0  0  0  0  0  0  0  0  0
   -3.1070   25.5250  -29.7840 H   0  0  0  0  0  0  0  0  0  0  0  0
   -8.2558   24.2755  -30.7711 H   0  0  0  0  0  0  0  0  0  0  0  0
   -9.6048   22.1989  -31.0369 H   0  0  0  0  0  0  0  0  0  0  0  0
  1  2  1  0
  2  3  1  0
  3  4  1  0
  4  5  1  0
  5  6  1  0
  6  7  1  0
  7  8  1  0
  8  9  1  0
  9 10  1  0
 10 11  1  0
 11 12  2  0
 12 13  1  0
 13 14  2  0
 14 15  1  0
 15 16  2  3
 16 17  1  0
 16 18  1  0
 14 19  1  0
 19 20  2  0
 20 11  1  0
  1 21  1  0
  1 22  1  0
  1 23  1  0
  2 24  1  0
  2 25  1  0
  3 26  1  0
  3 27  1  0
  4 28  1  0
  4 29  1  0
  5 30  1  0
  5 31  1  0
  6 32  1  0
  6 33  1  0
  7 34  1  0
  7 35  1  0
  8 36  1  0
  8 37  1  0
  9 38  1  0
  9 39  1  0
 10 40  1  0
 10 41  1  0
 12 42  1  0
 13 43  1  0
 17 44  1  0
 17 45  1  0
 18 46  1  0
 18 47  1  0
 19 48  1  0
 20 49  1  0
M  END
>  <UniqueID>  (35) 
33

>  <SMILES>  (35) 
CCCCCCCCCCc1ccc(N=C(N)N)cc1

>  <Energy>  (35) 
35.474255303959005

>  <Genealogy>  (35) 
CCCCCCCCCCc1ccc(N=C(N)N)cc1 (3D coordinates assigned)
CCCCCCCCCCc1ccc(N=C(N)N)cc1 (optimized conformer: 35.474255303959005 kcal/mol)

>  <smiles>  (35) 
CCCCCCCCCCc1ccc(N=C(N)N)cc1

>  <score_type>  (35) 
oracle

>  <origin>  (35) 
adg

>  <m_score__min__energy>  (35) 
-8.0099999999999998

>  <m_primary>  (35) 
energy

$$$$
35:0
     RDKit          3D

 46 48  0  0  0  0  0  0  0  0999 V2000
   -6.1180   18.7580  -35.0690 N   0  0  0  0  0  0  0  0  0  0  0  0
   -5.2260   17.5990  -35.1000 C   0  0  0  0  0  0  0  0  0  0  0  0
   -4.1480   17.6600  -34.0030 C   0  0  0  0  0  0  0  0  0  0  0  0
   -3.2220   18.8880  -34.1160 C   0  0  0  0  0  0  0  0  0  0  0  0
   -2.4240   19.1360  -32.8240 C   0  0  0  0  0  0  0  0  0  0  0  0
   -2.8910   20.3940  -32.0770 C   0  0  0  0  0  0  0  0  0  0  0  0
   -3.8500   21.2590  -32.9190 C   0  0  0  0  0  0  0  0  0  0  0  0
   -5.0890   21.5700  -32.1880 N   0  0  0  0  0  0  0  0  0  0  0  0
   -6.2340   20.6910  -32.3180 C   0  0  0  0  0  0  0  0  0  0  0  0
   -6.0610   19.4870  -32.6490 O   0  0  0  0  0  0  0  0  0  0  0  0
   -7.6160   21.1590  -32.0940 C   0  0  0  0  0  0  0  0  0  0  0  0
   -8.7020   20.3440  -31.8250 C   0  0  0  0  0  0  0  0  0  0  0  0
   -9.8030   21.1750  -31.7390 C   0  0  0  0  0  0  0  0  0  0  0  0
   -9.3500   22.4600  -31.9710 C   0  0  0  0  0  0  0  0  0  0  0  0
   -8.0210   22.4400  -32.1900 N   0  0  0  0  0  0  0  0  0  0  0  0
   -7.1840   23.5870  -32.5210 C   0  0  0  0  0  0  0  0  0  0  0  0
   -6.1140   23.7310  -31.4800 C   0  0  0  0  0  0  0  0  0  0  0  0
   -6.1120   24.8540  -30.6340 C   0  0  0  0  0  0  0  0  0  0  0  0
   -5.1240   25.0030  -29.6610 C   0  0  0  0  0  0  0  0  0  0  0  0
   -4.1310   24.0350  -29.5210 C   0  0  0  0  0  0  0  0  0  0  0  0
   -4.1270   22.9110  -30.3500 C   0  0  0  0  0  0  0  0  0  0  0  0
   -5.1220   22.7350  -31.3290 C   0  0  0  0  0  0  0  0  0  0  0  0
   -6.4940   18.9550  -36.0250 H   0  0  0  0  0  0  0  0  0  0  0  0
   -5.5780   19.5930  -34.7440 H   0  0  0  0  0  0  0  0  0  0  0  0
   -6.9010   18.5930  -34.3980 H   0  0  0  0  0  0  0  0  0  0  0  0
   -5.8253   16.6878  -34.9564 H   0  0  0  0  0  0  0  0  0  0  0  0
   -4.7144   17.5950  -36.0738 H   0  0  0  0  0  0  0  0  0  0  0  0
   -4.6490   17.6910  -33.0242 H   0  0  0  0  0  0  0  0  0  0  0  0
   -3.5163   16.7673  -34.1211 H   0  0  0  0  0  0  0  0  0  0  0  0
   -2.5152   18.7237  -34.9427 H   0  0  0  0  0  0  0  0  0  0  0  0
   -3.8528   19.7707  -34.2976 H   0  0  0  0  0  0  0  0  0  0  0  0
   -2.5462   18.2665  -32.1614 H   0  0  0  0  0  0  0  0  0  0  0  0
   -1.3710   19.2855  -33.1048 H   0  0  0  0  0  0  0  0  0  0  0  0
   -3.4095   20.0859  -31.1571 H   0  0  0  0  0  0  0  0  0  0  0  0
   -2.0007   21.0010  -31.8556 H   0  0  0  0  0  0  0  0  0  0  0  0
   -3.3444   22.2005  -33.1798 H   0  0  0  0  0  0  0  0  0  0  0  0
   -4.1188   20.6916  -33.8222 H   0  0  0  0  0  0  0  0  0  0  0  0
   -8.6909   19.2508  -31.7036 H   0  0  0  0  0  0  0  0  0  0  0  0
  -10.8391   20.8723  -31.5270 H   0  0  0  0  0  0  0  0  0  0  0  0
   -9.9793   23.3622  -31.9760 H   0  0  0  0  0  0  0  0  0  0  0  0
   -6.7205   23.4325  -33.5066 H   0  0  0  0  0  0  0  0  0  0  0  0
   -7.7990   24.4986  -32.5486 H   0  0  0  0  0  0  0  0  0  0  0  0
   -6.8945   25.6198  -30.7402 H   0  0  0  0  0  0  0  0  0  0  0  0
   -5.1284   25.8850  -29.0037 H   0  0  0  0  0  0  0  0  0  0  0  0
   -3.3494   24.1565  -28.7566 H   0  0  0  0  0  0  0  0  0  0  0  0
   -3.3366   22.1545  -30.2362 H   0  0  0  0  0  0  0  0  0  0  0  0
  1  2  1  0
  2  3  1  0
  3  4  1  0
  4  5  1  0
  5  6  1  0
  6  7  1  0
  7  8  1  0
  8  9  1  0
  9 10  2  0
  9 11  1  0
 11 12  2  0
 12 13  1  0
 13 14  2  0
 14 15  1  0
 15 16  1  0
 16 17  1  0
 17 18  2  0
 18 19  1  0
 19 20  2  0
 20 21  1  0
 21 22  2  0
 22  8  1  0
 15 11  1  0
 22 17  1  0
  1 23  1  0
  1 24  1  0
  1 25  1  0
  2 26  1  0
  2 27  1  0
  3 28  1  0
  3 29  1  0
  4 30  1  0
  4 31  1  0
  5 32  1  0
  5 33  1  0
  6 34  1  0
  6 35  1  0
  7 36  1  0
  7 37  1  0
 12 38  1  0
 13 39  1  0
 14 40  1  0
 16 41  1  0
 16 42  1  0
 18 43  1  0
 19 44  1  0
 20 45  1  0
 21 46  1  0
M  CHG  1   1   1
M  END
>  <UniqueID>  (36) 
34

>  <SMILES>  (36) 
[NH3+]CCCCCCN1C(=O)c2cccn2Cc2ccccc21

>  <Energy>  (36) 
78.07279805876566

>  <Genealogy>  (36) 
[NH3+]CCCCCCN1C(=O)c2cccn2Cc2ccccc21 (protonated)
[NH3+]CCCCCCN1C(=O)c2cccn2Cc2ccccc21 (3D coordinates assigned)
[NH3+]CCCCCCN1C(=O)c2cccn2Cc2ccccc21 (nonaromatic ring conformer: 78.07279805876566 kcal/mol)

>  <smiles>  (36) 
NCCCCCCN1C(=O)c2cccn2Cc2ccccc21

>  <score_type>  (36) 
oracle

>  <origin>  (36) 
adg

>  <m_score__min__energy>  (36) 
-7.6600000000000001

>  <m_primary>  (36) 
energy

$$$$
36:0
     RDKit          3D

 46 49  0  0  0  0  0  0  0  0999 V2000
   -1.9050   24.8850  -28.2260 C   0  0  0  0  0  0  0  0  0  0  0  0
   -2.7510   25.2990  -29.2950 O   0  0  0  0  0  0  0  0  0  0  0  0
   -3.9110   24.6190  -29.6950 C   0  0  0  0  0  0  0  0  0  0  0  0
   -4.5850   25.0680  -30.8370 C   0  0  0  0  0  0  0  0  0  0  0  0
   -5.7450   24.4240  -31.2770 C   0  0  0  0  0  0  0  0  0  0  0  0
   -6.2550   23.3240  -30.5710 C   0  0  0  0  0  0  0  0  0  0  0  0
   -7.4760   22.6040  -31.0700 C   0  0  0  0  0  0  0  0  0  0  0  0
   -7.1110   21.2790  -31.5650 N   0  0  0  0  0  0  0  0  0  0  0  0
   -7.9850   20.1550  -31.6320 C   0  0  0  0  0  0  0  0  0  0  0  0
   -9.1270   20.1080  -31.1040 O   0  0  0  0  0  0  0  0  0  0  0  0
   -7.3640   19.1040  -32.3960 C   0  0  0  0  0  0  0  0  0  0  0  0
   -7.8250   17.8280  -32.7160 C   0  0  0  0  0  0  0  0  0  0  0  0
   -6.9960   17.0040  -33.4940 C   0  0  0  0  0  0  0  0  0  0  0  0
   -5.7390   17.4690  -33.9330 C   0  0  0  0  0  0  0  0  0  0  0  0
   -5.3020   18.7620  -33.5970 C   0  0  0  0  0  0  0  0  0  0  0  0
   -6.1370   19.5680  -32.8180 C   0  0  0  0  0  0  0  0  0  0  0  0
   -5.9030   20.9810  -32.3480 C   0  0  2  0  0  0  0  0  0  0  0  0
   -4.7190   21.0520  -31.4890 N   0  0  0  0  0  0  0  0  0  0  0  0
   -3.3590   21.1090  -31.9620 C   0  0  0  0  0  0  0  0  0  0  0  0
   -2.2580   21.1840  -31.0830 C   0  0  0  0  0  0  0  0  0  0  0  0
   -0.9550   21.2390  -31.5870 C   0  0  0  0  0  0  0  0  0  0  0  0
   -0.7330   21.2240  -32.9650 C   0  0  0  0  0  0  0  0  0  0  0  0
   -1.8150   21.1580  -33.8450 C   0  0  0  0  0  0  0  0  0  0  0  0
   -3.1210   21.1020  -33.3470 C   0  0  0  0  0  0  0  0  0  0  0  0
   -5.5760   22.8640  -29.4320 C   0  0  0  0  0  0  0  0  0  0  0  0
   -4.4160   23.5080  -28.9920 C   0  0  0  0  0  0  0  0  0  0  0  0
   -2.3862   25.1205  -27.2653 H   0  0  0  0  0  0  0  0  0  0  0  0
   -1.7326   23.8007  -28.2937 H   0  0  0  0  0  0  0  0  0  0  0  0
   -0.9430   25.4142  -28.2937 H   0  0  0  0  0  0  0  0  0  0  0  0
   -4.1984   25.9350  -31.3928 H   0  0  0  0  0  0  0  0  0  0  0  0
   -6.2603   24.7812  -32.1808 H   0  0  0  0  0  0  0  0  0  0  0  0
   -8.1979   22.4985  -30.2467 H   0  0  0  0  0  0  0  0  0  0  0  0
   -7.9251   23.1833  -31.8902 H   0  0  0  0  0  0  0  0  0  0  0  0
   -8.8083   17.4773  -32.3696 H   0  0  0  0  0  0  0  0  0  0  0  0
   -7.3287   15.9905  -33.7625 H   0  0  0  0  0  0  0  0  0  0  0  0
   -5.0967   16.8159  -34.5420 H   0  0  0  0  0  0  0  0  0  0  0  0
   -4.3242   19.1315  -33.9396 H   0  0  0  0  0  0  0  0  0  0  0  0
   -5.7303   21.6845  -33.1758 H   0  0  0  0  0  0  0  0  0  0  0  0
   -4.8790   21.0340  -30.4550 H   0  0  0  0  0  0  0  0  0  0  0  0
   -2.4255   21.1993  -29.9959 H   0  0  0  0  0  0  0  0  0  0  0  0
   -0.1017   21.2943  -30.8950 H   0  0  0  0  0  0  0  0  0  0  0  0
    0.2938   21.2642  -33.3574 H   0  0  0  0  0  0  0  0  0  0  0  0
   -1.6403   21.1500  -34.9310 H   0  0  0  0  0  0  0  0  0  0  0  0
   -3.9692   21.0520  -34.0456 H   0  0  0  0  0  0  0  0  0  0  0  0
   -5.9590   21.9915  -28.8823 H   0  0  0  0  0  0  0  0  0  0  0  0
   -3.8956   23.1456  -28.0932 H   0  0  0  0  0  0  0  0  0  0  0  0
  1  2  1  0
  2  3  1  0
  3  4  2  0
  4  5  1  0
  5  6  2  0
  6  7  1  0
  7  8  1  0
  8  9  1  0
  9 10  2  0
  9 11  1  0
 11 12  2  0
 12 13  1  0
 13 14  2  0
 14 15  1  0
 15 16  2  0
 16 17  1  0
 17 18  1  0
 18 19  1  0
 19 20  2  0
 20 21  1  0
 21 22  2  0
 22 23  1  0
 23 24  2  0
  6 25  1  0
 25 26  2  0
 26  3  1  0
 17  8  1  0
 24 19  1  0
 16 11  1  0
  1 27  1  0
  1 28  1  0
  1 29  1  0
  4 30  1  0
  5 31  1  0
  7 32  1  0
  7 33  1  0
 12 34  1  0
 13 35  1  0
 14 36  1  0
 15 37  1  0
 17 38  1  6
 18 39  1  0
 20 40  1  0
 21 41  1  0
 22 42  1  0
 23 43  1  0
 24 44  1  0
 25 45  1  0
 26 46  1  0
M  END
>  <UniqueID>  (37) 
35

>  <SMILES>  (37) 
COc1ccc(CN2C(=O)c3ccccc3[C@@H]2Nc2ccccc2)cc1

>  <Energy>  (37) 
69.28045824577178

>  <Genealogy>  (37) 
COc1ccc(CN2C(=O)c3ccccc3[C@@H]2Nc2ccccc2)cc1 (chirality)
COc1ccc(CN2C(=O)c3ccccc3[C@@H]2Nc2ccccc2)cc1 (3D coordinates assigned)
COc1ccc(CN2C(=O)c3ccccc3[C@@H]2Nc2ccccc2)cc1 (nonaromatic ring conformer: 69.28045824577178 kcal/mol)

>  <smiles>  (37) 
COc1ccc(CN2C(=O)c3ccccc3C2Nc2ccccc2)cc1

>  <score_type>  (37) 
oracle

>  <origin>  (37) 
adg

>  <m_score__min__energy>  (37) 
-8.8100000000000005

>  <m_primary>  (37) 
energy

$$$$
37:0
     RDKit          3D

 50 53  0  0  0  0  0  0  0  0999 V2000
   -8.7010   22.3190  -31.3130 C   0  0  0  0  0  0  0  0  0  0  0  0
   -7.3660   22.9940  -31.1220 C   0  0  0  0  0  0  0  0  0  0  0  0
   -7.2300   23.9230  -30.0770 C   0  0  0  0  0  0  0  0  0  0  0  0
   -6.0210   24.5790  -29.8600 C   0  0  0  0  0  0  0  0  0  0  0  0
   -4.9360   24.3540  -30.7120 C   0  0  0  0  0  0  0  0  0  0  0  0
   -3.6740   24.9970  -30.4860 N   0  0  0  0  0  0  0  0  0  0  0  0
   -2.6910   24.5460  -29.5440 C   0  0  0  0  0  0  0  0  0  0  0  0
   -1.9210   25.3950  -29.0200 O   0  0  0  0  0  0  0  0  0  0  0  0
   -2.5410   23.1080  -29.2010 C   0  0  0  0  0  0  0  0  0  0  0  0
   -1.7440   22.2640  -29.9970 C   0  0  0  0  0  0  0  0  0  0  0  0
   -1.6100   20.9070  -29.6770 C   0  0  0  0  0  0  0  0  0  0  0  0
   -2.2780   20.3790  -28.5680 C   0  0  0  0  0  0  0  0  0  0  0  0
   -3.0850   21.2060  -27.7780 C   0  0  0  0  0  0  0  0  0  0  0  0
   -3.2210   22.5600  -28.0950 C   0  0  0  0  0  0  0  0  0  0  0  0
   -5.0690   23.4660  -31.7820 C   0  0  0  0  0  0  0  0  0  0  0  0
   -6.2400   22.6890  -31.9460 C   0  0  0  0  0  0  0  0  0  0  0  0
   -6.3200   21.6810  -32.9920 N   0  0  0  0  0  0  0  0  0  0  0  0
   -6.5620   20.3070  -32.5070 C   0  0  0  0  0  0  0  0  0  0  0  0
   -5.6700   19.2690  -33.1680 C   0  0  0  0  0  0  0  0  0  0  0  0
   -6.2200   18.0560  -33.6240 C   0  0  0  0  0  0  0  0  0  0  0  0
   -5.4180   17.1150  -34.2800 C   0  0  0  0  0  0  0  0  0  0  0  0
   -4.0610   17.3720  -34.4920 C   0  0  0  0  0  0  0  0  0  0  0  0
   -3.5000   18.5710  -34.0430 C   0  0  0  0  0  0  0  0  0  0  0  0
   -4.3040   19.5290  -33.4030 C   0  0  0  0  0  0  0  0  0  0  0  0
   -3.7160   20.7390  -33.0100 O   0  0  0  0  0  0  0  0  0  0  0  0
   -2.4270   21.1360  -33.4850 C   0  0  0  0  0  0  0  0  0  0  0  0
   -1.4930   19.9210  -33.5620 C   0  0  0  0  0  0  0  0  0  0  0  0
   -2.1400   18.8370  -34.2320 O   0  0  0  0  0  0  0  0  0  0  0  0
   -9.1428   22.0956  -30.3307 H   0  0  0  0  0  0  0  0  0  0  0  0
   -9.3722   22.9860  -31.8738 H   0  0  0  0  0  0  0  0  0  0  0  0
   -8.5617   21.3830  -31.8738 H   0  0  0  0  0  0  0  0  0  0  0  0
   -8.0885   24.1347  -29.4226 H   0  0  0  0  0  0  0  0  0  0  0  0
   -5.9195   25.2764  -29.0154 H   0  0  0  0  0  0  0  0  0  0  0  0
   -1.2233   22.6726  -30.8756 H   0  0  0  0  0  0  0  0  0  0  0  0
   -0.9784   20.2558  -30.2990 H   0  0  0  0  0  0  0  0  0  0  0  0
   -2.1694   19.3137  -28.3163 H   0  0  0  0  0  0  0  0  0  0  0  0
   -3.6124   20.7897  -26.9071 H   0  0  0  0  0  0  0  0  0  0  0  0
   -3.8640   23.2033  -27.4763 H   0  0  0  0  0  0  0  0  0  0  0  0
   -4.2495   23.3692  -32.5094 H   0  0  0  0  0  0  0  0  0  0  0  0
   -7.0930   21.9020  -33.6620 H   0  0  0  0  0  0  0  0  0  0  0  0
   -5.4250   21.6960  -33.5380 H   0  0  0  0  0  0  0  0  0  0  0  0
   -6.3808   20.2829  -31.4223 H   0  0  0  0  0  0  0  0  0  0  0  0
   -7.6015   20.0511  -32.7600 H   0  0  0  0  0  0  0  0  0  0  0  0
   -7.2878   17.8462  -33.4636 H   0  0  0  0  0  0  0  0  0  0  0  0
   -5.8577   16.1694  -34.6300 H   0  0  0  0  0  0  0  0  0  0  0  0
   -3.4350   16.6317  -35.0116 H   0  0  0  0  0  0  0  0  0  0  0  0
   -2.5296   21.5794  -34.4864 H   0  0  0  0  0  0  0  0  0  0  0  0
   -1.9998   21.8735  -32.7895 H   0  0  0  0  0  0  0  0  0  0  0  0
   -0.5832   20.1977  -34.1150 H   0  0  0  0  0  0  0  0  0  0  0  0
   -1.2333   19.6053  -32.5408 H   0  0  0  0  0  0  0  0  0  0  0  0
  1  2  1  0
  2  3  2  0
  3  4  1  0
  4  5  2  0
  5  6  1  0
  6  7  1  0
  7  8  2  0
  7  9  1  0
  9 10  2  0
 10 11  1  0
 11 12  2  0
 12 13  1  0
 13 14  2  0
  5 15  1  0
 15 16  2  0
 16 17  1  0
 17 18  1  0
 18 19  1  0
 19 20  2  0
 20 21  1  0
 21 22  2  0
 22 23  1  0
 23 24  2  0
 24 25  1  0
 25 26  1  0
 26 27  1  0
 27 28  1  0
 16  2  1  0
 24 19  1  0
 14  9  1  0
 28 23  1  0
  1 29  1  0
  1 30  1  0
  1 31  1  0
  3 32  1  0
  4 33  1  0
 10 34  1  0
 11 35  1  0
 12 36  1  0
 13 37  1  0
 14 38  1  0
 15 39  1  0
 17 40  1  0
 17 41  1  0
 18 42  1  0
 18 43  1  0
 20 44  1  0
 21 45  1  0
 22 46  1  0
 26 47  1  0
 26 48  1  0
 27 49  1  0
 27 50  1  0
M  CHG  2   6  -1  17   1
M  END
>  <UniqueID>  (38) 
36

>  <SMILES>  (38) 
Cc1ccc([N-]C(=O)c2ccccc2)cc1[NH2+]Cc1cccc2c1OCCO2

>  <Energy>  (38) 
65.58326030842572

>  <Genealogy>  (38) 
Cc1ccc([N-]C(=O)c2ccccc2)cc1[NH2+]Cc1cccc2c1OCCO2 (protonated)
Cc1ccc([N-]C(=O)c2ccccc2)cc1[NH2+]Cc1cccc2c1OCCO2 (3D coordinates assigned)
Cc1ccc([N-]C(=O)c2ccccc2)cc1[NH2+]Cc1cccc2c1OCCO2 (nonaromatic ring conformer: 65.58326030842572 kcal/mol)

>  <smiles>  (38) 
Cc1ccc(NC(=O)c2ccccc2)cc1NCc1cccc2c1OCCO2

>  <score_type>  (38) 
oracle

>  <origin>  (38) 
adg

>  <m_score__min__energy>  (38) 
-9.9900000000000002

>  <m_primary>  (38) 
energy

$$$$
38:0
     RDKit          3D

 28 29  0  0  0  0  0  0  0  0999 V2000
   -9.3770   19.0470  -32.3620 C   0  0  0  0  0  0  0  0  0  0  0  0
   -9.1540   20.4450  -32.5170 O   0  0  0  0  0  0  0  0  0  0  0  0
   -8.0240   21.1240  -32.0360 C   0  0  0  0  0  0  0  0  0  0  0  0
   -6.7900   21.1080  -32.7110 C   0  0  0  0  0  0  0  0  0  0  0  0
   -5.6940   21.8030  -32.1920 C   0  0  0  0  0  0  0  0  0  0  0  0
   -5.8150   22.5310  -30.9980 C   0  0  0  0  0  0  0  0  0  0  0  0
   -4.6540   23.2600  -30.4370 C   0  0  0  0  0  0  0  0  0  0  0  0
   -3.5730   22.5280  -29.9250 C   0  0  0  0  0  0  0  0  0  0  0  0
   -2.4580   23.1880  -29.4090 C   0  0  0  0  0  0  0  0  0  0  0  0
   -2.4320   24.5820  -29.4020 C   0  0  0  0  0  0  0  0  0  0  0  0
   -1.4310   25.1950  -28.9480 O   0  0  0  0  0  0  0  0  0  0  0  0
   -3.4900   25.2840  -29.8860 N   0  0  0  0  0  0  0  0  0  0  0  0
   -4.5980   24.6730  -30.3900 C   0  0  0  0  0  0  0  0  0  0  0  0
   -5.7250   25.5350  -30.8810 C   0  0  0  0  0  0  0  0  0  0  0  0
   -7.0430   22.5350  -30.3190 C   0  0  0  0  0  0  0  0  0  0  0  0
   -8.1390   21.8400  -30.8390 C   0  0  0  0  0  0  0  0  0  0  0  0
   -9.4166   18.7985  -31.2912 H   0  0  0  0  0  0  0  0  0  0  0  0
  -10.3302   18.7728  -32.8376 H   0  0  0  0  0  0  0  0  0  0  0  0
   -8.5564   18.4899  -32.8376 H   0  0  0  0  0  0  0  0  0  0  0  0
   -6.6871   20.5462  -33.6511 H   0  0  0  0  0  0  0  0  0  0  0  0
   -4.7307   21.7793  -32.7225 H   0  0  0  0  0  0  0  0  0  0  0  0
   -3.6046   21.4285  -29.9304 H   0  0  0  0  0  0  0  0  0  0  0  0
   -1.6076   22.6145  -29.0115 H   0  0  0  0  0  0  0  0  0  0  0  0
   -6.2696   25.9516  -30.0208 H   0  0  0  0  0  0  0  0  0  0  0  0
   -5.3199   26.3559  -31.4909 H   0  0  0  0  0  0  0  0  0  0  0  0
   -6.4112   24.9291  -31.4909 H   0  0  0  0  0  0  0  0  0  0  0  0
   -7.1438   23.0875  -29.3732 H   0  0  0  0  0  0  0  0  0  0  0  0
   -9.0994   21.8561  -30.3030 H   0  0  0  0  0  0  0  0  0  0  0  0
  1  2  1  0
  2  3  1  0
  3  4  2  0
  4  5  1  0
  5  6  2  0
  6  7  1  0
  7  8  1  0
  8  9  2  0
  9 10  1  0
 10 11  2  0
 10 12  1  0
 12 13  1  0
 13 14  1  0
  6 15  1  0
 15 16  2  0
 16  3  1  0
 13  7  2  0
  1 17  1  0
  1 18  1  0
  1 19  1  0
  4 20  1  0
  5 21  1  0
  8 22  1  0
  9 23  1  0
 14 24  1  0
 14 25  1  0
 14 26  1  0
 15 27  1  0
 16 28  1  0
M  CHG  1  12  -1
M  END
>  <UniqueID>  (39) 
37

>  <SMILES>  (39) 
COc1ccc(-c2ccc(=O)[n-]c2C)cc1

>  <Energy>  (39) 
35.316564753976955

>  <Genealogy>  (39) 
COc1ccc(-c2ccc(=O)[n-]c2C)cc1 (protonated)
COc1ccc(-c2ccc(=O)[n-]c2C)cc1 (3D coordinates assigned)
COc1ccc(-c2ccc(=O)[n-]c2C)cc1 (optimized conformer: 35.316564753976955 kcal/mol)

>  <smiles>  (39) 
COc1ccc(-c2ccc(=O)[nH]c2C)cc1

>  <score_type>  (39) 
oracle

>  <origin>  (39) 
adg

>  <m_score__min__energy>  (39) 
-8.0800000000000001

>  <m_primary>  (39) 
energy

$$$$
39:0
     RDKit          3D

 38 41  0  0  0  0  0  0  0  0999 V2000
   -5.7250   25.7300  -30.0950 C   0  0  0  0  0  0  0  0  0  0  0  0
   -5.0120   24.9500  -31.0490 O   0  0  0  0  0  0  0  0  0  0  0  0
   -5.3730   23.6520  -31.4400 C   0  0  0  0  0  0  0  0  0  0  0  0
   -4.6290   22.5760  -30.9440 C   0  0  0  0  0  0  0  0  0  0  0  0
   -4.9480   21.2640  -31.3050 C   0  0  0  0  0  0  0  0  0  0  0  0
   -6.0140   21.0130  -32.1800 C   0  0  0  0  0  0  0  0  0  0  0  0
   -6.3580   19.6620  -32.5280 N   0  0  0  0  0  0  0  0  0  0  0  0
   -7.5550   19.0600  -32.3470 C   0  0  0  0  0  0  0  0  0  0  0  0
   -8.5430   19.6170  -31.7990 O   0  0  0  0  0  0  0  0  0  0  0  0
   -7.5950   17.7960  -32.8330 N   0  0  0  0  0  0  0  0  0  0  0  0
   -6.3410   17.6590  -33.3240 C   0  0  0  0  0  0  0  0  0  0  0  0
   -5.8350   16.5290  -33.9260 N   0  0  0  0  0  0  0  0  0  0  0  0
   -6.6700   15.3360  -34.1110 C   0  0  0  0  0  0  0  0  0  0  0  0
   -4.5150   16.5980  -34.3190 C   0  0  0  0  0  0  0  0  0  0  0  0
   -3.7470   17.7170  -34.1140 C   0  0  0  0  0  0  0  0  0  0  0  0
   -2.4930   17.5290  -34.5610 N   0  0  0  0  0  0  0  0  0  0  0  0
   -2.5310   16.2630  -35.0450 C   0  0  0  0  0  0  0  0  0  0  0  0
   -3.7430   15.6630  -34.9140 N   0  0  0  0  0  0  0  0  0  0  0  0
   -4.0530   14.3040  -35.3520 C   0  0  0  0  0  0  0  0  0  0  0  0
   -4.2780   18.8450  -33.5010 C   0  0  0  0  0  0  0  0  0  0  0  0
   -3.5720   19.8620  -33.2680 O   0  0  0  0  0  0  0  0  0  0  0  0
   -5.5940   18.7720  -33.1430 N   0  0  0  0  0  0  0  0  0  0  0  0
   -6.7740   22.0860  -32.6670 C   0  0  0  0  0  0  0  0  0  0  0  0
   -6.4550   23.3980  -32.3070 C   0  0  0  0  0  0  0  0  0  0  0  0
   -5.4398   25.4179  -29.0795 H   0  0  0  0  0  0  0  0  0  0  0  0
   -5.4802   26.7933  -30.2342 H   0  0  0  0  0  0  0  0  0  0  0  0
   -6.8060   25.5814  -30.2342 H   0  0  0  0  0  0  0  0  0  0  0  0
   -3.7853   22.7643  -30.2637 H   0  0  0  0  0  0  0  0  0  0  0  0
   -4.3609   20.4260  -30.9013 H   0  0  0  0  0  0  0  0  0  0  0  0
   -6.9535   14.9309  -33.1284 H   0  0  0  0  0  0  0  0  0  0  0  0
   -7.5769   15.6066  -34.6716 H   0  0  0  0  0  0  0  0  0  0  0  0
   -6.1053   14.5765  -34.6716 H   0  0  0  0  0  0  0  0  0  0  0  0
   -1.6613   15.7676  -35.5014 H   0  0  0  0  0  0  0  0  0  0  0  0
   -4.1999   13.6599  -34.4725 H   0  0  0  0  0  0  0  0  0  0  0  0
   -4.9719   14.3143  -35.9566 H   0  0  0  0  0  0  0  0  0  0  0  0
   -3.2206   13.9148  -35.9566 H   0  0  0  0  0  0  0  0  0  0  0  0
   -7.6258   21.8940  -33.3360 H   0  0  0  0  0  0  0  0  0  0  0  0
   -7.0500   24.2350  -32.7013 H   0  0  0  0  0  0  0  0  0  0  0  0
  1  2  1  0
  2  3  1  0
  3  4  2  0
  4  5  1  0
  5  6  2  0
  6  7  1  0
  7  8  1  0
  8  9  2  0
  8 10  1  0
 10 11  2  0
 11 12  1  0
 12 13  1  0
 12 14  1  0
 14 15  2  0
 15 16  1  0
 16 17  2  0
 17 18  1  0
 18 19  1  0
 15 20  1  0
 20 21  2  0
 20 22  1  0
  6 23  1  0
 23 24  2  0
 24  3  1  0
 22  7  1  0
 22 11  1  0
 18 14  1  0
  1 25  1  0
  1 26  1  0
  1 27  1  0
  4 28  1  0
  5 29  1  0
 13 30  1  0
 13 31  1  0
 13 32  1  0
 17 33  1  0
 19 34  1  0
 19 35  1  0
 19 36  1  0
 23 37  1  0
 24 38  1  0
M  END
>  <UniqueID>  (40) 
38

>  <SMILES>  (40) 
COc1ccc(-n2c(=O)nc3n(C)c4c(ncn4C)c(=O)n32)cc1

>  <Energy>  (40) 
136.42417055464603

>  <Genealogy>  (40) 
COc1ccc(-n2c(=O)nc3n(C)c4c(ncn4C)c(=O)n32)cc1 (3D coordinates assigned)
COc1ccc(-n2c(=O)nc3n(C)c4c(ncn4C)c(=O)n32)cc1 (optimized conformer: 136.42417055464603 kcal/mol)

>  <smiles>  (40) 
COc1ccc(-n2c(=O)nc3n(C)c4c(ncn4C)c(=O)n32)cc1

>  <score_type>  (40) 
oracle

>  <origin>  (40) 
adg

>  <m_score__min__energy>  (40) 
-7.0199999999999996

>  <m_primary>  (40) 
energy

$$$$
40:0
     RDKit          3D

 42 44  0  0  0  0  0  0  0  0999 V2000
   -6.4790   25.9850  -29.2710 C   0  0  0  0  0  0  0  0  0  0  0  0
   -5.6390   25.8360  -30.4110 O   0  0  0  0  0  0  0  0  0  0  0  0
   -5.0640   24.6220  -30.8190 C   0  0  0  0  0  0  0  0  0  0  0  0
   -5.7780   23.6670  -31.5670 C   0  0  0  0  0  0  0  0  0  0  0  0
   -5.1650   22.4700  -31.9510 C   0  0  0  0  0  0  0  0  0  0  0  0
   -3.8370   22.2020  -31.5870 C   0  0  0  0  0  0  0  0  0  0  0  0
   -3.1720   20.9450  -32.0010 C   0  0  0  0  0  0  0  0  0  0  0  0
   -3.2910   20.3580  -33.2470 C   0  0  0  0  0  0  0  0  0  0  0  0
   -2.5020   19.2250  -33.1650 C   0  0  0  0  0  0  0  0  0  0  0  0
   -2.2950   18.2440  -34.2340 C   0  0  0  0  0  0  0  0  0  0  0  0
   -1.2640   18.3140  -34.9550 O   0  0  0  0  0  0  0  0  0  0  0  0
   -3.2460   17.2370  -34.4430 O   0  0  0  0  0  0  0  0  0  0  0  0
   -4.5290   17.4800  -35.0140 C   0  0  0  0  0  0  0  0  0  0  0  0
   -5.4730   18.0180  -33.9740 C   0  0  0  0  0  0  0  0  0  0  0  0
   -6.1480   19.2330  -34.1790 C   0  0  0  0  0  0  0  0  0  0  0  0
   -7.0080   19.7340  -33.1970 C   0  0  0  0  0  0  0  0  0  0  0  0
   -7.1980   19.0290  -32.0050 C   0  0  0  0  0  0  0  0  0  0  0  0
   -6.5250   17.8220  -31.7930 C   0  0  0  0  0  0  0  0  0  0  0  0
   -5.6650   17.3180  -32.7720 C   0  0  0  0  0  0  0  0  0  0  0  0
   -1.9310   19.1450  -31.9470 N   0  0  0  0  0  0  0  0  0  0  0  0
   -2.3330   20.1950  -31.2480 N   0  0  0  0  0  0  0  0  0  0  0  0
   -1.8820   20.4560  -29.8850 C   0  0  0  0  0  0  0  0  0  0  0  0
   -3.1210   23.1640  -30.8570 C   0  0  0  0  0  0  0  0  0  0  0  0
   -3.7320   24.3620  -30.4720 C   0  0  0  0  0  0  0  0  0  0  0  0
   -3.0090   25.2950  -29.7380 O   0  0  0  0  0  0  0  0  0  0  0  0
   -5.8777   25.8783  -28.3561 H   0  0  0  0  0  0  0  0  0  0  0  0
   -6.9472   26.9802  -29.2881 H   0  0  0  0  0  0  0  0  0  0  0  0
   -7.2610   25.2115  -29.2881 H   0  0  0  0  0  0  0  0  0  0  0  0
   -6.8226   23.8630  -31.8507 H   0  0  0  0  0  0  0  0  0  0  0  0
   -5.7283   21.7334  -32.5427 H   0  0  0  0  0  0  0  0  0  0  0  0
   -3.8788   20.7113  -34.1070 H   0  0  0  0  0  0  0  0  0  0  0  0
   -4.4304   18.2134  -35.8279 H   0  0  0  0  0  0  0  0  0  0  0  0
   -4.9306   16.5333  -35.4045 H   0  0  0  0  0  0  0  0  0  0  0  0
   -5.9995   19.7918  -35.1148 H   0  0  0  0  0  0  0  0  0  0  0  0
   -7.5360   20.6846  -33.3627 H   0  0  0  0  0  0  0  0  0  0  0  0
   -7.8765   19.4236  -31.2343 H   0  0  0  0  0  0  0  0  0  0  0  0
   -6.6728   17.2684  -30.8540 H   0  0  0  0  0  0  0  0  0  0  0  0
   -5.1361   16.3689  -32.6004 H   0  0  0  0  0  0  0  0  0  0  0  0
   -2.6071   20.0364  -29.1722 H   0  0  0  0  0  0  0  0  0  0  0  0
   -0.8996   19.9868  -29.7277 H   0  0  0  0  0  0  0  0  0  0  0  0
   -1.7993   21.5415  -29.7277 H   0  0  0  0  0  0  0  0  0  0  0  0
   -2.0720   22.9743  -30.5858 H   0  0  0  0  0  0  0  0  0  0  0  0
  1  2  1  0
  2  3  1  0
  3  4  2  0
  4  5  1  0
  5  6  2  0
  6  7  1  0
  7  8  2  0
  8  9  1  0
  9 10  1  0
 10 11  2  0
 10 12  1  0
 12 13  1  0
 13 14  1  0
 14 15  2  0
 15 16  1  0
 16 17  2  0
 17 18  1  0
 18 19  2  0
  9 20  2  0
 20 21  1  0
 21 22  1  0
  6 23  1  0
 23 24  2  0
 24 25  1  0
 24  3  1  0
 21  7  1  0
 19 14  1  0
  1 26  1  0
  1 27  1  0
  1 28  1  0
  4 29  1  0
  5 30  1  0
  8 31  1  0
 13 32  1  0
 13 33  1  0
 15 34  1  0
 16 35  1  0
 17 36  1  0
 18 37  1  0
 19 38  1  0
 22 39  1  0
 22 40  1  0
 22 41  1  0
 23 42  1  0
M  CHG  1  25  -1
M  END
>  <UniqueID>  (41) 
39

>  <SMILES>  (41) 
COc1ccc(-c2cc(C(=O)OCc3ccccc3)nn2C)cc1[O-]

>  <Energy>  (41) 
75.28395486246676

>  <Genealogy>  (41) 
COc1ccc(-c2cc(C(=O)OCc3ccccc3)nn2C)cc1[O-] (protonated)
COc1ccc(-c2cc(C(=O)OCc3ccccc3)nn2C)cc1[O-] (3D coordinates assigned)
COc1ccc(-c2cc(C(=O)OCc3ccccc3)nn2C)cc1[O-] (optimized conformer: 75.28395486246676 kcal/mol)

>  <smiles>  (41) 
COc1ccc(-c2cc(C(=O)OCc3ccccc3)nn2C)cc1O

>  <score_type>  (41) 
oracle

>  <origin>  (41) 
adg

>  <m_score__min__energy>  (41) 
-10.880000000000001

>  <m_primary>  (41) 
energy

$$$$
41:0
     RDKit          3D

 39 41  0  0  0  0  0  0  0  0999 V2000
   -0.9760   23.4700  -29.6300 C   0  0  0  0  0  0  0  0  0  0  0  0
   -1.5050   24.7600  -29.3390 O   0  0  0  0  0  0  0  0  0  0  0  0
   -1.5060   25.3510  -28.0650 C   0  0  0  0  0  0  0  0  0  0  0  0
   -0.8420   26.5660  -27.8040 C   0  0  0  0  0  0  0  0  0  0  0  0
   -0.8750   27.1250  -26.5240 C   0  0  0  0  0  0  0  0  0  0  0  0
   -1.5780   26.4890  -25.4990 C   0  0  0  0  0  0  0  0  0  0  0  0
   -2.2390   25.2860  -25.7480 C   0  0  0  0  0  0  0  0  0  0  0  0
   -2.1850   24.6970  -27.0230 C   0  0  0  0  0  0  0  0  0  0  0  0
   -2.8930   23.4780  -27.2980 N   0  0  0  0  0  0  0  0  0  0  0  0
   -3.9740   23.3680  -28.0140 C   0  0  0  0  0  0  0  0  0  0  0  0
   -4.6510   24.5450  -28.6660 C   0  0  0  0  0  0  0  0  0  0  0  0
   -4.6140   24.4200  -30.1650 C   0  0  0  0  0  0  0  0  0  0  0  0
   -3.9800   25.2940  -30.8150 O   0  0  0  0  0  0  0  0  0  0  0  0
   -5.3270   23.3260  -30.8880 C   0  0  0  0  0  0  0  0  0  0  0  0
   -6.7090   23.1300  -30.7170 C   0  0  0  0  0  0  0  0  0  0  0  0
   -7.3620   22.1070  -31.4080 C   0  0  0  0  0  0  0  0  0  0  0  0
   -8.7410   21.8860  -31.2620 C   0  0  0  0  0  0  0  0  0  0  0  0
   -9.3600   20.8520  -31.9720 C   0  0  0  0  0  0  0  0  0  0  0  0
   -8.6100   20.0400  -32.8270 C   0  0  0  0  0  0  0  0  0  0  0  0
   -7.2370   20.2560  -32.9770 C   0  0  0  0  0  0  0  0  0  0  0  0
   -6.6080   21.2890  -32.2710 C   0  0  0  0  0  0  0  0  0  0  0  0
   -5.3040   21.4940  -32.4150 O   0  0  0  0  0  0  0  0  0  0  0  0
   -4.6480   22.4560  -31.7740 C   0  0  0  0  0  0  0  0  0  0  0  0
   -3.4070   22.5700  -31.9640 O   0  0  0  0  0  0  0  0  0  0  0  0
   -0.7594   22.9419  -28.6897 H   0  0  0  0  0  0  0  0  0  0  0  0
   -1.7110   22.8952  -30.2125 H   0  0  0  0  0  0  0  0  0  0  0  0
   -0.0490   23.5767  -30.2125 H   0  0  0  0  0  0  0  0  0  0  0  0
   -0.2957   27.0763  -28.6109 H   0  0  0  0  0  0  0  0  0  0  0  0
   -0.3459   28.0683  -26.3233 H   0  0  0  0  0  0  0  0  0  0  0  0
   -1.6107   26.9367  -24.4947 H   0  0  0  0  0  0  0  0  0  0  0  0
   -2.8054   24.7959  -24.9424 H   0  0  0  0  0  0  0  0  0  0  0  0
   -4.4139   22.3689  -28.1494 H   0  0  0  0  0  0  0  0  0  0  0  0
   -5.6987   24.5880  -28.3335 H   0  0  0  0  0  0  0  0  0  0  0  0
   -4.1190   25.4629  -28.3756 H   0  0  0  0  0  0  0  0  0  0  0  0
   -7.2765   23.7834  -30.0380 H   0  0  0  0  0  0  0  0  0  0  0  0
   -9.3334   22.5249  -30.5905 H   0  0  0  0  0  0  0  0  0  0  0  0
  -10.4400   20.6775  -31.8571 H   0  0  0  0  0  0  0  0  0  0  0  0
   -9.1015   19.2285  -33.3836 H   0  0  0  0  0  0  0  0  0  0  0  0
   -6.6501   19.6139  -33.6503 H   0  0  0  0  0  0  0  0  0  0  0  0
  1  2  1  0
  2  3  1  0
  3  4  2  0
  4  5  1  0
  5  6  2  0
  6  7  1  0
  7  8  2  0
  8  9  1  0
  9 10  2  3
 10 11  1  0
 11 12  1  0
 12 13  2  0
 12 14  1  0
 14 15  2  0
 15 16  1  0
 16 17  2  0
 17 18  1  0
 18 19  2  0
 19 20  1  0
 20 21  2  0
 21 22  1  0
 22 23  1  0
 23 24  2  0
  8  3  1  0
 23 14  1  0
 21 16  1  0
  1 25  1  0
  1 26  1  0
  1 27  1  0
  4 28  1  0
  5 29  1  0
  6 30  1  0
  7 31  1  0
 10 32  1  0
 11 33  1  0
 11 34  1  0
 15 35  1  0
 17 36  1  0
 18 37  1  0
 19 38  1  0
 20 39  1  0
M  END
>  <UniqueID>  (42) 
40

>  <SMILES>  (42) 
COc1ccccc1N=CCC(=O)c1cc2ccccc2oc1=O

>  <Energy>  (42) 
54.6570398013438

>  <Genealogy>  (42) 
COc1ccccc1N=CCC(=O)c1cc2ccccc2oc1=O (3D coordinates assigned)
COc1ccccc1N=CCC(=O)c1cc2ccccc2oc1=O (optimized conformer: 54.6570398013438 kcal/mol)

>  <smiles>  (42) 
COc1ccccc1N=CCC(=O)c1cc2ccccc2oc1=O

>  <score_type>  (42) 
oracle

>  <origin>  (42) 
adg

>  <m_score__min__energy>  (42) 
-9.0800000000000001

>  <m_primary>  (42) 
energy

$$$$
42:0
     RDKit          3D

 42 45  0  0  0  0  0  0  0  0999 V2000
   -1.6680   20.5190  -33.9739 H   0  0  0  0  0  0  0  0  0  0  0  0
   -2.6840   20.3920  -33.5720 C   0  0  0  0  0  0  0  0  0  0  0  0
   -3.2570   19.2100  -33.2690 N   0  0  0  0  0  0  0  0  0  0  0  0
   -4.4780   19.4570  -32.8210 N   0  0  0  0  0  0  0  0  0  0  0  0
   -5.3990   18.4110  -32.3880 C   0  0  0  0  0  0  0  0  0  0  0  0
   -5.4271   18.3791  -31.2888 H   0  0  0  0  0  0  0  0  0  0  0  0
   -6.4062   18.6263  -32.7744 H   0  0  0  0  0  0  0  0  0  0  0  0
   -5.0580   17.4392  -32.7744 H   0  0  0  0  0  0  0  0  0  0  0  0
   -4.6970   20.7880  -32.8210 C   0  0  0  0  0  0  0  0  0  0  0  0
   -5.9360   21.4620  -32.3770 C   0  0  0  0  0  0  0  0  0  0  0  0
   -7.1830   20.9170  -32.7230 C   0  0  0  0  0  0  0  0  0  0  0  0
   -7.2291   20.0011  -33.3305 H   0  0  0  0  0  0  0  0  0  0  0  0
   -8.3660   21.5300  -32.3010 C   0  0  0  0  0  0  0  0  0  0  0  0
   -9.3372   21.0924  -32.5753 H   0  0  0  0  0  0  0  0  0  0  0  0
   -8.3210   22.6950  -31.5330 C   0  0  0  0  0  0  0  0  0  0  0  0
   -9.2558   23.1716  -31.2030 H   0  0  0  0  0  0  0  0  0  0  0  0
   -7.0870   23.2580  -31.1820 C   0  0  0  0  0  0  0  0  0  0  0  0
   -5.8890   22.6380  -31.6030 C   0  0  0  0  0  0  0  0  0  0  0  0
   -4.7010   23.2140  -31.2770 N   0  0  0  0  0  0  0  0  0  0  0  0
   -4.6370   24.3630  -30.5460 C   0  0  0  0  0  0  0  0  0  0  0  0
   -3.4960   24.9260  -30.2730 N   0  0  0  0  0  0  0  0  0  0  0  0
   -2.6410   24.6030  -29.1650 C   0  0  0  0  0  0  0  0  0  0  0  0
   -3.2190   24.2200  -27.9490 C   0  0  0  0  0  0  0  0  0  0  0  0
   -4.3138   24.1684  -27.8551 H   0  0  0  0  0  0  0  0  0  0  0  0
   -2.4110   23.9030  -26.8540 C   0  0  0  0  0  0  0  0  0  0  0  0
   -2.8718   23.6140  -25.8979 H   0  0  0  0  0  0  0  0  0  0  0  0
   -1.0180   23.9520  -26.9700 C   0  0  0  0  0  0  0  0  0  0  0  0
   -0.3862   23.7181  -26.1004 H   0  0  0  0  0  0  0  0  0  0  0  0
   -0.4230   24.3000  -28.1970 C   0  0  0  0  0  0  0  0  0  0  0  0
    0.9670   24.3500  -28.3720 O   0  0  0  0  0  0  0  0  0  0  0  0
    1.9050   24.5310  -27.3150 C   0  0  0  0  0  0  0  0  0  0  0  0
    1.3909   24.4318  -26.3476 H   0  0  0  0  0  0  0  0  0  0  0  0
    2.6943   23.7686  -27.3907 H   0  0  0  0  0  0  0  0  0  0  0  0
    2.3540   25.5323  -27.3907 H   0  0  0  0  0  0  0  0  0  0  0  0
   -1.2410   24.6050  -29.2910 C   0  0  0  0  0  0  0  0  0  0  0  0
   -0.7829   24.8491  -30.2608 H   0  0  0  0  0  0  0  0  0  0  0  0
   -5.8260   24.9700  -30.1310 C   0  0  0  0  0  0  0  0  0  0  0  0
   -5.7940   25.9008  -29.5457 H   0  0  0  0  0  0  0  0  0  0  0  0
   -7.0230   24.4080  -30.4520 N   0  0  0  0  0  0  0  0  0  0  0  0
   -7.9000   24.8810  -30.1340 H   0  0  0  0  0  0  0  0  0  0  0  0
   -3.5670   21.4200  -33.3010 C   0  0  0  0  0  0  0  0  0  0  0  0
   -3.4058   22.4996  -33.4371 H   0  0  0  0  0  0  0  0  0  0  0  0
  1  2  1  0
  2  3  2  0
  3  4  1  0
  4  5  1  0
  5  6  1  0
  5  7  1  0
  5  8  1  0
  4  9  1  0
  9 10  1  0
 10 11  2  0
 11 12  1  0
 11 13  1  0
 13 14  1  0
 13 15  2  0
 15 16  1  0
 15 17  1  0
 17 18  2  0
 18 19  1  0
 19 20  1  0
 20 21  2  0
 21 22  1  0
 22 23  2  0
 23 24  1  0
 23 25  1  0
 25 26  1  0
 25 27  2  0
 27 28  1  0
 27 29  1  0
 29 30  1  0
 30 31  1  0
 31 32  1  0
 31 33  1  0
 31 34  1  0
 29 35  2  0
 35 36  1  0
 20 37  1  0
 37 38  1  0
 37 39  2  0
 39 40  1  0
  9 41  2  0
 41 42  1  0
 41  2  1  0
 18 10  1  0
 35 22  1  0
 39 17  1  0
M  CHG  2  19  -1  39   1
M  END
>  <UniqueID>  (43) 
41

>  <SMILES>  (43) 
COc1cccc(/N=c2/c[nH+]c3cccc(-c4ccnn4C)c3[n-]2)c1

>  <Energy>  (43) 
89.07514572851561

>  <Genealogy>  (43) 
COc1cccc(N=c2c[nH+]c3cccc(-c4ccnn4C)c3[n-]2)c1 (protonated)
COc1cccc(/N=c2/c[nH+]c3cccc(-c4ccnn4C)c3[n-]2)c1 (cis-trans isomerization)
COc1cccc(/N=c2/c[nH+]c3cccc(-c4ccnn4C)c3[n-]2)c1 (3D coordinates assigned)
COc1cccc(/N=c2/c[nH+]c3cccc(-c4ccnn4C)c3[n-]2)c1 (optimized conformer: 89.07514572851561 kcal/mol)

>  <smiles>  (43) 
COc1cccc(N=c2cnc3cccc(-c4ccnn4C)c3[nH]2)c1

>  <score_type>  (43) 
oracle

>  <origin>  (43) 
adg

>  <m_score__min__energy>  (43) 
-8.6400000000000006

>  <m_primary>  (43) 
energy

$$$$
43:0
     RDKit          3D

 29 30  0  0  0  0  0  0  0  0999 V2000
   -6.8440   24.9170  -29.8070 C   0  0  0  0  0  0  0  0  0  0  0  0
   -6.7000   23.7270  -30.7180 C   0  0  0  0  0  0  0  0  0  0  0  0
   -7.8160   22.9050  -30.9470 C   0  0  0  0  0  0  0  0  0  0  0  0
   -7.7070   21.7690  -31.7550 C   0  0  0  0  0  0  0  0  0  0  0  0
   -6.4820   21.4430  -32.3430 C   0  0  0  0  0  0  0  0  0  0  0  0
   -6.3460   20.0090  -33.3430 Cl  0  0  0  0  0  0  0  0  0  0  0  0
   -5.3700   22.2630  -32.1400 C   0  0  0  0  0  0  0  0  0  0  0  0
   -5.4740   23.4210  -31.3590 C   0  0  0  0  0  0  0  0  0  0  0  0
   -4.3100   24.2400  -31.1920 N   0  0  0  0  0  0  0  0  0  0  0  0
   -3.2720   23.9950  -30.2350 C   0  0  0  0  0  0  0  0  0  0  0  0
   -2.7640   22.8440  -30.1760 O   0  0  0  0  0  0  0  0  0  0  0  0
   -2.8140   25.0410  -29.3600 N   0  0  0  0  0  0  0  0  0  0  0  0
   -1.7580   24.8810  -28.3990 C   0  0  0  0  0  0  0  0  0  0  0  0
   -2.0160   25.1180  -27.0410 C   0  0  0  0  0  0  0  0  0  0  0  0
   -0.9940   24.9870  -26.1010 C   0  0  0  0  0  0  0  0  0  0  0  0
    0.2880   24.6370  -26.5280 C   0  0  0  0  0  0  0  0  0  0  0  0
    0.5330   24.4350  -27.8500 N   0  0  0  0  0  0  0  0  0  0  0  0
   -0.4480   24.5510  -28.7860 C   0  0  0  0  0  0  0  0  0  0  0  0
   -6.8037   24.5838  -28.7594 H   0  0  0  0  0  0  0  0  0  0  0  0
   -6.0251   25.6262  -29.9980 H   0  0  0  0  0  0  0  0  0  0  0  0
   -7.8084   25.4104  -29.9980 H   0  0  0  0  0  0  0  0  0  0  0  0
   -8.7830   23.1570  -30.4872 H   0  0  0  0  0  0  0  0  0  0  0  0
   -8.5865   21.1313  -31.9279 H   0  0  0  0  0  0  0  0  0  0  0  0
   -4.4052   21.9975  -32.5969 H   0  0  0  0  0  0  0  0  0  0  0  0
   -3.3330   25.9470  -29.3520 H   0  0  0  0  0  0  0  0  0  0  0  0
   -3.0264   25.4078  -26.7166 H   0  0  0  0  0  0  0  0  0  0  0  0
   -1.1963   25.1579  -25.0334 H   0  0  0  0  0  0  0  0  0  0  0  0
    1.1002   24.5246  -25.7948 H   0  0  0  0  0  0  0  0  0  0  0  0
   -0.2149   24.3860  -29.8483 H   0  0  0  0  0  0  0  0  0  0  0  0
  1  2  1  0
  2  3  2  0
  3  4  1  0
  4  5  2  0
  5  6  1  0
  5  7  1  0
  7  8  2  0
  8  9  1  0
  9 10  1  0
 10 11  2  0
 10 12  1  0
 12 13  1  0
 13 14  2  0
 14 15  1  0
 15 16  2  0
 16 17  1  0
 17 18  2  0
  8  2  1  0
 18 13  1  0
  1 19  1  0
  1 20  1  0
  1 21  1  0
  3 22  1  0
  4 23  1  0
  7 24  1  0
 12 25  1  0
 14 26  1  0
 15 27  1  0
 16 28  1  0
 18 29  1  0
M  CHG  1   9  -1
M  END
>  <UniqueID>  (44) 
42

>  <SMILES>  (44) 
Cc1ccc(Cl)cc1[N-]C(=O)Nc1cccnc1

>  <Energy>  (44) 
40.538279646277175

>  <Genealogy>  (44) 
Cc1ccc(Cl)cc1[N-]C(=O)Nc1cccnc1 (protonated)
Cc1ccc(Cl)cc1[N-]C(=O)Nc1cccnc1 (3D coordinates assigned)
Cc1ccc(Cl)cc1[N-]C(=O)Nc1cccnc1 (optimized conformer: 40.538279646277175 kcal/mol)

>  <smiles>  (44) 
Cc1ccc(Cl)cc1NC(=O)Nc1cccnc1

>  <score_type>  (44) 
oracle

>  <origin>  (44) 
adg

>  <m_score__min__energy>  (44) 
-8.5700000000000003

>  <m_primary>  (44) 
energy

$$$$
44:0
     RDKit          3D

 53 56  0  0  0  0  0  0  0  0999 V2000
   -0.5520   24.2220  -29.0700 C   0  0  0  0  0  0  0  0  0  0  0  0
   -1.4080   24.6460  -27.9070 C   0  0  0  0  0  0  0  0  0  0  0  0
   -0.8090   25.1970  -26.7610 C   0  0  0  0  0  0  0  0  0  0  0  0
   -1.5940   25.5970  -25.6760 C   0  0  0  0  0  0  0  0  0  0  0  0
   -0.8360   26.2820  -24.2500 Cl  0  0  0  0  0  0  0  0  0  0  0  0
   -2.9800   25.4390  -25.7230 C   0  0  0  0  0  0  0  0  0  0  0  0
   -3.5870   24.8950  -26.8570 C   0  0  0  0  0  0  0  0  0  0  0  0
   -2.8120   24.5160  -27.9680 C   0  0  0  0  0  0  0  0  0  0  0  0
   -3.4120   23.9390  -29.1400 N   0  0  0  0  0  0  0  0  0  0  0  0
   -4.3210   24.5810  -30.0430 C   0  0  0  0  0  0  0  0  0  0  0  0
   -3.9200   25.4650  -30.8460 O   0  0  0  0  0  0  0  0  0  0  0  0
   -5.7380   24.1100  -30.1110 C   0  0  0  0  0  0  0  0  0  0  0  0
   -6.1870   23.9680  -31.5700 C   0  0  0  0  0  0  0  0  0  0  0  0
   -6.3620   22.5070  -31.9480 C   0  0  0  0  0  0  0  0  0  0  0  0
   -5.2330   21.6910  -32.2780 C   0  0  0  0  0  0  0  0  0  0  0  0
   -3.8380   22.2610  -32.3310 C   0  0  0  0  0  0  0  0  0  0  0  0
   -5.4100   20.3700  -32.5860 N   0  0  0  0  0  0  0  0  0  0  0  0
   -6.6580   19.8440  -32.5810 C   0  0  0  0  0  0  0  0  0  0  0  0
   -7.0530   18.5430  -32.8280 C   0  0  0  0  0  0  0  0  0  0  0  0
   -6.2470   17.3800  -33.2560 C   0  0  0  0  0  0  0  0  0  0  0  0
   -4.8430   17.4370  -33.2520 C   0  0  0  0  0  0  0  0  0  0  0  0
   -4.0910   16.3370  -33.6750 C   0  0  0  0  0  0  0  0  0  0  0  0
   -4.7330   15.1770  -34.1160 C   0  0  0  0  0  0  0  0  0  0  0  0
   -6.1300   15.1170  -34.1400 C   0  0  0  0  0  0  0  0  0  0  0  0
   -7.0060   13.5350  -34.7530 Br  0  0  0  0  0  0  0  0  0  0  0  0
   -6.8840   16.2170  -33.7190 C   0  0  0  0  0  0  0  0  0  0  0  0
   -8.4240   18.5670  -32.5960 C   0  0  0  0  0  0  0  0  0  0  0  0
   -8.8110   19.8160  -32.2470 N   0  0  0  0  0  0  0  0  0  0  0  0
   -7.7250   20.5740  -32.2430 N   0  0  0  0  0  0  0  0  0  0  0  0
   -7.6470   21.8940  -31.9230 C   0  0  0  0  0  0  0  0  0  0  0  0
   -8.9010   22.6740  -31.6100 C   0  0  0  0  0  0  0  0  0  0  0  0
    0.3747   23.7630  -28.6951 H   0  0  0  0  0  0  0  0  0  0  0  0
   -1.1012   23.4917  -29.6825 H   0  0  0  0  0  0  0  0  0  0  0  0
   -0.3039   25.1014  -29.6825 H   0  0  0  0  0  0  0  0  0  0  0  0
    0.2839   25.3141  -26.7178 H   0  0  0  0  0  0  0  0  0  0  0  0
   -3.5961   25.7439  -24.8642 H   0  0  0  0  0  0  0  0  0  0  0  0
   -4.6787   24.7620  -26.8816 H   0  0  0  0  0  0  0  0  0  0  0  0
   -5.8194   23.1338  -29.6105 H   0  0  0  0  0  0  0  0  0  0  0  0
   -6.3826   24.8476  -29.6105 H   0  0  0  0  0  0  0  0  0  0  0  0
   -7.1454   24.4911  -31.7036 H   0  0  0  0  0  0  0  0  0  0  0  0
   -5.4139   24.4066  -32.2180 H   0  0  0  0  0  0  0  0  0  0  0  0
   -3.4650   22.4134  -31.3074 H   0  0  0  0  0  0  0  0  0  0  0  0
   -3.1759   21.5613  -32.8621 H   0  0  0  0  0  0  0  0  0  0  0  0
   -3.8554   23.2241  -32.8621 H   0  0  0  0  0  0  0  0  0  0  0  0
   -4.5870   19.7650  -32.8010 H   0  0  0  0  0  0  0  0  0  0  0  0
   -4.3332   18.3514  -32.9145 H   0  0  0  0  0  0  0  0  0  0  0  0
   -2.9921   16.3848  -33.6606 H   0  0  0  0  0  0  0  0  0  0  0  0
   -4.1396   14.3109  -34.4443 H   0  0  0  0  0  0  0  0  0  0  0  0
   -7.9826   16.1711  -33.7507 H   0  0  0  0  0  0  0  0  0  0  0  0
   -9.0945   17.6994  -32.6832 H   0  0  0  0  0  0  0  0  0  0  0  0
   -9.0230   22.7499  -30.5194 H   0  0  0  0  0  0  0  0  0  0  0  0
   -8.8225   23.6829  -32.0413 H   0  0  0  0  0  0  0  0  0  0  0  0
   -9.7713   22.1576  -32.0413 H   0  0  0  0  0  0  0  0  0  0  0  0
  1  2  1  0
  2  3  2  0
  3  4  1  0
  4  5  1  0
  4  6  2  0
  6  7  1  0
  7  8  2  0
  8  9  1  0
  9 10  1  0
 10 11  2  0
 10 12  1  0
 12 13  1  0
 13 14  1  0
 14 15  1  0
 15 16  1  0
 15 17  2  0
 17 18  1  0
 18 19  2  0
 19 20  1  0
 20 21  2  0
 21 22  1  0
 22 23  2  0
 23 24  1  0
 24 25  1  0
 24 26  2  0
 19 27  1  0
 27 28  2  0
 28 29  1  0
 29 30  1  0
 30 31  1  0
  8  2  1  0
 30 14  2  0
 29 18  1  0
 26 20  1  0
  1 32  1  0
  1 33  1  0
  1 34  1  0
  3 35  1  0
  6 36  1  0
  7 37  1  0
 12 38  1  0
 12 39  1  0
 13 40  1  0
 13 41  1  0
 16 42  1  0
 16 43  1  0
 16 44  1  0
 17 45  1  0
 21 46  1  0
 22 47  1  0
 23 48  1  0
 26 49  1  0
 27 50  1  0
 31 51  1  0
 31 52  1  0
 31 53  1  0
M  CHG  2   9  -1  17   1
M  END
>  <UniqueID>  (45) 
43

>  <SMILES>  (45) 
Cc1cc(Cl)ccc1[N-]C(=O)CCc1c(C)[nH+]c2c(-c3cccc(Br)c3)cnn2c1C

>  <Energy>  (45) 
100.16313414646329

>  <Genealogy>  (45) 
Cc1cc(Cl)ccc1[N-]C(=O)CCc1c(C)[nH+]c2c(-c3cccc(Br)c3)cnn2c1C (protonated)
Cc1cc(Cl)ccc1[N-]C(=O)CCc1c(C)[nH+]c2c(-c3cccc(Br)c3)cnn2c1C (3D coordinates assigned)
Cc1cc(Cl)ccc1[N-]C(=O)CCc1c(C)[nH+]c2c(-c3cccc(Br)c3)cnn2c1C (optimized conformer: 100.16313414646329 kcal/mol)

>  <smiles>  (45) 
Cc1cc(Cl)ccc1NC(=O)CCc1c(C)nc2c(-c3cccc(Br)c3)cnn2c1C

>  <score_type>  (45) 
oracle

>  <origin>  (45) 
adg

>  <m_score__min__energy>  (45) 
-12.199999999999999

>  <m_primary>  (45) 
energy

$$$$
45:0
     RDKit          3D

 30 30  0  0  0  0  0  0  0  0999 V2000
   -7.6532   24.2420  -30.9424 H   0  0  0  0  0  0  0  0  0  0  0  0
   -7.0790   23.4460  -31.4390 C   0  0  0  0  0  0  0  0  0  0  0  0
   -7.7210   22.2820  -31.8790 C   0  0  0  0  0  0  0  0  0  0  0  0
   -9.1910   22.1020  -31.6700 C   0  0  0  0  0  0  0  0  0  0  0  0
   -9.4075   22.0755  -30.5918 H   0  0  0  0  0  0  0  0  0  0  0  0
   -9.7325   22.9406  -32.1322 H   0  0  0  0  0  0  0  0  0  0  0  0
   -9.5141   21.1576  -32.1322 H   0  0  0  0  0  0  0  0  0  0  0  0
   -7.0000   21.3020  -32.4890 N   0  0  0  0  0  0  0  0  0  0  0  0
   -5.6590   21.4120  -32.7010 C   0  0  0  0  0  0  0  0  0  0  0  0
   -4.9780   20.4600  -33.2740 N   0  0  0  0  0  0  0  0  0  0  0  0
   -5.4440   19.2110  -33.8260 C   0  0  0  0  0  0  0  0  0  0  0  0
   -4.4090   18.0520  -34.3770 S   0  0  0  0  0  0  0  0  0  0  0  0
   -6.8570   18.9520  -33.8420 N   0  0  0  0  0  0  0  0  0  0  0  0
   -7.1110   18.5290  -34.7650 H   0  0  0  0  0  0  0  0  0  0  0  0
   -7.3880   19.8470  -33.7270 H   0  0  0  0  0  0  0  0  0  0  0  0
   -7.2040   18.0210  -32.7590 C   0  0  0  0  0  0  0  0  0  0  0  0
   -6.3418   17.9157  -32.0840 H   0  0  0  0  0  0  0  0  0  0  0  0
   -7.4658   17.0483  -33.2010 H   0  0  0  0  0  0  0  0  0  0  0  0
   -8.4020   18.5350  -31.9640 C   0  0  0  0  0  0  0  0  0  0  0  0
   -8.1935   18.4455  -30.8877 H   0  0  0  0  0  0  0  0  0  0  0  0
   -8.5837   19.5903  -32.2158 H   0  0  0  0  0  0  0  0  0  0  0  0
   -9.2919   17.9395  -32.2158 H   0  0  0  0  0  0  0  0  0  0  0  0
   -4.9880   22.5610  -32.2690 C   0  0  0  0  0  0  0  0  0  0  0  0
   -3.9035   22.6560  -32.4265 H   0  0  0  0  0  0  0  0  0  0  0  0
   -5.6950   23.5890  -31.6370 C   0  0  0  0  0  0  0  0  0  0  0  0
   -4.9880   24.7270  -31.2200 O   0  0  0  0  0  0  0  0  0  0  0  0
   -5.4750   25.6730  -30.2730 C   0  0  0  0  0  0  0  0  0  0  0  0
   -5.2848   25.3035  -29.2545 H   0  0  0  0  0  0  0  0  0  0  0  0
   -4.9596   26.6341  -30.4166 H   0  0  0  0  0  0  0  0  0  0  0  0
   -6.5567   25.8120  -30.4166 H   0  0  0  0  0  0  0  0  0  0  0  0
  1  2  1  0
  2  3  2  0
  3  4  1  0
  4  5  1  0
  4  6  1  0
  4  7  1  0
  3  8  1  0
  8  9  1  0
  9 10  2  0
 10 11  1  0
 11 12  2  0
 11 13  1  0
 13 14  1  0
 13 15  1  0
 13 16  1  0
 16 17  1  0
 16 18  1  0
 16 19  1  0
 19 20  1  0
 19 21  1  0
 19 22  1  0
  9 23  1  0
 23 24  1  0
 23 25  2  0
 25 26  1  0
 26 27  1  0
 27 28  1  0
 27 29  1  0
 27 30  1  0
 25  2  1  0
M  CHG  2   8  -1  13   1
M  END
>  <UniqueID>  (46) 
44

>  <SMILES>  (46) 
CC[NH2+]C(=S)/N=c1/cc(OC)cc(C)[n-]1

>  <Energy>  (46) 
28.92679200338715

>  <Genealogy>  (46) 
CC[NH2+]C(=S)N=c1cc(OC)cc(C)[n-]1 (protonated)
CC[NH2+]C(=S)/N=c1/cc(OC)cc(C)[n-]1 (cis-trans isomerization)
CC[NH2+]C(=S)/N=c1/cc(OC)cc(C)[n-]1 (3D coordinates assigned)
CC[NH2+]C(=S)/N=c1/cc(OC)cc(C)[n-]1 (optimized conformer: 28.92679200338715 kcal/mol)

>  <smiles>  (46) 
CCNC(=S)N=c1cc(OC)cc(C)[nH]1

>  <score_type>  (46) 
oracle

>  <origin>  (46) 
adg

>  <m_score__min__energy>  (46) 
-5.2699999999999996

>  <m_primary>  (46) 
energy

$$$$
46:0
     RDKit          3D

 39 41  0  0  0  0  0  0  0  0999 V2000
   -5.7140   26.5500  -30.4600 O   0  0  0  0  0  0  0  0  0  0  0  0
   -5.2820   25.3780  -30.6280 C   0  0  0  0  0  0  0  0  0  0  0  0
   -3.8740   25.1350  -30.7190 N   0  0  0  0  0  0  0  0  0  0  0  0
   -3.1450   24.2230  -29.8390 C   0  0  1  0  0  0  0  0  0  0  0  0
   -3.8700   24.1220  -28.4830 C   0  0  0  0  0  0  0  0  0  0  0  0
   -3.2710   23.0620  -27.5250 C   0  0  0  0  0  0  0  0  0  0  0  0
   -2.2840   22.0750  -28.1790 C   0  0  0  0  0  0  0  0  0  0  0  0
   -2.6400   21.7800  -29.6130 C   0  0  0  0  0  0  0  0  0  0  0  0
   -2.4880   20.4890  -30.1390 C   0  0  0  0  0  0  0  0  0  0  0  0
   -2.7390   20.2490  -31.4930 C   0  0  0  0  0  0  0  0  0  0  0  0
   -3.1190   21.2990  -32.3310 C   0  0  0  0  0  0  0  0  0  0  0  0
   -3.2560   22.5930  -31.8190 C   0  0  0  0  0  0  0  0  0  0  0  0
   -3.0340   22.8410  -30.4500 C   0  0  0  0  0  0  0  0  0  0  0  0
   -6.2230   24.2540  -30.7450 C   0  0  0  0  0  0  0  0  0  0  0  0
   -6.8780   23.8940  -29.7300 O   0  0  0  0  0  0  0  0  0  0  0  0
   -6.4240   23.6000  -32.0090 N   0  0  0  0  0  0  0  0  0  0  0  0
   -7.1250   22.3550  -32.1680 C   0  0  0  0  0  0  0  0  0  0  0  0
   -8.4800   22.2230  -31.8060 C   0  0  0  0  0  0  0  0  0  0  0  0
   -9.1310   20.9940  -31.9460 C   0  0  0  0  0  0  0  0  0  0  0  0
   -8.4360   19.8840  -32.4360 C   0  0  0  0  0  0  0  0  0  0  0  0
   -9.0690   18.6930  -32.5700 F   0  0  0  0  0  0  0  0  0  0  0  0
   -7.0860   20.0010  -32.7770 C   0  0  0  0  0  0  0  0  0  0  0  0
   -6.4310   21.2280  -32.6350 C   0  0  0  0  0  0  0  0  0  0  0  0
   -2.1305   24.6238  -29.6972 H   0  0  0  0  0  0  0  0  0  0  0  0
   -3.8177   25.1034  -27.9890 H   0  0  0  0  0  0  0  0  0  0  0  0
   -4.9028   23.8097  -28.6971 H   0  0  0  0  0  0  0  0  0  0  0  0
   -2.7407   23.5912  -26.7195 H   0  0  0  0  0  0  0  0  0  0  0  0
   -4.1179   22.4577  -27.1677 H   0  0  0  0  0  0  0  0  0  0  0  0
   -1.2743   22.5103  -28.1471 H   0  0  0  0  0  0  0  0  0  0  0  0
   -2.3305   21.1298  -27.6183 H   0  0  0  0  0  0  0  0  0  0  0  0
   -2.1706   19.6636  -29.4848 H   0  0  0  0  0  0  0  0  0  0  0  0
   -2.6370   19.2317  -31.8987 H   0  0  0  0  0  0  0  0  0  0  0  0
   -3.3112   21.1078  -33.3971 H   0  0  0  0  0  0  0  0  0  0  0  0
   -3.5380   23.4200  -32.4873 H   0  0  0  0  0  0  0  0  0  0  0  0
   -6.1230   24.1010  -32.8760 H   0  0  0  0  0  0  0  0  0  0  0  0
   -9.0283   23.0911  -31.4113 H   0  0  0  0  0  0  0  0  0  0  0  0
  -10.1917   20.8999  -31.6703 H   0  0  0  0  0  0  0  0  0  0  0  0
   -6.5379   19.1266  -33.1577 H   0  0  0  0  0  0  0  0  0  0  0  0
   -5.3644   21.3107  -32.8910 H   0  0  0  0  0  0  0  0  0  0  0  0
  1  2  2  0
  2  3  1  0
  3  4  1  0
  4  5  1  0
  5  6  1  0
  6  7  1  0
  7  8  1  0
  8  9  2  0
  9 10  1  0
 10 11  2  0
 11 12  1  0
 12 13  2  0
  2 14  1  0
 14 15  2  0
 14 16  1  0
 16 17  1  0
 17 18  2  0
 18 19  1  0
 19 20  2  0
 20 21  1  0
 20 22  1  0
 22 23  2  0
 13  4  1  0
 23 17  1  0
 13  8  1  0
  4 24  1  1
  5 25  1  0
  5 26  1  0
  6 27  1  0
  6 28  1  0
  7 29  1  0
  7 30  1  0
  9 31  1  0
 10 32  1  0
 11 33  1  0
 12 34  1  0
 16 35  1  0
 18 36  1  0
 19 37  1  0
 22 38  1  0
 23 39  1  0
M  CHG  1   3  -1
M  END
>  <UniqueID>  (47) 
45

>  <SMILES>  (47) 
O=C([N-][C@H]1CCCc2ccccc21)C(=O)Nc1ccc(F)cc1

>  <Energy>  (47) 
48.221152372707856

>  <Genealogy>  (47) 
O=C([N-]C1CCCc2ccccc21)C(=O)Nc1ccc(F)cc1 (protonated)
O=C([N-][C@H]1CCCc2ccccc21)C(=O)Nc1ccc(F)cc1 (chirality)
O=C([N-][C@H]1CCCc2ccccc21)C(=O)Nc1ccc(F)cc1 (3D coordinates assigned)
O=C([N-][C@H]1CCCc2ccccc21)C(=O)Nc1ccc(F)cc1 (nonaromatic ring conformer: 48.221152372707856 kcal/mol)

>  <smiles>  (47) 
O=C(Nc1ccc(F)cc1)C(=O)NC1CCCc2ccccc21

>  <score_type>  (47) 
oracle

>  <origin>  (47) 
adg

>  <m_score__min__energy>  (47) 
-9.5199999999999996

>  <m_primary>  (47) 
energy

$$$$
47:0
     RDKit          3D

 22 23  0  0  0  0  0  0  0  0999 V2000
   -9.1230   18.1720  -31.8750 C   0  0  0  0  0  0  0  0  0  0  0  0
   -9.2250   19.4930  -32.3970 O   0  0  0  0  0  0  0  0  0  0  0  0
   -8.3470   20.5400  -32.0810 C   0  0  0  0  0  0  0  0  0  0  0  0
   -8.7980   21.7900  -31.6200 C   0  0  0  0  0  0  0  0  0  0  0  0
   -7.8820   22.8030  -31.3160 C   0  0  0  0  0  0  0  0  0  0  0  0
   -6.5010   22.5880  -31.4660 C   0  0  0  0  0  0  0  0  0  0  0  0
   -5.5560   23.6320  -31.1540 N   0  0  0  0  0  0  0  0  0  0  0  0
   -5.7360   24.9660  -31.2120 C   0  0  0  0  0  0  0  0  0  0  0  0
   -4.6210   25.6240  -30.8440 N   0  0  0  0  0  0  0  0  0  0  0  0
   -3.7100   24.7100  -30.5470 N   0  0  0  0  0  0  0  0  0  0  0  0
   -4.2810   23.5060  -30.7340 C   0  0  0  0  0  0  0  0  0  0  0  0
   -6.0570   21.3350  -31.9280 C   0  0  0  0  0  0  0  0  0  0  0  0
   -6.9740   20.3240  -32.2290 C   0  0  0  0  0  0  0  0  0  0  0  0
   -9.1260   18.2109  -30.7757 H   0  0  0  0  0  0  0  0  0  0  0  0
   -9.9776   17.5732  -32.2230 H   0  0  0  0  0  0  0  0  0  0  0  0
   -8.1866   17.7115  -32.2230 H   0  0  0  0  0  0  0  0  0  0  0  0
   -9.8759   21.9720  -31.4979 H   0  0  0  0  0  0  0  0  0  0  0  0
   -8.2459   23.7767  -30.9563 H   0  0  0  0  0  0  0  0  0  0  0  0
   -6.6725   25.4539  -31.5201 H   0  0  0  0  0  0  0  0  0  0  0  0
   -3.7738   22.5445  -30.5661 H   0  0  0  0  0  0  0  0  0  0  0  0
   -4.9799   21.1499  -32.0532 H   0  0  0  0  0  0  0  0  0  0  0  0
   -6.6116   19.3487  -32.5859 H   0  0  0  0  0  0  0  0  0  0  0  0
  1  2  1  0
  2  3  1  0
  3  4  2  0
  4  5  1  0
  5  6  2  0
  6  7  1  0
  7  8  1  0
  8  9  2  0
  9 10  1  0
 10 11  2  0
  6 12  1  0
 12 13  2  0
 13  3  1  0
 11  7  1  0
  1 14  1  0
  1 15  1  0
  1 16  1  0
  4 17  1  0
  5 18  1  0
  8 19  1  0
 11 20  1  0
 12 21  1  0
 13 22  1  0
M  END
>  <UniqueID>  (48) 
46

>  <SMILES>  (48) 
COc1ccc(-n2cnnc2)cc1

>  <Energy>  (48) 
59.28199717319283

>  <Genealogy>  (48) 
COc1ccc(-n2cnnc2)cc1 (3D coordinates assigned)
COc1ccc(-n2cnnc2)cc1 (optimized conformer: 59.28199717319283 kcal/mol)

>  <smiles>  (48) 
COc1ccc(-n2cnnc2)cc1

>  <score_type>  (48) 
oracle

>  <origin>  (48) 
adg

>  <m_score__min__energy>  (48) 
-5.6399999999999997

>  <m_primary>  (48) 
energy

$$$$
48:0
     RDKit          3D

 31 32  0  0  0  0  0  0  0  0999 V2000
   -8.6490   22.3440  -31.4900 C   0  0  0  0  0  0  0  0  0  0  0  0
   -7.2070   22.6980  -31.3420 C   0  0  0  0  0  0  0  0  0  0  0  0
   -6.3080   22.9810  -32.3520 C   0  0  0  0  0  0  0  0  0  0  0  0
   -5.1250   23.3190  -31.8040 N   0  0  0  0  0  0  0  0  0  0  0  0
   -5.2550   23.2490  -30.4870 N   0  0  0  0  0  0  0  0  0  0  0  0
   -4.2090   23.5990  -29.5260 C   0  0  0  0  0  0  0  0  0  0  0  0
   -3.5310   24.8870  -29.9080 C   0  0  0  0  0  0  0  0  0  0  0  0
   -4.0570   25.6080  -30.7960 O   0  0  0  0  0  0  0  0  0  0  0  0
   -2.2820   25.2980  -29.3380 N   0  0  0  0  0  0  0  0  0  0  0  0
   -1.3740   24.4720  -28.5460 C   0  0  0  0  0  0  0  0  0  0  0  0
   -1.2040   25.0110  -27.1450 C   0  0  0  0  0  0  0  0  0  0  0  0
   -1.2410   26.4010  -26.9340 C   0  0  0  0  0  0  0  0  0  0  0  0
   -1.0760   26.9300  -25.6520 C   0  0  0  0  0  0  0  0  0  0  0  0
   -0.8650   26.0810  -24.5660 C   0  0  0  0  0  0  0  0  0  0  0  0
   -0.7170   26.5960  -23.3210 F   0  0  0  0  0  0  0  0  0  0  0  0
   -0.8010   24.6990  -24.7630 C   0  0  0  0  0  0  0  0  0  0  0  0
   -0.9570   24.1580  -26.0440 C   0  0  0  0  0  0  0  0  0  0  0  0
   -0.8170   22.4130  -26.2310 Cl  0  0  0  0  0  0  0  0  0  0  0  0
   -6.5180   22.9070  -30.1680 C   0  0  0  0  0  0  0  0  0  0  0  0
   -9.1032   22.2325  -30.4944 H   0  0  0  0  0  0  0  0  0  0  0  0
   -9.1675   23.1415  -32.0424 H   0  0  0  0  0  0  0  0  0  0  0  0
   -8.7393   21.3970  -32.0424 H   0  0  0  0  0  0  0  0  0  0  0  0
   -6.5235   22.9373  -33.4298 H   0  0  0  0  0  0  0  0  0  0  0  0
   -4.6603   23.7125  -28.5293 H   0  0  0  0  0  0  0  0  0  0  0  0
   -3.4567   22.7965  -29.5208 H   0  0  0  0  0  0  0  0  0  0  0  0
   -1.7800   23.4513  -28.4881 H   0  0  0  0  0  0  0  0  0  0  0  0
   -0.3896   24.4784  -29.0368 H   0  0  0  0  0  0  0  0  0  0  0  0
   -1.4013   27.0776  -27.7863 H   0  0  0  0  0  0  0  0  0  0  0  0
   -1.1126   28.0186  -25.4986 H   0  0  0  0  0  0  0  0  0  0  0  0
   -0.6269   24.0322  -23.9056 H   0  0  0  0  0  0  0  0  0  0  0  0
   -6.9264   22.8116  -29.1511 H   0  0  0  0  0  0  0  0  0  0  0  0
  1  2  1  0
  2  3  1  0
  3  4  2  0
  4  5  1  0
  5  6  1  0
  6  7  1  0
  7  8  2  0
  7  9  1  0
  9 10  1  0
 10 11  1  0
 11 12  2  0
 12 13  1  0
 13 14  2  0
 14 15  1  0
 14 16  1  0
 16 17  2  0
 17 18  1  0
  5 19  1  0
 19  2  2  0
 17 11  1  0
  1 20  1  0
  1 21  1  0
  1 22  1  0
  3 23  1  0
  6 24  1  0
  6 25  1  0
 10 26  1  0
 10 27  1  0
 12 28  1  0
 13 29  1  0
 16 30  1  0
 19 31  1  0
M  CHG  1   9  -1
M  END
>  <UniqueID>  (49) 
47

>  <SMILES>  (49) 
Cc1cnn(CC(=O)[N-]Cc2ccc(F)cc2Cl)c1

>  <Energy>  (49) 
55.09722450815182

>  <Genealogy>  (49) 
Cc1cnn(CC(=O)[N-]Cc2ccc(F)cc2Cl)c1 (protonated)
Cc1cnn(CC(=O)[N-]Cc2ccc(F)cc2Cl)c1 (3D coordinates assigned)
Cc1cnn(CC(=O)[N-]Cc2ccc(F)cc2Cl)c1 (optimized conformer: 55.09722450815182 kcal/mol)

>  <smiles>  (49) 
Cc1cnn(CC(=O)NCc2ccc(F)cc2Cl)c1

>  <score_type>  (49) 
oracle

>  <origin>  (49) 
adg

>  <m_score__min__energy>  (49) 
-8.3900000000000006

>  <m_primary>  (49) 
energy

$$$$
49:0
     RDKit          3D

 38 39  0  0  0  0  0  0  0  0999 V2000
   -0.8430   21.4240  -27.9200 C   0  0  0  0  0  0  0  0  0  0  0  0
   -1.0510   22.4160  -28.9190 O   0  0  0  0  0  0  0  0  0  0  0  0
   -2.2000   22.5290  -29.7170 C   0  0  0  0  0  0  0  0  0  0  0  0
   -2.7620   21.3890  -30.3320 C   0  0  0  0  0  0  0  0  0  0  0  0
   -3.9010   21.5210  -31.1190 C   0  0  0  0  0  0  0  0  0  0  0  0
   -4.5460   20.4640  -31.7760 C   0  0  0  0  0  0  0  0  0  0  0  0
   -5.6680   20.8810  -32.4950 C   0  0  0  0  0  0  0  0  0  0  0  0
   -6.5860   20.0320  -33.2820 C   0  0  0  0  0  0  0  0  0  0  0  0
   -6.2050   19.6260  -34.4170 O   0  0  0  0  0  0  0  0  0  0  0  0
   -7.9200   19.7210  -32.8090 N   0  0  0  0  0  0  0  0  0  0  0  0
   -7.8760   18.5200  -31.9610 C   0  0  0  0  0  0  0  0  0  0  0  0
   -8.5020   20.8550  -32.0720 C   0  0  0  0  0  0  0  0  0  0  0  0
   -5.8390   22.5460  -32.2940 S   0  0  0  0  0  0  0  0  0  0  0  0
   -4.4930   22.7620  -31.3030 C   0  0  0  0  0  0  0  0  0  0  0  0
   -3.9690   23.9280  -30.7080 C   0  0  0  0  0  0  0  0  0  0  0  0
   -4.5190   25.2150  -30.8530 O   0  0  0  0  0  0  0  0  0  0  0  0
   -5.7590   25.6730  -30.3310 C   0  0  0  0  0  0  0  0  0  0  0  0
   -2.8120   23.8050  -29.9090 C   0  0  0  0  0  0  0  0  0  0  0  0
   -2.3210   24.9940  -29.3350 O   0  0  0  0  0  0  0  0  0  0  0  0
   -1.7990   25.1530  -28.0200 C   0  0  0  0  0  0  0  0  0  0  0  0
   -0.9388   21.8809  -26.9240 H   0  0  0  0  0  0  0  0  0  0  0  0
   -1.5937   20.6278  -28.0319 H   0  0  0  0  0  0  0  0  0  0  0  0
    0.1643   20.9965  -28.0319 H   0  0  0  0  0  0  0  0  0  0  0  0
   -2.3008   20.4006  -30.1892 H   0  0  0  0  0  0  0  0  0  0  0  0
   -4.2052   19.4191  -31.7301 H   0  0  0  0  0  0  0  0  0  0  0  0
   -8.5490   19.5320  -33.6230 H   0  0  0  0  0  0  0  0  0  0  0  0
   -7.8869   18.8181  -30.9022 H   0  0  0  0  0  0  0  0  0  0  0  0
   -8.7516   17.8890  -32.1733 H   0  0  0  0  0  0  0  0  0  0  0  0
   -6.9565   17.9547  -32.1733 H   0  0  0  0  0  0  0  0  0  0  0  0
   -8.4099   20.6756  -30.9906 H   0  0  0  0  0  0  0  0  0  0  0  0
   -7.9664   21.7784  -32.3374 H   0  0  0  0  0  0  0  0  0  0  0  0
   -9.5645   20.9582  -32.3374 H   0  0  0  0  0  0  0  0  0  0  0  0
   -5.7216   25.6592  -29.2317 H   0  0  0  0  0  0  0  0  0  0  0  0
   -5.9464   26.6997  -30.6786 H   0  0  0  0  0  0  0  0  0  0  0  0
   -6.5688   25.0146  -30.6786 H   0  0  0  0  0  0  0  0  0  0  0  0
   -2.5809   24.9148  -27.2838 H   0  0  0  0  0  0  0  0  0  0  0  0
   -0.9447   24.4743  -27.8801 H   0  0  0  0  0  0  0  0  0  0  0  0
   -1.4681   26.1927  -27.8801 H   0  0  0  0  0  0  0  0  0  0  0  0
  1  2  1  0
  2  3  1  0
  3  4  2  0
  4  5  1  0
  5  6  1  0
  6  7  2  0
  7  8  1  0
  8  9  2  0
  8 10  1  0
 10 11  1  0
 10 12  1  0
  7 13  1  0
 13 14  1  0
 14 15  1  0
 15 16  1  0
 16 17  1  0
 15 18  2  0
 18 19  1  0
 19 20  1  0
 18  3  1  0
 14  5  2  0
  1 21  1  0
  1 22  1  0
  1 23  1  0
  4 24  1  0
  6 25  1  0
 10 26  1  0
 11 27  1  0
 11 28  1  0
 11 29  1  0
 12 30  1  0
 12 31  1  0
 12 32  1  0
 17 33  1  0
 17 34  1  0
 17 35  1  0
 20 36  1  0
 20 37  1  0
 20 38  1  0
M  CHG  1  10   1
M  END
>  <UniqueID>  (50) 
48

>  <SMILES>  (50) 
COc1cc2cc(C(=O)[NH+](C)C)sc2c(OC)c1OC

>  <Energy>  (50) 
74.29059322020163

>  <Genealogy>  (50) 
COc1cc2cc(C(=O)[NH+](C)C)sc2c(OC)c1OC (protonated)
COc1cc2cc(C(=O)[NH+](C)C)sc2c(OC)c1OC (3D coordinates assigned)
COc1cc2cc(C(=O)[NH+](C)C)sc2c(OC)c1OC (optimized conformer: 74.29059322020163 kcal/mol)

>  <smiles>  (50) 
COc1cc2cc(C(=O)N(C)C)sc2c(OC)c1OC

>  <score_type>  (50) 
oracle

>  <origin>  (50) 
adg

>  <m_score__min__energy>  (50) 
-6.7800000000000002

>  <m_primary>  (50) 
energy

$$$$
