0:0
     RDKit          3D

 55 57  0  0  0  0  0  0  0  0999 V2000
   -1.2040   26.3080  -28.1600 C   0  0  0  0  0  0  0  0  0  0  0  0
   -1.6820   25.1700  -28.8700 O   0  0  0  0  0  0  0  0  0  0  0  0
   -1.4570   23.8380  -28.4910 C   0  0  0  0  0  0  0  0  0  0  0  0
   -0.1530   23.3160  -28.3630 C   0  0  0  0  0  0  0  0  0  0  0  0
    0.0430   21.9860  -27.9850 C   0  0  0  0  0  0  0  0  0  0  0  0
   -1.0510   21.1600  -27.7330 C   0  0  0  0  0  0  0  0  0  0  0  0
   -2.3470   21.6610  -27.8550 C   0  0  0  0  0  0  0  0  0  0  0  0
   -2.5630   22.9990  -28.2300 C   0  0  0  0  0  0  0  0  0  0  0  0
   -3.9800   23.4920  -28.3930 C   0  0  0  0  0  0  0  0  0  0  0  0
   -4.3370   23.5600  -29.8160 N   0  0  0  0  0  0  0  0  0  0  0  0
   -4.9560   24.7310  -30.3880 C   0  0  0  0  0  0  0  0  0  0  0  0
   -4.2350   25.6550  -30.8560 O   0  0  0  0  0  0  0  0  0  0  0  0
   -6.4470   24.8390  -30.5470 C   0  0  0  0  0  0  0  0  0  0  0  0
   -6.9700   23.7160  -31.4520 C   0  0  0  0  0  0  0  0  0  0  0  0
   -7.8080   22.6830  -30.6710 C   0  0  0  0  0  0  0  0  0  0  0  0
   -8.7800   21.8870  -31.5590 C   0  0  0  0  0  0  0  0  0  0  0  0
   -8.1890   20.5930  -32.0570 C   0  0  0  0  0  0  0  0  0  0  0  0
   -8.6470   19.3610  -31.5570 C   0  0  0  0  0  0  0  0  0  0  0  0
   -8.1010   18.1640  -32.0280 C   0  0  0  0  0  0  0  0  0  0  0  0
   -7.1080   18.1840  -33.0100 C   0  0  0  0  0  0  0  0  0  0  0  0
   -6.6520   19.4040  -33.5180 C   0  0  0  0  0  0  0  0  0  0  0  0
   -7.1870   20.6050  -33.0420 C   0  0  0  0  0  0  0  0  0  0  0  0
   -3.9110   22.4970  -30.6820 C   0  0  0  0  0  0  0  0  0  0  0  0
   -4.6660   21.3180  -30.7920 C   0  0  0  0  0  0  0  0  0  0  0  0
   -4.2490   20.2960  -31.6520 C   0  0  0  0  0  0  0  0  0  0  0  0
   -3.0820   20.4480  -32.4070 C   0  0  0  0  0  0  0  0  0  0  0  0
   -2.3320   21.6230  -32.3060 C   0  0  0  0  0  0  0  0  0  0  0  0
   -2.7460   22.6480  -31.4480 C   0  0  0  0  0  0  0  0  0  0  0  0
   -1.2812   26.1243  -27.0782 H   0  0  0  0  0  0  0  0  0  0  0  0
   -0.1527   26.4916  -28.4267 H   0  0  0  0  0  0  0  0  0  0  0  0
   -1.8088   27.1872  -28.4267 H   0  0  0  0  0  0  0  0  0  0  0  0
    0.7155   23.9609  -28.5623 H   0  0  0  0  0  0  0  0  0  0  0  0
    1.0641   21.5890  -27.8858 H   0  0  0  0  0  0  0  0  0  0  0  0
   -0.8922   20.1123  -27.4377 H   0  0  0  0  0  0  0  0  0  0  0  0
   -3.2068   21.0043  -27.6563 H   0  0  0  0  0  0  0  0  0  0  0  0
   -4.6655   22.8015  -27.8798 H   0  0  0  0  0  0  0  0  0  0  0  0
   -4.0606   24.4983  -27.9560 H   0  0  0  0  0  0  0  0  0  0  0  0
   -6.9237   24.7601  -29.5588 H   0  0  0  0  0  0  0  0  0  0  0  0
   -6.6880   25.8092  -31.0060 H   0  0  0  0  0  0  0  0  0  0  0  0
   -7.5973   24.1586  -32.2398 H   0  0  0  0  0  0  0  0  0  0  0  0
   -6.1014   23.1936  -31.8793 H   0  0  0  0  0  0  0  0  0  0  0  0
   -7.1220   21.9749  -30.1831 H   0  0  0  0  0  0  0  0  0  0  0  0
   -8.4159   23.2413  -29.9439 H   0  0  0  0  0  0  0  0  0  0  0  0
   -9.6835   21.6589  -30.9746 H   0  0  0  0  0  0  0  0  0  0  0  0
   -9.0089   22.5069  -32.4384 H   0  0  0  0  0  0  0  0  0  0  0  0
   -9.4377   19.3395  -30.7926 H   0  0  0  0  0  0  0  0  0  0  0  0
   -8.4541   17.2036  -31.6244 H   0  0  0  0  0  0  0  0  0  0  0  0
   -6.6848   17.2399  -33.3836 H   0  0  0  0  0  0  0  0  0  0  0  0
   -5.8715   19.4192  -34.2930 H   0  0  0  0  0  0  0  0  0  0  0  0
   -6.8219   21.5632  -33.4403 H   0  0  0  0  0  0  0  0  0  0  0  0
   -5.5862   21.1978  -30.2014 H   0  0  0  0  0  0  0  0  0  0  0  0
   -4.8400   19.3719  -31.7342 H   0  0  0  0  0  0  0  0  0  0  0  0
   -2.7541   19.6426  -33.0806 H   0  0  0  0  0  0  0  0  0  0  0  0
   -1.4150   21.7422  -32.9018 H   0  0  0  0  0  0  0  0  0  0  0  0
   -2.1566   23.5738  -31.3742 H   0  0  0  0  0  0  0  0  0  0  0  0
  1  2  1  0
  2  3  1  0
  3  4  2  0
  4  5  1  0
  5  6  2  0
  6  7  1  0
  7  8  2  0
  8  9  1  0
  9 10  1  0
 10 11  1  0
 11 12  2  0
 11 13  1  0
 13 14  1  0
 14 15  1  0
 15 16  1  0
 16 17  1  0
 17 18  2  0
 18 19  1  0
 19 20  2  0
 20 21  1  0
 21 22  2  0
 10 23  1  0
 23 24  2  0
 24 25  1  0
 25 26  2  0
 26 27  1  0
 27 28  2  0
  8  3  1  0
 22 17  1  0
 28 23  1  0
  1 29  1  0
  1 30  1  0
  1 31  1  0
  4 32  1  0
  5 33  1  0
  6 34  1  0
  7 35  1  0
  9 36  1  0
  9 37  1  0
 13 38  1  0
 13 39  1  0
 14 40  1  0
 14 41  1  0
 15 42  1  0
 15 43  1  0
 16 44  1  0
 16 45  1  0
 18 46  1  0
 19 47  1  0
 20 48  1  0
 21 49  1  0
 22 50  1  0
 24 51  1  0
 25 52  1  0
 26 53  1  0
 27 54  1  0
 28 55  1  0
M  END
>  <UniqueID>  (1) 
1

>  <SMILES>  (1) 
COc1ccccc1CN(C(=O)CCCCc1ccccc1)c1ccccc1

>  <Energy>  (1) 
56.936570543793216

>  <Genealogy>  (1) 
COc1ccccc1CN(C(=O)CCCCc1ccccc1)c1ccccc1 (3D coordinates assigned)
COc1ccccc1CN(C(=O)CCCCc1ccccc1)c1ccccc1 (optimized conformer: 56.936570543793216 kcal/mol)

>  <smiles>  (1) 
COc1ccccc1CN(C(=O)CCCCc1ccccc1)c1ccccc1

>  <score_type>  (1) 
oracle

>  <origin>  (1) 
adg

>  <m_score__min__energy>  (1) 
-9.5999999999999996

>  <m_primary>  (1) 
energy

$$$$
1:0
     RDKit          3D

 60 63  0  0  0  0  0  0  0  0999 V2000
    1.7040   20.1110  -32.9870 C   0  0  0  0  0  0  0  0  0  0  0  0
    0.2590   20.4940  -32.8480 C   0  0  0  0  0  0  0  0  0  0  0  0
   -0.2720   20.8060  -31.5860 C   0  0  0  0  0  0  0  0  0  0  0  0
   -1.6230   21.1330  -31.4500 C   0  0  0  0  0  0  0  0  0  0  0  0
   -2.4680   21.1490  -32.5720 C   0  0  0  0  0  0  0  0  0  0  0  0
   -3.9070   21.4840  -32.4230 C   0  0  0  0  0  0  0  0  0  0  0  0
   -4.8800   20.5740  -32.8360 C   0  0  0  0  0  0  0  0  0  0  0  0
   -6.2060   20.8620  -32.7140 N   0  0  0  0  0  0  0  0  0  0  0  0
   -7.1870   19.8790  -33.2100 C   0  0  0  0  0  0  0  0  0  0  0  0
   -6.5620   18.5040  -33.2890 C   0  0  0  0  0  0  0  0  0  0  0  0
   -6.0270   18.0320  -34.5030 C   0  0  0  0  0  0  0  0  0  0  0  0
   -6.1080   18.7740  -35.6350 F   0  0  0  0  0  0  0  0  0  0  0  0
   -5.4120   16.7770  -34.5620 C   0  0  0  0  0  0  0  0  0  0  0  0
   -5.3240   15.9830  -33.4170 C   0  0  0  0  0  0  0  0  0  0  0  0
   -5.8520   16.4410  -32.2080 C   0  0  0  0  0  0  0  0  0  0  0  0
   -6.4670   17.6940  -32.1380 C   0  0  0  0  0  0  0  0  0  0  0  0
   -6.9770   18.1090  -30.9510 F   0  0  0  0  0  0  0  0  0  0  0  0
   -6.6010   22.0630  -32.1840 C   0  0  0  0  0  0  0  0  0  0  0  0
   -7.8310   22.3010  -32.0280 O   0  0  0  0  0  0  0  0  0  0  0  0
   -5.6710   23.0050  -31.8110 N   0  0  0  0  0  0  0  0  0  0  0  0
   -6.1110   24.3350  -31.3240 C   0  0  0  0  0  0  0  0  0  0  0  0
   -6.0950   24.4480  -29.7730 C   0  0  2  0  0  0  0  0  0  0  0  0
   -6.8690   25.6920  -29.2940 C   0  0  0  0  0  0  0  0  0  0  0  0
   -4.7070   24.4190  -29.2500 N   0  0  0  0  0  0  0  0  0  0  0  0
   -4.4510   23.3790  -28.2340 C   0  0  0  0  0  0  0  0  0  0  0  0
   -3.4930   22.2860  -28.7460 C   0  0  0  0  0  0  0  0  0  0  0  0
   -3.0640   21.2620  -27.7040 C   0  0  0  0  0  0  0  0  0  0  0  0
   -2.0840   22.3270  -28.1730 C   0  0  0  0  0  0  0  0  0  0  0  0
   -4.3330   22.7070  -31.8860 C   0  0  0  0  0  0  0  0  0  0  0  0
   -3.4730   23.5220  -31.4520 O   0  0  0  0  0  0  0  0  0  0  0  0
   -1.9410   20.8130  -33.8310 C   0  0  0  0  0  0  0  0  0  0  0  0
   -0.5880   20.4850  -33.9680 C   0  0  0  0  0  0  0  0  0  0  0  0
   -0.1080   20.1520  -35.1930 F   0  0  0  0  0  0  0  0  0  0  0  0
    2.1497   19.9929  -31.9883 H   0  0  0  0  0  0  0  0  0  0  0  0
    1.7804   19.1616  -33.5373 H   0  0  0  0  0  0  0  0  0  0  0  0
    2.2406   20.8979  -33.5373 H   0  0  0  0  0  0  0  0  0  0  0  0
    0.3796   20.7928  -30.6998 H   0  0  0  0  0  0  0  0  0  0  0  0
   -2.0281   21.3797  -30.4575 H   0  0  0  0  0  0  0  0  0  0  0  0
   -4.5722   19.6097  -33.2665 H   0  0  0  0  0  0  0  0  0  0  0  0
   -8.0468   19.8475  -32.5246 H   0  0  0  0  0  0  0  0  0  0  0  0
   -7.5161   20.1796  -34.2157 H   0  0  0  0  0  0  0  0  0  0  0  0
   -4.9963   16.4145  -35.5137 H   0  0  0  0  0  0  0  0  0  0  0  0
   -4.8389   14.9970  -33.4672 H   0  0  0  0  0  0  0  0  0  0  0  0
   -5.7836   15.8131  -31.3074 H   0  0  0  0  0  0  0  0  0  0  0  0
   -5.4386   25.1005  -31.7385 H   0  0  0  0  0  0  0  0  0  0  0  0
   -7.1501   24.4800  -31.6545 H   0  0  0  0  0  0  0  0  0  0  0  0
   -6.6149   23.5698  -29.3626 H   0  0  0  0  0  0  0  0  0  0  0  0
   -6.8829   25.7143  -28.1943 H   0  0  0  0  0  0  0  0  0  0  0  0
   -6.3757   26.5992  -29.6729 H   0  0  0  0  0  0  0  0  0  0  0  0
   -7.9008   25.6503  -29.6729 H   0  0  0  0  0  0  0  0  0  0  0  0
   -4.4780   25.3470  -28.8230 H   0  0  0  0  0  0  0  0  0  0  0  0
   -4.0410   24.2570  -30.0400 H   0  0  0  0  0  0  0  0  0  0  0  0
   -4.0055   23.8529  -27.3469 H   0  0  0  0  0  0  0  0  0  0  0  0
   -5.4113   22.8996  -27.9931 H   0  0  0  0  0  0  0  0  0  0  0  0
   -3.9191   22.2397  -29.7590 H   0  0  0  0  0  0  0  0  0  0  0  0
   -3.4787   21.3061  -26.6861 H   0  0  0  0  0  0  0  0  0  0  0  0
   -3.0526   20.1633  -27.6517 H   0  0  0  0  0  0  0  0  0  0  0  0
   -1.7900   23.1410  -27.4940 H   0  0  0  0  0  0  0  0  0  0  0  0
   -1.0703   22.3169  -28.6001 H   0  0  0  0  0  0  0  0  0  0  0  0
   -2.5967   20.8079  -34.7142 H   0  0  0  0  0  0  0  0  0  0  0  0
  1  2  1  0
  2  3  2  0
  3  4  1  0
  4  5  2  0
  5  6  1  0
  6  7  2  0
  7  8  1  0
  8  9  1  0
  9 10  1  0
 10 11  2  0
 11 12  1  0
 11 13  1  0
 13 14  2  0
 14 15  1  0
 15 16  2  0
 16 17  1  0
  8 18  1  0
 18 19  2  0
 18 20  1  0
 20 21  1  0
 21 22  1  0
 22 23  1  0
 22 24  1  0
 24 25  1  0
 25 26  1  0
 26 27  1  0
 27 28  1  0
 20 29  1  0
 29 30  2  0
  5 31  1  0
 31 32  2  0
 32 33  1  0
 32  2  1  0
 29  6  1  0
 16 10  1  0
 28 26  1  0
  1 34  1  0
  1 35  1  0
  1 36  1  0
  3 37  1  0
  4 38  1  0
  7 39  1  0
  9 40  1  0
  9 41  1  0
 13 42  1  0
 14 43  1  0
 15 44  1  0
 21 45  1  0
 21 46  1  0
 22 47  1  1
 23 48  1  0
 23 49  1  0
 23 50  1  0
 24 51  1  0
 24 52  1  0
 25 53  1  0
 25 54  1  0
 26 55  1  0
 27 56  1  0
 27 57  1  0
 28 58  1  0
 28 59  1  0
 31 60  1  0
M  CHG  1  24   1
M  END
>  <UniqueID>  (2) 
2

>  <SMILES>  (2) 
Cc1ccc(-c2cn(Cc3c(F)cccc3F)c(=O)n(C[C@H](C)[NH2+]CC3CC3)c2=O)cc1F

>  <Energy>  (2) 
339.6578219665416

>  <Genealogy>  (2) 
Cc1ccc(-c2cn(Cc3c(F)cccc3F)c(=O)n(CC(C)[NH2+]CC3CC3)c2=O)cc1F (protonated)
Cc1ccc(-c2cn(Cc3c(F)cccc3F)c(=O)n(C[C@H](C)[NH2+]CC3CC3)c2=O)cc1F (chirality)
Cc1ccc(-c2cn(Cc3c(F)cccc3F)c(=O)n(C[C@H](C)[NH2+]CC3CC3)c2=O)cc1F (3D coordinates assigned)
Cc1ccc(-c2cn(Cc3c(F)cccc3F)c(=O)n(C[C@H](C)[NH2+]CC3CC3)c2=O)cc1F (nonaromatic ring conformer: 339.6578219665416 kcal/mol)

>  <smiles>  (2) 
Cc1ccc(-c2cn(Cc3c(F)cccc3F)c(=O)n(CC(C)NCC3CC3)c2=O)cc1F

>  <score_type>  (2) 
oracle

>  <origin>  (2) 
adg

>  <m_score__min__energy>  (2) 
-8.4700000000000006

>  <m_primary>  (2) 
energy

$$$$
2:0
     RDKit          3D

 56 58  0  0  0  0  0  0  0  0999 V2000
    0.2610   17.7210  -28.3320 C   0  0  0  0  0  0  0  0  0  0  0  0
   -0.8590   18.5700  -28.1230 O   0  0  0  0  0  0  0  0  0  0  0  0
   -0.7990   19.9730  -28.0920 C   0  0  0  0  0  0  0  0  0  0  0  0
   -0.1990   20.7170  -29.1260 C   0  0  0  0  0  0  0  0  0  0  0  0
   -0.1550   22.1110  -29.0600 C   0  0  0  0  0  0  0  0  0  0  0  0
   -0.7110   22.7880  -27.9640 C   0  0  0  0  0  0  0  0  0  0  0  0
   -0.6090   24.2890  -27.8670 C   0  0  0  0  0  0  0  0  0  0  0  0
   -1.9910   24.9460  -27.9450 C   0  0  0  0  0  0  0  0  0  0  0  0
   -2.3600   25.2170  -29.3300 N   0  0  0  0  0  0  0  0  0  0  0  0
   -3.4680   24.6090  -29.9960 C   0  0  0  0  0  0  0  0  0  0  0  0
   -4.1350   25.2620  -30.8450 O   0  0  0  0  0  0  0  0  0  0  0  0
   -3.8900   23.2090  -29.6360 C   0  0  0  0  0  0  0  0  0  0  0  0
   -3.3480   22.1660  -30.5350 N   0  0  0  0  0  0  0  0  0  0  0  0
   -3.7160   20.7650  -30.2060 C   0  0  0  0  0  0  0  0  0  0  0  0
   -4.4070   20.0390  -31.3700 C   0  0  0  0  0  0  0  0  0  0  0  0
   -5.2500   20.9860  -32.1060 N   0  0  0  0  0  0  0  0  0  0  0  0
   -6.6850   20.8390  -32.1700 C   0  0  0  0  0  0  0  0  0  0  0  0
   -7.2700   19.6010  -32.4960 C   0  0  0  0  0  0  0  0  0  0  0  0
   -8.6620   19.4530  -32.5120 C   0  0  0  0  0  0  0  0  0  0  0  0
   -9.4840   20.5350  -32.1960 C   0  0  0  0  0  0  0  0  0  0  0  0
   -8.9170   21.7680  -31.8640 C   0  0  0  0  0  0  0  0  0  0  0  0
   -7.5260   21.9210  -31.8500 C   0  0  0  0  0  0  0  0  0  0  0  0
   -4.5880   22.1420  -32.7220 C   0  0  0  0  0  0  0  0  0  0  0  0
   -3.2950   22.5110  -31.9740 C   0  0  0  0  0  0  0  0  0  0  0  0
   -1.3040   22.0490  -26.9280 C   0  0  0  0  0  0  0  0  0  0  0  0
   -1.3570   20.6430  -26.9910 C   0  0  0  0  0  0  0  0  0  0  0  0
   -1.9510   19.8760  -25.9770 O   0  0  0  0  0  0  0  0  0  0  0  0
   -3.0060   18.9430  -26.1820 C   0  0  0  0  0  0  0  0  0  0  0  0
    0.6716   17.4098  -27.3601 H   0  0  0  0  0  0  0  0  0  0  0  0
   -0.0533   16.8322  -28.8988 H   0  0  0  0  0  0  0  0  0  0  0  0
    1.0318   18.2637  -28.8988 H   0  0  0  0  0  0  0  0  0  0  0  0
    0.2378   20.1967  -29.9912 H   0  0  0  0  0  0  0  0  0  0  0  0
    0.3185   22.6820  -29.8723 H   0  0  0  0  0  0  0  0  0  0  0  0
   -0.1390   24.5552  -26.9088 H   0  0  0  0  0  0  0  0  0  0  0  0
   -0.0036   24.6516  -28.7108 H   0  0  0  0  0  0  0  0  0  0  0  0
   -2.7365   24.2712  -27.4989 H   0  0  0  0  0  0  0  0  0  0  0  0
   -1.9591   25.8989  -27.3964 H   0  0  0  0  0  0  0  0  0  0  0  0
   -3.5460   22.9965  -28.6130 H   0  0  0  0  0  0  0  0  0  0  0  0
   -4.9853   23.1728  -29.7312 H   0  0  0  0  0  0  0  0  0  0  0  0
   -2.8008   20.2144  -29.9428 H   0  0  0  0  0  0  0  0  0  0  0  0
   -4.4286   20.7990  -29.3688 H   0  0  0  0  0  0  0  0  0  0  0  0
   -3.6456   19.6235  -32.0465 H   0  0  0  0  0  0  0  0  0  0  0  0
   -5.0308   19.2238  -30.9747 H   0  0  0  0  0  0  0  0  0  0  0  0
   -6.6277   18.7421  -32.7404 H   0  0  0  0  0  0  0  0  0  0  0  0
   -9.1082   18.4823  -32.7741 H   0  0  0  0  0  0  0  0  0  0  0  0
  -10.5776   20.4175  -32.2082 H   0  0  0  0  0  0  0  0  0  0  0  0
   -9.5654   22.6204  -31.6131 H   0  0  0  0  0  0  0  0  0  0  0  0
   -7.0866   22.8945  -31.5868 H   0  0  0  0  0  0  0  0  0  0  0  0
   -4.3409   21.8989  -33.7660 H   0  0  0  0  0  0  0  0  0  0  0  0
   -5.2737   23.0008  -32.6737 H   0  0  0  0  0  0  0  0  0  0  0  0
   -2.4554   21.9699  -32.4348 H   0  0  0  0  0  0  0  0  0  0  0  0
   -3.1675   23.6010  -32.0495 H   0  0  0  0  0  0  0  0  0  0  0  0
   -1.7308   22.5725  -26.0598 H   0  0  0  0  0  0  0  0  0  0  0  0
   -3.3897   18.6037  -25.2085 H   0  0  0  0  0  0  0  0  0  0  0  0
   -3.8168   19.4249  -26.7480 H   0  0  0  0  0  0  0  0  0  0  0  0
   -2.6269   18.0793  -26.7480 H   0  0  0  0  0  0  0  0  0  0  0  0
  1  2  1  0
  2  3  1  0
  3  4  2  0
  4  5  1  0
  5  6  2  0
  6  7  1  0
  7  8  1  0
  8  9  1  0
  9 10  1  0
 10 11  2  0
 10 12  1  0
 12 13  1  0
 13 14  1  0
 14 15  1  0
 15 16  1  0
 16 17  1  0
 17 18  2  0
 18 19  1  0
 19 20  2  0
 20 21  1  0
 21 22  2  0
 16 23  1  0
 23 24  1  0
  6 25  1  0
 25 26  2  0
 26 27  1  0
 27 28  1  0
 26  3  1  0
 24 13  1  0
 22 17  1  0
  1 29  1  0
  1 30  1  0
  1 31  1  0
  4 32  1  0
  5 33  1  0
  7 34  1  0
  7 35  1  0
  8 36  1  0
  8 37  1  0
 12 38  1  0
 12 39  1  0
 14 40  1  0
 14 41  1  0
 15 42  1  0
 15 43  1  0
 18 44  1  0
 19 45  1  0
 20 46  1  0
 21 47  1  0
 22 48  1  0
 23 49  1  0
 23 50  1  0
 24 51  1  0
 24 52  1  0
 25 53  1  0
 28 54  1  0
 28 55  1  0
 28 56  1  0
M  CHG  1   9  -1
M  END
>  <UniqueID>  (3) 
3

>  <SMILES>  (3) 
COc1ccc(CC[N-]C(=O)CN2CCN(c3ccccc3)CC2)cc1OC

>  <Energy>  (3) 
65.94420323043715

>  <Genealogy>  (3) 
COc1ccc(CC[N-]C(=O)CN2CCN(c3ccccc3)CC2)cc1OC (protonated)
COc1ccc(CC[N-]C(=O)CN2CCN(c3ccccc3)CC2)cc1OC (3D coordinates assigned)
COc1ccc(CC[N-]C(=O)CN2CCN(c3ccccc3)CC2)cc1OC (nonaromatic ring conformer: 65.94420323043715 kcal/mol)

>  <smiles>  (3) 
COc1ccc(CCNC(=O)CN2CCN(c3ccccc3)CC2)cc1OC

>  <score_type>  (3) 
oracle

>  <origin>  (3) 
adg

>  <m_score__min__energy>  (3) 
-9.5199999999999996

>  <m_primary>  (3) 
energy

$$$$
3:0
     RDKit          3D

 44 46  0  0  0  0  0  0  0  0999 V2000
   -1.9920   25.1390  -27.4840 C   0  0  0  0  0  0  0  0  0  0  0  0
   -2.3820   25.2550  -28.8480 O   0  0  0  0  0  0  0  0  0  0  0  0
   -2.5590   24.1680  -29.7160 C   0  0  0  0  0  0  0  0  0  0  0  0
   -1.5660   23.1910  -29.9150 C   0  0  0  0  0  0  0  0  0  0  0  0
   -1.7910   22.1260  -30.7920 C   0  0  0  0  0  0  0  0  0  0  0  0
   -3.0100   22.0130  -31.4800 C   0  0  0  0  0  0  0  0  0  0  0  0
   -3.2340   20.9180  -32.3890 N   0  0  0  0  0  0  0  0  0  0  0  0
   -4.2510   20.0320  -32.3290 C   0  0  0  0  0  0  0  0  0  0  0  0
   -4.1350   19.1130  -33.3580 C   0  0  0  0  0  0  0  0  0  0  0  0
   -5.0970   17.9970  -33.6660 C   0  0  1  0  0  0  0  0  0  0  0  0
   -5.1860   17.1060  -32.5850 O   0  0  0  0  0  0  0  0  0  0  0  0
   -6.4250   18.5290  -33.9940 N   0  0  0  0  0  0  0  0  0  0  0  0
   -7.2830   19.2560  -33.0890 C   0  0  0  0  0  0  0  0  0  0  0  0
   -8.2370   18.5490  -32.3420 C   0  0  0  0  0  0  0  0  0  0  0  0
   -9.0840   19.2170  -31.4550 C   0  0  0  0  0  0  0  0  0  0  0  0
   -8.9950   20.6020  -31.3100 C   0  0  0  0  0  0  0  0  0  0  0  0
   -8.0670   21.3380  -32.0640 C   0  0  0  0  0  0  0  0  0  0  0  0
   -7.9380   22.8290  -31.8800 C   0  0  0  0  0  0  0  0  0  0  0  0
   -9.1310   23.4600  -32.1890 F   0  0  0  0  0  0  0  0  0  0  0  0
   -6.9460   23.3070  -32.7170 F   0  0  0  0  0  0  0  0  0  0  0  0
   -7.6110   23.1400  -30.5720 F   0  0  0  0  0  0  0  0  0  0  0  0
   -7.1960   20.6550  -32.9320 C   0  0  0  0  0  0  0  0  0  0  0  0
   -3.0220   19.4710  -34.1000 C   0  0  0  0  0  0  0  0  0  0  0  0
   -2.4960   20.5800  -33.4690 C   0  0  0  0  0  0  0  0  0  0  0  0
   -1.3760   21.2840  -33.9010 O   0  0  0  0  0  0  0  0  0  0  0  0
   -3.9950   22.9950  -31.2850 C   0  0  0  0  0  0  0  0  0  0  0  0
   -3.7700   24.0600  -30.4080 C   0  0  0  0  0  0  0  0  0  0  0  0
   -2.8441   25.3924  -26.8362 H   0  0  0  0  0  0  0  0  0  0  0  0
   -1.6713   24.1066  -27.2809 H   0  0  0  0  0  0  0  0  0  0  0  0
   -1.1592   25.8283  -27.2809 H   0  0  0  0  0  0  0  0  0  0  0  0
   -0.6088   23.2657  -29.3782 H   0  0  0  0  0  0  0  0  0  0  0  0
   -1.0066   21.3701  -30.9445 H   0  0  0  0  0  0  0  0  0  0  0  0
   -5.0521   20.0392  -31.5752 H   0  0  0  0  0  0  0  0  0  0  0  0
   -4.7139   17.4509  -34.5406 H   0  0  0  0  0  0  0  0  0  0  0  0
   -4.2540   16.8650  -32.3430 H   0  0  0  0  0  0  0  0  0  0  0  0
   -6.7590   18.3800  -34.9740 H   0  0  0  0  0  0  0  0  0  0  0  0
   -8.3187   17.4580  -32.4560 H   0  0  0  0  0  0  0  0  0  0  0  0
   -9.8228   18.6502  -30.8695 H   0  0  0  0  0  0  0  0  0  0  0  0
   -9.6563   21.1206  -30.6003 H   0  0  0  0  0  0  0  0  0  0  0  0
   -6.4378   21.2188  -33.4952 H   0  0  0  0  0  0  0  0  0  0  0  0
   -2.6375   18.9751  -35.0035 H   0  0  0  0  0  0  0  0  0  0  0  0
   -1.4270   21.9040  -34.7010 H   0  0  0  0  0  0  0  0  0  0  0  0
   -4.9502   22.9256  -31.8262 H   0  0  0  0  0  0  0  0  0  0  0  0
   -4.5518   24.8196  -30.2607 H   0  0  0  0  0  0  0  0  0  0  0  0
  1  2  1  0
  2  3  1  0
  3  4  2  0
  4  5  1  0
  5  6  2  0
  6  7  1  0
  7  8  1  0
  8  9  2  0
  9 10  1  0
 10 11  1  0
 10 12  1  0
 12 13  1  0
 13 14  2  0
 14 15  1  0
 15 16  2  0
 16 17  1  0
 17 18  1  0
 18 19  1  0
 18 20  1  0
 18 21  1  0
 17 22  2  0
  9 23  1  0
 23 24  2  0
 24 25  1  0
  6 26  1  0
 26 27  2  0
 27  3  1  0
 24  7  1  0
 22 13  1  0
  1 28  1  0
  1 29  1  0
  1 30  1  0
  4 31  1  0
  5 32  1  0
  8 33  1  0
 10 34  1  6
 11 35  1  0
 12 36  1  0
 14 37  1  0
 15 38  1  0
 16 39  1  0
 22 40  1  0
 23 41  1  0
 25 42  1  0
 26 43  1  0
 27 44  1  0
M  END
>  <UniqueID>  (4) 
4

>  <SMILES>  (4) 
COc1ccc(-n2cc([C@@H](O)Nc3cccc(C(F)(F)F)c3)cc2O)cc1

>  <Energy>  (4) 
76.96240908812345

>  <Genealogy>  (4) 
COc1ccc(-n2cc([C@@H](O)Nc3cccc(C(F)(F)F)c3)cc2O)cc1 (chirality)
COc1ccc(-n2cc([C@@H](O)Nc3cccc(C(F)(F)F)c3)cc2O)cc1 (3D coordinates assigned)
COc1ccc(-n2cc([C@@H](O)Nc3cccc(C(F)(F)F)c3)cc2O)cc1 (optimized conformer: 76.96240908812345 kcal/mol)

>  <smiles>  (4) 
COc1ccc(-n2cc(C(O)Nc3cccc(C(F)(F)F)c3)cc2O)cc1

>  <score_type>  (4) 
oracle

>  <origin>  (4) 
adg

>  <m_score__min__energy>  (4) 
-8.3499999999999996

>  <m_primary>  (4) 
energy

$$$$
4:0
     RDKit          3D

 52 54  0  0  0  0  0  0  0  0999 V2000
    0.7920   21.6300  -35.3220 C   0  0  0  0  0  0  0  0  0  0  0  0
    0.9840   20.1880  -34.8630 C   0  0  0  0  0  0  0  0  0  0  0  0
    0.3810   19.9770  -33.5870 O   0  0  0  0  0  0  0  0  0  0  0  0
   -0.7750   20.6200  -33.1140 C   0  0  0  0  0  0  0  0  0  0  0  0
   -0.7130   21.2540  -31.8680 C   0  0  0  0  0  0  0  0  0  0  0  0
   -1.8300   21.9180  -31.3500 C   0  0  0  0  0  0  0  0  0  0  0  0
   -3.0310   21.9560  -32.0730 C   0  0  0  0  0  0  0  0  0  0  0  0
   -4.2000   22.6790  -31.5380 C   0  0  0  0  0  0  0  0  0  0  0  0
   -5.4140   22.1130  -31.3620 N   0  0  0  0  0  0  0  0  0  0  0  0
   -6.1650   23.1230  -30.8870 C   0  0  0  0  0  0  0  0  0  0  0  0
   -7.6180   22.9850  -30.5320 C   0  0  0  0  0  0  0  0  0  0  0  0
   -8.3990   22.3910  -31.6340 N   0  0  0  0  0  0  0  0  0  0  0  0
   -9.1930   23.4150  -32.3330 C   0  0  0  0  0  0  0  0  0  0  0  0
   -9.2040   21.2000  -31.2610 C   0  0  0  0  0  0  0  0  0  0  0  0
   -9.2710   20.0800  -32.3300 C   0  0  0  0  0  0  0  0  0  0  0  0
   -7.9380   19.4130  -32.5760 C   0  0  0  0  0  0  0  0  0  0  0  0
   -7.0080   19.9900  -33.4610 C   0  0  0  0  0  0  0  0  0  0  0  0
   -5.7850   19.3590  -33.7120 C   0  0  0  0  0  0  0  0  0  0  0  0
   -5.4880   18.1400  -33.1010 C   0  0  0  0  0  0  0  0  0  0  0  0
   -6.4120   17.5490  -32.2330 C   0  0  0  0  0  0  0  0  0  0  0  0
   -7.6340   18.1780  -31.9760 C   0  0  0  0  0  0  0  0  0  0  0  0
   -5.3780   24.2510  -30.7670 C   0  0  0  0  0  0  0  0  0  0  0  0
   -5.7900   25.6020  -30.2830 C   0  0  0  0  0  0  0  0  0  0  0  0
   -4.1770   23.9480  -31.1870 O   0  0  0  0  0  0  0  0  0  0  0  0
   -3.1000   21.3060  -33.3170 C   0  0  0  0  0  0  0  0  0  0  0  0
   -1.9840   20.6440  -33.8350 C   0  0  0  0  0  0  0  0  0  0  0  0
    0.7047   22.2859  -34.4433 H   0  0  0  0  0  0  0  0  0  0  0  0
    1.6567   21.9405  -35.9268 H   0  0  0  0  0  0  0  0  0  0  0  0
   -0.1238   21.7034  -35.9268 H   0  0  0  0  0  0  0  0  0  0  0  0
    0.5213   19.5115  -35.5967 H   0  0  0  0  0  0  0  0  0  0  0  0
    2.0620   19.9850  -34.7810 H   0  0  0  0  0  0  0  0  0  0  0  0
    0.2229   21.2300  -31.2905 H   0  0  0  0  0  0  0  0  0  0  0  0
   -1.7659   22.4132  -30.3699 H   0  0  0  0  0  0  0  0  0  0  0  0
   -7.7078   22.3409  -29.6448 H   0  0  0  0  0  0  0  0  0  0  0  0
   -8.0178   23.9904  -30.3338 H   0  0  0  0  0  0  0  0  0  0  0  0
   -9.6925   24.0591  -31.5943 H   0  0  0  0  0  0  0  0  0  0  0  0
   -8.5301   24.0258  -32.9635 H   0  0  0  0  0  0  0  0  0  0  0  0
   -9.9497   22.9251  -32.9635 H   0  0  0  0  0  0  0  0  0  0  0  0
   -8.7698   20.7702  -30.3463 H   0  0  0  0  0  0  0  0  0  0  0  0
  -10.2358   21.5597  -31.1347 H   0  0  0  0  0  0  0  0  0  0  0  0
   -9.9872   19.3164  -31.9922 H   0  0  0  0  0  0  0  0  0  0  0  0
   -9.5822   20.5481  -33.2755 H   0  0  0  0  0  0  0  0  0  0  0  0
   -7.2442   20.9424  -33.9581 H   0  0  0  0  0  0  0  0  0  0  0  0
   -5.0563   19.8244  -34.3920 H   0  0  0  0  0  0  0  0  0  0  0  0
   -4.5271   17.6438  -33.3020 H   0  0  0  0  0  0  0  0  0  0  0  0
   -6.1770   16.5881  -31.7519 H   0  0  0  0  0  0  0  0  0  0  0  0
   -8.3617   17.7042  -31.3007 H   0  0  0  0  0  0  0  0  0  0  0  0
   -5.7931   25.6122  -29.1831 H   0  0  0  0  0  0  0  0  0  0  0  0
   -5.0811   26.3566  -30.6547 H   0  0  0  0  0  0  0  0  0  0  0  0
   -6.7993   25.8326  -30.6547 H   0  0  0  0  0  0  0  0  0  0  0  0
   -4.0404   21.3185  -33.8876 H   0  0  0  0  0  0  0  0  0  0  0  0
   -2.0502   20.1394  -34.8102 H   0  0  0  0  0  0  0  0  0  0  0  0
  1  2  1  0
  2  3  1  0
  3  4  1  0
  4  5  2  0
  5  6  1  0
  6  7  2  0
  7  8  1  0
  8  9  2  0
  9 10  1  0
 10 11  1  0
 11 12  1  0
 12 13  1  0
 12 14  1  0
 14 15  1  0
 15 16  1  0
 16 17  2  0
 17 18  1  0
 18 19  2  0
 19 20  1  0
 20 21  2  0
 10 22  2  0
 22 23  1  0
 22 24  1  0
  7 25  1  0
 25 26  2  0
 26  4  1  0
 24  8  1  0
 21 16  1  0
  1 27  1  0
  1 28  1  0
  1 29  1  0
  2 30  1  0
  2 31  1  0
  5 32  1  0
  6 33  1  0
 11 34  1  0
 11 35  1  0
 13 36  1  0
 13 37  1  0
 13 38  1  0
 14 39  1  0
 14 40  1  0
 15 41  1  0
 15 42  1  0
 17 43  1  0
 18 44  1  0
 19 45  1  0
 20 46  1  0
 21 47  1  0
 23 48  1  0
 23 49  1  0
 23 50  1  0
 25 51  1  0
 26 52  1  0
M  END
>  <UniqueID>  (5) 
5

>  <SMILES>  (5) 
CCOc1ccc(-c2nc(CN(C)CCc3ccccc3)c(C)o2)cc1

>  <Energy>  (5) 
80.68687877103262

>  <Genealogy>  (5) 
CCOc1ccc(-c2nc(CN(C)CCc3ccccc3)c(C)o2)cc1 (3D coordinates assigned)
CCOc1ccc(-c2nc(CN(C)CCc3ccccc3)c(C)o2)cc1 (optimized conformer: 80.68687877103262 kcal/mol)

>  <smiles>  (5) 
CCOc1ccc(-c2nc(CN(C)CCc3ccccc3)c(C)o2)cc1

>  <score_type>  (5) 
oracle

>  <origin>  (5) 
adg

>  <m_score__min__energy>  (5) 
-8.2899999999999991

>  <m_primary>  (5) 
energy

$$$$
5:0
     RDKit          3D

 74 77  0  0  0  0  0  0  0  0999 V2000
   -0.9110   21.1580  -29.7590 C   0  0  0  0  0  0  0  0  0  0  0  0
   -0.7700   20.1950  -28.5810 C   0  0  0  0  0  0  0  0  0  0  0  0
   -1.9480   20.2940  -27.6870 N   0  0  0  0  0  0  0  0  0  0  0  0
   -1.9860   19.1590  -26.7350 C   0  0  0  0  0  0  0  0  0  0  0  0
   -3.4190   18.9030  -26.2760 C   0  0  0  0  0  0  0  0  0  0  0  0
   -1.9680   21.5930  -26.9750 C   0  0  0  0  0  0  0  0  0  0  0  0
   -0.5580   21.9540  -26.4870 C   0  0  0  0  0  0  0  0  0  0  0  0
   -0.5590   22.2820  -24.9900 C   0  0  0  0  0  0  0  0  0  0  0  0
    0.6300   23.0710  -24.6380 N   0  0  0  0  0  0  0  0  0  0  0  0
    0.8630   24.1480  -25.6100 C   0  0  0  0  0  0  0  0  0  0  0  0
    0.3520   25.4760  -25.0870 C   0  0  0  0  0  0  0  0  0  0  0  0
    1.1230   26.1510  -24.1240 C   0  0  0  0  0  0  0  0  0  0  0  0
    0.7390   27.4090  -23.6550 C   0  0  0  0  0  0  0  0  0  0  0  0
   -0.4150   28.0160  -24.1490 C   0  0  0  0  0  0  0  0  0  0  0  0
   -1.1910   27.3670  -25.1110 C   0  0  0  0  0  0  0  0  0  0  0  0
   -0.8260   26.0960  -25.5850 C   0  0  0  0  0  0  0  0  0  0  0  0
   -1.6750   25.4620  -26.6150 C   0  0  0  0  0  0  0  0  0  0  0  0
   -2.9690   25.0330  -26.2920 C   0  0  0  0  0  0  0  0  0  0  0  0
   -3.7950   24.4810  -27.2760 C   0  0  0  0  0  0  0  0  0  0  0  0
   -3.3330   24.3380  -28.5970 C   0  0  0  0  0  0  0  0  0  0  0  0
   -4.2330   23.8120  -29.6550 C   0  0  0  0  0  0  0  0  0  0  0  0
   -5.2990   24.5930  -30.1340 C   0  0  0  0  0  0  0  0  0  0  0  0
   -6.1740   24.0850  -31.0980 C   0  0  0  0  0  0  0  0  0  0  0  0
   -5.9970   22.7830  -31.6020 C   0  0  0  0  0  0  0  0  0  0  0  0
   -6.8620   22.2160  -32.5520 O   0  0  0  0  0  0  0  0  0  0  0  0
   -7.8290   21.2000  -32.2840 C   0  0  0  0  0  0  0  0  0  0  0  0
   -7.3140   19.8450  -32.6930 C   0  0  0  0  0  0  0  0  0  0  0  0
   -7.7260   18.6940  -31.9990 C   0  0  0  0  0  0  0  0  0  0  0  0
   -7.2380   17.4360  -32.3680 C   0  0  0  0  0  0  0  0  0  0  0  0
   -6.3270   17.3190  -33.4220 C   0  0  0  0  0  0  0  0  0  0  0  0
   -5.9010   18.4600  -34.1070 C   0  0  0  0  0  0  0  0  0  0  0  0
   -6.3890   19.7200  -33.7430 C   0  0  0  0  0  0  0  0  0  0  0  0
   -4.9240   22.0140  -31.1410 C   0  0  0  0  0  0  0  0  0  0  0  0
   -4.0510   22.5180  -30.1750 C   0  0  0  0  0  0  0  0  0  0  0  0
   -2.0180   24.7290  -28.9050 C   0  0  0  0  0  0  0  0  0  0  0  0
   -1.1930   25.2790  -27.9190 C   0  0  0  0  0  0  0  0  0  0  0  0
   -1.0607   22.1802  -29.3811 H   0  0  0  0  0  0  0  0  0  0  0  0
    0.0017   21.1237  -30.3720 H   0  0  0  0  0  0  0  0  0  0  0  0
   -1.7756   20.8634  -30.3720 H   0  0  0  0  0  0  0  0  0  0  0  0
   -0.6898   19.1662  -28.9619 H   0  0  0  0  0  0  0  0  0  0  0  0
    0.1329   20.4593  -28.0110 H   0  0  0  0  0  0  0  0  0  0  0  0
   -1.5963   18.2570  -27.2295 H   0  0  0  0  0  0  0  0  0  0  0  0
   -1.3673   19.4045  -25.8592 H   0  0  0  0  0  0  0  0  0  0  0  0
   -3.4562   18.8963  -25.1766 H   0  0  0  0  0  0  0  0  0  0  0  0
   -4.0747   19.6982  -26.6603 H   0  0  0  0  0  0  0  0  0  0  0  0
   -3.7588   17.9299  -26.6603 H   0  0  0  0  0  0  0  0  0  0  0  0
   -2.3271   22.3763  -27.6588 H   0  0  0  0  0  0  0  0  0  0  0  0
   -2.6385   21.5151  -26.1065 H   0  0  0  0  0  0  0  0  0  0  0  0
    0.1137   21.1018  -26.6675 H   0  0  0  0  0  0  0  0  0  0  0  0
   -0.2140   22.8413  -27.0387 H   0  0  0  0  0  0  0  0  0  0  0  0
   -1.4627   22.8597  -24.7461 H   0  0  0  0  0  0  0  0  0  0  0  0
   -0.5458   21.3421  -24.4186 H   0  0  0  0  0  0  0  0  0  0  0  0
    0.4480   23.5300  -23.7140 H   0  0  0  0  0  0  0  0  0  0  0  0
    1.9428   24.2297  -25.8035 H   0  0  0  0  0  0  0  0  0  0  0  0
    0.3211   23.9057  -26.5361 H   0  0  0  0  0  0  0  0  0  0  0  0
    2.0393   25.6826  -23.7356 H   0  0  0  0  0  0  0  0  0  0  0  0
    1.3474   27.9215  -22.8952 H   0  0  0  0  0  0  0  0  0  0  0  0
   -0.7145   29.0081  -23.7800 H   0  0  0  0  0  0  0  0  0  0  0  0
   -2.0962   27.8551  -25.5013 H   0  0  0  0  0  0  0  0  0  0  0  0
   -3.3368   25.1308  -25.2599 H   0  0  0  0  0  0  0  0  0  0  0  0
   -4.8131   24.1563  -27.0153 H   0  0  0  0  0  0  0  0  0  0  0  0
   -5.4457   25.6122  -29.7470 H   0  0  0  0  0  0  0  0  0  0  0  0
   -7.0049   24.7057  -31.4645 H   0  0  0  0  0  0  0  0  0  0  0  0
   -8.0518   21.1903  -31.2068 H   0  0  0  0  0  0  0  0  0  0  0  0
   -8.7382   21.4193  -32.8630 H   0  0  0  0  0  0  0  0  0  0  0  0
   -8.4349   18.7829  -31.1626 H   0  0  0  0  0  0  0  0  0  0  0  0
   -7.5715   16.5375  -31.8281 H   0  0  0  0  0  0  0  0  0  0  0  0
   -5.9456   16.3288  -33.7120 H   0  0  0  0  0  0  0  0  0  0  0  0
   -5.1810   18.3676  -34.9335 H   0  0  0  0  0  0  0  0  0  0  0  0
   -6.0469   20.6163  -34.2812 H   0  0  0  0  0  0  0  0  0  0  0  0
   -4.7662   21.0024  -31.5432 H   0  0  0  0  0  0  0  0  0  0  0  0
   -3.2149   21.8986  -29.8181 H   0  0  0  0  0  0  0  0  0  0  0  0
   -1.6356   24.6014  -29.9285 H   0  0  0  0  0  0  0  0  0  0  0  0
   -0.1615   25.5693  -28.1674 H   0  0  0  0  0  0  0  0  0  0  0  0
  1  2  1  0
  2  3  1  0
  3  4  1  0
  4  5  1  0
  3  6  1  0
  6  7  1  0
  7  8  1  0
  8  9  1  0
  9 10  1  0
 10 11  1  0
 11 12  2  0
 12 13  1  0
 13 14  2  0
 14 15  1  0
 15 16  2  0
 16 17  1  0
 17 18  2  0
 18 19  1  0
 19 20  2  0
 20 21  1  0
 21 22  2  0
 22 23  1  0
 23 24  2  0
 24 25  1  0
 25 26  1  0
 26 27  1  0
 27 28  2  0
 28 29  1  0
 29 30  2  0
 30 31  1  0
 31 32  2  0
 24 33  1  0
 33 34  2  0
 20 35  1  0
 35 36  2  0
 16 11  1  0
 36 17  1  0
 34 21  1  0
 32 27  1  0
  1 37  1  0
  1 38  1  0
  1 39  1  0
  2 40  1  0
  2 41  1  0
  4 42  1  0
  4 43  1  0
  5 44  1  0
  5 45  1  0
  5 46  1  0
  6 47  1  0
  6 48  1  0
  7 49  1  0
  7 50  1  0
  8 51  1  0
  8 52  1  0
  9 53  1  0
 10 54  1  0
 10 55  1  0
 12 56  1  0
 13 57  1  0
 14 58  1  0
 15 59  1  0
 18 60  1  0
 19 61  1  0
 22 62  1  0
 23 63  1  0
 26 64  1  0
 26 65  1  0
 28 66  1  0
 29 67  1  0
 30 68  1  0
 31 69  1  0
 32 70  1  0
 33 71  1  0
 34 72  1  0
 35 73  1  0
 36 74  1  0
M  END
>  <UniqueID>  (6) 
6

>  <SMILES>  (6) 
CCN(CC)CCCNCc1ccccc1-c1ccc(-c2ccc(OCc3ccccc3)cc2)cc1

>  <Energy>  (6) 
84.18333566648019

>  <Genealogy>  (6) 
CCN(CC)CCCNCc1ccccc1-c1ccc(-c2ccc(OCc3ccccc3)cc2)cc1 (3D coordinates assigned)
CCN(CC)CCCNCc1ccccc1-c1ccc(-c2ccc(OCc3ccccc3)cc2)cc1 (optimized conformer: 84.18333566648019 kcal/mol)

>  <smiles>  (6) 
CCN(CC)CCCNCc1ccccc1-c1ccc(-c2ccc(OCc3ccccc3)cc2)cc1

>  <score_type>  (6) 
oracle

>  <origin>  (6) 
adg

>  <m_score__min__energy>  (6) 
-10.199999999999999

>  <m_primary>  (6) 
energy

$$$$
6:0
     RDKit          3D

 58 60  0  0  0  0  0  0  0  0999 V2000
   -4.9420   14.7960  -33.0930 C   0  0  0  0  0  0  0  0  0  0  0  0
   -5.6940   15.8990  -33.1390 C   0  0  0  0  0  0  0  0  0  0  0  0
   -5.6340   16.8480  -34.3040 C   0  0  0  0  0  0  0  0  0  0  0  0
   -5.0060   18.1580  -33.8970 C   0  0  0  0  0  0  0  0  0  0  0  0
   -3.6570   18.4070  -34.1980 C   0  0  0  0  0  0  0  0  0  0  0  0
   -3.0670   19.6220  -33.8480 C   0  0  0  0  0  0  0  0  0  0  0  0
   -3.8170   20.6020  -33.2000 C   0  0  0  0  0  0  0  0  0  0  0  0
   -5.1620   20.3740  -32.9030 C   0  0  0  0  0  0  0  0  0  0  0  0
   -5.7720   19.1520  -33.2510 C   0  0  0  0  0  0  0  0  0  0  0  0
   -7.1250   18.8950  -32.9790 O   0  0  0  0  0  0  0  0  0  0  0  0
   -7.7740   19.1850  -31.7450 C   0  0  0  0  0  0  0  0  0  0  0  0
   -9.1160   19.8790  -32.0170 C   0  0  2  0  0  0  0  0  0  0  0  0
   -9.7730   19.2670  -33.0960 O   0  0  0  0  0  0  0  0  0  0  0  0
   -8.9330   21.3850  -32.2930 C   0  0  0  0  0  0  0  0  0  0  0  0
   -7.7050   21.9330  -31.6710 N   0  0  0  0  0  0  0  0  0  0  0  0
   -7.9840   22.4190  -30.3050 C   0  0  0  0  0  0  0  0  0  0  0  0
   -6.6590   22.6920  -29.5840 C   0  0  0  0  0  0  0  0  0  0  0  0
   -5.6950   23.3220  -30.4930 N   0  0  0  0  0  0  0  0  0  0  0  0
   -4.2870   23.3080  -30.1810 C   0  0  0  0  0  0  0  0  0  0  0  0
   -3.5430   22.1230  -30.3030 C   0  0  0  0  0  0  0  0  0  0  0  0
   -2.1840   22.1070  -29.9860 C   0  0  0  0  0  0  0  0  0  0  0  0
   -1.5520   23.2700  -29.5390 C   0  0  0  0  0  0  0  0  0  0  0  0
   -2.2840   24.4640  -29.4030 C   0  0  0  0  0  0  0  0  0  0  0  0
   -1.6980   25.6590  -28.9550 O   0  0  0  0  0  0  0  0  0  0  0  0
   -1.1160   25.8350  -27.6680 C   0  0  0  0  0  0  0  0  0  0  0  0
   -3.6480   24.4730  -29.7220 C   0  0  0  0  0  0  0  0  0  0  0  0
   -6.1960   23.9650  -31.7120 C   0  0  0  0  0  0  0  0  0  0  0  0
   -7.0770   22.9860  -32.5120 C   0  0  0  0  0  0  0  0  0  0  0  0
   -5.0081   14.1210  -32.2270 H   0  0  0  0  0  0  0  0  0  0  0  0
   -4.2566   14.5627  -33.9211 H   0  0  0  0  0  0  0  0  0  0  0  0
   -6.3746   16.1188  -32.3033 H   0  0  0  0  0  0  0  0  0  0  0  0
   -5.0345   16.3951  -35.1074 H   0  0  0  0  0  0  0  0  0  0  0  0
   -6.6588   17.0421  -34.6534 H   0  0  0  0  0  0  0  0  0  0  0  0
   -3.0615   17.6389  -34.7132 H   0  0  0  0  0  0  0  0  0  0  0  0
   -2.0086   19.8067  -34.0838 H   0  0  0  0  0  0  0  0  0  0  0  0
   -3.3480   21.5574  -32.9219 H   0  0  0  0  0  0  0  0  0  0  0  0
   -5.7492   21.1528  -32.3943 H   0  0  0  0  0  0  0  0  0  0  0  0
   -7.9513   18.2484  -31.1961 H   0  0  0  0  0  0  0  0  0  0  0  0
   -7.1352   19.8495  -31.1447 H   0  0  0  0  0  0  0  0  0  0  0  0
   -9.7325   19.7749  -31.1120 H   0  0  0  0  0  0  0  0  0  0  0  0
   -9.1000   19.1450  -33.8160 H   0  0  0  0  0  0  0  0  0  0  0  0
   -8.8762   21.5395  -33.3806 H   0  0  0  0  0  0  0  0  0  0  0  0
   -9.7928   21.9113  -31.8529 H   0  0  0  0  0  0  0  0  0  0  0  0
   -8.5715   23.3474  -30.3581 H   0  0  0  0  0  0  0  0  0  0  0  0
   -8.5543   21.6579  -29.7523 H   0  0  0  0  0  0  0  0  0  0  0  0
   -6.8431   23.3624  -28.7316 H   0  0  0  0  0  0  0  0  0  0  0  0
   -6.2428   21.7358  -29.2341 H   0  0  0  0  0  0  0  0  0  0  0  0
   -4.0343   21.2022  -30.6504 H   0  0  0  0  0  0  0  0  0  0  0  0
   -1.6083   21.1753  -30.0885 H   0  0  0  0  0  0  0  0  0  0  0  0
   -0.4800   23.2523  -29.2929 H   0  0  0  0  0  0  0  0  0  0  0  0
   -1.8636   25.6089  -26.8935 H   0  0  0  0  0  0  0  0  0  0  0  0
   -0.2573   25.1564  -27.5580 H   0  0  0  0  0  0  0  0  0  0  0  0
   -0.7773   26.8757  -27.5580 H   0  0  0  0  0  0  0  0  0  0  0  0
   -4.2258   25.4025  -29.6120 H   0  0  0  0  0  0  0  0  0  0  0  0
   -6.7921   24.8478  -31.4375 H   0  0  0  0  0  0  0  0  0  0  0  0
   -5.3404   24.2657  -32.3345 H   0  0  0  0  0  0  0  0  0  0  0  0
   -7.8751   23.5595  -33.0061 H   0  0  0  0  0  0  0  0  0  0  0  0
   -6.4222   22.4765  -33.2343 H   0  0  0  0  0  0  0  0  0  0  0  0
  1  2  2  0
  2  3  1  0
  3  4  1  0
  4  5  2  0
  5  6  1  0
  6  7  2  0
  7  8  1  0
  8  9  2  0
  9 10  1  0
 10 11  1  0
 11 12  1  0
 12 13  1  0
 12 14  1  0
 14 15  1  0
 15 16  1  0
 16 17  1  0
 17 18  1  0
 18 19  1  0
 19 20  2  0
 20 21  1  0
 21 22  2  0
 22 23  1  0
 23 24  1  0
 24 25  1  0
 23 26  2  0
 18 27  1  0
 27 28  1  0
  9  4  1  0
 28 15  1  0
 26 19  1  0
  1 29  1  0
  1 30  1  0
  2 31  1  0
  3 32  1  0
  3 33  1  0
  5 34  1  0
  6 35  1  0
  7 36  1  0
  8 37  1  0
 11 38  1  0
 11 39  1  0
 12 40  1  1
 13 41  1  0
 14 42  1  0
 14 43  1  0
 16 44  1  0
 16 45  1  0
 17 46  1  0
 17 47  1  0
 20 48  1  0
 21 49  1  0
 22 50  1  0
 25 51  1  0
 25 52  1  0
 25 53  1  0
 26 54  1  0
 27 55  1  0
 27 56  1  0
 28 57  1  0
 28 58  1  0
M  END
>  <UniqueID>  (7) 
7

>  <SMILES>  (7) 
C=CCc1ccccc1OC[C@H](O)CN1CCN(c2cccc(OC)c2)CC1

>  <Energy>  (7) 
62.80899427771627

>  <Genealogy>  (7) 
C=CCc1ccccc1OC[C@H](O)CN1CCN(c2cccc(OC)c2)CC1 (chirality)
C=CCc1ccccc1OC[C@H](O)CN1CCN(c2cccc(OC)c2)CC1 (3D coordinates assigned)
C=CCc1ccccc1OC[C@H](O)CN1CCN(c2cccc(OC)c2)CC1 (nonaromatic ring conformer: 62.80899427771627 kcal/mol)

>  <smiles>  (7) 
C=CCc1ccccc1OCC(O)CN1CCN(c2cccc(OC)c2)CC1

>  <score_type>  (7) 
oracle

>  <origin>  (7) 
adg

>  <m_score__min__energy>  (7) 
-8.5299999999999994

>  <m_primary>  (7) 
energy

$$$$
7:0
     RDKit          3D

 55 56  0  0  0  0  0  0  0  0999 V2000
   -3.8910   23.4010  -28.5210 C   0  0  0  0  0  0  0  0  0  0  0  0
   -3.4310   24.2710  -29.6850 C   0  0  0  0  0  0  0  0  0  0  0  0
   -4.0670   23.8140  -30.9440 N   0  0  0  0  0  0  0  0  0  0  0  0
   -5.3800   24.4540  -31.1880 C   0  0  0  0  0  0  0  0  0  0  0  0
   -5.6700   25.6680  -30.2890 C   0  0  0  0  0  0  0  0  0  0  0  0
   -4.1010   22.3340  -31.0560 C   0  0  0  0  0  0  0  0  0  0  0  0
   -2.8630   21.8070  -31.7900 C   0  0  0  0  0  0  0  0  0  0  0  0
   -3.2350   20.8520  -32.7830 O   0  0  0  0  0  0  0  0  0  0  0  0
   -2.3130   20.0080  -33.4130 C   0  0  0  0  0  0  0  0  0  0  0  0
   -1.8790   20.2740  -34.5690 O   0  0  0  0  0  0  0  0  0  0  0  0
   -1.9240   18.7290  -32.7470 C   0  0  0  0  0  0  0  0  0  0  0  0
   -1.6330   17.6170  -33.7600 C   0  0  0  0  0  0  0  0  0  0  0  0
   -2.5470   16.3940  -33.5690 C   0  0  0  0  0  0  0  0  0  0  0  0
   -3.8220   16.5850  -34.1920 O   0  0  0  0  0  0  0  0  0  0  0  0
   -4.8140   17.4880  -33.7740 C   0  0  0  0  0  0  0  0  0  0  0  0
   -5.1850   18.5130  -34.6510 C   0  0  0  0  0  0  0  0  0  0  0  0
   -6.1040   19.4910  -34.2540 C   0  0  0  0  0  0  0  0  0  0  0  0
   -6.6770   19.4530  -32.9690 C   0  0  0  0  0  0  0  0  0  0  0  0
   -7.6160   20.5160  -32.5260 C   0  0  0  0  0  0  0  0  0  0  0  0
   -7.1630   21.8300  -32.2980 C   0  0  0  0  0  0  0  0  0  0  0  0
   -8.0510   22.8240  -31.8820 C   0  0  0  0  0  0  0  0  0  0  0  0
   -9.3990   22.5220  -31.6870 C   0  0  0  0  0  0  0  0  0  0  0  0
   -9.8620   21.2220  -31.9060 C   0  0  0  0  0  0  0  0  0  0  0  0
   -8.9770   20.2210  -32.3210 C   0  0  0  0  0  0  0  0  0  0  0  0
   -6.3430   18.3940  -32.1070 C   0  0  0  0  0  0  0  0  0  0  0  0
   -5.4310   17.4120  -32.5100 C   0  0  0  0  0  0  0  0  0  0  0  0
   -3.6315   23.8918  -27.5714 H   0  0  0  0  0  0  0  0  0  0  0  0
   -4.9807   23.2615  -28.5758 H   0  0  0  0  0  0  0  0  0  0  0  0
   -3.3928   22.4218  -28.5758 H   0  0  0  0  0  0  0  0  0  0  0  0
   -3.7146   25.3162  -29.4925 H   0  0  0  0  0  0  0  0  0  0  0  0
   -2.3383   24.1923  -29.7840 H   0  0  0  0  0  0  0  0  0  0  0  0
   -5.4117   24.7863  -32.2361 H   0  0  0  0  0  0  0  0  0  0  0  0
   -6.1460   23.6997  -30.9549 H   0  0  0  0  0  0  0  0  0  0  0  0
   -5.5983   25.3678  -29.2332 H   0  0  0  0  0  0  0  0  0  0  0  0
   -4.9360   26.4608  -30.4955 H   0  0  0  0  0  0  0  0  0  0  0  0
   -6.6831   26.0435  -30.4955 H   0  0  0  0  0  0  0  0  0  0  0  0
   -4.1327   21.8981  -30.0466 H   0  0  0  0  0  0  0  0  0  0  0  0
   -4.9950   22.0477  -31.6294 H   0  0  0  0  0  0  0  0  0  0  0  0
   -2.3446   22.6479  -32.2738 H   0  0  0  0  0  0  0  0  0  0  0  0
   -2.1997   21.3192  -31.0605 H   0  0  0  0  0  0  0  0  0  0  0  0
   -1.0214   18.9038  -32.1431 H   0  0  0  0  0  0  0  0  0  0  0  0
   -2.7670   18.4037  -32.1197 H   0  0  0  0  0  0  0  0  0  0  0  0
   -1.7835   18.0152  -34.7743 H   0  0  0  0  0  0  0  0  0  0  0  0
   -0.5951   17.2868  -33.6058 H   0  0  0  0  0  0  0  0  0  0  0  0
   -2.0613   15.5127  -34.0133 H   0  0  0  0  0  0  0  0  0  0  0  0
   -2.7095   16.2517  -32.4904 H   0  0  0  0  0  0  0  0  0  0  0  0
   -4.7508   18.5505  -35.6610 H   0  0  0  0  0  0  0  0  0  0  0  0
   -6.3806   20.2954  -34.9515 H   0  0  0  0  0  0  0  0  0  0  0  0
   -6.1013   22.0751  -32.4488 H   0  0  0  0  0  0  0  0  0  0  0  0
   -7.6870   23.8473  -31.7077 H   0  0  0  0  0  0  0  0  0  0  0  0
  -10.0971   23.3071  -31.3609 H   0  0  0  0  0  0  0  0  0  0  0  0
  -10.9250   20.9850  -31.7517 H   0  0  0  0  0  0  0  0  0  0  0  0
   -9.3466   19.1985  -32.4879 H   0  0  0  0  0  0  0  0  0  0  0  0
   -6.8017   18.3368  -31.1088 H   0  0  0  0  0  0  0  0  0  0  0  0
   -5.1946   16.5757  -31.8356 H   0  0  0  0  0  0  0  0  0  0  0  0
  1  2  1  0
  2  3  1  0
  3  4  1  0
  4  5  1  0
  3  6  1  0
  6  7  1  0
  7  8  1  0
  8  9  1  0
  9 10  2  0
  9 11  1  0
 11 12  1  0
 12 13  1  0
 13 14  1  0
 14 15  1  0
 15 16  2  0
 16 17  1  0
 17 18  2  0
 18 19  1  0
 19 20  2  0
 20 21  1  0
 21 22  2  0
 22 23  1  0
 23 24  2  0
 18 25  1  0
 25 26  2  0
 26 15  1  0
 24 19  1  0
  1 27  1  0
  1 28  1  0
  1 29  1  0
  2 30  1  0
  2 31  1  0
  4 32  1  0
  4 33  1  0
  5 34  1  0
  5 35  1  0
  5 36  1  0
  6 37  1  0
  6 38  1  0
  7 39  1  0
  7 40  1  0
 11 41  1  0
 11 42  1  0
 12 43  1  0
 12 44  1  0
 13 45  1  0
 13 46  1  0
 16 47  1  0
 17 48  1  0
 20 49  1  0
 21 50  1  0
 22 51  1  0
 23 52  1  0
 24 53  1  0
 25 54  1  0
 26 55  1  0
M  END
>  <UniqueID>  (8) 
8

>  <SMILES>  (8) 
CCN(CC)CCOC(=O)CCCOc1ccc(-c2ccccc2)cc1

>  <Energy>  (8) 
54.155073658990894

>  <Genealogy>  (8) 
CCN(CC)CCOC(=O)CCCOc1ccc(-c2ccccc2)cc1 (3D coordinates assigned)
CCN(CC)CCOC(=O)CCCOc1ccc(-c2ccccc2)cc1 (optimized conformer: 54.155073658990894 kcal/mol)

>  <smiles>  (8) 
CCN(CC)CCOC(=O)CCCOc1ccc(-c2ccccc2)cc1

>  <score_type>  (8) 
oracle

>  <origin>  (8) 
adg

>  <m_score__min__energy>  (8) 
-8.1099999999999994

>  <m_primary>  (8) 
energy

$$$$
8:0
     RDKit          3D

 42 43  0  0  0  0  0  0  0  0999 V2000
   -9.4700   21.2650  -31.9330 C   0  0  0  0  0  0  0  0  0  0  0  0
   -8.8020   20.0610  -31.2720 C   0  0  0  0  0  0  0  0  0  0  0  0
   -8.5560   18.9200  -32.2690 C   0  0  0  0  0  0  0  0  0  0  0  0
   -7.1210   18.7560  -32.5450 N   0  0  0  0  0  0  0  0  0  0  0  0
   -6.5620   17.4040  -32.7000 C   0  0  0  0  0  0  0  0  0  0  0  0
   -6.4990   16.9900  -34.1760 C   0  0  0  0  0  0  0  0  0  0  0  0
   -5.3280   17.6410  -34.9090 C   0  0  0  0  0  0  0  0  0  0  0  0
   -6.3140   19.9230  -32.7940 C   0  0  0  0  0  0  0  0  0  0  0  0
   -6.7870   20.8730  -33.4760 O   0  0  0  0  0  0  0  0  0  0  0  0
   -4.9180   20.0320  -32.2490 C   0  0  0  0  0  0  0  0  0  0  0  0
   -4.6880   21.3910  -31.6680 C   0  0  0  0  0  0  0  0  0  0  0  0
   -5.0440   22.5450  -32.2580 N   0  0  0  0  0  0  0  0  0  0  0  0
   -4.6560   23.5310  -31.4670 N   0  0  0  0  0  0  0  0  0  0  0  0
   -4.0660   22.9340  -30.4090 C   0  0  0  0  0  0  0  0  0  0  0  0
   -3.4780   23.6570  -29.2660 C   0  0  0  0  0  0  0  0  0  0  0  0
   -4.2160   23.8480  -28.0880 C   0  0  0  0  0  0  0  0  0  0  0  0
   -3.6510   24.5330  -27.0120 C   0  0  0  0  0  0  0  0  0  0  0  0
   -2.3490   25.0230  -27.1200 C   0  0  0  0  0  0  0  0  0  0  0  0
   -1.6430   24.8310  -28.2660 N   0  0  0  0  0  0  0  0  0  0  0  0
   -2.1710   24.1670  -29.3290 C   0  0  0  0  0  0  0  0  0  0  0  0
   -4.0820   21.6230  -30.5290 O   0  0  0  0  0  0  0  0  0  0  0  0
   -9.8481   21.9465  -31.1567 H   0  0  0  0  0  0  0  0  0  0  0  0
   -8.7361   21.7935  -32.5592 H   0  0  0  0  0  0  0  0  0  0  0  0
  -10.3069   20.9221  -32.5592 H   0  0  0  0  0  0  0  0  0  0  0  0
   -7.8369   20.3778  -30.8498 H   0  0  0  0  0  0  0  0  0  0  0  0
   -9.4762   19.6869  -30.4875 H   0  0  0  0  0  0  0  0  0  0  0  0
   -8.9497   17.9835  -31.8470 H   0  0  0  0  0  0  0  0  0  0  0  0
   -9.0666   19.1649  -33.2120 H   0  0  0  0  0  0  0  0  0  0  0  0
   -5.5456   17.3866  -32.2798 H   0  0  0  0  0  0  0  0  0  0  0  0
   -7.2159   16.6962  -32.1696 H   0  0  0  0  0  0  0  0  0  0  0  0
   -6.3888   15.8970  -34.2328 H   0  0  0  0  0  0  0  0  0  0  0  0
   -7.4282   17.3247  -34.6603 H   0  0  0  0  0  0  0  0  0  0  0  0
   -4.6118   18.0392  -34.1752 H   0  0  0  0  0  0  0  0  0  0  0  0
   -4.8280   16.8914  -35.5399 H   0  0  0  0  0  0  0  0  0  0  0  0
   -5.7008   18.4614  -35.5399 H   0  0  0  0  0  0  0  0  0  0  0  0
   -4.7752   19.2740  -31.4648 H   0  0  0  0  0  0  0  0  0  0  0  0
   -4.2022   19.8691  -33.0682 H   0  0  0  0  0  0  0  0  0  0  0  0
   -5.5310   22.6660  -33.1730 H   0  0  0  0  0  0  0  0  0  0  0  0
   -5.2414   23.4571  -28.0128 H   0  0  0  0  0  0  0  0  0  0  0  0
   -4.2266   24.6854  -26.0871 H   0  0  0  0  0  0  0  0  0  0  0  0
   -1.8937   25.5647  -26.2778 H   0  0  0  0  0  0  0  0  0  0  0  0
   -1.5722   24.0289  -30.2414 H   0  0  0  0  0  0  0  0  0  0  0  0
  1  2  1  0
  2  3  1  0
  3  4  1  0
  4  5  1  0
  5  6  1  0
  6  7  1  0
  4  8  1  0
  8  9  2  0
  8 10  1  0
 10 11  1  0
 11 12  2  0
 12 13  1  0
 13 14  2  0
 14 15  1  0
 15 16  2  0
 16 17  1  0
 17 18  2  0
 18 19  1  0
 19 20  2  0
 14 21  1  0
 21 11  1  0
 20 15  1  0
  1 22  1  0
  1 23  1  0
  1 24  1  0
  2 25  1  0
  2 26  1  0
  3 27  1  0
  3 28  1  0
  5 29  1  0
  5 30  1  0
  6 31  1  0
  6 32  1  0
  7 33  1  0
  7 34  1  0
  7 35  1  0
 10 36  1  0
 10 37  1  0
 12 38  1  0
 16 39  1  0
 17 40  1  0
 18 41  1  0
 20 42  1  0
M  CHG  1  12   1
M  END
>  <UniqueID>  (9) 
9

>  <SMILES>  (9) 
CCCN(CCC)C(=O)Cc1[nH+]nc(-c2cccnc2)o1

>  <Energy>  (9) 
67.05496909095453

>  <Genealogy>  (9) 
CCCN(CCC)C(=O)Cc1[nH+]nc(-c2cccnc2)o1 (protonated)
CCCN(CCC)C(=O)Cc1[nH+]nc(-c2cccnc2)o1 (3D coordinates assigned)
CCCN(CCC)C(=O)Cc1[nH+]nc(-c2cccnc2)o1 (optimized conformer: 67.05496909095453 kcal/mol)

>  <smiles>  (9) 
CCCN(CCC)C(=O)Cc1nnc(-c2cccnc2)o1

>  <score_type>  (9) 
oracle

>  <origin>  (9) 
adg

>  <m_score__min__energy>  (9) 
-6.7199999999999998

>  <m_primary>  (9) 
energy

$$$$
9:0
     RDKit          3D

 60 61  0  0  0  0  0  0  0  0999 V2000
   -8.3440   18.2880  -31.6630 C   0  0  0  0  0  0  0  0  0  0  0  0
   -6.9330   18.8640  -31.7020 C   0  0  0  0  0  0  0  0  0  0  0  0
   -6.9380   20.1440  -32.4500 N   0  0  0  0  0  0  0  0  0  0  0  0
   -6.4840   19.9980  -33.8530 C   0  0  0  0  0  0  0  0  0  0  0  0
   -5.7410   18.6810  -34.1290 C   0  0  0  0  0  0  0  0  0  0  0  0
   -8.2080   20.8990  -32.3330 C   0  0  0  0  0  0  0  0  0  0  0  0
   -8.2650   21.6840  -31.0180 C   0  0  0  0  0  0  0  0  0  0  0  0
   -8.0790   23.1110  -31.2610 N   0  0  0  0  0  0  0  0  0  0  0  0
   -6.8040   23.7440  -31.1280 C   0  0  0  0  0  0  0  0  0  0  0  0
   -5.5560   23.5560  -31.7020 C   0  0  0  0  0  0  0  0  0  0  0  0
   -4.9990   22.6740  -32.6890 N   0  0  0  0  0  0  0  0  0  0  0  0
   -3.6430   22.2090  -32.3410 C   0  0  0  0  0  0  0  0  0  0  0  0
   -3.5220   21.6080  -30.9220 C   0  0  0  0  0  0  0  0  0  0  0  0
   -2.1680   21.9230  -30.2520 C   0  0  0  0  0  0  0  0  0  0  0  0
   -2.2890   22.4850  -28.8840 N   0  0  0  0  0  0  0  0  0  0  0  0
   -3.5110   22.0350  -28.1670 C   0  0  0  0  0  0  0  0  0  0  0  0
   -4.5260   23.1680  -27.9570 C   0  0  0  0  0  0  0  0  0  0  0  0
   -3.9160   24.3290  -27.1610 C   0  0  0  0  0  0  0  0  0  0  0  0
   -2.4000   24.4750  -27.3830 C   0  0  0  0  0  0  0  0  0  0  0  0
   -1.9740   23.9390  -28.7650 C   0  0  1  0  0  0  0  0  0  0  0  0
   -0.4690   24.1880  -28.9590 C   0  0  0  0  0  0  0  0  0  0  0  0
   -5.0560   24.6020  -30.9490 C   0  0  0  0  0  0  0  0  0  0  0  0
   -3.9320   25.1610  -30.8400 O   0  0  0  0  0  0  0  0  0  0  0  0
   -6.2930   24.7780  -30.3640 C   0  0  0  0  0  0  0  0  0  0  0  0
   -6.7600   25.5610  -29.4960 O   0  0  0  0  0  0  0  0  0  0  0  0
   -8.6588   18.1595  -30.6169 H   0  0  0  0  0  0  0  0  0  0  0  0
   -9.0351   18.9760  -32.1720 H   0  0  0  0  0  0  0  0  0  0  0  0
   -8.3562   17.3129  -32.1720 H   0  0  0  0  0  0  0  0  0  0  0  0
   -6.5818   19.0418  -30.6748 H   0  0  0  0  0  0  0  0  0  0  0  0
   -6.2615   18.1512  -32.2030 H   0  0  0  0  0  0  0  0  0  0  0  0
   -7.3654   20.0435  -34.5096 H   0  0  0  0  0  0  0  0  0  0  0  0
   -5.7730   20.8146  -34.0470 H   0  0  0  0  0  0  0  0  0  0  0  0
   -5.4723   18.2047  -33.1746 H   0  0  0  0  0  0  0  0  0  0  0  0
   -6.3918   18.0066  -34.7050 H   0  0  0  0  0  0  0  0  0  0  0  0
   -4.8273   18.8892  -34.7050 H   0  0  0  0  0  0  0  0  0  0  0  0
   -8.2864   21.6026  -33.1749 H   0  0  0  0  0  0  0  0  0  0  0  0
   -9.0426   20.1826  -32.3483 H   0  0  0  0  0  0  0  0  0  0  0  0
   -9.2443   21.5231  -30.5435 H   0  0  0  0  0  0  0  0  0  0  0  0
   -7.4589   21.3293  -30.3590 H   0  0  0  0  0  0  0  0  0  0  0  0
   -8.8860   23.6740  -31.6070 H   0  0  0  0  0  0  0  0  0  0  0  0
   -5.6300   21.8410  -32.7660 H   0  0  0  0  0  0  0  0  0  0  0  0
   -4.9870   23.1530  -33.6170 H   0  0  0  0  0  0  0  0  0  0  0  0
   -3.3456   21.4389  -33.0680 H   0  0  0  0  0  0  0  0  0  0  0  0
   -2.9903   23.0941  -32.3653 H   0  0  0  0  0  0  0  0  0  0  0  0
   -4.3278   22.0194  -30.2963 H   0  0  0  0  0  0  0  0  0  0  0  0
   -3.5973   20.5148  -31.0181 H   0  0  0  0  0  0  0  0  0  0  0  0
   -1.5859   20.9915  -30.1933 H   0  0  0  0  0  0  0  0  0  0  0  0
   -1.6776   22.6900  -30.8695 H   0  0  0  0  0  0  0  0  0  0  0  0
   -3.9901   21.2377  -28.7543 H   0  0  0  0  0  0  0  0  0  0  0  0
   -3.2010   21.6783  -27.1737 H   0  0  0  0  0  0  0  0  0  0  0  0
   -4.8536   23.5409  -28.9386 H   0  0  0  0  0  0  0  0  0  0  0  0
   -5.3769   22.7677  -27.3862 H   0  0  0  0  0  0  0  0  0  0  0  0
   -4.4077   25.2632  -27.4700 H   0  0  0  0  0  0  0  0  0  0  0  0
   -4.0747   24.1171  -26.0933 H   0  0  0  0  0  0  0  0  0  0  0  0
   -2.1301   25.5391  -27.3142 H   0  0  0  0  0  0  0  0  0  0  0  0
   -1.8813   23.8873  -26.6113 H   0  0  0  0  0  0  0  0  0  0  0  0
   -2.5334   24.4680  -29.5506 H   0  0  0  0  0  0  0  0  0  0  0  0
    0.0189   24.2687  -27.9765 H   0  0  0  0  0  0  0  0  0  0  0  0
   -0.0281   23.3506  -29.5197 H   0  0  0  0  0  0  0  0  0  0  0  0
   -0.3213   25.1228  -29.5197 H   0  0  0  0  0  0  0  0  0  0  0  0
  1  2  1  0
  2  3  1  0
  3  4  1  0
  4  5  1  0
  3  6  1  0
  6  7  1  0
  7  8  1  0
  8  9  1  0
  9 10  2  0
 10 11  1  0
 11 12  1  0
 12 13  1  0
 13 14  1  0
 14 15  1  0
 15 16  1  0
 16 17  1  0
 17 18  1  0
 18 19  1  0
 19 20  1  0
 20 21  1  0
 10 22  1  0
 22 23  2  0
 22 24  1  0
 24 25  2  0
 24  9  1  0
 20 15  1  0
  1 26  1  0
  1 27  1  0
  1 28  1  0
  2 29  1  0
  2 30  1  0
  4 31  1  0
  4 32  1  0
  5 33  1  0
  5 34  1  0
  5 35  1  0
  6 36  1  0
  6 37  1  0
  7 38  1  0
  7 39  1  0
  8 40  1  0
 11 41  1  0
 11 42  1  0
 12 43  1  0
 12 44  1  0
 13 45  1  0
 13 46  1  0
 14 47  1  0
 14 48  1  0
 16 49  1  0
 16 50  1  0
 17 51  1  0
 17 52  1  0
 18 53  1  0
 18 54  1  0
 19 55  1  0
 19 56  1  0
 20 57  1  6
 21 58  1  0
 21 59  1  0
 21 60  1  0
M  CHG  1  11   1
M  END
>  <UniqueID>  (10) 
10

>  <SMILES>  (10) 
CCN(CC)CCNc1c([NH2+]CCCN2CCCC[C@H]2C)c(=O)c1=O

>  <Energy>  (10) 
52.150591995112165

>  <Genealogy>  (10) 
CCN(CC)CCNc1c([NH2+]CCCN2CCCCC2C)c(=O)c1=O (protonated)
CCN(CC)CCNc1c([NH2+]CCCN2CCCC[C@H]2C)c(=O)c1=O (chirality)
CCN(CC)CCNc1c([NH2+]CCCN2CCCC[C@H]2C)c(=O)c1=O (3D coordinates assigned)
CCN(CC)CCNc1c([NH2+]CCCN2CCCC[C@H]2C)c(=O)c1=O (nonaromatic ring conformer: 52.150591995112165 kcal/mol)

>  <smiles>  (10) 
CCN(CC)CCNc1c(NCCCN2CCCCC2C)c(=O)c1=O

>  <score_type>  (10) 
oracle

>  <origin>  (10) 
adg

>  <m_score__min__energy>  (10) 
-6.9000000000000004

>  <m_primary>  (10) 
energy

$$$$
10:0
     RDKit          3D

 56 60  0  0  0  0  0  0  0  0999 V2000
    0.4680   17.3930  -28.1240 F   0  0  0  0  0  0  0  0  0  0  0  0
    0.1080   18.6980  -28.1980 C   0  0  0  0  0  0  0  0  0  0  0  0
   -0.4770   19.3260  -27.0960 C   0  0  0  0  0  0  0  0  0  0  0  0
   -0.8500   20.6710  -27.1680 C   0  0  0  0  0  0  0  0  0  0  0  0
   -1.4470   21.2500  -26.0960 F   0  0  0  0  0  0  0  0  0  0  0  0
   -0.6340   21.4020  -28.3520 C   0  0  0  0  0  0  0  0  0  0  0  0
   -1.0290   22.8260  -28.4370 C   0  0  0  0  0  0  0  0  0  0  0  0
   -0.1780   23.8450  -27.9560 C   0  0  0  0  0  0  0  0  0  0  0  0
   -0.5720   25.1980  -28.0510 C   0  0  0  0  0  0  0  0  0  0  0  0
   -1.7760   25.5350  -28.6010 N   0  0  0  0  0  0  0  0  0  0  0  0
   -2.5900   24.5510  -29.0560 C   0  0  0  0  0  0  0  0  0  0  0  0
   -3.8070   24.7240  -29.5940 N   0  0  0  0  0  0  0  0  0  0  0  0
   -4.2600   23.4750  -29.8740 C   0  0  0  0  0  0  0  0  0  0  0  0
   -5.5840   23.1880  -30.4820 C   0  0  0  0  0  0  0  0  0  0  0  0
   -6.6950   22.8970  -29.6700 C   0  0  0  0  0  0  0  0  0  0  0  0
   -7.9400   22.6250  -30.2430 C   0  0  0  0  0  0  0  0  0  0  0  0
   -8.1020   22.6510  -31.6360 C   0  0  0  0  0  0  0  0  0  0  0  0
   -9.4370   22.3240  -32.2520 C   0  0  0  0  0  0  0  0  0  0  0  0
   -9.6480   20.8050  -32.3120 C   0  0  0  0  0  0  0  0  0  0  0  0
   -8.3690   20.0770  -32.1650 N   0  0  0  0  0  0  0  0  0  0  0  0
   -8.6140   18.7030  -31.6830 C   0  0  0  0  0  0  0  0  0  0  0  0
   -7.2920   18.0290  -31.2720 C   0  0  0  0  0  0  0  0  0  0  0  0
   -6.0860   18.5790  -32.0480 C   0  0  0  0  0  0  0  0  0  0  0  0
   -6.4910   18.9880  -33.4630 C   0  0  0  0  0  0  0  0  0  0  0  0
   -7.6040   20.0600  -33.4400 C   0  0  0  0  0  0  0  0  0  0  0  0
   -6.9950   22.9270  -32.4500 C   0  0  0  0  0  0  0  0  0  0  0  0
   -5.7480   23.1980  -31.8800 C   0  0  0  0  0  0  0  0  0  0  0  0
   -3.3120   22.5160  -29.5050 C   0  0  0  0  0  0  0  0  0  0  0  0
   -2.2500   23.2300  -28.9890 C   0  0  0  0  0  0  0  0  0  0  0  0
   -0.0510   20.7610  -29.4600 C   0  0  0  0  0  0  0  0  0  0  0  0
    0.1800   21.4430  -30.6110 F   0  0  0  0  0  0  0  0  0  0  0  0
    0.3200   19.4150  -29.3780 C   0  0  0  0  0  0  0  0  0  0  0  0
   -0.6448   18.7598  -26.1679 H   0  0  0  0  0  0  0  0  0  0  0  0
    0.7920   23.5850  -27.5072 H   0  0  0  0  0  0  0  0  0  0  0  0
    0.0970   25.9877  -27.6786 H   0  0  0  0  0  0  0  0  0  0  0  0
   -4.2840   25.6360  -29.7650 H   0  0  0  0  0  0  0  0  0  0  0  0
   -6.5829   22.8835  -28.5758 H   0  0  0  0  0  0  0  0  0  0  0  0
   -8.7988   22.3889  -29.5974 H   0  0  0  0  0  0  0  0  0  0  0  0
  -10.2354   22.7760  -31.6451 H   0  0  0  0  0  0  0  0  0  0  0  0
   -9.4626   22.7258  -33.2757 H   0  0  0  0  0  0  0  0  0  0  0  0
  -10.3260   20.5053  -31.4993 H   0  0  0  0  0  0  0  0  0  0  0  0
  -10.0792   20.5535  -33.2922 H   0  0  0  0  0  0  0  0  0  0  0  0
   -9.2868   18.7395  -30.8135 H   0  0  0  0  0  0  0  0  0  0  0  0
   -9.0725   18.1190  -32.4946 H   0  0  0  0  0  0  0  0  0  0  0  0
   -7.1280   18.1996  -30.1978 H   0  0  0  0  0  0  0  0  0  0  0  0
   -7.3774   16.9568  -31.5025 H   0  0  0  0  0  0  0  0  0  0  0  0
   -5.6872   19.4572  -31.5192 H   0  0  0  0  0  0  0  0  0  0  0  0
   -5.3210   17.7914  -32.1144 H   0  0  0  0  0  0  0  0  0  0  0  0
   -5.6119   19.3952  -33.9839 H   0  0  0  0  0  0  0  0  0  0  0  0
   -6.8752   18.0993  -33.9851 H   0  0  0  0  0  0  0  0  0  0  0  0
   -7.1421   21.0478  -33.5847 H   0  0  0  0  0  0  0  0  0  0  0  0
   -8.3125   19.8156  -34.2452 H   0  0  0  0  0  0  0  0  0  0  0  0
   -7.1083   22.9304  -33.5441 H   0  0  0  0  0  0  0  0  0  0  0  0
   -4.8881   23.4208  -32.5288 H   0  0  0  0  0  0  0  0  0  0  0  0
   -3.3951   21.4237  -29.6049 H   0  0  0  0  0  0  0  0  0  0  0  0
    0.7802   18.9194  -30.2455 H   0  0  0  0  0  0  0  0  0  0  0  0
  1  2  1  0
  2  3  2  0
  3  4  1  0
  4  5  1  0
  4  6  2  0
  6  7  1  0
  7  8  2  0
  8  9  1  0
  9 10  2  0
 10 11  1  0
 11 12  1  0
 12 13  1  0
 13 14  1  0
 14 15  2  0
 15 16  1  0
 16 17  2  0
 17 18  1  0
 18 19  1  0
 19 20  1  0
 20 21  1  0
 21 22  1  0
 22 23  1  0
 23 24  1  0
 24 25  1  0
 17 26  1  0
 26 27  2  0
 13 28  2  0
 28 29  1  0
  6 30  1  0
 30 31  1  0
 30 32  2  0
 32  2  1  0
 29  7  1  0
 29 11  2  0
 27 14  1  0
 25 20  1  0
  3 33  1  0
  8 34  1  0
  9 35  1  0
 12 36  1  0
 15 37  1  0
 16 38  1  0
 18 39  1  0
 18 40  1  0
 19 41  1  0
 19 42  1  0
 21 43  1  0
 21 44  1  0
 22 45  1  0
 22 46  1  0
 23 47  1  0
 23 48  1  0
 24 49  1  0
 24 50  1  0
 25 51  1  0
 25 52  1  0
 26 53  1  0
 27 54  1  0
 28 55  1  0
 32 56  1  0
M  END
>  <UniqueID>  (11) 
11

>  <SMILES>  (11) 
Fc1cc(F)c(-c2ccnc3[nH]c(-c4ccc(CCN5CCCCC5)cc4)cc23)c(F)c1

>  <Energy>  (11) 
108.7378000188342

>  <Genealogy>  (11) 
Fc1cc(F)c(-c2ccnc3[nH]c(-c4ccc(CCN5CCCCC5)cc4)cc23)c(F)c1 (3D coordinates assigned)
Fc1cc(F)c(-c2ccnc3[nH]c(-c4ccc(CCN5CCCCC5)cc4)cc23)c(F)c1 (nonaromatic ring conformer: 108.7378000188342 kcal/mol)

>  <smiles>  (11) 
Fc1cc(F)c(-c2ccnc3[nH]c(-c4ccc(CCN5CCCCC5)cc4)cc23)c(F)c1

>  <score_type>  (11) 
oracle

>  <origin>  (11) 
adg

>  <m_score__min__energy>  (11) 
-10

>  <m_primary>  (11) 
energy

$$$$
11:0
     RDKit          3D

 30 31  0  0  0  0  0  0  0  0999 V2000
   -5.2520   25.6540  -30.5200 C   0  0  0  0  0  0  0  0  0  0  0  0
   -3.8640   25.3430  -30.4630 O   0  0  0  0  0  0  0  0  0  0  0  0
   -3.3320   24.1800  -29.8830 C   0  0  0  0  0  0  0  0  0  0  0  0
   -2.6300   24.2050  -28.6610 C   0  0  0  0  0  0  0  0  0  0  0  0
   -2.1160   23.0220  -28.1090 C   0  0  0  0  0  0  0  0  0  0  0  0
   -1.3360   23.0620  -26.8290 C   0  0  0  0  0  0  0  0  0  0  0  0
   -2.2720   21.8140  -28.8020 C   0  0  0  0  0  0  0  0  0  0  0  0
   -2.9660   21.7810  -30.0120 C   0  0  0  0  0  0  0  0  0  0  0  0
   -3.5150   22.9590  -30.5500 C   0  0  0  0  0  0  0  0  0  0  0  0
   -4.2050   22.9550  -31.7720 O   0  0  0  0  0  0  0  0  0  0  0  0
   -5.1070   21.9680  -32.1960 C   0  0  0  0  0  0  0  0  0  0  0  0
   -6.4800   22.0440  -31.8910 C   0  0  0  0  0  0  0  0  0  0  0  0
   -7.3580   21.0530  -32.3400 C   0  0  0  0  0  0  0  0  0  0  0  0
   -9.2180   21.1610  -31.9150 Br  0  0  0  0  0  0  0  0  0  0  0  0
   -6.8770   19.9870  -33.1040 C   0  0  0  0  0  0  0  0  0  0  0  0
   -5.5200   19.9140  -33.4280 C   0  0  0  0  0  0  0  0  0  0  0  0
   -4.6370   20.9040  -32.9810 C   0  0  0  0  0  0  0  0  0  0  0  0
   -2.7830   20.7800  -33.4410 Br  0  0  0  0  0  0  0  0  0  0  0  0
   -5.6500   25.7432  -29.4984 H   0  0  0  0  0  0  0  0  0  0  0  0
   -5.3929   26.6060  -31.0528 H   0  0  0  0  0  0  0  0  0  0  0  0
   -5.7856   24.8531  -31.0528 H   0  0  0  0  0  0  0  0  0  0  0  0
   -2.4839   25.1603  -28.1356 H   0  0  0  0  0  0  0  0  0  0  0  0
   -2.0294   23.0264  -25.9758 H   0  0  0  0  0  0  0  0  0  0  0  0
   -0.6572   22.1975  -26.7861 H   0  0  0  0  0  0  0  0  0  0  0  0
   -0.7492   23.9914  -26.7861 H   0  0  0  0  0  0  0  0  0  0  0  0
   -1.8454   20.8875  -28.3901 H   0  0  0  0  0  0  0  0  0  0  0  0
   -3.0845   20.8280  -30.5484 H   0  0  0  0  0  0  0  0  0  0  0  0
   -6.8631   22.8868  -31.2969 H   0  0  0  0  0  0  0  0  0  0  0  0
   -7.5675   19.2042  -33.4509 H   0  0  0  0  0  0  0  0  0  0  0  0
   -5.1448   19.0772  -34.0354 H   0  0  0  0  0  0  0  0  0  0  0  0
  1  2  1  0
  2  3  1  0
  3  4  2  0
  4  5  1  0
  5  6  1  0
  5  7  2  0
  7  8  1  0
  8  9  2  0
  9 10  1  0
 10 11  1  0
 11 12  2  0
 12 13  1  0
 13 14  1  0
 13 15  2  0
 15 16  1  0
 16 17  2  0
 17 18  1  0
  9  3  1  0
 17 11  1  0
  1 19  1  0
  1 20  1  0
  1 21  1  0
  4 22  1  0
  6 23  1  0
  6 24  1  0
  6 25  1  0
  7 26  1  0
  8 27  1  0
 12 28  1  0
 15 29  1  0
 16 30  1  0
M  END
>  <UniqueID>  (12) 
12

>  <SMILES>  (12) 
COc1cc(C)ccc1Oc1cc(Br)ccc1Br

>  <Energy>  (12) 
35.52276245442489

>  <Genealogy>  (12) 
COc1cc(C)ccc1Oc1cc(Br)ccc1Br (3D coordinates assigned)
COc1cc(C)ccc1Oc1cc(Br)ccc1Br (optimized conformer: 35.52276245442489 kcal/mol)

>  <smiles>  (12) 
COc1cc(C)ccc1Oc1cc(Br)ccc1Br

>  <score_type>  (12) 
oracle

>  <origin>  (12) 
adg

>  <m_score__min__energy>  (12) 
-7.96

>  <m_primary>  (12) 
energy

$$$$
12:0
     RDKit          3D

 48 51  0  0  0  0  0  0  0  0999 V2000
   -3.9910   18.9600  -33.9370 C   0  0  0  0  0  0  0  0  0  0  0  0
   -4.9050   19.9880  -33.3390 C   0  0  0  0  0  0  0  0  0  0  0  0
   -6.2870   19.7590  -33.2910 C   0  0  0  0  0  0  0  0  0  0  0  0
   -7.1440   20.7000  -32.7120 C   0  0  0  0  0  0  0  0  0  0  0  0
   -6.6200   21.8750  -32.1450 C   0  0  0  0  0  0  0  0  0  0  0  0
   -7.4340   22.8440  -31.5350 C   0  0  0  0  0  0  0  0  0  0  0  0
   -8.6860   22.6960  -31.4730 O   0  0  0  0  0  0  0  0  0  0  0  0
   -6.8460   23.9840  -30.9850 C   0  0  0  0  0  0  0  0  0  0  0  0
   -5.4530   24.1430  -31.0620 C   0  0  0  0  0  0  0  0  0  0  0  0
   -4.7830   25.3220  -30.4830 C   0  0  0  0  0  0  0  0  0  0  0  0
   -5.3840   26.4290  -30.4970 O   0  0  0  0  0  0  0  0  0  0  0  0
   -3.4920   25.2470  -29.8660 N   0  0  0  0  0  0  0  0  0  0  0  0
   -3.1780   24.4720  -28.6720 C   0  0  0  0  0  0  0  0  0  0  0  0
   -1.7590   24.7540  -28.2590 C   0  0  0  0  0  0  0  0  0  0  0  0
   -1.4700   25.9470  -27.5770 C   0  0  0  0  0  0  0  0  0  0  0  0
   -0.1640   26.2350  -27.1870 C   0  0  0  0  0  0  0  0  0  0  0  0
    0.8520   25.3280  -27.4830 C   0  0  0  0  0  0  0  0  0  0  0  0
    0.5680   24.1830  -28.1560 N   0  0  0  0  0  0  0  0  0  0  0  0
   -0.6950   23.8740  -28.5610 C   0  0  0  0  0  0  0  0  0  0  0  0
   -0.9100   22.6490  -29.2750 N   0  0  0  0  0  0  0  0  0  0  0  0
   -1.5540   22.6840  -30.5920 C   0  0  0  0  0  0  0  0  0  0  0  0
   -1.4170   21.3270  -31.2800 C   0  0  0  0  0  0  0  0  0  0  0  0
   -0.1140   20.8300  -31.0670 O   0  0  0  0  0  0  0  0  0  0  0  0
    0.0090   20.3650  -29.7360 C   0  0  0  0  0  0  0  0  0  0  0  0
   -0.4630   21.3890  -28.6720 C   0  0  0  0  0  0  0  0  0  0  0  0
   -4.7080   23.1980  -31.6320 O   0  0  0  0  0  0  0  0  0  0  0  0
   -5.2240   22.0960  -32.1700 C   0  0  0  0  0  0  0  0  0  0  0  0
   -4.3760   21.1520  -32.7610 C   0  0  0  0  0  0  0  0  0  0  0  0
   -3.4928   18.3997  -33.1321 H   0  0  0  0  0  0  0  0  0  0  0  0
   -4.5761   18.2664  -34.5587 H   0  0  0  0  0  0  0  0  0  0  0  0
   -3.2337   19.4600  -34.5587 H   0  0  0  0  0  0  0  0  0  0  0  0
   -6.7009   18.8311  -33.7124 H   0  0  0  0  0  0  0  0  0  0  0  0
   -8.2292   20.5208  -32.7001 H   0  0  0  0  0  0  0  0  0  0  0  0
   -7.4669   24.7495  -30.4966 H   0  0  0  0  0  0  0  0  0  0  0  0
   -3.8615   24.7563  -27.8584 H   0  0  0  0  0  0  0  0  0  0  0  0
   -3.2947   23.3993  -28.8860 H   0  0  0  0  0  0  0  0  0  0  0  0
   -2.2785   26.6574  -27.3497 H   0  0  0  0  0  0  0  0  0  0  0  0
    0.0630   27.1684  -26.6511 H   0  0  0  0  0  0  0  0  0  0  0  0
    1.8854   25.5398  -27.1711 H   0  0  0  0  0  0  0  0  0  0  0  0
   -2.6206   22.9235  -30.4691 H   0  0  0  0  0  0  0  0  0  0  0  0
   -1.0666   23.4520  -31.2106 H   0  0  0  0  0  0  0  0  0  0  0  0
   -2.1521   20.6251  -30.8594 H   0  0  0  0  0  0  0  0  0  0  0  0
   -1.5987   21.4390  -32.3591 H   0  0  0  0  0  0  0  0  0  0  0  0
   -0.5942   19.4513  -29.6302 H   0  0  0  0  0  0  0  0  0  0  0  0
    1.0791   20.1846  -29.5561 H   0  0  0  0  0  0  0  0  0  0  0  0
   -1.2983   20.9515  -28.1055 H   0  0  0  0  0  0  0  0  0  0  0  0
    0.3917   21.6130  -28.0167 H   0  0  0  0  0  0  0  0  0  0  0  0
   -3.2895   21.3236  -32.7724 H   0  0  0  0  0  0  0  0  0  0  0  0
  1  2  1  0
  2  3  2  0
  3  4  1  0
  4  5  2  0
  5  6  1  0
  6  7  2  0
  6  8  1  0
  8  9  2  0
  9 10  1  0
 10 11  2  0
 10 12  1  0
 12 13  1  0
 13 14  1  0
 14 15  2  0
 15 16  1  0
 16 17  2  0
 17 18  1  0
 18 19  2  0
 19 20  1  0
 20 21  1  0
 21 22  1  0
 22 23  1  0
 23 24  1  0
 24 25  1  0
  9 26  1  0
 26 27  1  0
 27 28  2  0
 28  2  1  0
 27  5  1  0
 19 14  1  0
 25 20  1  0
  1 29  1  0
  1 30  1  0
  1 31  1  0
  3 32  1  0
  4 33  1  0
  8 34  1  0
 13 35  1  0
 13 36  1  0
 15 37  1  0
 16 38  1  0
 17 39  1  0
 21 40  1  0
 21 41  1  0
 22 42  1  0
 22 43  1  0
 24 44  1  0
 24 45  1  0
 25 46  1  0
 25 47  1  0
 28 48  1  0
M  CHG  1  12  -1
M  END
>  <UniqueID>  (13) 
13

>  <SMILES>  (13) 
Cc1ccc2c(=O)cc(C(=O)[N-]Cc3cccnc3N3CCOCC3)oc2c1

>  <Energy>  (13) 
71.40007119525704

>  <Genealogy>  (13) 
Cc1ccc2c(=O)cc(C(=O)[N-]Cc3cccnc3N3CCOCC3)oc2c1 (protonated)
Cc1ccc2c(=O)cc(C(=O)[N-]Cc3cccnc3N3CCOCC3)oc2c1 (3D coordinates assigned)
Cc1ccc2c(=O)cc(C(=O)[N-]Cc3cccnc3N3CCOCC3)oc2c1 (nonaromatic ring conformer: 71.40007119525704 kcal/mol)

>  <smiles>  (13) 
Cc1ccc2c(=O)cc(C(=O)NCc3cccnc3N3CCOCC3)oc2c1

>  <score_type>  (13) 
oracle

>  <origin>  (13) 
adg

>  <m_score__min__energy>  (13) 
-10.35

>  <m_primary>  (13) 
energy

$$$$
13:0
     RDKit          3D

 33 34  0  0  0  0  0  0  0  0999 V2000
   -7.2890   17.6340  -32.8540 C   0  0  0  0  0  0  0  0  0  0  0  0
   -7.6950   19.1110  -32.8440 C   0  0  0  0  0  0  0  0  0  0  0  0
   -9.2150   19.2460  -32.7010 C   0  0  0  0  0  0  0  0  0  0  0  0
   -7.0150   19.8100  -31.7470 N   0  0  0  0  0  0  0  0  0  0  0  0
   -5.9220   20.7140  -31.9760 C   0  0  0  0  0  0  0  0  0  0  0  0
   -5.6210   21.0440  -33.1570 O   0  0  0  0  0  0  0  0  0  0  0  0
   -5.1750   21.2620  -30.8710 N   0  0  0  0  0  0  0  0  0  0  0  0
   -3.8360   20.7330  -30.5560 C   0  0  0  0  0  0  0  0  0  0  0  0
   -2.7060   21.7040  -30.9490 C   0  0  0  0  0  0  0  0  0  0  0  0
   -2.6170   22.9330  -30.0250 C   0  0  0  0  0  0  0  0  0  0  0  0
   -3.7450   23.9040  -30.2490 C   0  0  0  0  0  0  0  0  0  0  0  0
   -3.5630   25.2100  -30.5200 N   0  0  0  0  0  0  0  0  0  0  0  0
   -4.7500   25.7670  -30.7150 N   0  0  0  0  0  0  0  0  0  0  0  0
   -5.7000   24.8220  -30.5820 C   0  0  0  0  0  0  0  0  0  0  0  0
   -5.0950   23.6170  -30.3060 C   0  0  0  0  0  0  0  0  0  0  0  0
   -5.7620   22.3070  -30.0250 C   0  0  0  0  0  0  0  0  0  0  0  0
   -7.1900   17.2739  -31.8193 H   0  0  0  0  0  0  0  0  0  0  0  0
   -8.0587   17.0457  -33.3749 H   0  0  0  0  0  0  0  0  0  0  0  0
   -6.3267   17.5218  -33.3749 H   0  0  0  0  0  0  0  0  0  0  0  0
   -7.3938   19.5684  -33.7980 H   0  0  0  0  0  0  0  0  0  0  0  0
   -9.4822   19.2697  -31.6342 H   0  0  0  0  0  0  0  0  0  0  0  0
   -9.5474   20.1772  -33.1831 H   0  0  0  0  0  0  0  0  0  0  0  0
   -9.7063   18.3880  -33.1831 H   0  0  0  0  0  0  0  0  0  0  0  0
   -7.3770   19.6970  -30.7730 H   0  0  0  0  0  0  0  0  0  0  0  0
   -3.7776   20.5445  -29.4738 H   0  0  0  0  0  0  0  0  0  0  0  0
   -3.6981   19.8095  -31.1376 H   0  0  0  0  0  0  0  0  0  0  0  0
   -1.7490   21.1634  -30.9057 H   0  0  0  0  0  0  0  0  0  0  0  0
   -2.9263   22.0708  -31.9624 H   0  0  0  0  0  0  0  0  0  0  0  0
   -2.6474   22.5917  -28.9797 H   0  0  0  0  0  0  0  0  0  0  0  0
   -1.6758   23.4551  -30.2521 H   0  0  0  0  0  0  0  0  0  0  0  0
   -6.7834   24.9864  -30.6783 H   0  0  0  0  0  0  0  0  0  0  0  0
   -5.6194   22.0436  -28.9666 H   0  0  0  0  0  0  0  0  0  0  0  0
   -6.8369   22.3912  -30.2430 H   0  0  0  0  0  0  0  0  0  0  0  0
  1  2  1  0
  2  3  1  0
  2  4  1  0
  4  5  1  0
  5  6  2  0
  5  7  1  0
  7  8  1  0
  8  9  1  0
  9 10  1  0
 10 11  1  0
 11 12  1  0
 12 13  1  0
 13 14  2  0
 14 15  1  0
 15 16  1  0
 16  7  1  0
 15 11  2  0
  1 17  1  0
  1 18  1  0
  1 19  1  0
  2 20  1  0
  3 21  1  0
  3 22  1  0
  3 23  1  0
  4 24  1  0
  8 25  1  0
  8 26  1  0
  9 27  1  0
  9 28  1  0
 10 29  1  0
 10 30  1  0
 14 31  1  0
 16 32  1  0
 16 33  1  0
M  CHG  1  12  -1
M  END
>  <UniqueID>  (14) 
14

>  <SMILES>  (14) 
CC(C)NC(=O)N1CCCc2[n-]ncc2C1

>  <Energy>  (14) 
57.76353185584565

>  <Genealogy>  (14) 
CC(C)NC(=O)N1CCCc2[n-]ncc2C1 (protonated)
CC(C)NC(=O)N1CCCc2[n-]ncc2C1 (3D coordinates assigned)
CC(C)NC(=O)N1CCCc2[n-]ncc2C1 (nonaromatic ring conformer: 57.76353185584565 kcal/mol)

>  <smiles>  (14) 
CC(C)NC(=O)N1CCCc2[nH]ncc2C1

>  <score_type>  (14) 
oracle

>  <origin>  (14) 
adg

>  <m_score__min__energy>  (14) 
-6.3799999999999999

>  <m_primary>  (14) 
energy

$$$$
14:0
     RDKit          3D

 47 50  0  0  0  0  0  0  0  0999 V2000
   -7.0225   24.3475  -32.6402 H   0  0  0  0  0  0  0  0  0  0  0  0
   -6.9350   23.6220  -31.8180 C   0  0  0  0  0  0  0  0  0  0  0  0
   -7.0960   24.0720  -30.5660 C   0  0  0  0  0  0  0  0  0  0  0  0
   -8.1010   24.0846  -30.1190 H   0  0  0  0  0  0  0  0  0  0  0  0
   -5.9140   24.5630  -29.7590 C   0  0  2  0  0  0  0  0  0  0  0  0
   -6.3226   25.2992  -29.0511 H   0  0  0  0  0  0  0  0  0  0  0  0
   -4.8370   25.2630  -30.6460 C   0  0  0  0  0  0  0  0  0  0  0  0
   -5.1230   25.1628  -31.7034 H   0  0  0  0  0  0  0  0  0  0  0  0
   -4.7836   26.3230  -30.3569 H   0  0  0  0  0  0  0  0  0  0  0  0
   -3.4980   24.6540  -30.4470 N   0  0  0  0  0  0  0  0  0  0  0  0
   -3.1130   24.7600  -29.0180 C   0  0  0  0  0  0  0  0  0  0  0  0
   -2.1149   24.3180  -28.8820 H   0  0  0  0  0  0  0  0  0  0  0  0
   -3.1090   25.8236  -28.7374 H   0  0  0  0  0  0  0  0  0  0  0  0
   -4.1230   24.0170  -28.1060 C   0  0  0  0  0  0  0  0  0  0  0  0
   -3.6041   23.2170  -27.5576 H   0  0  0  0  0  0  0  0  0  0  0  0
   -4.5619   24.7245  -27.3871 H   0  0  0  0  0  0  0  0  0  0  0  0
   -5.2370   23.4060  -28.9770 C   0  0  0  0  0  0  0  0  0  0  0  0
   -5.9818   22.8715  -28.3690 H   0  0  0  0  0  0  0  0  0  0  0  0
   -4.5690   22.4400  -29.9790 C   0  0  0  0  0  0  0  0  0  0  0  0
   -4.0500   21.6409  -29.4294 H   0  0  0  0  0  0  0  0  0  0  0  0
   -5.3357   21.9947  -30.6300 H   0  0  0  0  0  0  0  0  0  0  0  0
   -3.5470   23.2250  -30.8400 C   0  0  0  0  0  0  0  0  0  0  0  0
   -2.5493   22.7817  -30.7053 H   0  0  0  0  0  0  0  0  0  0  0  0
   -3.8602   23.1645  -31.8927 H   0  0  0  0  0  0  0  0  0  0  0  0
   -6.6470   22.2120  -32.1670 C   0  0  0  0  0  0  0  0  0  0  0  0
   -5.4420   21.9300  -32.7350 N   0  0  0  0  0  0  0  0  0  0  0  0
   -5.0810   20.6680  -33.0870 C   0  0  0  0  0  0  0  0  0  0  0  0
   -4.0972   20.4864  -33.5444 H   0  0  0  0  0  0  0  0  0  0  0  0
   -5.9580   19.5980  -32.8690 C   0  0  0  0  0  0  0  0  0  0  0  0
   -5.5730   18.2150  -33.2340 C   0  0  0  0  0  0  0  0  0  0  0  0
   -5.0790   17.9730  -34.5270 C   0  0  0  0  0  0  0  0  0  0  0  0
   -4.9660   18.8094  -35.2325 H   0  0  0  0  0  0  0  0  0  0  0  0
   -4.7300   16.6800  -34.9250 C   0  0  0  0  0  0  0  0  0  0  0  0
   -4.3456   16.5019  -35.9402 H   0  0  0  0  0  0  0  0  0  0  0  0
   -4.8690   15.6150  -34.0350 C   0  0  0  0  0  0  0  0  0  0  0  0
   -4.6026   14.5961  -34.3527 H   0  0  0  0  0  0  0  0  0  0  0  0
   -5.3450   15.8390  -32.7430 C   0  0  0  0  0  0  0  0  0  0  0  0
   -5.4562   14.9927  -32.0492 H   0  0  0  0  0  0  0  0  0  0  0  0
   -5.6840   17.1360  -32.3190 C   0  0  0  0  0  0  0  0  0  0  0  0
   -6.1700   17.3360  -30.9070 C   0  0  0  0  0  0  0  0  0  0  0  0
   -5.3895   17.0148  -30.2016 H   0  0  0  0  0  0  0  0  0  0  0  0
   -6.3959   18.4002  -30.7442 H   0  0  0  0  0  0  0  0  0  0  0  0
   -7.0795   16.7391  -30.7442 H   0  0  0  0  0  0  0  0  0  0  0  0
   -7.1910   19.8550  -32.2610 C   0  0  0  0  0  0  0  0  0  0  0  0
   -7.8861   19.0264  -32.0603 H   0  0  0  0  0  0  0  0  0  0  0  0
   -7.5430   21.1580  -31.9080 C   0  0  0  0  0  0  0  0  0  0  0  0
   -8.5133   21.3600  -31.4309 H   0  0  0  0  0  0  0  0  0  0  0  0
  1  2  1  0
  2  3  2  0
  3  4  1  0
  3  5  1  0
  5  6  1  1
  5  7  1  0
  7  8  1  0
  7  9  1  0
  7 10  1  0
 10 11  1  0
 11 12  1  0
 11 13  1  0
 11 14  1  0
 14 15  1  0
 14 16  1  0
 14 17  1  0
 17 18  1  0
 17 19  1  0
 19 20  1  0
 19 21  1  0
 19 22  1  0
 22 23  1  0
 22 24  1  0
  2 25  1  0
 25 26  2  0
 26 27  1  0
 27 28  1  0
 27 29  2  0
 29 30  1  0
 30 31  2  0
 31 32  1  0
 31 33  1  0
 33 34  1  0
 33 35  2  0
 35 36  1  0
 35 37  1  0
 37 38  1  0
 37 39  2  0
 39 40  1  0
 40 41  1  0
 40 42  1  0
 40 43  1  0
 29 44  1  0
 44 45  1  0
 44 46  2  0
 46 47  1  0
 17  5  1  0
 46 25  1  0
 22 10  1  0
 39 30  1  0
M  END
>  <UniqueID>  (15) 
15

>  <SMILES>  (15) 
Cc1ccccc1-c1ccc(/C=C/[C@@H]2CN3CCC2CC3)nc1

>  <Energy>  (15) 
72.62826311573255

>  <Genealogy>  (15) 
Cc1ccccc1-c1ccc(C=C[C@@H]2CN3CCC2CC3)nc1 (chirality)
Cc1ccccc1-c1ccc(/C=C/[C@@H]2CN3CCC2CC3)nc1 (cis-trans isomerization)
Cc1ccccc1-c1ccc(/C=C/[C@@H]2CN3CCC2CC3)nc1 (3D coordinates assigned)
Cc1ccccc1-c1ccc(/C=C/[C@@H]2CN3CCC2CC3)nc1 (nonaromatic ring conformer: 72.62826311573255 kcal/mol)

>  <smiles>  (15) 
Cc1ccccc1-c1ccc(C=CC2CN3CCC2CC3)nc1

>  <score_type>  (15) 
oracle

>  <origin>  (15) 
adg

>  <m_score__min__energy>  (15) 
-8.9900000000000002

>  <m_primary>  (15) 
energy

$$$$
15:0
     RDKit          3D

 49 51  0  0  0  0  0  0  0  0999 V2000
   -6.7760   25.2500  -29.7040 C   0  0  0  0  0  0  0  0  0  0  0  0
   -7.0770   24.4700  -30.7460 C   0  0  0  0  0  0  0  0  0  0  0  0
   -6.0390   24.0620  -31.7530 C   0  0  0  0  0  0  0  0  0  0  0  0
   -4.9790   23.2300  -31.1350 N   0  0  0  0  0  0  0  0  0  0  0  0
   -5.0310   21.8480  -31.1680 C   0  0  0  0  0  0  0  0  0  0  0  0
   -6.2140   21.0640  -31.7160 C   0  0  0  0  0  0  0  0  0  0  0  0
   -5.7920   19.7690  -32.3040 N   0  0  2  0  0  0  0  0  0  0  0  0
   -5.6870   19.8260  -33.7940 C   0  0  0  0  0  0  0  0  0  0  0  0
   -5.7900   18.4540  -34.4920 C   0  0  0  0  0  0  0  0  0  0  0  0
   -4.9590   17.3470  -33.8070 C   0  0  0  0  0  0  0  0  0  0  0  0
   -5.7220   16.5080  -32.7670 C   0  0  0  0  0  0  0  0  0  0  0  0
   -6.1380   17.2990  -31.5220 C   0  0  0  0  0  0  0  0  0  0  0  0
   -6.6440   18.7000  -31.7990 C   0  0  0  0  0  0  0  0  0  0  0  0
   -7.8380   18.9140  -31.6420 O   0  0  0  0  0  0  0  0  0  0  0  0
   -4.0140   21.1180  -30.6390 N   0  0  0  0  0  0  0  0  0  0  0  0
   -2.9400   21.6940  -30.0570 C   0  0  0  0  0  0  0  0  0  0  0  0
   -1.9200   20.8970  -29.5260 C   0  0  0  0  0  0  0  0  0  0  0  0
   -0.8150   21.4900  -28.9130 C   0  0  0  0  0  0  0  0  0  0  0  0
   -0.7230   22.8840  -28.8280 C   0  0  0  0  0  0  0  0  0  0  0  0
    0.6950   23.6430  -28.0360 S   0  0  0  0  0  0  0  0  0  0  0  0
   -0.2400   25.1060  -27.4890 C   0  0  0  0  0  0  0  0  0  0  0  0
   -1.7450   23.6860  -29.3540 C   0  0  0  0  0  0  0  0  0  0  0  0
   -2.8610   23.0920  -29.9760 C   0  0  0  0  0  0  0  0  0  0  0  0
   -3.9090   23.8510  -30.5260 C   0  0  0  0  0  0  0  0  0  0  0  0
   -3.8570   25.1120  -30.4530 O   0  0  0  0  0  0  0  0  0  0  0  0
   -7.5582   25.5315  -28.9836 H   0  0  0  0  0  0  0  0  0  0  0  0
   -5.7460   25.6107  -29.5664 H   0  0  0  0  0  0  0  0  0  0  0  0
   -8.1115   24.1173  -30.8700 H   0  0  0  0  0  0  0  0  0  0  0  0
   -6.5251   23.4848  -32.5534 H   0  0  0  0  0  0  0  0  0  0  0  0
   -5.5718   24.9731  -32.1551 H   0  0  0  0  0  0  0  0  0  0  0  0
   -6.9222   20.8693  -30.8971 H   0  0  0  0  0  0  0  0  0  0  0  0
   -6.6830   21.6634  -32.5102 H   0  0  0  0  0  0  0  0  0  0  0  0
   -4.8240   19.5680  -31.9530 H   0  0  0  0  0  0  0  0  0  0  0  0
   -6.4977   20.4663  -34.1720 H   0  0  0  0  0  0  0  0  0  0  0  0
   -4.6866   20.2214  -34.0238 H   0  0  0  0  0  0  0  0  0  0  0  0
   -6.8455   18.1443  -34.4958 H   0  0  0  0  0  0  0  0  0  0  0  0
   -5.3863   18.5781  -35.5077 H   0  0  0  0  0  0  0  0  0  0  0  0
   -4.5879   16.6668  -34.5878 H   0  0  0  0  0  0  0  0  0  0  0  0
   -4.1570   17.8614  -33.2573 H   0  0  0  0  0  0  0  0  0  0  0  0
   -6.6291   16.1067  -33.2425 H   0  0  0  0  0  0  0  0  0  0  0  0
   -5.0385   15.7147  -32.4301 H   0  0  0  0  0  0  0  0  0  0  0  0
   -6.9377   16.7407  -31.0133 H   0  0  0  0  0  0  0  0  0  0  0  0
   -5.2310   17.4127  -30.9100 H   0  0  0  0  0  0  0  0  0  0  0  0
   -1.9890   19.8011  -29.5917 H   0  0  0  0  0  0  0  0  0  0  0  0
   -0.0151   20.8606  -28.4960 H   0  0  0  0  0  0  0  0  0  0  0  0
   -0.2605   25.1381  -26.3897 H   0  0  0  0  0  0  0  0  0  0  0  0
    0.2446   26.0156  -27.8734 H   0  0  0  0  0  0  0  0  0  0  0  0
   -1.2690   25.0483  -27.8734 H   0  0  0  0  0  0  0  0  0  0  0  0
   -1.6757   24.7814  -29.2811 H   0  0  0  0  0  0  0  0  0  0  0  0
  1  2  2  0
  2  3  1  0
  3  4  1  0
  4  5  1  0
  5  6  1  0
  6  7  1  0
  7  8  1  0
  8  9  1  0
  9 10  1  0
 10 11  1  0
 11 12  1  0
 12 13  1  0
 13 14  2  0
  5 15  2  0
 15 16  1  0
 16 17  2  0
 17 18  1  0
 18 19  2  0
 19 20  1  0
 20 21  1  0
 19 22  1  0
 22 23  2  0
 23 24  1  0
 24 25  2  0
 24  4  1  0
 13  7  1  0
 23 16  1  0
  1 26  1  0
  1 27  1  0
  2 28  1  0
  3 29  1  0
  3 30  1  0
  6 31  1  0
  6 32  1  0
  7 33  1  1
  8 34  1  0
  8 35  1  0
  9 36  1  0
  9 37  1  0
 10 38  1  0
 10 39  1  0
 11 40  1  0
 11 41  1  0
 12 42  1  0
 12 43  1  0
 17 44  1  0
 18 45  1  0
 21 46  1  0
 21 47  1  0
 21 48  1  0
 22 49  1  0
M  CHG  1   7   1
M  END
>  <UniqueID>  (16) 
16

>  <SMILES>  (16) 
C=CCn1c(C[N@@H+]2CCCCCC2=O)nc2ccc(SC)cc2c1=O

>  <Energy>  (16) 
65.94556823147116

>  <Genealogy>  (16) 
C=CCn1c(C[NH+]2CCCCCC2=O)nc2ccc(SC)cc2c1=O (protonated)
C=CCn1c(C[N@@H+]2CCCCCC2=O)nc2ccc(SC)cc2c1=O (chirality)
C=CCn1c(C[N@@H+]2CCCCCC2=O)nc2ccc(SC)cc2c1=O (3D coordinates assigned)
C=CCn1c(C[N@@H+]2CCCCCC2=O)nc2ccc(SC)cc2c1=O (nonaromatic ring conformer: 65.94556823147116 kcal/mol)

>  <smiles>  (16) 
C=CCn1c(CN2CCCCCC2=O)nc2ccc(SC)cc2c1=O

>  <score_type>  (16) 
oracle

>  <origin>  (16) 
adg

>  <m_score__min__energy>  (16) 
-5.8600000000000003

>  <m_primary>  (16) 
energy

$$$$
16:0
     RDKit          3D

 27 28  0  0  0  0  0  0  0  0999 V2000
   -3.8710   25.2870  -30.4710 O   0  0  0  0  0  0  0  0  0  0  0  0
   -4.4930   24.2910  -30.8950 N   0  0  0  0  0  0  0  0  0  0  0  0
   -5.6570   24.4890  -31.6000 O   0  0  0  0  0  0  0  0  0  0  0  0
   -3.8650   23.0000  -30.8860 C   0  0  0  0  0  0  0  0  0  0  0  0
   -2.9480   22.7040  -29.8610 C   0  0  0  0  0  0  0  0  0  0  0  0
   -2.3210   21.4600  -29.8020 C   0  0  0  0  0  0  0  0  0  0  0  0
   -1.4340   21.1930  -28.8120 F   0  0  0  0  0  0  0  0  0  0  0  0
   -2.6100   20.4860  -30.7560 C   0  0  0  0  0  0  0  0  0  0  0  0
   -3.5270   20.7540  -31.7720 C   0  0  0  0  0  0  0  0  0  0  0  0
   -4.1600   22.0120  -31.8660 C   0  0  0  0  0  0  0  0  0  0  0  0
   -5.1620   22.2170  -32.8910 N   0  0  0  0  0  0  0  0  0  0  0  0
   -6.3740   21.4970  -32.5710 C   0  0  0  0  0  0  0  0  0  0  0  0
   -6.5380   20.1580  -32.9710 C   0  0  0  0  0  0  0  0  0  0  0  0
   -7.7070   19.4610  -32.6530 C   0  0  0  0  0  0  0  0  0  0  0  0
   -8.7250   20.0930  -31.9330 C   0  0  0  0  0  0  0  0  0  0  0  0
   -8.5740   21.4210  -31.5300 C   0  0  0  0  0  0  0  0  0  0  0  0
   -7.4060   22.1220  -31.8450 C   0  0  0  0  0  0  0  0  0  0  0  0
   -2.7230   23.4629  -29.0971 H   0  0  0  0  0  0  0  0  0  0  0  0
   -2.1145   19.5051  -30.7076 H   0  0  0  0  0  0  0  0  0  0  0  0
   -3.7604   19.9734  -32.5110 H   0  0  0  0  0  0  0  0  0  0  0  0
   -4.8350   21.9210  -33.8370 H   0  0  0  0  0  0  0  0  0  0  0  0
   -5.3520   23.2430  -32.9580 H   0  0  0  0  0  0  0  0  0  0  0  0
   -5.7403   19.6561  -33.5382 H   0  0  0  0  0  0  0  0  0  0  0  0
   -7.8261   18.4143  -32.9695 H   0  0  0  0  0  0  0  0  0  0  0  0
   -9.6450   19.5439  -31.6840 H   0  0  0  0  0  0  0  0  0  0  0  0
   -9.3758   21.9170  -30.9633 H   0  0  0  0  0  0  0  0  0  0  0  0
   -7.2926   23.1679  -31.5238 H   0  0  0  0  0  0  0  0  0  0  0  0
  1  2  2  0
  2  3  1  0
  2  4  1  0
  4  5  2  0
  5  6  1  0
  6  7  1  0
  6  8  2  0
  8  9  1  0
  9 10  2  0
 10 11  1  0
 11 12  1  0
 12 13  2  0
 13 14  1  0
 14 15  2  0
 15 16  1  0
 16 17  2  0
 10  4  1  0
 17 12  1  0
  5 18  1  0
  8 19  1  0
  9 20  1  0
 11 21  1  0
 11 22  1  0
 13 23  1  0
 14 24  1  0
 15 25  1  0
 16 26  1  0
 17 27  1  0
M  CHG  3   2   1   3  -1  11   1
M  END
>  <UniqueID>  (17) 
17

>  <SMILES>  (17) 
O=[N+]([O-])c1cc(F)ccc1[NH2+]c1ccccc1

>  <Energy>  (17) 
38.380960484846575

>  <Genealogy>  (17) 
O=[N+]([O-])c1cc(F)ccc1[NH2+]c1ccccc1 (protonated)
O=[N+]([O-])c1cc(F)ccc1[NH2+]c1ccccc1 (3D coordinates assigned)
O=[N+]([O-])c1cc(F)ccc1[NH2+]c1ccccc1 (optimized conformer: 38.380960484846575 kcal/mol)

>  <smiles>  (17) 
O=[N+]([O-])c1cc(F)ccc1Nc1ccccc1

>  <score_type>  (17) 
oracle

>  <origin>  (17) 
adg

>  <m_score__min__energy>  (17) 
-6.3799999999999999

>  <m_primary>  (17) 
energy

$$$$
17:0
     RDKit          3D

 31 31  0  0  0  0  0  0  0  0999 V2000
   -5.7890   25.6710  -31.4012 H   0  0  0  0  0  0  0  0  0  0  0  0
   -5.1560   25.0000  -30.8020 C   0  0  0  0  0  0  0  0  0  0  0  0
   -3.8710   25.2950  -30.4820 N   0  0  0  0  0  0  0  0  0  0  0  0
   -3.3080   24.3150  -29.7370 C   0  0  0  0  0  0  0  0  0  0  0  0
   -2.0830   24.3390  -29.2990 N   0  0  0  0  0  0  0  0  0  0  0  0
   -1.5030   25.3540  -28.4670 C   0  0  0  0  0  0  0  0  0  0  0  0
   -1.2080   26.4900  -28.9300 O   0  0  0  0  0  0  0  0  0  0  0  0
   -1.2250   25.0480  -27.0360 C   0  0  0  0  0  0  0  0  0  0  0  0
   -1.8265   25.7101  -26.3959 H   0  0  0  0  0  0  0  0  0  0  0  0
   -1.4863   24.0000  -26.8277 H   0  0  0  0  0  0  0  0  0  0  0  0
   -0.1568   25.2079  -26.8277 H   0  0  0  0  0  0  0  0  0  0  0  0
   -4.3710   23.0460  -29.4410 S   0  0  0  0  0  0  0  0  0  0  0  0
   -5.6070   23.7810  -30.3110 C   0  0  0  0  0  0  0  0  0  0  0  0
   -7.2370   23.0850  -30.5770 S   0  0  0  0  0  0  0  0  0  0  0  0
   -6.9540   22.6800  -32.3360 C   0  0  0  0  0  0  0  0  0  0  0  0
   -5.8814   22.7768  -32.5599 H   0  0  0  0  0  0  0  0  0  0  0  0
   -7.5397   23.3750  -32.9556 H   0  0  0  0  0  0  0  0  0  0  0  0
   -7.3940   21.2810  -32.6390 C   0  0  0  0  0  0  0  0  0  0  0  0
   -6.6480   20.5300  -33.3240 O   0  0  0  0  0  0  0  0  0  0  0  0
   -8.6370   20.7890  -32.1240 N   0  0  0  0  0  0  0  0  0  0  0  0
   -9.2420   21.4400  -31.5720 H   0  0  0  0  0  0  0  0  0  0  0  0
   -9.0580   19.4030  -32.3340 C   0  0  0  0  0  0  0  0  0  0  0  0
   -9.0156   19.1762  -33.4095 H   0  0  0  0  0  0  0  0  0  0  0  0
  -10.0825   19.2928  -31.9490 H   0  0  0  0  0  0  0  0  0  0  0  0
   -8.1550   18.4180  -31.5820 C   0  0  0  0  0  0  0  0  0  0  0  0
   -8.7877   17.6973  -31.0432 H   0  0  0  0  0  0  0  0  0  0  0  0
   -7.5279   18.9962  -30.8874 H   0  0  0  0  0  0  0  0  0  0  0  0
   -7.2280   17.6510  -32.5260 C   0  0  0  0  0  0  0  0  0  0  0  0
   -6.5125   17.0590  -31.9364 H   0  0  0  0  0  0  0  0  0  0  0  0
   -7.8249   16.9792  -33.1603 H   0  0  0  0  0  0  0  0  0  0  0  0
   -6.6798   18.3631  -33.1603 H   0  0  0  0  0  0  0  0  0  0  0  0
  1  2  1  0
  2  3  1  0
  3  4  1  0
  4  5  2  0
  5  6  1  0
  6  7  2  0
  6  8  1  0
  8  9  1  0
  8 10  1  0
  8 11  1  0
  4 12  1  0
 12 13  1  0
 13 14  1  0
 14 15  1  0
 15 16  1  0
 15 17  1  0
 15 18  1  0
 18 19  2  0
 18 20  1  0
 20 21  1  0
 20 22  1  0
 22 23  1  0
 22 24  1  0
 22 25  1  0
 25 26  1  0
 25 27  1  0
 25 28  1  0
 28 29  1  0
 28 30  1  0
 28 31  1  0
 13  2  2  0
M  CHG  1   3  -1
M  END
>  <UniqueID>  (18) 
18

>  <SMILES>  (18) 
CCCNC(=O)CSc1c[n-]/c(=N\C(C)=O)s1

>  <Energy>  (18) 
46.477053524720866

>  <Genealogy>  (18) 
CCCNC(=O)CSc1c[n-]c(=NC(C)=O)s1 (protonated)
CCCNC(=O)CSc1c[n-]/c(=N\C(C)=O)s1 (cis-trans isomerization)
CCCNC(=O)CSc1c[n-]/c(=N\C(C)=O)s1 (3D coordinates assigned)
CCCNC(=O)CSc1c[n-]/c(=N\C(C)=O)s1 (optimized conformer: 46.477053524720866 kcal/mol)

>  <smiles>  (18) 
CCCNC(=O)CSc1c[nH]c(=NC(C)=O)s1

>  <score_type>  (18) 
oracle

>  <origin>  (18) 
adg

>  <m_score__min__energy>  (18) 
-8.1199999999999992

>  <m_primary>  (18) 
energy

$$$$
18:0
     RDKit          3D

 36 37  0  0  1  0  0  0  0  0999 V2000
   -2.6930   20.9500  -28.8000 C   0  0  0  0  0  0  0  0  0  0  0  0
   -3.3520   22.2730  -28.8840 C   0  0  0  0  0  0  0  0  0  0  0  0
   -3.5140   22.9800  -27.7420 N   0  0  0  0  0  0  0  0  0  0  0  0
   -4.1060   24.1720  -27.8050 C   0  0  0  0  0  0  0  0  0  0  0  0
   -4.2620   24.8510  -26.7110 N   0  0  0  0  0  0  0  0  0  0  0  0
   -4.5460   24.6950  -28.9540 N   0  0  0  0  0  0  0  0  0  0  0  0
   -4.4160   24.0480  -30.1050 C   0  0  0  0  0  0  0  0  0  0  0  0
   -4.8270   24.5260  -31.2160 N   0  0  0  0  0  0  0  0  0  0  0  0
   -6.0910   24.1470  -31.8070 C   0  0  0  0  0  0  0  0  0  0  0  0
   -6.9810   23.4220  -30.8260 C   0  0  0  0  0  0  0  0  0  0  0  0
   -7.6300   22.2360  -31.4410 C   0  0  0  0  0  0  0  0  0  0  0  0
   -8.9860   21.9970  -31.3590 C   0  0  0  0  0  0  0  0  0  0  0  0
   -9.4740   20.8530  -31.9750 C   0  0  0  0  0  0  0  0  0  0  0  0
   -8.6590   19.9690  -32.6530 C   0  0  0  0  0  0  0  0  0  0  0  0
   -7.3140   20.2310  -32.7190 C   0  0  0  0  0  0  0  0  0  0  0  0
   -6.7870   21.3580  -32.1200 C   0  0  0  0  0  0  0  0  0  0  0  0
   -3.8000   22.8000  -30.0690 C   0  0  0  0  0  0  0  0  0  0  0  0
   -3.6310   22.0420  -31.3250 C   0  0  0  0  0  0  0  0  0  0  0  0
   -2.5560   20.6750  -27.7438 H   0  0  0  0  0  0  0  0  0  0  0  0
   -3.3206   20.1955  -29.2969 H   0  0  0  0  0  0  0  0  0  0  0  0
   -1.7127   20.9964  -29.2969 H   0  0  0  0  0  0  0  0  0  0  0  0
   -3.1930   22.6240  -26.8220 H   0  0  0  0  0  0  0  0  0  0  0  0
   -4.5680   25.8570  -26.7480 H   0  0  0  0  0  0  0  0  0  0  0  0
   -5.0010   25.6250  -28.9560 H   0  0  0  0  0  0  0  0  0  0  0  0
   -6.6081   25.0547  -32.1515 H   0  0  0  0  0  0  0  0  0  0  0  0
   -5.8828   23.4647  -32.6444 H   0  0  0  0  0  0  0  0  0  0  0  0
   -6.3731   23.0916  -29.9708 H   0  0  0  0  0  0  0  0  0  0  0  0
   -7.7718   24.1159  -30.5049 H   0  0  0  0  0  0  0  0  0  0  0  0
   -9.6557   22.6874  -30.8253 H   0  0  0  0  0  0  0  0  0  0  0  0
  -10.5523   20.6426  -31.9208 H   0  0  0  0  0  0  0  0  0  0  0  0
   -9.0797   19.0721  -33.1310 H   0  0  0  0  0  0  0  0  0  0  0  0
   -6.6492   19.5369  -33.2540 H   0  0  0  0  0  0  0  0  0  0  0  0
   -5.7076   21.5618  -32.1784 H   0  0  0  0  0  0  0  0  0  0  0  0
   -3.3971   20.9928  -31.0914 H   0  0  0  0  0  0  0  0  0  0  0  0
   -4.5616   22.0888  -31.9096 H   0  0  0  0  0  0  0  0  0  0  0  0
   -2.8084   22.4797  -31.9096 H   0  0  0  0  0  0  0  0  0  0  0  0
  1  2  1  0
  2  3  1  0
  3  4  1  0
  4  5  2  3
  4  6  1  0
  6  7  1  0
  7  8  2  0
  8  9  1  0
  9 10  1  0
 10 11  1  0
 11 12  2  0
 12 13  1  0
 13 14  2  0
 14 15  1  0
 15 16  2  0
  7 17  1  0
 17 18  1  0
 17  2  2  0
 16 11  1  0
  1 19  1  0
  1 20  1  0
  1 21  1  0
  3 22  1  0
  5 23  1  0
  6 24  1  0
  9 25  1  0
  9 26  1  0
 10 27  1  0
 10 28  1  0
 12 29  1  0
 13 30  1  0
 14 31  1  0
 15 32  1  0
 16 33  1  0
 18 34  1  0
 18 35  1  0
 18 36  1  0
M  END
>  <smiles>  (19) 
Cc1[nH]c(=N)[nH]c(=NCCc2ccccc2)c1C

>  <score_type>  (19) 
oracle

>  <origin>  (19) 
adg

>  <m_score__min__energy>  (19) 
-7.3899999999999997

>  <m_primary>  (19) 
energy

$$$$
19:0
     RDKit          3D

 42 44  0  0  0  0  0  0  0  0999 V2000
   -1.1990   20.0260  -33.5200 C   0  0  0  0  0  0  0  0  0  0  0  0
   -2.6290   20.2740  -33.1400 C   0  0  0  0  0  0  0  0  0  0  0  0
   -2.9480   21.2750  -32.2140 C   0  0  0  0  0  0  0  0  0  0  0  0
   -4.2800   21.5230  -31.8770 C   0  0  0  0  0  0  0  0  0  0  0  0
   -5.3140   20.7780  -32.4620 C   0  0  0  0  0  0  0  0  0  0  0  0
   -6.6680   21.0330  -32.0620 N   0  0  0  0  0  0  0  0  0  0  0  0
   -7.5960   20.1060  -31.7750 C   0  0  0  0  0  0  0  0  0  0  0  0
   -8.7710   20.7610  -31.4760 C   0  0  0  0  0  0  0  0  0  0  0  0
   -8.5910   22.0930  -31.5890 N   0  0  0  0  0  0  0  0  0  0  0  0
   -7.2990   22.2210  -31.9540 C   0  0  0  0  0  0  0  0  0  0  0  0
   -6.5400   23.8190  -32.2760 S   0  0  0  0  0  0  0  0  0  0  0  0
   -5.9880   24.0970  -30.5540 C   0  0  0  0  0  0  0  0  0  0  0  0
   -5.0010   25.2300  -30.4580 C   0  0  0  0  0  0  0  0  0  0  0  0
   -5.4150   26.4180  -30.5310 O   0  0  0  0  0  0  0  0  0  0  0  0
   -3.5850   25.0000  -30.4690 N   0  0  0  0  0  0  0  0  0  0  0  0
   -2.8400   24.2950  -29.4700 C   0  0  0  0  0  0  0  0  0  0  0  0
   -3.2350   22.9980  -29.1150 C   0  0  0  0  0  0  0  0  0  0  0  0
   -2.5080   22.2770  -28.1630 C   0  0  0  0  0  0  0  0  0  0  0  0
   -1.3700   22.8380  -27.5770 C   0  0  0  0  0  0  0  0  0  0  0  0
   -0.9500   24.1180  -27.9520 C   0  0  0  0  0  0  0  0  0  0  0  0
   -1.6750   24.8430  -28.9030 C   0  0  0  0  0  0  0  0  0  0  0  0
   -1.2210   26.0560  -29.2990 F   0  0  0  0  0  0  0  0  0  0  0  0
   -5.0060   19.8130  -33.4480 C   0  0  0  0  0  0  0  0  0  0  0  0
   -6.0780   19.0380  -34.1650 C   0  0  0  0  0  0  0  0  0  0  0  0
   -3.6610   19.5580  -33.7650 C   0  0  0  0  0  0  0  0  0  0  0  0
   -0.5907   19.9205  -32.6096 H   0  0  0  0  0  0  0  0  0  0  0  0
   -1.1324   19.1029  -34.1145 H   0  0  0  0  0  0  0  0  0  0  0  0
   -0.8254   20.8728  -34.1145 H   0  0  0  0  0  0  0  0  0  0  0  0
   -2.1460   21.8682  -31.7504 H   0  0  0  0  0  0  0  0  0  0  0  0
   -4.5204   22.3094  -31.1464 H   0  0  0  0  0  0  0  0  0  0  0  0
   -7.4450   19.0164  -31.7780 H   0  0  0  0  0  0  0  0  0  0  0  0
   -9.7133   20.2716  -31.1886 H   0  0  0  0  0  0  0  0  0  0  0  0
   -6.8645   24.3351  -29.9334 H   0  0  0  0  0  0  0  0  0  0  0  0
   -5.4911   23.1807  -30.2026 H   0  0  0  0  0  0  0  0  0  0  0  0
   -4.1198   22.5459  -29.5869 H   0  0  0  0  0  0  0  0  0  0  0  0
   -2.8323   21.2662  -27.8747 H   0  0  0  0  0  0  0  0  0  0  0  0
   -0.8049   22.2729  -26.8211 H   0  0  0  0  0  0  0  0  0  0  0  0
   -0.0483   24.5551  -27.4984 H   0  0  0  0  0  0  0  0  0  0  0  0
   -6.7397   18.5596  -33.4280 H   0  0  0  0  0  0  0  0  0  0  0  0
   -6.6652   19.7218  -34.7956 H   0  0  0  0  0  0  0  0  0  0  0  0
   -5.6128   18.2661  -34.7956 H   0  0  0  0  0  0  0  0  0  0  0  0
   -3.4145   18.7885  -34.5114 H   0  0  0  0  0  0  0  0  0  0  0  0
  1  2  1  0
  2  3  2  0
  3  4  1  0
  4  5  2  0
  5  6  1  0
  6  7  1  0
  7  8  2  0
  8  9  1  0
  9 10  2  0
 10 11  1  0
 11 12  1  0
 12 13  1  0
 13 14  2  0
 13 15  1  0
 15 16  1  0
 16 17  2  0
 17 18  1  0
 18 19  2  0
 19 20  1  0
 20 21  2  0
 21 22  1  0
  5 23  1  0
 23 24  1  0
 23 25  2  0
 25  2  1  0
 10  6  1  0
 21 16  1  0
  1 26  1  0
  1 27  1  0
  1 28  1  0
  3 29  1  0
  4 30  1  0
  7 31  1  0
  8 32  1  0
 12 33  1  0
 12 34  1  0
 17 35  1  0
 18 36  1  0
 19 37  1  0
 20 38  1  0
 24 39  1  0
 24 40  1  0
 24 41  1  0
 25 42  1  0
M  CHG  1  15  -1
M  END
>  <UniqueID>  (20) 
19

>  <SMILES>  (20) 
Cc1ccc(-n2ccnc2SCC(=O)[N-]c2ccccc2F)c(C)c1

>  <Energy>  (20) 
80.88917379630534

>  <Genealogy>  (20) 
Cc1ccc(-n2ccnc2SCC(=O)[N-]c2ccccc2F)c(C)c1 (protonated)
Cc1ccc(-n2ccnc2SCC(=O)[N-]c2ccccc2F)c(C)c1 (3D coordinates assigned)
Cc1ccc(-n2ccnc2SCC(=O)[N-]c2ccccc2F)c(C)c1 (optimized conformer: 80.88917379630534 kcal/mol)

>  <smiles>  (20) 
Cc1ccc(-n2ccnc2SCC(=O)Nc2ccccc2F)c(C)c1

>  <score_type>  (20) 
oracle

>  <origin>  (20) 
adg

>  <m_score__min__energy>  (20) 
-11.18

>  <m_primary>  (20) 
energy

$$$$
20:0
     RDKit          3D

 46 49  0  0  0  0  0  0  0  0999 V2000
   -9.3630   18.1790  -31.5790 C   0  0  0  0  0  0  0  0  0  0  0  0
   -7.9700   17.8940  -31.5010 O   0  0  0  0  0  0  0  0  0  0  0  0
   -7.0770   17.9660  -32.5810 C   0  0  0  0  0  0  0  0  0  0  0  0
   -6.5020   16.8070  -33.1400 C   0  0  0  0  0  0  0  0  0  0  0  0
   -5.6550   16.8990  -34.2470 C   0  0  0  0  0  0  0  0  0  0  0  0
   -5.3740   18.1430  -34.8120 C   0  0  0  0  0  0  0  0  0  0  0  0
   -5.9280   19.3010  -34.2620 C   0  0  0  0  0  0  0  0  0  0  0  0
   -6.7630   19.2270  -33.1350 C   0  0  0  0  0  0  0  0  0  0  0  0
   -7.3030   20.4800  -32.5660 C   0  0  0  0  0  0  0  0  0  0  0  0
   -8.6020   20.8330  -32.6410 N   0  0  0  0  0  0  0  0  0  0  0  0
   -8.7230   22.0050  -32.0330 N   0  0  0  0  0  0  0  0  0  0  0  0
   -7.5540   22.4140  -31.5650 N   0  0  0  0  0  0  0  0  0  0  0  0
   -7.3560   23.7300  -30.9520 C   0  0  0  0  0  0  0  0  0  0  0  0
   -6.1700   24.4620  -31.5880 C   0  0  0  0  0  0  0  0  0  0  0  0
   -5.3850   25.2330  -30.5730 C   0  0  0  0  0  0  0  0  0  0  0  0
   -3.9650   25.3050  -30.6720 N   0  0  0  0  0  0  0  0  0  0  0  0
   -5.9760   25.7940  -29.6110 O   0  0  0  0  0  0  0  0  0  0  0  0
   -6.6260   21.4880  -31.8940 C   0  0  0  0  0  0  0  0  0  0  0  0
   -5.1690   21.6100  -31.6820 C   0  0  0  0  0  0  0  0  0  0  0  0
   -4.2740   21.4610  -32.7530 C   0  0  0  0  0  0  0  0  0  0  0  0
   -2.9000   21.5500  -32.5240 C   0  0  0  0  0  0  0  0  0  0  0  0
   -2.4240   21.7880  -31.2280 C   0  0  0  0  0  0  0  0  0  0  0  0
   -1.0510   21.8820  -30.9610 C   0  0  0  0  0  0  0  0  0  0  0  0
   -0.6080   22.1190  -29.6560 C   0  0  0  0  0  0  0  0  0  0  0  0
   -1.5320   22.2650  -28.6160 C   0  0  0  0  0  0  0  0  0  0  0  0
   -2.9030   22.1740  -28.8730 C   0  0  0  0  0  0  0  0  0  0  0  0
   -3.3550   21.9360  -30.1760 C   0  0  0  0  0  0  0  0  0  0  0  0
   -4.6870   21.8410  -30.4310 N   0  0  0  0  0  0  0  0  0  0  0  0
   -9.7773   18.2638  -30.5636 H   0  0  0  0  0  0  0  0  0  0  0  0
   -9.5138   19.1266  -32.1169 H   0  0  0  0  0  0  0  0  0  0  0  0
   -9.8739   17.3668  -32.1169 H   0  0  0  0  0  0  0  0  0  0  0  0
   -6.7219   15.8225  -32.7013 H   0  0  0  0  0  0  0  0  0  0  0  0
   -5.2088   15.9887  -34.6740 H   0  0  0  0  0  0  0  0  0  0  0  0
   -4.7160   18.2119  -35.6908 H   0  0  0  0  0  0  0  0  0  0  0  0
   -5.7086   20.2790  -34.7151 H   0  0  0  0  0  0  0  0  0  0  0  0
   -8.2662   24.3318  -31.0913 H   0  0  0  0  0  0  0  0  0  0  0  0
   -7.1460   23.5887  -29.8815 H   0  0  0  0  0  0  0  0  0  0  0  0
   -5.5086   23.7228  -32.0635 H   0  0  0  0  0  0  0  0  0  0  0  0
   -6.5640   25.1734  -32.3287 H   0  0  0  0  0  0  0  0  0  0  0  0
   -3.5040   26.0470  -31.2430 H   0  0  0  0  0  0  0  0  0  0  0  0
   -4.6538   21.2749  -33.7684 H   0  0  0  0  0  0  0  0  0  0  0  0
   -2.1930   21.4336  -33.3586 H   0  0  0  0  0  0  0  0  0  0  0  0
   -0.3226   21.7694  -31.7775 H   0  0  0  0  0  0  0  0  0  0  0  0
    0.4695   22.1908  -29.4468 H   0  0  0  0  0  0  0  0  0  0  0  0
   -1.1782   22.4522  -27.5914 H   0  0  0  0  0  0  0  0  0  0  0  0
   -3.6259   22.2893  -28.0520 H   0  0  0  0  0  0  0  0  0  0  0  0
  1  2  1  0
  2  3  1  0
  3  4  2  0
  4  5  1  0
  5  6  2  0
  6  7  1  0
  7  8  2  0
  8  9  1  0
  9 10  1  0
 10 11  2  0
 11 12  1  0
 12 13  1  0
 13 14  1  0
 14 15  1  0
 15 16  1  0
 15 17  2  0
 12 18  1  0
 18 19  1  0
 19 20  2  0
 20 21  1  0
 21 22  2  0
 22 23  1  0
 23 24  2  0
 24 25  1  0
 25 26  2  0
 26 27  1  0
 27 28  2  0
  8  3  1  0
 18  9  2  0
 28 19  1  0
 27 22  1  0
  1 29  1  0
  1 30  1  0
  1 31  1  0
  4 32  1  0
  5 33  1  0
  6 34  1  0
  7 35  1  0
 13 36  1  0
 13 37  1  0
 14 38  1  0
 14 39  1  0
 16 40  1  0
 20 41  1  0
 21 42  1  0
 23 43  1  0
 24 44  1  0
 25 45  1  0
 26 46  1  0
M  CHG  1  16  -1
M  END
>  <UniqueID>  (21) 
20

>  <SMILES>  (21) 
COc1ccccc1-c1nnn(CCC([NH-])=O)c1-c1ccc2ccccc2n1

>  <Energy>  (21) 
91.03404230401976

>  <Genealogy>  (21) 
COc1ccccc1-c1nnn(CCC([NH-])=O)c1-c1ccc2ccccc2n1 (protonated)
COc1ccccc1-c1nnn(CCC([NH-])=O)c1-c1ccc2ccccc2n1 (3D coordinates assigned)
COc1ccccc1-c1nnn(CCC([NH-])=O)c1-c1ccc2ccccc2n1 (optimized conformer: 91.03404230401976 kcal/mol)

>  <smiles>  (21) 
COc1ccccc1-c1nnn(CCC(N)=O)c1-c1ccc2ccccc2n1

>  <score_type>  (21) 
oracle

>  <origin>  (21) 
adg

>  <m_score__min__energy>  (21) 
-11.779999999999999

>  <m_primary>  (21) 
energy

$$$$
21:0
     RDKit          3D

 46 49  0  0  0  0  0  0  0  0999 V2000
   -8.0030   18.7160  -31.8430 C   0  0  0  0  0  0  0  0  0  0  0  0
   -8.8520   19.7830  -31.5530 C   0  0  0  0  0  0  0  0  0  0  0  0
   -8.4260   21.0980  -31.7650 C   0  0  0  0  0  0  0  0  0  0  0  0
   -7.1290   21.3570  -32.2440 C   0  0  0  0  0  0  0  0  0  0  0  0
   -6.6640   22.7750  -32.5160 C   0  0  0  0  0  0  0  0  0  0  0  0
   -5.9130   23.4370  -31.4120 N   0  0  1  0  0  0  0  0  0  0  0  0
   -6.4740   24.7430  -30.9640 C   0  0  0  0  0  0  0  0  0  0  0  0
   -5.4700   25.7100  -30.3320 C   0  0  0  0  0  0  0  0  0  0  0  0
   -4.1350   25.2700  -30.5130 O   0  0  0  0  0  0  0  0  0  0  0  0
   -3.5430   24.2340  -29.7860 C   0  0  0  0  0  0  0  0  0  0  0  0
   -2.3470   24.5270  -29.1180 C   0  0  0  0  0  0  0  0  0  0  0  0
   -1.6540   23.5350  -28.4110 C   0  0  0  0  0  0  0  0  0  0  0  0
   -0.3620   23.8580  -27.7140 C   0  0  0  0  0  0  0  0  0  0  0  0
   -0.5790   24.9120  -26.6760 C   0  0  0  0  0  0  0  0  0  0  0  0
   -0.6310   26.2810  -26.9050 C   0  0  0  0  0  0  0  0  0  0  0  0
   -0.8940   27.0210  -25.7460 C   0  0  0  0  0  0  0  0  0  0  0  0
   -1.0650   26.2400  -24.6110 C   0  0  0  0  0  0  0  0  0  0  0  0
   -0.8840   24.6260  -25.0480 S   0  0  0  0  0  0  0  0  0  0  0  0
   -2.1900   22.2450  -28.3410 C   0  0  0  0  0  0  0  0  0  0  0  0
   -3.3950   21.9470  -28.9780 C   0  0  0  0  0  0  0  0  0  0  0  0
   -4.1030   22.9350  -29.6900 C   0  0  0  0  0  0  0  0  0  0  0  0
   -5.4130   22.5310  -30.3450 C   0  0  0  0  0  0  0  0  0  0  0  0
   -6.2930   20.2700  -32.5630 C   0  0  0  0  0  0  0  0  0  0  0  0
   -6.7250   18.9580  -32.3520 C   0  0  0  0  0  0  0  0  0  0  0  0
   -8.3397   17.6830  -31.6709 H   0  0  0  0  0  0  0  0  0  0  0  0
   -9.8597   19.5901  -31.1564 H   0  0  0  0  0  0  0  0  0  0  0  0
   -9.1090   21.9346  -31.5560 H   0  0  0  0  0  0  0  0  0  0  0  0
   -6.0111   22.7516  -33.4010 H   0  0  0  0  0  0  0  0  0  0  0  0
   -7.5806   23.3682  -32.6499 H   0  0  0  0  0  0  0  0  0  0  0  0
   -5.0250   23.7150  -31.8980 H   0  0  0  0  0  0  0  0  0  0  0  0
   -6.9174   25.2395  -31.8397 H   0  0  0  0  0  0  0  0  0  0  0  0
   -7.2011   24.5040  -30.1739 H   0  0  0  0  0  0  0  0  0  0  0  0
   -5.5858   26.6995  -30.7983 H   0  0  0  0  0  0  0  0  0  0  0  0
   -5.6724   25.7578  -29.2518 H   0  0  0  0  0  0  0  0  0  0  0  0
   -1.9459   25.5508  -29.1488 H   0  0  0  0  0  0  0  0  0  0  0  0
    0.0267   22.9490  -27.2317 H   0  0  0  0  0  0  0  0  0  0  0  0
    0.3599   24.2308  -28.4555 H   0  0  0  0  0  0  0  0  0  0  0  0
   -0.4810   26.7367  -27.8949 H   0  0  0  0  0  0  0  0  0  0  0  0
   -0.9591   28.1190  -25.7356 H   0  0  0  0  0  0  0  0  0  0  0  0
   -1.2818   26.6130  -23.5991 H   0  0  0  0  0  0  0  0  0  0  0  0
   -1.6588   21.4614  -27.7809 H   0  0  0  0  0  0  0  0  0  0  0  0
   -3.7983   20.9251  -28.9234 H   0  0  0  0  0  0  0  0  0  0  0  0
   -5.2747   21.5335  -30.7876 H   0  0  0  0  0  0  0  0  0  0  0  0
   -6.1683   22.5674  -29.5462 H   0  0  0  0  0  0  0  0  0  0  0  0
   -5.2926   20.4549  -32.9813 H   0  0  0  0  0  0  0  0  0  0  0  0
   -6.0582   18.1153  -32.5869 H   0  0  0  0  0  0  0  0  0  0  0  0
  1  2  2  0
  2  3  1  0
  3  4  2  0
  4  5  1  0
  5  6  1  0
  6  7  1  0
  7  8  1  0
  8  9  1  0
  9 10  1  0
 10 11  2  0
 11 12  1  0
 12 13  1  0
 13 14  1  0
 14 15  2  0
 15 16  1  0
 16 17  2  0
 17 18  1  0
 12 19  2  0
 19 20  1  0
 20 21  2  0
 21 22  1  0
  4 23  1  0
 23 24  2  0
 24  1  1  0
 22  6  1  0
 21 10  1  0
 18 14  1  0
  1 25  1  0
  2 26  1  0
  3 27  1  0
  5 28  1  0
  5 29  1  0
  6 30  1  6
  7 31  1  0
  7 32  1  0
  8 33  1  0
  8 34  1  0
 11 35  1  0
 13 36  1  0
 13 37  1  0
 15 38  1  0
 16 39  1  0
 17 40  1  0
 19 41  1  0
 20 42  1  0
 22 43  1  0
 22 44  1  0
 23 45  1  0
 24 46  1  0
M  CHG  1   6   1
M  END
>  <UniqueID>  (22) 
21

>  <SMILES>  (22) 
c1ccc(C[N@H+]2CCOc3cc(Cc4cccs4)ccc3C2)cc1

>  <Energy>  (22) 
91.20995528645703

>  <Genealogy>  (22) 
c1ccc(C[NH+]2CCOc3cc(Cc4cccs4)ccc3C2)cc1 (protonated)
c1ccc(C[N@H+]2CCOc3cc(Cc4cccs4)ccc3C2)cc1 (chirality)
c1ccc(C[N@H+]2CCOc3cc(Cc4cccs4)ccc3C2)cc1 (3D coordinates assigned)
c1ccc(C[N@H+]2CCOc3cc(Cc4cccs4)ccc3C2)cc1 (nonaromatic ring conformer: 91.20995528645703 kcal/mol)

>  <smiles>  (22) 
c1ccc(CN2CCOc3cc(Cc4cccs4)ccc3C2)cc1

>  <score_type>  (22) 
oracle

>  <origin>  (22) 
adg

>  <m_score__min__energy>  (22) 
-6.6399999999999997

>  <m_primary>  (22) 
energy

$$$$
22:0
     RDKit          3D

 41 42  0  0  0  0  0  0  0  0999 V2000
   -7.6440   18.2090  -31.7580 C   0  0  0  0  0  0  0  0  0  0  0  0
   -8.9610   18.7030  -31.8760 O   0  0  0  0  0  0  0  0  0  0  0  0
   -8.9940   19.8130  -32.7500 C   0  0  0  0  0  0  0  0  0  0  0  0
   -8.8610   21.1040  -31.9840 C   0  0  0  0  0  0  0  0  0  0  0  0
   -9.8920   21.5660  -31.4220 O   0  0  0  0  0  0  0  0  0  0  0  0
   -7.6030   21.8110  -31.8620 N   0  0  0  0  0  0  0  0  0  0  0  0
   -6.3910   21.3980  -32.5940 C   0  0  0  0  0  0  0  0  0  0  0  0
   -5.1600   21.4830  -31.6790 C   0  0  0  0  0  0  0  0  0  0  0  0
   -5.1590   22.7160  -30.8800 N   0  0  0  0  0  0  0  0  0  0  0  0
   -4.0910   22.9390  -29.9430 C   0  0  0  0  0  0  0  0  0  0  0  0
   -3.5010   24.1630  -29.8780 N   0  0  0  0  0  0  0  0  0  0  0  0
   -2.4770   24.4120  -29.0180 C   0  0  0  0  0  0  0  0  0  0  0  0
   -1.8840   25.6770  -28.9570 O   0  0  0  0  0  0  0  0  0  0  0  0
   -1.0000   26.0610  -27.9090 C   0  0  0  0  0  0  0  0  0  0  0  0
   -2.0170   23.3950  -28.1830 C   0  0  0  0  0  0  0  0  0  0  0  0
   -2.6310   22.1400  -28.2500 C   0  0  0  0  0  0  0  0  0  0  0  0
   -2.1360   21.0150  -27.3900 C   0  0  0  0  0  0  0  0  0  0  0  0
   -3.6410   21.9300  -29.1410 N   0  0  0  0  0  0  0  0  0  0  0  0
   -6.2010   23.7240  -31.0990 C   0  0  0  0  0  0  0  0  0  0  0  0
   -7.5760   23.0520  -31.0660 C   0  0  0  0  0  0  0  0  0  0  0  0
   -7.3831   18.1111  -30.6939 H   0  0  0  0  0  0  0  0  0  0  0  0
   -7.5767   17.2245  -32.2441 H   0  0  0  0  0  0  0  0  0  0  0  0
   -6.9459   18.9064  -32.2441 H   0  0  0  0  0  0  0  0  0  0  0  0
   -8.1634   19.7321  -33.4666 H   0  0  0  0  0  0  0  0  0  0  0  0
   -9.9585   19.8156  -33.2789 H   0  0  0  0  0  0  0  0  0  0  0  0
   -6.5131   20.3618  -32.9425 H   0  0  0  0  0  0  0  0  0  0  0  0
   -6.2454   22.0700  -33.4526 H   0  0  0  0  0  0  0  0  0  0  0  0
   -5.1610   20.6181  -30.9993 H   0  0  0  0  0  0  0  0  0  0  0  0
   -4.2615   21.4857  -32.3135 H   0  0  0  0  0  0  0  0  0  0  0  0
   -1.4725   25.8558  -26.9371 H   0  0  0  0  0  0  0  0  0  0  0  0
   -0.0644   25.4882  -27.9901 H   0  0  0  0  0  0  0  0  0  0  0  0
   -0.7801   27.1357  -27.9901 H   0  0  0  0  0  0  0  0  0  0  0  0
   -1.1867   23.5760  -27.4845 H   0  0  0  0  0  0  0  0  0  0  0  0
   -2.2545   21.2842  -26.3301 H   0  0  0  0  0  0  0  0  0  0  0  0
   -2.7174   20.1062  -27.6047 H   0  0  0  0  0  0  0  0  0  0  0  0
   -1.0732   20.8296  -27.6047 H   0  0  0  0  0  0  0  0  0  0  0  0
   -4.0550   20.9750  -29.2250 H   0  0  0  0  0  0  0  0  0  0  0  0
   -6.1462   24.4860  -30.3075 H   0  0  0  0  0  0  0  0  0  0  0  0
   -6.0495   24.2012  -32.0785 H   0  0  0  0  0  0  0  0  0  0  0  0
   -7.8284   22.8106  -30.0229 H   0  0  0  0  0  0  0  0  0  0  0  0
   -8.3063   23.7505  -31.5004 H   0  0  0  0  0  0  0  0  0  0  0  0
  1  2  1  0
  2  3  1  0
  3  4  1  0
  4  5  2  0
  4  6  1  0
  6  7  1  0
  7  8  1  0
  8  9  1  0
  9 10  1  0
 10 11  2  0
 11 12  1  0
 12 13  1  0
 13 14  1  0
 12 15  2  0
 15 16  1  0
 16 17  1  0
 16 18  2  0
  9 19  1  0
 19 20  1  0
 20  6  1  0
 18 10  1  0
  1 21  1  0
  1 22  1  0
  1 23  1  0
  3 24  1  0
  3 25  1  0
  7 26  1  0
  7 27  1  0
  8 28  1  0
  8 29  1  0
 14 30  1  0
 14 31  1  0
 14 32  1  0
 15 33  1  0
 17 34  1  0
 17 35  1  0
 17 36  1  0
 18 37  1  0
 19 38  1  0
 19 39  1  0
 20 40  1  0
 20 41  1  0
M  CHG  1  18   1
M  END
>  <UniqueID>  (23) 
22

>  <SMILES>  (23) 
COCC(=O)N1CCN(c2nc(OC)cc(C)[nH+]2)CC1

>  <Energy>  (23) 
42.26302244761436

>  <Genealogy>  (23) 
COCC(=O)N1CCN(c2nc(OC)cc(C)[nH+]2)CC1 (protonated)
COCC(=O)N1CCN(c2nc(OC)cc(C)[nH+]2)CC1 (3D coordinates assigned)
COCC(=O)N1CCN(c2nc(OC)cc(C)[nH+]2)CC1 (nonaromatic ring conformer: 42.26302244761436 kcal/mol)

>  <smiles>  (23) 
COCC(=O)N1CCN(c2nc(C)cc(OC)n2)CC1

>  <score_type>  (23) 
oracle

>  <origin>  (23) 
adg

>  <m_score__min__energy>  (23) 
-5.6799999999999997

>  <m_primary>  (23) 
energy

$$$$
23:0
     RDKit          3D

 39 41  0  0  0  0  0  0  0  0999 V2000
   -4.3360   23.4320  -29.1540 C   0  0  0  0  0  0  0  0  0  0  0  0
   -4.4250   24.8450  -29.7220 C   0  0  0  0  0  0  0  0  0  0  0  0
   -4.6410   24.8070  -31.1760 N   0  0  0  0  0  0  0  0  0  0  0  0
   -6.0620   24.6730  -31.5430 C   0  0  0  0  0  0  0  0  0  0  0  0
   -6.4400   23.2420  -31.8480 C   0  0  0  0  0  0  0  0  0  0  0  0
   -7.7800   22.8100  -31.6740 C   0  0  0  0  0  0  0  0  0  0  0  0
   -8.1450   21.4780  -31.9440 C   0  0  0  0  0  0  0  0  0  0  0  0
   -7.1520   20.6070  -32.3800 C   0  0  0  0  0  0  0  0  0  0  0  0
   -7.2730   19.3390  -32.6820 O   0  0  0  0  0  0  0  0  0  0  0  0
   -6.0820   18.8950  -33.0490 C   0  0  0  0  0  0  0  0  0  0  0  0
   -5.8310   17.4950  -33.4640 C   0  0  0  0  0  0  0  0  0  0  0  0
   -6.8830   16.6330  -33.8270 C   0  0  0  0  0  0  0  0  0  0  0  0
   -6.6200   15.3160  -34.2160 C   0  0  0  0  0  0  0  0  0  0  0  0
   -5.3040   14.8320  -34.2340 C   0  0  0  0  0  0  0  0  0  0  0  0
   -5.0210   13.4320  -34.6890 C   0  0  0  0  0  0  0  0  0  0  0  0
   -4.2520   15.6910  -33.8910 C   0  0  0  0  0  0  0  0  0  0  0  0
   -4.5120   17.0080  -33.5020 C   0  0  0  0  0  0  0  0  0  0  0  0
   -5.1420   19.9260  -32.9820 C   0  0  0  0  0  0  0  0  0  0  0  0
   -5.8590   21.0170  -32.5490 C   0  0  0  0  0  0  0  0  0  0  0  0
   -5.4600   22.3270  -32.2940 C   0  0  0  0  0  0  0  0  0  0  0  0
   -4.3389   23.4778  -28.0550 H   0  0  0  0  0  0  0  0  0  0  0  0
   -5.1988   22.8432  -29.4987 H   0  0  0  0  0  0  0  0  0  0  0  0
   -3.4061   22.9561  -29.4987 H   0  0  0  0  0  0  0  0  0  0  0  0
   -5.2639   25.3736  -29.2458 H   0  0  0  0  0  0  0  0  0  0  0  0
   -3.4795   25.3688  -29.5181 H   0  0  0  0  0  0  0  0  0  0  0  0
   -4.2560   25.6840  -31.5980 H   0  0  0  0  0  0  0  0  0  0  0  0
   -6.6794   25.0319  -30.7063 H   0  0  0  0  0  0  0  0  0  0  0  0
   -6.2339   25.2688  -32.4516 H   0  0  0  0  0  0  0  0  0  0  0  0
   -8.5411   23.5232  -31.3246 H   0  0  0  0  0  0  0  0  0  0  0  0
   -9.1826   21.1365  -31.8144 H   0  0  0  0  0  0  0  0  0  0  0  0
   -7.9203   16.9984  -33.8044 H   0  0  0  0  0  0  0  0  0  0  0  0
   -7.4497   14.6561  -34.5094 H   0  0  0  0  0  0  0  0  0  0  0  0
   -4.8894   12.7810  -33.8121 H   0  0  0  0  0  0  0  0  0  0  0  0
   -5.8633   13.0659  -35.2944 H   0  0  0  0  0  0  0  0  0  0  0  0
   -4.1026   13.4218  -35.2944 H   0  0  0  0  0  0  0  0  0  0  0  0
   -3.2147   15.3267  -33.9280 H   0  0  0  0  0  0  0  0  0  0  0  0
   -3.6782   17.6691  -33.2233 H   0  0  0  0  0  0  0  0  0  0  0  0
   -4.0696   19.8765  -33.2216 H   0  0  0  0  0  0  0  0  0  0  0  0
   -4.4148   22.6394  -32.4354 H   0  0  0  0  0  0  0  0  0  0  0  0
  1  2  1  0
  2  3  1  0
  3  4  1  0
  4  5  1  0
  5  6  2  0
  6  7  1  0
  7  8  2  0
  8  9  1  0
  9 10  1  0
 10 11  1  0
 11 12  2  0
 12 13  1  0
 13 14  2  0
 14 15  1  0
 14 16  1  0
 16 17  2  0
 10 18  2  0
 18 19  1  0
 19 20  2  0
 20  5  1  0
 19  8  1  0
 17 11  1  0
  1 21  1  0
  1 22  1  0
  1 23  1  0
  2 24  1  0
  2 25  1  0
  3 26  1  0
  4 27  1  0
  4 28  1  0
  6 29  1  0
  7 30  1  0
 12 31  1  0
 13 32  1  0
 15 33  1  0
 15 34  1  0
 15 35  1  0
 16 36  1  0
 17 37  1  0
 18 38  1  0
 20 39  1  0
M  END
>  <UniqueID>  (24) 
23

>  <SMILES>  (24) 
CCNCc1ccc2oc(-c3ccc(C)cc3)cc2c1

>  <Energy>  (24) 
73.08090312940665

>  <Genealogy>  (24) 
CCNCc1ccc2oc(-c3ccc(C)cc3)cc2c1 (3D coordinates assigned)
CCNCc1ccc2oc(-c3ccc(C)cc3)cc2c1 (optimized conformer: 73.08090312940665 kcal/mol)

>  <smiles>  (24) 
CCNCc1ccc2oc(-c3ccc(C)cc3)cc2c1

>  <score_type>  (24) 
oracle

>  <origin>  (24) 
adg

>  <m_score__min__energy>  (24) 
-7.8099999999999996

>  <m_primary>  (24) 
energy

$$$$
24:0
     RDKit          3D

 55 57  0  0  0  0  0  0  0  0999 V2000
   -5.3650   25.8690  -30.4810 C   0  0  0  0  0  0  0  0  0  0  0  0
   -4.0520   25.3280  -30.5980 O   0  0  0  0  0  0  0  0  0  0  0  0
   -3.6320   24.1060  -30.0470 C   0  0  0  0  0  0  0  0  0  0  0  0
   -2.5940   24.0330  -29.1010 C   0  0  0  0  0  0  0  0  0  0  0  0
   -2.1940   22.8000  -28.5880 C   0  0  0  0  0  0  0  0  0  0  0  0
   -2.7980   21.6240  -29.0340 C   0  0  0  0  0  0  0  0  0  0  0  0
   -3.8290   21.6750  -29.9710 C   0  0  0  0  0  0  0  0  0  0  0  0
   -4.2680   22.9140  -30.4670 C   0  0  0  0  0  0  0  0  0  0  0  0
   -5.4090   22.9640  -31.4590 C   0  0  0  0  0  0  0  0  0  0  0  0
   -5.4290   21.7420  -32.4010 C   0  0  0  0  0  0  0  0  0  0  0  0
   -6.7120   20.9470  -32.2950 C   0  0  0  0  0  0  0  0  0  0  0  0
   -7.9180   21.6110  -32.0200 C   0  0  0  0  0  0  0  0  0  0  0  0
   -9.1130   20.8880  -31.8970 C   0  0  0  0  0  0  0  0  0  0  0  0
   -9.1100   19.4970  -32.0330 C   0  0  0  0  0  0  0  0  0  0  0  0
   -7.9150   18.8250  -32.3090 C   0  0  0  0  0  0  0  0  0  0  0  0
   -6.7100   19.5460  -32.4710 C   0  0  0  0  0  0  0  0  0  0  0  0
   -5.5050   18.9200  -32.8340 O   0  0  0  0  0  0  0  0  0  0  0  0
   -5.2290   18.2780  -34.0840 C   0  0  0  0  0  0  0  0  0  0  0  0
   -3.7070   18.1750  -34.2750 C   0  0  0  0  0  0  0  0  0  0  0  0
   -2.9470   19.0120  -33.3100 N   0  0  0  0  0  0  0  0  0  0  0  0
   -2.7780   20.4070  -33.8140 C   0  0  0  0  0  0  0  0  0  0  0  0
   -1.5690   21.1490  -33.2010 C   0  0  0  0  0  0  0  0  0  0  0  0
   -1.2330   20.6060  -31.8070 C   0  0  0  0  0  0  0  0  0  0  0  0
   -0.9160   19.0980  -31.8600 C   0  0  0  0  0  0  0  0  0  0  0  0
   -1.6410   18.3780  -33.0170 C   0  0  0  0  0  0  0  0  0  0  0  0
   -5.6241   25.9758  -29.4173 H   0  0  0  0  0  0  0  0  0  0  0  0
   -5.4001   26.8549  -30.9677 H   0  0  0  0  0  0  0  0  0  0  0  0
   -6.0844   25.1940  -30.9677 H   0  0  0  0  0  0  0  0  0  0  0  0
   -2.0951   24.9536  -28.7641 H   0  0  0  0  0  0  0  0  0  0  0  0
   -1.3993   22.7541  -27.8288 H   0  0  0  0  0  0  0  0  0  0  0  0
   -2.4593   20.6526  -28.6447 H   0  0  0  0  0  0  0  0  0  0  0  0
   -4.2991   20.7446  -30.3222 H   0  0  0  0  0  0  0  0  0  0  0  0
   -6.3579   22.9964  -30.9035 H   0  0  0  0  0  0  0  0  0  0  0  0
   -5.2721   23.8616  -32.0799 H   0  0  0  0  0  0  0  0  0  0  0  0
   -5.3171   22.0940  -33.4372 H   0  0  0  0  0  0  0  0  0  0  0  0
   -4.6014   21.0801  -32.1060 H   0  0  0  0  0  0  0  0  0  0  0  0
   -7.9255   22.7045  -31.9004 H   0  0  0  0  0  0  0  0  0  0  0  0
  -10.0556   21.4171  -31.6929 H   0  0  0  0  0  0  0  0  0  0  0  0
  -10.0469   18.9312  -31.9230 H   0  0  0  0  0  0  0  0  0  0  0  0
   -7.9128   17.7288  -32.4006 H   0  0  0  0  0  0  0  0  0  0  0  0
   -5.6688   17.2698  -34.0846 H   0  0  0  0  0  0  0  0  0  0  0  0
   -5.6653   18.8656  -34.9052 H   0  0  0  0  0  0  0  0  0  0  0  0
   -3.4065   17.1252  -34.1424 H   0  0  0  0  0  0  0  0  0  0  0  0
   -3.4747   18.5416  -35.2858 H   0  0  0  0  0  0  0  0  0  0  0  0
   -3.4870   19.0440  -32.4110 H   0  0  0  0  0  0  0  0  0  0  0  0
   -2.6441   20.3678  -34.9051 H   0  0  0  0  0  0  0  0  0  0  0  0
   -3.6792   20.9653  -33.5204 H   0  0  0  0  0  0  0  0  0  0  0  0
   -0.6964   21.0165  -33.8575 H   0  0  0  0  0  0  0  0  0  0  0  0
   -1.8258   22.2145  -33.1069 H   0  0  0  0  0  0  0  0  0  0  0  0
   -0.3576   21.1435  -31.4135 H   0  0  0  0  0  0  0  0  0  0  0  0
   -2.1052   20.7568  -31.1539 H   0  0  0  0  0  0  0  0  0  0  0  0
    0.1687   18.9707  -31.9908 H   0  0  0  0  0  0  0  0  0  0  0  0
   -1.2670   18.6510  -30.9182 H   0  0  0  0  0  0  0  0  0  0  0  0
   -1.0109   18.4223  -33.9176 H   0  0  0  0  0  0  0  0  0  0  0  0
   -1.8203   17.3345  -32.7189 H   0  0  0  0  0  0  0  0  0  0  0  0
  1  2  1  0
  2  3  1  0
  3  4  2  0
  4  5  1  0
  5  6  2  0
  6  7  1  0
  7  8  2  0
  8  9  1  0
  9 10  1  0
 10 11  1  0
 11 12  2  0
 12 13  1  0
 13 14  2  0
 14 15  1  0
 15 16  2  0
 16 17  1  0
 17 18  1  0
 18 19  1  0
 19 20  1  0
 20 21  1  0
 21 22  1  0
 22 23  1  0
 23 24  1  0
 24 25  1  0
  8  3  1  0
 16 11  1  0
 25 20  1  0
  1 26  1  0
  1 27  1  0
  1 28  1  0
  4 29  1  0
  5 30  1  0
  6 31  1  0
  7 32  1  0
  9 33  1  0
  9 34  1  0
 10 35  1  0
 10 36  1  0
 12 37  1  0
 13 38  1  0
 14 39  1  0
 15 40  1  0
 18 41  1  0
 18 42  1  0
 19 43  1  0
 19 44  1  0
 20 45  1  0
 21 46  1  0
 21 47  1  0
 22 48  1  0
 22 49  1  0
 23 50  1  0
 23 51  1  0
 24 52  1  0
 24 53  1  0
 25 54  1  0
 25 55  1  0
M  CHG  1  20   1
M  END
>  <UniqueID>  (25) 
24

>  <SMILES>  (25) 
COc1ccccc1CCc1ccccc1OCC[NH+]1CCCCC1

>  <Energy>  (25) 
57.717999341220576

>  <Genealogy>  (25) 
COc1ccccc1CCc1ccccc1OCC[NH+]1CCCCC1 (protonated)
COc1ccccc1CCc1ccccc1OCC[NH+]1CCCCC1 (3D coordinates assigned)
COc1ccccc1CCc1ccccc1OCC[NH+]1CCCCC1 (nonaromatic ring conformer: 57.717999341220576 kcal/mol)

>  <smiles>  (25) 
COc1ccccc1CCc1ccccc1OCCN1CCCCC1

>  <score_type>  (25) 
oracle

>  <origin>  (25) 
adg

>  <m_score__min__energy>  (25) 
-7.7000000000000002

>  <m_primary>  (25) 
energy

$$$$
25:0
     RDKit          3D

 46 48  0  0  0  0  0  0  0  0999 V2000
   -0.1240   27.7970  -25.2570 C   0  0  0  0  0  0  0  0  0  0  0  0
   -0.8470   26.6490  -24.6910 N   0  0  0  0  0  0  0  0  0  0  0  0
   -0.5050   26.4590  -23.2730 C   0  0  0  0  0  0  0  0  0  0  0  0
   -0.6730   25.4150  -25.4900 C   0  0  0  0  0  0  0  0  0  0  0  0
   -1.8480   25.0970  -26.3920 C   0  0  0  0  0  0  0  0  0  0  0  0
   -3.1630   25.2050  -25.9120 C   0  0  0  0  0  0  0  0  0  0  0  0
   -4.2470   24.9220  -26.7470 C   0  0  0  0  0  0  0  0  0  0  0  0
   -4.0330   24.5300  -28.0790 C   0  0  0  0  0  0  0  0  0  0  0  0
   -5.1280   24.2190  -28.9540 N   0  0  0  0  0  0  0  0  0  0  0  0
   -5.2050   24.6420  -30.3260 C   0  0  0  0  0  0  0  0  0  0  0  0
   -4.2800   25.3230  -30.8440 O   0  0  0  0  0  0  0  0  0  0  0  0
   -6.3460   24.1830  -31.1860 C   0  0  0  0  0  0  0  0  0  0  0  0
   -6.0570   22.8150  -31.8210 C   0  0  0  0  0  0  0  0  0  0  0  0
   -7.2820   21.9360  -31.8420 C   0  0  0  0  0  0  0  0  0  0  0  0
   -8.5780   22.4540  -31.7640 C   0  0  0  0  0  0  0  0  0  0  0  0
   -9.6910   21.1930  -31.9220 S   0  0  0  0  0  0  0  0  0  0  0  0
   -8.5400   19.9870  -32.0930 C   0  0  0  0  0  0  0  0  0  0  0  0
   -8.7490   18.6240  -32.2860 C   0  0  0  0  0  0  0  0  0  0  0  0
   -7.6270   17.7930  -32.4220 C   0  0  0  0  0  0  0  0  0  0  0  0
   -6.3300   18.3380  -32.3660 C   0  0  0  0  0  0  0  0  0  0  0  0
   -6.1430   19.7170  -32.1710 C   0  0  0  0  0  0  0  0  0  0  0  0
   -7.2680   20.5410  -32.0330 C   0  0  0  0  0  0  0  0  0  0  0  0
   -2.7190   24.3900  -28.5480 C   0  0  0  0  0  0  0  0  0  0  0  0
   -1.6350   24.6760  -27.7140 C   0  0  0  0  0  0  0  0  0  0  0  0
    0.2691   28.4212  -24.4410 H   0  0  0  0  0  0  0  0  0  0  0  0
    0.7099   27.4358  -25.8767 H   0  0  0  0  0  0  0  0  0  0  0  0
   -0.8100   28.3930  -25.8767 H   0  0  0  0  0  0  0  0  0  0  0  0
   -1.2937   26.8972  -22.6437 H   0  0  0  0  0  0  0  0  0  0  0  0
   -0.4190   25.3838  -23.0575 H   0  0  0  0  0  0  0  0  0  0  0  0
    0.4534   26.9540  -23.0575 H   0  0  0  0  0  0  0  0  0  0  0  0
    0.2233   25.5318  -26.1170 H   0  0  0  0  0  0  0  0  0  0  0  0
   -0.5837   24.5826  -24.7765 H   0  0  0  0  0  0  0  0  0  0  0  0
   -3.3411   25.5145  -24.8716 H   0  0  0  0  0  0  0  0  0  0  0  0
   -5.2730   25.0066  -26.3595 H   0  0  0  0  0  0  0  0  0  0  0  0
   -5.8290   23.5170  -28.6230 H   0  0  0  0  0  0  0  0  0  0  0  0
   -7.2518   24.1055  -30.5667 H   0  0  0  0  0  0  0  0  0  0  0  0
   -6.4859   24.9161  -31.9941 H   0  0  0  0  0  0  0  0  0  0  0  0
   -5.7112   22.9681  -32.8539 H   0  0  0  0  0  0  0  0  0  0  0  0
   -5.2873   22.3135  -31.2159 H   0  0  0  0  0  0  0  0  0  0  0  0
   -8.8328   23.5147  -31.6222 H   0  0  0  0  0  0  0  0  0  0  0  0
   -9.7670   18.2097  -32.3307 H   0  0  0  0  0  0  0  0  0  0  0  0
   -7.7610   16.7117  -32.5729 H   0  0  0  0  0  0  0  0  0  0  0  0
   -5.4561   17.6790  -32.4758 H   0  0  0  0  0  0  0  0  0  0  0  0
   -5.1297   20.1428  -32.1274 H   0  0  0  0  0  0  0  0  0  0  0  0
   -2.5403   24.0527  -29.5796 H   0  0  0  0  0  0  0  0  0  0  0  0
   -0.6087   24.5706  -28.0957 H   0  0  0  0  0  0  0  0  0  0  0  0
  1  2  1  0
  2  3  1  0
  2  4  1  0
  4  5  1  0
  5  6  2  0
  6  7  1  0
  7  8  2  0
  8  9  1  0
  9 10  1  0
 10 11  2  0
 10 12  1  0
 12 13  1  0
 13 14  1  0
 14 15  2  0
 15 16  1  0
 16 17  1  0
 17 18  2  0
 18 19  1  0
 19 20  2  0
 20 21  1  0
 21 22  2  0
  8 23  1  0
 23 24  2  0
 24  5  1  0
 22 14  1  0
 22 17  1  0
  1 25  1  0
  1 26  1  0
  1 27  1  0
  3 28  1  0
  3 29  1  0
  3 30  1  0
  4 31  1  0
  4 32  1  0
  6 33  1  0
  7 34  1  0
  9 35  1  0
 12 36  1  0
 12 37  1  0
 13 38  1  0
 13 39  1  0
 15 40  1  0
 18 41  1  0
 19 42  1  0
 20 43  1  0
 21 44  1  0
 23 45  1  0
 24 46  1  0
M  END
>  <UniqueID>  (26) 
25

>  <SMILES>  (26) 
CN(C)Cc1ccc(NC(=O)CCc2csc3ccccc23)cc1

>  <Energy>  (26) 
78.49261629509621

>  <Genealogy>  (26) 
CN(C)Cc1ccc(NC(=O)CCc2csc3ccccc23)cc1 (3D coordinates assigned)
CN(C)Cc1ccc(NC(=O)CCc2csc3ccccc23)cc1 (optimized conformer: 78.49261629509621 kcal/mol)

>  <smiles>  (26) 
CN(C)Cc1ccc(NC(=O)CCc2csc3ccccc23)cc1

>  <score_type>  (26) 
oracle

>  <origin>  (26) 
adg

>  <m_score__min__energy>  (26) 
-9.7200000000000006

>  <m_primary>  (26) 
energy

$$$$
26:0
     RDKit          3D

 52 55  0  0  0  0  0  0  0  0999 V2000
   -4.5100   20.8670  -31.0710 O   0  0  0  0  0  0  0  0  0  0  0  0
   -5.1820   21.9100  -31.9200 S   0  0  0  0  0  0  0  0  0  0  0  0
   -4.6290   21.8180  -33.3150 O   0  0  0  0  0  0  0  0  0  0  0  0
   -6.9350   21.5660  -31.9830 C   0  0  0  0  0  0  0  0  0  0  0  0
   -7.8580   22.5590  -31.6070 C   0  0  0  0  0  0  0  0  0  0  0  0
   -9.2290   22.2980  -31.5990 C   0  0  0  0  0  0  0  0  0  0  0  0
   -9.7050   21.0450  -31.9760 C   0  0  0  0  0  0  0  0  0  0  0  0
   -8.8130   20.0540  -32.3810 C   0  0  0  0  0  0  0  0  0  0  0  0
   -7.4300   20.3050  -32.4080 C   0  0  0  0  0  0  0  0  0  0  0  0
   -6.5450   19.2340  -32.9130 C   0  0  0  0  0  0  0  0  0  0  0  0
   -6.1440   18.1930  -32.0620 C   0  0  0  0  0  0  0  0  0  0  0  0
   -5.3100   17.1790  -32.5380 C   0  0  0  0  0  0  0  0  0  0  0  0
   -4.8840   17.1800  -33.8770 C   0  0  0  0  0  0  0  0  0  0  0  0
   -3.9500   16.1090  -34.3760 C   0  0  0  0  0  0  0  0  0  0  0  0
   -2.5870   16.6460  -34.5240 N   0  0  0  0  0  0  0  0  0  0  0  0
   -2.0530   17.1500  -33.2470 C   0  0  0  0  0  0  0  0  0  0  0  0
   -2.0370   18.6510  -33.2030 C   0  0  0  0  0  0  0  0  0  0  0  0
   -1.6450   19.4280  -32.1330 C   0  0  0  0  0  0  0  0  0  0  0  0
   -1.7670   20.7170  -32.6020 C   0  0  0  0  0  0  0  0  0  0  0  0
   -2.1900   20.6690  -33.8460 O   0  0  0  0  0  0  0  0  0  0  0  0
   -2.3600   19.4410  -34.2430 N   0  0  0  0  0  0  0  0  0  0  0  0
   -5.2880   18.2210  -34.7260 C   0  0  0  0  0  0  0  0  0  0  0  0
   -6.1230   19.2370  -34.2500 C   0  0  0  0  0  0  0  0  0  0  0  0
   -4.7480   23.4620  -31.2340 N   0  0  0  0  0  0  0  0  0  0  0  0
   -4.5430   23.4210  -29.7810 C   0  0  0  0  0  0  0  0  0  0  0  0
   -5.3480   24.5550  -29.1600 C   0  0  0  0  0  0  0  0  0  0  0  0
   -5.7880   25.4210  -30.3230 C   0  0  0  0  0  0  0  0  0  0  0  0
   -5.7190   24.5150  -31.5370 C   0  0  0  0  0  0  0  0  0  0  0  0
   -7.4939   23.5552  -31.3152 H   0  0  0  0  0  0  0  0  0  0  0  0
   -9.9353   23.0842  -31.2941 H   0  0  0  0  0  0  0  0  0  0  0  0
  -10.7850   20.8374  -31.9541 H   0  0  0  0  0  0  0  0  0  0  0  0
   -9.1942   19.0671  -32.6821 H   0  0  0  0  0  0  0  0  0  0  0  0
   -6.4874   18.1755  -31.0171 H   0  0  0  0  0  0  0  0  0  0  0  0
   -4.9848   16.3752  -31.8611 H   0  0  0  0  0  0  0  0  0  0  0  0
   -3.9357   15.2766  -33.6571 H   0  0  0  0  0  0  0  0  0  0  0  0
   -4.3030   15.7554  -35.3560 H   0  0  0  0  0  0  0  0  0  0  0  0
   -1.9560   15.8800  -34.8580 H   0  0  0  0  0  0  0  0  0  0  0  0
   -2.5790   17.4130  -35.2380 H   0  0  0  0  0  0  0  0  0  0  0  0
   -2.6822   16.7764  -32.4257 H   0  0  0  0  0  0  0  0  0  0  0  0
   -1.0173   16.7938  -33.1450 H   0  0  0  0  0  0  0  0  0  0  0  0
   -1.3128   19.0959  -31.1383 H   0  0  0  0  0  0  0  0  0  0  0  0
   -1.5477   21.6320  -32.0323 H   0  0  0  0  0  0  0  0  0  0  0  0
   -4.9463   18.2383  -35.7715 H   0  0  0  0  0  0  0  0  0  0  0  0
   -6.4495   20.0406  -34.9264 H   0  0  0  0  0  0  0  0  0  0  0  0
   -4.8887   22.4559  -29.3823 H   0  0  0  0  0  0  0  0  0  0  0  0
   -3.4753   23.5350  -29.5423 H   0  0  0  0  0  0  0  0  0  0  0  0
   -6.2224   24.1574  -28.6240 H   0  0  0  0  0  0  0  0  0  0  0  0
   -4.7556   25.1237  -28.4281 H   0  0  0  0  0  0  0  0  0  0  0  0
   -6.8154   25.7825  -30.1686 H   0  0  0  0  0  0  0  0  0  0  0  0
   -5.1536   26.3124  -30.4368 H   0  0  0  0  0  0  0  0  0  0  0  0
   -6.7065   24.0723  -31.7340 H   0  0  0  0  0  0  0  0  0  0  0  0
   -5.4169   25.0806  -32.4308 H   0  0  0  0  0  0  0  0  0  0  0  0
  1  2  2  0
  2  3  2  0
  2  4  1  0
  4  5  2  0
  5  6  1  0
  6  7  2  0
  7  8  1  0
  8  9  2  0
  9 10  1  0
 10 11  2  0
 11 12  1  0
 12 13  2  0
 13 14  1  0
 14 15  1  0
 15 16  1  0
 16 17  1  0
 17 18  1  0
 18 19  2  0
 19 20  1  0
 20 21  1  0
 13 22  1  0
 22 23  2  0
  2 24  1  0
 24 25  1  0
 25 26  1  0
 26 27  1  0
 27 28  1  0
  9  4  1  0
 23 10  1  0
 28 24  1  0
 21 17  2  0
  5 29  1  0
  6 30  1  0
  7 31  1  0
  8 32  1  0
 11 33  1  0
 12 34  1  0
 14 35  1  0
 14 36  1  0
 15 37  1  0
 15 38  1  0
 16 39  1  0
 16 40  1  0
 18 41  1  0
 19 42  1  0
 22 43  1  0
 23 44  1  0
 25 45  1  0
 25 46  1  0
 26 47  1  0
 26 48  1  0
 27 49  1  0
 27 50  1  0
 28 51  1  0
 28 52  1  0
M  CHG  1  15   1
M  END
>  <UniqueID>  (27) 
26

>  <SMILES>  (27) 
O=S(=O)(c1ccccc1-c1ccc(C[NH2+]Cc2ccon2)cc1)N1CCCC1

>  <Energy>  (27) 
96.44831660608487

>  <Genealogy>  (27) 
O=S(=O)(c1ccccc1-c1ccc(C[NH2+]Cc2ccon2)cc1)N1CCCC1 (protonated)
O=S(=O)(c1ccccc1-c1ccc(C[NH2+]Cc2ccon2)cc1)N1CCCC1 (3D coordinates assigned)
O=S(=O)(c1ccccc1-c1ccc(C[NH2+]Cc2ccon2)cc1)N1CCCC1 (nonaromatic ring conformer: 96.44831660608487 kcal/mol)

>  <smiles>  (27) 
O=S(=O)(c1ccccc1-c1ccc(CNCc2ccon2)cc1)N1CCCC1

>  <score_type>  (27) 
oracle

>  <origin>  (27) 
adg

>  <m_score__min__energy>  (27) 
-8.8900000000000006

>  <m_primary>  (27) 
energy

$$$$
27:0
     RDKit          3D

 31 32  0  0  0  0  0  0  0  0999 V2000
   -6.1410   25.3640  -29.6850 C   0  0  0  0  0  0  0  0  0  0  0  0
   -5.2400   24.8830  -30.8170 C   0  0  0  0  0  0  0  0  0  0  0  0
   -3.8570   25.2800  -30.5760 N   0  0  0  0  0  0  0  0  0  0  0  0
   -2.9640   24.5580  -29.7220 C   0  0  0  0  0  0  0  0  0  0  0  0
   -1.9920   25.1410  -29.1720 O   0  0  0  0  0  0  0  0  0  0  0  0
   -3.1620   23.0930  -29.5180 C   0  0  0  0  0  0  0  0  0  0  0  0
   -2.0290   22.1760  -30.6080 S   0  0  0  0  0  0  0  0  0  0  0  0
   -3.3570   21.4540  -31.5660 C   0  0  0  0  0  0  0  0  0  0  0  0
   -4.6640   21.6840  -31.3230 N   0  0  0  0  0  0  0  0  0  0  0  0
   -5.4730   21.0390  -32.1630 N   0  0  0  0  0  0  0  0  0  0  0  0
   -6.9020   21.1580  -32.0510 C   0  0  0  0  0  0  0  0  0  0  0  0
   -7.7250   20.0180  -32.0590 C   0  0  0  0  0  0  0  0  0  0  0  0
   -9.1140   20.1500  -31.9770 C   0  0  0  0  0  0  0  0  0  0  0  0
   -9.6940   21.4190  -31.8990 C   0  0  0  0  0  0  0  0  0  0  0  0
   -8.8840   22.5590  -31.9100 C   0  0  0  0  0  0  0  0  0  0  0  0
   -7.4950   22.4300  -31.9940 C   0  0  0  0  0  0  0  0  0  0  0  0
   -4.8060   20.2830  -33.0770 C   0  0  0  0  0  0  0  0  0  0  0  0
   -5.5000   19.2570  -34.1520 S   0  0  0  0  0  0  0  0  0  0  0  0
   -3.1400   20.3970  -32.8570 S   0  0  0  0  0  0  0  0  0  0  0  0
   -5.6784   25.1170  -28.7180 H   0  0  0  0  0  0  0  0  0  0  0  0
   -6.2743   26.4533  -29.7601 H   0  0  0  0  0  0  0  0  0  0  0  0
   -7.1203   24.8687  -29.7601 H   0  0  0  0  0  0  0  0  0  0  0  0
   -5.2953   23.7863  -30.8820 H   0  0  0  0  0  0  0  0  0  0  0  0
   -5.5806   25.3375  -31.7590 H   0  0  0  0  0  0  0  0  0  0  0  0
   -2.9514   22.8362  -28.4693 H   0  0  0  0  0  0  0  0  0  0  0  0
   -4.2016   22.8246  -29.7572 H   0  0  0  0  0  0  0  0  0  0  0  0
   -7.2735   19.0175  -32.1301 H   0  0  0  0  0  0  0  0  0  0  0  0
   -9.7516   19.2536  -31.9739 H   0  0  0  0  0  0  0  0  0  0  0  0
  -10.7870   21.5212  -31.8290 H   0  0  0  0  0  0  0  0  0  0  0  0
   -9.3406   23.5581  -31.8525 H   0  0  0  0  0  0  0  0  0  0  0  0
   -6.8625   23.3297  -32.0156 H   0  0  0  0  0  0  0  0  0  0  0  0
  1  2  1  0
  2  3  1  0
  3  4  1  0
  4  5  2  0
  4  6  1  0
  6  7  1  0
  7  8  1  0
  8  9  2  0
  9 10  1  0
 10 11  1  0
 11 12  2  0
 12 13  1  0
 13 14  2  0
 14 15  1  0
 15 16  2  0
 10 17  1  0
 17 18  2  0
 17 19  1  0
 19  8  1  0
 16 11  1  0
  1 20  1  0
  1 21  1  0
  1 22  1  0
  2 23  1  0
  2 24  1  0
  6 25  1  0
  6 26  1  0
 12 27  1  0
 13 28  1  0
 14 29  1  0
 15 30  1  0
 16 31  1  0
M  CHG  1   3  -1
M  END
>  <UniqueID>  (28) 
27

>  <SMILES>  (28) 
CC[N-]C(=O)CSc1nn(-c2ccccc2)c(=S)s1

>  <Energy>  (28) 
62.1064787015569

>  <Genealogy>  (28) 
CC[N-]C(=O)CSc1nn(-c2ccccc2)c(=S)s1 (protonated)
CC[N-]C(=O)CSc1nn(-c2ccccc2)c(=S)s1 (3D coordinates assigned)
CC[N-]C(=O)CSc1nn(-c2ccccc2)c(=S)s1 (optimized conformer: 62.1064787015569 kcal/mol)

>  <smiles>  (28) 
CCNC(=O)CSc1nn(-c2ccccc2)c(=S)s1

>  <score_type>  (28) 
oracle

>  <origin>  (28) 
adg

>  <m_score__min__energy>  (28) 
-9.6400000000000006

>  <m_primary>  (28) 
energy

$$$$
28:0
     RDKit          3D

 62 67  0  0  0  0  0  0  0  0999 V2000
   -6.1080   18.5800  -34.5830 C   0  0  0  0  0  0  0  0  0  0  0  0
   -6.5330   19.4750  -33.4580 C   0  0  0  0  0  0  0  0  0  0  0  0
   -7.8230   19.6960  -33.1390 N   0  0  0  0  0  0  0  0  0  0  0  0
   -7.7960   20.5460  -32.0950 C   0  0  0  0  0  0  0  0  0  0  0  0
   -6.4820   20.8380  -31.7950 C   0  0  0  0  0  0  0  0  0  0  0  0
   -5.6910   20.1580  -32.6480 N   0  0  0  0  0  0  0  0  0  0  0  0
   -4.2560   20.2190  -32.7130 C   0  0  0  0  0  0  0  0  0  0  0  0
   -3.5290   19.0320  -32.8980 C   0  0  0  0  0  0  0  0  0  0  0  0
   -2.1280   19.0510  -32.9890 C   0  0  0  0  0  0  0  0  0  0  0  0
   -1.3880   17.7920  -33.2120 C   0  0  0  0  0  0  0  0  0  0  0  0
   -0.3360   17.4890  -32.4000 N   0  0  0  0  0  0  0  0  0  0  0  0
    0.3840   16.3450  -32.5440 C   0  0  0  0  0  0  0  0  0  0  0  0
    0.0600   15.4380  -33.5550 C   0  0  0  0  0  0  0  0  0  0  0  0
   -1.0030   15.7260  -34.4140 C   0  0  0  0  0  0  0  0  0  0  0  0
   -1.7370   16.9030  -34.2480 C   0  0  0  0  0  0  0  0  0  0  0  0
   -2.7430   17.1920  -35.1140 F   0  0  0  0  0  0  0  0  0  0  0  0
   -1.4550   20.2810  -32.9200 C   0  0  0  0  0  0  0  0  0  0  0  0
   -2.1700   21.4690  -32.7650 C   0  0  0  0  0  0  0  0  0  0  0  0
   -3.5640   21.4520  -32.6430 C   0  0  0  0  0  0  0  0  0  0  0  0
   -4.2410   22.7020  -32.4600 N   0  0  0  0  0  0  0  0  0  0  0  0
   -4.5120   23.3380  -31.2060 C   0  0  0  0  0  0  0  0  0  0  0  0
   -4.8930   24.5380  -31.2100 O   0  0  0  0  0  0  0  0  0  0  0  0
   -4.3030   22.6600  -29.9530 N   0  0  0  0  0  0  0  0  0  0  0  0
   -5.0410   23.0790  -28.7540 C   0  0  0  0  0  0  0  0  0  0  0  0
   -4.0780   23.6570  -27.7060 C   0  0  0  0  0  0  0  0  0  0  0  0
   -2.7730   22.8230  -27.5450 C   0  0  0  0  0  0  0  0  0  0  0  0
   -1.5560   23.5980  -27.8630 N   0  0  0  0  0  0  0  0  0  0  0  0
   -0.4690   23.2480  -28.6120 C   0  0  0  0  0  0  0  0  0  0  0  0
   -0.3840   22.1670  -29.2530 O   0  0  0  0  0  0  0  0  0  0  0  0
    0.5360   24.1600  -28.6090 N   0  0  0  0  0  0  0  0  0  0  0  0
    0.0460   25.1140  -27.7990 C   0  0  0  0  0  0  0  0  0  0  0  0
    0.6840   26.2510  -27.4270 N   0  0  0  0  0  0  0  0  0  0  0  0
    0.0590   27.1060  -26.5620 C   0  0  0  0  0  0  0  0  0  0  0  0
   -1.2250   26.8030  -26.0550 C   0  0  0  0  0  0  0  0  0  0  0  0
   -1.8690   25.6150  -26.4460 C   0  0  0  0  0  0  0  0  0  0  0  0
   -1.1920   24.7850  -27.3400 C   0  0  0  0  0  0  0  0  0  0  0  0
   -2.7960   21.5010  -28.3410 C   0  0  0  0  0  0  0  0  0  0  0  0
   -3.1780   21.7200  -29.8120 C   0  0  0  0  0  0  0  0  0  0  0  0
   -5.6702   17.6580  -34.1727 H   0  0  0  0  0  0  0  0  0  0  0  0
   -6.9823   18.3274  -35.2009 H   0  0  0  0  0  0  0  0  0  0  0  0
   -5.3597   19.0979  -35.2009 H   0  0  0  0  0  0  0  0  0  0  0  0
   -8.6710   19.2990  -33.6020 H   0  0  0  0  0  0  0  0  0  0  0  0
   -8.6767   20.9421  -31.5683 H   0  0  0  0  0  0  0  0  0  0  0  0
   -6.1383   21.5111  -30.9958 H   0  0  0  0  0  0  0  0  0  0  0  0
   -4.0645   18.0740  -32.9727 H   0  0  0  0  0  0  0  0  0  0  0  0
    1.2222   16.1337  -31.8638 H   0  0  0  0  0  0  0  0  0  0  0  0
    0.6351   14.5078  -33.6735 H   0  0  0  0  0  0  0  0  0  0  0  0
   -1.2624   15.0257  -35.2216 H   0  0  0  0  0  0  0  0  0  0  0  0
   -0.3575   20.3084  -32.9885 H   0  0  0  0  0  0  0  0  0  0  0  0
   -1.6327   22.4285  -32.7384 H   0  0  0  0  0  0  0  0  0  0  0  0
   -5.7775   23.8473  -29.0320 H   0  0  0  0  0  0  0  0  0  0  0  0
   -5.5508   22.2036  -28.3252 H   0  0  0  0  0  0  0  0  0  0  0  0
   -3.8047   24.6787  -28.0084 H   0  0  0  0  0  0  0  0  0  0  0  0
   -4.5994   23.6378  -26.7376 H   0  0  0  0  0  0  0  0  0  0  0  0
   -2.7355   22.5624  -26.4770 H   0  0  0  0  0  0  0  0  0  0  0  0
    0.5596   28.0372  -26.2583 H   0  0  0  0  0  0  0  0  0  0  0  0
   -1.7194   27.4942  -25.3566 H   0  0  0  0  0  0  0  0  0  0  0  0
   -2.8657   25.3512  -26.0625 H   0  0  0  0  0  0  0  0  0  0  0  0
   -1.7965   21.0436  -28.2983 H   0  0  0  0  0  0  0  0  0  0  0  0
   -3.5542   20.8454  -27.8878 H   0  0  0  0  0  0  0  0  0  0  0  0
   -2.3073   22.1242  -30.3492 H   0  0  0  0  0  0  0  0  0  0  0  0
   -3.4882   20.7516  -30.2316 H   0  0  0  0  0  0  0  0  0  0  0  0
  1  2  1  0
  2  3  2  0
  3  4  1  0
  4  5  2  0
  5  6  1  0
  6  7  1  0
  7  8  2  0
  8  9  1  0
  9 10  1  0
 10 11  2  0
 11 12  1  0
 12 13  2  0
 13 14  1  0
 14 15  2  0
 15 16  1  0
  9 17  2  0
 17 18  1  0
 18 19  2  0
 19 20  1  0
 20 21  1  0
 21 22  2  0
 21 23  1  0
 23 24  1  0
 24 25  1  0
 25 26  1  0
 26 27  1  0
 27 28  1  0
 28 29  2  0
 28 30  1  0
 30 31  1  0
 31 32  2  0
 32 33  1  0
 33 34  2  0
 34 35  1  0
 35 36  2  0
 26 37  1  0
 37 38  1  0
  6  2  1  0
 19  7  1  0
 38 23  1  0
 15 10  1  0
 36 27  1  0
 36 31  1  0
  1 39  1  0
  1 40  1  0
  1 41  1  0
  3 42  1  0
  4 43  1  0
  5 44  1  0
  8 45  1  0
 12 46  1  0
 13 47  1  0
 14 48  1  0
 17 49  1  0
 18 50  1  0
 24 51  1  0
 24 52  1  0
 25 53  1  0
 25 54  1  0
 26 55  1  0
 33 56  1  0
 34 57  1  0
 35 58  1  0
 37 59  1  0
 37 60  1  0
 38 61  1  0
 38 62  1  0
M  CHG  3   3   1  20  -1  30  -1
M  END
>  <UniqueID>  (29) 
28

>  <SMILES>  (29) 
Cc1[nH+]ccn1-c1cc(-c2ncccc2F)ccc1[N-]C(=O)N1CCC(n2c(=O)[n-]c3ncccc32)CC1

>  <Energy>  (29) 
161.5819868722587

>  <Genealogy>  (29) 
Cc1[nH+]ccn1-c1cc(-c2ncccc2F)ccc1[N-]C(=O)N1CCC(n2c(=O)[n-]c3ncccc32)CC1 (protonated)
Cc1[nH+]ccn1-c1cc(-c2ncccc2F)ccc1[N-]C(=O)N1CCC(n2c(=O)[n-]c3ncccc32)CC1 (3D coordinates assigned)
Cc1[nH+]ccn1-c1cc(-c2ncccc2F)ccc1[N-]C(=O)N1CCC(n2c(=O)[n-]c3ncccc32)CC1 (nonaromatic ring conformer: 161.5819868722587 kcal/mol)

>  <smiles>  (29) 
Cc1nccn1-c1cc(-c2ncccc2F)ccc1NC(=O)N1CCC(n2c(=O)[nH]c3ncccc32)CC1

>  <score_type>  (29) 
oracle

>  <origin>  (29) 
adg

>  <m_score__min__energy>  (29) 
-11.32

>  <m_primary>  (29) 
energy

$$$$
29:0
     RDKit          3D

 41 42  0  0  0  0  0  0  0  0999 V2000
   -1.5580   21.1200  -29.8290 C   0  0  0  0  0  0  0  0  0  0  0  0
   -1.5090   21.3120  -31.3510 C   0  0  0  0  0  0  0  0  0  0  0  0
   -2.8320   21.6980  -31.9130 N   0  0  0  0  0  0  0  0  0  0  0  0
   -2.9760   21.1860  -33.3020 C   0  0  0  0  0  0  0  0  0  0  0  0
   -3.5660   19.7700  -33.3440 C   0  0  0  0  0  0  0  0  0  0  0  0
   -3.9250   21.1710  -31.0530 C   0  0  0  0  0  0  0  0  0  0  0  0
   -5.2420   21.8780  -31.3050 C   0  0  0  0  0  0  0  0  0  0  0  0
   -6.3720   21.1160  -31.6480 C   0  0  0  0  0  0  0  0  0  0  0  0
   -7.6040   21.7340  -31.8790 C   0  0  0  0  0  0  0  0  0  0  0  0
   -9.0060   20.7690  -32.3010 Cl  0  0  0  0  0  0  0  0  0  0  0  0
   -7.7190   23.1210  -31.7640 C   0  0  0  0  0  0  0  0  0  0  0  0
   -6.6050   23.8910  -31.4280 C   0  0  0  0  0  0  0  0  0  0  0  0
   -5.3540   23.2830  -31.2120 C   0  0  0  0  0  0  0  0  0  0  0  0
   -4.2300   24.0450  -30.8560 O   0  0  0  0  0  0  0  0  0  0  0  0
   -3.7320   24.2060  -29.5550 C   0  0  0  0  0  0  0  0  0  0  0  0
   -2.3650   24.4290  -29.3040 C   0  0  0  0  0  0  0  0  0  0  0  0
   -1.9060   24.5650  -27.9890 C   0  0  0  0  0  0  0  0  0  0  0  0
   -2.8010   24.4700  -26.9210 C   0  0  0  0  0  0  0  0  0  0  0  0
   -4.1570   24.2300  -27.1650 C   0  0  0  0  0  0  0  0  0  0  0  0
   -4.6190   24.0930  -28.4770 C   0  0  0  0  0  0  0  0  0  0  0  0
   -1.3154   22.0706  -29.3315 H   0  0  0  0  0  0  0  0  0  0  0  0
   -2.5671   20.7980  -29.5323 H   0  0  0  0  0  0  0  0  0  0  0  0
   -0.8266   20.3538  -29.5323 H   0  0  0  0  0  0  0  0  0  0  0  0
   -0.7807   22.1025  -31.5848 H   0  0  0  0  0  0  0  0  0  0  0  0
   -1.2178   20.3522  -31.8027 H   0  0  0  0  0  0  0  0  0  0  0  0
   -2.8990   22.7440  -31.9350 H   0  0  0  0  0  0  0  0  0  0  0  0
   -3.6396   21.8622  -33.8610 H   0  0  0  0  0  0  0  0  0  0  0  0
   -1.9725   21.1452  -33.7507 H   0  0  0  0  0  0  0  0  0  0  0  0
   -3.7179   19.4055  -32.3173 H   0  0  0  0  0  0  0  0  0  0  0  0
   -4.5306   19.7902  -33.8724 H   0  0  0  0  0  0  0  0  0  0  0  0
   -2.8725   19.0993  -33.8724 H   0  0  0  0  0  0  0  0  0  0  0  0
   -4.0532   20.0983  -31.2603 H   0  0  0  0  0  0  0  0  0  0  0  0
   -3.6434   21.3446  -30.0039 H   0  0  0  0  0  0  0  0  0  0  0  0
   -6.2859   20.0229  -31.7355 H   0  0  0  0  0  0  0  0  0  0  0  0
   -8.6900   23.6075  -31.9387 H   0  0  0  0  0  0  0  0  0  0  0  0
   -6.7052   24.9821  -31.3311 H   0  0  0  0  0  0  0  0  0  0  0  0
   -1.6565   24.4965  -30.1427 H   0  0  0  0  0  0  0  0  0  0  0  0
   -0.8384   24.7470  -27.7962 H   0  0  0  0  0  0  0  0  0  0  0  0
   -2.4395   24.5839  -25.8884 H   0  0  0  0  0  0  0  0  0  0  0  0
   -4.8607   24.1490  -26.3234 H   0  0  0  0  0  0  0  0  0  0  0  0
   -5.6848   23.8954  -28.6639 H   0  0  0  0  0  0  0  0  0  0  0  0
  1  2  1  0
  2  3  1  0
  3  4  1  0
  4  5  1  0
  3  6  1  0
  6  7  1  0
  7  8  2  0
  8  9  1  0
  9 10  1  0
  9 11  2  0
 11 12  1  0
 12 13  2  0
 13 14  1  0
 14 15  1  0
 15 16  2  0
 16 17  1  0
 17 18  2  0
 18 19  1  0
 19 20  2  0
 13  7  1  0
 20 15  1  0
  1 21  1  0
  1 22  1  0
  1 23  1  0
  2 24  1  0
  2 25  1  0
  3 26  1  0
  4 27  1  0
  4 28  1  0
  5 29  1  0
  5 30  1  0
  5 31  1  0
  6 32  1  0
  6 33  1  0
  8 34  1  0
 11 35  1  0
 12 36  1  0
 16 37  1  0
 17 38  1  0
 18 39  1  0
 19 40  1  0
 20 41  1  0
M  CHG  1   3   1
M  END
>  <UniqueID>  (30) 
29

>  <SMILES>  (30) 
CC[NH+](CC)Cc1cc(Cl)ccc1Oc1ccccc1

>  <Energy>  (30) 
49.068936995560385

>  <Genealogy>  (30) 
CC[NH+](CC)Cc1cc(Cl)ccc1Oc1ccccc1 (protonated)
CC[NH+](CC)Cc1cc(Cl)ccc1Oc1ccccc1 (3D coordinates assigned)
CC[NH+](CC)Cc1cc(Cl)ccc1Oc1ccccc1 (optimized conformer: 49.068936995560385 kcal/mol)

>  <smiles>  (30) 
CCN(CC)Cc1cc(Cl)ccc1Oc1ccccc1

>  <score_type>  (30) 
oracle

>  <origin>  (30) 
adg

>  <m_score__min__energy>  (30) 
-5.6699999999999999

>  <m_primary>  (30) 
energy

$$$$
30:0
     RDKit          3D

 38 39  0  0  0  0  0  0  0  0999 V2000
   -4.8490   21.0630  -32.8220 C   0  0  0  0  0  0  0  0  0  0  0  0
   -5.9470   20.1870  -33.0640 O   0  0  0  0  0  0  0  0  0  0  0  0
   -5.8250   18.8430  -33.4510 C   0  0  0  0  0  0  0  0  0  0  0  0
   -4.9900   18.4530  -34.5190 C   0  0  0  0  0  0  0  0  0  0  0  0
   -4.9000   17.1120  -34.8950 C   0  0  0  0  0  0  0  0  0  0  0  0
   -5.6350   16.1430  -34.2130 C   0  0  0  0  0  0  0  0  0  0  0  0
   -6.4630   16.5120  -33.1520 C   0  0  0  0  0  0  0  0  0  0  0  0
   -6.5630   17.8570  -32.7600 C   0  0  0  0  0  0  0  0  0  0  0  0
   -7.4990   18.2240  -31.6330 C   0  0  0  0  0  0  0  0  0  0  0  0
   -8.8140   18.8480  -32.1390 C   0  0  0  0  0  0  0  0  0  0  0  0
   -8.6120   20.1170  -32.8750 N   0  0  0  0  0  0  0  0  0  0  0  0
   -9.1880   21.2930  -32.1970 C   0  0  0  0  0  0  0  0  0  0  0  0
   -8.1240   22.2060  -31.6320 C   0  0  0  0  0  0  0  0  0  0  0  0
   -7.7970   22.1590  -30.2660 C   0  0  0  0  0  0  0  0  0  0  0  0
   -6.8050   22.9980  -29.7500 C   0  0  0  0  0  0  0  0  0  0  0  0
   -6.1340   23.8900  -30.5910 C   0  0  0  0  0  0  0  0  0  0  0  0
   -5.1720   24.7030  -30.0890 F   0  0  0  0  0  0  0  0  0  0  0  0
   -6.4540   23.9430  -31.9510 C   0  0  0  0  0  0  0  0  0  0  0  0
   -7.4450   23.1050  -32.4710 C   0  0  0  0  0  0  0  0  0  0  0  0
   -4.7042   21.1785  -31.7377 H   0  0  0  0  0  0  0  0  0  0  0  0
   -3.9376   20.6412  -33.2708 H   0  0  0  0  0  0  0  0  0  0  0  0
   -5.0578   22.0453  -33.2708 H   0  0  0  0  0  0  0  0  0  0  0  0
   -4.4052   19.2118  -35.0597 H   0  0  0  0  0  0  0  0  0  0  0  0
   -4.2480   16.8189  -35.7310 H   0  0  0  0  0  0  0  0  0  0  0  0
   -5.5621   15.0868  -34.5116 H   0  0  0  0  0  0  0  0  0  0  0  0
   -7.0418   15.7436  -32.6186 H   0  0  0  0  0  0  0  0  0  0  0  0
   -7.7368   17.3148  -31.0614 H   0  0  0  0  0  0  0  0  0  0  0  0
   -6.9919   18.9733  -31.0074 H   0  0  0  0  0  0  0  0  0  0  0  0
   -9.3066   18.1291  -32.8102 H   0  0  0  0  0  0  0  0  0  0  0  0
   -9.4286   19.0765  -31.2558 H   0  0  0  0  0  0  0  0  0  0  0  0
   -7.5850   20.2720  -33.0070 H   0  0  0  0  0  0  0  0  0  0  0  0
   -9.0250   20.0500  -33.8350 H   0  0  0  0  0  0  0  0  0  0  0  0
   -9.7917   21.8590  -32.9217 H   0  0  0  0  0  0  0  0  0  0  0  0
   -9.8020   20.9318  -31.3589 H   0  0  0  0  0  0  0  0  0  0  0  0
   -8.3236   21.4594  -29.6003 H   0  0  0  0  0  0  0  0  0  0  0  0
   -6.5521   22.9560  -28.6803 H   0  0  0  0  0  0  0  0  0  0  0  0
   -5.9254   24.6449  -32.6127 H   0  0  0  0  0  0  0  0  0  0  0  0
   -7.6940   23.1499  -33.5415 H   0  0  0  0  0  0  0  0  0  0  0  0
  1  2  1  0
  2  3  1  0
  3  4  2  0
  4  5  1  0
  5  6  2  0
  6  7  1  0
  7  8  2  0
  8  9  1  0
  9 10  1  0
 10 11  1  0
 11 12  1  0
 12 13  1  0
 13 14  2  0
 14 15  1  0
 15 16  2  0
 16 17  1  0
 16 18  1  0
 18 19  2  0
  8  3  1  0
 19 13  1  0
  1 20  1  0
  1 21  1  0
  1 22  1  0
  4 23  1  0
  5 24  1  0
  6 25  1  0
  7 26  1  0
  9 27  1  0
  9 28  1  0
 10 29  1  0
 10 30  1  0
 11 31  1  0
 11 32  1  0
 12 33  1  0
 12 34  1  0
 14 35  1  0
 15 36  1  0
 18 37  1  0
 19 38  1  0
M  CHG  1  11   1
M  END
>  <UniqueID>  (31) 
30

>  <SMILES>  (31) 
COc1ccccc1CC[NH2+]Cc1ccc(F)cc1

>  <Energy>  (31) 
37.53116978192556

>  <Genealogy>  (31) 
COc1ccccc1CC[NH2+]Cc1ccc(F)cc1 (protonated)
COc1ccccc1CC[NH2+]Cc1ccc(F)cc1 (3D coordinates assigned)
COc1ccccc1CC[NH2+]Cc1ccc(F)cc1 (optimized conformer: 37.53116978192556 kcal/mol)

>  <smiles>  (31) 
COc1ccccc1CCNCc1ccc(F)cc1

>  <score_type>  (31) 
oracle

>  <origin>  (31) 
adg

>  <m_score__min__energy>  (31) 
-6.8700000000000001

>  <m_primary>  (31) 
energy

$$$$
31:0
     RDKit          3D

 49 52  0  0  0  0  0  0  0  0999 V2000
   -2.9810   18.9170  -25.9110 C   0  0  0  0  0  0  0  0  0  0  0  0
   -2.8030   19.5700  -27.2760 C   0  0  0  0  0  0  0  0  0  0  0  0
   -1.0340   19.8110  -27.6660 S   0  0  0  0  0  0  0  0  0  0  0  0
   -1.0080   21.5640  -27.2320 C   0  0  0  0  0  0  0  0  0  0  0  0
   -0.7080   21.9080  -25.9500 N   0  0  0  0  0  0  0  0  0  0  0  0
   -0.7070   23.2120  -25.5930 C   0  0  0  0  0  0  0  0  0  0  0  0
   -0.4160   23.8160  -24.0600 S   0  0  0  0  0  0  0  0  0  0  0  0
   -0.6460   25.4310  -24.5000 C   0  0  0  0  0  0  0  0  0  0  0  0
   -0.9210   25.5090  -25.8770 C   0  0  0  0  0  0  0  0  0  0  0  0
   -0.9880   24.2280  -26.4840 C   0  0  0  0  0  0  0  0  0  0  0  0
   -1.3000   23.8690  -27.8060 C   0  0  0  0  0  0  0  0  0  0  0  0
   -1.5890   24.7500  -28.6600 O   0  0  0  0  0  0  0  0  0  0  0  0
   -1.2940   22.5400  -28.1640 N   0  0  0  0  0  0  0  0  0  0  0  0
   -1.5940   22.1750  -29.5250 C   0  0  0  0  0  0  0  0  0  0  0  0
   -0.5620   21.8280  -30.4070 C   0  0  0  0  0  0  0  0  0  0  0  0
   -0.8510   21.4740  -31.7270 C   0  0  0  0  0  0  0  0  0  0  0  0
   -2.1860   21.4570  -32.1810 C   0  0  0  0  0  0  0  0  0  0  0  0
   -2.5280   21.1110  -33.4960 O   0  0  0  0  0  0  0  0  0  0  0  0
   -2.7090   19.7750  -33.9550 C   0  0  0  0  0  0  0  0  0  0  0  0
   -3.2130   21.7970  -31.2930 C   0  0  0  0  0  0  0  0  0  0  0  0
   -2.9230   22.1520  -29.9730 C   0  0  0  0  0  0  0  0  0  0  0  0
   -1.1610   26.8380  -26.5450 C   0  0  0  0  0  0  0  0  0  0  0  0
    0.0560   27.7660  -26.4040 C   0  0  0  0  0  0  0  0  0  0  0  0
    0.1070   28.5550  -25.0780 C   0  0  0  0  0  0  0  0  0  0  0  0
    0.4830   27.6810  -23.8650 C   0  0  0  0  0  0  0  0  0  0  0  0
   -0.5460   26.5750  -23.5190 C   0  0  0  0  0  0  0  0  0  0  0  0
   -2.7795   19.6563  -25.1218 H   0  0  0  0  0  0  0  0  0  0  0  0
   -4.0125   18.5478  -25.8129 H   0  0  0  0  0  0  0  0  0  0  0  0
   -2.2795   18.0754  -25.8129 H   0  0  0  0  0  0  0  0  0  0  0  0
   -3.2554   18.9255  -28.0441 H   0  0  0  0  0  0  0  0  0  0  0  0
   -3.2936   20.5544  -27.2584 H   0  0  0  0  0  0  0  0  0  0  0  0
   -0.4900   21.1730  -25.2400 H   0  0  0  0  0  0  0  0  0  0  0  0
    0.4812   21.8344  -30.0581 H   0  0  0  0  0  0  0  0  0  0  0  0
   -0.0347   21.2077  -32.4145 H   0  0  0  0  0  0  0  0  0  0  0  0
   -2.8005   19.0998  -33.0914 H   0  0  0  0  0  0  0  0  0  0  0  0
   -3.6232   19.7172  -34.5641 H   0  0  0  0  0  0  0  0  0  0  0  0
   -1.8431   19.4761  -34.5641 H   0  0  0  0  0  0  0  0  0  0  0  0
   -4.2577   21.7846  -31.6372 H   0  0  0  0  0  0  0  0  0  0  0  0
   -3.7390   22.4141  -29.2835 H   0  0  0  0  0  0  0  0  0  0  0  0
   -1.3609   26.6702  -27.6136 H   0  0  0  0  0  0  0  0  0  0  0  0
   -2.0212   27.3197  -26.0571 H   0  0  0  0  0  0  0  0  0  0  0  0
    0.9663   27.1525  -26.4743 H   0  0  0  0  0  0  0  0  0  0  0  0
   -0.0227   28.5110  -27.2094 H   0  0  0  0  0  0  0  0  0  0  0  0
    0.8542   29.3563  -25.1765 H   0  0  0  0  0  0  0  0  0  0  0  0
   -0.9025   28.9515  -24.8947 H   0  0  0  0  0  0  0  0  0  0  0  0
    1.4476   27.1970  -24.0775 H   0  0  0  0  0  0  0  0  0  0  0  0
    0.5185   28.3547  -22.9962 H   0  0  0  0  0  0  0  0  0  0  0  0
   -0.2720   26.1553  -22.5398 H   0  0  0  0  0  0  0  0  0  0  0  0
   -1.5288   27.0686  -23.5391 H   0  0  0  0  0  0  0  0  0  0  0  0
  1  2  1  0
  2  3  1  0
  3  4  1  0
  4  5  2  0
  5  6  1  0
  6  7  1  0
  7  8  1  0
  8  9  2  0
  9 10  1  0
 10 11  1  0
 11 12  2  0
 11 13  1  0
 13 14  1  0
 14 15  2  0
 15 16  1  0
 16 17  2  0
 17 18  1  0
 18 19  1  0
 17 20  1  0
 20 21  2  0
  9 22  1  0
 22 23  1  0
 23 24  1  0
 24 25  1  0
 25 26  1  0
 13  4  1  0
 21 14  1  0
 10  6  2  0
 26  8  1  0
  1 27  1  0
  1 28  1  0
  1 29  1  0
  2 30  1  0
  2 31  1  0
  5 32  1  0
 15 33  1  0
 16 34  1  0
 19 35  1  0
 19 36  1  0
 19 37  1  0
 20 38  1  0
 21 39  1  0
 22 40  1  0
 22 41  1  0
 23 42  1  0
 23 43  1  0
 24 44  1  0
 24 45  1  0
 25 46  1  0
 25 47  1  0
 26 48  1  0
 26 49  1  0
M  CHG  1   5   1
M  END
>  <UniqueID>  (32) 
31

>  <SMILES>  (32) 
CCSc1[nH+]c2sc3c(c2c(=O)n1-c1ccc(OC)cc1)CCCCC3

>  <Energy>  (32) 
95.18511723166266

>  <Genealogy>  (32) 
CCSc1[nH+]c2sc3c(c2c(=O)n1-c1ccc(OC)cc1)CCCCC3 (protonated)
CCSc1[nH+]c2sc3c(c2c(=O)n1-c1ccc(OC)cc1)CCCCC3 (3D coordinates assigned)
CCSc1[nH+]c2sc3c(c2c(=O)n1-c1ccc(OC)cc1)CCCCC3 (nonaromatic ring conformer: 95.18511723166266 kcal/mol)

>  <smiles>  (32) 
CCSc1nc2sc3c(c2c(=O)n1-c1ccc(OC)cc1)CCCCC3

>  <score_type>  (32) 
oracle

>  <origin>  (32) 
adg

>  <m_score__min__energy>  (32) 
-5.9500000000000002

>  <m_primary>  (32) 
energy

$$$$
32:0
     RDKit          3D

 45 46  0  0  0  0  0  0  0  0999 V2000
   -6.9411   24.6843  -29.3794 H   0  0  0  0  0  0  0  0  0  0  0  0
   -6.3290   24.3910  -30.2450 C   0  0  0  0  0  0  0  0  0  0  0  0
   -4.8640   24.5900  -30.1360 C   0  0  0  0  0  0  0  0  0  0  0  0
   -4.2690   25.4420  -30.8490 O   0  0  0  0  0  0  0  0  0  0  0  0
   -4.0820   23.8130  -29.1450 C   0  0  0  0  0  0  0  0  0  0  0  0
   -3.1360   24.5350  -28.2620 C   0  0  0  0  0  0  0  0  0  0  0  0
   -3.3490   24.5830  -27.0190 O   0  0  0  0  0  0  0  0  0  0  0  0
   -2.0030   25.1590  -28.8030 O   0  0  0  0  0  0  0  0  0  0  0  0
   -0.7300   24.5260  -28.9090 C   0  0  0  0  0  0  0  0  0  0  0  0
    0.0356   25.2868  -29.1211 H   0  0  0  0  0  0  0  0  0  0  0  0
   -0.7677   23.7873  -29.7232 H   0  0  0  0  0  0  0  0  0  0  0  0
   -0.3780   23.8090  -27.6100 C   0  0  0  0  0  0  0  0  0  0  0  0
   -0.6827   24.4296  -26.7544 H   0  0  0  0  0  0  0  0  0  0  0  0
   -0.9049   22.8443  -27.5693 H   0  0  0  0  0  0  0  0  0  0  0  0
    0.7075   23.6359  -27.5693 H   0  0  0  0  0  0  0  0  0  0  0  0
   -4.2280   22.4770  -29.0210 C   0  0  0  0  0  0  0  0  0  0  0  0
   -5.2367   22.0547  -29.1400 H   0  0  0  0  0  0  0  0  0  0  0  0
   -3.1150   21.5460  -28.7350 C   0  0  0  0  0  0  0  0  0  0  0  0
   -3.0810   20.8940  -27.4940 C   0  0  0  0  0  0  0  0  0  0  0  0
   -3.8668   21.0924  -26.7502 H   0  0  0  0  0  0  0  0  0  0  0  0
   -2.0550   19.9940  -27.1970 C   0  0  0  0  0  0  0  0  0  0  0  0
   -2.0410   19.4773  -26.2260 H   0  0  0  0  0  0  0  0  0  0  0  0
   -1.0480   19.7500  -28.1310 C   0  0  0  0  0  0  0  0  0  0  0  0
   -0.2483   19.0309  -27.8998 H   0  0  0  0  0  0  0  0  0  0  0  0
   -1.0520   20.4160  -29.3590 C   0  0  0  0  0  0  0  0  0  0  0  0
   -0.2503   20.2253  -30.0876 H   0  0  0  0  0  0  0  0  0  0  0  0
   -2.0780   21.3310  -29.6690 C   0  0  0  0  0  0  0  0  0  0  0  0
   -2.0880   22.0470  -30.8780 O   0  0  0  0  0  0  0  0  0  0  0  0
   -2.5790   21.5420  -32.1160 C   0  0  0  0  0  0  0  0  0  0  0  0
   -3.3338   20.7657  -31.9218 H   0  0  0  0  0  0  0  0  0  0  0  0
   -3.0352   22.3612  -32.6911 H   0  0  0  0  0  0  0  0  0  0  0  0
   -1.7473   21.1090  -32.6911 H   0  0  0  0  0  0  0  0  0  0  0  0
   -6.9730   23.8850  -31.3060 C   0  0  0  0  0  0  0  0  0  0  0  0
   -7.4345   24.5926  -32.0105 H   0  0  0  0  0  0  0  0  0  0  0  0
   -7.1050   22.4480  -31.5930 C   0  0  0  0  0  0  0  0  0  0  0  0
   -6.0580   21.7400  -32.2040 C   0  0  0  0  0  0  0  0  0  0  0  0
   -5.1179   22.2549  -32.4512 H   0  0  0  0  0  0  0  0  0  0  0  0
   -6.2080   20.3810  -32.4990 C   0  0  0  0  0  0  0  0  0  0  0  0
   -5.3815   19.8257  -32.9664 H   0  0  0  0  0  0  0  0  0  0  0  0
   -7.4090   19.7270  -32.2000 C   0  0  0  0  0  0  0  0  0  0  0  0
   -7.5940   18.0220  -32.5670 Cl  0  0  0  0  0  0  0  0  0  0  0  0
   -8.4640   20.4370  -31.6150 C   0  0  0  0  0  0  0  0  0  0  0  0
   -9.4105   19.9253  -31.3863 H   0  0  0  0  0  0  0  0  0  0  0  0
   -8.3160   21.7960  -31.3210 C   0  0  0  0  0  0  0  0  0  0  0  0
   -9.1519   22.3550  -30.8751 H   0  0  0  0  0  0  0  0  0  0  0  0
  1  2  1  0
  2  3  1  0
  3  4  2  0
  3  5  1  0
  5  6  1  0
  6  7  2  0
  6  8  1  0
  8  9  1  0
  9 10  1  0
  9 11  1  0
  9 12  1  0
 12 13  1  0
 12 14  1  0
 12 15  1  0
  5 16  2  0
 16 17  1  0
 16 18  1  0
 18 19  2  0
 19 20  1  0
 19 21  1  0
 21 22  1  0
 21 23  2  0
 23 24  1  0
 23 25  1  0
 25 26  1  0
 25 27  2  0
 27 28  1  0
 28 29  1  0
 29 30  1  0
 29 31  1  0
 29 32  1  0
  2 33  2  3
 33 34  1  0
 33 35  1  0
 35 36  2  0
 36 37  1  0
 36 38  1  0
 38 39  1  0
 38 40  2  0
 40 41  1  0
 40 42  1  0
 42 43  1  0
 42 44  2  0
 44 45  1  0
 27 18  1  0
 44 35  1  0
M  END
>  <UniqueID>  (33) 
32

>  <SMILES>  (33) 
CCOC(=O)/C(=C/c1ccccc1OC)C(=O)C=Cc1ccc(Cl)cc1

>  <Energy>  (33) 
59.09155373478371

>  <Genealogy>  (33) 
CCOC(=O)/C(=C/c1ccccc1OC)C(=O)C=Cc1ccc(Cl)cc1 (cis-trans isomerization)
CCOC(=O)/C(=C/c1ccccc1OC)C(=O)C=Cc1ccc(Cl)cc1 (3D coordinates assigned)
CCOC(=O)/C(=C/c1ccccc1OC)C(=O)C=Cc1ccc(Cl)cc1 (optimized conformer: 59.09155373478371 kcal/mol)

>  <smiles>  (33) 
CCOC(=O)C(=Cc1ccccc1OC)C(=O)C=Cc1ccc(Cl)cc1

>  <score_type>  (33) 
oracle

>  <origin>  (33) 
adg

>  <m_score__min__energy>  (33) 
-8.6999999999999993

>  <m_primary>  (33) 
energy

$$$$
33:0
     RDKit          3D

 50 53  0  0  0  0  0  0  0  0999 V2000
   -8.7740   22.4320  -30.9370 O   0  0  0  0  0  0  0  0  0  0  0  0
   -7.8020   21.8640  -31.5010 C   0  0  0  0  0  0  0  0  0  0  0  0
   -7.7590   20.4670  -31.9210 C   0  0  0  0  0  0  0  0  0  0  0  0
   -8.7010   19.4480  -31.7890 C   0  0  0  0  0  0  0  0  0  0  0  0
   -8.3820   18.1830  -32.3160 C   0  0  0  0  0  0  0  0  0  0  0  0
   -7.1440   17.9680  -32.9610 C   0  0  0  0  0  0  0  0  0  0  0  0
   -6.2130   19.0150  -33.0850 C   0  0  0  0  0  0  0  0  0  0  0  0
   -6.5500   20.2570  -32.5500 C   0  0  0  0  0  0  0  0  0  0  0  0
   -5.8190   21.5180  -32.5340 C   0  0  0  0  0  0  0  0  0  0  0  0
   -4.6930   21.7210  -33.0610 O   0  0  0  0  0  0  0  0  0  0  0  0
   -6.5810   22.5200  -31.8550 N   0  0  0  0  0  0  0  0  0  0  0  0
   -6.3650   23.9630  -31.9200 C   0  0  0  0  0  0  0  0  0  0  0  0
   -6.5390   24.5890  -30.5290 C   0  0  0  0  0  0  0  0  0  0  0  0
   -5.2790   24.4340  -29.6470 C   0  0  0  0  0  0  0  0  0  0  0  0
   -3.9690   24.6750  -30.4460 C   0  0  0  0  0  0  0  0  0  0  0  0
   -3.3100   23.3540  -30.8710 C   0  0  0  0  0  0  0  0  0  0  0  0
   -2.9550   22.4920  -29.7130 N   0  0  0  0  0  0  0  0  0  0  0  0
   -1.5370   22.6590  -29.3280 C   0  0  0  0  0  0  0  0  0  0  0  0
   -1.3880   23.7080  -28.2560 C   0  0  0  0  0  0  0  0  0  0  0  0
   -1.3550   25.0720  -28.5910 C   0  0  0  0  0  0  0  0  0  0  0  0
   -1.2420   26.0400  -27.5880 C   0  0  0  0  0  0  0  0  0  0  0  0
   -1.1660   25.6550  -26.2470 C   0  0  0  0  0  0  0  0  0  0  0  0
   -1.2040   24.2990  -25.9060 C   0  0  0  0  0  0  0  0  0  0  0  0
   -1.3180   23.3280  -26.9060 C   0  0  0  0  0  0  0  0  0  0  0  0
   -3.8570   22.6540  -28.5420 C   0  0  0  0  0  0  0  0  0  0  0  0
   -5.2770   23.0480  -28.9610 C   0  0  0  0  0  0  0  0  0  0  0  0
   -9.6639   19.6273  -31.2883 H   0  0  0  0  0  0  0  0  0  0  0  0
   -9.1016   17.3560  -32.2251 H   0  0  0  0  0  0  0  0  0  0  0  0
   -6.9062   16.9746  -33.3693 H   0  0  0  0  0  0  0  0  0  0  0  0
   -5.2479   18.8583  -33.5891 H   0  0  0  0  0  0  0  0  0  0  0  0
   -5.3458   24.1617  -32.2828 H   0  0  0  0  0  0  0  0  0  0  0  0
   -7.1015   24.4053  -32.6070 H   0  0  0  0  0  0  0  0  0  0  0  0
   -6.7555   25.6608  -30.6493 H   0  0  0  0  0  0  0  0  0  0  0  0
   -7.3645   24.0629  -30.0271 H   0  0  0  0  0  0  0  0  0  0  0  0
   -5.3149   25.2110  -28.8692 H   0  0  0  0  0  0  0  0  0  0  0  0
   -4.2037   25.2619  -31.3463 H   0  0  0  0  0  0  0  0  0  0  0  0
   -3.2654   25.2147  -29.7951 H   0  0  0  0  0  0  0  0  0  0  0  0
   -4.0092   22.8040  -31.5180 H   0  0  0  0  0  0  0  0  0  0  0  0
   -2.3774   23.6024  -31.3989 H   0  0  0  0  0  0  0  0  0  0  0  0
   -1.1518   21.7007  -28.9495 H   0  0  0  0  0  0  0  0  0  0  0  0
   -0.9690   22.9800  -30.2136 H   0  0  0  0  0  0  0  0  0  0  0  0
   -1.4182   25.3795  -29.6453 H   0  0  0  0  0  0  0  0  0  0  0  0
   -1.2129   27.1066  -27.8553 H   0  0  0  0  0  0  0  0  0  0  0  0
   -1.0763   26.4180  -25.4597 H   0  0  0  0  0  0  0  0  0  0  0  0
   -1.1442   23.9960  -24.8502 H   0  0  0  0  0  0  0  0  0  0  0  0
   -1.3530   22.2627  -26.6340 H   0  0  0  0  0  0  0  0  0  0  0  0
   -3.9002   21.7020  -27.9927 H   0  0  0  0  0  0  0  0  0  0  0  0
   -3.4532   23.4596  -27.9112 H   0  0  0  0  0  0  0  0  0  0  0  0
   -5.6680   22.2969  -29.6631 H   0  0  0  0  0  0  0  0  0  0  0  0
   -5.9104   23.0966  -28.0630 H   0  0  0  0  0  0  0  0  0  0  0  0
  1  2  2  0
  2  3  1  0
  3  4  2  0
  4  5  1  0
  5  6  2  0
  6  7  1  0
  7  8  2  0
  8  9  1  0
  9 10  2  0
  9 11  1  0
 11 12  1  0
 12 13  1  0
 13 14  1  0
 14 15  1  0
 15 16  1  0
 16 17  1  0
 17 18  1  0
 18 19  1  0
 19 20  2  0
 20 21  1  0
 21 22  2  0
 22 23  1  0
 23 24  2  0
 17 25  1  0
 25 26  1  0
 11  2  1  0
 26 14  1  0
  8  3  1  0
 24 19  1  0
  4 27  1  0
  5 28  1  0
  6 29  1  0
  7 30  1  0
 12 31  1  0
 12 32  1  0
 13 33  1  0
 13 34  1  0
 14 35  1  0
 15 36  1  0
 15 37  1  0
 16 38  1  0
 16 39  1  0
 18 40  1  0
 18 41  1  0
 20 42  1  0
 21 43  1  0
 22 44  1  0
 23 45  1  0
 24 46  1  0
 25 47  1  0
 25 48  1  0
 26 49  1  0
 26 50  1  0
M  END
>  <UniqueID>  (34) 
33

>  <SMILES>  (34) 
O=C1c2ccccc2C(=O)N1CCC1CCN(Cc2ccccc2)CC1

>  <Energy>  (34) 
90.22618400350427

>  <Genealogy>  (34) 
O=C1c2ccccc2C(=O)N1CCC1CCN(Cc2ccccc2)CC1 (3D coordinates assigned)
O=C1c2ccccc2C(=O)N1CCC1CCN(Cc2ccccc2)CC1 (nonaromatic ring conformer: 90.22618400350427 kcal/mol)

>  <smiles>  (34) 
O=C1c2ccccc2C(=O)N1CCC1CCN(Cc2ccccc2)CC1

>  <score_type>  (34) 
oracle

>  <origin>  (34) 
adg

>  <m_score__min__energy>  (34) 
-9.8599999999999994

>  <m_primary>  (34) 
energy

$$$$
34:0
     RDKit          3D

 58 60  0  0  0  0  0  0  0  0999 V2000
   -6.6706   18.4540  -31.3210 H   0  0  0  0  0  0  0  0  0  0  0  0
   -5.9880   18.4230  -32.1830 C   0  0  0  0  0  0  0  0  0  0  0  0
   -4.7210   19.0080  -32.0920 C   0  0  0  0  0  0  0  0  0  0  0  0
   -4.4086   19.4958  -31.1569 H   0  0  0  0  0  0  0  0  0  0  0  0
   -3.8460   18.9750  -33.1900 C   0  0  0  0  0  0  0  0  0  0  0  0
   -2.4740   19.5830  -33.0770 C   0  0  0  0  0  0  0  0  0  0  0  0
   -2.0516   19.7166  -34.0839 H   0  0  0  0  0  0  0  0  0  0  0  0
   -1.8318   18.9130  -32.4865 H   0  0  0  0  0  0  0  0  0  0  0  0
   -2.5510   20.8800  -32.4100 N   0  0  0  0  0  0  0  0  0  0  0  0
   -2.8660   21.7060  -32.9680 H   0  0  0  0  0  0  0  0  0  0  0  0
   -2.2540   21.0490  -31.0170 C   0  0  0  0  0  0  0  0  0  0  0  0
   -1.9560   20.0500  -30.3070 O   0  0  0  0  0  0  0  0  0  0  0  0
   -2.3560   22.3820  -30.3850 C   0  0  0  0  0  0  0  0  0  0  0  0
   -3.3890   23.2330  -30.8060 C   0  0  0  0  0  0  0  0  0  0  0  0
   -4.1201   22.8825  -31.5494 H   0  0  0  0  0  0  0  0  0  0  0  0
   -3.4920   24.5350  -30.2790 C   0  0  0  0  0  0  0  0  0  0  0  0
   -4.4250   25.3650  -30.6500 N   0  0  0  0  0  0  0  0  0  0  0  0
   -5.7670   25.4720  -30.0800 C   0  0  0  0  0  0  0  0  0  0  0  0
   -6.1016   26.5186  -30.1316 H   0  0  0  0  0  0  0  0  0  0  0  0
   -5.7403   25.1382  -29.0322 H   0  0  0  0  0  0  0  0  0  0  0  0
   -6.7430   24.5900  -30.8610 C   0  0  0  0  0  0  0  0  0  0  0  0
   -6.2678   24.2831  -31.8044 H   0  0  0  0  0  0  0  0  0  0  0  0
   -7.6556   25.1750  -31.0477 H   0  0  0  0  0  0  0  0  0  0  0  0
   -7.1380   23.3320  -30.0720 C   0  0  0  0  0  0  0  0  0  0  0  0
   -8.0893   23.5160  -29.5513 H   0  0  0  0  0  0  0  0  0  0  0  0
   -6.3435   23.1056  -29.3457 H   0  0  0  0  0  0  0  0  0  0  0  0
   -7.2970   22.1750  -30.9800 N   0  0  0  0  0  0  0  0  0  0  0  0
   -6.9430   22.4750  -32.3890 C   0  0  0  0  0  0  0  0  0  0  0  0
   -6.9587   23.5634  -32.5477 H   0  0  0  0  0  0  0  0  0  0  0  0
   -7.6712   21.9971  -33.0608 H   0  0  0  0  0  0  0  0  0  0  0  0
   -5.5480   21.9380  -32.6850 C   0  0  0  0  0  0  0  0  0  0  0  0
   -5.0243   21.7364  -31.7389 H   0  0  0  0  0  0  0  0  0  0  0  0
   -5.6290   21.0068  -33.2649 H   0  0  0  0  0  0  0  0  0  0  0  0
   -4.9837   22.6832  -33.2649 H   0  0  0  0  0  0  0  0  0  0  0  0
   -8.6160   21.5160  -30.8450 C   0  0  0  0  0  0  0  0  0  0  0  0
   -8.6251   20.9471  -29.9036 H   0  0  0  0  0  0  0  0  0  0  0  0
   -9.3757   22.3113  -30.8625 H   0  0  0  0  0  0  0  0  0  0  0  0
   -8.9470   20.5540  -31.9960 C   0  0  0  0  0  0  0  0  0  0  0  0
   -9.2788   19.5896  -31.5839 H   0  0  0  0  0  0  0  0  0  0  0  0
   -9.7489   20.9840  -32.6141 H   0  0  0  0  0  0  0  0  0  0  0  0
   -8.0503   20.3996  -32.6141 H   0  0  0  0  0  0  0  0  0  0  0  0
   -2.5890   24.9490  -29.3540 N   0  0  0  0  0  0  0  0  0  0  0  0
   -1.5870   24.1510  -28.9010 C   0  0  0  0  0  0  0  0  0  0  0  0
   -0.7040   24.6380  -27.9310 C   0  0  0  0  0  0  0  0  0  0  0  0
   -0.8090   25.6687  -27.5615 H   0  0  0  0  0  0  0  0  0  0  0  0
    0.3100   23.8190  -27.4310 C   0  0  0  0  0  0  0  0  0  0  0  0
    1.0076   24.2083  -26.6749 H   0  0  0  0  0  0  0  0  0  0  0  0
    0.4400   22.5070  -27.8890 C   0  0  0  0  0  0  0  0  0  0  0  0
    1.2337   21.8619  -27.4842 H   0  0  0  0  0  0  0  0  0  0  0  0
   -0.4340   22.0090  -28.8600 C   0  0  0  0  0  0  0  0  0  0  0  0
   -0.3310   20.9706  -29.2081 H   0  0  0  0  0  0  0  0  0  0  0  0
   -1.4480   22.8320  -29.3960 C   0  0  0  0  0  0  0  0  0  0  0  0
   -4.2530   18.3430  -34.3760 C   0  0  0  0  0  0  0  0  0  0  0  0
   -3.5725   18.3071  -35.2395 H   0  0  0  0  0  0  0  0  0  0  0  0
   -5.5210   17.7590  -34.4630 C   0  0  0  0  0  0  0  0  0  0  0  0
   -5.8362   17.2673  -35.3952 H   0  0  0  0  0  0  0  0  0  0  0  0
   -6.3880   17.7990  -33.3680 C   0  0  0  0  0  0  0  0  0  0  0  0
   -7.6170   17.2330  -33.4540 F   0  0  0  0  0  0  0  0  0  0  0  0
  1  2  1  0
  2  3  2  0
  3  4  1  0
  3  5  1  0
  5  6  1  0
  6  7  1  0
  6  8  1  0
  6  9  1  0
  9 10  1  0
  9 11  1  0
 11 12  2  0
 11 13  1  0
 13 14  2  0
 14 15  1  0
 14 16  1  0
 16 17  2  0
 17 18  1  0
 18 19  1  0
 18 20  1  0
 18 21  1  0
 21 22  1  0
 21 23  1  0
 21 24  1  0
 24 25  1  0
 24 26  1  0
 24 27  1  0
 27 28  1  0
 28 29  1  0
 28 30  1  0
 28 31  1  0
 31 32  1  0
 31 33  1  0
 31 34  1  0
 27 35  1  0
 35 36  1  0
 35 37  1  0
 35 38  1  0
 38 39  1  0
 38 40  1  0
 38 41  1  0
 16 42  1  0
 42 43  1  0
 43 44  2  0
 44 45  1  0
 44 46  1  0
 46 47  1  0
 46 48  2  0
 48 49  1  0
 48 50  1  0
 50 51  1  0
 50 52  2  0
  5 53  2  0
 53 54  1  0
 53 55  1  0
 55 56  1  0
 55 57  2  0
 57 58  1  0
 57  2  1  0
 52 13  1  0
 52 43  1  0
M  CHG  1  42  -1
M  END
>  <UniqueID>  (35) 
34

>  <SMILES>  (35) 
CCN(CC)CCC/N=c1\cc(C(=O)NCc2ccc(F)cc2)c2ccccc2[n-]1

>  <Energy>  (35) 
66.39174379238708

>  <Genealogy>  (35) 
CCN(CC)CCCN=c1cc(C(=O)NCc2ccc(F)cc2)c2ccccc2[n-]1 (protonated)
CCN(CC)CCC/N=c1\cc(C(=O)NCc2ccc(F)cc2)c2ccccc2[n-]1 (cis-trans isomerization)
CCN(CC)CCC/N=c1\cc(C(=O)NCc2ccc(F)cc2)c2ccccc2[n-]1 (3D coordinates assigned)
CCN(CC)CCC/N=c1\cc(C(=O)NCc2ccc(F)cc2)c2ccccc2[n-]1 (optimized conformer: 66.39174379238708 kcal/mol)

>  <smiles>  (35) 
CCN(CC)CCCN=c1cc(C(=O)NCc2ccc(F)cc2)c2ccccc2[nH]1

>  <score_type>  (35) 
oracle

>  <origin>  (35) 
adg

>  <m_score__min__energy>  (35) 
-9.8399999999999999

>  <m_primary>  (35) 
energy

$$$$
35:0
     RDKit          3D

 37 39  0  0  0  0  0  0  0  0999 V2000
   -5.6730   18.1790  -34.9460 C   0  0  0  0  0  0  0  0  0  0  0  0
   -4.6470   18.0520  -33.8200 C   0  0  0  0  0  0  0  0  0  0  0  0
   -5.3010   18.0300  -32.4330 C   0  0  0  0  0  0  0  0  0  0  0  0
   -6.4230   19.0200  -32.3350 C   0  0  0  0  0  0  0  0  0  0  0  0
   -7.6860   18.6670  -32.7460 N   0  0  0  0  0  0  0  0  0  0  0  0
   -8.7250   19.5520  -32.6890 C   0  0  0  0  0  0  0  0  0  0  0  0
   -9.8780   19.2110  -33.0580 O   0  0  0  0  0  0  0  0  0  0  0  0
   -8.4630   20.8280  -32.2130 C   0  0  0  0  0  0  0  0  0  0  0  0
   -9.2370   21.9470  -31.9900 C   0  0  0  0  0  0  0  0  0  0  0  0
   -8.4260   22.9060  -31.4790 N   0  0  0  0  0  0  0  0  0  0  0  0
   -7.1840   22.4360  -31.3820 N   0  0  0  0  0  0  0  0  0  0  0  0
   -6.0590   23.1800  -30.8770 C   0  0  0  0  0  0  0  0  0  0  0  0
   -6.0270   24.5820  -30.9620 C   0  0  0  0  0  0  0  0  0  0  0  0
   -4.9330   25.2990  -30.4660 C   0  0  0  0  0  0  0  0  0  0  0  0
   -3.8530   24.6210  -29.8700 C   0  0  0  0  0  0  0  0  0  0  0  0
   -2.7330   25.2930  -29.3590 O   0  0  0  0  0  0  0  0  0  0  0  0
   -2.0100   24.8860  -28.2020 C   0  0  0  0  0  0  0  0  0  0  0  0
   -3.8900   23.2250  -29.7780 C   0  0  0  0  0  0  0  0  0  0  0  0
   -4.9840   22.5090  -30.2740 C   0  0  0  0  0  0  0  0  0  0  0  0
   -7.2040   21.1650  -31.8280 C   0  0  0  0  0  0  0  0  0  0  0  0
   -6.1760   20.2820  -31.8680 N   0  0  0  0  0  0  0  0  0  0  0  0
   -6.6772   18.3033  -34.5147 H   0  0  0  0  0  0  0  0  0  0  0  0
   -5.4297   19.0539  -35.5668 H   0  0  0  0  0  0  0  0  0  0  0  0
   -5.6504   17.2712  -35.5668 H   0  0  0  0  0  0  0  0  0  0  0  0
   -4.0831   17.1179  -33.9596 H   0  0  0  0  0  0  0  0  0  0  0  0
   -3.9878   18.9314  -33.8661 H   0  0  0  0  0  0  0  0  0  0  0  0
   -5.6970   17.0218  -32.2412 H   0  0  0  0  0  0  0  0  0  0  0  0
   -4.5376   18.3009  -31.6888 H   0  0  0  0  0  0  0  0  0  0  0  0
  -10.3143   22.0439  -32.1899 H   0  0  0  0  0  0  0  0  0  0  0  0
   -8.7230   23.8740  -31.2200 H   0  0  0  0  0  0  0  0  0  0  0  0
   -6.8688   25.1201  -31.4222 H   0  0  0  0  0  0  0  0  0  0  0  0
   -4.9167   26.3963  -30.5420 H   0  0  0  0  0  0  0  0  0  0  0  0
   -2.5582   25.1946  -27.2997 H   0  0  0  0  0  0  0  0  0  0  0  0
   -1.8972   23.7918  -28.2062 H   0  0  0  0  0  0  0  0  0  0  0  0
   -1.0160   25.3571  -28.2062 H   0  0  0  0  0  0  0  0  0  0  0  0
   -3.0517   22.6866  -29.3117 H   0  0  0  0  0  0  0  0  0  0  0  0
   -5.0021   21.4123  -30.1909 H   0  0  0  0  0  0  0  0  0  0  0  0
  1  2  1  0
  2  3  1  0
  3  4  1  0
  4  5  2  0
  5  6  1  0
  6  7  2  0
  6  8  1  0
  8  9  1  0
  9 10  2  0
 10 11  1  0
 11 12  1  0
 12 13  2  0
 13 14  1  0
 14 15  2  0
 15 16  1  0
 16 17  1  0
 15 18  1  0
 18 19  2  0
 11 20  1  0
 20 21  1  0
 21  4  1  0
 20  8  2  0
 19 12  1  0
  1 22  1  0
  1 23  1  0
  1 24  1  0
  2 25  1  0
  2 26  1  0
  3 27  1  0
  3 28  1  0
  9 29  1  0
 10 30  1  0
 13 31  1  0
 14 32  1  0
 17 33  1  0
 17 34  1  0
 17 35  1  0
 18 36  1  0
 19 37  1  0
M  CHG  2  10   1  21  -1
M  END
>  <UniqueID>  (36) 
35

>  <SMILES>  (36) 
CCCc1nc(=O)c2c[nH+]n(-c3ccc(OC)cc3)c2[n-]1

>  <Energy>  (36) 
80.20710601922232

>  <Genealogy>  (36) 
CCCc1nc(=O)c2c[nH+]n(-c3ccc(OC)cc3)c2[n-]1 (protonated)
CCCc1nc(=O)c2c[nH+]n(-c3ccc(OC)cc3)c2[n-]1 (3D coordinates assigned)
CCCc1nc(=O)c2c[nH+]n(-c3ccc(OC)cc3)c2[n-]1 (optimized conformer: 80.20710601922232 kcal/mol)

>  <smiles>  (36) 
CCCc1nc(=O)c2cnn(-c3ccc(OC)cc3)c2[nH]1

>  <score_type>  (36) 
oracle

>  <origin>  (36) 
adg

>  <m_score__min__energy>  (36) 
-7.5199999999999996

>  <m_primary>  (36) 
energy

$$$$
36:0
     RDKit          3D

 65 67  0  0  0  0  0  0  0  0999 V2000
   -0.5790   20.5450  -29.7910 C   0  0  0  0  0  0  0  0  0  0  0  0
   -1.7080   20.1610  -28.8190 C   0  0  0  0  0  0  0  0  0  0  0  0
   -1.6200   20.8190  -27.4900 N   0  0  0  0  0  0  0  0  0  0  0  0
   -1.9110   19.9080  -26.3550 C   0  0  0  0  0  0  0  0  0  0  0  0
   -3.1070   18.9970  -26.6380 C   0  0  0  0  0  0  0  0  0  0  0  0
   -2.4580   22.0410  -27.4330 C   0  0  0  0  0  0  0  0  0  0  0  0
   -3.2460   22.2330  -28.7410 C   0  0  0  0  0  0  0  0  0  0  0  0
   -2.6770   23.3600  -29.6200 C   0  0  0  0  0  0  0  0  0  0  0  0
   -3.4980   23.5840  -30.8120 N   0  0  0  0  0  0  0  0  0  0  0  0
   -4.8430   23.0920  -30.9190 C   0  0  0  0  0  0  0  0  0  0  0  0
   -5.9360   23.9600  -30.6870 C   0  0  0  0  0  0  0  0  0  0  0  0
   -5.7380   25.2830  -30.1580 N   0  0  0  0  0  0  0  0  0  0  0  0
   -6.5760   25.7810  -29.3800 O   0  0  0  0  0  0  0  0  0  0  0  0
   -4.6060   26.0010  -30.4690 O   0  0  0  0  0  0  0  0  0  0  0  0
   -7.2380   23.5140  -30.9530 C   0  0  0  0  0  0  0  0  0  0  0  0
   -7.4700   22.2290  -31.4420 C   0  0  0  0  0  0  0  0  0  0  0  0
   -9.1250   21.7370  -31.7810 Cl  0  0  0  0  0  0  0  0  0  0  0  0
   -6.3970   21.3490  -31.6500 C   0  0  0  0  0  0  0  0  0  0  0  0
   -6.6340   20.0770  -32.2700 N   0  0  0  0  0  0  0  0  0  0  0  0
   -6.1120   19.8420  -33.6250 C   0  0  0  0  0  0  0  0  0  0  0  0
   -6.3090   18.3870  -34.0430 C   0  0  0  0  0  0  0  0  0  0  0  0
   -5.9710   17.5100  -32.9130 N   0  0  0  0  0  0  0  0  0  0  0  0
   -4.9450   16.5050  -33.0160 C   0  0  0  0  0  0  0  0  0  0  0  0
   -3.8410   16.6750  -33.8690 C   0  0  0  0  0  0  0  0  0  0  0  0
   -2.8530   15.6900  -33.9180 C   0  0  0  0  0  0  0  0  0  0  0  0
   -2.9610   14.5550  -33.1130 C   0  0  0  0  0  0  0  0  0  0  0  0
   -4.0560   14.4280  -32.2550 C   0  0  0  0  0  0  0  0  0  0  0  0
   -5.0110   15.3960  -32.2250 N   0  0  0  0  0  0  0  0  0  0  0  0
   -6.6610   17.6970  -31.6270 C   0  0  0  0  0  0  0  0  0  0  0  0
   -7.4070   19.0410  -31.5720 C   0  0  0  0  0  0  0  0  0  0  0  0
   -5.0780   21.7610  -31.3480 C   0  0  0  0  0  0  0  0  0  0  0  0
   -3.9380   20.7880  -31.5500 C   0  0  0  0  0  0  0  0  0  0  0  0
    0.3104   20.8475  -29.2188 H   0  0  0  0  0  0  0  0  0  0  0  0
   -0.3309   19.6807  -30.4246 H   0  0  0  0  0  0  0  0  0  0  0  0
   -0.9093   21.3813  -30.4246 H   0  0  0  0  0  0  0  0  0  0  0  0
   -2.6679   20.4394  -29.2785 H   0  0  0  0  0  0  0  0  0  0  0  0
   -1.6170   19.0792  -28.6418 H   0  0  0  0  0  0  0  0  0  0  0  0
   -1.0259   19.2826  -26.1667 H   0  0  0  0  0  0  0  0  0  0  0  0
   -2.1572   20.5268  -25.4795 H   0  0  0  0  0  0  0  0  0  0  0  0
   -3.5463   18.6624  -25.6866 H   0  0  0  0  0  0  0  0  0  0  0  0
   -3.8616   19.5513  -27.2154 H   0  0  0  0  0  0  0  0  0  0  0  0
   -2.7731   18.1223  -27.2154 H   0  0  0  0  0  0  0  0  0  0  0  0
   -3.1665   21.9522  -26.5963 H   0  0  0  0  0  0  0  0  0  0  0  0
   -1.7993   22.9104  -27.2907 H   0  0  0  0  0  0  0  0  0  0  0  0
   -3.2149   21.2929  -29.3112 H   0  0  0  0  0  0  0  0  0  0  0  0
   -4.2749   22.5120  -28.4698 H   0  0  0  0  0  0  0  0  0  0  0  0
   -2.6426   24.2885  -29.0312 H   0  0  0  0  0  0  0  0  0  0  0  0
   -1.6697   23.0638  -29.9480 H   0  0  0  0  0  0  0  0  0  0  0  0
   -3.1200   24.1880  -31.5820 H   0  0  0  0  0  0  0  0  0  0  0  0
   -8.0890   24.1875  -30.7734 H   0  0  0  0  0  0  0  0  0  0  0  0
   -6.6433   20.4947  -34.3333 H   0  0  0  0  0  0  0  0  0  0  0  0
   -5.0348   20.0647  -33.6289 H   0  0  0  0  0  0  0  0  0  0  0  0
   -7.3579   18.2261  -34.3327 H   0  0  0  0  0  0  0  0  0  0  0  0
   -5.6566   18.1564  -34.8981 H   0  0  0  0  0  0  0  0  0  0  0  0
   -3.7561   17.5769  -34.4930 H   0  0  0  0  0  0  0  0  0  0  0  0
   -1.9904   15.8082  -34.5903 H   0  0  0  0  0  0  0  0  0  0  0  0
   -2.1924   13.7692  -33.1537 H   0  0  0  0  0  0  0  0  0  0  0  0
   -4.1458   13.5458  -31.6041 H   0  0  0  0  0  0  0  0  0  0  0  0
   -7.3858   16.8811  -31.4893 H   0  0  0  0  0  0  0  0  0  0  0  0
   -5.9049   17.6915  -30.8281 H   0  0  0  0  0  0  0  0  0  0  0  0
   -8.3889   18.9320  -32.0557 H   0  0  0  0  0  0  0  0  0  0  0  0
   -7.5381   19.3370  -30.5207 H   0  0  0  0  0  0  0  0  0  0  0  0
   -3.5562   20.4622  -30.5712 H   0  0  0  0  0  0  0  0  0  0  0  0
   -4.2974   19.9139  -32.1129 H   0  0  0  0  0  0  0  0  0  0  0  0
   -3.1312   21.2802  -32.1129 H   0  0  0  0  0  0  0  0  0  0  0  0
  1  2  1  0
  2  3  1  0
  3  4  1  0
  4  5  1  0
  3  6  1  0
  6  7  1  0
  7  8  1  0
  8  9  1  0
  9 10  1  0
 10 11  2  0
 11 12  1  0
 12 13  2  0
 12 14  1  0
 11 15  1  0
 15 16  2  0
 16 17  1  0
 16 18  1  0
 18 19  1  0
 19 20  1  0
 20 21  1  0
 21 22  1  0
 22 23  1  0
 23 24  2  0
 24 25  1  0
 25 26  2  0
 26 27  1  0
 27 28  2  0
 22 29  1  0
 29 30  1  0
 18 31  2  0
 31 32  1  0
 31 10  1  0
 30 19  1  0
 28 23  1  0
  1 33  1  0
  1 34  1  0
  1 35  1  0
  2 36  1  0
  2 37  1  0
  4 38  1  0
  4 39  1  0
  5 40  1  0
  5 41  1  0
  5 42  1  0
  6 43  1  0
  6 44  1  0
  7 45  1  0
  7 46  1  0
  8 47  1  0
  8 48  1  0
  9 49  1  0
 15 50  1  0
 20 51  1  0
 20 52  1  0
 21 53  1  0
 21 54  1  0
 24 55  1  0
 25 56  1  0
 26 57  1  0
 27 58  1  0
 29 59  1  0
 29 60  1  0
 30 61  1  0
 30 62  1  0
 32 63  1  0
 32 64  1  0
 32 65  1  0
M  CHG  2  12   1  14  -1
M  END
>  <UniqueID>  (37) 
36

>  <SMILES>  (37) 
CCN(CC)CCCNc1c([N+](=O)[O-])cc(Cl)c(N2CCN(c3ccccn3)CC2)c1C

>  <Energy>  (37) 
80.8773826812691

>  <Genealogy>  (37) 
CCN(CC)CCCNc1c([N+](=O)[O-])cc(Cl)c(N2CCN(c3ccccn3)CC2)c1C (3D coordinates assigned)
CCN(CC)CCCNc1c([N+](=O)[O-])cc(Cl)c(N2CCN(c3ccccn3)CC2)c1C (nonaromatic ring conformer: 80.8773826812691 kcal/mol)

>  <smiles>  (37) 
CCN(CC)CCCNc1c([N+](=O)[O-])cc(Cl)c(N2CCN(c3ccccn3)CC2)c1C

>  <score_type>  (37) 
oracle

>  <origin>  (37) 
adg

>  <m_score__min__energy>  (37) 
-9.6500000000000004

>  <m_primary>  (37) 
energy

$$$$
37:0
     RDKit          3D

 39 41  0  0  0  0  0  0  0  0999 V2000
   -9.3100   21.3030  -31.4760 C   0  0  0  0  0  0  0  0  0  0  0  0
   -8.2090   22.2930  -31.2400 C   0  0  0  0  0  0  0  0  0  0  0  0
   -7.6810   23.0320  -32.3090 C   0  0  0  0  0  0  0  0  0  0  0  0
   -6.6290   23.9280  -32.0960 C   0  0  0  0  0  0  0  0  0  0  0  0
   -6.0700   24.0790  -30.8160 C   0  0  0  0  0  0  0  0  0  0  0  0
   -4.9490   25.0190  -30.5780 C   0  0  0  0  0  0  0  0  0  0  0  0
   -5.1890   26.2510  -30.4680 O   0  0  0  0  0  0  0  0  0  0  0  0
   -3.5870   24.5770  -30.4920 N   0  0  0  0  0  0  0  0  0  0  0  0
   -3.1470   23.2690  -30.0990 C   0  0  0  0  0  0  0  0  0  0  0  0
   -2.7710   23.0690  -28.7640 C   0  0  0  0  0  0  0  0  0  0  0  0
   -2.3150   21.8210  -28.3350 C   0  0  0  0  0  0  0  0  0  0  0  0
   -2.2460   20.7550  -29.2330 C   0  0  0  0  0  0  0  0  0  0  0  0
   -2.6500   20.9300  -30.5580 C   0  0  0  0  0  0  0  0  0  0  0  0
   -3.1190   22.1760  -30.9980 C   0  0  0  0  0  0  0  0  0  0  0  0
   -3.7410   22.3010  -32.6810 S   0  0  0  0  0  0  0  0  0  0  0  0
   -4.5580   20.7070  -32.6050 C   0  0  0  0  0  0  0  0  0  0  0  0
   -4.1450   19.6660  -33.4460 C   0  0  0  0  0  0  0  0  0  0  0  0
   -4.7860   18.4240  -33.3890 C   0  0  0  0  0  0  0  0  0  0  0  0
   -5.8360   18.2190  -32.4890 C   0  0  0  0  0  0  0  0  0  0  0  0
   -6.2450   19.2550  -31.6430 C   0  0  0  0  0  0  0  0  0  0  0  0
   -5.6060   20.4970  -31.6990 C   0  0  0  0  0  0  0  0  0  0  0  0
   -6.6020   23.3380  -29.7480 C   0  0  0  0  0  0  0  0  0  0  0  0
   -7.6560   22.4430  -29.9600 C   0  0  0  0  0  0  0  0  0  0  0  0
   -9.7006   20.9517  -30.5096 H   0  0  0  0  0  0  0  0  0  0  0  0
  -10.1191   21.7833  -32.0458 H   0  0  0  0  0  0  0  0  0  0  0  0
   -8.9180   20.4476  -32.0458 H   0  0  0  0  0  0  0  0  0  0  0  0
   -8.0966   22.9060  -33.3197 H   0  0  0  0  0  0  0  0  0  0  0  0
   -6.2363   24.5189  -32.9366 H   0  0  0  0  0  0  0  0  0  0  0  0
   -2.8356   23.9018  -28.0483 H   0  0  0  0  0  0  0  0  0  0  0  0
   -2.0098   21.6779  -27.2879 H   0  0  0  0  0  0  0  0  0  0  0  0
   -1.8731   19.7763  -28.8967 H   0  0  0  0  0  0  0  0  0  0  0  0
   -2.6001   20.0853  -31.2609 H   0  0  0  0  0  0  0  0  0  0  0  0
   -3.3163   19.8251  -34.1516 H   0  0  0  0  0  0  0  0  0  0  0  0
   -4.4637   17.6081  -34.0527 H   0  0  0  0  0  0  0  0  0  0  0  0
   -6.3407   17.2425  -32.4462 H   0  0  0  0  0  0  0  0  0  0  0  0
   -7.0697   19.0924  -30.9334 H   0  0  0  0  0  0  0  0  0  0  0  0
   -5.9262   21.3103  -31.0311 H   0  0  0  0  0  0  0  0  0  0  0  0
   -6.1866   23.4624  -28.7371 H   0  0  0  0  0  0  0  0  0  0  0  0
   -8.0526   21.8546  -29.1195 H   0  0  0  0  0  0  0  0  0  0  0  0
  1  2  1  0
  2  3  2  0
  3  4  1  0
  4  5  2  0
  5  6  1  0
  6  7  2  0
  6  8  1  0
  8  9  1  0
  9 10  2  0
 10 11  1  0
 11 12  2  0
 12 13  1  0
 13 14  2  0
 14 15  1  0
 15 16  1  0
 16 17  2  0
 17 18  1  0
 18 19  2  0
 19 20  1  0
 20 21  2  0
  5 22  1  0
 22 23  2  0
 23  2  1  0
 14  9  1  0
 21 16  1  0
  1 24  1  0
  1 25  1  0
  1 26  1  0
  3 27  1  0
  4 28  1  0
 10 29  1  0
 11 30  1  0
 12 31  1  0
 13 32  1  0
 17 33  1  0
 18 34  1  0
 19 35  1  0
 20 36  1  0
 21 37  1  0
 22 38  1  0
 23 39  1  0
M  CHG  1   8  -1
M  END
>  <UniqueID>  (38) 
37

>  <SMILES>  (38) 
Cc1ccc(C(=O)[N-]c2ccccc2Sc2ccccc2)cc1

>  <Energy>  (38) 
45.69680984967015

>  <Genealogy>  (38) 
Cc1ccc(C(=O)[N-]c2ccccc2Sc2ccccc2)cc1 (protonated)
Cc1ccc(C(=O)[N-]c2ccccc2Sc2ccccc2)cc1 (3D coordinates assigned)
Cc1ccc(C(=O)[N-]c2ccccc2Sc2ccccc2)cc1 (optimized conformer: 45.69680984967015 kcal/mol)

>  <smiles>  (38) 
Cc1ccc(C(=O)Nc2ccccc2Sc2ccccc2)cc1

>  <score_type>  (38) 
oracle

>  <origin>  (38) 
adg

>  <m_score__min__energy>  (38) 
-9.9800000000000004

>  <m_primary>  (38) 
energy

$$$$
38:0
     RDKit          3D

 40 42  0  0  0  0  0  0  0  0999 V2000
    0.8010   19.9170  -30.8590 C   0  0  0  0  0  0  0  0  0  0  0  0
   -0.0130   20.1340  -32.0970 C   0  0  0  0  0  0  0  0  0  0  0  0
    0.4310   20.9580  -33.0030 N   0  0  0  0  0  0  0  0  0  0  0  0
   -0.2970   21.2230  -34.2060 C   0  0  0  0  0  0  0  0  0  0  0  0
    0.0690   22.1460  -34.9770 O   0  0  0  0  0  0  0  0  0  0  0  0
   -1.4450   20.4370  -34.5190 N   0  0  0  0  0  0  0  0  0  0  0  0
   -1.7110   19.2350  -33.7310 C   0  0  2  0  0  0  0  0  0  0  0  0
   -3.1230   18.7390  -33.9400 C   0  0  0  0  0  0  0  0  0  0  0  0
   -3.3960   17.4030  -34.2850 C   0  0  0  0  0  0  0  0  0  0  0  0
   -4.7120   17.0150  -34.5420 C   0  0  0  0  0  0  0  0  0  0  0  0
   -5.7420   17.9510  -34.4580 C   0  0  0  0  0  0  0  0  0  0  0  0
   -5.4380   19.2710  -34.1210 C   0  0  0  0  0  0  0  0  0  0  0  0
   -4.1490   19.6340  -33.8780 N   0  0  0  0  0  0  0  0  0  0  0  0
   -1.3800   19.4820  -32.2360 C   0  0  2  0  0  0  0  0  0  0  0  0
   -2.4300   20.3300  -31.5520 C   0  0  0  0  0  0  0  0  0  0  0  0
   -2.7260   20.1110  -30.3450 O   0  0  0  0  0  0  0  0  0  0  0  0
   -3.0690   21.3950  -32.2760 N   0  0  0  0  0  0  0  0  0  0  0  0
   -3.8300   22.4510  -31.6660 C   0  0  0  0  0  0  0  0  0  0  0  0
   -5.1020   22.7560  -32.1690 C   0  0  0  0  0  0  0  0  0  0  0  0
   -5.8550   23.7980  -31.6190 C   0  0  0  0  0  0  0  0  0  0  0  0
   -5.3410   24.5680  -30.5630 C   0  0  0  0  0  0  0  0  0  0  0  0
   -6.1160   25.6410  -29.9990 N   0  0  0  0  0  0  0  0  0  0  0  0
   -5.7330   26.8260  -30.1000 O   0  0  0  0  0  0  0  0  0  0  0  0
   -7.2930   25.3810  -29.3360 O   0  0  0  0  0  0  0  0  0  0  0  0
   -4.0550   24.2760  -30.0730 C   0  0  0  0  0  0  0  0  0  0  0  0
   -3.3050   23.2330  -30.6230 C   0  0  0  0  0  0  0  0  0  0  0  0
    0.1718   20.0847  -29.9724 H   0  0  0  0  0  0  0  0  0  0  0  0
    1.1832   18.8856  -30.8476 H   0  0  0  0  0  0  0  0  0  0  0  0
    1.6459   20.6213  -30.8476 H   0  0  0  0  0  0  0  0  0  0  0  0
   -1.0479   18.4312  -34.0834 H   0  0  0  0  0  0  0  0  0  0  0  0
   -2.5788   16.6697  -34.3518 H   0  0  0  0  0  0  0  0  0  0  0  0
   -4.9362   15.9721  -34.8105 H   0  0  0  0  0  0  0  0  0  0  0  0
   -6.7823   17.6526  -34.6551 H   0  0  0  0  0  0  0  0  0  0  0  0
   -6.2415   20.0190  -34.0517 H   0  0  0  0  0  0  0  0  0  0  0  0
   -1.3699   18.5008  -31.7389 H   0  0  0  0  0  0  0  0  0  0  0  0
   -3.0160   21.3740  -33.3200 H   0  0  0  0  0  0  0  0  0  0  0  0
   -5.5121   22.1699  -33.0047 H   0  0  0  0  0  0  0  0  0  0  0  0
   -6.8573   24.0162  -32.0164 H   0  0  0  0  0  0  0  0  0  0  0  0
   -3.6363   24.8737  -29.2500 H   0  0  0  0  0  0  0  0  0  0  0  0
   -2.2967   23.0226  -30.2369 H   0  0  0  0  0  0  0  0  0  0  0  0
  1  2  1  0
  2  3  2  0
  3  4  1  0
  4  5  2  0
  4  6  1  0
  6  7  1  0
  7  8  1  0
  8  9  2  0
  9 10  1  0
 10 11  2  0
 11 12  1  0
 12 13  2  0
  7 14  1  0
 14 15  1  0
 15 16  2  0
 15 17  1  0
 17 18  1  0
 18 19  2  0
 19 20  1  0
 20 21  2  0
 21 22  1  0
 22 23  2  0
 22 24  1  0
 21 25  1  0
 25 26  2  0
 14  2  1  0
 26 18  1  0
 13  8  1  0
  1 27  1  0
  1 28  1  0
  1 29  1  0
  7 30  1  6
  9 31  1  0
 10 32  1  0
 11 33  1  0
 12 34  1  0
 14 35  1  1
 17 36  1  0
 19 37  1  0
 20 38  1  0
 25 39  1  0
 26 40  1  0
M  CHG  3   6  -1  22   1  24  -1
M  END
>  <UniqueID>  (39) 
38

>  <SMILES>  (39) 
CC1=NC(=O)[N-][C@H](c2ccccn2)[C@@H]1C(=O)Nc1ccc([N+](=O)[O-])cc1

>  <Energy>  (39) 
44.90853798791212

>  <Genealogy>  (39) 
CC1=NC(=O)[N-]C(c2ccccn2)C1C(=O)Nc1ccc([N+](=O)[O-])cc1 (protonated)
CC1=NC(=O)[N-][C@H](c2ccccn2)[C@@H]1C(=O)Nc1ccc([N+](=O)[O-])cc1 (chirality)
CC1=NC(=O)[N-][C@H](c2ccccn2)[C@@H]1C(=O)Nc1ccc([N+](=O)[O-])cc1 (3D coordinates assigned)
CC1=NC(=O)[N-][C@H](c2ccccn2)[C@@H]1C(=O)Nc1ccc([N+](=O)[O-])cc1 (nonaromatic ring conformer: 44.90853798791212 kcal/mol)

>  <smiles>  (39) 
CC1=NC(=O)NC(c2ccccn2)C1C(=O)Nc1ccc([N+](=O)[O-])cc1

>  <score_type>  (39) 
oracle

>  <origin>  (39) 
adg

>  <m_score__min__energy>  (39) 
-8.0700000000000003

>  <m_primary>  (39) 
energy

$$$$
39:0
     RDKit          3D

 35 39  0  0  0  0  0  0  0  0999 V2000
   -3.8670   25.4530  -30.5400 O   0  0  0  0  0  0  0  0  0  0  0  0
   -4.7980   24.6360  -30.3070 C   0  0  0  0  0  0  0  0  0  0  0  0
   -6.0710   25.1230  -29.6820 C   0  0  0  0  0  0  0  0  0  0  0  0
   -7.2090   24.6820  -30.4820 N   0  0  0  0  0  0  0  0  0  0  0  0
   -7.1570   23.4530  -31.2190 C   0  0  0  0  0  0  0  0  0  0  0  0
   -8.0700   23.1970  -32.0470 O   0  0  0  0  0  0  0  0  0  0  0  0
   -5.9450   22.5990  -31.1270 C   0  0  0  0  0  0  0  0  0  0  0  0
   -4.7200   23.2130  -30.7440 C   0  0  0  0  0  0  0  0  0  0  0  0
   -3.4910   22.4790  -30.8240 C   0  0  0  0  0  0  0  0  0  0  0  0
   -2.2650   23.0080  -30.3560 C   0  0  0  0  0  0  0  0  0  0  0  0
   -1.0770   22.2880  -30.4880 C   0  0  0  0  0  0  0  0  0  0  0  0
   -1.0810   21.0230  -31.0680 C   0  0  0  0  0  0  0  0  0  0  0  0
   -2.2790   20.4520  -31.4930 C   0  0  0  0  0  0  0  0  0  0  0  0
   -3.4900   21.1560  -31.3610 C   0  0  0  0  0  0  0  0  0  0  0  0
   -4.7200   20.5730  -31.6960 C   0  0  0  0  0  0  0  0  0  0  0  0
   -4.9280   19.3030  -32.1190 N   0  0  0  0  0  0  0  0  0  0  0  0
   -6.2650   19.1580  -32.1690 C   0  0  0  0  0  0  0  0  0  0  0  0
   -6.9560   17.9840  -32.4670 C   0  0  0  0  0  0  0  0  0  0  0  0
   -8.3540   17.9920  -32.3440 C   0  0  0  0  0  0  0  0  0  0  0  0
   -9.0230   19.1490  -31.8940 C   0  0  0  0  0  0  0  0  0  0  0  0
   -8.3030   20.3170  -31.5870 C   0  0  0  0  0  0  0  0  0  0  0  0
   -6.9160   20.3120  -31.7840 C   0  0  0  0  0  0  0  0  0  0  0  0
   -5.9180   21.2480  -31.5200 C   0  0  0  0  0  0  0  0  0  0  0  0
   -6.1588   24.7148  -28.6643 H   0  0  0  0  0  0  0  0  0  0  0  0
   -6.0593   26.2221  -29.6381 H   0  0  0  0  0  0  0  0  0  0  0  0
   -8.0570   25.2880  -30.5460 H   0  0  0  0  0  0  0  0  0  0  0  0
   -2.2481   24.0003  -29.8817 H   0  0  0  0  0  0  0  0  0  0  0  0
   -0.1316   22.7229  -30.1315 H   0  0  0  0  0  0  0  0  0  0  0  0
   -0.1366   20.4727  -31.1912 H   0  0  0  0  0  0  0  0  0  0  0  0
   -2.2779   19.4445  -31.9345 H   0  0  0  0  0  0  0  0  0  0  0  0
   -4.2230   18.5570  -32.3100 H   0  0  0  0  0  0  0  0  0  0  0  0
   -6.4211   17.0783  -32.7890 H   0  0  0  0  0  0  0  0  0  0  0  0
   -8.9309   17.0911  -32.5999 H   0  0  0  0  0  0  0  0  0  0  0  0
  -10.1172   19.1376  -31.7822 H   0  0  0  0  0  0  0  0  0  0  0  0
   -8.8153   21.2112  -31.2023 H   0  0  0  0  0  0  0  0  0  0  0  0
  1  2  2  0
  2  3  1  0
  3  4  1  0
  4  5  1  0
  5  6  2  0
  5  7  1  0
  7  8  2  0
  8  9  1  0
  9 10  2  0
 10 11  1  0
 11 12  2  0
 12 13  1  0
 13 14  2  0
 14 15  1  0
 15 16  1  0
 16 17  1  0
 17 18  2  0
 18 19  1  0
 19 20  2  0
 20 21  1  0
 21 22  2  0
 22 23  1  0
  8  2  1  0
 14  9  1  0
 23 15  2  0
 23  7  1  0
 22 17  1  0
  3 24  1  0
  3 25  1  0
  4 26  1  0
 10 27  1  0
 11 28  1  0
 12 29  1  0
 13 30  1  0
 16 31  1  0
 18 32  1  0
 19 33  1  0
 20 34  1  0
 21 35  1  0
M  END
>  <UniqueID>  (40) 
39

>  <SMILES>  (40) 
O=C1CNC(=O)c2c1c1ccccc1c1[nH]c3ccccc3c21

>  <Energy>  (40) 
103.0111811531479

>  <Genealogy>  (40) 
O=C1CNC(=O)c2c1c1ccccc1c1[nH]c3ccccc3c21 (3D coordinates assigned)
O=C1CNC(=O)c2c1c1ccccc1c1[nH]c3ccccc3c21 (nonaromatic ring conformer: 103.0111811531479 kcal/mol)

>  <smiles>  (40) 
O=C1CNC(=O)c2c1c1ccccc1c1[nH]c3ccccc3c21

>  <score_type>  (40) 
oracle

>  <origin>  (40) 
adg

>  <m_score__min__energy>  (40) 
-9.3499999999999996

>  <m_primary>  (40) 
energy

$$$$
40:0
     RDKit          3D

 55 58  0  0  0  0  0  0  0  0999 V2000
   -0.6060   27.1170  -23.7110 C   0  0  0  0  0  0  0  0  0  0  0  0
    0.1420   25.8540  -23.8330 N   0  0  0  0  0  0  0  0  0  0  0  0
    1.1060   25.9370  -24.9480 C   0  0  0  0  0  0  0  0  0  0  0  0
    1.8700   24.6110  -25.1240 C   0  0  0  0  0  0  0  0  0  0  0  0
    0.9690   23.4440  -25.2510 N   0  0  0  0  0  0  0  0  0  0  0  0
    0.3420   23.3250  -26.5890 C   0  0  0  0  0  0  0  0  0  0  0  0
   -0.2770   21.9200  -26.8080 C   0  0  2  0  0  0  0  0  0  0  0  0
    0.3450   21.2340  -28.0460 C   0  0  0  0  0  0  0  0  0  0  0  0
   -0.3660   21.5500  -29.3800 C   0  0  0  0  0  0  0  0  0  0  0  0
   -1.8200   21.2220  -29.4450 N   0  0  0  0  0  0  0  0  0  0  0  0
   -2.1970   20.0640  -28.5970 C   0  0  0  0  0  0  0  0  0  0  0  0
   -2.3680   20.4610  -27.1020 C   0  0  0  0  0  0  0  0  0  0  0  0
   -1.8390   21.8870  -26.7970 C   0  0  2  0  0  0  0  0  0  0  0  0
   -2.5010   22.9300  -27.7410 C   0  0  0  0  0  0  0  0  0  0  0  0
   -2.7360   22.3530  -29.1530 C   0  0  1  0  0  0  0  0  0  0  0  0
   -2.8770   23.3840  -30.3050 C   0  0  0  0  0  0  0  0  0  0  0  0
   -4.1550   24.0960  -30.3480 N   0  0  0  0  0  0  0  0  0  0  0  0
   -5.3650   23.5580  -30.1030 C   0  0  0  0  0  0  0  0  0  0  0  0
   -6.3070   24.5610  -30.1700 C   0  0  0  0  0  0  0  0  0  0  0  0
   -5.5840   25.7050  -30.4450 C   0  0  0  0  0  0  0  0  0  0  0  0
   -4.2750   25.4010  -30.5370 N   0  0  0  0  0  0  0  0  0  0  0  0
   -0.0150   23.4070  -24.1510 C   0  0  0  0  0  0  0  0  0  0  0  0
   -0.7890   24.7270  -24.0330 C   0  0  0  0  0  0  0  0  0  0  0  0
   -0.7484   27.3575  -22.6471 H   0  0  0  0  0  0  0  0  0  0  0  0
   -0.0413   27.9260  -24.1974 H   0  0  0  0  0  0  0  0  0  0  0  0
   -1.5869   27.0107  -24.1974 H   0  0  0  0  0  0  0  0  0  0  0  0
    0.6700   25.7080  -22.9380 H   0  0  0  0  0  0  0  0  0  0  0  0
    0.5617   26.1635  -25.8767 H   0  0  0  0  0  0  0  0  0  0  0  0
    1.8333   26.7305  -24.7212 H   0  0  0  0  0  0  0  0  0  0  0  0
    2.4877   24.6788  -26.0316 H   0  0  0  0  0  0  0  0  0  0  0  0
    2.4838   24.4598  -24.2238 H   0  0  0  0  0  0  0  0  0  0  0  0
   -0.4507   24.0822  -26.6801 H   0  0  0  0  0  0  0  0  0  0  0  0
    1.1223   23.4788  -27.3489 H   0  0  0  0  0  0  0  0  0  0  0  0
   -0.0084   21.3226  -25.9243 H   0  0  0  0  0  0  0  0  0  0  0  0
    1.3922   21.5604  -28.1294 H   0  0  0  0  0  0  0  0  0  0  0  0
    0.2427   20.1504  -27.8868 H   0  0  0  0  0  0  0  0  0  0  0  0
   -0.2561   22.6275  -29.5719 H   0  0  0  0  0  0  0  0  0  0  0  0
    0.1152   20.9052  -30.1301 H   0  0  0  0  0  0  0  0  0  0  0  0
   -3.1477   19.6503  -28.9646 H   0  0  0  0  0  0  0  0  0  0  0  0
   -1.3870   19.3223  -28.6589 H   0  0  0  0  0  0  0  0  0  0  0  0
   -3.4373   20.4204  -26.8472 H   0  0  0  0  0  0  0  0  0  0  0  0
   -1.7793   19.7526  -26.5007 H   0  0  0  0  0  0  0  0  0  0  0  0
   -2.1323   22.1732  -25.7762 H   0  0  0  0  0  0  0  0  0  0  0  0
   -3.4683   23.2337  -27.3144 H   0  0  0  0  0  0  0  0  0  0  0  0
   -1.8223   23.7910  -27.8308 H   0  0  0  0  0  0  0  0  0  0  0  0
   -3.7543   21.9387  -29.1171 H   0  0  0  0  0  0  0  0  0  0  0  0
   -2.0753   24.1292  -30.1954 H   0  0  0  0  0  0  0  0  0  0  0  0
   -2.8153   22.8085  -31.2404 H   0  0  0  0  0  0  0  0  0  0  0  0
   -5.5667   22.4986  -29.8864 H   0  0  0  0  0  0  0  0  0  0  0  0
   -7.3949   24.4706  -30.0344 H   0  0  0  0  0  0  0  0  0  0  0  0
   -6.0117   26.7107  -30.5698 H   0  0  0  0  0  0  0  0  0  0  0  0
   -0.7288   22.5915  -24.3393 H   0  0  0  0  0  0  0  0  0  0  0  0
    0.5308   23.2458  -23.2097 H   0  0  0  0  0  0  0  0  0  0  0  0
   -1.3655   24.8926  -24.9551 H   0  0  0  0  0  0  0  0  0  0  0  0
   -1.4667   24.6668  -23.1686 H   0  0  0  0  0  0  0  0  0  0  0  0
  1  2  1  0
  2  3  1  0
  3  4  1  0
  4  5  1  0
  5  6  1  0
  6  7  1  0
  7  8  1  0
  8  9  1  0
 10  9  1  0
 10 11  1  0
 11 12  1  0
 12 13  1  0
 13 14  1  0
 14 15  1  0
 15 16  1  0
 16 17  1  0
 17 18  1  0
 18 19  2  0
 19 20  1  0
 20 21  2  0
  5 22  1  0
 22 23  1  0
 23  2  1  0
 13  7  1  0
 21 17  1  0
 15 10  1  0
  1 24  1  0
  1 25  1  0
  1 26  1  0
  2 27  1  0
  3 28  1  0
  3 29  1  0
  4 30  1  0
  4 31  1  0
  6 32  1  0
  6 33  1  0
  7 34  1  1
  8 35  1  0
  8 36  1  0
  9 37  1  0
  9 38  1  0
 11 39  1  0
 11 40  1  0
 12 41  1  0
 12 42  1  0
 13 43  1  1
 14 44  1  0
 14 45  1  0
 15 46  1  1
 16 47  1  0
 16 48  1  0
 18 49  1  0
 19 50  1  0
 20 51  1  0
 22 52  1  0
 22 53  1  0
 23 54  1  0
 23 55  1  0
M  CHG  1   2   1
M  END
>  <UniqueID>  (41) 
40

>  <SMILES>  (41) 
C[NH+]1CCN(C[C@@H]2CC[N@@]3CCC2CC3Cn2cccn2)CC1

>  <Energy>  (41) 
114.19187686255101

>  <Genealogy>  (41) 
C[NH+]1CCN(CC2CCN3CCC2CC3Cn2cccn2)CC1 (protonated)
C[NH+]1CCN(C[C@@H]2CC[N@@]3CCC2CC3Cn2cccn2)CC1 (chirality)
C[NH+]1CCN(C[C@@H]2CC[N@@]3CCC2CC3Cn2cccn2)CC1 (3D coordinates assigned)
C[NH+]1CCN(C[C@@H]2CC[N@@]3CCC2CC3Cn2cccn2)CC1 (nonaromatic ring conformer: 114.19187686255101 kcal/mol)

>  <smiles>  (41) 
CN1CCN(CC2CCN3CCC2CC3Cn2cccn2)CC1

>  <score_type>  (41) 
oracle

>  <origin>  (41) 
adg

>  <m_score__min__energy>  (41) 
-6.8300000000000001

>  <m_primary>  (41) 
energy

$$$$
41:0
     RDKit          3D

 53 55  0  0  0  0  0  0  0  0999 V2000
   -5.7870   24.3120  -30.4800 C   0  0  0  0  0  0  0  0  0  0  0  0
   -4.4230   24.1540  -30.8540 O   0  0  0  0  0  0  0  0  0  0  0  0
   -3.8890   22.9920  -31.4310 C   0  0  0  0  0  0  0  0  0  0  0  0
   -4.3260   22.6200  -32.7060 C   0  0  0  0  0  0  0  0  0  0  0  0
   -3.8230   21.4710  -33.3240 C   0  0  0  0  0  0  0  0  0  0  0  0
   -2.8770   20.6750  -32.6660 C   0  0  0  0  0  0  0  0  0  0  0  0
   -2.2330   19.2390  -33.4580 S   0  0  0  0  0  0  0  0  0  0  0  0
   -1.3300   19.6620  -34.5820 O   0  0  0  0  0  0  0  0  0  0  0  0
   -1.4170   18.4660  -32.4590 O   0  0  0  0  0  0  0  0  0  0  0  0
   -3.5680   18.2610  -34.0430 N   0  0  1  0  0  0  0  0  0  0  0  0
   -3.4270   16.8310  -33.6830 C   0  0  0  0  0  0  0  0  0  0  0  0
   -4.4110   15.8690  -34.3810 C   0  0  0  0  0  0  0  0  0  0  0  0
   -5.7260   15.7060  -33.5990 C   0  0  0  0  0  0  0  0  0  0  0  0
   -6.5360   16.9460  -33.5050 N   0  0  0  0  0  0  0  0  0  0  0  0
   -6.6850   17.4030  -32.1060 C   0  0  0  0  0  0  0  0  0  0  0  0
   -7.3950   18.7310  -32.0590 C   0  0  0  0  0  0  0  0  0  0  0  0
   -8.7400   18.8390  -32.4470 C   0  0  0  0  0  0  0  0  0  0  0  0
   -9.3890   20.0770  -32.4070 C   0  0  0  0  0  0  0  0  0  0  0  0
   -8.6970   21.2250  -31.9910 C   0  0  0  0  0  0  0  0  0  0  0  0
   -9.4040   22.5460  -31.9120 C   0  0  0  0  0  0  0  0  0  0  0  0
   -7.3580   21.1150  -31.5850 C   0  0  0  0  0  0  0  0  0  0  0  0
   -6.7100   19.8760  -31.6250 C   0  0  0  0  0  0  0  0  0  0  0  0
   -6.0830   18.0610  -34.3660 C   0  0  0  0  0  0  0  0  0  0  0  0
   -4.8990   18.8530  -33.7710 C   0  0  0  0  0  0  0  0  0  0  0  0
   -2.4300   21.0450  -31.3910 C   0  0  0  0  0  0  0  0  0  0  0  0
   -2.9310   22.1950  -30.7730 C   0  0  0  0  0  0  0  0  0  0  0  0
   -5.8677   24.3213  -29.3830 H   0  0  0  0  0  0  0  0  0  0  0  0
   -6.1705   25.2606  -30.8840 H   0  0  0  0  0  0  0  0  0  0  0  0
   -6.3771   23.4762  -30.8840 H   0  0  0  0  0  0  0  0  0  0  0  0
   -5.0724   23.2370  -33.2277 H   0  0  0  0  0  0  0  0  0  0  0  0
   -4.1711   21.1916  -34.3294 H   0  0  0  0  0  0  0  0  0  0  0  0
   -3.4680   18.2930  -35.0850 H   0  0  0  0  0  0  0  0  0  0  0  0
   -2.4051   16.5160  -33.9408 H   0  0  0  0  0  0  0  0  0  0  0  0
   -3.6536   16.7668  -32.6085 H   0  0  0  0  0  0  0  0  0  0  0  0
   -4.6415   16.2640  -35.3814 H   0  0  0  0  0  0  0  0  0  0  0  0
   -3.9304   14.8812  -34.4386 H   0  0  0  0  0  0  0  0  0  0  0  0
   -6.3314   14.9356  -34.0990 H   0  0  0  0  0  0  0  0  0  0  0  0
   -5.4499   15.4303  -32.5705 H   0  0  0  0  0  0  0  0  0  0  0  0
   -7.2685   16.6601  -31.5424 H   0  0  0  0  0  0  0  0  0  0  0  0
   -5.6859   17.5170  -31.6600 H   0  0  0  0  0  0  0  0  0  0  0  0
   -9.2859   17.9455  -32.7841 H   0  0  0  0  0  0  0  0  0  0  0  0
  -10.4459   20.1514  -32.7027 H   0  0  0  0  0  0  0  0  0  0  0  0
   -9.5510   22.8207  -30.8570 H   0  0  0  0  0  0  0  0  0  0  0  0
   -8.7978   23.3167  -32.4105 H   0  0  0  0  0  0  0  0  0  0  0  0
  -10.3815   22.4691  -32.4105 H   0  0  0  0  0  0  0  0  0  0  0  0
   -6.8165   22.0059  -31.2342 H   0  0  0  0  0  0  0  0  0  0  0  0
   -5.6576   19.7989  -31.3145 H   0  0  0  0  0  0  0  0  0  0  0  0
   -5.7732   17.6479  -35.3373 H   0  0  0  0  0  0  0  0  0  0  0  0
   -6.9264   18.7607  -34.4617 H   0  0  0  0  0  0  0  0  0  0  0  0
   -4.9169   19.8682  -34.1941 H   0  0  0  0  0  0  0  0  0  0  0  0
   -5.0306   18.8411  -32.6790 H   0  0  0  0  0  0  0  0  0  0  0  0
   -1.6810   20.4277  -30.8733 H   0  0  0  0  0  0  0  0  0  0  0  0
   -2.5765   22.4782  -29.7709 H   0  0  0  0  0  0  0  0  0  0  0  0
  1  2  1  0
  2  3  1  0
  3  4  2  0
  4  5  1  0
  5  6  2  0
  6  7  1  0
  7  8  2  0
  7  9  2  0
  7 10  1  0
 10 11  1  0
 11 12  1  0
 12 13  1  0
 13 14  1  0
 14 15  1  0
 15 16  1  0
 16 17  2  0
 17 18  1  0
 18 19  2  0
 19 20  1  0
 19 21  1  0
 21 22  2  0
 14 23  1  0
 23 24  1  0
  6 25  1  0
 25 26  2  0
 26  3  1  0
 24 10  1  0
 22 16  1  0
  1 27  1  0
  1 28  1  0
  1 29  1  0
  4 30  1  0
  5 31  1  0
 10 32  1  6
 11 33  1  0
 11 34  1  0
 12 35  1  0
 12 36  1  0
 13 37  1  0
 13 38  1  0
 15 39  1  0
 15 40  1  0
 17 41  1  0
 18 42  1  0
 20 43  1  0
 20 44  1  0
 20 45  1  0
 21 46  1  0
 22 47  1  0
 23 48  1  0
 23 49  1  0
 24 50  1  0
 24 51  1  0
 25 52  1  0
 26 53  1  0
M  CHG  1  10   1
M  END
>  <UniqueID>  (42) 
41

>  <SMILES>  (42) 
COc1ccc(S(=O)(=O)[N@H+]2CCCN(Cc3ccc(C)cc3)CC2)cc1

>  <Energy>  (42) 
69.82415502619317

>  <Genealogy>  (42) 
COc1ccc(S(=O)(=O)[NH+]2CCCN(Cc3ccc(C)cc3)CC2)cc1 (protonated)
COc1ccc(S(=O)(=O)[N@H+]2CCCN(Cc3ccc(C)cc3)CC2)cc1 (chirality)
COc1ccc(S(=O)(=O)[N@H+]2CCCN(Cc3ccc(C)cc3)CC2)cc1 (3D coordinates assigned)
COc1ccc(S(=O)(=O)[N@H+]2CCCN(Cc3ccc(C)cc3)CC2)cc1 (nonaromatic ring conformer: 69.82415502619317 kcal/mol)

>  <smiles>  (42) 
COc1ccc(S(=O)(=O)N2CCCN(Cc3ccc(C)cc3)CC2)cc1

>  <score_type>  (42) 
oracle

>  <origin>  (42) 
adg

>  <m_score__min__energy>  (42) 
-6.7400000000000002

>  <m_primary>  (42) 
energy

$$$$
42:0
     RDKit          3D

 50 52  0  0  0  0  0  0  0  0999 V2000
   -4.1890   24.6570  -26.3680 C   0  0  0  0  0  0  0  0  0  0  0  0
   -2.9160   25.3140  -26.7270 N   0  0  0  0  0  0  0  0  0  0  0  0
   -2.3670   25.9940  -25.5400 C   0  0  0  0  0  0  0  0  0  0  0  0
   -1.9310   24.3360  -27.2520 C   0  0  0  0  0  0  0  0  0  0  0  0
   -1.6780   24.4700  -28.7650 C   0  0  0  0  0  0  0  0  0  0  0  0
   -2.7890   25.0860  -29.4220 O   0  0  0  0  0  0  0  0  0  0  0  0
   -3.9000   24.4360  -29.9880 C   0  0  0  0  0  0  0  0  0  0  0  0
   -3.7950   23.2890  -30.8000 C   0  0  0  0  0  0  0  0  0  0  0  0
   -4.9420   22.6910  -31.3300 C   0  0  0  0  0  0  0  0  0  0  0  0
   -6.2100   23.2290  -31.0630 C   0  0  0  0  0  0  0  0  0  0  0  0
   -7.4500   22.6010  -31.6450 C   0  0  0  0  0  0  0  0  0  0  0  0
   -7.2630   21.1440  -31.8070 N   0  0  0  0  0  0  0  0  0  0  0  0
   -8.5550   20.4340  -31.7170 C   0  0  0  0  0  0  0  0  0  0  0  0
   -8.3090   18.9270  -31.6330 C   0  0  0  0  0  0  0  0  0  0  0  0
   -7.3470   18.4600  -32.6940 C   0  0  0  0  0  0  0  0  0  0  0  0
   -7.2380   17.0890  -32.9720 C   0  0  0  0  0  0  0  0  0  0  0  0
   -6.3170   16.6310  -33.9180 C   0  0  0  0  0  0  0  0  0  0  0  0
   -5.4940   17.5370  -34.5890 C   0  0  0  0  0  0  0  0  0  0  0  0
   -5.5850   18.9040  -34.3110 C   0  0  0  0  0  0  0  0  0  0  0  0
   -6.4950   19.3740  -33.3510 C   0  0  0  0  0  0  0  0  0  0  0  0
   -6.6230   20.8590  -33.1070 C   0  0  0  0  0  0  0  0  0  0  0  0
   -6.3150   24.3760  -30.2650 C   0  0  0  0  0  0  0  0  0  0  0  0
   -5.1680   24.9730  -29.7340 C   0  0  0  0  0  0  0  0  0  0  0  0
   -4.2810   24.6095  -25.2729 H   0  0  0  0  0  0  0  0  0  0  0  0
   -5.0290   25.2342  -26.7819 H   0  0  0  0  0  0  0  0  0  0  0  0
   -4.2052   23.6380  -26.7819 H   0  0  0  0  0  0  0  0  0  0  0  0
   -3.1080   26.0510  -27.4430 H   0  0  0  0  0  0  0  0  0  0  0  0
   -2.7551   25.5133  -24.6298 H   0  0  0  0  0  0  0  0  0  0  0  0
   -1.2693   25.9239  -25.5522 H   0  0  0  0  0  0  0  0  0  0  0  0
   -2.6669   27.0522  -25.5522 H   0  0  0  0  0  0  0  0  0  0  0  0
   -0.9771   24.4857  -26.7250 H   0  0  0  0  0  0  0  0  0  0  0  0
   -2.3492   23.3329  -27.0818 H   0  0  0  0  0  0  0  0  0  0  0  0
   -0.7801   25.0848  -28.9257 H   0  0  0  0  0  0  0  0  0  0  0  0
   -1.5387   23.4632  -29.1857 H   0  0  0  0  0  0  0  0  0  0  0  0
   -2.8050   22.8619  -31.0180 H   0  0  0  0  0  0  0  0  0  0  0  0
   -4.8500   21.7938  -31.9598 H   0  0  0  0  0  0  0  0  0  0  0  0
   -8.2996   22.7845  -30.9709 H   0  0  0  0  0  0  0  0  0  0  0  0
   -7.6463   23.0471  -32.6312 H   0  0  0  0  0  0  0  0  0  0  0  0
   -9.0938   20.7674  -30.8178 H   0  0  0  0  0  0  0  0  0  0  0  0
   -9.1563   20.6561  -32.6109 H   0  0  0  0  0  0  0  0  0  0  0  0
   -7.8919   18.6884  -30.6435 H   0  0  0  0  0  0  0  0  0  0  0  0
   -9.2689   18.4134  -31.7901 H   0  0  0  0  0  0  0  0  0  0  0  0
   -7.8811   16.3707  -32.4424 H   0  0  0  0  0  0  0  0  0  0  0  0
   -6.2405   15.5552  -34.1341 H   0  0  0  0  0  0  0  0  0  0  0  0
   -4.7733   17.1751  -35.3371 H   0  0  0  0  0  0  0  0  0  0  0  0
   -4.9399   19.6153  -34.8475 H   0  0  0  0  0  0  0  0  0  0  0  0
   -5.6198   21.3101  -33.1173 H   0  0  0  0  0  0  0  0  0  0  0  0
   -7.2538   21.2847  -33.9013 H   0  0  0  0  0  0  0  0  0  0  0  0
   -7.3044   24.8086  -30.0555 H   0  0  0  0  0  0  0  0  0  0  0  0
   -5.2625   25.8740  -29.1101 H   0  0  0  0  0  0  0  0  0  0  0  0
  1  2  1  0
  2  3  1  0
  2  4  1  0
  4  5  1  0
  5  6  1  0
  6  7  1  0
  7  8  2  0
  8  9  1  0
  9 10  2  0
 10 11  1  0
 11 12  1  0
 12 13  1  0
 13 14  1  0
 14 15  1  0
 15 16  2  0
 16 17  1  0
 17 18  2  0
 18 19  1  0
 19 20  2  0
 20 21  1  0
 10 22  1  0
 22 23  2  0
 23  7  1  0
 21 12  1  0
 20 15  1  0
  1 24  1  0
  1 25  1  0
  1 26  1  0
  2 27  1  0
  3 28  1  0
  3 29  1  0
  3 30  1  0
  4 31  1  0
  4 32  1  0
  5 33  1  0
  5 34  1  0
  8 35  1  0
  9 36  1  0
 11 37  1  0
 11 38  1  0
 13 39  1  0
 13 40  1  0
 14 41  1  0
 14 42  1  0
 16 43  1  0
 17 44  1  0
 18 45  1  0
 19 46  1  0
 21 47  1  0
 21 48  1  0
 22 49  1  0
 23 50  1  0
M  CHG  1   2   1
M  END
>  <UniqueID>  (43) 
42

>  <SMILES>  (43) 
C[NH+](C)CCOc1ccc(CN2CCc3ccccc3C2)cc1

>  <Energy>  (43) 
56.32440168171936

>  <Genealogy>  (43) 
C[NH+](C)CCOc1ccc(CN2CCc3ccccc3C2)cc1 (protonated)
C[NH+](C)CCOc1ccc(CN2CCc3ccccc3C2)cc1 (3D coordinates assigned)
C[NH+](C)CCOc1ccc(CN2CCc3ccccc3C2)cc1 (nonaromatic ring conformer: 56.32440168171936 kcal/mol)

>  <smiles>  (43) 
CN(C)CCOc1ccc(CN2CCc3ccccc3C2)cc1

>  <score_type>  (43) 
oracle

>  <origin>  (43) 
adg

>  <m_score__min__energy>  (43) 
-8.3900000000000006

>  <m_primary>  (43) 
energy

$$$$
43:0
     RDKit          3D

 55 59  0  0  0  0  0  0  0  0999 V2000
   -1.9860   24.9030  -28.2050 C   0  0  0  0  0  0  0  0  0  0  0  0
   -2.7270   25.2880  -29.3580 O   0  0  0  0  0  0  0  0  0  0  0  0
   -3.7650   24.5310  -29.9240 C   0  0  0  0  0  0  0  0  0  0  0  0
   -5.1160   24.8280  -29.7010 C   0  0  0  0  0  0  0  0  0  0  0  0
   -6.1090   24.0500  -30.2870 C   0  0  0  0  0  0  0  0  0  0  0  0
   -5.7740   22.9610  -31.1070 C   0  0  0  0  0  0  0  0  0  0  0  0
   -6.7970   22.2130  -31.6890 C   0  0  0  0  0  0  0  0  0  0  0  0
   -6.5240   21.1450  -32.5480 C   0  0  0  0  0  0  0  0  0  0  0  0
   -7.7040   20.4320  -33.1940 C   0  0  0  0  0  0  0  0  0  0  0  0
   -8.2970   19.4060  -32.3130 N   0  0  0  0  0  0  0  0  0  0  0  0
   -7.3450   18.3800  -31.8580 C   0  0  0  0  0  0  0  0  0  0  0  0
   -7.4490   17.0820  -32.6720 C   0  0  0  0  0  0  0  0  0  0  0  0
   -6.4980   17.0990  -33.8700 C   0  0  0  0  0  0  0  0  0  0  0  0
   -5.3750   16.1990  -33.6250 N   0  0  0  0  0  0  0  0  0  0  0  0
   -4.9500   15.7760  -32.4200 C   0  0  0  0  0  0  0  0  0  0  0  0
   -3.9260   14.8750  -32.6150 C   0  0  0  0  0  0  0  0  0  0  0  0
   -3.7870   14.7920  -33.9880 C   0  0  0  0  0  0  0  0  0  0  0  0
   -4.6860   15.6010  -34.5830 N   0  0  0  0  0  0  0  0  0  0  0  0
   -5.1740   20.7650  -32.7780 C   0  0  0  0  0  0  0  0  0  0  0  0
   -4.8630   19.6430  -33.5820 C   0  0  0  0  0  0  0  0  0  0  0  0
   -3.5430   19.2710  -33.8080 C   0  0  0  0  0  0  0  0  0  0  0  0
   -2.5020   20.0180  -33.2650 C   0  0  0  0  0  0  0  0  0  0  0  0
   -2.7730   21.1140  -32.4500 C   0  0  0  0  0  0  0  0  0  0  0  0
   -4.1080   21.5140  -32.1830 C   0  0  0  0  0  0  0  0  0  0  0  0
   -4.4160   22.6340  -31.3480 C   0  0  0  0  0  0  0  0  0  0  0  0
   -3.4240   23.4440  -30.7380 C   0  0  0  0  0  0  0  0  0  0  0  0
   -1.1810   19.6500  -33.5470 O   0  0  0  0  0  0  0  0  0  0  0  0
   -0.8790   18.7110  -34.5820 C   0  0  0  0  0  0  0  0  0  0  0  0
   -1.9250   17.5890  -34.6010 C   0  0  0  0  0  0  0  0  0  0  0  0
   -3.2410   18.1440  -34.5820 O   0  0  0  0  0  0  0  0  0  0  0  0
   -2.5405   25.1911  -27.2997 H   0  0  0  0  0  0  0  0  0  0  0  0
   -1.8366   23.8132  -28.2122 H   0  0  0  0  0  0  0  0  0  0  0  0
   -1.0084   25.4072  -28.2122 H   0  0  0  0  0  0  0  0  0  0  0  0
   -5.3921   25.6788  -29.0607 H   0  0  0  0  0  0  0  0  0  0  0  0
   -7.1671   24.2904  -30.1061 H   0  0  0  0  0  0  0  0  0  0  0  0
   -7.8433   22.4696  -31.4667 H   0  0  0  0  0  0  0  0  0  0  0  0
   -8.4760   21.1769  -33.4371 H   0  0  0  0  0  0  0  0  0  0  0  0
   -7.3336   19.9236  -34.0964 H   0  0  0  0  0  0  0  0  0  0  0  0
   -8.7880   19.8280  -31.4910 H   0  0  0  0  0  0  0  0  0  0  0  0
   -6.3240   18.7774  -31.9559 H   0  0  0  0  0  0  0  0  0  0  0  0
   -7.5858   18.1398  -30.8119 H   0  0  0  0  0  0  0  0  0  0  0  0
   -7.1932   16.2310  -32.0236 H   0  0  0  0  0  0  0  0  0  0  0  0
   -8.4787   16.9896  -33.0477 H   0  0  0  0  0  0  0  0  0  0  0  0
   -7.0389   16.7709  -34.7699 H   0  0  0  0  0  0  0  0  0  0  0  0
   -6.1182   18.1209  -34.0167 H   0  0  0  0  0  0  0  0  0  0  0  0
   -5.3513   16.0949  -31.4467 H   0  0  0  0  0  0  0  0  0  0  0  0
   -3.3470   14.3400  -31.8478 H   0  0  0  0  0  0  0  0  0  0  0  0
   -3.0547   14.1621  -34.5143 H   0  0  0  0  0  0  0  0  0  0  0  0
   -5.6768   19.0573  -34.0343 H   0  0  0  0  0  0  0  0  0  0  0  0
   -1.9395   21.6783  -32.0064 H   0  0  0  0  0  0  0  0  0  0  0  0
   -2.3622   23.2128  -30.9084 H   0  0  0  0  0  0  0  0  0  0  0  0
   -0.8823   19.2273  -35.5533 H   0  0  0  0  0  0  0  0  0  0  0  0
    0.1126   18.2742  -34.3922 H   0  0  0  0  0  0  0  0  0  0  0  0
   -1.7969   16.9877  -35.5132 H   0  0  0  0  0  0  0  0  0  0  0  0
   -1.7889   16.9550  -33.7124 H   0  0  0  0  0  0  0  0  0  0  0  0
  1  2  1  0
  2  3  1  0
  3  4  2  0
  4  5  1  0
  5  6  2  0
  6  7  1  0
  7  8  2  0
  8  9  1  0
  9 10  1  0
 10 11  1  0
 11 12  1  0
 12 13  1  0
 13 14  1  0
 14 15  1  0
 15 16  2  0
 16 17  1  0
 17 18  2  0
  8 19  1  0
 19 20  2  0
 20 21  1  0
 21 22  2  0
 22 23  1  0
 23 24  2  0
 24 25  1  0
 25 26  2  0
 22 27  1  0
 27 28  1  0
 28 29  1  0
 29 30  1  0
 26  3  1  0
 25  6  1  0
 18 14  1  0
 24 19  1  0
 30 21  1  0
  1 31  1  0
  1 32  1  0
  1 33  1  0
  4 34  1  0
  5 35  1  0
  7 36  1  0
  9 37  1  0
  9 38  1  0
 10 39  1  0
 11 40  1  0
 11 41  1  0
 12 42  1  0
 12 43  1  0
 13 44  1  0
 13 45  1  0
 15 46  1  0
 16 47  1  0
 17 48  1  0
 20 49  1  0
 23 50  1  0
 26 51  1  0
 28 52  1  0
 28 53  1  0
 29 54  1  0
 29 55  1  0
M  END
>  <UniqueID>  (44) 
43

>  <SMILES>  (44) 
COc1ccc2cc(CNCCCn3cccn3)c3cc4c(cc3c2c1)OCCO4

>  <Energy>  (44) 
102.02489986504922

>  <Genealogy>  (44) 
COc1ccc2cc(CNCCCn3cccn3)c3cc4c(cc3c2c1)OCCO4 (3D coordinates assigned)
COc1ccc2cc(CNCCCn3cccn3)c3cc4c(cc3c2c1)OCCO4 (nonaromatic ring conformer: 102.02489986504922 kcal/mol)

>  <smiles>  (44) 
COc1ccc2cc(CNCCCn3cccn3)c3cc4c(cc3c2c1)OCCO4

>  <score_type>  (44) 
oracle

>  <origin>  (44) 
adg

>  <m_score__min__energy>  (44) 
-8.9800000000000004

>  <m_primary>  (44) 
energy

$$$$
44:0
     RDKit          3D

 57 60  0  0  0  0  0  0  0  0999 V2000
   -3.5810   24.5330  -29.1220 C   0  0  0  0  0  0  0  0  0  0  0  0
   -2.3650   25.2450  -29.3280 O   0  0  0  0  0  0  0  0  0  0  0  0
   -1.3070   25.3020  -28.4100 C   0  0  0  0  0  0  0  0  0  0  0  0
   -0.8520   26.5280  -27.8820 C   0  0  0  0  0  0  0  0  0  0  0  0
    0.1800   26.5550  -26.9420 C   0  0  0  0  0  0  0  0  0  0  0  0
    0.7690   25.3670  -26.5150 C   0  0  0  0  0  0  0  0  0  0  0  0
    0.3330   24.1460  -27.0310 C   0  0  0  0  0  0  0  0  0  0  0  0
   -0.6970   24.0990  -27.9890 C   0  0  0  0  0  0  0  0  0  0  0  0
   -1.1040   22.8290  -28.5380 N   0  0  0  0  0  0  0  0  0  0  0  0
   -2.0630   21.9820  -27.8160 C   0  0  0  0  0  0  0  0  0  0  0  0
   -2.7230   20.9690  -28.7610 C   0  0  0  0  0  0  0  0  0  0  0  0
   -3.1160   21.6180  -30.0290 N   0  0  0  0  0  0  0  0  0  0  0  0
   -3.8560   20.6540  -30.8760 C   0  0  0  0  0  0  0  0  0  0  0  0
   -3.6180   20.8960  -32.3790 C   0  0  0  0  0  0  0  0  0  0  0  0
   -4.3070   22.1620  -32.9080 C   0  0  0  0  0  0  0  0  0  0  0  0
   -5.6270   22.3720  -32.2820 N   0  0  0  0  0  0  0  0  0  0  0  0
   -5.8630   23.6110  -31.5750 C   0  0  0  0  0  0  0  0  0  0  0  0
   -5.0080   24.5400  -31.6010 O   0  0  0  0  0  0  0  0  0  0  0  0
   -7.1490   23.8280  -30.8400 C   0  0  0  0  0  0  0  0  0  0  0  0
   -7.6230   22.5180  -30.2180 C   0  0  0  0  0  0  0  0  0  0  0  0
   -7.6660   21.4210  -31.2460 C   0  0  0  0  0  0  0  0  0  0  0  0
   -8.6600   20.4330  -31.1690 C   0  0  0  0  0  0  0  0  0  0  0  0
   -8.6750   19.3790  -32.0800 C   0  0  0  0  0  0  0  0  0  0  0  0
   -7.7040   19.3050  -33.0760 C   0  0  0  0  0  0  0  0  0  0  0  0
   -6.7040   20.2770  -33.1610 C   0  0  0  0  0  0  0  0  0  0  0  0
   -6.6530   21.3410  -32.2320 C   0  0  0  0  0  0  0  0  0  0  0  0
   -1.9610   22.2150  -30.7610 C   0  0  0  0  0  0  0  0  0  0  0  0
   -0.7100   22.4350  -29.8910 C   0  0  0  0  0  0  0  0  0  0  0  0
   -3.7646   24.4255  -28.0428 H   0  0  0  0  0  0  0  0  0  0  0  0
   -4.4126   25.0868  -29.5821 H   0  0  0  0  0  0  0  0  0  0  0  0
   -3.5050   23.5367  -29.5821 H   0  0  0  0  0  0  0  0  0  0  0  0
   -1.3136   27.4699  -28.2132 H   0  0  0  0  0  0  0  0  0  0  0  0
    0.5288   27.5167  -26.5376 H   0  0  0  0  0  0  0  0  0  0  0  0
    1.5784   25.3914  -25.7705 H   0  0  0  0  0  0  0  0  0  0  0  0
    0.7988   23.2112  -26.6857 H   0  0  0  0  0  0  0  0  0  0  0  0
   -1.5341   21.4387  -27.0190 H   0  0  0  0  0  0  0  0  0  0  0  0
   -2.8467   22.6254  -27.3896 H   0  0  0  0  0  0  0  0  0  0  0  0
   -2.0112   20.1582  -28.9756 H   0  0  0  0  0  0  0  0  0  0  0  0
   -3.6241   20.5666  -28.2751 H   0  0  0  0  0  0  0  0  0  0  0  0
   -3.5255   19.6354  -30.6247 H   0  0  0  0  0  0  0  0  0  0  0  0
   -4.9300   20.7870  -30.6789 H   0  0  0  0  0  0  0  0  0  0  0  0
   -2.5355   20.9905  -32.5501 H   0  0  0  0  0  0  0  0  0  0  0  0
   -4.0504   20.0406  -32.9187 H   0  0  0  0  0  0  0  0  0  0  0  0
   -3.6685   23.0312  -32.6919 H   0  0  0  0  0  0  0  0  0  0  0  0
   -4.4583   22.0409  -33.9908 H   0  0  0  0  0  0  0  0  0  0  0  0
   -6.9932   24.5728  -30.0457 H   0  0  0  0  0  0  0  0  0  0  0  0
   -7.9115   24.1888  -31.5460 H   0  0  0  0  0  0  0  0  0  0  0  0
   -6.9309   22.2303  -29.4129 H   0  0  0  0  0  0  0  0  0  0  0  0
   -8.6371   22.6652  -29.8182 H   0  0  0  0  0  0  0  0  0  0  0  0
   -9.4304   20.4911  -30.3860 H   0  0  0  0  0  0  0  0  0  0  0  0
   -9.4538   18.6051  -32.0127 H   0  0  0  0  0  0  0  0  0  0  0  0
   -7.7246   18.4767  -33.7996 H   0  0  0  0  0  0  0  0  0  0  0  0
   -5.9491   20.2136  -33.9586 H   0  0  0  0  0  0  0  0  0  0  0  0
   -1.6919   21.5424  -31.5888 H   0  0  0  0  0  0  0  0  0  0  0  0
   -2.2845   23.2077  -31.1074 H   0  0  0  0  0  0  0  0  0  0  0  0
   -0.1301   21.5014  -29.8442 H   0  0  0  0  0  0  0  0  0  0  0  0
   -0.0971   23.2331  -30.3353 H   0  0  0  0  0  0  0  0  0  0  0  0
  1  2  1  0
  2  3  1  0
  3  4  2  0
  4  5  1  0
  5  6  2  0
  6  7  1  0
  7  8  2  0
  8  9  1  0
  9 10  1  0
 10 11  1  0
 11 12  1  0
 12 13  1  0
 13 14  1  0
 14 15  1  0
 15 16  1  0
 16 17  1  0
 17 18  2  0
 17 19  1  0
 19 20  1  0
 20 21  1  0
 21 22  2  0
 22 23  1  0
 23 24  2  0
 24 25  1  0
 25 26  2  0
 12 27  1  0
 27 28  1  0
  8  3  1  0
 28  9  1  0
 26 16  1  0
 26 21  1  0
  1 29  1  0
  1 30  1  0
  1 31  1  0
  4 32  1  0
  5 33  1  0
  6 34  1  0
  7 35  1  0
 10 36  1  0
 10 37  1  0
 11 38  1  0
 11 39  1  0
 13 40  1  0
 13 41  1  0
 14 42  1  0
 14 43  1  0
 15 44  1  0
 15 45  1  0
 19 46  1  0
 19 47  1  0
 20 48  1  0
 20 49  1  0
 22 50  1  0
 23 51  1  0
 24 52  1  0
 25 53  1  0
 27 54  1  0
 27 55  1  0
 28 56  1  0
 28 57  1  0
M  END
>  <UniqueID>  (45) 
44

>  <SMILES>  (45) 
COc1ccccc1N1CCN(CCCN2C(=O)CCc3ccccc32)CC1

>  <Energy>  (45) 
67.50167507316762

>  <Genealogy>  (45) 
COc1ccccc1N1CCN(CCCN2C(=O)CCc3ccccc32)CC1 (3D coordinates assigned)
COc1ccccc1N1CCN(CCCN2C(=O)CCc3ccccc32)CC1 (nonaromatic ring conformer: 67.50167507316762 kcal/mol)

>  <smiles>  (45) 
COc1ccccc1N1CCN(CCCN2C(=O)CCc3ccccc32)CC1

>  <score_type>  (45) 
oracle

>  <origin>  (45) 
adg

>  <m_score__min__energy>  (45) 
-9.5800000000000001

>  <m_primary>  (45) 
energy

$$$$
45:0
     RDKit          3D

 49 52  0  0  0  0  0  0  0  0999 V2000
   -2.2360   24.5600  -28.7620 C   0  0  0  0  0  0  0  0  0  0  0  0
   -3.1320   25.1200  -29.7150 O   0  0  0  0  0  0  0  0  0  0  0  0
   -4.3280   24.5140  -30.1290 C   0  0  0  0  0  0  0  0  0  0  0  0
   -4.5350   23.1660  -29.8130 C   0  0  0  0  0  0  0  0  0  0  0  0
   -5.7080   22.5170  -30.2060 C   0  0  0  0  0  0  0  0  0  0  0  0
   -6.6910   23.2070  -30.9270 C   0  0  0  0  0  0  0  0  0  0  0  0
   -8.1600   22.3790  -31.4490 S   0  0  0  0  0  0  0  0  0  0  0  0
   -8.8440   21.7820  -30.2500 O   0  0  0  0  0  0  0  0  0  0  0  0
   -9.0980   23.3770  -32.0700 O   0  0  0  0  0  0  0  0  0  0  0  0
   -7.8110   21.1110  -32.6020 N   0  0  0  0  0  0  0  0  0  0  0  0
   -8.6720   19.9240  -32.3900 C   0  0  0  0  0  0  0  0  0  0  0  0
   -7.9410   18.7840  -31.6570 C   0  0  0  0  0  0  0  0  0  0  0  0
   -6.7010   18.3580  -32.3580 N   0  0  0  0  0  0  0  0  0  0  0  0
   -6.8940   17.1160  -33.1320 C   0  0  0  0  0  0  0  0  0  0  0  0
   -5.5690   16.4570  -33.4050 C   0  0  0  0  0  0  0  0  0  0  0  0
   -4.8540   16.7710  -34.5900 C   0  0  0  0  0  0  0  0  0  0  0  0
   -3.6090   16.1730  -34.8530 C   0  0  0  0  0  0  0  0  0  0  0  0
   -3.1100   15.2720  -33.9180 C   0  0  0  0  0  0  0  0  0  0  0  0
   -3.7870   14.9660  -32.7830 C   0  0  0  0  0  0  0  0  0  0  0  0
   -5.0230   15.5340  -32.4830 C   0  0  0  0  0  0  0  0  0  0  0  0
   -3.0610   14.0520  -32.0450 O   0  0  0  0  0  0  0  0  0  0  0  0
   -1.8510   13.7660  -32.7610 C   0  0  0  0  0  0  0  0  0  0  0  0
   -1.9240   14.5650  -33.9500 O   0  0  0  0  0  0  0  0  0  0  0  0
   -6.1050   19.4170  -33.2050 C   0  0  0  0  0  0  0  0  0  0  0  0
   -6.3650   20.8070  -32.6170 C   0  0  0  0  0  0  0  0  0  0  0  0
   -6.4930   24.5600  -31.2370 C   0  0  0  0  0  0  0  0  0  0  0  0
   -5.3200   25.2110  -30.8450 C   0  0  0  0  0  0  0  0  0  0  0  0
   -2.5941   24.7838  -27.7463 H   0  0  0  0  0  0  0  0  0  0  0  0
   -2.1866   23.4700  -28.9015 H   0  0  0  0  0  0  0  0  0  0  0  0
   -1.2346   24.9932  -28.9015 H   0  0  0  0  0  0  0  0  0  0  0  0
   -3.7679   22.6134  -29.2507 H   0  0  0  0  0  0  0  0  0  0  0  0
   -5.8605   21.4586  -29.9479 H   0  0  0  0  0  0  0  0  0  0  0  0
   -9.5448   20.2245  -31.7918 H   0  0  0  0  0  0  0  0  0  0  0  0
   -8.9682   19.5468  -33.3800 H   0  0  0  0  0  0  0  0  0  0  0  0
   -7.6744   19.1282  -30.6468 H   0  0  0  0  0  0  0  0  0  0  0  0
   -8.6198   17.9190  -31.6241 H   0  0  0  0  0  0  0  0  0  0  0  0
   -7.5304   16.4264  -32.5580 H   0  0  0  0  0  0  0  0  0  0  0  0
   -7.3736   17.3637  -34.0904 H   0  0  0  0  0  0  0  0  0  0  0  0
   -5.2773   17.4882  -35.3087 H   0  0  0  0  0  0  0  0  0  0  0  0
   -3.0476   16.4100  -35.7688 H   0  0  0  0  0  0  0  0  0  0  0  0
   -5.5577   15.2728  -31.5579 H   0  0  0  0  0  0  0  0  0  0  0  0
   -0.9720   14.0450  -32.1613 H   0  0  0  0  0  0  0  0  0  0  0  0
   -1.7500   12.6947  -32.9893 H   0  0  0  0  0  0  0  0  0  0  0  0
   -5.0194   19.2535  -33.2733 H   0  0  0  0  0  0  0  0  0  0  0  0
   -6.5677   19.3679  -34.2018 H   0  0  0  0  0  0  0  0  0  0  0  0
   -5.9792   20.8405  -31.5874 H   0  0  0  0  0  0  0  0  0  0  0  0
   -5.8552   21.5543  -33.2427 H   0  0  0  0  0  0  0  0  0  0  0  0
   -7.2655   25.1124  -31.7921 H   0  0  0  0  0  0  0  0  0  0  0  0
   -5.1713   26.2714  -31.0967 H   0  0  0  0  0  0  0  0  0  0  0  0
  1  2  1  0
  2  3  1  0
  3  4  2  0
  4  5  1  0
  5  6  2  0
  6  7  1  0
  7  8  2  0
  7  9  2  0
  7 10  1  0
 10 11  1  0
 11 12  1  0
 12 13  1  0
 13 14  1  0
 14 15  1  0
 15 16  2  0
 16 17  1  0
 17 18  2  0
 18 19  1  0
 19 20  2  0
 19 21  1  0
 21 22  1  0
 22 23  1  0
 13 24  1  0
 24 25  1  0
  6 26  1  0
 26 27  2  0
 27  3  1  0
 25 10  1  0
 20 15  1  0
 23 18  1  0
  1 28  1  0
  1 29  1  0
  1 30  1  0
  4 31  1  0
  5 32  1  0
 11 33  1  0
 11 34  1  0
 12 35  1  0
 12 36  1  0
 14 37  1  0
 14 38  1  0
 16 39  1  0
 17 40  1  0
 20 41  1  0
 22 42  1  0
 22 43  1  0
 24 44  1  0
 24 45  1  0
 25 46  1  0
 25 47  1  0
 26 48  1  0
 27 49  1  0
M  END
>  <UniqueID>  (46) 
45

>  <SMILES>  (46) 
COc1ccc(S(=O)(=O)N2CCN(Cc3ccc4c(c3)OCO4)CC2)cc1

>  <Energy>  (46) 
89.08707673396385

>  <Genealogy>  (46) 
COc1ccc(S(=O)(=O)N2CCN(Cc3ccc4c(c3)OCO4)CC2)cc1 (3D coordinates assigned)
COc1ccc(S(=O)(=O)N2CCN(Cc3ccc4c(c3)OCO4)CC2)cc1 (nonaromatic ring conformer: 89.08707673396385 kcal/mol)

>  <smiles>  (46) 
COc1ccc(S(=O)(=O)N2CCN(Cc3ccc4c(c3)OCO4)CC2)cc1

>  <score_type>  (46) 
oracle

>  <origin>  (46) 
adg

>  <m_score__min__energy>  (46) 
-8.9000000000000004

>  <m_primary>  (46) 
energy

$$$$
46:0
     RDKit          3D

 46 47  0  0  0  0  0  0  0  0999 V2000
   -9.4860   19.8280  -32.7040 C   0  0  0  0  0  0  0  0  0  0  0  0
   -8.3520   20.6630  -32.1900 C   0  0  0  0  0  0  0  0  0  0  0  0
   -8.5250   21.8980  -31.5980 C   0  0  0  0  0  0  0  0  0  0  0  0
   -7.2480   22.3140  -31.2970 C   0  0  0  0  0  0  0  0  0  0  0  0
   -6.8730   23.6180  -30.6580 C   0  0  0  0  0  0  0  0  0  0  0  0
   -5.5300   24.0580  -31.0910 N   0  0  0  0  0  0  0  0  0  0  0  0
   -5.3380   25.4890  -30.8190 C   0  0  0  0  0  0  0  0  0  0  0  0
   -4.4210   23.2340  -30.5500 C   0  0  0  0  0  0  0  0  0  0  0  0
   -3.6570   22.4560  -31.6000 C   0  0  0  0  0  0  0  0  0  0  0  0
   -4.1600   22.1850  -32.8220 N   0  0  0  0  0  0  0  0  0  0  0  0
   -3.2080   21.4850  -33.4630 C   0  0  0  0  0  0  0  0  0  0  0  0
   -2.1240   21.3440  -32.6240 C   0  0  0  0  0  0  0  0  0  0  0  0
   -2.4000   21.9670  -31.4620 N   0  0  0  0  0  0  0  0  0  0  0  0
   -1.5080   22.0370  -30.3070 C   0  0  0  0  0  0  0  0  0  0  0  0
   -6.3580   21.3950  -31.7090 N   0  0  0  0  0  0  0  0  0  0  0  0
   -7.0190   20.3880  -32.2660 N   0  0  0  0  0  0  0  0  0  0  0  0
   -6.3320   19.1630  -32.7530 C   0  0  0  0  0  0  0  0  0  0  0  0
   -6.1170   19.2670  -34.2740 C   0  0  0  0  0  0  0  0  0  0  0  0
   -7.2130   17.9220  -32.4730 C   0  0  0  0  0  0  0  0  0  0  0  0
   -4.9820   18.9480  -32.0340 C   0  0  0  0  0  0  0  0  0  0  0  0
  -10.0497   19.4129  -31.8555 H   0  0  0  0  0  0  0  0  0  0  0  0
  -10.1527   20.4524  -33.3168 H   0  0  0  0  0  0  0  0  0  0  0  0
   -9.0877   19.0060  -33.3168 H   0  0  0  0  0  0  0  0  0  0  0  0
   -9.4695   22.4293  -31.4095 H   0  0  0  0  0  0  0  0  0  0  0  0
   -7.6105   24.3827  -30.9432 H   0  0  0  0  0  0  0  0  0  0  0  0
   -6.8597   23.4804  -29.5667 H   0  0  0  0  0  0  0  0  0  0  0  0
   -5.3156   25.6558  -29.7320 H   0  0  0  0  0  0  0  0  0  0  0  0
   -4.3871   25.8218  -31.2607 H   0  0  0  0  0  0  0  0  0  0  0  0
   -6.1675   26.0607  -31.2607 H   0  0  0  0  0  0  0  0  0  0  0  0
   -3.7153   23.9014  -30.0337 H   0  0  0  0  0  0  0  0  0  0  0  0
   -4.8769   22.4930  -29.8768 H   0  0  0  0  0  0  0  0  0  0  0  0
   -5.0910   22.4650  -33.2020 H   0  0  0  0  0  0  0  0  0  0  0  0
   -3.2820   21.0903  -34.4871 H   0  0  0  0  0  0  0  0  0  0  0  0
   -1.1910   20.8125  -32.8628 H   0  0  0  0  0  0  0  0  0  0  0  0
   -2.1015   21.9904  -29.3820 H   0  0  0  0  0  0  0  0  0  0  0  0
   -0.8052   21.1912  -30.3347 H   0  0  0  0  0  0  0  0  0  0  0  0
   -0.9457   22.9820  -30.3347 H   0  0  0  0  0  0  0  0  0  0  0  0
   -5.1435   19.7379  -34.4753 H   0  0  0  0  0  0  0  0  0  0  0  0
   -6.1358   18.2602  -34.7167 H   0  0  0  0  0  0  0  0  0  0  0  0
   -6.9180   19.8772  -34.7167 H   0  0  0  0  0  0  0  0  0  0  0  0
   -7.3131   17.7810  -31.3867 H   0  0  0  0  0  0  0  0  0  0  0  0
   -8.2084   18.0714  -32.9166 H   0  0  0  0  0  0  0  0  0  0  0  0
   -6.7437   17.0315  -32.9166 H   0  0  0  0  0  0  0  0  0  0  0  0
   -5.1383   18.9729  -30.9454 H   0  0  0  0  0  0  0  0  0  0  0  0
   -4.5644   17.9720  -32.3223 H   0  0  0  0  0  0  0  0  0  0  0  0
   -4.2819   19.7460  -32.3223 H   0  0  0  0  0  0  0  0  0  0  0  0
  1  2  1  0
  2  3  2  0
  3  4  1  0
  4  5  1  0
  5  6  1  0
  6  7  1  0
  6  8  1  0
  8  9  1  0
  9 10  2  0
 10 11  1  0
 11 12  2  0
 12 13  1  0
 13 14  1  0
  4 15  2  0
 15 16  1  0
 16 17  1  0
 17 18  1  0
 17 19  1  0
 17 20  1  0
 16  2  1  0
 13  9  1  0
  1 21  1  0
  1 22  1  0
  1 23  1  0
  3 24  1  0
  5 25  1  0
  5 26  1  0
  7 27  1  0
  7 28  1  0
  7 29  1  0
  8 30  1  0
  8 31  1  0
 10 32  1  0
 11 33  1  0
 12 34  1  0
 14 35  1  0
 14 36  1  0
 14 37  1  0
 18 38  1  0
 18 39  1  0
 18 40  1  0
 19 41  1  0
 19 42  1  0
 19 43  1  0
 20 44  1  0
 20 45  1  0
 20 46  1  0
M  CHG  1  10   1
M  END
>  <UniqueID>  (47) 
46

>  <SMILES>  (47) 
Cc1cc(CN(C)Cc2[nH+]ccn2C)nn1C(C)(C)C

>  <Energy>  (47) 
106.2112346880346

>  <Genealogy>  (47) 
Cc1cc(CN(C)Cc2[nH+]ccn2C)nn1C(C)(C)C (protonated)
Cc1cc(CN(C)Cc2[nH+]ccn2C)nn1C(C)(C)C (3D coordinates assigned)
Cc1cc(CN(C)Cc2[nH+]ccn2C)nn1C(C)(C)C (optimized conformer: 106.2112346880346 kcal/mol)

>  <smiles>  (47) 
Cc1cc(CN(C)Cc2nccn2C)nn1C(C)(C)C

>  <score_type>  (47) 
oracle

>  <origin>  (47) 
adg

>  <m_score__min__energy>  (47) 
-6.2199999999999998

>  <m_primary>  (47) 
energy

$$$$
47:0
     RDKit          3D

 57 57  0  0  0  0  0  0  0  0999 V2000
   -6.4920   16.2860  -34.1340 C   0  0  0  0  0  0  0  0  0  0  0  0
   -5.7960   17.5430  -33.7730 N   0  0  0  0  0  0  0  0  0  0  0  0
   -4.7960   17.2770  -32.7120 C   0  0  0  0  0  0  0  0  0  0  0  0
   -5.0720   18.0320  -34.9740 C   0  0  0  0  0  0  0  0  0  0  0  0
   -6.7620   18.6060  -33.3520 C   0  0  0  0  0  0  0  0  0  0  0  0
   -7.7830   18.1950  -32.2560 C   0  0  0  0  0  0  0  0  0  0  0  0
   -9.0940   18.9780  -32.3590 C   0  0  0  0  0  0  0  0  0  0  0  0
   -9.0550   20.4070  -31.2210 S   0  0  0  0  0  0  0  0  0  0  0  0
   -8.1160   21.5350  -32.3180 C   0  0  0  0  0  0  0  0  0  0  0  0
   -8.3480   23.0250  -32.0220 C   0  0  0  0  0  0  0  0  0  0  0  0
   -7.0880   23.7960  -31.5940 C   0  0  0  0  0  0  0  0  0  0  0  0
   -6.9750   23.9530  -30.0710 C   0  0  0  0  0  0  0  0  0  0  0  0
   -6.1900   25.2200  -29.7050 C   0  0  0  0  0  0  0  0  0  0  0  0
   -5.2620   25.6840  -30.8380 C   0  0  0  0  0  0  0  0  0  0  0  0
   -3.8710   25.2450  -30.6420 N   0  0  0  0  0  0  0  0  0  0  0  0
   -3.7660   23.9050  -30.0360 C   0  0  0  0  0  0  0  0  0  0  0  0
   -3.4180   22.8880  -31.0910 C   0  0  0  0  0  0  0  0  0  0  0  0
   -4.3630   22.5410  -32.0710 C   0  0  0  0  0  0  0  0  0  0  0  0
   -4.0350   21.6250  -33.0760 C   0  0  0  0  0  0  0  0  0  0  0  0
   -2.7670   21.0410  -33.1020 C   0  0  0  0  0  0  0  0  0  0  0  0
   -1.8260   21.3660  -32.1220 C   0  0  0  0  0  0  0  0  0  0  0  0
   -2.1500   22.2810  -31.1150 C   0  0  0  0  0  0  0  0  0  0  0  0
   -6.7867   15.7538  -33.2175 H   0  0  0  0  0  0  0  0  0  0  0  0
   -7.3888   16.5205  -34.7263 H   0  0  0  0  0  0  0  0  0  0  0  0
   -5.8173   15.6504  -34.7263 H   0  0  0  0  0  0  0  0  0  0  0  0
   -5.2661   17.4020  -31.7254 H   0  0  0  0  0  0  0  0  0  0  0  0
   -4.4207   16.2478  -32.8116 H   0  0  0  0  0  0  0  0  0  0  0  0
   -3.9590   17.9837  -32.8116 H   0  0  0  0  0  0  0  0  0  0  0  0
   -4.1983   18.6221  -34.6604 H   0  0  0  0  0  0  0  0  0  0  0  0
   -4.7380   17.1737  -35.5756 H   0  0  0  0  0  0  0  0  0  0  0  0
   -5.7434   18.6623  -35.5756 H   0  0  0  0  0  0  0  0  0  0  0  0
   -6.1808   19.4581  -32.9696 H   0  0  0  0  0  0  0  0  0  0  0  0
   -7.3598   18.8378  -34.2458 H   0  0  0  0  0  0  0  0  0  0  0  0
   -8.0026   17.1223  -32.3618 H   0  0  0  0  0  0  0  0  0  0  0  0
   -7.3338   18.4190  -31.2772 H   0  0  0  0  0  0  0  0  0  0  0  0
   -9.2247   19.3366  -33.3907 H   0  0  0  0  0  0  0  0  0  0  0  0
   -9.9318   18.3197  -32.0856 H   0  0  0  0  0  0  0  0  0  0  0  0
   -7.0436   21.3209  -32.1992 H   0  0  0  0  0  0  0  0  0  0  0  0
   -8.4711   21.3534  -33.3431 H   0  0  0  0  0  0  0  0  0  0  0  0
   -8.7470   23.4975  -32.9317 H   0  0  0  0  0  0  0  0  0  0  0  0
   -9.0447   23.0694  -31.1719 H   0  0  0  0  0  0  0  0  0  0  0  0
   -6.2032   23.2531  -31.9579 H   0  0  0  0  0  0  0  0  0  0  0  0
   -7.1543   24.8051  -32.0269 H   0  0  0  0  0  0  0  0  0  0  0  0
   -7.9850   24.0187  -29.6403 H   0  0  0  0  0  0  0  0  0  0  0  0
   -6.4399   23.0807  -29.6677 H   0  0  0  0  0  0  0  0  0  0  0  0
   -6.9047   26.0258  -29.4819 H   0  0  0  0  0  0  0  0  0  0  0  0
   -5.5618   24.9843  -28.8333 H   0  0  0  0  0  0  0  0  0  0  0  0
   -5.6317   25.2713  -31.7883 H   0  0  0  0  0  0  0  0  0  0  0  0
   -5.2676   26.7840  -30.8457 H   0  0  0  0  0  0  0  0  0  0  0  0
   -3.4230   25.2060  -31.5890 H   0  0  0  0  0  0  0  0  0  0  0  0
   -2.9807   23.9141  -29.2658 H   0  0  0  0  0  0  0  0  0  0  0  0
   -4.7314   23.6377  -29.5815 H   0  0  0  0  0  0  0  0  0  0  0  0
   -5.3660   22.9920  -32.0479 H   0  0  0  0  0  0  0  0  0  0  0  0
   -4.7762   21.3647  -33.8460 H   0  0  0  0  0  0  0  0  0  0  0  0
   -2.5087   20.3240  -33.8952 H   0  0  0  0  0  0  0  0  0  0  0  0
   -0.8290   20.9017  -32.1423 H   0  0  0  0  0  0  0  0  0  0  0  0
   -1.4101   22.5266  -30.3390 H   0  0  0  0  0  0  0  0  0  0  0  0
  1  2  1  0
  2  3  1  0
  2  4  1  0
  2  5  1  0
  5  6  1  0
  6  7  1  0
  7  8  1  0
  8  9  1  0
  9 10  1  0
 10 11  1  0
 11 12  1  0
 12 13  1  0
 13 14  1  0
 14 15  1  0
 15 16  1  0
 16 17  1  0
 17 18  2  0
 18 19  1  0
 19 20  2  0
 20 21  1  0
 21 22  2  0
 22 17  1  0
  1 23  1  0
  1 24  1  0
  1 25  1  0
  3 26  1  0
  3 27  1  0
  3 28  1  0
  4 29  1  0
  4 30  1  0
  4 31  1  0
  5 32  1  0
  5 33  1  0
  6 34  1  0
  6 35  1  0
  7 36  1  0
  7 37  1  0
  9 38  1  0
  9 39  1  0
 10 40  1  0
 10 41  1  0
 11 42  1  0
 11 43  1  0
 12 44  1  0
 12 45  1  0
 13 46  1  0
 13 47  1  0
 14 48  1  0
 14 49  1  0
 15 50  1  0
 16 51  1  0
 16 52  1  0
 18 53  1  0
 19 54  1  0
 20 55  1  0
 21 56  1  0
 22 57  1  0
M  CHG  1   2   1
M  END
>  <UniqueID>  (48) 
47

>  <SMILES>  (48) 
C[N+](C)(C)CCCSCCCCCCNCc1ccccc1

>  <Energy>  (48) 
47.83764914867369

>  <Genealogy>  (48) 
C[N+](C)(C)CCCSCCCCCCNCc1ccccc1 (3D coordinates assigned)
C[N+](C)(C)CCCSCCCCCCNCc1ccccc1 (optimized conformer: 47.83764914867369 kcal/mol)

>  <smiles>  (48) 
C[N+](C)(C)CCCSCCCCCCNCc1ccccc1

>  <score_type>  (48) 
oracle

>  <origin>  (48) 
adg

>  <m_score__min__energy>  (48) 
-6.7999999999999998

>  <m_primary>  (48) 
energy

$$$$
48:0
     RDKit          3D

 28 29  0  0  0  0  0  0  0  0999 V2000
   -8.3690   20.7070  -32.3280 C   0  0  0  0  0  0  0  0  0  0  0  0
   -8.9730   22.0560  -31.9410 C   0  0  0  0  0  0  0  0  0  0  0  0
   -7.9420   23.0120  -31.3200 C   0  0  0  0  0  0  0  0  0  0  0  0
   -6.7870   23.3790  -32.2660 C   0  0  0  0  0  0  0  0  0  0  0  0
   -5.5050   23.4230  -31.5480 N   0  0  0  0  0  0  0  0  0  0  0  0
   -5.0270   24.6200  -31.1710 N   0  0  0  0  0  0  0  0  0  0  0  0
   -3.8610   24.7440  -30.5270 N   0  0  0  0  0  0  0  0  0  0  0  0
   -3.1580   23.6230  -30.2590 C   0  0  0  0  0  0  0  0  0  0  0  0
   -1.9480   23.4770  -29.6210 C   0  0  0  0  0  0  0  0  0  0  0  0
   -1.1000   24.5360  -29.0570 C   0  0  0  0  0  0  0  0  0  0  0  0
   -1.6140   25.8580  -28.9170 N   0  0  0  0  0  0  0  0  0  0  0  0
    0.0800   24.2830  -28.6950 O   0  0  0  0  0  0  0  0  0  0  0  0
   -1.6410   22.1550  -29.5900 N   0  0  0  0  0  0  0  0  0  0  0  0
   -2.6810   21.5440  -30.2120 C   0  0  0  0  0  0  0  0  0  0  0  0
   -3.6080   22.4300  -30.6220 N   0  0  0  0  0  0  0  0  0  0  0  0
   -4.7830   22.2880  -31.2720 C   0  0  0  0  0  0  0  0  0  0  0  0
   -5.1930   21.1440  -31.6120 O   0  0  0  0  0  0  0  0  0  0  0  0
   -8.1167   20.1435  -31.4176 H   0  0  0  0  0  0  0  0  0  0  0  0
   -9.0975   20.1361  -32.9225 H   0  0  0  0  0  0  0  0  0  0  0  0
   -7.4580   20.8702  -32.9225 H   0  0  0  0  0  0  0  0  0  0  0  0
   -9.3902   22.5266  -32.8435 H   0  0  0  0  0  0  0  0  0  0  0  0
   -9.7489   21.8675  -31.1844 H   0  0  0  0  0  0  0  0  0  0  0  0
   -8.4592   23.9381  -31.0287 H   0  0  0  0  0  0  0  0  0  0  0  0
   -7.4978   22.4893  -30.4601 H   0  0  0  0  0  0  0  0  0  0  0  0
   -6.7249   22.6259  -33.0653 H   0  0  0  0  0  0  0  0  0  0  0  0
   -6.9849   24.3759  -32.6867 H   0  0  0  0  0  0  0  0  0  0  0  0
   -2.6390   26.0430  -28.9680 H   0  0  0  0  0  0  0  0  0  0  0  0
   -2.7572   20.4571  -30.3628 H   0  0  0  0  0  0  0  0  0  0  0  0
  1  2  1  0
  2  3  1  0
  3  4  1  0
  4  5  1  0
  5  6  1  0
  6  7  2  0
  7  8  1  0
  8  9  2  0
  9 10  1  0
 10 11  1  0
 10 12  2  0
  9 13  1  0
 13 14  2  0
 14 15  1  0
 15 16  1  0
 16 17  2  0
 16  5  1  0
 15  8  1  0
  1 18  1  0
  1 19  1  0
  1 20  1  0
  2 21  1  0
  2 22  1  0
  3 23  1  0
  3 24  1  0
  4 25  1  0
  4 26  1  0
 11 27  1  0
 14 28  1  0
M  CHG  1  11  -1
M  END
>  <UniqueID>  (49) 
48

>  <SMILES>  (49) 
CCCCn1nnc2c(C([NH-])=O)ncn2c1=O

>  <Energy>  (49) 
62.061771548511715

>  <Genealogy>  (49) 
CCCCn1nnc2c(C([NH-])=O)ncn2c1=O (protonated)
CCCCn1nnc2c(C([NH-])=O)ncn2c1=O (3D coordinates assigned)
CCCCn1nnc2c(C([NH-])=O)ncn2c1=O (optimized conformer: 62.061771548511715 kcal/mol)

>  <smiles>  (49) 
CCCCn1nnc2c(C(N)=O)ncn2c1=O

>  <score_type>  (49) 
oracle

>  <origin>  (49) 
adg

>  <m_score__min__energy>  (49) 
-9.0500000000000007

>  <m_primary>  (49) 
energy

$$$$
49:0
     RDKit          3D

 50 54  0  0  0  0  0  0  0  0999 V2000
   -0.1060   26.8050  -22.9850 C   0  0  0  0  0  0  0  0  0  0  0  0
    0.1560   26.9650  -24.3710 O   0  0  0  0  0  0  0  0  0  0  0  0
   -0.6510   26.3410  -25.3040 C   0  0  0  0  0  0  0  0  0  0  0  0
   -1.9820   26.1390  -25.0840 C   0  0  0  0  0  0  0  0  0  0  0  0
   -2.7750   25.5160  -26.0210 C   0  0  0  0  0  0  0  0  0  0  0  0
   -2.2710   25.0570  -27.2440 C   0  0  0  0  0  0  0  0  0  0  0  0
   -3.1480   24.3990  -28.1920 C   0  0  0  0  0  0  0  0  0  0  0  0
   -2.8770   23.1920  -28.7230 N   0  0  0  0  0  0  0  0  0  0  0  0
   -3.8520   22.8010  -29.5590 C   0  0  0  0  0  0  0  0  0  0  0  0
   -4.1010   21.7010  -30.3530 C   0  0  0  0  0  0  0  0  0  0  0  0
   -5.2360   21.5880  -31.1280 C   0  0  0  0  0  0  0  0  0  0  0  0
   -5.5010   20.4220  -31.9690 C   0  0  0  0  0  0  0  0  0  0  0  0
   -4.8420   20.1170  -33.1080 N   0  0  0  0  0  0  0  0  0  0  0  0
   -5.3560   18.9650  -33.6210 C   0  0  0  0  0  0  0  0  0  0  0  0
   -5.0940   18.1930  -34.7280 C   0  0  0  0  0  0  0  0  0  0  0  0
   -5.8400   17.0470  -34.9440 C   0  0  0  0  0  0  0  0  0  0  0  0
   -6.8430   16.6280  -34.1030 C   0  0  0  0  0  0  0  0  0  0  0  0
   -7.1070   17.4040  -32.9880 C   0  0  0  0  0  0  0  0  0  0  0  0
   -6.3640   18.5550  -32.7650 C   0  0  0  0  0  0  0  0  0  0  0  0
   -6.4280   19.4600  -31.7700 N   0  0  0  0  0  0  0  0  0  0  0  0
   -6.1720   22.6180  -31.1160 C   0  0  0  0  0  0  0  0  0  0  0  0
   -5.9410   23.7300  -30.3260 C   0  0  0  0  0  0  0  0  0  0  0  0
   -4.7910   23.8090  -29.5610 C   0  0  0  0  0  0  0  0  0  0  0  0
   -4.3240   24.7590  -28.7190 N   0  0  0  0  0  0  0  0  0  0  0  0
   -0.9290   25.2720  -27.4490 C   0  0  0  0  0  0  0  0  0  0  0  0
   -0.2850   24.8830  -28.6100 O   0  0  0  0  0  0  0  0  0  0  0  0
    0.2430   23.5430  -28.6610 C   0  0  0  0  0  0  0  0  0  0  0  0
   -0.1220   25.9050  -26.4960 C   0  0  0  0  0  0  0  0  0  0  0  0
    1.2270   26.1130  -26.7140 O   0  0  0  0  0  0  0  0  0  0  0  0
    1.7400   27.4170  -26.7080 C   0  0  0  0  0  0  0  0  0  0  0  0
    0.6905   27.2914  -22.4027 H   0  0  0  0  0  0  0  0  0  0  0  0
   -1.0739   27.2663  -22.7391 H   0  0  0  0  0  0  0  0  0  0  0  0
   -0.1376   25.7333  -22.7391 H   0  0  0  0  0  0  0  0  0  0  0  0
   -2.4304   26.4806  -24.1394 H   0  0  0  0  0  0  0  0  0  0  0  0
   -3.8433   25.3736  -25.8010 H   0  0  0  0  0  0  0  0  0  0  0  0
   -3.3661   20.8826  -30.3686 H   0  0  0  0  0  0  0  0  0  0  0  0
   -4.3012   18.4824  -35.4335 H   0  0  0  0  0  0  0  0  0  0  0  0
   -5.6186   16.4405  -35.8346 H   0  0  0  0  0  0  0  0  0  0  0  0
   -7.4142   15.7107  -34.3084 H   0  0  0  0  0  0  0  0  0  0  0  0
   -7.8996   17.1109  -32.2838 H   0  0  0  0  0  0  0  0  0  0  0  0
   -7.0920   19.4530  -30.9400 H   0  0  0  0  0  0  0  0  0  0  0  0
   -7.0841   22.5488  -31.7270 H   0  0  0  0  0  0  0  0  0  0  0  0
   -6.6720   24.5517  -30.3061 H   0  0  0  0  0  0  0  0  0  0  0  0
   -4.8360   25.6350  -28.5430 H   0  0  0  0  0  0  0  0  0  0  0  0
    0.3908   23.1679  -27.6375 H   0  0  0  0  0  0  0  0  0  0  0  0
   -0.4650   22.8899  -29.1922 H   0  0  0  0  0  0  0  0  0  0  0  0
    1.2062   23.5484  -29.1922 H   0  0  0  0  0  0  0  0  0  0  0  0
    1.8726   27.7541  -25.6693 H   0  0  0  0  0  0  0  0  0  0  0  0
    2.7108   27.4315  -27.2250 H   0  0  0  0  0  0  0  0  0  0  0  0
    1.0393   28.0891  -27.2250 H   0  0  0  0  0  0  0  0  0  0  0  0
  1  2  1  0
  2  3  1  0
  3  4  2  0
  4  5  1  0
  5  6  2  0
  6  7  1  0
  7  8  2  0
  8  9  1  0
  9 10  2  0
 10 11  1  0
 11 12  1  0
 12 13  2  0
 13 14  1  0
 14 15  2  0
 15 16  1  0
 16 17  2  0
 17 18  1  0
 18 19  2  0
 19 20  1  0
 11 21  2  0
 21 22  1  0
 22 23  2  0
 23 24  1  0
  6 25  1  0
 25 26  1  0
 26 27  1  0
 25 28  2  0
 28 29  1  0
 29 30  1  0
 28  3  1  0
 24  7  1  0
 23  9  1  0
 20 12  1  0
 19 14  1  0
  1 31  1  0
  1 32  1  0
  1 33  1  0
  4 34  1  0
  5 35  1  0
 10 36  1  0
 15 37  1  0
 16 38  1  0
 17 39  1  0
 18 40  1  0
 20 41  1  0
 21 42  1  0
 22 43  1  0
 24 44  1  0
 27 45  1  0
 27 46  1  0
 27 47  1  0
 30 48  1  0
 30 49  1  0
 30 50  1  0
M  END
>  <smiles>  (50) 
COc1ccc(-c2nc3cc(-c4nc5ccccc5[nH]4)ccc3[nH]2)c(OC)c1OC

>  <score_type>  (50) 
oracle

>  <origin>  (50) 
adg

>  <m_score__min__energy>  (50) 
-8.3200000000000003

>  <m_primary>  (50) 
energy

$$$$
