0:0
     RDKit          3D

 41 43  0  0  0  0  0  0  0  0999 V2000
   -3.8740   24.5420  -26.9980 C   0  0  0  0  0  0  0  0  0  0  0  0
   -3.7410   23.9190  -28.3830 C   0  0  0  0  0  0  0  0  0  0  0  0
   -3.1300   24.8900  -29.3410 C   0  0  0  0  0  0  0  0  0  0  0  0
   -1.9570   25.3120  -29.1420 O   0  0  0  0  0  0  0  0  0  0  0  0
   -3.8610   25.2970  -30.5010 N   0  0  0  0  0  0  0  0  0  0  0  0
   -5.2970   25.0980  -30.6620 C   0  0  0  0  0  0  0  0  0  0  0  0
   -5.5920   23.6670  -31.0220 C   0  0  0  0  0  0  0  0  0  0  0  0
   -4.5670   22.8110  -31.4530 C   0  0  0  0  0  0  0  0  0  0  0  0
   -4.8520   21.4870  -31.7970 C   0  0  0  0  0  0  0  0  0  0  0  0
   -6.1620   20.9930  -31.7080 C   0  0  0  0  0  0  0  0  0  0  0  0
   -6.4300   19.6320  -32.0880 N   0  0  0  0  0  0  0  0  0  0  0  0
   -5.8920   19.0080  -33.2650 C   0  0  0  0  0  0  0  0  0  0  0  0
   -5.4140   19.7110  -34.1950 O   0  0  0  0  0  0  0  0  0  0  0  0
   -5.9250   17.5460  -33.4280 C   0  0  0  0  0  0  0  0  0  0  0  0
   -6.8450   16.8190  -34.1860 C   0  0  0  0  0  0  0  0  0  0  0  0
   -6.4660   15.5080  -34.0140 C   0  0  0  0  0  0  0  0  0  0  0  0
   -7.0080   14.3290  -34.5190 C   0  0  0  0  0  0  0  0  0  0  0  0
   -6.3920   13.1170  -34.1540 C   0  0  0  0  0  0  0  0  0  0  0  0
   -5.2640   13.1160  -33.3020 C   0  0  0  0  0  0  0  0  0  0  0  0
   -4.7420   14.3280  -32.8080 C   0  0  0  0  0  0  0  0  0  0  0  0
   -5.3750   15.5090  -33.1880 C   0  0  0  0  0  0  0  0  0  0  0  0
   -5.0600   16.7340  -32.8440 O   0  0  0  0  0  0  0  0  0  0  0  0
   -7.1930   21.8610  -31.3050 C   0  0  0  0  0  0  0  0  0  0  0  0
   -6.9080   23.1840  -30.9570 C   0  0  0  0  0  0  0  0  0  0  0  0
   -3.7093   23.7704  -26.2315 H   0  0  0  0  0  0  0  0  0  0  0  0
   -3.1260   25.3401  -26.8816 H   0  0  0  0  0  0  0  0  0  0  0  0
   -4.8827   24.9651  -26.8816 H   0  0  0  0  0  0  0  0  0  0  0  0
   -3.1026   23.0256  -28.3176 H   0  0  0  0  0  0  0  0  0  0  0  0
   -4.7427   23.6456  -28.7462 H   0  0  0  0  0  0  0  0  0  0  0  0
   -5.8052   25.3464  -29.7186 H   0  0  0  0  0  0  0  0  0  0  0  0
   -5.6589   25.7507  -31.4700 H   0  0  0  0  0  0  0  0  0  0  0  0
   -3.5344   23.1840  -31.5204 H   0  0  0  0  0  0  0  0  0  0  0  0
   -4.0423   20.8264  -32.1405 H   0  0  0  0  0  0  0  0  0  0  0  0
   -7.1370   19.1040  -31.5290 H   0  0  0  0  0  0  0  0  0  0  0  0
   -7.6825   17.2066  -34.7846 H   0  0  0  0  0  0  0  0  0  0  0  0
   -7.8870   14.3441  -35.1802 H   0  0  0  0  0  0  0  0  0  0  0  0
   -6.7908   12.1649  -34.5341 H   0  0  0  0  0  0  0  0  0  0  0  0
   -4.7908   12.1630  -33.0229 H   0  0  0  0  0  0  0  0  0  0  0  0
   -3.8645   14.3410  -32.1448 H   0  0  0  0  0  0  0  0  0  0  0  0
   -8.2299   21.4961  -31.2636 H   0  0  0  0  0  0  0  0  0  0  0  0
   -7.7197   23.8506  -30.6303 H   0  0  0  0  0  0  0  0  0  0  0  0
  1  2  1  0
  2  3  1  0
  3  4  2  0
  3  5  1  0
  5  6  1  0
  6  7  1  0
  7  8  2  0
  8  9  1  0
  9 10  2  0
 10 11  1  0
 11 12  1  0
 12 13  2  0
 12 14  1  0
 14 15  2  0
 15 16  1  0
 16 17  2  0
 17 18  1  0
 18 19  2  0
 19 20  1  0
 20 21  2  0
 21 22  1  0
 10 23  1  0
 23 24  2  0
 24  7  1  0
 22 14  1  0
 21 16  1  0
  1 25  1  0
  1 26  1  0
  1 27  1  0
  2 28  1  0
  2 29  1  0
  6 30  1  0
  6 31  1  0
  8 32  1  0
  9 33  1  0
 11 34  1  0
 15 35  1  0
 17 36  1  0
 18 37  1  0
 19 38  1  0
 20 39  1  0
 23 40  1  0
 24 41  1  0
M  CHG  1   5  -1
M  END
>  <UniqueID>  (1) 
1

>  <SMILES>  (1) 
CCC(=O)[N-]Cc1ccc(NC(=O)c2cc3ccccc3o2)cc1

>  <Energy>  (1) 
73.35003061723687

>  <Genealogy>  (1) 
CCC(=O)[N-]Cc1ccc(NC(=O)c2cc3ccccc3o2)cc1 (protonated)
CCC(=O)[N-]Cc1ccc(NC(=O)c2cc3ccccc3o2)cc1 (3D coordinates assigned)
CCC(=O)[N-]Cc1ccc(NC(=O)c2cc3ccccc3o2)cc1 (optimized conformer: 73.35003061723687 kcal/mol)

>  <smiles>  (1) 
CCC(=O)NCc1ccc(NC(=O)c2cc3ccccc3o2)cc1

>  <score_type>  (1) 
oracle

>  <origin>  (1) 
adg

>  <m_score__min__energy>  (1) 
-9.4499999999999993

>  <m_primary>  (1) 
energy

$$$$
1:0
     RDKit          3D

 31 32  0  0  0  0  0  0  0  0999 V2000
   -6.1020   25.7060  -29.9140 C   0  0  0  0  0  0  0  0  0  0  0  0
   -5.7360   24.5190  -30.7460 C   0  0  0  0  0  0  0  0  0  0  0  0
   -6.7200   23.7780  -31.4090 C   0  0  0  0  0  0  0  0  0  0  0  0
   -6.3610   22.6940  -32.1450 N   0  0  0  0  0  0  0  0  0  0  0  0
   -5.0590   22.3110  -32.2530 C   0  0  0  0  0  0  0  0  0  0  0  0
   -4.7040   21.0890  -33.0440 C   0  0  0  0  0  0  0  0  0  0  0  0
   -5.9110   20.4970  -33.6150 N   0  0  0  0  0  0  0  0  0  0  0  0
   -6.0830   19.0740  -33.6710 C   0  0  0  0  0  0  0  0  0  0  0  0
   -5.2170   18.3170  -34.4730 C   0  0  0  0  0  0  0  0  0  0  0  0
   -5.3700   16.9320  -34.5680 C   0  0  0  0  0  0  0  0  0  0  0  0
   -6.3840   16.2900  -33.8560 C   0  0  0  0  0  0  0  0  0  0  0  0
   -7.2380   17.0290  -33.0340 C   0  0  0  0  0  0  0  0  0  0  0  0
   -7.0850   18.4210  -32.9140 C   0  0  0  0  0  0  0  0  0  0  0  0
   -7.9960   19.1800  -31.9880 C   0  0  0  0  0  0  0  0  0  0  0  0
   -4.0760   23.0420  -31.5750 C   0  0  0  0  0  0  0  0  0  0  0  0
   -4.4360   24.1260  -30.8400 N   0  0  0  0  0  0  0  0  0  0  0  0
   -6.0217   25.4456  -28.8483 H   0  0  0  0  0  0  0  0  0  0  0  0
   -5.4185   26.5375  -30.1408 H   0  0  0  0  0  0  0  0  0  0  0  0
   -7.1351   26.0082  -30.1408 H   0  0  0  0  0  0  0  0  0  0  0  0
   -7.7776   24.0711  -31.3349 H   0  0  0  0  0  0  0  0  0  0  0  0
   -4.0155   21.3674  -33.8555 H   0  0  0  0  0  0  0  0  0  0  0  0
   -4.2210   20.3565  -32.3806 H   0  0  0  0  0  0  0  0  0  0  0  0
   -6.7730   21.0880  -33.6180 H   0  0  0  0  0  0  0  0  0  0  0  0
   -4.4118   18.8173  -35.0310 H   0  0  0  0  0  0  0  0  0  0  0  0
   -4.6904   16.3466  -35.2048 H   0  0  0  0  0  0  0  0  0  0  0  0
   -6.5109   15.2008  -33.9422 H   0  0  0  0  0  0  0  0  0  0  0  0
   -8.0364   16.5176  -32.4763 H   0  0  0  0  0  0  0  0  0  0  0  0
   -7.7276   18.9564  -30.9449 H   0  0  0  0  0  0  0  0  0  0  0  0
   -7.8883   20.2593  -32.1710 H   0  0  0  0  0  0  0  0  0  0  0  0
   -9.0381   18.8792  -32.1710 H   0  0  0  0  0  0  0  0  0  0  0  0
   -3.0199   22.7406  -31.6371 H   0  0  0  0  0  0  0  0  0  0  0  0
  1  2  1  0
  2  3  2  0
  3  4  1  0
  4  5  2  0
  5  6  1  0
  6  7  1  0
  7  8  1  0
  8  9  2  0
  9 10  1  0
 10 11  2  0
 11 12  1  0
 12 13  2  0
 13 14  1  0
  5 15  1  0
 15 16  2  0
 16  2  1  0
 13  8  1  0
  1 17  1  0
  1 18  1  0
  1 19  1  0
  3 20  1  0
  6 21  1  0
  6 22  1  0
  7 23  1  0
  9 24  1  0
 10 25  1  0
 11 26  1  0
 12 27  1  0
 14 28  1  0
 14 29  1  0
 14 30  1  0
 15 31  1  0
M  END
>  <UniqueID>  (2) 
2

>  <SMILES>  (2) 
Cc1cnc(CNc2ccccc2C)cn1

>  <Energy>  (2) 
35.28126173748397

>  <Genealogy>  (2) 
Cc1cnc(CNc2ccccc2C)cn1 (3D coordinates assigned)
Cc1cnc(CNc2ccccc2C)cn1 (optimized conformer: 35.28126173748397 kcal/mol)

>  <smiles>  (2) 
Cc1cnc(CNc2ccccc2C)cn1

>  <score_type>  (2) 
oracle

>  <origin>  (2) 
adg

>  <m_score__min__energy>  (2) 
-6.9400000000000004

>  <m_primary>  (2) 
energy

$$$$
2:0
     RDKit          3D

 73 76  0  0  0  0  0  0  0  0999 V2000
   -0.3000   25.5120  -25.8350 C   0  0  0  0  0  0  0  0  0  0  0  0
   -0.0730   25.8750  -27.3130 C   0  0  0  0  0  0  0  0  0  0  0  0
    0.2030   24.7160  -28.1930 N   0  0  0  0  0  0  0  0  0  0  0  0
    0.9080   23.6210  -27.5080 C   0  0  0  0  0  0  0  0  0  0  0  0
   -0.9800   24.2420  -28.9440 C   0  0  0  0  0  0  0  0  0  0  0  0
   -2.2560   24.9150  -28.4260 C   0  0  0  0  0  0  0  0  0  0  0  0
   -3.1120   25.2850  -29.5090 O   0  0  0  0  0  0  0  0  0  0  0  0
   -4.1900   24.5270  -29.9880 C   0  0  0  0  0  0  0  0  0  0  0  0
   -4.2780   23.1860  -29.5990 C   0  0  0  0  0  0  0  0  0  0  0  0
   -5.2940   22.3680  -30.0960 C   0  0  0  0  0  0  0  0  0  0  0  0
   -6.2500   22.8860  -30.9840 C   0  0  0  0  0  0  0  0  0  0  0  0
   -7.2730   22.0010  -31.5820 C   0  0  0  0  0  0  0  0  0  0  0  0
   -8.6500   22.2380  -31.4590 C   0  0  0  0  0  0  0  0  0  0  0  0
   -9.4400   21.2440  -32.0200 C   0  0  0  0  0  0  0  0  0  0  0  0
   -8.4320   20.0750  -32.6840 S   0  0  0  0  0  0  0  0  0  0  0  0
   -6.9820   20.8200  -32.2730 C   0  0  0  0  0  0  0  0  0  0  0  0
   -5.6420   20.3180  -32.6330 C   0  0  0  0  0  0  0  0  0  0  0  0
   -4.6230   21.2120  -32.9830 C   0  0  0  0  0  0  0  0  0  0  0  0
   -3.4020   20.7300  -33.4630 C   0  0  0  0  0  0  0  0  0  0  0  0
   -3.1830   19.3540  -33.5970 C   0  0  0  0  0  0  0  0  0  0  0  0
   -1.9880   18.9310  -34.1990 O   0  0  0  0  0  0  0  0  0  0  0  0
   -0.9110   19.7770  -34.6080 C   0  0  0  0  0  0  0  0  0  0  0  0
    0.4390   19.3560  -34.0060 C   0  0  0  0  0  0  0  0  0  0  0  0
    0.7030   19.9070  -32.5870 C   0  0  0  0  0  0  0  0  0  0  0  0
   -0.4780   19.7750  -31.6800 N   0  0  0  0  0  0  0  0  0  0  0  0
   -1.0120   21.1180  -31.3200 C   0  0  0  0  0  0  0  0  0  0  0  0
   -1.9260   21.0540  -30.0920 C   0  0  0  0  0  0  0  0  0  0  0  0
   -1.1400   20.5890  -28.8530 C   0  0  0  0  0  0  0  0  0  0  0  0
    0.0870   19.7380  -29.2190 C   0  0  0  0  0  0  0  0  0  0  0  0
   -0.1810   18.9210  -30.4900 C   0  0  0  0  0  0  0  0  0  0  0  0
   -4.1710   18.4570  -33.1540 C   0  0  0  0  0  0  0  0  0  0  0  0
   -5.3950   18.9380  -32.6850 C   0  0  0  0  0  0  0  0  0  0  0  0
   -6.2020   24.2440  -31.3280 C   0  0  0  0  0  0  0  0  0  0  0  0
   -5.1790   25.0610  -30.8370 C   0  0  0  0  0  0  0  0  0  0  0  0
    0.1741   26.2701  -25.1943 H   0  0  0  0  0  0  0  0  0  0  0  0
   -1.3797   25.4794  -25.6271 H   0  0  0  0  0  0  0  0  0  0  0  0
    0.1433   24.5270  -25.6271 H   0  0  0  0  0  0  0  0  0  0  0  0
   -0.9754   26.3821  -27.6851 H   0  0  0  0  0  0  0  0  0  0  0  0
    0.8222   26.5134  -27.3452 H   0  0  0  0  0  0  0  0  0  0  0  0
    0.8223   23.7541  -26.4194 H   0  0  0  0  0  0  0  0  0  0  0  0
    0.4592   22.6590  -27.7962 H   0  0  0  0  0  0  0  0  0  0  0  0
    1.9695   23.6314  -27.7962 H   0  0  0  0  0  0  0  0  0  0  0  0
   -0.8517   24.4831  -30.0096 H   0  0  0  0  0  0  0  0  0  0  0  0
   -1.0733   23.1545  -28.8073 H   0  0  0  0  0  0  0  0  0  0  0  0
   -2.7906   24.2149  -27.7671 H   0  0  0  0  0  0  0  0  0  0  0  0
   -1.9751   25.8236  -27.8733 H   0  0  0  0  0  0  0  0  0  0  0  0
   -3.5402   22.7727  -28.8955 H   0  0  0  0  0  0  0  0  0  0  0  0
   -5.3458   21.3126  -29.7904 H   0  0  0  0  0  0  0  0  0  0  0  0
   -9.0651   23.1284  -30.9642 H   0  0  0  0  0  0  0  0  0  0  0  0
  -10.5398   21.2248  -32.0285 H   0  0  0  0  0  0  0  0  0  0  0  0
   -4.7835   22.2953  -32.8801 H   0  0  0  0  0  0  0  0  0  0  0  0
   -2.6063   21.4381  -33.7378 H   0  0  0  0  0  0  0  0  0  0  0  0
   -0.8331   19.7414  -35.7047 H   0  0  0  0  0  0  0  0  0  0  0  0
   -1.1322   20.7924  -34.2472 H   0  0  0  0  0  0  0  0  0  0  0  0
    0.4677   18.2574  -33.9596 H   0  0  0  0  0  0  0  0  0  0  0  0
    1.2189   19.7774  -34.6572 H   0  0  0  0  0  0  0  0  0  0  0  0
    1.5461   19.3539  -32.1474 H   0  0  0  0  0  0  0  0  0  0  0  0
    0.9231   20.9801  -32.6865 H   0  0  0  0  0  0  0  0  0  0  0  0
   -1.2540   19.3000  -32.1990 H   0  0  0  0  0  0  0  0  0  0  0  0
   -0.1689   21.7902  -31.1022 H   0  0  0  0  0  0  0  0  0  0  0  0
   -1.6040   21.4904  -32.1690 H   0  0  0  0  0  0  0  0  0  0  0  0
   -2.3441   22.0533  -29.9004 H   0  0  0  0  0  0  0  0  0  0  0  0
   -2.7339   20.3340  -30.2893 H   0  0  0  0  0  0  0  0  0  0  0  0
   -0.8012   21.4756  -28.2970 H   0  0  0  0  0  0  0  0  0  0  0  0
   -1.8116   19.9635  -28.2467 H   0  0  0  0  0  0  0  0  0  0  0  0
    0.9482   20.4005  -29.3902 H   0  0  0  0  0  0  0  0  0  0  0  0
    0.2978   19.0456  -28.3906 H   0  0  0  0  0  0  0  0  0  0  0  0
    0.7080   18.3112  -30.7090 H   0  0  0  0  0  0  0  0  0  0  0  0
   -1.0684   18.2991  -30.3010 H   0  0  0  0  0  0  0  0  0  0  0  0
   -3.9792   17.3741  -33.1770 H   0  0  0  0  0  0  0  0  0  0  0  0
   -6.1700   18.2309  -32.3544 H   0  0  0  0  0  0  0  0  0  0  0  0
   -6.9730   24.6691  -31.9875 H   0  0  0  0  0  0  0  0  0  0  0  0
   -5.1464   26.1248  -31.1148 H   0  0  0  0  0  0  0  0  0  0  0  0
  1  2  1  0
  2  3  1  0
  3  4  1  0
  3  5  1  0
  5  6  1  0
  6  7  1  0
  7  8  1  0
  8  9  2  0
  9 10  1  0
 10 11  2  0
 11 12  1  0
 12 13  1  0
 13 14  2  0
 14 15  1  0
 15 16  1  0
 16 17  1  0
 17 18  2  0
 18 19  1  0
 19 20  2  0
 20 21  1  0
 21 22  1  0
 22 23  1  0
 23 24  1  0
 24 25  1  0
 25 26  1  0
 26 27  1  0
 27 28  1  0
 28 29  1  0
 29 30  1  0
 20 31  1  0
 31 32  2  0
 11 33  1  0
 33 34  2  0
 34  8  1  0
 16 12  2  0
 32 17  1  0
 30 25  1  0
  1 35  1  0
  1 36  1  0
  1 37  1  0
  2 38  1  0
  2 39  1  0
  4 40  1  0
  4 41  1  0
  4 42  1  0
  5 43  1  0
  5 44  1  0
  6 45  1  0
  6 46  1  0
  9 47  1  0
 10 48  1  0
 13 49  1  0
 14 50  1  0
 18 51  1  0
 19 52  1  0
 22 53  1  0
 22 54  1  0
 23 55  1  0
 23 56  1  0
 24 57  1  0
 24 58  1  0
 25 59  1  0
 26 60  1  0
 26 61  1  0
 27 62  1  0
 27 63  1  0
 28 64  1  0
 28 65  1  0
 29 66  1  0
 29 67  1  0
 30 68  1  0
 30 69  1  0
 31 70  1  0
 32 71  1  0
 33 72  1  0
 34 73  1  0
M  CHG  1  25   1
M  END
>  <UniqueID>  (3) 
3

>  <SMILES>  (3) 
CCN(C)CCOc1ccc(-c2ccsc2-c2ccc(OCCC[NH+]3CCCCC3)cc2)cc1

>  <Energy>  (3) 
119.26287180423941

>  <Genealogy>  (3) 
CCN(C)CCOc1ccc(-c2ccsc2-c2ccc(OCCC[NH+]3CCCCC3)cc2)cc1 (protonated)
CCN(C)CCOc1ccc(-c2ccsc2-c2ccc(OCCC[NH+]3CCCCC3)cc2)cc1 (3D coordinates assigned)
CCN(C)CCOc1ccc(-c2ccsc2-c2ccc(OCCC[NH+]3CCCCC3)cc2)cc1 (nonaromatic ring conformer: 119.26287180423941 kcal/mol)

>  <smiles>  (3) 
CCN(C)CCOc1ccc(-c2ccsc2-c2ccc(OCCCN3CCCCC3)cc2)cc1

>  <score_type>  (3) 
oracle

>  <origin>  (3) 
adg

>  <m_score__min__energy>  (3) 
-9.4299999999999997

>  <m_primary>  (3) 
energy

$$$$
3:0
     RDKit          3D

 40 41  0  0  0  0  0  0  0  0999 V2000
   -2.1770   21.2500  -33.2020 C   0  0  0  0  0  0  0  0  0  0  0  0
   -2.3710   21.8800  -31.8260 C   0  0  0  0  0  0  0  0  0  0  0  0
   -3.4210   22.8460  -31.8560 O   0  0  0  0  0  0  0  0  0  0  0  0
   -4.7990   22.5640  -31.8410 C   0  0  0  0  0  0  0  0  0  0  0  0
   -5.3790   21.6110  -32.7020 C   0  0  0  0  0  0  0  0  0  0  0  0
   -6.7480   21.3420  -32.6430 C   0  0  0  0  0  0  0  0  0  0  0  0
   -7.5540   22.0100  -31.7210 C   0  0  0  0  0  0  0  0  0  0  0  0
   -9.4240   21.6300  -31.6340 Br  0  0  0  0  0  0  0  0  0  0  0  0
   -6.9930   22.9560  -30.8600 C   0  0  0  0  0  0  0  0  0  0  0  0
   -5.6220   23.2480  -30.9220 C   0  0  0  0  0  0  0  0  0  0  0  0
   -4.9440   24.4550  -29.8230 S   0  0  0  0  0  0  0  0  0  0  0  0
   -3.9090   25.2470  -30.5710 O   0  0  0  0  0  0  0  0  0  0  0  0
   -6.0330   25.3800  -29.3530 O   0  0  0  0  0  0  0  0  0  0  0  0
   -4.2120   23.6610  -28.4430 N   0  0  0  0  0  0  0  0  0  0  0  0
   -4.1680   24.5450  -27.2490 C   0  0  0  0  0  0  0  0  0  0  0  0
   -2.7460   24.8640  -26.7540 C   0  0  0  0  0  0  0  0  0  0  0  0
   -1.8300   25.2050  -27.9360 C   0  0  0  0  0  0  0  0  0  0  0  0
   -0.4250   25.5680  -27.4450 C   0  0  0  0  0  0  0  0  0  0  0  0
   -1.7830   24.0500  -28.9670 C   0  0  0  0  0  0  0  0  0  0  0  0
   -2.9240   23.0310  -28.7880 C   0  0  0  0  0  0  0  0  0  0  0  0
   -1.8551   20.2047  -33.0846 H   0  0  0  0  0  0  0  0  0  0  0  0
   -3.1264   21.2812  -33.7567 H   0  0  0  0  0  0  0  0  0  0  0  0
   -1.4096   21.8099  -33.7567 H   0  0  0  0  0  0  0  0  0  0  0  0
   -2.6255   21.0927  -31.1012 H   0  0  0  0  0  0  0  0  0  0  0  0
   -1.4373   22.3821  -31.5326 H   0  0  0  0  0  0  0  0  0  0  0  0
   -4.7483   21.0747  -33.4263 H   0  0  0  0  0  0  0  0  0  0  0  0
   -7.1918   20.6018  -33.3250 H   0  0  0  0  0  0  0  0  0  0  0  0
   -7.6299   23.4753  -30.1288 H   0  0  0  0  0  0  0  0  0  0  0  0
   -4.6660   25.4925  -27.5024 H   0  0  0  0  0  0  0  0  0  0  0  0
   -4.6726   24.0035  -26.4353 H   0  0  0  0  0  0  0  0  0  0  0  0
   -2.7857   25.7224  -26.0673 H   0  0  0  0  0  0  0  0  0  0  0  0
   -2.3436   23.9817  -26.2349 H   0  0  0  0  0  0  0  0  0  0  0  0
   -2.2508   26.0833  -28.4473 H   0  0  0  0  0  0  0  0  0  0  0  0
   -0.4105   25.5717  -26.3451 H   0  0  0  0  0  0  0  0  0  0  0  0
    0.2969   24.8269  -27.8187 H   0  0  0  0  0  0  0  0  0  0  0  0
   -0.1525   26.5660  -27.8187 H   0  0  0  0  0  0  0  0  0  0  0  0
   -1.8532   24.4798  -29.9771 H   0  0  0  0  0  0  0  0  0  0  0  0
   -0.8363   23.5117  -28.8123 H   0  0  0  0  0  0  0  0  0  0  0  0
   -3.0472   22.4743  -29.7287 H   0  0  0  0  0  0  0  0  0  0  0  0
   -2.6470   22.3710  -27.9527 H   0  0  0  0  0  0  0  0  0  0  0  0
  1  2  1  0
  2  3  1  0
  3  4  1  0
  4  5  2  0
  5  6  1  0
  6  7  2  0
  7  8  1  0
  7  9  1  0
  9 10  2  0
 10 11  1  0
 11 12  2  0
 11 13  2  0
 11 14  1  0
 14 15  1  0
 15 16  1  0
 16 17  1  0
 17 18  1  0
 17 19  1  0
 19 20  1  0
 10  4  1  0
 20 14  1  0
  1 21  1  0
  1 22  1  0
  1 23  1  0
  2 24  1  0
  2 25  1  0
  5 26  1  0
  6 27  1  0
  9 28  1  0
 15 29  1  0
 15 30  1  0
 16 31  1  0
 16 32  1  0
 17 33  1  0
 18 34  1  0
 18 35  1  0
 18 36  1  0
 19 37  1  0
 19 38  1  0
 20 39  1  0
 20 40  1  0
M  END
>  <UniqueID>  (4) 
4

>  <SMILES>  (4) 
CCOc1ccc(Br)cc1S(=O)(=O)N1CCC(C)CC1

>  <Energy>  (4) 
43.19032499029922

>  <Genealogy>  (4) 
CCOc1ccc(Br)cc1S(=O)(=O)N1CCC(C)CC1 (3D coordinates assigned)
CCOc1ccc(Br)cc1S(=O)(=O)N1CCC(C)CC1 (nonaromatic ring conformer: 43.19032499029922 kcal/mol)

>  <smiles>  (4) 
CCOc1ccc(Br)cc1S(=O)(=O)N1CCC(C)CC1

>  <score_type>  (4) 
oracle

>  <origin>  (4) 
adg

>  <m_score__min__energy>  (4) 
-8.3900000000000006

>  <m_primary>  (4) 
energy

$$$$
4:0
     RDKit          3D

 45 47  0  0  0  0  0  0  0  0999 V2000
   -1.2400   18.4410  -34.2100 C   0  0  0  0  0  0  0  0  0  0  0  0
   -0.4180   19.5350  -34.8910 C   0  0  0  0  0  0  0  0  0  0  0  0
   -0.8370   20.8810  -34.4370 N   0  0  0  0  0  0  0  0  0  0  0  0
   -0.0490   21.9310  -35.1060 C   0  0  0  0  0  0  0  0  0  0  0  0
   -0.7190   21.0090  -32.9650 C   0  0  0  0  0  0  0  0  0  0  0  0
   -2.1060   21.0010  -32.3230 C   0  0  0  0  0  0  0  0  0  0  0  0
   -3.1460   20.9620  -33.3490 N   0  0  0  0  0  0  0  0  0  0  0  0
   -4.5160   20.7640  -32.9780 C   0  0  0  0  0  0  0  0  0  0  0  0
   -5.1930   19.5580  -33.2610 C   0  0  0  0  0  0  0  0  0  0  0  0
   -4.5380   18.5060  -33.9290 C   0  0  0  0  0  0  0  0  0  0  0  0
   -5.2040   17.3150  -34.2080 C   0  0  0  0  0  0  0  0  0  0  0  0
   -6.5330   17.1550  -33.8340 C   0  0  0  0  0  0  0  0  0  0  0  0
   -7.2120   18.1860  -33.1830 C   0  0  0  0  0  0  0  0  0  0  0  0
   -6.5660   19.4090  -32.8850 C   0  0  0  0  0  0  0  0  0  0  0  0
   -7.2310   20.4460  -32.2520 N   0  0  0  0  0  0  0  0  0  0  0  0
   -8.6490   20.3190  -31.8650 C   0  0  0  0  0  0  0  0  0  0  0  0
   -6.5440   21.6020  -31.9910 C   0  0  0  0  0  0  0  0  0  0  0  0
   -7.1030   22.9990  -31.2210 S   0  0  0  0  0  0  0  0  0  0  0  0
   -5.6410   23.8360  -31.3280 C   0  0  0  0  0  0  0  0  0  0  0  0
   -5.3980   25.1900  -30.8250 C   0  0  0  0  0  0  0  0  0  0  0  0
   -4.2390   25.6780  -30.8280 O   0  0  0  0  0  0  0  0  0  0  0  0
   -4.7010   23.0370  -31.9650 C   0  0  0  0  0  0  0  0  0  0  0  0
   -5.2160   21.7840  -32.3380 C   0  0  0  0  0  0  0  0  0  0  0  0
   -1.1596   18.5480  -33.1182 H   0  0  0  0  0  0  0  0  0  0  0  0
   -2.2940   18.5334  -34.5109 H   0  0  0  0  0  0  0  0  0  0  0  0
   -0.8579   17.4543  -34.5109 H   0  0  0  0  0  0  0  0  0  0  0  0
    0.6448   19.3891  -34.6478 H   0  0  0  0  0  0  0  0  0  0  0  0
   -0.5803   19.4676  -35.9769 H   0  0  0  0  0  0  0  0  0  0  0  0
    0.4297   22.5689  -34.3485 H   0  0  0  0  0  0  0  0  0  0  0  0
    0.7241   21.4649  -35.7345 H   0  0  0  0  0  0  0  0  0  0  0  0
   -0.7126   22.5431  -35.7345 H   0  0  0  0  0  0  0  0  0  0  0  0
   -0.1318   20.1656  -32.5726 H   0  0  0  0  0  0  0  0  0  0  0  0
   -0.2176   21.9584  -32.7257 H   0  0  0  0  0  0  0  0  0  0  0  0
   -2.2009   20.1151  -31.6778 H   0  0  0  0  0  0  0  0  0  0  0  0
   -2.2276   21.9186  -31.7286 H   0  0  0  0  0  0  0  0  0  0  0  0
   -2.9720   21.4790  -34.2400 H   0  0  0  0  0  0  0  0  0  0  0  0
   -3.4880   18.6260  -34.2341 H   0  0  0  0  0  0  0  0  0  0  0  0
   -4.6772   16.4996  -34.7253 H   0  0  0  0  0  0  0  0  0  0  0  0
   -7.0526   16.2104  -34.0523 H   0  0  0  0  0  0  0  0  0  0  0  0
   -8.2650   18.0457  -32.8974 H   0  0  0  0  0  0  0  0  0  0  0  0
   -8.7305   20.3117  -30.7680 H   0  0  0  0  0  0  0  0  0  0  0  0
   -9.2170   21.1699  -32.2692 H   0  0  0  0  0  0  0  0  0  0  0  0
   -9.0568   19.3807  -32.2692 H   0  0  0  0  0  0  0  0  0  0  0  0
   -6.2384   25.7865  -30.4404 H   0  0  0  0  0  0  0  0  0  0  0  0
   -3.6645   23.3512  -32.1570 H   0  0  0  0  0  0  0  0  0  0  0  0
  1  2  1  0
  2  3  1  0
  3  4  1  0
  3  5  1  0
  5  6  1  0
  6  7  1  0
  7  8  1  0
  8  9  2  0
  9 10  1  0
 10 11  2  0
 11 12  1  0
 12 13  2  0
 13 14  1  0
 14 15  2  0
 15 16  1  0
 15 17  1  0
 17 18  1  0
 18 19  1  0
 19 20  1  0
 20 21  2  0
 19 22  2  0
 22 23  1  0
 23  8  1  0
 14  9  1  0
 23 17  2  0
  1 24  1  0
  1 25  1  0
  1 26  1  0
  2 27  1  0
  2 28  1  0
  4 29  1  0
  4 30  1  0
  4 31  1  0
  5 32  1  0
  5 33  1  0
  6 34  1  0
  6 35  1  0
  7 36  1  0
 10 37  1  0
 11 38  1  0
 12 39  1  0
 13 40  1  0
 16 41  1  0
 16 42  1  0
 16 43  1  0
 20 44  1  0
 22 45  1  0
M  CHG  1  15   1
M  END
>  <UniqueID>  (5) 
5

>  <SMILES>  (5) 
CCN(C)CCNc1c2ccccc2[n+](C)c2sc(C=O)cc12

>  <Energy>  (5) 
89.84096267838302

>  <Genealogy>  (5) 
CCN(C)CCNc1c2ccccc2[n+](C)c2sc(C=O)cc12 (3D coordinates assigned)
CCN(C)CCNc1c2ccccc2[n+](C)c2sc(C=O)cc12 (optimized conformer: 89.84096267838302 kcal/mol)

>  <smiles>  (5) 
CCN(C)CCNc1c2ccccc2[n+](C)c2sc(C=O)cc12

>  <score_type>  (5) 
oracle

>  <origin>  (5) 
adg

>  <m_score__min__energy>  (5) 
-7.8499999999999996

>  <m_primary>  (5) 
energy

$$$$
5:0
     RDKit          3D

 40 43  0  0  0  0  0  0  0  0999 V2000
   -4.6110   14.9440  -32.4920 C   0  0  0  0  0  0  0  0  0  0  0  0
   -5.5230   14.4780  -33.4610 O   0  0  0  0  0  0  0  0  0  0  0  0
   -6.0420   15.5810  -34.1730 C   0  0  0  0  0  0  0  0  0  0  0  0
   -6.6280   16.6270  -33.2770 C   0  0  0  0  0  0  0  0  0  0  0  0
   -5.5870   17.6460  -33.5190 N   0  0  0  0  0  0  0  0  0  0  0  0
   -5.2910   18.9810  -33.0890 C   0  0  0  0  0  0  0  0  0  0  0  0
   -3.9620   19.4100  -33.0140 C   0  0  0  0  0  0  0  0  0  0  0  0
   -2.9460   18.5790  -33.3510 F   0  0  0  0  0  0  0  0  0  0  0  0
   -3.6630   20.6920  -32.5630 C   0  0  0  0  0  0  0  0  0  0  0  0
   -4.6880   21.5860  -32.2010 C   0  0  0  0  0  0  0  0  0  0  0  0
   -4.3760   22.8610  -31.6980 C   0  0  0  0  0  0  0  0  0  0  0  0
   -3.1690   23.2180  -31.5920 O   0  0  0  0  0  0  0  0  0  0  0  0
   -5.4050   23.7300  -31.2990 C   0  0  0  0  0  0  0  0  0  0  0  0
   -5.1240   25.0710  -30.7150 C   0  0  0  0  0  0  0  0  0  0  0  0
   -6.0240   25.6960  -30.0920 O   0  0  0  0  0  0  0  0  0  0  0  0
   -3.8710   25.6590  -30.8360 O   0  0  0  0  0  0  0  0  0  0  0  0
   -6.7330   23.3150  -31.4720 C   0  0  0  0  0  0  0  0  0  0  0  0
   -7.0440   22.1090  -32.0400 N   0  0  0  0  0  0  0  0  0  0  0  0
   -8.4750   21.8230  -32.2630 C   0  0  0  0  0  0  0  0  0  0  0  0
   -9.3460   21.8420  -31.0050 C   0  0  0  0  0  0  0  0  0  0  0  0
   -9.4000   23.0030  -31.9750 C   0  0  0  0  0  0  0  0  0  0  0  0
   -6.0490   21.1940  -32.3290 C   0  0  0  0  0  0  0  0  0  0  0  0
   -6.3280   19.8590  -32.7360 C   0  0  0  0  0  0  0  0  0  0  0  0
   -7.5940   19.3720  -32.7390 F   0  0  0  0  0  0  0  0  0  0  0  0
   -4.9960   16.6230  -34.4050 C   0  0  0  0  0  0  0  0  0  0  0  0
   -5.0085   14.7409  -31.4867 H   0  0  0  0  0  0  0  0  0  0  0  0
   -3.6478   14.4276  -32.6167 H   0  0  0  0  0  0  0  0  0  0  0  0
   -4.4651   16.0271  -32.6167 H   0  0  0  0  0  0  0  0  0  0  0  0
   -6.6069   15.0674  -34.9649 H   0  0  0  0  0  0  0  0  0  0  0  0
   -7.6261   16.9545  -33.6036 H   0  0  0  0  0  0  0  0  0  0  0  0
   -6.8147   16.3418  -32.2312 H   0  0  0  0  0  0  0  0  0  0  0  0
   -2.6128   21.0106  -32.4885 H   0  0  0  0  0  0  0  0  0  0  0  0
   -7.5474   23.9768  -31.1422 H   0  0  0  0  0  0  0  0  0  0  0  0
   -8.3274   21.1206  -33.0966 H   0  0  0  0  0  0  0  0  0  0  0  0
  -10.2026   21.1572  -30.9194 H   0  0  0  0  0  0  0  0  0  0  0  0
   -9.1551   21.7392  -29.9266 H   0  0  0  0  0  0  0  0  0  0  0  0
  -10.2965   23.1610  -32.5925 H   0  0  0  0  0  0  0  0  0  0  0  0
   -9.2648   24.0913  -31.8899 H   0  0  0  0  0  0  0  0  0  0  0  0
   -4.9476   16.9484  -35.4546 H   0  0  0  0  0  0  0  0  0  0  0  0
   -3.9527   16.3351  -34.2084 H   0  0  0  0  0  0  0  0  0  0  0  0
  1  2  1  0
  2  3  1  0
  3  4  1  0
  4  5  1  0
  5  6  1  0
  6  7  2  0
  7  8  1  0
  7  9  1  0
  9 10  2  0
 10 11  1  0
 11 12  2  0
 11 13  1  0
 13 14  1  0
 14 15  2  0
 14 16  1  0
 13 17  2  0
 17 18  1  0
 18 19  1  0
 19 20  1  0
 20 21  1  0
 18 22  1  0
 22 23  2  0
 23 24  1  0
  5 25  1  0
 25  3  1  0
 23  6  1  0
 22 10  1  0
 21 19  1  0
  1 26  1  0
  1 27  1  0
  1 28  1  0
  3 29  1  0
  4 30  1  0
  4 31  1  0
  9 32  1  0
 17 33  1  0
 19 34  1  0
 20 35  1  0
 20 36  1  0
 21 37  1  0
 21 38  1  0
 25 39  1  0
 25 40  1  0
M  CHG  1  16  -1
M  END
>  <UniqueID>  (6) 
6

>  <SMILES>  (6) 
COC1CN(c2c(F)cc3c(=O)c(C(=O)[O-])cn(C4CC4)c3c2F)C1

>  <Energy>  (6) 
368.58977594124957

>  <Genealogy>  (6) 
COC1CN(c2c(F)cc3c(=O)c(C(=O)[O-])cn(C4CC4)c3c2F)C1 (protonated)
COC1CN(c2c(F)cc3c(=O)c(C(=O)[O-])cn(C4CC4)c3c2F)C1 (3D coordinates assigned)
COC1CN(c2c(F)cc3c(=O)c(C(=O)[O-])cn(C4CC4)c3c2F)C1 (nonaromatic ring conformer: 368.58977594124957 kcal/mol)

>  <smiles>  (6) 
COC1CN(c2c(F)cc3c(=O)c(C(=O)O)cn(C4CC4)c3c2F)C1

>  <score_type>  (6) 
oracle

>  <origin>  (6) 
adg

>  <m_score__min__energy>  (6) 
-9.4700000000000006

>  <m_primary>  (6) 
energy

$$$$
6:0
     RDKit          3D

 55 57  0  0  0  0  0  0  0  0999 V2000
   -3.9670   21.2630  -33.4430 C   0  0  0  0  0  0  0  0  0  0  0  0
   -5.3420   20.9990  -33.1870 O   0  0  0  0  0  0  0  0  0  0  0  0
   -5.8950   19.7160  -33.0560 C   0  0  0  0  0  0  0  0  0  0  0  0
   -5.1100   18.5490  -33.1570 C   0  0  0  0  0  0  0  0  0  0  0  0
   -5.6950   17.2890  -33.0180 C   0  0  0  0  0  0  0  0  0  0  0  0
   -7.0650   17.1780  -32.7830 C   0  0  0  0  0  0  0  0  0  0  0  0
   -7.8540   18.3250  -32.6840 C   0  0  0  0  0  0  0  0  0  0  0  0
   -7.2750   19.6040  -32.8140 C   0  0  0  0  0  0  0  0  0  0  0  0
   -8.0280   20.7870  -32.7140 O   0  0  0  0  0  0  0  0  0  0  0  0
   -8.7410   21.2170  -31.5520 C   0  0  0  0  0  0  0  0  0  0  0  0
   -7.8130   21.9860  -30.6070 C   0  0  0  0  0  0  0  0  0  0  0  0
   -7.9450   23.3840  -30.8040 O   0  0  0  0  0  0  0  0  0  0  0  0
   -6.9680   23.8740  -31.7120 C   0  0  2  0  0  0  0  0  0  0  0  0
   -6.9430   23.0660  -32.8580 O   0  0  0  0  0  0  0  0  0  0  0  0
   -5.6070   23.8860  -31.0680 C   0  0  0  0  0  0  0  0  0  0  0  0
   -4.8620   25.0030  -30.7250 C   0  0  0  0  0  0  0  0  0  0  0  0
   -3.6820   24.5130  -30.2100 C   0  0  0  0  0  0  0  0  0  0  0  0
   -2.6460   25.2990  -29.7120 O   0  0  0  0  0  0  0  0  0  0  0  0
   -3.6630   23.1670  -30.2430 N   0  0  0  0  0  0  0  0  0  0  0  0
   -2.6020   22.2860  -29.7500 C   0  0  0  0  0  0  0  0  0  0  0  0
   -2.7530   22.0260  -28.2470 C   0  0  0  0  0  0  0  0  0  0  0  0
   -2.4270   23.2520  -27.4350 C   0  0  0  0  0  0  0  0  0  0  0  0
   -3.4370   24.1710  -27.1050 C   0  0  0  0  0  0  0  0  0  0  0  0
   -3.1430   25.2910  -26.3200 C   0  0  0  0  0  0  0  0  0  0  0  0
   -1.8360   25.5080  -25.8560 C   0  0  0  0  0  0  0  0  0  0  0  0
   -1.5360   26.6920  -24.9870 C   0  0  0  0  0  0  0  0  0  0  0  0
   -0.8330   24.5750  -26.1610 C   0  0  0  0  0  0  0  0  0  0  0  0
   -1.1270   23.4570  -26.9480 C   0  0  0  0  0  0  0  0  0  0  0  0
   -4.8400   22.7750  -30.7690 C   0  0  0  0  0  0  0  0  0  0  0  0
   -3.4296   21.3662  -32.4888 H   0  0  0  0  0  0  0  0  0  0  0  0
   -3.5350   20.4314  -34.0190 H   0  0  0  0  0  0  0  0  0  0  0  0
   -3.8737   22.1955  -34.0190 H   0  0  0  0  0  0  0  0  0  0  0  0
   -4.0296   18.6319  -33.3466 H   0  0  0  0  0  0  0  0  0  0  0  0
   -5.0750   16.3835  -33.0939 H   0  0  0  0  0  0  0  0  0  0  0  0
   -7.5248   16.1845  -32.6754 H   0  0  0  0  0  0  0  0  0  0  0  0
   -8.9349   18.2305  -32.5033 H   0  0  0  0  0  0  0  0  0  0  0  0
   -9.5699   21.8723  -31.8578 H   0  0  0  0  0  0  0  0  0  0  0  0
   -9.1306   20.3328  -31.0263 H   0  0  0  0  0  0  0  0  0  0  0  0
   -8.0737   21.7416  -29.5667 H   0  0  0  0  0  0  0  0  0  0  0  0
   -6.7732   21.6954  -30.8178 H   0  0  0  0  0  0  0  0  0  0  0  0
   -7.2322   24.9040  -31.9935 H   0  0  0  0  0  0  0  0  0  0  0  0
   -6.4300   22.2450  -32.6340 H   0  0  0  0  0  0  0  0  0  0  0  0
   -5.1516   26.0580  -30.8397 H   0  0  0  0  0  0  0  0  0  0  0  0
   -2.6528   21.3274  -30.2871 H   0  0  0  0  0  0  0  0  0  0  0  0
   -1.6327   22.7762  -29.9236 H   0  0  0  0  0  0  0  0  0  0  0  0
   -3.7908   21.7263  -28.0394 H   0  0  0  0  0  0  0  0  0  0  0  0
   -2.0491   21.2295  -27.9639 H   0  0  0  0  0  0  0  0  0  0  0  0
   -4.4636   24.0092  -27.4655 H   0  0  0  0  0  0  0  0  0  0  0  0
   -3.9399   26.0051  -26.0651 H   0  0  0  0  0  0  0  0  0  0  0  0
   -1.6103   26.3988  -23.9294 H   0  0  0  0  0  0  0  0  0  0  0  0
   -0.5182   27.0524  -25.1970 H   0  0  0  0  0  0  0  0  0  0  0  0
   -2.2594   27.4936  -25.1970 H   0  0  0  0  0  0  0  0  0  0  0  0
    0.1880   24.7236  -25.7797 H   0  0  0  0  0  0  0  0  0  0  0  0
   -0.3338   22.7333  -27.1869 H   0  0  0  0  0  0  0  0  0  0  0  0
   -5.1441   21.7310  -30.9351 H   0  0  0  0  0  0  0  0  0  0  0  0
  1  2  1  0
  2  3  1  0
  3  4  2  0
  4  5  1  0
  5  6  2  0
  6  7  1  0
  7  8  2  0
  8  9  1  0
  9 10  1  0
 10 11  1  0
 11 12  1  0
 12 13  1  0
 13 14  1  0
 13 15  1  0
 15 16  1  0
 16 17  2  0
 17 18  1  0
 17 19  1  0
 19 20  1  0
 20 21  1  0
 21 22  1  0
 22 23  2  0
 23 24  1  0
 24 25  2  0
 25 26  1  0
 25 27  1  0
 27 28  2  0
 19 29  1  0
  8  3  1  0
 29 15  2  0
 28 22  1  0
  1 30  1  0
  1 31  1  0
  1 32  1  0
  4 33  1  0
  5 34  1  0
  6 35  1  0
  7 36  1  0
 10 37  1  0
 10 38  1  0
 11 39  1  0
 11 40  1  0
 13 41  1  6
 14 42  1  0
 16 43  1  0
 20 44  1  0
 20 45  1  0
 21 46  1  0
 21 47  1  0
 23 48  1  0
 24 49  1  0
 26 50  1  0
 26 51  1  0
 26 52  1  0
 27 53  1  0
 28 54  1  0
 29 55  1  0
M  CHG  1  18  -1
M  END
>  <UniqueID>  (7) 
7

>  <SMILES>  (7) 
COc1ccccc1OCCO[C@H](O)c1cc([O-])n(CCc2ccc(C)cc2)c1

>  <Energy>  (7) 
79.60884824103893

>  <Genealogy>  (7) 
COc1ccccc1OCCOC(O)c1cc([O-])n(CCc2ccc(C)cc2)c1 (protonated)
COc1ccccc1OCCO[C@H](O)c1cc([O-])n(CCc2ccc(C)cc2)c1 (chirality)
COc1ccccc1OCCO[C@H](O)c1cc([O-])n(CCc2ccc(C)cc2)c1 (3D coordinates assigned)
COc1ccccc1OCCO[C@H](O)c1cc([O-])n(CCc2ccc(C)cc2)c1 (optimized conformer: 79.60884824103893 kcal/mol)

>  <smiles>  (7) 
COc1ccccc1OCCOC(O)c1cc(O)n(CCc2ccc(C)cc2)c1

>  <score_type>  (7) 
oracle

>  <origin>  (7) 
adg

>  <m_score__min__energy>  (7) 
-10.449999999999999

>  <m_primary>  (7) 
energy

$$$$
7:0
     RDKit          3D

 33 34  0  0  0  0  0  0  0  0999 V2000
   -3.1930   21.3790  -32.8970 C   0  0  0  0  0  0  0  0  0  0  0  0
   -4.4210   20.8560  -32.2650 N   0  0  1  0  0  0  0  0  0  0  0  0
   -4.5550   21.3150  -30.8600 C   0  0  0  0  0  0  0  0  0  0  0  0
   -4.8830   22.7890  -30.7240 C   0  0  0  0  0  0  0  0  0  0  0  0
   -6.2010   23.2120  -30.4960 C   0  0  0  0  0  0  0  0  0  0  0  0
   -6.4870   24.5730  -30.3700 C   0  0  0  0  0  0  0  0  0  0  0  0
   -5.4510   25.5030  -30.4800 C   0  0  0  0  0  0  0  0  0  0  0  0
   -4.1800   25.0800  -30.7120 N   0  0  0  0  0  0  0  0  0  0  0  0
   -3.8750   23.7610  -30.8370 C   0  0  0  0  0  0  0  0  0  0  0  0
   -5.6280   21.1750  -33.0680 C   0  0  0  0  0  0  0  0  0  0  0  0
   -6.8120   20.3130  -32.6790 C   0  0  0  0  0  0  0  0  0  0  0  0
   -7.8900   20.8970  -31.9880 C   0  0  0  0  0  0  0  0  0  0  0  0
   -9.0040   20.1330  -31.6340 C   0  0  0  0  0  0  0  0  0  0  0  0
   -9.0570   18.7790  -31.9670 C   0  0  0  0  0  0  0  0  0  0  0  0
   -7.9970   18.1860  -32.6550 C   0  0  0  0  0  0  0  0  0  0  0  0
   -6.8750   18.9420  -33.0160 C   0  0  0  0  0  0  0  0  0  0  0  0
   -5.4570   18.0530  -33.9560 Br  0  0  0  0  0  0  0  0  0  0  0  0
   -2.4798   21.6828  -32.1166 H   0  0  0  0  0  0  0  0  0  0  0  0
   -2.7403   20.5956  -33.5226 H   0  0  0  0  0  0  0  0  0  0  0  0
   -3.4442   22.2482  -33.5226 H   0  0  0  0  0  0  0  0  0  0  0  0
   -4.3200   19.8130  -32.2220 H   0  0  0  0  0  0  0  0  0  0  0  0
   -5.3585   20.7358  -30.3815 H   0  0  0  0  0  0  0  0  0  0  0  0
   -3.5782   21.1595  -30.3787 H   0  0  0  0  0  0  0  0  0  0  0  0
   -7.0099   22.4709  -30.4164 H   0  0  0  0  0  0  0  0  0  0  0  0
   -7.5181   24.9092  -30.1859 H   0  0  0  0  0  0  0  0  0  0  0  0
   -5.6633   26.5776  -30.3789 H   0  0  0  0  0  0  0  0  0  0  0  0
   -2.8360   23.4540  -31.0272 H   0  0  0  0  0  0  0  0  0  0  0  0
   -5.8906   22.2315  -32.9102 H   0  0  0  0  0  0  0  0  0  0  0  0
   -5.3956   20.9766  -34.1247 H   0  0  0  0  0  0  0  0  0  0  0  0
   -7.8548   21.9644  -31.7245 H   0  0  0  0  0  0  0  0  0  0  0  0
   -9.8403   20.5989  -31.0923 H   0  0  0  0  0  0  0  0  0  0  0  0
   -9.9349   18.1783  -31.6871 H   0  0  0  0  0  0  0  0  0  0  0  0
   -8.0434   17.1182  -32.9152 H   0  0  0  0  0  0  0  0  0  0  0  0
  1  2  1  0
  2  3  1  0
  3  4  1  0
  4  5  2  0
  5  6  1  0
  6  7  2  0
  7  8  1  0
  8  9  2  0
  2 10  1  0
 10 11  1  0
 11 12  2  0
 12 13  1  0
 13 14  2  0
 14 15  1  0
 15 16  2  0
 16 17  1  0
  9  4  1  0
 16 11  1  0
  1 18  1  0
  1 19  1  0
  1 20  1  0
  2 21  1  1
  3 22  1  0
  3 23  1  0
  5 24  1  0
  6 25  1  0
  7 26  1  0
  9 27  1  0
 10 28  1  0
 10 29  1  0
 12 30  1  0
 13 31  1  0
 14 32  1  0
 15 33  1  0
M  CHG  1   2   1
M  END
>  <UniqueID>  (8) 
8

>  <SMILES>  (8) 
C[N@@H+](Cc1cccnc1)Cc1ccccc1Br

>  <Energy>  (8) 
38.57307931082844

>  <Genealogy>  (8) 
C[NH+](Cc1cccnc1)Cc1ccccc1Br (protonated)
C[N@@H+](Cc1cccnc1)Cc1ccccc1Br (chirality)
C[N@@H+](Cc1cccnc1)Cc1ccccc1Br (3D coordinates assigned)
C[N@@H+](Cc1cccnc1)Cc1ccccc1Br (optimized conformer: 38.57307931082844 kcal/mol)

>  <smiles>  (8) 
CN(Cc1cccnc1)Cc1ccccc1Br

>  <score_type>  (8) 
oracle

>  <origin>  (8) 
adg

>  <m_score__min__energy>  (8) 
-6.7800000000000002

>  <m_primary>  (8) 
energy

$$$$
8:0
     RDKit          3D

 38 38  0  0  0  0  0  0  0  0999 V2000
   -2.9700   24.8670  -26.7120 C   0  0  0  0  0  0  0  0  0  0  0  0
   -4.2020   24.2140  -27.3310 C   0  0  0  0  0  0  0  0  0  0  0  0
   -3.8560   22.8780  -27.8680 N   0  0  0  0  0  0  0  0  0  0  0  0
   -2.4950   22.4590  -27.4650 C   0  0  0  0  0  0  0  0  0  0  0  0
   -2.3610   20.9380  -27.4310 C   0  0  0  0  0  0  0  0  0  0  0  0
   -4.1240   22.7650  -29.3250 C   0  0  0  0  0  0  0  0  0  0  0  0
   -3.3530   23.7750  -30.1960 C   0  0  0  0  0  0  0  0  0  0  0  0
   -4.2420   24.7510  -30.7260 O   0  0  0  0  0  0  0  0  0  0  0  0
   -5.6250   24.5580  -30.7850 C   0  0  0  0  0  0  0  0  0  0  0  0
   -6.3340   24.6850  -29.7490 O   0  0  0  0  0  0  0  0  0  0  0  0
   -6.2680   24.1630  -32.0780 C   0  0  0  0  0  0  0  0  0  0  0  0
   -6.8680   22.7810  -31.9840 C   0  0  0  0  0  0  0  0  0  0  0  0
   -8.2110   22.6360  -31.5910 C   0  0  0  0  0  0  0  0  0  0  0  0
   -8.7840   21.3660  -31.4820 C   0  0  0  0  0  0  0  0  0  0  0  0
   -8.0230   20.2270  -31.7530 C   0  0  0  0  0  0  0  0  0  0  0  0
   -8.7410   18.6350  -31.5980 Cl  0  0  0  0  0  0  0  0  0  0  0  0
   -6.6840   20.3580  -32.1330 C   0  0  0  0  0  0  0  0  0  0  0  0
   -6.1010   21.6250  -32.2510 C   0  0  0  0  0  0  0  0  0  0  0  0
   -4.4080   21.7250  -32.7230 Cl  0  0  0  0  0  0  0  0  0  0  0  0
   -3.0457   24.8269  -25.6153 H   0  0  0  0  0  0  0  0  0  0  0  0
   -2.0674   24.3289  -27.0372 H   0  0  0  0  0  0  0  0  0  0  0  0
   -2.9086   25.9160  -27.0372 H   0  0  0  0  0  0  0  0  0  0  0  0
   -4.9813   24.1061  -26.5622 H   0  0  0  0  0  0  0  0  0  0  0  0
   -4.5701   24.8470  -28.1519 H   0  0  0  0  0  0  0  0  0  0  0  0
   -1.7689   22.8652  -28.1846 H   0  0  0  0  0  0  0  0  0  0  0  0
   -2.3027   22.8437  -26.4526 H   0  0  0  0  0  0  0  0  0  0  0  0
   -2.3309   20.5958  -26.3860 H   0  0  0  0  0  0  0  0  0  0  0  0
   -3.2225   20.4825  -27.9413 H   0  0  0  0  0  0  0  0  0  0  0  0
   -1.4331   20.6402  -27.9413 H   0  0  0  0  0  0  0  0  0  0  0  0
   -3.8466   21.7507  -29.6478 H   0  0  0  0  0  0  0  0  0  0  0  0
   -5.1931   22.9832  -29.4646 H   0  0  0  0  0  0  0  0  0  0  0  0
   -2.5897   24.2751  -29.5818 H   0  0  0  0  0  0  0  0  0  0  0  0
   -2.8750   23.2375  -31.0282 H   0  0  0  0  0  0  0  0  0  0  0  0
   -7.0625   24.8844  -32.3197 H   0  0  0  0  0  0  0  0  0  0  0  0
   -5.4991   24.1584  -32.8646 H   0  0  0  0  0  0  0  0  0  0  0  0
   -8.8143   23.5284  -31.3680 H   0  0  0  0  0  0  0  0  0  0  0  0
   -9.8373   21.2634  -31.1819 H   0  0  0  0  0  0  0  0  0  0  0  0
   -6.0846   19.4593  -32.3406 H   0  0  0  0  0  0  0  0  0  0  0  0
  1  2  1  0
  2  3  1  0
  3  4  1  0
  4  5  1  0
  3  6  1  0
  6  7  1  0
  7  8  1  0
  8  9  1  0
  9 10  2  0
  9 11  1  0
 11 12  1  0
 12 13  2  0
 13 14  1  0
 14 15  2  0
 15 16  1  0
 15 17  1  0
 17 18  2  0
 18 19  1  0
 18 12  1  0
  1 20  1  0
  1 21  1  0
  1 22  1  0
  2 23  1  0
  2 24  1  0
  4 25  1  0
  4 26  1  0
  5 27  1  0
  5 28  1  0
  5 29  1  0
  6 30  1  0
  6 31  1  0
  7 32  1  0
  7 33  1  0
 11 34  1  0
 11 35  1  0
 13 36  1  0
 14 37  1  0
 17 38  1  0
M  END
>  <UniqueID>  (9) 
9

>  <SMILES>  (9) 
CCN(CC)CCOC(=O)Cc1ccc(Cl)cc1Cl

>  <Energy>  (9) 
30.64955824659372

>  <Genealogy>  (9) 
CCN(CC)CCOC(=O)Cc1ccc(Cl)cc1Cl (3D coordinates assigned)
CCN(CC)CCOC(=O)Cc1ccc(Cl)cc1Cl (optimized conformer: 30.64955824659372 kcal/mol)

>  <smiles>  (9) 
CCN(CC)CCOC(=O)Cc1ccc(Cl)cc1Cl

>  <score_type>  (9) 
oracle

>  <origin>  (9) 
adg

>  <m_score__min__energy>  (9) 
-6.8799999999999999

>  <m_primary>  (9) 
energy

$$$$
9:0
     RDKit          3D

 37 38  0  0  0  0  0  0  0  0999 V2000
   -4.9920   15.8550  -32.3420 C   0  0  0  0  0  0  0  0  0  0  0  0
   -5.4780   16.2630  -33.7290 C   0  0  0  0  0  0  0  0  0  0  0  0
   -6.8320   16.8170  -33.6610 N   0  0  0  0  0  0  0  0  0  0  0  0
   -7.1640   18.1080  -33.1120 C   0  0  0  0  0  0  0  0  0  0  0  0
   -8.1400   18.2660  -32.1090 C   0  0  0  0  0  0  0  0  0  0  0  0
   -8.4300   19.5350  -31.5980 C   0  0  0  0  0  0  0  0  0  0  0  0
   -7.7530   20.6620  -32.0790 C   0  0  0  0  0  0  0  0  0  0  0  0
   -8.1090   22.2510  -31.4070 S   0  0  0  0  0  0  0  0  0  0  0  0
   -8.7040   22.0790  -30.0370 O   0  0  0  0  0  0  0  0  0  0  0  0
   -9.1120   22.9590  -32.2760 O   0  0  0  0  0  0  0  0  0  0  0  0
   -6.6400   23.1870  -31.2980 N   0  0  0  0  0  0  0  0  0  0  0  0
   -5.5630   22.3740  -30.7060 C   0  0  0  0  0  0  0  0  0  0  0  0
   -4.2640   23.2030  -30.5710 C   0  0  0  0  0  0  0  0  0  0  0  0
   -4.4640   24.5740  -30.8600 O   0  0  0  0  0  0  0  0  0  0  0  0
   -5.5390   25.0730  -30.0910 C   0  0  0  0  0  0  0  0  0  0  0  0
   -6.8690   24.4120  -30.5050 C   0  0  0  0  0  0  0  0  0  0  0  0
   -6.7720   20.5100  -33.0660 C   0  0  0  0  0  0  0  0  0  0  0  0
   -6.4810   19.2440  -33.5790 C   0  0  0  0  0  0  0  0  0  0  0  0
   -5.5975   16.3633  -31.5771 H   0  0  0  0  0  0  0  0  0  0  0  0
   -5.0915   14.7659  -32.2243 H   0  0  0  0  0  0  0  0  0  0  0  0
   -3.9365   16.1416  -32.2243 H   0  0  0  0  0  0  0  0  0  0  0  0
   -4.7974   17.0226  -34.1411 H   0  0  0  0  0  0  0  0  0  0  0  0
   -5.4923   15.3726  -34.3748 H   0  0  0  0  0  0  0  0  0  0  0  0
   -7.6030   16.2290  -34.0500 H   0  0  0  0  0  0  0  0  0  0  0  0
   -8.6773   17.3861  -31.7254 H   0  0  0  0  0  0  0  0  0  0  0  0
   -9.1937   19.6482  -30.8144 H   0  0  0  0  0  0  0  0  0  0  0  0
   -6.3660   23.4560  -32.2740 H   0  0  0  0  0  0  0  0  0  0  0  0
   -5.8767   22.0293  -29.7096 H   0  0  0  0  0  0  0  0  0  0  0  0
   -5.3671   21.5138  -31.3630 H   0  0  0  0  0  0  0  0  0  0  0  0
   -3.8918   23.1104  -29.5400 H   0  0  0  0  0  0  0  0  0  0  0  0
   -3.5392   22.8100  -31.2992 H   0  0  0  0  0  0  0  0  0  0  0  0
   -5.3487   24.8631  -29.0281 H   0  0  0  0  0  0  0  0  0  0  0  0
   -5.6184   26.1567  -30.2619 H   0  0  0  0  0  0  0  0  0  0  0  0
   -7.4357   24.1508  -29.5991 H   0  0  0  0  0  0  0  0  0  0  0  0
   -7.4308   25.1254  -31.1258 H   0  0  0  0  0  0  0  0  0  0  0  0
   -6.2285   21.3907  -33.4388 H   0  0  0  0  0  0  0  0  0  0  0  0
   -5.7099   19.1350  -34.3559 H   0  0  0  0  0  0  0  0  0  0  0  0
  1  2  1  0
  2  3  1  0
  3  4  1  0
  4  5  2  0
  5  6  1  0
  6  7  2  0
  7  8  1  0
  8  9  2  0
  8 10  2  0
  8 11  1  0
 11 12  1  0
 12 13  1  0
 13 14  1  0
 14 15  1  0
 15 16  1  0
  7 17  1  0
 17 18  2  0
 18  4  1  0
 16 11  1  0
  1 19  1  0
  1 20  1  0
  1 21  1  0
  2 22  1  0
  2 23  1  0
  3 24  1  0
  5 25  1  0
  6 26  1  0
 11 27  1  0
 12 28  1  0
 12 29  1  0
 13 30  1  0
 13 31  1  0
 15 32  1  0
 15 33  1  0
 16 34  1  0
 16 35  1  0
 17 36  1  0
 18 37  1  0
M  CHG  1  11   1
M  END
>  <UniqueID>  (10) 
10

>  <SMILES>  (10) 
CCNc1ccc(S(=O)(=O)[NH+]2CCOCC2)cc1

>  <Energy>  (10) 
40.147738590309245

>  <Genealogy>  (10) 
CCNc1ccc(S(=O)(=O)[NH+]2CCOCC2)cc1 (protonated)
CCNc1ccc(S(=O)(=O)[NH+]2CCOCC2)cc1 (3D coordinates assigned)
CCNc1ccc(S(=O)(=O)[NH+]2CCOCC2)cc1 (nonaromatic ring conformer: 40.147738590309245 kcal/mol)

>  <smiles>  (10) 
CCNc1ccc(S(=O)(=O)N2CCOCC2)cc1

>  <score_type>  (10) 
oracle

>  <origin>  (10) 
adg

>  <m_score__min__energy>  (10) 
-6.6399999999999997

>  <m_primary>  (10) 
energy

$$$$
10:0
     RDKit          3D

 38 40  0  0  0  0  0  0  0  0999 V2000
   -9.4850   20.5680  -32.2510 C   0  0  0  0  0  0  0  0  0  0  0  0
   -8.3190   19.6450  -32.3560 C   0  0  0  0  0  0  0  0  0  0  0  0
   -7.9540   18.7900  -31.3760 N   0  0  0  0  0  0  0  0  0  0  0  0
   -6.9230   18.1330  -31.9450 C   0  0  0  0  0  0  0  0  0  0  0  0
   -6.1660   17.0400  -31.2600 C   0  0  0  0  0  0  0  0  0  0  0  0
   -6.7000   18.5620  -33.2050 N   0  0  0  0  0  0  0  0  0  0  0  0
   -5.7050   18.0830  -34.1640 C   0  0  0  0  0  0  0  0  0  0  0  0
   -4.4190   18.9260  -34.1060 C   0  0  0  0  0  0  0  0  0  0  0  0
   -4.6500   20.3150  -33.6640 N   0  0  0  0  0  0  0  0  0  0  0  0
   -4.1900   20.5780  -32.2930 C   0  0  0  0  0  0  0  0  0  0  0  0
   -4.9210   21.7480  -31.6940 C   0  0  0  0  0  0  0  0  0  0  0  0
   -6.2630   21.5980  -31.2580 C   0  0  0  0  0  0  0  0  0  0  0  0
   -6.9610   22.6890  -30.7080 C   0  0  0  0  0  0  0  0  0  0  0  0
   -6.2930   23.9040  -30.6090 C   0  0  0  0  0  0  0  0  0  0  0  0
   -5.0100   24.0560  -31.0240 C   0  0  0  0  0  0  0  0  0  0  0  0
   -4.2830   23.0040  -31.5740 C   0  0  0  0  0  0  0  0  0  0  0  0
   -4.6070   25.3600  -30.8100 O   0  0  0  0  0  0  0  0  0  0  0  0
   -5.7050   26.0710  -30.2230 C   0  0  0  0  0  0  0  0  0  0  0  0
   -6.7600   25.1060  -30.1120 O   0  0  0  0  0  0  0  0  0  0  0  0
   -7.5780   19.5120  -33.4730 N   0  0  0  0  0  0  0  0  0  0  0  0
   -9.7145   20.7497  -31.1907 H   0  0  0  0  0  0  0  0  0  0  0  0
   -9.2430   21.5219  -32.7424 H   0  0  0  0  0  0  0  0  0  0  0  0
  -10.3579   20.1135  -32.7424 H   0  0  0  0  0  0  0  0  0  0  0  0
   -6.2509   17.1625  -30.1701 H   0  0  0  0  0  0  0  0  0  0  0  0
   -6.5835   16.0654  -31.5530 H   0  0  0  0  0  0  0  0  0  0  0  0
   -5.1068   17.0882  -31.5530 H   0  0  0  0  0  0  0  0  0  0  0  0
   -5.4580   17.0367  -33.9311 H   0  0  0  0  0  0  0  0  0  0  0  0
   -6.1295   18.1677  -35.1752 H   0  0  0  0  0  0  0  0  0  0  0  0
   -3.7198   18.4481  -33.4040 H   0  0  0  0  0  0  0  0  0  0  0  0
   -4.0141   18.9727  -35.1277 H   0  0  0  0  0  0  0  0  0  0  0  0
   -5.6660   20.5540  -33.7340 H   0  0  0  0  0  0  0  0  0  0  0  0
   -4.3716   19.6860  -31.6754 H   0  0  0  0  0  0  0  0  0  0  0  0
   -3.1160   20.8140  -32.3230 H   0  0  0  0  0  0  0  0  0  0  0  0
   -6.7613   20.6217  -31.3506 H   0  0  0  0  0  0  0  0  0  0  0  0
   -8.0016   22.5838  -30.3674 H   0  0  0  0  0  0  0  0  0  0  0  0
   -3.2436   23.1456  -31.9052 H   0  0  0  0  0  0  0  0  0  0  0  0
   -5.4287   26.4566  -29.2306 H   0  0  0  0  0  0  0  0  0  0  0  0
   -6.0036   26.9396  -30.8283 H   0  0  0  0  0  0  0  0  0  0  0  0
  1  2  1  0
  2  3  1  0
  3  4  2  0
  4  5  1  0
  4  6  1  0
  6  7  1  0
  7  8  1  0
  8  9  1  0
  9 10  1  0
 10 11  1  0
 11 12  2  0
 12 13  1  0
 13 14  2  0
 14 15  1  0
 15 16  2  0
 15 17  1  0
 17 18  1  0
 18 19  1  0
  6 20  1  0
 20  2  2  0
 16 11  1  0
 19 14  1  0
  1 21  1  0
  1 22  1  0
  1 23  1  0
  5 24  1  0
  5 25  1  0
  5 26  1  0
  7 27  1  0
  7 28  1  0
  8 29  1  0
  8 30  1  0
  9 31  1  0
 10 32  1  0
 10 33  1  0
 12 34  1  0
 13 35  1  0
 16 36  1  0
 18 37  1  0
 18 38  1  0
M  END
>  <UniqueID>  (11) 
11

>  <SMILES>  (11) 
Cc1nc(C)n(CCNCc2ccc3c(c2)OCO3)n1

>  <Energy>  (11) 
95.48864632300811

>  <Genealogy>  (11) 
Cc1nc(C)n(CCNCc2ccc3c(c2)OCO3)n1 (3D coordinates assigned)
Cc1nc(C)n(CCNCc2ccc3c(c2)OCO3)n1 (nonaromatic ring conformer: 95.48864632300811 kcal/mol)

>  <smiles>  (11) 
Cc1nc(C)n(CCNCc2ccc3c(c2)OCO3)n1

>  <score_type>  (11) 
oracle

>  <origin>  (11) 
adg

>  <m_score__min__energy>  (11) 
-7.0499999999999998

>  <m_primary>  (11) 
energy

$$$$
11:0
     RDKit          3D

 39 41  0  0  0  0  0  0  0  0999 V2000
   -5.3300   17.3470  -34.9670 C   0  0  0  0  0  0  0  0  0  0  0  0
   -6.1120   18.5780  -34.9190 N   0  0  0  0  0  0  0  0  0  0  0  0
   -5.9970   19.5530  -33.8660 C   0  0  0  0  0  0  0  0  0  0  0  0
   -7.1450   20.1210  -33.2520 C   0  0  0  0  0  0  0  0  0  0  0  0
   -7.0130   21.0710  -32.2280 C   0  0  0  0  0  0  0  0  0  0  0  0
   -5.7300   21.4340  -31.8340 C   0  0  0  0  0  0  0  0  0  0  0  0
   -5.3330   22.3370  -30.8800 C   0  0  0  0  0  0  0  0  0  0  0  0
   -3.9450   22.3060  -30.9070 C   0  0  0  0  0  0  0  0  0  0  0  0
   -3.1000   23.1440  -30.0310 C   0  0  0  0  0  0  0  0  0  0  0  0
   -2.1650   22.5380  -29.1820 C   0  0  0  0  0  0  0  0  0  0  0  0
   -1.3570   23.3230  -28.3580 C   0  0  0  0  0  0  0  0  0  0  0  0
   -1.4840   24.7120  -28.3990 C   0  0  0  0  0  0  0  0  0  0  0  0
   -2.3810   25.2900  -29.2400 N   0  0  0  0  0  0  0  0  0  0  0  0
   -3.1800   24.5500  -30.0550 C   0  0  0  0  0  0  0  0  0  0  0  0
   -3.9790   25.1350  -30.8340 O   0  0  0  0  0  0  0  0  0  0  0  0
   -3.4860   21.4300  -31.8470 N   0  0  0  0  0  0  0  0  0  0  0  0
   -2.0700   21.2190  -32.2150 C   0  0  0  0  0  0  0  0  0  0  0  0
   -1.4890   19.9700  -31.5430 C   0  0  0  0  0  0  0  0  0  0  0  0
   -1.8800   21.2060  -33.7360 C   0  0  0  0  0  0  0  0  0  0  0  0
   -4.6040   20.8980  -32.4080 C   0  0  0  0  0  0  0  0  0  0  0  0
   -4.7110   19.9510  -33.4360 C   0  0  0  0  0  0  0  0  0  0  0  0
   -5.1152   17.0089  -33.9425 H   0  0  0  0  0  0  0  0  0  0  0  0
   -5.9008   16.5705  -35.4973 H   0  0  0  0  0  0  0  0  0  0  0  0
   -4.3845   17.5337  -35.4973 H   0  0  0  0  0  0  0  0  0  0  0  0
   -6.7910   18.7510  -35.6950 H   0  0  0  0  0  0  0  0  0  0  0  0
   -8.1478   19.8129  -33.5827 H   0  0  0  0  0  0  0  0  0  0  0  0
   -7.8988   21.5157  -31.7508 H   0  0  0  0  0  0  0  0  0  0  0  0
   -5.9756   22.9526  -30.2334 H   0  0  0  0  0  0  0  0  0  0  0  0
   -2.0675   21.4425  -29.1647 H   0  0  0  0  0  0  0  0  0  0  0  0
   -0.6275   22.8515  -27.6831 H   0  0  0  0  0  0  0  0  0  0  0  0
   -0.8568   25.3401  -27.7493 H   0  0  0  0  0  0  0  0  0  0  0  0
   -1.4972   22.0760  -31.8311 H   0  0  0  0  0  0  0  0  0  0  0  0
   -1.5418   20.0835  -30.4501 H   0  0  0  0  0  0  0  0  0  0  0  0
   -2.0685   19.0862  -31.8483 H   0  0  0  0  0  0  0  0  0  0  0  0
   -0.4398   19.8439  -31.8483 H   0  0  0  0  0  0  0  0  0  0  0  0
   -0.8079   21.1326  -33.9710 H   0  0  0  0  0  0  0  0  0  0  0  0
   -2.4092   20.3420  -34.1643 H   0  0  0  0  0  0  0  0  0  0  0  0
   -2.2866   22.1341  -34.1643 H   0  0  0  0  0  0  0  0  0  0  0  0
   -3.8093   19.5249  -33.9001 H   0  0  0  0  0  0  0  0  0  0  0  0
  1  2  1  0
  2  3  1  0
  3  4  2  0
  4  5  1  0
  5  6  2  0
  6  7  1  0
  7  8  2  0
  8  9  1  0
  9 10  2  0
 10 11  1  0
 11 12  2  0
 12 13  1  0
 13 14  1  0
 14 15  2  0
  8 16  1  0
 16 17  1  0
 17 18  1  0
 17 19  1  0
 16 20  1  0
 20 21  2  0
 21  3  1  0
 20  6  1  0
 14  9  1  0
  1 22  1  0
  1 23  1  0
  1 24  1  0
  2 25  1  0
  4 26  1  0
  5 27  1  0
  7 28  1  0
 10 29  1  0
 11 30  1  0
 12 31  1  0
 17 32  1  0
 18 33  1  0
 18 34  1  0
 18 35  1  0
 19 36  1  0
 19 37  1  0
 19 38  1  0
 21 39  1  0
M  CHG  1  13  -1
M  END
>  <UniqueID>  (12) 
12

>  <SMILES>  (12) 
CNc1ccc2cc(-c3ccc[n-]c3=O)n(C(C)C)c2c1

>  <Energy>  (12) 
79.9403328688897

>  <Genealogy>  (12) 
CNc1ccc2cc(-c3ccc[n-]c3=O)n(C(C)C)c2c1 (protonated)
CNc1ccc2cc(-c3ccc[n-]c3=O)n(C(C)C)c2c1 (3D coordinates assigned)
CNc1ccc2cc(-c3ccc[n-]c3=O)n(C(C)C)c2c1 (optimized conformer: 79.9403328688897 kcal/mol)

>  <smiles>  (12) 
CNc1ccc2cc(-c3ccc[nH]c3=O)n(C(C)C)c2c1

>  <score_type>  (12) 
oracle

>  <origin>  (12) 
adg

>  <m_score__min__energy>  (12) 
-9.6400000000000006

>  <m_primary>  (12) 
energy

$$$$
12:0
     RDKit          3D

 49 52  0  0  0  0  0  0  0  0999 V2000
   -0.0820   20.0140  -28.5210 F   0  0  0  0  0  0  0  0  0  0  0  0
   -0.9560   21.0490  -28.4690 C   0  0  0  0  0  0  0  0  0  0  0  0
   -0.8540   22.0970  -29.3890 C   0  0  0  0  0  0  0  0  0  0  0  0
   -1.7550   23.1660  -29.3360 C   0  0  0  0  0  0  0  0  0  0  0  0
   -2.7650   23.1930  -28.3610 C   0  0  0  0  0  0  0  0  0  0  0  0
   -3.7240   24.3600  -28.2930 C   0  0  0  0  0  0  0  0  0  0  0  0
   -5.1080   23.9680  -28.6680 N   0  0  0  0  0  0  0  0  0  0  0  0
   -5.1820   22.7090  -29.4440 C   0  0  0  0  0  0  0  0  0  0  0  0
   -4.6360   22.8580  -30.8730 C   0  0  0  0  0  0  0  0  0  0  0  0
   -5.2390   23.9950  -31.5900 N   0  0  0  0  0  0  0  0  0  0  0  0
   -6.3860   23.7030  -32.4820 C   0  0  0  0  0  0  0  0  0  0  0  0
   -7.1810   22.4610  -32.1000 C   0  0  0  0  0  0  0  0  0  0  0  0
   -8.4210   22.6570  -31.4620 C   0  0  0  0  0  0  0  0  0  0  0  0
   -9.1870   21.5780  -31.0250 C   0  0  0  0  0  0  0  0  0  0  0  0
   -8.7460   20.2760  -31.2300 C   0  0  0  0  0  0  0  0  0  0  0  0
   -7.5440   20.0360  -31.9080 C   0  0  0  0  0  0  0  0  0  0  0  0
   -7.1300   18.7140  -32.1350 C   0  0  0  0  0  0  0  0  0  0  0  0
   -5.9530   18.4560  -32.8360 C   0  0  0  0  0  0  0  0  0  0  0  0
   -5.1880   19.5110  -33.3270 C   0  0  0  0  0  0  0  0  0  0  0  0
   -5.5830   20.8330  -33.1090 C   0  0  0  0  0  0  0  0  0  0  0  0
   -6.7560   21.1270  -32.3760 C   0  0  0  0  0  0  0  0  0  0  0  0
   -5.2900   25.2540  -30.8220 C   0  0  0  0  0  0  0  0  0  0  0  0
   -5.8100   25.0530  -29.3860 C   0  0  0  0  0  0  0  0  0  0  0  0
   -2.8590   22.1370  -27.4370 C   0  0  0  0  0  0  0  0  0  0  0  0
   -1.9570   21.0710  -27.4940 C   0  0  0  0  0  0  0  0  0  0  0  0
   -0.0647   22.0810  -30.1550 H   0  0  0  0  0  0  0  0  0  0  0  0
   -1.6718   23.9888  -30.0613 H   0  0  0  0  0  0  0  0  0  0  0  0
   -3.7325   24.7529  -27.2656 H   0  0  0  0  0  0  0  0  0  0  0  0
   -3.3818   25.1222  -29.0085 H   0  0  0  0  0  0  0  0  0  0  0  0
   -5.6400   23.8120  -27.7790 H   0  0  0  0  0  0  0  0  0  0  0  0
   -4.5950   21.9391  -28.9218 H   0  0  0  0  0  0  0  0  0  0  0  0
   -6.2430   22.4295  -29.5220 H   0  0  0  0  0  0  0  0  0  0  0  0
   -3.5478   23.0104  -30.8211 H   0  0  0  0  0  0  0  0  0  0  0  0
   -4.8893   21.9412  -31.4256 H   0  0  0  0  0  0  0  0  0  0  0  0
   -7.0666   24.5669  -32.4610 H   0  0  0  0  0  0  0  0  0  0  0  0
   -5.9660   23.5116  -33.4805 H   0  0  0  0  0  0  0  0  0  0  0  0
   -8.7918   23.6807  -31.3057 H   0  0  0  0  0  0  0  0  0  0  0  0
  -10.1452   21.7576  -30.5154 H   0  0  0  0  0  0  0  0  0  0  0  0
   -9.3434   19.4305  -30.8583 H   0  0  0  0  0  0  0  0  0  0  0  0
   -7.7372   17.8778  -31.7580 H   0  0  0  0  0  0  0  0  0  0  0  0
   -5.6282   17.4181  -33.0015 H   0  0  0  0  0  0  0  0  0  0  0  0
   -4.2666   19.3019  -33.8902 H   0  0  0  0  0  0  0  0  0  0  0  0
   -4.9741   21.6555  -33.5125 H   0  0  0  0  0  0  0  0  0  0  0  0
   -4.2761   25.6779  -30.7732 H   0  0  0  0  0  0  0  0  0  0  0  0
   -5.9887   25.9297  -31.3371 H   0  0  0  0  0  0  0  0  0  0  0  0
   -5.6714   25.9907  -28.8278 H   0  0  0  0  0  0  0  0  0  0  0  0
   -6.8711   24.7715  -29.4549 H   0  0  0  0  0  0  0  0  0  0  0  0
   -3.6447   22.1501  -26.6672 H   0  0  0  0  0  0  0  0  0  0  0  0
   -2.0352   20.2470  -26.7695 H   0  0  0  0  0  0  0  0  0  0  0  0
  1  2  1  0
  2  3  2  0
  3  4  1  0
  4  5  2  0
  5  6  1  0
  6  7  1  0
  7  8  1  0
  8  9  1  0
  9 10  1  0
 10 11  1  0
 11 12  1  0
 12 13  2  0
 13 14  1  0
 14 15  2  0
 15 16  1  0
 16 17  2  0
 17 18  1  0
 18 19  2  0
 19 20  1  0
 20 21  2  0
 10 22  1  0
 22 23  1  0
  5 24  1  0
 24 25  2  0
 25  2  1  0
 23  7  1  0
 21 12  1  0
 21 16  1  0
  3 26  1  0
  4 27  1  0
  6 28  1  0
  6 29  1  0
  7 30  1  0
  8 31  1  0
  8 32  1  0
  9 33  1  0
  9 34  1  0
 11 35  1  0
 11 36  1  0
 13 37  1  0
 14 38  1  0
 15 39  1  0
 17 40  1  0
 18 41  1  0
 19 42  1  0
 20 43  1  0
 22 44  1  0
 22 45  1  0
 23 46  1  0
 23 47  1  0
 24 48  1  0
 25 49  1  0
M  CHG  1   7   1
M  END
>  <UniqueID>  (13) 
13

>  <SMILES>  (13) 
Fc1ccc(C[NH+]2CCN(Cc3cccc4ccccc34)CC2)cc1

>  <Energy>  (13) 
72.84148604872448

>  <Genealogy>  (13) 
Fc1ccc(C[NH+]2CCN(Cc3cccc4ccccc34)CC2)cc1 (protonated)
Fc1ccc(C[NH+]2CCN(Cc3cccc4ccccc34)CC2)cc1 (3D coordinates assigned)
Fc1ccc(C[NH+]2CCN(Cc3cccc4ccccc34)CC2)cc1 (nonaromatic ring conformer: 72.84148604872448 kcal/mol)

>  <smiles>  (13) 
Fc1ccc(CN2CCN(Cc3cccc4ccccc34)CC2)cc1

>  <score_type>  (13) 
oracle

>  <origin>  (13) 
adg

>  <m_score__min__energy>  (13) 
-8.0899999999999999

>  <m_primary>  (13) 
energy

$$$$
13:0
     RDKit          3D

 49 51  0  0  0  0  0  0  0  0999 V2000
   -0.8730   18.3390  -27.1230 C   0  0  0  0  0  0  0  0  0  0  0  0
   -1.6870   19.2240  -27.1140 C   0  0  0  0  0  0  0  0  0  0  0  0
   -2.6870   20.3110  -27.0960 C   0  0  0  0  0  0  0  0  0  0  0  0
   -2.2920   21.4870  -27.9110 N   0  0  1  0  0  0  0  0  0  0  0  0
   -1.4240   21.1120  -29.0560 C   0  0  0  0  0  0  0  0  0  0  0  0
   -1.4130   22.2050  -30.1430 C   0  0  0  0  0  0  0  0  0  0  0  0
   -1.6380   23.4760  -29.5670 O   0  0  0  0  0  0  0  0  0  0  0  0
   -2.9630   23.5890  -29.0590 C   0  0  1  0  0  0  0  0  0  0  0  0
   -3.9180   24.0880  -30.1280 C   0  0  0  0  0  0  0  0  0  0  0  0
   -3.8640   25.2930  -30.4900 O   0  0  0  0  0  0  0  0  0  0  0  0
   -4.8400   23.2000  -30.7920 N   0  0  0  0  0  0  0  0  0  0  0  0
   -6.0070   23.7620  -31.4800 C   0  0  0  0  0  0  0  0  0  0  0  0
   -7.1850   22.7720  -31.4680 C   0  0  0  0  0  0  0  0  0  0  0  0
   -6.7990   21.3480  -31.6830 N   0  0  0  0  0  0  0  0  0  0  0  0
   -7.7030   20.6690  -32.6360 C   0  0  0  0  0  0  0  0  0  0  0  0
   -7.0970   19.3780  -33.1150 C   0  0  0  0  0  0  0  0  0  0  0  0
   -7.3840   18.1670  -32.4640 C   0  0  0  0  0  0  0  0  0  0  0  0
   -6.8340   16.9810  -32.9540 C   0  0  0  0  0  0  0  0  0  0  0  0
   -6.0170   17.0090  -34.0870 C   0  0  0  0  0  0  0  0  0  0  0  0
   -5.7570   18.2320  -34.7140 C   0  0  0  0  0  0  0  0  0  0  0  0
   -6.3000   19.3770  -34.2200 N   0  0  0  0  0  0  0  0  0  0  0  0
   -5.3930   21.1710  -32.0940 C   0  0  0  0  0  0  0  0  0  0  0  0
   -4.4630   21.8040  -31.0560 C   0  0  0  0  0  0  0  0  0  0  0  0
   -3.4540   22.2770  -28.3690 C   0  0  0  0  0  0  0  0  0  0  0  0
   -0.1284   17.5294  -27.1312 H   0  0  0  0  0  0  0  0  0  0  0  0
   -3.6367   19.9180  -27.4879 H   0  0  0  0  0  0  0  0  0  0  0  0
   -2.7775   20.6526  -26.0543 H   0  0  0  0  0  0  0  0  0  0  0  0
   -1.7270   22.1030  -27.2760 H   0  0  0  0  0  0  0  0  0  0  0  0
   -0.3973   20.9614  -28.6911 H   0  0  0  0  0  0  0  0  0  0  0  0
   -1.8226   20.1885  -29.5013 H   0  0  0  0  0  0  0  0  0  0  0  0
   -0.4358   22.2039  -30.6480 H   0  0  0  0  0  0  0  0  0  0  0  0
   -2.2136   21.9952  -30.8676 H   0  0  0  0  0  0  0  0  0  0  0  0
   -2.9465   24.3482  -28.2632 H   0  0  0  0  0  0  0  0  0  0  0  0
   -6.3114   24.6893  -30.9726 H   0  0  0  0  0  0  0  0  0  0  0  0
   -5.7322   23.9665  -32.5253 H   0  0  0  0  0  0  0  0  0  0  0  0
   -7.6876   22.8481  -30.4925 H   0  0  0  0  0  0  0  0  0  0  0  0
   -7.8355   23.0501  -32.3103 H   0  0  0  0  0  0  0  0  0  0  0  0
   -8.6598   20.4557  -32.1369 H   0  0  0  0  0  0  0  0  0  0  0  0
   -7.8634   21.3276  -33.5023 H   0  0  0  0  0  0  0  0  0  0  0  0
   -8.0352   18.1531  -31.5775 H   0  0  0  0  0  0  0  0  0  0  0  0
   -7.0435   16.0265  -32.4490 H   0  0  0  0  0  0  0  0  0  0  0  0
   -5.5827   16.0787  -34.4819 H   0  0  0  0  0  0  0  0  0  0  0  0
   -5.1140   18.2677  -35.6058 H   0  0  0  0  0  0  0  0  0  0  0  0
   -5.1697   20.0971  -32.1770 H   0  0  0  0  0  0  0  0  0  0  0  0
   -5.2359   21.6598  -33.0668 H   0  0  0  0  0  0  0  0  0  0  0  0
   -4.5267   21.2310  -30.1192 H   0  0  0  0  0  0  0  0  0  0  0  0
   -3.4359   21.7870  -31.4494 H   0  0  0  0  0  0  0  0  0  0  0  0
   -4.0850   22.5329  -27.5051 H   0  0  0  0  0  0  0  0  0  0  0  0
   -4.0354   21.6833  -29.0898 H   0  0  0  0  0  0  0  0  0  0  0  0
  1  2  3  0
  2  3  1  0
  3  4  1  0
  4  5  1  0
  5  6  1  0
  6  7  1  0
  7  8  1  0
  8  9  1  0
  9 10  2  0
  9 11  1  0
 11 12  1  0
 12 13  1  0
 13 14  1  0
 14 15  1  0
 15 16  1  0
 16 17  2  0
 17 18  1  0
 18 19  2  0
 19 20  1  0
 20 21  2  0
 14 22  1  0
 22 23  1  0
  8 24  1  0
 24  4  1  0
 23 11  1  0
 21 16  1  0
  1 25  1  0
  3 26  1  0
  3 27  1  0
  4 28  1  1
  5 29  1  0
  5 30  1  0
  6 31  1  0
  6 32  1  0
  8 33  1  1
 12 34  1  0
 12 35  1  0
 13 36  1  0
 13 37  1  0
 15 38  1  0
 15 39  1  0
 17 40  1  0
 18 41  1  0
 19 42  1  0
 20 43  1  0
 22 44  1  0
 22 45  1  0
 23 46  1  0
 23 47  1  0
 24 48  1  0
 24 49  1  0
M  CHG  1   4   1
M  END
>  <UniqueID>  (14) 
14

>  <SMILES>  (14) 
C#CC[N@H+]1CCO[C@@H](C(=O)N2CCN(Cc3ccccn3)CC2)C1

>  <Energy>  (14) 
69.96400512810811

>  <Genealogy>  (14) 
C#CC[NH+]1CCOC(C(=O)N2CCN(Cc3ccccn3)CC2)C1 (protonated)
C#CC[N@H+]1CCO[C@@H](C(=O)N2CCN(Cc3ccccn3)CC2)C1 (chirality)
C#CC[N@H+]1CCO[C@@H](C(=O)N2CCN(Cc3ccccn3)CC2)C1 (3D coordinates assigned)
C#CC[N@H+]1CCO[C@@H](C(=O)N2CCN(Cc3ccccn3)CC2)C1 (nonaromatic ring conformer: 69.96400512810811 kcal/mol)

>  <smiles>  (14) 
C#CCN1CCOC(C(=O)N2CCN(Cc3ccccn3)CC2)C1

>  <score_type>  (14) 
oracle

>  <origin>  (14) 
adg

>  <m_score__min__energy>  (14) 
-7.5300000000000002

>  <m_primary>  (14) 
energy

$$$$
14:0
     RDKit          3D

 52 54  0  0  0  0  0  0  0  0999 V2000
   -6.8870   18.0330  -31.2190 C   0  0  0  0  0  0  0  0  0  0  0  0
   -7.9930   17.7460  -32.2300 C   0  0  0  0  0  0  0  0  0  0  0  0
   -8.9150   18.8180  -32.2770 O   0  0  0  0  0  0  0  0  0  0  0  0
   -8.4110   19.9730  -31.6260 C   0  0  0  0  0  0  0  0  0  0  0  0
   -7.9840   21.0260  -32.6550 C   0  0  0  0  0  0  0  0  0  0  0  0
   -6.5250   21.2530  -32.6090 N   0  0  0  0  0  0  0  0  0  0  0  0
   -5.9890   22.4040  -32.0500 C   0  0  0  0  0  0  0  0  0  0  0  0
   -7.0230   23.6660  -31.2760 S   0  0  0  0  0  0  0  0  0  0  0  0
   -5.8230   24.0040  -29.9440 C   0  0  0  0  0  0  0  0  0  0  0  0
   -4.9210   25.1330  -30.3430 C   0  0  0  0  0  0  0  0  0  0  0  0
   -5.4150   26.2770  -30.5210 O   0  0  0  0  0  0  0  0  0  0  0  0
   -3.4990   24.9700  -30.4490 N   0  0  0  0  0  0  0  0  0  0  0  0
   -2.6930   24.0880  -29.6560 C   0  0  0  0  0  0  0  0  0  0  0  0
   -2.9300   22.7030  -29.6500 C   0  0  0  0  0  0  0  0  0  0  0  0
   -2.1440   21.8560  -28.8670 C   0  0  0  0  0  0  0  0  0  0  0  0
   -1.0980   22.3810  -28.1050 C   0  0  0  0  0  0  0  0  0  0  0  0
   -0.8310   23.7510  -28.1300 C   0  0  0  0  0  0  0  0  0  0  0  0
   -1.6250   24.6170  -28.9090 C   0  0  0  0  0  0  0  0  0  0  0  0
   -1.3980   26.0040  -28.9640 O   0  0  0  0  0  0  0  0  0  0  0  0
   -0.8350   26.7960  -27.9180 C   0  0  0  0  0  0  0  0  0  0  0  0
   -1.4590   26.4340  -26.5730 C   0  0  0  0  0  0  0  0  0  0  0  0
   -4.6400   22.6270  -32.0760 N   0  0  0  0  0  0  0  0  0  0  0  0
   -3.8140   21.7170  -32.6430 C   0  0  0  0  0  0  0  0  0  0  0  0
   -2.4230   21.8240  -32.7260 C   0  0  0  0  0  0  0  0  0  0  0  0
   -1.8450   20.7310  -33.3720 C   0  0  0  0  0  0  0  0  0  0  0  0
   -3.0640   19.6500  -33.8290 S   0  0  0  0  0  0  0  0  0  0  0  0
   -4.3200   20.5720  -33.2010 C   0  0  0  0  0  0  0  0  0  0  0  0
   -5.6860   20.3300  -33.1950 C   0  0  0  0  0  0  0  0  0  0  0  0
   -6.1380   19.2760  -33.7230 O   0  0  0  0  0  0  0  0  0  0  0  0
   -7.2864   17.9294  -30.1993 H   0  0  0  0  0  0  0  0  0  0  0  0
   -6.0630   17.3189  -31.3644 H   0  0  0  0  0  0  0  0  0  0  0  0
   -6.5142   19.0576  -31.3644 H   0  0  0  0  0  0  0  0  0  0  0  0
   -7.5460   17.6096  -33.2258 H   0  0  0  0  0  0  0  0  0  0  0  0
   -8.5254   16.8335  -31.9237 H   0  0  0  0  0  0  0  0  0  0  0  0
   -9.1946   20.3953  -30.9798 H   0  0  0  0  0  0  0  0  0  0  0  0
   -7.5355   19.6885  -31.0239 H   0  0  0  0  0  0  0  0  0  0  0  0
   -8.2621   20.6788  -33.6610 H   0  0  0  0  0  0  0  0  0  0  0  0
   -8.4926   21.9722  -32.4185 H   0  0  0  0  0  0  0  0  0  0  0  0
   -6.3644   24.2768  -29.0261 H   0  0  0  0  0  0  0  0  0  0  0  0
   -5.2176   23.1031  -29.7653 H   0  0  0  0  0  0  0  0  0  0  0  0
   -3.7394   22.2839  -30.2658 H   0  0  0  0  0  0  0  0  0  0  0  0
   -2.3484   20.7753  -28.8501 H   0  0  0  0  0  0  0  0  0  0  0  0
   -0.4830   21.7134  -27.4836 H   0  0  0  0  0  0  0  0  0  0  0  0
    0.0032   24.1568  -27.5388 H   0  0  0  0  0  0  0  0  0  0  0  0
    0.2494   26.6170  -27.8730 H   0  0  0  0  0  0  0  0  0  0  0  0
   -1.0379   27.8564  -28.1285 H   0  0  0  0  0  0  0  0  0  0  0  0
   -0.8184   26.8056  -25.7597 H   0  0  0  0  0  0  0  0  0  0  0  0
   -2.4549   26.8946  -26.4950 H   0  0  0  0  0  0  0  0  0  0  0  0
   -1.5535   25.3408  -26.4950 H   0  0  0  0  0  0  0  0  0  0  0  0
   -4.2430   23.5000  -31.6600 H   0  0  0  0  0  0  0  0  0  0  0  0
   -1.8492   22.6735  -32.3273 H   0  0  0  0  0  0  0  0  0  0  0  0
   -0.7690   20.5938  -33.5550 H   0  0  0  0  0  0  0  0  0  0  0  0
  1  2  1  0
  2  3  1  0
  3  4  1  0
  4  5  1  0
  5  6  1  0
  6  7  1  0
  7  8  1  0
  8  9  1  0
  9 10  1  0
 10 11  2  0
 10 12  1  0
 12 13  1  0
 13 14  2  0
 14 15  1  0
 15 16  2  0
 16 17  1  0
 17 18  2  0
 18 19  1  0
 19 20  1  0
 20 21  1  0
  7 22  2  0
 22 23  1  0
 23 24  1  0
 24 25  2  0
 25 26  1  0
 26 27  1  0
 27 28  1  0
 28 29  2  0
 28  6  1  0
 18 13  1  0
 27 23  2  0
  1 30  1  0
  1 31  1  0
  1 32  1  0
  2 33  1  0
  2 34  1  0
  4 35  1  0
  4 36  1  0
  5 37  1  0
  5 38  1  0
  9 39  1  0
  9 40  1  0
 14 41  1  0
 15 42  1  0
 16 43  1  0
 17 44  1  0
 20 45  1  0
 20 46  1  0
 21 47  1  0
 21 48  1  0
 21 49  1  0
 22 50  1  0
 24 51  1  0
 25 52  1  0
M  CHG  2  12  -1  22   1
M  END
>  <UniqueID>  (15) 
15

>  <SMILES>  (15) 
CCOCCn1c(SCC(=O)[N-]c2ccccc2OCC)[nH+]c2ccsc2c1=O

>  <Energy>  (15) 
85.85217668205568

>  <Genealogy>  (15) 
CCOCCn1c(SCC(=O)[N-]c2ccccc2OCC)[nH+]c2ccsc2c1=O (protonated)
CCOCCn1c(SCC(=O)[N-]c2ccccc2OCC)[nH+]c2ccsc2c1=O (3D coordinates assigned)
CCOCCn1c(SCC(=O)[N-]c2ccccc2OCC)[nH+]c2ccsc2c1=O (optimized conformer: 85.85217668205568 kcal/mol)

>  <smiles>  (15) 
CCOCCn1c(SCC(=O)Nc2ccccc2OCC)nc2ccsc2c1=O

>  <score_type>  (15) 
oracle

>  <origin>  (15) 
adg

>  <m_score__min__energy>  (15) 
-10.18

>  <m_primary>  (15) 
energy

$$$$
15:0
     RDKit          3D

 38 40  0  0  0  0  0  0  0  0999 V2000
   -6.4690   19.2410  -33.8080 C   0  0  0  0  0  0  0  0  0  0  0  0
   -7.2230   18.4040  -32.7820 C   0  0  0  0  0  0  0  0  0  0  0  0
   -8.6130   19.3050  -32.1180 S   0  0  0  0  0  0  0  0  0  0  0  0
   -9.7510   19.2890  -33.0990 O   0  0  0  0  0  0  0  0  0  0  0  0
   -9.0700   18.6660  -30.8360 O   0  0  0  0  0  0  0  0  0  0  0  0
   -8.1250   20.9690  -31.8110 C   0  0  0  0  0  0  0  0  0  0  0  0
   -9.0240   22.0220  -32.0090 C   0  0  0  0  0  0  0  0  0  0  0  0
   -8.6430   23.3000  -31.7520 N   0  0  0  0  0  0  0  0  0  0  0  0
   -7.3990   23.6000  -31.2940 C   0  0  0  0  0  0  0  0  0  0  0  0
   -6.4590   22.5790  -31.0710 C   0  0  0  0  0  0  0  0  0  0  0  0
   -5.0980   22.8930  -30.5660 C   0  0  0  0  0  0  0  0  0  0  0  0
   -4.7450   24.2210  -30.2140 C   0  0  0  0  0  0  0  0  0  0  0  0
   -3.4930   24.5070  -29.7530 N   0  0  0  0  0  0  0  0  0  0  0  0
   -2.5770   23.5130  -29.6290 C   0  0  0  0  0  0  0  0  0  0  0  0
   -2.8660   22.2240  -29.9520 C   0  0  0  0  0  0  0  0  0  0  0  0
   -4.1270   21.8770  -30.4280 C   0  0  0  0  0  0  0  0  0  0  0  0
   -1.6780   21.3540  -29.7260 C   0  0  0  0  0  0  0  0  0  0  0  0
   -0.6050   22.3440  -29.1990 C   0  0  0  0  0  0  0  0  0  0  0  0
   -1.2470   23.6600  -29.1710 N   0  0  0  0  0  0  0  0  0  0  0  0
   -0.6150   24.8760  -28.7490 C   0  0  0  0  0  0  0  0  0  0  0  0
   -1.2690   26.1270  -28.9530 N   0  0  0  0  0  0  0  0  0  0  0  0
    0.5180   24.8490  -28.1990 O   0  0  0  0  0  0  0  0  0  0  0  0
   -6.8410   21.2520  -31.3340 C   0  0  0  0  0  0  0  0  0  0  0  0
   -5.8202   19.9613  -33.2881 H   0  0  0  0  0  0  0  0  0  0  0  0
   -5.8539   18.5819  -34.4383 H   0  0  0  0  0  0  0  0  0  0  0  0
   -7.1886   19.7841  -34.4383 H   0  0  0  0  0  0  0  0  0  0  0  0
   -7.5875   17.4854  -33.2651 H   0  0  0  0  0  0  0  0  0  0  0  0
   -6.5375   18.1599  -31.9571 H   0  0  0  0  0  0  0  0  0  0  0  0
  -10.0410   21.8148  -32.3734 H   0  0  0  0  0  0  0  0  0  0  0  0
   -7.1264   24.6473  -31.0968 H   0  0  0  0  0  0  0  0  0  0  0  0
   -5.4868   25.0271  -30.3135 H   0  0  0  0  0  0  0  0  0  0  0  0
   -4.3619   20.8350  -30.6907 H   0  0  0  0  0  0  0  0  0  0  0  0
   -1.8960   20.5755  -28.9801 H   0  0  0  0  0  0  0  0  0  0  0  0
   -1.3598   20.8165  -30.6314 H   0  0  0  0  0  0  0  0  0  0  0  0
   -0.2823   22.0549  -28.1879 H   0  0  0  0  0  0  0  0  0  0  0  0
    0.2894   22.3462  -29.8393 H   0  0  0  0  0  0  0  0  0  0  0  0
   -2.3120   26.1900  -28.9670 H   0  0  0  0  0  0  0  0  0  0  0  0
   -6.1270   20.4326  -31.1639 H   0  0  0  0  0  0  0  0  0  0  0  0
  1  2  1  0
  2  3  1  0
  3  4  2  0
  3  5  2  0
  3  6  1  0
  6  7  2  0
  7  8  1  0
  8  9  2  0
  9 10  1  0
 10 11  1  0
 11 12  2  0
 12 13  1  0
 13 14  2  0
 14 15  1  0
 15 16  2  0
 15 17  1  0
 17 18  1  0
 18 19  1  0
 19 20  1  0
 20 21  1  0
 20 22  2  0
 10 23  2  0
 23  6  1  0
 16 11  1  0
 19 14  1  0
  1 24  1  0
  1 25  1  0
  1 26  1  0
  2 27  1  0
  2 28  1  0
  7 29  1  0
  9 30  1  0
 12 31  1  0
 16 32  1  0
 17 33  1  0
 17 34  1  0
 18 35  1  0
 18 36  1  0
 21 37  1  0
 23 38  1  0
M  CHG  1  21  -1
M  END
>  <UniqueID>  (16) 
16

>  <SMILES>  (16) 
CCS(=O)(=O)c1cncc(-c2cnc3c(c2)CCN3C([NH-])=O)c1

>  <Energy>  (16) 
55.56899405256231

>  <Genealogy>  (16) 
CCS(=O)(=O)c1cncc(-c2cnc3c(c2)CCN3C([NH-])=O)c1 (protonated)
CCS(=O)(=O)c1cncc(-c2cnc3c(c2)CCN3C([NH-])=O)c1 (3D coordinates assigned)
CCS(=O)(=O)c1cncc(-c2cnc3c(c2)CCN3C([NH-])=O)c1 (nonaromatic ring conformer: 55.56899405256231 kcal/mol)

>  <smiles>  (16) 
CCS(=O)(=O)c1cncc(-c2cnc3c(c2)CCN3C(N)=O)c1

>  <score_type>  (16) 
oracle

>  <origin>  (16) 
adg

>  <m_score__min__energy>  (16) 
-10.029999999999999

>  <m_primary>  (16) 
energy

$$$$
16:0
     RDKit          3D

 48 51  0  0  0  0  0  0  0  0999 V2000
   -5.3250   25.4780  -30.2880 C   0  0  0  0  0  0  0  0  0  0  0  0
   -4.2420   24.7420  -30.8480 O   0  0  0  0  0  0  0  0  0  0  0  0
   -4.2840   23.3710  -31.1430 C   0  0  0  0  0  0  0  0  0  0  0  0
   -5.4760   22.6760  -30.9030 C   0  0  0  0  0  0  0  0  0  0  0  0
   -5.5730   21.3090  -31.1790 C   0  0  0  0  0  0  0  0  0  0  0  0
   -4.4700   20.6190  -31.6990 C   0  0  0  0  0  0  0  0  0  0  0  0
   -4.5390   19.2500  -31.9850 C   0  0  0  0  0  0  0  0  0  0  0  0
   -3.4210   18.5820  -32.5090 C   0  0  0  0  0  0  0  0  0  0  0  0
   -3.5080   17.1090  -32.8300 C   0  0  0  0  0  0  0  0  0  0  0  0
   -3.8840   16.9100  -34.2470 N   0  0  0  0  0  0  0  0  0  0  0  0
   -4.2210   18.1880  -34.9320 C   0  0  0  0  0  0  0  0  0  0  0  0
   -5.7360   18.4430  -35.0650 C   0  0  0  0  0  0  0  0  0  0  0  0
   -6.4620   17.7890  -33.9730 N   0  0  0  0  0  0  0  0  0  0  0  0
   -7.3180   18.5380  -33.0880 C   0  0  0  0  0  0  0  0  0  0  0  0
   -7.9720   17.9010  -32.0180 C   0  0  0  0  0  0  0  0  0  0  0  0
   -8.8160   18.6280  -31.1730 C   0  0  0  0  0  0  0  0  0  0  0  0
   -9.0190   19.9930  -31.3910 C   0  0  0  0  0  0  0  0  0  0  0  0
   -8.3810   20.6330  -32.4560 C   0  0  0  0  0  0  0  0  0  0  0  0
   -7.5370   19.9100  -33.3040 C   0  0  0  0  0  0  0  0  0  0  0  0
   -6.2670   16.3490  -33.7680 C   0  0  0  0  0  0  0  0  0  0  0  0
   -4.9420   15.8890  -34.4000 C   0  0  0  0  0  0  0  0  0  0  0  0
   -2.2380   19.3150  -32.7380 C   0  0  0  0  0  0  0  0  0  0  0  0
   -0.7930   18.5570  -33.3920 Cl  0  0  0  0  0  0  0  0  0  0  0  0
   -2.1960   20.6440  -32.4530 N   0  0  0  0  0  0  0  0  0  0  0  0
   -3.2660   21.3090  -31.9450 C   0  0  0  0  0  0  0  0  0  0  0  0
   -3.1750   22.6780  -31.6670 C   0  0  0  0  0  0  0  0  0  0  0  0
   -5.2665   25.4383  -29.1903 H   0  0  0  0  0  0  0  0  0  0  0  0
   -5.2676   26.5249  -30.6206 H   0  0  0  0  0  0  0  0  0  0  0  0
   -6.2773   25.0393  -30.6206 H   0  0  0  0  0  0  0  0  0  0  0  0
   -6.3450   23.2114  -30.4930 H   0  0  0  0  0  0  0  0  0  0  0  0
   -6.5155   20.7750  -30.9879 H   0  0  0  0  0  0  0  0  0  0  0  0
   -5.4713   18.6968  -31.7987 H   0  0  0  0  0  0  0  0  0  0  0  0
   -2.5304   16.6397  -32.6453 H   0  0  0  0  0  0  0  0  0  0  0  0
   -4.2755   16.6496  -32.1898 H   0  0  0  0  0  0  0  0  0  0  0  0
   -3.7792   19.0159  -34.3581 H   0  0  0  0  0  0  0  0  0  0  0  0
   -3.8170   18.1202  -35.9529 H   0  0  0  0  0  0  0  0  0  0  0  0
   -5.9258   19.5259  -35.0290 H   0  0  0  0  0  0  0  0  0  0  0  0
   -6.0846   18.0298  -36.0230 H   0  0  0  0  0  0  0  0  0  0  0  0
   -7.8187   16.8255  -31.8451 H   0  0  0  0  0  0  0  0  0  0  0  0
   -9.3209   18.1245  -30.3354 H   0  0  0  0  0  0  0  0  0  0  0  0
   -9.6815   20.5638  -30.7237 H   0  0  0  0  0  0  0  0  0  0  0  0
   -8.5429   21.7074  -32.6277 H   0  0  0  0  0  0  0  0  0  0  0  0
   -7.0415   20.4172  -34.1449 H   0  0  0  0  0  0  0  0  0  0  0  0
   -6.2463   16.1366  -32.6889 H   0  0  0  0  0  0  0  0  0  0  0  0
   -7.0961   15.8063  -34.2456 H   0  0  0  0  0  0  0  0  0  0  0  0
   -4.6157   14.9602  -33.9093 H   0  0  0  0  0  0  0  0  0  0  0  0
   -5.1110   15.7264  -35.4747 H   0  0  0  0  0  0  0  0  0  0  0  0
   -2.2340   23.2146  -31.8584 H   0  0  0  0  0  0  0  0  0  0  0  0
  1  2  1  0
  2  3  1  0
  3  4  2  0
  4  5  1  0
  5  6  2  0
  6  7  1  0
  7  8  2  0
  8  9  1  0
  9 10  1  0
 10 11  1  0
 11 12  1  0
 12 13  1  0
 13 14  1  0
 14 15  2  0
 15 16  1  0
 16 17  2  0
 17 18  1  0
 18 19  2  0
 13 20  1  0
 20 21  1  0
  8 22  1  0
 22 23  1  0
 22 24  2  0
 24 25  1  0
 25 26  2  0
 26  3  1  0
 25  6  1  0
 21 10  1  0
 19 14  1  0
  1 27  1  0
  1 28  1  0
  1 29  1  0
  4 30  1  0
  5 31  1  0
  7 32  1  0
  9 33  1  0
  9 34  1  0
 11 35  1  0
 11 36  1  0
 12 37  1  0
 12 38  1  0
 15 39  1  0
 16 40  1  0
 17 41  1  0
 18 42  1  0
 19 43  1  0
 20 44  1  0
 20 45  1  0
 21 46  1  0
 21 47  1  0
 26 48  1  0
M  END
>  <UniqueID>  (17) 
17

>  <SMILES>  (17) 
COc1ccc2cc(CN3CCN(c4ccccc4)CC3)c(Cl)nc2c1

>  <Energy>  (17) 
66.19910963737904

>  <Genealogy>  (17) 
COc1ccc2cc(CN3CCN(c4ccccc4)CC3)c(Cl)nc2c1 (3D coordinates assigned)
COc1ccc2cc(CN3CCN(c4ccccc4)CC3)c(Cl)nc2c1 (nonaromatic ring conformer: 66.19910963737904 kcal/mol)

>  <smiles>  (17) 
COc1ccc2cc(CN3CCN(c4ccccc4)CC3)c(Cl)nc2c1

>  <score_type>  (17) 
oracle

>  <origin>  (17) 
adg

>  <m_score__min__energy>  (17) 
-8.2599999999999998

>  <m_primary>  (17) 
energy

$$$$
17:0
     RDKit          3D

 55 58  0  0  0  0  0  0  0  0999 V2000
   -3.6200   23.2490  -30.1180 O   0  0  0  0  0  0  0  0  0  0  0  0
   -3.4400   24.5000  -30.1130 C   0  0  0  0  0  0  0  0  0  0  0  0
   -4.2410   25.3520  -30.9370 N   0  0  0  0  0  0  0  0  0  0  0  0
   -5.4320   26.0500  -30.4580 C   0  0  0  0  0  0  0  0  0  0  0  0
   -6.2000   25.1730  -29.4610 C   0  0  0  0  0  0  0  0  0  0  0  0
   -6.8480   23.9130  -30.0870 C   0  0  0  0  0  0  0  0  0  0  0  0
   -6.0260   23.2550  -31.1190 N   0  0  0  0  0  0  0  0  0  0  0  0
   -6.7940   22.9240  -32.3310 C   0  0  0  0  0  0  0  0  0  0  0  0
   -6.7810   21.4360  -32.5680 C   0  0  0  0  0  0  0  0  0  0  0  0
   -5.5940   20.7890  -32.9490 C   0  0  0  0  0  0  0  0  0  0  0  0
   -5.5740   19.4010  -33.1240 C   0  0  0  0  0  0  0  0  0  0  0  0
   -6.7360   18.6500  -32.9100 C   0  0  0  0  0  0  0  0  0  0  0  0
   -6.7100   16.9090  -33.1310 Cl  0  0  0  0  0  0  0  0  0  0  0  0
   -7.9180   19.2870  -32.5180 C   0  0  0  0  0  0  0  0  0  0  0  0
   -7.9390   20.6740  -32.3390 C   0  0  0  0  0  0  0  0  0  0  0  0
   -2.4320   25.0690  -29.3310 O   0  0  0  0  0  0  0  0  0  0  0  0
   -1.5630   24.3050  -28.4900 C   0  0  1  0  0  0  0  0  0  0  0  0
   -0.4040   25.1860  -27.9440 C   0  0  2  0  0  0  0  0  0  0  0  0
    0.5280   24.3150  -27.0700 C   0  0  0  0  0  0  0  0  0  0  0  0
   -0.2690   23.7280  -25.8840 C   0  0  2  0  0  0  0  0  0  0  0  0
   -1.4290   22.8620  -26.4230 C   0  0  0  0  0  0  0  0  0  0  0  0
   -2.3650   23.7300  -27.2960 C   0  0  1  0  0  0  0  0  0  0  0  0
   -2.9350   24.8850  -26.4380 C   0  0  0  0  0  0  0  0  0  0  0  0
   -1.7770   25.7560  -25.9000 C   0  0  1  0  0  0  0  0  0  0  0  0
   -2.2900   26.7900  -25.1340 F   0  0  0  0  0  0  0  0  0  0  0  0
   -0.8430   24.8830  -25.0310 C   0  0  0  0  0  0  0  0  0  0  0  0
   -0.9770   26.3400  -27.0870 C   0  0  0  0  0  0  0  0  0  0  0  0
   -5.1299   26.9840  -29.9616 H   0  0  0  0  0  0  0  0  0  0  0  0
   -6.0848   26.2720  -31.3151 H   0  0  0  0  0  0  0  0  0  0  0  0
   -5.4994   24.8471  -28.6781 H   0  0  0  0  0  0  0  0  0  0  0  0
   -7.0231   25.7886  -29.0692 H   0  0  0  0  0  0  0  0  0  0  0  0
   -7.0363   23.1870  -29.2824 H   0  0  0  0  0  0  0  0  0  0  0  0
   -7.7693   24.2483  -30.5858 H   0  0  0  0  0  0  0  0  0  0  0  0
   -5.5690   22.3950  -30.7330 H   0  0  0  0  0  0  0  0  0  0  0  0
   -5.2610   23.9200  -31.3830 H   0  0  0  0  0  0  0  0  0  0  0  0
   -7.8331   23.2625  -32.2059 H   0  0  0  0  0  0  0  0  0  0  0  0
   -6.3350   23.4279  -33.1943 H   0  0  0  0  0  0  0  0  0  0  0  0
   -4.6773   21.3753  -33.1103 H   0  0  0  0  0  0  0  0  0  0  0  0
   -4.6442   18.8992  -33.4301 H   0  0  0  0  0  0  0  0  0  0  0  0
   -8.8312   18.6970  -32.3505 H   0  0  0  0  0  0  0  0  0  0  0  0
   -8.8664   21.1705  -32.0175 H   0  0  0  0  0  0  0  0  0  0  0  0
   -1.1369   23.4867  -29.0890 H   0  0  0  0  0  0  0  0  0  0  0  0
    0.1602   25.6085  -28.7885 H   0  0  0  0  0  0  0  0  0  0  0  0
    0.9373   23.4943  -27.6774 H   0  0  0  0  0  0  0  0  0  0  0  0
    1.3507   24.9352  -26.6847 H   0  0  0  0  0  0  0  0  0  0  0  0
    0.3954   23.1074  -25.2648 H   0  0  0  0  0  0  0  0  0  0  0  0
   -1.0207   22.0404  -27.0298 H   0  0  0  0  0  0  0  0  0  0  0  0
   -1.9986   22.4488  -25.5776 H   0  0  0  0  0  0  0  0  0  0  0  0
   -3.1951   23.1182  -27.6789 H   0  0  0  0  0  0  0  0  0  0  0  0
   -3.6018   25.5045  -27.0557 H   0  0  0  0  0  0  0  0  0  0  0  0
   -3.4986   24.4657  -25.5915 H   0  0  0  0  0  0  0  0  0  0  0  0
   -0.0171   25.5002  -24.6476 H   0  0  0  0  0  0  0  0  0  0  0  0
   -1.4133   24.4656  -24.1881 H   0  0  0  0  0  0  0  0  0  0  0  0
   -1.6412   26.9609  -27.7061 H   0  0  0  0  0  0  0  0  0  0  0  0
   -0.1501   26.9555  -26.7030 H   0  0  0  0  0  0  0  0  0  0  0  0
  1  2  2  0
  2  3  1  0
  3  4  1  0
  4  5  1  0
  5  6  1  0
  6  7  1  0
  7  8  1  0
  8  9  1  0
  9 10  2  0
 10 11  1  0
 11 12  2  0
 12 13  1  0
 12 14  1  0
 14 15  2  0
  2 16  1  0
 16 17  1  0
 17 18  1  0
 18 19  1  0
 19 20  1  0
 20 21  1  0
 21 22  1  0
 22 23  1  0
 23 24  1  0
 24 25  1  1
 24 26  1  0
 24 27  1  0
 15  9  1  0
 22 17  1  0
 27 18  1  0
 26 20  1  0
  4 28  1  0
  4 29  1  0
  5 30  1  0
  5 31  1  0
  6 32  1  0
  6 33  1  0
  7 34  1  0
  7 35  1  0
  8 36  1  0
  8 37  1  0
 10 38  1  0
 11 39  1  0
 14 40  1  0
 15 41  1  0
 17 42  1  6
 18 43  1  6
 19 44  1  0
 19 45  1  0
 20 46  1  1
 21 47  1  0
 21 48  1  0
 22 49  1  6
 23 50  1  0
 23 51  1  0
 26 52  1  0
 26 53  1  0
 27 54  1  0
 27 55  1  0
M  CHG  2   3  -1   7   1
M  END
>  <UniqueID>  (18) 
18

>  <SMILES>  (18) 
O=C([N-]CCC[NH2+]Cc1ccc(Cl)cc1)OC1[C@@H]2CC3C[C@H]1CC(F)(C3)C2

>  <Energy>  (18) 
49.7755989715514

>  <Genealogy>  (18) 
O=C([N-]CCC[NH2+]Cc1ccc(Cl)cc1)OC1C2CC3CC1CC(F)(C3)C2 (protonated)
O=C([N-]CCC[NH2+]Cc1ccc(Cl)cc1)OC1[C@@H]2CC3C[C@H]1CC(F)(C3)C2 (chirality)
O=C([N-]CCC[NH2+]Cc1ccc(Cl)cc1)OC1[C@@H]2CC3C[C@H]1CC(F)(C3)C2 (3D coordinates assigned)
O=C([N-]CCC[NH2+]Cc1ccc(Cl)cc1)OC1[C@@H]2CC3C[C@H]1CC(F)(C3)C2 (nonaromatic ring conformer: 49.7755989715514 kcal/mol)

>  <smiles>  (18) 
O=C(NCCCNCc1ccc(Cl)cc1)OC1C2CC3CC1CC(F)(C3)C2

>  <score_type>  (18) 
oracle

>  <origin>  (18) 
adg

>  <m_score__min__energy>  (18) 
-9.75

>  <m_primary>  (18) 
energy

$$$$
18:0
     RDKit          3D

 52 54  0  0  0  0  0  0  0  0999 V2000
   -6.6940   25.0000  -30.0920 C   0  0  0  0  0  0  0  0  0  0  0  0
   -5.3600   25.6330  -30.4930 C   0  0  0  0  0  0  0  0  0  0  0  0
   -4.3440   24.5960  -30.7830 N   0  0  0  0  0  0  0  0  0  0  0  0
   -3.3300   24.5490  -29.7060 C   0  0  0  0  0  0  0  0  0  0  0  0
   -3.9270   24.0000  -28.4100 C   0  0  0  0  0  0  0  0  0  0  0  0
   -4.9630   23.2650  -31.0170 C   0  0  0  0  0  0  0  0  0  0  0  0
   -4.0090   22.4050  -31.8490 C   0  0  0  0  0  0  0  0  0  0  0  0
   -4.6790   21.8900  -33.0430 N   0  0  0  0  0  0  0  0  0  0  0  0
   -5.1680   20.5400  -33.1080 C   0  0  0  0  0  0  0  0  0  0  0  0
   -6.4930   20.2440  -32.7480 C   0  0  0  0  0  0  0  0  0  0  0  0
   -7.3280   21.2350  -32.1860 C   0  0  0  0  0  0  0  0  0  0  0  0
   -8.6300   20.9320  -31.7990 C   0  0  0  0  0  0  0  0  0  0  0  0
   -9.1150   19.6370  -31.9410 C   0  0  0  0  0  0  0  0  0  0  0  0
   -8.3060   18.6390  -32.4820 C   0  0  0  0  0  0  0  0  0  0  0  0
   -6.9860   18.9230  -32.9200 C   0  0  0  0  0  0  0  0  0  0  0  0
   -6.1800   17.9510  -33.4830 N   0  0  0  0  0  0  0  0  0  0  0  0
   -6.7680   16.6660  -33.9250 C   0  0  0  0  0  0  0  0  0  0  0  0
   -4.8270   18.1860  -33.6490 C   0  0  0  0  0  0  0  0  0  0  0  0
   -3.9200   17.1430  -33.9660 C   0  0  0  0  0  0  0  0  0  0  0  0
   -2.5690   17.4030  -34.1870 C   0  0  0  0  0  0  0  0  0  0  0  0
   -2.0700   18.7020  -34.0720 C   0  0  0  0  0  0  0  0  0  0  0  0
   -0.6240   18.9900  -34.3490 C   0  0  0  0  0  0  0  0  0  0  0  0
   -2.9390   19.7430  -33.7330 C   0  0  0  0  0  0  0  0  0  0  0  0
   -4.3080   19.4980  -33.4930 C   0  0  0  0  0  0  0  0  0  0  0  0
   -6.7681   24.9648  -28.9951 H   0  0  0  0  0  0  0  0  0  0  0  0
   -7.5215   25.6015  -30.4963 H   0  0  0  0  0  0  0  0  0  0  0  0
   -6.7514   23.9786  -30.4963 H   0  0  0  0  0  0  0  0  0  0  0  0
   -5.5106   26.2496  -31.3914 H   0  0  0  0  0  0  0  0  0  0  0  0
   -5.0005   26.2501  -29.6564 H   0  0  0  0  0  0  0  0  0  0  0  0
   -2.5001   23.8999  -30.0222 H   0  0  0  0  0  0  0  0  0  0  0  0
   -2.9718   25.5721  -29.5192 H   0  0  0  0  0  0  0  0  0  0  0  0
   -3.4231   24.4634  -27.5490 H   0  0  0  0  0  0  0  0  0  0  0  0
   -5.0017   24.2319  -28.3743 H   0  0  0  0  0  0  0  0  0  0  0  0
   -3.7858   22.9097  -28.3743 H   0  0  0  0  0  0  0  0  0  0  0  0
   -5.1542   22.7735  -30.0517 H   0  0  0  0  0  0  0  0  0  0  0  0
   -5.9136   23.3895  -31.5563 H   0  0  0  0  0  0  0  0  0  0  0  0
   -3.1469   23.0159  -32.1548 H   0  0  0  0  0  0  0  0  0  0  0  0
   -3.6778   21.5535  -31.2364 H   0  0  0  0  0  0  0  0  0  0  0  0
   -4.8680   22.5380  -33.8410 H   0  0  0  0  0  0  0  0  0  0  0  0
   -6.9449   22.2575  -32.0528 H   0  0  0  0  0  0  0  0  0  0  0  0
   -9.2759   21.7179  -31.3804 H   0  0  0  0  0  0  0  0  0  0  0  0
  -10.1414   19.3988  -31.6252 H   0  0  0  0  0  0  0  0  0  0  0  0
   -8.6969   17.6147  -32.5709 H   0  0  0  0  0  0  0  0  0  0  0  0
   -7.0424   16.0663  -33.0446 H   0  0  0  0  0  0  0  0  0  0  0  0
   -7.6659   16.8623  -34.5294 H   0  0  0  0  0  0  0  0  0  0  0  0
   -6.0325   16.1148  -34.5294 H   0  0  0  0  0  0  0  0  0  0  0  0
   -4.2898   16.1096  -34.0388 H   0  0  0  0  0  0  0  0  0  0  0  0
   -1.8908   16.5791  -34.4539 H   0  0  0  0  0  0  0  0  0  0  0  0
   -0.0828   19.0978  -33.3974 H   0  0  0  0  0  0  0  0  0  0  0  0
   -0.1890   18.1608  -34.9263 H   0  0  0  0  0  0  0  0  0  0  0  0
   -0.5399   19.9225  -34.9263 H   0  0  0  0  0  0  0  0  0  0  0  0
   -2.5500   20.7687  -33.6521 H   0  0  0  0  0  0  0  0  0  0  0  0
  1  2  1  0
  2  3  1  0
  3  4  1  0
  4  5  1  0
  3  6  1  0
  6  7  1  0
  7  8  1  0
  8  9  1  0
  9 10  2  0
 10 11  1  0
 11 12  2  0
 12 13  1  0
 13 14  2  0
 14 15  1  0
 15 16  2  0
 16 17  1  0
 16 18  1  0
 18 19  2  0
 19 20  1  0
 20 21  2  0
 21 22  1  0
 21 23  1  0
 23 24  2  0
 24  9  1  0
 15 10  1  0
 24 18  1  0
  1 25  1  0
  1 26  1  0
  1 27  1  0
  2 28  1  0
  2 29  1  0
  4 30  1  0
  4 31  1  0
  5 32  1  0
  5 33  1  0
  5 34  1  0
  6 35  1  0
  6 36  1  0
  7 37  1  0
  7 38  1  0
  8 39  1  0
 11 40  1  0
 12 41  1  0
 13 42  1  0
 14 43  1  0
 17 44  1  0
 17 45  1  0
 17 46  1  0
 19 47  1  0
 20 48  1  0
 22 49  1  0
 22 50  1  0
 22 51  1  0
 23 52  1  0
M  CHG  1  16   1
M  END
>  <UniqueID>  (19) 
19

>  <SMILES>  (19) 
CCN(CC)CCNc1c2ccccc2[n+](C)c2ccc(C)cc12

>  <Energy>  (19) 
75.65667195465508

>  <Genealogy>  (19) 
CCN(CC)CCNc1c2ccccc2[n+](C)c2ccc(C)cc12 (3D coordinates assigned)
CCN(CC)CCNc1c2ccccc2[n+](C)c2ccc(C)cc12 (optimized conformer: 75.65667195465508 kcal/mol)

>  <smiles>  (19) 
CCN(CC)CCNc1c2ccccc2[n+](C)c2ccc(C)cc12

>  <score_type>  (19) 
oracle

>  <origin>  (19) 
adg

>  <m_score__min__energy>  (19) 
-8.6099999999999994

>  <m_primary>  (19) 
energy

$$$$
19:0
     RDKit          3D

 51 54  0  0  0  0  0  0  0  0999 V2000
    0.3810   26.4970  -23.8590 C   0  0  0  0  0  0  0  0  0  0  0  0
   -0.3530   25.7720  -24.9100 N   0  0  0  0  0  0  0  0  0  0  0  0
   -0.5100   24.3630  -24.5100 C   0  0  0  0  0  0  0  0  0  0  0  0
   -1.6680   26.4110  -25.1420 C   0  0  0  0  0  0  0  0  0  0  0  0
   -2.2910   25.9120  -26.4550 C   0  0  0  0  0  0  0  0  0  0  0  0
   -1.3010   25.9600  -27.6260 C   0  0  0  0  0  0  0  0  0  0  0  0
   -1.9090   25.4400  -28.8500 N   0  0  0  0  0  0  0  0  0  0  0  0
   -1.9200   24.0340  -29.1260 C   0  0  0  0  0  0  0  0  0  0  0  0
   -2.9280   23.4010  -29.8680 C   0  0  0  0  0  0  0  0  0  0  0  0
   -4.0610   24.0660  -30.5360 C   0  0  0  0  0  0  0  0  0  0  0  0
   -3.9570   25.2870  -30.8330 O   0  0  0  0  0  0  0  0  0  0  0  0
   -5.3100   23.3390  -30.8690 C   0  0  0  0  0  0  0  0  0  0  0  0
   -6.5680   23.8630  -30.5190 C   0  0  0  0  0  0  0  0  0  0  0  0
   -7.7420   23.1950  -30.8740 C   0  0  0  0  0  0  0  0  0  0  0  0
   -7.6820   21.9940  -31.5900 C   0  0  0  0  0  0  0  0  0  0  0  0
   -8.8580   21.3180  -31.9550 C   0  0  0  0  0  0  0  0  0  0  0  0
   -8.7850   20.1210  -32.6740 C   0  0  0  0  0  0  0  0  0  0  0  0
   -7.5430   19.5930  -33.0350 C   0  0  0  0  0  0  0  0  0  0  0  0
   -6.3650   20.2570  -32.6790 C   0  0  0  0  0  0  0  0  0  0  0  0
   -6.4240   21.4590  -31.9550 C   0  0  0  0  0  0  0  0  0  0  0  0
   -5.2500   22.1350  -31.5960 C   0  0  0  0  0  0  0  0  0  0  0  0
   -2.6470   21.7280  -29.8830 S   0  0  0  0  0  0  0  0  0  0  0  0
   -1.2520   21.8160  -28.9570 C   0  0  0  0  0  0  0  0  0  0  0  0
   -0.4600   20.7820  -28.5780 N   0  0  0  0  0  0  0  0  0  0  0  0
    0.6580   21.0310  -27.8370 C   0  0  0  0  0  0  0  0  0  0  0  0
    0.9960   22.3490  -27.4760 C   0  0  0  0  0  0  0  0  0  0  0  0
    0.1750   23.4140  -27.8750 C   0  0  0  0  0  0  0  0  0  0  0  0
   -0.9740   23.1290  -28.6190 C   0  0  0  0  0  0  0  0  0  0  0  0
    0.0372   26.1574  -22.8708 H   0  0  0  0  0  0  0  0  0  0  0  0
    1.4582   26.2986  -23.9606 H   0  0  0  0  0  0  0  0  0  0  0  0
    0.1959   27.5765  -23.9606 H   0  0  0  0  0  0  0  0  0  0  0  0
   -0.5179   24.2922  -23.4123 H   0  0  0  0  0  0  0  0  0  0  0  0
   -1.4573   23.9718  -24.9095 H   0  0  0  0  0  0  0  0  0  0  0  0
    0.3279   23.7729  -24.9095 H   0  0  0  0  0  0  0  0  0  0  0  0
   -2.3409   26.1657  -24.3071 H   0  0  0  0  0  0  0  0  0  0  0  0
   -1.5248   27.4995  -25.2101 H   0  0  0  0  0  0  0  0  0  0  0  0
   -2.6238   24.8728  -26.3158 H   0  0  0  0  0  0  0  0  0  0  0  0
   -3.1338   26.5751  -26.7002 H   0  0  0  0  0  0  0  0  0  0  0  0
   -0.9921   27.0024  -27.7930 H   0  0  0  0  0  0  0  0  0  0  0  0
   -0.4314   25.3350  -27.3746 H   0  0  0  0  0  0  0  0  0  0  0  0
   -2.6050   26.0460  -29.3380 H   0  0  0  0  0  0  0  0  0  0  0  0
   -6.6275   24.8085  -29.9600 H   0  0  0  0  0  0  0  0  0  0  0  0
   -8.7182   23.6147  -30.5896 H   0  0  0  0  0  0  0  0  0  0  0  0
   -9.8382   21.7311  -31.6747 H   0  0  0  0  0  0  0  0  0  0  0  0
   -9.7081   19.5936  -32.9562 H   0  0  0  0  0  0  0  0  0  0  0  0
   -7.4916   18.6514  -33.6014 H   0  0  0  0  0  0  0  0  0  0  0  0
   -5.3899   19.8369  -32.9667 H   0  0  0  0  0  0  0  0  0  0  0  0
   -4.2727   21.7210  -31.8849 H   0  0  0  0  0  0  0  0  0  0  0  0
    1.2999   20.1961  -27.5194 H   0  0  0  0  0  0  0  0  0  0  0  0
    1.9016   22.5432  -26.8826 H   0  0  0  0  0  0  0  0  0  0  0  0
    0.4295   24.4504  -27.6085 H   0  0  0  0  0  0  0  0  0  0  0  0
  1  2  1  0
  2  3  1  0
  2  4  1  0
  4  5  1  0
  5  6  1  0
  6  7  1  0
  7  8  1  0
  8  9  2  0
  9 10  1  0
 10 11  2  0
 10 12  1  0
 12 13  2  0
 13 14  1  0
 14 15  2  0
 15 16  1  0
 16 17  2  0
 17 18  1  0
 18 19  2  0
 19 20  1  0
 20 21  2  0
  9 22  1  0
 22 23  1  0
 23 24  2  0
 24 25  1  0
 25 26  2  0
 26 27  1  0
 27 28  2  0
 28  8  1  0
 21 12  1  0
 28 23  1  0
 20 15  1  0
  1 29  1  0
  1 30  1  0
  1 31  1  0
  3 32  1  0
  3 33  1  0
  3 34  1  0
  4 35  1  0
  4 36  1  0
  5 37  1  0
  5 38  1  0
  6 39  1  0
  6 40  1  0
  7 41  1  0
 13 42  1  0
 14 43  1  0
 16 44  1  0
 17 45  1  0
 18 46  1  0
 19 47  1  0
 21 48  1  0
 25 49  1  0
 26 50  1  0
 27 51  1  0
M  END
>  <UniqueID>  (20) 
20

>  <SMILES>  (20) 
CN(C)CCCNc1c(C(=O)c2ccc3ccccc3c2)sc2ncccc12

>  <Energy>  (20) 
94.73904180319465

>  <Genealogy>  (20) 
CN(C)CCCNc1c(C(=O)c2ccc3ccccc3c2)sc2ncccc12 (3D coordinates assigned)
CN(C)CCCNc1c(C(=O)c2ccc3ccccc3c2)sc2ncccc12 (optimized conformer: 94.73904180319465 kcal/mol)

>  <smiles>  (20) 
CN(C)CCCNc1c(C(=O)c2ccc3ccccc3c2)sc2ncccc12

>  <score_type>  (20) 
oracle

>  <origin>  (20) 
adg

>  <m_score__min__energy>  (20) 
-10.17

>  <m_primary>  (20) 
energy

$$$$
20:0
     RDKit          3D

 43 44  0  0  0  0  0  0  0  0999 V2000
   -6.0660   25.2730  -29.5070 C   0  0  0  0  0  0  0  0  0  0  0  0
   -5.2420   25.5500  -30.7530 C   0  0  0  0  0  0  0  0  0  0  0  0
   -3.8670   25.3000  -30.4770 O   0  0  0  0  0  0  0  0  0  0  0  0
   -3.3920   24.3980  -29.5100 C   0  0  0  0  0  0  0  0  0  0  0  0
   -2.7360   24.8500  -28.3460 C   0  0  0  0  0  0  0  0  0  0  0  0
   -2.2700   23.9400  -27.3960 C   0  0  0  0  0  0  0  0  0  0  0  0
   -2.4490   22.5720  -27.5920 C   0  0  0  0  0  0  0  0  0  0  0  0
   -3.0950   22.1080  -28.7380 C   0  0  0  0  0  0  0  0  0  0  0  0
   -3.5730   23.0100  -29.7080 C   0  0  0  0  0  0  0  0  0  0  0  0
   -4.2550   22.4840  -30.9160 C   0  0  0  0  0  0  0  0  0  0  0  0
   -5.5090   21.9800  -30.9060 N   0  0  0  0  0  0  0  0  0  0  0  0
   -5.7120   21.6330  -32.1900 C   0  0  0  0  0  0  0  0  0  0  0  0
   -6.9660   20.9780  -32.7000 C   0  0  0  0  0  0  0  0  0  0  0  0
   -7.9260   20.6900  -31.6030 N   0  0  0  0  0  0  0  0  0  0  0  0
   -9.0880   21.6150  -31.6600 C   0  0  0  0  0  0  0  0  0  0  0  0
   -8.6870   23.0670  -31.9450 C   0  0  0  0  0  0  0  0  0  0  0  0
   -8.3060   19.2510  -31.5900 C   0  0  0  0  0  0  0  0  0  0  0  0
   -7.4610   18.3580  -32.5100 C   0  0  0  0  0  0  0  0  0  0  0  0
   -4.5910   21.9240  -32.9310 C   0  0  0  0  0  0  0  0  0  0  0  0
   -3.7120   22.4510  -32.1150 O   0  0  0  0  0  0  0  0  0  0  0  0
   -5.4587   25.4772  -28.6129 H   0  0  0  0  0  0  0  0  0  0  0  0
   -6.9542   25.9220  -29.5030 H   0  0  0  0  0  0  0  0  0  0  0  0
   -6.3818   24.2193  -29.5030 H   0  0  0  0  0  0  0  0  0  0  0  0
   -5.5779   24.8927  -31.5686 H   0  0  0  0  0  0  0  0  0  0  0  0
   -5.3712   26.6005  -31.0526 H   0  0  0  0  0  0  0  0  0  0  0  0
   -2.5905   25.9285  -28.1857 H   0  0  0  0  0  0  0  0  0  0  0  0
   -1.7607   24.3032  -26.4912 H   0  0  0  0  0  0  0  0  0  0  0  0
   -2.0803   21.8569  -26.8419 H   0  0  0  0  0  0  0  0  0  0  0  0
   -3.2324   21.0266  -28.8855 H   0  0  0  0  0  0  0  0  0  0  0  0
   -7.4473   21.6488  -33.4268 H   0  0  0  0  0  0  0  0  0  0  0  0
   -6.6857   20.0225  -33.1675 H   0  0  0  0  0  0  0  0  0  0  0  0
   -7.4290   20.8640  -30.6950 H   0  0  0  0  0  0  0  0  0  0  0  0
   -9.7664   21.2763  -32.4569 H   0  0  0  0  0  0  0  0  0  0  0  0
   -9.5713   21.5959  -30.6721 H   0  0  0  0  0  0  0  0  0  0  0  0
   -8.5398   23.6001  -30.9941 H   0  0  0  0  0  0  0  0  0  0  0  0
   -7.7510   23.0823  -32.5227 H   0  0  0  0  0  0  0  0  0  0  0  0
   -9.4825   23.5604  -32.5227 H   0  0  0  0  0  0  0  0  0  0  0  0
   -8.2023   18.8781  -30.5603 H   0  0  0  0  0  0  0  0  0  0  0  0
   -9.3382   19.1979  -31.9665 H   0  0  0  0  0  0  0  0  0  0  0  0
   -6.8322   17.6934  -31.8993 H   0  0  0  0  0  0  0  0  0  0  0  0
   -8.1251   17.7531  -33.1449 H   0  0  0  0  0  0  0  0  0  0  0  0
   -6.8204   18.9877  -33.1449 H   0  0  0  0  0  0  0  0  0  0  0  0
   -4.4571   21.7472  -34.0084 H   0  0  0  0  0  0  0  0  0  0  0  0
  1  2  1  0
  2  3  1  0
  3  4  1  0
  4  5  2  0
  5  6  1  0
  6  7  2  0
  7  8  1  0
  8  9  2  0
  9 10  1  0
 10 11  2  0
 11 12  1  0
 12 13  1  0
 13 14  1  0
 14 15  1  0
 15 16  1  0
 14 17  1  0
 17 18  1  0
 12 19  2  0
 19 20  1  0
  9  4  1  0
 20 10  1  0
  1 21  1  0
  1 22  1  0
  1 23  1  0
  2 24  1  0
  2 25  1  0
  5 26  1  0
  6 27  1  0
  7 28  1  0
  8 29  1  0
 13 30  1  0
 13 31  1  0
 14 32  1  0
 15 33  1  0
 15 34  1  0
 16 35  1  0
 16 36  1  0
 16 37  1  0
 17 38  1  0
 17 39  1  0
 18 40  1  0
 18 41  1  0
 18 42  1  0
 19 43  1  0
M  CHG  1  14   1
M  END
>  <UniqueID>  (21) 
21

>  <SMILES>  (21) 
CCOc1ccccc1-c1nc(C[NH+](CC)CC)co1

>  <Energy>  (21) 
71.59820692709371

>  <Genealogy>  (21) 
CCOc1ccccc1-c1nc(C[NH+](CC)CC)co1 (protonated)
CCOc1ccccc1-c1nc(C[NH+](CC)CC)co1 (3D coordinates assigned)
CCOc1ccccc1-c1nc(C[NH+](CC)CC)co1 (optimized conformer: 71.59820692709371 kcal/mol)

>  <smiles>  (21) 
CCOc1ccccc1-c1nc(CN(CC)CC)co1

>  <score_type>  (21) 
oracle

>  <origin>  (21) 
adg

>  <m_score__min__energy>  (21) 
-6.21

>  <m_primary>  (21) 
energy

$$$$
21:0
     RDKit          3D

 31 33  0  0  0  0  0  0  0  0999 V2000
   -6.4830   17.1990  -34.1930 C   0  0  0  0  0  0  0  0  0  0  0  0
   -5.1460   17.7820  -34.1680 N   0  0  0  0  0  0  0  0  0  0  0  0
   -3.9780   17.1370  -34.3830 C   0  0  0  0  0  0  0  0  0  0  0  0
   -2.9110   17.9380  -34.1670 N   0  0  0  0  0  0  0  0  0  0  0  0
   -3.4370   19.1220  -33.8030 C   0  0  0  0  0  0  0  0  0  0  0  0
   -4.7980   19.0240  -33.7820 C   0  0  0  0  0  0  0  0  0  0  0  0
   -5.7090   20.1240  -33.3280 C   0  0  0  0  0  0  0  0  0  0  0  0
   -4.9410   21.3070  -32.8870 N   0  0  0  0  0  0  0  0  0  0  0  0
   -5.6450   22.3380  -32.1620 C   0  0  0  0  0  0  0  0  0  0  0  0
   -5.0520   23.4750  -31.7330 N   0  0  0  0  0  0  0  0  0  0  0  0
   -5.9230   24.2890  -31.0740 C   0  0  0  0  0  0  0  0  0  0  0  0
   -5.4840   25.5820  -30.4670 C   0  0  0  0  0  0  0  0  0  0  0  0
   -5.9330   25.6540  -29.1620 F   0  0  0  0  0  0  0  0  0  0  0  0
   -4.1030   25.6630  -30.4810 F   0  0  0  0  0  0  0  0  0  0  0  0
   -7.2190   23.7940  -30.9510 C   0  0  0  0  0  0  0  0  0  0  0  0
   -7.2710   22.2980  -31.7160 S   0  0  0  0  0  0  0  0  0  0  0  0
   -3.5870   21.5610  -33.4300 C   0  0  0  0  0  0  0  0  0  0  0  0
   -2.6900   20.3170  -33.3190 C   0  0  0  0  0  0  0  0  0  0  0  0
   -6.8353   17.0454  -33.1623 H   0  0  0  0  0  0  0  0  0  0  0  0
   -7.1699   17.8793  -34.7178 H   0  0  0  0  0  0  0  0  0  0  0  0
   -6.4519   16.2327  -34.7178 H   0  0  0  0  0  0  0  0  0  0  0  0
   -3.9045   16.0852  -34.6965 H   0  0  0  0  0  0  0  0  0  0  0  0
   -1.9010   17.6800  -34.2290 H   0  0  0  0  0  0  0  0  0  0  0  0
   -6.3656   20.4131  -34.1619 H   0  0  0  0  0  0  0  0  0  0  0  0
   -6.3012   19.7565  -32.4770 H   0  0  0  0  0  0  0  0  0  0  0  0
   -5.9031   26.4153  -31.0500 H   0  0  0  0  0  0  0  0  0  0  0  0
   -8.0583   24.2927  -30.4441 H   0  0  0  0  0  0  0  0  0  0  0  0
   -3.6746   21.8446  -34.4892 H   0  0  0  0  0  0  0  0  0  0  0  0
   -3.1273   22.3701  -32.8434 H   0  0  0  0  0  0  0  0  0  0  0  0
   -1.7882   20.4591  -33.9326 H   0  0  0  0  0  0  0  0  0  0  0  0
   -2.3987   20.1672  -32.2689 H   0  0  0  0  0  0  0  0  0  0  0  0
  1  2  1  0
  2  3  1  0
  3  4  2  0
  4  5  1  0
  5  6  2  0
  6  7  1  0
  7  8  1  0
  8  9  1  0
  9 10  2  0
 10 11  1  0
 11 12  1  0
 12 13  1  0
 12 14  1  0
 11 15  2  0
 15 16  1  0
  8 17  1  0
 17 18  1  0
  6  2  1  0
 16  9  1  0
 18  5  1  0
  1 19  1  0
  1 20  1  0
  1 21  1  0
  3 22  1  0
  4 23  1  0
  7 24  1  0
  7 25  1  0
 12 26  1  0
 15 27  1  0
 17 28  1  0
 17 29  1  0
 18 30  1  0
 18 31  1  0
M  CHG  1   4   1
M  END
>  <UniqueID>  (22) 
22

>  <SMILES>  (22) 
Cn1c[nH+]c2c1CN(c1nc(C(F)F)cs1)CC2

>  <Energy>  (22) 
93.90539583262873

>  <Genealogy>  (22) 
Cn1c[nH+]c2c1CN(c1nc(C(F)F)cs1)CC2 (protonated)
Cn1c[nH+]c2c1CN(c1nc(C(F)F)cs1)CC2 (3D coordinates assigned)
Cn1c[nH+]c2c1CN(c1nc(C(F)F)cs1)CC2 (nonaromatic ring conformer: 93.90539583262873 kcal/mol)

>  <smiles>  (22) 
Cn1cnc2c1CN(c1nc(C(F)F)cs1)CC2

>  <score_type>  (22) 
oracle

>  <origin>  (22) 
adg

>  <m_score__min__energy>  (22) 
-5.3799999999999999

>  <m_primary>  (22) 
energy

$$$$
22:0
     RDKit          3D

 43 46  0  0  0  0  0  0  0  0999 V2000
   -3.6260   24.5370  -27.2410 C   0  0  0  0  0  0  0  0  0  0  0  0
   -2.3570   24.7940  -28.0460 C   0  0  0  0  0  0  0  0  0  0  0  0
   -2.6760   25.2970  -29.3410 O   0  0  0  0  0  0  0  0  0  0  0  0
   -3.5200   24.6370  -30.2400 C   0  0  0  0  0  0  0  0  0  0  0  0
   -4.4270   25.2690  -30.8480 O   0  0  0  0  0  0  0  0  0  0  0  0
   -3.3360   23.2030  -30.5100 C   0  0  0  0  0  0  0  0  0  0  0  0
   -4.1110   22.3940  -31.2160 C   0  0  0  0  0  0  0  0  0  0  0  0
   -5.1030   22.6040  -32.2290 C   0  0  0  0  0  0  0  0  0  0  0  0
   -5.8090   23.6420  -32.3360 O   0  0  0  0  0  0  0  0  0  0  0  0
   -5.1290   21.5330  -33.1890 N   0  0  2  0  0  0  0  0  0  0  0  0
   -6.3820   20.7530  -33.0850 C   0  0  0  0  0  0  0  0  0  0  0  0
   -6.1410   19.2710  -33.2490 C   0  0  0  0  0  0  0  0  0  0  0  0
   -5.7780   18.7480  -34.5010 C   0  0  0  0  0  0  0  0  0  0  0  0
   -5.5730   17.3740  -34.6590 C   0  0  0  0  0  0  0  0  0  0  0  0
   -5.7300   16.5120  -33.5700 C   0  0  0  0  0  0  0  0  0  0  0  0
   -6.0940   17.0240  -32.3210 C   0  0  0  0  0  0  0  0  0  0  0  0
   -6.3010   18.3970  -32.1590 C   0  0  0  0  0  0  0  0  0  0  0  0
   -3.9370   20.6890  -32.8570 C   0  0  0  0  0  0  0  0  0  0  0  0
   -3.3030   21.2310  -31.5600 C   0  0  2  0  0  0  0  0  0  0  0  0
   -3.1730   20.3310  -30.3280 C   0  0  0  0  0  0  0  0  0  0  0  0
   -2.2500   21.2220  -29.4750 C   0  0  0  0  0  0  0  0  0  0  0  0
   -2.0490   22.4180  -30.4310 C   0  0  1  0  0  0  0  0  0  0  0  0
   -2.0290   21.7940  -31.6880 O   0  0  0  0  0  0  0  0  0  0  0  0
   -3.3945   24.5839  -26.1667 H   0  0  0  0  0  0  0  0  0  0  0  0
   -4.3778   25.3011  -27.4878 H   0  0  0  0  0  0  0  0  0  0  0  0
   -4.0213   23.5406  -27.4878 H   0  0  0  0  0  0  0  0  0  0  0  0
   -1.7356   25.5304  -27.5154 H   0  0  0  0  0  0  0  0  0  0  0  0
   -1.8114   23.8456  -28.1591 H   0  0  0  0  0  0  0  0  0  0  0  0
   -5.0190   21.9280  -34.1530 H   0  0  0  0  0  0  0  0  0  0  0  0
   -6.8312   20.9326  -32.0971 H   0  0  0  0  0  0  0  0  0  0  0  0
   -7.0536   21.0795  -33.8927 H   0  0  0  0  0  0  0  0  0  0  0  0
   -5.6544   19.4225  -35.3611 H   0  0  0  0  0  0  0  0  0  0  0  0
   -5.2877   16.9708  -35.6419 H   0  0  0  0  0  0  0  0  0  0  0  0
   -5.5673   15.4314  -33.6956 H   0  0  0  0  0  0  0  0  0  0  0  0
   -6.2177   16.3453  -31.4643 H   0  0  0  0  0  0  0  0  0  0  0  0
   -6.5901   18.7952  -31.1752 H   0  0  0  0  0  0  0  0  0  0  0  0
   -4.2505   19.6450  -32.7092 H   0  0  0  0  0  0  0  0  0  0  0  0
   -3.2068   20.7262  -33.6789 H   0  0  0  0  0  0  0  0  0  0  0  0
   -4.1435   20.1564  -29.8405 H   0  0  0  0  0  0  0  0  0  0  0  0
   -2.8015   19.3140  -30.5221 H   0  0  0  0  0  0  0  0  0  0  0  0
   -2.7359   21.5292  -28.5372 H   0  0  0  0  0  0  0  0  0  0  0  0
   -1.3191   20.7360  -29.1477 H   0  0  0  0  0  0  0  0  0  0  0  0
   -1.1891   23.0387  -30.1390 H   0  0  0  0  0  0  0  0  0  0  0  0
  1  2  1  0
  2  3  1  0
  3  4  1  0
  4  5  2  0
  4  6  1  0
  6  7  2  0
  7  8  1  0
  8  9  2  0
  8 10  1  0
 10 11  1  0
 11 12  1  0
 12 13  2  0
 13 14  1  0
 14 15  2  0
 15 16  1  0
 16 17  2  0
 10 18  1  0
 19 18  1  6
 19 20  1  0
 20 21  1  0
 21 22  1  0
 22 23  1  0
 22  6  1  0
 19  7  1  0
 17 12  1  0
 23 19  1  0
  1 24  1  0
  1 25  1  0
  1 26  1  0
  2 27  1  0
  2 28  1  0
 10 29  1  6
 11 30  1  0
 11 31  1  0
 13 32  1  0
 14 33  1  0
 15 34  1  0
 16 35  1  0
 17 36  1  0
 18 37  1  0
 18 38  1  0
 20 39  1  0
 20 40  1  0
 21 41  1  0
 21 42  1  0
 22 43  1  1
M  CHG  1  10   1
M  END
>  <UniqueID>  (23) 
23

>  <SMILES>  (23) 
CCOC(=O)C1=C2C(=O)[N@H+](Cc3ccccc3)C[C@]23CCC1O3

>  <Energy>  (23) 
109.69999792635836

>  <Genealogy>  (23) 
CCOC(=O)C1=C2C(=O)[NH+](Cc3ccccc3)CC23CCC1O3 (protonated)
CCOC(=O)C1=C2C(=O)[N@H+](Cc3ccccc3)C[C@]23CCC1O3 (chirality)
CCOC(=O)C1=C2C(=O)[N@H+](Cc3ccccc3)C[C@]23CCC1O3 (3D coordinates assigned)
CCOC(=O)C1=C2C(=O)[N@H+](Cc3ccccc3)C[C@]23CCC1O3 (nonaromatic ring conformer: 109.69999792635836 kcal/mol)

>  <smiles>  (23) 
CCOC(=O)C1=C2C(=O)N(Cc3ccccc3)CC23CCC1O3

>  <score_type>  (23) 
oracle

>  <origin>  (23) 
adg

>  <m_score__min__energy>  (23) 
-7.8399999999999999

>  <m_primary>  (23) 
energy

$$$$
23:0
     RDKit          3D

 38 40  0  0  0  0  0  0  0  0999 V2000
   -4.1570   25.6760  -31.6760 H   0  0  0  0  0  0  0  0  0  0  0  0
   -4.0480   25.6650  -30.6890 O   0  0  0  0  0  0  0  0  0  0  0  0
   -5.3090   25.3760  -30.1510 C   0  0  0  0  0  0  0  0  0  0  0  0
   -6.0314   26.1329  -30.4906 H   0  0  0  0  0  0  0  0  0  0  0  0
   -5.2427   25.3872  -29.0531 H   0  0  0  0  0  0  0  0  0  0  0  0
   -5.7650   24.0160  -30.6020 C   0  0  0  0  0  0  0  0  0  0  0  0
   -7.0950   23.8080  -30.9930 C   0  0  0  0  0  0  0  0  0  0  0  0
   -7.8158   24.6374  -30.9439 H   0  0  0  0  0  0  0  0  0  0  0  0
   -7.5100   22.5520  -31.4450 C   0  0  0  0  0  0  0  0  0  0  0  0
   -8.5583   22.3979  -31.7406 H   0  0  0  0  0  0  0  0  0  0  0  0
   -6.5990   21.4840  -31.5250 C   0  0  0  0  0  0  0  0  0  0  0  0
   -7.0620   20.1620  -32.0070 C   0  0  0  0  0  0  0  0  0  0  0  0
   -6.2530   19.1530  -32.2440 O   0  0  0  0  0  0  0  0  0  0  0  0
   -6.9640   18.1290  -32.6570 C   0  0  0  0  0  0  0  0  0  0  0  0
   -6.3900   16.8270  -33.0160 C   0  0  0  0  0  0  0  0  0  0  0  0
   -5.0330   16.1220  -32.3130 S   0  0  0  0  0  0  0  0  0  0  0  0
   -5.0560   14.7210  -33.2470 C   0  0  0  0  0  0  0  0  0  0  0  0
   -4.0390   13.6490  -33.1710 C   0  0  0  0  0  0  0  0  0  0  0  0
   -3.9600   12.8260  -32.1630 N   0  0  0  0  0  0  0  0  0  0  0  0
   -4.5950   12.9870  -30.8600 C   0  0  0  0  0  0  0  0  0  0  0  0
   -3.8565   12.7998  -30.0666 H   0  0  0  0  0  0  0  0  0  0  0  0
   -4.9830   14.0119  -30.7653 H   0  0  0  0  0  0  0  0  0  0  0  0
   -5.4245   12.2707  -30.7653 H   0  0  0  0  0  0  0  0  0  0  0  0
   -3.0610   13.5550  -34.2070 N   0  0  0  0  0  0  0  0  0  0  0  0
   -3.0920   14.1910  -35.0340 H   0  0  0  0  0  0  0  0  0  0  0  0
   -2.3090   12.8310  -34.1610 H   0  0  0  0  0  0  0  0  0  0  0  0
   -6.1180   14.8060  -34.1450 C   0  0  0  0  0  0  0  0  0  0  0  0
   -6.3442   14.0278  -34.8889 H   0  0  0  0  0  0  0  0  0  0  0  0
   -6.8690   15.9800  -34.0070 C   0  0  0  0  0  0  0  0  0  0  0  0
   -7.7513   16.2087  -34.6228 H   0  0  0  0  0  0  0  0  0  0  0  0
   -8.3010   18.4700  -32.6990 C   0  0  0  0  0  0  0  0  0  0  0  0
   -9.1401   17.8277  -33.0047 H   0  0  0  0  0  0  0  0  0  0  0  0
   -8.3680   19.7810  -32.2790 C   0  0  0  0  0  0  0  0  0  0  0  0
   -9.2725   20.3991  -32.1797 H   0  0  0  0  0  0  0  0  0  0  0  0
   -5.2610   21.7020  -31.1460 C   0  0  0  0  0  0  0  0  0  0  0  0
   -4.5355   20.8773  -31.2044 H   0  0  0  0  0  0  0  0  0  0  0  0
   -4.8480   22.9590  -30.6960 C   0  0  0  0  0  0  0  0  0  0  0  0
   -3.7971   23.1204  -30.4138 H   0  0  0  0  0  0  0  0  0  0  0  0
  1  2  1  0
  2  3  1  0
  3  4  1  0
  3  5  1  0
  3  6  1  0
  6  7  2  0
  7  8  1  0
  7  9  1  0
  9 10  1  0
  9 11  2  0
 11 12  1  0
 12 13  1  0
 13 14  1  0
 14 15  1  0
 15 16  1  0
 16 17  1  0
 17 18  1  0
 18 19  2  0
 19 20  1  0
 20 21  1  0
 20 22  1  0
 20 23  1  0
 18 24  1  0
 24 25  1  0
 24 26  1  0
 17 27  2  0
 27 28  1  0
 27 29  1  0
 29 30  1  0
 14 31  2  0
 31 32  1  0
 31 33  1  0
 33 34  1  0
 11 35  1  0
 35 36  1  0
 35 37  2  0
 37 38  1  0
 37  6  1  0
 33 12  2  0
 29 15  2  0
M  END
>  <UniqueID>  (24) 
24

>  <SMILES>  (24) 
C/N=C(/N)c1ccc(-c2ccc(-c3ccc(CO)cc3)o2)s1

>  <Energy>  (24) 
95.24988117822203

>  <Genealogy>  (24) 
C/N=C(/N)c1ccc(-c2ccc(-c3ccc(CO)cc3)o2)s1 (cis-trans isomerization)
C/N=C(/N)c1ccc(-c2ccc(-c3ccc(CO)cc3)o2)s1 (3D coordinates assigned)
C/N=C(/N)c1ccc(-c2ccc(-c3ccc(CO)cc3)o2)s1 (optimized conformer: 95.24988117822203 kcal/mol)

>  <smiles>  (24) 
CN=C(N)c1ccc(-c2ccc(-c3ccc(CO)cc3)o2)s1

>  <score_type>  (24) 
oracle

>  <origin>  (24) 
adg

>  <m_score__min__energy>  (24) 
-8.1400000000000006

>  <m_primary>  (24) 
energy

$$$$
24:0
     RDKit          3D

 58 61  0  0  0  0  0  0  0  0999 V2000
    2.8640   25.2890  -23.8030 C   0  0  0  0  0  0  0  0  0  0  0  0
    2.8890   26.8190  -23.9590 C   0  0  0  0  0  0  0  0  0  0  0  0
    2.1340   27.5650  -22.9150 N   0  0  1  0  0  0  0  0  0  0  0  0
    3.0110   28.4670  -22.1470 C   0  0  0  0  0  0  0  0  0  0  0  0
    0.9580   28.3090  -23.4340 C   0  0  0  0  0  0  0  0  0  0  0  0
    0.1450   27.4880  -24.4070 C   0  0  0  0  0  0  0  0  0  0  0  0
    0.1990   27.7570  -25.7830 C   0  0  0  0  0  0  0  0  0  0  0  0
   -0.4870   26.9450  -26.6900 C   0  0  0  0  0  0  0  0  0  0  0  0
   -1.2540   25.8620  -26.2330 C   0  0  0  0  0  0  0  0  0  0  0  0
   -1.9330   24.9720  -27.2020 C   0  0  0  0  0  0  0  0  0  0  0  0
   -3.2250   24.4970  -26.9320 C   0  0  0  0  0  0  0  0  0  0  0  0
   -3.8690   23.6490  -27.8340 C   0  0  0  0  0  0  0  0  0  0  0  0
   -3.2300   23.2510  -29.0170 C   0  0  0  0  0  0  0  0  0  0  0  0
   -3.8990   22.2660  -29.9400 C   0  0  0  0  0  0  0  0  0  0  0  0
   -4.4520   22.9590  -31.1050 N   0  0  0  0  0  0  0  0  0  0  0  0
   -4.9990   24.2720  -30.9120 C   0  0  0  0  0  0  0  0  0  0  0  0
   -4.2210   25.2650  -30.8470 O   0  0  0  0  0  0  0  0  0  0  0  0
   -6.4900   24.4350  -30.7570 C   0  0  0  0  0  0  0  0  0  0  0  0
   -7.1830   23.2490  -30.1000 C   0  0  0  0  0  0  0  0  0  0  0  0
   -7.3800   23.5170  -31.5860 C   0  0  0  0  0  0  0  0  0  0  0  0
   -4.2120   22.3870  -32.4450 C   0  0  0  0  0  0  0  0  0  0  0  0
   -4.8570   21.0430  -32.7760 C   0  0  0  0  0  0  0  0  0  0  0  0
   -3.3810   21.1110  -32.3970 C   0  0  0  0  0  0  0  0  0  0  0  0
   -1.9370   23.7230  -29.2910 C   0  0  0  0  0  0  0  0  0  0  0  0
   -1.2960   24.5860  -28.3940 C   0  0  0  0  0  0  0  0  0  0  0  0
   -1.3440   25.6160  -24.8520 C   0  0  0  0  0  0  0  0  0  0  0  0
   -0.6390   26.4160  -23.9460 C   0  0  0  0  0  0  0  0  0  0  0  0
    2.8598   25.0294  -22.7341 H   0  0  0  0  0  0  0  0  0  0  0  0
    1.9592   24.8864  -24.2817 H   0  0  0  0  0  0  0  0  0  0  0  0
    3.7552   24.8570  -24.2817 H   0  0  0  0  0  0  0  0  0  0  0  0
    3.9376   27.1494  -23.9249 H   0  0  0  0  0  0  0  0  0  0  0  0
    2.3952   27.0409  -24.9166 H   0  0  0  0  0  0  0  0  0  0  0  0
    1.7810   26.8500  -22.2330 H   0  0  0  0  0  0  0  0  0  0  0  0
    2.8525   28.3039  -21.0708 H   0  0  0  0  0  0  0  0  0  0  0  0
    4.0615   28.2590  -22.3985 H   0  0  0  0  0  0  0  0  0  0  0  0
    2.7736   29.5112  -22.3985 H   0  0  0  0  0  0  0  0  0  0  0  0
    0.3160   28.5917  -22.5867 H   0  0  0  0  0  0  0  0  0  0  0  0
    1.3295   29.1953  -23.9693 H   0  0  0  0  0  0  0  0  0  0  0  0
    0.7850   28.6125  -26.1501 H   0  0  0  0  0  0  0  0  0  0  0  0
   -0.4256   27.1557  -27.7679 H   0  0  0  0  0  0  0  0  0  0  0  0
   -3.7338   24.7949  -26.0033 H   0  0  0  0  0  0  0  0  0  0  0  0
   -4.8855   23.2901  -27.6153 H   0  0  0  0  0  0  0  0  0  0  0  0
   -3.1602   21.5235  -30.2759 H   0  0  0  0  0  0  0  0  0  0  0  0
   -4.7158   21.7655  -29.3993 H   0  0  0  0  0  0  0  0  0  0  0  0
   -6.4532   25.5231  -30.5997 H   0  0  0  0  0  0  0  0  0  0  0  0
   -6.5933   22.3805  -29.7713 H   0  0  0  0  0  0  0  0  0  0  0  0
   -7.8535   23.1203  -29.2375 H   0  0  0  0  0  0  0  0  0  0  0  0
   -6.9324   22.8424  -32.3307 H   0  0  0  0  0  0  0  0  0  0  0  0
   -8.2513   23.6623  -32.2415 H   0  0  0  0  0  0  0  0  0  0  0  0
   -4.1833   23.3534  -32.9697 H   0  0  0  0  0  0  0  0  0  0  0  0
   -5.5834   20.5953  -32.0818 H   0  0  0  0  0  0  0  0  0  0  0  0
   -5.4242   20.6405  -33.6282 H   0  0  0  0  0  0  0  0  0  0  0  0
   -3.0429   20.7113  -31.4296 H   0  0  0  0  0  0  0  0  0  0  0  0
   -2.4426   20.7767  -32.8636 H   0  0  0  0  0  0  0  0  0  0  0  0
   -1.4251   23.4137  -30.2142 H   0  0  0  0  0  0  0  0  0  0  0  0
   -0.2887   24.9639  -28.6233 H   0  0  0  0  0  0  0  0  0  0  0  0
   -1.9711   24.7914  -24.4821 H   0  0  0  0  0  0  0  0  0  0  0  0
   -0.6985   26.2051  -22.8680 H   0  0  0  0  0  0  0  0  0  0  0  0
  1  2  1  0
  2  3  1  0
  3  4  1  0
  3  5  1  0
  5  6  1  0
  6  7  2  0
  7  8  1  0
  8  9  2  0
  9 10  1  0
 10 11  2  0
 11 12  1  0
 12 13  2  0
 13 14  1  0
 14 15  1  0
 15 16  1  0
 16 17  2  0
 16 18  1  0
 18 19  1  0
 19 20  1  0
 15 21  1  0
 21 22  1  0
 22 23  1  0
 13 24  1  0
 24 25  2  0
  9 26  1  0
 26 27  2  0
 27  6  1  0
 25 10  1  0
 20 18  1  0
 23 21  1  0
  1 28  1  0
  1 29  1  0
  1 30  1  0
  2 31  1  0
  2 32  1  0
  3 33  1  1
  4 34  1  0
  4 35  1  0
  4 36  1  0
  5 37  1  0
  5 38  1  0
  7 39  1  0
  8 40  1  0
 11 41  1  0
 12 42  1  0
 14 43  1  0
 14 44  1  0
 18 45  1  0
 19 46  1  0
 19 47  1  0
 20 48  1  0
 20 49  1  0
 21 50  1  0
 22 51  1  0
 22 52  1  0
 23 53  1  0
 23 54  1  0
 24 55  1  0
 25 56  1  0
 26 57  1  0
 27 58  1  0
M  CHG  1   3   1
M  END
>  <UniqueID>  (25) 
25

>  <SMILES>  (25) 
CC[N@@H+](C)Cc1ccc(-c2ccc(CN(C(=O)C3CC3)C3CC3)cc2)cc1

>  <Energy>  (25) 
603.8934924628361

>  <Genealogy>  (25) 
CC[NH+](C)Cc1ccc(-c2ccc(CN(C(=O)C3CC3)C3CC3)cc2)cc1 (protonated)
CC[N@@H+](C)Cc1ccc(-c2ccc(CN(C(=O)C3CC3)C3CC3)cc2)cc1 (chirality)
CC[N@@H+](C)Cc1ccc(-c2ccc(CN(C(=O)C3CC3)C3CC3)cc2)cc1 (3D coordinates assigned)
CC[N@@H+](C)Cc1ccc(-c2ccc(CN(C(=O)C3CC3)C3CC3)cc2)cc1 (nonaromatic ring conformer: 603.8934924628361 kcal/mol)

>  <smiles>  (25) 
CCN(C)Cc1ccc(-c2ccc(CN(C(=O)C3CC3)C3CC3)cc2)cc1

>  <score_type>  (25) 
oracle

>  <origin>  (25) 
adg

>  <m_score__min__energy>  (25) 
-8.9900000000000002

>  <m_primary>  (25) 
energy

$$$$
25:0
     RDKit          3D

 54 57  0  0  0  0  0  0  0  0999 V2000
   -5.2380   13.7600  -33.5610 C   0  0  0  0  0  0  0  0  0  0  0  0
   -6.0760   14.8040  -34.0460 O   0  0  0  0  0  0  0  0  0  0  0  0
   -6.0160   16.1340  -33.6080 C   0  0  0  0  0  0  0  0  0  0  0  0
   -5.7800   16.4770  -32.2620 C   0  0  0  0  0  0  0  0  0  0  0  0
   -5.7270   17.8200  -31.8770 C   0  0  0  0  0  0  0  0  0  0  0  0
   -5.9120   18.8370  -32.8240 C   0  0  0  0  0  0  0  0  0  0  0  0
   -5.8370   20.2190  -32.4300 N   0  0  0  0  0  0  0  0  0  0  0  0
   -4.7740   21.0470  -32.5830 C   0  0  0  0  0  0  0  0  0  0  0  0
   -3.4420   20.6570  -33.0980 C   0  0  0  0  0  0  0  0  0  0  0  0
   -3.2640   19.4040  -33.7100 C   0  0  0  0  0  0  0  0  0  0  0  0
   -2.0100   19.0310  -34.2030 C   0  0  0  0  0  0  0  0  0  0  0  0
   -0.9260   19.9070  -34.0980 C   0  0  0  0  0  0  0  0  0  0  0  0
    0.2890   19.5430  -34.5780 F   0  0  0  0  0  0  0  0  0  0  0  0
   -1.0980   21.1610  -33.5070 C   0  0  0  0  0  0  0  0  0  0  0  0
   -2.3500   21.5390  -33.0130 C   0  0  0  0  0  0  0  0  0  0  0  0
   -5.0960   22.3190  -32.1430 C   0  0  0  0  0  0  0  0  0  0  0  0
   -6.4020   22.2610  -31.6940 C   0  0  0  0  0  0  0  0  0  0  0  0
   -7.1590   23.4080  -31.0710 C   0  0  0  0  0  0  0  0  0  0  0  0
   -6.5070   23.9000  -29.8310 N   0  0  0  0  0  0  0  0  0  0  0  0
   -5.8740   25.2360  -30.0290 C   0  0  0  0  0  0  0  0  0  0  0  0
   -4.4060   25.1490  -30.4610 C   0  0  0  0  0  0  0  0  0  0  0  0
   -3.3430   24.5250  -29.1070 S   0  0  0  0  0  0  0  0  0  0  0  0
   -4.5730   23.4300  -28.3060 C   0  0  0  0  0  0  0  0  0  0  0  0
   -5.5680   22.8670  -29.3230 C   0  0  0  0  0  0  0  0  0  0  0  0
   -6.8410   20.9590  -31.9020 C   0  0  0  0  0  0  0  0  0  0  0  0
   -8.2180   20.4420  -31.5870 C   0  0  0  0  0  0  0  0  0  0  0  0
   -6.1460   18.4960  -34.1640 C   0  0  0  0  0  0  0  0  0  0  0  0
   -6.1980   17.1540  -34.5500 C   0  0  0  0  0  0  0  0  0  0  0  0
   -5.2433   13.7666  -32.4610 H   0  0  0  0  0  0  0  0  0  0  0  0
   -5.6121   12.7912  -33.9236 H   0  0  0  0  0  0  0  0  0  0  0  0
   -4.2112   13.9156  -33.9236 H   0  0  0  0  0  0  0  0  0  0  0  0
   -5.6370   15.6855  -31.5116 H   0  0  0  0  0  0  0  0  0  0  0  0
   -5.5390   18.0802  -30.8249 H   0  0  0  0  0  0  0  0  0  0  0  0
   -4.1155   18.7136  -33.8014 H   0  0  0  0  0  0  0  0  0  0  0  0
   -1.8763   18.0462  -34.6744 H   0  0  0  0  0  0  0  0  0  0  0  0
   -0.2462   21.8528  -33.4301 H   0  0  0  0  0  0  0  0  0  0  0  0
   -2.4815   22.5308  -32.5558 H   0  0  0  0  0  0  0  0  0  0  0  0
   -4.4411   23.2028  -32.1493 H   0  0  0  0  0  0  0  0  0  0  0  0
   -7.2112   24.2338  -31.7958 H   0  0  0  0  0  0  0  0  0  0  0  0
   -8.1631   23.0462  -30.8049 H   0  0  0  0  0  0  0  0  0  0  0  0
   -7.2520   24.0150  -29.1010 H   0  0  0  0  0  0  0  0  0  0  0  0
   -6.4354   25.7777  -30.8045 H   0  0  0  0  0  0  0  0  0  0  0  0
   -5.9001   25.7575  -29.0608 H   0  0  0  0  0  0  0  0  0  0  0  0
   -4.3264   24.4675  -31.3208 H   0  0  0  0  0  0  0  0  0  0  0  0
   -4.0650   26.1598  -30.7292 H   0  0  0  0  0  0  0  0  0  0  0  0
   -4.0462   22.5949  -27.8212 H   0  0  0  0  0  0  0  0  0  0  0  0
   -5.1325   24.0217  -27.5665 H   0  0  0  0  0  0  0  0  0  0  0  0
   -5.0068   22.4516  -30.1730 H   0  0  0  0  0  0  0  0  0  0  0  0
   -6.1637   22.0939  -28.8156 H   0  0  0  0  0  0  0  0  0  0  0  0
   -8.3503   20.3923  -30.4961 H   0  0  0  0  0  0  0  0  0  0  0  0
   -8.9710   21.1186  -32.0173 H   0  0  0  0  0  0  0  0  0  0  0  0
   -8.3396   19.4370  -32.0173 H   0  0  0  0  0  0  0  0  0  0  0  0
   -6.2891   19.2879  -34.9140 H   0  0  0  0  0  0  0  0  0  0  0  0
   -6.3836   16.8965  -35.6032 H   0  0  0  0  0  0  0  0  0  0  0  0
  1  2  1  0
  2  3  1  0
  3  4  2  0
  4  5  1  0
  5  6  2  0
  6  7  1  0
  7  8  1  0
  8  9  1  0
  9 10  2  0
 10 11  1  0
 11 12  2  0
 12 13  1  0
 12 14  1  0
 14 15  2  0
  8 16  2  0
 16 17  1  0
 17 18  1  0
 18 19  1  0
 19 20  1  0
 20 21  1  0
 21 22  1  0
 22 23  1  0
 23 24  1  0
 17 25  2  0
 25 26  1  0
  6 27  1  0
 27 28  2  0
 28  3  1  0
 25  7  1  0
 15  9  1  0
 24 19  1  0
  1 29  1  0
  1 30  1  0
  1 31  1  0
  4 32  1  0
  5 33  1  0
 10 34  1  0
 11 35  1  0
 14 36  1  0
 15 37  1  0
 16 38  1  0
 18 39  1  0
 18 40  1  0
 19 41  1  0
 20 42  1  0
 20 43  1  0
 21 44  1  0
 21 45  1  0
 23 46  1  0
 23 47  1  0
 24 48  1  0
 24 49  1  0
 26 50  1  0
 26 51  1  0
 26 52  1  0
 27 53  1  0
 28 54  1  0
M  CHG  1  19   1
M  END
>  <UniqueID>  (26) 
26

>  <SMILES>  (26) 
COc1ccc(-n2c(-c3ccc(F)cc3)cc(C[NH+]3CCSCC3)c2C)cc1

>  <Energy>  (26) 
99.02007318219474

>  <Genealogy>  (26) 
COc1ccc(-n2c(-c3ccc(F)cc3)cc(C[NH+]3CCSCC3)c2C)cc1 (protonated)
COc1ccc(-n2c(-c3ccc(F)cc3)cc(C[NH+]3CCSCC3)c2C)cc1 (3D coordinates assigned)
COc1ccc(-n2c(-c3ccc(F)cc3)cc(C[NH+]3CCSCC3)c2C)cc1 (nonaromatic ring conformer: 99.02007318219474 kcal/mol)

>  <smiles>  (26) 
COc1ccc(-n2c(-c3ccc(F)cc3)cc(CN3CCSCC3)c2C)cc1

>  <score_type>  (26) 
oracle

>  <origin>  (26) 
adg

>  <m_score__min__energy>  (26) 
-7.6100000000000003

>  <m_primary>  (26) 
energy

$$$$
26:0
     RDKit          3D

 47 50  0  0  0  0  0  0  0  0999 V2000
   -6.4160   25.5970  -29.5740 C   0  0  0  0  0  0  0  0  0  0  0  0
   -5.6660   25.0540  -30.7880 C   0  0  0  0  0  0  0  0  0  0  0  0
   -4.2230   25.3060  -30.6600 N   0  0  0  0  0  0  0  0  0  0  0  0
   -3.4890   24.0670  -30.3570 C   0  0  0  0  0  0  0  0  0  0  0  0
   -4.3400   22.8310  -30.6730 C   0  0  0  0  0  0  0  0  0  0  0  0
   -4.4630   22.6190  -32.1150 N   0  0  0  0  0  0  0  0  0  0  0  0
   -4.5740   21.2920  -32.6450 C   0  0  0  0  0  0  0  0  0  0  0  0
   -3.4460   20.5970  -33.1350 C   0  0  0  0  0  0  0  0  0  0  0  0
   -2.1580   21.1580  -33.0210 C   0  0  0  0  0  0  0  0  0  0  0  0
   -1.0460   20.4960  -33.5360 C   0  0  0  0  0  0  0  0  0  0  0  0
   -1.1950   19.2660  -34.1680 C   0  0  0  0  0  0  0  0  0  0  0  0
   -2.4540   18.6750  -34.2760 C   0  0  0  0  0  0  0  0  0  0  0  0
   -3.6080   19.3080  -33.7470 C   0  0  0  0  0  0  0  0  0  0  0  0
   -4.8640   18.7180  -33.8220 N   0  0  0  0  0  0  0  0  0  0  0  0
   -5.0360   17.3680  -34.3930 C   0  0  0  0  0  0  0  0  0  0  0  0
   -5.9440   19.4240  -33.3540 C   0  0  0  0  0  0  0  0  0  0  0  0
   -7.2460   19.0440  -33.4050 N   0  0  0  0  0  0  0  0  0  0  0  0
   -7.9320   20.0470  -32.8220 C   0  0  0  0  0  0  0  0  0  0  0  0
   -9.3090   20.1100  -32.6250 C   0  0  0  0  0  0  0  0  0  0  0  0
   -9.8340   21.2430  -31.9810 C   0  0  0  0  0  0  0  0  0  0  0  0
   -8.9800   22.2810  -31.5510 C   0  0  0  0  0  0  0  0  0  0  0  0
   -7.5920   22.1990  -31.7620 C   0  0  0  0  0  0  0  0  0  0  0  0
   -7.0940   21.0640  -32.4100 C   0  0  0  0  0  0  0  0  0  0  0  0
   -5.8150   20.6680  -32.7630 C   0  0  0  0  0  0  0  0  0  0  0  0
   -5.9282   25.2438  -28.6535 H   0  0  0  0  0  0  0  0  0  0  0  0
   -6.4034   26.6967  -29.5969 H   0  0  0  0  0  0  0  0  0  0  0  0
   -7.4568   25.2417  -29.5969 H   0  0  0  0  0  0  0  0  0  0  0  0
   -5.8384   23.9703  -30.8644 H   0  0  0  0  0  0  0  0  0  0  0  0
   -6.0362   25.5627  -31.6903 H   0  0  0  0  0  0  0  0  0  0  0  0
   -3.8880   25.6540  -31.5900 H   0  0  0  0  0  0  0  0  0  0  0  0
   -2.5711   24.0358  -30.9624 H   0  0  0  0  0  0  0  0  0  0  0  0
   -3.2446   24.0586  -29.2845 H   0  0  0  0  0  0  0  0  0  0  0  0
   -3.8674   21.9466  -30.2208 H   0  0  0  0  0  0  0  0  0  0  0  0
   -5.3472   22.9909  -30.2606 H   0  0  0  0  0  0  0  0  0  0  0  0
   -4.1890   23.3830  -32.7720 H   0  0  0  0  0  0  0  0  0  0  0  0
   -2.0297   22.1289  -32.5200 H   0  0  0  0  0  0  0  0  0  0  0  0
   -0.0472   20.9472  -33.4426 H   0  0  0  0  0  0  0  0  0  0  0  0
   -0.3143   18.7559  -34.5854 H   0  0  0  0  0  0  0  0  0  0  0  0
   -2.5535   17.7021  -34.7796 H   0  0  0  0  0  0  0  0  0  0  0  0
   -5.1294   16.6346  -33.5785 H   0  0  0  0  0  0  0  0  0  0  0  0
   -5.9443   17.3451  -35.0130 H   0  0  0  0  0  0  0  0  0  0  0  0
   -4.1624   17.1181  -35.0130 H   0  0  0  0  0  0  0  0  0  0  0  0
   -7.6720   18.1830  -33.8150 H   0  0  0  0  0  0  0  0  0  0  0  0
   -9.9669   19.2961  -32.9638 H   0  0  0  0  0  0  0  0  0  0  0  0
  -10.9179   21.3215  -31.8108 H   0  0  0  0  0  0  0  0  0  0  0  0
   -9.4037   23.1618  -31.0464 H   0  0  0  0  0  0  0  0  0  0  0  0
   -6.9191   23.0024  -31.4278 H   0  0  0  0  0  0  0  0  0  0  0  0
  1  2  1  0
  2  3  1  0
  3  4  1  0
  4  5  1  0
  5  6  1  0
  6  7  1  0
  7  8  2  0
  8  9  1  0
  9 10  2  0
 10 11  1  0
 11 12  2  0
 12 13  1  0
 13 14  2  0
 14 15  1  0
 14 16  1  0
 16 17  1  0
 17 18  1  0
 18 19  2  0
 19 20  1  0
 20 21  2  0
 21 22  1  0
 22 23  2  0
 23 24  1  0
 24  7  1  0
 13  8  1  0
 24 16  2  0
 23 18  1  0
  1 25  1  0
  1 26  1  0
  1 27  1  0
  2 28  1  0
  2 29  1  0
  3 30  1  0
  4 31  1  0
  4 32  1  0
  5 33  1  0
  5 34  1  0
  6 35  1  0
  9 36  1  0
 10 37  1  0
 11 38  1  0
 12 39  1  0
 15 40  1  0
 15 41  1  0
 15 42  1  0
 17 43  1  0
 19 44  1  0
 20 45  1  0
 21 46  1  0
 22 47  1  0
M  CHG  1  14   1
M  END
>  <UniqueID>  (27) 
27

>  <SMILES>  (27) 
CCNCCNc1c2ccccc2[n+](C)c2[nH]c3ccccc3c12

>  <Energy>  (27) 
104.57393844333158

>  <Genealogy>  (27) 
CCNCCNc1c2ccccc2[n+](C)c2[nH]c3ccccc3c12 (3D coordinates assigned)
CCNCCNc1c2ccccc2[n+](C)c2[nH]c3ccccc3c12 (optimized conformer: 104.57393844333158 kcal/mol)

>  <smiles>  (27) 
CCNCCNc1c2ccccc2[n+](C)c2[nH]c3ccccc3c12

>  <score_type>  (27) 
oracle

>  <origin>  (27) 
adg

>  <m_score__min__energy>  (27) 
-9.0700000000000003

>  <m_primary>  (27) 
energy

$$$$
27:0
     RDKit          3D

 49 50  0  0  0  0  0  0  0  0999 V2000
   -6.1820   24.6540  -30.1300 C   0  0  0  0  0  0  0  0  0  0  0  0
   -5.2100   25.6780  -30.7050 C   0  0  0  0  0  0  0  0  0  0  0  0
   -3.8600   25.2980  -30.4430 O   0  0  0  0  0  0  0  0  0  0  0  0
   -3.4510   24.1540  -29.7340 C   0  0  0  0  0  0  0  0  0  0  0  0
   -3.2670   24.1560  -28.3370 C   0  0  0  0  0  0  0  0  0  0  0  0
   -2.8610   22.9950  -27.6760 C   0  0  0  0  0  0  0  0  0  0  0  0
   -2.6380   21.8230  -28.3960 C   0  0  0  0  0  0  0  0  0  0  0  0
   -2.8210   21.8050  -29.7800 C   0  0  0  0  0  0  0  0  0  0  0  0
   -3.2260   22.9720  -30.4610 C   0  0  0  0  0  0  0  0  0  0  0  0
   -3.4240   23.0010  -31.8520 O   0  0  0  0  0  0  0  0  0  0  0  0
   -4.5280   22.4200  -32.5460 C   0  0  0  0  0  0  0  0  0  0  0  0
   -4.1550   21.0360  -33.0870 C   0  0  0  0  0  0  0  0  0  0  0  0
   -5.2500   20.0740  -32.8350 N   0  0  0  0  0  0  0  0  0  0  0  0
   -5.0070   19.2920  -31.6030 C   0  0  0  0  0  0  0  0  0  0  0  0
   -6.1910   18.3490  -31.2820 C   0  0  0  0  0  0  0  0  0  0  0  0
   -7.2580   18.3290  -32.4080 C   0  0  0  0  0  0  0  0  0  0  0  0
   -8.0520   19.5970  -32.4650 N   0  0  0  0  0  0  0  0  0  0  0  0
   -9.4860   19.3260  -32.6940 C   0  0  0  0  0  0  0  0  0  0  0  0
   -7.9110   20.3840  -31.2230 C   0  0  0  0  0  0  0  0  0  0  0  0
   -6.4800   18.0710  -33.7200 C   0  0  0  0  0  0  0  0  0  0  0  0
   -5.4400   19.1800  -33.9990 C   0  0  0  0  0  0  0  0  0  0  0  0
   -6.1465   24.6914  -29.0312 H   0  0  0  0  0  0  0  0  0  0  0  0
   -7.2018   24.8842  -30.4719 H   0  0  0  0  0  0  0  0  0  0  0  0
   -5.8990   23.6475  -30.4719 H   0  0  0  0  0  0  0  0  0  0  0  0
   -5.3606   25.7472  -31.7924 H   0  0  0  0  0  0  0  0  0  0  0  0
   -5.4010   26.6513  -30.2293 H   0  0  0  0  0  0  0  0  0  0  0  0
   -3.4443   25.0779  -27.7636 H   0  0  0  0  0  0  0  0  0  0  0  0
   -2.7170   23.0056  -26.5855 H   0  0  0  0  0  0  0  0  0  0  0  0
   -2.3171   20.9101  -27.8729 H   0  0  0  0  0  0  0  0  0  0  0  0
   -2.6484   20.8756  -30.3425 H   0  0  0  0  0  0  0  0  0  0  0  0
   -5.3782   22.3212  -31.8550 H   0  0  0  0  0  0  0  0  0  0  0  0
   -4.7987   23.0705  -33.3907 H   0  0  0  0  0  0  0  0  0  0  0  0
   -3.9756   21.1060  -34.1700 H   0  0  0  0  0  0  0  0  0  0  0  0
   -3.2460   20.6853  -32.5763 H   0  0  0  0  0  0  0  0  0  0  0  0
   -4.0969   18.6889  -31.7371 H   0  0  0  0  0  0  0  0  0  0  0  0
   -4.8926   19.9966  -30.7661 H   0  0  0  0  0  0  0  0  0  0  0  0
   -5.8025   17.3289  -31.1463 H   0  0  0  0  0  0  0  0  0  0  0  0
   -6.6768   18.7222  -30.3684 H   0  0  0  0  0  0  0  0  0  0  0  0
   -8.0064   17.5436  -32.2263 H   0  0  0  0  0  0  0  0  0  0  0  0
   -9.9999   19.2289  -31.7263 H   0  0  0  0  0  0  0  0  0  0  0  0
   -9.9297   20.1562  -33.2631 H   0  0  0  0  0  0  0  0  0  0  0  0
   -9.5962   18.3911  -33.2631 H   0  0  0  0  0  0  0  0  0  0  0  0
   -8.0298   19.7210  -30.3533 H   0  0  0  0  0  0  0  0  0  0  0  0
   -6.9150   20.8502  -31.1954 H   0  0  0  0  0  0  0  0  0  0  0  0
   -8.6832   21.1669  -31.1954 H   0  0  0  0  0  0  0  0  0  0  0  0
   -5.9584   17.1058  -33.6406 H   0  0  0  0  0  0  0  0  0  0  0  0
   -7.2023   18.0634  -34.5496 H   0  0  0  0  0  0  0  0  0  0  0  0
   -4.4769   18.7087  -34.2446 H   0  0  0  0  0  0  0  0  0  0  0  0
   -5.8125   19.7894  -34.8356 H   0  0  0  0  0  0  0  0  0  0  0  0
  1  2  1  0
  2  3  1  0
  3  4  1  0
  4  5  2  0
  5  6  1  0
  6  7  2  0
  7  8  1  0
  8  9  2  0
  9 10  1  0
 10 11  1  0
 11 12  1  0
 12 13  1  0
 13 14  1  0
 14 15  1  0
 15 16  1  0
 16 17  1  0
 17 18  1  0
 17 19  1  0
 16 20  1  0
 20 21  1  0
  9  4  1  0
 21 13  1  0
  1 22  1  0
  1 23  1  0
  1 24  1  0
  2 25  1  0
  2 26  1  0
  5 27  1  0
  6 28  1  0
  7 29  1  0
  8 30  1  0
 11 31  1  0
 11 32  1  0
 12 33  1  0
 12 34  1  0
 14 35  1  0
 14 36  1  0
 15 37  1  0
 15 38  1  0
 16 39  1  0
 18 40  1  0
 18 41  1  0
 18 42  1  0
 19 43  1  0
 19 44  1  0
 19 45  1  0
 20 46  1  0
 20 47  1  0
 21 48  1  0
 21 49  1  0
M  END
>  <UniqueID>  (28) 
28

>  <SMILES>  (28) 
CCOc1ccccc1OCCN1CCC(N(C)C)CC1

>  <Energy>  (28) 
58.454485254608485

>  <Genealogy>  (28) 
CCOc1ccccc1OCCN1CCC(N(C)C)CC1 (3D coordinates assigned)
CCOc1ccccc1OCCN1CCC(N(C)C)CC1 (nonaromatic ring conformer: 58.454485254608485 kcal/mol)

>  <smiles>  (28) 
CCOc1ccccc1OCCN1CCC(N(C)C)CC1

>  <score_type>  (28) 
oracle

>  <origin>  (28) 
adg

>  <m_score__min__energy>  (28) 
-7.5999999999999996

>  <m_primary>  (28) 
energy

$$$$
28:0
     RDKit          3D

 51 54  0  0  0  0  0  0  0  0999 V2000
   -2.7340   24.9540  -28.5430 O   0  0  0  0  0  0  0  0  0  0  0  0
   -3.0240   24.5110  -29.6850 C   0  0  0  0  0  0  0  0  0  0  0  0
   -2.5390   23.1520  -30.0950 C   0  0  0  0  0  0  0  0  0  0  0  0
   -3.4370   22.5500  -31.1010 N   0  0  0  0  0  0  0  0  0  0  0  0
   -4.2380   21.4620  -30.4980 C   0  0  0  0  0  0  0  0  0  0  0  0
   -4.8550   20.5730  -31.5830 C   0  0  0  0  0  0  0  0  0  0  0  0
   -3.8140   19.8840  -32.3900 N   0  0  0  0  0  0  0  0  0  0  0  0
   -4.3010   19.5810  -33.7540 C   0  0  0  0  0  0  0  0  0  0  0  0
   -5.0920   18.2980  -33.7770 C   0  0  0  0  0  0  0  0  0  0  0  0
   -6.4610   18.3030  -33.4090 C   0  0  0  0  0  0  0  0  0  0  0  0
   -7.2180   17.1190  -33.4610 C   0  0  0  0  0  0  0  0  0  0  0  0
   -6.5770   15.9570  -33.8780 C   0  0  0  0  0  0  0  0  0  0  0  0
   -5.2680   15.9460  -34.2310 C   0  0  0  0  0  0  0  0  0  0  0  0
   -4.4860   17.0950  -34.1970 C   0  0  0  0  0  0  0  0  0  0  0  0
   -4.9040   14.6690  -34.6110 O   0  0  0  0  0  0  0  0  0  0  0  0
   -6.0580   13.8270  -34.4930 C   0  0  0  0  0  0  0  0  0  0  0  0
   -7.1000   14.6860  -34.0160 O   0  0  0  0  0  0  0  0  0  0  0  0
   -2.5220   20.6140  -32.4270 C   0  0  0  0  0  0  0  0  0  0  0  0
   -2.7120   22.1390  -32.3310 C   0  0  0  0  0  0  0  0  0  0  0  0
   -3.8570   25.2740  -30.5650 N   0  0  0  0  0  0  0  0  0  0  0  0
   -5.2680   25.5410  -30.3130 C   0  0  0  0  0  0  0  0  0  0  0  0
   -6.0960   24.3520  -30.7110 C   0  0  0  0  0  0  0  0  0  0  0  0
   -6.8080   23.6370  -29.7340 C   0  0  0  0  0  0  0  0  0  0  0  0
   -7.6190   22.5600  -30.1010 C   0  0  0  0  0  0  0  0  0  0  0  0
   -7.7240   22.1870  -31.4450 C   0  0  0  0  0  0  0  0  0  0  0  0
   -8.7240   20.8170  -31.9000 Cl  0  0  0  0  0  0  0  0  0  0  0  0
   -7.0230   22.8990  -32.4250 C   0  0  0  0  0  0  0  0  0  0  0  0
   -6.2090   23.9730  -32.0600 C   0  0  0  0  0  0  0  0  0  0  0  0
   -1.5300   23.2444  -30.5232 H   0  0  0  0  0  0  0  0  0  0  0  0
   -2.5233   22.5032  -29.2068 H   0  0  0  0  0  0  0  0  0  0  0  0
   -3.5880   20.8490  -29.8564 H   0  0  0  0  0  0  0  0  0  0  0  0
   -5.0499   21.9093  -29.9057 H   0  0  0  0  0  0  0  0  0  0  0  0
   -5.4925   19.8159  -31.1030 H   0  0  0  0  0  0  0  0  0  0  0  0
   -5.4418   21.2139  -32.2574 H   0  0  0  0  0  0  0  0  0  0  0  0
   -4.9437   20.4052  -34.0970 H   0  0  0  0  0  0  0  0  0  0  0  0
   -3.4311   19.4662  -34.4174 H   0  0  0  0  0  0  0  0  0  0  0  0
   -6.9346   19.2399  -33.0804 H   0  0  0  0  0  0  0  0  0  0  0  0
   -8.2818   17.1120  -33.1812 H   0  0  0  0  0  0  0  0  0  0  0  0
   -3.4258   17.0670  -34.4890 H   0  0  0  0  0  0  0  0  0  0  0  0
   -6.3265   13.4006  -35.4708 H   0  0  0  0  0  0  0  0  0  0  0  0
   -5.8813   12.9784  -33.8157 H   0  0  0  0  0  0  0  0  0  0  0  0
   -1.9024   20.2804  -31.5815 H   0  0  0  0  0  0  0  0  0  0  0  0
   -2.0377   20.3942  -33.3899 H   0  0  0  0  0  0  0  0  0  0  0  0
   -1.7217   22.6178  -32.3324 H   0  0  0  0  0  0  0  0  0  0  0  0
   -3.3170   22.4535  -33.1941 H   0  0  0  0  0  0  0  0  0  0  0  0
   -5.4144   25.7446  -29.2420 H   0  0  0  0  0  0  0  0  0  0  0  0
   -5.5814   26.4133  -30.9053 H   0  0  0  0  0  0  0  0  0  0  0  0
   -6.7268   23.9260  -28.6758 H   0  0  0  0  0  0  0  0  0  0  0  0
   -8.1757   22.0046  -29.3318 H   0  0  0  0  0  0  0  0  0  0  0  0
   -7.1134   22.6123  -33.4831 H   0  0  0  0  0  0  0  0  0  0  0  0
   -5.6532   24.5254  -32.8320 H   0  0  0  0  0  0  0  0  0  0  0  0
  1  2  2  0
  2  3  1  0
  3  4  1  0
  4  5  1  0
  5  6  1  0
  6  7  1  0
  7  8  1  0
  8  9  1  0
  9 10  2  0
 10 11  1  0
 11 12  2  0
 12 13  1  0
 13 14  2  0
 13 15  1  0
 15 16  1  0
 16 17  1  0
  7 18  1  0
 18 19  1  0
  2 20  1  0
 20 21  1  0
 21 22  1  0
 22 23  2  0
 23 24  1  0
 24 25  2  0
 25 26  1  0
 25 27  1  0
 27 28  2  0
 19  4  1  0
 28 22  1  0
 14  9  1  0
 17 12  1  0
  3 29  1  0
  3 30  1  0
  5 31  1  0
  5 32  1  0
  6 33  1  0
  6 34  1  0
  8 35  1  0
  8 36  1  0
 10 37  1  0
 11 38  1  0
 14 39  1  0
 16 40  1  0
 16 41  1  0
 18 42  1  0
 18 43  1  0
 19 44  1  0
 19 45  1  0
 21 46  1  0
 21 47  1  0
 23 48  1  0
 24 49  1  0
 27 50  1  0
 28 51  1  0
M  CHG  1  20  -1
M  END
>  <UniqueID>  (29) 
29

>  <SMILES>  (29) 
O=C(CN1CCN(Cc2ccc3c(c2)OCO3)CC1)[N-]Cc1ccc(Cl)cc1

>  <Energy>  (29) 
91.80614360266092

>  <Genealogy>  (29) 
O=C(CN1CCN(Cc2ccc3c(c2)OCO3)CC1)[N-]Cc1ccc(Cl)cc1 (protonated)
O=C(CN1CCN(Cc2ccc3c(c2)OCO3)CC1)[N-]Cc1ccc(Cl)cc1 (3D coordinates assigned)
O=C(CN1CCN(Cc2ccc3c(c2)OCO3)CC1)[N-]Cc1ccc(Cl)cc1 (nonaromatic ring conformer: 91.80614360266092 kcal/mol)

>  <smiles>  (29) 
O=C(CN1CCN(Cc2ccc3c(c2)OCO3)CC1)NCc1ccc(Cl)cc1

>  <score_type>  (29) 
oracle

>  <origin>  (29) 
adg

>  <m_score__min__energy>  (29) 
-11.119999999999999

>  <m_primary>  (29) 
energy

$$$$
29:0
     RDKit          3D

 52 55  0  0  0  0  0  0  0  0999 V2000
   -0.4240   28.0970  -24.4980 C   0  0  0  0  0  0  0  0  0  0  0  0
   -0.8620   27.5050  -25.8360 C   0  0  0  0  0  0  0  0  0  0  0  0
   -1.2270   26.0880  -25.6920 N   0  0  0  0  0  0  0  0  0  0  0  0
   -0.8540   25.3700  -24.4620 C   0  0  0  0  0  0  0  0  0  0  0  0
   -0.4260   23.9400  -24.7800 C   0  0  0  0  0  0  0  0  0  0  0  0
   -1.9380   25.4080  -26.7520 C   0  0  0  0  0  0  0  0  0  0  0  0
   -1.3480   25.2500  -28.0190 C   0  0  0  0  0  0  0  0  0  0  0  0
   -2.0120   24.5520  -29.0300 C   0  0  0  0  0  0  0  0  0  0  0  0
   -3.2760   23.9950  -28.7900 C   0  0  0  0  0  0  0  0  0  0  0  0
   -3.9640   23.2130  -29.8310 C   0  0  0  0  0  0  0  0  0  0  0  0
   -5.2860   23.3390  -30.0960 N   0  0  0  0  0  0  0  0  0  0  0  0
   -5.5130   22.3960  -31.0350 C   0  0  0  0  0  0  0  0  0  0  0  0
   -6.7450   22.1220  -31.6230 C   0  0  0  0  0  0  0  0  0  0  0  0
   -6.8070   21.0770  -32.5570 C   0  0  0  0  0  0  0  0  0  0  0  0
   -5.6510   20.3370  -32.8720 C   0  0  0  0  0  0  0  0  0  0  0  0
   -5.7380   18.9090  -34.1370 Br  0  0  0  0  0  0  0  0  0  0  0  0
   -4.4350   20.6550  -32.2480 C   0  0  0  0  0  0  0  0  0  0  0  0
   -4.4180   21.6800  -31.3540 N   0  0  0  0  0  0  0  0  0  0  0  0
   -3.4220   22.1890  -30.6040 C   0  0  0  0  0  0  0  0  0  0  0  0
   -2.1150   21.5960  -30.4510 N   0  0  0  0  0  0  0  0  0  0  0  0
   -1.9260   21.1700  -29.0860 C   0  0  0  0  0  0  0  0  0  0  0  0
   -2.9110   20.4020  -28.4360 C   0  0  0  0  0  0  0  0  0  0  0  0
   -2.7420   20.0170  -27.1030 C   0  0  0  0  0  0  0  0  0  0  0  0
   -1.5920   20.3920  -26.4050 C   0  0  0  0  0  0  0  0  0  0  0  0
   -0.6060   21.1510  -27.0400 C   0  0  0  0  0  0  0  0  0  0  0  0
   -0.7680   21.5360  -28.3730 C   0  0  0  0  0  0  0  0  0  0  0  0
   -3.8870   24.1850  -27.5440 C   0  0  0  0  0  0  0  0  0  0  0  0
   -3.2220   24.8780  -26.5310 C   0  0  0  0  0  0  0  0  0  0  0  0
   -0.8592   27.5087  -23.6767 H   0  0  0  0  0  0  0  0  0  0  0  0
    0.6734   28.0701  -24.4268 H   0  0  0  0  0  0  0  0  0  0  0  0
   -0.7707   29.1385  -24.4268 H   0  0  0  0  0  0  0  0  0  0  0  0
   -1.7326   28.0644  -26.2089 H   0  0  0  0  0  0  0  0  0  0  0  0
   -0.0231   27.5802  -26.5435 H   0  0  0  0  0  0  0  0  0  0  0  0
   -0.0198   25.8967  -23.9754 H   0  0  0  0  0  0  0  0  0  0  0  0
   -1.7269   25.3372  -23.7935 H   0  0  0  0  0  0  0  0  0  0  0  0
   -0.2612   23.3894  -23.8421 H   0  0  0  0  0  0  0  0  0  0  0  0
   -1.2146   23.4424  -25.3636 H   0  0  0  0  0  0  0  0  0  0  0  0
    0.5063   23.9575  -25.3636 H   0  0  0  0  0  0  0  0  0  0  0  0
   -0.3548   25.6800  -28.2153 H   0  0  0  0  0  0  0  0  0  0  0  0
   -1.5417   24.4388  -30.0179 H   0  0  0  0  0  0  0  0  0  0  0  0
   -7.6405   22.7058  -31.3637 H   0  0  0  0  0  0  0  0  0  0  0  0
   -7.7625   20.8347  -33.0453 H   0  0  0  0  0  0  0  0  0  0  0  0
   -3.5192   20.0899  -32.4760 H   0  0  0  0  0  0  0  0  0  0  0  0
   -1.3830   22.2890  -30.7260 H   0  0  0  0  0  0  0  0  0  0  0  0
   -2.0050   20.7790  -31.0910 H   0  0  0  0  0  0  0  0  0  0  0  0
   -3.8189   20.1032  -28.9805 H   0  0  0  0  0  0  0  0  0  0  0  0
   -3.5166   19.4173  -26.6026 H   0  0  0  0  0  0  0  0  0  0  0  0
   -1.4626   20.0897  -25.3553 H   0  0  0  0  0  0  0  0  0  0  0  0
    0.2995   21.4460  -26.4894 H   0  0  0  0  0  0  0  0  0  0  0  0
    0.0143   22.1291  -28.8692 H   0  0  0  0  0  0  0  0  0  0  0  0
   -4.8960   23.7861  -27.3628 H   0  0  0  0  0  0  0  0  0  0  0  0
   -3.7060   25.0107  -25.5521 H   0  0  0  0  0  0  0  0  0  0  0  0
  1  2  1  0
  2  3  1  0
  3  4  1  0
  4  5  1  0
  3  6  1  0
  6  7  2  0
  7  8  1  0
  8  9  2  0
  9 10  1  0
 10 11  1  0
 11 12  2  0
 12 13  1  0
 13 14  2  0
 14 15  1  0
 15 16  1  0
 15 17  2  0
 17 18  1  0
 18 19  1  0
 19 20  1  0
 20 21  1  0
 21 22  2  0
 22 23  1  0
 23 24  2  0
 24 25  1  0
 25 26  2  0
  9 27  1  0
 27 28  2  0
 28  6  1  0
 19 10  2  0
 26 21  1  0
 18 12  1  0
  1 29  1  0
  1 30  1  0
  1 31  1  0
  2 32  1  0
  2 33  1  0
  4 34  1  0
  4 35  1  0
  5 36  1  0
  5 37  1  0
  5 38  1  0
  7 39  1  0
  8 40  1  0
 13 41  1  0
 14 42  1  0
 17 43  1  0
 20 44  1  0
 20 45  1  0
 22 46  1  0
 23 47  1  0
 24 48  1  0
 25 49  1  0
 26 50  1  0
 27 51  1  0
 28 52  1  0
M  CHG  1  20   1
M  END
>  <UniqueID>  (30) 
30

>  <SMILES>  (30) 
CCN(CC)c1ccc(-c2nc3ccc(Br)cn3c2[NH2+]c2ccccc2)cc1

>  <Energy>  (30) 
94.37370658498408

>  <Genealogy>  (30) 
CCN(CC)c1ccc(-c2nc3ccc(Br)cn3c2[NH2+]c2ccccc2)cc1 (protonated)
CCN(CC)c1ccc(-c2nc3ccc(Br)cn3c2[NH2+]c2ccccc2)cc1 (3D coordinates assigned)
CCN(CC)c1ccc(-c2nc3ccc(Br)cn3c2[NH2+]c2ccccc2)cc1 (optimized conformer: 94.37370658498408 kcal/mol)

>  <smiles>  (30) 
CCN(CC)c1ccc(-c2nc3ccc(Br)cn3c2Nc2ccccc2)cc1

>  <score_type>  (30) 
oracle

>  <origin>  (30) 
adg

>  <m_score__min__energy>  (30) 
-7.6500000000000004

>  <m_primary>  (30) 
energy

$$$$
30:0
     RDKit          3D

 55 57  0  0  0  0  0  0  0  0999 V2000
   -1.8690   23.7270  -28.9890 C   0  0  0  0  0  0  0  0  0  0  0  0
   -1.1220   22.6950  -29.8310 C   0  0  0  0  0  0  0  0  0  0  0  0
   -1.8430   21.4040  -29.8450 N   0  0  0  0  0  0  0  0  0  0  0  0
   -2.9380   21.3090  -28.8520 C   0  0  0  0  0  0  0  0  0  0  0  0
   -2.6730   20.2970  -27.7340 C   0  0  0  0  0  0  0  0  0  0  0  0
   -1.0210   20.1750  -29.9900 C   0  0  0  0  0  0  0  0  0  0  0  0
   -0.7890   19.7160  -31.4390 C   0  0  0  0  0  0  0  0  0  0  0  0
   -1.0840   20.7860  -32.3130 O   0  0  0  0  0  0  0  0  0  0  0  0
   -1.6320   20.3100  -33.5310 C   0  0  0  0  0  0  0  0  0  0  0  0
   -3.1610   20.3340  -33.4660 C   0  0  0  0  0  0  0  0  0  0  0  0
   -3.6220   20.7610  -32.1470 N   0  0  0  0  0  0  0  0  0  0  0  0
   -4.9950   21.1370  -31.9480 C   0  0  0  0  0  0  0  0  0  0  0  0
   -6.0180   20.1810  -32.0740 C   0  0  0  0  0  0  0  0  0  0  0  0
   -5.7210   18.8420  -32.4120 C   0  0  0  0  0  0  0  0  0  0  0  0
   -6.7310   17.8860  -32.4830 C   0  0  0  0  0  0  0  0  0  0  0  0
   -8.0470   18.2400  -32.2120 C   0  0  0  0  0  0  0  0  0  0  0  0
   -8.3680   19.5610  -31.9010 C   0  0  0  0  0  0  0  0  0  0  0  0
   -7.3700   20.5690  -31.8650 C   0  0  0  0  0  0  0  0  0  0  0  0
   -7.6830   21.8940  -31.6210 N   0  0  0  0  0  0  0  0  0  0  0  0
   -9.0900   22.3470  -31.6850 C   0  0  0  0  0  0  0  0  0  0  0  0
   -6.6770   22.8010  -31.3430 C   0  0  0  0  0  0  0  0  0  0  0  0
   -6.9540   24.0940  -30.8360 C   0  0  0  0  0  0  0  0  0  0  0  0
   -5.9170   24.9940  -30.6000 C   0  0  0  0  0  0  0  0  0  0  0  0
   -4.6330   24.6340  -30.8360 N   0  0  0  0  0  0  0  0  0  0  0  0
   -4.3140   23.3980  -31.2910 C   0  0  0  0  0  0  0  0  0  0  0  0
   -5.3190   22.4420  -31.5390 C   0  0  0  0  0  0  0  0  0  0  0  0
   -1.7131   23.5116  -27.9216 H   0  0  0  0  0  0  0  0  0  0  0  0
   -1.4885   24.7330  -29.2194 H   0  0  0  0  0  0  0  0  0  0  0  0
   -2.9436   23.6798  -29.2194 H   0  0  0  0  0  0  0  0  0  0  0  0
   -1.0318   23.0683  -30.8618 H   0  0  0  0  0  0  0  0  0  0  0  0
   -0.1262   22.5368  -29.3912 H   0  0  0  0  0  0  0  0  0  0  0  0
   -3.0796   22.3000  -28.3962 H   0  0  0  0  0  0  0  0  0  0  0  0
   -3.8311   20.9624  -29.3925 H   0  0  0  0  0  0  0  0  0  0  0  0
   -2.8014   20.7872  -26.7577 H   0  0  0  0  0  0  0  0  0  0  0  0
   -3.3825   19.4608  -27.8206 H   0  0  0  0  0  0  0  0  0  0  0  0
   -1.6448   19.9159  -27.8206 H   0  0  0  0  0  0  0  0  0  0  0  0
   -0.0396   20.3647  -29.5308 H   0  0  0  0  0  0  0  0  0  0  0  0
   -1.5845   19.3683  -29.4983 H   0  0  0  0  0  0  0  0  0  0  0  0
    0.2611   19.4142  -31.5667 H   0  0  0  0  0  0  0  0  0  0  0  0
   -1.4408   18.8596  -31.6665 H   0  0  0  0  0  0  0  0  0  0  0  0
   -1.2931   20.9518  -34.3576 H   0  0  0  0  0  0  0  0  0  0  0  0
   -1.2953   19.2760  -33.6970 H   0  0  0  0  0  0  0  0  0  0  0  0
   -3.5424   21.0336  -34.2243 H   0  0  0  0  0  0  0  0  0  0  0  0
   -3.5360   19.3176  -33.6564 H   0  0  0  0  0  0  0  0  0  0  0  0
   -3.0870   20.4350  -31.3110 H   0  0  0  0  0  0  0  0  0  0  0  0
   -4.6809   18.5514  -32.6213 H   0  0  0  0  0  0  0  0  0  0  0  0
   -6.4865   16.8484  -32.7542 H   0  0  0  0  0  0  0  0  0  0  0  0
   -8.8379   17.4761  -32.2429 H   0  0  0  0  0  0  0  0  0  0  0  0
   -9.4125   19.8260  -31.6799 H   0  0  0  0  0  0  0  0  0  0  0  0
   -9.4814   22.4730  -30.6647 H   0  0  0  0  0  0  0  0  0  0  0  0
   -9.1421   23.3073  -32.2189 H   0  0  0  0  0  0  0  0  0  0  0  0
   -9.6926   21.5975  -32.2189 H   0  0  0  0  0  0  0  0  0  0  0  0
   -7.9930   24.3892  -30.6275 H   0  0  0  0  0  0  0  0  0  0  0  0
   -6.1422   26.0015  -30.2203 H   0  0  0  0  0  0  0  0  0  0  0  0
   -3.2599   23.1384  -31.4685 H   0  0  0  0  0  0  0  0  0  0  0  0
  1  2  1  0
  2  3  1  0
  3  4  1  0
  4  5  1  0
  3  6  1  0
  6  7  1  0
  7  8  1  0
  8  9  1  0
  9 10  1  0
 10 11  1  0
 11 12  1  0
 12 13  2  0
 13 14  1  0
 14 15  2  0
 15 16  1  0
 16 17  2  0
 17 18  1  0
 18 19  2  0
 19 20  1  0
 19 21  1  0
 21 22  2  0
 22 23  1  0
 23 24  2  0
 24 25  1  0
 25 26  2  0
 26 12  1  0
 18 13  1  0
 26 21  1  0
  1 27  1  0
  1 28  1  0
  1 29  1  0
  2 30  1  0
  2 31  1  0
  4 32  1  0
  4 33  1  0
  5 34  1  0
  5 35  1  0
  5 36  1  0
  6 37  1  0
  6 38  1  0
  7 39  1  0
  7 40  1  0
  9 41  1  0
  9 42  1  0
 10 43  1  0
 10 44  1  0
 11 45  1  0
 14 46  1  0
 15 47  1  0
 16 48  1  0
 17 49  1  0
 20 50  1  0
 20 51  1  0
 20 52  1  0
 22 53  1  0
 23 54  1  0
 25 55  1  0
M  CHG  1  19   1
M  END
>  <UniqueID>  (31) 
31

>  <SMILES>  (31) 
CCN(CC)CCOCCNc1c2ccccc2[n+](C)c2ccncc12

>  <Energy>  (31) 
85.83409168264534

>  <Genealogy>  (31) 
CCN(CC)CCOCCNc1c2ccccc2[n+](C)c2ccncc12 (3D coordinates assigned)
CCN(CC)CCOCCNc1c2ccccc2[n+](C)c2ccncc12 (optimized conformer: 85.83409168264534 kcal/mol)

>  <smiles>  (31) 
CCN(CC)CCOCCNc1c2ccccc2[n+](C)c2ccncc12

>  <score_type>  (31) 
oracle

>  <origin>  (31) 
adg

>  <m_score__min__energy>  (31) 
-8.5099999999999998

>  <m_primary>  (31) 
energy

$$$$
31:0
     RDKit          3D

 43 45  0  0  0  0  0  0  0  0999 V2000
   -5.1510   18.1910  -34.4120 C   0  0  0  0  0  0  0  0  0  0  0  0
   -4.4550   19.1360  -33.6070 O   0  0  0  0  0  0  0  0  0  0  0  0
   -3.1070   19.4950  -33.7740 C   0  0  0  0  0  0  0  0  0  0  0  0
   -2.1460   18.5630  -34.2180 C   0  0  0  0  0  0  0  0  0  0  0  0
   -0.8080   18.9350  -34.3520 C   0  0  0  0  0  0  0  0  0  0  0  0
   -0.4080   20.2340  -34.0400 C   0  0  0  0  0  0  0  0  0  0  0  0
   -1.3460   21.1690  -33.6040 C   0  0  0  0  0  0  0  0  0  0  0  0
   -2.7020   20.8180  -33.4800 C   0  0  0  0  0  0  0  0  0  0  0  0
   -3.7000   21.8660  -33.0250 C   0  0  0  0  0  0  0  0  0  0  0  0
   -4.8880   21.2870  -32.3410 N   0  0  0  0  0  0  0  0  0  0  0  0
   -6.0290   22.2450  -32.3540 C   0  0  0  0  0  0  0  0  0  0  0  0
   -6.1340   23.1140  -31.0810 C   0  0  0  0  0  0  0  0  0  0  0  0
   -4.8420   23.1980  -30.3920 N   0  0  0  0  0  0  0  0  0  0  0  0
   -4.2120   24.4770  -30.1520 C   0  0  0  0  0  0  0  0  0  0  0  0
   -4.5490   25.4770  -30.8430 O   0  0  0  0  0  0  0  0  0  0  0  0
   -3.1660   24.6530  -29.1240 C   0  0  0  0  0  0  0  0  0  0  0  0
   -3.2210   24.1660  -27.8310 C   0  0  0  0  0  0  0  0  0  0  0  0
   -2.0450   24.5600  -27.2330 C   0  0  0  0  0  0  0  0  0  0  0  0
   -1.3410   25.2560  -28.1940 C   0  0  0  0  0  0  0  0  0  0  0  0
   -2.0340   25.2910  -29.3090 O   0  0  0  0  0  0  0  0  0  0  0  0
   -4.1780   21.9410  -30.0280 C   0  0  0  0  0  0  0  0  0  0  0  0
   -4.6100   20.8020  -30.9660 C   0  0  0  0  0  0  0  0  0  0  0  0
   -5.6782   17.4752  -33.7641 H   0  0  0  0  0  0  0  0  0  0  0  0
   -5.8796   18.7163  -35.0470 H   0  0  0  0  0  0  0  0  0  0  0  0
   -4.4332   17.6511  -35.0470 H   0  0  0  0  0  0  0  0  0  0  0  0
   -2.4537   17.5351  -34.4604 H   0  0  0  0  0  0  0  0  0  0  0  0
   -0.0672   18.2022  -34.7044 H   0  0  0  0  0  0  0  0  0  0  0  0
    0.6492   20.5215  -34.1380 H   0  0  0  0  0  0  0  0  0  0  0  0
   -1.0223   22.1903  -33.3548 H   0  0  0  0  0  0  0  0  0  0  0  0
   -3.1946   22.5506  -32.3280 H   0  0  0  0  0  0  0  0  0  0  0  0
   -4.0619   22.3849  -33.9249 H   0  0  0  0  0  0  0  0  0  0  0  0
   -5.1890   20.4530  -32.9000 H   0  0  0  0  0  0  0  0  0  0  0  0
   -5.9101   22.9129  -33.2199 H   0  0  0  0  0  0  0  0  0  0  0  0
   -6.9488   21.6439  -32.4059 H   0  0  0  0  0  0  0  0  0  0  0  0
   -6.4575   24.1269  -31.3629 H   0  0  0  0  0  0  0  0  0  0  0  0
   -6.8638   22.6509  -30.4006 H   0  0  0  0  0  0  0  0  0  0  0  0
   -4.0355   23.5843  -27.3747 H   0  0  0  0  0  0  0  0  0  0  0  0
   -1.7303   24.3602  -26.1981 H   0  0  0  0  0  0  0  0  0  0  0  0
   -0.3506   25.7119  -28.0485 H   0  0  0  0  0  0  0  0  0  0  0  0
   -3.0886   22.0746  -30.1013 H   0  0  0  0  0  0  0  0  0  0  0  0
   -4.4638   21.6771  -28.9991 H   0  0  0  0  0  0  0  0  0  0  0  0
   -3.8049   20.0537  -31.0097 H   0  0  0  0  0  0  0  0  0  0  0  0
   -5.5377   20.3668  -30.5660 H   0  0  0  0  0  0  0  0  0  0  0  0
  1  2  1  0
  2  3  1  0
  3  4  2  0
  4  5  1  0
  5  6  2  0
  6  7  1  0
  7  8  2  0
  8  9  1  0
  9 10  1  0
 10 11  1  0
 11 12  1  0
 12 13  1  0
 13 14  1  0
 14 15  2  0
 14 16  1  0
 16 17  2  0
 17 18  1  0
 18 19  2  0
 19 20  1  0
 13 21  1  0
 21 22  1  0
  8  3  1  0
 22 10  1  0
 20 16  1  0
  1 23  1  0
  1 24  1  0
  1 25  1  0
  4 26  1  0
  5 27  1  0
  6 28  1  0
  7 29  1  0
  9 30  1  0
  9 31  1  0
 10 32  1  0
 11 33  1  0
 11 34  1  0
 12 35  1  0
 12 36  1  0
 17 37  1  0
 18 38  1  0
 19 39  1  0
 21 40  1  0
 21 41  1  0
 22 42  1  0
 22 43  1  0
M  CHG  1  10   1
M  END
>  <UniqueID>  (32) 
32

>  <SMILES>  (32) 
COc1ccccc1C[NH+]1CCN(C(=O)c2ccco2)CC1

>  <Energy>  (32) 
80.62371694384099

>  <Genealogy>  (32) 
COc1ccccc1C[NH+]1CCN(C(=O)c2ccco2)CC1 (protonated)
COc1ccccc1C[NH+]1CCN(C(=O)c2ccco2)CC1 (3D coordinates assigned)
COc1ccccc1C[NH+]1CCN(C(=O)c2ccco2)CC1 (nonaromatic ring conformer: 80.62371694384099 kcal/mol)

>  <smiles>  (32) 
COc1ccccc1CN1CCN(C(=O)c2ccco2)CC1

>  <score_type>  (32) 
oracle

>  <origin>  (32) 
adg

>  <m_score__min__energy>  (32) 
-6.6900000000000004

>  <m_primary>  (32) 
energy

$$$$
32:0
     RDKit          3D

 44 45  0  0  0  0  0  0  0  0999 V2000
   -5.3730   25.6710  -30.3920 C   0  0  0  0  0  0  0  0  0  0  0  0
   -4.8940   24.6060  -31.2070 O   0  0  0  0  0  0  0  0  0  0  0  0
   -5.6540   23.4860  -31.5840 C   0  0  0  0  0  0  0  0  0  0  0  0
   -7.0430   23.4270  -31.3840 C   0  0  0  0  0  0  0  0  0  0  0  0
   -7.7740   22.2950  -31.7700 C   0  0  0  0  0  0  0  0  0  0  0  0
   -9.1250   22.2640  -31.5950 N   0  0  0  0  0  0  0  0  0  0  0  0
   -9.8520   21.1840  -31.9770 C   0  0  0  0  0  0  0  0  0  0  0  0
   -9.2370   20.1060  -32.5210 N   0  0  0  0  0  0  0  0  0  0  0  0
   -7.8910   20.0630  -32.7090 C   0  0  0  0  0  0  0  0  0  0  0  0
   -7.3040   18.8660  -33.2480 N   0  0  0  0  0  0  0  0  0  0  0  0
   -7.2760   17.6240  -32.4740 C   0  0  0  0  0  0  0  0  0  0  0  0
   -5.9080   17.4010  -31.8130 C   0  0  0  0  0  0  0  0  0  0  0  0
   -4.8120   17.0970  -32.8470 C   0  0  0  0  0  0  0  0  0  0  0  0
   -4.7940   18.1320  -33.9040 N   0  0  0  0  0  0  0  0  0  0  0  0
   -3.5370   18.8960  -33.8470 C   0  0  0  0  0  0  0  0  0  0  0  0
   -4.9340   17.5250  -35.2410 C   0  0  0  0  0  0  0  0  0  0  0  0
   -7.1110   21.1890  -32.3480 C   0  0  0  0  0  0  0  0  0  0  0  0
   -5.7210   21.2650  -32.5690 C   0  0  0  0  0  0  0  0  0  0  0  0
   -4.9920   22.4070  -32.1840 C   0  0  0  0  0  0  0  0  0  0  0  0
   -3.6050   22.5080  -32.3820 O   0  0  0  0  0  0  0  0  0  0  0  0
   -2.6480   21.5600  -31.9180 C   0  0  0  0  0  0  0  0  0  0  0  0
   -5.2529   25.4039  -29.3317 H   0  0  0  0  0  0  0  0  0  0  0  0
   -4.7990   26.5843  -30.6074 H   0  0  0  0  0  0  0  0  0  0  0  0
   -6.4372   25.8475  -30.6074 H   0  0  0  0  0  0  0  0  0  0  0  0
   -7.5626   24.2781  -30.9196 H   0  0  0  0  0  0  0  0  0  0  0  0
   -9.6250   23.0780  -31.1710 H   0  0  0  0  0  0  0  0  0  0  0  0
  -10.9440   21.1835  -31.8447 H   0  0  0  0  0  0  0  0  0  0  0  0
   -6.8100   18.8930  -34.1670 H   0  0  0  0  0  0  0  0  0  0  0  0
   -8.0470   17.6738  -31.6910 H   0  0  0  0  0  0  0  0  0  0  0  0
   -7.4672   16.7861  -33.1606 H   0  0  0  0  0  0  0  0  0  0  0  0
   -5.6300   18.3085  -31.2571 H   0  0  0  0  0  0  0  0  0  0  0  0
   -5.9921   16.5336  -31.1418 H   0  0  0  0  0  0  0  0  0  0  0  0
   -3.8345   17.0776  -32.3430 H   0  0  0  0  0  0  0  0  0  0  0  0
   -5.0204   16.1208  -33.3091 H   0  0  0  0  0  0  0  0  0  0  0  0
   -3.2582   19.0654  -32.7965 H   0  0  0  0  0  0  0  0  0  0  0  0
   -2.7403   18.3292  -34.3510 H   0  0  0  0  0  0  0  0  0  0  0  0
   -3.6732   19.8642  -34.3510 H   0  0  0  0  0  0  0  0  0  0  0  0
   -5.1801   16.4581  -35.1354 H   0  0  0  0  0  0  0  0  0  0  0  0
   -5.7383   18.0340  -35.7924 H   0  0  0  0  0  0  0  0  0  0  0  0
   -3.9880   17.6303  -35.7924 H   0  0  0  0  0  0  0  0  0  0  0  0
   -5.1997   20.4229  -33.0476 H   0  0  0  0  0  0  0  0  0  0  0  0
   -2.6417   21.5537  -30.8180 H   0  0  0  0  0  0  0  0  0  0  0  0
   -2.9138   20.5591  -32.2889 H   0  0  0  0  0  0  0  0  0  0  0  0
   -1.6497   21.8353  -32.2889 H   0  0  0  0  0  0  0  0  0  0  0  0
  1  2  1  0
  2  3  1  0
  3  4  2  0
  4  5  1  0
  5  6  2  0
  6  7  1  0
  7  8  2  0
  8  9  1  0
  9 10  1  0
 10 11  1  0
 11 12  1  0
 12 13  1  0
 13 14  1  0
 14 15  1  0
 14 16  1  0
  9 17  2  0
 17 18  1  0
 18 19  2  0
 19 20  1  0
 20 21  1  0
 19  3  1  0
 17  5  1  0
  1 22  1  0
  1 23  1  0
  1 24  1  0
  4 25  1  0
  6 26  1  0
  7 27  1  0
 10 28  1  0
 11 29  1  0
 11 30  1  0
 12 31  1  0
 12 32  1  0
 13 33  1  0
 13 34  1  0
 15 35  1  0
 15 36  1  0
 15 37  1  0
 16 38  1  0
 16 39  1  0
 16 40  1  0
 18 41  1  0
 21 42  1  0
 21 43  1  0
 21 44  1  0
M  CHG  1   6   1
M  END
>  <UniqueID>  (33) 
33

>  <SMILES>  (33) 
COc1cc2[nH+]cnc(NCCCN(C)C)c2cc1OC

>  <Energy>  (33) 
45.00715942885741

>  <Genealogy>  (33) 
COc1cc2[nH+]cnc(NCCCN(C)C)c2cc1OC (protonated)
COc1cc2[nH+]cnc(NCCCN(C)C)c2cc1OC (3D coordinates assigned)
COc1cc2[nH+]cnc(NCCCN(C)C)c2cc1OC (optimized conformer: 45.00715942885741 kcal/mol)

>  <smiles>  (33) 
COc1cc2ncnc(NCCCN(C)C)c2cc1OC

>  <score_type>  (33) 
oracle

>  <origin>  (33) 
adg

>  <m_score__min__energy>  (33) 
-5.9000000000000004

>  <m_primary>  (33) 
energy

$$$$
33:0
     RDKit          3D

 23 25  0  0  0  0  0  0  0  0999 V2000
   -9.2580   21.5480  -31.2670 C   0  0  0  0  0  0  0  0  0  0  0  0
   -8.0230   21.0650  -31.9690 C   0  0  0  0  0  0  0  0  0  0  0  0
   -8.0290   19.8640  -32.7110 C   0  0  0  0  0  0  0  0  0  0  0  0
   -6.8630   19.4180  -33.3690 C   0  0  0  0  0  0  0  0  0  0  0  0
   -5.6730   20.1590  -33.2970 C   0  0  0  0  0  0  0  0  0  0  0  0
   -5.6770   21.3420  -32.5630 C   0  0  0  0  0  0  0  0  0  0  0  0
   -6.8230   21.7870  -31.9130 C   0  0  0  0  0  0  0  0  0  0  0  0
   -6.4850   23.0460  -31.2440 C   0  0  0  0  0  0  0  0  0  0  0  0
   -7.2580   23.8610  -30.4870 N   0  0  0  0  0  0  0  0  0  0  0  0
   -6.7020   24.9950  -29.9660 C   0  0  0  0  0  0  0  0  0  0  0  0
   -5.3450   25.2990  -30.2200 C   0  0  0  0  0  0  0  0  0  0  0  0
   -4.5870   24.4610  -30.9870 N   0  0  0  0  0  0  0  0  0  0  0  0
   -5.1660   23.3430  -31.4900 C   0  0  0  0  0  0  0  0  0  0  0  0
   -4.5940   22.2990  -32.3240 C   0  0  0  0  0  0  0  0  0  0  0  0
   -3.4120   22.2310  -32.7520 O   0  0  0  0  0  0  0  0  0  0  0  0
   -9.1079   21.4893  -30.1789 H   0  0  0  0  0  0  0  0  0  0  0  0
   -9.4586   22.5908  -31.5537 H   0  0  0  0  0  0  0  0  0  0  0  0
  -10.1129   20.9179  -31.5537 H   0  0  0  0  0  0  0  0  0  0  0  0
   -8.9522   19.2696  -32.7769 H   0  0  0  0  0  0  0  0  0  0  0  0
   -6.8869   18.4805  -33.9439 H   0  0  0  0  0  0  0  0  0  0  0  0
   -4.7614   19.8141  -33.8070 H   0  0  0  0  0  0  0  0  0  0  0  0
   -7.3107   25.6719  -29.3485 H   0  0  0  0  0  0  0  0  0  0  0  0
   -4.8988   26.2121  -29.7991 H   0  0  0  0  0  0  0  0  0  0  0  0
  1  2  1  0
  2  3  2  0
  3  4  1  0
  4  5  2  0
  5  6  1  0
  6  7  2  0
  7  8  1  0
  8  9  2  0
  9 10  1  0
 10 11  2  0
 11 12  1  0
 12 13  2  0
 13 14  1  0
 14 15  2  0
  7  2  1  0
 13  8  1  0
 14  6  1  0
  1 16  1  0
  1 17  1  0
  1 18  1  0
  3 19  1  0
  4 20  1  0
  5 21  1  0
 10 22  1  0
 11 23  1  0
M  END
>  <UniqueID>  (34) 
34

>  <SMILES>  (34) 
Cc1cccc2c1-c1nccnc1C2=O

>  <Energy>  (34) 
64.03477257305157

>  <Genealogy>  (34) 
Cc1cccc2c1-c1nccnc1C2=O (3D coordinates assigned)
Cc1cccc2c1-c1nccnc1C2=O (nonaromatic ring conformer: 64.03477257305157 kcal/mol)

>  <smiles>  (34) 
Cc1cccc2c1-c1nccnc1C2=O

>  <score_type>  (34) 
oracle

>  <origin>  (34) 
adg

>  <m_score__min__energy>  (34) 
-7.2199999999999998

>  <m_primary>  (34) 
energy

$$$$
34:0
     RDKit          3D

 51 53  0  0  0  0  0  0  0  0999 V2000
   -3.8680   24.3310  -27.1980 C   0  0  0  0  0  0  0  0  0  0  0  0
   -3.0050   24.5050  -28.4580 C   0  0  0  0  0  0  0  0  0  0  0  0
   -3.5510   23.8440  -29.6670 N   0  0  0  0  0  0  0  0  0  0  0  0
   -5.0150   24.0040  -29.8000 C   0  0  0  0  0  0  0  0  0  0  0  0
   -5.3390   25.2740  -30.5830 C   0  0  0  0  0  0  0  0  0  0  0  0
   -3.1140   22.4370  -29.8280 C   0  0  0  0  0  0  0  0  0  0  0  0
   -1.5820   22.3340  -29.8810 C   0  0  0  0  0  0  0  0  0  0  0  0
   -1.1400   21.9510  -31.1710 O   0  0  0  0  0  0  0  0  0  0  0  0
   -0.9070   20.5580  -31.2240 C   0  0  0  0  0  0  0  0  0  0  0  0
   -0.4380   20.1900  -32.6230 C   0  0  0  0  0  0  0  0  0  0  0  0
   -1.4550   20.5180  -33.5680 O   0  0  0  0  0  0  0  0  0  0  0  0
   -2.8160   20.6460  -33.2500 C   0  0  0  0  0  0  0  0  0  0  0  0
   -3.3260   21.9260  -33.0260 C   0  0  0  0  0  0  0  0  0  0  0  0
   -4.6770   22.1180  -32.7270 C   0  0  0  0  0  0  0  0  0  0  0  0
   -5.5580   21.0160  -32.6410 C   0  0  0  0  0  0  0  0  0  0  0  0
   -5.0330   19.7180  -32.8600 C   0  0  0  0  0  0  0  0  0  0  0  0
   -3.6780   19.5420  -33.1600 C   0  0  0  0  0  0  0  0  0  0  0  0
   -5.8140   18.6490  -32.7880 O   0  0  0  0  0  0  0  0  0  0  0  0
   -7.1090   18.7100  -32.5140 C   0  0  0  0  0  0  0  0  0  0  0  0
   -7.7710   17.6380  -32.4650 O   0  0  0  0  0  0  0  0  0  0  0  0
   -7.7290   19.9500  -32.2820 C   0  0  0  0  0  0  0  0  0  0  0  0
   -9.1040   20.0280  -31.9880 C   0  0  0  0  0  0  0  0  0  0  0  0
   -9.7060   21.2630  -31.7580 C   0  0  0  0  0  0  0  0  0  0  0  0
   -8.9490   22.4310  -31.8220 C   0  0  0  0  0  0  0  0  0  0  0  0
   -7.5840   22.3740  -32.1130 C   0  0  0  0  0  0  0  0  0  0  0  0
   -6.9460   21.1330  -32.3470 C   0  0  0  0  0  0  0  0  0  0  0  0
   -3.2405   24.4575  -26.3034 H   0  0  0  0  0  0  0  0  0  0  0  0
   -4.6681   25.0859  -27.1944 H   0  0  0  0  0  0  0  0  0  0  0  0
   -4.3130   23.3251  -27.1944 H   0  0  0  0  0  0  0  0  0  0  0  0
   -2.9120   25.5811  -28.6660 H   0  0  0  0  0  0  0  0  0  0  0  0
   -2.0379   24.0255  -28.2463 H   0  0  0  0  0  0  0  0  0  0  0  0
   -5.4285   23.1343  -30.3316 H   0  0  0  0  0  0  0  0  0  0  0  0
   -5.4600   24.0782  -28.7968 H   0  0  0  0  0  0  0  0  0  0  0  0
   -5.5483   26.0944  -29.8807 H   0  0  0  0  0  0  0  0  0  0  0  0
   -4.4808   25.5433  -31.2162 H   0  0  0  0  0  0  0  0  0  0  0  0
   -6.2213   25.0993  -31.2162 H   0  0  0  0  0  0  0  0  0  0  0  0
   -3.4841   21.8466  -28.9768 H   0  0  0  0  0  0  0  0  0  0  0  0
   -3.5221   22.0514  -30.7739 H   0  0  0  0  0  0  0  0  0  0  0  0
   -1.1474   23.3124  -29.6283 H   0  0  0  0  0  0  0  0  0  0  0  0
   -1.2586   21.5689  -29.1599 H   0  0  0  0  0  0  0  0  0  0  0  0
   -0.1333   20.2849  -30.4914 H   0  0  0  0  0  0  0  0  0  0  0  0
   -1.8342   20.0157  -30.9870 H   0  0  0  0  0  0  0  0  0  0  0  0
    0.4783   20.7499  -32.8615 H   0  0  0  0  0  0  0  0  0  0  0  0
   -0.2308   19.1106  -32.6678 H   0  0  0  0  0  0  0  0  0  0  0  0
   -2.6548   22.7954  -33.0858 H   0  0  0  0  0  0  0  0  0  0  0  0
   -5.0585   23.1356  -32.5570 H   0  0  0  0  0  0  0  0  0  0  0  0
   -3.2843   18.5285  -33.3270 H   0  0  0  0  0  0  0  0  0  0  0  0
   -9.7060   19.1086  -31.9397 H   0  0  0  0  0  0  0  0  0  0  0  0
  -10.7799   21.3161  -31.5257 H   0  0  0  0  0  0  0  0  0  0  0  0
   -9.4293   23.4041  -31.6422 H   0  0  0  0  0  0  0  0  0  0  0  0
   -6.9987   23.3041  -32.1608 H   0  0  0  0  0  0  0  0  0  0  0  0
  1  2  1  0
  2  3  1  0
  3  4  1  0
  4  5  1  0
  3  6  1  0
  6  7  1  0
  7  8  1  0
  8  9  1  0
  9 10  1  0
 10 11  1  0
 11 12  1  0
 12 13  2  0
 13 14  1  0
 14 15  2  0
 15 16  1  0
 16 17  2  0
 16 18  1  0
 18 19  1  0
 19 20  2  0
 19 21  1  0
 21 22  2  0
 22 23  1  0
 23 24  2  0
 24 25  1  0
 25 26  2  0
 17 12  1  0
 26 21  1  0
 26 15  1  0
  1 27  1  0
  1 28  1  0
  1 29  1  0
  2 30  1  0
  2 31  1  0
  4 32  1  0
  4 33  1  0
  5 34  1  0
  5 35  1  0
  5 36  1  0
  6 37  1  0
  6 38  1  0
  7 39  1  0
  7 40  1  0
  9 41  1  0
  9 42  1  0
 10 43  1  0
 10 44  1  0
 13 45  1  0
 14 46  1  0
 17 47  1  0
 22 48  1  0
 23 49  1  0
 24 50  1  0
 25 51  1  0
M  END
>  <UniqueID>  (35) 
35

>  <SMILES>  (35) 
CCN(CC)CCOCCOc1ccc2c(c1)oc(=O)c1ccccc12

>  <Energy>  (35) 
64.37086615297129

>  <Genealogy>  (35) 
CCN(CC)CCOCCOc1ccc2c(c1)oc(=O)c1ccccc12 (3D coordinates assigned)
CCN(CC)CCOCCOc1ccc2c(c1)oc(=O)c1ccccc12 (optimized conformer: 64.37086615297129 kcal/mol)

>  <smiles>  (35) 
CCN(CC)CCOCCOc1ccc2c(c1)oc(=O)c1ccccc12

>  <score_type>  (35) 
oracle

>  <origin>  (35) 
adg

>  <m_score__min__energy>  (35) 
-8.4399999999999995

>  <m_primary>  (35) 
energy

$$$$
35:0
     RDKit          3D

 49 51  0  0  0  0  0  0  0  0999 V2000
   -3.5540   23.6420  -28.2280 C   0  0  0  0  0  0  0  0  0  0  0  0
   -3.0390   24.5760  -29.3190 C   0  0  0  0  0  0  0  0  0  0  0  0
   -3.8660   24.4730  -30.5490 N   0  0  0  0  0  0  0  0  0  0  0  0
   -4.9780   25.4540  -30.4930 C   0  0  0  0  0  0  0  0  0  0  0  0
   -6.2030   24.8350  -29.8250 C   0  0  0  0  0  0  0  0  0  0  0  0
   -4.3850   23.0920  -30.6940 C   0  0  0  0  0  0  0  0  0  0  0  0
   -3.6610   22.2880  -31.7920 C   0  0  0  0  0  0  0  0  0  0  0  0
   -4.5350   21.9420  -32.9180 N   0  0  0  0  0  0  0  0  0  0  0  0
   -5.6540   21.0420  -32.8010 C   0  0  0  0  0  0  0  0  0  0  0  0
   -6.9240   21.5120  -32.4160 C   0  0  0  0  0  0  0  0  0  0  0  0
   -7.2090   22.8930  -32.3870 C   0  0  0  0  0  0  0  0  0  0  0  0
   -8.4700   23.3530  -32.0150 C   0  0  0  0  0  0  0  0  0  0  0  0
   -9.4760   22.4480  -31.7000 C   0  0  0  0  0  0  0  0  0  0  0  0
   -9.2300   21.0760  -31.7600 C   0  0  0  0  0  0  0  0  0  0  0  0
   -7.9500   20.5770  -32.1090 C   0  0  0  0  0  0  0  0  0  0  0  0
   -7.6960   19.2210  -32.1870 N   0  0  0  0  0  0  0  0  0  0  0  0
   -8.6430   18.2540  -31.5900 C   0  0  0  0  0  0  0  0  0  0  0  0
   -6.5520   18.7710  -32.8180 C   0  0  0  0  0  0  0  0  0  0  0  0
   -6.3930   17.4130  -33.1920 C   0  0  0  0  0  0  0  0  0  0  0  0
   -5.2070   16.9600  -33.7720 C   0  0  0  0  0  0  0  0  0  0  0  0
   -5.0340   15.2700  -34.2150 Cl  0  0  0  0  0  0  0  0  0  0  0  0
   -4.1610   17.8470  -34.0060 C   0  0  0  0  0  0  0  0  0  0  0  0
   -4.3020   19.1940  -33.6820 C   0  0  0  0  0  0  0  0  0  0  0  0
   -5.4970   19.6770  -33.1080 C   0  0  0  0  0  0  0  0  0  0  0  0
   -3.3197   24.0670  -27.2408 H   0  0  0  0  0  0  0  0  0  0  0  0
   -4.6433   23.5265  -28.3283 H   0  0  0  0  0  0  0  0  0  0  0  0
   -3.0703   22.6592  -28.3283 H   0  0  0  0  0  0  0  0  0  0  0  0
   -3.0724   25.6117  -28.9499 H   0  0  0  0  0  0  0  0  0  0  0  0
   -2.0075   24.2859  -29.5675 H   0  0  0  0  0  0  0  0  0  0  0  0
   -4.6564   26.3334  -29.9157 H   0  0  0  0  0  0  0  0  0  0  0  0
   -5.2433   25.7503  -31.5186 H   0  0  0  0  0  0  0  0  0  0  0  0
   -6.0922   24.8910  -28.7320 H   0  0  0  0  0  0  0  0  0  0  0  0
   -7.1049   25.3856  -30.1308 H   0  0  0  0  0  0  0  0  0  0  0  0
   -6.2947   23.7823  -30.1308 H   0  0  0  0  0  0  0  0  0  0  0  0
   -4.2590   22.5678  -29.7352 H   0  0  0  0  0  0  0  0  0  0  0  0
   -5.4431   23.1673  -30.9853 H   0  0  0  0  0  0  0  0  0  0  0  0
   -2.8217   22.8894  -32.1714 H   0  0  0  0  0  0  0  0  0  0  0  0
   -3.3186   21.3459  -31.3390 H   0  0  0  0  0  0  0  0  0  0  0  0
   -4.2700   22.2930  -33.8660 H   0  0  0  0  0  0  0  0  0  0  0  0
   -6.4261   23.6154  -32.6614 H   0  0  0  0  0  0  0  0  0  0  0  0
   -8.6696   24.4338  -31.9706 H   0  0  0  0  0  0  0  0  0  0  0  0
  -10.4696   22.8144  -31.4024 H   0  0  0  0  0  0  0  0  0  0  0  0
  -10.0425   20.3701  -31.5328 H   0  0  0  0  0  0  0  0  0  0  0  0
   -8.5849   18.3133  -30.4931 H   0  0  0  0  0  0  0  0  0  0  0  0
   -9.6658   18.4932  -31.9165 H   0  0  0  0  0  0  0  0  0  0  0  0
   -8.3825   17.2364  -31.9165 H   0  0  0  0  0  0  0  0  0  0  0  0
   -7.2175   16.7049  -33.0224 H   0  0  0  0  0  0  0  0  0  0  0  0
   -3.2213   17.4838  -34.4476 H   0  0  0  0  0  0  0  0  0  0  0  0
   -3.4721   19.8895  -33.8758 H   0  0  0  0  0  0  0  0  0  0  0  0
  1  2  1  0
  2  3  1  0
  3  4  1  0
  4  5  1  0
  3  6  1  0
  6  7  1  0
  7  8  1  0
  8  9  1  0
  9 10  2  0
 10 11  1  0
 11 12  2  0
 12 13  1  0
 13 14  2  0
 14 15  1  0
 15 16  2  0
 16 17  1  0
 16 18  1  0
 18 19  2  0
 19 20  1  0
 20 21  1  0
 20 22  2  0
 22 23  1  0
 23 24  2  0
 24  9  1  0
 15 10  1  0
 24 18  1  0
  1 25  1  0
  1 26  1  0
  1 27  1  0
  2 28  1  0
  2 29  1  0
  4 30  1  0
  4 31  1  0
  5 32  1  0
  5 33  1  0
  5 34  1  0
  6 35  1  0
  6 36  1  0
  7 37  1  0
  7 38  1  0
  8 39  1  0
 11 40  1  0
 12 41  1  0
 13 42  1  0
 14 43  1  0
 17 44  1  0
 17 45  1  0
 17 46  1  0
 19 47  1  0
 22 48  1  0
 23 49  1  0
M  CHG  1  16   1
M  END
>  <UniqueID>  (36) 
36

>  <SMILES>  (36) 
CCN(CC)CCNc1c2ccccc2[n+](C)c2cc(Cl)ccc12

>  <Energy>  (36) 
72.38431822020243

>  <Genealogy>  (36) 
CCN(CC)CCNc1c2ccccc2[n+](C)c2cc(Cl)ccc12 (3D coordinates assigned)
CCN(CC)CCNc1c2ccccc2[n+](C)c2cc(Cl)ccc12 (optimized conformer: 72.38431822020243 kcal/mol)

>  <smiles>  (36) 
CCN(CC)CCNc1c2ccccc2[n+](C)c2cc(Cl)ccc12

>  <score_type>  (36) 
oracle

>  <origin>  (36) 
adg

>  <m_score__min__energy>  (36) 
-8.8599999999999994

>  <m_primary>  (36) 
energy

$$$$
36:0
     RDKit          3D

 56 58  0  0  0  0  0  0  0  0999 V2000
   -1.2210   21.0960  -30.6440 C   0  0  0  0  0  0  0  0  0  0  0  0
   -2.7170   20.7750  -30.7770 C   0  0  0  0  0  0  0  0  0  0  0  0
   -3.2330   20.7830  -32.1720 N   0  0  1  0  0  0  0  0  0  0  0  0
   -2.3080   21.4860  -33.0830 C   0  0  0  0  0  0  0  0  0  0  0  0
   -3.5610   19.4420  -32.7180 C   0  0  0  0  0  0  0  0  0  0  0  0
   -4.9210   19.3870  -33.4300 C   0  0  0  0  0  0  0  0  0  0  0  0
   -5.5110   20.6830  -33.4630 O   0  0  0  0  0  0  0  0  0  0  0  0
   -6.6330   21.0580  -32.7120 C   0  0  0  0  0  0  0  0  0  0  0  0
   -7.8580   20.3530  -32.7440 C   0  0  0  0  0  0  0  0  0  0  0  0
   -8.9440   20.7750  -31.9550 C   0  0  0  0  0  0  0  0  0  0  0  0
   -8.8070   21.9020  -31.1330 C   0  0  0  0  0  0  0  0  0  0  0  0
   -7.6160   22.5520  -31.1350 N   0  0  0  0  0  0  0  0  0  0  0  0
   -7.2240   23.6280  -30.4400 C   0  0  0  0  0  0  0  0  0  0  0  0
   -5.9100   23.8780  -30.8020 C   0  0  0  0  0  0  0  0  0  0  0  0
   -5.0360   24.9450  -30.2210 C   0  0  0  0  0  0  0  0  0  0  0  0
   -3.6380   24.7260  -30.6140 N   0  0  0  0  0  0  0  0  0  0  0  0
   -2.9630   23.8040  -29.6930 C   0  0  0  0  0  0  0  0  0  0  0  0
   -2.5270   24.5520  -28.4650 C   0  0  0  0  0  0  0  0  0  0  0  0
   -1.3510   25.3190  -28.4800 C   0  0  0  0  0  0  0  0  0  0  0  0
   -0.9640   26.0410  -27.3460 C   0  0  0  0  0  0  0  0  0  0  0  0
   -1.7570   26.0140  -26.1830 C   0  0  0  0  0  0  0  0  0  0  0  0
   -1.4120   26.7190  -25.0210 O   0  0  0  0  0  0  0  0  0  0  0  0
   -0.5670   26.2110  -23.9950 C   0  0  0  0  0  0  0  0  0  0  0  0
   -2.9380   25.2600  -26.1780 C   0  0  0  0  0  0  0  0  0  0  0  0
   -3.3250   24.5390  -27.3110 C   0  0  0  0  0  0  0  0  0  0  0  0
   -5.4800   22.9610  -31.7040 N   0  0  0  0  0  0  0  0  0  0  0  0
   -6.5620   22.1740  -31.8780 C   0  0  0  0  0  0  0  0  0  0  0  0
   -0.9517   21.1538  -29.5791 H   0  0  0  0  0  0  0  0  0  0  0  0
   -0.6315   20.3039  -31.1288 H   0  0  0  0  0  0  0  0  0  0  0  0
   -1.0084   22.0602  -31.1288 H   0  0  0  0  0  0  0  0  0  0  0  0
   -2.8919   19.7753  -30.3528 H   0  0  0  0  0  0  0  0  0  0  0  0
   -3.2544   21.5722  -30.2425 H   0  0  0  0  0  0  0  0  0  0  0  0
   -4.1140   21.3500  -32.1630 H   0  0  0  0  0  0  0  0  0  0  0  0
   -1.5688   22.0478  -32.4931 H   0  0  0  0  0  0  0  0  0  0  0  0
   -1.7896   20.7519  -33.7173 H   0  0  0  0  0  0  0  0  0  0  0  0
   -2.8765   22.1821  -33.7173 H   0  0  0  0  0  0  0  0  0  0  0  0
   -2.7792   19.1583  -33.4379 H   0  0  0  0  0  0  0  0  0  0  0  0
   -3.6136   18.7491  -31.8653 H   0  0  0  0  0  0  0  0  0  0  0  0
   -4.7781   19.0264  -34.4593 H   0  0  0  0  0  0  0  0  0  0  0  0
   -5.5860   18.7034  -32.8819 H   0  0  0  0  0  0  0  0  0  0  0  0
   -7.9629   19.4688  -33.3899 H   0  0  0  0  0  0  0  0  0  0  0  0
   -9.8953   20.2234  -31.9832 H   0  0  0  0  0  0  0  0  0  0  0  0
   -9.6405   22.2493  -30.5048 H   0  0  0  0  0  0  0  0  0  0  0  0
   -7.8279   24.2017  -29.7215 H   0  0  0  0  0  0  0  0  0  0  0  0
   -5.3675   25.9269  -30.5898 H   0  0  0  0  0  0  0  0  0  0  0  0
   -5.1097   24.9112  -29.1240 H   0  0  0  0  0  0  0  0  0  0  0  0
   -3.6420   24.2800  -31.5620 H   0  0  0  0  0  0  0  0  0  0  0  0
   -3.6564   22.9999  -29.4056 H   0  0  0  0  0  0  0  0  0  0  0  0
   -2.0827   23.3694  -30.1892 H   0  0  0  0  0  0  0  0  0  0  0  0
   -0.7309   25.3523  -29.3880 H   0  0  0  0  0  0  0  0  0  0  0  0
   -0.0365   26.6321  -27.3631 H   0  0  0  0  0  0  0  0  0  0  0  0
   -0.9901   26.4654  -23.0120 H   0  0  0  0  0  0  0  0  0  0  0  0
   -0.4916   25.1177  -24.0899 H   0  0  0  0  0  0  0  0  0  0  0  0
    0.4339   26.6572  -24.0899 H   0  0  0  0  0  0  0  0  0  0  0  0
   -3.5657   25.2353  -25.2750 H   0  0  0  0  0  0  0  0  0  0  0  0
   -4.2594   23.9587  -27.2980 H   0  0  0  0  0  0  0  0  0  0  0  0
  1  2  1  0
  2  3  1  0
  3  4  1  0
  3  5  1  0
  5  6  1  0
  6  7  1  0
  7  8  1  0
  8  9  2  0
  9 10  1  0
 10 11  2  0
 11 12  1  0
 12 13  1  0
 13 14  2  0
 14 15  1  0
 15 16  1  0
 16 17  1  0
 17 18  1  0
 18 19  2  0
 19 20  1  0
 20 21  2  0
 21 22  1  0
 22 23  1  0
 21 24  1  0
 24 25  2  0
 14 26  1  0
 26 27  2  0
 27  8  1  0
 27 12  1  0
 25 18  1  0
  1 28  1  0
  1 29  1  0
  1 30  1  0
  2 31  1  0
  2 32  1  0
  3 33  1  1
  4 34  1  0
  4 35  1  0
  4 36  1  0
  5 37  1  0
  5 38  1  0
  6 39  1  0
  6 40  1  0
  9 41  1  0
 10 42  1  0
 11 43  1  0
 13 44  1  0
 15 45  1  0
 15 46  1  0
 16 47  1  0
 17 48  1  0
 17 49  1  0
 19 50  1  0
 20 51  1  0
 23 52  1  0
 23 53  1  0
 23 54  1  0
 24 55  1  0
 25 56  1  0
M  CHG  1   3   1
M  END
>  <UniqueID>  (37) 
37

>  <SMILES>  (37) 
CC[N@@H+](C)CCOc1cccn2cc(CNCc3ccc(OC)cc3)nc12

>  <Energy>  (37) 
88.97962611810931

>  <Genealogy>  (37) 
CC[NH+](C)CCOc1cccn2cc(CNCc3ccc(OC)cc3)nc12 (protonated)
CC[N@@H+](C)CCOc1cccn2cc(CNCc3ccc(OC)cc3)nc12 (chirality)
CC[N@@H+](C)CCOc1cccn2cc(CNCc3ccc(OC)cc3)nc12 (3D coordinates assigned)
CC[N@@H+](C)CCOc1cccn2cc(CNCc3ccc(OC)cc3)nc12 (optimized conformer: 88.97962611810931 kcal/mol)

>  <smiles>  (37) 
CCN(C)CCOc1cccn2cc(CNCc3ccc(OC)cc3)nc12

>  <score_type>  (37) 
oracle

>  <origin>  (37) 
adg

>  <m_score__min__energy>  (37) 
-6.3899999999999997

>  <m_primary>  (37) 
energy

$$$$
37:0
     RDKit          3D

 34 33  0  0  0  0  0  0  0  0999 V2000
   -1.9140   25.6280  -26.5570 C   0  0  0  0  0  0  0  0  0  0  0  0
   -1.0980   25.9080  -27.8160 C   0  0  0  0  0  0  0  0  0  0  0  0
   -1.8610   25.6090  -28.9700 O   0  0  0  0  0  0  0  0  0  0  0  0
   -2.2480   24.2510  -28.9710 C   0  0  0  0  0  0  0  0  0  0  0  0
   -3.2840   24.0270  -30.0680 C   0  0  0  0  0  0  0  0  0  0  0  0
   -3.8700   25.3110  -30.4740 N   0  0  0  0  0  0  0  0  0  0  0  0
   -5.3390   25.2820  -30.4020 C   0  0  0  0  0  0  0  0  0  0  0  0
   -5.9350   24.3190  -31.4410 C   0  0  0  0  0  0  0  0  0  0  0  0
   -7.1200   23.5010  -30.8970 C   0  0  0  0  0  0  0  0  0  0  0  0
   -7.6890   22.6090  -31.9340 N   0  0  0  0  0  0  0  0  0  0  0  0
   -8.9410   21.9870  -31.4690 C   0  0  0  0  0  0  0  0  0  0  0  0
   -6.7210   21.5570  -32.2840 C   0  0  0  0  0  0  0  0  0  0  0  0
   -1.3008   25.8384  -25.6683 H   0  0  0  0  0  0  0  0  0  0  0  0
   -2.8061   26.2714  -26.5476 H   0  0  0  0  0  0  0  0  0  0  0  0
   -2.2231   24.5724  -26.5476 H   0  0  0  0  0  0  0  0  0  0  0  0
   -0.8119   26.9700  -27.8348 H   0  0  0  0  0  0  0  0  0  0  0  0
   -0.1975   25.2763  -27.8077 H   0  0  0  0  0  0  0  0  0  0  0  0
   -1.3687   23.6177  -29.1602 H   0  0  0  0  0  0  0  0  0  0  0  0
   -2.6805   23.9886  -27.9942 H   0  0  0  0  0  0  0  0  0  0  0  0
   -2.7994   23.5567  -30.9364 H   0  0  0  0  0  0  0  0  0  0  0  0
   -4.0799   23.3714  -29.6851 H   0  0  0  0  0  0  0  0  0  0  0  0
   -3.5340   26.0390  -29.7990 H   0  0  0  0  0  0  0  0  0  0  0  0
   -5.6412   24.9544  -29.3963 H   0  0  0  0  0  0  0  0  0  0  0  0
   -5.7149   26.2939  -30.6137 H   0  0  0  0  0  0  0  0  0  0  0  0
   -6.2819   24.9063  -32.3040 H   0  0  0  0  0  0  0  0  0  0  0  0
   -5.1446   23.6061  -31.7186 H   0  0  0  0  0  0  0  0  0  0  0  0
   -6.7730   22.8892  -30.0512 H   0  0  0  0  0  0  0  0  0  0  0  0
   -7.9050   24.2027  -30.5785 H   0  0  0  0  0  0  0  0  0  0  0  0
   -8.9594   21.9778  -30.3692 H   0  0  0  0  0  0  0  0  0  0  0  0
   -9.7988   22.5637  -31.8453 H   0  0  0  0  0  0  0  0  0  0  0  0
   -8.9996   20.9550  -31.8453 H   0  0  0  0  0  0  0  0  0  0  0  0
   -6.3129   21.1134  -31.3639 H   0  0  0  0  0  0  0  0  0  0  0  0
   -7.2243   20.7775  -32.8749 H   0  0  0  0  0  0  0  0  0  0  0  0
   -5.9024   21.9938  -32.8749 H   0  0  0  0  0  0  0  0  0  0  0  0
  1  2  1  0
  2  3  1  0
  3  4  1  0
  4  5  1  0
  5  6  1  0
  6  7  1  0
  7  8  1  0
  8  9  1  0
  9 10  1  0
 10 11  1  0
 10 12  1  0
  1 13  1  0
  1 14  1  0
  1 15  1  0
  2 16  1  0
  2 17  1  0
  4 18  1  0
  4 19  1  0
  5 20  1  0
  5 21  1  0
  6 22  1  0
  7 23  1  0
  7 24  1  0
  8 25  1  0
  8 26  1  0
  9 27  1  0
  9 28  1  0
 11 29  1  0
 11 30  1  0
 11 31  1  0
 12 32  1  0
 12 33  1  0
 12 34  1  0
M  END
>  <UniqueID>  (38) 
38

>  <SMILES>  (38) 
CCOCCNCCCN(C)C

>  <Energy>  (38) 
22.85071576336801

>  <Genealogy>  (38) 
CCOCCNCCCN(C)C (3D coordinates assigned)
CCOCCNCCCN(C)C (optimized conformer: 22.85071576336801 kcal/mol)

>  <smiles>  (38) 
CCOCCNCCCN(C)C

>  <score_type>  (38) 
oracle

>  <origin>  (38) 
adg

>  <m_score__min__energy>  (38) 
-5.0199999999999996

>  <m_primary>  (38) 
energy

$$$$
38:0
     RDKit          3D

 62 64  0  0  0  0  0  0  0  0999 V2000
   -8.3970   18.2970  -31.6390 C   0  0  0  0  0  0  0  0  0  0  0  0
   -9.1310   19.3930  -32.4120 C   0  0  0  0  0  0  0  0  0  0  0  0
   -8.4420   20.7000  -32.2900 N   0  0  0  0  0  0  0  0  0  0  0  0
   -9.2150   21.6450  -31.4510 C   0  0  0  0  0  0  0  0  0  0  0  0
   -9.0680   23.0720  -31.9840 C   0  0  0  0  0  0  0  0  0  0  0  0
   -7.0670   20.5150  -31.7630 C   0  0  0  0  0  0  0  0  0  0  0  0
   -6.0300   21.1310  -32.7080 C   0  0  0  0  0  0  0  0  0  0  0  0
   -5.8670   22.5250  -32.4420 O   0  0  0  0  0  0  0  0  0  0  0  0
   -5.1220   23.0780  -31.3880 C   0  0  0  0  0  0  0  0  0  0  0  0
   -3.9390   22.4340  -31.0070 C   0  0  0  0  0  0  0  0  0  0  0  0
   -3.1730   22.9220  -29.9470 C   0  0  0  0  0  0  0  0  0  0  0  0
   -3.5690   24.0820  -29.2540 C   0  0  0  0  0  0  0  0  0  0  0  0
   -2.7420   24.6090  -28.1380 C   0  0  0  0  0  0  0  0  0  0  0  0
   -1.4800   25.1770  -28.3890 C   0  0  0  0  0  0  0  0  0  0  0  0
   -0.7120   25.6910  -27.3400 C   0  0  0  0  0  0  0  0  0  0  0  0
   -1.1960   25.6560  -26.0250 C   0  0  0  0  0  0  0  0  0  0  0  0
   -0.4000   26.2690  -24.8970 C   0  0  0  0  0  0  0  0  0  0  0  0
    0.2740   25.2410  -24.0820 N   0  0  0  0  0  0  0  0  0  0  0  0
    1.2930   24.5070  -24.8550 C   0  0  0  0  0  0  0  0  0  0  0  0
    0.6620   23.3540  -25.5940 C   0  0  0  0  0  0  0  0  0  0  0  0
    1.0570   23.0490  -26.9080 C   0  0  0  0  0  0  0  0  0  0  0  0
    0.4480   21.9930  -27.5990 C   0  0  0  0  0  0  0  0  0  0  0  0
   -0.5600   21.2400  -26.9840 C   0  0  0  0  0  0  0  0  0  0  0  0
   -0.9740   21.5540  -25.6850 C   0  0  0  0  0  0  0  0  0  0  0  0
   -0.3670   22.6060  -24.9920 C   0  0  0  0  0  0  0  0  0  0  0  0
   -2.4520   25.0850  -25.7700 C   0  0  0  0  0  0  0  0  0  0  0  0
   -3.2180   24.5630  -26.8160 C   0  0  0  0  0  0  0  0  0  0  0  0
   -4.7410   24.7440  -29.6570 C   0  0  0  0  0  0  0  0  0  0  0  0
   -5.5110   24.2500  -30.7140 C   0  0  0  0  0  0  0  0  0  0  0  0
   -8.5127   18.4698  -30.5588 H   0  0  0  0  0  0  0  0  0  0  0  0
   -8.8213   17.3165  -31.9010 H   0  0  0  0  0  0  0  0  0  0  0  0
   -7.3288   18.3161  -31.9010 H   0  0  0  0  0  0  0  0  0  0  0  0
   -9.1770   19.1112  -33.4743 H   0  0  0  0  0  0  0  0  0  0  0  0
  -10.1414   19.4953  -31.9892 H   0  0  0  0  0  0  0  0  0  0  0  0
  -10.2771   21.3593  -31.4673 H   0  0  0  0  0  0  0  0  0  0  0  0
   -8.8298   21.6064  -30.4214 H   0  0  0  0  0  0  0  0  0  0  0  0
   -8.9958   23.7732  -31.1395 H   0  0  0  0  0  0  0  0  0  0  0  0
   -8.1579   23.1422  -32.5978 H   0  0  0  0  0  0  0  0  0  0  0  0
   -9.9447   23.3263  -32.5978 H   0  0  0  0  0  0  0  0  0  0  0  0
   -6.9904   21.0006  -30.7790 H   0  0  0  0  0  0  0  0  0  0  0  0
   -6.8664   19.4369  -31.6770 H   0  0  0  0  0  0  0  0  0  0  0  0
   -5.0654   20.6215  -32.5665 H   0  0  0  0  0  0  0  0  0  0  0  0
   -6.3794   21.0079  -33.7438 H   0  0  0  0  0  0  0  0  0  0  0  0
   -3.6098   21.5347  -31.5481 H   0  0  0  0  0  0  0  0  0  0  0  0
   -2.2532   22.3964  -29.6509 H   0  0  0  0  0  0  0  0  0  0  0  0
   -1.0944   25.2171  -29.4184 H   0  0  0  0  0  0  0  0  0  0  0  0
    0.2772   26.1251  -27.5476 H   0  0  0  0  0  0  0  0  0  0  0  0
    0.3598   26.9417  -25.3216 H   0  0  0  0  0  0  0  0  0  0  0  0
   -1.0957   26.8196  -24.2468 H   0  0  0  0  0  0  0  0  0  0  0  0
   -0.4500   24.5590  -23.7540 H   0  0  0  0  0  0  0  0  0  0  0  0
    0.7110   25.6840  -23.2390 H   0  0  0  0  0  0  0  0  0  0  0  0
    1.7599   25.1901  -25.5798 H   0  0  0  0  0  0  0  0  0  0  0  0
    2.0522   24.1145  -24.1625 H   0  0  0  0  0  0  0  0  0  0  0  0
    1.8461   23.6407  -27.3951 H   0  0  0  0  0  0  0  0  0  0  0  0
    0.7621   21.7551  -28.6260 H   0  0  0  0  0  0  0  0  0  0  0  0
   -1.0263   20.4016  -27.5223 H   0  0  0  0  0  0  0  0  0  0  0  0
   -1.7774   20.9730  -25.2086 H   0  0  0  0  0  0  0  0  0  0  0  0
   -0.6955   22.8502  -23.9710 H   0  0  0  0  0  0  0  0  0  0  0  0
   -2.8364   25.0479  -24.7400 H   0  0  0  0  0  0  0  0  0  0  0  0
   -4.1992   24.1135  -26.6036 H   0  0  0  0  0  0  0  0  0  0  0  0
   -5.0557   25.6600  -29.1356 H   0  0  0  0  0  0  0  0  0  0  0  0
   -6.4250   24.7800  -31.0201 H   0  0  0  0  0  0  0  0  0  0  0  0
  1  2  1  0
  2  3  1  0
  3  4  1  0
  4  5  1  0
  3  6  1  0
  6  7  1  0
  7  8  1  0
  8  9  1  0
  9 10  2  0
 10 11  1  0
 11 12  2  0
 12 13  1  0
 13 14  2  0
 14 15  1  0
 15 16  2  0
 16 17  1  0
 17 18  1  0
 18 19  1  0
 19 20  1  0
 20 21  2  0
 21 22  1  0
 22 23  2  0
 23 24  1  0
 24 25  2  0
 16 26  1  0
 26 27  2  0
 12 28  1  0
 28 29  2  0
 29  9  1  0
 27 13  1  0
 25 20  1  0
  1 30  1  0
  1 31  1  0
  1 32  1  0
  2 33  1  0
  2 34  1  0
  4 35  1  0
  4 36  1  0
  5 37  1  0
  5 38  1  0
  5 39  1  0
  6 40  1  0
  6 41  1  0
  7 42  1  0
  7 43  1  0
 10 44  1  0
 11 45  1  0
 14 46  1  0
 15 47  1  0
 17 48  1  0
 17 49  1  0
 18 50  1  0
 18 51  1  0
 19 52  1  0
 19 53  1  0
 21 54  1  0
 22 55  1  0
 23 56  1  0
 24 57  1  0
 25 58  1  0
 26 59  1  0
 27 60  1  0
 28 61  1  0
 29 62  1  0
M  CHG  1  18   1
M  END
>  <UniqueID>  (39) 
39

>  <SMILES>  (39) 
CCN(CC)CCOc1ccc(-c2ccc(C[NH2+]Cc3ccccc3)cc2)cc1

>  <Energy>  (39) 
65.29687968645192

>  <Genealogy>  (39) 
CCN(CC)CCOc1ccc(-c2ccc(C[NH2+]Cc3ccccc3)cc2)cc1 (protonated)
CCN(CC)CCOc1ccc(-c2ccc(C[NH2+]Cc3ccccc3)cc2)cc1 (3D coordinates assigned)
CCN(CC)CCOc1ccc(-c2ccc(C[NH2+]Cc3ccccc3)cc2)cc1 (optimized conformer: 65.29687968645192 kcal/mol)

>  <smiles>  (39) 
CCN(CC)CCOc1ccc(-c2ccc(CNCc3ccccc3)cc2)cc1

>  <score_type>  (39) 
oracle

>  <origin>  (39) 
adg

>  <m_score__min__energy>  (39) 
-8.3100000000000005

>  <m_primary>  (39) 
energy

$$$$
39:0
     RDKit          3D

 39 40  0  0  0  0  0  0  0  0999 V2000
   -4.0920   21.5630  -33.1150 C   0  0  0  0  0  0  0  0  0  0  0  0
   -5.3920   20.9820  -33.0910 O   0  0  0  0  0  0  0  0  0  0  0  0
   -5.6750   19.6400  -33.3940 C   0  0  0  0  0  0  0  0  0  0  0  0
   -4.7870   18.8540  -34.1560 C   0  0  0  0  0  0  0  0  0  0  0  0
   -5.0620   17.5080  -34.4020 C   0  0  0  0  0  0  0  0  0  0  0  0
   -6.2220   16.9260  -33.8910 C   0  0  0  0  0  0  0  0  0  0  0  0
   -6.5600   15.2320  -34.1930 Cl  0  0  0  0  0  0  0  0  0  0  0  0
   -7.1170   17.6940  -33.1410 C   0  0  0  0  0  0  0  0  0  0  0  0
   -6.8640   19.0560  -32.9010 C   0  0  0  0  0  0  0  0  0  0  0  0
   -7.8410   19.8380  -32.1120 C   0  0  0  0  0  0  0  0  0  0  0  0
   -8.9640   19.3310  -31.8430 O   0  0  0  0  0  0  0  0  0  0  0  0
   -7.5380   21.1750  -31.6810 N   0  0  0  0  0  0  0  0  0  0  0  0
   -8.4270   21.9390  -30.8080 C   0  0  0  0  0  0  0  0  0  0  0  0
   -7.6190   22.6760  -29.7320 C   0  0  0  0  0  0  0  0  0  0  0  0
   -6.4940   23.4270  -30.3280 N   0  0  0  0  0  0  0  0  0  0  0  0
   -5.2220   23.0180  -29.7080 C   0  0  0  0  0  0  0  0  0  0  0  0
   -4.0400   23.7630  -30.3680 C   0  0  0  0  0  0  0  0  0  0  0  0
   -4.4640   24.8430  -31.1820 O   0  0  0  0  0  0  0  0  0  0  0  0
   -5.3710   25.6540  -30.4640 C   0  0  0  0  0  0  0  0  0  0  0  0
   -6.6800   24.8900  -30.1880 C   0  0  0  0  0  0  0  0  0  0  0  0
   -3.7413   21.7197  -32.0842 H   0  0  0  0  0  0  0  0  0  0  0  0
   -3.3988   20.8890  -33.6397 H   0  0  0  0  0  0  0  0  0  0  0  0
   -4.1317   22.5290  -33.6397 H   0  0  0  0  0  0  0  0  0  0  0  0
   -3.8691   19.3055  -34.5604 H   0  0  0  0  0  0  0  0  0  0  0  0
   -4.3627   16.9051  -34.9999 H   0  0  0  0  0  0  0  0  0  0  0  0
   -8.0273   17.2288  -32.7349 H   0  0  0  0  0  0  0  0  0  0  0  0
   -6.6670   21.6410  -32.0200 H   0  0  0  0  0  0  0  0  0  0  0  0
   -8.9826   22.6731  -31.4100 H   0  0  0  0  0  0  0  0  0  0  0  0
   -9.1255   21.2458  -30.3165 H   0  0  0  0  0  0  0  0  0  0  0  0
   -8.2808   23.3794  -29.2054 H   0  0  0  0  0  0  0  0  0  0  0  0
   -7.2092   21.9315  -29.0336 H   0  0  0  0  0  0  0  0  0  0  0  0
   -5.2480   23.2573  -28.6347 H   0  0  0  0  0  0  0  0  0  0  0  0
   -5.0866   21.9356  -29.8495 H   0  0  0  0  0  0  0  0  0  0  0  0
   -3.3840   24.1545  -29.5765 H   0  0  0  0  0  0  0  0  0  0  0  0
   -3.5123   23.0457  -31.0137 H   0  0  0  0  0  0  0  0  0  0  0  0
   -4.9146   25.9469  -29.5069 H   0  0  0  0  0  0  0  0  0  0  0  0
   -5.6010   26.5464  -31.0646 H   0  0  0  0  0  0  0  0  0  0  0  0
   -7.0141   25.1115  -29.1636 H   0  0  0  0  0  0  0  0  0  0  0  0
   -7.4309   25.2146  -30.9233 H   0  0  0  0  0  0  0  0  0  0  0  0
  1  2  1  0
  2  3  1  0
  3  4  2  0
  4  5  1  0
  5  6  2  0
  6  7  1  0
  6  8  1  0
  8  9  2  0
  9 10  1  0
 10 11  2  0
 10 12  1  0
 12 13  1  0
 13 14  1  0
 14 15  1  0
 15 16  1  0
 16 17  1  0
 17 18  1  0
 18 19  1  0
 19 20  1  0
  9  3  1  0
 20 15  1  0
  1 21  1  0
  1 22  1  0
  1 23  1  0
  4 24  1  0
  5 25  1  0
  8 26  1  0
 12 27  1  0
 13 28  1  0
 13 29  1  0
 14 30  1  0
 14 31  1  0
 16 32  1  0
 16 33  1  0
 17 34  1  0
 17 35  1  0
 19 36  1  0
 19 37  1  0
 20 38  1  0
 20 39  1  0
M  END
>  <UniqueID>  (40) 
40

>  <SMILES>  (40) 
COc1ccc(Cl)cc1C(=O)NCCN1CCOCC1

>  <Energy>  (40) 
48.15682736270736

>  <Genealogy>  (40) 
COc1ccc(Cl)cc1C(=O)NCCN1CCOCC1 (3D coordinates assigned)
COc1ccc(Cl)cc1C(=O)NCCN1CCOCC1 (nonaromatic ring conformer: 48.15682736270736 kcal/mol)

>  <smiles>  (40) 
COc1ccc(Cl)cc1C(=O)NCCN1CCOCC1

>  <score_type>  (40) 
oracle

>  <origin>  (40) 
adg

>  <m_score__min__energy>  (40) 
-7.8499999999999996

>  <m_primary>  (40) 
energy

$$$$
40:0
     RDKit          3D

 43 45  0  0  0  0  0  0  0  0999 V2000
  -10.1612   21.7233  -31.3517 H   0  0  0  0  0  0  0  0  0  0  0  0
   -9.1060   21.5700  -31.6220 C   0  0  0  0  0  0  0  0  0  0  0  0
   -8.7390   20.4620  -32.3870 C   0  0  0  0  0  0  0  0  0  0  0  0
   -9.5040   19.7415  -32.7122 H   0  0  0  0  0  0  0  0  0  0  0  0
   -7.3920   20.2650  -32.7430 C   0  0  0  0  0  0  0  0  0  0  0  0
   -6.9750   19.1820  -33.5330 O   0  0  0  0  0  0  0  0  0  0  0  0
   -5.7800   18.4350  -33.3040 C   0  0  0  0  0  0  0  0  0  0  0  0
   -5.3121   18.1872  -34.2682 H   0  0  0  0  0  0  0  0  0  0  0  0
   -5.0824   19.0351  -32.7012 H   0  0  0  0  0  0  0  0  0  0  0  0
   -6.1190   17.1500  -32.5590 C   0  0  0  0  0  0  0  0  0  0  0  0
   -4.9960   16.3410  -32.5010 F   0  0  0  0  0  0  0  0  0  0  0  0
   -6.5330   17.4480  -31.2720 F   0  0  0  0  0  0  0  0  0  0  0  0
   -7.1300   16.4800  -33.2240 F   0  0  0  0  0  0  0  0  0  0  0  0
   -6.4240   21.1780  -32.3010 C   0  0  0  0  0  0  0  0  0  0  0  0
   -5.3688   21.0208  -32.5689 H   0  0  0  0  0  0  0  0  0  0  0  0
   -6.7830   22.2950  -31.5180 C   0  0  0  0  0  0  0  0  0  0  0  0
   -5.7650   23.2780  -31.0550 C   0  0  0  0  0  0  0  0  0  0  0  0
   -4.5120   22.8440  -30.7420 N   0  0  0  0  0  0  0  0  0  0  0  0
   -3.5440   23.6930  -30.2910 C   0  0  0  0  0  0  0  0  0  0  0  0
   -2.3640   23.2550  -29.9580 N   0  0  0  0  0  0  0  0  0  0  0  0
   -2.0370   22.4250  -28.8330 C   0  0  0  0  0  0  0  0  0  0  0  0
   -1.5850   22.8300  -27.5900 C   0  0  0  0  0  0  0  0  0  0  0  0
   -1.3439   23.8554  -27.2730 H   0  0  0  0  0  0  0  0  0  0  0  0
   -1.4990   21.6800  -26.8290 C   0  0  0  0  0  0  0  0  0  0  0  0
   -1.1522   21.6370  -25.7860 H   0  0  0  0  0  0  0  0  0  0  0  0
   -1.9040   20.6170  -27.5560 N   0  0  0  0  0  0  0  0  0  0  0  0
   -1.8980   19.2240  -27.1160 C   0  0  0  0  0  0  0  0  0  0  0  0
   -0.9975   19.0372  -26.5125 H   0  0  0  0  0  0  0  0  0  0  0  0
   -1.9002   18.5681  -27.9991 H   0  0  0  0  0  0  0  0  0  0  0  0
   -3.1370   18.9330  -26.2760 C   0  0  0  0  0  0  0  0  0  0  0  0
   -2.8788   18.9937  -25.2085 H   0  0  0  0  0  0  0  0  0  0  0  0
   -3.9183   19.6721  -26.5068 H   0  0  0  0  0  0  0  0  0  0  0  0
   -3.5076   17.9234  -26.5068 H   0  0  0  0  0  0  0  0  0  0  0  0
   -2.2340   21.0630  -28.7810 C   0  0  0  0  0  0  0  0  0  0  0  0
   -2.6024   20.4396  -29.6091 H   0  0  0  0  0  0  0  0  0  0  0  0
   -3.8370   25.0140  -30.1380 N   0  0  0  0  0  0  0  0  0  0  0  0
   -3.1080   25.6750  -29.7830 H   0  0  0  0  0  0  0  0  0  0  0  0
   -5.0640   25.4990  -30.4560 C   0  0  0  0  0  0  0  0  0  0  0  0
   -5.2740   26.5728  -30.3428 H   0  0  0  0  0  0  0  0  0  0  0  0
   -6.0590   24.6440  -30.9250 C   0  0  0  0  0  0  0  0  0  0  0  0
   -7.0543   25.0316  -31.1879 H   0  0  0  0  0  0  0  0  0  0  0  0
   -8.1400   22.4850  -31.1980 C   0  0  0  0  0  0  0  0  0  0  0  0
   -8.4428   23.3627  -30.6082 H   0  0  0  0  0  0  0  0  0  0  0  0
  1  2  1  0
  2  3  2  0
  3  4  1  0
  3  5  1  0
  5  6  1  0
  6  7  1  0
  7  8  1  0
  7  9  1  0
  7 10  1  0
 10 11  1  0
 10 12  1  0
 10 13  1  0
  5 14  2  0
 14 15  1  0
 14 16  1  0
 16 17  1  0
 17 18  2  0
 18 19  1  0
 19 20  2  0
 20 21  1  0
 21 22  1  0
 22 23  1  0
 22 24  2  0
 24 25  1  0
 24 26  1  0
 26 27  1  0
 27 28  1  0
 27 29  1  0
 27 30  1  0
 30 31  1  0
 30 32  1  0
 30 33  1  0
 26 34  1  0
 34 35  1  0
 19 36  1  0
 36 37  1  0
 36 38  1  0
 38 39  1  0
 38 40  2  0
 40 41  1  0
 16 42  2  0
 42 43  1  0
 42  2  1  0
 40 17  1  0
 34 21  2  0
M  END
>  <UniqueID>  (41) 
41

>  <SMILES>  (41) 
CCn1ccc(/N=c2\nc(-c3cccc(OCC(F)(F)F)c3)cc[nH]2)c1

>  <Energy>  (41) 
73.47110171635549

>  <Genealogy>  (41) 
CCn1ccc(/N=c2\nc(-c3cccc(OCC(F)(F)F)c3)cc[nH]2)c1 (cis-trans isomerization)
CCn1ccc(/N=c2\nc(-c3cccc(OCC(F)(F)F)c3)cc[nH]2)c1 (3D coordinates assigned)
CCn1ccc(/N=c2\nc(-c3cccc(OCC(F)(F)F)c3)cc[nH]2)c1 (optimized conformer: 73.47110171635549 kcal/mol)

>  <smiles>  (41) 
CCn1ccc(N=c2nc(-c3cccc(OCC(F)(F)F)c3)cc[nH]2)c1

>  <score_type>  (41) 
oracle

>  <origin>  (41) 
adg

>  <m_score__min__energy>  (41) 
-7.6600000000000001

>  <m_primary>  (41) 
energy

$$$$
41:0
     RDKit          3D

 36 38  0  0  1  0  0  0  0  0999 V2000
   -8.4170   18.6270  -31.6290 C   0  0  0  0  0  0  0  0  0  0  0  0
   -9.0310   19.6210  -32.5620 C   0  0  0  0  0  0  0  0  0  0  0  0
   -8.5310   20.9660  -32.2780 N   0  0  0  0  0  0  0  0  0  0  0  0
   -9.2620   22.0320  -31.9090 C   0  0  0  0  0  0  0  0  0  0  0  0
   -8.4460   23.0890  -31.7400 N   0  0  0  0  0  0  0  0  0  0  0  0
   -7.1780   22.6780  -32.0090 C   0  0  0  0  0  0  0  0  0  0  0  0
   -5.9450   23.3020  -32.0060 C   0  0  0  0  0  0  0  0  0  0  0  0
   -5.9230   24.5510  -31.6860 N   0  0  0  0  0  0  0  0  0  0  0  0
   -5.8770   25.0160  -30.3210 C   0  0  0  0  0  0  0  0  0  0  0  0
   -4.6250   24.4760  -29.7150 C   0  0  0  0  0  0  0  0  0  0  0  0
   -4.6090   24.1770  -28.3480 C   0  0  0  0  0  0  0  0  0  0  0  0
   -3.4720   23.6730  -27.7370 C   0  0  0  0  0  0  0  0  0  0  0  0
   -2.3410   23.4750  -28.5370 C   0  0  0  0  0  0  0  0  0  0  0  0
   -2.3770   23.7770  -29.8860 C   0  0  0  0  0  0  0  0  0  0  0  0
   -3.5050   24.2640  -30.4320 N   0  0  0  0  0  0  0  0  0  0  0  0
   -4.7980   22.6690  -32.3170 N   0  0  0  0  0  0  0  0  0  0  0  0
   -4.8940   21.3660  -32.6420 C   0  0  0  0  0  0  0  0  0  0  0  0
   -3.6510   20.6340  -32.9900 C   0  0  0  0  0  0  0  0  0  0  0  0
   -6.0840   20.7180  -32.6560 N   0  0  0  0  0  0  0  0  0  0  0  0
   -7.2360   21.3420  -32.3470 C   0  0  0  0  0  0  0  0  0  0  0  0
   -8.6065   18.9338  -30.5898 H   0  0  0  0  0  0  0  0  0  0  0  0
   -8.8605   17.6359  -31.8054 H   0  0  0  0  0  0  0  0  0  0  0  0
   -7.3323   18.5799  -31.8054 H   0  0  0  0  0  0  0  0  0  0  0  0
   -8.7762   19.3511  -33.5975 H   0  0  0  0  0  0  0  0  0  0  0  0
  -10.1224   19.6107  -32.4254 H   0  0  0  0  0  0  0  0  0  0  0  0
  -10.3529   22.0393  -31.7677 H   0  0  0  0  0  0  0  0  0  0  0  0
   -5.8637   26.1157  -30.2973 H   0  0  0  0  0  0  0  0  0  0  0  0
   -6.7609   24.6756  -29.7617 H   0  0  0  0  0  0  0  0  0  0  0  0
   -5.5153   24.3451  -27.7477 H   0  0  0  0  0  0  0  0  0  0  0  0
   -3.4589   23.4372  -26.6626 H   0  0  0  0  0  0  0  0  0  0  0  0
   -1.4180   23.0768  -28.0902 H   0  0  0  0  0  0  0  0  0  0  0  0
   -1.4853   23.6192  -30.5105 H   0  0  0  0  0  0  0  0  0  0  0  0
   -3.8880   23.1870  -32.2990 H   0  0  0  0  0  0  0  0  0  0  0  0
   -3.1343   20.3297  -32.0678 H   0  0  0  0  0  0  0  0  0  0  0  0
   -3.9044   19.7409  -33.5801 H   0  0  0  0  0  0  0  0  0  0  0  0
   -2.9929   21.2888  -33.5801 H   0  0  0  0  0  0  0  0  0  0  0  0
  1  2  1  0
  2  3  1  0
  3  4  1  0
  4  5  2  0
  5  6  1  0
  6  7  1  0
  7  8  2  0
  8  9  1  0
  9 10  1  0
 10 11  2  0
 11 12  1  0
 12 13  2  0
 13 14  1  0
 14 15  2  0
  7 16  1  0
 16 17  1  0
 17 18  1  0
 17 19  2  0
 19 20  1  0
 20  3  1  0
 20  6  2  0
 15 10  1  0
  1 21  1  0
  1 22  1  0
  1 23  1  0
  2 24  1  0
  2 25  1  0
  4 26  1  0
  9 27  1  0
  9 28  1  0
 11 29  1  0
 12 30  1  0
 13 31  1  0
 14 32  1  0
 16 33  1  0
 18 34  1  0
 18 35  1  0
 18 36  1  0
M  END
>  <smiles>  (42) 
CCn1cnc2c(=NCc3ccccn3)[nH]c(C)nc21

>  <score_type>  (42) 
oracle

>  <origin>  (42) 
adg

>  <m_score__min__energy>  (42) 
-6.8200000000000003

>  <m_primary>  (42) 
energy

$$$$
42:0
     RDKit          3D

 47 49  0  0  0  0  0  0  0  0999 V2000
   -4.2910   19.2040  -33.7790 C   0  0  0  0  0  0  0  0  0  0  0  0
   -5.7350   19.0350  -34.2480 C   0  0  0  0  0  0  0  0  0  0  0  0
   -6.6360   18.6950  -33.1350 N   0  0  0  0  0  0  0  0  0  0  0  0
   -6.8020   17.2980  -32.7010 C   0  0  0  0  0  0  0  0  0  0  0  0
   -6.5380   16.3200  -33.8440 C   0  0  0  0  0  0  0  0  0  0  0  0
   -7.5720   19.6840  -32.6660 C   0  0  0  0  0  0  0  0  0  0  0  0
   -8.9540   19.5730  -32.7280 C   0  0  0  0  0  0  0  0  0  0  0  0
   -9.4720   20.7430  -32.1910 C   0  0  0  0  0  0  0  0  0  0  0  0
   -8.3800   21.5030  -31.8200 C   0  0  0  0  0  0  0  0  0  0  0  0
   -8.3750   22.7530  -31.2080 C   0  0  0  0  0  0  0  0  0  0  0  0
   -7.1340   23.3210  -30.8880 C   0  0  0  0  0  0  0  0  0  0  0  0
   -5.9300   22.6340  -31.1770 C   0  0  0  0  0  0  0  0  0  0  0  0
   -4.6100   23.2090  -30.8280 C   0  0  0  0  0  0  0  0  0  0  0  0
   -4.3240   24.3760  -31.2170 O   0  0  0  0  0  0  0  0  0  0  0  0
   -3.6610   22.4730  -30.0390 N   0  0  0  0  0  0  0  0  0  0  0  0
   -2.3320   22.9950  -29.7300 C   0  0  0  0  0  0  0  0  0  0  0  0
   -2.3960   23.9120  -28.5390 C   0  0  0  0  0  0  0  0  0  0  0  0
   -3.5520   23.9740  -27.7440 C   0  0  0  0  0  0  0  0  0  0  0  0
   -3.5940   24.8140  -26.6260 C   0  0  0  0  0  0  0  0  0  0  0  0
   -2.4830   25.5930  -26.2930 C   0  0  0  0  0  0  0  0  0  0  0  0
   -1.3280   25.5330  -27.0760 C   0  0  0  0  0  0  0  0  0  0  0  0
   -1.2810   24.6950  -28.1950 C   0  0  0  0  0  0  0  0  0  0  0  0
   -6.0080   21.3650  -31.7860 C   0  0  0  0  0  0  0  0  0  0  0  0
   -7.2320   20.8620  -32.1010 N   0  0  0  0  0  0  0  0  0  0  0  0
   -4.2607   19.2076  -32.6794 H   0  0  0  0  0  0  0  0  0  0  0  0
   -3.6819   18.3710  -34.1599 H   0  0  0  0  0  0  0  0  0  0  0  0
   -3.8907   20.1551  -34.1599 H   0  0  0  0  0  0  0  0  0  0  0  0
   -6.0733   19.9767  -34.7048 H   0  0  0  0  0  0  0  0  0  0  0  0
   -5.7636   18.2098  -34.9748 H   0  0  0  0  0  0  0  0  0  0  0  0
   -6.0952   17.0915  -31.8838 H   0  0  0  0  0  0  0  0  0  0  0  0
   -7.8407   17.1628  -32.3650 H   0  0  0  0  0  0  0  0  0  0  0  0
   -6.2724   15.3359  -33.4305 H   0  0  0  0  0  0  0  0  0  0  0  0
   -7.4429   16.2258  -34.4623 H   0  0  0  0  0  0  0  0  0  0  0  0
   -5.7086   16.6939  -34.4623 H   0  0  0  0  0  0  0  0  0  0  0  0
   -9.5274   18.7227  -33.1256 H   0  0  0  0  0  0  0  0  0  0  0  0
  -10.5336   21.0102  -32.0830 H   0  0  0  0  0  0  0  0  0  0  0  0
   -9.3148   23.2784  -30.9826 H   0  0  0  0  0  0  0  0  0  0  0  0
   -7.0951   24.3099  -30.4078 H   0  0  0  0  0  0  0  0  0  0  0  0
   -3.9360   21.5630  -29.6060 H   0  0  0  0  0  0  0  0  0  0  0  0
   -1.6556   22.1567  -29.5068 H   0  0  0  0  0  0  0  0  0  0  0  0
   -1.9585   23.5596  -30.5970 H   0  0  0  0  0  0  0  0  0  0  0  0
   -4.4276   23.3599  -28.0013 H   0  0  0  0  0  0  0  0  0  0  0  0
   -4.5030   24.8612  -26.0083 H   0  0  0  0  0  0  0  0  0  0  0  0
   -2.5180   26.2536  -25.4141 H   0  0  0  0  0  0  0  0  0  0  0  0
   -0.4536   26.1460  -26.8122 H   0  0  0  0  0  0  0  0  0  0  0  0
   -0.3685   24.6488  -28.8075 H   0  0  0  0  0  0  0  0  0  0  0  0
   -5.0948   20.7914  -32.0028 H   0  0  0  0  0  0  0  0  0  0  0  0
  1  2  1  0
  2  3  1  0
  3  4  1  0
  4  5  1  0
  3  6  1  0
  6  7  2  0
  7  8  1  0
  8  9  2  0
  9 10  1  0
 10 11  2  0
 11 12  1  0
 12 13  1  0
 13 14  2  0
 13 15  1  0
 15 16  1  0
 16 17  1  0
 17 18  2  0
 18 19  1  0
 19 20  2  0
 20 21  1  0
 21 22  2  0
 12 23  2  0
 23 24  1  0
 24  6  1  0
 24  9  1  0
 22 17  1  0
  1 25  1  0
  1 26  1  0
  1 27  1  0
  2 28  1  0
  2 29  1  0
  4 30  1  0
  4 31  1  0
  5 32  1  0
  5 33  1  0
  5 34  1  0
  7 35  1  0
  8 36  1  0
 10 37  1  0
 11 38  1  0
 15 39  1  0
 16 40  1  0
 16 41  1  0
 18 42  1  0
 19 43  1  0
 20 44  1  0
 21 45  1  0
 22 46  1  0
 23 47  1  0
M  END
>  <UniqueID>  (43) 
42

>  <SMILES>  (43) 
CCN(CC)c1ccc2ccc(C(=O)NCc3ccccc3)cn12

>  <Energy>  (43) 
79.9685393145793

>  <Genealogy>  (43) 
CCN(CC)c1ccc2ccc(C(=O)NCc3ccccc3)cn12 (3D coordinates assigned)
CCN(CC)c1ccc2ccc(C(=O)NCc3ccccc3)cn12 (optimized conformer: 79.9685393145793 kcal/mol)

>  <smiles>  (43) 
CCN(CC)c1ccc2ccc(C(=O)NCc3ccccc3)cn12

>  <score_type>  (43) 
oracle

>  <origin>  (43) 
adg

>  <m_score__min__energy>  (43) 
-8.5199999999999996

>  <m_primary>  (43) 
energy

$$$$
43:0
     RDKit          3D

 52 55  0  0  0  0  0  0  0  0999 V2000
   -0.3960   24.2770  -29.1740 H   0  0  0  0  0  0  0  0  0  0  0  0
    0.3330   24.5380  -28.5510 O   0  0  0  0  0  0  0  0  0  0  0  0
   -0.2800   24.9530  -27.3580 C   0  0  1  0  0  0  0  0  0  0  0  0
   -0.1502   24.1804  -26.5858 H   0  0  0  0  0  0  0  0  0  0  0  0
    0.3730   26.2530  -26.8920 C   0  0  0  0  0  0  0  0  0  0  0  0
    0.3877   26.2823  -25.7925 H   0  0  0  0  0  0  0  0  0  0  0  0
    1.4033   26.3032  -27.2740 H   0  0  0  0  0  0  0  0  0  0  0  0
   -0.2018   27.1095  -27.2740 H   0  0  0  0  0  0  0  0  0  0  0  0
   -1.7880   25.1610  -27.5820 C   0  0  0  0  0  0  0  0  0  0  0  0
   -2.1076   26.0707  -27.0526 H   0  0  0  0  0  0  0  0  0  0  0  0
   -2.3230   24.2807  -27.1962 H   0  0  0  0  0  0  0  0  0  0  0  0
   -2.0950   25.3040  -29.0060 N   0  0  0  0  0  0  0  0  0  0  0  0
   -2.7250   24.4200  -29.7210 C   0  0  0  0  0  0  0  0  0  0  0  0
   -4.0720   24.5450  -29.9650 N   0  0  0  0  0  0  0  0  0  0  0  0
   -4.7680   23.6310  -30.7070 C   0  0  0  0  0  0  0  0  0  0  0  0
   -6.1870   23.7870  -30.9010 N   0  0  0  0  0  0  0  0  0  0  0  0
   -7.1110   23.5360  -29.7910 C   0  0  0  0  0  0  0  0  0  0  0  0
   -6.5354   23.3513  -28.8720 H   0  0  0  0  0  0  0  0  0  0  0  0
   -7.7591   24.4141  -29.6539 H   0  0  0  0  0  0  0  0  0  0  0  0
   -7.9870   22.3010  -30.1040 C   0  0  0  0  0  0  0  0  0  0  0  0
   -7.6209   21.4544  -29.5047 H   0  0  0  0  0  0  0  0  0  0  0  0
   -9.0244   22.5713  -29.8576 H   0  0  0  0  0  0  0  0  0  0  0  0
   -7.9700   21.9220  -31.4740 O   0  0  0  0  0  0  0  0  0  0  0  0
   -8.0670   23.0600  -32.3090 C   0  0  0  0  0  0  0  0  0  0  0  0
   -8.2559   22.7390  -33.3440 H   0  0  0  0  0  0  0  0  0  0  0  0
   -8.8947   23.6964  -31.9627 H   0  0  0  0  0  0  0  0  0  0  0  0
   -6.7560   23.8560  -32.2530 C   0  0  0  0  0  0  0  0  0  0  0  0
   -6.0402   23.4311  -32.9721 H   0  0  0  0  0  0  0  0  0  0  0  0
   -6.9590   24.9067  -32.5074 H   0  0  0  0  0  0  0  0  0  0  0  0
   -4.0440   22.5550  -31.2230 C   0  0  0  0  0  0  0  0  0  0  0  0
   -2.7140   22.4510  -30.9720 C   0  0  0  0  0  0  0  0  0  0  0  0
   -2.0330   23.3590  -30.2340 N   0  0  0  0  0  0  0  0  0  0  0  0
   -2.2680   21.3330  -31.6360 C   0  0  0  0  0  0  0  0  0  0  0  0
   -1.2389   20.9448  -31.6490 H   0  0  0  0  0  0  0  0  0  0  0  0
   -3.3430   20.8000  -32.2730 N   0  0  0  0  0  0  0  0  0  0  0  0
   -3.3400   19.6230  -33.1050 C   0  0  0  0  0  0  0  0  0  0  0  0
   -2.1350   18.9740  -33.4230 C   0  0  0  0  0  0  0  0  0  0  0  0
   -1.1840   19.3671  -33.0343 H   0  0  0  0  0  0  0  0  0  0  0  0
   -2.1360   17.8320  -34.2300 C   0  0  0  0  0  0  0  0  0  0  0  0
   -1.1853   17.3339  -34.4709 H   0  0  0  0  0  0  0  0  0  0  0  0
   -3.3360   17.3170  -34.7340 C   0  0  0  0  0  0  0  0  0  0  0  0
   -3.2830   16.1700  -35.5400 O   0  0  0  0  0  0  0  0  0  0  0  0
   -2.1600   15.2990  -35.6240 C   0  0  0  0  0  0  0  0  0  0  0  0
   -1.8224   15.0372  -34.6103 H   0  0  0  0  0  0  0  0  0  0  0  0
   -2.4454   14.3837  -36.1633 H   0  0  0  0  0  0  0  0  0  0  0  0
   -1.3445   15.8031  -36.1633 H   0  0  0  0  0  0  0  0  0  0  0  0
   -4.5450   17.9630  -34.4160 C   0  0  0  0  0  0  0  0  0  0  0  0
   -5.4952   17.5675  -34.8043 H   0  0  0  0  0  0  0  0  0  0  0  0
   -4.5450   19.1050  -33.6090 C   0  0  0  0  0  0  0  0  0  0  0  0
   -5.4960   19.6018  -33.3668 H   0  0  0  0  0  0  0  0  0  0  0  0
   -4.4220   21.5450  -32.0270 N   0  0  0  0  0  0  0  0  0  0  0  0
   -5.3660   21.3920  -32.4430 H   0  0  0  0  0  0  0  0  0  0  0  0
  1  2  1  0
  2  3  1  0
  3  4  1  1
  3  5  1  0
  5  6  1  0
  5  7  1  0
  5  8  1  0
  3  9  1  0
  9 10  1  0
  9 11  1  0
  9 12  1  0
 12 13  2  0
 13 14  1  0
 14 15  2  0
 15 16  1  0
 16 17  1  0
 17 18  1  0
 17 19  1  0
 17 20  1  0
 20 21  1  0
 20 22  1  0
 20 23  1  0
 23 24  1  0
 24 25  1  0
 24 26  1  0
 24 27  1  0
 27 28  1  0
 27 29  1  0
 15 30  1  0
 30 31  1  0
 31 32  1  0
 31 33  2  0
 33 34  1  0
 33 35  1  0
 35 36  1  0
 36 37  2  0
 37 38  1  0
 37 39  1  0
 39 40  1  0
 39 41  2  0
 41 42  1  0
 42 43  1  0
 43 44  1  0
 43 45  1  0
 43 46  1  0
 41 47  1  0
 47 48  1  0
 47 49  2  0
 49 50  1  0
 35 51  1  0
 51 52  1  0
 32 13  1  0
 49 36  1  0
 27 16  1  0
 51 30  2  0
M  CHG  2  32  -1  51   1
M  END
>  <UniqueID>  (44) 
43

>  <SMILES>  (44) 
COc1ccc(-n2cc3[n-]/c(=N/C[C@H](C)O)nc(N4CCOCC4)c3[nH+]2)cc1

>  <Energy>  (44) 
107.02788565702886

>  <Genealogy>  (44) 
COc1ccc(-n2cc3[n-]c(=NCC(C)O)nc(N4CCOCC4)c3[nH+]2)cc1 (protonated)
COc1ccc(-n2cc3[n-]c(=NC[C@H](C)O)nc(N4CCOCC4)c3[nH+]2)cc1 (chirality)
COc1ccc(-n2cc3[n-]/c(=N/C[C@H](C)O)nc(N4CCOCC4)c3[nH+]2)cc1 (cis-trans isomerization)
COc1ccc(-n2cc3[n-]/c(=N/C[C@H](C)O)nc(N4CCOCC4)c3[nH+]2)cc1 (3D coordinates assigned)
COc1ccc(-n2cc3[n-]/c(=N/C[C@H](C)O)nc(N4CCOCC4)c3[nH+]2)cc1 (nonaromatic ring conformer: 107.02788565702886 kcal/mol)

>  <smiles>  (44) 
COc1ccc(-n2cc3[nH]c(=NCC(C)O)nc(N4CCOCC4)c3n2)cc1

>  <score_type>  (44) 
oracle

>  <origin>  (44) 
adg

>  <m_score__min__energy>  (44) 
-6.9400000000000004

>  <m_primary>  (44) 
energy

$$$$
