1:0
     RDKit          3D

 57 59  0  0  0  0  0  0  0  0999 V2000
   -1.5990   26.0300  -26.7500 C   0  0  0  0  0  0  0  0  0  0  0  0
   -1.0770   25.6360  -28.1080 C   0  0  0  0  0  0  0  0  0  0  0  0
   -0.0470   24.5350  -27.9060 C   0  0  0  0  0  0  0  0  0  0  0  0
   -2.1530   25.2520  -28.9700 N   0  0  0  0  0  0  0  0  0  0  0  0
   -2.4510   23.8570  -29.0030 C   0  0  0  0  0  0  0  0  0  0  0  0
   -3.4770   23.5630  -30.0980 C   0  0  0  0  0  0  0  0  0  0  0  0
   -3.8600   24.7060  -30.7840 O   0  0  0  0  0  0  0  0  0  0  0  0
   -5.1850   25.0330  -30.6830 C   0  0  0  0  0  0  0  0  0  0  0  0
   -6.1520   23.9490  -31.0690 C   0  0  0  0  0  0  0  0  0  0  0  0
   -5.7690   23.2870  -32.3030 N   0  0  0  0  0  0  0  0  0  0  0  0
   -5.8930   21.8810  -32.5020 C   0  0  0  0  0  0  0  0  0  0  0  0
   -4.7680   21.1610  -32.8630 C   0  0  0  0  0  0  0  0  0  0  0  0
   -4.8230   19.7970  -33.0710 C   0  0  0  0  0  0  0  0  0  0  0  0
   -5.9930   19.1510  -32.9190 N   0  0  0  0  0  0  0  0  0  0  0  0
   -6.1550   17.7250  -33.1130 C   0  0  0  0  0  0  0  0  0  0  0  0
   -7.1140   19.8330  -32.5640 C   0  0  0  0  0  0  0  0  0  0  0  0
   -8.3290   19.1680  -32.4050 C   0  0  0  0  0  0  0  0  0  0  0  0
   -9.4830   19.8300  -32.0440 C   0  0  0  0  0  0  0  0  0  0  0  0
   -9.4260   21.1930  -31.8370 C   0  0  0  0  0  0  0  0  0  0  0  0
   -8.2170   21.8350  -31.9990 C   0  0  0  0  0  0  0  0  0  0  0  0
   -7.0600   21.1840  -32.3590 C   0  0  0  0  0  0  0  0  0  0  0  0
   -3.6490   18.9790  -33.4570 C   0  0  0  0  0  0  0  0  0  0  0  0
   -2.4190   19.7820  -33.7640 C   0  0  0  0  0  0  0  0  0  0  0  0
   -2.2900   20.9970  -32.8650 C   0  0  0  0  0  0  0  0  0  0  0  0
   -3.4940   21.9110  -33.0200 C   0  0  0  0  0  0  0  0  0  0  0  0
   -0.9802   25.5629  -25.9697 H   0  0  0  0  0  0  0  0  0  0  0  0
   -1.5578   27.1242  -26.6446 H   0  0  0  0  0  0  0  0  0  0  0  0
   -2.6400   25.6904  -26.6446 H   0  0  0  0  0  0  0  0  0  0  0  0
   -0.5881   26.4845  -28.6090 H   0  0  0  0  0  0  0  0  0  0  0  0
    0.1072   24.3702  -26.8294 H   0  0  0  0  0  0  0  0  0  0  0  0
   -0.4076   23.6057  -28.3713 H   0  0  0  0  0  0  0  0  0  0  0  0
    0.9042   24.8329  -28.3713 H   0  0  0  0  0  0  0  0  0  0  0  0
   -2.0580   25.6740  -29.9190 H   0  0  0  0  0  0  0  0  0  0  0  0
   -1.5290   23.2931  -29.2078 H   0  0  0  0  0  0  0  0  0  0  0  0
   -2.8670   23.5553  -28.0304 H   0  0  0  0  0  0  0  0  0  0  0  0
   -3.0367   22.8526  -30.8132 H   0  0  0  0  0  0  0  0  0  0  0  0
   -4.3728   23.1455  -29.6151 H   0  0  0  0  0  0  0  0  0  0  0  0
   -5.3866   25.3101  -29.6377 H   0  0  0  0  0  0  0  0  0  0  0  0
   -5.3487   25.8517  -31.3992 H   0  0  0  0  0  0  0  0  0  0  0  0
   -6.1873   23.2020  -30.2623 H   0  0  0  0  0  0  0  0  0  0  0  0
   -7.1361   24.4145  -31.2266 H   0  0  0  0  0  0  0  0  0  0  0  0
   -5.3790   23.8500  -33.1050 H   0  0  0  0  0  0  0  0  0  0  0  0
   -6.2117   17.2259  -32.1344 H   0  0  0  0  0  0  0  0  0  0  0  0
   -7.0806   17.5344  -33.6760 H   0  0  0  0  0  0  0  0  0  0  0  0
   -5.2958   17.3316  -33.6760 H   0  0  0  0  0  0  0  0  0  0  0  0
   -8.3680   18.0816  -32.5728 H   0  0  0  0  0  0  0  0  0  0  0  0
  -10.4297   19.2830  -31.9235 H   0  0  0  0  0  0  0  0  0  0  0  0
  -10.3263   21.7554  -31.5488 H   0  0  0  0  0  0  0  0  0  0  0  0
   -8.1754   22.9215  -31.8322 H   0  0  0  0  0  0  0  0  0  0  0  0
   -3.4169   18.2944  -32.6279 H   0  0  0  0  0  0  0  0  0  0  0  0
   -3.9212   18.4485  -34.3814 H   0  0  0  0  0  0  0  0  0  0  0  0
   -1.5346   19.1428  -33.6251 H   0  0  0  0  0  0  0  0  0  0  0  0
   -2.4970   20.1364  -34.8024 H   0  0  0  0  0  0  0  0  0  0  0  0
   -2.2206   20.6658  -31.8183 H   0  0  0  0  0  0  0  0  0  0  0  0
   -1.3850   21.5533  -33.1505 H   0  0  0  0  0  0  0  0  0  0  0  0
   -3.4460   22.6992  -32.2542 H   0  0  0  0  0  0  0  0  0  0  0  0
   -3.4706   22.3462  -34.0300 H   0  0  0  0  0  0  0  0  0  0  0  0
  1  2  1  0
  2  3  1  0
  2  4  1  0
  4  5  1  0
  5  6  1  0
  6  7  1  0
  7  8  1  0
  8  9  1  0
  9 10  1  0
 10 11  1  0
 11 12  2  0
 12 13  1  0
 13 14  2  0
 14 15  1  0
 14 16  1  0
 16 17  2  0
 17 18  1  0
 18 19  2  0
 19 20  1  0
 20 21  2  0
 13 22  1  0
 22 23  1  0
 23 24  1  0
 24 25  1  0
 21 11  1  0
 25 12  1  0
 21 16  1  0
  1 26  1  0
  1 27  1  0
  1 28  1  0
  2 29  1  0
  3 30  1  0
  3 31  1  0
  3 32  1  0
  4 33  1  0
  5 34  1  0
  5 35  1  0
  6 36  1  0
  6 37  1  0
  8 38  1  0
  8 39  1  0
  9 40  1  0
  9 41  1  0
 10 42  1  0
 15 43  1  0
 15 44  1  0
 15 45  1  0
 17 46  1  0
 18 47  1  0
 19 48  1  0
 20 49  1  0
 22 50  1  0
 22 51  1  0
 23 52  1  0
 23 53  1  0
 24 54  1  0
 24 55  1  0
 25 56  1  0
 25 57  1  0
M  CHG  1  14   1
M  END
>  <smiles>  (1) 
CC(C)NCCOCCNc1c2c([n+](C)c3ccccc13)CCCC2

>  <score_type>  (1) 
oracle

>  <origin>  (1) 
adg

>  <m_score__min__energy>  (1) 
-9.6699999999999999

>  <m_primary>  (1) 
energy

$$$$
2:0
     RDKit          3D

 52 54  0  0  0  0  0  0  0  0999 V2000
   -8.9970   23.1610  -31.9960 C   0  0  0  0  0  0  0  0  0  0  0  0
   -8.3000   21.8440  -32.1000 C   0  0  0  0  0  0  0  0  0  0  0  0
   -9.0150   20.6990  -31.8220 C   0  0  0  0  0  0  0  0  0  0  0  0
   -8.3350   19.4880  -31.9260 C   0  0  0  0  0  0  0  0  0  0  0  0
   -9.0370   18.2040  -31.6440 C   0  0  0  0  0  0  0  0  0  0  0  0
   -7.0010   19.4740  -32.2950 C   0  0  0  0  0  0  0  0  0  0  0  0
   -6.2870   20.6210  -32.5710 C   0  0  0  0  0  0  0  0  0  0  0  0
   -4.9160   20.6260  -32.9450 N   0  0  0  0  0  0  0  0  0  0  0  0
   -4.2370   21.8990  -33.1300 C   0  0  0  0  0  0  0  0  0  0  0  0
   -2.7390   21.6280  -33.0870 C   0  0  0  0  0  0  0  0  0  0  0  0
   -2.4150   20.7220  -32.0570 N   0  0  0  0  0  0  0  0  0  0  0  0
   -2.0320   21.2150  -30.8000 C   0  0  0  0  0  0  0  0  0  0  0  0
   -2.8590   22.3690  -30.3670 C   0  0  0  0  0  0  0  0  0  0  0  0
   -2.2440   23.4380  -30.1050 O   0  0  0  0  0  0  0  0  0  0  0  0
   -4.2520   22.3600  -30.2340 N   0  0  0  0  0  0  0  0  0  0  0  0
   -4.9500   23.5530  -29.8040 C   0  0  0  0  0  0  0  0  0  0  0  0
   -4.7630   24.6770  -30.8320 C   0  0  0  0  0  0  0  0  0  0  0  0
   -5.7530   25.6960  -30.2480 C   0  0  0  0  0  0  0  0  0  0  0  0
   -6.9000   24.8540  -29.7270 C   0  0  0  0  0  0  0  0  0  0  0  0
   -6.4450   23.4120  -29.7850 C   0  0  0  0  0  0  0  0  0  0  0  0
   -3.0670   19.4680  -32.0320 C   0  0  0  0  0  0  0  0  0  0  0  0
   -4.1300   19.4320  -33.1530 C   0  0  0  0  0  0  0  0  0  0  0  0
   -6.9690   21.8150  -32.4660 C   0  0  0  0  0  0  0  0  0  0  0  0
   -9.1343   23.4205  -30.9359 H   0  0  0  0  0  0  0  0  0  0  0  0
   -8.3912   23.9363  -32.4878 H   0  0  0  0  0  0  0  0  0  0  0  0
   -9.9788   23.0961  -32.4878 H   0  0  0  0  0  0  0  0  0  0  0  0
  -10.0750   20.7398  -31.5311 H   0  0  0  0  0  0  0  0  0  0  0  0
   -9.1156   18.0603  -30.5563 H   0  0  0  0  0  0  0  0  0  0  0  0
  -10.0448   18.2328  -32.0838 H   0  0  0  0  0  0  0  0  0  0  0  0
   -8.4687   17.3711  -32.0838 H   0  0  0  0  0  0  0  0  0  0  0  0
   -6.4873   18.5043  -32.3715 H   0  0  0  0  0  0  0  0  0  0  0  0
   -4.5124   22.3340  -34.1021 H   0  0  0  0  0  0  0  0  0  0  0  0
   -4.5253   22.6105  -32.3421 H   0  0  0  0  0  0  0  0  0  0  0  0
   -2.4233   21.2031  -34.0513 H   0  0  0  0  0  0  0  0  0  0  0  0
   -2.2184   22.5773  -32.8928 H   0  0  0  0  0  0  0  0  0  0  0  0
   -2.1349   20.4091  -30.0585 H   0  0  0  0  0  0  0  0  0  0  0  0
   -0.9907   21.5605  -30.8792 H   0  0  0  0  0  0  0  0  0  0  0  0
   -4.8160   21.5130  -30.4450 H   0  0  0  0  0  0  0  0  0  0  0  0
   -4.5391   23.7478  -28.8024 H   0  0  0  0  0  0  0  0  0  0  0  0
   -3.7322   25.0609  -30.8418 H   0  0  0  0  0  0  0  0  0  0  0  0
   -4.9350   24.3948  -31.8812 H   0  0  0  0  0  0  0  0  0  0  0  0
   -5.2871   26.2667  -29.4311 H   0  0  0  0  0  0  0  0  0  0  0  0
   -6.0813   26.4352  -30.9935 H   0  0  0  0  0  0  0  0  0  0  0  0
   -7.1358   25.1353  -28.6901 H   0  0  0  0  0  0  0  0  0  0  0  0
   -7.8073   25.0063  -30.3301 H   0  0  0  0  0  0  0  0  0  0  0  0
   -6.7817   22.8514  -28.9005 H   0  0  0  0  0  0  0  0  0  0  0  0
   -6.8475   22.8556  -30.6443 H   0  0  0  0  0  0  0  0  0  0  0  0
   -2.3315   18.6665  -32.1951 H   0  0  0  0  0  0  0  0  0  0  0  0
   -3.5512   19.3200  -31.0554 H   0  0  0  0  0  0  0  0  0  0  0  0
   -3.6514   19.4492  -34.1433 H   0  0  0  0  0  0  0  0  0  0  0  0
   -4.7413   18.5180  -33.1204 H   0  0  0  0  0  0  0  0  0  0  0  0
   -6.4446   22.7587  -32.6770 H   0  0  0  0  0  0  0  0  0  0  0  0
  1  2  1  0
  2  3  2  0
  3  4  1  0
  4  5  1  0
  4  6  2  0
  6  7  1  0
  7  8  1  0
  8  9  1  0
  9 10  1  0
 10 11  1  0
 11 12  1  0
 12 13  1  0
 13 14  2  0
 13 15  1  0
 15 16  1  0
 16 17  1  0
 17 18  1  0
 18 19  1  0
 19 20  1  0
 11 21  1  0
 21 22  1  0
  7 23  2  0
 23  2  1  0
 22  8  1  0
 20 16  1  0
  1 24  1  0
  1 25  1  0
  1 26  1  0
  3 27  1  0
  5 28  1  0
  5 29  1  0
  5 30  1  0
  6 31  1  0
  9 32  1  0
  9 33  1  0
 10 34  1  0
 10 35  1  0
 12 36  1  0
 12 37  1  0
 15 38  1  0
 16 39  1  0
 17 40  1  0
 17 41  1  0
 18 42  1  0
 18 43  1  0
 19 44  1  0
 19 45  1  0
 20 46  1  0
 20 47  1  0
 21 48  1  0
 21 49  1  0
 22 50  1  0
 22 51  1  0
 23 52  1  0
M  END
>  <smiles>  (2) 
Cc1cc(C)cc(N2CCN(CC(=O)NC3CCCC3)CC2)c1

>  <score_type>  (2) 
oracle

>  <origin>  (2) 
adg

>  <m_score__min__energy>  (2) 
-8.8399999999999999

>  <m_primary>  (2) 
energy

$$$$
4:0
     RDKit          3D

 56 58  0  0  0  0  0  0  0  0999 V2000
   -6.8190   24.1080  -30.6980 C   0  0  0  0  0  0  0  0  0  0  0  0
   -5.4370   24.6030  -31.1160 C   0  0  0  0  0  0  0  0  0  0  0  0
   -4.4400   23.5590  -30.8570 N   0  0  0  0  0  0  0  0  0  0  0  0
   -3.7260   23.4720  -29.6330 C   0  0  0  0  0  0  0  0  0  0  0  0
   -4.3530   23.8560  -28.4640 C   0  0  0  0  0  0  0  0  0  0  0  0
   -3.7220   23.8070  -27.2220 C   0  0  0  0  0  0  0  0  0  0  0  0
   -2.4130   23.3470  -27.2100 C   0  0  0  0  0  0  0  0  0  0  0  0
   -1.7990   22.9650  -28.3980 C   0  0  0  0  0  0  0  0  0  0  0  0
   -2.4140   23.0130  -29.6060 C   0  0  0  0  0  0  0  0  0  0  0  0
   -1.8250   22.6070  -30.8980 C   0  0  0  0  0  0  0  0  0  0  0  0
   -2.4850   21.5600  -31.5820 N   0  0  0  0  0  0  0  0  0  0  0  0
   -2.9760   21.7950  -32.8840 C   0  0  0  0  0  0  0  0  0  0  0  0
   -4.0700   20.7480  -33.1550 C   0  0  0  0  0  0  0  0  0  0  0  0
   -5.0850   20.9320  -32.1640 N   0  0  0  0  0  0  0  0  0  0  0  0
   -6.3390   20.2840  -32.5400 C   0  0  0  0  0  0  0  0  0  0  0  0
   -7.4460   21.2120  -32.2560 C   0  0  0  0  0  0  0  0  0  0  0  0
   -8.8360   20.6770  -32.3790 C   0  0  0  0  0  0  0  0  0  0  0  0
   -9.0140   19.5190  -31.4330 C   0  0  0  0  0  0  0  0  0  0  0  0
   -8.7520   18.1900  -32.0880 C   0  0  0  0  0  0  0  0  0  0  0  0
   -7.3150   17.9450  -32.3890 C   0  0  0  0  0  0  0  0  0  0  0  0
   -6.3460   18.9510  -31.9020 C   0  0  0  0  0  0  0  0  0  0  0  0
   -4.5830   20.4940  -30.8830 C   0  0  0  0  0  0  0  0  0  0  0  0
   -3.0740   20.5290  -30.8150 C   0  0  0  0  0  0  0  0  0  0  0  0
   -6.8836   24.0849  -29.6001 H   0  0  0  0  0  0  0  0  0  0  0  0
   -7.5875   24.7867  -31.0963 H   0  0  0  0  0  0  0  0  0  0  0  0
   -6.9818   23.0957  -31.0963 H   0  0  0  0  0  0  0  0  0  0  0  0
   -5.4439   24.8441  -32.1892 H   0  0  0  0  0  0  0  0  0  0  0  0
   -5.1815   25.5030  -30.5374 H   0  0  0  0  0  0  0  0  0  0  0  0
   -4.2740   22.8650  -31.6270 H   0  0  0  0  0  0  0  0  0  0  0  0
   -5.3916   24.2148  -28.5150 H   0  0  0  0  0  0  0  0  0  0  0  0
   -4.2350   24.1168  -26.2996 H   0  0  0  0  0  0  0  0  0  0  0  0
   -1.8608   23.2844  -26.2607 H   0  0  0  0  0  0  0  0  0  0  0  0
   -0.7604   22.6051  -28.3558 H   0  0  0  0  0  0  0  0  0  0  0  0
   -1.8203   23.4880  -31.5567 H   0  0  0  0  0  0  0  0  0  0  0  0
   -0.8249   22.2175  -30.6569 H   0  0  0  0  0  0  0  0  0  0  0  0
   -3.3997   22.8080  -32.9496 H   0  0  0  0  0  0  0  0  0  0  0  0
   -2.1677   21.7153  -33.6258 H   0  0  0  0  0  0  0  0  0  0  0  0
   -4.4928   20.8958  -34.1597 H   0  0  0  0  0  0  0  0  0  0  0  0
   -3.6569   19.7296  -33.1071 H   0  0  0  0  0  0  0  0  0  0  0  0
   -6.4628   20.0748  -33.6128 H   0  0  0  0  0  0  0  0  0  0  0  0
   -7.3200   21.5710  -31.2239 H   0  0  0  0  0  0  0  0  0  0  0  0
   -7.3715   21.9874  -33.0327 H   0  0  0  0  0  0  0  0  0  0  0  0
   -9.5572   21.4690  -32.1288 H   0  0  0  0  0  0  0  0  0  0  0  0
   -9.0079   20.3371  -33.4109 H   0  0  0  0  0  0  0  0  0  0  0  0
   -8.3156   19.6408  -30.5919 H   0  0  0  0  0  0  0  0  0  0  0  0
  -10.0609   19.5230  -31.0955 H   0  0  0  0  0  0  0  0  0  0  0  0
   -9.1064   17.3952  -31.4152 H   0  0  0  0  0  0  0  0  0  0  0  0
   -9.2860   18.1944  -33.0497 H   0  0  0  0  0  0  0  0  0  0  0  0
   -7.0424   16.9778  -31.9415 H   0  0  0  0  0  0  0  0  0  0  0  0
   -7.2419   17.9854  -33.4858 H   0  0  0  0  0  0  0  0  0  0  0  0
   -6.5457   19.1037  -30.8311 H   0  0  0  0  0  0  0  0  0  0  0  0
   -5.3634   18.5250  -32.1531 H   0  0  0  0  0  0  0  0  0  0  0  0
   -4.9876   21.1530  -30.1006 H   0  0  0  0  0  0  0  0  0  0  0  0
   -4.9020   19.4517  -30.7355 H   0  0  0  0  0  0  0  0  0  0  0  0
   -2.7788   20.6683  -29.7646 H   0  0  0  0  0  0  0  0  0  0  0  0
   -2.7156   19.5775  -31.2347 H   0  0  0  0  0  0  0  0  0  0  0  0
  1  2  1  0
  2  3  1  0
  3  4  1  0
  4  5  2  0
  5  6  1  0
  6  7  2  0
  7  8  1  0
  8  9  2  0
  9 10  1  0
 10 11  1  0
 11 12  1  0
 12 13  1  0
 13 14  1  0
 14 15  1  0
 15 16  1  0
 16 17  1  0
 17 18  1  0
 18 19  1  0
 19 20  1  0
 20 21  1  0
 14 22  1  0
 22 23  1  0
  9  4  1  0
 23 11  1  0
 21 15  1  0
  1 24  1  0
  1 25  1  0
  1 26  1  0
  2 27  1  0
  2 28  1  0
  3 29  1  0
  5 30  1  0
  6 31  1  0
  7 32  1  0
  8 33  1  0
 10 34  1  0
 10 35  1  0
 12 36  1  0
 12 37  1  0
 13 38  1  0
 13 39  1  0
 15 40  1  0
 16 41  1  0
 16 42  1  0
 17 43  1  0
 17 44  1  0
 18 45  1  0
 18 46  1  0
 19 47  1  0
 19 48  1  0
 20 49  1  0
 20 50  1  0
 21 51  1  0
 21 52  1  0
 22 53  1  0
 22 54  1  0
 23 55  1  0
 23 56  1  0
M  END
>  <smiles>  (3) 
CCNc1ccccc1CN1CCN(C2CCCCCC2)CC1

>  <score_type>  (3) 
oracle

>  <origin>  (3) 
adg

>  <m_score__min__energy>  (3) 
-7.1600000000000001

>  <m_primary>  (3) 
energy

$$$$
6:0
     RDKit          3D

 60 62  0  0  0  0  0  0  0  0999 V2000
   -6.4570   25.6800  -29.4020 C   0  0  0  0  0  0  0  0  0  0  0  0
   -5.2750   24.8650  -29.8780 C   0  0  0  0  0  0  0  0  0  0  0  0
   -5.3130   23.4520  -29.4150 C   0  0  0  0  0  0  0  0  0  0  0  0
   -4.4570   23.1050  -28.3390 N   0  0  0  0  0  0  0  0  0  0  0  0
   -3.9020   24.1670  -27.5730 C   0  0  0  0  0  0  0  0  0  0  0  0
   -2.4000   23.8560  -27.4320 C   0  0  0  0  0  0  0  0  0  0  0  0
   -2.1070   22.6140  -27.9390 O   0  0  0  0  0  0  0  0  0  0  0  0
   -0.9980   22.5980  -28.7470 C   0  0  0  0  0  0  0  0  0  0  0  0
   -1.3480   22.2840  -30.1930 C   0  0  0  0  0  0  0  0  0  0  0  0
   -2.6630   21.9600  -30.3620 O   0  0  0  0  0  0  0  0  0  0  0  0
   -3.1360   22.3740  -31.5790 C   0  0  0  0  0  0  0  0  0  0  0  0
   -3.1960   21.3030  -32.6280 C   0  0  0  0  0  0  0  0  0  0  0  0
   -4.4300   21.3980  -33.3980 N   0  0  0  0  0  0  0  0  0  0  0  0
   -5.6150   20.7370  -33.0340 C   0  0  0  0  0  0  0  0  0  0  0  0
   -6.7270   21.3480  -32.5010 C   0  0  0  0  0  0  0  0  0  0  0  0
   -6.6610   22.7160  -32.3330 C   0  0  0  0  0  0  0  0  0  0  0  0
   -7.7310   23.4170  -31.8130 C   0  0  0  0  0  0  0  0  0  0  0  0
   -8.8470   22.6790  -31.4790 C   0  0  0  0  0  0  0  0  0  0  0  0
   -8.9130   21.3020  -31.6490 C   0  0  0  0  0  0  0  0  0  0  0  0
   -7.8420   20.6100  -32.1670 C   0  0  0  0  0  0  0  0  0  0  0  0
   -7.9370   19.2800  -32.3260 N   0  0  0  0  0  0  0  0  0  0  0  0
   -9.0680   18.4840  -31.9790 C   0  0  0  0  0  0  0  0  0  0  0  0
   -6.8510   18.6540  -32.8520 C   0  0  0  0  0  0  0  0  0  0  0  0
   -6.8170   17.2930  -33.0700 C   0  0  0  0  0  0  0  0  0  0  0  0
   -5.7000   16.6560  -33.6110 C   0  0  0  0  0  0  0  0  0  0  0  0
   -5.7140   14.9050  -33.8690 Cl  0  0  0  0  0  0  0  0  0  0  0  0
   -4.5730   17.3690  -33.9530 C   0  0  0  0  0  0  0  0  0  0  0  0
   -4.5950   18.7260  -33.7400 C   0  0  0  0  0  0  0  0  0  0  0  0
   -5.7040   19.3560  -33.2040 C   0  0  0  0  0  0  0  0  0  0  0  0
   -6.4748   25.6923  -28.3022 H   0  0  0  0  0  0  0  0  0  0  0  0
   -6.3680   26.7096  -29.7788 H   0  0  0  0  0  0  0  0  0  0  0  0
   -7.3877   25.2308  -29.7788 H   0  0  0  0  0  0  0  0  0  0  0  0
   -5.2655   24.8723  -30.9779 H   0  0  0  0  0  0  0  0  0  0  0  0
   -4.3696   25.3237  -29.4539 H   0  0  0  0  0  0  0  0  0  0  0  0
   -6.3446   23.2325  -29.1027 H   0  0  0  0  0  0  0  0  0  0  0  0
   -4.9523   22.8610  -30.2697 H   0  0  0  0  0  0  0  0  0  0  0  0
   -3.7430   22.4150  -28.5870 H   0  0  0  0  0  0  0  0  0  0  0  0
   -4.0457   25.1265  -28.0913 H   0  0  0  0  0  0  0  0  0  0  0  0
   -4.3884   24.2487  -26.5898 H   0  0  0  0  0  0  0  0  0  0  0  0
   -1.8222   24.6144  -27.9806 H   0  0  0  0  0  0  0  0  0  0  0  0
   -2.1368   23.8706  -26.3640 H   0  0  0  0  0  0  0  0  0  0  0  0
   -0.5147   23.5852  -28.7054 H   0  0  0  0  0  0  0  0  0  0  0  0
   -0.3247   21.8082  -28.3824 H   0  0  0  0  0  0  0  0  0  0  0  0
   -1.1220   23.1671  -30.8087 H   0  0  0  0  0  0  0  0  0  0  0  0
   -0.7510   21.4110  -30.4954 H   0  0  0  0  0  0  0  0  0  0  0  0
   -4.1524   22.7691  -31.4347 H   0  0  0  0  0  0  0  0  0  0  0  0
   -2.4253   23.1286  -31.9471 H   0  0  0  0  0  0  0  0  0  0  0  0
   -2.3381   21.4156  -33.3072 H   0  0  0  0  0  0  0  0  0  0  0  0
   -3.1663   20.3221  -32.1310 H   0  0  0  0  0  0  0  0  0  0  0  0
   -4.4530   21.9820  -34.2680 H   0  0  0  0  0  0  0  0  0  0  0  0
   -5.7449   23.2547  -32.6168 H   0  0  0  0  0  0  0  0  0  0  0  0
   -7.6950   24.5074  -31.6725 H   0  0  0  0  0  0  0  0  0  0  0  0
   -9.7200   23.2018  -31.0612 H   0  0  0  0  0  0  0  0  0  0  0  0
   -9.8282   20.7605  -31.3675 H   0  0  0  0  0  0  0  0  0  0  0  0
   -9.1524   18.4246  -30.8839 H   0  0  0  0  0  0  0  0  0  0  0  0
   -9.9790   18.9412  -32.3927 H   0  0  0  0  0  0  0  0  0  0  0  0
   -8.9451   17.4722  -32.3927 H   0  0  0  0  0  0  0  0  0  0  0  0
   -7.6991   16.6900  -32.8089 H   0  0  0  0  0  0  0  0  0  0  0  0
   -3.6896   16.8717  -34.3800 H   0  0  0  0  0  0  0  0  0  0  0  0
   -3.7106   19.3254  -34.0016 H   0  0  0  0  0  0  0  0  0  0  0  0
  1  2  1  0
  2  3  1  0
  3  4  1  0
  4  5  1  0
  5  6  1  0
  6  7  1  0
  7  8  1  0
  8  9  1  0
  9 10  1  0
 10 11  1  0
 11 12  1  0
 12 13  1  0
 13 14  1  0
 14 15  2  0
 15 16  1  0
 16 17  2  0
 17 18  1  0
 18 19  2  0
 19 20  1  0
 20 21  2  0
 21 22  1  0
 21 23  1  0
 23 24  2  0
 24 25  1  0
 25 26  1  0
 25 27  2  0
 27 28  1  0
 28 29  2  0
 29 14  1  0
 20 15  1  0
 29 23  1  0
  1 30  1  0
  1 31  1  0
  1 32  1  0
  2 33  1  0
  2 34  1  0
  3 35  1  0
  3 36  1  0
  4 37  1  0
  5 38  1  0
  5 39  1  0
  6 40  1  0
  6 41  1  0
  8 42  1  0
  8 43  1  0
  9 44  1  0
  9 45  1  0
 11 46  1  0
 11 47  1  0
 12 48  1  0
 12 49  1  0
 13 50  1  0
 16 51  1  0
 17 52  1  0
 18 53  1  0
 19 54  1  0
 22 55  1  0
 22 56  1  0
 22 57  1  0
 24 58  1  0
 27 59  1  0
 28 60  1  0
M  CHG  1  21   1
M  END
>  <smiles>  (4) 
CCCNCCOCCOCCNc1c2ccccc2[n+](C)c2cc(Cl)ccc12

>  <score_type>  (4) 
oracle

>  <origin>  (4) 
adg

>  <m_score__min__energy>  (4) 
-9.3900000000000006

>  <m_primary>  (4) 
energy

$$$$
7:0
     RDKit          3D

 69 72  0  0  0  0  0  0  0  0999 V2000
   -6.0290   24.0380  -30.0700 C   0  0  0  0  0  0  0  0  0  0  0  0
   -5.2640   25.3180  -30.3100 C   0  0  0  0  0  0  0  0  0  0  0  0
   -3.9070   25.0820  -30.5930 O   0  0  0  0  0  0  0  0  0  0  0  0
   -2.9980   24.5540  -29.7050 C   0  0  0  0  0  0  0  0  0  0  0  0
   -2.4740   25.3010  -28.8420 O   0  0  0  0  0  0  0  0  0  0  0  0
   -2.6450   23.1790  -29.7470 N   0  0  0  0  0  0  0  0  0  0  0  0
   -1.6900   22.6090  -28.8170 C   0  0  0  0  0  0  0  0  0  0  0  0
   -0.5030   22.0560  -29.5910 C   0  0  0  0  0  0  0  0  0  0  0  0
   -0.9360   21.4280  -30.8850 C   0  0  0  0  0  0  0  0  0  0  0  0
   -0.1890   20.1980  -31.2500 C   0  0  0  0  0  0  0  0  0  0  0  0
   -0.4650   19.5740  -32.4760 N   0  0  0  0  0  0  0  0  0  0  0  0
   -0.9580   18.2520  -32.5070 C   0  0  0  0  0  0  0  0  0  0  0  0
   -1.6440   17.9070  -33.8200 C   0  0  0  0  0  0  0  0  0  0  0  0
   -2.6510   18.9200  -34.2560 C   0  0  0  0  0  0  0  0  0  0  0  0
   -4.0250   18.4530  -33.9460 C   0  0  0  0  0  0  0  0  0  0  0  0
   -4.9330   19.1100  -33.1300 C   0  0  0  0  0  0  0  0  0  0  0  0
   -6.1080   18.3900  -33.0670 C   0  0  0  0  0  0  0  0  0  0  0  0
   -7.3620   18.6590  -32.3390 C   0  0  0  0  0  0  0  0  0  0  0  0
   -7.7960   20.0070  -32.6320 N   0  0  0  0  0  0  0  0  0  0  0  0
   -9.2060   20.1060  -32.3600 C   0  0  0  0  0  0  0  0  0  0  0  0
   -9.4590   21.5270  -31.9140 C   0  0  0  0  0  0  0  0  0  0  0  0
   -8.0920   22.1580  -31.9310 C   0  0  0  0  0  0  0  0  0  0  0  0
   -7.1740   20.9710  -31.7280 C   0  0  0  0  0  0  0  0  0  0  0  0
   -5.8940   17.3080  -33.8460 N   0  0  0  0  0  0  0  0  0  0  0  0
   -6.8780   16.2550  -34.0760 C   0  0  0  0  0  0  0  0  0  0  0  0
   -4.6660   17.3500  -34.3610 N   0  0  0  0  0  0  0  0  0  0  0  0
   -2.3570   20.3030  -33.7180 C   0  0  0  0  0  0  0  0  0  0  0  0
   -0.8350   20.4180  -33.5600 C   0  0  0  0  0  0  0  0  0  0  0  0
   -2.4090   21.0300  -30.7150 C   0  0  0  0  0  0  0  0  0  0  0  0
   -3.2580   22.3080  -30.7550 C   0  0  0  0  0  0  0  0  0  0  0  0
   -6.1302   23.8687  -28.9878 H   0  0  0  0  0  0  0  0  0  0  0  0
   -7.0279   24.1173  -30.5237 H   0  0  0  0  0  0  0  0  0  0  0  0
   -5.4860   23.1958  -30.5237 H   0  0  0  0  0  0  0  0  0  0  0  0
   -5.7166   25.8465  -31.1620 H   0  0  0  0  0  0  0  0  0  0  0  0
   -5.3170   25.9199  -29.3908 H   0  0  0  0  0  0  0  0  0  0  0  0
   -1.3444   23.3881  -28.1216 H   0  0  0  0  0  0  0  0  0  0  0  0
   -2.1687   21.7985  -28.2479 H   0  0  0  0  0  0  0  0  0  0  0  0
    0.1963   22.8769  -29.8081 H   0  0  0  0  0  0  0  0  0  0  0  0
   -0.0191   21.2828  -28.9762 H   0  0  0  0  0  0  0  0  0  0  0  0
   -0.7516   22.1631  -31.6823 H   0  0  0  0  0  0  0  0  0  0  0  0
    0.8796   20.4590  -31.2543 H   0  0  0  0  0  0  0  0  0  0  0  0
   -0.5114   19.4608  -30.4999 H   0  0  0  0  0  0  0  0  0  0  0  0
   -0.1161   17.5598  -32.3583 H   0  0  0  0  0  0  0  0  0  0  0  0
   -1.7088   18.1607  -31.7082 H   0  0  0  0  0  0  0  0  0  0  0  0
   -0.8749   17.8231  -34.6020 H   0  0  0  0  0  0  0  0  0  0  0  0
   -2.1859   16.9631  -33.6610 H   0  0  0  0  0  0  0  0  0  0  0  0
   -2.5779   19.0206  -35.3490 H   0  0  0  0  0  0  0  0  0  0  0  0
   -4.7449   20.0616  -32.6112 H   0  0  0  0  0  0  0  0  0  0  0  0
   -8.1349   17.9448  -32.6592 H   0  0  0  0  0  0  0  0  0  0  0  0
   -7.1950   18.5489  -31.2573 H   0  0  0  0  0  0  0  0  0  0  0  0
   -9.7847   19.8844  -33.2689 H   0  0  0  0  0  0  0  0  0  0  0  0
   -9.5131   19.3862  -31.5870 H   0  0  0  0  0  0  0  0  0  0  0  0
  -10.1368   22.0416  -32.6110 H   0  0  0  0  0  0  0  0  0  0  0  0
   -9.9411   21.5834  -30.9269 H   0  0  0  0  0  0  0  0  0  0  0  0
   -7.8950   22.6515  -32.8942 H   0  0  0  0  0  0  0  0  0  0  0  0
   -7.9645   22.9430  -31.1711 H   0  0  0  0  0  0  0  0  0  0  0  0
   -6.1399   21.2000  -32.0251 H   0  0  0  0  0  0  0  0  0  0  0  0
   -7.0802   20.6327  -30.6855 H   0  0  0  0  0  0  0  0  0  0  0  0
   -7.2368   15.8710  -33.1097 H   0  0  0  0  0  0  0  0  0  0  0  0
   -7.7256   16.6634  -34.6459 H   0  0  0  0  0  0  0  0  0  0  0  0
   -6.4132   15.4369  -34.6459 H   0  0  0  0  0  0  0  0  0  0  0  0
   -2.7209   21.0658  -34.4220 H   0  0  0  0  0  0  0  0  0  0  0  0
   -2.8614   20.4605  -32.7532 H   0  0  0  0  0  0  0  0  0  0  0  0
   -0.3335   20.0901  -34.4825 H   0  0  0  0  0  0  0  0  0  0  0  0
   -0.5377   21.4592  -33.3664 H   0  0  0  0  0  0  0  0  0  0  0  0
   -2.7097   20.3573  -31.5317 H   0  0  0  0  0  0  0  0  0  0  0  0
   -2.5536   20.5072  -29.7580 H   0  0  0  0  0  0  0  0  0  0  0  0
   -3.2155   22.7736  -31.7507 H   0  0  0  0  0  0  0  0  0  0  0  0
   -4.3217   22.1136  -30.5530 H   0  0  0  0  0  0  0  0  0  0  0  0
  1  2  1  0
  2  3  1  0
  3  4  1  0
  4  5  2  0
  4  6  1  0
  6  7  1  0
  7  8  1  0
  8  9  1  0
  9 10  1  0
 10 11  1  0
 11 12  1  0
 12 13  1  0
 13 14  1  0
 14 15  1  0
 15 16  1  0
 16 17  2  0
 17 18  1  0
 18 19  1  0
 19 20  1  0
 20 21  1  0
 21 22  1  0
 22 23  1  0
 17 24  1  0
 24 25  1  0
 24 26  1  0
 14 27  1  0
 27 28  1  0
  9 29  1  0
 29 30  1  0
 30  6  1  0
 28 11  1  0
 26 15  2  0
 23 19  1  0
  1 31  1  0
  1 32  1  0
  1 33  1  0
  2 34  1  0
  2 35  1  0
  7 36  1  0
  7 37  1  0
  8 38  1  0
  8 39  1  0
  9 40  1  0
 10 41  1  0
 10 42  1  0
 12 43  1  0
 12 44  1  0
 13 45  1  0
 13 46  1  0
 14 47  1  0
 16 48  1  0
 18 49  1  0
 18 50  1  0
 20 51  1  0
 20 52  1  0
 21 53  1  0
 21 54  1  0
 22 55  1  0
 22 56  1  0
 23 57  1  0
 23 58  1  0
 25 59  1  0
 25 60  1  0
 25 61  1  0
 27 62  1  0
 27 63  1  0
 28 64  1  0
 28 65  1  0
 29 66  1  0
 29 67  1  0
 30 68  1  0
 30 69  1  0
M  END
>  <smiles>  (5) 
CCOC(=O)N1CCC(CN2CCC(c3cc(CN4CCCC4)n(C)n3)CC2)CC1

>  <score_type>  (5) 
oracle

>  <origin>  (5) 
adg

>  <m_score__min__energy>  (5) 
-9.7200000000000006

>  <m_primary>  (5) 
energy

$$$$
8:0
     RDKit          3D

 81 83  0  0  0  0  0  0  0  0999 V2000
   -2.3440   19.6270  -26.7270 C   0  0  0  0  0  0  0  0  0  0  0  0
   -1.2890   20.2180  -27.6100 C   0  0  0  0  0  0  0  0  0  0  0  0
   -0.8130   21.4440  -27.1880 O   0  0  0  0  0  0  0  0  0  0  0  0
   -0.2450   22.1790  -28.2410 C   0  0  0  0  0  0  0  0  0  0  0  0
    0.6120   23.3070  -27.7080 C   0  0  0  0  0  0  0  0  0  0  0  0
    0.3820   24.5280  -28.2610 O   0  0  0  0  0  0  0  0  0  0  0  0
    0.3800   25.6200  -27.4490 C   0  0  0  0  0  0  0  0  0  0  0  0
   -0.9520   26.3260  -27.3720 C   0  0  0  0  0  0  0  0  0  0  0  0
   -2.0110   25.5190  -27.7210 O   0  0  0  0  0  0  0  0  0  0  0  0
   -2.7710   25.0300  -26.7050 C   0  0  0  0  0  0  0  0  0  0  0  0
   -4.0130   24.2720  -27.1140 C   0  0  0  0  0  0  0  0  0  0  0  0
   -3.5220   22.9390  -27.6380 C   0  0  0  0  0  0  0  0  0  0  0  0
   -4.0050   22.6160  -29.0210 C   0  0  0  0  0  0  0  0  0  0  0  0
   -3.0800   23.3960  -29.9600 C   0  0  0  0  0  0  0  0  0  0  0  0
   -3.8740   24.2500  -30.8230 N   0  0  0  0  0  0  0  0  0  0  0  0
   -4.5240   25.2950  -30.0940 C   0  0  0  0  0  0  0  0  0  0  0  0
   -6.0210   25.2740  -30.1280 C   0  0  0  0  0  0  0  0  0  0  0  0
   -6.6330   23.9970  -30.2260 N   0  0  0  0  0  0  0  0  0  0  0  0
   -7.6150   23.7970  -31.2320 C   0  0  0  0  0  0  0  0  0  0  0  0
   -6.9220   23.1530  -32.4510 C   0  0  0  0  0  0  0  0  0  0  0  0
   -5.8480   22.3220  -31.9470 N   0  0  0  0  0  0  0  0  0  0  0  0
   -5.6870   20.9610  -32.3480 C   0  0  0  0  0  0  0  0  0  0  0  0
   -6.6930   20.0230  -32.2410 C   0  0  0  0  0  0  0  0  0  0  0  0
   -7.8940   20.4570  -31.7200 C   0  0  0  0  0  0  0  0  0  0  0  0
   -8.9450   19.5850  -31.5830 C   0  0  0  0  0  0  0  0  0  0  0  0
   -8.7720   18.2730  -31.9760 C   0  0  0  0  0  0  0  0  0  0  0  0
   -7.5480   17.8520  -32.5010 C   0  0  0  0  0  0  0  0  0  0  0  0
   -6.4770   18.7150  -32.6470 C   0  0  0  0  0  0  0  0  0  0  0  0
   -5.2920   18.3040  -33.1590 N   0  0  0  0  0  0  0  0  0  0  0  0
   -5.1680   16.9290  -33.5420 C   0  0  0  0  0  0  0  0  0  0  0  0
   -4.3260   19.2260  -33.2570 C   0  0  0  0  0  0  0  0  0  0  0  0
   -3.1110   18.8810  -33.7660 C   0  0  0  0  0  0  0  0  0  0  0  0
   -2.0900   19.8220  -33.8800 C   0  0  0  0  0  0  0  0  0  0  0  0
   -2.2460   21.1350  -33.4930 C   0  0  0  0  0  0  0  0  0  0  0  0
   -3.4790   21.4860  -32.9770 C   0  0  0  0  0  0  0  0  0  0  0  0
   -4.4920   20.5500  -32.8640 C   0  0  0  0  0  0  0  0  0  0  0  0
   -2.0688   19.7812  -25.6732 H   0  0  0  0  0  0  0  0  0  0  0  0
   -3.3081   20.1164  -26.9296 H   0  0  0  0  0  0  0  0  0  0  0  0
   -2.4302   18.5493  -26.9296 H   0  0  0  0  0  0  0  0  0  0  0  0
   -0.4429   19.5164  -27.6521 H   0  0  0  0  0  0  0  0  0  0  0  0
   -1.7576   20.3839  -28.5913 H   0  0  0  0  0  0  0  0  0  0  0  0
    0.3786   21.5102  -28.8524 H   0  0  0  0  0  0  0  0  0  0  0  0
   -1.0553   22.6085  -28.8485 H   0  0  0  0  0  0  0  0  0  0  0  0
    0.4334   23.3861  -26.6255 H   0  0  0  0  0  0  0  0  0  0  0  0
    1.6489   23.0478  -27.9683 H   0  0  0  0  0  0  0  0  0  0  0  0
    0.6596   25.2976  -26.4352 H   0  0  0  0  0  0  0  0  0  0  0  0
    1.0955   26.3368  -27.8782 H   0  0  0  0  0  0  0  0  0  0  0  0
   -1.1037   26.6762  -26.3403 H   0  0  0  0  0  0  0  0  0  0  0  0
   -0.9239   27.1594  -28.0894 H   0  0  0  0  0  0  0  0  0  0  0  0
   -2.1422   24.3507  -26.1108 H   0  0  0  0  0  0  0  0  0  0  0  0
   -3.1290   25.9105  -26.1513 H   0  0  0  0  0  0  0  0  0  0  0  0
   -4.6751   24.1240  -26.2482 H   0  0  0  0  0  0  0  0  0  0  0  0
   -4.5926   24.8190  -27.8722 H   0  0  0  0  0  0  0  0  0  0  0  0
   -2.4222   22.9551  -27.6499 H   0  0  0  0  0  0  0  0  0  0  0  0
   -3.9251   22.1642  -26.9692 H   0  0  0  0  0  0  0  0  0  0  0  0
   -3.9291   21.5357  -29.2139 H   0  0  0  0  0  0  0  0  0  0  0  0
   -5.0611   22.8893  -29.1627 H   0  0  0  0  0  0  0  0  0  0  0  0
   -2.3913   24.0144  -29.3656 H   0  0  0  0  0  0  0  0  0  0  0  0
   -2.5021   22.6900  -30.5746 H   0  0  0  0  0  0  0  0  0  0  0  0
   -3.2760   24.6400  -31.5820 H   0  0  0  0  0  0  0  0  0  0  0  0
   -4.2084   25.2211  -29.0428 H   0  0  0  0  0  0  0  0  0  0  0  0
   -4.2253   26.2337  -30.5834 H   0  0  0  0  0  0  0  0  0  0  0  0
   -6.3833   25.7485  -29.2041 H   0  0  0  0  0  0  0  0  0  0  0  0
   -6.2994   25.8027  -31.0516 H   0  0  0  0  0  0  0  0  0  0  0  0
   -5.9050   23.2530  -30.1680 H   0  0  0  0  0  0  0  0  0  0  0  0
   -8.4048   23.1302  -30.8558 H   0  0  0  0  0  0  0  0  0  0  0  0
   -8.0741   24.7558  -31.5149 H   0  0  0  0  0  0  0  0  0  0  0  0
   -7.6417   22.5387  -33.0120 H   0  0  0  0  0  0  0  0  0  0  0  0
   -6.5310   23.9254  -33.1296 H   0  0  0  0  0  0  0  0  0  0  0  0
   -5.1400   22.6820  -31.2650 H   0  0  0  0  0  0  0  0  0  0  0  0
   -8.0101   21.5069  -31.4129 H   0  0  0  0  0  0  0  0  0  0  0  0
   -9.9056   19.9246  -31.1685 H   0  0  0  0  0  0  0  0  0  0  0  0
   -9.6008   17.5568  -31.8754 H   0  0  0  0  0  0  0  0  0  0  0  0
   -7.4323   16.8020  -32.8077 H   0  0  0  0  0  0  0  0  0  0  0  0
   -5.1114   16.3010  -32.6407 H   0  0  0  0  0  0  0  0  0  0  0  0
   -6.0432   16.6345  -34.1397 H   0  0  0  0  0  0  0  0  0  0  0  0
   -4.2542   16.7958  -34.1397 H   0  0  0  0  0  0  0  0  0  0  0  0
   -2.9333   17.8454  -34.0915 H   0  0  0  0  0  0  0  0  0  0  0  0
   -1.1220   19.5044  -34.2950 H   0  0  0  0  0  0  0  0  0  0  0  0
   -1.4305   21.8668  -33.5898 H   0  0  0  0  0  0  0  0  0  0  0  0
   -3.6574   22.5217  -32.6522 H   0  0  0  0  0  0  0  0  0  0  0  0
  1  2  1  0
  2  3  1  0
  3  4  1  0
  4  5  1  0
  5  6  1  0
  6  7  1  0
  7  8  1  0
  8  9  1  0
  9 10  1  0
 10 11  1  0
 11 12  1  0
 12 13  1  0
 13 14  1  0
 14 15  1  0
 15 16  1  0
 16 17  1  0
 17 18  1  0
 18 19  1  0
 19 20  1  0
 20 21  1  0
 21 22  1  0
 22 23  2  0
 23 24  1  0
 24 25  2  0
 25 26  1  0
 26 27  2  0
 27 28  1  0
 28 29  2  0
 29 30  1  0
 29 31  1  0
 31 32  2  0
 32 33  1  0
 33 34  2  0
 34 35  1  0
 35 36  2  0
 36 22  1  0
 28 23  1  0
 36 31  1  0
  1 37  1  0
  1 38  1  0
  1 39  1  0
  2 40  1  0
  2 41  1  0
  4 42  1  0
  4 43  1  0
  5 44  1  0
  5 45  1  0
  7 46  1  0
  7 47  1  0
  8 48  1  0
  8 49  1  0
 10 50  1  0
 10 51  1  0
 11 52  1  0
 11 53  1  0
 12 54  1  0
 12 55  1  0
 13 56  1  0
 13 57  1  0
 14 58  1  0
 14 59  1  0
 15 60  1  0
 16 61  1  0
 16 62  1  0
 17 63  1  0
 17 64  1  0
 18 65  1  0
 19 66  1  0
 19 67  1  0
 20 68  1  0
 20 69  1  0
 21 70  1  0
 24 71  1  0
 25 72  1  0
 26 73  1  0
 27 74  1  0
 30 75  1  0
 30 76  1  0
 30 77  1  0
 32 78  1  0
 33 79  1  0
 34 80  1  0
 35 81  1  0
M  CHG  1  29   1
M  END
>  <smiles>  (6) 
CCOCCOCCOCCCCCNCCNCCNc1c2ccccc2[n+](C)c2ccccc12

>  <score_type>  (6) 
oracle

>  <origin>  (6) 
adg

>  <m_score__min__energy>  (6) 
-9.0099999999999998

>  <m_primary>  (6) 
energy

$$$$
9:0
     RDKit          3D

 63 66  0  0  1  0  0  0  0  0999 V2000
   -9.4840   18.8260  -32.0020 C   0  0  0  0  0  0  0  0  0  0  0  0
   -8.6920   20.0570  -32.1150 C   0  0  0  0  0  0  0  0  0  0  0  0
   -9.2710   21.2140  -31.5690 C   0  0  0  0  0  0  0  0  0  0  0  0
   -8.6260   22.4140  -31.5940 C   0  0  0  0  0  0  0  0  0  0  0  0
   -7.3790   22.4530  -32.1780 C   0  0  0  0  0  0  0  0  0  0  0  0
   -6.8100   21.3200  -32.7150 C   0  0  0  0  0  0  0  0  0  0  0  0
   -7.4600   20.0760  -32.6970 C   0  0  0  0  0  0  0  0  0  0  0  0
   -6.7970   19.0070  -33.3060 N   0  0  0  0  0  0  0  0  0  0  0  0
   -6.7040   17.7080  -32.6060 C   0  0  0  0  0  0  0  0  0  0  0  0
   -5.2710   17.6040  -32.1790 C   0  0  0  0  0  0  0  0  0  0  0  0
   -4.3710   17.9800  -33.2170 N   0  0  0  0  0  0  0  0  0  0  0  0
   -3.0680   17.4280  -33.0850 C   0  0  0  0  0  0  0  0  0  0  0  0
   -2.0280   18.4880  -32.9270 C   0  0  0  0  0  0  0  0  0  0  0  0
   -1.8240   19.2460  -34.2470 C   0  0  0  0  0  0  0  0  0  0  0  0
   -1.2610   20.5380  -33.9170 N   0  0  0  0  0  0  0  0  0  0  0  0
   -1.4720   21.0740  -32.7720 C   0  0  0  0  0  0  0  0  0  0  0  0
   -0.6760   21.1500  -31.6510 C   0  0  0  0  0  0  0  0  0  0  0  0
   -1.3860   21.8370  -30.6880 C   0  0  0  0  0  0  0  0  0  0  0  0
   -0.9280   22.1540  -29.3320 C   0  0  0  0  0  0  0  0  0  0  0  0
   -2.5760   22.1620  -31.2250 N   0  0  0  0  0  0  0  0  0  0  0  0
   -3.6340   22.8700  -30.6150 C   0  0  0  0  0  0  0  0  0  0  0  0
   -3.5950   24.2470  -30.4600 C   0  0  0  0  0  0  0  0  0  0  0  0
   -4.6150   24.9630  -29.8690 C   0  0  0  0  0  0  0  0  0  0  0  0
   -5.7380   24.2660  -29.4050 C   0  0  0  0  0  0  0  0  0  0  0  0
   -5.7960   22.8780  -29.5520 C   0  0  0  0  0  0  0  0  0  0  0  0
   -4.7490   22.1990  -30.1530 C   0  0  0  0  0  0  0  0  0  0  0  0
   -2.6440   21.7100  -32.4790 N   0  0  0  0  0  0  0  0  0  0  0  0
   -3.7820   21.8680  -33.3890 C   0  0  0  0  0  0  0  0  0  0  0  0
   -4.9010   18.0910  -34.5280 C   0  0  0  0  0  0  0  0  0  0  0  0
   -6.1140   19.0230  -34.5940 C   0  0  0  0  0  0  0  0  0  0  0  0
   -9.6386   18.5857  -30.9398 H   0  0  0  0  0  0  0  0  0  0  0  0
  -10.4587   18.9709  -32.4908 H   0  0  0  0  0  0  0  0  0  0  0  0
   -8.9481   17.9990  -32.4908 H   0  0  0  0  0  0  0  0  0  0  0  0
  -10.2688   21.1500  -31.1103 H   0  0  0  0  0  0  0  0  0  0  0  0
   -9.0837   23.3172  -31.1642 H   0  0  0  0  0  0  0  0  0  0  0  0
   -6.8289   23.4048  -32.2160 H   0  0  0  0  0  0  0  0  0  0  0  0
   -5.8127   21.3921  -33.1735 H   0  0  0  0  0  0  0  0  0  0  0  0
   -7.3710   17.6906  -31.7315 H   0  0  0  0  0  0  0  0  0  0  0  0
   -7.0076   16.8680  -33.2481 H   0  0  0  0  0  0  0  0  0  0  0  0
   -5.1103   18.2647  -31.3144 H   0  0  0  0  0  0  0  0  0  0  0  0
   -5.0706   16.5531  -31.9229 H   0  0  0  0  0  0  0  0  0  0  0  0
   -3.0466   16.7741  -32.2007 H   0  0  0  0  0  0  0  0  0  0  0  0
   -2.8425   16.8629  -34.0014 H   0  0  0  0  0  0  0  0  0  0  0  0
   -2.3491   19.1964  -32.1492 H   0  0  0  0  0  0  0  0  0  0  0  0
   -1.0782   18.0130  -32.6403 H   0  0  0  0  0  0  0  0  0  0  0  0
   -1.1339   18.6895  -34.8982 H   0  0  0  0  0  0  0  0  0  0  0  0
   -2.7781   19.3614  -34.7821 H   0  0  0  0  0  0  0  0  0  0  0  0
    0.3386   20.7389  -31.5432 H   0  0  0  0  0  0  0  0  0  0  0  0
   -1.6022   21.6873  -28.5988 H   0  0  0  0  0  0  0  0  0  0  0  0
    0.0921   21.7678  -29.1899 H   0  0  0  0  0  0  0  0  0  0  0  0
   -0.9302   23.2448  -29.1899 H   0  0  0  0  0  0  0  0  0  0  0  0
   -2.7120   24.7925  -30.8243 H   0  0  0  0  0  0  0  0  0  0  0  0
   -4.5482   26.0560  -29.7644 H   0  0  0  0  0  0  0  0  0  0  0  0
   -6.5682   24.8077  -28.9283 H   0  0  0  0  0  0  0  0  0  0  0  0
   -6.6744   22.3236  -29.1900 H   0  0  0  0  0  0  0  0  0  0  0  0
   -4.8067   21.1062  -30.2642 H   0  0  0  0  0  0  0  0  0  0  0  0
   -4.7045   21.9961  -32.8037 H   0  0  0  0  0  0  0  0  0  0  0  0
   -3.6243   22.7529  -34.0231 H   0  0  0  0  0  0  0  0  0  0  0  0
   -3.8713   20.9736  -34.0231 H   0  0  0  0  0  0  0  0  0  0  0  0
   -4.1178   18.4840  -35.1929 H   0  0  0  0  0  0  0  0  0  0  0  0
   -5.2321   17.0895  -34.8402 H   0  0  0  0  0  0  0  0  0  0  0  0
   -5.7807   20.0462  -34.8217 H   0  0  0  0  0  0  0  0  0  0  0  0
   -6.8011   18.6826  -35.3827 H   0  0  0  0  0  0  0  0  0  0  0  0
  1  2  1  0
  2  3  2  0
  3  4  1  0
  4  5  2  0
  5  6  1  0
  6  7  2  0
  7  8  1  0
  8  9  1  0
  9 10  1  0
 10 11  1  0
 11 12  1  0
 12 13  1  0
 13 14  1  0
 14 15  1  0
 15 16  2  0
 16 17  1  0
 17 18  2  0
 18 19  1  0
 18 20  1  0
 20 21  1  0
 21 22  2  0
 22 23  1  0
 23 24  2  0
 24 25  1  0
 25 26  2  0
 20 27  1  0
 27 28  1  0
 11 29  1  0
 29 30  1  0
  7  2  1  0
 30  8  1  0
 27 16  1  0
 26 21  1  0
  1 31  1  0
  1 32  1  0
  1 33  1  0
  3 34  1  0
  4 35  1  0
  5 36  1  0
  6 37  1  0
  9 38  1  0
  9 39  1  0
 10 40  1  0
 10 41  1  0
 12 42  1  0
 12 43  1  0
 13 44  1  0
 13 45  1  0
 14 46  1  0
 14 47  1  0
 17 48  1  0
 19 49  1  0
 19 50  1  0
 19 51  1  0
 22 52  1  0
 23 53  1  0
 24 54  1  0
 25 55  1  0
 26 56  1  0
 28 57  1  0
 28 58  1  0
 28 59  1  0
 29 60  1  0
 29 61  1  0
 30 62  1  0
 30 63  1  0
M  END
>  <smiles>  (7) 
Cc1ccccc1N1CCN(CCCN=c2cc(C)n(-c3ccccc3)n2C)CC1

>  <score_type>  (7) 
oracle

>  <origin>  (7) 
adg

>  <m_score__min__energy>  (7) 
-9.8699999999999992

>  <m_primary>  (7) 
energy

$$$$
10:0
     RDKit          3D

 45 48  0  0  0  0  0  0  0  0999 V2000
   -2.3270   21.5100  -32.1820 C   0  0  0  0  0  0  0  0  0  0  0  0
   -2.6530   21.2090  -30.7410 C   0  0  0  0  0  0  0  0  0  0  0  0
   -3.1940   22.3730  -30.0520 N   0  0  0  0  0  0  0  0  0  0  0  0
   -2.4190   23.1000  -29.2370 C   0  0  0  0  0  0  0  0  0  0  0  0
   -1.2050   22.7800  -29.0560 O   0  0  0  0  0  0  0  0  0  0  0  0
   -2.9010   24.2130  -28.5650 C   0  0  0  0  0  0  0  0  0  0  0  0
   -2.0040   24.9670  -27.6870 C   0  0  0  0  0  0  0  0  0  0  0  0
   -0.9130   25.6530  -28.2120 C   0  0  0  0  0  0  0  0  0  0  0  0
   -0.0860   26.3580  -27.3380 C   0  0  0  0  0  0  0  0  0  0  0  0
   -0.3520   26.3690  -25.9770 C   0  0  0  0  0  0  0  0  0  0  0  0
   -1.4330   25.6910  -25.4480 C   0  0  0  0  0  0  0  0  0  0  0  0
   -2.2650   24.9840  -26.3180 C   0  0  0  0  0  0  0  0  0  0  0  0
   -4.1890   24.5520  -28.7570 N   0  0  0  0  0  0  0  0  0  0  0  0
   -5.0030   23.8430  -29.5730 C   0  0  0  0  0  0  0  0  0  0  0  0
   -6.3300   24.2120  -29.7560 C   0  0  0  0  0  0  0  0  0  0  0  0
   -7.1190   23.4700  -30.5880 N   0  0  0  0  0  0  0  0  0  0  0  0
   -6.6010   22.3990  -31.2150 C   0  0  0  0  0  0  0  0  0  0  0  0
   -7.4740   21.6680  -32.0680 N   0  0  0  0  0  0  0  0  0  0  0  0
   -8.8900   21.8180  -31.9830 C   0  0  0  0  0  0  0  0  0  0  0  0
   -9.6820   20.5860  -32.2830 C   0  0  0  0  0  0  0  0  0  0  0  0
   -9.0310   19.5960  -33.0720 N   0  0  0  0  0  0  0  0  0  0  0  0
   -7.6450   19.4060  -32.7180 C   0  0  0  0  0  0  0  0  0  0  0  0
   -6.9540   20.7310  -33.0690 C   0  0  0  0  0  0  0  0  0  0  0  0
   -5.3160   22.0290  -31.0470 N   0  0  0  0  0  0  0  0  0  0  0  0
   -4.4790   22.7300  -30.2300 C   0  0  0  0  0  0  0  0  0  0  0  0
   -1.5195   22.2556  -32.2272 H   0  0  0  0  0  0  0  0  0  0  0  0
   -2.0026   20.5871  -32.6850 H   0  0  0  0  0  0  0  0  0  0  0  0
   -3.2211   21.9069  -32.6850 H   0  0  0  0  0  0  0  0  0  0  0  0
   -3.3955   20.3982  -30.7062 H   0  0  0  0  0  0  0  0  0  0  0  0
   -1.7215   20.9156  -30.2348 H   0  0  0  0  0  0  0  0  0  0  0  0
   -0.7075   25.6395  -29.2925 H   0  0  0  0  0  0  0  0  0  0  0  0
    0.7819   26.9083  -27.7302 H   0  0  0  0  0  0  0  0  0  0  0  0
    0.3127   26.9302  -25.3037 H   0  0  0  0  0  0  0  0  0  0  0  0
   -1.6336   25.7078  -24.3666 H   0  0  0  0  0  0  0  0  0  0  0  0
   -3.1324   24.4367  -25.9204 H   0  0  0  0  0  0  0  0  0  0  0  0
   -6.7401   25.0910  -29.2371 H   0  0  0  0  0  0  0  0  0  0  0  0
   -9.1369   22.1402  -30.9606 H   0  0  0  0  0  0  0  0  0  0  0  0
   -9.1651   22.5519  -32.7548 H   0  0  0  0  0  0  0  0  0  0  0  0
   -9.9578   20.1228  -31.3242 H   0  0  0  0  0  0  0  0  0  0  0  0
  -10.5376   20.9259  -32.8850 H   0  0  0  0  0  0  0  0  0  0  0  0
   -9.1250   19.6820  -34.0920 H   0  0  0  0  0  0  0  0  0  0  0  0
   -7.5472   19.1930  -31.6433 H   0  0  0  0  0  0  0  0  0  0  0  0
   -7.1974   18.5550  -33.2523 H   0  0  0  0  0  0  0  0  0  0  0  0
   -5.8610   20.6371  -32.9884 H   0  0  0  0  0  0  0  0  0  0  0  0
   -7.1520   21.0555  -34.1012 H   0  0  0  0  0  0  0  0  0  0  0  0
  1  2  1  0
  2  3  1  0
  3  4  1  0
  4  5  2  0
  4  6  1  0
  6  7  1  0
  7  8  2  0
  8  9  1  0
  9 10  2  0
 10 11  1  0
 11 12  2  0
  6 13  2  0
 13 14  1  0
 14 15  2  0
 15 16  1  0
 16 17  2  0
 17 18  1  0
 18 19  1  0
 19 20  1  0
 20 21  1  0
 21 22  1  0
 22 23  1  0
 17 24  1  0
 24 25  2  0
 25  3  1  0
 12  7  1  0
 25 14  1  0
 23 18  1  0
  1 26  1  0
  1 27  1  0
  1 28  1  0
  2 29  1  0
  2 30  1  0
  8 31  1  0
  9 32  1  0
 10 33  1  0
 11 34  1  0
 12 35  1  0
 15 36  1  0
 19 37  1  0
 19 38  1  0
 20 39  1  0
 20 40  1  0
 21 41  1  0
 22 42  1  0
 22 43  1  0
 23 44  1  0
 23 45  1  0
M  END
>  <smiles>  (8) 
CCn1c(=O)c(-c2ccccc2)nc2cnc(N3CCNCC3)nc21

>  <score_type>  (8) 
oracle

>  <origin>  (8) 
adg

>  <m_score__min__energy>  (8) 
-7.4800000000000004

>  <m_primary>  (8) 
energy

$$$$
11:0
     RDKit          3D

 60 62  0  0  0  0  0  0  0  0999 V2000
   -2.6970   20.9520  -28.4770 C   0  0  0  0  0  0  0  0  0  0  0  0
   -3.0660   21.5880  -29.8450 C   0  0  0  0  0  0  0  0  0  0  0  0
   -1.9750   22.3850  -30.2020 N   0  0  0  0  0  0  0  0  0  0  0  0
   -0.8840   21.7110  -30.7980 C   0  0  0  0  0  0  0  0  0  0  0  0
   -1.6410   23.5700  -29.5600 C   0  0  0  0  0  0  0  0  0  0  0  0
   -2.8300   24.5070  -29.3420 C   0  0  0  0  0  0  0  0  0  0  0  0
   -3.5240   24.8430  -30.4260 O   0  0  0  0  0  0  0  0  0  0  0  0
   -4.7640   24.4840  -30.6940 C   0  0  0  0  0  0  0  0  0  0  0  0
   -5.5180   23.6730  -29.6230 C   0  0  0  0  0  0  0  0  0  0  0  0
   -6.8290   23.6570  -29.9580 O   0  0  0  0  0  0  0  0  0  0  0  0
   -7.2280   24.1480  -31.1460 C   0  0  0  0  0  0  0  0  0  0  0  0
   -8.0230   23.1460  -31.9670 C   0  0  0  0  0  0  0  0  0  0  0  0
   -7.9930   21.8780  -31.4300 N   0  0  0  0  0  0  0  0  0  0  0  0
   -7.8350   20.5460  -31.7810 C   0  0  0  0  0  0  0  0  0  0  0  0
   -8.8860   19.6650  -31.5950 C   0  0  0  0  0  0  0  0  0  0  0  0
   -8.7800   18.3130  -31.9600 C   0  0  0  0  0  0  0  0  0  0  0  0
   -7.5980   17.8760  -32.5100 C   0  0  0  0  0  0  0  0  0  0  0  0
   -6.5070   18.7170  -32.7170 C   0  0  0  0  0  0  0  0  0  0  0  0
   -6.6740   20.0230  -32.3410 C   0  0  0  0  0  0  0  0  0  0  0  0
   -5.5380   20.8440  -32.5580 C   0  0  0  0  0  0  0  0  0  0  0  0
   -4.3770   20.3470  -33.1000 C   0  0  0  0  0  0  0  0  0  0  0  0
   -3.3180   21.2580  -33.2560 C   0  0  0  0  0  0  0  0  0  0  0  0
   -2.1160   20.7830  -33.8000 C   0  0  0  0  0  0  0  0  0  0  0  0
   -2.0810   19.4670  -34.1310 C   0  0  0  0  0  0  0  0  0  0  0  0
   -3.0870   18.5470  -33.9970 C   0  0  0  0  0  0  0  0  0  0  0  0
   -4.2810   19.0330  -33.4540 C   0  0  0  0  0  0  0  0  0  0  0  0
   -5.3660   18.2460  -33.2490 N   0  0  0  0  0  0  0  0  0  0  0  0
   -5.2510   16.8710  -33.6590 C   0  0  0  0  0  0  0  0  0  0  0  0
   -3.0683   21.5920  -27.6630 H   0  0  0  0  0  0  0  0  0  0  0  0
   -3.1575   19.9561  -28.3995 H   0  0  0  0  0  0  0  0  0  0  0  0
   -1.6038   20.8575  -28.3995 H   0  0  0  0  0  0  0  0  0  0  0  0
   -3.2310   20.8046  -30.5994 H   0  0  0  0  0  0  0  0  0  0  0  0
   -3.9930   22.1766  -29.7805 H   0  0  0  0  0  0  0  0  0  0  0  0
   -0.2293   21.3065  -30.0121 H   0  0  0  0  0  0  0  0  0  0  0  0
   -1.2591   20.8870  -31.4228 H   0  0  0  0  0  0  0  0  0  0  0  0
   -0.3150   22.4152  -31.4228 H   0  0  0  0  0  0  0  0  0  0  0  0
   -1.2085   23.3236  -28.5791 H   0  0  0  0  0  0  0  0  0  0  0  0
   -0.9297   24.0991  -30.2112 H   0  0  0  0  0  0  0  0  0  0  0  0
   -3.5206   24.0143  -28.6417 H   0  0  0  0  0  0  0  0  0  0  0  0
   -2.3972   25.4469  -28.9688 H   0  0  0  0  0  0  0  0  0  0  0  0
   -5.3404   25.4027  -30.8778 H   0  0  0  0  0  0  0  0  0  0  0  0
   -4.6784   23.8019  -31.5527 H   0  0  0  0  0  0  0  0  0  0  0  0
   -5.1284   22.6448  -29.5900 H   0  0  0  0  0  0  0  0  0  0  0  0
   -5.3820   24.1293  -28.6314 H   0  0  0  0  0  0  0  0  0  0  0  0
   -7.8578   25.0318  -30.9662 H   0  0  0  0  0  0  0  0  0  0  0  0
   -6.3229   24.3979  -31.7190 H   0  0  0  0  0  0  0  0  0  0  0  0
   -9.0690   23.4827  -32.0170 H   0  0  0  0  0  0  0  0  0  0  0  0
   -7.5646   23.0955  -32.9656 H   0  0  0  0  0  0  0  0  0  0  0  0
   -8.1540   21.9560  -30.3010 H   0  0  0  0  0  0  0  0  0  0  0  0
   -9.8239   20.0313  -31.1521 H   0  0  0  0  0  0  0  0  0  0  0  0
   -9.6216   17.6209  -31.8096 H   0  0  0  0  0  0  0  0  0  0  0  0
   -7.5103   16.8182  -32.7986 H   0  0  0  0  0  0  0  0  0  0  0  0
   -5.5876   21.9084  -32.2848 H   0  0  0  0  0  0  0  0  0  0  0  0
   -3.4288   22.3117  -32.9603 H   0  0  0  0  0  0  0  0  0  0  0  0
   -1.2479   21.4416  -33.9505 H   0  0  0  0  0  0  0  0  0  0  0  0
   -1.1362   19.0968  -34.5556 H   0  0  0  0  0  0  0  0  0  0  0  0
   -2.9641   17.4957  -34.2965 H   0  0  0  0  0  0  0  0  0  0  0  0
   -5.1971   16.2264  -32.7693 H   0  0  0  0  0  0  0  0  0  0  0  0
   -6.1290   16.5931  -34.2605 H   0  0  0  0  0  0  0  0  0  0  0  0
   -4.3390   16.7428  -34.2605 H   0  0  0  0  0  0  0  0  0  0  0  0
  1  2  1  0
  2  3  1  0
  3  4  1  0
  3  5  1  0
  5  6  1  0
  6  7  1  0
  7  8  1  0
  8  9  1  0
  9 10  1  0
 10 11  1  0
 11 12  1  0
 12 13  1  0
 13 14  1  0
 14 15  2  0
 15 16  1  0
 16 17  2  0
 17 18  1  0
 18 19  2  0
 19 20  1  0
 20 21  2  0
 21 22  1  0
 22 23  2  0
 23 24  1  0
 24 25  2  0
 25 26  1  0
 26 27  2  0
 27 28  1  0
 19 14  1  0
 26 21  1  0
 27 18  1  0
  1 29  1  0
  1 30  1  0
  1 31  1  0
  2 32  1  0
  2 33  1  0
  4 34  1  0
  4 35  1  0
  4 36  1  0
  5 37  1  0
  5 38  1  0
  6 39  1  0
  6 40  1  0
  8 41  1  0
  8 42  1  0
  9 43  1  0
  9 44  1  0
 11 45  1  0
 11 46  1  0
 12 47  1  0
 12 48  1  0
 13 49  1  0
 15 50  1  0
 16 51  1  0
 17 52  1  0
 20 53  1  0
 22 54  1  0
 23 55  1  0
 24 56  1  0
 25 57  1  0
 28 58  1  0
 28 59  1  0
 28 60  1  0
M  CHG  1  27   1
M  END
>  <smiles>  (9) 
CCN(C)CCOCCOCCNc1cccc2c1cc1ccccc1[n+]2C

>  <score_type>  (9) 
oracle

>  <origin>  (9) 
adg

>  <m_score__min__energy>  (9) 
-8.7100000000000009

>  <m_primary>  (9) 
energy

$$$$
12:0
     RDKit          3D

 77 80  0  0  0  0  0  0  0  0999 V2000
   -1.3190   18.1780  -33.4710 C   0  0  0  0  0  0  0  0  0  0  0  0
   -1.4700   19.2010  -32.4020 C   0  0  0  0  0  0  0  0  0  0  0  0
   -1.1030   20.5430  -32.7550 N   0  0  0  0  0  0  0  0  0  0  0  0
    0.0210   20.5200  -33.6690 C   0  0  0  0  0  0  0  0  0  0  0  0
   -0.1080   21.5210  -34.7740 C   0  0  0  0  0  0  0  0  0  0  0  0
   -0.7320   21.3720  -31.6230 C   0  0  0  0  0  0  0  0  0  0  0  0
   -1.0160   20.6860  -30.3060 C   0  0  0  0  0  0  0  0  0  0  0  0
   -2.2270   21.1730  -33.3830 C   0  0  0  0  0  0  0  0  0  0  0  0
   -3.4720   21.2310  -32.5430 C   0  0  0  0  0  0  0  0  0  0  0  0
   -4.6410   21.3260  -33.4570 N   0  0  0  0  0  0  0  0  0  0  0  0
   -5.7990   20.6510  -33.0030 C   0  0  0  0  0  0  0  0  0  0  0  0
   -5.8150   19.2800  -33.2650 C   0  0  0  0  0  0  0  0  0  0  0  0
   -4.7100   18.6760  -33.8780 C   0  0  0  0  0  0  0  0  0  0  0  0
   -4.6450   17.3430  -34.1660 C   0  0  0  0  0  0  0  0  0  0  0  0
   -5.7210   16.5570  -33.8350 C   0  0  0  0  0  0  0  0  0  0  0  0
   -6.8350   17.1270  -33.2260 C   0  0  0  0  0  0  0  0  0  0  0  0
   -6.8780   18.4720  -32.9450 C   0  0  0  0  0  0  0  0  0  0  0  0
   -7.9430   19.0330  -32.3530 N   0  0  0  0  0  0  0  0  0  0  0  0
   -9.1140   18.2770  -31.9660 C   0  0  0  0  0  0  0  0  0  0  0  0
   -7.9600   20.3560  -32.0820 C   0  0  0  0  0  0  0  0  0  0  0  0
   -9.0830   20.8730  -31.4720 C   0  0  0  0  0  0  0  0  0  0  0  0
   -9.1330   22.2120  -31.1810 C   0  0  0  0  0  0  0  0  0  0  0  0
   -8.0590   23.0150  -31.5020 C   0  0  0  0  0  0  0  0  0  0  0  0
   -6.9080   22.5450  -32.1130 C   0  0  0  0  0  0  0  0  0  0  0  0
   -5.8580   23.4480  -32.3500 N   0  0  0  0  0  0  0  0  0  0  0  0
   -5.3420   24.2730  -31.2300 C   0  0  0  0  0  0  0  0  0  0  0  0
   -4.3420   23.5150  -30.3940 C   0  0  0  0  0  0  0  0  0  0  0  0
   -4.7150   23.5020  -28.9500 C   0  0  0  0  0  0  0  0  0  0  0  0
   -3.7830   24.1170  -28.0690 N   0  0  0  0  0  0  0  0  0  0  0  0
   -2.4580   24.0970  -28.3900 C   0  0  0  0  0  0  0  0  0  0  0  0
   -1.4980   24.6660  -27.5960 C   0  0  0  0  0  0  0  0  0  0  0  0
   -1.8870   25.2890  -26.4140 C   0  0  0  0  0  0  0  0  0  0  0  0
   -3.2350   25.2920  -26.1130 C   0  0  0  0  0  0  0  0  0  0  0  0
   -4.1870   24.7110  -26.9300 C   0  0  0  0  0  0  0  0  0  0  0  0
   -6.8850   21.1970  -32.3990 C   0  0  0  0  0  0  0  0  0  0  0  0
   -1.1729   17.1884  -33.0135 H   0  0  0  0  0  0  0  0  0  0  0  0
   -2.2247   18.1634  -34.0951 H   0  0  0  0  0  0  0  0  0  0  0  0
   -0.4477   18.4257  -34.0951 H   0  0  0  0  0  0  0  0  0  0  0  0
   -2.5259   19.2115  -32.0938 H   0  0  0  0  0  0  0  0  0  0  0  0
   -0.7703   18.9030  -31.6073 H   0  0  0  0  0  0  0  0  0  0  0  0
    0.9386   20.7381  -33.1029 H   0  0  0  0  0  0  0  0  0  0  0  0
    0.0524   19.5215  -34.1294 H   0  0  0  0  0  0  0  0  0  0  0  0
   -0.2375   22.5257  -34.3453 H   0  0  0  0  0  0  0  0  0  0  0  0
    0.8001   21.5013  -35.3944 H   0  0  0  0  0  0  0  0  0  0  0  0
   -0.9814   21.2717  -35.3944 H   0  0  0  0  0  0  0  0  0  0  0  0
    0.3433   21.5957  -31.6831 H   0  0  0  0  0  0  0  0  0  0  0  0
   -1.3311   22.2936  -31.6640 H   0  0  0  0  0  0  0  0  0  0  0  0
   -0.7393   21.3543  -29.4773 H   0  0  0  0  0  0  0  0  0  0  0  0
   -2.0875   20.4458  -30.2412 H   0  0  0  0  0  0  0  0  0  0  0  0
   -0.4278   19.7587  -30.2412 H   0  0  0  0  0  0  0  0  0  0  0  0
   -1.9408   22.2033  -33.6411 H   0  0  0  0  0  0  0  0  0  0  0  0
   -2.4753   20.5569  -34.2598 H   0  0  0  0  0  0  0  0  0  0  0  0
   -3.5509   20.3212  -31.9298 H   0  0  0  0  0  0  0  0  0  0  0  0
   -3.4398   22.1029  -31.8730 H   0  0  0  0  0  0  0  0  0  0  0  0
   -4.5910   21.8860  -34.3390 H   0  0  0  0  0  0  0  0  0  0  0  0
   -3.8495   19.3087  -34.1412 H   0  0  0  0  0  0  0  0  0  0  0  0
   -3.7562   16.9112  -34.6493 H   0  0  0  0  0  0  0  0  0  0  0  0
   -5.7026   15.4785  -34.0508 H   0  0  0  0  0  0  0  0  0  0  0  0
   -7.6943   16.4916  -32.9655 H   0  0  0  0  0  0  0  0  0  0  0  0
   -9.1777   18.2359  -30.8686 H   0  0  0  0  0  0  0  0  0  0  0  0
  -10.0145   18.7647  -32.3675 H   0  0  0  0  0  0  0  0  0  0  0  0
   -9.0402   17.2556  -32.3675 H   0  0  0  0  0  0  0  0  0  0  0  0
   -9.9304   20.2180  -31.2213 H   0  0  0  0  0  0  0  0  0  0  0  0
  -10.0218   22.6417  -30.6959 H   0  0  0  0  0  0  0  0  0  0  0  0
   -8.1194   24.0863  -31.2599 H   0  0  0  0  0  0  0  0  0  0  0  0
   -5.3300   23.6380  -33.2060 H   0  0  0  0  0  0  0  0  0  0  0  0
   -4.8556   25.1694  -31.6421 H   0  0  0  0  0  0  0  0  0  0  0  0
   -6.1907   24.5462  -30.5858 H   0  0  0  0  0  0  0  0  0  0  0  0
   -4.2900   22.4777  -30.7565 H   0  0  0  0  0  0  0  0  0  0  0  0
   -3.3690   24.0194  -30.4886 H   0  0  0  0  0  0  0  0  0  0  0  0
   -5.6768   24.0252  -28.8442 H   0  0  0  0  0  0  0  0  0  0  0  0
   -4.7509   22.4421  -28.6580 H   0  0  0  0  0  0  0  0  0  0  0  0
   -2.1479   23.6045  -29.3234 H   0  0  0  0  0  0  0  0  0  0  0  0
   -0.4379   24.6312  -27.8875 H   0  0  0  0  0  0  0  0  0  0  0  0
   -1.1506   25.7601  -25.7463 H   0  0  0  0  0  0  0  0  0  0  0  0
   -3.5654   25.7777  -25.1830 H   0  0  0  0  0  0  0  0  0  0  0  0
   -5.2519   24.7335  -26.6554 H   0  0  0  0  0  0  0  0  0  0  0  0
  1  2  1  0
  2  3  1  0
  3  4  1  0
  4  5  1  0
  3  6  1  0
  6  7  1  0
  3  8  1  0
  8  9  1  0
  9 10  1  0
 10 11  1  0
 11 12  2  0
 12 13  1  0
 13 14  2  0
 14 15  1  0
 15 16  2  0
 16 17  1  0
 17 18  2  0
 18 19  1  0
 18 20  1  0
 20 21  2  0
 21 22  1  0
 22 23  2  0
 23 24  1  0
 24 25  1  0
 25 26  1  0
 26 27  1  0
 27 28  1  0
 28 29  1  0
 29 30  2  0
 30 31  1  0
 31 32  2  0
 32 33  1  0
 33 34  2  0
 24 35  2  0
 35 11  1  0
 17 12  1  0
 35 20  1  0
 34 29  1  0
  1 36  1  0
  1 37  1  0
  1 38  1  0
  2 39  1  0
  2 40  1  0
  4 41  1  0
  4 42  1  0
  5 43  1  0
  5 44  1  0
  5 45  1  0
  6 46  1  0
  6 47  1  0
  7 48  1  0
  7 49  1  0
  7 50  1  0
  8 51  1  0
  8 52  1  0
  9 53  1  0
  9 54  1  0
 10 55  1  0
 13 56  1  0
 14 57  1  0
 15 58  1  0
 16 59  1  0
 19 60  1  0
 19 61  1  0
 19 62  1  0
 21 63  1  0
 22 64  1  0
 23 65  1  0
 25 66  1  0
 26 67  1  0
 26 68  1  0
 27 69  1  0
 27 70  1  0
 28 71  1  0
 28 72  1  0
 30 73  1  0
 31 74  1  0
 32 75  1  0
 33 76  1  0
 34 77  1  0
M  CHG  3   3   1  18   1  29   1
M  END
>  <smiles>  (10) 
CC[N+](CC)(CC)CCNc1c2ccccc2[n+](C)c2cccc(NCCC[n+]3ccccc3)c12

>  <score_type>  (10) 
oracle

>  <origin>  (10) 
adg

>  <m_score__min__energy>  (10) 
-8.0399999999999991

>  <m_primary>  (10) 
energy

$$$$
14:0
     RDKit          3D

 43 46  0  0  1  0  0  0  0  0999 V2000
   -6.4920   25.6690  -29.6980 C   0  0  0  0  0  0  0  0  0  0  0  0
   -5.6250   24.7890  -30.4570 N   0  0  0  0  0  0  0  0  0  0  0  0
   -4.3080   24.8340  -30.4030 N   0  0  0  0  0  0  0  0  0  0  0  0
   -3.8640   23.9000  -31.2170 N   0  0  0  0  0  0  0  0  0  0  0  0
   -4.8750   23.2830  -31.7660 N   0  0  0  0  0  0  0  0  0  0  0  0
   -6.0270   23.8080  -31.3190 C   0  0  0  0  0  0  0  0  0  0  0  0
   -7.7130   23.4820  -31.6730 S   0  0  0  0  0  0  0  0  0  0  0  0
   -8.4210   21.9760  -31.1100 C   0  0  0  0  0  0  0  0  0  0  0  0
   -9.2480   21.1600  -32.0570 C   0  0  0  0  0  0  0  0  0  0  0  0
   -9.1000   19.7170  -31.8130 C   0  0  0  0  0  0  0  0  0  0  0  0
   -7.9740   19.0930  -32.4370 N   0  0  0  0  0  0  0  0  0  0  0  0
   -7.2890   18.1460  -31.5940 C   0  0  0  0  0  0  0  0  0  0  0  0
   -6.1250   17.7450  -32.4790 C   0  0  1  0  0  0  0  0  0  0  0  0
   -6.4030   17.7500  -33.9450 C   0  0  0  0  0  0  0  0  0  0  0  0
   -5.8740   18.9700  -33.3060 C   0  0  2  0  0  0  0  0  0  0  0  0
   -4.4790   19.4280  -33.4790 C   0  0  0  0  0  0  0  0  0  0  0  0
   -3.4740   18.6300  -33.9750 C   0  0  0  0  0  0  0  0  0  0  0  0
   -2.1670   19.0770  -34.1300 C   0  0  0  0  0  0  0  0  0  0  0  0
   -1.8310   20.3760  -33.7800 C   0  0  0  0  0  0  0  0  0  0  0  0
   -2.8130   21.1850  -33.2870 C   0  0  0  0  0  0  0  0  0  0  0  0
   -4.1220   20.7250  -33.1350 C   0  0  0  0  0  0  0  0  0  0  0  0
   -6.9320   19.9690  -32.8690 C   0  0  0  0  0  0  0  0  0  0  0  0
   -6.3302   25.5048  -28.6224 H   0  0  0  0  0  0  0  0  0  0  0  0
   -6.2620   26.7153  -29.9479 H   0  0  0  0  0  0  0  0  0  0  0  0
   -7.5416   25.4546  -29.9479 H   0  0  0  0  0  0  0  0  0  0  0  0
   -7.5916   21.3364  -30.7739 H   0  0  0  0  0  0  0  0  0  0  0  0
   -9.1403   22.2952  -30.3414 H   0  0  0  0  0  0  0  0  0  0  0  0
  -10.3058   21.4348  -31.9325 H   0  0  0  0  0  0  0  0  0  0  0  0
   -8.9008   21.3696  -33.0795 H   0  0  0  0  0  0  0  0  0  0  0  0
   -9.0111   19.5656  -30.7271 H   0  0  0  0  0  0  0  0  0  0  0  0
   -9.9883   19.2456  -32.2589 H   0  0  0  0  0  0  0  0  0  0  0  0
   -6.9424   18.6148  -30.6612 H   0  0  0  0  0  0  0  0  0  0  0  0
   -7.9142   17.3033  -31.2640 H   0  0  0  0  0  0  0  0  0  0  0  0
   -5.5983   17.0186  -31.8426 H   0  0  0  0  0  0  0  0  0  0  0  0
   -5.7651   17.1672  -34.6258 H   0  0  0  0  0  0  0  0  0  0  0  0
   -7.2809   17.5207  -34.5669 H   0  0  0  0  0  0  0  0  0  0  0  0
   -3.7148   17.5954  -34.2607 H   0  0  0  0  0  0  0  0  0  0  0  0
   -1.3985   18.3996  -34.5307 H   0  0  0  0  0  0  0  0  0  0  0  0
   -0.8010   20.7442  -33.8966 H   0  0  0  0  0  0  0  0  0  0  0  0
   -2.5684   22.2194  -33.0040 H   0  0  0  0  0  0  0  0  0  0  0  0
   -4.8878   21.4051  -32.7338 H   0  0  0  0  0  0  0  0  0  0  0  0
   -6.5719   20.6045  -32.0465 H   0  0  0  0  0  0  0  0  0  0  0  0
   -7.2339   20.6805  -33.6517 H   0  0  0  0  0  0  0  0  0  0  0  0
  1  2  1  0
  2  3  1  0
  3  4  2  0
  4  5  1  0
  5  6  2  0
  6  7  1  0
  7  8  1  0
  8  9  1  0
  9 10  1  0
 10 11  1  0
 11 12  1  0
 12 13  1  0
 13 14  1  0
 14 15  1  0
 15 16  1  6
 16 17  2  0
 17 18  1  0
 18 19  2  0
 19 20  1  0
 20 21  2  0
 15 22  1  0
  6  2  1  0
 22 11  1  0
 15 13  1  0
 21 16  1  0
  1 23  1  0
  1 24  1  0
  1 25  1  0
  8 26  1  0
  8 27  1  0
  9 28  1  0
  9 29  1  0
 10 30  1  0
 10 31  1  0
 12 32  1  0
 12 33  1  0
 13 34  1  1
 14 35  1  0
 14 36  1  0
 17 37  1  0
 18 38  1  0
 19 39  1  0
 20 40  1  0
 21 41  1  0
 22 42  1  0
 22 43  1  0
M  END
>  <smiles>  (11) 
Cn1nnnc1SCCCN1CC2CC2(c2ccccc2)C1

>  <score_type>  (11) 
oracle

>  <origin>  (11) 
adg

>  <m_score__min__energy>  (11) 
-9.5299999999999994

>  <m_primary>  (11) 
energy

$$$$
15:0
     RDKit          3D

 53 55  0  0  0  0  0  0  0  0999 V2000
   -1.9370   25.6150  -26.5740 C   0  0  0  0  0  0  0  0  0  0  0  0
   -1.1770   25.9650  -27.8590 C   0  0  0  0  0  0  0  0  0  0  0  0
   -1.9180   25.6340  -28.9540 O   0  0  0  0  0  0  0  0  0  0  0  0
   -2.5820   24.4340  -28.8830 C   0  0  0  0  0  0  0  0  0  0  0  0
   -3.3540   24.1070  -30.1240 C   0  0  0  0  0  0  0  0  0  0  0  0
   -3.9430   25.1950  -30.7170 O   0  0  0  0  0  0  0  0  0  0  0  0
   -5.2680   25.3400  -30.3710 C   0  0  0  0  0  0  0  0  0  0  0  0
   -5.9520   23.9810  -30.2160 C   0  0  0  0  0  0  0  0  0  0  0  0
   -7.0090   23.7940  -31.2860 C   0  0  0  0  0  0  0  0  0  0  0  0
   -6.4650   23.0600  -32.3960 N   0  0  0  0  0  0  0  0  0  0  0  0
   -6.3250   21.6540  -32.4430 C   0  0  0  0  0  0  0  0  0  0  0  0
   -7.3970   20.7860  -32.2280 C   0  0  0  0  0  0  0  0  0  0  0  0
   -7.1990   19.4220  -32.2880 C   0  0  0  0  0  0  0  0  0  0  0  0
   -5.9980   18.8750  -32.5490 N   0  0  0  0  0  0  0  0  0  0  0  0
   -5.8110   17.4320  -32.6070 C   0  0  0  0  0  0  0  0  0  0  0  0
   -4.9440   19.6840  -32.7610 C   0  0  0  0  0  0  0  0  0  0  0  0
   -3.6940   19.1630  -33.0330 C   0  0  0  0  0  0  0  0  0  0  0  0
   -2.6030   19.9790  -33.2530 C   0  0  0  0  0  0  0  0  0  0  0  0
   -2.7280   21.3540  -33.2090 C   0  0  0  0  0  0  0  0  0  0  0  0
   -3.9870   21.8820  -32.9350 C   0  0  0  0  0  0  0  0  0  0  0  0
   -5.0850   21.0740  -32.7140 C   0  0  0  0  0  0  0  0  0  0  0  0
   -8.4940   18.7260  -32.0230 C   0  0  0  0  0  0  0  0  0  0  0  0
   -9.4800   19.7810  -32.4530 C   0  0  0  0  0  0  0  0  0  0  0  0
   -8.8330   21.0450  -31.9200 C   0  0  0  0  0  0  0  0  0  0  0  0
   -1.3293   25.8948  -25.7008 H   0  0  0  0  0  0  0  0  0  0  0  0
   -2.8891   26.1653  -26.5497 H   0  0  0  0  0  0  0  0  0  0  0  0
   -2.1377   24.5337  -26.5497 H   0  0  0  0  0  0  0  0  0  0  0  0
   -0.9695   27.0451  -27.8747 H   0  0  0  0  0  0  0  0  0  0  0  0
   -0.2342   25.3988  -27.8816 H   0  0  0  0  0  0  0  0  0  0  0  0
   -1.8439   23.6367  -28.7113 H   0  0  0  0  0  0  0  0  0  0  0  0
   -3.3079   24.5128  -28.0603 H   0  0  0  0  0  0  0  0  0  0  0  0
   -2.6656   23.6482  -30.8490 H   0  0  0  0  0  0  0  0  0  0  0  0
   -4.1665   23.4288  -29.8243 H   0  0  0  0  0  0  0  0  0  0  0  0
   -5.3321   25.8846  -29.4174 H   0  0  0  0  0  0  0  0  0  0  0  0
   -5.7776   25.8967  -31.1712 H   0  0  0  0  0  0  0  0  0  0  0  0
   -5.1992   23.1842  -30.3076 H   0  0  0  0  0  0  0  0  0  0  0  0
   -6.4337   23.9356  -29.2281 H   0  0  0  0  0  0  0  0  0  0  0  0
   -7.8592   23.2381  -30.8641 H   0  0  0  0  0  0  0  0  0  0  0  0
   -7.3440   24.7812  -31.6371 H   0  0  0  0  0  0  0  0  0  0  0  0
   -6.1340   23.5840  -33.2580 H   0  0  0  0  0  0  0  0  0  0  0  0
   -5.7586   17.0277  -31.5853 H   0  0  0  0  0  0  0  0  0  0  0  0
   -6.6573   16.9737  -33.1397 H   0  0  0  0  0  0  0  0  0  0  0  0
   -4.8759   17.2046  -33.1397 H   0  0  0  0  0  0  0  0  0  0  0  0
   -3.5650   18.0714  -33.0753 H   0  0  0  0  0  0  0  0  0  0  0  0
   -1.6221   19.5291  -33.4659 H   0  0  0  0  0  0  0  0  0  0  0  0
   -1.8623   22.0096  -33.3845 H   0  0  0  0  0  0  0  0  0  0  0  0
   -4.1106   22.9742  -32.8934 H   0  0  0  0  0  0  0  0  0  0  0  0
   -8.5920   17.8114  -32.6263 H   0  0  0  0  0  0  0  0  0  0  0  0
   -8.6205   18.3827  -30.9856 H   0  0  0  0  0  0  0  0  0  0  0  0
   -9.5802   19.8133  -33.5480 H   0  0  0  0  0  0  0  0  0  0  0  0
  -10.5021   19.6132  -32.0827 H   0  0  0  0  0  0  0  0  0  0  0  0
   -9.2029   21.9390  -32.4434 H   0  0  0  0  0  0  0  0  0  0  0  0
   -9.0385   21.2447  -30.8580 H   0  0  0  0  0  0  0  0  0  0  0  0
  1  2  1  0
  2  3  1  0
  3  4  1  0
  4  5  1  0
  5  6  1  0
  6  7  1  0
  7  8  1  0
  8  9  1  0
  9 10  1  0
 10 11  1  0
 11 12  2  0
 12 13  1  0
 13 14  2  0
 14 15  1  0
 14 16  1  0
 16 17  2  0
 17 18  1  0
 18 19  2  0
 19 20  1  0
 20 21  2  0
 13 22  1  0
 22 23  1  0
 23 24  1  0
 21 11  1  0
 24 12  1  0
 21 16  1  0
  1 25  1  0
  1 26  1  0
  1 27  1  0
  2 28  1  0
  2 29  1  0
  4 30  1  0
  4 31  1  0
  5 32  1  0
  5 33  1  0
  7 34  1  0
  7 35  1  0
  8 36  1  0
  8 37  1  0
  9 38  1  0
  9 39  1  0
 10 40  1  0
 15 41  1  0
 15 42  1  0
 15 43  1  0
 17 44  1  0
 18 45  1  0
 19 46  1  0
 20 47  1  0
 22 48  1  0
 22 49  1  0
 23 50  1  0
 23 51  1  0
 24 52  1  0
 24 53  1  0
M  CHG  1  14   1
M  END
>  <smiles>  (12) 
CCOCCOCCCNc1c2c([n+](C)c3ccccc13)CCC2

>  <score_type>  (12) 
oracle

>  <origin>  (12) 
adg

>  <m_score__min__energy>  (12) 
-9.3100000000000005

>  <m_primary>  (12) 
energy

$$$$
16:0
     RDKit          3D

 70 71  0  0  0  0  0  0  0  0999 V2000
   -0.4020   22.3550  -25.9820 C   0  0  0  0  0  0  0  0  0  0  0  0
    0.6590   22.5460  -27.0490 C   0  0  0  0  0  0  0  0  0  0  0  0
    0.4620   21.6240  -28.0520 O   0  0  0  0  0  0  0  0  0  0  0  0
    1.1150   20.4270  -27.8690 C   0  0  0  0  0  0  0  0  0  0  0  0
    0.5290   19.2710  -28.6370 C   0  0  0  0  0  0  0  0  0  0  0  0
   -0.9150   19.0370  -28.2080 C   0  0  0  0  0  0  0  0  0  0  0  0
   -1.6880   20.2590  -28.3160 N   0  0  0  0  0  0  0  0  0  0  0  0
   -2.8410   20.4830  -27.4850 C   0  0  0  0  0  0  0  0  0  0  0  0
   -3.1610   19.6020  -26.6580 O   0  0  0  0  0  0  0  0  0  0  0  0
   -3.5950   21.7630  -27.6630 C   0  0  0  0  0  0  0  0  0  0  0  0
   -3.2220   22.3800  -28.8620 N   0  0  0  0  0  0  0  0  0  0  0  0
   -2.1260   23.2690  -28.7990 C   0  0  0  0  0  0  0  0  0  0  0  0
   -1.2720   23.0520  -30.0230 C   0  0  0  0  0  0  0  0  0  0  0  0
   -1.7350   22.0700  -30.8850 N   0  0  0  0  0  0  0  0  0  0  0  0
   -0.9160   21.1430  -31.4940 C   0  0  0  0  0  0  0  0  0  0  0  0
   -0.5550   21.3950  -32.9170 C   0  0  0  0  0  0  0  0  0  0  0  0
   -1.5380   21.0790  -33.8400 N   0  0  0  0  0  0  0  0  0  0  0  0
   -2.3540   19.9800  -33.8300 C   0  0  0  0  0  0  0  0  0  0  0  0
   -3.7390   20.0180  -33.2530 C   0  0  0  0  0  0  0  0  0  0  0  0
   -3.9790   21.3410  -32.6320 N   0  0  0  0  0  0  0  0  0  0  0  0
   -5.2410   21.7500  -32.1770 C   0  0  0  0  0  0  0  0  0  0  0  0
   -6.3490   20.9830  -32.4450 C   0  0  0  0  0  0  0  0  0  0  0  0
   -7.6220   21.3250  -31.9940 C   0  0  0  0  0  0  0  0  0  0  0  0
   -8.6570   20.4820  -32.3260 O   0  0  0  0  0  0  0  0  0  0  0  0
   -8.6950   19.0970  -32.0360 C   0  0  0  0  0  0  0  0  0  0  0  0
   -7.7440   22.4770  -31.2580 C   0  0  0  0  0  0  0  0  0  0  0  0
   -6.6690   23.2700  -30.9700 C   0  0  0  0  0  0  0  0  0  0  0  0
   -6.8240   24.4310  -30.2310 C   0  0  0  0  0  0  0  0  0  0  0  0
   -5.6970   25.2080  -29.9700 C   0  0  0  0  0  0  0  0  0  0  0  0
   -4.4700   24.7930  -30.4590 C   0  0  0  0  0  0  0  0  0  0  0  0
   -4.3350   23.6560  -31.1790 N   0  0  0  0  0  0  0  0  0  0  0  0
   -5.4300   22.8960  -31.4350 C   0  0  0  0  0  0  0  0  0  0  0  0
    0.0595   22.4381  -24.9870 H   0  0  0  0  0  0  0  0  0  0  0  0
   -1.1766   23.1281  -26.0926 H   0  0  0  0  0  0  0  0  0  0  0  0
   -0.8584   21.3603  -26.0926 H   0  0  0  0  0  0  0  0  0  0  0  0
    0.5854   23.5622  -27.4635 H   0  0  0  0  0  0  0  0  0  0  0  0
    1.6568   22.4054  -26.6079 H   0  0  0  0  0  0  0  0  0  0  0  0
    2.1608   20.5545  -28.1852 H   0  0  0  0  0  0  0  0  0  0  0  0
    1.0151   20.1764  -26.8026 H   0  0  0  0  0  0  0  0  0  0  0  0
    0.5570   19.4973  -29.7131 H   0  0  0  0  0  0  0  0  0  0  0  0
    1.1179   18.3652  -28.4302 H   0  0  0  0  0  0  0  0  0  0  0  0
   -1.3633   18.2682  -28.8545 H   0  0  0  0  0  0  0  0  0  0  0  0
   -0.9223   18.7064  -27.1589 H   0  0  0  0  0  0  0  0  0  0  0  0
   -1.4140   21.0020  -29.0190 H   0  0  0  0  0  0  0  0  0  0  0  0
   -4.6738   21.5494  -27.6844 H   0  0  0  0  0  0  0  0  0  0  0  0
   -3.3624   22.4364  -26.8249 H   0  0  0  0  0  0  0  0  0  0  0  0
   -3.6750   22.1750  -29.7330 H   0  0  0  0  0  0  0  0  0  0  0  0
   -2.4893   24.3070  -28.7778 H   0  0  0  0  0  0  0  0  0  0  0  0
   -1.5382   23.0834  -27.8879 H   0  0  0  0  0  0  0  0  0  0  0  0
   -1.2221   24.0001  -30.5786 H   0  0  0  0  0  0  0  0  0  0  0  0
   -0.2909   22.7107  -29.6611 H   0  0  0  0  0  0  0  0  0  0  0  0
   -2.5690   22.4030  -31.4070 H   0  0  0  0  0  0  0  0  0  0  0  0
    0.0194   21.0961  -30.9171 H   0  0  0  0  0  0  0  0  0  0  0  0
   -1.4985   20.2100  -31.5067 H   0  0  0  0  0  0  0  0  0  0  0  0
   -0.3189   22.4640  -33.0239 H   0  0  0  0  0  0  0  0  0  0  0  0
    0.2951   20.7328  -33.1379 H   0  0  0  0  0  0  0  0  0  0  0  0
   -1.6240   21.7320  -34.6630 H   0  0  0  0  0  0  0  0  0  0  0  0
   -2.4672   19.6721  -34.8799 H   0  0  0  0  0  0  0  0  0  0  0  0
   -1.8317   19.3134  -33.1280 H   0  0  0  0  0  0  0  0  0  0  0  0
   -4.4745   19.8499  -34.0535 H   0  0  0  0  0  0  0  0  0  0  0  0
   -3.8404   19.2314  -32.4908 H   0  0  0  0  0  0  0  0  0  0  0  0
   -3.1830   22.0130  -32.5180 H   0  0  0  0  0  0  0  0  0  0  0  0
   -6.2264   20.0646  -33.0378 H   0  0  0  0  0  0  0  0  0  0  0  0
   -8.6990   18.9506  -30.9458 H   0  0  0  0  0  0  0  0  0  0  0  0
   -9.6056   18.6567  -32.4684 H   0  0  0  0  0  0  0  0  0  0  0  0
   -7.8099   18.6074  -32.4684 H   0  0  0  0  0  0  0  0  0  0  0  0
   -8.7375   22.7710  -30.8886 H   0  0  0  0  0  0  0  0  0  0  0  0
   -7.8140   24.7329  -29.8586 H   0  0  0  0  0  0  0  0  0  0  0  0
   -5.7809   26.1358  -29.3851 H   0  0  0  0  0  0  0  0  0  0  0  0
   -3.5792   25.4057  -30.2561 H   0  0  0  0  0  0  0  0  0  0  0  0
  1  2  1  0
  2  3  1  0
  3  4  1  0
  4  5  1  0
  5  6  1  0
  6  7  1  0
  7  8  1  0
  8  9  2  0
  8 10  1  0
 10 11  1  0
 11 12  1  0
 12 13  1  0
 13 14  1  0
 14 15  1  0
 15 16  1  0
 16 17  1  0
 17 18  1  0
 18 19  1  0
 19 20  1  0
 20 21  1  0
 21 22  2  0
 22 23  1  0
 23 24  1  0
 24 25  1  0
 23 26  2  0
 26 27  1  0
 27 28  2  0
 28 29  1  0
 29 30  2  0
 30 31  1  0
 31 32  2  0
 32 21  1  0
 32 27  1  0
  1 33  1  0
  1 34  1  0
  1 35  1  0
  2 36  1  0
  2 37  1  0
  4 38  1  0
  4 39  1  0
  5 40  1  0
  5 41  1  0
  6 42  1  0
  6 43  1  0
  7 44  1  0
 10 45  1  0
 10 46  1  0
 11 47  1  0
 12 48  1  0
 12 49  1  0
 13 50  1  0
 13 51  1  0
 14 52  1  0
 15 53  1  0
 15 54  1  0
 16 55  1  0
 16 56  1  0
 17 57  1  0
 18 58  1  0
 18 59  1  0
 19 60  1  0
 19 61  1  0
 20 62  1  0
 22 63  1  0
 25 64  1  0
 25 65  1  0
 25 66  1  0
 26 67  1  0
 28 68  1  0
 29 69  1  0
 30 70  1  0
M  END
>  <smiles>  (13) 
CCOCCCNC(=O)CNCCNCCNCCNc1cc(OC)cc2cccnc12

>  <score_type>  (13) 
oracle

>  <origin>  (13) 
adg

>  <m_score__min__energy>  (13) 
-7.1799999999999997

>  <m_primary>  (13) 
energy

$$$$
17:0
     RDKit          3D

 69 72  0  0  0  0  0  0  0  0999 V2000
   -1.8420   28.3180  -35.2930 C   0  0  0  0  0  0  0  0  0  0  0  0
   -0.8530   28.1230  -34.1500 C   0  0  0  0  0  0  0  0  0  0  0  0
    0.5220   28.0430  -34.6270 N   0  0  0  0  0  0  0  0  0  0  0  0
    0.7590   28.9870  -35.7020 C   0  0  0  0  0  0  0  0  0  0  0  0
    2.0380   28.6490  -36.4710 C   0  0  0  0  0  0  0  0  0  0  0  0
    1.7080   27.5670  -37.4840 C   0  0  0  0  0  0  0  0  0  0  0  0
    1.5910   26.2180  -36.9080 C   0  0  0  0  0  0  0  0  0  0  0  0
    0.4740   25.3880  -36.8100 C   0  0  0  0  0  0  0  0  0  0  0  0
    0.8630   24.1880  -36.2110 C   0  0  0  0  0  0  0  0  0  0  0  0
    0.2310   23.0270  -35.8780 C   0  0  0  0  0  0  0  0  0  0  0  0
    0.8800   21.9460  -35.2820 C   0  0  0  0  0  0  0  0  0  0  0  0
    0.2100   20.7230  -35.0040 C   0  0  0  0  0  0  0  0  0  0  0  0
    0.4990   19.7230  -35.7560 O   0  0  0  0  0  0  0  0  0  0  0  0
   -0.7500   20.4340  -33.9960 N   0  0  0  0  0  0  0  0  0  0  0  0
   -1.2110   19.0290  -34.0200 C   0  0  0  0  0  0  0  0  0  0  0  0
   -2.1070   18.8360  -32.8270 C   0  0  0  0  0  0  0  0  0  0  0  0
   -3.1480   19.8490  -32.9650 N   0  0  0  0  0  0  0  0  0  0  0  0
   -4.4840   19.5630  -33.3450 C   0  0  0  0  0  0  0  0  0  0  0  0
   -5.3290   20.5080  -33.4220 O   0  0  0  0  0  0  0  0  0  0  0  0
   -4.9840   18.2080  -33.6700 C   0  0  0  0  0  0  0  0  0  0  0  0
   -6.3990   17.8520  -33.7550 C   0  0  0  0  0  0  0  0  0  0  0  0
   -5.7060   18.1310  -35.0390 C   0  0  0  0  0  0  0  0  0  0  0  0
   -2.7150   21.2170  -32.6960 C   0  0  0  0  0  0  0  0  0  0  0  0
   -1.2450   21.3860  -33.0400 C   0  0  0  0  0  0  0  0  0  0  0  0
    2.2140   22.0920  -35.0350 C   0  0  0  0  0  0  0  0  0  0  0  0
    2.9210   23.2620  -35.3550 C   0  0  0  0  0  0  0  0  0  0  0  0
    2.2220   24.3150  -35.9520 C   0  0  0  0  0  0  0  0  0  0  0  0
    2.6390   25.5490  -36.3820 N   0  0  0  0  0  0  0  0  0  0  0  0
    4.0290   25.9680  -36.2580 C   0  0  0  0  0  0  0  0  0  0  0  0
    4.4850   26.0690  -34.8300 C   0  0  0  0  0  0  0  0  0  0  0  0
    4.5670   27.5290  -34.4110 C   0  0  0  0  0  0  0  0  0  0  0  0
    3.2930   27.9840  -33.8900 N   0  0  0  0  0  0  0  0  0  0  0  0
   -2.8431   28.5154  -34.8820 H   0  0  0  0  0  0  0  0  0  0  0  0
   -1.5246   29.1709  -35.9110 H   0  0  0  0  0  0  0  0  0  0  0  0
   -1.8721   27.4085  -35.9110 H   0  0  0  0  0  0  0  0  0  0  0  0
   -0.9397   28.9723  -33.4563 H   0  0  0  0  0  0  0  0  0  0  0  0
   -1.0950   27.1743  -33.6487 H   0  0  0  0  0  0  0  0  0  0  0  0
    1.1250   28.2680  -33.7920 H   0  0  0  0  0  0  0  0  0  0  0  0
   -0.0937   28.9599  -36.3964 H   0  0  0  0  0  0  0  0  0  0  0  0
    0.8739   29.9891  -35.2632 H   0  0  0  0  0  0  0  0  0  0  0  0
    2.4086   29.5452  -36.9902 H   0  0  0  0  0  0  0  0  0  0  0  0
    2.8171   28.2976  -35.7786 H   0  0  0  0  0  0  0  0  0  0  0  0
    0.7508   27.8223  -37.9622 H   0  0  0  0  0  0  0  0  0  0  0  0
    2.5450   27.5351  -38.1970 H   0  0  0  0  0  0  0  0  0  0  0  0
   -0.5428   25.6370  -37.1479 H   0  0  0  0  0  0  0  0  0  0  0  0
   -0.8447   22.9383  -36.0900 H   0  0  0  0  0  0  0  0  0  0  0  0
   -1.7692   18.8310  -34.9469 H   0  0  0  0  0  0  0  0  0  0  0  0
   -0.3571   18.3365  -33.9839 H   0  0  0  0  0  0  0  0  0  0  0  0
   -2.5463   17.8276  -32.8332 H   0  0  0  0  0  0  0  0  0  0  0  0
   -1.5580   18.9360  -31.8790 H   0  0  0  0  0  0  0  0  0  0  0  0
   -4.1538   17.7370  -33.1232 H   0  0  0  0  0  0  0  0  0  0  0  0
   -6.7122   16.8235  -33.5225 H   0  0  0  0  0  0  0  0  0  0  0  0
   -7.3095   18.2508  -33.2840 H   0  0  0  0  0  0  0  0  0  0  0  0
   -5.4834   17.3136  -35.7406 H   0  0  0  0  0  0  0  0  0  0  0  0
   -5.8610   18.8082  -35.8919 H   0  0  0  0  0  0  0  0  0  0  0  0
   -3.3117   21.9121  -33.3049 H   0  0  0  0  0  0  0  0  0  0  0  0
   -2.8576   21.4320  -31.6267 H   0  0  0  0  0  0  0  0  0  0  0  0
   -1.1012   22.3956  -33.4524 H   0  0  0  0  0  0  0  0  0  0  0  0
   -0.6819   21.2212  -32.1095 H   0  0  0  0  0  0  0  0  0  0  0  0
    2.7578   21.2588  -34.5659 H   0  0  0  0  0  0  0  0  0  0  0  0
    3.9967   23.3478  -35.1415 H   0  0  0  0  0  0  0  0  0  0  0  0
    4.6639   25.2356  -36.7780 H   0  0  0  0  0  0  0  0  0  0  0  0
    4.1119   26.9709  -36.7023 H   0  0  0  0  0  0  0  0  0  0  0  0
    3.7688   25.5437  -34.1811 H   0  0  0  0  0  0  0  0  0  0  0  0
    5.4804   25.6104  -34.7360 H   0  0  0  0  0  0  0  0  0  0  0  0
    5.3358   27.6386  -33.6320 H   0  0  0  0  0  0  0  0  0  0  0  0
    4.8267   28.1358  -35.2910 H   0  0  0  0  0  0  0  0  0  0  0  0
    2.5050   27.3530  -34.2190 H   0  0  0  0  0  0  0  0  0  0  0  0
    3.2680   28.0100  -32.8470 H   0  0  0  0  0  0  0  0  0  0  0  0
  1  2  1  0
  2  3  1  0
  3  4  1  0
  4  5  1  0
  5  6  1  0
  6  7  1  0
  7  8  2  0
  8  9  1  0
  9 10  2  0
 10 11  1  0
 11 12  1  0
 12 13  2  0
 12 14  1  0
 14 15  1  0
 15 16  1  0
 16 17  1  0
 17 18  1  0
 18 19  2  0
 18 20  1  0
 20 21  1  0
 21 22  1  0
 17 23  1  0
 23 24  1  0
 11 25  2  0
 25 26  1  0
 26 27  2  0
 27 28  1  0
 28 29  1  0
 29 30  1  0
 30 31  1  0
 31 32  1  0
 28  7  1  0
 27  9  1  0
 24 14  1  0
 22 20  1  0
  1 33  1  0
  1 34  1  0
  1 35  1  0
  2 36  1  0
  2 37  1  0
  3 38  1  0
  4 39  1  0
  4 40  1  0
  5 41  1  0
  5 42  1  0
  6 43  1  0
  6 44  1  0
  8 45  1  0
 10 46  1  0
 15 47  1  0
 15 48  1  0
 16 49  1  0
 16 50  1  0
 20 51  1  0
 21 52  1  0
 21 53  1  0
 22 54  1  0
 22 55  1  0
 23 56  1  0
 23 57  1  0
 24 58  1  0
 24 59  1  0
 25 60  1  0
 26 61  1  0
 29 62  1  0
 29 63  1  0
 30 64  1  0
 30 65  1  0
 31 66  1  0
 31 67  1  0
 32 68  1  0
 32 69  1  0
M  END
>  <smiles>  (14) 
CCNCCCc1cc2cc(C(=O)N3CCN(C(=O)C4CC4)CC3)ccc2n1CCCN

>  <score_type>  (14) 
oracle

>  <origin>  (14) 
adg

>  <m_score__min__energy>  (14) 
-9.4800000000000004

>  <m_primary>  (14) 
energy

$$$$
18:0
     RDKit          3D

 46 47  0  0  0  0  0  0  0  0999 V2000
   -6.3260   25.6030  -29.6770 C   0  0  0  0  0  0  0  0  0  0  0  0
   -5.3660   25.6350  -30.8490 C   0  0  0  0  0  0  0  0  0  0  0  0
   -4.1920   25.0060  -30.4650 O   0  0  0  0  0  0  0  0  0  0  0  0
   -4.3910   24.3700  -29.2640 C   0  0  0  0  0  0  0  0  0  0  0  0
   -3.1720   23.4880  -29.0300 C   0  0  0  0  0  0  0  0  0  0  0  0
   -2.3370   23.6840  -30.0950 O   0  0  0  0  0  0  0  0  0  0  0  0
   -1.5910   22.5860  -30.4860 C   0  0  0  0  0  0  0  0  0  0  0  0
   -2.1490   21.9140  -31.7190 C   0  0  0  0  0  0  0  0  0  0  0  0
   -3.5540   22.2720  -31.8870 N   0  0  0  0  0  0  0  0  0  0  0  0
   -4.5280   21.3440  -32.3590 C   0  0  0  0  0  0  0  0  0  0  0  0
   -4.1780   20.2960  -33.1790 C   0  0  0  0  0  0  0  0  0  0  0  0
   -5.1080   19.3890  -33.6800 C   0  0  0  0  0  0  0  0  0  0  0  0
   -6.4400   19.5200  -33.3590 C   0  0  0  0  0  0  0  0  0  0  0  0
   -6.8200   20.5580  -32.5410 C   0  0  0  0  0  0  0  0  0  0  0  0
   -5.8760   21.4570  -32.0470 C   0  0  0  0  0  0  0  0  0  0  0  0
   -6.3130   22.4780  -31.2310 C   0  0  0  0  0  0  0  0  0  0  0  0
   -7.6690   22.5950  -30.9130 C   0  0  0  0  0  0  0  0  0  0  0  0
   -8.5240   21.6790  -31.4340 C   0  0  0  0  0  0  0  0  0  0  0  0
   -8.1290   20.6550  -32.2470 N   0  0  0  0  0  0  0  0  0  0  0  0
   -9.1350   19.7420  -32.7430 C   0  0  0  0  0  0  0  0  0  0  0  0
   -9.1050   18.5340  -31.8410 C   0  0  0  0  0  0  0  0  0  0  0  0
   -5.7566   25.6220  -28.7360 H   0  0  0  0  0  0  0  0  0  0  0  0
   -6.9891   26.4795  -29.7221 H   0  0  0  0  0  0  0  0  0  0  0  0
   -6.9292   24.6843  -29.7221 H   0  0  0  0  0  0  0  0  0  0  0  0
   -5.8079   25.1069  -31.7068 H   0  0  0  0  0  0  0  0  0  0  0  0
   -5.1609   26.6748  -31.1437 H   0  0  0  0  0  0  0  0  0  0  0  0
   -4.4856   25.1089  -28.4546 H   0  0  0  0  0  0  0  0  0  0  0  0
   -5.3147   23.7729  -29.2802 H   0  0  0  0  0  0  0  0  0  0  0  0
   -2.6689   23.7763  -28.0953 H   0  0  0  0  0  0  0  0  0  0  0  0
   -3.4594   22.4299  -28.9411 H   0  0  0  0  0  0  0  0  0  0  0  0
   -0.5635   22.9159  -30.6990 H   0  0  0  0  0  0  0  0  0  0  0  0
   -1.6201   21.8540  -29.6654 H   0  0  0  0  0  0  0  0  0  0  0  0
   -1.5809   22.2421  -32.6019 H   0  0  0  0  0  0  0  0  0  0  0  0
   -2.0642   20.8230  -31.6067 H   0  0  0  0  0  0  0  0  0  0  0  0
   -3.7980   23.2510  -31.6390 H   0  0  0  0  0  0  0  0  0  0  0  0
   -3.1194   20.1695  -33.4500 H   0  0  0  0  0  0  0  0  0  0  0  0
   -4.7781   18.5673  -34.3327 H   0  0  0  0  0  0  0  0  0  0  0  0
   -7.1844   18.8098  -33.7483 H   0  0  0  0  0  0  0  0  0  0  0  0
   -5.5915   23.2040  -30.8282 H   0  0  0  0  0  0  0  0  0  0  0  0
   -8.0315   23.4036  -30.2613 H   0  0  0  0  0  0  0  0  0  0  0  0
   -9.5927   21.7659  -31.1883 H   0  0  0  0  0  0  0  0  0  0  0  0
  -10.1271   20.2160  -32.7092 H   0  0  0  0  0  0  0  0  0  0  0  0
   -8.9347   19.4614  -33.7876 H   0  0  0  0  0  0  0  0  0  0  0  0
   -9.1131   18.8604  -30.7906 H   0  0  0  0  0  0  0  0  0  0  0  0
   -9.9879   17.9079  -32.0372 H   0  0  0  0  0  0  0  0  0  0  0  0
   -8.1921   17.9525  -32.0372 H   0  0  0  0  0  0  0  0  0  0  0  0
  1  2  1  0
  2  3  1  0
  3  4  1  0
  4  5  1  0
  5  6  1  0
  6  7  1  0
  7  8  1  0
  8  9  1  0
  9 10  1  0
 10 11  2  0
 11 12  1  0
 12 13  2  0
 13 14  1  0
 14 15  2  0
 15 16  1  0
 16 17  2  0
 17 18  1  0
 18 19  2  0
 19 20  1  0
 20 21  1  0
 15 10  1  0
 19 14  1  0
  1 22  1  0
  1 23  1  0
  1 24  1  0
  2 25  1  0
  2 26  1  0
  4 27  1  0
  4 28  1  0
  5 29  1  0
  5 30  1  0
  7 31  1  0
  7 32  1  0
  8 33  1  0
  8 34  1  0
  9 35  1  0
 11 36  1  0
 12 37  1  0
 13 38  1  0
 16 39  1  0
 17 40  1  0
 18 41  1  0
 20 42  1  0
 20 43  1  0
 21 44  1  0
 21 45  1  0
 21 46  1  0
M  CHG  1  19   1
M  END
>  <smiles>  (15) 
CCOCCOCCNc1cccc2c1ccc[n+]2CC

>  <score_type>  (15) 
oracle

>  <origin>  (15) 
adg

>  <m_score__min__energy>  (15) 
-7.3700000000000001

>  <m_primary>  (15) 
energy

$$$$
19:0
     RDKit          3D

 49 51  0  0  1  0  0  0  0  0999 V2000
   -5.0520   23.0360  -29.3070 C   0  0  0  0  0  0  0  0  0  0  0  0
   -4.4410   24.0340  -30.1560 N   0  0  0  0  0  0  0  0  0  0  0  0
   -3.1790   24.5190  -29.7190 C   0  0  0  0  0  0  0  0  0  0  0  0
   -5.3880   25.0460  -30.5560 C   0  0  0  0  0  0  0  0  0  0  0  0
   -6.7960   24.7140  -30.2400 C   0  0  0  0  0  0  0  0  0  0  0  0
   -7.4430   24.1500  -31.3250 O   0  0  0  0  0  0  0  0  0  0  0  0
   -7.7020   22.8490  -31.6280 C   0  0  0  0  0  0  0  0  0  0  0  0
   -8.9230   22.2260  -31.6090 C   0  0  0  0  0  0  0  0  0  0  0  0
   -9.0590   20.8740  -31.9380 C   0  0  0  0  0  0  0  0  0  0  0  0
   -7.9480   20.1610  -32.2880 C   0  0  0  0  0  0  0  0  0  0  0  0
   -6.6790   20.7550  -32.3230 C   0  0  0  0  0  0  0  0  0  0  0  0
   -6.5920   22.0670  -31.9950 C   0  0  0  0  0  0  0  0  0  0  0  0
   -5.5650   19.8820  -32.7240 C   0  0  1  0  0  0  0  0  0  0  0  0
   -4.2190   20.4020  -32.4760 C   0  0  0  0  0  0  0  0  0  0  0  0
   -3.3320   20.8030  -33.4550 C   0  0  0  0  0  0  0  0  0  0  0  0
   -2.0620   21.2830  -33.1290 C   0  0  0  0  0  0  0  0  0  0  0  0
   -1.6570   21.3700  -31.8150 C   0  0  0  0  0  0  0  0  0  0  0  0
   -2.5470   20.9660  -30.8110 C   0  0  0  0  0  0  0  0  0  0  0  0
   -3.7940   20.4970  -31.1610 C   0  0  0  0  0  0  0  0  0  0  0  0
   -5.8150   18.5820  -31.9380 C   0  0  0  0  0  0  0  0  0  0  0  0
   -6.9410   17.9450  -32.5920 N   0  0  0  0  0  0  0  0  0  0  0  0
   -6.4910   17.5580  -33.9150 C   0  0  0  0  0  0  0  0  0  0  0  0
   -8.1310   18.7260  -32.6310 C   0  0  0  0  0  0  0  0  0  0  0  0
   -4.8890   23.3023  -28.2522 H   0  0  0  0  0  0  0  0  0  0  0  0
   -6.1320   22.9921  -29.5114 H   0  0  0  0  0  0  0  0  0  0  0  0
   -4.6000   22.0542  -29.5114 H   0  0  0  0  0  0  0  0  0  0  0  0
   -3.1511   24.5297  -28.6194 H   0  0  0  0  0  0  0  0  0  0  0  0
   -2.3823   23.8630  -30.0996 H   0  0  0  0  0  0  0  0  0  0  0  0
   -3.0266   25.5397  -30.0996 H   0  0  0  0  0  0  0  0  0  0  0  0
   -5.1301   25.9834  -30.0414 H   0  0  0  0  0  0  0  0  0  0  0  0
   -5.3195   25.1300  -31.6506 H   0  0  0  0  0  0  0  0  0  0  0  0
   -6.8151   24.0007  -29.4028 H   0  0  0  0  0  0  0  0  0  0  0  0
   -7.3176   25.6455  -29.9750 H   0  0  0  0  0  0  0  0  0  0  0  0
   -9.8164   22.8032  -31.3284 H   0  0  0  0  0  0  0  0  0  0  0  0
  -10.0471   20.3912  -31.9153 H   0  0  0  0  0  0  0  0  0  0  0  0
   -5.6017   22.5453  -32.0169 H   0  0  0  0  0  0  0  0  0  0  0  0
   -5.5646   19.7623  -33.8175 H   0  0  0  0  0  0  0  0  0  0  0  0
   -3.6314   20.7432  -34.5118 H   0  0  0  0  0  0  0  0  0  0  0  0
   -1.3767   21.5954  -33.9308 H   0  0  0  0  0  0  0  0  0  0  0  0
   -0.6563   21.7486  -31.5595 H   0  0  0  0  0  0  0  0  0  0  0  0
   -2.2525   21.0229  -29.7527 H   0  0  0  0  0  0  0  0  0  0  0  0
   -4.4821   20.1844  -30.3617 H   0  0  0  0  0  0  0  0  0  0  0  0
   -4.9287   17.9318  -31.9784 H   0  0  0  0  0  0  0  0  0  0  0  0
   -6.0187   18.7801  -30.8753 H   0  0  0  0  0  0  0  0  0  0  0  0
   -5.6598   16.8432  -33.8250 H   0  0  0  0  0  0  0  0  0  0  0  0
   -7.3215   17.0877  -34.4618 H   0  0  0  0  0  0  0  0  0  0  0  0
   -6.1503   18.4496  -34.4618 H   0  0  0  0  0  0  0  0  0  0  0  0
   -8.5451   18.6677  -33.6484 H   0  0  0  0  0  0  0  0  0  0  0  0
   -8.8003   18.3080  -31.8647 H   0  0  0  0  0  0  0  0  0  0  0  0
  1  2  1  0
  2  3  1  0
  2  4  1  0
  4  5  1  0
  5  6  1  0
  6  7  1  0
  7  8  2  0
  8  9  1  0
  9 10  2  0
 10 11  1  0
 11 12  2  0
 11 13  1  0
 13 14  1  0
 14 15  2  0
 15 16  1  0
 16 17  2  0
 17 18  1  0
 18 19  2  0
 13 20  1  0
 20 21  1  0
 21 22  1  0
 21 23  1  0
 12  7  1  0
 19 14  1  0
 23 10  1  0
  1 24  1  0
  1 25  1  0
  1 26  1  0
  3 27  1  0
  3 28  1  0
  3 29  1  0
  4 30  1  0
  4 31  1  0
  5 32  1  0
  5 33  1  0
  8 34  1  0
  9 35  1  0
 12 36  1  0
 13 37  1  6
 15 38  1  0
 16 39  1  0
 17 40  1  0
 18 41  1  0
 19 42  1  0
 20 43  1  0
 20 44  1  0
 22 45  1  0
 22 46  1  0
 22 47  1  0
 23 48  1  0
 23 49  1  0
M  END
>  <smiles>  (16) 
CN(C)CCOc1ccc2c(c1)C(c1ccccc1)CN(C)C2

>  <score_type>  (16) 
oracle

>  <origin>  (16) 
adg

>  <m_score__min__energy>  (16) 
-8.2599999999999998

>  <m_primary>  (16) 
energy

$$$$
20:0
     RDKit          3D

 48 50  0  0  1  0  0  0  0  0999 V2000
   -1.2720   20.5730  -29.7960 C   0  0  0  0  0  0  0  0  0  0  0  0
   -1.9830   21.8420  -29.6100 C   0  0  0  0  0  0  0  0  0  0  0  0
   -2.5760   22.8810  -29.4450 C   0  0  0  0  0  0  0  0  0  0  0  0
   -3.3210   24.1460  -29.2310 C   0  0  0  0  0  0  0  0  0  0  0  0
   -3.5270   24.7820  -30.4660 O   0  0  0  0  0  0  0  0  0  0  0  0
   -4.6140   25.4930  -30.8380 N   0  0  0  0  0  0  0  0  0  0  0  0
   -5.8230   25.0900  -30.6500 C   0  0  0  0  0  0  0  0  0  0  0  0
   -6.2690   23.6920  -30.8280 C   0  0  0  0  0  0  0  0  0  0  0  0
   -5.9450   23.0930  -32.0810 N   0  0  0  0  0  0  0  0  0  0  0  0
   -5.9490   21.6990  -32.3520 C   0  0  0  0  0  0  0  0  0  0  0  0
   -4.7510   21.0350  -32.6530 C   0  0  0  0  0  0  0  0  0  0  0  0
   -4.7160   19.6860  -32.9260 C   0  0  0  0  0  0  0  0  0  0  0  0
   -5.8710   18.9680  -32.9030 N   0  0  0  0  0  0  0  0  0  0  0  0
   -5.9150   17.5500  -33.1800 C   0  0  0  0  0  0  0  0  0  0  0  0
   -7.0630   19.5580  -32.6170 C   0  0  0  0  0  0  0  0  0  0  0  0
   -8.2400   18.8000  -32.6070 C   0  0  0  0  0  0  0  0  0  0  0  0
   -9.4620   19.3810  -32.3280 C   0  0  0  0  0  0  0  0  0  0  0  0
   -9.4630   20.7300  -32.0620 C   0  0  0  0  0  0  0  0  0  0  0  0
   -8.2930   21.4830  -32.0710 C   0  0  0  0  0  0  0  0  0  0  0  0
   -7.0830   20.9200  -32.3440 C   0  0  0  0  0  0  0  0  0  0  0  0
   -3.4850   18.9300  -33.2490 C   0  0  0  0  0  0  0  0  0  0  0  0
   -2.2730   19.7720  -33.0390 C   0  0  0  0  0  0  0  0  0  0  0  0
   -2.4710   21.2070  -33.4720 C   0  0  0  0  0  0  0  0  0  0  0  0
   -3.5350   21.8990  -32.6570 C   0  0  0  0  0  0  0  0  0  0  0  0
   -1.0299   20.1410  -28.8138 H   0  0  0  0  0  0  0  0  0  0  0  0
   -1.9099   19.8741  -30.3569 H   0  0  0  0  0  0  0  0  0  0  0  0
   -0.3428   20.7521  -30.3569 H   0  0  0  0  0  0  0  0  0  0  0  0
   -4.2929   23.9250  -28.7656 H   0  0  0  0  0  0  0  0  0  0  0  0
   -2.7402   24.8066  -28.5705 H   0  0  0  0  0  0  0  0  0  0  0  0
   -6.5710   25.8334  -30.3371 H   0  0  0  0  0  0  0  0  0  0  0  0
   -5.8067   23.0864  -30.0346 H   0  0  0  0  0  0  0  0  0  0  0  0
   -7.3678   23.7207  -30.7853 H   0  0  0  0  0  0  0  0  0  0  0  0
   -5.6730   23.7090  -32.9050 H   0  0  0  0  0  0  0  0  0  0  0  0
   -5.9323   16.9917  -32.2324 H   0  0  0  0  0  0  0  0  0  0  0  0
   -6.8208   17.3175  -33.7592 H   0  0  0  0  0  0  0  0  0  0  0  0
   -5.0254   17.2618  -33.7592 H   0  0  0  0  0  0  0  0  0  0  0  0
   -8.1910   17.7230  -32.8251 H   0  0  0  0  0  0  0  0  0  0  0  0
  -10.3909   18.7918  -32.3191 H   0  0  0  0  0  0  0  0  0  0  0  0
  -10.4169   21.2286  -31.8354 H   0  0  0  0  0  0  0  0  0  0  0  0
   -8.3465   22.5597  -31.8522 H   0  0  0  0  0  0  0  0  0  0  0  0
   -3.4253   18.0445  -32.5992 H   0  0  0  0  0  0  0  0  0  0  0  0
   -3.5248   18.6289  -34.3062 H   0  0  0  0  0  0  0  0  0  0  0  0
   -2.0186   19.7602  -31.9689 H   0  0  0  0  0  0  0  0  0  0  0  0
   -1.4666   19.3493  -33.6563 H   0  0  0  0  0  0  0  0  0  0  0  0
   -1.5216   21.7492  -33.3509 H   0  0  0  0  0  0  0  0  0  0  0  0
   -2.7949   21.2042  -34.5232 H   0  0  0  0  0  0  0  0  0  0  0  0
   -3.1787   22.0460  -31.6267 H   0  0  0  0  0  0  0  0  0  0  0  0
   -3.7679   22.8826  -33.0910 H   0  0  0  0  0  0  0  0  0  0  0  0
  1  2  1  0
  2  3  3  0
  3  4  1  0
  4  5  1  0
  5  6  1  0
  6  7  2  0
  7  8  1  0
  8  9  1  0
  9 10  1  0
 10 11  2  0
 11 12  1  0
 12 13  2  0
 13 14  1  0
 13 15  1  0
 15 16  2  0
 16 17  1  0
 17 18  2  0
 18 19  1  0
 19 20  2  0
 12 21  1  0
 21 22  1  0
 22 23  1  0
 23 24  1  0
 20 10  1  0
 24 11  1  0
 20 15  1  0
  1 25  1  0
  1 26  1  0
  1 27  1  0
  4 28  1  0
  4 29  1  0
  7 30  1  0
  8 31  1  0
  8 32  1  0
  9 33  1  0
 14 34  1  0
 14 35  1  0
 14 36  1  0
 16 37  1  0
 17 38  1  0
 18 39  1  0
 19 40  1  0
 21 41  1  0
 21 42  1  0
 22 43  1  0
 22 44  1  0
 23 45  1  0
 23 46  1  0
 24 47  1  0
 24 48  1  0
M  CHG  1  13   1
M  END
>  <smiles>  (17) 
CC#CCON=CCNc1c2c([n+](C)c3ccccc13)CCCC2

>  <score_type>  (17) 
oracle

>  <origin>  (17) 
adg

>  <m_score__min__energy>  (17) 
-9.2799999999999994

>  <m_primary>  (17) 
energy

$$$$
