0:0
     RDKit          3D

 57 60  0  0  0  0  0  0  0  0999 V2000
   -0.1700   26.5760  -27.0510 C   0  0  0  0  0  0  0  0  0  0  0  0
   -0.1290   25.6400  -28.1220 O   0  0  0  0  0  0  0  0  0  0  0  0
   -0.9500   24.5050  -28.2250 C   0  0  0  0  0  0  0  0  0  0  0  0
   -2.0870   24.4830  -29.0500 C   0  0  0  0  0  0  0  0  0  0  0  0
   -2.8930   23.3420  -29.1290 C   0  0  0  0  0  0  0  0  0  0  0  0
   -4.0440   23.3230  -29.9910 N   0  0  0  0  0  0  0  0  0  0  0  0
   -4.3840   24.3030  -30.8160 N   0  0  0  0  0  0  0  0  0  0  0  0
   -5.4760   23.9510  -31.4760 N   0  0  0  0  0  0  0  0  0  0  0  0
   -5.7870   22.7250  -31.0060 C   0  0  0  0  0  0  0  0  0  0  0  0
   -6.9180   21.9110  -31.4930 C   0  0  0  0  0  0  0  0  0  0  0  0
   -8.2240   22.2910  -31.1400 C   0  0  0  0  0  0  0  0  0  0  0  0
   -9.3260   21.6080  -31.6570 C   0  0  0  0  0  0  0  0  0  0  0  0
   -9.1380   20.5340  -32.5260 C   0  0  0  0  0  0  0  0  0  0  0  0
   -7.8480   20.1260  -32.8630 C   0  0  0  0  0  0  0  0  0  0  0  0
   -6.7270   20.7980  -32.3500 C   0  0  0  0  0  0  0  0  0  0  0  0
   -5.4120   20.2840  -32.6390 N   0  0  0  0  0  0  0  0  0  0  0  0
   -5.2020   18.8300  -32.4650 C   0  0  0  0  0  0  0  0  0  0  0  0
   -4.0720   18.2560  -33.3430 C   0  0  0  0  0  0  0  0  0  0  0  0
   -2.6420   18.7320  -32.9950 C   0  0  0  0  0  0  0  0  0  0  0  0
   -2.5510   19.9770  -32.0960 C   0  0  0  0  0  0  0  0  0  0  0  0
   -3.1060   21.2610  -32.7320 C   0  0  0  0  0  0  0  0  0  0  0  0
   -4.4800   21.1280  -33.4080 C   0  0  0  0  0  0  0  0  0  0  0  0
   -4.8960   22.3140  -30.0840 N   0  0  0  0  0  0  0  0  0  0  0  0
   -2.5600   22.2150  -28.3660 C   0  0  0  0  0  0  0  0  0  0  0  0
   -1.4250   22.2100  -27.5340 C   0  0  0  0  0  0  0  0  0  0  0  0
   -1.0980   21.0780  -26.7700 O   0  0  0  0  0  0  0  0  0  0  0  0
   -1.9410   19.9460  -26.5810 C   0  0  0  0  0  0  0  0  0  0  0  0
   -0.6060   23.3680  -27.4730 C   0  0  0  0  0  0  0  0  0  0  0  0
    0.5600   23.4600  -26.6910 O   0  0  0  0  0  0  0  0  0  0  0  0
    0.6320   23.4920  -25.2690 C   0  0  0  0  0  0  0  0  0  0  0  0
   -0.1464   26.0374  -26.0922 H   0  0  0  0  0  0  0  0  0  0  0  0
    0.6996   27.2464  -27.1164 H   0  0  0  0  0  0  0  0  0  0  0  0
   -1.0949   27.1678  -27.1164 H   0  0  0  0  0  0  0  0  0  0  0  0
   -2.3467   25.3736  -29.6410 H   0  0  0  0  0  0  0  0  0  0  0  0
   -8.3792   23.1338  -30.4504 H   0  0  0  0  0  0  0  0  0  0  0  0
  -10.3442   21.9175  -31.3785 H   0  0  0  0  0  0  0  0  0  0  0  0
  -10.0081   20.0081  -32.9461 H   0  0  0  0  0  0  0  0  0  0  0  0
   -7.7071   19.2688  -33.5378 H   0  0  0  0  0  0  0  0  0  0  0  0
   -4.9532   18.6391  -31.4107 H   0  0  0  0  0  0  0  0  0  0  0  0
   -6.1329   18.3322  -32.7742 H   0  0  0  0  0  0  0  0  0  0  0  0
   -4.0952   17.1602  -33.2493 H   0  0  0  0  0  0  0  0  0  0  0  0
   -4.2694   18.6220  -34.3614 H   0  0  0  0  0  0  0  0  0  0  0  0
   -2.1272   17.9066  -32.4815 H   0  0  0  0  0  0  0  0  0  0  0  0
   -2.1819   19.0201  -33.9517 H   0  0  0  0  0  0  0  0  0  0  0  0
   -3.1165   19.7776  -31.1738 H   0  0  0  0  0  0  0  0  0  0  0  0
   -1.4810   20.1545  -31.9128 H   0  0  0  0  0  0  0  0  0  0  0  0
   -3.1902   22.0211  -31.9413 H   0  0  0  0  0  0  0  0  0  0  0  0
   -2.4014   21.5283  -33.5333 H   0  0  0  0  0  0  0  0  0  0  0  0
   -4.9189   22.1311  -33.5138 H   0  0  0  0  0  0  0  0  0  0  0  0
   -4.3248   20.6472  -34.3851 H   0  0  0  0  0  0  0  0  0  0  0  0
   -3.1963   21.3192  -28.4182 H   0  0  0  0  0  0  0  0  0  0  0  0
   -2.0758   19.7649  -25.5044 H   0  0  0  0  0  0  0  0  0  0  0  0
   -2.9195   20.1358  -27.0463 H   0  0  0  0  0  0  0  0  0  0  0  0
   -1.4788   19.0629  -27.0463 H   0  0  0  0  0  0  0  0  0  0  0  0
   -0.2957   23.0797  -24.8455 H   0  0  0  0  0  0  0  0  0  0  0  0
    1.4884   22.8898  -24.9316 H   0  0  0  0  0  0  0  0  0  0  0  0
    0.7589   24.5313  -24.9316 H   0  0  0  0  0  0  0  0  0  0  0  0
  1  2  1  0
  2  3  1  0
  3  4  2  0
  4  5  1  0
  5  6  1  0
  6  7  1  0
  7  8  2  0
  8  9  1  0
  9 10  1  0
 10 11  2  0
 11 12  1  0
 12 13  2  0
 13 14  1  0
 14 15  2  0
 15 16  1  0
 16 17  1  0
 17 18  1  0
 18 19  1  0
 19 20  1  0
 20 21  1  0
 21 22  1  0
  9 23  2  0
  5 24  2  0
 24 25  1  0
 25 26  1  0
 26 27  1  0
 25 28  2  0
 28 29  1  0
 29 30  1  0
 28  3  1  0
 23  6  1  0
 15 10  1  0
 22 16  1  0
  1 31  1  0
  1 32  1  0
  1 33  1  0
  4 34  1  0
 11 35  1  0
 12 36  1  0
 13 37  1  0
 14 38  1  0
 17 39  1  0
 17 40  1  0
 18 41  1  0
 18 42  1  0
 19 43  1  0
 19 44  1  0
 20 45  1  0
 20 46  1  0
 21 47  1  0
 21 48  1  0
 22 49  1  0
 22 50  1  0
 24 51  1  0
 27 52  1  0
 27 53  1  0
 27 54  1  0
 30 55  1  0
 30 56  1  0
 30 57  1  0
M  END
>  <UniqueID>  (1) 
1

>  <SMILES>  (1) 
COc1cc(-n2nnc(-c3ccccc3N3CCCCCC3)n2)cc(OC)c1OC

>  <Energy>  (1) 
113.26686772956175

>  <Genealogy>  (1) 
COc1cc(-n2nnc(-c3ccccc3N3CCCCCC3)n2)cc(OC)c1OC (3D coordinates assigned)
COc1cc(-n2nnc(-c3ccccc3N3CCCCCC3)n2)cc(OC)c1OC (nonaromatic ring conformer: 113.26686772956175 kcal/mol)

>  <smiles>  (1) 
COc1cc(-n2nnc(-c3ccccc3N3CCCCCC3)n2)cc(OC)c1OC

>  <score_type>  (1) 
oracle

>  <origin>  (1) 
adg

>  <m_score__min__energy>  (1) 
-7.2999999999999998

>  <m_primary>  (1) 
energy

$$$$
1:0
     RDKit          3D

 56 59  0  0  0  0  0  0  0  0999 V2000
   -5.8744   25.2700  -28.9049 H   0  0  0  0  0  0  0  0  0  0  0  0
   -5.9380   24.5430  -29.7280 C   0  0  0  0  0  0  0  0  0  0  0  0
   -7.1040   23.8840  -29.9640 N   0  0  0  0  0  0  0  0  0  0  0  0
   -7.2390   23.0030  -30.9950 C   0  0  0  0  0  0  0  0  0  0  0  0
   -8.5290   22.2520  -31.1660 C   0  0  0  0  0  0  0  0  0  0  0  0
   -9.2722   22.9152  -31.6326 H   0  0  0  0  0  0  0  0  0  0  0  0
   -8.8758   21.9209  -30.1760 H   0  0  0  0  0  0  0  0  0  0  0  0
   -8.3390   21.0600  -32.0220 N   0  0  0  0  0  0  0  0  0  0  0  0
   -9.6360   20.4730  -32.4090 C   0  0  0  0  0  0  0  0  0  0  0  0
  -10.2062   20.2149  -31.5044 H   0  0  0  0  0  0  0  0  0  0  0  0
  -10.2048   21.2014  -33.0056 H   0  0  0  0  0  0  0  0  0  0  0  0
   -9.4641   19.5649  -33.0056 H   0  0  0  0  0  0  0  0  0  0  0  0
   -7.4830   20.0500  -31.3540 C   0  0  0  0  0  0  0  0  0  0  0  0
   -7.5367   20.1898  -30.2642 H   0  0  0  0  0  0  0  0  0  0  0  0
   -6.4442   20.1738  -31.6940 H   0  0  0  0  0  0  0  0  0  0  0  0
   -7.9660   18.6390  -31.7100 C   0  0  0  0  0  0  0  0  0  0  0  0
   -8.9775   18.7041  -32.1372 H   0  0  0  0  0  0  0  0  0  0  0  0
   -7.9682   18.0320  -30.7927 H   0  0  0  0  0  0  0  0  0  0  0  0
   -7.0690   17.9940  -32.6930 N   0  0  0  0  0  0  0  0  0  0  0  0
   -6.0490   17.1720  -32.0180 C   0  0  0  0  0  0  0  0  0  0  0  0
   -6.1651   17.2656  -30.9282 H   0  0  0  0  0  0  0  0  0  0  0  0
   -6.1738   16.1191  -32.3110 H   0  0  0  0  0  0  0  0  0  0  0  0
   -5.0467   17.5178  -32.3110 H   0  0  0  0  0  0  0  0  0  0  0  0
   -6.4060   19.0110  -33.5230 C   0  0  0  0  0  0  0  0  0  0  0  0
   -5.9210   19.7549  -32.8738 H   0  0  0  0  0  0  0  0  0  0  0  0
   -5.6481   18.5289  -34.1580 H   0  0  0  0  0  0  0  0  0  0  0  0
   -7.1529   19.5099  -34.1580 H   0  0  0  0  0  0  0  0  0  0  0  0
   -6.1530   22.7650  -31.8490 C   0  0  0  0  0  0  0  0  0  0  0  0
   -6.2531   22.0681  -32.6942 H   0  0  0  0  0  0  0  0  0  0  0  0
   -4.9440   23.4210  -31.6160 C   0  0  0  0  0  0  0  0  0  0  0  0
   -4.0878   23.2499  -32.2851 H   0  0  0  0  0  0  0  0  0  0  0  0
   -4.8200   24.2970  -30.5310 C   0  0  0  0  0  0  0  0  0  0  0  0
   -3.5710   24.9380  -30.2420 N   0  0  0  0  0  0  0  0  0  0  0  0
   -2.6260   24.3930  -29.5330 C   0  0  0  0  0  0  0  0  0  0  0  0
   -2.3590   24.8300  -28.2720 N   0  0  0  0  0  0  0  0  0  0  0  0
   -1.3550   24.3010  -27.5230 C   0  0  0  0  0  0  0  0  0  0  0  0
   -1.0750   24.9000  -26.1990 C   0  0  0  0  0  0  0  0  0  0  0  0
   -0.7980   24.2290  -25.0070 C   0  0  0  0  0  0  0  0  0  0  0  0
   -0.8876   23.1436  -24.8527 H   0  0  0  0  0  0  0  0  0  0  0  0
   -0.4030   25.1200  -24.0730 N   0  0  0  0  0  0  0  0  0  0  0  0
   -0.1000   24.9050  -23.0950 H   0  0  0  0  0  0  0  0  0  0  0  0
   -0.4010   26.3190  -24.6260 N   0  0  0  0  0  0  0  0  0  0  0  0
   -0.0200   27.4840  -24.0410 C   0  0  0  0  0  0  0  0  0  0  0  0
    0.3036   27.5084  -22.9900 H   0  0  0  0  0  0  0  0  0  0  0  0
   -0.0500   28.6550  -24.8120 C   0  0  0  0  0  0  0  0  0  0  0  0
    0.2567   29.6158  -24.3730 H   0  0  0  0  0  0  0  0  0  0  0  0
   -0.4760   28.5910  -26.1530 C   0  0  0  0  0  0  0  0  0  0  0  0
   -0.5078   29.5070  -26.7613 H   0  0  0  0  0  0  0  0  0  0  0  0
   -0.8600   27.3650  -26.7170 C   0  0  0  0  0  0  0  0  0  0  0  0
   -1.1997   27.3005  -27.7612 H   0  0  0  0  0  0  0  0  0  0  0  0
   -0.7960   26.2300  -25.9070 C   0  0  0  0  0  0  0  0  0  0  0  0
   -0.5870   23.2500  -28.0630 C   0  0  0  0  0  0  0  0  0  0  0  0
    0.6550   22.4030  -27.1490 Cl  0  0  0  0  0  0  0  0  0  0  0  0
   -0.8690   22.8230  -29.3630 C   0  0  0  0  0  0  0  0  0  0  0  0
   -0.2782   22.0117  -29.8132 H   0  0  0  0  0  0  0  0  0  0  0  0
   -1.8690   23.4050  -30.0730 N   0  0  0  0  0  0  0  0  0  0  0  0
  1  2  1  0
  2  3  2  0
  3  4  1  0
  4  5  1  0
  5  6  1  0
  5  7  1  0
  5  8  1  0
  8  9  1  0
  9 10  1  0
  9 11  1  0
  9 12  1  0
  8 13  1  0
 13 14  1  0
 13 15  1  0
 13 16  1  0
 16 17  1  0
 16 18  1  0
 16 19  1  0
 19 20  1  0
 20 21  1  0
 20 22  1  0
 20 23  1  0
 19 24  1  0
 24 25  1  0
 24 26  1  0
 24 27  1  0
  4 28  2  0
 28 29  1  0
 28 30  1  0
 30 31  1  0
 30 32  2  0
 32 33  1  0
 33 34  2  0
 34 35  1  0
 35 36  2  0
 36 37  1  0
 37 38  1  0
 38 39  1  0
 38 40  2  0
 40 41  1  0
 40 42  1  0
 42 43  1  0
 43 44  1  0
 43 45  2  0
 45 46  1  0
 45 47  1  0
 47 48  1  0
 47 49  2  0
 49 50  1  0
 49 51  1  0
 36 52  1  0
 52 53  1  0
 52 54  2  0
 54 55  1  0
 54 56  1  0
 32  2  1  0
 56 34  1  0
 51 37  2  0
 51 42  1  0
M  CHG  2  40   1  56  -1
M  END
>  <UniqueID>  (2) 
2

>  <SMILES>  (2) 
CN(C)CCN(C)Cc1ccc(/N=c2\nc(-c3c[nH+]n4ccccc34)c(Cl)c[n-]2)cn1

>  <Energy>  (2) 
110.71336409137265

>  <Genealogy>  (2) 
CN(C)CCN(C)Cc1ccc(N=c2nc(-c3c[nH+]n4ccccc34)c(Cl)c[n-]2)cn1 (protonated)
CN(C)CCN(C)Cc1ccc(/N=c2\nc(-c3c[nH+]n4ccccc34)c(Cl)c[n-]2)cn1 (cis-trans isomerization)
CN(C)CCN(C)Cc1ccc(/N=c2\nc(-c3c[nH+]n4ccccc34)c(Cl)c[n-]2)cn1 (3D coordinates assigned)
CN(C)CCN(C)Cc1ccc(/N=c2\nc(-c3c[nH+]n4ccccc34)c(Cl)c[n-]2)cn1 (optimized conformer: 110.71336409137265 kcal/mol)

>  <smiles>  (2) 
CN(C)CCN(C)Cc1ccc(N=c2nc(-c3cnn4ccccc34)c(Cl)c[nH]2)cn1

>  <score_type>  (2) 
oracle

>  <origin>  (2) 
adg

>  <m_score__min__energy>  (2) 
-10.890000000000001

>  <m_primary>  (2) 
energy

$$$$
2:0
     RDKit          3D

 48 50  0  0  0  0  0  0  0  0999 V2000
   -4.3040   24.9380  -26.3400 C   0  0  0  0  0  0  0  0  0  0  0  0
   -3.5150   23.9120  -27.1490 C   0  0  0  0  0  0  0  0  0  0  0  0
   -3.0080   24.5090  -28.3940 N   0  0  0  0  0  0  0  0  0  0  0  0
   -1.7610   25.2860  -28.3580 C   0  0  0  0  0  0  0  0  0  0  0  0
   -0.5530   24.3830  -28.5940 C   0  0  0  0  0  0  0  0  0  0  0  0
   -3.7460   24.4020  -29.6330 C   0  0  0  0  0  0  0  0  0  0  0  0
   -3.6000   25.2860  -30.5220 O   0  0  0  0  0  0  0  0  0  0  0  0
   -4.7000   23.2690  -29.8970 C   0  0  0  0  0  0  0  0  0  0  0  0
   -4.3850   22.6240  -31.1740 N   0  0  0  0  0  0  0  0  0  0  0  0
   -5.1880   22.5170  -32.2690 C   0  0  0  0  0  0  0  0  0  0  0  0
   -6.8430   23.2080  -32.3820 S   0  0  0  0  0  0  0  0  0  0  0  0
   -7.5420   22.1580  -31.0610 C   0  0  0  0  0  0  0  0  0  0  0  0
   -7.7110   20.7390  -31.5280 C   0  0  0  0  0  0  0  0  0  0  0  0
   -6.5980   19.8880  -31.6170 C   0  0  0  0  0  0  0  0  0  0  0  0
   -6.7480   18.5790  -32.0850 C   0  0  0  0  0  0  0  0  0  0  0  0
   -8.0090   18.1130  -32.4690 C   0  0  0  0  0  0  0  0  0  0  0  0
   -9.1210   18.9560  -32.3870 C   0  0  0  0  0  0  0  0  0  0  0  0
   -8.9740   20.2650  -31.9200 C   0  0  0  0  0  0  0  0  0  0  0  0
   -4.6160   21.8120  -33.2760 N   0  0  0  0  0  0  0  0  0  0  0  0
   -3.4170   21.4720  -32.7840 C   0  0  0  0  0  0  0  0  0  0  0  0
   -2.4580   20.7460  -33.4100 N   0  0  0  0  0  0  0  0  0  0  0  0
   -1.2940   20.4810  -32.7410 C   0  0  0  0  0  0  0  0  0  0  0  0
   -1.1000   20.9510  -31.4210 C   0  0  0  0  0  0  0  0  0  0  0  0
   -2.1080   21.7010  -30.7870 C   0  0  0  0  0  0  0  0  0  0  0  0
   -3.2700   21.9480  -31.5170 C   0  0  0  0  0  0  0  0  0  0  0  0
   -4.1584   24.7487  -25.2662 H   0  0  0  0  0  0  0  0  0  0  0  0
   -3.9491   25.9499  -26.5854 H   0  0  0  0  0  0  0  0  0  0  0  0
   -5.3731   24.8548  -26.5854 H   0  0  0  0  0  0  0  0  0  0  0  0
   -2.6658   23.5544  -26.5482 H   0  0  0  0  0  0  0  0  0  0  0  0
   -4.1816   23.0751  -27.4044 H   0  0  0  0  0  0  0  0  0  0  0  0
   -1.7936   26.0570  -29.1419 H   0  0  0  0  0  0  0  0  0  0  0  0
   -1.6645   25.7523  -27.3664 H   0  0  0  0  0  0  0  0  0  0  0  0
   -0.1344   24.0701  -27.6261 H   0  0  0  0  0  0  0  0  0  0  0  0
   -0.8648   23.4947  -29.1630 H   0  0  0  0  0  0  0  0  0  0  0  0
    0.2107   24.9335  -29.1630 H   0  0  0  0  0  0  0  0  0  0  0  0
   -4.6174   22.5293  -29.0871 H   0  0  0  0  0  0  0  0  0  0  0  0
   -5.7243   23.6676  -29.9414 H   0  0  0  0  0  0  0  0  0  0  0  0
   -6.8644   22.1725  -30.1946 H   0  0  0  0  0  0  0  0  0  0  0  0
   -8.5305   22.5549  -30.7864 H   0  0  0  0  0  0  0  0  0  0  0  0
   -5.6043   20.2524  -31.3175 H   0  0  0  0  0  0  0  0  0  0  0  0
   -5.8733   17.9153  -32.1511 H   0  0  0  0  0  0  0  0  0  0  0  0
   -8.1261   17.0826  -32.8358 H   0  0  0  0  0  0  0  0  0  0  0  0
  -10.1126   18.5888  -32.6903 H   0  0  0  0  0  0  0  0  0  0  0  0
   -9.8506   20.9267  -31.8591 H   0  0  0  0  0  0  0  0  0  0  0  0
   -5.0160   21.5880  -34.2140 H   0  0  0  0  0  0  0  0  0  0  0  0
   -0.5024   19.8975  -33.2339 H   0  0  0  0  0  0  0  0  0  0  0  0
   -0.1620   20.7304  -30.8905 H   0  0  0  0  0  0  0  0  0  0  0  0
   -1.9846   22.0760  -29.7603 H   0  0  0  0  0  0  0  0  0  0  0  0
  1  2  1  0
  2  3  1  0
  3  4  1  0
  4  5  1  0
  3  6  1  0
  6  7  2  0
  6  8  1  0
  8  9  1  0
  9 10  1  0
 10 11  1  0
 11 12  1  0
 12 13  1  0
 13 14  2  0
 14 15  1  0
 15 16  2  0
 16 17  1  0
 17 18  2  0
 10 19  2  0
 19 20  1  0
 20 21  2  0
 21 22  1  0
 22 23  2  0
 23 24  1  0
 24 25  2  0
 25  9  1  0
 18 13  1  0
 25 20  1  0
  1 26  1  0
  1 27  1  0
  1 28  1  0
  2 29  1  0
  2 30  1  0
  4 31  1  0
  4 32  1  0
  5 33  1  0
  5 34  1  0
  5 35  1  0
  8 36  1  0
  8 37  1  0
 12 38  1  0
 12 39  1  0
 14 40  1  0
 15 41  1  0
 16 42  1  0
 17 43  1  0
 18 44  1  0
 19 45  1  0
 22 46  1  0
 23 47  1  0
 24 48  1  0
M  CHG  1  19   1
M  END
>  <UniqueID>  (3) 
3

>  <SMILES>  (3) 
CCN(CC)C(=O)Cn1c(SCc2ccccc2)[nH+]c2ncccc21

>  <Energy>  (3) 
77.80852012880842

>  <Genealogy>  (3) 
CCN(CC)C(=O)Cn1c(SCc2ccccc2)[nH+]c2ncccc21 (protonated)
CCN(CC)C(=O)Cn1c(SCc2ccccc2)[nH+]c2ncccc21 (3D coordinates assigned)
CCN(CC)C(=O)Cn1c(SCc2ccccc2)[nH+]c2ncccc21 (optimized conformer: 77.80852012880842 kcal/mol)

>  <smiles>  (3) 
CCN(CC)C(=O)Cn1c(SCc2ccccc2)nc2ncccc21

>  <score_type>  (3) 
oracle

>  <origin>  (3) 
adg

>  <m_score__min__energy>  (3) 
-8.1799999999999997

>  <m_primary>  (3) 
energy

$$$$
3:0
     RDKit          3D

 30 32  0  0  0  0  0  0  0  0999 V2000
   -6.4880   16.1720  -33.4810 C   0  0  0  0  0  0  0  0  0  0  0  0
   -6.0390   17.5720  -33.4000 N   0  0  0  0  0  0  0  0  0  0  0  0
   -4.7880   17.8670  -33.8640 C   0  0  0  0  0  0  0  0  0  0  0  0
   -4.3070   19.1690  -33.8430 C   0  0  0  0  0  0  0  0  0  0  0  0
   -5.0910   20.1860  -33.3180 C   0  0  0  0  0  0  0  0  0  0  0  0
   -6.3650   19.9060  -32.7880 C   0  0  0  0  0  0  0  0  0  0  0  0
   -7.1880   20.9210  -32.2100 C   0  0  0  0  0  0  0  0  0  0  0  0
   -8.5310   20.6160  -31.8940 C   0  0  0  0  0  0  0  0  0  0  0  0
   -9.0000   19.3060  -32.0080 C   0  0  0  0  0  0  0  0  0  0  0  0
   -8.1710   18.2950  -32.4750 C   0  0  0  0  0  0  0  0  0  0  0  0
   -6.8500   18.5680  -32.8880 C   0  0  0  0  0  0  0  0  0  0  0  0
   -9.4600   21.6830  -31.3670 C   0  0  0  0  0  0  0  0  0  0  0  0
   -9.1090   23.0420  -31.9720 C   0  0  0  0  0  0  0  0  0  0  0  0
   -7.6660   23.4260  -31.6320 C   0  0  0  0  0  0  0  0  0  0  0  0
   -6.7010   22.2960  -31.8750 C   0  0  0  0  0  0  0  0  0  0  0  0
   -5.4800   22.5130  -31.6510 O   0  0  0  0  0  0  0  0  0  0  0  0
   -6.6172   15.7691  -32.4656 H   0  0  0  0  0  0  0  0  0  0  0  0
   -7.4463   16.1248  -34.0189 H   0  0  0  0  0  0  0  0  0  0  0  0
   -5.7359   15.5763  -34.0189 H   0  0  0  0  0  0  0  0  0  0  0  0
   -4.1528   17.0609  -34.2600 H   0  0  0  0  0  0  0  0  0  0  0  0
   -3.3067   19.3938  -34.2416 H   0  0  0  0  0  0  0  0  0  0  0  0
   -4.7143   21.2195  -33.3158 H   0  0  0  0  0  0  0  0  0  0  0  0
  -10.0370   19.0725  -31.7249 H   0  0  0  0  0  0  0  0  0  0  0  0
   -8.5506   17.2637  -32.5238 H   0  0  0  0  0  0  0  0  0  0  0  0
  -10.4958   21.4249  -31.6323 H   0  0  0  0  0  0  0  0  0  0  0  0
   -9.3528   21.7409  -30.2738 H   0  0  0  0  0  0  0  0  0  0  0  0
   -9.2218   22.9913  -33.0650 H   0  0  0  0  0  0  0  0  0  0  0  0
   -9.7862   23.8018  -31.5548 H   0  0  0  0  0  0  0  0  0  0  0  0
   -7.3717   24.2828  -32.2560 H   0  0  0  0  0  0  0  0  0  0  0  0
   -7.6280   23.6764  -30.5615 H   0  0  0  0  0  0  0  0  0  0  0  0
  1  2  1  0
  2  3  2  0
  3  4  1  0
  4  5  2  0
  5  6  1  0
  6  7  2  0
  7  8  1  0
  8  9  2  0
  9 10  1  0
 10 11  2  0
  8 12  1  0
 12 13  1  0
 13 14  1  0
 14 15  1  0
 15 16  2  0
 11  2  1  0
 11  6  1  0
 15  7  1  0
  1 17  1  0
  1 18  1  0
  1 19  1  0
  3 20  1  0
  4 21  1  0
  5 22  1  0
  9 23  1  0
 10 24  1  0
 12 25  1  0
 12 26  1  0
 13 27  1  0
 13 28  1  0
 14 29  1  0
 14 30  1  0
M  CHG  1   2   1
M  END
>  <UniqueID>  (4) 
4

>  <SMILES>  (4) 
C[n+]1cccc2c3c(ccc21)CCCC3=O

>  <Energy>  (4) 
46.862747401658766

>  <Genealogy>  (4) 
C[n+]1cccc2c3c(ccc21)CCCC3=O (3D coordinates assigned)
C[n+]1cccc2c3c(ccc21)CCCC3=O (nonaromatic ring conformer: 46.862747401658766 kcal/mol)

>  <smiles>  (4) 
C[n+]1cccc2c3c(ccc21)CCCC3=O

>  <score_type>  (4) 
oracle

>  <origin>  (4) 
adg

>  <m_score__min__energy>  (4) 
-6.8300000000000001

>  <m_primary>  (4) 
energy

$$$$
4:0
     RDKit          3D

 44 45  0  0  0  0  0  0  0  0999 V2000
   -5.7210   18.0350  -34.5070 C   0  0  0  0  0  0  0  0  0  0  0  0
   -6.7280   17.1000  -33.8390 C   0  0  0  0  0  0  0  0  0  0  0  0
   -7.0450   17.5220  -32.3980 C   0  0  0  0  0  0  0  0  0  0  0  0
   -8.3130   18.3380  -32.3150 C   0  0  0  0  0  0  0  0  0  0  0  0
   -9.3400   17.7960  -31.9240 O   0  0  0  0  0  0  0  0  0  0  0  0
   -8.3350   19.7290  -32.7280 N   0  0  0  0  0  0  0  0  0  0  0  0
   -9.4570   20.4300  -32.0570 C   0  0  0  0  0  0  0  0  0  0  0  0
   -9.2190   21.9440  -32.0330 C   0  0  0  0  0  0  0  0  0  0  0  0
   -8.0250   22.2910  -31.2220 N   0  0  0  0  0  0  0  0  0  0  0  0
   -7.4710   23.6050  -31.6140 C   0  0  0  0  0  0  0  0  0  0  0  0
   -6.1410   23.8440  -30.9470 C   0  0  0  0  0  0  0  0  0  0  0  0
   -6.0460   24.5370  -29.7930 N   0  0  0  0  0  0  0  0  0  0  0  0
   -4.7290   24.5480  -29.5120 C   0  0  0  0  0  0  0  0  0  0  0  0
   -4.0440   23.8710  -30.4920 C   0  0  0  0  0  0  0  0  0  0  0  0
   -4.9310   23.4330  -31.4050 N   0  0  0  0  0  0  0  0  0  0  0  0
   -4.5890   22.6630  -32.6070 C   0  0  0  0  0  0  0  0  0  0  0  0
   -3.5860   21.5620  -32.2780 C   0  0  0  0  0  0  0  0  0  0  0  0
   -6.9840   21.2320  -31.2260 C   0  0  0  0  0  0  0  0  0  0  0  0
   -7.0140   20.3820  -32.5090 C   0  0  0  0  0  0  0  0  0  0  0  0
   -5.1471   18.5679  -33.7346 H   0  0  0  0  0  0  0  0  0  0  0  0
   -5.0344   17.4469  -35.1337 H   0  0  0  0  0  0  0  0  0  0  0  0
   -6.2566   18.7633  -35.1337 H   0  0  0  0  0  0  0  0  0  0  0  0
   -7.6599   17.1077  -34.4233 H   0  0  0  0  0  0  0  0  0  0  0  0
   -6.2839   16.0942  -33.8059 H   0  0  0  0  0  0  0  0  0  0  0  0
   -7.1624   16.6190  -31.7809 H   0  0  0  0  0  0  0  0  0  0  0  0
   -6.2145   18.1456  -32.0354 H   0  0  0  0  0  0  0  0  0  0  0  0
   -8.5220   19.7640  -33.7580 H   0  0  0  0  0  0  0  0  0  0  0  0
  -10.3897   20.2205  -32.6013 H   0  0  0  0  0  0  0  0  0  0  0  0
   -9.5279   20.0686  -31.0205 H   0  0  0  0  0  0  0  0  0  0  0  0
   -9.0677   22.2990  -33.0631 H   0  0  0  0  0  0  0  0  0  0  0  0
  -10.0978   22.4258  -31.5796 H   0  0  0  0  0  0  0  0  0  0  0  0
   -7.3368   23.6290  -32.7055 H   0  0  0  0  0  0  0  0  0  0  0  0
   -8.1713   24.3921  -31.2976 H   0  0  0  0  0  0  0  0  0  0  0  0
   -4.2718   25.0256  -28.6329 H   0  0  0  0  0  0  0  0  0  0  0  0
   -2.9558   23.7137  -30.5249 H   0  0  0  0  0  0  0  0  0  0  0  0
   -5.5031   22.2077  -33.0158 H   0  0  0  0  0  0  0  0  0  0  0  0
   -4.1370   23.3428  -33.3443 H   0  0  0  0  0  0  0  0  0  0  0  0
   -3.4955   21.4627  -31.1862 H   0  0  0  0  0  0  0  0  0  0  0  0
   -3.9335   20.6098  -32.7052 H   0  0  0  0  0  0  0  0  0  0  0  0
   -2.6056   21.8195  -32.7052 H   0  0  0  0  0  0  0  0  0  0  0  0
   -5.9960   21.7080  -31.1410 H   0  0  0  0  0  0  0  0  0  0  0  0
   -7.1843   20.5626  -30.3764 H   0  0  0  0  0  0  0  0  0  0  0  0
   -6.7948   21.0324  -33.3686 H   0  0  0  0  0  0  0  0  0  0  0  0
   -6.2611   19.5872  -32.4019 H   0  0  0  0  0  0  0  0  0  0  0  0
  1  2  1  0
  2  3  1  0
  3  4  1  0
  4  5  2  0
  4  6  1  0
  6  7  1  0
  7  8  1  0
  8  9  1  0
  9 10  1  0
 10 11  1  0
 11 12  2  0
 12 13  1  0
 13 14  2  0
 14 15  1  0
 15 16  1  0
 16 17  1  0
  9 18  1  0
 18 19  1  0
 19  6  1  0
 15 11  1  0
  1 20  1  0
  1 21  1  0
  1 22  1  0
  2 23  1  0
  2 24  1  0
  3 25  1  0
  3 26  1  0
  6 27  1  0
  7 28  1  0
  7 29  1  0
  8 30  1  0
  8 31  1  0
 10 32  1  0
 10 33  1  0
 13 34  1  0
 14 35  1  0
 16 36  1  0
 16 37  1  0
 17 38  1  0
 17 39  1  0
 17 40  1  0
 18 41  1  0
 18 42  1  0
 19 43  1  0
 19 44  1  0
M  CHG  1   6   1
M  END
>  <UniqueID>  (5) 
5

>  <SMILES>  (5) 
CCCC(=O)[NH+]1CCN(Cc2nccn2CC)CC1

>  <Energy>  (5) 
76.87930922347829

>  <Genealogy>  (5) 
CCCC(=O)[NH+]1CCN(Cc2nccn2CC)CC1 (protonated)
CCCC(=O)[NH+]1CCN(Cc2nccn2CC)CC1 (3D coordinates assigned)
CCCC(=O)[NH+]1CCN(Cc2nccn2CC)CC1 (nonaromatic ring conformer: 76.87930922347829 kcal/mol)

>  <smiles>  (5) 
CCCC(=O)N1CCN(Cc2nccn2CC)CC1

>  <score_type>  (5) 
oracle

>  <origin>  (5) 
adg

>  <m_score__min__energy>  (5) 
-5.9800000000000004

>  <m_primary>  (5) 
energy

$$$$
5:0
     RDKit          3D

 53 55  0  0  0  0  0  0  0  0999 V2000
   -8.6940   20.4170  -32.5820 C   0  0  0  0  0  0  0  0  0  0  0  0
   -8.0040   21.5270  -31.8410 C   0  0  0  0  0  0  0  0  0  0  0  0
   -8.2120   21.6890  -30.4630 C   0  0  0  0  0  0  0  0  0  0  0  0
   -7.6030   22.7450  -29.7770 C   0  0  0  0  0  0  0  0  0  0  0  0
   -6.7780   23.6530  -30.4610 C   0  0  0  0  0  0  0  0  0  0  0  0
   -6.1320   24.8010  -29.7270 C   0  0  0  0  0  0  0  0  0  0  0  0
   -5.2640   25.6470  -30.6590 C   0  0  0  0  0  0  0  0  0  0  0  0
   -3.8560   25.3010  -30.4930 N   0  0  0  0  0  0  0  0  0  0  0  0
   -3.4220   24.1390  -29.7850 C   0  0  0  0  0  0  0  0  0  0  0  0
   -3.5370   24.0820  -28.5300 O   0  0  0  0  0  0  0  0  0  0  0  0
   -2.7540   23.0220  -30.5420 C   0  0  1  0  0  0  0  0  0  0  0  0
   -1.3580   22.7310  -29.9470 C   0  0  0  0  0  0  0  0  0  0  0  0
   -0.8590   21.3120  -30.2740 C   0  0  0  0  0  0  0  0  0  0  0  0
   -1.5290   20.7610  -31.5390 C   0  0  0  0  0  0  0  0  0  0  0  0
   -2.9990   20.6480  -31.3740 N   0  0  2  0  0  0  0  0  0  0  0  0
   -3.7560   20.5370  -32.9460 S   0  0  0  0  0  0  0  0  0  0  0  0
   -2.7380   20.1280  -33.9760 O   0  0  0  0  0  0  0  0  0  0  0  0
   -4.3240   21.8740  -33.3340 O   0  0  0  0  0  0  0  0  0  0  0  0
   -5.0360   19.3240  -32.9100 C   0  0  0  0  0  0  0  0  0  0  0  0
   -5.6490   18.9980  -31.6920 C   0  0  0  0  0  0  0  0  0  0  0  0
   -6.6750   18.0450  -31.6540 C   0  0  0  0  0  0  0  0  0  0  0  0
   -7.0930   17.4170  -32.8300 C   0  0  0  0  0  0  0  0  0  0  0  0
   -6.4840   17.7390  -34.0460 C   0  0  0  0  0  0  0  0  0  0  0  0
   -5.4570   18.6890  -34.0890 C   0  0  0  0  0  0  0  0  0  0  0  0
   -3.6130   21.7390  -30.5650 C   0  0  0  0  0  0  0  0  0  0  0  0
   -6.5950   23.5070  -31.8450 C   0  0  0  0  0  0  0  0  0  0  0  0
   -7.2100   22.4540  -32.5310 C   0  0  0  0  0  0  0  0  0  0  0  0
   -9.1324   19.7117  -31.8607 H   0  0  0  0  0  0  0  0  0  0  0  0
   -9.4902   20.8375  -33.2139 H   0  0  0  0  0  0  0  0  0  0  0  0
   -7.9646   19.8891  -33.2139 H   0  0  0  0  0  0  0  0  0  0  0  0
   -8.8568   20.9825  -29.9197 H   0  0  0  0  0  0  0  0  0  0  0  0
   -7.7710   22.8649  -28.6965 H   0  0  0  0  0  0  0  0  0  0  0  0
   -6.9190   25.4375  -29.2963 H   0  0  0  0  0  0  0  0  0  0  0  0
   -5.4872   24.3861  -28.9382 H   0  0  0  0  0  0  0  0  0  0  0  0
   -5.5628   25.4612  -31.7012 H   0  0  0  0  0  0  0  0  0  0  0  0
   -5.4029   26.7096  -30.4107 H   0  0  0  0  0  0  0  0  0  0  0  0
   -2.6388   23.3532  -31.5846 H   0  0  0  0  0  0  0  0  0  0  0  0
   -0.6420   23.4591  -30.3559 H   0  0  0  0  0  0  0  0  0  0  0  0
   -1.4388   22.8118  -28.8530 H   0  0  0  0  0  0  0  0  0  0  0  0
    0.2295   21.3424  -30.4298 H   0  0  0  0  0  0  0  0  0  0  0  0
   -1.1144   20.6524  -29.4316 H   0  0  0  0  0  0  0  0  0  0  0  0
   -1.3152   21.4375  -32.3796 H   0  0  0  0  0  0  0  0  0  0  0  0
   -1.1263   19.7556  -31.7313 H   0  0  0  0  0  0  0  0  0  0  0  0
   -3.1940   19.7430  -30.8870 H   0  0  0  0  0  0  0  0  0  0  0  0
   -5.3236   19.4915  -30.7643 H   0  0  0  0  0  0  0  0  0  0  0  0
   -7.1526   17.7906  -30.6963 H   0  0  0  0  0  0  0  0  0  0  0  0
   -7.9001   16.6703  -32.7988 H   0  0  0  0  0  0  0  0  0  0  0  0
   -6.8127   17.2444  -34.9719 H   0  0  0  0  0  0  0  0  0  0  0  0
   -4.9792   18.9383  -35.0479 H   0  0  0  0  0  0  0  0  0  0  0  0
   -4.5970   21.9823  -30.9922 H   0  0  0  0  0  0  0  0  0  0  0  0
   -3.6962   21.3772  -29.5295 H   0  0  0  0  0  0  0  0  0  0  0  0
   -5.9653   24.2236  -32.3927 H   0  0  0  0  0  0  0  0  0  0  0  0
   -7.0698   22.3529  -33.6173 H   0  0  0  0  0  0  0  0  0  0  0  0
  1  2  1  0
  2  3  2  0
  3  4  1  0
  4  5  2  0
  5  6  1  0
  6  7  1  0
  7  8  1  0
  8  9  1  0
  9 10  2  0
  9 11  1  0
 11 12  1  0
 12 13  1  0
 13 14  1  0
 14 15  1  0
 15 16  1  0
 16 17  2  0
 16 18  2  0
 16 19  1  0
 19 20  2  0
 20 21  1  0
 21 22  2  0
 22 23  1  0
 23 24  2  0
 15 25  1  0
  5 26  1  0
 26 27  2  0
 27  2  1  0
 25 11  1  0
 24 19  1  0
  1 28  1  0
  1 29  1  0
  1 30  1  0
  3 31  1  0
  4 32  1  0
  6 33  1  0
  6 34  1  0
  7 35  1  0
  7 36  1  0
 11 37  1  6
 12 38  1  0
 12 39  1  0
 13 40  1  0
 13 41  1  0
 14 42  1  0
 14 43  1  0
 15 44  1  1
 20 45  1  0
 21 46  1  0
 22 47  1  0
 23 48  1  0
 24 49  1  0
 25 50  1  0
 25 51  1  0
 26 52  1  0
 27 53  1  0
M  CHG  2   8  -1  15   1
M  END
>  <UniqueID>  (6) 
6

>  <SMILES>  (6) 
Cc1ccc(CC[N-]C(=O)[C@H]2CCC[N@H+](S(=O)(=O)c3ccccc3)C2)cc1

>  <Energy>  (6) 
53.65971849007811

>  <Genealogy>  (6) 
Cc1ccc(CC[N-]C(=O)C2CCC[NH+](S(=O)(=O)c3ccccc3)C2)cc1 (protonated)
Cc1ccc(CC[N-]C(=O)[C@H]2CCC[N@H+](S(=O)(=O)c3ccccc3)C2)cc1 (chirality)
Cc1ccc(CC[N-]C(=O)[C@H]2CCC[N@H+](S(=O)(=O)c3ccccc3)C2)cc1 (3D coordinates assigned)
Cc1ccc(CC[N-]C(=O)[C@H]2CCC[N@H+](S(=O)(=O)c3ccccc3)C2)cc1 (nonaromatic ring conformer: 53.65971849007811 kcal/mol)

>  <smiles>  (6) 
Cc1ccc(CCNC(=O)C2CCCN(S(=O)(=O)c3ccccc3)C2)cc1

>  <score_type>  (6) 
oracle

>  <origin>  (6) 
adg

>  <m_score__min__energy>  (6) 
-10.699999999999999

>  <m_primary>  (6) 
energy

$$$$
6:0
     RDKit          3D

 45 47  0  0  0  0  0  0  0  0999 V2000
   -4.9440   25.0410  -30.1370 C   0  0  0  0  0  0  0  0  0  0  0  0
   -4.6680   23.7820  -30.8970 C   0  0  0  0  0  0  0  0  0  0  0  0
   -3.3890   23.3640  -31.0990 N   0  0  0  0  0  0  0  0  0  0  0  0
   -3.3170   22.2360  -31.8420 C   0  0  0  0  0  0  0  0  0  0  0  0
   -2.0410   21.5810  -32.2110 C   0  0  0  0  0  0  0  0  0  0  0  0
   -1.8030   21.1480  -33.5300 C   0  0  0  0  0  0  0  0  0  0  0  0
   -0.5940   20.5310  -33.8640 C   0  0  0  0  0  0  0  0  0  0  0  0
    0.3890   20.3380  -32.8920 C   0  0  0  0  0  0  0  0  0  0  0  0
    0.1640   20.7620  -31.5800 C   0  0  0  0  0  0  0  0  0  0  0  0
   -1.0430   21.3810  -31.2390 C   0  0  0  0  0  0  0  0  0  0  0  0
   -4.8570   21.7140  -32.2810 S   0  0  0  0  0  0  0  0  0  0  0  0
   -5.6480   22.9610  -31.4730 C   0  0  0  0  0  0  0  0  0  0  0  0
   -7.1130   23.1310  -31.4610 C   0  0  0  0  0  0  0  0  0  0  0  0
   -7.6090   24.1030  -30.8300 O   0  0  0  0  0  0  0  0  0  0  0  0
   -7.9710   22.2390  -32.1870 N   0  0  0  0  0  0  0  0  0  0  0  0
   -9.4150   22.1810  -31.9580 C   0  0  0  0  0  0  0  0  0  0  0  0
   -9.9680   20.8020  -32.3290 C   0  0  0  0  0  0  0  0  0  0  0  0
   -8.9580   20.0350  -33.0650 N   0  0  0  0  0  0  0  0  0  0  0  0
   -8.4510   18.9270  -32.2490 C   0  0  0  0  0  0  0  0  0  0  0  0
   -7.0470   18.5980  -32.6720 C   0  0  0  0  0  0  0  0  0  0  0  0
   -6.4790   19.2180  -33.7950 C   0  0  0  0  0  0  0  0  0  0  0  0
   -5.1920   18.8690  -34.2090 C   0  0  0  0  0  0  0  0  0  0  0  0
   -4.4870   17.8940  -33.5000 C   0  0  0  0  0  0  0  0  0  0  0  0
   -5.0560   17.2910  -32.4220 N   0  0  0  0  0  0  0  0  0  0  0  0
   -6.3070   17.6140  -31.9990 C   0  0  0  0  0  0  0  0  0  0  0  0
   -4.8988   24.8350  -29.0574 H   0  0  0  0  0  0  0  0  0  0  0  0
   -4.1907   25.7991  -30.3974 H   0  0  0  0  0  0  0  0  0  0  0  0
   -5.9453   25.4145  -30.3974 H   0  0  0  0  0  0  0  0  0  0  0  0
   -2.5729   21.2962  -34.3016 H   0  0  0  0  0  0  0  0  0  0  0  0
   -0.4166   20.1963  -34.8967 H   0  0  0  0  0  0  0  0  0  0  0  0
    1.3395   19.8527  -33.1587 H   0  0  0  0  0  0  0  0  0  0  0  0
    0.9378   20.6087  -30.8134 H   0  0  0  0  0  0  0  0  0  0  0  0
   -1.2133   21.7137  -30.2044 H   0  0  0  0  0  0  0  0  0  0  0  0
   -7.5700   21.6560  -32.9540 H   0  0  0  0  0  0  0  0  0  0  0  0
   -9.6201   22.3782  -30.8954 H   0  0  0  0  0  0  0  0  0  0  0  0
   -9.9033   22.9387  -32.5885 H   0  0  0  0  0  0  0  0  0  0  0  0
  -10.2390   20.2598  -31.4111 H   0  0  0  0  0  0  0  0  0  0  0  0
  -10.8566   20.9297  -32.9646 H   0  0  0  0  0  0  0  0  0  0  0  0
   -9.4170   19.6270  -33.9150 H   0  0  0  0  0  0  0  0  0  0  0  0
   -8.4559   19.2198  -31.1887 H   0  0  0  0  0  0  0  0  0  0  0  0
   -9.0930   18.0446  -32.3875 H   0  0  0  0  0  0  0  0  0  0  0  0
   -7.0476   19.9791  -34.3494 H   0  0  0  0  0  0  0  0  0  0  0  0
   -4.7382   19.3568  -35.0843 H   0  0  0  0  0  0  0  0  0  0  0  0
   -3.4707   17.6136  -33.8137 H   0  0  0  0  0  0  0  0  0  0  0  0
   -6.7402   17.1026  -31.1268 H   0  0  0  0  0  0  0  0  0  0  0  0
  1  2  1  0
  2  3  1  0
  3  4  2  0
  4  5  1  0
  5  6  2  0
  6  7  1  0
  7  8  2  0
  8  9  1  0
  9 10  2  0
  4 11  1  0
 11 12  1  0
 12 13  1  0
 13 14  2  0
 13 15  1  0
 15 16  1  0
 16 17  1  0
 17 18  1  0
 18 19  1  0
 19 20  1  0
 20 21  2  0
 21 22  1  0
 22 23  2  0
 23 24  1  0
 24 25  2  0
 12  2  2  0
 25 20  1  0
 10  5  1  0
  1 26  1  0
  1 27  1  0
  1 28  1  0
  6 29  1  0
  7 30  1  0
  8 31  1  0
  9 32  1  0
 10 33  1  0
 15 34  1  0
 16 35  1  0
 16 36  1  0
 17 37  1  0
 17 38  1  0
 18 39  1  0
 19 40  1  0
 19 41  1  0
 21 42  1  0
 22 43  1  0
 23 44  1  0
 25 45  1  0
M  END
>  <UniqueID>  (7) 
7

>  <SMILES>  (7) 
Cc1nc(-c2ccccc2)sc1C(=O)NCCNCc1cccnc1

>  <Energy>  (7) 
72.79484307229382

>  <Genealogy>  (7) 
Cc1nc(-c2ccccc2)sc1C(=O)NCCNCc1cccnc1 (3D coordinates assigned)
Cc1nc(-c2ccccc2)sc1C(=O)NCCNCc1cccnc1 (optimized conformer: 72.79484307229382 kcal/mol)

>  <smiles>  (7) 
Cc1nc(-c2ccccc2)sc1C(=O)NCCNCc1cccnc1

>  <score_type>  (7) 
oracle

>  <origin>  (7) 
adg

>  <m_score__min__energy>  (7) 
-8.7200000000000006

>  <m_primary>  (7) 
energy

$$$$
7:0
     RDKit          3D

 36 38  0  0  0  0  0  0  0  0999 V2000
   -4.2190   17.0770  -35.3390 C   0  0  0  0  0  0  0  0  0  0  0  0
   -5.2940   18.0040  -35.2350 O   0  0  0  0  0  0  0  0  0  0  0  0
   -5.9380   18.3410  -34.0350 C   0  0  0  0  0  0  0  0  0  0  0  0
   -6.2280   17.3180  -33.1250 C   0  0  0  0  0  0  0  0  0  0  0  0
   -6.8570   17.6060  -31.9110 C   0  0  0  0  0  0  0  0  0  0  0  0
   -7.2110   18.9210  -31.5990 C   0  0  0  0  0  0  0  0  0  0  0  0
   -6.9490   19.9550  -32.5090 C   0  0  0  0  0  0  0  0  0  0  0  0
   -7.3100   21.3050  -32.1810 N   0  0  0  0  0  0  0  0  0  0  0  0
   -8.5820   21.7660  -32.0850 C   0  0  0  0  0  0  0  0  0  0  0  0
   -8.6000   23.0720  -31.6050 C   0  0  0  0  0  0  0  0  0  0  0  0
   -7.2770   23.3910  -31.4150 C   0  0  0  0  0  0  0  0  0  0  0  0
   -6.7430   24.5380  -30.9340 N   0  0  0  0  0  0  0  0  0  0  0  0
   -5.3850   24.6240  -30.8250 C   0  0  0  0  0  0  0  0  0  0  0  0
   -4.5900   23.5820  -31.2170 N   0  0  0  0  0  0  0  0  0  0  0  0
   -5.1170   22.4210  -31.7110 C   0  0  0  0  0  0  0  0  0  0  0  0
   -4.2460   21.3920  -32.1980 N   0  0  0  0  0  0  0  0  0  0  0  0
   -3.5150   21.6130  -33.4460 C   0  0  0  0  0  0  0  0  0  0  0  0
   -3.7120   20.4150  -31.2500 C   0  0  0  0  0  0  0  0  0  0  0  0
   -6.5130   22.3220  -31.7800 C   0  0  0  0  0  0  0  0  0  0  0  0
   -6.2950   19.6660  -33.7170 C   0  0  0  0  0  0  0  0  0  0  0  0
   -3.8847   16.7887  -34.3315 H   0  0  0  0  0  0  0  0  0  0  0  0
   -4.5573   16.1828  -35.8830 H   0  0  0  0  0  0  0  0  0  0  0  0
   -3.3842   17.5431  -35.8830 H   0  0  0  0  0  0  0  0  0  0  0  0
   -5.9587   16.2794  -33.3673 H   0  0  0  0  0  0  0  0  0  0  0  0
   -7.0739   16.7957  -31.1994 H   0  0  0  0  0  0  0  0  0  0  0  0
   -7.6962   19.1456  -30.6377 H   0  0  0  0  0  0  0  0  0  0  0  0
   -9.4781   21.1860  -32.3506 H   0  0  0  0  0  0  0  0  0  0  0  0
   -9.4782   23.7078  -31.4190 H   0  0  0  0  0  0  0  0  0  0  0  0
   -4.9266   25.5378  -30.4190 H   0  0  0  0  0  0  0  0  0  0  0  0
   -2.4850   21.9244  -33.2174 H   0  0  0  0  0  0  0  0  0  0  0  0
   -3.4953   20.6807  -34.0294 H   0  0  0  0  0  0  0  0  0  0  0  0
   -4.0151   22.4001  -34.0294 H   0  0  0  0  0  0  0  0  0  0  0  0
   -3.9006   20.7600  -30.2227 H   0  0  0  0  0  0  0  0  0  0  0  0
   -4.2050   19.4443  -31.4071 H   0  0  0  0  0  0  0  0  0  0  0  0
   -2.6288   20.3058  -31.4071 H   0  0  0  0  0  0  0  0  0  0  0  0
   -6.0599   20.4791  -34.4195 H   0  0  0  0  0  0  0  0  0  0  0  0
  1  2  1  0
  2  3  1  0
  3  4  2  0
  4  5  1  0
  5  6  2  0
  6  7  1  0
  7  8  1  0
  8  9  1  0
  9 10  2  0
 10 11  1  0
 11 12  2  0
 12 13  1  0
 13 14  2  0
 14 15  1  0
 15 16  1  0
 16 17  1  0
 16 18  1  0
 15 19  2  0
  7 20  2  0
 20  3  1  0
 19  8  1  0
 19 11  1  0
  1 21  1  0
  1 22  1  0
  1 23  1  0
  4 24  1  0
  5 25  1  0
  6 26  1  0
  9 27  1  0
 10 28  1  0
 13 29  1  0
 17 30  1  0
 17 31  1  0
 17 32  1  0
 18 33  1  0
 18 34  1  0
 18 35  1  0
 20 36  1  0
M  END
>  <UniqueID>  (8) 
8

>  <SMILES>  (8) 
COc1cccc(-n2ccc3ncnc(N(C)C)c32)c1

>  <Energy>  (8) 
82.8687751378104

>  <Genealogy>  (8) 
COc1cccc(-n2ccc3ncnc(N(C)C)c32)c1 (3D coordinates assigned)
COc1cccc(-n2ccc3ncnc(N(C)C)c32)c1 (optimized conformer: 82.8687751378104 kcal/mol)

>  <smiles>  (8) 
COc1cccc(-n2ccc3ncnc(N(C)C)c32)c1

>  <score_type>  (8) 
oracle

>  <origin>  (8) 
adg

>  <m_score__min__energy>  (8) 
-6.5999999999999996

>  <m_primary>  (8) 
energy

$$$$
8:0
     RDKit          3D

 40 41  0  0  0  0  0  0  0  0999 V2000
   -6.1060   19.2280  -34.2740 C   0  0  0  0  0  0  0  0  0  0  0  0
   -5.9960   20.0390  -33.0530 N   0  0  0  0  0  0  0  0  0  0  0  0
   -4.7520   20.8230  -33.0350 C   0  0  0  0  0  0  0  0  0  0  0  0
   -6.2280   19.2660  -31.8110 C   0  0  0  0  0  0  0  0  0  0  0  0
   -7.3680   18.2290  -31.8720 C   0  0  0  0  0  0  0  0  0  0  0  0
   -8.5390   18.7300  -31.2600 O   0  0  0  0  0  0  0  0  0  0  0  0
   -9.4590   19.1330  -32.2540 C   0  0  0  0  0  0  0  0  0  0  0  0
   -9.0680   20.4550  -32.7700 N   0  0  0  0  0  0  0  0  0  0  0  0
   -9.2630   21.5250  -31.7800 C   0  0  0  0  0  0  0  0  0  0  0  0
   -8.0240   22.3510  -31.6290 C   0  0  0  0  0  0  0  0  0  0  0  0
   -7.1290   22.2850  -30.5850 C   0  0  0  0  0  0  0  0  0  0  0  0
   -6.1650   23.1910  -30.8220 N   0  0  0  0  0  0  0  0  0  0  0  0
   -5.0410   23.4960  -29.9840 C   0  0  0  0  0  0  0  0  0  0  0  0
   -5.0110   23.0600  -28.6950 N   0  0  0  0  0  0  0  0  0  0  0  0
   -3.9640   23.3530  -27.8800 C   0  0  0  0  0  0  0  0  0  0  0  0
   -2.8980   24.1100  -28.3630 C   0  0  0  0  0  0  0  0  0  0  0  0
   -2.9420   24.5500  -29.6850 C   0  0  0  0  0  0  0  0  0  0  0  0
   -4.0060   24.2360  -30.4680 N   0  0  0  0  0  0  0  0  0  0  0  0
   -6.4930   23.7830  -31.9890 C   0  0  0  0  0  0  0  0  0  0  0  0
   -7.6360   23.2930  -32.5140 N   0  0  0  0  0  0  0  0  0  0  0  0
   -6.2492   18.1720  -34.0011 H   0  0  0  0  0  0  0  0  0  0  0  0
   -6.9655   19.5732  -34.8673 H   0  0  0  0  0  0  0  0  0  0  0  0
   -5.1856   19.3318  -34.8673 H   0  0  0  0  0  0  0  0  0  0  0  0
   -4.4526   21.0117  -31.9935 H   0  0  0  0  0  0  0  0  0  0  0  0
   -3.9576   20.2620  -33.5490 H   0  0  0  0  0  0  0  0  0  0  0  0
   -4.9153   21.7817  -33.5490 H   0  0  0  0  0  0  0  0  0  0  0  0
   -5.2979   18.7319  -31.5666 H   0  0  0  0  0  0  0  0  0  0  0  0
   -6.5323   20.0019  -31.0521 H   0  0  0  0  0  0  0  0  0  0  0  0
   -7.5844   17.9932  -32.9244 H   0  0  0  0  0  0  0  0  0  0  0  0
   -7.0494   17.3245  -31.3331 H   0  0  0  0  0  0  0  0  0  0  0  0
   -9.4559   18.4019  -33.0759 H   0  0  0  0  0  0  0  0  0  0  0  0
  -10.4686   19.1898  -31.8210 H   0  0  0  0  0  0  0  0  0  0  0  0
   -8.0440   20.4230  -32.9840 H   0  0  0  0  0  0  0  0  0  0  0  0
  -10.0889   22.1728  -32.1090 H   0  0  0  0  0  0  0  0  0  0  0  0
   -9.4966   21.0644  -30.8088 H   0  0  0  0  0  0  0  0  0  0  0  0
   -7.1915   21.6136  -29.7159 H   0  0  0  0  0  0  0  0  0  0  0  0
   -3.9577   22.9933  -26.8405 H   0  0  0  0  0  0  0  0  0  0  0  0
   -2.0423   24.3544  -27.7164 H   0  0  0  0  0  0  0  0  0  0  0  0
   -2.1159   25.1507  -30.0933 H   0  0  0  0  0  0  0  0  0  0  0  0
   -5.8953   24.5770  -32.4605 H   0  0  0  0  0  0  0  0  0  0  0  0
  1  2  1  0
  2  3  1  0
  2  4  1  0
  4  5  1  0
  5  6  1  0
  6  7  1  0
  7  8  1  0
  8  9  1  0
  9 10  1  0
 10 11  2  0
 11 12  1  0
 12 13  1  0
 13 14  2  0
 14 15  1  0
 15 16  2  0
 16 17  1  0
 17 18  2  0
 12 19  1  0
 19 20  2  0
 20 10  1  0
 18 13  1  0
  1 21  1  0
  1 22  1  0
  1 23  1  0
  3 24  1  0
  3 25  1  0
  3 26  1  0
  4 27  1  0
  4 28  1  0
  5 29  1  0
  5 30  1  0
  7 31  1  0
  7 32  1  0
  8 33  1  0
  9 34  1  0
  9 35  1  0
 11 36  1  0
 15 37  1  0
 16 38  1  0
 17 39  1  0
 19 40  1  0
M  END
>  <UniqueID>  (9) 
9

>  <SMILES>  (9) 
CN(C)CCOCNCc1cn(-c2ncccn2)cn1

>  <Energy>  (9) 
70.04466822733659

>  <Genealogy>  (9) 
CN(C)CCOCNCc1cn(-c2ncccn2)cn1 (3D coordinates assigned)
CN(C)CCOCNCc1cn(-c2ncccn2)cn1 (optimized conformer: 70.04466822733659 kcal/mol)

>  <smiles>  (9) 
CN(C)CCOCNCc1cn(-c2ncccn2)cn1

>  <score_type>  (9) 
oracle

>  <origin>  (9) 
adg

>  <m_score__min__energy>  (9) 
-6.8200000000000003

>  <m_primary>  (9) 
energy

$$$$
9:0
     RDKit          3D

 45 46  0  0  0  0  0  0  0  0999 V2000
   -3.1370   21.5070  -33.0320 C   0  0  0  0  0  0  0  0  0  0  0  0
   -4.1200   20.4910  -32.9730 O   0  0  0  0  0  0  0  0  0  0  0  0
   -5.3610   20.8330  -32.4490 C   0  0  0  0  0  0  0  0  0  0  0  0
   -5.5220   21.8700  -31.5340 C   0  0  0  0  0  0  0  0  0  0  0  0
   -6.7500   22.2130  -31.0110 C   0  0  0  0  0  0  0  0  0  0  0  0
   -6.8330   23.3330  -30.0410 C   0  0  0  0  0  0  0  0  0  0  0  0
   -5.4500   23.8430  -29.6920 C   0  0  0  0  0  0  0  0  0  0  0  0
   -5.1990   25.2170  -30.2940 C   0  0  0  0  0  0  0  0  0  0  0  0
   -3.8690   25.3620  -30.6750 O   0  0  0  0  0  0  0  0  0  0  0  0
   -7.8480   21.4930  -31.4200 C   0  0  0  0  0  0  0  0  0  0  0  0
   -7.7550   20.4530  -32.3250 C   0  0  0  0  0  0  0  0  0  0  0  0
   -8.8490   19.7130  -32.7500 O   0  0  0  0  0  0  0  0  0  0  0  0
   -9.2040   18.5890  -31.9650 C   0  0  0  0  0  0  0  0  0  0  0  0
   -6.5090   20.1310  -32.8320 C   0  0  0  0  0  0  0  0  0  0  0  0
   -6.3030   19.0300  -33.8110 C   0  0  0  0  0  0  0  0  0  0  0  0
   -5.8320   17.7760  -33.1880 C   0  0  0  0  0  0  0  0  0  0  0  0
   -6.1590   17.5690  -31.8520 C   0  0  0  0  0  0  0  0  0  0  0  0
   -5.7480   16.4270  -31.2290 N   0  0  0  0  0  0  0  0  0  0  0  0
   -5.0380   15.5290  -31.9180 C   0  0  0  0  0  0  0  0  0  0  0  0
   -4.6390   14.4470  -31.3590 N   0  0  0  0  0  0  0  0  0  0  0  0
   -4.7120   15.7180  -33.2210 N   0  0  0  0  0  0  0  0  0  0  0  0
   -5.0900   16.8230  -33.8790 C   0  0  0  0  0  0  0  0  0  0  0  0
   -4.8000   17.0450  -35.1230 N   0  0  0  0  0  0  0  0  0  0  0  0
   -2.8522   21.8014  -32.0111 H   0  0  0  0  0  0  0  0  0  0  0  0
   -2.2518   21.1302  -33.5654 H   0  0  0  0  0  0  0  0  0  0  0  0
   -3.5428   22.3793  -33.5654 H   0  0  0  0  0  0  0  0  0  0  0  0
   -4.6348   22.4374  -31.2163 H   0  0  0  0  0  0  0  0  0  0  0  0
   -7.4186   24.1519  -30.4843 H   0  0  0  0  0  0  0  0  0  0  0  0
   -7.3182   22.9703  -29.1228 H   0  0  0  0  0  0  0  0  0  0  0  0
   -5.3581   23.9091  -28.5978 H   0  0  0  0  0  0  0  0  0  0  0  0
   -4.7079   23.1430  -30.1035 H   0  0  0  0  0  0  0  0  0  0  0  0
   -5.8417   25.3449  -31.1775 H   0  0  0  0  0  0  0  0  0  0  0  0
   -5.4296   25.9784  -29.5344 H   0  0  0  0  0  0  0  0  0  0  0  0
   -3.8400   25.6770  -31.6130 H   0  0  0  0  0  0  0  0  0  0  0  0
   -8.8356   21.7544  -31.0121 H   0  0  0  0  0  0  0  0  0  0  0  0
   -9.1228   18.8462  -30.8986 H   0  0  0  0  0  0  0  0  0  0  0  0
  -10.2389   18.2944  -32.1934 H   0  0  0  0  0  0  0  0  0  0  0  0
   -8.5260   17.7534  -32.1934 H   0  0  0  0  0  0  0  0  0  0  0  0
   -7.2583   18.8306  -34.3186 H   0  0  0  0  0  0  0  0  0  0  0  0
   -5.5223   19.3591  -34.5126 H   0  0  0  0  0  0  0  0  0  0  0  0
   -6.7445   18.3204  -31.3019 H   0  0  0  0  0  0  0  0  0  0  0  0
   -5.9950   16.2660  -30.2140 H   0  0  0  0  0  0  0  0  0  0  0  0
   -5.0240   14.0490  -30.4890 H   0  0  0  0  0  0  0  0  0  0  0  0
   -4.1560   15.0160  -33.7600 H   0  0  0  0  0  0  0  0  0  0  0  0
   -4.3020   17.9400  -35.3250 H   0  0  0  0  0  0  0  0  0  0  0  0
  1  2  1  0
  2  3  1  0
  3  4  2  0
  4  5  1  0
  5  6  1  0
  6  7  1  0
  7  8  1  0
  8  9  1  0
  5 10  2  0
 10 11  1  0
 11 12  1  0
 12 13  1  0
 11 14  2  0
 14 15  1  0
 15 16  1  0
 16 17  2  0
 17 18  1  0
 18 19  1  0
 19 20  2  3
 19 21  1  0
 21 22  1  0
 22 23  2  3
 14  3  1  0
 22 16  1  0
  1 24  1  0
  1 25  1  0
  1 26  1  0
  4 27  1  0
  6 28  1  0
  6 29  1  0
  7 30  1  0
  7 31  1  0
  8 32  1  0
  8 33  1  0
  9 34  1  0
 10 35  1  0
 13 36  1  0
 13 37  1  0
 13 38  1  0
 15 39  1  0
 15 40  1  0
 17 41  1  0
 18 42  1  0
 20 43  1  0
 21 44  1  0
 23 45  1  0
M  END
>  <smiles>  (10) 
COc1cc(CCCO)cc(OC)c1Cc1c[nH]c(=N)[nH]c1=N

>  <score_type>  (10) 
oracle

>  <origin>  (10) 
adg

>  <m_score__min__energy>  (10) 
-7.5300000000000002

>  <m_primary>  (10) 
energy

$$$$
10:0
     RDKit          3D

 42 44  0  0  0  0  0  0  0  0999 V2000
   -1.2060   26.2890  -28.9910 O   0  0  0  0  0  0  0  0  0  0  0  0
   -1.9660   25.2900  -28.8950 C   0  0  0  0  0  0  0  0  0  0  0  0
   -3.0960   25.2040  -29.6980 O   0  0  0  0  0  0  0  0  0  0  0  0
   -1.6240   24.1710  -27.9640 C   0  0  0  0  0  0  0  0  0  0  0  0
   -1.2420   22.9880  -28.7280 N   0  0  0  0  0  0  0  0  0  0  0  0
   -0.2200   22.1560  -28.4490 C   0  0  0  0  0  0  0  0  0  0  0  0
   -0.1060   21.2010  -29.4410 C   0  0  0  0  0  0  0  0  0  0  0  0
   -1.1050   21.4790  -30.3560 C   0  0  0  0  0  0  0  0  0  0  0  0
   -1.3430   20.7730  -31.6570 C   0  0  0  0  0  0  0  0  0  0  0  0
   -2.7760   20.4570  -31.8260 N   0  0  0  0  0  0  0  0  0  0  0  0
   -2.9580   19.4050  -32.8400 C   0  0  0  0  0  0  0  0  0  0  0  0
   -4.3890   18.8770  -32.7500 C   0  0  0  0  0  0  0  0  0  0  0  0
   -5.3450   19.9790  -32.5780 N   0  0  0  0  0  0  0  0  0  0  0  0
   -6.7470   19.6750  -32.4720 C   0  0  0  0  0  0  0  0  0  0  0  0
   -7.7070   20.6600  -32.7610 C   0  0  0  0  0  0  0  0  0  0  0  0
   -9.0690   20.3670  -32.6630 C   0  0  0  0  0  0  0  0  0  0  0  0
   -9.4850   19.0910  -32.2730 C   0  0  0  0  0  0  0  0  0  0  0  0
   -8.5380   18.1080  -31.9770 C   0  0  0  0  0  0  0  0  0  0  0  0
   -7.1710   18.3940  -32.0730 C   0  0  0  0  0  0  0  0  0  0  0  0
   -6.2680   17.4380  -31.7450 F   0  0  0  0  0  0  0  0  0  0  0  0
   -4.9200   21.3600  -32.8320 C   0  0  0  0  0  0  0  0  0  0  0  0
   -3.5620   21.6710  -32.1630 C   0  0  0  0  0  0  0  0  0  0  0  0
   -1.7810   22.5920  -29.8980 C   0  0  0  0  0  0  0  0  0  0  0  0
   -0.7858   24.4756  -27.3201 H   0  0  0  0  0  0  0  0  0  0  0  0
   -2.5018   23.9342  -27.3448 H   0  0  0  0  0  0  0  0  0  0  0  0
    0.4278   22.2264  -27.5628 H   0  0  0  0  0  0  0  0  0  0  0  0
    0.6300   20.3851  -29.4925 H   0  0  0  0  0  0  0  0  0  0  0  0
   -1.0162   21.4204  -32.4841 H   0  0  0  0  0  0  0  0  0  0  0  0
   -0.7714   19.8332  -31.6587 H   0  0  0  0  0  0  0  0  0  0  0  0
   -2.7803   19.8226  -33.8420 H   0  0  0  0  0  0  0  0  0  0  0  0
   -2.2455   18.5862  -32.6613 H   0  0  0  0  0  0  0  0  0  0  0  0
   -4.6304   18.3319  -33.6744 H   0  0  0  0  0  0  0  0  0  0  0  0
   -4.4628   18.2089  -31.8793 H   0  0  0  0  0  0  0  0  0  0  0  0
   -7.3841   21.6664  -33.0658 H   0  0  0  0  0  0  0  0  0  0  0  0
   -9.8154   21.1416  -32.8931 H   0  0  0  0  0  0  0  0  0  0  0  0
  -10.5581   18.8609  -32.1992 H   0  0  0  0  0  0  0  0  0  0  0  0
   -8.8676   17.1053  -31.6673 H   0  0  0  0  0  0  0  0  0  0  0  0
   -4.8256   21.5102  -33.9176 H   0  0  0  0  0  0  0  0  0  0  0  0
   -5.6758   22.0359  -32.4054 H   0  0  0  0  0  0  0  0  0  0  0  0
   -2.9683   22.2901  -32.8516 H   0  0  0  0  0  0  0  0  0  0  0  0
   -3.7784   22.1893  -31.2172 H   0  0  0  0  0  0  0  0  0  0  0  0
   -2.6258   23.0786  -30.4074 H   0  0  0  0  0  0  0  0  0  0  0  0
  1  2  2  0
  2  3  1  0
  2  4  1  0
  4  5  1  0
  5  6  1  0
  6  7  2  0
  7  8  1  0
  8  9  1  0
  9 10  1  0
 10 11  1  0
 11 12  1  0
 12 13  1  0
 13 14  1  0
 14 15  2  0
 15 16  1  0
 16 17  2  0
 17 18  1  0
 18 19  2  0
 19 20  1  0
 13 21  1  0
 21 22  1  0
  8 23  2  0
 23  5  1  0
 22 10  1  0
 19 14  1  0
  4 24  1  0
  4 25  1  0
  6 26  1  0
  7 27  1  0
  9 28  1  0
  9 29  1  0
 11 30  1  0
 11 31  1  0
 12 32  1  0
 12 33  1  0
 15 34  1  0
 16 35  1  0
 17 36  1  0
 18 37  1  0
 21 38  1  0
 21 39  1  0
 22 40  1  0
 22 41  1  0
 23 42  1  0
M  CHG  1   3  -1
M  END
>  <UniqueID>  (11) 
10

>  <SMILES>  (11) 
O=C([O-])Cn1ccc(CN2CCN(c3ccccc3F)CC2)c1

>  <Energy>  (11) 
76.6438760403203

>  <Genealogy>  (11) 
O=C([O-])Cn1ccc(CN2CCN(c3ccccc3F)CC2)c1 (protonated)
O=C([O-])Cn1ccc(CN2CCN(c3ccccc3F)CC2)c1 (3D coordinates assigned)
O=C([O-])Cn1ccc(CN2CCN(c3ccccc3F)CC2)c1 (nonaromatic ring conformer: 76.6438760403203 kcal/mol)

>  <smiles>  (11) 
O=C(O)Cn1ccc(CN2CCN(c3ccccc3F)CC2)c1

>  <score_type>  (11) 
oracle

>  <origin>  (11) 
adg

>  <m_score__min__energy>  (11) 
-10.15

>  <m_primary>  (11) 
energy

$$$$
11:0
     RDKit          3D

 42 45  0  0  0  0  0  0  0  0999 V2000
   -2.7509   21.2428  -34.7897 H   0  0  0  0  0  0  0  0  0  0  0  0
   -2.4240   20.6960  -33.8930 C   0  0  0  0  0  0  0  0  0  0  0  0
   -1.1070   20.5640  -33.6750 C   0  0  0  0  0  0  0  0  0  0  0  0
   -0.0210   21.4010  -34.1870 C   0  0  0  0  0  0  0  0  0  0  0  0
   -0.1400   22.3610  -34.9920 O   0  0  0  0  0  0  0  0  0  0  0  0
    1.2370   20.9440  -33.7080 N   0  0  0  0  0  0  0  0  0  0  0  0
    0.8910   19.8060  -32.9190 C   0  0  0  0  0  0  0  0  0  0  0  0
    2.0130   18.9540  -32.0850 S   0  0  0  0  0  0  0  0  0  0  0  0
   -0.5130   19.5150  -32.9060 N   0  0  0  0  0  0  0  0  0  0  0  0
   -1.2010   18.6490  -31.9500 C   0  0  0  0  0  0  0  0  0  0  0  0
   -0.9517   18.9628  -30.9256 H   0  0  0  0  0  0  0  0  0  0  0  0
   -2.2877   18.7250  -32.1025 H   0  0  0  0  0  0  0  0  0  0  0  0
   -0.8813   17.6076  -32.1025 H   0  0  0  0  0  0  0  0  0  0  0  0
   -3.4560   20.1480  -32.9960 C   0  0  0  0  0  0  0  0  0  0  0  0
   -3.9530   20.7160  -31.8110 C   0  0  0  0  0  0  0  0  0  0  0  0
   -3.4070   21.8870  -31.0890 C   0  0  0  0  0  0  0  0  0  0  0  0
   -2.2440   21.7830  -30.3090 C   0  0  0  0  0  0  0  0  0  0  0  0
   -1.7209   20.8182  -30.2354 H   0  0  0  0  0  0  0  0  0  0  0  0
   -1.7470   22.8930  -29.6270 C   0  0  0  0  0  0  0  0  0  0  0  0
   -0.8312   22.7987  -29.0250 H   0  0  0  0  0  0  0  0  0  0  0  0
   -2.4080   24.1330  -29.7030 C   0  0  0  0  0  0  0  0  0  0  0  0
   -1.9350   25.2720  -29.0330 O   0  0  0  0  0  0  0  0  0  0  0  0
   -1.6070   25.3160  -27.6480 C   0  0  0  0  0  0  0  0  0  0  0  0
   -2.5223   25.1932  -27.0504 H   0  0  0  0  0  0  0  0  0  0  0  0
   -0.9033   24.5042  -27.4119 H   0  0  0  0  0  0  0  0  0  0  0  0
   -1.1421   26.2846  -27.4119 H   0  0  0  0  0  0  0  0  0  0  0  0
   -3.5800   24.2460  -30.4650 C   0  0  0  0  0  0  0  0  0  0  0  0
   -4.2220   25.4930  -30.5180 O   0  0  0  0  0  0  0  0  0  0  0  0
   -5.6310   25.6810  -30.4380 C   0  0  0  0  0  0  0  0  0  0  0  0
   -5.9361   25.7217  -29.3819 H   0  0  0  0  0  0  0  0  0  0  0  0
   -5.9040   26.6235  -30.9351 H   0  0  0  0  0  0  0  0  0  0  0  0
   -6.1415   24.8430  -30.9351 H   0  0  0  0  0  0  0  0  0  0  0  0
   -4.0770   23.1190  -31.1500 C   0  0  0  0  0  0  0  0  0  0  0  0
   -5.0014   23.2059  -31.7398 H   0  0  0  0  0  0  0  0  0  0  0  0
   -5.0780   20.0590  -31.4080 N   0  0  0  0  0  0  0  0  0  0  0  0
   -5.2100   19.1180  -32.3590 C   0  0  0  0  0  0  0  0  0  0  0  0
   -6.4290   18.0120  -32.6770 S   0  0  0  0  0  0  0  0  0  0  0  0
   -5.6870   17.5620  -34.1560 C   0  0  0  0  0  0  0  0  0  0  0  0
   -6.0659   16.7967  -34.8494 H   0  0  0  0  0  0  0  0  0  0  0  0
   -4.5230   18.3200  -34.3450 C   0  0  0  0  0  0  0  0  0  0  0  0
   -3.8744   18.2460  -35.2304 H   0  0  0  0  0  0  0  0  0  0  0  0
   -4.2960   19.1530  -33.3050 N   0  0  0  0  0  0  0  0  0  0  0  0
  1  2  1  0
  2  3  2  0
  3  4  1  0
  4  5  2  0
  4  6  1  0
  6  7  1  0
  7  8  2  0
  7  9  1  0
  9 10  1  0
 10 11  1  0
 10 12  1  0
 10 13  1  0
  2 14  1  0
 14 15  2  0
 15 16  1  0
 16 17  2  0
 17 18  1  0
 17 19  1  0
 19 20  1  0
 19 21  2  0
 21 22  1  0
 22 23  1  0
 23 24  1  0
 23 25  1  0
 23 26  1  0
 21 27  1  0
 27 28  1  0
 28 29  1  0
 29 30  1  0
 29 31  1  0
 29 32  1  0
 27 33  2  0
 33 34  1  0
 15 35  1  0
 35 36  2  0
 36 37  1  0
 37 38  1  0
 38 39  1  0
 38 40  2  0
 40 41  1  0
 40 42  1  0
  9  3  1  0
 42 14  1  0
 33 16  1  0
 42 36  1  0
M  CHG  1   6  -1
M  END
>  <UniqueID>  (12) 
11

>  <SMILES>  (12) 
COc1ccc(-c2nc3sccn3c2/C=C2\C(=O)[N-]C(=S)N2C)cc1OC

>  <Energy>  (12) 
159.34072402728992

>  <Genealogy>  (12) 
COc1ccc(-c2nc3sccn3c2C=C2C(=O)[N-]C(=S)N2C)cc1OC (protonated)
COc1ccc(-c2nc3sccn3c2/C=C2\C(=O)[N-]C(=S)N2C)cc1OC (cis-trans isomerization)
COc1ccc(-c2nc3sccn3c2/C=C2\C(=O)[N-]C(=S)N2C)cc1OC (3D coordinates assigned)
COc1ccc(-c2nc3sccn3c2/C=C2\C(=O)[N-]C(=S)N2C)cc1OC (nonaromatic ring conformer: 159.34072402728992 kcal/mol)

>  <smiles>  (12) 
COc1ccc(-c2nc3sccn3c2C=C2C(=O)NC(=S)N2C)cc1OC

>  <score_type>  (12) 
oracle

>  <origin>  (12) 
adg

>  <m_score__min__energy>  (12) 
-8.9000000000000004

>  <m_primary>  (12) 
energy

$$$$
12:0
     RDKit          3D

 49 51  0  0  0  0  0  0  0  0999 V2000
   -3.4180   24.1870  -29.7140 C   0  0  0  0  0  0  0  0  0  0  0  0
   -4.1400   24.8340  -30.7370 O   0  0  0  0  0  0  0  0  0  0  0  0
   -5.5240   24.5610  -30.6160 C   0  0  0  0  0  0  0  0  0  0  0  0
   -6.1070   24.1170  -31.9630 C   0  0  0  0  0  0  0  0  0  0  0  0
   -6.2400   22.6410  -32.0260 N   0  0  0  0  0  0  0  0  0  0  0  0
   -5.1700   21.8060  -32.3040 C   0  0  0  0  0  0  0  0  0  0  0  0
   -3.7330   22.2890  -32.4680 C   0  0  0  0  0  0  0  0  0  0  0  0
   -2.7130   21.2050  -32.4080 N   0  0  1  0  0  0  0  0  0  0  0  0
   -2.1800   20.7980  -33.7430 C   0  0  0  0  0  0  0  0  0  0  0  0
   -0.7610   21.3270  -34.0120 C   0  0  0  0  0  0  0  0  0  0  0  0
    0.2430   20.8440  -32.9360 C   0  0  2  0  0  0  0  0  0  0  0  0
    1.0040   19.5960  -33.4020 C   0  0  0  0  0  0  0  0  0  0  0  0
   -0.4420   20.5820  -31.5740 C   0  0  0  0  0  0  0  0  0  0  0  0
   -1.6600   21.4940  -31.3960 C   0  0  0  0  0  0  0  0  0  0  0  0
   -5.3760   20.4710  -32.4440 N   0  0  0  0  0  0  0  0  0  0  0  0
   -6.5940   19.9050  -32.2950 C   0  0  0  0  0  0  0  0  0  0  0  0
   -6.7440   18.5210  -32.4350 C   0  0  0  0  0  0  0  0  0  0  0  0
   -8.0030   17.9360  -32.2740 C   0  0  0  0  0  0  0  0  0  0  0  0
   -9.1120   18.7320  -31.9740 C   0  0  0  0  0  0  0  0  0  0  0  0
   -8.9660   20.1160  -31.8340 C   0  0  0  0  0  0  0  0  0  0  0  0
   -7.6990   20.7120  -31.9930 C   0  0  0  0  0  0  0  0  0  0  0  0
   -7.4970   22.0960  -31.8710 C   0  0  0  0  0  0  0  0  0  0  0  0
   -8.4880   22.8420  -31.6230 O   0  0  0  0  0  0  0  0  0  0  0  0
   -3.7908   24.5210  -28.7345 H   0  0  0  0  0  0  0  0  0  0  0  0
   -3.5493   23.0986  -29.8045 H   0  0  0  0  0  0  0  0  0  0  0  0
   -2.3505   24.4364  -29.8045 H   0  0  0  0  0  0  0  0  0  0  0  0
   -5.6710   23.7597  -29.8768 H   0  0  0  0  0  0  0  0  0  0  0  0
   -6.0389   25.4774  -30.2918 H   0  0  0  0  0  0  0  0  0  0  0  0
   -7.0995   24.5732  -32.0929 H   0  0  0  0  0  0  0  0  0  0  0  0
   -5.4252   24.4411  -32.7630 H   0  0  0  0  0  0  0  0  0  0  0  0
   -3.6468   22.7899  -33.4435 H   0  0  0  0  0  0  0  0  0  0  0  0
   -3.5279   22.9626  -31.6229 H   0  0  0  0  0  0  0  0  0  0  0  0
   -3.2250   20.3670  -32.0400 H   0  0  0  0  0  0  0  0  0  0  0  0
   -2.8523   21.1869  -34.5219 H   0  0  0  0  0  0  0  0  0  0  0  0
   -2.1286   19.6993  -33.7550 H   0  0  0  0  0  0  0  0  0  0  0  0
   -0.7841   22.4268  -34.0102 H   0  0  0  0  0  0  0  0  0  0  0  0
   -0.4302   20.9417  -34.9878 H   0  0  0  0  0  0  0  0  0  0  0  0
    0.9666   21.6600  -32.7925 H   0  0  0  0  0  0  0  0  0  0  0  0
    1.3499   19.0288  -32.5253 H   0  0  0  0  0  0  0  0  0  0  0  0
    0.3371   18.9646  -34.0074 H   0  0  0  0  0  0  0  0  0  0  0  0
    1.8707   19.8998  -34.0074 H   0  0  0  0  0  0  0  0  0  0  0  0
    0.2769   20.7776  -30.7647 H   0  0  0  0  0  0  0  0  0  0  0  0
   -0.7768   19.5347  -31.5422 H   0  0  0  0  0  0  0  0  0  0  0  0
   -1.3405   22.5412  -31.5022 H   0  0  0  0  0  0  0  0  0  0  0  0
   -2.0833   21.3120  -30.3971 H   0  0  0  0  0  0  0  0  0  0  0  0
   -5.8718   17.8939  -32.6716 H   0  0  0  0  0  0  0  0  0  0  0  0
   -8.1213   16.8479  -32.3835 H   0  0  0  0  0  0  0  0  0  0  0  0
  -10.1018   18.2690  -31.8477 H   0  0  0  0  0  0  0  0  0  0  0  0
   -9.8411   20.7399  -31.5995 H   0  0  0  0  0  0  0  0  0  0  0  0
  1  2  1  0
  2  3  1  0
  3  4  1  0
  4  5  1  0
  5  6  1  0
  6  7  1  0
  7  8  1  0
  8  9  1  0
  9 10  1  0
 10 11  1  0
 11 12  1  0
 11 13  1  0
 13 14  1  0
  6 15  2  0
 15 16  1  0
 16 17  2  0
 17 18  1  0
 18 19  2  0
 19 20  1  0
 20 21  2  0
 21 22  1  0
 22 23  2  0
 22  5  1  0
 14  8  1  0
 21 16  1  0
  1 24  1  0
  1 25  1  0
  1 26  1  0
  3 27  1  0
  3 28  1  0
  4 29  1  0
  4 30  1  0
  7 31  1  0
  7 32  1  0
  8 33  1  1
  9 34  1  0
  9 35  1  0
 10 36  1  0
 10 37  1  0
 11 38  1  1
 12 39  1  0
 12 40  1  0
 12 41  1  0
 13 42  1  0
 13 43  1  0
 14 44  1  0
 14 45  1  0
 17 46  1  0
 18 47  1  0
 19 48  1  0
 20 49  1  0
M  CHG  1   8   1
M  END
>  <UniqueID>  (13) 
12

>  <SMILES>  (13) 
COCCn1c(C[NH+]2CCC(C)CC2)nc2ccccc2c1=O

>  <Energy>  (13) 
71.09993417676682

>  <Genealogy>  (13) 
COCCn1c(C[NH+]2CCC(C)CC2)nc2ccccc2c1=O (protonated)
COCCn1c(C[NH+]2CCC(C)CC2)nc2ccccc2c1=O (3D coordinates assigned)
COCCn1c(C[NH+]2CCC(C)CC2)nc2ccccc2c1=O (nonaromatic ring conformer: 71.09993417676682 kcal/mol)

>  <smiles>  (13) 
COCCn1c(CN2CCC(C)CC2)nc2ccccc2c1=O

>  <score_type>  (13) 
oracle

>  <origin>  (13) 
adg

>  <m_score__min__energy>  (13) 
-7.1200000000000001

>  <m_primary>  (13) 
energy

$$$$
13:0
     RDKit          3D

 70 74  0  0  0  0  0  0  0  0999 V2000
   -0.5090   19.3700  -28.7710 C   0  0  0  0  0  0  0  0  0  0  0  0
   -0.4420   20.7500  -28.1220 C   0  0  0  0  0  0  0  0  0  0  0  0
   -1.7180   21.0960  -27.4520 N   0  0  0  0  0  0  0  0  0  0  0  0
   -2.7180   20.0110  -27.6080 C   0  0  0  0  0  0  0  0  0  0  0  0
   -2.7910   19.1100  -26.3740 C   0  0  0  0  0  0  0  0  0  0  0  0
   -2.2280   22.4450  -27.8190 C   0  0  0  0  0  0  0  0  0  0  0  0
   -3.7700   22.5510  -27.9520 C   0  0  0  0  0  0  0  0  0  0  0  0
   -4.2030   23.8400  -28.6590 C   0  0  0  0  0  0  0  0  0  0  0  0
   -5.5850   23.7080  -29.1330 N   0  0  0  0  0  0  0  0  0  0  0  0
   -5.7000   24.0020  -30.5660 C   0  0  0  0  0  0  0  0  0  0  0  0
   -5.7900   22.6980  -31.3210 C   0  0  0  0  0  0  0  0  0  0  0  0
   -4.6030   22.0210  -31.6340 C   0  0  0  0  0  0  0  0  0  0  0  0
   -4.6360   20.7980  -32.2530 C   0  0  0  0  0  0  0  0  0  0  0  0
   -5.7900   20.1770  -32.5850 N   0  0  0  0  0  0  0  0  0  0  0  0
   -6.9810   20.7780  -32.3040 C   0  0  0  0  0  0  0  0  0  0  0  0
   -8.1710   20.1260  -32.6420 C   0  0  0  0  0  0  0  0  0  0  0  0
   -9.4020   20.6990  -32.3260 C   0  0  0  0  0  0  0  0  0  0  0  0
   -9.4550   21.9230  -31.6590 C   0  0  0  0  0  0  0  0  0  0  0  0
   -8.2790   22.5950  -31.3150 C   0  0  0  0  0  0  0  0  0  0  0  0
   -7.0190   22.0480  -31.6420 C   0  0  0  0  0  0  0  0  0  0  0  0
   -3.2830   20.3180  -32.3680 C   0  0  0  0  0  0  0  0  0  0  0  0
   -2.8280   19.1140  -32.8970 C   0  0  0  0  0  0  0  0  0  0  0  0
   -1.4420   18.8450  -32.8670 C   0  0  0  0  0  0  0  0  0  0  0  0
   -0.5610   19.8280  -32.3350 C   0  0  0  0  0  0  0  0  0  0  0  0
   -1.0900   21.0350  -31.8250 C   0  0  0  0  0  0  0  0  0  0  0  0
   -0.3310   21.9300  -31.3610 O   0  0  0  0  0  0  0  0  0  0  0  0
   -2.4340   21.2260  -31.8450 N   0  0  0  0  0  0  0  0  0  0  0  0
   -3.1720   22.3890  -31.3390 C   0  0  0  0  0  0  0  0  0  0  0  0
    0.9260   19.5960  -32.3980 C   0  0  0  0  0  0  0  0  0  0  0  0
    1.2250   18.2140  -32.2390 O   0  0  0  0  0  0  0  0  0  0  0  0
    0.4280   17.2130  -32.7990 C   0  0  0  0  0  0  0  0  0  0  0  0
    0.8180   16.0160  -32.7400 O   0  0  0  0  0  0  0  0  0  0  0  0
   -0.8840   17.5570  -33.4760 C   0  0  1  0  0  0  0  0  0  0  0  0
   -1.7760   16.4880  -33.2370 O   0  0  0  0  0  0  0  0  0  0  0  0
   -0.6520   17.7790  -34.9990 C   0  0  0  0  0  0  0  0  0  0  0  0
    0.8250   17.8980  -35.3860 C   0  0  0  0  0  0  0  0  0  0  0  0
   -0.5465   18.5981  -27.9882 H   0  0  0  0  0  0  0  0  0  0  0  0
   -1.4115   19.3023  -29.3962 H   0  0  0  0  0  0  0  0  0  0  0  0
    0.3827   19.2152  -29.3962 H   0  0  0  0  0  0  0  0  0  0  0  0
    0.3666   20.7557  -27.3763 H   0  0  0  0  0  0  0  0  0  0  0  0
   -0.2523   21.4938  -28.9099 H   0  0  0  0  0  0  0  0  0  0  0  0
   -3.7070   20.4623  -27.7760 H   0  0  0  0  0  0  0  0  0  0  0  0
   -2.4111   19.3894  -28.4620 H   0  0  0  0  0  0  0  0  0  0  0  0
   -2.7409   19.7279  -25.4653 H   0  0  0  0  0  0  0  0  0  0  0  0
   -3.7375   18.5496  -26.3846 H   0  0  0  0  0  0  0  0  0  0  0  0
   -1.9471   18.4045  -26.3846 H   0  0  0  0  0  0  0  0  0  0  0  0
   -1.9031   23.1548  -27.0440 H   0  0  0  0  0  0  0  0  0  0  0  0
   -1.8183   22.6671  -28.8154 H   0  0  0  0  0  0  0  0  0  0  0  0
   -4.1357   21.6898  -28.5304 H   0  0  0  0  0  0  0  0  0  0  0  0
   -4.1963   22.5625  -26.9380 H   0  0  0  0  0  0  0  0  0  0  0  0
   -4.1377   24.6823  -27.9545 H   0  0  0  0  0  0  0  0  0  0  0  0
   -3.5408   24.0224  -29.5182 H   0  0  0  0  0  0  0  0  0  0  0  0
   -6.1900   24.3770  -28.6030 H   0  0  0  0  0  0  0  0  0  0  0  0
   -6.6050   24.5996  -30.7499 H   0  0  0  0  0  0  0  0  0  0  0  0
   -4.8215   24.5712  -30.9039 H   0  0  0  0  0  0  0  0  0  0  0  0
   -8.1356   19.1561  -33.1598 H   0  0  0  0  0  0  0  0  0  0  0  0
  -10.3339   20.1846  -32.6034 H   0  0  0  0  0  0  0  0  0  0  0  0
  -10.4300   22.3626  -31.4018 H   0  0  0  0  0  0  0  0  0  0  0  0
   -8.3353   23.5575  -30.7854 H   0  0  0  0  0  0  0  0  0  0  0  0
   -3.5324   18.3879  -33.3290 H   0  0  0  0  0  0  0  0  0  0  0  0
   -3.0106   22.5232  -30.2592 H   0  0  0  0  0  0  0  0  0  0  0  0
   -2.8603   23.3393  -31.7971 H   0  0  0  0  0  0  0  0  0  0  0  0
    1.3041   19.9377  -33.3728 H   0  0  0  0  0  0  0  0  0  0  0  0
    1.4072   20.1586  -31.5844 H   0  0  0  0  0  0  0  0  0  0  0  0
   -1.2830   15.7470  -32.7980 H   0  0  0  0  0  0  0  0  0  0  0  0
   -1.0863   16.9280  -35.5441 H   0  0  0  0  0  0  0  0  0  0  0  0
   -1.1309   18.7339  -35.2612 H   0  0  0  0  0  0  0  0  0  0  0  0
    1.4398   17.9475  -34.4752 H   0  0  0  0  0  0  0  0  0  0  0  0
    1.1201   17.0207  -35.9804 H   0  0  0  0  0  0  0  0  0  0  0  0
    0.9759   18.8112  -35.9804 H   0  0  0  0  0  0  0  0  0  0  0  0
  1  2  1  0
  2  3  1  0
  3  4  1  0
  4  5  1  0
  3  6  1  0
  6  7  1  0
  7  8  1  0
  8  9  1  0
  9 10  1  0
 10 11  1  0
 11 12  2  0
 12 13  1  0
 13 14  2  0
 14 15  1  0
 15 16  2  0
 16 17  1  0
 17 18  2  0
 18 19  1  0
 19 20  2  0
 13 21  1  0
 21 22  2  0
 22 23  1  0
 23 24  2  0
 24 25  1  0
 25 26  2  0
 25 27  1  0
 27 28  1  0
 24 29  1  0
 29 30  1  0
 30 31  1  0
 31 32  2  0
 31 33  1  0
 33 34  1  6
 33 35  1  0
 35 36  1  0
 20 11  1  0
 27 21  1  0
 28 12  1  0
 20 15  1  0
 33 23  1  0
  1 37  1  0
  1 38  1  0
  1 39  1  0
  2 40  1  0
  2 41  1  0
  4 42  1  0
  4 43  1  0
  5 44  1  0
  5 45  1  0
  5 46  1  0
  6 47  1  0
  6 48  1  0
  7 49  1  0
  7 50  1  0
  8 51  1  0
  8 52  1  0
  9 53  1  0
 10 54  1  0
 10 55  1  0
 16 56  1  0
 17 57  1  0
 18 58  1  0
 19 59  1  0
 22 60  1  0
 28 61  1  0
 28 62  1  0
 29 63  1  0
 29 64  1  0
 34 65  1  0
 35 66  1  0
 35 67  1  0
 36 68  1  0
 36 69  1  0
 36 70  1  0
M  END
>  <UniqueID>  (14) 
13

>  <SMILES>  (14) 
CCN(CC)CCCNCc1c2c(nc3ccccc13)-c1cc3c(c(=O)n1C2)COC(=O)[C@]3(O)CC

>  <Energy>  (14) 
111.96596136210363

>  <Genealogy>  (14) 
CCN(CC)CCCNCc1c2c(nc3ccccc13)-c1cc3c(c(=O)n1C2)COC(=O)[C@]3(O)CC (chirality)
CCN(CC)CCCNCc1c2c(nc3ccccc13)-c1cc3c(c(=O)n1C2)COC(=O)[C@]3(O)CC (3D coordinates assigned)
CCN(CC)CCCNCc1c2c(nc3ccccc13)-c1cc3c(c(=O)n1C2)COC(=O)[C@]3(O)CC (nonaromatic ring conformer: 111.96596136210363 kcal/mol)

>  <smiles>  (14) 
CCN(CC)CCCNCc1c2c(nc3ccccc13)-c1cc3c(c(=O)n1C2)COC(=O)C3(O)CC

>  <score_type>  (14) 
oracle

>  <origin>  (14) 
adg

>  <m_score__min__energy>  (14) 
-8.7899999999999991

>  <m_primary>  (14) 
energy

$$$$
14:0
     RDKit          3D

 38 40  0  0  0  0  0  0  0  0999 V2000
   -7.6340   19.5700  -32.6830 C   0  0  0  0  0  0  0  0  0  0  0  0
   -6.8860   20.8690  -32.9640 C   0  0  0  0  0  0  0  0  0  0  0  0
   -7.3120   21.9200  -32.0280 N   0  0  0  0  0  0  0  0  0  0  0  0
   -8.7230   22.3310  -31.9650 C   0  0  0  0  0  0  0  0  0  0  0  0
   -9.4520   21.5690  -30.8640 C   0  0  0  0  0  0  0  0  0  0  0  0
   -6.3430   22.5480  -31.1670 C   0  0  0  0  0  0  0  0  0  0  0  0
   -5.1160   21.9210  -30.9020 C   0  0  0  0  0  0  0  0  0  0  0  0
   -4.1750   22.5300  -30.0660 C   0  0  0  0  0  0  0  0  0  0  0  0
   -4.4450   23.7780  -29.4800 C   0  0  0  0  0  0  0  0  0  0  0  0
   -3.4780   24.4070  -28.6190 N   0  0  0  0  0  0  0  0  0  0  0  0
   -3.6370   24.5440  -27.3020 N   0  0  0  0  0  0  0  0  0  0  0  0
   -2.5280   25.1700  -26.8840 C   0  0  0  0  0  0  0  0  0  0  0  0
   -2.1770   25.5600  -25.5950 C   0  0  0  0  0  0  0  0  0  0  0  0
   -0.9370   26.2100  -25.4330 C   0  0  0  0  0  0  0  0  0  0  0  0
   -0.0980   26.4460  -26.5490 C   0  0  0  0  0  0  0  0  0  0  0  0
   -0.4930   26.0350  -27.8390 C   0  0  0  0  0  0  0  0  0  0  0  0
   -1.7230   25.3970  -27.9550 C   0  0  0  0  0  0  0  0  0  0  0  0
   -2.3230   24.9150  -29.0530 N   0  0  0  0  0  0  0  0  0  0  0  0
   -5.6760   24.4040  -29.7470 C   0  0  0  0  0  0  0  0  0  0  0  0
   -6.6150   23.7940  -30.5820 C   0  0  0  0  0  0  0  0  0  0  0  0
   -7.7185   19.4233  -31.5961 H   0  0  0  0  0  0  0  0  0  0  0  0
   -8.6398   19.6231  -33.1251 H   0  0  0  0  0  0  0  0  0  0  0  0
   -7.0832   18.7267  -33.1251 H   0  0  0  0  0  0  0  0  0  0  0  0
   -5.8057   20.6972  -32.8484 H   0  0  0  0  0  0  0  0  0  0  0  0
   -7.1099   21.1941  -33.9907 H   0  0  0  0  0  0  0  0  0  0  0  0
   -8.7770   23.4095  -31.7556 H   0  0  0  0  0  0  0  0  0  0  0  0
   -9.2022   22.1077  -32.9297 H   0  0  0  0  0  0  0  0  0  0  0  0
   -9.1096   21.9269  -29.8818 H   0  0  0  0  0  0  0  0  0  0  0  0
  -10.5352   21.7360  -30.9579 H   0  0  0  0  0  0  0  0  0  0  0  0
   -9.2372   20.4943  -30.9579 H   0  0  0  0  0  0  0  0  0  0  0  0
   -4.8928   20.9438  -31.3550 H   0  0  0  0  0  0  0  0  0  0  0  0
   -3.2167   22.0285  -29.8658 H   0  0  0  0  0  0  0  0  0  0  0  0
   -2.8398   25.3689  -24.7382 H   0  0  0  0  0  0  0  0  0  0  0  0
   -0.6185   26.5365  -24.4320 H   0  0  0  0  0  0  0  0  0  0  0  0
    0.8680   26.9531  -26.4089 H   0  0  0  0  0  0  0  0  0  0  0  0
    0.1456   26.2118  -28.7171 H   0  0  0  0  0  0  0  0  0  0  0  0
   -5.9009   25.3812  -29.2948 H   0  0  0  0  0  0  0  0  0  0  0  0
   -7.5742   24.2938  -30.7823 H   0  0  0  0  0  0  0  0  0  0  0  0
  1  2  1  0
  2  3  1  0
  3  4  1  0
  4  5  1  0
  3  6  1  0
  6  7  2  0
  7  8  1  0
  8  9  2  0
  9 10  1  0
 10 11  1  0
 11 12  2  0
 12 13  1  0
 13 14  2  0
 14 15  1  0
 15 16  2  0
 16 17  1  0
 17 18  2  0
  9 19  1  0
 19 20  2  0
 20  6  1  0
 18 10  1  0
 17 12  1  0
  1 21  1  0
  1 22  1  0
  1 23  1  0
  2 24  1  0
  2 25  1  0
  4 26  1  0
  4 27  1  0
  5 28  1  0
  5 29  1  0
  5 30  1  0
  7 31  1  0
  8 32  1  0
 13 33  1  0
 14 34  1  0
 15 35  1  0
 16 36  1  0
 19 37  1  0
 20 38  1  0
M  END
>  <UniqueID>  (15) 
14

>  <SMILES>  (15) 
CCN(CC)c1ccc(-n2nc3ccccc3n2)cc1

>  <Energy>  (15) 
81.2380536752357

>  <Genealogy>  (15) 
CCN(CC)c1ccc(-n2nc3ccccc3n2)cc1 (3D coordinates assigned)
CCN(CC)c1ccc(-n2nc3ccccc3n2)cc1 (optimized conformer: 81.2380536752357 kcal/mol)

>  <smiles>  (15) 
CCN(CC)c1ccc(-n2nc3ccccc3n2)cc1

>  <score_type>  (15) 
oracle

>  <origin>  (15) 
adg

>  <m_score__min__energy>  (15) 
-6.6399999999999997

>  <m_primary>  (15) 
energy

$$$$
15:0
     RDKit          3D

 33 35  0  0  0  0  0  0  0  0999 V2000
   -4.0600   19.7040  -33.5600 C   0  0  0  0  0  0  0  0  0  0  0  0
   -4.7800   20.8010  -32.8050 C   0  0  0  0  0  0  0  0  0  0  0  0
   -6.2100   20.7620  -32.6660 C   0  0  0  0  0  0  0  0  0  0  0  0
   -6.8880   21.8340  -32.0260 C   0  0  0  0  0  0  0  0  0  0  0  0
   -6.1170   22.8570  -31.4780 C   0  0  0  0  0  0  0  0  0  0  0  0
   -6.5500   23.9380  -30.8080 N   0  0  0  0  0  0  0  0  0  0  0  0
   -5.3990   24.5810  -30.4950 C   0  0  0  0  0  0  0  0  0  0  0  0
   -4.2770   23.9560  -30.9320 N   0  0  0  0  0  0  0  0  0  0  0  0
   -4.7610   22.8660  -31.5520 C   0  0  0  0  0  0  0  0  0  0  0  0
   -4.0390   21.8530  -32.1870 C   0  0  0  0  0  0  0  0  0  0  0  0
   -2.5330   21.9140  -32.2310 C   0  0  0  0  0  0  0  0  0  0  0  0
   -8.3830   21.8490  -31.8470 C   0  0  0  0  0  0  0  0  0  0  0  0
   -9.0850   20.8000  -32.7170 C   0  0  0  0  0  0  0  0  0  0  0  0
   -8.3810   19.5020  -32.7080 N   0  0  2  0  0  0  0  0  0  0  0  0
   -8.3640   18.8780  -31.3700 C   0  0  0  0  0  0  0  0  0  0  0  0
   -7.0210   19.6270  -33.2740 C   0  0  0  0  0  0  0  0  0  0  0  0
   -3.6018   19.0059  -32.8439 H   0  0  0  0  0  0  0  0  0  0  0  0
   -4.7784   19.1617  -34.1923 H   0  0  0  0  0  0  0  0  0  0  0  0
   -3.2767   20.1473  -34.1923 H   0  0  0  0  0  0  0  0  0  0  0  0
   -5.3764   25.5276  -29.9352 H   0  0  0  0  0  0  0  0  0  0  0  0
   -2.1366   21.9301  -31.2050 H   0  0  0  0  0  0  0  0  0  0  0  0
   -2.1456   21.0308  -32.7600 H   0  0  0  0  0  0  0  0  0  0  0  0
   -2.2183   22.8256  -32.7600 H   0  0  0  0  0  0  0  0  0  0  0  0
   -8.6147   21.6450  -30.7912 H   0  0  0  0  0  0  0  0  0  0  0  0
   -8.7483   22.8398  -32.1550 H   0  0  0  0  0  0  0  0  0  0  0  0
  -10.1063   20.6511  -32.3365 H   0  0  0  0  0  0  0  0  0  0  0  0
   -9.0920   21.1717  -33.7523 H   0  0  0  0  0  0  0  0  0  0  0  0
   -8.9200   18.8570  -33.3340 H   0  0  0  0  0  0  0  0  0  0  0  0
   -8.3854   19.6625  -30.5992 H   0  0  0  0  0  0  0  0  0  0  0  0
   -9.2448   18.2288  -31.2570 H   0  0  0  0  0  0  0  0  0  0  0  0
   -7.4492   18.2777  -31.2570 H   0  0  0  0  0  0  0  0  0  0  0  0
   -6.4836   18.6832  -33.0994 H   0  0  0  0  0  0  0  0  0  0  0  0
   -7.1366   19.8507  -34.3448 H   0  0  0  0  0  0  0  0  0  0  0  0
  1  2  1  0
  2  3  2  0
  3  4  1  0
  4  5  2  0
  5  6  1  0
  6  7  2  0
  7  8  1  0
  8  9  1  0
  9 10  2  0
 10 11  1  0
  4 12  1  0
 12 13  1  0
 13 14  1  0
 14 15  1  0
 14 16  1  0
 10  2  1  0
 16  3  1  0
  9  5  1  0
  1 17  1  0
  1 18  1  0
  1 19  1  0
  7 20  1  0
 11 21  1  0
 11 22  1  0
 11 23  1  0
 12 24  1  0
 12 25  1  0
 13 26  1  0
 13 27  1  0
 14 28  1  6
 15 29  1  0
 15 30  1  0
 15 31  1  0
 16 32  1  0
 16 33  1  0
M  CHG  2   8  -1  14   1
M  END
>  <UniqueID>  (16) 
15

>  <SMILES>  (16) 
Cc1c2c(c3nc[n-]c3c1C)CC[N@H+](C)C2

>  <Energy>  (16) 
77.10254947393835

>  <Genealogy>  (16) 
Cc1c2c(c3nc[n-]c3c1C)CC[NH+](C)C2 (protonated)
Cc1c2c(c3nc[n-]c3c1C)CC[N@H+](C)C2 (chirality)
Cc1c2c(c3nc[n-]c3c1C)CC[N@H+](C)C2 (3D coordinates assigned)
Cc1c2c(c3nc[n-]c3c1C)CC[N@H+](C)C2 (nonaromatic ring conformer: 77.10254947393835 kcal/mol)

>  <smiles>  (16) 
Cc1c2c(c3nc[nH]c3c1C)CCN(C)C2

>  <score_type>  (16) 
oracle

>  <origin>  (16) 
adg

>  <m_score__min__energy>  (16) 
-6.8799999999999999

>  <m_primary>  (16) 
energy

$$$$
16:0
     RDKit          3D

 36 37  0  0  0  0  0  0  0  0999 V2000
   -0.8770   26.6200  -28.2190 C   0  0  0  0  0  0  0  0  0  0  0  0
   -1.6170   25.6330  -28.9300 O   0  0  0  0  0  0  0  0  0  0  0  0
   -1.8200   24.3130  -28.4940 C   0  0  0  0  0  0  0  0  0  0  0  0
   -1.1670   23.8130  -27.3480 C   0  0  0  0  0  0  0  0  0  0  0  0
   -1.3540   22.4920  -26.9430 C   0  0  0  0  0  0  0  0  0  0  0  0
   -2.1920   21.6480  -27.6710 C   0  0  0  0  0  0  0  0  0  0  0  0
   -2.4410   19.8380  -27.1140 Br  0  0  0  0  0  0  0  0  0  0  0  0
   -2.8510   22.1270  -28.8050 C   0  0  0  0  0  0  0  0  0  0  0  0
   -2.6830   23.4610  -29.2260 C   0  0  0  0  0  0  0  0  0  0  0  0
   -3.4110   23.9330  -30.4330 C   0  0  0  0  0  0  0  0  0  0  0  0
   -3.6540   23.1270  -31.3730 O   0  0  0  0  0  0  0  0  0  0  0  0
   -3.8590   25.2900  -30.5310 N   0  0  0  0  0  0  0  0  0  0  0  0
   -5.2640   25.6810  -30.5200 C   0  0  0  0  0  0  0  0  0  0  0  0
   -6.1350   24.4860  -30.7890 C   0  0  0  0  0  0  0  0  0  0  0  0
   -6.6840   23.7460  -29.7280 C   0  0  0  0  0  0  0  0  0  0  0  0
   -7.4720   22.6210  -29.9860 C   0  0  0  0  0  0  0  0  0  0  0  0
   -7.7160   22.2230  -31.3060 C   0  0  0  0  0  0  0  0  0  0  0  0
   -8.7220   20.7750  -31.6350 S   0  0  0  0  0  0  0  0  0  0  0  0
   -7.4520   19.9770  -32.6640 C   0  0  0  0  0  0  0  0  0  0  0  0
   -7.1640   22.9490  -32.3660 C   0  0  0  0  0  0  0  0  0  0  0  0
   -6.3760   24.0760  -32.1100 C   0  0  0  0  0  0  0  0  0  0  0  0
   -0.9971   26.4598  -27.1374 H   0  0  0  0  0  0  0  0  0  0  0  0
    0.1875   26.5426  -28.4852 H   0  0  0  0  0  0  0  0  0  0  0  0
   -1.2497   27.6201  -28.4852 H   0  0  0  0  0  0  0  0  0  0  0  0
   -0.5038   24.4717  -26.7682 H   0  0  0  0  0  0  0  0  0  0  0  0
   -0.8393   22.1147  -26.0471 H   0  0  0  0  0  0  0  0  0  0  0  0
   -3.5087   21.4553  -29.3761 H   0  0  0  0  0  0  0  0  0  0  0  0
   -5.5170   26.1013  -29.5354 H   0  0  0  0  0  0  0  0  0  0  0  0
   -5.4342   26.4341  -31.3035 H   0  0  0  0  0  0  0  0  0  0  0  0
   -6.4926   24.0537  -28.6894 H   0  0  0  0  0  0  0  0  0  0  0  0
   -7.9010   22.0476  -29.1511 H   0  0  0  0  0  0  0  0  0  0  0  0
   -6.6992   19.5040  -32.0162 H   0  0  0  0  0  0  0  0  0  0  0  0
   -7.9222   19.2117  -33.2990 H   0  0  0  0  0  0  0  0  0  0  0  0
   -6.9665   20.7327  -33.2990 H   0  0  0  0  0  0  0  0  0  0  0  0
   -7.3498   22.6332  -33.4032 H   0  0  0  0  0  0  0  0  0  0  0  0
   -5.9433   24.6434  -32.9472 H   0  0  0  0  0  0  0  0  0  0  0  0
  1  2  1  0
  2  3  1  0
  3  4  2  0
  4  5  1  0
  5  6  2  0
  6  7  1  0
  6  8  1  0
  8  9  2  0
  9 10  1  0
 10 11  2  0
 10 12  1  0
 12 13  1  0
 13 14  1  0
 14 15  2  0
 15 16  1  0
 16 17  2  0
 17 18  1  0
 18 19  1  0
 17 20  1  0
 20 21  2  0
  9  3  1  0
 21 14  1  0
  1 22  1  0
  1 23  1  0
  1 24  1  0
  4 25  1  0
  5 26  1  0
  8 27  1  0
 13 28  1  0
 13 29  1  0
 15 30  1  0
 16 31  1  0
 19 32  1  0
 19 33  1  0
 19 34  1  0
 20 35  1  0
 21 36  1  0
M  CHG  1  12  -1
M  END
>  <UniqueID>  (17) 
16

>  <SMILES>  (17) 
COc1ccc(Br)cc1C(=O)[N-]Cc1ccc(SC)cc1

>  <Energy>  (17) 
31.75938593557671

>  <Genealogy>  (17) 
COc1ccc(Br)cc1C(=O)[N-]Cc1ccc(SC)cc1 (protonated)
COc1ccc(Br)cc1C(=O)[N-]Cc1ccc(SC)cc1 (3D coordinates assigned)
COc1ccc(Br)cc1C(=O)[N-]Cc1ccc(SC)cc1 (optimized conformer: 31.75938593557671 kcal/mol)

>  <smiles>  (17) 
COc1ccc(Br)cc1C(=O)NCc1ccc(SC)cc1

>  <score_type>  (17) 
oracle

>  <origin>  (17) 
adg

>  <m_score__min__energy>  (17) 
-10.300000000000001

>  <m_primary>  (17) 
energy

$$$$
17:0
     RDKit          3D

 51 54  0  0  0  0  0  0  0  0999 V2000
   -9.4720   18.1550  -31.6060 C   0  0  0  0  0  0  0  0  0  0  0  0
   -8.2230   18.1840  -32.2900 O   0  0  0  0  0  0  0  0  0  0  0  0
   -7.3730   19.2980  -32.3380 C   0  0  0  0  0  0  0  0  0  0  0  0
   -6.1590   19.2930  -33.0490 C   0  0  0  0  0  0  0  0  0  0  0  0
   -5.3380   20.4240  -33.0510 C   0  0  0  0  0  0  0  0  0  0  0  0
   -5.7060   21.5840  -32.3490 C   0  0  0  0  0  0  0  0  0  0  0  0
   -4.7370   22.7660  -32.3340 C   0  0  2  0  0  0  0  0  0  0  0  0
   -3.2770   22.2970  -32.2680 C   0  0  0  0  0  0  0  0  0  0  0  0
   -2.9960   21.6290  -30.9520 C   0  0  0  0  0  0  0  0  0  0  0  0
   -2.2610   20.6510  -30.9360 O   0  0  0  0  0  0  0  0  0  0  0  0
   -3.6260   22.1400  -29.6600 C   0  0  2  0  0  0  0  0  0  0  0  0
   -4.3910   23.4490  -29.8870 C   0  0  0  0  0  0  0  0  0  0  0  0
   -4.5710   24.2930  -28.9120 N   0  0  0  0  0  0  0  0  0  0  0  0
   -4.0470   24.1110  -27.5950 C   0  0  0  0  0  0  0  0  0  0  0  0
   -4.2930   24.9660  -26.7040 O   0  0  0  0  0  0  0  0  0  0  0  0
   -3.2440   22.8940  -27.2570 C   0  0  0  0  0  0  0  0  0  0  0  0
   -2.5760   22.3240  -28.5230 C   0  0  1  0  0  0  0  0  0  0  0  0
   -1.8450   21.0390  -28.1640 C   0  0  0  0  0  0  0  0  0  0  0  0
   -0.5180   20.8060  -28.5920 C   0  0  0  0  0  0  0  0  0  0  0  0
    0.1300   19.6080  -28.2760 C   0  0  0  0  0  0  0  0  0  0  0  0
   -0.5370   18.6250  -27.5320 C   0  0  0  0  0  0  0  0  0  0  0  0
    0.2810   17.0710  -27.1650 S   0  0  0  0  0  0  0  0  0  0  0  0
    0.9200   16.8670  -28.8610 C   0  0  0  0  0  0  0  0  0  0  0  0
   -1.8560   18.8440  -27.1040 C   0  0  0  0  0  0  0  0  0  0  0  0
   -2.5070   20.0420  -27.4190 C   0  0  0  0  0  0  0  0  0  0  0  0
   -4.9930   23.8110  -31.2270 C   0  0  0  0  0  0  0  0  0  0  0  0
   -6.9340   21.5850  -31.6540 C   0  0  0  0  0  0  0  0  0  0  0  0
   -7.7500   20.4510  -31.6470 C   0  0  0  0  0  0  0  0  0  0  0  0
   -9.2956   18.1591  -30.5202 H   0  0  0  0  0  0  0  0  0  0  0  0
  -10.0633   19.0397  -31.8848 H   0  0  0  0  0  0  0  0  0  0  0  0
  -10.0216   17.2439  -31.8848 H   0  0  0  0  0  0  0  0  0  0  0  0
   -5.8546   18.3946  -33.6060 H   0  0  0  0  0  0  0  0  0  0  0  0
   -4.3907   20.4057  -33.6099 H   0  0  0  0  0  0  0  0  0  0  0  0
   -4.9297   23.2774  -33.2887 H   0  0  0  0  0  0  0  0  0  0  0  0
   -3.0893   21.5829  -33.0834 H   0  0  0  0  0  0  0  0  0  0  0  0
   -2.6182   23.1720  -32.3698 H   0  0  0  0  0  0  0  0  0  0  0  0
   -4.3392   21.3670  -29.3378 H   0  0  0  0  0  0  0  0  0  0  0  0
   -2.4667   23.1637  -26.5269 H   0  0  0  0  0  0  0  0  0  0  0  0
   -3.9129   22.1313  -26.8317 H   0  0  0  0  0  0  0  0  0  0  0  0
   -1.8290   23.0305  -28.9141 H   0  0  0  0  0  0  0  0  0  0  0  0
    0.0089   21.5732  -29.1783 H   0  0  0  0  0  0  0  0  0  0  0  0
    1.1636   19.4369  -28.6114 H   0  0  0  0  0  0  0  0  0  0  0  0
    1.9672   16.5327  -28.8205 H   0  0  0  0  0  0  0  0  0  0  0  0
    0.3160   16.1170  -29.3927 H   0  0  0  0  0  0  0  0  0  0  0  0
    0.8623   17.8282  -29.3927 H   0  0  0  0  0  0  0  0  0  0  0  0
   -2.3788   18.0723  -26.5199 H   0  0  0  0  0  0  0  0  0  0  0  0
   -3.5415   20.2067  -27.0833 H   0  0  0  0  0  0  0  0  0  0  0  0
   -6.0801   23.9204  -31.0995 H   0  0  0  0  0  0  0  0  0  0  0  0
   -4.5083   24.7435  -31.5518 H   0  0  0  0  0  0  0  0  0  0  0  0
   -7.2521   22.4879  -31.1122 H   0  0  0  0  0  0  0  0  0  0  0  0
   -8.6992   20.4668  -31.0914 H   0  0  0  0  0  0  0  0  0  0  0  0
  1  2  1  0
  2  3  1  0
  3  4  2  0
  4  5  1  0
  5  6  2  0
  6  7  1  0
  7  8  1  0
  8  9  1  0
  9 10  2  0
  9 11  1  0
 11 12  1  0
 12 13  2  0
 13 14  1  0
 14 15  2  0
 14 16  1  0
 16 17  1  0
 17 18  1  0
 18 19  2  0
 19 20  1  0
 20 21  2  0
 21 22  1  0
 22 23  1  0
 21 24  1  0
 24 25  2  0
 12 26  1  0
  6 27  1  0
 27 28  2  0
 28  3  1  0
 26  7  1  0
 17 11  1  0
 25 18  1  0
  1 29  1  0
  1 30  1  0
  1 31  1  0
  4 32  1  0
  5 33  1  0
  7 34  1  6
  8 35  1  0
  8 36  1  0
 11 37  1  1
 16 38  1  0
 16 39  1  0
 17 40  1  6
 19 41  1  0
 20 42  1  0
 23 43  1  0
 23 44  1  0
 23 45  1  0
 24 46  1  0
 25 47  1  0
 26 48  1  0
 26 49  1  0
 27 50  1  0
 28 51  1  0
M  END
>  <UniqueID>  (18) 
17

>  <SMILES>  (18) 
COc1ccc([C@@H]2CC(=O)[C@@H]3C(=NC(=O)CC3c3ccc(SC)cc3)C2)cc1

>  <Energy>  (18) 
55.11012993891115

>  <Genealogy>  (18) 
COc1ccc([C@@H]2CC(=O)[C@@H]3C(=NC(=O)CC3c3ccc(SC)cc3)C2)cc1 (chirality)
COc1ccc([C@@H]2CC(=O)[C@@H]3C(=NC(=O)CC3c3ccc(SC)cc3)C2)cc1 (3D coordinates assigned)
COc1ccc([C@@H]2CC(=O)[C@@H]3C(=NC(=O)CC3c3ccc(SC)cc3)C2)cc1 (nonaromatic ring conformer: 55.11012993891115 kcal/mol)

>  <smiles>  (18) 
COc1ccc(C2CC(=O)C3C(=NC(=O)CC3c3ccc(SC)cc3)C2)cc1

>  <score_type>  (18) 
oracle

>  <origin>  (18) 
adg

>  <m_score__min__energy>  (18) 
-7.9299999999999997

>  <m_primary>  (18) 
energy

$$$$
18:0
     RDKit          3D

 45 47  0  0  0  0  0  0  0  0999 V2000
   -2.2710   24.9130  -28.6030 C   0  0  0  0  0  0  0  0  0  0  0  0
   -3.1220   25.2410  -29.6970 O   0  0  0  0  0  0  0  0  0  0  0  0
   -4.0070   24.3400  -30.3080 C   0  0  0  0  0  0  0  0  0  0  0  0
   -5.2390   24.7470  -30.8560 C   0  0  0  0  0  0  0  0  0  0  0  0
   -6.0890   23.8080  -31.4490 C   0  0  0  0  0  0  0  0  0  0  0  0
   -5.7250   22.4560  -31.5000 C   0  0  0  0  0  0  0  0  0  0  0  0
   -6.6160   21.4870  -32.0730 N   0  0  0  0  0  0  0  0  0  0  0  0
   -7.9560   21.3910  -31.9220 C   0  0  0  0  0  0  0  0  0  0  0  0
   -8.7900   22.2850  -31.0600 C   0  0  0  0  0  0  0  0  0  0  0  0
   -8.4740   20.4140  -32.6950 N   0  0  0  0  0  0  0  0  0  0  0  0
   -7.4510   19.8730  -33.3390 N   0  0  0  0  0  0  0  0  0  0  0  0
   -6.3300   20.5130  -32.9640 C   0  0  0  0  0  0  0  0  0  0  0  0
   -4.9820   20.2720  -33.5840 C   0  0  0  0  0  0  0  0  0  0  0  0
   -4.2020   19.2160  -32.7870 C   0  0  0  0  0  0  0  0  0  0  0  0
   -4.6640   17.8470  -33.1080 N   0  0  0  0  0  0  0  0  0  0  0  0
   -5.4270   17.2590  -31.9800 C   0  0  0  0  0  0  0  0  0  0  0  0
   -6.9460   17.4170  -32.1780 C   0  0  0  0  0  0  0  0  0  0  0  0
   -7.4410   16.8030  -33.3610 O   0  0  0  0  0  0  0  0  0  0  0  0
   -6.4670   16.6790  -34.3880 C   0  0  0  0  0  0  0  0  0  0  0  0
   -5.4280   17.8120  -34.3810 C   0  0  0  0  0  0  0  0  0  0  0  0
   -4.4960   22.0530  -30.9620 C   0  0  0  0  0  0  0  0  0  0  0  0
   -3.6440   22.9900  -30.3700 C   0  0  0  0  0  0  0  0  0  0  0  0
   -2.7952   25.1150  -27.6573 H   0  0  0  0  0  0  0  0  0  0  0  0
   -2.0033   23.8473  -28.6534 H   0  0  0  0  0  0  0  0  0  0  0  0
   -1.3573   25.5234  -28.6534 H   0  0  0  0  0  0  0  0  0  0  0  0
   -5.5334   25.8062  -30.8175 H   0  0  0  0  0  0  0  0  0  0  0  0
   -7.0486   24.1327  -31.8777 H   0  0  0  0  0  0  0  0  0  0  0  0
   -8.5868   22.0671  -30.0011 H   0  0  0  0  0  0  0  0  0  0  0  0
   -8.5415   23.3353  -31.2725 H   0  0  0  0  0  0  0  0  0  0  0  0
   -9.8550   22.1100  -31.2725 H   0  0  0  0  0  0  0  0  0  0  0  0
   -7.5320   19.1020  -34.0390 H   0  0  0  0  0  0  0  0  0  0  0  0
   -5.1170   19.9186  -34.6169 H   0  0  0  0  0  0  0  0  0  0  0  0
   -4.4140   21.2140  -33.5756 H   0  0  0  0  0  0  0  0  0  0  0  0
   -3.1330   19.2998  -33.0326 H   0  0  0  0  0  0  0  0  0  0  0  0
   -4.3716   19.3962  -31.7152 H   0  0  0  0  0  0  0  0  0  0  0  0
   -5.1863   16.1882  -31.9063 H   0  0  0  0  0  0  0  0  0  0  0  0
   -5.1435   17.7903  -31.0595 H   0  0  0  0  0  0  0  0  0  0  0  0
   -7.4564   16.9658  -31.3143 H   0  0  0  0  0  0  0  0  0  0  0  0
   -7.1448   18.4949  -32.2712 H   0  0  0  0  0  0  0  0  0  0  0  0
   -5.9408   15.7220  -34.2564 H   0  0  0  0  0  0  0  0  0  0  0  0
   -6.9990   16.7309  -35.3494 H   0  0  0  0  0  0  0  0  0  0  0  0
   -4.7264   17.6577  -35.2140 H   0  0  0  0  0  0  0  0  0  0  0  0
   -5.9615   18.7680  -34.4878 H   0  0  0  0  0  0  0  0  0  0  0  0
   -4.2000   20.9945  -31.0055 H   0  0  0  0  0  0  0  0  0  0  0  0
   -2.6812   22.6637  -29.9498 H   0  0  0  0  0  0  0  0  0  0  0  0
  1  2  1  0
  2  3  1  0
  3  4  2  0
  4  5  1  0
  5  6  2  0
  6  7  1  0
  7  8  1  0
  8  9  1  0
  8 10  2  0
 10 11  1  0
 11 12  2  0
 12 13  1  0
 13 14  1  0
 14 15  1  0
 15 16  1  0
 16 17  1  0
 17 18  1  0
 18 19  1  0
 19 20  1  0
  6 21  1  0
 21 22  2  0
 22  3  1  0
 12  7  1  0
 20 15  1  0
  1 23  1  0
  1 24  1  0
  1 25  1  0
  4 26  1  0
  5 27  1  0
  9 28  1  0
  9 29  1  0
  9 30  1  0
 11 31  1  0
 13 32  1  0
 13 33  1  0
 14 34  1  0
 14 35  1  0
 16 36  1  0
 16 37  1  0
 17 38  1  0
 17 39  1  0
 19 40  1  0
 19 41  1  0
 20 42  1  0
 20 43  1  0
 21 44  1  0
 22 45  1  0
M  CHG  1  11   1
M  END
>  <UniqueID>  (19) 
18

>  <SMILES>  (19) 
COc1ccc(-n2c(C)n[nH+]c2CCN2CCOCC2)cc1

>  <Energy>  (19) 
96.28125903847798

>  <Genealogy>  (19) 
COc1ccc(-n2c(C)n[nH+]c2CCN2CCOCC2)cc1 (protonated)
COc1ccc(-n2c(C)n[nH+]c2CCN2CCOCC2)cc1 (3D coordinates assigned)
COc1ccc(-n2c(C)n[nH+]c2CCN2CCOCC2)cc1 (nonaromatic ring conformer: 96.28125903847798 kcal/mol)

>  <smiles>  (19) 
COc1ccc(-n2c(C)nnc2CCN2CCOCC2)cc1

>  <score_type>  (19) 
oracle

>  <origin>  (19) 
adg

>  <m_score__min__energy>  (19) 
-7.3499999999999996

>  <m_primary>  (19) 
energy

$$$$
19:0
     RDKit          3D

 42 43  0  0  0  0  0  0  0  0999 V2000
   -3.0550   23.8080  -29.8360 C   0  0  0  0  0  0  0  0  0  0  0  0
   -3.9400   24.2830  -30.8460 O   0  0  0  0  0  0  0  0  0  0  0  0
   -5.1750   23.6960  -31.1560 C   0  0  0  0  0  0  0  0  0  0  0  0
   -6.3960   24.2050  -30.6730 C   0  0  0  0  0  0  0  0  0  0  0  0
   -7.6020   23.5830  -31.0090 C   0  0  0  0  0  0  0  0  0  0  0  0
   -7.6090   22.4470  -31.8330 C   0  0  0  0  0  0  0  0  0  0  0  0
   -8.9100   21.7640  -32.1720 C   0  0  0  0  0  0  0  0  0  0  0  0
   -8.8650   20.2470  -31.9000 C   0  0  0  0  0  0  0  0  0  0  0  0
   -8.5080   19.4340  -33.0810 N   0  0  0  0  0  0  0  0  0  0  0  0
   -7.4830   18.4050  -32.8250 C   0  0  0  0  0  0  0  0  0  0  0  0
   -6.3020   18.5310  -33.7540 C   0  0  0  0  0  0  0  0  0  0  0  0
   -6.1450   19.6090  -34.3900 O   0  0  0  0  0  0  0  0  0  0  0  0
   -5.3800   17.4450  -33.9580 N   0  0  0  0  0  0  0  0  0  0  0  0
   -5.3360   16.2350  -33.1540 C   0  0  0  0  0  0  0  0  0  0  0  0
   -4.0990   15.4770  -33.6190 C   0  0  0  0  0  0  0  0  0  0  0  0
   -3.7080   16.0950  -34.9590 C   0  0  0  0  0  0  0  0  0  0  0  0
   -4.3540   17.4730  -34.9860 C   0  0  0  0  0  0  0  0  0  0  0  0
   -6.3910   21.9380  -32.3110 C   0  0  0  0  0  0  0  0  0  0  0  0
   -5.1860   22.5610  -31.9740 C   0  0  0  0  0  0  0  0  0  0  0  0
   -3.4751   24.0335  -28.8447 H   0  0  0  0  0  0  0  0  0  0  0  0
   -2.9280   22.7205  -29.9417 H   0  0  0  0  0  0  0  0  0  0  0  0
   -2.0785   24.3032  -29.9417 H   0  0  0  0  0  0  0  0  0  0  0  0
   -6.4008   25.0962  -30.0283 H   0  0  0  0  0  0  0  0  0  0  0  0
   -8.5508   23.9862  -30.6254 H   0  0  0  0  0  0  0  0  0  0  0  0
   -9.7115   22.2085  -31.5636 H   0  0  0  0  0  0  0  0  0  0  0  0
   -9.0940   21.9070  -33.2470 H   0  0  0  0  0  0  0  0  0  0  0  0
   -8.1201   20.0589  -31.1128 H   0  0  0  0  0  0  0  0  0  0  0  0
   -9.8808   19.9471  -31.6030 H   0  0  0  0  0  0  0  0  0  0  0  0
   -9.3630   18.9720  -33.4650 H   0  0  0  0  0  0  0  0  0  0  0  0
   -8.1580   20.0810  -33.8250 H   0  0  0  0  0  0  0  0  0  0  0  0
   -7.1301   18.5073  -31.7882 H   0  0  0  0  0  0  0  0  0  0  0  0
   -7.9434   17.4209  -32.9971 H   0  0  0  0  0  0  0  0  0  0  0  0
   -5.2531   16.4865  -32.0864 H   0  0  0  0  0  0  0  0  0  0  0  0
   -6.2496   15.6342  -33.2736 H   0  0  0  0  0  0  0  0  0  0  0  0
   -3.2826   15.5939  -32.8911 H   0  0  0  0  0  0  0  0  0  0  0  0
   -4.2981   14.3994  -33.7143 H   0  0  0  0  0  0  0  0  0  0  0  0
   -2.6142   16.1834  -35.0352 H   0  0  0  0  0  0  0  0  0  0  0  0
   -4.0431   15.4748  -35.8034 H   0  0  0  0  0  0  0  0  0  0  0  0
   -3.6086   18.2507  -34.7632 H   0  0  0  0  0  0  0  0  0  0  0  0
   -4.7758   17.7049  -35.9751 H   0  0  0  0  0  0  0  0  0  0  0  0
   -6.3850   21.0451  -32.9534 H   0  0  0  0  0  0  0  0  0  0  0  0
   -4.2375   22.1551  -32.3555 H   0  0  0  0  0  0  0  0  0  0  0  0
  1  2  1  0
  2  3  1  0
  3  4  2  0
  4  5  1  0
  5  6  2  0
  6  7  1  0
  7  8  1  0
  8  9  1  0
  9 10  1  0
 10 11  1  0
 11 12  2  0
 11 13  1  0
 13 14  1  0
 14 15  1  0
 15 16  1  0
 16 17  1  0
  6 18  1  0
 18 19  2  0
 19  3  1  0
 17 13  1  0
  1 20  1  0
  1 21  1  0
  1 22  1  0
  4 23  1  0
  5 24  1  0
  7 25  1  0
  7 26  1  0
  8 27  1  0
  8 28  1  0
  9 29  1  0
  9 30  1  0
 10 31  1  0
 10 32  1  0
 14 33  1  0
 14 34  1  0
 15 35  1  0
 15 36  1  0
 16 37  1  0
 16 38  1  0
 17 39  1  0
 17 40  1  0
 18 41  1  0
 19 42  1  0
M  CHG  1   9   1
M  END
>  <UniqueID>  (20) 
19

>  <SMILES>  (20) 
COc1ccc(CC[NH2+]CC(=O)N2CCCC2)cc1

>  <Energy>  (20) 
38.023565666868166

>  <Genealogy>  (20) 
COc1ccc(CC[NH2+]CC(=O)N2CCCC2)cc1 (protonated)
COc1ccc(CC[NH2+]CC(=O)N2CCCC2)cc1 (3D coordinates assigned)
COc1ccc(CC[NH2+]CC(=O)N2CCCC2)cc1 (nonaromatic ring conformer: 38.023565666868166 kcal/mol)

>  <smiles>  (20) 
COc1ccc(CCNCC(=O)N2CCCC2)cc1

>  <score_type>  (20) 
oracle

>  <origin>  (20) 
adg

>  <m_score__min__energy>  (20) 
-6.6200000000000001

>  <m_primary>  (20) 
energy

$$$$
20:0
     RDKit          3D

 40 43  0  0  0  0  0  0  0  0999 V2000
   -5.6100   19.1200  -34.3510 O   0  0  0  0  0  0  0  0  0  0  0  0
   -4.8350   19.5790  -33.4690 C   0  0  0  0  0  0  0  0  0  0  0  0
   -5.3820   20.1070  -32.2500 N   0  0  0  0  0  0  0  0  0  0  0  0
   -6.7650   20.4680  -32.1210 C   0  0  0  0  0  0  0  0  0  0  0  0
   -7.7320   19.4520  -32.0880 C   0  0  0  0  0  0  0  0  0  0  0  0
   -9.0890   19.7690  -32.0010 C   0  0  0  0  0  0  0  0  0  0  0  0
   -9.4920   21.1040  -31.9350 C   0  0  0  0  0  0  0  0  0  0  0  0
   -8.5400   22.1240  -31.9390 C   0  0  0  0  0  0  0  0  0  0  0  0
   -7.1700   21.8200  -32.0230 C   0  0  0  0  0  0  0  0  0  0  0  0
   -6.2050   22.8840  -31.9240 N   0  0  0  0  0  0  0  0  0  0  0  0
   -4.8200   22.6880  -32.3540 C   0  0  0  0  0  0  0  0  0  0  0  0
   -3.8830   23.1150  -31.2200 C   0  0  0  0  0  0  0  0  0  0  0  0
   -4.1800   24.4320  -30.7900 O   0  0  0  0  0  0  0  0  0  0  0  0
   -5.4810   24.4780  -30.2280 C   0  0  0  0  0  0  0  0  0  0  0  0
   -6.5410   24.1580  -31.2860 C   0  0  0  0  0  0  0  0  0  0  0  0
   -3.3700   19.5500  -33.6950 C   0  0  0  0  0  0  0  0  0  0  0  0
   -2.6950   18.3110  -33.7950 C   0  0  0  0  0  0  0  0  0  0  0  0
   -1.3130   18.2580  -34.0220 C   0  0  0  0  0  0  0  0  0  0  0  0
   -0.5990   19.4460  -34.1590 C   0  0  0  0  0  0  0  0  0  0  0  0
    0.7390   19.4790  -34.3850 N   0  0  0  0  0  0  0  0  0  0  0  0
    0.9790   21.1130  -34.4570 S   0  0  0  0  0  0  0  0  0  0  0  0
   -0.5030   21.8090  -34.2220 N   0  0  0  0  0  0  0  0  0  0  0  0
   -1.2650   20.6980  -34.0710 C   0  0  0  0  0  0  0  0  0  0  0  0
   -2.6410   20.7490  -33.8420 C   0  0  0  0  0  0  0  0  0  0  0  0
   -4.8110   20.0370  -31.3770 H   0  0  0  0  0  0  0  0  0  0  0  0
   -7.4189   18.3984  -32.1310 H   0  0  0  0  0  0  0  0  0  0  0  0
   -9.8410   18.9664  -31.9845 H   0  0  0  0  0  0  0  0  0  0  0  0
  -10.5622   21.3522  -31.8797 H   0  0  0  0  0  0  0  0  0  0  0  0
   -8.8637   23.1734  -31.8760 H   0  0  0  0  0  0  0  0  0  0  0  0
   -4.6535   21.6267  -32.5906 H   0  0  0  0  0  0  0  0  0  0  0  0
   -4.6192   23.2925  -33.2508 H   0  0  0  0  0  0  0  0  0  0  0  0
   -4.0035   22.4235  -30.3731 H   0  0  0  0  0  0  0  0  0  0  0  0
   -2.8476   23.0905  -31.5905 H   0  0  0  0  0  0  0  0  0  0  0  0
   -5.5490   23.7406  -29.4146 H   0  0  0  0  0  0  0  0  0  0  0  0
   -5.6629   25.4916  -29.8414 H   0  0  0  0  0  0  0  0  0  0  0  0
   -7.5288   24.0823  -30.8079 H   0  0  0  0  0  0  0  0  0  0  0  0
   -6.5670   24.9574  -32.0411 H   0  0  0  0  0  0  0  0  0  0  0  0
   -3.2634   17.3748  -33.6930 H   0  0  0  0  0  0  0  0  0  0  0  0
   -0.7978   17.2886  -34.0912 H   0  0  0  0  0  0  0  0  0  0  0  0
   -3.1546   21.7195  -33.7764 H   0  0  0  0  0  0  0  0  0  0  0  0
  1  2  2  0
  2  3  1  0
  3  4  1  0
  4  5  2  0
  5  6  1  0
  6  7  2  0
  7  8  1  0
  8  9  2  0
  9 10  1  0
 10 11  1  0
 11 12  1  0
 12 13  1  0
 13 14  1  0
 14 15  1  0
  2 16  1  0
 16 17  1  0
 17 18  2  0
 18 19  1  0
 19 20  2  0
 20 21  1  0
 21 22  1  0
 22 23  2  0
 23 24  1  0
  9  4  1  0
 15 10  1  0
 24 16  2  0
 23 19  1  0
  3 25  1  0
  5 26  1  0
  6 27  1  0
  7 28  1  0
  8 29  1  0
 11 30  1  0
 11 31  1  0
 12 32  1  0
 12 33  1  0
 14 34  1  0
 14 35  1  0
 15 36  1  0
 15 37  1  0
 17 38  1  0
 18 39  1  0
 24 40  1  0
M  END
>  <UniqueID>  (21) 
20

>  <SMILES>  (21) 
O=C(Nc1ccccc1N1CCOCC1)c1ccc2nsnc2c1

>  <Energy>  (21) 
93.81669564772598

>  <Genealogy>  (21) 
O=C(Nc1ccccc1N1CCOCC1)c1ccc2nsnc2c1 (3D coordinates assigned)
O=C(Nc1ccccc1N1CCOCC1)c1ccc2nsnc2c1 (nonaromatic ring conformer: 93.81669564772598 kcal/mol)

>  <smiles>  (21) 
O=C(Nc1ccccc1N1CCOCC1)c1ccc2nsnc2c1

>  <score_type>  (21) 
oracle

>  <origin>  (21) 
adg

>  <m_score__min__energy>  (21) 
-8.6699999999999999

>  <m_primary>  (21) 
energy

$$$$
21:0
     RDKit          3D

 30 31  0  0  0  0  0  0  0  0999 V2000
   -0.1500   20.3180  -27.9210 C   0  0  0  0  0  0  0  0  0  0  0  0
    0.1150   21.5700  -28.5460 O   0  0  0  0  0  0  0  0  0  0  0  0
   -0.8690   22.4950  -28.9340 C   0  0  0  0  0  0  0  0  0  0  0  0
   -2.0980   22.0830  -29.4730 C   0  0  0  0  0  0  0  0  0  0  0  0
   -3.0550   23.0260  -29.8480 C   0  0  0  0  0  0  0  0  0  0  0  0
   -4.2820   22.6230  -30.3870 C   0  0  0  0  0  0  0  0  0  0  0  0
   -5.2230   23.5850  -30.7550 C   0  0  0  0  0  0  0  0  0  0  0  0
   -6.4890   23.1800  -31.3110 C   0  0  0  0  0  0  0  0  0  0  0  0
   -7.5070   22.8550  -31.7570 N   0  0  0  0  0  0  0  0  0  0  0  0
   -4.9050   24.9380  -30.5700 C   0  0  0  0  0  0  0  0  0  0  0  0
   -5.7270   25.8380  -30.8890 O   0  0  0  0  0  0  0  0  0  0  0  0
   -3.7280   25.2830  -30.0550 O   0  0  0  0  0  0  0  0  0  0  0  0
   -2.7980   24.4050  -29.6890 C   0  0  0  0  0  0  0  0  0  0  0  0
   -1.5600   24.8360  -29.1450 C   0  0  0  0  0  0  0  0  0  0  0  0
   -1.2510   26.1980  -28.9630 O   0  0  0  0  0  0  0  0  0  0  0  0
   -0.8160   26.8280  -27.7630 C   0  0  0  0  0  0  0  0  0  0  0  0
   -0.5940   23.8620  -28.7670 C   0  0  0  0  0  0  0  0  0  0  0  0
    0.6630   24.1780  -28.2180 O   0  0  0  0  0  0  0  0  0  0  0  0
    1.0940   23.9590  -26.8780 C   0  0  0  0  0  0  0  0  0  0  0  0
   -0.1240   20.4409  -26.8282 H   0  0  0  0  0  0  0  0  0  0  0  0
   -1.1440   19.9590  -28.2260 H   0  0  0  0  0  0  0  0  0  0  0  0
    0.6133   19.5871  -28.2260 H   0  0  0  0  0  0  0  0  0  0  0  0
   -2.3075   21.0107  -29.6003 H   0  0  0  0  0  0  0  0  0  0  0  0
   -4.5033   21.5537  -30.5198 H   0  0  0  0  0  0  0  0  0  0  0  0
   -1.2007   26.2708  -26.8961 H   0  0  0  0  0  0  0  0  0  0  0  0
    0.2835   26.8397  -27.7328 H   0  0  0  0  0  0  0  0  0  0  0  0
   -1.1946   27.8603  -27.7328 H   0  0  0  0  0  0  0  0  0  0  0  0
    0.3352   24.3445  -26.1811 H   0  0  0  0  0  0  0  0  0  0  0  0
    1.2329   22.8810  -26.7091 H   0  0  0  0  0  0  0  0  0  0  0  0
    2.0466   24.4824  -26.7091 H   0  0  0  0  0  0  0  0  0  0  0  0
  1  2  1  0
  2  3  1  0
  3  4  2  0
  4  5  1  0
  5  6  1  0
  6  7  2  0
  7  8  1  0
  8  9  3  0
  7 10  1  0
 10 11  2  0
 10 12  1  0
 12 13  1  0
 13 14  1  0
 14 15  1  0
 15 16  1  0
 14 17  2  0
 17 18  1  0
 18 19  1  0
 17  3  1  0
 13  5  2  0
  1 20  1  0
  1 21  1  0
  1 22  1  0
  4 23  1  0
  6 24  1  0
 16 25  1  0
 16 26  1  0
 16 27  1  0
 19 28  1  0
 19 29  1  0
 19 30  1  0
M  END
>  <UniqueID>  (22) 
21

>  <SMILES>  (22) 
COc1cc2cc(C#N)c(=O)oc2c(OC)c1OC

>  <Energy>  (22) 
39.03729229730475

>  <Genealogy>  (22) 
COc1cc2cc(C#N)c(=O)oc2c(OC)c1OC (3D coordinates assigned)
COc1cc2cc(C#N)c(=O)oc2c(OC)c1OC (optimized conformer: 39.03729229730475 kcal/mol)

>  <smiles>  (22) 
COc1cc2cc(C#N)c(=O)oc2c(OC)c1OC

>  <score_type>  (22) 
oracle

>  <origin>  (22) 
adg

>  <m_score__min__energy>  (22) 
-6.0300000000000002

>  <m_primary>  (22) 
energy

$$$$
22:0
     RDKit          3D

 34 35  0  0  0  0  0  0  0  0999 V2000
   -2.9130   22.3660  -31.5930 C   0  0  0  0  0  0  0  0  0  0  0  0
   -4.3260   22.7850  -31.2890 C   0  0  0  0  0  0  0  0  0  0  0  0
   -5.3910   21.9330  -31.6190 C   0  0  0  0  0  0  0  0  0  0  0  0
   -6.7060   22.3150  -31.3580 C   0  0  0  0  0  0  0  0  0  0  0  0
   -6.9730   23.5410  -30.7490 C   0  0  0  0  0  0  0  0  0  0  0  0
   -5.9260   24.4080  -30.4040 C   0  0  0  0  0  0  0  0  0  0  0  0
   -6.2620   25.7060  -29.7160 C   0  0  0  0  0  0  0  0  0  0  0  0
   -4.5950   24.0490  -30.7210 C   0  0  0  0  0  0  0  0  0  0  0  0
   -3.5070   24.9420  -30.4450 N   0  0  0  0  0  0  0  0  0  0  0  0
   -2.6830   24.8810  -29.2730 C   0  0  0  0  0  0  0  0  0  0  0  0
   -1.5720   25.4720  -29.2820 O   0  0  0  0  0  0  0  0  0  0  0  0
   -3.1250   24.1720  -28.0190 C   0  0  0  0  0  0  0  0  0  0  0  0
   -2.4930   22.8100  -27.9130 C   0  0  0  0  0  0  0  0  0  0  0  0
   -3.2930   21.6540  -27.8670 C   0  0  0  0  0  0  0  0  0  0  0  0
   -2.7020   20.3940  -27.7350 C   0  0  0  0  0  0  0  0  0  0  0  0
   -1.3110   20.2750  -27.6590 C   0  0  0  0  0  0  0  0  0  0  0  0
   -0.5090   18.5530  -27.4700 Br  0  0  0  0  0  0  0  0  0  0  0  0
   -0.5090   21.4190  -27.7200 C   0  0  0  0  0  0  0  0  0  0  0  0
   -1.0960   22.6820  -27.8470 C   0  0  0  0  0  0  0  0  0  0  0  0
   -2.3679   22.2043  -30.6514 H   0  0  0  0  0  0  0  0  0  0  0  0
   -2.9245   21.4326  -32.1749 H   0  0  0  0  0  0  0  0  0  0  0  0
   -2.4138   23.1548  -32.1749 H   0  0  0  0  0  0  0  0  0  0  0  0
   -5.1871   20.9583  -32.0862 H   0  0  0  0  0  0  0  0  0  0  0  0
   -7.5357   21.6473  -31.6332 H   0  0  0  0  0  0  0  0  0  0  0  0
   -8.0130   23.8302  -30.5376 H   0  0  0  0  0  0  0  0  0  0  0  0
   -6.2251   25.5634  -28.6259 H   0  0  0  0  0  0  0  0  0  0  0  0
   -5.5336   26.4761  -30.0100 H   0  0  0  0  0  0  0  0  0  0  0  0
   -7.2726   26.0259  -30.0100 H   0  0  0  0  0  0  0  0  0  0  0  0
   -2.8324   24.7725  -27.1451 H   0  0  0  0  0  0  0  0  0  0  0  0
   -4.2173   24.0476  -28.0555 H   0  0  0  0  0  0  0  0  0  0  0  0
   -4.3874   21.7417  -27.9351 H   0  0  0  0  0  0  0  0  0  0  0  0
   -3.3329   19.4940  -27.6908 H   0  0  0  0  0  0  0  0  0  0  0  0
    0.5858   21.3253  -27.6680 H   0  0  0  0  0  0  0  0  0  0  0  0
   -0.4609   23.5788  -27.8954 H   0  0  0  0  0  0  0  0  0  0  0  0
  1  2  1  0
  2  3  2  0
  3  4  1  0
  4  5  2  0
  5  6  1  0
  6  7  1  0
  6  8  2  0
  8  9  1  0
  9 10  1  0
 10 11  2  0
 10 12  1  0
 12 13  1  0
 13 14  2  0
 14 15  1  0
 15 16  2  0
 16 17  1  0
 16 18  1  0
 18 19  2  0
  8  2  1  0
 19 13  1  0
  1 20  1  0
  1 21  1  0
  1 22  1  0
  3 23  1  0
  4 24  1  0
  5 25  1  0
  7 26  1  0
  7 27  1  0
  7 28  1  0
 12 29  1  0
 12 30  1  0
 14 31  1  0
 15 32  1  0
 18 33  1  0
 19 34  1  0
M  CHG  1   9  -1
M  END
>  <UniqueID>  (23) 
22

>  <SMILES>  (23) 
Cc1cccc(C)c1[N-]C(=O)Cc1ccc(Br)cc1

>  <Energy>  (23) 
37.37298953715147

>  <Genealogy>  (23) 
Cc1cccc(C)c1[N-]C(=O)Cc1ccc(Br)cc1 (protonated)
Cc1cccc(C)c1[N-]C(=O)Cc1ccc(Br)cc1 (3D coordinates assigned)
Cc1cccc(C)c1[N-]C(=O)Cc1ccc(Br)cc1 (optimized conformer: 37.37298953715147 kcal/mol)

>  <smiles>  (23) 
Cc1cccc(C)c1NC(=O)Cc1ccc(Br)cc1

>  <score_type>  (23) 
oracle

>  <origin>  (23) 
adg

>  <m_score__min__energy>  (23) 
-9.1500000000000004

>  <m_primary>  (23) 
energy

$$$$
23:0
     RDKit          3D

 38 40  0  0  0  0  0  0  0  0999 V2000
   -5.7420   26.0490  -30.1320 C   0  0  0  0  0  0  0  0  0  0  0  0
   -4.5610   25.5730  -30.7700 O   0  0  0  0  0  0  0  0  0  0  0  0
   -4.1560   24.2270  -30.8000 C   0  0  0  0  0  0  0  0  0  0  0  0
   -4.8590   23.2580  -31.5340 C   0  0  0  0  0  0  0  0  0  0  0  0
   -4.4410   21.9220  -31.5380 C   0  0  0  0  0  0  0  0  0  0  0  0
   -5.1710   20.8960  -32.3200 C   0  0  0  0  0  0  0  0  0  0  0  0
   -4.4520   19.9990  -33.0520 N   0  0  0  0  0  0  0  0  0  0  0  0
   -5.0400   19.0290  -33.8020 C   0  0  0  0  0  0  0  0  0  0  0  0
   -6.4300   18.9190  -33.8420 C   0  0  0  0  0  0  0  0  0  0  0  0
   -7.2090   19.8080  -33.0930 C   0  0  0  0  0  0  0  0  0  0  0  0
   -8.5700   19.7150  -33.0870 N   0  0  0  0  0  0  0  0  0  0  0  0
   -9.3250   20.5630  -32.3380 C   0  0  0  0  0  0  0  0  0  0  0  0
   -8.7020   21.5380  -31.5580 C   0  0  0  0  0  0  0  0  0  0  0  0
   -7.3480   21.6370  -31.5630 N   0  0  0  0  0  0  0  0  0  0  0  0
   -6.5800   20.8060  -32.3180 C   0  0  0  0  0  0  0  0  0  0  0  0
   -3.2890   21.5640  -30.8290 C   0  0  0  0  0  0  0  0  0  0  0  0
   -2.5650   22.5180  -30.0880 C   0  0  0  0  0  0  0  0  0  0  0  0
   -1.4160   22.1500  -29.3710 O   0  0  0  0  0  0  0  0  0  0  0  0
   -1.3360   21.0640  -28.4530 C   0  0  0  0  0  0  0  0  0  0  0  0
   -3.0100   23.8650  -30.0730 C   0  0  0  0  0  0  0  0  0  0  0  0
   -2.3630   24.8940  -29.3600 O   0  0  0  0  0  0  0  0  0  0  0  0
   -2.0010   24.8760  -27.9840 C   0  0  0  0  0  0  0  0  0  0  0  0
   -5.6151   25.9979  -29.0405 H   0  0  0  0  0  0  0  0  0  0  0  0
   -5.9258   27.0914  -30.4314 H   0  0  0  0  0  0  0  0  0  0  0  0
   -6.5973   25.4254  -30.4314 H   0  0  0  0  0  0  0  0  0  0  0  0
   -5.7476   23.5519  -32.1120 H   0  0  0  0  0  0  0  0  0  0  0  0
   -4.4177   18.3290  -34.3788 H   0  0  0  0  0  0  0  0  0  0  0  0
   -6.9087   18.1417  -34.4558 H   0  0  0  0  0  0  0  0  0  0  0  0
   -9.0520   18.9840  -33.6580 H   0  0  0  0  0  0  0  0  0  0  0  0
  -10.4219   20.4806  -32.3471 H   0  0  0  0  0  0  0  0  0  0  0  0
   -9.3044   22.2224  -30.9427 H   0  0  0  0  0  0  0  0  0  0  0  0
   -2.9431   20.5200  -30.8508 H   0  0  0  0  0  0  0  0  0  0  0  0
   -1.3645   21.4511  -27.4237 H   0  0  0  0  0  0  0  0  0  0  0  0
   -2.1866   20.3851  -28.6131 H   0  0  0  0  0  0  0  0  0  0  0  0
   -0.3951   20.5171  -28.6131 H   0  0  0  0  0  0  0  0  0  0  0  0
   -2.9094   24.9212  -27.3653 H   0  0  0  0  0  0  0  0  0  0  0  0
   -1.4515   23.9494  -27.7615 H   0  0  0  0  0  0  0  0  0  0  0  0
   -1.3623   25.7435  -27.7615 H   0  0  0  0  0  0  0  0  0  0  0  0
  1  2  1  0
  2  3  1  0
  3  4  2  0
  4  5  1  0
  5  6  1  0
  6  7  2  0
  7  8  1  0
  8  9  2  0
  9 10  1  0
 10 11  2  0
 11 12  1  0
 12 13  2  0
 13 14  1  0
 14 15  2  0
  5 16  2  0
 16 17  1  0
 17 18  1  0
 18 19  1  0
 17 20  2  0
 20 21  1  0
 21 22  1  0
 20  3  1  0
 15  6  1  0
 15 10  1  0
  1 23  1  0
  1 24  1  0
  1 25  1  0
  4 26  1  0
  8 27  1  0
  9 28  1  0
 11 29  1  0
 12 30  1  0
 13 31  1  0
 16 32  1  0
 19 33  1  0
 19 34  1  0
 19 35  1  0
 22 36  1  0
 22 37  1  0
 22 38  1  0
M  CHG  1  11   1
M  END
>  <UniqueID>  (24) 
23

>  <SMILES>  (24) 
COc1cc(-c2nccc3[nH+]ccnc23)cc(OC)c1OC

>  <Energy>  (24) 
52.471802008808105

>  <Genealogy>  (24) 
COc1cc(-c2nccc3[nH+]ccnc23)cc(OC)c1OC (protonated)
COc1cc(-c2nccc3[nH+]ccnc23)cc(OC)c1OC (3D coordinates assigned)
COc1cc(-c2nccc3[nH+]ccnc23)cc(OC)c1OC (optimized conformer: 52.471802008808105 kcal/mol)

>  <smiles>  (24) 
COc1cc(-c2nccc3nccnc23)cc(OC)c1OC

>  <score_type>  (24) 
oracle

>  <origin>  (24) 
adg

>  <m_score__min__energy>  (24) 
-7.2199999999999998

>  <m_primary>  (24) 
energy

$$$$
24:0
     RDKit          3D

 51 54  0  0  0  0  0  0  0  0999 V2000
   -4.9910   23.2430  -32.6990 O   0  0  0  0  0  0  0  0  0  0  0  0
   -4.2330   22.2520  -32.5310 C   0  0  0  0  0  0  0  0  0  0  0  0
   -2.9610   22.3360  -31.9940 O   0  0  0  0  0  0  0  0  0  0  0  0
   -2.4110   21.0580  -32.0580 C   0  0  0  0  0  0  0  0  0  0  0  0
   -1.0390   20.7330  -31.5550 C   0  0  0  0  0  0  0  0  0  0  0  0
   -0.5520   21.7920  -30.7360 O   0  0  0  0  0  0  0  0  0  0  0  0
   -1.0910   22.1070  -29.4810 C   0  0  0  0  0  0  0  0  0  0  0  0
   -1.2610   23.3140  -29.1510 O   0  0  0  0  0  0  0  0  0  0  0  0
   -1.4620   21.0230  -28.5470 C   0  0  0  0  0  0  0  0  0  0  0  0
   -0.5340   20.0220  -28.2010 C   0  0  0  0  0  0  0  0  0  0  0  0
   -0.8930   18.9990  -27.3170 C   0  0  0  0  0  0  0  0  0  0  0  0
   -2.1780   18.9640  -26.7720 C   0  0  0  0  0  0  0  0  0  0  0  0
   -3.1070   19.9510  -27.1070 C   0  0  0  0  0  0  0  0  0  0  0  0
   -2.7530   20.9760  -27.9900 C   0  0  0  0  0  0  0  0  0  0  0  0
   -3.2540   20.1740  -32.5960 C   0  0  0  0  0  0  0  0  0  0  0  0
   -4.4930   20.8730  -32.9280 C   0  0  0  0  0  0  0  0  0  0  0  0
   -5.5650   20.3280  -33.5170 C   0  0  0  0  0  0  0  0  0  0  0  0
   -6.7180   19.7690  -32.7840 C   0  0  0  0  0  0  0  0  0  0  0  0
   -6.8800   18.3770  -32.6690 C   0  0  0  0  0  0  0  0  0  0  0  0
   -7.9940   17.8480  -32.0140 C   0  0  0  0  0  0  0  0  0  0  0  0
   -8.9640   18.6990  -31.4870 C   0  0  0  0  0  0  0  0  0  0  0  0
   -8.8290   20.0830  -31.6190 C   0  0  0  0  0  0  0  0  0  0  0  0
   -7.7090   20.6310  -32.2750 C   0  0  0  0  0  0  0  0  0  0  0  0
   -7.5450   22.0170  -32.4300 O   0  0  0  0  0  0  0  0  0  0  0  0
   -8.0300   22.9990  -31.5200 C   0  0  0  0  0  0  0  0  0  0  0  0
   -6.8830   23.5270  -30.7100 C   0  0  0  0  0  0  0  0  0  0  0  0
   -6.1560   22.6660  -29.8700 C   0  0  0  0  0  0  0  0  0  0  0  0
   -5.0600   23.1490  -29.1480 C   0  0  0  0  0  0  0  0  0  0  0  0
   -4.6760   24.4870  -29.2690 C   0  0  0  0  0  0  0  0  0  0  0  0
   -5.3840   25.3440  -30.1160 C   0  0  0  0  0  0  0  0  0  0  0  0
   -6.4800   24.8650  -30.8400 C   0  0  0  0  0  0  0  0  0  0  0  0
   -1.0786   19.8057  -30.9646 H   0  0  0  0  0  0  0  0  0  0  0  0
   -0.3633   20.6030  -32.4132 H   0  0  0  0  0  0  0  0  0  0  0  0
    0.4793   20.0446  -28.6284 H   0  0  0  0  0  0  0  0  0  0  0  0
   -0.1621   18.2212  -27.0509 H   0  0  0  0  0  0  0  0  0  0  0  0
   -2.4587   18.1580  -26.0780 H   0  0  0  0  0  0  0  0  0  0  0  0
   -4.1186   19.9223  -26.6758 H   0  0  0  0  0  0  0  0  0  0  0  0
   -3.4890   21.7508  -28.2508 H   0  0  0  0  0  0  0  0  0  0  0  0
   -3.0511   19.1055  -32.7607 H   0  0  0  0  0  0  0  0  0  0  0  0
   -5.5879   20.2948  -34.6163 H   0  0  0  0  0  0  0  0  0  0  0  0
   -6.1252   17.7012  -33.0973 H   0  0  0  0  0  0  0  0  0  0  0  0
   -8.1062   16.7583  -31.9138 H   0  0  0  0  0  0  0  0  0  0  0  0
   -9.8375   18.2799  -30.9661 H   0  0  0  0  0  0  0  0  0  0  0  0
   -9.6019   20.7492  -31.2082 H   0  0  0  0  0  0  0  0  0  0  0  0
   -8.4950   23.8231  -32.0809 H   0  0  0  0  0  0  0  0  0  0  0  0
   -8.7785   22.5476  -30.8521 H   0  0  0  0  0  0  0  0  0  0  0  0
   -6.4498   21.6098  -29.7803 H   0  0  0  0  0  0  0  0  0  0  0  0
   -4.4995   22.4746  -28.4839 H   0  0  0  0  0  0  0  0  0  0  0  0
   -3.8160   24.8660  -28.6973 H   0  0  0  0  0  0  0  0  0  0  0  0
   -5.0787   26.3963  -30.2131 H   0  0  0  0  0  0  0  0  0  0  0  0
   -7.0285   25.5394  -31.5140 H   0  0  0  0  0  0  0  0  0  0  0  0
  1  2  2  0
  2  3  1  0
  3  4  1  0
  4  5  1  0
  5  6  1  0
  6  7  1  0
  7  8  2  0
  7  9  1  0
  9 10  2  0
 10 11  1  0
 11 12  2  0
 12 13  1  0
 13 14  2  0
  4 15  2  0
 15 16  1  0
 16 17  2  3
 17 18  1  0
 18 19  2  0
 19 20  1  0
 20 21  2  0
 21 22  1  0
 22 23  2  0
 23 24  1  0
 24 25  1  0
 25 26  1  0
 26 27  2  0
 27 28  1  0
 28 29  2  0
 29 30  1  0
 30 31  2  0
 16  2  1  0
 23 18  1  0
 31 26  1  0
 14  9  1  0
  5 32  1  0
  5 33  1  0
 10 34  1  0
 11 35  1  0
 12 36  1  0
 13 37  1  0
 14 38  1  0
 15 39  1  0
 17 40  1  0
 19 41  1  0
 20 42  1  0
 21 43  1  0
 22 44  1  0
 25 45  1  0
 25 46  1  0
 27 47  1  0
 28 48  1  0
 29 49  1  0
 30 50  1  0
 31 51  1  0
M  END
>  <UniqueID>  (25) 
24

>  <SMILES>  (25) 
O=C1OC(COC(=O)c2ccccc2)=CC1=Cc1ccccc1OCc1ccccc1

>  <Energy>  (25) 
85.43071185236754

>  <Genealogy>  (25) 
O=C1OC(COC(=O)c2ccccc2)=CC1=Cc1ccccc1OCc1ccccc1 (3D coordinates assigned)
O=C1OC(COC(=O)c2ccccc2)=CC1=Cc1ccccc1OCc1ccccc1 (nonaromatic ring conformer: 85.43071185236754 kcal/mol)

>  <smiles>  (25) 
O=C1OC(COC(=O)c2ccccc2)=CC1=Cc1ccccc1OCc1ccccc1

>  <score_type>  (25) 
oracle

>  <origin>  (25) 
adg

>  <m_score__min__energy>  (25) 
-10.56

>  <m_primary>  (25) 
energy

$$$$
25:0
     RDKit          3D

 49 51  0  0  0  0  0  0  0  0999 V2000
   -0.6120   26.1810  -23.7860 C   0  0  0  0  0  0  0  0  0  0  0  0
   -1.0630   26.7590  -25.0070 O   0  0  0  0  0  0  0  0  0  0  0  0
   -1.5380   26.0220  -26.1030 C   0  0  0  0  0  0  0  0  0  0  0  0
   -0.8640   25.9820  -27.3360 C   0  0  0  0  0  0  0  0  0  0  0  0
   -1.3770   25.2330  -28.3980 C   0  0  0  0  0  0  0  0  0  0  0  0
   -2.5770   24.5110  -28.2540 C   0  0  0  0  0  0  0  0  0  0  0  0
   -3.1150   23.7170  -29.3890 C   0  0  0  0  0  0  0  0  0  0  0  0
   -2.5350   22.5780  -29.9600 C   0  0  0  0  0  0  0  0  0  0  0  0
   -3.2870   22.0530  -31.0190 C   0  0  0  0  0  0  0  0  0  0  0  0
   -2.9550   20.9270  -31.7700 C   0  0  0  0  0  0  0  0  0  0  0  0
   -3.8090   20.5130  -32.8060 C   0  0  0  0  0  0  0  0  0  0  0  0
   -3.4460   19.3760  -33.5430 O   0  0  0  0  0  0  0  0  0  0  0  0
   -4.3720   18.4800  -34.1510 C   0  0  0  0  0  0  0  0  0  0  0  0
   -4.9940   21.2430  -33.0730 C   0  0  0  0  0  0  0  0  0  0  0  0
   -5.3310   22.3850  -32.3110 C   0  0  0  0  0  0  0  0  0  0  0  0
   -6.5300   23.1450  -32.5600 N   0  0  0  0  0  0  0  0  0  0  0  0
   -7.6470   23.2110  -31.6150 C   0  0  0  0  0  0  0  0  0  0  0  0
   -7.6300   22.0220  -30.6450 C   0  0  0  0  0  0  0  0  0  0  0  0
   -8.5810   20.9710  -31.0730 N   0  0  0  0  0  0  0  0  0  0  0  0
   -7.8650   19.8910  -31.7710 C   0  0  0  0  0  0  0  0  0  0  0  0
   -9.6200   21.5220  -31.9600 C   0  0  0  0  0  0  0  0  0  0  0  0
   -4.4500   22.7590  -31.2880 C   0  0  0  0  0  0  0  0  0  0  0  0
   -4.5590   24.0470  -30.2140 S   0  0  0  0  0  0  0  0  0  0  0  0
   -3.2440   24.5540  -27.0160 C   0  0  0  0  0  0  0  0  0  0  0  0
   -2.7280   25.3030  -25.9550 C   0  0  0  0  0  0  0  0  0  0  0  0
   -1.0429   26.7332  -22.9378 H   0  0  0  0  0  0  0  0  0  0  0  0
   -0.9305   25.1292  -23.7386 H   0  0  0  0  0  0  0  0  0  0  0  0
    0.4857   26.2342  -23.7386 H   0  0  0  0  0  0  0  0  0  0  0  0
    0.0729   26.5437  -27.4654 H   0  0  0  0  0  0  0  0  0  0  0  0
   -0.8378   25.2072  -29.3564 H   0  0  0  0  0  0  0  0  0  0  0  0
   -1.5872   22.1406  -29.6131 H   0  0  0  0  0  0  0  0  0  0  0  0
   -2.0329   20.3676  -31.5537 H   0  0  0  0  0  0  0  0  0  0  0  0
   -4.9284   17.9417  -33.3696 H   0  0  0  0  0  0  0  0  0  0  0  0
   -5.0758   19.0487  -34.7764 H   0  0  0  0  0  0  0  0  0  0  0  0
   -3.8267   17.7578  -34.7764 H   0  0  0  0  0  0  0  0  0  0  0  0
   -5.6609   20.9164  -33.8845 H   0  0  0  0  0  0  0  0  0  0  0  0
   -6.6070   23.6700  -33.4610 H   0  0  0  0  0  0  0  0  0  0  0  0
   -7.5732   24.1447  -31.0382 H   0  0  0  0  0  0  0  0  0  0  0  0
   -8.5865   23.1787  -32.1863 H   0  0  0  0  0  0  0  0  0  0  0  0
   -6.6156   21.5977  -30.6145 H   0  0  0  0  0  0  0  0  0  0  0  0
   -7.9297   22.3796  -29.6489 H   0  0  0  0  0  0  0  0  0  0  0  0
   -7.4149   19.2120  -31.0318 H   0  0  0  0  0  0  0  0  0  0  0  0
   -8.5711   19.3306  -32.4014 H   0  0  0  0  0  0  0  0  0  0  0  0
   -7.0739   20.3232  -32.4014 H   0  0  0  0  0  0  0  0  0  0  0  0
  -10.4303   21.9517  -31.3528 H   0  0  0  0  0  0  0  0  0  0  0  0
   -9.1820   22.3063  -32.5948 H   0  0  0  0  0  0  0  0  0  0  0  0
  -10.0236   20.7194  -32.5948 H   0  0  0  0  0  0  0  0  0  0  0  0
   -4.1805   23.9928  -26.8819 H   0  0  0  0  0  0  0  0  0  0  0  0
   -3.2632   25.3271  -24.9943 H   0  0  0  0  0  0  0  0  0  0  0  0
  1  2  1  0
  2  3  1  0
  3  4  2  0
  4  5  1  0
  5  6  2  0
  6  7  1  0
  7  8  2  0
  8  9  1  0
  9 10  2  0
 10 11  1  0
 11 12  1  0
 12 13  1  0
 11 14  2  0
 14 15  1  0
 15 16  1  0
 16 17  1  0
 17 18  1  0
 18 19  1  0
 19 20  1  0
 19 21  1  0
 15 22  2  0
 22 23  1  0
  6 24  1  0
 24 25  2  0
 25  3  1  0
 23  7  1  0
 22  9  1  0
  1 26  1  0
  1 27  1  0
  1 28  1  0
  4 29  1  0
  5 30  1  0
  8 31  1  0
 10 32  1  0
 13 33  1  0
 13 34  1  0
 13 35  1  0
 14 36  1  0
 16 37  1  0
 17 38  1  0
 17 39  1  0
 18 40  1  0
 18 41  1  0
 20 42  1  0
 20 43  1  0
 20 44  1  0
 21 45  1  0
 21 46  1  0
 21 47  1  0
 24 48  1  0
 25 49  1  0
M  END
>  <UniqueID>  (26) 
25

>  <SMILES>  (26) 
COc1ccc(-c2cc3cc(OC)cc(NCCN(C)C)c3s2)cc1

>  <Energy>  (26) 
81.0293539896778

>  <Genealogy>  (26) 
COc1ccc(-c2cc3cc(OC)cc(NCCN(C)C)c3s2)cc1 (3D coordinates assigned)
COc1ccc(-c2cc3cc(OC)cc(NCCN(C)C)c3s2)cc1 (optimized conformer: 81.0293539896778 kcal/mol)

>  <smiles>  (26) 
COc1ccc(-c2cc3cc(OC)cc(NCCN(C)C)c3s2)cc1

>  <score_type>  (26) 
oracle

>  <origin>  (26) 
adg

>  <m_score__min__energy>  (26) 
-7.3099999999999996

>  <m_primary>  (26) 
energy

$$$$
26:0
     RDKit          3D

 46 48  0  0  0  0  0  0  0  0999 V2000
   -2.4150   21.9110  -31.6830 C   0  0  0  0  0  0  0  0  0  0  0  0
   -3.7250   22.3220  -30.9930 C   0  0  0  0  0  0  0  0  0  0  0  0
   -3.8130   23.7650  -30.6540 N   0  0  0  0  0  0  0  0  0  0  0  0
   -2.8120   24.1750  -29.6430 C   0  0  0  0  0  0  0  0  0  0  0  0
   -3.4250   24.1380  -28.2450 C   0  0  0  0  0  0  0  0  0  0  0  0
   -5.1810   24.2210  -30.3120 C   0  0  0  0  0  0  0  0  0  0  0  0
   -6.0090   24.5140  -31.5710 C   0  0  0  0  0  0  0  0  0  0  0  0
   -6.1260   23.3260  -32.4200 N   0  0  0  0  0  0  0  0  0  0  0  0
   -7.1950   22.3770  -32.2620 C   0  0  0  0  0  0  0  0  0  0  0  0
   -8.4590   22.8340  -31.8510 C   0  0  0  0  0  0  0  0  0  0  0  0
   -9.4880   21.9360  -31.5850 C   0  0  0  0  0  0  0  0  0  0  0  0
   -9.2720   20.5670  -31.7080 C   0  0  0  0  0  0  0  0  0  0  0  0
   -8.0240   20.0760  -32.1280 C   0  0  0  0  0  0  0  0  0  0  0  0
   -6.9800   20.9810  -32.4410 C   0  0  0  0  0  0  0  0  0  0  0  0
   -5.7060   20.4350  -32.9990 C   0  0  0  0  0  0  0  0  0  0  0  0
   -4.8530   21.2010  -33.5250 O   0  0  0  0  0  0  0  0  0  0  0  0
   -5.4560   18.9750  -33.0010 C   0  0  0  0  0  0  0  0  0  0  0  0
   -4.2030   18.4620  -33.3900 C   0  0  0  0  0  0  0  0  0  0  0  0
   -3.9750   17.0850  -33.4040 C   0  0  0  0  0  0  0  0  0  0  0  0
   -4.9910   16.2040  -33.0350 C   0  0  0  0  0  0  0  0  0  0  0  0
   -6.2410   16.6970  -32.6500 C   0  0  0  0  0  0  0  0  0  0  0  0
   -6.4830   18.0830  -32.6290 C   0  0  0  0  0  0  0  0  0  0  0  0
   -7.8050   18.6130  -32.2310 C   0  0  0  0  0  0  0  0  0  0  0  0
   -8.7470   17.8140  -31.9680 O   0  0  0  0  0  0  0  0  0  0  0  0
   -1.6581   21.6735  -30.9210 H   0  0  0  0  0  0  0  0  0  0  0  0
   -2.5934   21.0257  -32.3110 H   0  0  0  0  0  0  0  0  0  0  0  0
   -2.0557   22.7396  -32.3110 H   0  0  0  0  0  0  0  0  0  0  0  0
   -4.5601   22.0749  -31.6650 H   0  0  0  0  0  0  0  0  0  0  0  0
   -3.7641   21.7728  -30.0407 H   0  0  0  0  0  0  0  0  0  0  0  0
   -1.9545   23.4871  -29.6816 H   0  0  0  0  0  0  0  0  0  0  0  0
   -2.4819   25.2012  -29.8619 H   0  0  0  0  0  0  0  0  0  0  0  0
   -2.6244   24.1863  -27.4922 H   0  0  0  0  0  0  0  0  0  0  0  0
   -4.1002   24.9970  -28.1178 H   0  0  0  0  0  0  0  0  0  0  0  0
   -3.9920   23.2040  -28.1178 H   0  0  0  0  0  0  0  0  0  0  0  0
   -5.6839   23.4357  -29.7285 H   0  0  0  0  0  0  0  0  0  0  0  0
   -5.0988   25.1506  -29.7296 H   0  0  0  0  0  0  0  0  0  0  0  0
   -7.0156   24.8397  -31.2700 H   0  0  0  0  0  0  0  0  0  0  0  0
   -5.5002   25.3022  -32.1453 H   0  0  0  0  0  0  0  0  0  0  0  0
   -5.4250   23.1640  -33.1770 H   0  0  0  0  0  0  0  0  0  0  0  0
   -8.6367   23.9137  -31.7384 H   0  0  0  0  0  0  0  0  0  0  0  0
  -10.4755   22.3096  -31.2764 H   0  0  0  0  0  0  0  0  0  0  0  0
  -10.0846   19.8633  -31.4746 H   0  0  0  0  0  0  0  0  0  0  0  0
   -3.3984   19.1517  -33.6849 H   0  0  0  0  0  0  0  0  0  0  0  0
   -2.9923   16.6942  -33.7066 H   0  0  0  0  0  0  0  0  0  0  0  0
   -4.8084   15.1193  -33.0469 H   0  0  0  0  0  0  0  0  0  0  0  0
   -7.0398   15.9978  -32.3619 H   0  0  0  0  0  0  0  0  0  0  0  0
  1  2  1  0
  2  3  1  0
  3  4  1  0
  4  5  1  0
  3  6  1  0
  6  7  1  0
  7  8  1  0
  8  9  1  0
  9 10  2  0
 10 11  1  0
 11 12  2  0
 12 13  1  0
 13 14  2  0
 14 15  1  0
 15 16  2  0
 15 17  1  0
 17 18  2  0
 18 19  1  0
 19 20  2  0
 20 21  1  0
 21 22  2  0
 22 23  1  0
 23 24  2  0
 14  9  1  0
 22 17  1  0
 23 13  1  0
  1 25  1  0
  1 26  1  0
  1 27  1  0
  2 28  1  0
  2 29  1  0
  4 30  1  0
  4 31  1  0
  5 32  1  0
  5 33  1  0
  5 34  1  0
  6 35  1  0
  6 36  1  0
  7 37  1  0
  7 38  1  0
  8 39  1  0
 10 40  1  0
 11 41  1  0
 12 42  1  0
 18 43  1  0
 19 44  1  0
 20 45  1  0
 21 46  1  0
M  END
>  <UniqueID>  (27) 
26

>  <SMILES>  (27) 
CCN(CC)CCNc1cccc2c1C(=O)c1ccccc1C2=O

>  <Energy>  (27) 
58.49850722551982

>  <Genealogy>  (27) 
CCN(CC)CCNc1cccc2c1C(=O)c1ccccc1C2=O (3D coordinates assigned)
CCN(CC)CCNc1cccc2c1C(=O)c1ccccc1C2=O (nonaromatic ring conformer: 58.49850722551982 kcal/mol)

>  <smiles>  (27) 
CCN(CC)CCNc1cccc2c1C(=O)c1ccccc1C2=O

>  <score_type>  (27) 
oracle

>  <origin>  (27) 
adg

>  <m_score__min__energy>  (27) 
-8.8699999999999992

>  <m_primary>  (27) 
energy

$$$$
27:0
     RDKit          3D

 68 70  0  0  0  0  0  0  0  0999 V2000
    0.9640   30.6750  -35.1170 C   0  0  0  0  0  0  0  0  0  0  0  0
    1.4740   29.3560  -35.2840 O   0  0  0  0  0  0  0  0  0  0  0  0
    0.8400   28.3480  -36.0260 C   0  0  0  0  0  0  0  0  0  0  0  0
   -0.1860   28.7170  -36.9020 C   0  0  0  0  0  0  0  0  0  0  0  0
   -0.8500   27.7510  -37.6600 C   0  0  0  0  0  0  0  0  0  0  0  0
   -0.4930   26.4050  -37.5530 C   0  0  0  0  0  0  0  0  0  0  0  0
    0.5420   26.0100  -36.6870 C   0  0  0  0  0  0  0  0  0  0  0  0
    0.9230   24.5820  -36.5600 C   0  0  0  0  0  0  0  0  0  0  0  0
    2.1120   24.2340  -36.7960 O   0  0  0  0  0  0  0  0  0  0  0  0
   -0.0560   23.5870  -36.2190 N   0  0  0  0  0  0  0  0  0  0  0  0
    0.2710   22.2900  -35.6900 C   0  0  0  0  0  0  0  0  0  0  0  0
    1.1190   21.4420  -36.4190 C   0  0  0  0  0  0  0  0  0  0  0  0
    1.4290   20.1680  -35.9400 C   0  0  0  0  0  0  0  0  0  0  0  0
    0.8860   19.7210  -34.7330 C   0  0  0  0  0  0  0  0  0  0  0  0
    0.0240   20.5480  -33.9970 C   0  0  0  0  0  0  0  0  0  0  0  0
   -0.5870   20.0420  -32.7180 C   0  0  0  0  0  0  0  0  0  0  0  0
   -1.2680   21.1410  -32.0030 N   0  0  0  0  0  0  0  0  0  0  0  0
   -2.6040   21.3900  -32.5940 C   0  0  0  0  0  0  0  0  0  0  0  0
   -3.4700   22.3350  -31.7300 C   0  0  0  0  0  0  0  0  0  0  0  0
   -2.6180   23.0900  -30.6980 C   0  0  0  0  0  0  0  0  0  0  0  0
   -3.4620   24.0310  -29.8840 C   0  0  0  0  0  0  0  0  0  0  0  0
   -3.8040   23.7240  -28.7100 O   0  0  0  0  0  0  0  0  0  0  0  0
   -3.8680   25.2810  -30.4510 N   0  0  0  0  0  0  0  0  0  0  0  0
   -5.2620   25.6580  -30.6660 C   0  0  0  0  0  0  0  0  0  0  0  0
   -6.2030   24.4760  -30.3980 C   0  0  0  0  0  0  0  0  0  0  0  0
   -6.6200   23.7710  -31.7080 C   0  0  0  0  0  0  0  0  0  0  0  0
   -7.2190   22.4320  -31.5160 N   0  0  0  0  0  0  0  0  0  0  0  0
   -6.6290   21.4070  -32.3910 C   0  0  0  0  0  0  0  0  0  0  0  0
   -8.6870   22.4390  -31.6160 C   0  0  0  0  0  0  0  0  0  0  0  0
   -1.8580   22.0990  -29.7900 C   0  0  0  0  0  0  0  0  0  0  0  0
   -1.3850   20.8500  -30.5590 C   0  0  0  0  0  0  0  0  0  0  0  0
   -0.2880   21.8280  -34.4840 C   0  0  0  0  0  0  0  0  0  0  0  0
    1.2000   26.9900  -35.9180 C   0  0  0  0  0  0  0  0  0  0  0  0
    0.8765   30.9012  -34.0441 H   0  0  0  0  0  0  0  0  0  0  0  0
    1.6485   31.3953  -35.5890 H   0  0  0  0  0  0  0  0  0  0  0  0
   -0.0270   30.7474  -35.5890 H   0  0  0  0  0  0  0  0  0  0  0  0
   -0.4715   29.7753  -36.9942 H   0  0  0  0  0  0  0  0  0  0  0  0
   -1.6574   28.0510  -38.3441 H   0  0  0  0  0  0  0  0  0  0  0  0
   -1.0247   25.6493  -38.1498 H   0  0  0  0  0  0  0  0  0  0  0  0
   -1.0540   23.7720  -36.4720 H   0  0  0  0  0  0  0  0  0  0  0  0
    1.5425   21.7838  -37.3749 H   0  0  0  0  0  0  0  0  0  0  0  0
    2.1023   19.5146  -36.5142 H   0  0  0  0  0  0  0  0  0  0  0  0
    1.1351   18.7172  -34.3583 H   0  0  0  0  0  0  0  0  0  0  0  0
   -1.3180   19.2541  -32.9523 H   0  0  0  0  0  0  0  0  0  0  0  0
    0.2104   19.6388  -32.0765 H   0  0  0  0  0  0  0  0  0  0  0  0
   -2.4708   21.8439  -33.5871 H   0  0  0  0  0  0  0  0  0  0  0  0
   -3.1260   20.4237  -32.6560 H   0  0  0  0  0  0  0  0  0  0  0  0
   -3.9671   23.0646  -32.3861 H   0  0  0  0  0  0  0  0  0  0  0  0
   -4.2108   21.7277  -31.1893 H   0  0  0  0  0  0  0  0  0  0  0  0
   -1.8765   23.6932  -31.2424 H   0  0  0  0  0  0  0  0  0  0  0  0
   -5.5197   26.4834  -29.9860 H   0  0  0  0  0  0  0  0  0  0  0  0
   -5.3817   25.9683  -31.7145 H   0  0  0  0  0  0  0  0  0  0  0  0
   -5.6889   23.7505  -29.7504 H   0  0  0  0  0  0  0  0  0  0  0  0
   -7.1108   24.8630  -29.9121 H   0  0  0  0  0  0  0  0  0  0  0  0
   -7.3559   24.4069  -32.2220 H   0  0  0  0  0  0  0  0  0  0  0  0
   -5.6998   23.6230  -32.2922 H   0  0  0  0  0  0  0  0  0  0  0  0
   -6.1742   20.6169  -31.7754 H   0  0  0  0  0  0  0  0  0  0  0  0
   -7.4142   20.9708  -33.0259 H   0  0  0  0  0  0  0  0  0  0  0  0
   -5.8574   21.8669  -33.0259 H   0  0  0  0  0  0  0  0  0  0  0  0
   -9.1233   22.4411  -30.6062 H   0  0  0  0  0  0  0  0  0  0  0  0
   -9.0133   23.3387  -32.1583 H   0  0  0  0  0  0  0  0  0  0  0  0
   -9.0219   21.5424  -32.1583 H   0  0  0  0  0  0  0  0  0  0  0  0
   -0.9796   22.6083  -29.3670 H   0  0  0  0  0  0  0  0  0  0  0  0
   -2.5479   21.7679  -28.9998 H   0  0  0  0  0  0  0  0  0  0  0  0
   -0.4036   20.5378  -30.1726 H   0  0  0  0  0  0  0  0  0  0  0  0
   -2.1229   20.0465  -30.4181 H   0  0  0  0  0  0  0  0  0  0  0  0
   -0.9749   22.4745  -33.9181 H   0  0  0  0  0  0  0  0  0  0  0  0
    2.0023   26.6923  -35.2268 H   0  0  0  0  0  0  0  0  0  0  0  0
  1  2  1  0
  2  3  1  0
  3  4  2  0
  4  5  1  0
  5  6  2  0
  6  7  1  0
  7  8  1  0
  8  9  2  0
  8 10  1  0
 10 11  1  0
 11 12  2  0
 12 13  1  0
 13 14  2  0
 14 15  1  0
 15 16  1  0
 16 17  1  0
 17 18  1  0
 18 19  1  0
 19 20  1  0
 20 21  1  0
 21 22  2  0
 21 23  1  0
 23 24  1  0
 24 25  1  0
 25 26  1  0
 26 27  1  0
 27 28  1  0
 27 29  1  0
 20 30  1  0
 30 31  1  0
 15 32  2  0
  7 33  2  0
 33  3  1  0
 32 11  1  0
 31 17  1  0
  1 34  1  0
  1 35  1  0
  1 36  1  0
  4 37  1  0
  5 38  1  0
  6 39  1  0
 10 40  1  0
 12 41  1  0
 13 42  1  0
 14 43  1  0
 16 44  1  0
 16 45  1  0
 18 46  1  0
 18 47  1  0
 19 48  1  0
 19 49  1  0
 20 50  1  0
 24 51  1  0
 24 52  1  0
 25 53  1  0
 25 54  1  0
 26 55  1  0
 26 56  1  0
 28 57  1  0
 28 58  1  0
 28 59  1  0
 29 60  1  0
 29 61  1  0
 29 62  1  0
 30 63  1  0
 30 64  1  0
 31 65  1  0
 31 66  1  0
 32 67  1  0
 33 68  1  0
M  CHG  1  23  -1
M  END
>  <UniqueID>  (28) 
27

>  <SMILES>  (28) 
COc1cccc(C(=O)Nc2cccc(CN3CCC(C(=O)[N-]CCCN(C)C)CC3)c2)c1

>  <Energy>  (28) 
75.32974289291225

>  <Genealogy>  (28) 
COc1cccc(C(=O)Nc2cccc(CN3CCC(C(=O)[N-]CCCN(C)C)CC3)c2)c1 (protonated)
COc1cccc(C(=O)Nc2cccc(CN3CCC(C(=O)[N-]CCCN(C)C)CC3)c2)c1 (3D coordinates assigned)
COc1cccc(C(=O)Nc2cccc(CN3CCC(C(=O)[N-]CCCN(C)C)CC3)c2)c1 (nonaromatic ring conformer: 75.32974289291225 kcal/mol)

>  <smiles>  (28) 
COc1cccc(C(=O)Nc2cccc(CN3CCC(C(=O)NCCCN(C)C)CC3)c2)c1

>  <score_type>  (28) 
oracle

>  <origin>  (28) 
adg

>  <m_score__min__energy>  (28) 
-11.15

>  <m_primary>  (28) 
energy

$$$$
28:0
     RDKit          3D

 33 35  0  0  0  0  0  0  0  0999 V2000
   -1.9068   17.7153  -25.9952 H   0  0  0  0  0  0  0  0  0  0  0  0
   -1.8380   18.5790  -26.6730 C   0  0  0  0  0  0  0  0  0  0  0  0
   -2.8780   19.5100  -26.7270 C   0  0  0  0  0  0  0  0  0  0  0  0
   -3.7626   19.3825  -26.0857 H   0  0  0  0  0  0  0  0  0  0  0  0
   -2.7970   20.6030  -27.5940 C   0  0  0  0  0  0  0  0  0  0  0  0
   -3.6111   21.3423  -27.6193 H   0  0  0  0  0  0  0  0  0  0  0  0
   -1.6840   20.7630  -28.4320 C   0  0  0  0  0  0  0  0  0  0  0  0
   -1.6280   21.9180  -29.2870 N   0  0  0  0  0  0  0  0  0  0  0  0
   -2.6410   22.5630  -29.7860 C   0  0  0  0  0  0  0  0  0  0  0  0
   -2.7890   23.9050  -29.7390 N   0  0  0  0  0  0  0  0  0  0  0  0
   -3.9210   24.3070  -30.3780 C   0  0  0  0  0  0  0  0  0  0  0  0
   -4.2560   25.6920  -30.4750 N   0  0  0  0  0  0  0  0  0  0  0  0
   -3.9030   26.3940  -29.7890 H   0  0  0  0  0  0  0  0  0  0  0  0
   -4.9250   26.0140  -31.2100 H   0  0  0  0  0  0  0  0  0  0  0  0
   -4.6730   23.2760  -30.9570 C   0  0  0  0  0  0  0  0  0  0  0  0
   -5.9800   23.3910  -31.6380 C   0  0  0  0  0  0  0  0  0  0  0  0
   -6.3860   24.5290  -31.9970 O   0  0  0  0  0  0  0  0  0  0  0  0
   -6.8460   22.2110  -31.8720 C   0  0  0  0  0  0  0  0  0  0  0  0
   -8.1280   22.1250  -31.2940 C   0  0  0  0  0  0  0  0  0  0  0  0
   -8.5011   22.9483  -30.6672 H   0  0  0  0  0  0  0  0  0  0  0  0
   -8.9290   21.0000  -31.5120 C   0  0  0  0  0  0  0  0  0  0  0  0
   -9.9316   20.9443  -31.0629 H   0  0  0  0  0  0  0  0  0  0  0  0
   -8.4580   19.9470  -32.2990 C   0  0  0  0  0  0  0  0  0  0  0  0
   -9.0919   19.0652  -32.4741 H   0  0  0  0  0  0  0  0  0  0  0  0
   -7.1820   20.0130  -32.8640 C   0  0  0  0  0  0  0  0  0  0  0  0
   -6.8096   19.1803  -33.4787 H   0  0  0  0  0  0  0  0  0  0  0  0
   -6.3780   21.1360  -32.6490 C   0  0  0  0  0  0  0  0  0  0  0  0
   -5.3716   21.1794  -33.0908 H   0  0  0  0  0  0  0  0  0  0  0  0
   -3.8840   21.8190  -30.6330 S   0  0  0  0  0  0  0  0  0  0  0  0
   -0.6250   19.8370  -28.3520 C   0  0  0  0  0  0  0  0  0  0  0  0
    0.2707   19.9725  -28.9760 H   0  0  0  0  0  0  0  0  0  0  0  0
   -0.7100   18.7460  -27.4810 C   0  0  0  0  0  0  0  0  0  0  0  0
    0.1129   18.0177  -27.4318 H   0  0  0  0  0  0  0  0  0  0  0  0
  1  2  1  0
  2  3  2  0
  3  4  1  0
  3  5  1  0
  5  6  1  0
  5  7  2  0
  7  8  1  0
  8  9  2  0
  9 10  1  0
 10 11  1  0
 11 12  1  0
 12 13  1  0
 12 14  1  0
 11 15  2  0
 15 16  1  0
 16 17  2  0
 16 18  1  0
 18 19  2  0
 19 20  1  0
 19 21  1  0
 21 22  1  0
 21 23  2  0
 23 24  1  0
 23 25  1  0
 25 26  1  0
 25 27  2  0
 27 28  1  0
 15 29  1  0
  7 30  1  0
 30 31  1  0
 30 32  2  0
 32 33  1  0
 32  2  1  0
 29  9  1  0
 27 18  1  0
M  CHG  1  10  -1
M  END
>  <UniqueID>  (29) 
28

>  <SMILES>  (29) 
Nc1[n-]/c(=N\c2ccccc2)sc1C(=O)c1ccccc1

>  <Energy>  (29) 
77.06516745701376

>  <Genealogy>  (29) 
Nc1[n-]c(=Nc2ccccc2)sc1C(=O)c1ccccc1 (protonated)
Nc1[n-]/c(=N\c2ccccc2)sc1C(=O)c1ccccc1 (cis-trans isomerization)
Nc1[n-]/c(=N\c2ccccc2)sc1C(=O)c1ccccc1 (3D coordinates assigned)
Nc1[n-]/c(=N\c2ccccc2)sc1C(=O)c1ccccc1 (optimized conformer: 77.06516745701376 kcal/mol)

>  <smiles>  (29) 
Nc1[nH]c(=Nc2ccccc2)sc1C(=O)c1ccccc1

>  <score_type>  (29) 
oracle

>  <origin>  (29) 
adg

>  <m_score__min__energy>  (29) 
-9.3499999999999996

>  <m_primary>  (29) 
energy

$$$$
29:0
     RDKit          3D

 79 79  0  0  0  0  0  0  0  0999 V2000
   -3.1500   18.8500  -26.0670 C   0  0  0  0  0  0  0  0  0  0  0  0
   -2.5880   19.7690  -27.1500 C   0  0  0  0  0  0  0  0  0  0  0  0
   -1.3440   20.5190  -26.6500 C   0  0  0  0  0  0  0  0  0  0  0  0
   -1.4180   22.0380  -26.8910 C   0  0  0  0  0  0  0  0  0  0  0  0
   -0.6130   22.8910  -25.8930 C   0  0  0  0  0  0  0  0  0  0  0  0
   -0.6970   24.3960  -26.1960 C   0  0  0  0  0  0  0  0  0  0  0  0
   -1.9470   24.7530  -27.0180 C   0  0  0  0  0  0  0  0  0  0  0  0
   -1.6840   24.8480  -28.4940 C   0  0  0  0  0  0  0  0  0  0  0  0
   -0.5250   24.6410  -28.9500 O   0  0  0  0  0  0  0  0  0  0  0  0
   -2.7560   25.0920  -29.3600 O   0  0  0  0  0  0  0  0  0  0  0  0
   -4.0510   24.5210  -29.1830 C   0  0  0  0  0  0  0  0  0  0  0  0
   -3.9600   23.0860  -28.6400 C   0  0  0  0  0  0  0  0  0  0  0  0
   -3.8200   22.0220  -29.7490 C   0  0  0  0  0  0  0  0  0  0  0  0
   -3.5440   22.6080  -31.1510 C   0  0  0  0  0  0  0  0  0  0  0  0
   -2.4060   21.8960  -31.9070 C   0  0  0  0  0  0  0  0  0  0  0  0
   -2.9390   21.0220  -33.0710 C   0  0  0  0  0  0  0  0  0  0  0  0
   -2.0920   19.8490  -33.4660 N   0  0  0  0  0  0  0  0  0  0  0  0
   -0.9780   20.2960  -34.3390 C   0  0  0  0  0  0  0  0  0  0  0  0
   -1.5460   19.1780  -32.2570 C   0  0  0  0  0  0  0  0  0  0  0  0
   -2.9970   18.9020  -34.2020 C   0  0  0  0  0  0  0  0  0  0  0  0
   -4.2420   18.4010  -33.4300 C   0  0  0  0  0  0  0  0  0  0  0  0
   -5.5310   18.8230  -34.1440 C   0  0  0  0  0  0  0  0  0  0  0  0
   -6.6270   18.8510  -33.2310 O   0  0  0  0  0  0  0  0  0  0  0  0
   -7.1930   20.0080  -32.6620 C   0  0  0  0  0  0  0  0  0  0  0  0
   -6.5630   21.2680  -32.7330 C   0  0  0  0  0  0  0  0  0  0  0  0
   -7.1610   22.3980  -32.1570 C   0  0  0  0  0  0  0  0  0  0  0  0
   -6.4640   23.7270  -32.2060 C   0  0  0  0  0  0  0  0  0  0  0  0
   -8.3770   22.2650  -31.4750 C   0  0  0  0  0  0  0  0  0  0  0  0
   -9.0070   21.0230  -31.3960 C   0  0  0  0  0  0  0  0  0  0  0  0
   -8.4270   19.8920  -31.9890 C   0  0  0  0  0  0  0  0  0  0  0  0
   -9.1140   18.5580  -31.8970 C   0  0  0  0  0  0  0  0  0  0  0  0
   -2.9013   19.2567  -25.0757 H   0  0  0  0  0  0  0  0  0  0  0  0
   -4.2429   18.7843  -26.1727 H   0  0  0  0  0  0  0  0  0  0  0  0
   -2.7105   17.8472  -26.1727 H   0  0  0  0  0  0  0  0  0  0  0  0
   -2.3143   19.1645  -28.0273 H   0  0  0  0  0  0  0  0  0  0  0  0
   -3.3583   20.5084  -27.4142 H   0  0  0  0  0  0  0  0  0  0  0  0
   -1.2381   20.3405  -25.5698 H   0  0  0  0  0  0  0  0  0  0  0  0
   -0.4813   20.1383  -27.2165 H   0  0  0  0  0  0  0  0  0  0  0  0
   -1.0361   22.2429  -27.9020 H   0  0  0  0  0  0  0  0  0  0  0  0
   -2.4728   22.3210  -26.7594 H   0  0  0  0  0  0  0  0  0  0  0  0
   -1.0060   22.7133  -24.8811 H   0  0  0  0  0  0  0  0  0  0  0  0
    0.4426   22.5935  -25.9775 H   0  0  0  0  0  0  0  0  0  0  0  0
   -0.7286   24.9478  -25.2450 H   0  0  0  0  0  0  0  0  0  0  0  0
    0.1877   24.6716  -26.7888 H   0  0  0  0  0  0  0  0  0  0  0  0
   -2.7086   23.9775  -26.8488 H   0  0  0  0  0  0  0  0  0  0  0  0
   -2.2826   25.7458  -26.6836 H   0  0  0  0  0  0  0  0  0  0  0  0
   -4.6202   25.1376  -28.4718 H   0  0  0  0  0  0  0  0  0  0  0  0
   -4.5533   24.4905  -30.1611 H   0  0  0  0  0  0  0  0  0  0  0  0
   -3.0840   23.0179  -27.9781 H   0  0  0  0  0  0  0  0  0  0  0  0
   -4.8994   22.8791  -28.1064 H   0  0  0  0  0  0  0  0  0  0  0  0
   -2.9878   21.3534  -29.4837 H   0  0  0  0  0  0  0  0  0  0  0  0
   -4.7841   21.4957  -29.8084 H   0  0  0  0  0  0  0  0  0  0  0  0
   -4.4634   22.5250  -31.7492 H   0  0  0  0  0  0  0  0  0  0  0  0
   -3.2299   23.6523  -31.0067 H   0  0  0  0  0  0  0  0  0  0  0  0
   -1.7229   22.6546  -32.3167 H   0  0  0  0  0  0  0  0  0  0  0  0
   -1.8876   21.2355  -31.1964 H   0  0  0  0  0  0  0  0  0  0  0  0
   -3.9265   20.6375  -32.7759 H   0  0  0  0  0  0  0  0  0  0  0  0
   -2.9517   21.6826  -33.9504 H   0  0  0  0  0  0  0  0  0  0  0  0
   -0.1367   20.6336  -33.7159 H   0  0  0  0  0  0  0  0  0  0  0  0
   -0.6514   19.4593  -34.9740 H   0  0  0  0  0  0  0  0  0  0  0  0
   -1.3203   21.1264  -34.9740 H   0  0  0  0  0  0  0  0  0  0  0  0
   -1.9437   19.6667  -31.3553 H   0  0  0  0  0  0  0  0  0  0  0  0
   -1.8418   18.1185  -32.2606 H   0  0  0  0  0  0  0  0  0  0  0  0
   -0.4485   19.2523  -32.2606 H   0  0  0  0  0  0  0  0  0  0  0  0
   -3.3494   19.4132  -35.1100 H   0  0  0  0  0  0  0  0  0  0  0  0
   -2.3896   18.0047  -34.3916 H   0  0  0  0  0  0  0  0  0  0  0  0
   -4.2085   17.3034  -33.3649 H   0  0  0  0  0  0  0  0  0  0  0  0
   -4.2349   18.8445  -32.4234 H   0  0  0  0  0  0  0  0  0  0  0  0
   -5.3937   19.8260  -34.5743 H   0  0  0  0  0  0  0  0  0  0  0  0
   -5.7505   18.0940  -34.9380 H   0  0  0  0  0  0  0  0  0  0  0  0
   -5.5941   21.3650  -33.2447 H   0  0  0  0  0  0  0  0  0  0  0  0
   -6.2781   24.0815  -31.1814 H   0  0  0  0  0  0  0  0  0  0  0  0
   -5.5063   23.6194  -32.7362 H   0  0  0  0  0  0  0  0  0  0  0  0
   -7.0970   24.4537  -32.7362 H   0  0  0  0  0  0  0  0  0  0  0  0
   -8.8372   23.1437  -30.9996 H   0  0  0  0  0  0  0  0  0  0  0  0
   -9.9657   20.9299  -30.8647 H   0  0  0  0  0  0  0  0  0  0  0  0
   -9.2525   18.2891  -30.8394 H   0  0  0  0  0  0  0  0  0  0  0  0
  -10.0946   18.6156  -32.3921 H   0  0  0  0  0  0  0  0  0  0  0  0
   -8.4976   17.7932  -32.3921 H   0  0  0  0  0  0  0  0  0  0  0  0
  1  2  1  0
  2  3  1  0
  3  4  1  0
  4  5  1  0
  5  6  1  0
  6  7  1  0
  7  8  1  0
  8  9  2  0
  8 10  1  0
 10 11  1  0
 11 12  1  0
 12 13  1  0
 13 14  1  0
 14 15  1  0
 15 16  1  0
 16 17  1  0
 17 18  1  0
 17 19  1  0
 17 20  1  0
 20 21  1  0
 21 22  1  0
 22 23  1  0
 23 24  1  0
 24 25  2  0
 25 26  1  0
 26 27  1  0
 26 28  2  0
 28 29  1  0
 29 30  2  0
 30 31  1  0
 30 24  1  0
  1 32  1  0
  1 33  1  0
  1 34  1  0
  2 35  1  0
  2 36  1  0
  3 37  1  0
  3 38  1  0
  4 39  1  0
  4 40  1  0
  5 41  1  0
  5 42  1  0
  6 43  1  0
  6 44  1  0
  7 45  1  0
  7 46  1  0
 11 47  1  0
 11 48  1  0
 12 49  1  0
 12 50  1  0
 13 51  1  0
 13 52  1  0
 14 53  1  0
 14 54  1  0
 15 55  1  0
 15 56  1  0
 16 57  1  0
 16 58  1  0
 18 59  1  0
 18 60  1  0
 18 61  1  0
 19 62  1  0
 19 63  1  0
 19 64  1  0
 20 65  1  0
 20 66  1  0
 21 67  1  0
 21 68  1  0
 22 69  1  0
 22 70  1  0
 25 71  1  0
 27 72  1  0
 27 73  1  0
 27 74  1  0
 28 75  1  0
 29 76  1  0
 31 77  1  0
 31 78  1  0
 31 79  1  0
M  CHG  1  17   1
M  END
>  <UniqueID>  (30) 
29

>  <SMILES>  (30) 
CCCCCCCC(=O)OCCCCCC[N+](C)(C)CCCOc1cc(C)ccc1C

>  <Energy>  (30) 
63.69599677271173

>  <Genealogy>  (30) 
CCCCCCCC(=O)OCCCCCC[N+](C)(C)CCCOc1cc(C)ccc1C (3D coordinates assigned)
CCCCCCCC(=O)OCCCCCC[N+](C)(C)CCCOc1cc(C)ccc1C (optimized conformer: 63.69599677271173 kcal/mol)

>  <smiles>  (30) 
CCCCCCCC(=O)OCCCCCC[N+](C)(C)CCCOc1cc(C)ccc1C

>  <score_type>  (30) 
oracle

>  <origin>  (30) 
adg

>  <m_score__min__energy>  (30) 
-7.3899999999999997

>  <m_primary>  (30) 
energy

$$$$
30:0
     RDKit          3D

 32 34  0  0  0  0  0  0  0  0999 V2000
   -5.4130   25.6780  -30.3390 C   0  0  0  0  0  0  0  0  0  0  0  0
   -4.8330   24.6600  -31.1460 O   0  0  0  0  0  0  0  0  0  0  0  0
   -5.5040   23.5030  -31.5680 C   0  0  0  0  0  0  0  0  0  0  0  0
   -4.7750   22.5250  -32.2530 C   0  0  0  0  0  0  0  0  0  0  0  0
   -5.3920   21.3520  -32.6960 C   0  0  0  0  0  0  0  0  0  0  0  0
   -6.7600   21.1400  -32.4600 C   0  0  0  0  0  0  0  0  0  0  0  0
   -7.4110   19.9660  -32.8850 C   0  0  0  0  0  0  0  0  0  0  0  0
   -6.6930   18.9870  -33.5900 O   0  0  0  0  0  0  0  0  0  0  0  0
   -6.1390   17.8250  -33.0330 C   0  0  0  0  0  0  0  0  0  0  0  0
   -5.4230   16.9530  -33.8580 C   0  0  0  0  0  0  0  0  0  0  0  0
   -4.8490   15.7990  -33.3260 C   0  0  0  0  0  0  0  0  0  0  0  0
   -4.9870   15.5310  -31.9630 C   0  0  0  0  0  0  0  0  0  0  0  0
   -5.6700   16.3960  -31.1630 N   0  0  0  0  0  0  0  0  0  0  0  0
   -6.2380   17.5280  -31.6620 C   0  0  0  0  0  0  0  0  0  0  0  0
   -8.7870   19.8220  -32.6360 C   0  0  0  0  0  0  0  0  0  0  0  0
   -9.4780   20.8210  -31.9500 C   0  0  0  0  0  0  0  0  0  0  0  0
   -8.8290   21.9380  -31.5330 N   0  0  0  0  0  0  0  0  0  0  0  0
   -7.5030   22.1260  -31.7700 C   0  0  0  0  0  0  0  0  0  0  0  0
   -6.8760   23.2970  -31.3280 C   0  0  0  0  0  0  0  0  0  0  0  0
   -5.2713   25.4292  -29.2769 H   0  0  0  0  0  0  0  0  0  0  0  0
   -4.9277   26.6406  -30.5581 H   0  0  0  0  0  0  0  0  0  0  0  0
   -6.4885   25.7513  -30.5581 H   0  0  0  0  0  0  0  0  0  0  0  0
   -3.7032   22.6812  -32.4452 H   0  0  0  0  0  0  0  0  0  0  0  0
   -4.8040   20.5920  -33.2315 H   0  0  0  0  0  0  0  0  0  0  0  0
   -5.3121   17.1776  -34.9291 H   0  0  0  0  0  0  0  0  0  0  0  0
   -4.2926   15.1062  -33.9744 H   0  0  0  0  0  0  0  0  0  0  0  0
   -4.5435   14.6201  -31.5346 H   0  0  0  0  0  0  0  0  0  0  0  0
   -5.7530   16.1890  -30.1430 H   0  0  0  0  0  0  0  0  0  0  0  0
   -6.7764   18.2129  -30.9904 H   0  0  0  0  0  0  0  0  0  0  0  0
   -9.3181   18.9228  -32.9816 H   0  0  0  0  0  0  0  0  0  0  0  0
  -10.5525   20.7032  -31.7463 H   0  0  0  0  0  0  0  0  0  0  0  0
   -7.4581   24.0600  -30.7905 H   0  0  0  0  0  0  0  0  0  0  0  0
  1  2  1  0
  2  3  1  0
  3  4  2  0
  4  5  1  0
  5  6  2  0
  6  7  1  0
  7  8  1  0
  8  9  1  0
  9 10  2  0
 10 11  1  0
 11 12  2  0
 12 13  1  0
 13 14  2  0
  7 15  2  0
 15 16  1  0
 16 17  2  0
 17 18  1  0
 18 19  2  0
 19  3  1  0
 18  6  1  0
 14  9  1  0
  1 20  1  0
  1 21  1  0
  1 22  1  0
  4 23  1  0
  5 24  1  0
 10 25  1  0
 11 26  1  0
 12 27  1  0
 13 28  1  0
 14 29  1  0
 15 30  1  0
 16 31  1  0
 19 32  1  0
M  CHG  1  13   1
M  END
>  <UniqueID>  (31) 
30

>  <SMILES>  (31) 
COc1ccc2c(Oc3ccc[nH+]c3)ccnc2c1

>  <Energy>  (31) 
44.50724042475671

>  <Genealogy>  (31) 
COc1ccc2c(Oc3ccc[nH+]c3)ccnc2c1 (protonated)
COc1ccc2c(Oc3ccc[nH+]c3)ccnc2c1 (3D coordinates assigned)
COc1ccc2c(Oc3ccc[nH+]c3)ccnc2c1 (optimized conformer: 44.50724042475671 kcal/mol)

>  <smiles>  (31) 
COc1ccc2c(Oc3cccnc3)ccnc2c1

>  <score_type>  (31) 
oracle

>  <origin>  (31) 
adg

>  <m_score__min__energy>  (31) 
-7.0800000000000001

>  <m_primary>  (31) 
energy

$$$$
31:0
     RDKit          3D

 55 58  0  0  0  0  0  0  0  0999 V2000
   -2.0485   16.0170  -32.6736 H   0  0  0  0  0  0  0  0  0  0  0  0
   -1.8410   17.0610  -32.9510 C   0  0  0  0  0  0  0  0  0  0  0  0
   -2.8420   17.8020  -33.7410 C   0  0  0  0  0  0  0  0  0  0  0  0
   -2.4520   18.7690  -34.4510 O   0  0  0  0  0  0  0  0  0  0  0  0
   -4.2440   17.4740  -33.6960 N   0  0  0  0  0  0  0  0  0  0  0  0
   -4.9070   17.3150  -32.3900 C   0  0  0  0  0  0  0  0  0  0  0  0
   -4.5308   18.0868  -31.7024 H   0  0  0  0  0  0  0  0  0  0  0  0
   -4.6822   16.3073  -32.0105 H   0  0  0  0  0  0  0  0  0  0  0  0
   -6.4300   17.4540  -32.5090 C   0  0  0  0  0  0  0  0  0  0  0  0
   -6.8593   17.6351  -31.5126 H   0  0  0  0  0  0  0  0  0  0  0  0
   -6.8480   16.5274  -32.9293 H   0  0  0  0  0  0  0  0  0  0  0  0
   -6.7580   18.5790  -33.3930 N   0  0  0  0  0  0  0  0  0  0  0  0
   -7.4590   19.7120  -32.8620 C   0  0  0  0  0  0  0  0  0  0  0  0
   -8.8050   19.6310  -32.6990 N   0  0  0  0  0  0  0  0  0  0  0  0
   -9.5170   20.6530  -32.1600 C   0  0  0  0  0  0  0  0  0  0  0  0
  -10.6074   20.5615  -32.0473 H   0  0  0  0  0  0  0  0  0  0  0  0
   -8.8880   21.7890  -31.7590 N   0  0  0  0  0  0  0  0  0  0  0  0
   -9.4590   22.5570  -31.3370 H   0  0  0  0  0  0  0  0  0  0  0  0
   -7.5390   21.9280  -31.9000 C   0  0  0  0  0  0  0  0  0  0  0  0
   -6.8990   23.1030  -31.4790 C   0  0  0  0  0  0  0  0  0  0  0  0
   -7.4895   23.9119  -31.0241 H   0  0  0  0  0  0  0  0  0  0  0  0
   -5.5080   23.2570  -31.6330 C   0  0  0  0  0  0  0  0  0  0  0  0
   -4.8370   24.4180  -31.2110 O   0  0  0  0  0  0  0  0  0  0  0  0
   -5.3420   25.3370  -30.2460 C   0  0  0  0  0  0  0  0  0  0  0  0
   -5.1337   24.9580  -29.2346 H   0  0  0  0  0  0  0  0  0  0  0  0
   -4.8539   26.3137  -30.3793 H   0  0  0  0  0  0  0  0  0  0  0  0
   -6.4282   25.4487  -30.3793 H   0  0  0  0  0  0  0  0  0  0  0  0
   -4.7570   22.2320  -32.2270 C   0  0  0  0  0  0  0  0  0  0  0  0
   -3.3750   22.4290  -32.3850 O   0  0  0  0  0  0  0  0  0  0  0  0
   -2.5100   21.5490  -33.0990 C   0  0  0  0  0  0  0  0  0  0  0  0
   -1.9234   20.9522  -32.3850 H   0  0  0  0  0  0  0  0  0  0  0  0
   -3.1101   20.8783  -33.7315 H   0  0  0  0  0  0  0  0  0  0  0  0
   -1.8291   22.1375  -33.7315 H   0  0  0  0  0  0  0  0  0  0  0  0
   -5.3970   21.0510  -32.6520 C   0  0  0  0  0  0  0  0  0  0  0  0
   -4.8085   20.2528  -33.1280 H   0  0  0  0  0  0  0  0  0  0  0  0
   -6.7810   20.8840  -32.4730 C   0  0  0  0  0  0  0  0  0  0  0  0
   -6.1110   18.7000  -34.7080 C   0  0  0  0  0  0  0  0  0  0  0  0
   -5.6209   19.6823  -34.7782 H   0  0  0  0  0  0  0  0  0  0  0  0
   -6.8807   18.5952  -35.4869 H   0  0  0  0  0  0  0  0  0  0  0  0
   -5.0620   17.6020  -34.9100 C   0  0  0  0  0  0  0  0  0  0  0  0
   -4.4162   17.8645  -35.7609 H   0  0  0  0  0  0  0  0  0  0  0  0
   -5.5673   16.6463  -35.1131 H   0  0  0  0  0  0  0  0  0  0  0  0
   -0.6860   17.6190  -32.5600 C   0  0  0  0  0  0  0  0  0  0  0  0
    0.1846   17.5165  -33.2245 H   0  0  0  0  0  0  0  0  0  0  0  0
   -0.5040   18.3670  -31.2880 C   0  0  0  0  0  0  0  0  0  0  0  0
    0.2830   17.7840  -30.2790 C   0  0  0  0  0  0  0  0  0  0  0  0
    0.7234   16.7886  -30.4382 H   0  0  0  0  0  0  0  0  0  0  0  0
    0.5110   18.4580  -29.0750 C   0  0  0  0  0  0  0  0  0  0  0  0
    1.1253   17.9896  -28.2919 H   0  0  0  0  0  0  0  0  0  0  0  0
   -0.0400   19.7260  -28.8640 C   0  0  0  0  0  0  0  0  0  0  0  0
    0.1399   20.2528  -27.9153 H   0  0  0  0  0  0  0  0  0  0  0  0
   -0.8180   20.3230  -29.8570 C   0  0  0  0  0  0  0  0  0  0  0  0
   -1.5540   22.0650  -29.5740 Br  0  0  0  0  0  0  0  0  0  0  0  0
   -1.0480   19.6530  -31.0660 C   0  0  0  0  0  0  0  0  0  0  0  0
   -1.6562   20.1310  -31.8480 H   0  0  0  0  0  0  0  0  0  0  0  0
  1  2  1  0
  2  3  1  0
  3  4  2  0
  3  5  1  0
  5  6  1  0
  6  7  1  0
  6  8  1  0
  6  9  1  0
  9 10  1  0
  9 11  1  0
  9 12  1  0
 12 13  1  0
 13 14  2  0
 14 15  1  0
 15 16  1  0
 15 17  2  0
 17 18  1  0
 17 19  1  0
 19 20  2  0
 20 21  1  0
 20 22  1  0
 22 23  1  0
 23 24  1  0
 24 25  1  0
 24 26  1  0
 24 27  1  0
 22 28  2  0
 28 29  1  0
 29 30  1  0
 30 31  1  0
 30 32  1  0
 30 33  1  0
 28 34  1  0
 34 35  1  0
 34 36  2  0
 12 37  1  0
 37 38  1  0
 37 39  1  0
 37 40  1  0
 40 41  1  0
 40 42  1  0
  2 43  2  0
 43 44  1  0
 43 45  1  0
 45 46  2  0
 46 47  1  0
 46 48  1  0
 48 49  1  0
 48 50  2  0
 50 51  1  0
 50 52  1  0
 52 53  1  0
 52 54  2  0
 54 55  1  0
 40  5  1  0
 54 45  1  0
 36 13  1  0
 36 19  1  0
M  CHG  1  17   1
M  END
>  <UniqueID>  (32) 
31

>  <SMILES>  (32) 
COc1cc2[nH+]cnc(N3CCN(C(=O)/C=C/c4cccc(Br)c4)CC3)c2cc1OC

>  <Energy>  (32) 
74.60312341294828

>  <Genealogy>  (32) 
COc1cc2[nH+]cnc(N3CCN(C(=O)C=Cc4cccc(Br)c4)CC3)c2cc1OC (protonated)
COc1cc2[nH+]cnc(N3CCN(C(=O)/C=C/c4cccc(Br)c4)CC3)c2cc1OC (cis-trans isomerization)
COc1cc2[nH+]cnc(N3CCN(C(=O)/C=C/c4cccc(Br)c4)CC3)c2cc1OC (3D coordinates assigned)
COc1cc2[nH+]cnc(N3CCN(C(=O)/C=C/c4cccc(Br)c4)CC3)c2cc1OC (nonaromatic ring conformer: 74.60312341294828 kcal/mol)

>  <smiles>  (32) 
COc1cc2ncnc(N3CCN(C(=O)C=Cc4cccc(Br)c4)CC3)c2cc1OC

>  <score_type>  (32) 
oracle

>  <origin>  (32) 
adg

>  <m_score__min__energy>  (32) 
-9.0700000000000003

>  <m_primary>  (32) 
energy

$$$$
32:0
     RDKit          3D

 45 47  0  0  0  0  0  0  0  0999 V2000
   -5.2590   25.3960  -30.4540 C   0  0  0  0  0  0  0  0  0  0  0  0
   -4.7650   24.3000  -31.2140 O   0  0  0  0  0  0  0  0  0  0  0  0
   -5.5210   23.1510  -31.4700 C   0  0  0  0  0  0  0  0  0  0  0  0
   -6.8790   23.2300  -31.5480 N   0  0  0  0  0  0  0  0  0  0  0  0
   -7.6530   22.1480  -31.8210 C   0  0  0  0  0  0  0  0  0  0  0  0
   -9.0450   22.2790  -31.8890 C   0  0  0  0  0  0  0  0  0  0  0  0
   -9.8400   21.1640  -32.1740 C   0  0  0  0  0  0  0  0  0  0  0  0
   -9.2470   19.9160  -32.3920 C   0  0  0  0  0  0  0  0  0  0  0  0
   -7.8560   19.7770  -32.3260 C   0  0  0  0  0  0  0  0  0  0  0  0
   -7.0530   20.8920  -32.0410 C   0  0  0  0  0  0  0  0  0  0  0  0
   -5.6600   20.7830  -31.9660 C   0  0  0  0  0  0  0  0  0  0  0  0
   -4.8770   21.9110  -31.6710 C   0  0  0  0  0  0  0  0  0  0  0  0
   -3.4030   21.7840  -31.5820 C   0  0  0  0  0  0  0  0  0  0  0  0
   -2.6300   21.5370  -32.7270 C   0  0  0  0  0  0  0  0  0  0  0  0
   -1.2770   21.4280  -32.6340 N   0  0  0  0  0  0  0  0  0  0  0  0
   -0.6310   21.5580  -31.4440 C   0  0  0  0  0  0  0  0  0  0  0  0
   -1.3540   21.8190  -30.2730 C   0  0  0  0  0  0  0  0  0  0  0  0
   -0.6570   21.9520  -28.9450 C   0  0  0  0  0  0  0  0  0  0  0  0
   -1.4950   22.7080  -27.9950 N   0  0  0  0  0  0  0  0  0  0  0  0
   -1.1760   22.3360  -26.6090 C   0  0  0  0  0  0  0  0  0  0  0  0
   -1.2200   24.4220  -28.2010 S   0  0  0  0  0  0  0  0  0  0  0  0
   -1.6370   25.2930  -26.7050 C   0  0  0  0  0  0  0  0  0  0  0  0
   -2.0540   24.9510  -29.3350 O   0  0  0  0  0  0  0  0  0  0  0  0
    0.2330   24.6730  -28.5010 O   0  0  0  0  0  0  0  0  0  0  0  0
   -2.7480   21.9310  -30.3510 C   0  0  0  0  0  0  0  0  0  0  0  0
   -5.1586   25.1733  -29.3815 H   0  0  0  0  0  0  0  0  0  0  0  0
   -4.6814   26.3002  -30.6964 H   0  0  0  0  0  0  0  0  0  0  0  0
   -6.3190   25.5621  -30.6964 H   0  0  0  0  0  0  0  0  0  0  0  0
   -9.5139   23.2593  -31.7182 H   0  0  0  0  0  0  0  0  0  0  0  0
  -10.9337   21.2688  -32.2268 H   0  0  0  0  0  0  0  0  0  0  0  0
   -9.8757   19.0416  -32.6159 H   0  0  0  0  0  0  0  0  0  0  0  0
   -7.3924   18.7943  -32.4974 H   0  0  0  0  0  0  0  0  0  0  0  0
   -5.1764   19.8102  -32.1387 H   0  0  0  0  0  0  0  0  0  0  0  0
   -3.1210   21.4309  -33.7056 H   0  0  0  0  0  0  0  0  0  0  0  0
   -0.7200   21.2410  -33.4980 H   0  0  0  0  0  0  0  0  0  0  0  0
    0.4636   21.4578  -31.4011 H   0  0  0  0  0  0  0  0  0  0  0  0
   -0.4615   20.9494  -28.5368 H   0  0  0  0  0  0  0  0  0  0  0  0
    0.2896   22.4926  -29.0926 H   0  0  0  0  0  0  0  0  0  0  0  0
   -1.7329   22.9855  -25.9176 H   0  0  0  0  0  0  0  0  0  0  0  0
   -1.4600   21.2874  -26.4362 H   0  0  0  0  0  0  0  0  0  0  0  0
   -0.0964   22.4568  -26.4362 H   0  0  0  0  0  0  0  0  0  0  0  0
   -1.3466   24.6865  -25.8345 H   0  0  0  0  0  0  0  0  0  0  0  0
   -1.1009   26.2531  -26.6782 H   0  0  0  0  0  0  0  0  0  0  0  0
   -2.7211   25.4775  -26.6782 H   0  0  0  0  0  0  0  0  0  0  0  0
   -3.3321   22.1354  -29.4416 H   0  0  0  0  0  0  0  0  0  0  0  0
  1  2  1  0
  2  3  1  0
  3  4  2  0
  4  5  1  0
  5  6  2  0
  6  7  1  0
  7  8  2  0
  8  9  1  0
  9 10  2  0
 10 11  1  0
 11 12  2  0
 12 13  1  0
 13 14  2  0
 14 15  1  0
 15 16  2  0
 16 17  1  0
 17 18  1  0
 18 19  1  0
 19 20  1  0
 19 21  1  0
 21 22  1  0
 21 23  2  0
 21 24  2  0
 17 25  2  0
 12  3  1  0
 25 13  1  0
 10  5  1  0
  1 26  1  0
  1 27  1  0
  1 28  1  0
  6 29  1  0
  7 30  1  0
  8 31  1  0
  9 32  1  0
 11 33  1  0
 14 34  1  0
 15 35  1  0
 16 36  1  0
 18 37  1  0
 18 38  1  0
 20 39  1  0
 20 40  1  0
 20 41  1  0
 22 42  1  0
 22 43  1  0
 22 44  1  0
 25 45  1  0
M  CHG  1  15   1
M  END
>  <UniqueID>  (33) 
32

>  <SMILES>  (33) 
COc1nc2ccccc2cc1-c1c[nH+]cc(CN(C)S(C)(=O)=O)c1

>  <Energy>  (33) 
48.18417988990717

>  <Genealogy>  (33) 
COc1nc2ccccc2cc1-c1c[nH+]cc(CN(C)S(C)(=O)=O)c1 (protonated)
COc1nc2ccccc2cc1-c1c[nH+]cc(CN(C)S(C)(=O)=O)c1 (3D coordinates assigned)
COc1nc2ccccc2cc1-c1c[nH+]cc(CN(C)S(C)(=O)=O)c1 (optimized conformer: 48.18417988990717 kcal/mol)

>  <smiles>  (33) 
COc1nc2ccccc2cc1-c1cncc(CN(C)S(C)(=O)=O)c1

>  <score_type>  (33) 
oracle

>  <origin>  (33) 
adg

>  <m_score__min__energy>  (33) 
-8.5399999999999991

>  <m_primary>  (33) 
energy

$$$$
33:0
     RDKit          3D

 58 61  0  0  0  0  0  0  0  0999 V2000
   -0.1150   21.6000  -35.0230 C   0  0  0  0  0  0  0  0  0  0  0  0
    0.4510   20.7260  -34.4140 C   0  0  0  0  0  0  0  0  0  0  0  0
    1.1440   19.6630  -33.6720 C   0  0  0  0  0  0  0  0  0  0  0  0
    0.5140   19.4330  -32.2890 C   0  0  0  0  0  0  0  0  0  0  0  0
   -0.8470   18.7090  -32.3300 C   0  0  0  0  0  0  0  0  0  0  0  0
   -1.9600   19.6360  -32.5760 N   0  0  0  0  0  0  0  0  0  0  0  0
   -2.8810   19.5740  -33.5810 C   0  0  0  0  0  0  0  0  0  0  0  0
   -3.0050   18.4380  -34.5610 C   0  0  0  0  0  0  0  0  0  0  0  0
   -4.2050   17.6230  -34.2730 N   0  0  0  0  0  0  0  0  0  0  0  0
   -5.4370   18.2660  -34.7980 C   0  0  0  0  0  0  0  0  0  0  0  0
   -6.1790   19.0600  -33.7120 C   0  0  0  0  0  0  0  0  0  0  0  0
   -6.6150   18.1890  -32.5890 N   0  0  0  0  0  0  0  0  0  0  0  0
   -6.7680   18.9600  -31.3380 C   0  0  0  0  0  0  0  0  0  0  0  0
   -7.7180   20.1160  -31.5330 C   0  0  0  0  0  0  0  0  0  0  0  0
   -8.9900   19.8920  -32.0910 C   0  0  0  0  0  0  0  0  0  0  0  0
   -9.8650   20.9630  -32.3010 C   0  0  0  0  0  0  0  0  0  0  0  0
   -9.4740   22.2620  -31.9610 C   0  0  0  0  0  0  0  0  0  0  0  0
   -8.2100   22.4940  -31.4090 C   0  0  0  0  0  0  0  0  0  0  0  0
   -7.3330   21.4250  -31.1930 C   0  0  0  0  0  0  0  0  0  0  0  0
   -5.7390   17.0070  -32.3950 C   0  0  0  0  0  0  0  0  0  0  0  0
   -4.2940   17.2860  -32.8300 C   0  0  0  0  0  0  0  0  0  0  0  0
   -3.7750   20.5950  -33.5590 N   0  0  0  0  0  0  0  0  0  0  0  0
   -3.3800   21.3220  -32.4990 C   0  0  0  0  0  0  0  0  0  0  0  0
   -2.3020   20.7530  -31.8970 C   0  0  0  0  0  0  0  0  0  0  0  0
   -1.7540   21.3460  -30.7580 C   0  0  0  0  0  0  0  0  0  0  0  0
   -0.7640   20.8560  -30.1560 O   0  0  0  0  0  0  0  0  0  0  0  0
   -2.3330   22.4890  -30.2950 N   0  0  0  0  0  0  0  0  0  0  0  0
   -3.4180   23.0510  -30.9150 C   0  0  0  0  0  0  0  0  0  0  0  0
   -3.9190   24.1020  -30.4340 O   0  0  0  0  0  0  0  0  0  0  0  0
   -3.9540   22.4710  -32.0430 N   0  0  0  0  0  0  0  0  0  0  0  0
   -5.1460   23.0370  -32.6910 C   0  0  0  0  0  0  0  0  0  0  0  0
   -0.6311   22.3970  -35.5783 H   0  0  0  0  0  0  0  0  0  0  0  0
    1.0865   18.7288  -34.2500 H   0  0  0  0  0  0  0  0  0  0  0  0
    2.1896   19.9718  -33.5259 H   0  0  0  0  0  0  0  0  0  0  0  0
    1.2094   18.8278  -31.6889 H   0  0  0  0  0  0  0  0  0  0  0  0
    0.3318   20.4268  -31.8540 H   0  0  0  0  0  0  0  0  0  0  0  0
   -0.8256   17.9593  -33.1346 H   0  0  0  0  0  0  0  0  0  0  0  0
   -1.0094   18.2381  -31.3492 H   0  0  0  0  0  0  0  0  0  0  0  0
   -3.0831   18.8472  -35.5791 H   0  0  0  0  0  0  0  0  0  0  0  0
   -2.1150   17.7977  -34.4722 H   0  0  0  0  0  0  0  0  0  0  0  0
   -5.1604   18.9514  -35.6126 H   0  0  0  0  0  0  0  0  0  0  0  0
   -6.1083   17.4720  -35.1570 H   0  0  0  0  0  0  0  0  0  0  0  0
   -5.5078   19.8378  -33.3189 H   0  0  0  0  0  0  0  0  0  0  0  0
   -7.0765   19.5039  -34.1674 H   0  0  0  0  0  0  0  0  0  0  0  0
   -7.1619   18.2982  -30.5526 H   0  0  0  0  0  0  0  0  0  0  0  0
   -5.7846   19.3575  -31.0466 H   0  0  0  0  0  0  0  0  0  0  0  0
   -9.2974   18.8714  -32.3630 H   0  0  0  0  0  0  0  0  0  0  0  0
  -10.8604   20.7835  -32.7335 H   0  0  0  0  0  0  0  0  0  0  0  0
  -10.1624   23.1035  -32.1282 H   0  0  0  0  0  0  0  0  0  0  0  0
   -7.9051   23.5173  -31.1445 H   0  0  0  0  0  0  0  0  0  0  0  0
   -6.3403   21.6091  -30.7563 H   0  0  0  0  0  0  0  0  0  0  0  0
   -5.7427   16.7330  -31.3297 H   0  0  0  0  0  0  0  0  0  0  0  0
   -6.1296   16.1883  -33.0173 H   0  0  0  0  0  0  0  0  0  0  0  0
   -3.9027   18.1300  -32.2430 H   0  0  0  0  0  0  0  0  0  0  0  0
   -3.7038   16.3742  -32.6561 H   0  0  0  0  0  0  0  0  0  0  0  0
   -5.8563   23.3743  -31.9217 H   0  0  0  0  0  0  0  0  0  0  0  0
   -4.8516   23.8915  -33.3181 H   0  0  0  0  0  0  0  0  0  0  0  0
   -5.6221   22.2688  -33.3181 H   0  0  0  0  0  0  0  0  0  0  0  0
  1  2  3  0
  2  3  1  0
  3  4  1  0
  4  5  1  0
  5  6  1  0
  6  7  1  0
  7  8  1  0
  8  9  1  0
  9 10  1  0
 10 11  1  0
 11 12  1  0
 12 13  1  0
 13 14  1  0
 14 15  2  0
 15 16  1  0
 16 17  2  0
 17 18  1  0
 18 19  2  0
 12 20  1  0
 20 21  1  0
  7 22  2  0
 22 23  1  0
 23 24  2  0
 24 25  1  0
 25 26  2  0
 25 27  1  0
 27 28  1  0
 28 29  2  0
 28 30  1  0
 30 31  1  0
 24  6  1  0
 21  9  1  0
 30 23  1  0
 19 14  1  0
  1 32  1  0
  3 33  1  0
  3 34  1  0
  4 35  1  0
  4 36  1  0
  5 37  1  0
  5 38  1  0
  8 39  1  0
  8 40  1  0
 10 41  1  0
 10 42  1  0
 11 43  1  0
 11 44  1  0
 13 45  1  0
 13 46  1  0
 15 47  1  0
 16 48  1  0
 17 49  1  0
 18 50  1  0
 19 51  1  0
 20 52  1  0
 20 53  1  0
 21 54  1  0
 21 55  1  0
 31 56  1  0
 31 57  1  0
 31 58  1  0
M  CHG  1  27  -1
M  END
>  <UniqueID>  (34) 
33

>  <SMILES>  (34) 
C#CCCCn1c(CN2CCN(Cc3ccccc3)CC2)nc2c1c(=O)[n-]c(=O)n2C

>  <Energy>  (34) 
110.57835521909868

>  <Genealogy>  (34) 
C#CCCCn1c(CN2CCN(Cc3ccccc3)CC2)nc2c1c(=O)[n-]c(=O)n2C (protonated)
C#CCCCn1c(CN2CCN(Cc3ccccc3)CC2)nc2c1c(=O)[n-]c(=O)n2C (3D coordinates assigned)
C#CCCCn1c(CN2CCN(Cc3ccccc3)CC2)nc2c1c(=O)[n-]c(=O)n2C (nonaromatic ring conformer: 110.57835521909868 kcal/mol)

>  <smiles>  (34) 
C#CCCCn1c(CN2CCN(Cc3ccccc3)CC2)nc2c1c(=O)[nH]c(=O)n2C

>  <score_type>  (34) 
oracle

>  <origin>  (34) 
adg

>  <m_score__min__energy>  (34) 
-9.4700000000000006

>  <m_primary>  (34) 
energy

$$$$
34:0
     RDKit          3D

 34 36  0  0  0  0  0  0  0  0999 V2000
   -4.6690   23.3830  -29.0580 C   0  0  0  0  0  0  0  0  0  0  0  0
   -3.6830   22.5770  -29.9000 C   0  0  0  0  0  0  0  0  0  0  0  0
   -4.2180   22.2930  -31.2380 N   0  0  0  0  0  0  0  0  0  0  0  0
   -5.3980   22.9400  -31.6980 C   0  0  0  0  0  0  0  0  0  0  0  0
   -5.3640   24.1720  -31.9630 O   0  0  0  0  0  0  0  0  0  0  0  0
   -6.6610   22.1940  -31.8050 C   0  0  0  0  0  0  0  0  0  0  0  0
   -7.8570   22.9090  -31.6110 C   0  0  0  0  0  0  0  0  0  0  0  0
   -9.0840   22.2550  -31.5870 C   0  0  0  0  0  0  0  0  0  0  0  0
   -9.1420   20.8760  -31.7440 C   0  0  0  0  0  0  0  0  0  0  0  0
   -7.9690   20.1310  -31.9460 C   0  0  0  0  0  0  0  0  0  0  0  0
   -8.0480   18.6310  -32.1530 C   0  0  0  0  0  0  0  0  0  0  0  0
   -7.6050   18.2590  -33.4100 F   0  0  0  0  0  0  0  0  0  0  0  0
   -9.3590   18.2120  -32.0170 F   0  0  0  0  0  0  0  0  0  0  0  0
   -7.2690   17.9940  -31.2040 F   0  0  0  0  0  0  0  0  0  0  0  0
   -6.7160   20.7890  -32.0180 C   0  0  0  0  0  0  0  0  0  0  0  0
   -5.6100   19.9790  -32.3550 O   0  0  0  0  0  0  0  0  0  0  0  0
   -4.2800   20.2960  -32.6740 C   0  0  0  0  0  0  0  0  0  0  0  0
   -3.6120   19.4120  -33.5340 C   0  0  0  0  0  0  0  0  0  0  0  0
   -2.2660   19.6000  -33.8500 C   0  0  0  0  0  0  0  0  0  0  0  0
   -1.5630   20.6700  -33.2970 C   0  0  0  0  0  0  0  0  0  0  0  0
    0.1310   20.9060  -33.6860 Cl  0  0  0  0  0  0  0  0  0  0  0  0
   -2.2120   21.5540  -32.4310 C   0  0  0  0  0  0  0  0  0  0  0  0
   -3.5720   21.3770  -32.1180 C   0  0  0  0  0  0  0  0  0  0  0  0
   -4.4630   23.2146  -27.9907 H   0  0  0  0  0  0  0  0  0  0  0  0
   -4.5588   24.4530  -29.2883 H   0  0  0  0  0  0  0  0  0  0  0  0
   -5.6957   23.0622  -29.2883 H   0  0  0  0  0  0  0  0  0  0  0  0
   -2.7501   23.1506  -30.0033 H   0  0  0  0  0  0  0  0  0  0  0  0
   -3.5016   21.6182  -29.3922 H   0  0  0  0  0  0  0  0  0  0  0  0
   -7.8211   24.0002  -31.4765 H   0  0  0  0  0  0  0  0  0  0  0  0
  -10.0103   22.8307  -31.4434 H   0  0  0  0  0  0  0  0  0  0  0  0
  -10.1147   20.3635  -31.7098 H   0  0  0  0  0  0  0  0  0  0  0  0
   -4.1566   18.5590  -33.9651 H   0  0  0  0  0  0  0  0  0  0  0  0
   -1.7595   18.9044  -34.5352 H   0  0  0  0  0  0  0  0  0  0  0  0
   -1.6553   22.3945  -31.9908 H   0  0  0  0  0  0  0  0  0  0  0  0
  1  2  1  0
  2  3  1  0
  3  4  1  0
  4  5  2  0
  4  6  1  0
  6  7  2  0
  7  8  1  0
  8  9  2  0
  9 10  1  0
 10 11  1  0
 11 12  1  0
 11 13  1  0
 11 14  1  0
 10 15  2  0
 15 16  1  0
 16 17  1  0
 17 18  2  0
 18 19  1  0
 19 20  2  0
 20 21  1  0
 20 22  1  0
 22 23  2  0
 23  3  1  0
 15  6  1  0
 23 17  1  0
  1 24  1  0
  1 25  1  0
  1 26  1  0
  2 27  1  0
  2 28  1  0
  7 29  1  0
  8 30  1  0
  9 31  1  0
 18 32  1  0
 19 33  1  0
 22 34  1  0
M  END
>  <UniqueID>  (35) 
34

>  <SMILES>  (35) 
CCN1C(=O)c2cccc(C(F)(F)F)c2Oc2ccc(Cl)cc21

>  <Energy>  (35) 
63.14978819868628

>  <Genealogy>  (35) 
CCN1C(=O)c2cccc(C(F)(F)F)c2Oc2ccc(Cl)cc21 (3D coordinates assigned)
CCN1C(=O)c2cccc(C(F)(F)F)c2Oc2ccc(Cl)cc21 (nonaromatic ring conformer: 63.14978819868628 kcal/mol)

>  <smiles>  (35) 
CCN1C(=O)c2cccc(C(F)(F)F)c2Oc2ccc(Cl)cc21

>  <score_type>  (35) 
oracle

>  <origin>  (35) 
adg

>  <m_score__min__energy>  (35) 
-7.5300000000000002

>  <m_primary>  (35) 
energy

$$$$
35:0
     RDKit          3D

 46 49  0  0  0  0  0  0  0  0999 V2000
   -0.8590   27.1190  -23.7050 C   0  0  0  0  0  0  0  0  0  0  0  0
   -1.0110   25.9290  -24.5330 N   0  0  0  0  0  0  0  0  0  0  0  0
   -1.6620   25.8630  -25.7100 C   0  0  0  0  0  0  0  0  0  0  0  0
   -1.4970   24.5830  -26.2100 C   0  0  0  0  0  0  0  0  0  0  0  0
   -1.9900   24.0720  -27.4630 N   0  0  0  0  0  0  0  0  0  0  0  0
   -3.3020   23.4270  -27.5680 C   0  0  0  0  0  0  0  0  0  0  0  0
   -3.9880   23.7600  -28.9420 C   0  0  2  0  0  0  0  0  0  0  0  0
   -4.9890   24.9030  -28.7920 C   0  0  0  0  0  0  0  0  0  0  0  0
   -6.0080   24.6550  -29.8910 C   0  0  0  0  0  0  0  0  0  0  0  0
   -6.0190   23.2070  -30.1500 N   0  0  0  0  0  0  0  0  0  0  0  0
   -6.1140   22.8380  -31.5820 C   0  0  0  0  0  0  0  0  0  0  0  0
   -7.1990   21.8320  -31.9010 C   0  0  0  0  0  0  0  0  0  0  0  0
   -8.5490   22.1180  -31.6440 C   0  0  0  0  0  0  0  0  0  0  0  0
   -9.5230   21.1640  -31.9420 C   0  0  0  0  0  0  0  0  0  0  0  0
   -9.1470   19.9300  -32.4760 C   0  0  0  0  0  0  0  0  0  0  0  0
   -7.7940   19.6670  -32.6960 C   0  0  0  0  0  0  0  0  0  0  0  0
   -6.8600   20.6120  -32.4050 N   0  0  0  0  0  0  0  0  0  0  0  0
   -4.8840   22.6120  -29.4270 C   0  0  0  0  0  0  0  0  0  0  0  0
   -3.0860   24.1330  -29.9910 O   0  0  0  0  0  0  0  0  0  0  0  0
   -1.8140   23.5270  -29.8890 C   0  0  0  0  0  0  0  0  0  0  0  0
   -1.1630   23.9750  -28.6270 C   0  0  0  0  0  0  0  0  0  0  0  0
    0.0770   24.1930  -28.5790 O   0  0  0  0  0  0  0  0  0  0  0  0
   -0.7070   23.9150  -25.2890 C   0  0  0  0  0  0  0  0  0  0  0  0
   -0.4260   24.7670  -24.2850 N   0  0  0  0  0  0  0  0  0  0  0  0
   -0.8954   26.8340  -22.6432 H   0  0  0  0  0  0  0  0  0  0  0  0
    0.1075   27.5967  -23.9235 H   0  0  0  0  0  0  0  0  0  0  0  0
   -1.6744   27.8243  -23.9235 H   0  0  0  0  0  0  0  0  0  0  0  0
   -2.2236   26.6792  -26.1879 H   0  0  0  0  0  0  0  0  0  0  0  0
   -3.1744   22.3376  -27.4849 H   0  0  0  0  0  0  0  0  0  0  0  0
   -3.9426   23.8043  -26.7573 H   0  0  0  0  0  0  0  0  0  0  0  0
   -5.4682   24.8741  -27.8023 H   0  0  0  0  0  0  0  0  0  0  0  0
   -4.5139   25.8917  -28.8742 H   0  0  0  0  0  0  0  0  0  0  0  0
   -7.0043   24.9877  -29.5642 H   0  0  0  0  0  0  0  0  0  0  0  0
   -5.7467   25.2142  -30.8015 H   0  0  0  0  0  0  0  0  0  0  0  0
   -6.3130   23.7526  -32.1599 H   0  0  0  0  0  0  0  0  0  0  0  0
   -5.1584   22.3613  -31.8460 H   0  0  0  0  0  0  0  0  0  0  0  0
   -8.8372   23.0872  -31.2108 H   0  0  0  0  0  0  0  0  0  0  0  0
  -10.5847   21.3838  -31.7565 H   0  0  0  0  0  0  0  0  0  0  0  0
   -9.9079   19.1741  -32.7204 H   0  0  0  0  0  0  0  0  0  0  0  0
   -7.4827   18.6945  -33.1051 H   0  0  0  0  0  0  0  0  0  0  0  0
   -5.2499   22.0327  -28.5664 H   0  0  0  0  0  0  0  0  0  0  0  0
   -4.3203   21.9340  -30.0847 H   0  0  0  0  0  0  0  0  0  0  0  0
   -1.9267   22.4328  -29.8775 H   0  0  0  0  0  0  0  0  0  0  0  0
   -1.1941   23.8172  -30.7501 H   0  0  0  0  0  0  0  0  0  0  0  0
   -0.3684   22.8711  -25.3646 H   0  0  0  0  0  0  0  0  0  0  0  0
    0.1720   24.5620  -23.4540 H   0  0  0  0  0  0  0  0  0  0  0  0
  1  2  1  0
  2  3  1  0
  3  4  2  0
  4  5  1  0
  5  6  1  0
  6  7  1  0
  7  8  1  0
  8  9  1  0
  9 10  1  0
 10 11  1  0
 11 12  1  0
 12 13  2  0
 13 14  1  0
 14 15  2  0
 15 16  1  0
 16 17  2  0
 10 18  1  0
  7 19  1  6
 19 20  1  0
 20 21  1  0
 21 22  2  0
  4 23  1  0
 23 24  2  0
 24  2  1  0
 21  5  1  0
 18  7  1  0
 17 12  1  0
  1 25  1  0
  1 26  1  0
  1 27  1  0
  3 28  1  0
  6 29  1  0
  6 30  1  0
  8 31  1  0
  8 32  1  0
  9 33  1  0
  9 34  1  0
 11 35  1  0
 11 36  1  0
 13 37  1  0
 14 38  1  0
 15 39  1  0
 16 40  1  0
 18 41  1  0
 18 42  1  0
 20 43  1  0
 20 44  1  0
 23 45  1  0
 24 46  1  0
M  CHG  1  24   1
M  END
>  <UniqueID>  (36) 
35

>  <SMILES>  (36) 
Cn1cc(N2C[C@@]3(CCN(Cc4ccccn4)C3)OCC2=O)c[nH+]1

>  <Energy>  (36) 
100.14059279922924

>  <Genealogy>  (36) 
Cn1cc(N2CC3(CCN(Cc4ccccn4)C3)OCC2=O)c[nH+]1 (protonated)
Cn1cc(N2C[C@@]3(CCN(Cc4ccccn4)C3)OCC2=O)c[nH+]1 (chirality)
Cn1cc(N2C[C@@]3(CCN(Cc4ccccn4)C3)OCC2=O)c[nH+]1 (3D coordinates assigned)
Cn1cc(N2C[C@@]3(CCN(Cc4ccccn4)C3)OCC2=O)c[nH+]1 (nonaromatic ring conformer: 100.14059279922924 kcal/mol)

>  <smiles>  (36) 
Cn1cc(N2CC3(CCN(Cc4ccccn4)C3)OCC2=O)cn1

>  <score_type>  (36) 
oracle

>  <origin>  (36) 
adg

>  <m_score__min__energy>  (36) 
-8.9600000000000009

>  <m_primary>  (36) 
energy

$$$$
36:0
     RDKit          3D

 33 34  0  0  0  0  0  0  0  0999 V2000
   -9.0650   21.5820  -30.6190 C   0  0  0  0  0  0  0  0  0  0  0  0
   -7.8240   22.3930  -30.8400 C   0  0  0  0  0  0  0  0  0  0  0  0
   -7.6220   23.0610  -32.0750 C   0  0  0  0  0  0  0  0  0  0  0  0
   -6.4810   23.8570  -32.2830 C   0  0  0  0  0  0  0  0  0  0  0  0
   -5.5750   23.9740  -31.2340 C   0  0  0  0  0  0  0  0  0  0  0  0
   -4.4520   24.6490  -31.2000 O   0  0  0  0  0  0  0  0  0  0  0  0
   -3.9550   24.4490  -29.9910 C   0  0  0  0  0  0  0  0  0  0  0  0
   -2.8520   24.9260  -29.6140 O   0  0  0  0  0  0  0  0  0  0  0  0
   -4.7420   23.6620  -29.2130 N   0  0  0  0  0  0  0  0  0  0  0  0
   -4.4640   23.1740  -27.8570 C   0  0  0  0  0  0  0  0  0  0  0  0
   -4.1940   24.3220  -26.8550 C   0  0  0  0  0  0  0  0  0  0  0  0
   -2.8210   24.8900  -26.8690 N   0  0  0  0  0  0  0  0  0  0  0  0
   -2.5070   25.6820  -25.6670 C   0  0  0  0  0  0  0  0  0  0  0  0
   -1.7800   23.8780  -27.1240 C   0  0  0  0  0  0  0  0  0  0  0  0
   -5.7670   23.3490  -30.0330 C   0  0  0  0  0  0  0  0  0  0  0  0
   -6.8860   22.5480  -29.7930 C   0  0  0  0  0  0  0  0  0  0  0  0
   -9.2406   21.4673  -29.5392 H   0  0  0  0  0  0  0  0  0  0  0  0
   -9.9239   22.0936  -31.0778 H   0  0  0  0  0  0  0  0  0  0  0  0
   -8.9413   20.5899  -31.0778 H   0  0  0  0  0  0  0  0  0  0  0  0
   -8.3656   22.9554  -32.8787 H   0  0  0  0  0  0  0  0  0  0  0  0
   -6.3112   24.3690  -33.2416 H   0  0  0  0  0  0  0  0  0  0  0  0
   -5.3318   22.5965  -27.5056 H   0  0  0  0  0  0  0  0  0  0  0  0
   -3.5567   22.5540  -27.9056 H   0  0  0  0  0  0  0  0  0  0  0  0
   -4.8976   25.1371  -27.0797 H   0  0  0  0  0  0  0  0  0  0  0  0
   -4.3215   23.8795  -25.8560 H   0  0  0  0  0  0  0  0  0  0  0  0
   -2.7930   25.5560  -27.6780 H   0  0  0  0  0  0  0  0  0  0  0  0
   -2.7407   25.0926  -24.7681 H   0  0  0  0  0  0  0  0  0  0  0  0
   -1.4380   25.9414  -25.6677 H   0  0  0  0  0  0  0  0  0  0  0  0
   -3.1079   26.6034  -25.6677 H   0  0  0  0  0  0  0  0  0  0  0  0
   -1.3924   23.5012  -26.1660 H   0  0  0  0  0  0  0  0  0  0  0  0
   -2.2114   23.0448  -27.6982 H   0  0  0  0  0  0  0  0  0  0  0  0
   -0.9593   24.3328  -27.6982 H   0  0  0  0  0  0  0  0  0  0  0  0
   -7.0328   22.0539  -28.8213 H   0  0  0  0  0  0  0  0  0  0  0  0
  1  2  1  0
  2  3  2  0
  3  4  1  0
  4  5  2  0
  5  6  1  0
  6  7  1  0
  7  8  2  0
  7  9  1  0
  9 10  1  0
 10 11  1  0
 11 12  1  0
 12 13  1  0
 12 14  1  0
  9 15  1  0
 15 16  2  0
 16  2  1  0
 15  5  1  0
  1 17  1  0
  1 18  1  0
  1 19  1  0
  3 20  1  0
  4 21  1  0
 10 22  1  0
 10 23  1  0
 11 24  1  0
 11 25  1  0
 12 26  1  0
 13 27  1  0
 13 28  1  0
 13 29  1  0
 14 30  1  0
 14 31  1  0
 14 32  1  0
 16 33  1  0
M  CHG  1  12   1
M  END
>  <UniqueID>  (37) 
36

>  <SMILES>  (37) 
Cc1ccc2oc(=O)n(CC[NH+](C)C)c2c1

>  <Energy>  (37) 
76.16919261196466

>  <Genealogy>  (37) 
Cc1ccc2oc(=O)n(CC[NH+](C)C)c2c1 (protonated)
Cc1ccc2oc(=O)n(CC[NH+](C)C)c2c1 (3D coordinates assigned)
Cc1ccc2oc(=O)n(CC[NH+](C)C)c2c1 (optimized conformer: 76.16919261196466 kcal/mol)

>  <smiles>  (37) 
Cc1ccc2oc(=O)n(CCN(C)C)c2c1

>  <score_type>  (37) 
oracle

>  <origin>  (37) 
adg

>  <m_score__min__energy>  (37) 
-5.8399999999999999

>  <m_primary>  (37) 
energy

$$$$
37:0
     RDKit          3D

 43 46  0  0  0  0  0  0  0  0999 V2000
   -1.9710   25.1830  -27.0950 C   0  0  0  0  0  0  0  0  0  0  0  0
   -1.6970   25.1390  -28.4910 O   0  0  0  0  0  0  0  0  0  0  0  0
   -2.0420   24.1030  -29.3750 C   0  0  0  0  0  0  0  0  0  0  0  0
   -1.2710   22.9390  -29.3010 C   0  0  0  0  0  0  0  0  0  0  0  0
   -1.5180   21.8560  -30.1420 C   0  0  0  0  0  0  0  0  0  0  0  0
   -2.5540   21.9100  -31.0870 C   0  0  0  0  0  0  0  0  0  0  0  0
   -2.8400   20.7560  -31.9780 C   0  0  0  0  0  0  0  0  0  0  0  0
   -4.1610   20.2700  -32.1560 C   0  0  0  0  0  0  0  0  0  0  0  0
   -4.3370   19.1980  -33.0320 C   0  0  0  0  0  0  0  0  0  0  0  0
   -3.2800   18.6100  -33.6570 C   0  0  0  0  0  0  0  0  0  0  0  0
   -1.9860   19.0720  -33.4680 C   0  0  0  0  0  0  0  0  0  0  0  0
   -1.8020   20.1380  -32.6330 N   0  0  0  0  0  0  0  0  0  0  0  0
   -3.7010   17.5630  -34.3850 N   0  0  0  0  0  0  0  0  0  0  0  0
   -5.0390   17.5320  -34.1820 C   0  0  0  0  0  0  0  0  0  0  0  0
   -5.4640   18.5280  -33.3600 N   0  0  0  0  0  0  0  0  0  0  0  0
   -6.8180   18.7870  -32.9570 C   0  0  0  0  0  0  0  0  0  0  0  0
   -7.3880   20.0540  -33.1750 C   0  0  0  0  0  0  0  0  0  0  0  0
   -8.7030   20.3140  -32.7780 C   0  0  0  0  0  0  0  0  0  0  0  0
   -9.4570   19.3170  -32.1520 C   0  0  0  0  0  0  0  0  0  0  0  0
   -8.8930   18.0610  -31.9150 C   0  0  0  0  0  0  0  0  0  0  0  0
   -7.5790   17.7960  -32.3120 C   0  0  0  0  0  0  0  0  0  0  0  0
   -3.3500   23.0680  -31.1540 C   0  0  0  0  0  0  0  0  0  0  0  0
   -3.1040   24.1730  -30.3120 C   0  0  0  0  0  0  0  0  0  0  0  0
   -3.8960   25.3300  -30.3860 O   0  0  0  0  0  0  0  0  0  0  0  0
   -5.3200   25.3500  -30.3500 C   0  0  0  0  0  0  0  0  0  0  0  0
   -1.0373   25.0331  -26.5332 H   0  0  0  0  0  0  0  0  0  0  0  0
   -2.4013   26.1618  -26.8365 H   0  0  0  0  0  0  0  0  0  0  0  0
   -2.6862   24.3882  -26.8365 H   0  0  0  0  0  0  0  0  0  0  0  0
   -0.4551   22.8772  -28.5659 H   0  0  0  0  0  0  0  0  0  0  0  0
   -0.8963   20.9519  -30.0646 H   0  0  0  0  0  0  0  0  0  0  0  0
   -5.0125   20.7202  -31.6247 H   0  0  0  0  0  0  0  0  0  0  0  0
   -1.1341   18.5950  -33.9746 H   0  0  0  0  0  0  0  0  0  0  0  0
   -3.1260   16.9120  -34.9650 H   0  0  0  0  0  0  0  0  0  0  0  0
   -5.7082   16.7839  -34.6322 H   0  0  0  0  0  0  0  0  0  0  0  0
   -6.7963   20.8442  -33.6602 H   0  0  0  0  0  0  0  0  0  0  0  0
   -9.1452   21.3049  -32.9585 H   0  0  0  0  0  0  0  0  0  0  0  0
  -10.4937   19.5213  -31.8462 H   0  0  0  0  0  0  0  0  0  0  0  0
   -9.4838   17.2793  -31.4152 H   0  0  0  0  0  0  0  0  0  0  0  0
   -7.1381   16.8069  -32.1188 H   0  0  0  0  0  0  0  0  0  0  0  0
   -4.1789   23.1127  -31.8757 H   0  0  0  0  0  0  0  0  0  0  0  0
   -5.6603   25.3548  -29.3040 H   0  0  0  0  0  0  0  0  0  0  0  0
   -5.6870   26.2534  -30.8591 H   0  0  0  0  0  0  0  0  0  0  0  0
   -5.7122   24.4573  -30.8591 H   0  0  0  0  0  0  0  0  0  0  0  0
  1  2  1  0
  2  3  1  0
  3  4  2  0
  4  5  1  0
  5  6  2  0
  6  7  1  0
  7  8  2  0
  8  9  1  0
  9 10  2  0
 10 11  1  0
 11 12  2  0
 10 13  1  0
 13 14  2  0
 14 15  1  0
 15 16  1  0
 16 17  2  0
 17 18  1  0
 18 19  2  0
 19 20  1  0
 20 21  2  0
  6 22  1  0
 22 23  2  0
 23 24  1  0
 24 25  1  0
 23  3  1  0
 12  7  1  0
 21 16  1  0
 15  9  1  0
  1 26  1  0
  1 27  1  0
  1 28  1  0
  4 29  1  0
  5 30  1  0
  8 31  1  0
 11 32  1  0
 13 33  1  0
 14 34  1  0
 17 35  1  0
 18 36  1  0
 19 37  1  0
 20 38  1  0
 21 39  1  0
 22 40  1  0
 25 41  1  0
 25 42  1  0
 25 43  1  0
M  CHG  1  13   1
M  END
>  <UniqueID>  (38) 
37

>  <SMILES>  (38) 
COc1ccc(-c2cc3c(cn2)[nH+]cn3-c2ccccc2)cc1OC

>  <Energy>  (38) 
98.80159126945752

>  <Genealogy>  (38) 
COc1ccc(-c2cc3c(cn2)[nH+]cn3-c2ccccc2)cc1OC (protonated)
COc1ccc(-c2cc3c(cn2)[nH+]cn3-c2ccccc2)cc1OC (3D coordinates assigned)
COc1ccc(-c2cc3c(cn2)[nH+]cn3-c2ccccc2)cc1OC (optimized conformer: 98.80159126945752 kcal/mol)

>  <smiles>  (38) 
COc1ccc(-c2cc3c(cn2)ncn3-c2ccccc2)cc1OC

>  <score_type>  (38) 
oracle

>  <origin>  (38) 
adg

>  <m_score__min__energy>  (38) 
-8.0999999999999996

>  <m_primary>  (38) 
energy

$$$$
38:0
     RDKit          3D

 46 48  0  0  0  0  0  0  0  0999 V2000
   -8.8020   19.4920  -31.6260 C   0  0  0  0  0  0  0  0  0  0  0  0
   -8.5910   20.8290  -32.3250 C   0  0  0  0  0  0  0  0  0  0  0  0
   -7.1690   21.1780  -32.3370 N   0  0  0  0  0  0  0  0  0  0  0  0
   -6.5940   22.3470  -31.9470 C   0  0  0  0  0  0  0  0  0  0  0  0
   -7.5040   23.7280  -31.2530 S   0  0  0  0  0  0  0  0  0  0  0  0
   -6.0810   24.8690  -31.3390 C   0  0  0  0  0  0  0  0  0  0  0  0
   -5.2110   24.7290  -30.0870 C   0  0  0  0  0  0  0  0  0  0  0  0
   -3.8220   24.7620  -30.4210 O   0  0  0  0  0  0  0  0  0  0  0  0
   -2.8610   23.8250  -30.0060 C   0  0  0  0  0  0  0  0  0  0  0  0
   -3.0020   22.4440  -30.2490 C   0  0  0  0  0  0  0  0  0  0  0  0
   -2.0310   21.5470  -29.8000 C   0  0  0  0  0  0  0  0  0  0  0  0
   -0.9120   22.0140  -29.1120 C   0  0  0  0  0  0  0  0  0  0  0  0
   -0.7570   23.3800  -28.8730 C   0  0  0  0  0  0  0  0  0  0  0  0
   -1.7300   24.2950  -29.3180 C   0  0  0  0  0  0  0  0  0  0  0  0
   -1.6190   25.6740  -29.0850 O   0  0  0  0  0  0  0  0  0  0  0  0
   -1.0300   26.2500  -27.9230 C   0  0  0  0  0  0  0  0  0  0  0  0
   -5.2530   22.3910  -32.1560 N   0  0  0  0  0  0  0  0  0  0  0  0
   -4.9980   21.1910  -32.7090 C   0  0  0  0  0  0  0  0  0  0  0  0
   -3.7690   20.7100  -33.1520 C   0  0  0  0  0  0  0  0  0  0  0  0
   -3.7340   19.4300  -33.7480 C   0  0  0  0  0  0  0  0  0  0  0  0
   -2.4320   18.8520  -34.2150 C   0  0  0  0  0  0  0  0  0  0  0  0
   -4.9270   18.6700  -33.8570 C   0  0  0  0  0  0  0  0  0  0  0  0
   -6.1520   19.1890  -33.4010 C   0  0  0  0  0  0  0  0  0  0  0  0
   -6.1450   20.4590  -32.8270 C   0  0  0  0  0  0  0  0  0  0  0  0
   -8.7786   19.6402  -30.5363 H   0  0  0  0  0  0  0  0  0  0  0  0
   -9.7770   19.0752  -31.9185 H   0  0  0  0  0  0  0  0  0  0  0  0
   -8.0027   18.7952  -31.9185 H   0  0  0  0  0  0  0  0  0  0  0  0
   -8.9560   20.7587  -33.3603 H   0  0  0  0  0  0  0  0  0  0  0  0
   -9.1458   21.6081  -31.7816 H   0  0  0  0  0  0  0  0  0  0  0  0
   -5.4784   24.6312  -32.2280 H   0  0  0  0  0  0  0  0  0  0  0  0
   -6.4540   25.9019  -31.4018 H   0  0  0  0  0  0  0  0  0  0  0  0
   -5.4351   25.5575  -29.3990 H   0  0  0  0  0  0  0  0  0  0  0  0
   -5.4339   23.7621  -29.6123 H   0  0  0  0  0  0  0  0  0  0  0  0
   -3.8812   22.0711  -30.7949 H   0  0  0  0  0  0  0  0  0  0  0  0
   -2.1491   20.4699  -29.9894 H   0  0  0  0  0  0  0  0  0  0  0  0
   -0.1500   21.3045  -28.7570 H   0  0  0  0  0  0  0  0  0  0  0  0
    0.1302   23.7439  -28.3340 H   0  0  0  0  0  0  0  0  0  0  0  0
   -1.4833   25.8067  -27.0241 H   0  0  0  0  0  0  0  0  0  0  0  0
    0.0520   26.0519  -27.9238 H   0  0  0  0  0  0  0  0  0  0  0  0
   -1.2039   27.3362  -27.9238 H   0  0  0  0  0  0  0  0  0  0  0  0
   -2.8529   21.3087  -33.0412 H   0  0  0  0  0  0  0  0  0  0  0  0
   -1.8183   18.5795  -33.3437 H   0  0  0  0  0  0  0  0  0  0  0  0
   -2.6256   17.9553  -34.8220 H   0  0  0  0  0  0  0  0  0  0  0  0
   -1.8968   19.5971  -34.8220 H   0  0  0  0  0  0  0  0  0  0  0  0
   -4.8935   17.6648  -34.3026 H   0  0  0  0  0  0  0  0  0  0  0  0
   -7.0840   18.6122  -33.4942 H   0  0  0  0  0  0  0  0  0  0  0  0
  1  2  1  0
  2  3  1  0
  3  4  1  0
  4  5  1  0
  5  6  1  0
  6  7  1  0
  7  8  1  0
  8  9  1  0
  9 10  2  0
 10 11  1  0
 11 12  2  0
 12 13  1  0
 13 14  2  0
 14 15  1  0
 15 16  1  0
  4 17  2  0
 17 18  1  0
 18 19  2  0
 19 20  1  0
 20 21  1  0
 20 22  2  0
 22 23  1  0
 23 24  2  0
 24  3  1  0
 14  9  1  0
 24 18  1  0
  1 25  1  0
  1 26  1  0
  1 27  1  0
  2 28  1  0
  2 29  1  0
  6 30  1  0
  6 31  1  0
  7 32  1  0
  7 33  1  0
 10 34  1  0
 11 35  1  0
 12 36  1  0
 13 37  1  0
 16 38  1  0
 16 39  1  0
 16 40  1  0
 19 41  1  0
 21 42  1  0
 21 43  1  0
 21 44  1  0
 22 45  1  0
 23 46  1  0
M  END
>  <UniqueID>  (39) 
38

>  <SMILES>  (39) 
CCn1c(SCCOc2ccccc2OC)nc2cc(C)ccc21

>  <Energy>  (39) 
73.29793439467397

>  <Genealogy>  (39) 
CCn1c(SCCOc2ccccc2OC)nc2cc(C)ccc21 (3D coordinates assigned)
CCn1c(SCCOc2ccccc2OC)nc2cc(C)ccc21 (optimized conformer: 73.29793439467397 kcal/mol)

>  <smiles>  (39) 
CCn1c(SCCOc2ccccc2OC)nc2cc(C)ccc21

>  <score_type>  (39) 
oracle

>  <origin>  (39) 
adg

>  <m_score__min__energy>  (39) 
-9.4199999999999999

>  <m_primary>  (39) 
energy

$$$$
39:0
     RDKit          3D

 58 60  0  0  0  0  0  0  0  0999 V2000
   -6.3190   16.4680  -34.1790 C   0  0  0  0  0  0  0  0  0  0  0  0
   -6.4960   17.8450  -34.4980 O   0  0  0  0  0  0  0  0  0  0  0  0
   -6.4790   18.8840  -33.5560 C   0  0  0  0  0  0  0  0  0  0  0  0
   -7.5920   19.0430  -32.7220 C   0  0  0  0  0  0  0  0  0  0  0  0
   -7.6240   20.0640  -31.7690 C   0  0  0  0  0  0  0  0  0  0  0  0
   -6.5430   20.9510  -31.6390 C   0  0  0  0  0  0  0  0  0  0  0  0
   -6.5850   22.0650  -30.6150 C   0  0  0  0  0  0  0  0  0  0  0  0
   -6.7280   23.4140  -31.2100 N   0  0  0  0  0  0  0  0  0  0  0  0
   -7.6690   23.4250  -32.3440 C   0  0  0  0  0  0  0  0  0  0  0  0
   -5.4240   24.0210  -31.5620 C   0  0  0  0  0  0  0  0  0  0  0  0
   -4.7950   24.7530  -30.3630 C   0  0  0  0  0  0  0  0  0  0  0  0
   -3.3880   24.2460  -30.0350 C   0  0  0  0  0  0  0  0  0  0  0  0
   -2.6260   25.2810  -29.3420 N   0  0  0  0  0  0  0  0  0  0  0  0
   -1.3720   25.0600  -28.6870 C   0  0  0  0  0  0  0  0  0  0  0  0
   -0.4230   24.5550  -29.3420 O   0  0  0  0  0  0  0  0  0  0  0  0
   -1.1760   25.3790  -27.2580 C   0  0  0  0  0  0  0  0  0  0  0  0
   -0.9440   26.7070  -26.8740 C   0  0  0  0  0  0  0  0  0  0  0  0
   -0.8170   27.0350  -25.5250 C   0  0  0  0  0  0  0  0  0  0  0  0
   -0.4840   28.8420  -25.0040 Br  0  0  0  0  0  0  0  0  0  0  0  0
   -0.9420   26.0340  -24.5640 C   0  0  0  0  0  0  0  0  0  0  0  0
   -1.1850   24.7480  -24.9420 N   0  0  0  0  0  0  0  0  0  0  0  0
   -1.3030   24.3950  -26.2540 C   0  0  0  0  0  0  0  0  0  0  0  0
   -1.5220   23.0190  -26.5980 N   0  0  0  0  0  0  0  0  0  0  0  0
   -0.5090   21.9930  -26.4380 C   0  0  0  0  0  0  0  0  0  0  0  0
   -1.0310   20.7840  -27.2050 C   0  0  0  0  0  0  0  0  0  0  0  0
   -2.5120   21.0550  -27.4660 C   0  0  0  0  0  0  0  0  0  0  0  0
   -2.6920   22.5610  -27.3220 C   0  0  0  0  0  0  0  0  0  0  0  0
   -5.4220   20.7870  -32.4690 C   0  0  0  0  0  0  0  0  0  0  0  0
   -5.3900   19.7650  -33.4220 C   0  0  0  0  0  0  0  0  0  0  0  0
   -6.3030   16.3439  -33.0861 H   0  0  0  0  0  0  0  0  0  0  0  0
   -7.1495   15.8839  -34.6023 H   0  0  0  0  0  0  0  0  0  0  0  0
   -5.3678   16.1129  -34.6023 H   0  0  0  0  0  0  0  0  0  0  0  0
   -8.4480   18.3588  -32.8178 H   0  0  0  0  0  0  0  0  0  0  0  0
   -8.5022   20.1739  -31.1158 H   0  0  0  0  0  0  0  0  0  0  0  0
   -7.4390   21.8886  -29.9444 H   0  0  0  0  0  0  0  0  0  0  0  0
   -5.6231   22.0486  -30.0817 H   0  0  0  0  0  0  0  0  0  0  0  0
   -8.7012   23.4371  -31.9639 H   0  0  0  0  0  0  0  0  0  0  0  0
   -7.4936   24.3212  -32.9573 H   0  0  0  0  0  0  0  0  0  0  0  0
   -7.5146   22.5250  -32.9573 H   0  0  0  0  0  0  0  0  0  0  0  0
   -4.7391   23.2269  -31.8942 H   0  0  0  0  0  0  0  0  0  0  0  0
   -5.5928   24.7562  -32.3627 H   0  0  0  0  0  0  0  0  0  0  0  0
   -4.7370   25.8263  -30.5966 H   0  0  0  0  0  0  0  0  0  0  0  0
   -5.4306   24.5621  -29.4857 H   0  0  0  0  0  0  0  0  0  0  0  0
   -3.4633   23.3577  -29.3905 H   0  0  0  0  0  0  0  0  0  0  0  0
   -2.8725   23.9886  -30.9720 H   0  0  0  0  0  0  0  0  0  0  0  0
   -0.8619   27.4927  -27.6394 H   0  0  0  0  0  0  0  0  0  0  0  0
   -0.8442   26.2828  -23.4970 H   0  0  0  0  0  0  0  0  0  0  0  0
   -1.2600   24.0170  -24.2000 H   0  0  0  0  0  0  0  0  0  0  0  0
    0.4499   22.3304  -26.8582 H   0  0  0  0  0  0  0  0  0  0  0  0
   -0.3291   21.7582  -25.3785 H   0  0  0  0  0  0  0  0  0  0  0  0
   -0.4899   20.6726  -28.1562 H   0  0  0  0  0  0  0  0  0  0  0  0
   -0.8869   19.8539  -26.6356 H   0  0  0  0  0  0  0  0  0  0  0  0
   -2.7871   20.7320  -28.4809 H   0  0  0  0  0  0  0  0  0  0  0  0
   -3.1538   20.5024  -26.7641 H   0  0  0  0  0  0  0  0  0  0  0  0
   -2.7444   23.0391  -28.3113 H   0  0  0  0  0  0  0  0  0  0  0  0
   -3.6245   22.8140  -26.7963 H   0  0  0  0  0  0  0  0  0  0  0  0
   -4.5635   21.4673  -32.3684 H   0  0  0  0  0  0  0  0  0  0  0  0
   -4.5091   19.6488  -34.0705 H   0  0  0  0  0  0  0  0  0  0  0  0
  1  2  1  0
  2  3  1  0
  3  4  2  0
  4  5  1  0
  5  6  2  0
  6  7  1  0
  7  8  1  0
  8  9  1  0
  8 10  1  0
 10 11  1  0
 11 12  1  0
 12 13  1  0
 13 14  1  0
 14 15  2  0
 14 16  1  0
 16 17  2  0
 17 18  1  0
 18 19  1  0
 18 20  2  0
 20 21  1  0
 21 22  2  0
 22 23  1  0
 23 24  1  0
 24 25  1  0
 25 26  1  0
 26 27  1  0
  6 28  1  0
 28 29  2  0
 29  3  1  0
 22 16  1  0
 27 23  1  0
  1 30  1  0
  1 31  1  0
  1 32  1  0
  4 33  1  0
  5 34  1  0
  7 35  1  0
  7 36  1  0
  9 37  1  0
  9 38  1  0
  9 39  1  0
 10 40  1  0
 10 41  1  0
 11 42  1  0
 11 43  1  0
 12 44  1  0
 12 45  1  0
 17 46  1  0
 20 47  1  0
 21 48  1  0
 24 49  1  0
 24 50  1  0
 25 51  1  0
 25 52  1  0
 26 53  1  0
 26 54  1  0
 27 55  1  0
 27 56  1  0
 28 57  1  0
 29 58  1  0
M  CHG  2  13  -1  21   1
M  END
>  <UniqueID>  (40) 
39

>  <SMILES>  (40) 
COc1ccc(CN(C)CCC[N-]C(=O)c2cc(Br)c[nH+]c2N2CCCC2)cc1

>  <Energy>  (40) 
66.23652284333548

>  <Genealogy>  (40) 
COc1ccc(CN(C)CCC[N-]C(=O)c2cc(Br)c[nH+]c2N2CCCC2)cc1 (protonated)
COc1ccc(CN(C)CCC[N-]C(=O)c2cc(Br)c[nH+]c2N2CCCC2)cc1 (3D coordinates assigned)
COc1ccc(CN(C)CCC[N-]C(=O)c2cc(Br)c[nH+]c2N2CCCC2)cc1 (nonaromatic ring conformer: 66.23652284333548 kcal/mol)

>  <smiles>  (40) 
COc1ccc(CN(C)CCCNC(=O)c2cc(Br)cnc2N2CCCC2)cc1

>  <score_type>  (40) 
oracle

>  <origin>  (40) 
adg

>  <m_score__min__energy>  (40) 
-9.9499999999999993

>  <m_primary>  (40) 
energy

$$$$
40:0
     RDKit          3D

 57 58  0  0  0  0  0  0  0  0999 V2000
   -6.0850   25.3210  -29.6920 C   0  0  0  0  0  0  0  0  0  0  0  0
   -5.0580   25.2460  -30.8340 C   0  0  0  0  0  0  0  0  0  0  0  0
   -4.6680   23.8650  -31.2010 N   0  0  0  0  0  0  0  0  0  0  0  0
   -5.8290   22.9540  -31.3280 C   0  0  0  0  0  0  0  0  0  0  0  0
   -6.8030   23.5180  -32.3550 C   0  0  0  0  0  0  0  0  0  0  0  0
   -3.5860   23.3240  -30.3500 C   0  0  0  0  0  0  0  0  0  0  0  0
   -3.0790   21.9890  -30.9080 C   0  0  0  0  0  0  0  0  0  0  0  0
   -3.2010   21.9580  -32.3620 N   0  0  0  0  0  0  0  0  0  0  0  0
   -2.4710   21.0110  -33.1420 C   0  0  0  0  0  0  0  0  0  0  0  0
   -2.6450   19.6750  -33.4550 C   0  0  0  0  0  0  0  0  0  0  0  0
   -3.6360   18.6870  -33.1470 N   0  0  0  0  0  0  0  0  0  0  0  0
   -3.9710   17.8730  -34.3290 C   0  0  0  0  0  0  0  0  0  0  0  0
   -5.4030   18.1070  -34.8590 C   0  0  0  0  0  0  0  0  0  0  0  0
   -6.5120   17.8160  -33.8400 C   0  0  0  0  0  0  0  0  0  0  0  0
   -6.3950   18.7250  -32.6730 N   0  0  0  0  0  0  0  0  0  0  0  0
   -6.7620   20.1340  -32.9700 C   0  0  0  0  0  0  0  0  0  0  0  0
   -8.2050   20.5060  -32.5630 C   0  0  0  0  0  0  0  0  0  0  0  0
   -9.1260   19.2870  -32.5670 C   0  0  0  0  0  0  0  0  0  0  0  0
   -8.6110   18.1930  -31.6200 C   0  0  0  0  0  0  0  0  0  0  0  0
   -7.0740   18.2080  -31.4670 C   0  0  0  0  0  0  0  0  0  0  0  0
   -1.4980   19.7070  -34.2260 C   0  0  0  0  0  0  0  0  0  0  0  0
   -0.8770   18.8700  -34.9300 O   0  0  0  0  0  0  0  0  0  0  0  0
   -1.3180   21.0380  -33.9060 C   0  0  0  0  0  0  0  0  0  0  0  0
   -0.4630   21.9150  -34.1960 O   0  0  0  0  0  0  0  0  0  0  0  0
   -5.5617   25.2828  -28.7252 H   0  0  0  0  0  0  0  0  0  0  0  0
   -6.6486   26.2627  -29.7669 H   0  0  0  0  0  0  0  0  0  0  0  0
   -6.7794   24.4712  -29.7669 H   0  0  0  0  0  0  0  0  0  0  0  0
   -5.4908   25.7310  -31.7214 H   0  0  0  0  0  0  0  0  0  0  0  0
   -4.1477   25.7509  -30.4783 H   0  0  0  0  0  0  0  0  0  0  0  0
   -5.4836   21.9623  -31.6554 H   0  0  0  0  0  0  0  0  0  0  0  0
   -6.3329   22.8621  -30.3545 H   0  0  0  0  0  0  0  0  0  0  0  0
   -7.6423   24.0040  -31.8361 H   0  0  0  0  0  0  0  0  0  0  0  0
   -6.2849   24.2558  -32.9852 H   0  0  0  0  0  0  0  0  0  0  0  0
   -7.1850   22.7013  -32.9852 H   0  0  0  0  0  0  0  0  0  0  0  0
   -2.7543   24.0434  -30.3214 H   0  0  0  0  0  0  0  0  0  0  0  0
   -3.9802   23.1586  -29.3365 H   0  0  0  0  0  0  0  0  0  0  0  0
   -2.0222   21.8601  -30.6315 H   0  0  0  0  0  0  0  0  0  0  0  0
   -3.6862   21.1753  -30.4847 H   0  0  0  0  0  0  0  0  0  0  0  0
   -3.8040   22.6490  -32.8620 H   0  0  0  0  0  0  0  0  0  0  0  0
   -3.2460   18.0580  -32.4070 H   0  0  0  0  0  0  0  0  0  0  0  0
   -4.4840   19.1540  -32.7570 H   0  0  0  0  0  0  0  0  0  0  0  0
   -3.2595   18.1171  -35.1316 H   0  0  0  0  0  0  0  0  0  0  0  0
   -3.9108   16.8188  -34.0207 H   0  0  0  0  0  0  0  0  0  0  0  0
   -5.4876   19.1592  -35.1682 H   0  0  0  0  0  0  0  0  0  0  0  0
   -5.5486   17.4021  -35.6909 H   0  0  0  0  0  0  0  0  0  0  0  0
   -7.4914   17.9646  -34.3182 H   0  0  0  0  0  0  0  0  0  0  0  0
   -6.4138   16.7766  -33.4934 H   0  0  0  0  0  0  0  0  0  0  0  0
   -6.0686   20.7938  -32.4279 H   0  0  0  0  0  0  0  0  0  0  0  0
   -6.6972   20.2568  -34.0612 H   0  0  0  0  0  0  0  0  0  0  0  0
   -8.1898   20.9379  -31.5514 H   0  0  0  0  0  0  0  0  0  0  0  0
   -8.5917   21.2300  -33.2953 H   0  0  0  0  0  0  0  0  0  0  0  0
  -10.1308   19.5965  -32.2436 H   0  0  0  0  0  0  0  0  0  0  0  0
   -9.1536   18.8770  -33.5874 H   0  0  0  0  0  0  0  0  0  0  0  0
   -9.0642   18.3441  -30.6292 H   0  0  0  0  0  0  0  0  0  0  0  0
   -8.8910   17.2215  -32.0533 H   0  0  0  0  0  0  0  0  0  0  0  0
   -6.8100   18.8468  -30.6113 H   0  0  0  0  0  0  0  0  0  0  0  0
   -6.7413   17.1710  -31.3123 H   0  0  0  0  0  0  0  0  0  0  0  0
  1  2  1  0
  2  3  1  0
  3  4  1  0
  4  5  1  0
  3  6  1  0
  6  7  1  0
  7  8  1  0
  8  9  1  0
  9 10  2  0
 10 11  1  0
 11 12  1  0
 12 13  1  0
 13 14  1  0
 14 15  1  0
 15 16  1  0
 16 17  1  0
 17 18  1  0
 18 19  1  0
 19 20  1  0
 10 21  1  0
 21 22  2  0
 21 23  1  0
 23 24  2  0
 23  9  1  0
 20 15  1  0
  1 25  1  0
  1 26  1  0
  1 27  1  0
  2 28  1  0
  2 29  1  0
  4 30  1  0
  4 31  1  0
  5 32  1  0
  5 33  1  0
  5 34  1  0
  6 35  1  0
  6 36  1  0
  7 37  1  0
  7 38  1  0
  8 39  1  0
 11 40  1  0
 11 41  1  0
 12 42  1  0
 12 43  1  0
 13 44  1  0
 13 45  1  0
 14 46  1  0
 14 47  1  0
 16 48  1  0
 16 49  1  0
 17 50  1  0
 17 51  1  0
 18 52  1  0
 18 53  1  0
 19 54  1  0
 19 55  1  0
 20 56  1  0
 20 57  1  0
M  CHG  1  11   1
M  END
>  <UniqueID>  (41) 
40

>  <SMILES>  (41) 
CCN(CC)CCNc1c([NH2+]CCCN2CCCCC2)c(=O)c1=O

>  <Energy>  (41) 
48.897772130307224

>  <Genealogy>  (41) 
CCN(CC)CCNc1c([NH2+]CCCN2CCCCC2)c(=O)c1=O (protonated)
CCN(CC)CCNc1c([NH2+]CCCN2CCCCC2)c(=O)c1=O (3D coordinates assigned)
CCN(CC)CCNc1c([NH2+]CCCN2CCCCC2)c(=O)c1=O (nonaromatic ring conformer: 48.897772130307224 kcal/mol)

>  <smiles>  (41) 
CCN(CC)CCNc1c(NCCCN2CCCCC2)c(=O)c1=O

>  <score_type>  (41) 
oracle

>  <origin>  (41) 
adg

>  <m_score__min__energy>  (41) 
-6.9500000000000002

>  <m_primary>  (41) 
energy

$$$$
41:0
     RDKit          3D

 28 28  0  0  0  0  0  0  0  0999 V2000
   -2.9530   23.7550  -30.0430 C   0  0  0  0  0  0  0  0  0  0  0  0
   -3.5510   24.9740  -30.4660 O   0  0  0  0  0  0  0  0  0  0  0  0
   -4.9280   25.2010  -30.3940 C   0  0  0  0  0  0  0  0  0  0  0  0
   -5.3970   26.3660  -30.5220 O   0  0  0  0  0  0  0  0  0  0  0  0
   -5.8510   24.0540  -30.1190 C   0  0  0  0  0  0  0  0  0  0  0  0
   -7.0160   24.0180  -31.1170 C   0  0  0  0  0  0  0  0  0  0  0  0
   -7.2660   22.6220  -31.6390 C   0  0  0  0  0  0  0  0  0  0  0  0
   -8.5340   22.0390  -31.4740 C   0  0  0  0  0  0  0  0  0  0  0  0
   -8.7960   20.7640  -31.9760 C   0  0  0  0  0  0  0  0  0  0  0  0
   -7.8000   20.0600  -32.6510 C   0  0  0  0  0  0  0  0  0  0  0  0
   -6.5370   20.6290  -32.8310 C   0  0  0  0  0  0  0  0  0  0  0  0
   -6.2580   21.9180  -32.3320 C   0  0  0  0  0  0  0  0  0  0  0  0
   -5.0020   22.5220  -32.5070 O   0  0  0  0  0  0  0  0  0  0  0  0
   -3.8680   21.8780  -33.0760 C   0  0  0  0  0  0  0  0  0  0  0  0
   -2.9347   23.7177  -28.9438 H   0  0  0  0  0  0  0  0  0  0  0  0
   -3.5372   22.9067  -30.4290 H   0  0  0  0  0  0  0  0  0  0  0  0
   -1.9245   23.6978  -30.4290 H   0  0  0  0  0  0  0  0  0  0  0  0
   -5.2854   23.1137  -30.1958 H   0  0  0  0  0  0  0  0  0  0  0  0
   -6.2662   24.1798  -29.1082 H   0  0  0  0  0  0  0  0  0  0  0  0
   -7.9260   24.3785  -30.6150 H   0  0  0  0  0  0  0  0  0  0  0  0
   -6.7542   24.6601  -31.9709 H   0  0  0  0  0  0  0  0  0  0  0  0
   -9.3250   22.5915  -30.9457 H   0  0  0  0  0  0  0  0  0  0  0  0
   -9.7901   20.3135  -31.8390 H   0  0  0  0  0  0  0  0  0  0  0  0
   -8.0092   19.0537  -33.0429 H   0  0  0  0  0  0  0  0  0  0  0  0
   -5.7557   20.0684  -33.3650 H   0  0  0  0  0  0  0  0  0  0  0  0
   -3.2151   21.5072  -32.2721 H   0  0  0  0  0  0  0  0  0  0  0  0
   -4.1996   21.0335  -33.6979 H   0  0  0  0  0  0  0  0  0  0  0  0
   -3.3126   22.5954  -33.6979 H   0  0  0  0  0  0  0  0  0  0  0  0
  1  2  1  0
  2  3  1  0
  3  4  2  0
  3  5  1  0
  5  6  1  0
  6  7  1  0
  7  8  2  0
  8  9  1  0
  9 10  2  0
 10 11  1  0
 11 12  2  0
 12 13  1  0
 13 14  1  0
 12  7  1  0
  1 15  1  0
  1 16  1  0
  1 17  1  0
  5 18  1  0
  5 19  1  0
  6 20  1  0
  6 21  1  0
  8 22  1  0
  9 23  1  0
 10 24  1  0
 11 25  1  0
 14 26  1  0
 14 27  1  0
 14 28  1  0
M  END
>  <UniqueID>  (42) 
41

>  <SMILES>  (42) 
COC(=O)CCc1ccccc1OC

>  <Energy>  (42) 
19.760170346525406

>  <Genealogy>  (42) 
COC(=O)CCc1ccccc1OC (3D coordinates assigned)
COC(=O)CCc1ccccc1OC (optimized conformer: 19.760170346525406 kcal/mol)

>  <smiles>  (42) 
COC(=O)CCc1ccccc1OC

>  <score_type>  (42) 
oracle

>  <origin>  (42) 
adg

>  <m_score__min__energy>  (42) 
-5.9199999999999999

>  <m_primary>  (42) 
energy

$$$$
42:0
     RDKit          3D

 33 35  0  0  0  0  0  0  0  0999 V2000
   -3.0300   16.3380  -35.1360 C   0  0  0  0  0  0  0  0  0  0  0  0
   -4.4130   16.6240  -35.3170 O   0  0  0  0  0  0  0  0  0  0  0  0
   -5.1720   17.4440  -34.4680 C   0  0  0  0  0  0  0  0  0  0  0  0
   -4.7420   18.7430  -34.1040 C   0  0  0  0  0  0  0  0  0  0  0  0
   -5.5400   19.5080  -33.2570 C   0  0  0  0  0  0  0  0  0  0  0  0
   -5.2330   20.7640  -32.8420 N   0  0  0  0  0  0  0  0  0  0  0  0
   -6.1920   21.2650  -32.0220 C   0  0  0  0  0  0  0  0  0  0  0  0
   -6.1190   22.6170  -31.4210 C   0  0  0  0  0  0  0  0  0  0  0  0
   -7.2960   23.2800  -31.0290 C   0  0  0  0  0  0  0  0  0  0  0  0
   -7.2370   24.5550  -30.4610 C   0  0  0  0  0  0  0  0  0  0  0  0
   -6.0050   25.1890  -30.2750 C   0  0  0  0  0  0  0  0  0  0  0  0
   -5.9700   26.4610  -29.7070 O   0  0  0  0  0  0  0  0  0  0  0  0
   -4.8250   24.5370  -30.6620 C   0  0  0  0  0  0  0  0  0  0  0  0
   -3.6210   25.1380  -30.4910 F   0  0  0  0  0  0  0  0  0  0  0  0
   -4.8820   23.2610  -31.2320 C   0  0  0  0  0  0  0  0  0  0  0  0
   -7.4560   20.1530  -31.7920 S   0  0  0  0  0  0  0  0  0  0  0  0
   -6.7340   19.0040  -32.7770 C   0  0  0  0  0  0  0  0  0  0  0  0
   -7.1890   17.7340  -33.1100 C   0  0  0  0  0  0  0  0  0  0  0  0
   -6.3960   16.9390  -33.9690 C   0  0  0  0  0  0  0  0  0  0  0  0
   -6.7880   15.6460  -34.3510 O   0  0  0  0  0  0  0  0  0  0  0  0
   -6.0370   14.4660  -34.0880 C   0  0  0  0  0  0  0  0  0  0  0  0
   -2.8030   16.2910  -34.0607 H   0  0  0  0  0  0  0  0  0  0  0  0
   -2.7912   15.3715  -35.6037 H   0  0  0  0  0  0  0  0  0  0  0  0
   -2.4274   17.1305  -35.6037 H   0  0  0  0  0  0  0  0  0  0  0  0
   -3.7906   19.1425  -34.4850 H   0  0  0  0  0  0  0  0  0  0  0  0
   -8.2709   22.7906  -31.1708 H   0  0  0  0  0  0  0  0  0  0  0  0
   -8.1648   25.0627  -30.1585 H   0  0  0  0  0  0  0  0  0  0  0  0
   -5.7700   26.6030  -28.7240 H   0  0  0  0  0  0  0  0  0  0  0  0
   -3.9525   22.7568  -31.5350 H   0  0  0  0  0  0  0  0  0  0  0  0
   -8.1435   17.3562  -32.7147 H   0  0  0  0  0  0  0  0  0  0  0  0
   -5.9464   14.3237  -33.0010 H   0  0  0  0  0  0  0  0  0  0  0  0
   -6.5498   13.5989  -34.5299 H   0  0  0  0  0  0  0  0  0  0  0  0
   -5.0344   14.5634  -34.5299 H   0  0  0  0  0  0  0  0  0  0  0  0
  1  2  1  0
  2  3  1  0
  3  4  2  0
  4  5  1  0
  5  6  1  0
  6  7  2  0
  7  8  1  0
  8  9  2  0
  9 10  1  0
 10 11  2  0
 11 12  1  0
 11 13  1  0
 13 14  1  0
 13 15  2  0
  7 16  1  0
 16 17  1  0
 17 18  1  0
 18 19  2  0
 19 20  1  0
 20 21  1  0
 19  3  1  0
 17  5  2  0
 15  8  1  0
  1 22  1  0
  1 23  1  0
  1 24  1  0
  4 25  1  0
  9 26  1  0
 10 27  1  0
 12 28  1  0
 15 29  1  0
 18 30  1  0
 21 31  1  0
 21 32  1  0
 21 33  1  0
M  END
>  <UniqueID>  (43) 
42

>  <SMILES>  (43) 
COc1cc2nc(-c3ccc(O)c(F)c3)sc2cc1OC

>  <Energy>  (43) 
69.79343606722485

>  <Genealogy>  (43) 
COc1cc2nc(-c3ccc(O)c(F)c3)sc2cc1OC (3D coordinates assigned)
COc1cc2nc(-c3ccc(O)c(F)c3)sc2cc1OC (optimized conformer: 69.79343606722485 kcal/mol)

>  <smiles>  (43) 
COc1cc2nc(-c3ccc(O)c(F)c3)sc2cc1OC

>  <score_type>  (43) 
oracle

>  <origin>  (43) 
adg

>  <m_score__min__energy>  (43) 
-6.7300000000000004

>  <m_primary>  (43) 
energy

$$$$
43:0
     RDKit          3D

 49 52  0  0  1  0  0  0  0  0999 V2000
   -5.6250   16.3530  -32.5220 C   0  0  0  0  0  0  0  0  0  0  0  0
   -6.6110   16.9760  -33.3320 O   0  0  0  0  0  0  0  0  0  0  0  0
   -7.2440   18.1550  -32.9920 C   0  0  0  0  0  0  0  0  0  0  0  0
   -8.4750   18.1860  -32.3350 C   0  0  0  0  0  0  0  0  0  0  0  0
   -9.0750   19.3910  -32.0130 C   0  0  0  0  0  0  0  0  0  0  0  0
   -8.4470   20.5940  -32.3480 C   0  0  0  0  0  0  0  0  0  0  0  0
   -9.1880   22.1300  -31.9530 Cl  0  0  0  0  0  0  0  0  0  0  0  0
   -7.2230   20.5790  -33.0030 C   0  0  0  0  0  0  0  0  0  0  0  0
   -6.6370   19.3610  -33.3170 C   0  0  0  0  0  0  0  0  0  0  0  0
   -5.3640   19.3090  -34.0000 N   0  0  0  0  0  0  0  0  0  0  0  0
   -4.2590   19.4240  -33.3440 C   0  0  0  0  0  0  0  0  0  0  0  0
   -3.9880   20.5860  -32.6060 C   0  0  0  0  0  0  0  0  0  0  0  0
   -2.7990   20.6990  -31.9090 C   0  0  0  0  0  0  0  0  0  0  0  0
   -1.8680   19.7420  -31.8960 N   0  0  0  0  0  0  0  0  0  0  0  0
   -2.1660   18.6210  -32.6280 C   0  0  0  0  0  0  0  0  0  0  0  0
   -1.3500   17.6500  -32.6840 O   0  0  0  0  0  0  0  0  0  0  0  0
   -3.3050   18.4830  -33.3120 N   0  0  0  0  0  0  0  0  0  0  0  0
   -0.6190   19.7340  -31.2310 C   0  0  0  0  0  0  0  0  0  0  0  0
   -0.2990   20.9360  -30.4290 C   0  0  0  0  0  0  0  0  0  0  0  0
   -1.3350   21.9610  -30.4660 C   0  0  0  0  0  0  0  0  0  0  0  0
   -1.0960   23.1220  -29.7400 C   0  0  0  0  0  0  0  0  0  0  0  0
   -1.9730   24.1740  -29.6740 C   0  0  0  0  0  0  0  0  0  0  0  0
   -1.7370   25.3330  -28.9480 O   0  0  0  0  0  0  0  0  0  0  0  0
   -1.5620   25.4050  -27.5590 C   0  0  0  0  0  0  0  0  0  0  0  0
   -3.1670   24.1020  -30.3580 C   0  0  0  0  0  0  0  0  0  0  0  0
   -4.0710   25.1610  -30.3030 O   0  0  0  0  0  0  0  0  0  0  0  0
   -5.4140   24.8470  -29.9840 C   0  0  0  0  0  0  0  0  0  0  0  0
   -3.4390   22.9460  -31.1000 C   0  0  0  0  0  0  0  0  0  0  0  0
   -2.5280   21.9050  -31.1420 C   0  0  0  0  0  0  0  0  0  0  0  0
   -5.8705   16.5081  -31.4610 H   0  0  0  0  0  0  0  0  0  0  0  0
   -5.6001   15.2749  -32.7388 H   0  0  0  0  0  0  0  0  0  0  0  0
   -4.6406   16.7934  -32.7388 H   0  0  0  0  0  0  0  0  0  0  0  0
   -8.9740   17.2421  -32.0701 H   0  0  0  0  0  0  0  0  0  0  0  0
  -10.0449   19.4019  -31.4941 H   0  0  0  0  0  0  0  0  0  0  0  0
   -6.7234   21.5219  -33.2700 H   0  0  0  0  0  0  0  0  0  0  0  0
   -4.7205   21.4063  -32.5818 H   0  0  0  0  0  0  0  0  0  0  0  0
   -3.4870   17.5930  -33.8630 H   0  0  0  0  0  0  0  0  0  0  0  0
   -0.6037   18.8659  -30.5556 H   0  0  0  0  0  0  0  0  0  0  0  0
    0.1389   19.7008  -32.0276 H   0  0  0  0  0  0  0  0  0  0  0  0
   -0.1543   20.6268  -29.3833 H   0  0  0  0  0  0  0  0  0  0  0  0
    0.6073   21.3807  -30.8659 H   0  0  0  0  0  0  0  0  0  0  0  0
   -0.1487   23.2014  -29.1865 H   0  0  0  0  0  0  0  0  0  0  0  0
   -2.4665   25.0328  -27.0557 H   0  0  0  0  0  0  0  0  0  0  0  0
   -0.6993   24.7887  -27.2657 H   0  0  0  0  0  0  0  0  0  0  0  0
   -1.3828   26.4499  -27.2657 H   0  0  0  0  0  0  0  0  0  0  0  0
   -5.5343   24.8189  -28.8910 H   0  0  0  0  0  0  0  0  0  0  0  0
   -6.0801   25.6136  -30.4066 H   0  0  0  0  0  0  0  0  0  0  0  0
   -5.6712   23.8645  -30.4066 H   0  0  0  0  0  0  0  0  0  0  0  0
   -4.3855   22.8646  -31.6546 H   0  0  0  0  0  0  0  0  0  0  0  0
  1  2  1  0
  2  3  1  0
  3  4  2  0
  4  5  1  0
  5  6  2  0
  6  7  1  0
  6  8  1  0
  8  9  2  0
  9 10  1  0
 10 11  2  0
 11 12  1  0
 12 13  2  0
 13 14  1  0
 14 15  1  0
 15 16  2  0
 15 17  1  0
 14 18  1  0
 18 19  1  0
 19 20  1  0
 20 21  2  0
 21 22  1  0
 22 23  1  0
 23 24  1  0
 22 25  2  0
 25 26  1  0
 26 27  1  0
 25 28  1  0
 28 29  2  0
  9  3  1  0
 17 11  1  0
 29 20  1  0
 29 13  1  0
  1 30  1  0
  1 31  1  0
  1 32  1  0
  4 33  1  0
  5 34  1  0
  8 35  1  0
 12 36  1  0
 17 37  1  0
 18 38  1  0
 18 39  1  0
 19 40  1  0
 19 41  1  0
 21 42  1  0
 24 43  1  0
 24 44  1  0
 24 45  1  0
 27 46  1  0
 27 47  1  0
 27 48  1  0
 28 49  1  0
M  END
>  <smiles>  (44) 
COc1ccc(Cl)cc1N=c1cc2n(c(=O)[nH]1)CCc1cc(OC)c(OC)cc1-2

>  <score_type>  (44) 
oracle

>  <origin>  (44) 
adg

>  <m_score__min__energy>  (44) 
-9.2200000000000006

>  <m_primary>  (44) 
energy

$$$$
44:0
     RDKit          3D

 58 62  0  0  0  0  0  0  0  0999 V2000
    2.2070   24.5300  -25.8280 C   0  0  0  0  0  0  0  0  0  0  0  0
    0.9370   25.1830  -25.3840 C   0  0  0  0  0  0  0  0  0  0  0  0
   -0.2820   24.8470  -25.9880 C   0  0  0  0  0  0  0  0  0  0  0  0
   -1.4660   25.4840  -25.5730 C   0  0  0  0  0  0  0  0  0  0  0  0
   -2.7770   25.1580  -26.1860 C   0  0  0  0  0  0  0  0  0  0  0  0
   -2.9100   24.6190  -27.4190 N   0  0  0  0  0  0  0  0  0  0  0  0
   -4.2500   24.4990  -27.5260 C   0  0  0  0  0  0  0  0  0  0  0  0
   -4.9460   23.9420  -28.7350 C   0  0  0  0  0  0  0  0  0  0  0  0
   -5.8730   24.9960  -29.3610 C   0  0  0  0  0  0  0  0  0  0  0  0
   -6.6010   24.4470  -30.6090 C   0  0  0  0  0  0  0  0  0  0  0  0
   -5.9950   23.1900  -31.1000 N   0  0  0  0  0  0  0  0  0  0  0  0
   -6.6180   22.6910  -32.3460 C   0  0  0  0  0  0  0  0  0  0  0  0
   -6.4510   21.2000  -32.5640 C   0  0  0  0  0  0  0  0  0  0  0  0
   -7.5370   20.3300  -32.3930 C   0  0  0  0  0  0  0  0  0  0  0  0
   -7.3820   18.9550  -32.5920 C   0  0  0  0  0  0  0  0  0  0  0  0
   -6.1370   18.4250  -32.9760 C   0  0  0  0  0  0  0  0  0  0  0  0
   -5.9720   16.9640  -33.1870 C   0  0  0  0  0  0  0  0  0  0  0  0
   -6.8610   16.2560  -34.0190 C   0  0  0  0  0  0  0  0  0  0  0  0
   -6.7040   14.8800  -34.2140 C   0  0  0  0  0  0  0  0  0  0  0  0
   -5.6620   14.1970  -33.5850 C   0  0  0  0  0  0  0  0  0  0  0  0
   -4.7720   14.8870  -32.7580 C   0  0  0  0  0  0  0  0  0  0  0  0
   -4.9240   16.2640  -32.5590 C   0  0  0  0  0  0  0  0  0  0  0  0
   -5.0540   19.3010  -33.1610 C   0  0  0  0  0  0  0  0  0  0  0  0
   -5.2110   20.6760  -32.9610 C   0  0  0  0  0  0  0  0  0  0  0  0
   -4.5260   23.2910  -31.1790 C   0  0  0  0  0  0  0  0  0  0  0  0
   -3.9200   23.4310  -29.7680 C   0  0  0  0  0  0  0  0  0  0  0  0
   -4.8630   24.9280  -26.4490 O   0  0  0  0  0  0  0  0  0  0  0  0
   -3.9770   25.3430  -25.6000 N   0  0  0  0  0  0  0  0  0  0  0  0
   -1.3900   26.4480  -24.5540 C   0  0  0  0  0  0  0  0  0  0  0  0
   -0.1550   26.7610  -23.9840 C   0  0  0  0  0  0  0  0  0  0  0  0
    0.9710   26.1310  -24.4080 N   0  0  0  0  0  0  0  0  0  0  0  0
    2.7922   24.2291  -24.9465 H   0  0  0  0  0  0  0  0  0  0  0  0
    1.9708   23.6415  -26.4320 H   0  0  0  0  0  0  0  0  0  0  0  0
    2.7922   25.2390  -26.4320 H   0  0  0  0  0  0  0  0  0  0  0  0
   -0.3132   24.0881  -26.7836 H   0  0  0  0  0  0  0  0  0  0  0  0
   -5.5632   23.0894  -28.4154 H   0  0  0  0  0  0  0  0  0  0  0  0
   -6.6227   25.2994  -28.6155 H   0  0  0  0  0  0  0  0  0  0  0  0
   -5.2576   25.8531  -29.6720 H   0  0  0  0  0  0  0  0  0  0  0  0
   -7.6530   24.2560  -30.3504 H   0  0  0  0  0  0  0  0  0  0  0  0
   -6.5159   25.1982  -31.4080 H   0  0  0  0  0  0  0  0  0  0  0  0
   -7.6939   22.9170  -32.3095 H   0  0  0  0  0  0  0  0  0  0  0  0
   -6.1080   23.1940  -33.1807 H   0  0  0  0  0  0  0  0  0  0  0  0
   -8.5181   20.7322  -32.1002 H   0  0  0  0  0  0  0  0  0  0  0  0
   -8.2403   18.2824  -32.4472 H   0  0  0  0  0  0  0  0  0  0  0  0
   -7.6838   16.7885  -34.5184 H   0  0  0  0  0  0  0  0  0  0  0  0
   -7.4035   14.3347  -34.8647 H   0  0  0  0  0  0  0  0  0  0  0  0
   -5.5414   13.1147  -33.7404 H   0  0  0  0  0  0  0  0  0  0  0  0
   -3.9511   14.3475  -32.2629 H   0  0  0  0  0  0  0  0  0  0  0  0
   -4.2202   16.8029  -31.9077 H   0  0  0  0  0  0  0  0  0  0  0  0
   -4.0752   18.9020  -33.4655 H   0  0  0  0  0  0  0  0  0  0  0  0
   -4.3568   21.3516  -33.1159 H   0  0  0  0  0  0  0  0  0  0  0  0
   -4.1256   22.3849  -31.6571 H   0  0  0  0  0  0  0  0  0  0  0  0
   -4.2608   24.1794  -31.7709 H   0  0  0  0  0  0  0  0  0  0  0  0
   -3.5513   22.4470  -29.4427 H   0  0  0  0  0  0  0  0  0  0  0  0
   -3.1055   24.1682  -29.8245 H   0  0  0  0  0  0  0  0  0  0  0  0
   -4.1940   25.7280  -24.6550 H   0  0  0  0  0  0  0  0  0  0  0  0
   -2.3020   26.9552  -24.2060 H   0  0  0  0  0  0  0  0  0  0  0  0
   -0.0935   27.5195  -23.1897 H   0  0  0  0  0  0  0  0  0  0  0  0
  1  2  1  0
  2  3  2  0
  3  4  1  0
  4  5  1  0
  5  6  1  0
  6  7  2  0
  7  8  1  0
  8  9  1  0
  9 10  1  0
 10 11  1  0
 11 12  1  0
 12 13  1  0
 13 14  2  0
 14 15  1  0
 15 16  2  0
 16 17  1  0
 17 18  2  0
 18 19  1  0
 19 20  2  0
 20 21  1  0
 21 22  2  0
 16 23  1  0
 23 24  2  0
 11 25  1  0
 25 26  1  0
  7 27  1  0
 27 28  1  0
  4 29  2  0
 29 30  1  0
 30 31  2  0
 31  2  1  0
 28  5  2  0
 26  8  1  0
 24 13  1  0
 22 17  1  0
  1 32  1  0
  1 33  1  0
  1 34  1  0
  3 35  1  0
  8 36  1  0
  9 37  1  0
  9 38  1  0
 10 39  1  0
 10 40  1  0
 12 41  1  0
 12 42  1  0
 14 43  1  0
 15 44  1  0
 18 45  1  0
 19 46  1  0
 20 47  1  0
 21 48  1  0
 22 49  1  0
 23 50  1  0
 24 51  1  0
 25 52  1  0
 25 53  1  0
 26 54  1  0
 26 55  1  0
 28 56  1  0
 29 57  1  0
 30 58  1  0
M  CHG  1  28   1
M  END
>  <UniqueID>  (45) 
43

>  <SMILES>  (45) 
Cc1cc(-c2nc(C3CCN(Cc4ccc(-c5ccccc5)cc4)CC3)o[nH+]2)ccn1

>  <Energy>  (45) 
110.81816517600372

>  <Genealogy>  (45) 
Cc1cc(-c2nc(C3CCN(Cc4ccc(-c5ccccc5)cc4)CC3)o[nH+]2)ccn1 (protonated)
Cc1cc(-c2nc(C3CCN(Cc4ccc(-c5ccccc5)cc4)CC3)o[nH+]2)ccn1 (3D coordinates assigned)
Cc1cc(-c2nc(C3CCN(Cc4ccc(-c5ccccc5)cc4)CC3)o[nH+]2)ccn1 (nonaromatic ring conformer: 110.81816517600372 kcal/mol)

>  <smiles>  (45) 
Cc1cc(-c2noc(C3CCN(Cc4ccc(-c5ccccc5)cc4)CC3)n2)ccn1

>  <score_type>  (45) 
oracle

>  <origin>  (45) 
adg

>  <m_score__min__energy>  (45) 
-9.4700000000000006

>  <m_primary>  (45) 
energy

$$$$
45:0
     RDKit          3D

 53 55  0  0  0  0  0  0  0  0999 V2000
   -9.0910   18.3600  -31.6230 C   0  0  0  0  0  0  0  0  0  0  0  0
   -7.5760   18.5490  -31.6590 C   0  0  0  0  0  0  0  0  0  0  0  0
   -7.2420   19.9730  -31.8950 N   0  0  0  0  0  0  0  0  0  0  0  0
   -6.9360   20.2280  -33.3240 C   0  0  0  0  0  0  0  0  0  0  0  0
   -6.2030   19.0410  -33.9430 C   0  0  0  0  0  0  0  0  0  0  0  0
   -8.3250   20.8670  -31.4210 C   0  0  0  0  0  0  0  0  0  0  0  0
   -7.7280   22.2070  -30.9700 C   0  0  0  0  0  0  0  0  0  0  0  0
   -7.8980   23.2990  -32.0350 C   0  0  0  0  0  0  0  0  0  0  0  0
   -6.6300   23.5800  -32.7090 N   0  0  0  0  0  0  0  0  0  0  0  0
   -5.3620   23.1750  -32.1720 C   0  0  0  0  0  0  0  0  0  0  0  0
   -4.9230   23.6900  -30.9920 N   0  0  0  0  0  0  0  0  0  0  0  0
   -3.7330   23.3280  -30.4510 C   0  0  0  0  0  0  0  0  0  0  0  0
   -3.3240   23.9250  -29.1620 C   0  0  0  0  0  0  0  0  0  0  0  0
   -4.0100   23.8880  -27.9480 C   0  0  0  0  0  0  0  0  0  0  0  0
   -3.3520   24.5650  -26.9170 C   0  0  0  0  0  0  0  0  0  0  0  0
   -2.1510   25.1430  -27.3020 C   0  0  0  0  0  0  0  0  0  0  0  0
   -1.9110   24.8080  -28.9300 S   0  0  0  0  0  0  0  0  0  0  0  0
   -2.9280   22.4070  -31.1340 C   0  0  0  0  0  0  0  0  0  0  0  0
   -3.3800   21.8750  -32.3520 C   0  0  0  0  0  0  0  0  0  0  0  0
   -2.5490   20.8950  -33.1020 C   0  0  0  0  0  0  0  0  0  0  0  0
   -1.2560   21.2360  -33.5450 C   0  0  0  0  0  0  0  0  0  0  0  0
   -0.4780   20.3070  -34.2420 C   0  0  0  0  0  0  0  0  0  0  0  0
   -0.9760   19.0280  -34.5010 C   0  0  0  0  0  0  0  0  0  0  0  0
   -2.2540   18.6760  -34.0650 C   0  0  0  0  0  0  0  0  0  0  0  0
   -3.0390   19.6010  -33.3680 C   0  0  0  0  0  0  0  0  0  0  0  0
   -4.5930   22.2710  -32.8400 N   0  0  0  0  0  0  0  0  0  0  0  0
   -9.4305   18.3176  -30.5776 H   0  0  0  0  0  0  0  0  0  0  0  0
   -9.5781   19.2043  -32.1328 H   0  0  0  0  0  0  0  0  0  0  0  0
   -9.3557   17.4219  -32.1328 H   0  0  0  0  0  0  0  0  0  0  0  0
   -7.1474   18.2301  -30.6975 H   0  0  0  0  0  0  0  0  0  0  0  0
   -7.1587   17.9429  -32.4766 H   0  0  0  0  0  0  0  0  0  0  0  0
   -7.8764   20.3952  -33.8696 H   0  0  0  0  0  0  0  0  0  0  0  0
   -6.2897   21.1154  -33.3926 H   0  0  0  0  0  0  0  0  0  0  0  0
   -5.8059   18.3980  -33.1437 H   0  0  0  0  0  0  0  0  0  0  0  0
   -6.9016   18.4629  -34.5657 H   0  0  0  0  0  0  0  0  0  0  0  0
   -5.3732   19.4067  -34.5657 H   0  0  0  0  0  0  0  0  0  0  0  0
   -9.0395   21.0416  -32.2389 H   0  0  0  0  0  0  0  0  0  0  0  0
   -8.8429   20.3947  -30.5732 H   0  0  0  0  0  0  0  0  0  0  0  0
   -8.2336   22.5287  -30.0475 H   0  0  0  0  0  0  0  0  0  0  0  0
   -6.6508   22.0601  -30.8025 H   0  0  0  0  0  0  0  0  0  0  0  0
   -8.6340   22.9626  -32.7801 H   0  0  0  0  0  0  0  0  0  0  0  0
   -8.2417   24.2192  -31.5399 H   0  0  0  0  0  0  0  0  0  0  0  0
   -6.6510   24.1610  -33.5780 H   0  0  0  0  0  0  0  0  0  0  0  0
   -4.9745   23.3761  -27.8149 H   0  0  0  0  0  0  0  0  0  0  0  0
   -3.7502   24.6332  -25.8939 H   0  0  0  0  0  0  0  0  0  0  0  0
   -1.4744   25.7198  -26.6543 H   0  0  0  0  0  0  0  0  0  0  0  0
   -1.9543   22.1046  -30.7212 H   0  0  0  0  0  0  0  0  0  0  0  0
   -0.8558   22.2401  -33.3411 H   0  0  0  0  0  0  0  0  0  0  0  0
    0.5290   20.5839  -34.5874 H   0  0  0  0  0  0  0  0  0  0  0  0
   -0.3610   18.2985  -35.0484 H   0  0  0  0  0  0  0  0  0  0  0  0
   -2.6453   17.6686  -34.2698 H   0  0  0  0  0  0  0  0  0  0  0  0
   -4.0448   19.3163  -33.0256 H   0  0  0  0  0  0  0  0  0  0  0  0
   -4.9560   21.8650  -33.7330 H   0  0  0  0  0  0  0  0  0  0  0  0
  1  2  1  0
  2  3  1  0
  3  4  1  0
  4  5  1  0
  3  6  1  0
  6  7  1  0
  7  8  1  0
  8  9  1  0
  9 10  1  0
 10 11  2  0
 11 12  1  0
 12 13  1  0
 13 14  2  0
 14 15  1  0
 15 16  2  0
 16 17  1  0
 12 18  2  0
 18 19  1  0
 19 20  1  0
 20 21  2  0
 21 22  1  0
 22 23  2  0
 23 24  1  0
 24 25  2  0
 19 26  2  0
 26 10  1  0
 17 13  1  0
 25 20  1  0
  1 27  1  0
  1 28  1  0
  1 29  1  0
  2 30  1  0
  2 31  1  0
  4 32  1  0
  4 33  1  0
  5 34  1  0
  5 35  1  0
  5 36  1  0
  6 37  1  0
  6 38  1  0
  7 39  1  0
  7 40  1  0
  8 41  1  0
  8 42  1  0
  9 43  1  0
 14 44  1  0
 15 45  1  0
 16 46  1  0
 18 47  1  0
 21 48  1  0
 22 49  1  0
 23 50  1  0
 24 51  1  0
 25 52  1  0
 26 53  1  0
M  CHG  1  26   1
M  END
>  <UniqueID>  (46) 
44

>  <SMILES>  (46) 
CCN(CC)CCCNc1nc(-c2cccs2)cc(-c2ccccc2)[nH+]1

>  <Energy>  (46) 
79.27183841580481

>  <Genealogy>  (46) 
CCN(CC)CCCNc1nc(-c2cccs2)cc(-c2ccccc2)[nH+]1 (protonated)
CCN(CC)CCCNc1nc(-c2cccs2)cc(-c2ccccc2)[nH+]1 (3D coordinates assigned)
CCN(CC)CCCNc1nc(-c2cccs2)cc(-c2ccccc2)[nH+]1 (optimized conformer: 79.27183841580481 kcal/mol)

>  <smiles>  (46) 
CCN(CC)CCCNc1nc(-c2ccccc2)cc(-c2cccs2)n1

>  <score_type>  (46) 
oracle

>  <origin>  (46) 
adg

>  <m_score__min__energy>  (46) 
-7.9500000000000002

>  <m_primary>  (46) 
energy

$$$$
46:0
     RDKit          3D

 39 40  0  0  0  0  0  0  0  0999 V2000
   -1.5660   25.4160  -27.7610 C   0  0  0  0  0  0  0  0  0  0  0  0
   -1.9810   25.2990  -29.1190 O   0  0  0  0  0  0  0  0  0  0  0  0
   -2.4710   24.1200  -29.7030 C   0  0  0  0  0  0  0  0  0  0  0  0
   -1.8440   22.8750  -29.5090 C   0  0  0  0  0  0  0  0  0  0  0  0
   -2.3590   21.7230  -30.1090 C   0  0  0  0  0  0  0  0  0  0  0  0
   -3.4980   21.7960  -30.9250 C   0  0  0  0  0  0  0  0  0  0  0  0
   -4.0510   20.6240  -31.5500 N   0  0  0  0  0  0  0  0  0  0  0  0
   -3.7390   20.2040  -32.8880 C   0  0  0  0  0  0  0  0  0  0  0  0
   -2.9140   20.8480  -33.5920 O   0  0  0  0  0  0  0  0  0  0  0  0
   -4.4460   19.0240  -33.4850 C   0  0  0  0  0  0  0  0  0  0  0  0
   -5.5020   18.5270  -32.5910 N   0  0  0  0  0  0  0  0  0  0  0  0
   -6.8490   18.6680  -33.1710 C   0  0  0  0  0  0  0  0  0  0  0  0
   -7.5320   19.8750  -32.6060 C   0  0  0  0  0  0  0  0  0  0  0  0
   -6.9870   21.1500  -32.5150 C   0  0  0  0  0  0  0  0  0  0  0  0
   -7.8620   22.0850  -31.9470 C   0  0  0  0  0  0  0  0  0  0  0  0
   -9.0960   21.5520  -31.5930 C   0  0  0  0  0  0  0  0  0  0  0  0
   -9.0950   19.9150  -31.9840 S   0  0  0  0  0  0  0  0  0  0  0  0
   -4.1360   23.0310  -31.1000 C   0  0  0  0  0  0  0  0  0  0  0  0
   -3.6260   24.1980  -30.4970 C   0  0  0  0  0  0  0  0  0  0  0  0
   -4.2370   25.4510  -30.6630 O   0  0  0  0  0  0  0  0  0  0  0  0
   -5.6250   25.7030  -30.4750 C   0  0  0  0  0  0  0  0  0  0  0  0
   -2.4106   25.1779  -27.0977 H   0  0  0  0  0  0  0  0  0  0  0  0
   -0.7398   24.7158  -27.5684 H   0  0  0  0  0  0  0  0  0  0  0  0
   -1.2272   26.4447  -27.5684 H   0  0  0  0  0  0  0  0  0  0  0  0
   -0.9431   22.8085  -28.8813 H   0  0  0  0  0  0  0  0  0  0  0  0
   -1.8685   20.7529  -29.9406 H   0  0  0  0  0  0  0  0  0  0  0  0
   -4.8430   20.1430  -31.0670 H   0  0  0  0  0  0  0  0  0  0  0  0
   -4.8980   19.3234  -34.4421 H   0  0  0  0  0  0  0  0  0  0  0  0
   -3.7118   18.2191  -33.6370 H   0  0  0  0  0  0  0  0  0  0  0  0
   -5.3240   17.5040  -32.4510 H   0  0  0  0  0  0  0  0  0  0  0  0
   -6.7651   18.7757  -34.2625 H   0  0  0  0  0  0  0  0  0  0  0  0
   -7.4405   17.7735  -32.9261 H   0  0  0  0  0  0  0  0  0  0  0  0
   -5.9710   21.3999  -32.8547 H   0  0  0  0  0  0  0  0  0  0  0  0
   -7.5974   23.1419  -31.7954 H   0  0  0  0  0  0  0  0  0  0  0  0
   -9.9298   22.1050  -31.1359 H   0  0  0  0  0  0  0  0  0  0  0  0
   -5.0458   23.0903  -31.7154 H   0  0  0  0  0  0  0  0  0  0  0  0
   -5.8478   25.7435  -29.3986 H   0  0  0  0  0  0  0  0  0  0  0  0
   -5.8896   26.6639  -30.9406 H   0  0  0  0  0  0  0  0  0  0  0  0
   -6.2104   24.8965  -30.9406 H   0  0  0  0  0  0  0  0  0  0  0  0
  1  2  1  0
  2  3  1  0
  3  4  2  0
  4  5  1  0
  5  6  2  0
  6  7  1  0
  7  8  1  0
  8  9  2  0
  8 10  1  0
 10 11  1  0
 11 12  1  0
 12 13  1  0
 13 14  2  0
 14 15  1  0
 15 16  2  0
 16 17  1  0
  6 18  1  0
 18 19  2  0
 19 20  1  0
 20 21  1  0
 19  3  1  0
 17 13  1  0
  1 22  1  0
  1 23  1  0
  1 24  1  0
  4 25  1  0
  5 26  1  0
  7 27  1  0
 10 28  1  0
 10 29  1  0
 11 30  1  0
 12 31  1  0
 12 32  1  0
 14 33  1  0
 15 34  1  0
 16 35  1  0
 18 36  1  0
 21 37  1  0
 21 38  1  0
 21 39  1  0
M  END
>  <UniqueID>  (47) 
45

>  <SMILES>  (47) 
COc1ccc(NC(=O)CNCc2cccs2)cc1OC

>  <Energy>  (47) 
62.23485090951313

>  <Genealogy>  (47) 
COc1ccc(NC(=O)CNCc2cccs2)cc1OC (3D coordinates assigned)
COc1ccc(NC(=O)CNCc2cccs2)cc1OC (optimized conformer: 62.23485090951313 kcal/mol)

>  <smiles>  (47) 
COc1ccc(NC(=O)CNCc2cccs2)cc1OC

>  <score_type>  (47) 
oracle

>  <origin>  (47) 
adg

>  <m_score__min__energy>  (47) 
-7.54

>  <m_primary>  (47) 
energy

$$$$
