0:0
     RDKit          3D

 58 62  0  0  1  0  0  0  0  0999 V2000
   -4.1560   24.9570  -26.3420 Cl  0  0  0  0  0  0  0  0  0  0  0  0
   -3.9880   24.0020  -27.7770 C   0  0  0  0  0  0  0  0  0  0  0  0
   -3.0710   22.9850  -27.8560 C   0  0  0  0  0  0  0  0  0  0  0  0
   -2.8740   22.1880  -28.9420 C   0  0  0  0  0  0  0  0  0  0  0  0
   -1.9060   21.1490  -28.9610 N   0  0  0  0  0  0  0  0  0  0  0  0
   -0.5180   21.4540  -29.2750 C   0  0  0  0  0  0  0  0  0  0  0  0
   -0.0120   22.5920  -28.4720 C   0  0  0  0  0  0  0  0  0  0  0  0
    0.2570   22.6440  -27.1060 C   0  0  0  0  0  0  0  0  0  0  0  0
    0.7070   23.8840  -26.7830 N   0  0  0  0  0  0  0  0  0  0  0  0
    1.0610   24.2250  -25.4210 C   0  0  0  0  0  0  0  0  0  0  0  0
   -0.0700   24.2100  -24.4600 C   0  0  0  0  0  0  0  0  0  0  0  0
   -1.2070   25.1230  -24.7310 C   0  0  0  0  0  0  0  0  0  0  0  0
   -0.7640   26.4940  -25.0240 C   0  0  0  0  0  0  0  0  0  0  0  0
   -0.8590   26.9090  -26.3550 C   0  0  0  0  0  0  0  0  0  0  0  0
   -0.4840   28.1760  -26.7540 C   0  0  0  0  0  0  0  0  0  0  0  0
    0.0060   29.0910  -25.8440 C   0  0  0  0  0  0  0  0  0  0  0  0
    0.0980   28.6780  -24.5310 C   0  0  0  0  0  0  0  0  0  0  0  0
   -0.2800   27.4040  -24.1360 C   0  0  0  0  0  0  0  0  0  0  0  0
    0.7180   24.5680  -27.8930 N   0  0  0  0  0  0  0  0  0  0  0  0
    0.3060   23.8510  -28.8970 N   0  0  0  0  0  0  0  0  0  0  0  0
   -3.6920   22.4560  -30.0570 C   0  0  0  0  0  0  0  0  0  0  0  0
   -4.6060   23.4680  -29.9830 C   0  0  0  0  0  0  0  0  0  0  0  0
   -5.4190   23.7610  -31.0390 C   0  0  0  0  0  0  0  0  0  0  0  0
   -5.3660   23.1330  -32.0980 N   0  0  0  0  0  0  0  0  0  0  0  0
   -5.7450   21.8970  -32.5220 C   0  0  0  0  0  0  0  0  0  0  0  0
   -4.7650   21.0580  -33.1130 C   0  0  0  0  0  0  0  0  0  0  0  0
   -5.0830   19.7610  -33.4640 C   0  0  0  0  0  0  0  0  0  0  0  0
   -6.3550   19.2960  -33.2340 C   0  0  0  0  0  0  0  0  0  0  0  0
   -7.3340   20.0660  -32.6690 C   0  0  0  0  0  0  0  0  0  0  0  0
   -9.0870   19.3560  -32.3760 Br  0  0  0  0  0  0  0  0  0  0  0  0
   -7.0420   21.3610  -32.3100 C   0  0  0  0  0  0  0  0  0  0  0  0
   -6.3140   24.7740  -30.9260 N   0  0  0  0  0  0  0  0  0  0  0  0
   -6.4550   25.5190  -29.8250 C   0  0  0  0  0  0  0  0  0  0  0  0
   -5.6670   25.2490  -28.7730 N   0  0  0  0  0  0  0  0  0  0  0  0
   -4.7700   24.2510  -28.8570 C   0  0  0  0  0  0  0  0  0  0  0  0
   -2.4447   22.7985  -26.9711 H   0  0  0  0  0  0  0  0  0  0  0  0
   -2.2330   20.1860  -28.7430 H   0  0  0  0  0  0  0  0  0  0  0  0
    0.0982   20.5674  -29.0648 H   0  0  0  0  0  0  0  0  0  0  0  0
   -0.4597   21.7314  -30.3379 H   0  0  0  0  0  0  0  0  0  0  0  0
    0.1255   21.8111  -26.3996 H   0  0  0  0  0  0  0  0  0  0  0  0
    1.8150   23.5037  -25.0729 H   0  0  0  0  0  0  0  0  0  0  0  0
    1.4300   25.2609  -25.4478 H   0  0  0  0  0  0  0  0  0  0  0  0
   -0.4684   23.1850  -24.4350 H   0  0  0  0  0  0  0  0  0  0  0  0
    0.3600   24.5689  -23.5133 H   0  0  0  0  0  0  0  0  0  0  0  0
   -1.7695   24.7406  -25.5955 H   0  0  0  0  0  0  0  0  0  0  0  0
   -1.8336   25.1576  -23.8276 H   0  0  0  0  0  0  0  0  0  0  0  0
   -1.2442   26.2049  -27.1072 H   0  0  0  0  0  0  0  0  0  0  0  0
   -0.5770   28.4607  -27.8124 H   0  0  0  0  0  0  0  0  0  0  0  0
    0.3091   30.1027  -26.1516 H   0  0  0  0  0  0  0  0  0  0  0  0
    0.4822   29.3795  -23.7759 H   0  0  0  0  0  0  0  0  0  0  0  0
   -0.1861   27.1216  -23.0770 H   0  0  0  0  0  0  0  0  0  0  0  0
   -3.5958   21.8580  -30.9752 H   0  0  0  0  0  0  0  0  0  0  0  0
   -3.7497   21.4417  -33.2919 H   0  0  0  0  0  0  0  0  0  0  0  0
   -4.3263   19.1075  -33.9226 H   0  0  0  0  0  0  0  0  0  0  0  0
   -6.5964   18.2606  -33.5162 H   0  0  0  0  0  0  0  0  0  0  0  0
   -7.8220   21.9882  -31.8536 H   0  0  0  0  0  0  0  0  0  0  0  0
   -7.1962   26.3306  -29.7826 H   0  0  0  0  0  0  0  0  0  0  0  0
   -5.7580   25.8180  -27.9010 H   0  0  0  0  0  0  0  0  0  0  0  0
  1  2  1  0
  2  3  2  0
  3  4  1  0
  4  5  1  0
  5  6  1  0
  6  7  1  0
  7  8  2  0
  8  9  1  0
  9 10  1  0
 10 11  1  0
 11 12  1  0
 12 13  1  0
 13 14  2  0
 14 15  1  0
 15 16  2  0
 16 17  1  0
 17 18  2  0
  9 19  1  0
 19 20  2  0
  4 21  2  0
 21 22  1  0
 22 23  1  0
 23 24  2  0
 24 25  1  0
 25 26  2  0
 26 27  1  0
 27 28  2  0
 28 29  1  0
 29 30  1  0
 29 31  2  0
 23 32  1  0
 32 33  2  0
 33 34  1  0
 34 35  1  0
 35  2  1  0
 20  7  1  0
 35 22  2  0
 18 13  1  0
 31 25  1  0
  3 36  1  0
  5 37  1  0
  6 38  1  0
  6 39  1  0
  8 40  1  0
 10 41  1  0
 10 42  1  0
 11 43  1  0
 11 44  1  0
 12 45  1  0
 12 46  1  0
 14 47  1  0
 15 48  1  0
 16 49  1  0
 17 50  1  0
 18 51  1  0
 21 52  1  0
 26 53  1  0
 27 54  1  0
 28 55  1  0
 31 56  1  0
 33 57  1  0
 34 58  1  0
M  END
>  <smiles>  (1) 
Clc1cc(NCc2cn(CCCc3ccccc3)nn2)cc2c(=Nc3cccc(Br)c3)nc[nH]c12

>  <score_type>  (1) 
oracle

>  <origin>  (1) 
adg

>  <m_score__min__energy>  (1) 
-11.789999999999999

>  <m_primary>  (1) 
energy

$$$$
1:0
     RDKit          3D

 37 39  0  0  0  0  0  0  0  0999 V2000
   -8.2420   22.4210  -31.8690 C   0  0  0  0  0  0  0  0  0  0  0  0
   -7.8680   21.0430  -32.2360 N   0  0  0  0  0  0  0  0  0  0  0  0
   -8.7990   20.0650  -32.0240 C   0  0  0  0  0  0  0  0  0  0  0  0
   -8.5200   18.7350  -32.2920 C   0  0  0  0  0  0  0  0  0  0  0  0
   -7.2630   18.3710  -32.7600 C   0  0  0  0  0  0  0  0  0  0  0  0
   -6.9870   17.0200  -33.0220 C   0  0  0  0  0  0  0  0  0  0  0  0
   -5.7300   16.6340  -33.4840 C   0  0  0  0  0  0  0  0  0  0  0  0
   -5.3640   14.7950  -33.8460 Br  0  0  0  0  0  0  0  0  0  0  0  0
   -4.7380   17.5930  -33.6770 C   0  0  0  0  0  0  0  0  0  0  0  0
   -4.9970   18.9400  -33.4170 C   0  0  0  0  0  0  0  0  0  0  0  0
   -6.2720   19.3630  -32.9680 C   0  0  0  0  0  0  0  0  0  0  0  0
   -6.6050   20.7350  -32.7180 C   0  0  0  0  0  0  0  0  0  0  0  0
   -5.6610   21.8030  -33.0200 N   0  0  0  0  0  0  0  0  0  0  0  0
   -4.6710   21.9810  -31.9390 C   0  0  0  0  0  0  0  0  0  0  0  0
   -5.0080   23.1440  -31.0390 C   0  0  0  0  0  0  0  0  0  0  0  0
   -5.7550   24.2280  -31.5320 C   0  0  0  0  0  0  0  0  0  0  0  0
   -6.1080   25.2810  -30.6840 C   0  0  0  0  0  0  0  0  0  0  0  0
   -5.7200   25.2620  -29.3420 C   0  0  0  0  0  0  0  0  0  0  0  0
   -4.9750   24.1900  -28.8440 C   0  0  0  0  0  0  0  0  0  0  0  0
   -4.6180   23.1340  -29.6880 C   0  0  0  0  0  0  0  0  0  0  0  0
   -8.2674   22.5146  -30.7733 H   0  0  0  0  0  0  0  0  0  0  0  0
   -7.5020   23.1236  -32.2799 H   0  0  0  0  0  0  0  0  0  0  0  0
   -9.2356   22.6531  -32.2799 H   0  0  0  0  0  0  0  0  0  0  0  0
   -9.7897   20.3396  -31.6327 H   0  0  0  0  0  0  0  0  0  0  0  0
   -9.2924   17.9678  -32.1346 H   0  0  0  0  0  0  0  0  0  0  0  0
   -7.7673   16.2614  -32.8618 H   0  0  0  0  0  0  0  0  0  0  0  0
   -3.7445   17.2869  -34.0365 H   0  0  0  0  0  0  0  0  0  0  0  0
   -4.1995   19.6834  -33.5629 H   0  0  0  0  0  0  0  0  0  0  0  0
   -5.1460   21.5860  -33.9020 H   0  0  0  0  0  0  0  0  0  0  0  0
   -6.1330   22.7050  -33.2410 H   0  0  0  0  0  0  0  0  0  0  0  0
   -4.6394   21.0630  -31.3337 H   0  0  0  0  0  0  0  0  0  0  0  0
   -3.6969   22.1884  -32.4060 H   0  0  0  0  0  0  0  0  0  0  0  0
   -6.0624   24.2473  -32.5880 H   0  0  0  0  0  0  0  0  0  0  0  0
   -6.6929   26.1270  -31.0741 H   0  0  0  0  0  0  0  0  0  0  0  0
   -6.0013   26.0917  -28.6769 H   0  0  0  0  0  0  0  0  0  0  0  0
   -4.6692   24.1768  -27.7874 H   0  0  0  0  0  0  0  0  0  0  0  0
   -4.0298   22.2922  -29.2937 H   0  0  0  0  0  0  0  0  0  0  0  0
  1  2  1  0
  2  3  2  0
  3  4  1  0
  4  5  2  0
  5  6  1  0
  6  7  2  0
  7  8  1  0
  7  9  1  0
  9 10  2  0
 10 11  1  0
 11 12  2  0
 12 13  1  0
 13 14  1  0
 14 15  1  0
 15 16  2  0
 16 17  1  0
 17 18  2  0
 18 19  1  0
 19 20  2  0
 12  2  1  0
 20 15  1  0
 11  5  1  0
  1 21  1  0
  1 22  1  0
  1 23  1  0
  3 24  1  0
  4 25  1  0
  6 26  1  0
  9 27  1  0
 10 28  1  0
 13 29  1  0
 13 30  1  0
 14 31  1  0
 14 32  1  0
 16 33  1  0
 17 34  1  0
 18 35  1  0
 19 36  1  0
 20 37  1  0
M  CHG  2   2   1  13   1
M  END
>  <UniqueID>  (2) 
1

>  <SMILES>  (2) 
C[n+]1ccc2cc(Br)ccc2c1[NH2+]Cc1ccccc1

>  <Energy>  (2) 
50.25032634499716

>  <Genealogy>  (2) 
C[n+]1ccc2cc(Br)ccc2c1[NH2+]Cc1ccccc1 (protonated)
C[n+]1ccc2cc(Br)ccc2c1[NH2+]Cc1ccccc1 (3D coordinates assigned)
C[n+]1ccc2cc(Br)ccc2c1[NH2+]Cc1ccccc1 (optimized conformer: 50.25032634499716 kcal/mol)

>  <smiles>  (2) 
C[n+]1ccc2cc(Br)ccc2c1NCc1ccccc1

>  <score_type>  (2) 
oracle

>  <origin>  (2) 
adg

>  <m_score__min__energy>  (2) 
-7.2599999999999998

>  <m_primary>  (2) 
energy

$$$$
2:0
     RDKit          3D

 66 67  0  0  0  0  0  0  0  0999 V2000
   -5.2640   25.5960  -30.6070 C   0  0  0  0  0  0  0  0  0  0  0  0
   -3.8730   25.3310  -30.4520 O   0  0  0  0  0  0  0  0  0  0  0  0
   -3.3470   24.2210  -29.7730 C   0  0  0  0  0  0  0  0  0  0  0  0
   -3.9500   22.9500  -29.8400 C   0  0  0  0  0  0  0  0  0  0  0  0
   -3.3820   21.8620  -29.1740 C   0  0  0  0  0  0  0  0  0  0  0  0
   -2.2160   22.0270  -28.4130 C   0  0  0  0  0  0  0  0  0  0  0  0
   -1.5890   20.8440  -27.7210 C   0  0  0  0  0  0  0  0  0  0  0  0
   -0.0590   20.8640  -27.8410 C   0  0  0  0  0  0  0  0  0  0  0  0
    0.4580   19.5640  -28.3040 N   0  0  0  0  0  0  0  0  0  0  0  0
   -0.1060   19.1680  -29.6060 C   0  0  0  0  0  0  0  0  0  0  0  0
    0.4310   20.0360  -30.7700 C   0  0  0  0  0  0  0  0  0  0  0  0
   -0.6350   20.9870  -31.3390 C   0  0  0  0  0  0  0  0  0  0  0  0
   -0.4410   21.2730  -32.7770 N   0  0  0  0  0  0  0  0  0  0  0  0
   -1.3630   20.5360  -33.6550 C   0  0  0  0  0  0  0  0  0  0  0  0
   -2.2580   19.5310  -32.9000 C   0  0  0  0  0  0  0  0  0  0  0  0
   -3.4830   19.0890  -33.7160 C   0  0  0  0  0  0  0  0  0  0  0  0
   -4.7180   19.8280  -33.2680 C   0  0  0  0  0  0  0  0  0  0  0  0
   -5.9800   19.2170  -33.3430 C   0  0  0  0  0  0  0  0  0  0  0  0
   -7.1210   19.9000  -32.9180 C   0  0  0  0  0  0  0  0  0  0  0  0
   -7.0280   21.2090  -32.3990 C   0  0  0  0  0  0  0  0  0  0  0  0
   -8.2140   21.9220  -31.9630 N   0  0  0  0  0  0  0  0  0  0  0  0
   -8.1430   23.3570  -31.6500 C   0  0  0  0  0  0  0  0  0  0  0  0
   -9.4820   21.2150  -31.7600 C   0  0  0  0  0  0  0  0  0  0  0  0
   -5.7560   21.8110  -32.3280 C   0  0  0  0  0  0  0  0  0  0  0  0
   -4.6140   21.1260  -32.7530 C   0  0  0  0  0  0  0  0  0  0  0  0
   -1.6190   23.2950  -28.3340 C   0  0  0  0  0  0  0  0  0  0  0  0
   -2.1770   24.3940  -29.0150 C   0  0  0  0  0  0  0  0  0  0  0  0
   -1.6020   25.6740  -28.9610 O   0  0  0  0  0  0  0  0  0  0  0  0
   -0.8940   26.1910  -27.8380 C   0  0  0  0  0  0  0  0  0  0  0  0
   -5.7329   25.6853  -29.6160 H   0  0  0  0  0  0  0  0  0  0  0  0
   -5.3985   26.5359  -31.1624 H   0  0  0  0  0  0  0  0  0  0  0  0
   -5.7347   24.7714  -31.1624 H   0  0  0  0  0  0  0  0  0  0  0  0
   -4.8742   22.8135  -30.4206 H   0  0  0  0  0  0  0  0  0  0  0  0
   -3.8519   20.8701  -29.2468 H   0  0  0  0  0  0  0  0  0  0  0  0
   -1.8637   20.8667  -26.6561 H   0  0  0  0  0  0  0  0  0  0  0  0
   -1.9597   19.9275  -28.2033 H   0  0  0  0  0  0  0  0  0  0  0  0
    0.2340   21.6430  -28.5602 H   0  0  0  0  0  0  0  0  0  0  0  0
    0.3648   21.0727  -26.8476 H   0  0  0  0  0  0  0  0  0  0  0  0
    1.5020   19.6130  -28.3750 H   0  0  0  0  0  0  0  0  0  0  0  0
    0.1552   18.1171  -29.7993 H   0  0  0  0  0  0  0  0  0  0  0  0
   -1.1957   19.3098  -29.5567 H   0  0  0  0  0  0  0  0  0  0  0  0
    1.2769   20.6349  -30.4017 H   0  0  0  0  0  0  0  0  0  0  0  0
    0.7370   19.3562  -31.5789 H   0  0  0  0  0  0  0  0  0  0  0  0
   -1.6248   20.5268  -31.2029 H   0  0  0  0  0  0  0  0  0  0  0  0
   -0.5497   21.9409  -30.7978 H   0  0  0  0  0  0  0  0  0  0  0  0
   -0.4520   22.2930  -32.9990 H   0  0  0  0  0  0  0  0  0  0  0  0
   -2.0105   21.2621  -34.1684 H   0  0  0  0  0  0  0  0  0  0  0  0
   -0.7472   19.9568  -34.3588 H   0  0  0  0  0  0  0  0  0  0  0  0
   -1.6587   18.6412  -32.6571 H   0  0  0  0  0  0  0  0  0  0  0  0
   -2.6289   20.0349  -31.9953 H   0  0  0  0  0  0  0  0  0  0  0  0
   -3.3027   19.2996  -34.7805 H   0  0  0  0  0  0  0  0  0  0  0  0
   -3.6405   18.0114  -33.5609 H   0  0  0  0  0  0  0  0  0  0  0  0
   -6.0701   18.1946  -33.7388 H   0  0  0  0  0  0  0  0  0  0  0  0
   -8.1043   19.4120  -32.9885 H   0  0  0  0  0  0  0  0  0  0  0  0
   -8.1362   23.4943  -30.5586 H   0  0  0  0  0  0  0  0  0  0  0  0
   -7.2228   23.7807  -32.0786 H   0  0  0  0  0  0  0  0  0  0  0  0
   -9.0169   23.8695  -32.0786 H   0  0  0  0  0  0  0  0  0  0  0  0
   -9.6737   21.1081  -30.6821 H   0  0  0  0  0  0  0  0  0  0  0  0
  -10.2993   21.7876  -32.2228 H   0  0  0  0  0  0  0  0  0  0  0  0
   -9.4245   20.2187  -32.2228 H   0  0  0  0  0  0  0  0  0  0  0  0
   -5.6604   22.8332  -31.9330 H   0  0  0  0  0  0  0  0  0  0  0  0
   -3.6283   21.6092  -32.6825 H   0  0  0  0  0  0  0  0  0  0  0  0
   -0.7068   23.4314  -27.7346 H   0  0  0  0  0  0  0  0  0  0  0  0
   -1.3720   25.8420  -26.9108 H   0  0  0  0  0  0  0  0  0  0  0  0
    0.1480   25.8398  -27.8681 H   0  0  0  0  0  0  0  0  0  0  0  0
   -0.9113   27.2905  -27.8681 H   0  0  0  0  0  0  0  0  0  0  0  0
  1  2  1  0
  2  3  1  0
  3  4  2  0
  4  5  1  0
  5  6  2  0
  6  7  1  0
  7  8  1  0
  8  9  1  0
  9 10  1  0
 10 11  1  0
 11 12  1  0
 12 13  1  0
 13 14  1  0
 14 15  1  0
 15 16  1  0
 16 17  1  0
 17 18  2  0
 18 19  1  0
 19 20  2  0
 20 21  1  0
 21 22  1  0
 21 23  1  0
 20 24  1  0
 24 25  2  0
  6 26  1  0
 26 27  2  0
 27 28  1  0
 28 29  1  0
 27  3  1  0
 25 17  1  0
  1 30  1  0
  1 31  1  0
  1 32  1  0
  4 33  1  0
  5 34  1  0
  7 35  1  0
  7 36  1  0
  8 37  1  0
  8 38  1  0
  9 39  1  0
 10 40  1  0
 10 41  1  0
 11 42  1  0
 11 43  1  0
 12 44  1  0
 12 45  1  0
 13 46  1  0
 14 47  1  0
 14 48  1  0
 15 49  1  0
 15 50  1  0
 16 51  1  0
 16 52  1  0
 18 53  1  0
 19 54  1  0
 22 55  1  0
 22 56  1  0
 22 57  1  0
 23 58  1  0
 23 59  1  0
 23 60  1  0
 24 61  1  0
 25 62  1  0
 26 63  1  0
 29 64  1  0
 29 65  1  0
 29 66  1  0
M  END
>  <UniqueID>  (3) 
2

>  <SMILES>  (3) 
COc1ccc(CCNCCCNCCCc2ccc(N(C)C)cc2)cc1OC

>  <Energy>  (3) 
63.5251058566891

>  <Genealogy>  (3) 
COc1ccc(CCNCCCNCCCc2ccc(N(C)C)cc2)cc1OC (3D coordinates assigned)
COc1ccc(CCNCCCNCCCc2ccc(N(C)C)cc2)cc1OC (optimized conformer: 63.5251058566891 kcal/mol)

>  <smiles>  (3) 
COc1ccc(CCNCCCNCCCc2ccc(N(C)C)cc2)cc1OC

>  <score_type>  (3) 
oracle

>  <origin>  (3) 
adg

>  <m_score__min__energy>  (3) 
-8.75

>  <m_primary>  (3) 
energy

$$$$
3:0
     RDKit          3D

 30 32  0  0  0  0  0  0  0  0999 V2000
   -2.9760   23.0330  -30.6540 C   0  0  0  0  0  0  0  0  0  0  0  0
   -4.3560   23.6390  -30.5860 C   0  0  0  0  0  0  0  0  0  0  0  0
   -4.4720   24.9480  -30.0820 C   0  0  0  0  0  0  0  0  0  0  0  0
   -5.7140   25.5740  -29.9940 C   0  0  0  0  0  0  0  0  0  0  0  0
   -6.8620   24.9080  -30.4080 C   0  0  0  0  0  0  0  0  0  0  0  0
   -6.7790   23.6080  -30.9110 C   0  0  0  0  0  0  0  0  0  0  0  0
   -7.9090   22.9790  -31.3060 N   0  0  0  0  0  0  0  0  0  0  0  0
   -7.8830   21.7430  -31.7930 N   0  0  0  0  0  0  0  0  0  0  0  0
   -6.7360   21.0660  -31.9200 N   0  0  0  0  0  0  0  0  0  0  0  0
   -6.7770   19.7290  -32.4620 C   0  0  0  0  0  0  0  0  0  0  0  0
   -7.4780   18.7090  -31.7980 C   0  0  0  0  0  0  0  0  0  0  0  0
   -7.5000   17.4120  -32.3200 C   0  0  0  0  0  0  0  0  0  0  0  0
   -6.8170   17.1230  -33.5060 C   0  0  0  0  0  0  0  0  0  0  0  0
   -6.8470   15.3510  -34.2190 Br  0  0  0  0  0  0  0  0  0  0  0  0
   -6.1080   18.1300  -34.1670 C   0  0  0  0  0  0  0  0  0  0  0  0
   -6.0840   19.4280  -33.6460 C   0  0  0  0  0  0  0  0  0  0  0  0
   -5.5500   21.6300  -31.5270 C   0  0  0  0  0  0  0  0  0  0  0  0
   -4.4860   20.9590  -31.6130 O   0  0  0  0  0  0  0  0  0  0  0  0
   -5.5340   22.9480  -31.0100 C   0  0  0  0  0  0  0  0  0  0  0  0
   -2.5978   22.8669  -29.6345 H   0  0  0  0  0  0  0  0  0  0  0  0
   -3.0231   22.0728  -31.1885 H   0  0  0  0  0  0  0  0  0  0  0  0
   -2.3009   23.7175  -31.1885 H   0  0  0  0  0  0  0  0  0  0  0  0
   -3.5698   25.4844  -29.7530 H   0  0  0  0  0  0  0  0  0  0  0  0
   -5.7861   26.5970  -29.5962 H   0  0  0  0  0  0  0  0  0  0  0  0
   -7.8398   25.4072  -30.3390 H   0  0  0  0  0  0  0  0  0  0  0  0
   -8.7870   21.3110  -32.0940 H   0  0  0  0  0  0  0  0  0  0  0  0
   -8.0124   18.9316  -30.8626 H   0  0  0  0  0  0  0  0  0  0  0  0
   -8.0547   16.6186  -31.7977 H   0  0  0  0  0  0  0  0  0  0  0  0
   -5.5683   17.9016  -35.0979 H   0  0  0  0  0  0  0  0  0  0  0  0
   -5.5199   20.2164  -34.1659 H   0  0  0  0  0  0  0  0  0  0  0  0
  1  2  1  0
  2  3  2  0
  3  4  1  0
  4  5  2  0
  5  6  1  0
  6  7  1  0
  7  8  2  0
  8  9  1  0
  9 10  1  0
 10 11  2  0
 11 12  1  0
 12 13  2  0
 13 14  1  0
 13 15  1  0
 15 16  2  0
  9 17  1  0
 17 18  2  0
 17 19  1  0
 19  2  1  0
 19  6  2  0
 16 10  1  0
  1 20  1  0
  1 21  1  0
  1 22  1  0
  3 23  1  0
  4 24  1  0
  5 25  1  0
  8 26  1  0
 11 27  1  0
 12 28  1  0
 15 29  1  0
 16 30  1  0
M  CHG  1   8   1
M  END
>  <UniqueID>  (4) 
3

>  <SMILES>  (4) 
Cc1cccc2n[nH+]n(-c3ccc(Br)cc3)c(=O)c12

>  <Energy>  (4) 
48.4193450856702

>  <Genealogy>  (4) 
Cc1cccc2n[nH+]n(-c3ccc(Br)cc3)c(=O)c12 (protonated)
Cc1cccc2n[nH+]n(-c3ccc(Br)cc3)c(=O)c12 (3D coordinates assigned)
Cc1cccc2n[nH+]n(-c3ccc(Br)cc3)c(=O)c12 (optimized conformer: 48.4193450856702 kcal/mol)

>  <smiles>  (4) 
Cc1cccc2nnn(-c3ccc(Br)cc3)c(=O)c12

>  <score_type>  (4) 
oracle

>  <origin>  (4) 
adg

>  <m_score__min__energy>  (4) 
-7.3099999999999996

>  <m_primary>  (4) 
energy

$$$$
4:0
     RDKit          3D

 45 46  0  0  0  0  0  0  0  0999 V2000
   -3.8380   24.0840  -27.3980 C   0  0  0  0  0  0  0  0  0  0  0  0
   -3.8230   23.1890  -28.6320 C   0  0  0  0  0  0  0  0  0  0  0  0
   -4.5680   23.8160  -29.7250 N   0  0  0  0  0  0  0  0  0  0  0  0
   -5.3480   24.9050  -29.6230 C   0  0  0  0  0  0  0  0  0  0  0  0
   -5.9350   25.1280  -30.8480 C   0  0  0  0  0  0  0  0  0  0  0  0
   -5.5390   24.1780  -31.7200 N   0  0  0  0  0  0  0  0  0  0  0  0
   -4.7140   23.3880  -31.0000 C   0  0  0  0  0  0  0  0  0  0  0  0
   -4.0050   22.1990  -31.5970 C   0  0  0  0  0  0  0  0  0  0  0  0
   -4.6220   21.7790  -32.8660 N   0  0  0  0  0  0  0  0  0  0  0  0
   -3.9430   20.6040  -33.4430 C   0  0  0  0  0  0  0  0  0  0  0  0
   -4.8000   19.3100  -33.4150 C   0  0  0  0  0  0  0  0  0  0  0  0
   -6.1060   19.4110  -34.2350 C   0  0  0  0  0  0  0  0  0  0  0  0
   -7.2970   20.0450  -33.4750 C   0  0  0  0  0  0  0  0  0  0  0  0
   -7.0860   20.1120  -32.0100 N   0  0  0  0  0  0  0  0  0  0  0  0
   -8.3450   20.4050  -31.2890 C   0  0  0  0  0  0  0  0  0  0  0  0
   -8.5570   21.9130  -31.0950 C   0  0  0  0  0  0  0  0  0  0  0  0
   -8.0560   22.2910  -29.8620 F   0  0  0  0  0  0  0  0  0  0  0  0
   -9.9040   22.2240  -31.1310 F   0  0  0  0  0  0  0  0  0  0  0  0
   -7.8950   22.6200  -32.0820 F   0  0  0  0  0  0  0  0  0  0  0  0
   -6.4880   18.8580  -31.5200 C   0  0  0  0  0  0  0  0  0  0  0  0
   -5.0290   18.7540  -31.9850 C   0  0  0  0  0  0  0  0  0  0  0  0
   -3.8275   23.4599  -26.4922 H   0  0  0  0  0  0  0  0  0  0  0  0
   -2.9506   24.7340  -27.4057 H   0  0  0  0  0  0  0  0  0  0  0  0
   -4.7467   24.7039  -27.4057 H   0  0  0  0  0  0  0  0  0  0  0  0
   -2.7824   23.0260  -28.9491 H   0  0  0  0  0  0  0  0  0  0  0  0
   -4.2964   22.2280  -28.3821 H   0  0  0  0  0  0  0  0  0  0  0  0
   -5.4925   25.5130  -28.7177 H   0  0  0  0  0  0  0  0  0  0  0  0
   -6.6222   25.9549  -31.0804 H   0  0  0  0  0  0  0  0  0  0  0  0
   -2.9543   22.4665  -31.7826 H   0  0  0  0  0  0  0  0  0  0  0  0
   -4.0787   21.3628  -30.8861 H   0  0  0  0  0  0  0  0  0  0  0  0
   -4.5350   22.5790  -33.5330 H   0  0  0  0  0  0  0  0  0  0  0  0
   -5.6350   21.5790  -32.7090 H   0  0  0  0  0  0  0  0  0  0  0  0
   -3.6887   20.8292  -34.4892 H   0  0  0  0  0  0  0  0  0  0  0  0
   -3.0528   20.4127  -32.8257 H   0  0  0  0  0  0  0  0  0  0  0  0
   -4.1872   18.5583  -33.9340 H   0  0  0  0  0  0  0  0  0  0  0  0
   -5.9044   20.0216  -35.1275 H   0  0  0  0  0  0  0  0  0  0  0  0
   -6.4034   18.3797  -34.4759 H   0  0  0  0  0  0  0  0  0  0  0  0
   -7.4490   21.0667  -33.8533 H   0  0  0  0  0  0  0  0  0  0  0  0
   -8.1741   19.4046  -33.6498 H   0  0  0  0  0  0  0  0  0  0  0  0
   -9.1883   19.9989  -31.8669 H   0  0  0  0  0  0  0  0  0  0  0  0
   -8.2842   19.9390  -30.2945 H   0  0  0  0  0  0  0  0  0  0  0  0
   -6.5216   18.8439  -30.4206 H   0  0  0  0  0  0  0  0  0  0  0  0
   -7.0562   18.0063  -31.9222 H   0  0  0  0  0  0  0  0  0  0  0  0
   -4.3980   19.3210  -31.2847 H   0  0  0  0  0  0  0  0  0  0  0  0
   -4.7687   17.6854  -32.0052 H   0  0  0  0  0  0  0  0  0  0  0  0
  1  2  1  0
  2  3  1  0
  3  4  1  0
  4  5  2  0
  5  6  1  0
  6  7  2  0
  7  8  1  0
  8  9  1  0
  9 10  1  0
 10 11  1  0
 11 12  1  0
 12 13  1  0
 13 14  1  0
 14 15  1  0
 15 16  1  0
 16 17  1  0
 16 18  1  0
 16 19  1  0
 14 20  1  0
 20 21  1  0
  7  3  1  0
 21 11  1  0
  1 22  1  0
  1 23  1  0
  1 24  1  0
  2 25  1  0
  2 26  1  0
  4 27  1  0
  5 28  1  0
  8 29  1  0
  8 30  1  0
  9 31  1  0
  9 32  1  0
 10 33  1  0
 10 34  1  0
 11 35  1  0
 12 36  1  0
 12 37  1  0
 13 38  1  0
 13 39  1  0
 15 40  1  0
 15 41  1  0
 20 42  1  0
 20 43  1  0
 21 44  1  0
 21 45  1  0
M  CHG  1   9   1
M  END
>  <UniqueID>  (5) 
4

>  <SMILES>  (5) 
CCn1ccnc1C[NH2+]CC1CCN(CC(F)(F)F)CC1

>  <Energy>  (5) 
75.80418887674031

>  <Genealogy>  (5) 
CCn1ccnc1C[NH2+]CC1CCN(CC(F)(F)F)CC1 (protonated)
CCn1ccnc1C[NH2+]CC1CCN(CC(F)(F)F)CC1 (3D coordinates assigned)
CCn1ccnc1C[NH2+]CC1CCN(CC(F)(F)F)CC1 (nonaromatic ring conformer: 75.80418887674031 kcal/mol)

>  <smiles>  (5) 
CCn1ccnc1CNCC1CCN(CC(F)(F)F)CC1

>  <score_type>  (5) 
oracle

>  <origin>  (5) 
adg

>  <m_score__min__energy>  (5) 
-5.0099999999999998

>  <m_primary>  (5) 
energy

$$$$
5:0
     RDKit          3D

 40 41  0  0  0  0  0  0  0  0999 V2000
   -4.4980   16.8440  -34.9320 C   0  0  0  0  0  0  0  0  0  0  0  0
   -5.4450   17.5850  -34.0840 N   0  0  0  0  0  0  0  0  0  0  0  0
   -5.7380   18.9120  -34.6430 C   0  0  0  0  0  0  0  0  0  0  0  0
   -6.6600   16.8060  -33.7470 C   0  0  0  0  0  0  0  0  0  0  0  0
   -7.5840   17.4550  -32.6930 C   0  0  0  0  0  0  0  0  0  0  0  0
   -6.6560   18.2610  -31.3320 S   0  0  0  0  0  0  0  0  0  0  0  0
   -7.3540   19.9070  -31.5840 C   0  0  0  0  0  0  0  0  0  0  0  0
   -8.7390   20.0660  -31.4840 C   0  0  0  0  0  0  0  0  0  0  0  0
   -9.3200   21.3170  -31.6710 C   0  0  0  0  0  0  0  0  0  0  0  0
   -8.5250   22.4220  -31.9720 C   0  0  0  0  0  0  0  0  0  0  0  0
   -7.1280   22.2900  -32.1070 C   0  0  0  0  0  0  0  0  0  0  0  0
   -6.3060   23.4350  -32.4330 N   0  0  0  0  0  0  0  0  0  0  0  0
   -6.1000   24.5810  -31.5470 C   0  0  0  0  0  0  0  0  0  0  0  0
   -5.0910   24.2500  -30.4920 C   0  0  0  0  0  0  0  0  0  0  0  0
   -5.2880   23.3860  -29.4320 C   0  0  0  0  0  0  0  0  0  0  0  0
   -4.0970   23.3760  -28.7360 C   0  0  0  0  0  0  0  0  0  0  0  0
   -3.2570   24.2320  -29.4170 C   0  0  0  0  0  0  0  0  0  0  0  0
   -1.4560   24.6330  -28.9360 Br  0  0  0  0  0  0  0  0  0  0  0  0
   -3.8740   24.7390  -30.4580 O   0  0  0  0  0  0  0  0  0  0  0  0
   -6.5420   21.0150  -31.9160 C   0  0  0  0  0  0  0  0  0  0  0  0
   -5.1220   20.8260  -32.1170 C   0  0  0  0  0  0  0  0  0  0  0  0
   -3.9860   20.6740  -32.2750 N   0  0  0  0  0  0  0  0  0  0  0  0
   -3.7913   16.2910  -34.2958 H   0  0  0  0  0  0  0  0  0  0  0  0
   -5.0508   16.1362  -35.5671 H   0  0  0  0  0  0  0  0  0  0  0  0
   -3.9439   17.5508  -35.5671 H   0  0  0  0  0  0  0  0  0  0  0  0
   -5.8962   19.6284  -33.8234 H   0  0  0  0  0  0  0  0  0  0  0  0
   -4.8916   19.2441  -35.2620 H   0  0  0  0  0  0  0  0  0  0  0  0
   -6.6456   18.8569  -35.2620 H   0  0  0  0  0  0  0  0  0  0  0  0
   -7.2418   16.6660  -34.6700 H   0  0  0  0  0  0  0  0  0  0  0  0
   -6.3060   15.8632  -33.3046 H   0  0  0  0  0  0  0  0  0  0  0  0
   -8.2064   18.2131  -33.1908 H   0  0  0  0  0  0  0  0  0  0  0  0
   -8.1928   16.6537  -32.2488 H   0  0  0  0  0  0  0  0  0  0  0  0
   -9.3739   19.1971  -31.2561 H   0  0  0  0  0  0  0  0  0  0  0  0
  -10.4100   21.4341  -31.5810 H   0  0  0  0  0  0  0  0  0  0  0  0
   -8.9933   23.4083  -32.1057 H   0  0  0  0  0  0  0  0  0  0  0  0
   -5.8460   23.4860  -33.3690 H   0  0  0  0  0  0  0  0  0  0  0  0
   -5.7394   25.4358  -32.1380 H   0  0  0  0  0  0  0  0  0  0  0  0
   -7.0544   24.8329  -31.0615 H   0  0  0  0  0  0  0  0  0  0  0  0
   -6.2028   22.8239  -29.1931 H   0  0  0  0  0  0  0  0  0  0  0  0
   -3.8651   22.8035  -27.8258 H   0  0  0  0  0  0  0  0  0  0  0  0
  1  2  1  0
  2  3  1  0
  2  4  1  0
  4  5  1  0
  5  6  1  0
  6  7  1  0
  7  8  2  0
  8  9  1  0
  9 10  2  0
 10 11  1  0
 11 12  1  0
 12 13  1  0
 13 14  1  0
 14 15  2  0
 15 16  1  0
 16 17  2  0
 17 18  1  0
 17 19  1  0
 11 20  2  0
 20 21  1  0
 21 22  3  0
 20  7  1  0
 19 14  1  0
  1 23  1  0
  1 24  1  0
  1 25  1  0
  3 26  1  0
  3 27  1  0
  3 28  1  0
  4 29  1  0
  4 30  1  0
  5 31  1  0
  5 32  1  0
  8 33  1  0
  9 34  1  0
 10 35  1  0
 12 36  1  0
 13 37  1  0
 13 38  1  0
 15 39  1  0
 16 40  1  0
M  END
>  <UniqueID>  (6) 
5

>  <SMILES>  (6) 
CN(C)CCSc1cccc(NCc2ccc(Br)o2)c1C#N

>  <Energy>  (6) 
66.8018082596866

>  <Genealogy>  (6) 
CN(C)CCSc1cccc(NCc2ccc(Br)o2)c1C#N (3D coordinates assigned)
CN(C)CCSc1cccc(NCc2ccc(Br)o2)c1C#N (optimized conformer: 66.8018082596866 kcal/mol)

>  <smiles>  (6) 
CN(C)CCSc1cccc(NCc2ccc(Br)o2)c1C#N

>  <score_type>  (6) 
oracle

>  <origin>  (6) 
adg

>  <m_score__min__energy>  (6) 
-8.4000000000000004

>  <m_primary>  (6) 
energy

$$$$
6:0
     RDKit          3D

 51 53  0  0  1  0  0  0  0  0999 V2000
   -6.1030   19.2870  -34.0380 C   0  0  0  0  0  0  0  0  0  0  0  0
   -6.0670   20.0250  -32.7400 C   0  0  0  0  0  0  0  0  0  0  0  0
   -7.2750   20.1840  -32.0490 N   0  0  0  0  0  0  0  0  0  0  0  0
   -8.1560   19.0940  -31.9250 C   0  0  0  0  0  0  0  0  0  0  0  0
   -9.4560   19.3540  -32.6670 C   0  0  0  0  0  0  0  0  0  0  0  0
   -7.4510   21.3040  -31.1920 C   0  0  0  0  0  0  0  0  0  0  0  0
   -7.9700   22.5120  -31.8800 C   0  0  0  0  0  0  0  0  0  0  0  0
   -7.0160   23.6260  -32.0540 C   0  0  0  0  0  0  0  0  0  0  0  0
   -6.2540   24.0440  -30.8410 C   0  0  0  0  0  0  0  0  0  0  0  0
   -4.9290   24.4370  -31.1230 N   0  0  0  0  0  0  0  0  0  0  0  0
   -3.8860   24.1390  -30.4810 C   0  0  0  0  0  0  0  0  0  0  0  0
   -3.5030   24.8780  -29.4170 N   0  0  0  0  0  0  0  0  0  0  0  0
   -2.3770   24.4940  -28.8010 C   0  0  0  0  0  0  0  0  0  0  0  0
   -1.8960   25.2610  -27.6420 C   0  0  0  0  0  0  0  0  0  0  0  0
   -2.4910   25.1070  -26.3810 C   0  0  0  0  0  0  0  0  0  0  0  0
   -2.0130   25.8370  -25.3090 C   0  0  0  0  0  0  0  0  0  0  0  0
   -0.9640   26.7200  -25.4180 C   0  0  0  0  0  0  0  0  0  0  0  0
   -0.3860   26.8630  -26.6550 C   0  0  0  0  0  0  0  0  0  0  0  0
   -0.8530   26.1400  -27.7450 C   0  0  0  0  0  0  0  0  0  0  0  0
   -1.6270   23.4490  -29.1630 N   0  0  0  0  0  0  0  0  0  0  0  0
   -1.9710   22.6600  -30.2400 C   0  0  0  0  0  0  0  0  0  0  0  0
   -1.3200   21.5940  -30.7120 C   0  0  0  0  0  0  0  0  0  0  0  0
   -1.8260   20.9420  -31.7990 C   0  0  0  0  0  0  0  0  0  0  0  0
   -3.3790   21.9250  -32.2070 S   0  0  0  0  0  0  0  0  0  0  0  0
   -3.1320   23.0690  -30.8650 C   0  0  0  0  0  0  0  0  0  0  0  0
   -6.1558   18.2056  -33.8436 H   0  0  0  0  0  0  0  0  0  0  0  0
   -6.9870   19.5997  -34.6132 H   0  0  0  0  0  0  0  0  0  0  0  0
   -5.1928   19.5122  -34.6132 H   0  0  0  0  0  0  0  0  0  0  0  0
   -5.3761   19.4865  -32.0747 H   0  0  0  0  0  0  0  0  0  0  0  0
   -5.7634   21.0474  -33.0092 H   0  0  0  0  0  0  0  0  0  0  0  0
   -7.6774   18.1960  -32.3427 H   0  0  0  0  0  0  0  0  0  0  0  0
   -8.3852   18.9497  -30.8589 H   0  0  0  0  0  0  0  0  0  0  0  0
  -10.2664   19.5161  -31.9411 H   0  0  0  0  0  0  0  0  0  0  0  0
   -9.3453   20.2478  -33.2986 H   0  0  0  0  0  0  0  0  0  0  0  0
   -9.6976   18.4864  -33.2986 H   0  0  0  0  0  0  0  0  0  0  0  0
   -8.1607   21.0252  -30.3991 H   0  0  0  0  0  0  0  0  0  0  0  0
   -6.4575   21.5634  -30.7975 H   0  0  0  0  0  0  0  0  0  0  0  0
   -8.3147   22.2067  -32.8790 H   0  0  0  0  0  0  0  0  0  0  0  0
   -8.7631   22.9041  -31.2263 H   0  0  0  0  0  0  0  0  0  0  0  0
   -6.2863   23.3249  -32.8201 H   0  0  0  0  0  0  0  0  0  0  0  0
   -7.6307   24.4965  -32.3267 H   0  0  0  0  0  0  0  0  0  0  0  0
   -6.7778   24.8913  -30.3743 H   0  0  0  0  0  0  0  0  0  0  0  0
   -6.2002   23.1716  -30.1731 H   0  0  0  0  0  0  0  0  0  0  0  0
   -4.0890   25.6650  -29.1560 H   0  0  0  0  0  0  0  0  0  0  0  0
   -3.3317   24.4105  -26.2463 H   0  0  0  0  0  0  0  0  0  0  0  0
   -2.4917   25.7063  -24.3273 H   0  0  0  0  0  0  0  0  0  0  0  0
   -0.6026   27.2889  -24.5487 H   0  0  0  0  0  0  0  0  0  0  0  0
    0.4566   27.5582  -26.7843 H   0  0  0  0  0  0  0  0  0  0  0  0
   -0.3685   26.2787  -28.7227 H   0  0  0  0  0  0  0  0  0  0  0  0
   -0.3923   21.2474  -30.2332 H   0  0  0  0  0  0  0  0  0  0  0  0
   -1.4237   20.0563  -32.3125 H   0  0  0  0  0  0  0  0  0  0  0  0
  1  2  1  0
  2  3  1  0
  3  4  1  0
  4  5  1  0
  3  6  1  0
  6  7  1  0
  7  8  1  0
  8  9  1  0
  9 10  1  0
 10 11  2  0
 11 12  1  0
 12 13  1  0
 13 14  1  0
 14 15  2  0
 15 16  1  0
 16 17  2  0
 17 18  1  0
 18 19  2  0
 13 20  2  0
 20 21  1  0
 21 22  1  0
 22 23  2  0
 23 24  1  0
 24 25  1  0
 25 11  1  0
 19 14  1  0
 25 21  2  0
  1 26  1  0
  1 27  1  0
  1 28  1  0
  2 29  1  0
  2 30  1  0
  4 31  1  0
  4 32  1  0
  5 33  1  0
  5 34  1  0
  5 35  1  0
  6 36  1  0
  6 37  1  0
  7 38  1  0
  7 39  1  0
  8 40  1  0
  8 41  1  0
  9 42  1  0
  9 43  1  0
 12 44  1  0
 15 45  1  0
 16 46  1  0
 17 47  1  0
 18 48  1  0
 19 49  1  0
 22 50  1  0
 23 51  1  0
M  END
>  <smiles>  (7) 
CCN(CC)CCCCN=c1[nH]c(-c2ccccc2)nc2ccsc12

>  <score_type>  (7) 
oracle

>  <origin>  (7) 
adg

>  <m_score__min__energy>  (7) 
-8.4199999999999999

>  <m_primary>  (7) 
energy

$$$$
7:0
     RDKit          3D

 40 42  0  0  0  0  0  0  0  0999 V2000
   -6.1366   25.6763  -31.6022 H   0  0  0  0  0  0  0  0  0  0  0  0
   -5.3700   25.0630  -31.1060 C   0  0  0  0  0  0  0  0  0  0  0  0
   -4.2630   25.6010  -30.5300 N   0  0  0  0  0  0  0  0  0  0  0  0
   -3.4760   24.6470  -29.9840 C   0  0  0  0  0  0  0  0  0  0  0  0
   -2.3590   24.8920  -29.3680 N   0  0  0  0  0  0  0  0  0  0  0  0
   -2.2020   24.8940  -27.9140 C   0  0  0  0  0  0  0  0  0  0  0  0
   -1.9003   25.8993  -27.5849 H   0  0  0  0  0  0  0  0  0  0  0  0
   -1.4336   24.1559  -27.6406 H   0  0  0  0  0  0  0  0  0  0  0  0
   -3.5110   24.5150  -27.2290 C   0  0  0  0  0  0  0  0  0  0  0  0
   -3.3783   24.5534  -26.1377 H   0  0  0  0  0  0  0  0  0  0  0  0
   -4.2992   25.2218  -27.5276 H   0  0  0  0  0  0  0  0  0  0  0  0
   -3.7996   23.4964  -27.5276 H   0  0  0  0  0  0  0  0  0  0  0  0
   -4.1110   23.1050  -30.1800 S   0  0  0  0  0  0  0  0  0  0  0  0
   -5.4600   23.6730  -31.0200 C   0  0  0  0  0  0  0  0  0  0  0  0
   -6.5980   22.8260  -31.5370 C   0  0  2  0  0  0  0  0  0  0  0  0
   -7.7930   23.7100  -31.9160 C   0  0  0  0  0  0  0  0  0  0  0  0
   -8.2846   24.0737  -31.0017 H   0  0  0  0  0  0  0  0  0  0  0  0
   -7.4415   24.5672  -32.5091 H   0  0  0  0  0  0  0  0  0  0  0  0
   -8.5098   23.1231  -32.5091 H   0  0  0  0  0  0  0  0  0  0  0  0
   -7.0030   21.8940  -30.5470 O   0  0  0  0  0  0  0  0  0  0  0  0
   -6.8910   20.5930  -30.9600 N   0  0  0  0  0  0  0  0  0  0  0  0
   -6.4250   20.5420  -32.1610 C   0  0  0  0  0  0  0  0  0  0  0  0
   -6.2000   19.2460  -32.8670 C   0  0  0  0  0  0  0  0  0  0  0  0
   -5.0290   19.0880  -33.6400 C   0  0  0  0  0  0  0  0  0  0  0  0
   -4.3092   19.9170  -33.7081 H   0  0  0  0  0  0  0  0  0  0  0  0
   -4.7710   17.8980  -34.3180 C   0  0  0  0  0  0  0  0  0  0  0  0
   -3.8523   17.7944  -34.9141 H   0  0  0  0  0  0  0  0  0  0  0  0
   -5.6720   16.8410  -34.2430 C   0  0  0  0  0  0  0  0  0  0  0  0
   -5.4659   15.9037  -34.7805 H   0  0  0  0  0  0  0  0  0  0  0  0
   -6.8360   16.9690  -33.4870 C   0  0  0  0  0  0  0  0  0  0  0  0
   -7.5433   16.1284  -33.4311 H   0  0  0  0  0  0  0  0  0  0  0  0
   -7.1170   18.1640  -32.7930 C   0  0  0  0  0  0  0  0  0  0  0  0
   -8.2910   18.2960  -32.0330 O   0  0  0  0  0  0  0  0  0  0  0  0
   -9.3770   19.1610  -32.3500 C   0  0  0  0  0  0  0  0  0  0  0  0
   -9.8372   19.5275  -31.4205 H   0  0  0  0  0  0  0  0  0  0  0  0
   -9.0068   20.0143  -32.9372 H   0  0  0  0  0  0  0  0  0  0  0  0
  -10.1259   18.6093  -32.9372 H   0  0  0  0  0  0  0  0  0  0  0  0
   -6.1550   21.9120  -32.7060 C   0  0  0  0  0  0  0  0  0  0  0  0
   -6.7505   22.1053  -33.6104 H   0  0  0  0  0  0  0  0  0  0  0  0
   -5.1100   22.0655  -33.0133 H   0  0  0  0  0  0  0  0  0  0  0  0
  1  2  1  0
  2  3  1  0
  3  4  1  0
  4  5  2  0
  5  6  1  0
  6  7  1  0
  6  8  1  0
  6  9  1  0
  9 10  1  0
  9 11  1  0
  9 12  1  0
  4 13  1  0
 13 14  1  0
 14 15  1  0
 15 16  1  6
 16 17  1  0
 16 18  1  0
 16 19  1  0
 15 20  1  0
 20 21  1  0
 21 22  2  0
 22 23  1  0
 23 24  2  0
 24 25  1  0
 24 26  1  0
 26 27  1  0
 26 28  2  0
 28 29  1  0
 28 30  1  0
 30 31  1  0
 30 32  2  0
 32 33  1  0
 33 34  1  0
 34 35  1  0
 34 36  1  0
 34 37  1  0
 22 38  1  0
 38 39  1  0
 38 40  1  0
 14  2  2  0
 38 15  1  0
 32 23  1  0
M  CHG  1   3  -1
M  END
>  <UniqueID>  (8) 
6

>  <SMILES>  (8) 
CC/N=c1\[n-]cc([C@@]2(C)CC(c3ccccc3OC)=NO2)s1

>  <Energy>  (8) 
83.0167211645591

>  <Genealogy>  (8) 
CCN=c1[n-]cc(C2(C)CC(c3ccccc3OC)=NO2)s1 (protonated)
CCN=c1[n-]cc([C@@]2(C)CC(c3ccccc3OC)=NO2)s1 (chirality)
CC/N=c1\[n-]cc([C@@]2(C)CC(c3ccccc3OC)=NO2)s1 (cis-trans isomerization)
CC/N=c1\[n-]cc([C@@]2(C)CC(c3ccccc3OC)=NO2)s1 (3D coordinates assigned)
CC/N=c1\[n-]cc([C@@]2(C)CC(c3ccccc3OC)=NO2)s1 (nonaromatic ring conformer: 83.0167211645591 kcal/mol)

>  <smiles>  (8) 
CCN=c1[nH]cc(C2(C)CC(c3ccccc3OC)=NO2)s1

>  <score_type>  (8) 
oracle

>  <origin>  (8) 
adg

>  <m_score__min__energy>  (8) 
-9.3499999999999996

>  <m_primary>  (8) 
energy

$$$$
8:0
     RDKit          3D

 57 59  0  0  0  0  0  0  0  0999 V2000
   -3.3330   18.5600  -26.0100 C   0  0  0  0  0  0  0  0  0  0  0  0
   -2.2190   19.4170  -26.6020 C   0  0  0  0  0  0  0  0  0  0  0  0
   -2.7160   20.2170  -27.8160 C   0  0  0  0  0  0  0  0  0  0  0  0
   -1.6870   20.2160  -28.9780 C   0  0  0  0  0  0  0  0  0  0  0  0
   -1.7160   21.4140  -29.8560 N   0  0  1  0  0  0  0  0  0  0  0  0
   -1.3330   22.6580  -29.1400 C   0  0  0  0  0  0  0  0  0  0  0  0
   -2.5250   23.3290  -28.4280 C   0  0  0  0  0  0  0  0  0  0  0  0
   -2.1710   24.6720  -27.7920 C   0  0  0  0  0  0  0  0  0  0  0  0
   -0.9340   21.2090  -31.0670 C   0  0  0  0  0  0  0  0  0  0  0  0
    0.1950   20.7430  -31.0030 O   0  0  0  0  0  0  0  0  0  0  0  0
   -1.5410   21.4860  -32.4200 C   0  0  0  0  0  0  0  0  0  0  0  0
   -2.8610   20.2980  -32.8680 S   0  0  0  0  0  0  0  0  0  0  0  0
   -4.2150   21.2600  -32.1640 C   0  0  0  0  0  0  0  0  0  0  0  0
   -3.9190   22.4780  -31.6430 N   0  0  0  0  0  0  0  0  0  0  0  0
   -4.8780   23.2810  -31.1240 C   0  0  0  0  0  0  0  0  0  0  0  0
   -4.5380   24.5400  -30.6170 C   0  0  0  0  0  0  0  0  0  0  0  0
   -5.5290   25.3740  -30.0890 C   0  0  0  0  0  0  0  0  0  0  0  0
   -6.8610   24.9520  -30.0670 C   0  0  0  0  0  0  0  0  0  0  0  0
   -7.2090   23.6940  -30.5720 C   0  0  0  0  0  0  0  0  0  0  0  0
   -6.2170   22.8490  -31.1050 C   0  0  0  0  0  0  0  0  0  0  0  0
   -6.5110   21.5760  -31.6210 C   0  0  0  0  0  0  0  0  0  0  0  0
   -7.7010   21.1480  -31.5940 O   0  0  0  0  0  0  0  0  0  0  0  0
   -5.5100   20.7960  -32.1470 N   0  0  0  0  0  0  0  0  0  0  0  0
   -5.8290   19.4900  -32.6680 C   0  0  0  0  0  0  0  0  0  0  0  0
   -5.7710   19.2420  -34.0500 C   0  0  0  0  0  0  0  0  0  0  0  0
   -6.0770   17.9730  -34.5520 C   0  0  0  0  0  0  0  0  0  0  0  0
   -6.4330   16.9420  -33.6780 C   0  0  0  0  0  0  0  0  0  0  0  0
   -6.4770   17.1750  -32.3020 C   0  0  0  0  0  0  0  0  0  0  0  0
   -6.1700   18.4420  -31.7960 C   0  0  0  0  0  0  0  0  0  0  0  0
   -3.2818   18.5994  -24.9119 H   0  0  0  0  0  0  0  0  0  0  0  0
   -4.3080   18.9431  -26.3456 H   0  0  0  0  0  0  0  0  0  0  0  0
   -3.2127   17.5194  -26.3456 H   0  0  0  0  0  0  0  0  0  0  0  0
   -1.8591   20.1175  -25.8341 H   0  0  0  0  0  0  0  0  0  0  0  0
   -1.4076   18.7520  -26.9327 H   0  0  0  0  0  0  0  0  0  0  0  0
   -3.6555   19.7709  -28.1741 H   0  0  0  0  0  0  0  0  0  0  0  0
   -2.8647   21.2591  -27.4967 H   0  0  0  0  0  0  0  0  0  0  0  0
   -0.6807   20.1405  -28.5401 H   0  0  0  0  0  0  0  0  0  0  0  0
   -1.9552   19.3636  -29.6195 H   0  0  0  0  0  0  0  0  0  0  0  0
   -2.7200   21.5090  -30.1330 H   0  0  0  0  0  0  0  0  0  0  0  0
   -0.5691   22.4099  -28.3884 H   0  0  0  0  0  0  0  0  0  0  0  0
   -0.9528   23.3677  -29.8895 H   0  0  0  0  0  0  0  0  0  0  0  0
   -3.3252   23.4919  -29.1650 H   0  0  0  0  0  0  0  0  0  0  0  0
   -2.8397   22.6569  -27.6160 H   0  0  0  0  0  0  0  0  0  0  0  0
   -2.1961   24.5768  -26.6964 H   0  0  0  0  0  0  0  0  0  0  0  0
   -1.1625   24.9742  -28.1108 H   0  0  0  0  0  0  0  0  0  0  0  0
   -2.8995   25.4321  -28.1108 H   0  0  0  0  0  0  0  0  0  0  0  0
   -1.9692   22.4992  -32.4114 H   0  0  0  0  0  0  0  0  0  0  0  0
   -0.7400   21.3855  -33.1672 H   0  0  0  0  0  0  0  0  0  0  0  0
   -3.4902   24.8743  -30.6337 H   0  0  0  0  0  0  0  0  0  0  0  0
   -5.2595   26.3633  -29.6906 H   0  0  0  0  0  0  0  0  0  0  0  0
   -7.6381   25.6104  -29.6516 H   0  0  0  0  0  0  0  0  0  0  0  0
   -8.2585   23.3652  -30.5525 H   0  0  0  0  0  0  0  0  0  0  0  0
   -5.4837   20.0493  -34.7398 H   0  0  0  0  0  0  0  0  0  0  0  0
   -6.0375   17.7862  -35.6353 H   0  0  0  0  0  0  0  0  0  0  0  0
   -6.6788   15.9459  -34.0746 H   0  0  0  0  0  0  0  0  0  0  0  0
   -6.7534   16.3612  -31.6154 H   0  0  0  0  0  0  0  0  0  0  0  0
   -6.1955   18.6191  -30.7107 H   0  0  0  0  0  0  0  0  0  0  0  0
  1  2  1  0
  2  3  1  0
  3  4  1  0
  4  5  1  0
  5  6  1  0
  6  7  1  0
  7  8  1  0
  5  9  1  0
  9 10  2  0
  9 11  1  0
 11 12  1  0
 12 13  1  0
 13 14  2  0
 14 15  1  0
 15 16  2  0
 16 17  1  0
 17 18  2  0
 18 19  1  0
 19 20  2  0
 20 21  1  0
 21 22  2  0
 21 23  1  0
 23 24  1  0
 24 25  2  0
 25 26  1  0
 26 27  2  0
 27 28  1  0
 28 29  2  0
 23 13  1  0
 29 24  1  0
 20 15  1  0
  1 30  1  0
  1 31  1  0
  1 32  1  0
  2 33  1  0
  2 34  1  0
  3 35  1  0
  3 36  1  0
  4 37  1  0
  4 38  1  0
  5 39  1  6
  6 40  1  0
  6 41  1  0
  7 42  1  0
  7 43  1  0
  8 44  1  0
  8 45  1  0
  8 46  1  0
 11 47  1  0
 11 48  1  0
 16 49  1  0
 17 50  1  0
 18 51  1  0
 19 52  1  0
 25 53  1  0
 26 54  1  0
 27 55  1  0
 28 56  1  0
 29 57  1  0
M  CHG  1   5   1
M  END
>  <UniqueID>  (9) 
7

>  <SMILES>  (9) 
CCCC[N@@H+](CCC)C(=O)CSc1nc2ccccc2c(=O)n1-c1ccccc1

>  <Energy>  (9) 
65.32267632534497

>  <Genealogy>  (9) 
CCCC[NH+](CCC)C(=O)CSc1nc2ccccc2c(=O)n1-c1ccccc1 (protonated)
CCCC[N@@H+](CCC)C(=O)CSc1nc2ccccc2c(=O)n1-c1ccccc1 (chirality)
CCCC[N@@H+](CCC)C(=O)CSc1nc2ccccc2c(=O)n1-c1ccccc1 (3D coordinates assigned)
CCCC[N@@H+](CCC)C(=O)CSc1nc2ccccc2c(=O)n1-c1ccccc1 (optimized conformer: 65.32267632534497 kcal/mol)

>  <smiles>  (9) 
CCCCN(CCC)C(=O)CSc1nc2ccccc2c(=O)n1-c1ccccc1

>  <score_type>  (9) 
oracle

>  <origin>  (9) 
adg

>  <m_score__min__energy>  (9) 
-7.9000000000000004

>  <m_primary>  (9) 
energy

$$$$
9:0
     RDKit          3D

 46 49  0  0  0  0  0  0  0  0999 V2000
   -6.8420   25.5610  -29.7180 C   0  0  0  0  0  0  0  0  0  0  0  0
   -5.8500   24.4300  -29.7360 C   0  0  0  0  0  0  0  0  0  0  0  0
   -4.6460   24.5380  -29.0240 C   0  0  0  0  0  0  0  0  0  0  0  0
   -3.7180   23.5320  -29.0480 N   0  0  0  0  0  0  0  0  0  0  0  0
   -2.5030   23.6900  -28.2880 C   0  0  0  0  0  0  0  0  0  0  0  0
   -2.0930   22.6900  -27.3890 C   0  0  0  0  0  0  0  0  0  0  0  0
   -0.9170   22.8470  -26.6480 C   0  0  0  0  0  0  0  0  0  0  0  0
   -0.5330   21.8840  -25.7760 F   0  0  0  0  0  0  0  0  0  0  0  0
   -0.1400   23.9980  -26.8020 C   0  0  0  0  0  0  0  0  0  0  0  0
   -0.5370   24.9940  -27.7000 C   0  0  0  0  0  0  0  0  0  0  0  0
    0.2220   26.1080  -27.8530 F   0  0  0  0  0  0  0  0  0  0  0  0
   -1.7120   24.8420  -28.4420 C   0  0  0  0  0  0  0  0  0  0  0  0
   -3.9330   22.3990  -29.7930 C   0  0  0  0  0  0  0  0  0  0  0  0
   -3.0630   21.4840  -29.8370 O   0  0  0  0  0  0  0  0  0  0  0  0
   -5.1150   22.2580  -30.5300 C   0  0  0  0  0  0  0  0  0  0  0  0
   -5.3420   21.1490  -31.2830 N   0  0  0  0  0  0  0  0  0  0  0  0
   -6.4750   20.9930  -32.0230 C   0  0  0  0  0  0  0  0  0  0  0  0
   -6.6610   19.7950  -32.8170 N   0  0  0  0  0  0  0  0  0  0  0  0
   -7.8970   19.0040  -32.7050 C   0  0  0  0  0  0  0  0  0  0  0  0
   -7.5640   17.5040  -32.6490 C   0  0  0  0  0  0  0  0  0  0  0  0
   -6.5490   17.0650  -33.6460 N   0  0  0  0  0  0  0  0  0  0  0  0
   -5.4010   16.4050  -32.9960 C   0  0  0  0  0  0  0  0  0  0  0  0
   -6.1110   18.1280  -34.5770 C   0  0  0  0  0  0  0  0  0  0  0  0
   -5.6740   19.4000  -33.8340 C   0  0  0  0  0  0  0  0  0  0  0  0
   -7.4350   22.0250  -31.9940 C   0  0  0  0  0  0  0  0  0  0  0  0
   -7.2100   23.1340  -31.2420 N   0  0  0  0  0  0  0  0  0  0  0  0
   -6.0760   23.2800  -30.5070 C   0  0  0  0  0  0  0  0  0  0  0  0
   -7.0756   25.8273  -28.6766 H   0  0  0  0  0  0  0  0  0  0  0  0
   -6.4126   26.4335  -30.2321 H   0  0  0  0  0  0  0  0  0  0  0  0
   -7.7631   25.2491  -30.2321 H   0  0  0  0  0  0  0  0  0  0  0  0
   -4.4444   25.4460  -28.4368 H   0  0  0  0  0  0  0  0  0  0  0  0
   -2.6995   21.7803  -27.2678 H   0  0  0  0  0  0  0  0  0  0  0  0
    0.7836   24.1207  -26.2172 H   0  0  0  0  0  0  0  0  0  0  0  0
   -2.0188   25.6268  -29.1491 H   0  0  0  0  0  0  0  0  0  0  0  0
   -8.4310   19.2922  -31.7875 H   0  0  0  0  0  0  0  0  0  0  0  0
   -8.5288   19.1989  -33.5841 H   0  0  0  0  0  0  0  0  0  0  0  0
   -7.1820   17.2730  -31.6436 H   0  0  0  0  0  0  0  0  0  0  0  0
   -8.4932   16.9655  -32.8868 H   0  0  0  0  0  0  0  0  0  0  0  0
   -5.5118   16.4687  -31.9035 H   0  0  0  0  0  0  0  0  0  0  0  0
   -5.3652   15.3484  -33.2999 H   0  0  0  0  0  0  0  0  0  0  0  0
   -4.4699   16.9057  -33.2999 H   0  0  0  0  0  0  0  0  0  0  0  0
   -5.2631   17.7539  -35.1695 H   0  0  0  0  0  0  0  0  0  0  0  0
   -6.9636   18.3873  -35.2219 H   0  0  0  0  0  0  0  0  0  0  0  0
   -4.7084   19.2126  -33.3415 H   0  0  0  0  0  0  0  0  0  0  0  0
   -5.5874   20.2158  -34.5668 H   0  0  0  0  0  0  0  0  0  0  0  0
   -8.3626   21.9327  -32.5779 H   0  0  0  0  0  0  0  0  0  0  0  0
  1  2  1  0
  2  3  2  0
  3  4  1  0
  4  5  1  0
  5  6  2  0
  6  7  1  0
  7  8  1  0
  7  9  2  0
  9 10  1  0
 10 11  1  0
 10 12  2  0
  4 13  1  0
 13 14  2  0
 13 15  1  0
 15 16  2  0
 16 17  1  0
 17 18  1  0
 18 19  1  0
 19 20  1  0
 20 21  1  0
 21 22  1  0
 21 23  1  0
 23 24  1  0
 17 25  2  0
 25 26  1  0
 26 27  2  0
 27  2  1  0
 12  5  1  0
 27 15  1  0
 24 18  1  0
  1 28  1  0
  1 29  1  0
  1 30  1  0
  3 31  1  0
  6 32  1  0
  9 33  1  0
 12 34  1  0
 19 35  1  0
 19 36  1  0
 20 37  1  0
 20 38  1  0
 22 39  1  0
 22 40  1  0
 22 41  1  0
 23 42  1  0
 23 43  1  0
 24 44  1  0
 24 45  1  0
 25 46  1  0
M  END
>  <UniqueID>  (10) 
8

>  <SMILES>  (10) 
Cc1cn(-c2cc(F)cc(F)c2)c(=O)c2nc(N3CCN(C)CC3)cnc12

>  <Energy>  (10) 
72.26464978390277

>  <Genealogy>  (10) 
Cc1cn(-c2cc(F)cc(F)c2)c(=O)c2nc(N3CCN(C)CC3)cnc12 (3D coordinates assigned)
Cc1cn(-c2cc(F)cc(F)c2)c(=O)c2nc(N3CCN(C)CC3)cnc12 (nonaromatic ring conformer: 72.26464978390277 kcal/mol)

>  <smiles>  (10) 
Cc1cn(-c2cc(F)cc(F)c2)c(=O)c2nc(N3CCN(C)CC3)cnc12

>  <score_type>  (10) 
oracle

>  <origin>  (10) 
adg

>  <m_score__min__energy>  (10) 
-7.4500000000000002

>  <m_primary>  (10) 
energy

$$$$
10:0
     RDKit          3D

 43 44  0  0  0  0  0  0  0  0999 V2000
   -6.3590   24.9250  -30.4520 C   0  0  0  0  0  0  0  0  0  0  0  0
   -5.2390   24.8440  -29.4210 C   0  0  0  0  0  0  0  0  0  0  0  0
   -3.9620   24.8300  -30.0610 O   0  0  0  0  0  0  0  0  0  0  0  0
   -3.2570   23.6820  -30.4670 C   0  0  0  0  0  0  0  0  0  0  0  0
   -3.6520   22.9130  -31.5790 C   0  0  0  0  0  0  0  0  0  0  0  0
   -2.9140   21.7850  -31.9690 C   0  0  0  0  0  0  0  0  0  0  0  0
   -3.3700   20.9440  -33.1330 C   0  0  0  0  0  0  0  0  0  0  0  0
   -4.7930   21.1920  -33.4190 N   0  0  0  0  0  0  0  0  0  0  0  0
   -5.6550   20.1150  -32.9040 C   0  0  0  0  0  0  0  0  0  0  0  0
   -7.0150   20.6280  -32.4940 C   0  0  0  0  0  0  0  0  0  0  0  0
   -7.1570   21.9190  -31.9580 C   0  0  0  0  0  0  0  0  0  0  0  0
   -8.4210   22.3990  -31.6010 C   0  0  0  0  0  0  0  0  0  0  0  0
   -9.5510   21.5950  -31.7780 C   0  0  0  0  0  0  0  0  0  0  0  0
   -9.4180   20.3100  -32.3140 C   0  0  0  0  0  0  0  0  0  0  0  0
   -8.1560   19.8280  -32.6720 C   0  0  0  0  0  0  0  0  0  0  0  0
   -1.7830   21.4120  -31.2310 C   0  0  0  0  0  0  0  0  0  0  0  0
   -1.3790   22.1700  -30.1320 C   0  0  0  0  0  0  0  0  0  0  0  0
   -2.1120   23.2980  -29.7360 C   0  0  0  0  0  0  0  0  0  0  0  0
   -1.6440   24.1160  -28.5600 C   0  0  0  0  0  0  0  0  0  0  0  0
   -1.9300   25.5270  -28.7880 N   0  0  0  0  0  0  0  0  0  0  0  0
   -7.3280   24.9951  -29.9360 H   0  0  0  0  0  0  0  0  0  0  0  0
   -6.2138   25.8150  -31.0820 H   0  0  0  0  0  0  0  0  0  0  0  0
   -6.3434   24.0234  -31.0820 H   0  0  0  0  0  0  0  0  0  0  0  0
   -5.2988   25.7166  -28.7539 H   0  0  0  0  0  0  0  0  0  0  0  0
   -5.3556   23.9140  -28.8453 H   0  0  0  0  0  0  0  0  0  0  0  0
   -4.5487   23.1998  -32.1479 H   0  0  0  0  0  0  0  0  0  0  0  0
   -2.7721   21.1988  -34.0205 H   0  0  0  0  0  0  0  0  0  0  0  0
   -3.2367   19.8819  -32.8797 H   0  0  0  0  0  0  0  0  0  0  0  0
   -5.0850   22.1090  -33.0080 H   0  0  0  0  0  0  0  0  0  0  0  0
   -4.9250   21.2420  -34.4580 H   0  0  0  0  0  0  0  0  0  0  0  0
   -5.7835   19.3561  -33.6899 H   0  0  0  0  0  0  0  0  0  0  0  0
   -5.1702   19.6871  -32.0142 H   0  0  0  0  0  0  0  0  0  0  0  0
   -6.2702   22.5548  -31.8186 H   0  0  0  0  0  0  0  0  0  0  0  0
   -8.5263   23.4100  -31.1806 H   0  0  0  0  0  0  0  0  0  0  0  0
  -10.5447   21.9730  -31.4957 H   0  0  0  0  0  0  0  0  0  0  0  0
  -10.3075   19.6782  -32.4539 H   0  0  0  0  0  0  0  0  0  0  0  0
   -8.0556   18.8176  -33.0951 H   0  0  0  0  0  0  0  0  0  0  0  0
   -1.2112   20.5176  -31.5195 H   0  0  0  0  0  0  0  0  0  0  0  0
   -0.4780   21.8806  -29.5713 H   0  0  0  0  0  0  0  0  0  0  0  0
   -2.1666   23.7806  -27.6521 H   0  0  0  0  0  0  0  0  0  0  0  0
   -0.5590   23.9831  -28.4369 H   0  0  0  0  0  0  0  0  0  0  0  0
   -1.9880   25.6780  -29.8210 H   0  0  0  0  0  0  0  0  0  0  0  0
   -2.8810   25.7340  -28.4020 H   0  0  0  0  0  0  0  0  0  0  0  0
  1  2  1  0
  2  3  1  0
  3  4  1  0
  4  5  2  0
  5  6  1  0
  6  7  1  0
  7  8  1  0
  8  9  1  0
  9 10  1  0
 10 11  2  0
 11 12  1  0
 12 13  2  0
 13 14  1  0
 14 15  2  0
  6 16  2  0
 16 17  1  0
 17 18  2  0
 18 19  1  0
 19 20  1  0
 18  4  1  0
 15 10  1  0
  1 21  1  0
  1 22  1  0
  1 23  1  0
  2 24  1  0
  2 25  1  0
  5 26  1  0
  7 27  1  0
  7 28  1  0
  8 29  1  0
  8 30  1  0
  9 31  1  0
  9 32  1  0
 11 33  1  0
 12 34  1  0
 13 35  1  0
 14 36  1  0
 15 37  1  0
 16 38  1  0
 17 39  1  0
 19 40  1  0
 19 41  1  0
 20 42  1  0
 20 43  1  0
M  CHG  1   8   1
M  END
>  <UniqueID>  (11) 
9

>  <SMILES>  (11) 
CCOc1cc(C[NH2+]Cc2ccccc2)ccc1CN

>  <Energy>  (11) 
38.24836894554592

>  <Genealogy>  (11) 
CCOc1cc(C[NH2+]Cc2ccccc2)ccc1CN (protonated)
CCOc1cc(C[NH2+]Cc2ccccc2)ccc1CN (3D coordinates assigned)
CCOc1cc(C[NH2+]Cc2ccccc2)ccc1CN (optimized conformer: 38.24836894554592 kcal/mol)

>  <smiles>  (11) 
CCOc1cc(CNCc2ccccc2)ccc1CN

>  <score_type>  (11) 
oracle

>  <origin>  (11) 
adg

>  <m_score__min__energy>  (11) 
-7.6299999999999999

>  <m_primary>  (11) 
energy

$$$$
11:0
     RDKit          3D

 54 59  0  0  0  0  0  0  0  0999 V2000
   -0.4350   25.7140  -24.3480 C   0  0  0  0  0  0  0  0  0  0  0  0
   -1.4930   26.4150  -24.9310 C   0  0  0  0  0  0  0  0  0  0  0  0
   -2.1510   25.8890  -26.0470 C   0  0  0  0  0  0  0  0  0  0  0  0
   -1.7560   24.6540  -26.5930 C   0  0  0  0  0  0  0  0  0  0  0  0
   -2.4490   24.0960  -27.7810 C   0  0  0  0  0  0  0  0  0  0  0  0
   -1.7180   23.7790  -28.9580 C   0  0  0  0  0  0  0  0  0  0  0  0
   -2.3660   23.2590  -30.0920 C   0  0  0  0  0  0  0  0  0  0  0  0
   -3.7430   23.0520  -30.0160 C   0  0  0  0  0  0  0  0  0  0  0  0
   -4.4540   23.3570  -28.8950 C   0  0  0  0  0  0  0  0  0  0  0  0
   -3.8490   23.8810  -27.7560 C   0  0  0  0  0  0  0  0  0  0  0  0
   -5.7610   23.1110  -29.0840 N   0  0  0  0  0  0  0  0  0  0  0  0
   -5.8080   22.6340  -30.3560 C   0  0  0  0  0  0  0  0  0  0  0  0
   -7.0870   22.2630  -31.0000 C   0  0  0  0  0  0  0  0  0  0  0  0
   -7.8960   23.2650  -31.5550 C   0  0  0  0  0  0  0  0  0  0  0  0
   -9.1150   22.9200  -32.1420 C   0  0  0  0  0  0  0  0  0  0  0  0
   -9.5220   21.5870  -32.1600 C   0  0  0  0  0  0  0  0  0  0  0  0
   -8.7020   20.6150  -31.5830 C   0  0  0  0  0  0  0  0  0  0  0  0
   -7.5180   20.9670  -31.0130 N   0  0  0  0  0  0  0  0  0  0  0  0
   -4.5840   22.5850  -30.9570 N   0  0  0  0  0  0  0  0  0  0  0  0
   -4.2520   22.2790  -32.3530 C   0  0  0  0  0  0  0  0  0  0  0  0
   -4.6300   20.8620  -32.7160 C   0  0  0  0  0  0  0  0  0  0  0  0
   -3.7880   19.8010  -32.3480 C   0  0  0  0  0  0  0  0  0  0  0  0
   -4.1070   18.4870  -32.7010 C   0  0  0  0  0  0  0  0  0  0  0  0
   -5.2700   18.2090  -33.4390 C   0  0  0  0  0  0  0  0  0  0  0  0
   -5.5960   16.8560  -33.8080 N   0  0  0  0  0  0  0  0  0  0  0  0
   -6.8330   16.3800  -33.8590 N   0  0  0  0  0  0  0  0  0  0  0  0
   -6.7250   15.0950  -34.2340 C   0  0  0  0  0  0  0  0  0  0  0  0
   -5.3860   14.8170  -34.4020 C   0  0  0  0  0  0  0  0  0  0  0  0
   -4.6970   15.9380  -34.1300 N   0  0  0  0  0  0  0  0  0  0  0  0
   -6.1060   19.2730  -33.8180 C   0  0  0  0  0  0  0  0  0  0  0  0
   -5.7860   20.5880  -33.4650 C   0  0  0  0  0  0  0  0  0  0  0  0
   -0.6880   23.9570  -25.9950 C   0  0  0  0  0  0  0  0  0  0  0  0
   -0.0340   24.4860  -24.8780 C   0  0  0  0  0  0  0  0  0  0  0  0
    0.0826   26.1295  -23.4708 H   0  0  0  0  0  0  0  0  0  0  0  0
   -1.8089   27.3817  -24.5119 H   0  0  0  0  0  0  0  0  0  0  0  0
   -2.9840   26.4452  -26.5016 H   0  0  0  0  0  0  0  0  0  0  0  0
   -0.6305   23.9428  -28.9819 H   0  0  0  0  0  0  0  0  0  0  0  0
   -1.8056   23.0233  -31.0087 H   0  0  0  0  0  0  0  0  0  0  0  0
   -4.4418   24.1215  -26.8611 H   0  0  0  0  0  0  0  0  0  0  0  0
   -7.5723   24.3160  -31.5281 H   0  0  0  0  0  0  0  0  0  0  0  0
   -9.7520   23.6976  -32.5887 H   0  0  0  0  0  0  0  0  0  0  0  0
  -10.4785   21.3038  -32.6236 H   0  0  0  0  0  0  0  0  0  0  0  0
   -9.0147   19.5604  -31.5894 H   0  0  0  0  0  0  0  0  0  0  0  0
   -6.9490   20.2190  -30.5570 H   0  0  0  0  0  0  0  0  0  0  0  0
   -4.7964   22.9733  -33.0100 H   0  0  0  0  0  0  0  0  0  0  0  0
   -3.1650   22.3889  -32.4805 H   0  0  0  0  0  0  0  0  0  0  0  0
   -2.8700   20.0053  -31.7774 H   0  0  0  0  0  0  0  0  0  0  0  0
   -3.4426   17.6640  -32.3988 H   0  0  0  0  0  0  0  0  0  0  0  0
   -7.5568   14.3904  -34.3808 H   0  0  0  0  0  0  0  0  0  0  0  0
   -4.9576   13.8501  -34.7047 H   0  0  0  0  0  0  0  0  0  0  0  0
   -7.0192   19.0701  -34.3968 H   0  0  0  0  0  0  0  0  0  0  0  0
   -6.4439   21.4129  -33.7760 H   0  0  0  0  0  0  0  0  0  0  0  0
   -0.3663   22.9902  -26.4094 H   0  0  0  0  0  0  0  0  0  0  0  0
    0.7977   23.9339  -24.4161 H   0  0  0  0  0  0  0  0  0  0  0  0
  1  2  2  0
  2  3  1  0
  3  4  2  0
  4  5  1  0
  5  6  2  0
  6  7  1  0
  7  8  2  0
  8  9  1  0
  9 10  2  0
  9 11  1  0
 11 12  2  0
 12 13  1  0
 13 14  2  0
 14 15  1  0
 15 16  2  0
 16 17  1  0
 17 18  2  0
 12 19  1  0
 19 20  1  0
 20 21  1  0
 21 22  2  0
 22 23  1  0
 23 24  2  0
 24 25  1  0
 25 26  1  0
 26 27  2  0
 27 28  1  0
 28 29  2  0
 24 30  1  0
 30 31  2  0
  4 32  1  0
 32 33  2  0
 33  1  1  0
 10  5  1  0
 18 13  1  0
 31 21  1  0
 19  8  1  0
 29 25  1  0
  1 34  1  0
  2 35  1  0
  3 36  1  0
  6 37  1  0
  7 38  1  0
 10 39  1  0
 14 40  1  0
 15 41  1  0
 16 42  1  0
 17 43  1  0
 18 44  1  0
 20 45  1  0
 20 46  1  0
 22 47  1  0
 23 48  1  0
 27 49  1  0
 28 50  1  0
 30 51  1  0
 31 52  1  0
 32 53  1  0
 33 54  1  0
M  CHG  1  18   1
M  END
>  <UniqueID>  (12) 
10

>  <SMILES>  (12) 
c1ccc(-c2ccc3c(c2)nc(-c2cccc[nH+]2)n3Cc2ccc(-n3nccn3)cc2)cc1

>  <Energy>  (12) 
144.69775092166427

>  <Genealogy>  (12) 
c1ccc(-c2ccc3c(c2)nc(-c2cccc[nH+]2)n3Cc2ccc(-n3nccn3)cc2)cc1 (protonated)
c1ccc(-c2ccc3c(c2)nc(-c2cccc[nH+]2)n3Cc2ccc(-n3nccn3)cc2)cc1 (3D coordinates assigned)
c1ccc(-c2ccc3c(c2)nc(-c2cccc[nH+]2)n3Cc2ccc(-n3nccn3)cc2)cc1 (optimized conformer: 144.69775092166427 kcal/mol)

>  <smiles>  (12) 
c1ccc(-c2ccc3c(c2)nc(-c2ccccn2)n3Cc2ccc(-n3nccn3)cc2)cc1

>  <score_type>  (12) 
oracle

>  <origin>  (12) 
adg

>  <m_score__min__energy>  (12) 
-8.6699999999999999

>  <m_primary>  (12) 
energy

$$$$
12:0
     RDKit          3D

 51 53  0  0  0  0  0  0  0  0999 V2000
   -6.2650   25.4260  -29.5460 C   0  0  0  0  0  0  0  0  0  0  0  0
   -5.3620   25.6920  -30.7410 C   0  0  0  0  0  0  0  0  0  0  0  0
   -4.0480   25.2210  -30.4580 O   0  0  0  0  0  0  0  0  0  0  0  0
   -3.7300   23.8860  -30.1690 C   0  0  0  0  0  0  0  0  0  0  0  0
   -3.8200   23.3520  -28.8670 C   0  0  0  0  0  0  0  0  0  0  0  0
   -3.4870   22.0160  -28.6310 C   0  0  0  0  0  0  0  0  0  0  0  0
   -3.0690   21.1990  -29.6830 C   0  0  0  0  0  0  0  0  0  0  0  0
   -2.9930   21.7120  -30.9860 C   0  0  0  0  0  0  0  0  0  0  0  0
   -2.5430   20.8500  -32.0970 C   0  0  0  0  0  0  0  0  0  0  0  0
   -1.2880   21.1130  -32.6740 C   0  0  0  0  0  0  0  0  0  0  0  0
   -0.8210   20.3420  -33.7390 C   0  0  0  0  0  0  0  0  0  0  0  0
   -1.5970   19.2970  -34.2370 C   0  0  0  0  0  0  0  0  0  0  0  0
   -2.8400   19.0130  -33.6690 C   0  0  0  0  0  0  0  0  0  0  0  0
   -3.3290   19.7780  -32.5950 C   0  0  0  0  0  0  0  0  0  0  0  0
   -4.6560   19.3740  -31.9710 C   0  0  0  0  0  0  0  0  0  0  0  0
   -5.5320   18.6570  -32.9310 N   0  0  1  0  0  0  0  0  0  0  0  0
   -6.4070   17.6980  -32.2230 C   0  0  0  0  0  0  0  0  0  0  0  0
   -6.3420   19.6400  -33.6910 C   0  0  0  0  0  0  0  0  0  0  0  0
   -7.0990   20.5820  -32.7830 C   0  0  0  0  0  0  0  0  0  0  0  0
   -6.5260   21.8070  -32.4020 C   0  0  0  0  0  0  0  0  0  0  0  0
   -7.2300   22.6880  -31.5750 C   0  0  0  0  0  0  0  0  0  0  0  0
   -8.5110   22.3540  -31.1250 C   0  0  0  0  0  0  0  0  0  0  0  0
   -9.0890   21.1390  -31.5030 C   0  0  0  0  0  0  0  0  0  0  0  0
   -8.3870   20.2540  -32.3270 C   0  0  0  0  0  0  0  0  0  0  0  0
   -3.3090   23.0610  -31.2180 C   0  0  0  0  0  0  0  0  0  0  0  0
   -5.7012   25.5921  -28.6162 H   0  0  0  0  0  0  0  0  0  0  0  0
   -7.1272   26.1083  -29.5788 H   0  0  0  0  0  0  0  0  0  0  0  0
   -6.6196   24.3852  -29.5788 H   0  0  0  0  0  0  0  0  0  0  0  0
   -5.7574   25.1673  -31.6232 H   0  0  0  0  0  0  0  0  0  0  0  0
   -5.3285   26.7731  -30.9415 H   0  0  0  0  0  0  0  0  0  0  0  0
   -4.1534   23.9893  -28.0347 H   0  0  0  0  0  0  0  0  0  0  0  0
   -3.5544   21.6062  -27.6124 H   0  0  0  0  0  0  0  0  0  0  0  0
   -2.7986   20.1505  -29.4894 H   0  0  0  0  0  0  0  0  0  0  0  0
   -0.6690   21.9337  -32.2824 H   0  0  0  0  0  0  0  0  0  0  0  0
    0.1604   20.5591  -34.1859 H   0  0  0  0  0  0  0  0  0  0  0  0
   -1.2288   18.6942  -35.0802 H   0  0  0  0  0  0  0  0  0  0  0  0
   -3.4430   18.1827  -34.0653 H   0  0  0  0  0  0  0  0  0  0  0  0
   -4.4578   18.7155  -31.1124 H   0  0  0  0  0  0  0  0  0  0  0  0
   -5.1762   20.2920  -31.6600 H   0  0  0  0  0  0  0  0  0  0  0  0
   -4.9310   18.1260  -33.6040 H   0  0  0  0  0  0  0  0  0  0  0  0
   -6.2893   17.8270  -31.1370 H   0  0  0  0  0  0  0  0  0  0  0  0
   -7.4548   17.8822  -32.5027 H   0  0  0  0  0  0  0  0  0  0  0  0
   -6.1278   16.6714  -32.5027 H   0  0  0  0  0  0  0  0  0  0  0  0
   -5.6716   20.2299  -34.3333 H   0  0  0  0  0  0  0  0  0  0  0  0
   -7.0788   19.0810  -34.2865 H   0  0  0  0  0  0  0  0  0  0  0  0
   -5.5193   22.0742  -32.7557 H   0  0  0  0  0  0  0  0  0  0  0  0
   -6.7755   23.6447  -31.2782 H   0  0  0  0  0  0  0  0  0  0  0  0
   -9.0636   23.0472  -30.4738 H   0  0  0  0  0  0  0  0  0  0  0  0
  -10.0982   20.8784  -31.1516 H   0  0  0  0  0  0  0  0  0  0  0  0
   -8.8447   19.2974  -32.6194 H   0  0  0  0  0  0  0  0  0  0  0  0
   -3.2247   23.4729  -32.2345 H   0  0  0  0  0  0  0  0  0  0  0  0
  1  2  1  0
  2  3  1  0
  3  4  1  0
  4  5  2  0
  5  6  1  0
  6  7  2  0
  7  8  1  0
  8  9  1  0
  9 10  2  0
 10 11  1  0
 11 12  2  0
 12 13  1  0
 13 14  2  0
 14 15  1  0
 15 16  1  0
 16 17  1  0
 16 18  1  0
 18 19  1  0
 19 20  2  0
 20 21  1  0
 21 22  2  0
 22 23  1  0
 23 24  2  0
  8 25  2  0
 25  4  1  0
 14  9  1  0
 24 19  1  0
  1 26  1  0
  1 27  1  0
  1 28  1  0
  2 29  1  0
  2 30  1  0
  5 31  1  0
  6 32  1  0
  7 33  1  0
 10 34  1  0
 11 35  1  0
 12 36  1  0
 13 37  1  0
 15 38  1  0
 15 39  1  0
 16 40  1  6
 17 41  1  0
 17 42  1  0
 17 43  1  0
 18 44  1  0
 18 45  1  0
 20 46  1  0
 21 47  1  0
 22 48  1  0
 23 49  1  0
 24 50  1  0
 25 51  1  0
M  CHG  1  16   1
M  END
>  <UniqueID>  (13) 
11

>  <SMILES>  (13) 
CCOc1cccc(-c2ccccc2C[N@@H+](C)Cc2ccccc2)c1

>  <Energy>  (13) 
59.524825743349936

>  <Genealogy>  (13) 
CCOc1cccc(-c2ccccc2C[NH+](C)Cc2ccccc2)c1 (protonated)
CCOc1cccc(-c2ccccc2C[N@@H+](C)Cc2ccccc2)c1 (chirality)
CCOc1cccc(-c2ccccc2C[N@@H+](C)Cc2ccccc2)c1 (3D coordinates assigned)
CCOc1cccc(-c2ccccc2C[N@@H+](C)Cc2ccccc2)c1 (optimized conformer: 59.524825743349936 kcal/mol)

>  <smiles>  (13) 
CCOc1cccc(-c2ccccc2CN(C)Cc2ccccc2)c1

>  <score_type>  (13) 
oracle

>  <origin>  (13) 
adg

>  <m_score__min__energy>  (13) 
-8.25

>  <m_primary>  (13) 
energy

$$$$
13:0
     RDKit          3D

 52 56  0  0  0  0  0  0  0  0999 V2000
   -9.1200   19.3750  -32.3880 C   0  0  0  0  0  0  0  0  0  0  0  0
   -7.9310   18.6400  -32.3850 C   0  0  0  0  0  0  0  0  0  0  0  0
   -6.7350   19.2460  -31.9950 C   0  0  0  0  0  0  0  0  0  0  0  0
   -6.7180   20.5940  -31.6010 C   0  0  0  0  0  0  0  0  0  0  0  0
   -5.5500   21.1920  -31.2260 N   0  0  0  0  0  0  0  0  0  0  0  0
   -5.5100   22.5030  -30.8410 C   0  0  0  0  0  0  0  0  0  0  0  0
   -4.2930   23.1000  -30.4770 C   0  0  0  0  0  0  0  0  0  0  0  0
   -4.2540   24.4510  -30.0770 C   0  0  0  0  0  0  0  0  0  0  0  0
   -3.0610   25.0930  -29.7150 O   0  0  0  0  0  0  0  0  0  0  0  0
   -2.3950   24.9140  -28.4680 C   0  0  0  0  0  0  0  0  0  0  0  0
   -0.8770   24.9540  -28.6550 C   0  0  0  0  0  0  0  0  0  0  0  0
   -0.2780   23.6250  -28.3910 N   0  0  0  0  0  0  0  0  0  0  0  0
   -0.8410   22.6030  -29.3050 C   0  0  0  0  0  0  0  0  0  0  0  0
   -0.4230   21.1870  -28.8830 C   0  0  0  0  0  0  0  0  0  0  0  0
   -0.8020   20.8750  -27.4840 N   0  0  0  0  0  0  0  0  0  0  0  0
   -1.5680   19.6080  -27.3620 C   0  0  0  0  0  0  0  0  0  0  0  0
   -2.2290   19.2480  -26.0270 C   0  0  0  0  0  0  0  0  0  0  0  0
   -3.0730   19.7850  -27.1790 C   0  0  0  0  0  0  0  0  0  0  0  0
   -1.2570   22.0360  -26.6930 C   0  0  0  0  0  0  0  0  0  0  0  0
   -0.3500   23.2450  -26.9510 C   0  0  0  0  0  0  0  0  0  0  0  0
   -5.4420   25.1910  -30.0390 C   0  0  0  0  0  0  0  0  0  0  0  0
   -6.6560   24.6100  -30.4080 C   0  0  0  0  0  0  0  0  0  0  0  0
   -6.6990   23.2690  -30.8140 C   0  0  0  0  0  0  0  0  0  0  0  0
   -7.9050   22.6740  -31.1990 C   0  0  0  0  0  0  0  0  0  0  0  0
   -7.9240   21.3330  -31.6000 C   0  0  0  0  0  0  0  0  0  0  0  0
   -9.1200   20.7180  -31.9980 C   0  0  0  0  0  0  0  0  0  0  0  0
  -10.0598   18.8949  -32.6985 H   0  0  0  0  0  0  0  0  0  0  0  0
   -7.9375   17.5832  -32.6902 H   0  0  0  0  0  0  0  0  0  0  0  0
   -5.8012   18.6646  -31.9964 H   0  0  0  0  0  0  0  0  0  0  0  0
   -4.6640   20.6340  -31.2360 H   0  0  0  0  0  0  0  0  0  0  0  0
   -3.3647   22.5104  -30.5040 H   0  0  0  0  0  0  0  0  0  0  0  0
   -2.6953   25.7177  -27.7796 H   0  0  0  0  0  0  0  0  0  0  0  0
   -2.6748   23.9335  -28.0552 H   0  0  0  0  0  0  0  0  0  0  0  0
   -0.6490   25.2532  -29.6887 H   0  0  0  0  0  0  0  0  0  0  0  0
   -0.4536   25.6785  -27.9438 H   0  0  0  0  0  0  0  0  0  0  0  0
   -1.9387   22.6727  -29.2880 H   0  0  0  0  0  0  0  0  0  0  0  0
   -0.4549   22.7920  -30.3175 H   0  0  0  0  0  0  0  0  0  0  0  0
   -0.9111   20.4617  -29.5506 H   0  0  0  0  0  0  0  0  0  0  0  0
    0.6732   21.1280  -28.9528 H   0  0  0  0  0  0  0  0  0  0  0  0
   -0.8959   19.0609  -28.0395 H   0  0  0  0  0  0  0  0  0  0  0  0
   -2.3185   18.1944  -25.7237 H   0  0  0  0  0  0  0  0  0  0  0  0
   -2.0710   19.5363  -24.9773 H   0  0  0  0  0  0  0  0  0  0  0  0
   -3.7724   19.1183  -27.7048 H   0  0  0  0  0  0  0  0  0  0  0  0
   -3.7767   20.6216  -27.3014 H   0  0  0  0  0  0  0  0  0  0  0  0
   -2.2885   22.2886  -26.9799 H   0  0  0  0  0  0  0  0  0  0  0  0
   -1.2149   21.7791  -25.6243 H   0  0  0  0  0  0  0  0  0  0  0  0
   -0.7387   24.1022  -26.3817 H   0  0  0  0  0  0  0  0  0  0  0  0
    0.6659   22.9667  -26.6338 H   0  0  0  0  0  0  0  0  0  0  0  0
   -5.4182   26.2418  -29.7147 H   0  0  0  0  0  0  0  0  0  0  0  0
   -7.5806   25.2053  -30.3802 H   0  0  0  0  0  0  0  0  0  0  0  0
   -8.8366   23.2588  -31.1867 H   0  0  0  0  0  0  0  0  0  0  0  0
  -10.0583   21.2922  -32.0034 H   0  0  0  0  0  0  0  0  0  0  0  0
  1  2  2  0
  2  3  1  0
  3  4  2  0
  4  5  1  0
  5  6  2  0
  6  7  1  0
  7  8  2  0
  8  9  1  0
  9 10  1  0
 10 11  1  0
 11 12  1  0
 12 13  1  0
 13 14  1  0
 14 15  1  0
 15 16  1  0
 16 17  1  0
 17 18  1  0
 15 19  1  0
 19 20  1  0
  8 21  1  0
 21 22  2  0
 22 23  1  0
 23 24  2  0
 24 25  1  0
 25 26  2  0
 26  1  1  0
 25  4  1  0
 23  6  1  0
 20 12  1  0
 18 16  1  0
  1 27  1  0
  2 28  1  0
  3 29  1  0
  5 30  1  0
  7 31  1  0
 10 32  1  0
 10 33  1  0
 11 34  1  0
 11 35  1  0
 13 36  1  0
 13 37  1  0
 14 38  1  0
 14 39  1  0
 16 40  1  0
 17 41  1  0
 17 42  1  0
 18 43  1  0
 18 44  1  0
 19 45  1  0
 19 46  1  0
 20 47  1  0
 20 48  1  0
 21 49  1  0
 22 50  1  0
 24 51  1  0
 26 52  1  0
M  CHG  1   5   1
M  END
>  <UniqueID>  (14) 
12

>  <SMILES>  (14) 
c1ccc2[nH+]c3cc(OCCN4CCN(C5CC5)CC4)ccc3cc2c1

>  <Energy>  (14) 
348.09803356616044

>  <Genealogy>  (14) 
c1ccc2[nH+]c3cc(OCCN4CCN(C5CC5)CC4)ccc3cc2c1 (protonated)
c1ccc2[nH+]c3cc(OCCN4CCN(C5CC5)CC4)ccc3cc2c1 (3D coordinates assigned)
c1ccc2[nH+]c3cc(OCCN4CCN(C5CC5)CC4)ccc3cc2c1 (nonaromatic ring conformer: 348.09803356616044 kcal/mol)

>  <smiles>  (14) 
c1ccc2nc3cc(OCCN4CCN(C5CC5)CC4)ccc3cc2c1

>  <score_type>  (14) 
oracle

>  <origin>  (14) 
adg

>  <m_score__min__energy>  (14) 
-9.1799999999999997

>  <m_primary>  (14) 
energy

$$$$
14:0
     RDKit          3D

 30 32  0  0  0  0  0  0  0  0999 V2000
   -3.8260   25.2520  -30.7770 N   0  0  0  0  0  0  0  0  0  0  0  0
   -3.4270   23.8500  -29.8490 S   0  0  0  0  0  0  0  0  0  0  0  0
   -4.6810   23.2930  -29.2360 O   0  0  0  0  0  0  0  0  0  0  0  0
   -2.4830   24.2250  -28.7410 O   0  0  0  0  0  0  0  0  0  0  0  0
   -2.6810   22.6330  -30.8990 C   0  0  0  0  0  0  0  0  0  0  0  0
   -1.2910   22.4490  -30.8430 C   0  0  0  0  0  0  0  0  0  0  0  0
   -0.6790   21.5590  -31.6660 N   0  0  0  0  0  0  0  0  0  0  0  0
   -1.3780   20.8200  -32.5650 C   0  0  0  0  0  0  0  0  0  0  0  0
   -2.7620   20.9560  -32.6560 C   0  0  0  0  0  0  0  0  0  0  0  0
   -3.4310   21.8560  -31.8130 C   0  0  0  0  0  0  0  0  0  0  0  0
   -4.9000   21.9560  -31.9110 C   0  0  0  0  0  0  0  0  0  0  0  0
   -5.5110   23.2120  -32.0590 C   0  0  0  0  0  0  0  0  0  0  0  0
   -6.9020   23.3160  -32.1550 C   0  0  0  0  0  0  0  0  0  0  0  0
   -7.6950   22.1640  -32.1110 C   0  0  0  0  0  0  0  0  0  0  0  0
   -9.0490   22.2630  -32.2000 N   0  0  0  0  0  0  0  0  0  0  0  0
   -9.8490   21.1640  -32.1650 C   0  0  0  0  0  0  0  0  0  0  0  0
   -9.2890   19.8900  -32.0350 C   0  0  0  0  0  0  0  0  0  0  0  0
   -7.9010   19.7560  -31.9410 C   0  0  0  0  0  0  0  0  0  0  0  0
   -7.0880   20.8960  -31.9780 C   0  0  0  0  0  0  0  0  0  0  0  0
   -5.6920   20.7970  -31.8860 C   0  0  0  0  0  0  0  0  0  0  0  0
   -3.8720   26.0560  -30.1100 H   0  0  0  0  0  0  0  0  0  0  0  0
   -0.6922   23.0305  -30.1265 H   0  0  0  0  0  0  0  0  0  0  0  0
   -0.8512   20.1128  -33.2226 H   0  0  0  0  0  0  0  0  0  0  0  0
   -3.3281   20.3595  -33.3866 H   0  0  0  0  0  0  0  0  0  0  0  0
   -4.8911   24.1198  -32.0996 H   0  0  0  0  0  0  0  0  0  0  0  0
   -7.3731   24.3039  -32.2652 H   0  0  0  0  0  0  0  0  0  0  0  0
  -10.9406   21.2780  -32.2392 H   0  0  0  0  0  0  0  0  0  0  0  0
   -9.9353   19.0003  -32.0069 H   0  0  0  0  0  0  0  0  0  0  0  0
   -7.4486   18.7586  -31.8383 H   0  0  0  0  0  0  0  0  0  0  0  0
   -5.2167   19.8093  -31.7941 H   0  0  0  0  0  0  0  0  0  0  0  0
  1  2  1  0
  2  3  2  0
  2  4  2  0
  2  5  1  0
  5  6  2  0
  6  7  1  0
  7  8  2  0
  8  9  1  0
  9 10  2  0
 10 11  1  0
 11 12  2  0
 12 13  1  0
 13 14  2  0
 14 15  1  0
 15 16  2  0
 16 17  1  0
 17 18  2  0
 18 19  1  0
 19 20  2  0
 10  5  1  0
 20 11  1  0
 19 14  1  0
  1 21  1  0
  6 22  1  0
  8 23  1  0
  9 24  1  0
 12 25  1  0
 13 26  1  0
 16 27  1  0
 17 28  1  0
 18 29  1  0
 20 30  1  0
M  CHG  1   1  -1
M  END
>  <UniqueID>  (15) 
13

>  <SMILES>  (15) 
[NH-]S(=O)(=O)c1cnccc1-c1ccc2ncccc2c1

>  <Energy>  (15) 
45.08425563356101

>  <Genealogy>  (15) 
[NH-]S(=O)(=O)c1cnccc1-c1ccc2ncccc2c1 (protonated)
[NH-]S(=O)(=O)c1cnccc1-c1ccc2ncccc2c1 (3D coordinates assigned)
[NH-]S(=O)(=O)c1cnccc1-c1ccc2ncccc2c1 (optimized conformer: 45.08425563356101 kcal/mol)

>  <smiles>  (15) 
NS(=O)(=O)c1cnccc1-c1ccc2ncccc2c1

>  <score_type>  (15) 
oracle

>  <origin>  (15) 
adg

>  <m_score__min__energy>  (15) 
-10.050000000000001

>  <m_primary>  (15) 
energy

$$$$
15:0
     RDKit          3D

 54 57  0  0  0  0  0  0  0  0999 V2000
   -5.1839   27.0228  -30.2687 H   0  0  0  0  0  0  0  0  0  0  0  0
   -5.0640   25.9440  -30.4470 C   0  0  0  0  0  0  0  0  0  0  0  0
   -3.8820   25.3080  -30.5800 N   0  0  0  0  0  0  0  0  0  0  0  0
   -4.1330   24.0270  -30.8030 N   0  0  0  0  0  0  0  0  0  0  0  0
   -3.1000   22.9880  -30.9040 C   0  0  0  0  0  0  0  0  0  0  0  0
   -2.1161   23.4796  -30.9217 H   0  0  0  0  0  0  0  0  0  0  0  0
   -3.1280   22.0580  -29.6880 C   0  0  0  0  0  0  0  0  0  0  0  0
   -4.0904   21.5260  -29.6613 H   0  0  0  0  0  0  0  0  0  0  0  0
   -3.0023   22.6606  -28.7764 H   0  0  0  0  0  0  0  0  0  0  0  0
   -1.9800   21.0280  -29.7680 C   0  0  0  0  0  0  0  0  0  0  0  0
   -2.2578   20.1542  -29.1603 H   0  0  0  0  0  0  0  0  0  0  0  0
   -1.0756   21.5342  -29.3993 H   0  0  0  0  0  0  0  0  0  0  0  0
   -1.6740   20.5580  -31.1500 N   0  0  0  0  0  0  0  0  0  0  0  0
   -0.4000   21.1010  -31.6760 C   0  0  0  0  0  0  0  0  0  0  0  0
    0.4272   20.7642  -31.0339 H   0  0  0  0  0  0  0  0  0  0  0  0
   -0.4617   22.1993  -31.6798 H   0  0  0  0  0  0  0  0  0  0  0  0
   -0.1530   20.6270  -33.0900 C   0  0  0  0  0  0  0  0  0  0  0  0
   -0.3210   21.5340  -34.1500 C   0  0  0  0  0  0  0  0  0  0  0  0
   -0.6426   22.5649  -33.9405 H   0  0  0  0  0  0  0  0  0  0  0  0
   -0.0830   21.1370  -35.4660 C   0  0  0  0  0  0  0  0  0  0  0  0
   -0.2235   21.8520  -36.2900 H   0  0  0  0  0  0  0  0  0  0  0  0
    0.3330   19.8340  -35.7370 C   0  0  0  0  0  0  0  0  0  0  0  0
    0.5263   19.5247  -36.7748 H   0  0  0  0  0  0  0  0  0  0  0  0
    0.5050   18.9200  -34.6940 C   0  0  0  0  0  0  0  0  0  0  0  0
    0.8293   17.8926  -34.9161 H   0  0  0  0  0  0  0  0  0  0  0  0
    0.2660   19.3050  -33.3600 C   0  0  0  0  0  0  0  0  0  0  0  0
    0.4340   18.4080  -32.2930 O   0  0  0  0  0  0  0  0  0  0  0  0
   -0.4680   17.3550  -31.9660 C   0  0  0  0  0  0  0  0  0  0  0  0
   -0.5453   17.2648  -30.8724 H   0  0  0  0  0  0  0  0  0  0  0  0
   -1.4597   17.5779  -32.3865 H   0  0  0  0  0  0  0  0  0  0  0  0
   -0.0955   16.4093  -32.3865 H   0  0  0  0  0  0  0  0  0  0  0  0
   -2.8110   20.7250  -32.0840 C   0  0  0  0  0  0  0  0  0  0  0  0
   -3.6547   20.1196  -31.7211 H   0  0  0  0  0  0  0  0  0  0  0  0
   -2.4706   20.4003  -33.0783 H   0  0  0  0  0  0  0  0  0  0  0  0
   -3.2760   22.1900  -32.2110 C   0  0  0  0  0  0  0  0  0  0  0  0
   -4.3408   22.1981  -32.4871 H   0  0  0  0  0  0  0  0  0  0  0  0
   -2.6517   22.6702  -32.9789 H   0  0  0  0  0  0  0  0  0  0  0  0
   -5.4660   23.8270  -30.7810 C   0  0  0  0  0  0  0  0  0  0  0  0
   -6.0100   22.6520  -30.9400 N   0  0  0  0  0  0  0  0  0  0  0  0
   -6.7740   22.1580  -32.0500 C   0  0  0  0  0  0  0  0  0  0  0  0
   -7.2340   22.9460  -32.9190 O   0  0  0  0  0  0  0  0  0  0  0  0
   -7.0870   20.7110  -32.1440 C   0  0  0  0  0  0  0  0  0  0  0  0
   -6.0240   19.7960  -32.2700 C   0  0  0  0  0  0  0  0  0  0  0  0
   -4.9877   20.1646  -32.2868 H   0  0  0  0  0  0  0  0  0  0  0  0
   -6.2720   18.4240  -32.3740 C   0  0  0  0  0  0  0  0  0  0  0  0
   -5.4329   17.7203  -32.4772 H   0  0  0  0  0  0  0  0  0  0  0  0
   -7.5840   17.9460  -32.3470 C   0  0  0  0  0  0  0  0  0  0  0  0
   -7.7776   16.8661  -32.4267 H   0  0  0  0  0  0  0  0  0  0  0  0
   -8.6490   18.8380  -32.2190 C   0  0  0  0  0  0  0  0  0  0  0  0
   -9.6806   18.4564  -32.2043 H   0  0  0  0  0  0  0  0  0  0  0  0
   -8.4170   20.2150  -32.1090 C   0  0  0  0  0  0  0  0  0  0  0  0
   -9.8200   21.2540  -31.8750 Cl  0  0  0  0  0  0  0  0  0  0  0  0
   -6.1030   25.0390  -30.5680 C   0  0  0  0  0  0  0  0  0  0  0  0
   -7.1837   25.2357  -30.5089 H   0  0  0  0  0  0  0  0  0  0  0  0
  1  2  1  0
  2  3  1  0
  3  4  1  0
  4  5  1  0
  5  6  1  0
  5  7  1  0
  7  8  1  0
  7  9  1  0
  7 10  1  0
 10 11  1  0
 10 12  1  0
 10 13  1  0
 13 14  1  0
 14 15  1  0
 14 16  1  0
 14 17  1  0
 17 18  2  0
 18 19  1  0
 18 20  1  0
 20 21  1  0
 20 22  2  0
 22 23  1  0
 22 24  1  0
 24 25  1  0
 24 26  2  0
 26 27  1  0
 27 28  1  0
 28 29  1  0
 28 30  1  0
 28 31  1  0
 13 32  1  0
 32 33  1  0
 32 34  1  0
 32 35  1  0
 35 36  1  0
 35 37  1  0
  4 38  1  0
 38 39  2  0
 39 40  1  0
 40 41  2  0
 40 42  1  0
 42 43  2  0
 43 44  1  0
 43 45  1  0
 45 46  1  0
 45 47  2  0
 47 48  1  0
 47 49  1  0
 49 50  1  0
 49 51  2  0
 51 52  1  0
 38 53  1  0
 53 54  1  0
 53  2  2  0
 35  5  1  0
 51 42  1  0
 26 17  1  0
M  CHG  1   3  -1
M  END
>  <UniqueID>  (16) 
14

>  <SMILES>  (16) 
COc1ccccc1CN1CCC(n2[n-]cc/c2=N\C(=O)c2ccccc2Cl)CC1

>  <Energy>  (16) 
105.36209794113485

>  <Genealogy>  (16) 
COc1ccccc1CN1CCC(n2[n-]ccc2=NC(=O)c2ccccc2Cl)CC1 (protonated)
COc1ccccc1CN1CCC(n2[n-]cc/c2=N\C(=O)c2ccccc2Cl)CC1 (cis-trans isomerization)
COc1ccccc1CN1CCC(n2[n-]cc/c2=N\C(=O)c2ccccc2Cl)CC1 (3D coordinates assigned)
COc1ccccc1CN1CCC(n2[n-]cc/c2=N\C(=O)c2ccccc2Cl)CC1 (nonaromatic ring conformer: 105.36209794113485 kcal/mol)

>  <smiles>  (16) 
COc1ccccc1CN1CCC(n2[nH]ccc2=NC(=O)c2ccccc2Cl)CC1

>  <score_type>  (16) 
oracle

>  <origin>  (16) 
adg

>  <m_score__min__energy>  (16) 
-11.109999999999999

>  <m_primary>  (16) 
energy

$$$$
16:0
     RDKit          3D

 36 38  0  0  0  0  0  0  0  0999 V2000
   -3.6060   21.5730  -31.6930 C   0  0  0  0  0  0  0  0  0  0  0  0
   -4.9720   22.2160  -31.5820 C   0  0  0  0  0  0  0  0  0  0  0  0
   -6.1360   21.5220  -32.0100 C   0  0  0  0  0  0  0  0  0  0  0  0
   -6.1040   20.1000  -32.4300 C   0  0  0  0  0  0  0  0  0  0  0  0
   -6.7050   19.1120  -31.6360 C   0  0  0  0  0  0  0  0  0  0  0  0
   -6.6860   17.7740  -32.0390 C   0  0  0  0  0  0  0  0  0  0  0  0
   -6.0740   17.4000  -33.2490 C   0  0  0  0  0  0  0  0  0  0  0  0
   -6.0520   15.9790  -33.6770 C   0  0  0  0  0  0  0  0  0  0  0  0
   -7.2030   15.3780  -34.2230 C   0  0  0  0  0  0  0  0  0  0  0  0
   -7.1810   14.0400  -34.6260 C   0  0  0  0  0  0  0  0  0  0  0  0
   -6.0120   13.2860  -34.4900 C   0  0  0  0  0  0  0  0  0  0  0  0
   -4.8640   13.8700  -33.9510 C   0  0  0  0  0  0  0  0  0  0  0  0
   -4.8810   15.2080  -33.5450 C   0  0  0  0  0  0  0  0  0  0  0  0
   -5.4830   18.3970  -34.0470 C   0  0  0  0  0  0  0  0  0  0  0  0
   -5.5030   19.7340  -33.6430 C   0  0  0  0  0  0  0  0  0  0  0  0
   -7.3690   22.1870  -32.0260 C   0  0  0  0  0  0  0  0  0  0  0  0
   -7.4510   23.5040  -31.5910 C   0  0  0  0  0  0  0  0  0  0  0  0
   -6.3460   24.1350  -31.1270 N   0  0  0  0  0  0  0  0  0  0  0  0
   -5.1230   23.5420  -31.0860 C   0  0  0  0  0  0  0  0  0  0  0  0
   -4.0140   24.3340  -30.5080 C   0  0  0  0  0  0  0  0  0  0  0  0
   -3.2170   23.8380  -29.6670 O   0  0  0  0  0  0  0  0  0  0  0  0
   -3.8810   25.6750  -30.8480 O   0  0  0  0  0  0  0  0  0  0  0  0
   -3.2063   21.3849  -30.6856 H   0  0  0  0  0  0  0  0  0  0  0  0
   -3.6921   20.6208  -32.2370 H   0  0  0  0  0  0  0  0  0  0  0  0
   -2.9270   22.2461  -32.2370 H   0  0  0  0  0  0  0  0  0  0  0  0
   -7.1938   19.3919  -30.6912 H   0  0  0  0  0  0  0  0  0  0  0  0
   -7.1537   17.0067  -31.4045 H   0  0  0  0  0  0  0  0  0  0  0  0
   -8.1260   15.9662  -34.3330 H   0  0  0  0  0  0  0  0  0  0  0  0
   -8.0851   13.5795  -35.0509 H   0  0  0  0  0  0  0  0  0  0  0  0
   -5.9964   12.2329  -34.8075 H   0  0  0  0  0  0  0  0  0  0  0  0
   -3.9441   13.2762  -33.8455 H   0  0  0  0  0  0  0  0  0  0  0  0
   -3.9735   15.6614  -33.1196 H   0  0  0  0  0  0  0  0  0  0  0  0
   -5.0013   18.1212  -34.9967 H   0  0  0  0  0  0  0  0  0  0  0  0
   -5.0445   20.5045  -34.2803 H   0  0  0  0  0  0  0  0  0  0  0  0
   -8.2706   21.6673  -32.3824 H   0  0  0  0  0  0  0  0  0  0  0  0
   -8.4140   24.0346  -31.6235 H   0  0  0  0  0  0  0  0  0  0  0  0
  1  2  1  0
  2  3  2  0
  3  4  1  0
  4  5  2  0
  5  6  1  0
  6  7  2  0
  7  8  1  0
  8  9  2  0
  9 10  1  0
 10 11  2  0
 11 12  1  0
 12 13  2  0
  7 14  1  0
 14 15  2  0
  3 16  1  0
 16 17  2  0
 17 18  1  0
 18 19  2  0
 19 20  1  0
 20 21  2  0
 20 22  1  0
 19  2  1  0
 15  4  1  0
 13  8  1  0
  1 23  1  0
  1 24  1  0
  1 25  1  0
  5 26  1  0
  6 27  1  0
  9 28  1  0
 10 29  1  0
 11 30  1  0
 12 31  1  0
 13 32  1  0
 14 33  1  0
 15 34  1  0
 16 35  1  0
 17 36  1  0
M  CHG  1  22  -1
M  END
>  <UniqueID>  (17) 
15

>  <SMILES>  (17) 
Cc1c(-c2ccc(-c3ccccc3)cc2)ccnc1C(=O)[O-]

>  <Energy>  (17) 
57.177253257489895

>  <Genealogy>  (17) 
Cc1c(-c2ccc(-c3ccccc3)cc2)ccnc1C(=O)[O-] (protonated)
Cc1c(-c2ccc(-c3ccccc3)cc2)ccnc1C(=O)[O-] (3D coordinates assigned)
Cc1c(-c2ccc(-c3ccccc3)cc2)ccnc1C(=O)[O-] (optimized conformer: 57.177253257489895 kcal/mol)

>  <smiles>  (17) 
Cc1c(-c2ccc(-c3ccccc3)cc2)ccnc1C(=O)O

>  <score_type>  (17) 
oracle

>  <origin>  (17) 
adg

>  <m_score__min__energy>  (17) 
-10.02

>  <m_primary>  (17) 
energy

$$$$
17:0
     RDKit          3D

 39 41  0  0  0  0  0  0  0  0999 V2000
   -8.4870   19.7890  -31.8620 C   0  0  0  0  0  0  0  0  0  0  0  0
   -7.1900   19.2510  -31.6290 O   0  0  0  0  0  0  0  0  0  0  0  0
   -6.4270   18.5690  -32.5890 C   0  0  0  0  0  0  0  0  0  0  0  0
   -6.8890   17.3930  -33.2120 C   0  0  0  0  0  0  0  0  0  0  0  0
   -6.1130   16.7550  -34.1830 C   0  0  0  0  0  0  0  0  0  0  0  0
   -4.8720   17.2810  -34.5440 C   0  0  0  0  0  0  0  0  0  0  0  0
   -4.4000   18.4440  -33.9320 C   0  0  0  0  0  0  0  0  0  0  0  0
   -5.1690   19.0900  -32.9490 C   0  0  0  0  0  0  0  0  0  0  0  0
   -4.6720   20.2830  -32.3170 N   0  0  0  0  0  0  0  0  0  0  0  0
   -4.6270   20.3730  -30.8520 C   0  0  0  0  0  0  0  0  0  0  0  0
   -3.4010   21.1780  -30.4130 C   0  0  0  0  0  0  0  0  0  0  0  0
   -3.3270   22.4220  -31.1860 N   0  0  0  0  0  0  0  0  0  0  0  0
   -3.5850   23.6930  -30.5630 C   0  0  0  0  0  0  0  0  0  0  0  0
   -4.4290   24.4790  -31.0720 O   0  0  0  0  0  0  0  0  0  0  0  0
   -2.8680   24.1100  -29.3460 C   0  0  0  0  0  0  0  0  0  0  0  0
   -2.8300   23.4340  -28.1410 C   0  0  0  0  0  0  0  0  0  0  0  0
   -2.0260   24.1880  -27.3130 C   0  0  0  0  0  0  0  0  0  0  0  0
   -1.6240   25.2710  -28.0660 C   0  0  0  0  0  0  0  0  0  0  0  0
   -0.4870   26.6780  -27.4660 Br  0  0  0  0  0  0  0  0  0  0  0  0
   -2.1360   25.1980  -29.2720 O   0  0  0  0  0  0  0  0  0  0  0  0
   -3.3240   22.3030  -32.6470 C   0  0  0  0  0  0  0  0  0  0  0  0
   -4.5580   21.5220  -33.0960 C   0  0  0  0  0  0  0  0  0  0  0  0
   -8.9779   19.9926  -30.8989 H   0  0  0  0  0  0  0  0  0  0  0  0
   -8.3986   20.7247  -32.4336 H   0  0  0  0  0  0  0  0  0  0  0  0
   -9.0868   19.0655  -32.4336 H   0  0  0  0  0  0  0  0  0  0  0  0
   -7.8670   16.9744  -32.9322 H   0  0  0  0  0  0  0  0  0  0  0  0
   -6.4809   15.8365  -34.6637 H   0  0  0  0  0  0  0  0  0  0  0  0
   -4.2648   16.7789  -35.3116 H   0  0  0  0  0  0  0  0  0  0  0  0
   -3.4219   18.8563  -34.2206 H   0  0  0  0  0  0  0  0  0  0  0  0
   -5.5384   20.8711  -30.4897 H   0  0  0  0  0  0  0  0  0  0  0  0
   -4.5625   19.3591  -30.4303 H   0  0  0  0  0  0  0  0  0  0  0  0
   -3.4838   21.4166  -29.3424 H   0  0  0  0  0  0  0  0  0  0  0  0
   -2.4919   20.5841  -30.5885 H   0  0  0  0  0  0  0  0  0  0  0  0
   -3.3366   22.4895  -27.8938 H   0  0  0  0  0  0  0  0  0  0  0  0
   -1.7602   23.9707  -26.2680 H   0  0  0  0  0  0  0  0  0  0  0  0
   -3.3414   23.3067  -33.0968 H   0  0  0  0  0  0  0  0  0  0  0  0
   -2.4162   21.7725  -32.9702 H   0  0  0  0  0  0  0  0  0  0  0  0
   -5.4566   22.1366  -32.9385 H   0  0  0  0  0  0  0  0  0  0  0  0
   -4.4622   21.2729  -34.1631 H   0  0  0  0  0  0  0  0  0  0  0  0
  1  2  1  0
  2  3  1  0
  3  4  2  0
  4  5  1  0
  5  6  2  0
  6  7  1  0
  7  8  2  0
  8  9  1  0
  9 10  1  0
 10 11  1  0
 11 12  1  0
 12 13  1  0
 13 14  2  0
 13 15  1  0
 15 16  2  0
 16 17  1  0
 17 18  2  0
 18 19  1  0
 18 20  1  0
 12 21  1  0
 21 22  1  0
  8  3  1  0
 22  9  1  0
 20 15  1  0
  1 23  1  0
  1 24  1  0
  1 25  1  0
  4 26  1  0
  5 27  1  0
  6 28  1  0
  7 29  1  0
 10 30  1  0
 10 31  1  0
 11 32  1  0
 11 33  1  0
 16 34  1  0
 17 35  1  0
 21 36  1  0
 21 37  1  0
 22 38  1  0
 22 39  1  0
M  END
>  <UniqueID>  (18) 
16

>  <SMILES>  (18) 
COc1ccccc1N1CCN(C(=O)c2ccc(Br)o2)CC1

>  <Energy>  (18) 
72.27687904866501

>  <Genealogy>  (18) 
COc1ccccc1N1CCN(C(=O)c2ccc(Br)o2)CC1 (3D coordinates assigned)
COc1ccccc1N1CCN(C(=O)c2ccc(Br)o2)CC1 (nonaromatic ring conformer: 72.27687904866501 kcal/mol)

>  <smiles>  (18) 
COc1ccccc1N1CCN(C(=O)c2ccc(Br)o2)CC1

>  <score_type>  (18) 
oracle

>  <origin>  (18) 
adg

>  <m_score__min__energy>  (18) 
-7.8700000000000001

>  <m_primary>  (18) 
energy

$$$$
18:0
     RDKit          3D

 73 75  0  0  0  0  0  0  0  0999 V2000
   -2.8069   16.6533  -32.9437 H   0  0  0  0  0  0  0  0  0  0  0  0
   -1.7440   16.4180  -32.7860 C   0  0  0  0  0  0  0  0  0  0  0  0
   -0.9240   17.4320  -32.4520 C   0  0  0  0  0  0  0  0  0  0  0  0
   -0.8865   17.7301  -31.3938 H   0  0  0  0  0  0  0  0  0  0  0  0
   -0.0440   18.1970  -33.4330 C   0  0  0  0  0  0  0  0  0  0  0  0
   -0.3599   17.9380  -34.4543 H   0  0  0  0  0  0  0  0  0  0  0  0
    0.9948   17.9037  -33.2212 H   0  0  0  0  0  0  0  0  0  0  0  0
   -0.1100   19.6870  -33.2840 N   0  0  0  0  0  0  0  0  0  0  0  0
   -0.1330   20.0520  -31.8470 C   0  0  0  0  0  0  0  0  0  0  0  0
   -0.0755   19.1392  -31.2359 H   0  0  0  0  0  0  0  0  0  0  0  0
    0.7261   20.7003  -31.6196 H   0  0  0  0  0  0  0  0  0  0  0  0
   -1.0667   20.5873  -31.6196 H   0  0  0  0  0  0  0  0  0  0  0  0
    1.1330   20.2350  -33.8900 C   0  0  0  0  0  0  0  0  0  0  0  0
    1.8260   20.5405  -33.0923 H   0  0  0  0  0  0  0  0  0  0  0  0
    1.6084   19.4630  -34.5129 H   0  0  0  0  0  0  0  0  0  0  0  0
    0.8838   21.1067  -34.5129 H   0  0  0  0  0  0  0  0  0  0  0  0
   -1.3130   20.2050  -34.0140 C   0  0  0  0  0  0  0  0  0  0  0  0
   -2.0887   19.4263  -33.9706 H   0  0  0  0  0  0  0  0  0  0  0  0
   -0.9535   20.4438  -35.0258 H   0  0  0  0  0  0  0  0  0  0  0  0
   -1.9420   21.5240  -33.4860 C   0  0  0  0  0  0  0  0  0  0  0  0
   -2.2745   22.1193  -34.3492 H   0  0  0  0  0  0  0  0  0  0  0  0
   -1.1667   22.0341  -32.8955 H   0  0  0  0  0  0  0  0  0  0  0  0
   -3.1470   21.3090  -32.5520 C   0  0  0  0  0  0  0  0  0  0  0  0
   -3.0983   22.0331  -31.7254 H   0  0  0  0  0  0  0  0  0  0  0  0
   -3.1140   20.2824  -32.1584 H   0  0  0  0  0  0  0  0  0  0  0  0
   -4.4000   21.4960  -33.2830 N   0  0  0  0  0  0  0  0  0  0  0  0
   -4.3740   22.0210  -34.1870 H   0  0  0  0  0  0  0  0  0  0  0  0
   -5.5700   20.7240  -32.9600 C   0  0  0  0  0  0  0  0  0  0  0  0
   -6.7350   21.3650  -32.5030 C   0  0  0  0  0  0  0  0  0  0  0  0
   -6.7590   22.7600  -32.2830 C   0  0  0  0  0  0  0  0  0  0  0  0
   -5.8332   23.3434  -32.3953 H   0  0  0  0  0  0  0  0  0  0  0  0
   -7.9390   23.4060  -31.9260 C   0  0  0  0  0  0  0  0  0  0  0  0
   -7.9393   24.4917  -31.7491 H   0  0  0  0  0  0  0  0  0  0  0  0
   -9.1160   22.6810  -31.7930 C   0  0  0  0  0  0  0  0  0  0  0  0
  -10.0539   23.1987  -31.5435 H   0  0  0  0  0  0  0  0  0  0  0  0
   -9.1120   21.2980  -31.9750 C   0  0  0  0  0  0  0  0  0  0  0  0
  -10.0521   20.7364  -31.8716 H   0  0  0  0  0  0  0  0  0  0  0  0
   -7.9170   20.6040  -32.2910 C   0  0  0  0  0  0  0  0  0  0  0  0
   -7.8880   19.2270  -32.4160 N   0  0  0  0  0  0  0  0  0  0  0  0
   -9.0210   18.4160  -31.9150 C   0  0  0  0  0  0  0  0  0  0  0  0
   -9.0162   18.4194  -30.8150 H   0  0  0  0  0  0  0  0  0  0  0  0
   -9.9670   18.8434  -32.2789 H   0  0  0  0  0  0  0  0  0  0  0  0
   -8.9215   17.3827  -32.2789 H   0  0  0  0  0  0  0  0  0  0  0  0
   -6.7830   18.6030  -32.9660 C   0  0  0  0  0  0  0  0  0  0  0  0
   -6.8030   17.2300  -33.3280 C   0  0  0  0  0  0  0  0  0  0  0  0
   -7.7411   16.6634  -33.2335 H   0  0  0  0  0  0  0  0  0  0  0  0
   -5.6530   16.5780  -33.8040 C   0  0  0  0  0  0  0  0  0  0  0  0
   -5.6860   15.1790  -34.1490 N   0  0  0  0  0  0  0  0  0  0  0  0
   -4.6460   14.5810  -34.4950 O   0  0  0  0  0  0  0  0  0  0  0  0
   -6.8660   14.4730  -34.0890 O   0  0  0  0  0  0  0  0  0  0  0  0
   -4.4660   17.3050  -33.9330 C   0  0  0  0  0  0  0  0  0  0  0  0
   -3.5499   16.7983  -34.2705 H   0  0  0  0  0  0  0  0  0  0  0  0
   -4.4340   18.6640  -33.6380 C   0  0  0  0  0  0  0  0  0  0  0  0
   -3.4931   19.2220  -33.7537 H   0  0  0  0  0  0  0  0  0  0  0  0
   -5.5900   19.3360  -33.1930 C   0  0  0  0  0  0  0  0  0  0  0  0
   -1.3130   14.9830  -32.9600 C   0  0  0  0  0  0  0  0  0  0  0  0
   -0.6548   14.9103  -33.8384 H   0  0  0  0  0  0  0  0  0  0  0  0
   -0.7827   14.6665  -32.0497 H   0  0  0  0  0  0  0  0  0  0  0  0
   -2.4740   14.0960  -33.1550 N   0  0  0  0  0  0  0  0  0  0  0  0
   -2.5990   13.8550  -34.1630 H   0  0  0  0  0  0  0  0  0  0  0  0
   -3.3320   14.6150  -32.8520 H   0  0  0  0  0  0  0  0  0  0  0  0
   -2.3670   12.8660  -32.3510 C   0  0  0  0  0  0  0  0  0  0  0  0
   -1.8731   12.0891  -32.9531 H   0  0  0  0  0  0  0  0  0  0  0  0
   -1.7831   13.0979  -31.4481 H   0  0  0  0  0  0  0  0  0  0  0  0
   -3.7500   12.3490  -31.9070 C   0  0  0  0  0  0  0  0  0  0  0  0
   -4.3951   12.2540  -32.7929 H   0  0  0  0  0  0  0  0  0  0  0  0
   -3.6075   11.3763  -31.4134 H   0  0  0  0  0  0  0  0  0  0  0  0
   -4.4200   13.2950  -30.9060 C   0  0  0  0  0  0  0  0  0  0  0  0
   -5.3025   12.7982  -30.4766 H   0  0  0  0  0  0  0  0  0  0  0  0
   -3.6946   13.5414  -30.1166 H   0  0  0  0  0  0  0  0  0  0  0  0
   -4.8380   14.5320  -31.5560 N   0  0  0  0  0  0  0  0  0  0  0  0
   -5.3880   14.2810  -32.4110 H   0  0  0  0  0  0  0  0  0  0  0  0
   -5.5000   15.0220  -30.9110 H   0  0  0  0  0  0  0  0  0  0  0  0
  1  2  1  0
  2  3  2  0
  3  4  1  0
  3  5  1  0
  5  6  1  0
  5  7  1  0
  5  8  1  0
  8  9  1  0
  9 10  1  0
  9 11  1  0
  9 12  1  0
  8 13  1  0
 13 14  1  0
 13 15  1  0
 13 16  1  0
  8 17  1  0
 17 18  1  0
 17 19  1  0
 17 20  1  0
 20 21  1  0
 20 22  1  0
 20 23  1  0
 23 24  1  0
 23 25  1  0
 23 26  1  0
 26 27  1  0
 26 28  1  0
 28 29  2  0
 29 30  1  0
 30 31  1  0
 30 32  2  0
 32 33  1  0
 32 34  1  0
 34 35  1  0
 34 36  2  0
 36 37  1  0
 36 38  1  0
 38 39  2  0
 39 40  1  0
 40 41  1  0
 40 42  1  0
 40 43  1  0
 39 44  1  0
 44 45  2  0
 45 46  1  0
 45 47  1  0
 47 48  1  0
 48 49  2  0
 48 50  1  0
 47 51  2  0
 51 52  1  0
 51 53  1  0
 53 54  1  0
 53 55  2  0
  2 56  1  0
 56 57  1  0
 56 58  1  0
 56 59  1  0
 59 60  1  0
 59 61  1  0
 59 62  1  0
 62 63  1  0
 62 64  1  0
 62 65  1  0
 65 66  1  0
 65 67  1  0
 65 68  1  0
 68 69  1  0
 68 70  1  0
 68 71  1  0
 71 72  1  0
 71 73  1  0
 55 28  1  0
 38 29  1  0
 55 44  1  0
M  CHG  5   8   1  39   1  48   1  50  -1  59   1
M  END
>  <UniqueID>  (19) 
17

>  <SMILES>  (19) 
C[n+]1c2ccccc2c(NCCC[N+](C)(C)C/C=C\C[NH2+]CCCN)c2ccc([N+](=O)[O-])cc21

>  <Energy>  (19) 
108.37311605688052

>  <Genealogy>  (19) 
C[n+]1c2ccccc2c(NCCC[N+](C)(C)CC=CC[NH2+]CCCN)c2ccc([N+](=O)[O-])cc21 (protonated)
C[n+]1c2ccccc2c(NCCC[N+](C)(C)C/C=C\C[NH2+]CCCN)c2ccc([N+](=O)[O-])cc21 (cis-trans isomerization)
C[n+]1c2ccccc2c(NCCC[N+](C)(C)C/C=C\C[NH2+]CCCN)c2ccc([N+](=O)[O-])cc21 (3D coordinates assigned)
C[n+]1c2ccccc2c(NCCC[N+](C)(C)C/C=C\C[NH2+]CCCN)c2ccc([N+](=O)[O-])cc21 (optimized conformer: 108.37311605688052 kcal/mol)

>  <smiles>  (19) 
C[n+]1c2ccccc2c(NCCC[N+](C)(C)CC=CCNCCCN)c2ccc([N+](=O)[O-])cc21

>  <score_type>  (19) 
oracle

>  <origin>  (19) 
adg

>  <m_score__min__energy>  (19) 
-8.8200000000000003

>  <m_primary>  (19) 
energy

$$$$
19:0
     RDKit          3D

 36 37  0  0  0  0  0  0  0  0999 V2000
   -1.4510   22.2350  -30.2930 C   0  0  0  0  0  0  0  0  0  0  0  0
   -0.4880   23.0370  -29.6180 O   0  0  0  0  0  0  0  0  0  0  0  0
   -0.6690   23.5980  -28.3440 C   0  0  0  0  0  0  0  0  0  0  0  0
   -0.0060   23.0890  -27.2090 C   0  0  0  0  0  0  0  0  0  0  0  0
   -0.1560   23.7070  -25.9660 C   0  0  0  0  0  0  0  0  0  0  0  0
   -0.9570   24.8420  -25.8400 C   0  0  0  0  0  0  0  0  0  0  0  0
   -1.6240   25.3520  -26.9540 C   0  0  0  0  0  0  0  0  0  0  0  0
   -1.5120   24.7220  -28.2000 C   0  0  0  0  0  0  0  0  0  0  0  0
   -2.2090   25.2870  -29.3190 N   0  0  0  0  0  0  0  0  0  0  0  0
   -3.5330   24.9230  -29.7220 C   0  0  0  0  0  0  0  0  0  0  0  0
   -3.9740   25.2630  -30.8530 O   0  0  0  0  0  0  0  0  0  0  0  0
   -4.4080   24.1550  -28.7810 C   0  0  0  0  0  0  0  0  0  0  0  0
   -5.4520   23.3460  -29.5490 C   0  0  0  0  0  0  0  0  0  0  0  0
   -4.7920   22.4440  -30.4910 N   0  0  0  0  0  0  0  0  0  0  0  0
   -5.5170   22.5940  -32.0610 S   0  0  0  0  0  0  0  0  0  0  0  0
   -5.7850   24.0440  -32.3580 O   0  0  0  0  0  0  0  0  0  0  0  0
   -4.5730   22.0560  -33.0990 O   0  0  0  0  0  0  0  0  0  0  0  0
   -7.0190   21.6890  -32.1290 C   0  0  0  0  0  0  0  0  0  0  0  0
   -8.2540   22.1430  -31.6930 C   0  0  0  0  0  0  0  0  0  0  0  0
   -9.2800   21.2140  -31.9040 C   0  0  0  0  0  0  0  0  0  0  0  0
   -8.8510   20.0380  -32.5060 C   0  0  0  0  0  0  0  0  0  0  0  0
   -7.1940   20.1510  -32.7800 S   0  0  0  0  0  0  0  0  0  0  0  0
   -2.0770   21.7137  -29.5538 H   0  0  0  0  0  0  0  0  0  0  0  0
   -2.0849   22.8759  -30.9234 H   0  0  0  0  0  0  0  0  0  0  0  0
   -0.9353   21.4956  -30.9234 H   0  0  0  0  0  0  0  0  0  0  0  0
    0.6337   22.1991  -27.3032 H   0  0  0  0  0  0  0  0  0  0  0  0
    0.3587   23.2979  -25.0841 H   0  0  0  0  0  0  0  0  0  0  0  0
   -1.0627   25.3349  -24.8623 H   0  0  0  0  0  0  0  0  0  0  0  0
   -2.2427   26.2559  -26.8531 H   0  0  0  0  0  0  0  0  0  0  0  0
   -3.7852   23.4692  -28.1878 H   0  0  0  0  0  0  0  0  0  0  0  0
   -4.9278   24.8666  -28.1226 H   0  0  0  0  0  0  0  0  0  0  0  0
   -6.0507   22.7566  -28.8389 H   0  0  0  0  0  0  0  0  0  0  0  0
   -6.1046   24.0348  -30.1056 H   0  0  0  0  0  0  0  0  0  0  0  0
   -8.4113   23.1285  -31.2304 H   0  0  0  0  0  0  0  0  0  0  0  0
  -10.3266   21.3980  -31.6200 H   0  0  0  0  0  0  0  0  0  0  0  0
   -9.4871   19.1775  -32.7608 H   0  0  0  0  0  0  0  0  0  0  0  0
  1  2  1  0
  2  3  1  0
  3  4  2  0
  4  5  1  0
  5  6  2  0
  6  7  1  0
  7  8  2  0
  8  9  1  0
  9 10  1  0
 10 11  2  0
 10 12  1  0
 12 13  1  0
 13 14  1  0
 14 15  1  0
 15 16  2  0
 15 17  2  0
 15 18  1  0
 18 19  2  0
 19 20  1  0
 20 21  2  0
 21 22  1  0
  8  3  1  0
 22 18  1  0
  1 23  1  0
  1 24  1  0
  1 25  1  0
  4 26  1  0
  5 27  1  0
  6 28  1  0
  7 29  1  0
 12 30  1  0
 12 31  1  0
 13 32  1  0
 13 33  1  0
 19 34  1  0
 20 35  1  0
 21 36  1  0
M  CHG  2   9  -1  14  -1
M  END
>  <UniqueID>  (20) 
18

>  <SMILES>  (20) 
COc1ccccc1[N-]C(=O)CC[N-]S(=O)(=O)c1cccs1

>  <Energy>  (20) 
60.62545457287089

>  <Genealogy>  (20) 
COc1ccccc1[N-]C(=O)CC[N-]S(=O)(=O)c1cccs1 (protonated)
COc1ccccc1[N-]C(=O)CC[N-]S(=O)(=O)c1cccs1 (3D coordinates assigned)
COc1ccccc1[N-]C(=O)CC[N-]S(=O)(=O)c1cccs1 (optimized conformer: 60.62545457287089 kcal/mol)

>  <smiles>  (20) 
COc1ccccc1NC(=O)CCNS(=O)(=O)c1cccs1

>  <score_type>  (20) 
oracle

>  <origin>  (20) 
adg

>  <m_score__min__energy>  (20) 
-10.25

>  <m_primary>  (20) 
energy

$$$$
20:0
     RDKit          3D

 57 60  0  0  0  0  0  0  0  0999 V2000
   -1.1930   26.2290  -28.2630 C   0  0  0  0  0  0  0  0  0  0  0  0
   -1.9760   25.2990  -29.0050 O   0  0  0  0  0  0  0  0  0  0  0  0
   -2.2060   23.9680  -28.6230 C   0  0  0  0  0  0  0  0  0  0  0  0
   -1.4580   23.3500  -27.6010 C   0  0  0  0  0  0  0  0  0  0  0  0
   -1.7270   22.0320  -27.2260 C   0  0  0  0  0  0  0  0  0  0  0  0
   -2.7400   21.3150  -27.8620 C   0  0  0  0  0  0  0  0  0  0  0  0
   -3.4860   21.9140  -28.8790 C   0  0  0  0  0  0  0  0  0  0  0  0
   -3.2260   23.2380  -29.2710 C   0  0  0  0  0  0  0  0  0  0  0  0
   -3.9890   23.8290  -30.3390 N   0  0  0  0  0  0  0  0  0  0  0  0
   -4.5980   22.9800  -31.3690 C   0  0  0  0  0  0  0  0  0  0  0  0
   -5.8340   23.6690  -31.9740 C   0  0  0  0  0  0  0  0  0  0  0  0
   -6.6120   24.3870  -30.9420 N   0  0  0  0  0  0  0  0  0  0  0  0
   -7.2220   23.4620  -29.9600 C   0  0  0  0  0  0  0  0  0  0  0  0
   -7.6200   22.1480  -30.6460 C   0  0  0  0  0  0  0  0  0  0  0  0
   -9.0080   22.2390  -31.2890 C   0  0  0  0  0  0  0  0  0  0  0  0
   -9.1520   21.3020  -32.3590 O   0  0  0  0  0  0  0  0  0  0  0  0
   -8.3650   20.1540  -32.5490 C   0  0  0  0  0  0  0  0  0  0  0  0
   -8.7250   18.9830  -31.8550 C   0  0  0  0  0  0  0  0  0  0  0  0
   -7.9760   17.8070  -32.0010 C   0  0  0  0  0  0  0  0  0  0  0  0
   -6.8670   17.8160  -32.8480 C   0  0  0  0  0  0  0  0  0  0  0  0
   -6.5110   18.9480  -33.5330 C   0  0  0  0  0  0  0  0  0  0  0  0
   -7.2410   20.1320  -33.4060 C   0  0  0  0  0  0  0  0  0  0  0  0
   -5.3110   18.7360  -34.3750 C   0  0  0  0  0  0  0  0  0  0  0  0
   -4.9320   17.2640  -34.1210 C   0  0  0  0  0  0  0  0  0  0  0  0
   -5.9590   16.6830  -33.1300 C   0  0  0  0  0  0  0  0  0  0  0  0
   -5.8300   25.4750  -30.2910 C   0  0  0  0  0  0  0  0  0  0  0  0
   -4.3040   25.2600  -30.3310 C   0  0  0  0  0  0  0  0  0  0  0  0
   -1.3394   26.0551  -27.1867 H   0  0  0  0  0  0  0  0  0  0  0  0
   -0.1304   26.0966  -28.5146 H   0  0  0  0  0  0  0  0  0  0  0  0
   -1.5045   27.2535  -28.5146 H   0  0  0  0  0  0  0  0  0  0  0  0
   -0.6571   23.9094  -27.0954 H   0  0  0  0  0  0  0  0  0  0  0  0
   -1.1382   21.5581  -26.4268 H   0  0  0  0  0  0  0  0  0  0  0  0
   -2.9513   20.2778  -27.5626 H   0  0  0  0  0  0  0  0  0  0  0  0
   -4.2841   21.3445  -29.3776 H   0  0  0  0  0  0  0  0  0  0  0  0
   -3.8623   22.7924  -32.1649 H   0  0  0  0  0  0  0  0  0  0  0  0
   -4.9095   22.0306  -30.9090 H   0  0  0  0  0  0  0  0  0  0  0  0
   -5.5043   24.3882  -32.7383 H   0  0  0  0  0  0  0  0  0  0  0  0
   -6.4786   22.8956  -32.4171 H   0  0  0  0  0  0  0  0  0  0  0  0
   -6.4961   23.2496  -29.1613 H   0  0  0  0  0  0  0  0  0  0  0  0
   -8.1212   23.9317  -29.5349 H   0  0  0  0  0  0  0  0  0  0  0  0
   -6.8806   21.9158  -31.4266 H   0  0  0  0  0  0  0  0  0  0  0  0
   -7.6489   21.3581  -29.8810 H   0  0  0  0  0  0  0  0  0  0  0  0
   -9.7705   22.0287  -30.5246 H   0  0  0  0  0  0  0  0  0  0  0  0
   -9.1330   23.2523  -31.6983 H   0  0  0  0  0  0  0  0  0  0  0  0
   -9.6025   18.9910  -31.1918 H   0  0  0  0  0  0  0  0  0  0  0  0
   -8.2576   16.8931  -31.4574 H   0  0  0  0  0  0  0  0  0  0  0  0
   -6.9460   21.0329  -33.9639 H   0  0  0  0  0  0  0  0  0  0  0  0
   -5.5444   18.9019  -35.4371 H   0  0  0  0  0  0  0  0  0  0  0  0
   -4.4944   19.4314  -34.1308 H   0  0  0  0  0  0  0  0  0  0  0  0
   -4.9617   16.7007  -35.0653 H   0  0  0  0  0  0  0  0  0  0  0  0
   -3.9145   17.1925  -33.7092 H   0  0  0  0  0  0  0  0  0  0  0  0
   -6.5088   15.8451  -33.5835 H   0  0  0  0  0  0  0  0  0  0  0  0
   -5.4885   16.2818  -32.2203 H   0  0  0  0  0  0  0  0  0  0  0  0
   -6.0597   26.4207  -30.8038 H   0  0  0  0  0  0  0  0  0  0  0  0
   -6.1223   25.4866  -29.2306 H   0  0  0  0  0  0  0  0  0  0  0  0
   -3.8962   25.7258  -31.2402 H   0  0  0  0  0  0  0  0  0  0  0  0
   -3.8559   25.7186  -29.4372 H   0  0  0  0  0  0  0  0  0  0  0  0
  1  2  1  0
  2  3  1  0
  3  4  2  0
  4  5  1  0
  5  6  2  0
  6  7  1  0
  7  8  2  0
  8  9  1  0
  9 10  1  0
 10 11  1  0
 11 12  1  0
 12 13  1  0
 13 14  1  0
 14 15  1  0
 15 16  1  0
 16 17  1  0
 17 18  2  0
 18 19  1  0
 19 20  2  0
 20 21  1  0
 21 22  2  0
 21 23  1  0
 23 24  1  0
 24 25  1  0
 12 26  1  0
 26 27  1  0
  8  3  1  0
 27  9  1  0
 22 17  1  0
 25 20  1  0
  1 28  1  0
  1 29  1  0
  1 30  1  0
  4 31  1  0
  5 32  1  0
  6 33  1  0
  7 34  1  0
 10 35  1  0
 10 36  1  0
 11 37  1  0
 11 38  1  0
 13 39  1  0
 13 40  1  0
 14 41  1  0
 14 42  1  0
 15 43  1  0
 15 44  1  0
 18 45  1  0
 19 46  1  0
 22 47  1  0
 23 48  1  0
 23 49  1  0
 24 50  1  0
 24 51  1  0
 25 52  1  0
 25 53  1  0
 26 54  1  0
 26 55  1  0
 27 56  1  0
 27 57  1  0
M  END
>  <UniqueID>  (21) 
19

>  <SMILES>  (21) 
COc1ccccc1N1CCN(CCCOc2ccc3c(c2)CCC3)CC1

>  <Energy>  (21) 
75.68405667916723

>  <Genealogy>  (21) 
COc1ccccc1N1CCN(CCCOc2ccc3c(c2)CCC3)CC1 (3D coordinates assigned)
COc1ccccc1N1CCN(CCCOc2ccc3c(c2)CCC3)CC1 (nonaromatic ring conformer: 75.68405667916723 kcal/mol)

>  <smiles>  (21) 
COc1ccccc1N1CCN(CCCOc2ccc3c(c2)CCC3)CC1

>  <score_type>  (21) 
oracle

>  <origin>  (21) 
adg

>  <m_score__min__energy>  (21) 
-8.9100000000000001

>  <m_primary>  (21) 
energy

$$$$
21:0
     RDKit          3D

 35 37  0  0  0  0  0  0  0  0999 V2000
   -2.6360   24.4930  -28.4210 C   0  0  0  0  0  0  0  0  0  0  0  0
   -3.0480   24.9090  -29.7180 O   0  0  0  0  0  0  0  0  0  0  0  0
   -4.0960   24.3210  -30.4420 C   0  0  0  0  0  0  0  0  0  0  0  0
   -3.8400   23.1350  -31.1390 C   0  0  0  0  0  0  0  0  0  0  0  0
   -4.8500   22.5080  -31.8730 C   0  0  0  0  0  0  0  0  0  0  0  0
   -6.1430   23.0540  -31.9100 C   0  0  0  0  0  0  0  0  0  0  0  0
   -7.2310   22.3880  -32.7160 C   0  0  0  0  0  0  0  0  0  0  0  0
   -7.4700   21.0110  -32.2460 N   0  0  0  0  0  0  0  0  0  0  0  0
   -8.4960   20.7590  -31.2600 C   0  0  0  0  0  0  0  0  0  0  0  0
   -9.0650   21.7100  -30.6590 O   0  0  0  0  0  0  0  0  0  0  0  0
   -8.9560   19.3560  -30.9980 C   0  0  0  0  0  0  0  0  0  0  0  0
   -7.9000   18.4240  -31.2120 O   0  0  0  0  0  0  0  0  0  0  0  0
   -6.9330   18.6040  -32.2030 C   0  0  0  0  0  0  0  0  0  0  0  0
   -6.1740   17.5080  -32.6260 C   0  0  0  0  0  0  0  0  0  0  0  0
   -5.2120   17.6630  -33.6240 C   0  0  0  0  0  0  0  0  0  0  0  0
   -5.0000   18.9170  -34.1990 C   0  0  0  0  0  0  0  0  0  0  0  0
   -5.7410   20.0220  -33.7700 C   0  0  0  0  0  0  0  0  0  0  0  0
   -6.7170   19.8820  -32.7590 C   0  0  0  0  0  0  0  0  0  0  0  0
   -6.3990   24.2530  -31.2260 C   0  0  0  0  0  0  0  0  0  0  0  0
   -5.3870   24.8790  -30.4920 C   0  0  0  0  0  0  0  0  0  0  0  0
   -3.1950   25.0574  -27.6601 H   0  0  0  0  0  0  0  0  0  0  0  0
   -2.8354   23.4180  -28.3002 H   0  0  0  0  0  0  0  0  0  0  0  0
   -1.5591   24.6820  -28.3002 H   0  0  0  0  0  0  0  0  0  0  0  0
   -2.8336   22.6919  -31.1087 H   0  0  0  0  0  0  0  0  0  0  0  0
   -4.6311   21.5819  -32.4247 H   0  0  0  0  0  0  0  0  0  0  0  0
   -8.1598   22.9687  -32.6152 H   0  0  0  0  0  0  0  0  0  0  0  0
   -6.9130   22.3486  -33.7683 H   0  0  0  0  0  0  0  0  0  0  0  0
   -9.2984   19.2785  -29.9555 H   0  0  0  0  0  0  0  0  0  0  0  0
   -9.7767   19.1210  -31.6917 H   0  0  0  0  0  0  0  0  0  0  0  0
   -6.3363   16.5202  -32.1700 H   0  0  0  0  0  0  0  0  0  0  0  0
   -4.6208   16.7975  -33.9577 H   0  0  0  0  0  0  0  0  0  0  0  0
   -4.2474   19.0362  -34.9923 H   0  0  0  0  0  0  0  0  0  0  0  0
   -5.5625   21.0082  -34.2234 H   0  0  0  0  0  0  0  0  0  0  0  0
   -7.4020   24.7027  -31.2678 H   0  0  0  0  0  0  0  0  0  0  0  0
   -5.6010   25.8125  -29.9508 H   0  0  0  0  0  0  0  0  0  0  0  0
  1  2  1  0
  2  3  1  0
  3  4  2  0
  4  5  1  0
  5  6  2  0
  6  7  1  0
  7  8  1  0
  8  9  1  0
  9 10  2  0
  9 11  1  0
 11 12  1  0
 12 13  1  0
 13 14  2  0
 14 15  1  0
 15 16  2  0
 16 17  1  0
 17 18  2  0
  6 19  1  0
 19 20  2  0
 20  3  1  0
 18  8  1  0
 18 13  1  0
  1 21  1  0
  1 22  1  0
  1 23  1  0
  4 24  1  0
  5 25  1  0
  7 26  1  0
  7 27  1  0
 11 28  1  0
 11 29  1  0
 14 30  1  0
 15 31  1  0
 16 32  1  0
 17 33  1  0
 19 34  1  0
 20 35  1  0
M  END
>  <UniqueID>  (22) 
20

>  <SMILES>  (22) 
COc1ccc(CN2C(=O)COc3ccccc32)cc1

>  <Energy>  (22) 
41.037915359564565

>  <Genealogy>  (22) 
COc1ccc(CN2C(=O)COc3ccccc32)cc1 (3D coordinates assigned)
COc1ccc(CN2C(=O)COc3ccccc32)cc1 (nonaromatic ring conformer: 41.037915359564565 kcal/mol)

>  <smiles>  (22) 
COc1ccc(CN2C(=O)COc3ccccc32)cc1

>  <score_type>  (22) 
oracle

>  <origin>  (22) 
adg

>  <m_score__min__energy>  (22) 
-7.25

>  <m_primary>  (22) 
energy

$$$$
22:0
     RDKit          3D

 43 44  0  0  0  0  0  0  0  0999 V2000
   -4.4700   17.8010  -34.9280 C   0  0  0  0  0  0  0  0  0  0  0  0
   -3.4870   18.5700  -34.0530 C   0  0  0  0  0  0  0  0  0  0  0  0
   -3.9120   19.9220  -33.8870 O   0  0  0  0  0  0  0  0  0  0  0  0
   -3.3310   20.8040  -32.9700 C   0  0  0  0  0  0  0  0  0  0  0  0
   -2.4880   21.6650  -33.3450 O   0  0  0  0  0  0  0  0  0  0  0  0
   -3.6910   20.7000  -31.5180 C   0  0  0  0  0  0  0  0  0  0  0  0
   -4.4320   21.9120  -30.9670 C   0  0  0  0  0  0  0  0  0  0  0  0
   -4.0450   22.4860  -29.7340 C   0  0  0  0  0  0  0  0  0  0  0  0
   -4.6740   23.6280  -29.2430 C   0  0  0  0  0  0  0  0  0  0  0  0
   -5.7040   24.2230  -29.9640 C   0  0  0  0  0  0  0  0  0  0  0  0
   -6.4700   25.6810  -29.3590 Cl  0  0  0  0  0  0  0  0  0  0  0  0
   -6.1390   23.6510  -31.1580 C   0  0  0  0  0  0  0  0  0  0  0  0
   -5.5610   22.4590  -31.6510 C   0  0  0  0  0  0  0  0  0  0  0  0
   -6.0800   21.8670  -32.8720 N   0  0  0  0  0  0  0  0  0  0  0  0
   -6.9730   20.7580  -32.5990 C   0  0  0  0  0  0  0  0  0  0  0  0
   -6.5100   19.4380  -32.7760 C   0  0  0  0  0  0  0  0  0  0  0  0
   -7.3460   18.3410  -32.5330 C   0  0  0  0  0  0  0  0  0  0  0  0
   -6.8470   16.9460  -32.7730 C   0  0  0  0  0  0  0  0  0  0  0  0
   -8.6690   18.5580  -32.1360 C   0  0  0  0  0  0  0  0  0  0  0  0
   -9.1450   19.8560  -31.9510 C   0  0  0  0  0  0  0  0  0  0  0  0
   -8.3110   20.9650  -32.1710 C   0  0  0  0  0  0  0  0  0  0  0  0
   -8.8660   22.3490  -31.9560 C   0  0  0  0  0  0  0  0  0  0  0  0
   -5.1754   17.2492  -34.2893 H   0  0  0  0  0  0  0  0  0  0  0  0
   -5.0254   18.5068  -35.5631 H   0  0  0  0  0  0  0  0  0  0  0  0
   -3.9186   17.0920  -35.5631 H   0  0  0  0  0  0  0  0  0  0  0  0
   -3.4265   18.0866  -33.0668 H   0  0  0  0  0  0  0  0  0  0  0  0
   -2.5009   18.5661  -34.5405 H   0  0  0  0  0  0  0  0  0  0  0  0
   -4.3306   19.8151  -31.3842 H   0  0  0  0  0  0  0  0  0  0  0  0
   -2.7438   20.6309  -30.9629 H   0  0  0  0  0  0  0  0  0  0  0  0
   -3.2338   22.0231  -29.1529 H   0  0  0  0  0  0  0  0  0  0  0  0
   -4.3554   24.0601  -28.2829 H   0  0  0  0  0  0  0  0  0  0  0  0
   -6.9463   24.1356  -31.7268 H   0  0  0  0  0  0  0  0  0  0  0  0
   -6.5740   22.6180  -33.4060 H   0  0  0  0  0  0  0  0  0  0  0  0
   -5.3290   21.5070  -33.4980 H   0  0  0  0  0  0  0  0  0  0  0  0
   -5.4760   19.2672  -33.1102 H   0  0  0  0  0  0  0  0  0  0  0  0
   -6.6692   16.4491  -31.8079 H   0  0  0  0  0  0  0  0  0  0  0  0
   -7.5987   16.3808  -33.3435 H   0  0  0  0  0  0  0  0  0  0  0  0
   -5.9074   16.9858  -33.3435 H   0  0  0  0  0  0  0  0  0  0  0  0
   -9.3378   17.7008  -31.9687 H   0  0  0  0  0  0  0  0  0  0  0  0
  -10.1851   20.0131  -31.6292 H   0  0  0  0  0  0  0  0  0  0  0  0
   -8.9460   22.5485  -30.8772 H   0  0  0  0  0  0  0  0  0  0  0  0
   -8.1950   23.0888  -32.4169 H   0  0  0  0  0  0  0  0  0  0  0  0
   -9.8622   22.4202  -32.4169 H   0  0  0  0  0  0  0  0  0  0  0  0
  1  2  1  0
  2  3  1  0
  3  4  1  0
  4  5  2  0
  4  6  1  0
  6  7  1  0
  7  8  2  0
  8  9  1  0
  9 10  2  0
 10 11  1  0
 10 12  1  0
 12 13  2  0
 13 14  1  0
 14 15  1  0
 15 16  2  0
 16 17  1  0
 17 18  1  0
 17 19  2  0
 19 20  1  0
 20 21  2  0
 21 22  1  0
 13  7  1  0
 21 15  1  0
  1 23  1  0
  1 24  1  0
  1 25  1  0
  2 26  1  0
  2 27  1  0
  6 28  1  0
  6 29  1  0
  8 30  1  0
  9 31  1  0
 12 32  1  0
 14 33  1  0
 14 34  1  0
 16 35  1  0
 18 36  1  0
 18 37  1  0
 18 38  1  0
 19 39  1  0
 20 40  1  0
 22 41  1  0
 22 42  1  0
 22 43  1  0
M  CHG  1  14   1
M  END
>  <UniqueID>  (23) 
21

>  <SMILES>  (23) 
CCOC(=O)Cc1ccc(Cl)cc1[NH2+]c1cc(C)ccc1C

>  <Energy>  (23) 
46.36821023287342

>  <Genealogy>  (23) 
CCOC(=O)Cc1ccc(Cl)cc1[NH2+]c1cc(C)ccc1C (protonated)
CCOC(=O)Cc1ccc(Cl)cc1[NH2+]c1cc(C)ccc1C (3D coordinates assigned)
CCOC(=O)Cc1ccc(Cl)cc1[NH2+]c1cc(C)ccc1C (optimized conformer: 46.36821023287342 kcal/mol)

>  <smiles>  (23) 
CCOC(=O)Cc1ccc(Cl)cc1Nc1cc(C)ccc1C

>  <score_type>  (23) 
oracle

>  <origin>  (23) 
adg

>  <m_score__min__energy>  (23) 
-8.2899999999999991

>  <m_primary>  (23) 
energy

$$$$
23:0
     RDKit          3D

 43 46  0  0  0  0  0  0  0  0999 V2000
   -0.5290   25.6130  -23.3480 N   0  0  0  0  0  0  0  0  0  0  0  0
   -0.4720   26.5780  -24.7800 S   0  0  0  0  0  0  0  0  0  0  0  0
   -1.0270   27.9440  -24.4870 O   0  0  0  0  0  0  0  0  0  0  0  0
    0.9550   26.7260  -25.2290 O   0  0  0  0  0  0  0  0  0  0  0  0
   -1.4200   25.8090  -26.0500 C   0  0  0  0  0  0  0  0  0  0  0  0
   -2.7170   25.3550  -25.7830 C   0  0  0  0  0  0  0  0  0  0  0  0
   -3.4650   24.7310  -26.7850 C   0  0  0  0  0  0  0  0  0  0  0  0
   -2.9240   24.5490  -28.0710 C   0  0  0  0  0  0  0  0  0  0  0  0
   -3.7170   23.8860  -29.1380 C   0  0  0  0  0  0  0  0  0  0  0  0
   -3.1530   22.8600  -29.9140 C   0  0  0  0  0  0  0  0  0  0  0  0
   -3.8950   22.2350  -30.9210 C   0  0  0  0  0  0  0  0  0  0  0  0
   -5.2170   22.6330  -31.1790 C   0  0  0  0  0  0  0  0  0  0  0  0
   -5.9990   22.0380  -32.1920 C   0  0  0  0  0  0  0  0  0  0  0  0
   -5.4860   21.0500  -33.0430 O   0  0  0  0  0  0  0  0  0  0  0  0
   -5.9630   19.7310  -33.1030 C   0  0  0  0  0  0  0  0  0  0  0  0
   -6.7610   19.1730  -32.0830 C   0  0  0  0  0  0  0  0  0  0  0  0
   -7.2140   17.8540  -32.1890 C   0  0  0  0  0  0  0  0  0  0  0  0
   -6.8740   17.0830  -33.3030 C   0  0  0  0  0  0  0  0  0  0  0  0
   -6.0760   17.6270  -34.3130 C   0  0  0  0  0  0  0  0  0  0  0  0
   -5.6210   18.9460  -34.2110 C   0  0  0  0  0  0  0  0  0  0  0  0
   -7.3310   22.4270  -32.3500 C   0  0  0  0  0  0  0  0  0  0  0  0
   -7.8630   23.4290  -31.5360 C   0  0  0  0  0  0  0  0  0  0  0  0
   -7.0920   24.0160  -30.5850 N   0  0  0  0  0  0  0  0  0  0  0  0
   -5.7980   23.6490  -30.3830 C   0  0  0  0  0  0  0  0  0  0  0  0
   -5.0480   24.2720  -29.3790 C   0  0  0  0  0  0  0  0  0  0  0  0
   -1.6180   25.0020  -28.3290 C   0  0  0  0  0  0  0  0  0  0  0  0
   -0.8710   25.6240  -27.3250 C   0  0  0  0  0  0  0  0  0  0  0  0
   -0.0730   24.7020  -23.5770 H   0  0  0  0  0  0  0  0  0  0  0  0
    0.0780   26.0830  -22.6390 H   0  0  0  0  0  0  0  0  0  0  0  0
   -3.1491   25.4900  -24.7805 H   0  0  0  0  0  0  0  0  0  0  0  0
   -4.4842   24.3795  -26.5667 H   0  0  0  0  0  0  0  0  0  0  0  0
   -2.1158   22.5446  -29.7274 H   0  0  0  0  0  0  0  0  0  0  0  0
   -3.4410   21.4275  -31.5141 H   0  0  0  0  0  0  0  0  0  0  0  0
   -7.0276   19.7761  -31.2025 H   0  0  0  0  0  0  0  0  0  0  0  0
   -7.8394   17.4229  -31.3934 H   0  0  0  0  0  0  0  0  0  0  0  0
   -7.2346   16.0470  -33.3853 H   0  0  0  0  0  0  0  0  0  0  0  0
   -5.8056   17.0181  -35.1883 H   0  0  0  0  0  0  0  0  0  0  0  0
   -4.9903   19.3693  -35.0066 H   0  0  0  0  0  0  0  0  0  0  0  0
   -7.9593   21.9453  -33.1137 H   0  0  0  0  0  0  0  0  0  0  0  0
   -8.9091   23.7435  -31.6655 H   0  0  0  0  0  0  0  0  0  0  0  0
   -5.5029   25.0698  -28.7736 H   0  0  0  0  0  0  0  0  0  0  0  0
   -1.1809   24.8657  -29.3292 H   0  0  0  0  0  0  0  0  0  0  0  0
    0.1516   25.9694  -27.5369 H   0  0  0  0  0  0  0  0  0  0  0  0
  1  2  1  0
  2  3  2  0
  2  4  2  0
  2  5  1  0
  5  6  2  0
  6  7  1  0
  7  8  2  0
  8  9  1  0
  9 10  2  0
 10 11  1  0
 11 12  2  0
 12 13  1  0
 13 14  1  0
 14 15  1  0
 15 16  2  0
 16 17  1  0
 17 18  2  0
 18 19  1  0
 19 20  2  0
 13 21  2  0
 21 22  1  0
 22 23  2  0
 23 24  1  0
 24 25  2  0
  8 26  1  0
 26 27  2  0
 27  5  1  0
 25  9  1  0
 24 12  1  0
 20 15  1  0
  1 28  1  0
  1 29  1  0
  6 30  1  0
  7 31  1  0
 10 32  1  0
 11 33  1  0
 16 34  1  0
 17 35  1  0
 18 36  1  0
 19 37  1  0
 20 38  1  0
 21 39  1  0
 22 40  1  0
 25 41  1  0
 26 42  1  0
 27 43  1  0
M  END
>  <UniqueID>  (24) 
22

>  <SMILES>  (24) 
NS(=O)(=O)c1ccc(-c2ccc3c(Oc4ccccc4)ccnc3c2)cc1

>  <Energy>  (24) 
64.08852523374325

>  <Genealogy>  (24) 
NS(=O)(=O)c1ccc(-c2ccc3c(Oc4ccccc4)ccnc3c2)cc1 (3D coordinates assigned)
NS(=O)(=O)c1ccc(-c2ccc3c(Oc4ccccc4)ccnc3c2)cc1 (optimized conformer: 64.08852523374325 kcal/mol)

>  <smiles>  (24) 
NS(=O)(=O)c1ccc(-c2ccc3c(Oc4ccccc4)ccnc3c2)cc1

>  <score_type>  (24) 
oracle

>  <origin>  (24) 
adg

>  <m_score__min__energy>  (24) 
-9.4100000000000001

>  <m_primary>  (24) 
energy

$$$$
24:0
     RDKit          3D

 50 52  0  0  0  0  0  0  0  0999 V2000
   -6.8130   18.3900  -33.0320 C   0  0  0  0  0  0  0  0  0  0  0  0
   -7.5570   19.5850  -32.5150 C   0  0  0  0  0  0  0  0  0  0  0  0
   -8.9460   19.6760  -32.6890 C   0  0  0  0  0  0  0  0  0  0  0  0
   -9.6510   20.7630  -32.1650 C   0  0  0  0  0  0  0  0  0  0  0  0
   -8.9780   21.7560  -31.4510 C   0  0  0  0  0  0  0  0  0  0  0  0
   -7.5920   21.6700  -31.2540 C   0  0  0  0  0  0  0  0  0  0  0  0
   -6.8780   22.7210  -30.4430 C   0  0  0  0  0  0  0  0  0  0  0  0
   -5.9400   23.4830  -31.2800 N   0  0  0  0  0  0  0  0  0  0  0  0
   -6.1750   24.9360  -31.2170 C   0  0  0  0  0  0  0  0  0  0  0  0
   -5.1970   25.5770  -30.2290 C   0  0  0  0  0  0  0  0  0  0  0  0
   -3.8670   25.1120  -30.4620 O   0  0  0  0  0  0  0  0  0  0  0  0
   -3.2200   24.0860  -29.7530 C   0  0  0  0  0  0  0  0  0  0  0  0
   -2.9270   24.1840  -28.3780 C   0  0  0  0  0  0  0  0  0  0  0  0
   -2.2840   23.1390  -27.7150 C   0  0  0  0  0  0  0  0  0  0  0  0
   -1.9190   21.9880  -28.4130 C   0  0  0  0  0  0  0  0  0  0  0  0
   -2.1950   21.8790  -29.7780 C   0  0  0  0  0  0  0  0  0  0  0  0
   -2.8460   22.9280  -30.4570 C   0  0  0  0  0  0  0  0  0  0  0  0
   -3.1450   22.8580  -31.8260 O   0  0  0  0  0  0  0  0  0  0  0  0
   -3.8930   21.8110  -32.4380 C   0  0  0  0  0  0  0  0  0  0  0  0
   -2.9440   20.8130  -33.0320 C   0  0  0  0  0  0  0  0  0  0  0  0
   -1.6030   21.1530  -33.2630 C   0  0  0  0  0  0  0  0  0  0  0  0
   -0.7400   20.2280  -33.8540 C   0  0  0  0  0  0  0  0  0  0  0  0
   -1.2300   18.9720  -34.2190 C   0  0  0  0  0  0  0  0  0  0  0  0
   -2.5360   18.6620  -34.0050 N   0  0  0  0  0  0  0  0  0  0  0  0
   -3.3970   19.5460  -33.4310 C   0  0  0  0  0  0  0  0  0  0  0  0
   -6.8840   20.5800  -31.7890 C   0  0  0  0  0  0  0  0  0  0  0  0
   -6.4421   17.7943  -32.1849 H   0  0  0  0  0  0  0  0  0  0  0  0
   -7.4880   17.7749  -33.6452 H   0  0  0  0  0  0  0  0  0  0  0  0
   -5.9631   18.7243  -33.6452 H   0  0  0  0  0  0  0  0  0  0  0  0
   -9.4821   18.8891  -33.2398 H   0  0  0  0  0  0  0  0  0  0  0  0
  -10.7382   20.8362  -32.3155 H   0  0  0  0  0  0  0  0  0  0  0  0
   -9.5373   22.6099  -31.0410 H   0  0  0  0  0  0  0  0  0  0  0  0
   -7.6200   23.4107  -30.0144 H   0  0  0  0  0  0  0  0  0  0  0  0
   -6.3100   22.2221  -29.6439 H   0  0  0  0  0  0  0  0  0  0  0  0
   -4.9770   23.2910  -30.9180 H   0  0  0  0  0  0  0  0  0  0  0  0
   -6.0254   25.3738  -32.2150 H   0  0  0  0  0  0  0  0  0  0  0  0
   -7.2056   25.1230  -30.8810 H   0  0  0  0  0  0  0  0  0  0  0  0
   -5.2242   26.6698  -30.3516 H   0  0  0  0  0  0  0  0  0  0  0  0
   -5.4945   25.3002  -29.2068 H   0  0  0  0  0  0  0  0  0  0  0  0
   -3.2076   25.0916  -27.8235 H   0  0  0  0  0  0  0  0  0  0  0  0
   -2.0645   23.2227  -26.6404 H   0  0  0  0  0  0  0  0  0  0  0  0
   -1.4129   21.1646  -27.8877 H   0  0  0  0  0  0  0  0  0  0  0  0
   -1.9029   20.9705  -30.3250 H   0  0  0  0  0  0  0  0  0  0  0  0
   -4.5217   21.3172  -31.6825 H   0  0  0  0  0  0  0  0  0  0  0  0
   -4.5357   22.2272  -33.2278 H   0  0  0  0  0  0  0  0  0  0  0  0
   -1.2311   22.1484  -32.9786 H   0  0  0  0  0  0  0  0  0  0  0  0
    0.3147   20.4858  -34.0303 H   0  0  0  0  0  0  0  0  0  0  0  0
   -0.5583   18.2330  -34.6801 H   0  0  0  0  0  0  0  0  0  0  0  0
   -4.4501   19.2669  -33.2795 H   0  0  0  0  0  0  0  0  0  0  0  0
   -5.7969   20.5064  -31.6379 H   0  0  0  0  0  0  0  0  0  0  0  0
  1  2  1  0
  2  3  2  0
  3  4  1  0
  4  5  2  0
  5  6  1  0
  6  7  1  0
  7  8  1  0
  8  9  1  0
  9 10  1  0
 10 11  1  0
 11 12  1  0
 12 13  2  0
 13 14  1  0
 14 15  2  0
 15 16  1  0
 16 17  2  0
 17 18  1  0
 18 19  1  0
 19 20  1  0
 20 21  2  0
 21 22  1  0
 22 23  2  0
 23 24  1  0
 24 25  2  0
  6 26  2  0
 26  2  1  0
 17 12  1  0
 25 20  1  0
  1 27  1  0
  1 28  1  0
  1 29  1  0
  3 30  1  0
  4 31  1  0
  5 32  1  0
  7 33  1  0
  7 34  1  0
  8 35  1  0
  9 36  1  0
  9 37  1  0
 10 38  1  0
 10 39  1  0
 13 40  1  0
 14 41  1  0
 15 42  1  0
 16 43  1  0
 19 44  1  0
 19 45  1  0
 21 46  1  0
 22 47  1  0
 23 48  1  0
 25 49  1  0
 26 50  1  0
M  END
>  <UniqueID>  (25) 
23

>  <SMILES>  (25) 
Cc1cccc(CNCCOc2ccccc2OCc2cccnc2)c1

>  <Energy>  (25) 
48.39583986436567

>  <Genealogy>  (25) 
Cc1cccc(CNCCOc2ccccc2OCc2cccnc2)c1 (3D coordinates assigned)
Cc1cccc(CNCCOc2ccccc2OCc2cccnc2)c1 (optimized conformer: 48.39583986436567 kcal/mol)

>  <smiles>  (25) 
Cc1cccc(CNCCOc2ccccc2OCc2cccnc2)c1

>  <score_type>  (25) 
oracle

>  <origin>  (25) 
adg

>  <m_score__min__energy>  (25) 
-8.2200000000000006

>  <m_primary>  (25) 
energy

$$$$
25:0
     RDKit          3D

 39 41  0  0  0  0  0  0  0  0999 V2000
   -2.4000   22.7690  -30.4500 C   0  0  0  0  0  0  0  0  0  0  0  0
   -3.7120   23.3840  -30.8010 C   0  0  0  0  0  0  0  0  0  0  0  0
   -3.9740   24.6750  -30.4630 N   0  0  0  0  0  0  0  0  0  0  0  0
   -5.1500   25.2610  -30.8020 C   0  0  0  0  0  0  0  0  0  0  0  0
   -5.3750   26.4540  -30.4690 O   0  0  0  0  0  0  0  0  0  0  0  0
   -6.1070   24.5400  -31.5190 C   0  0  0  0  0  0  0  0  0  0  0  0
   -5.8130   23.2210  -31.8880 C   0  0  0  0  0  0  0  0  0  0  0  0
   -6.8120   22.3860  -32.6560 C   0  0  0  0  0  0  0  0  0  0  0  0
   -7.1090   21.0580  -32.0650 N   0  0  1  0  0  0  0  0  0  0  0  0
   -8.4030   20.9750  -31.3750 C   0  0  0  0  0  0  0  0  0  0  0  0
   -8.7360   19.4920  -31.2660 C   0  0  0  0  0  0  0  0  0  0  0  0
   -7.9010   18.8030  -32.3400 C   0  0  0  0  0  0  0  0  0  0  0  0
   -7.1100   19.9290  -33.0150 C   0  0  2  0  0  0  0  0  0  0  0  0
   -5.7050   19.5010  -33.4250 C   0  0  0  0  0  0  0  0  0  0  0  0
   -4.5790   20.2580  -33.0380 C   0  0  0  0  0  0  0  0  0  0  0  0
   -3.2930   19.8690  -33.4250 C   0  0  0  0  0  0  0  0  0  0  0  0
   -3.1120   18.7220  -34.1990 C   0  0  0  0  0  0  0  0  0  0  0  0
   -4.2150   17.9580  -34.5840 C   0  0  0  0  0  0  0  0  0  0  0  0
   -4.0320   16.8410  -35.3320 F   0  0  0  0  0  0  0  0  0  0  0  0
   -5.5060   18.3400  -34.2010 C   0  0  0  0  0  0  0  0  0  0  0  0
   -6.5560   17.5680  -34.5820 F   0  0  0  0  0  0  0  0  0  0  0  0
   -4.6270   22.6730  -31.5120 N   0  0  0  0  0  0  0  0  0  0  0  0
   -2.2984   22.7214  -29.3557 H   0  0  0  0  0  0  0  0  0  0  0  0
   -2.3480   21.7527  -30.8676 H   0  0  0  0  0  0  0  0  0  0  0  0
   -1.5856   23.3792  -30.8676 H   0  0  0  0  0  0  0  0  0  0  0  0
   -7.0704   24.9976  -31.7881 H   0  0  0  0  0  0  0  0  0  0  0  0
   -7.7540   22.9509  -32.7154 H   0  0  0  0  0  0  0  0  0  0  0  0
   -6.3563   22.1893  -33.6377 H   0  0  0  0  0  0  0  0  0  0  0  0
   -6.3780   20.8890  -31.3320 H   0  0  0  0  0  0  0  0  0  0  0  0
   -8.3298   21.4234  -30.3732 H   0  0  0  0  0  0  0  0  0  0  0  0
   -9.1844   21.5206  -31.9243 H   0  0  0  0  0  0  0  0  0  0  0  0
   -8.4691   19.1110  -30.2692 H   0  0  0  0  0  0  0  0  0  0  0  0
   -9.8111   19.3055  -31.4050 H   0  0  0  0  0  0  0  0  0  0  0  0
   -7.2181   18.0695  -31.8867 H   0  0  0  0  0  0  0  0  0  0  0  0
   -8.5265   18.2516  -33.0574 H   0  0  0  0  0  0  0  0  0  0  0  0
   -7.5828   20.2203  -33.9645 H   0  0  0  0  0  0  0  0  0  0  0  0
   -4.7141   21.1623  -32.4264 H   0  0  0  0  0  0  0  0  0  0  0  0
   -2.4226   20.4680  -33.1189 H   0  0  0  0  0  0  0  0  0  0  0  0
   -2.0998   18.4198  -34.5058 H   0  0  0  0  0  0  0  0  0  0  0  0
  1  2  1  0
  2  3  2  0
  3  4  1  0
  4  5  2  0
  4  6  1  0
  6  7  2  0
  7  8  1  0
  8  9  1  0
  9 10  1  0
 10 11  1  0
 11 12  1  0
 12 13  1  0
 13 14  1  0
 14 15  2  0
 15 16  1  0
 16 17  2  0
 17 18  1  0
 18 19  1  0
 18 20  2  0
 20 21  1  0
  7 22  1  0
 22  2  1  0
 13  9  1  0
 20 14  1  0
  1 23  1  0
  1 24  1  0
  1 25  1  0
  6 26  1  0
  8 27  1  0
  8 28  1  0
  9 29  1  1
 10 30  1  0
 10 31  1  0
 11 32  1  0
 11 33  1  0
 12 34  1  0
 12 35  1  0
 13 36  1  6
 15 37  1  0
 16 38  1  0
 17 39  1  0
M  CHG  2   9   1  22  -1
M  END
>  <UniqueID>  (26) 
24

>  <SMILES>  (26) 
Cc1nc(=O)cc(C[N@H+]2CCC[C@@H]2c2cccc(F)c2F)[n-]1

>  <Energy>  (26) 
49.34267556793033

>  <Genealogy>  (26) 
Cc1nc(=O)cc(C[NH+]2CCCC2c2cccc(F)c2F)[n-]1 (protonated)
Cc1nc(=O)cc(C[N@H+]2CCC[C@@H]2c2cccc(F)c2F)[n-]1 (chirality)
Cc1nc(=O)cc(C[N@H+]2CCC[C@@H]2c2cccc(F)c2F)[n-]1 (3D coordinates assigned)
Cc1nc(=O)cc(C[N@H+]2CCC[C@@H]2c2cccc(F)c2F)[n-]1 (nonaromatic ring conformer: 49.34267556793033 kcal/mol)

>  <smiles>  (26) 
Cc1nc(=O)cc(CN2CCCC2c2cccc(F)c2F)[nH]1

>  <score_type>  (26) 
oracle

>  <origin>  (26) 
adg

>  <m_score__min__energy>  (26) 
-8.5

>  <m_primary>  (26) 
energy

$$$$
26:0
     RDKit          3D

 46 48  0  0  0  0  0  0  0  0999 V2000
   -3.9850   19.8400  -32.4750 C   0  0  0  0  0  0  0  0  0  0  0  0
   -5.2530   20.3670  -32.8500 O   0  0  0  0  0  0  0  0  0  0  0  0
   -6.4870   19.7670  -32.5490 C   0  0  0  0  0  0  0  0  0  0  0  0
   -6.7140   18.3910  -32.7580 C   0  0  0  0  0  0  0  0  0  0  0  0
   -7.9610   17.8290  -32.4720 C   0  0  0  0  0  0  0  0  0  0  0  0
   -8.9900   18.6260  -31.9740 C   0  0  0  0  0  0  0  0  0  0  0  0
   -8.7780   19.9880  -31.7570 C   0  0  0  0  0  0  0  0  0  0  0  0
   -7.5290   20.5690  -32.0380 C   0  0  0  0  0  0  0  0  0  0  0  0
   -7.3220   21.9730  -31.7850 N   0  0  0  0  0  0  0  0  0  0  0  0
   -7.8440   22.6010  -30.5670 C   0  0  0  0  0  0  0  0  0  0  0  0
   -6.6870   23.1430  -29.7050 C   0  0  0  0  0  0  0  0  0  0  0  0
   -5.4870   23.5510  -30.4880 N   0  0  0  0  0  0  0  0  0  0  0  0
   -4.4080   22.5410  -30.4350 C   0  0  0  0  0  0  0  0  0  0  0  0
   -3.2460   23.0450  -29.6210 C   0  0  0  0  0  0  0  0  0  0  0  0
   -2.6060   22.2010  -28.8100 O   0  0  0  0  0  0  0  0  0  0  0  0
   -1.5780   22.5670  -28.0470 C   0  0  0  0  0  0  0  0  0  0  0  0
   -0.8970   21.5420  -27.1920 C   0  0  0  0  0  0  0  0  0  0  0  0
   -1.6410   20.3540  -27.1830 O   0  0  0  0  0  0  0  0  0  0  0  0
   -1.1200   23.8900  -28.0740 C   0  0  0  0  0  0  0  0  0  0  0  0
   -1.7690   24.8100  -28.8980 C   0  0  0  0  0  0  0  0  0  0  0  0
   -1.3790   26.0080  -28.9370 O   0  0  0  0  0  0  0  0  0  0  0  0
   -2.8480   24.3910  -29.6820 C   0  0  0  0  0  0  0  0  0  0  0  0
   -3.5100   25.2990  -30.5050 O   0  0  0  0  0  0  0  0  0  0  0  0
   -5.8170   23.9320  -31.8780 C   0  0  0  0  0  0  0  0  0  0  0  0
   -6.4390   22.7580  -32.6550 C   0  0  0  0  0  0  0  0  0  0  0  0
   -3.9107   19.8091  -31.3779 H   0  0  0  0  0  0  0  0  0  0  0  0
   -3.8769   18.8225  -32.8786 H   0  0  0  0  0  0  0  0  0  0  0  0
   -3.1875   20.4812  -32.8786 H   0  0  0  0  0  0  0  0  0  0  0  0
   -5.9048   17.7564  -33.1484 H   0  0  0  0  0  0  0  0  0  0  0  0
   -8.1308   16.7553  -32.6403 H   0  0  0  0  0  0  0  0  0  0  0  0
   -9.9709   18.1807  -31.7516 H   0  0  0  0  0  0  0  0  0  0  0  0
   -9.5941   20.6117  -31.3632 H   0  0  0  0  0  0  0  0  0  0  0  0
   -8.5098   23.4316  -30.8440 H   0  0  0  0  0  0  0  0  0  0  0  0
   -8.3996   21.8491  -29.9873 H   0  0  0  0  0  0  0  0  0  0  0  0
   -7.0513   24.0193  -29.1487 H   0  0  0  0  0  0  0  0  0  0  0  0
   -6.3715   22.3224  -29.0439 H   0  0  0  0  0  0  0  0  0  0  0  0
   -4.7976   21.6202  -29.9763 H   0  0  0  0  0  0  0  0  0  0  0  0
   -4.0612   22.3403  -31.4594 H   0  0  0  0  0  0  0  0  0  0  0  0
    0.1065   21.3403  -27.5948 H   0  0  0  0  0  0  0  0  0  0  0  0
   -0.8164   21.9253  -26.1641 H   0  0  0  0  0  0  0  0  0  0  0  0
   -2.3650   20.4670  -27.8530 H   0  0  0  0  0  0  0  0  0  0  0  0
   -0.2636   24.1985  -27.4564 H   0  0  0  0  0  0  0  0  0  0  0  0
   -6.5332   24.7667  -31.8589 H   0  0  0  0  0  0  0  0  0  0  0  0
   -4.8856   24.2249  -32.3847 H   0  0  0  0  0  0  0  0  0  0  0  0
   -7.0219   23.1524  -33.5004 H   0  0  0  0  0  0  0  0  0  0  0  0
   -5.6312   22.1070  -33.0206 H   0  0  0  0  0  0  0  0  0  0  0  0
  1  2  1  0
  2  3  1  0
  3  4  2  0
  4  5  1  0
  5  6  2  0
  6  7  1  0
  7  8  2  0
  8  9  1  0
  9 10  1  0
 10 11  1  0
 11 12  1  0
 12 13  1  0
 13 14  1  0
 14 15  1  0
 15 16  1  0
 16 17  1  0
 17 18  1  0
 16 19  2  0
 19 20  1  0
 20 21  2  0
 20 22  1  0
 22 23  1  0
 12 24  1  0
 24 25  1  0
  8  3  1  0
 25  9  1  0
 22 14  2  0
  1 26  1  0
  1 27  1  0
  1 28  1  0
  4 29  1  0
  5 30  1  0
  6 31  1  0
  7 32  1  0
 10 33  1  0
 10 34  1  0
 11 35  1  0
 11 36  1  0
 13 37  1  0
 13 38  1  0
 17 39  1  0
 17 40  1  0
 18 41  1  0
 19 42  1  0
 24 43  1  0
 24 44  1  0
 25 45  1  0
 25 46  1  0
M  CHG  1  23  -1
M  END
>  <UniqueID>  (27) 
25

>  <SMILES>  (27) 
COc1ccccc1N1CCN(Cc2oc(CO)cc(=O)c2[O-])CC1

>  <Energy>  (27) 
60.525557531022855

>  <Genealogy>  (27) 
COc1ccccc1N1CCN(Cc2oc(CO)cc(=O)c2[O-])CC1 (protonated)
COc1ccccc1N1CCN(Cc2oc(CO)cc(=O)c2[O-])CC1 (3D coordinates assigned)
COc1ccccc1N1CCN(Cc2oc(CO)cc(=O)c2[O-])CC1 (nonaromatic ring conformer: 60.525557531022855 kcal/mol)

>  <smiles>  (27) 
COc1ccccc1N1CCN(Cc2oc(CO)cc(=O)c2O)CC1

>  <score_type>  (27) 
oracle

>  <origin>  (27) 
adg

>  <m_score__min__energy>  (27) 
-10.56

>  <m_primary>  (27) 
energy

$$$$
27:0
     RDKit          3D

 34 33  0  0  0  0  0  0  0  0999 V2000
   -0.6680   21.3010  -30.2130 C   0  0  0  0  0  0  0  0  0  0  0  0
   -1.6090   21.7870  -30.7880 C   0  0  0  0  0  0  0  0  0  0  0  0
   -2.7460   22.3910  -31.4930 C   0  0  0  0  0  0  0  0  0  0  0  0
   -3.8470   22.7110  -30.5540 N   0  0  0  0  0  0  0  0  0  0  0  0
   -3.6440   22.0770  -29.2220 C   0  0  0  0  0  0  0  0  0  0  0  0
   -3.4690   23.1210  -28.1080 C   0  0  0  0  0  0  0  0  0  0  0  0
   -2.2320   24.0000  -28.3160 C   0  0  0  0  0  0  0  0  0  0  0  0
   -2.5060   25.0230  -29.3210 N   0  0  0  0  0  0  0  0  0  0  0  0
   -5.1500   22.3020  -31.1370 C   0  0  0  0  0  0  0  0  0  0  0  0
   -5.9590   23.5280  -31.5880 C   0  0  0  0  0  0  0  0  0  0  0  0
   -6.4650   24.3450  -30.3890 C   0  0  0  0  0  0  0  0  0  0  0  0
   -5.7970   25.7210  -30.3150 C   0  0  0  0  0  0  0  0  0  0  0  0
   -4.4350   25.6670  -30.8410 N   0  0  0  0  0  0  0  0  0  0  0  0
    0.1909   20.8574  -29.6882 H   0  0  0  0  0  0  0  0  0  0  0  0
   -2.4130   23.3168  -31.9850 H   0  0  0  0  0  0  0  0  0  0  0  0
   -3.1188   21.6708  -32.2362 H   0  0  0  0  0  0  0  0  0  0  0  0
   -4.5189   21.4523  -28.9890 H   0  0  0  0  0  0  0  0  0  0  0  0
   -2.7255   21.4736  -29.2694 H   0  0  0  0  0  0  0  0  0  0  0  0
   -4.3600   23.7657  -28.0858 H   0  0  0  0  0  0  0  0  0  0  0  0
   -3.3378   22.5789  -27.1599 H   0  0  0  0  0  0  0  0  0  0  0  0
   -1.9670   24.4858  -27.3653 H   0  0  0  0  0  0  0  0  0  0  0  0
   -1.3977   23.3713  -28.6607 H   0  0  0  0  0  0  0  0  0  0  0  0
   -2.6680   24.5440  -30.2370 H   0  0  0  0  0  0  0  0  0  0  0  0
   -3.4080   25.4860  -29.0650 H   0  0  0  0  0  0  0  0  0  0  0  0
   -4.9676   21.6518  -32.0053 H   0  0  0  0  0  0  0  0  0  0  0  0
   -5.7254   21.7651  -30.3685 H   0  0  0  0  0  0  0  0  0  0  0  0
   -5.3181   24.1688  -32.2115 H   0  0  0  0  0  0  0  0  0  0  0  0
   -6.8321   23.1738  -32.1557 H   0  0  0  0  0  0  0  0  0  0  0  0
   -7.5522   24.4819  -30.4849 H   0  0  0  0  0  0  0  0  0  0  0  0
   -6.2151   23.7941  -29.4703 H   0  0  0  0  0  0  0  0  0  0  0  0
   -6.3838   26.4388  -30.9071 H   0  0  0  0  0  0  0  0  0  0  0  0
   -5.7554   26.0359  -29.2618 H   0  0  0  0  0  0  0  0  0  0  0  0
   -4.0080   24.7650  -30.5290 H   0  0  0  0  0  0  0  0  0  0  0  0
   -3.8780   26.4300  -30.3910 H   0  0  0  0  0  0  0  0  0  0  0  0
  1  2  3  0
  2  3  1  0
  3  4  1  0
  4  5  1  0
  5  6  1  0
  6  7  1  0
  7  8  1  0
  4  9  1  0
  9 10  1  0
 10 11  1  0
 11 12  1  0
 12 13  1  0
  1 14  1  0
  3 15  1  0
  3 16  1  0
  5 17  1  0
  5 18  1  0
  6 19  1  0
  6 20  1  0
  7 21  1  0
  7 22  1  0
  8 23  1  0
  8 24  1  0
  9 25  1  0
  9 26  1  0
 10 27  1  0
 10 28  1  0
 11 29  1  0
 11 30  1  0
 12 31  1  0
 12 32  1  0
 13 33  1  0
 13 34  1  0
M  END
>  <UniqueID>  (28) 
26

>  <SMILES>  (28) 
C#CCN(CCCN)CCCCN

>  <Energy>  (28) 
18.887730893733057

>  <Genealogy>  (28) 
C#CCN(CCCN)CCCCN (3D coordinates assigned)
C#CCN(CCCN)CCCCN (optimized conformer: 18.887730893733057 kcal/mol)

>  <smiles>  (28) 
C#CCN(CCCN)CCCCN

>  <score_type>  (28) 
oracle

>  <origin>  (28) 
adg

>  <m_score__min__energy>  (28) 
-3.6299999999999999

>  <m_primary>  (28) 
energy

$$$$
28:0
     RDKit          3D

 40 40  0  0  0  0  0  0  0  0999 V2000
   -8.7820   18.6470  -31.9210 C   0  0  0  0  0  0  0  0  0  0  0  0
   -8.0810   19.7650  -32.6980 C   0  0  0  0  0  0  0  0  0  0  0  0
   -7.1060   20.5110  -31.8450 N   0  0  0  0  0  0  0  0  0  0  0  0
   -5.7090   20.0990  -32.1430 C   0  0  0  0  0  0  0  0  0  0  0  0
   -4.8670   21.2590  -32.6900 C   0  0  0  0  0  0  0  0  0  0  0  0
   -7.2350   21.9770  -32.0370 C   0  0  0  0  0  0  0  0  0  0  0  0
   -7.4480   22.6950  -30.7360 C   0  0  0  0  0  0  0  0  0  0  0  0
   -7.9970   22.0960  -29.7710 O   0  0  0  0  0  0  0  0  0  0  0  0
   -7.0050   24.0150  -30.6010 O   0  0  0  0  0  0  0  0  0  0  0  0
   -6.0130   24.6000  -31.4430 C   0  0  0  0  0  0  0  0  0  0  0  0
   -5.2130   25.6560  -30.6780 C   0  0  0  0  0  0  0  0  0  0  0  0
   -3.8740   25.2130  -30.4580 O   0  0  0  0  0  0  0  0  0  0  0  0
   -3.5020   24.0280  -29.8030 C   0  0  0  0  0  0  0  0  0  0  0  0
   -3.9230   23.8440  -28.4800 C   0  0  0  0  0  0  0  0  0  0  0  0
   -3.5820   22.6840  -27.7780 C   0  0  0  0  0  0  0  0  0  0  0  0
   -2.8100   21.6960  -28.3940 C   0  0  0  0  0  0  0  0  0  0  0  0
   -2.3430   20.1100  -27.4360 Br  0  0  0  0  0  0  0  0  0  0  0  0
   -2.3790   21.8680  -29.7140 C   0  0  0  0  0  0  0  0  0  0  0  0
   -2.7200   23.0270  -30.4170 C   0  0  0  0  0  0  0  0  0  0  0  0
   -8.6703   18.8251  -30.8413 H   0  0  0  0  0  0  0  0  0  0  0  0
   -9.8506   18.6335  -32.1818 H   0  0  0  0  0  0  0  0  0  0  0  0
   -8.3287   17.6793  -32.1818 H   0  0  0  0  0  0  0  0  0  0  0  0
   -7.5429   19.3228  -33.5494 H   0  0  0  0  0  0  0  0  0  0  0  0
   -8.8483   20.4755  -33.0392 H   0  0  0  0  0  0  0  0  0  0  0  0
   -7.2780   20.3170  -30.8290 H   0  0  0  0  0  0  0  0  0  0  0  0
   -5.2436   19.7291  -31.2175 H   0  0  0  0  0  0  0  0  0  0  0  0
   -5.7452   19.3151  -32.9138 H   0  0  0  0  0  0  0  0  0  0  0  0
   -4.4486   21.8355  -31.8518 H   0  0  0  0  0  0  0  0  0  0  0  0
   -4.0475   20.8590  -33.3052 H   0  0  0  0  0  0  0  0  0  0  0  0
   -5.5012   21.9142  -33.3052 H   0  0  0  0  0  0  0  0  0  0  0  0
   -6.3154   22.3565  -32.5063 H   0  0  0  0  0  0  0  0  0  0  0  0
   -8.1113   22.1615  -32.6758 H   0  0  0  0  0  0  0  0  0  0  0  0
   -5.3293   23.8140  -31.7962 H   0  0  0  0  0  0  0  0  0  0  0  0
   -6.5116   25.0821  -32.2968 H   0  0  0  0  0  0  0  0  0  0  0  0
   -5.1937   26.5878  -31.2623 H   0  0  0  0  0  0  0  0  0  0  0  0
   -5.6937   25.8266  -29.7034 H   0  0  0  0  0  0  0  0  0  0  0  0
   -4.5280   24.6200  -27.9883 H   0  0  0  0  0  0  0  0  0  0  0  0
   -3.9216   22.5493  -26.7405 H   0  0  0  0  0  0  0  0  0  0  0  0
   -1.7710   21.0901  -30.1991 H   0  0  0  0  0  0  0  0  0  0  0  0
   -2.3771   23.1593  -31.4538 H   0  0  0  0  0  0  0  0  0  0  0  0
  1  2  1  0
  2  3  1  0
  3  4  1  0
  4  5  1  0
  3  6  1  0
  6  7  1  0
  7  8  2  0
  7  9  1  0
  9 10  1  0
 10 11  1  0
 11 12  1  0
 12 13  1  0
 13 14  2  0
 14 15  1  0
 15 16  2  0
 16 17  1  0
 16 18  1  0
 18 19  2  0
 19 13  1  0
  1 20  1  0
  1 21  1  0
  1 22  1  0
  2 23  1  0
  2 24  1  0
  3 25  1  0
  4 26  1  0
  4 27  1  0
  5 28  1  0
  5 29  1  0
  5 30  1  0
  6 31  1  0
  6 32  1  0
 10 33  1  0
 10 34  1  0
 11 35  1  0
 11 36  1  0
 14 37  1  0
 15 38  1  0
 18 39  1  0
 19 40  1  0
M  CHG  1   3   1
M  END
>  <UniqueID>  (29) 
27

>  <SMILES>  (29) 
CC[NH+](CC)CC(=O)OCCOc1ccc(Br)cc1

>  <Energy>  (29) 
36.40786405415746

>  <Genealogy>  (29) 
CC[NH+](CC)CC(=O)OCCOc1ccc(Br)cc1 (protonated)
CC[NH+](CC)CC(=O)OCCOc1ccc(Br)cc1 (3D coordinates assigned)
CC[NH+](CC)CC(=O)OCCOc1ccc(Br)cc1 (optimized conformer: 36.40786405415746 kcal/mol)

>  <smiles>  (29) 
CCN(CC)CC(=O)OCCOc1ccc(Br)cc1

>  <score_type>  (29) 
oracle

>  <origin>  (29) 
adg

>  <m_score__min__energy>  (29) 
-6.3499999999999996

>  <m_primary>  (29) 
energy

$$$$
29:0
     RDKit          3D

 28 29  0  0  0  0  0  0  0  0999 V2000
   -4.4400   24.9230  -30.1950 C   0  0  0  0  0  0  0  0  0  0  0  0
   -5.6050   24.0730  -30.6110 C   0  0  0  0  0  0  0  0  0  0  0  0
   -6.1120   24.1590  -31.9160 C   0  0  0  0  0  0  0  0  0  0  0  0
   -7.1750   23.3410  -32.3140 C   0  0  0  0  0  0  0  0  0  0  0  0
   -7.7330   22.4270  -31.4140 C   0  0  0  0  0  0  0  0  0  0  0  0
   -9.1000   21.3800  -31.9190 S   0  0  0  0  0  0  0  0  0  0  0  0
   -8.0150   20.0480  -32.4490 C   0  0  0  0  0  0  0  0  0  0  0  0
   -7.0430   20.3230  -33.4210 C   0  0  0  0  0  0  0  0  0  0  0  0
   -6.1640   19.3270  -33.8460 C   0  0  0  0  0  0  0  0  0  0  0  0
   -6.2510   18.0410  -33.3070 C   0  0  0  0  0  0  0  0  0  0  0  0
   -5.0450   16.6780  -33.8880 Br  0  0  0  0  0  0  0  0  0  0  0  0
   -7.2240   17.7510  -32.3460 C   0  0  0  0  0  0  0  0  0  0  0  0
   -8.1160   18.7440  -31.9120 C   0  0  0  0  0  0  0  0  0  0  0  0
   -9.1180   18.4090  -30.9430 N   0  0  0  0  0  0  0  0  0  0  0  0
   -7.2130   22.3200  -30.1180 C   0  0  0  0  0  0  0  0  0  0  0  0
   -6.1510   23.1360  -29.7190 C   0  0  0  0  0  0  0  0  0  0  0  0
   -4.3876   24.9612  -29.0969 H   0  0  0  0  0  0  0  0  0  0  0  0
   -3.5099   24.4898  -30.5916 H   0  0  0  0  0  0  0  0  0  0  0  0
   -4.5687   25.9409  -30.5916 H   0  0  0  0  0  0  0  0  0  0  0  0
   -5.6723   24.8720  -32.6289 H   0  0  0  0  0  0  0  0  0  0  0  0
   -7.5728   23.4168  -33.3368 H   0  0  0  0  0  0  0  0  0  0  0  0
   -6.9730   21.3326  -33.8521 H   0  0  0  0  0  0  0  0  0  0  0  0
   -5.4019   19.5541  -34.6060 H   0  0  0  0  0  0  0  0  0  0  0  0
   -7.2911   16.7363  -31.9265 H   0  0  0  0  0  0  0  0  0  0  0  0
   -9.4960   17.4420  -30.8480 H   0  0  0  0  0  0  0  0  0  0  0  0
   -9.4740   19.1320  -30.2790 H   0  0  0  0  0  0  0  0  0  0  0  0
   -7.6413   21.5924  -29.4129 H   0  0  0  0  0  0  0  0  0  0  0  0
   -5.7412   23.0439  -28.7023 H   0  0  0  0  0  0  0  0  0  0  0  0
  1  2  1  0
  2  3  2  0
  3  4  1  0
  4  5  2  0
  5  6  1  0
  6  7  1  0
  7  8  2  0
  8  9  1  0
  9 10  2  0
 10 11  1  0
 10 12  1  0
 12 13  2  0
 13 14  1  0
  5 15  1  0
 15 16  2  0
 16  2  1  0
 13  7  1  0
  1 17  1  0
  1 18  1  0
  1 19  1  0
  3 20  1  0
  4 21  1  0
  8 22  1  0
  9 23  1  0
 12 24  1  0
 14 25  1  0
 14 26  1  0
 15 27  1  0
 16 28  1  0
M  END
>  <UniqueID>  (30) 
28

>  <SMILES>  (30) 
Cc1ccc(Sc2ccc(Br)cc2N)cc1

>  <Energy>  (30) 
23.420192707081718

>  <Genealogy>  (30) 
Cc1ccc(Sc2ccc(Br)cc2N)cc1 (3D coordinates assigned)
Cc1ccc(Sc2ccc(Br)cc2N)cc1 (optimized conformer: 23.420192707081718 kcal/mol)

>  <smiles>  (30) 
Cc1ccc(Sc2ccc(Br)cc2N)cc1

>  <score_type>  (30) 
oracle

>  <origin>  (30) 
adg

>  <m_score__min__energy>  (30) 
-7.6299999999999999

>  <m_primary>  (30) 
energy

$$$$
30:0
     RDKit          3D

 50 52  0  0  0  0  0  0  0  0999 V2000
    0.0360   24.4760  -27.9110 C   0  0  0  0  0  0  0  0  0  0  0  0
   -1.1830   25.3970  -27.8920 C   0  0  0  0  0  0  0  0  0  0  0  0
   -2.3350   24.7100  -27.2630 N   0  0  0  0  0  0  0  0  0  0  0  0
   -2.7600   25.3920  -26.0190 C   0  0  0  0  0  0  0  0  0  0  0  0
   -1.5960   26.1720  -25.4160 C   0  0  0  0  0  0  0  0  0  0  0  0
   -3.4630   24.5430  -28.2130 C   0  0  0  0  0  0  0  0  0  0  0  0
   -2.9310   24.4800  -29.6490 C   0  0  0  0  0  0  0  0  0  0  0  0
   -3.8070   25.1950  -30.5710 N   0  0  0  0  0  0  0  0  0  0  0  0
   -5.1290   25.6650  -30.2810 C   0  0  0  0  0  0  0  0  0  0  0  0
   -5.3890   26.8840  -30.4650 O   0  0  0  0  0  0  0  0  0  0  0  0
   -6.2000   24.7720  -29.7120 C   0  0  0  0  0  0  0  0  0  0  0  0
   -6.4710   23.6490  -30.6160 N   0  0  0  0  0  0  0  0  0  0  0  0
   -7.4990   23.7530  -31.4760 N   0  0  0  0  0  0  0  0  0  0  0  0
   -7.8100   22.7500  -32.3440 C   0  0  0  0  0  0  0  0  0  0  0  0
   -7.0450   21.6360  -32.3270 N   0  0  0  0  0  0  0  0  0  0  0  0
   -7.1760   20.5680  -33.0910 N   0  0  0  0  0  0  0  0  0  0  0  0
   -6.1890   19.7100  -32.7280 C   0  0  0  0  0  0  0  0  0  0  0  0
   -5.9860   18.3840  -33.3630 C   0  0  0  0  0  0  0  0  0  0  0  0
   -4.8720   18.1690  -34.1980 C   0  0  0  0  0  0  0  0  0  0  0  0
   -4.6630   16.9230  -34.7970 C   0  0  0  0  0  0  0  0  0  0  0  0
   -5.5620   15.8760  -34.5690 C   0  0  0  0  0  0  0  0  0  0  0  0
   -6.6690   16.0750  -33.7430 C   0  0  0  0  0  0  0  0  0  0  0  0
   -6.8830   17.3210  -33.1420 C   0  0  0  0  0  0  0  0  0  0  0  0
   -5.4220   20.2710  -31.7010 C   0  0  0  0  0  0  0  0  0  0  0  0
   -6.0160   21.4960  -31.4890 C   0  0  0  0  0  0  0  0  0  0  0  0
   -5.6970   22.5120  -30.5940 C   0  0  0  0  0  0  0  0  0  0  0  0
   -4.7340   22.3830  -29.7890 O   0  0  0  0  0  0  0  0  0  0  0  0
    0.3388   24.2472  -26.8785 H   0  0  0  0  0  0  0  0  0  0  0  0
   -0.2180   23.5423  -28.4341 H   0  0  0  0  0  0  0  0  0  0  0  0
    0.8648   24.9755  -28.4341 H   0  0  0  0  0  0  0  0  0  0  0  0
   -0.9437   26.3043  -27.3180 H   0  0  0  0  0  0  0  0  0  0  0  0
   -1.4462   25.6645  -28.9260 H   0  0  0  0  0  0  0  0  0  0  0  0
   -3.5814   26.0866  -26.2489 H   0  0  0  0  0  0  0  0  0  0  0  0
   -3.0962   24.6357  -25.2944 H   0  0  0  0  0  0  0  0  0  0  0  0
   -1.6568   26.1313  -24.3184 H   0  0  0  0  0  0  0  0  0  0  0  0
   -0.6459   25.7275  -25.7474 H   0  0  0  0  0  0  0  0  0  0  0  0
   -1.6459   27.2197  -25.7474 H   0  0  0  0  0  0  0  0  0  0  0  0
   -3.9997   23.6111  -27.9817 H   0  0  0  0  0  0  0  0  0  0  0  0
   -4.1466   25.3995  -28.1174 H   0  0  0  0  0  0  0  0  0  0  0  0
   -1.9299   24.9348  -29.6805 H   0  0  0  0  0  0  0  0  0  0  0  0
   -2.8892   23.4250  -29.9577 H   0  0  0  0  0  0  0  0  0  0  0  0
   -5.8655   24.3808  -28.7399 H   0  0  0  0  0  0  0  0  0  0  0  0
   -7.1223   25.3587  -29.5895 H   0  0  0  0  0  0  0  0  0  0  0  0
   -8.6583   22.8441  -33.0379 H   0  0  0  0  0  0  0  0  0  0  0  0
   -4.1607   18.9881  -34.3803 H   0  0  0  0  0  0  0  0  0  0  0  0
   -3.7906   16.7660  -35.4483 H   0  0  0  0  0  0  0  0  0  0  0  0
   -5.3965   14.8961  -35.0406 H   0  0  0  0  0  0  0  0  0  0  0  0
   -7.3751   15.2508  -33.5637 H   0  0  0  0  0  0  0  0  0  0  0  0
   -7.7580   17.4709  -32.4925 H   0  0  0  0  0  0  0  0  0  0  0  0
   -4.5522   19.8374  -31.1857 H   0  0  0  0  0  0  0  0  0  0  0  0
  1  2  1  0
  2  3  1  0
  3  4  1  0
  4  5  1  0
  3  6  1  0
  6  7  1  0
  7  8  1  0
  8  9  1  0
  9 10  2  0
  9 11  1  0
 11 12  1  0
 12 13  1  0
 13 14  2  0
 14 15  1  0
 15 16  1  0
 16 17  2  0
 17 18  1  0
 18 19  2  0
 19 20  1  0
 20 21  2  0
 21 22  1  0
 22 23  2  0
 17 24  1  0
 24 25  2  0
 25 26  1  0
 26 27  2  0
 26 12  1  0
 25 15  1  0
 23 18  1  0
  1 28  1  0
  1 29  1  0
  1 30  1  0
  2 31  1  0
  2 32  1  0
  4 33  1  0
  4 34  1  0
  5 35  1  0
  5 36  1  0
  5 37  1  0
  6 38  1  0
  6 39  1  0
  7 40  1  0
  7 41  1  0
 11 42  1  0
 11 43  1  0
 14 44  1  0
 19 45  1  0
 20 46  1  0
 21 47  1  0
 22 48  1  0
 23 49  1  0
 24 50  1  0
M  CHG  1   8  -1
M  END
>  <UniqueID>  (31) 
29

>  <SMILES>  (31) 
CCN(CC)CC[N-]C(=O)Cn1ncn2nc(-c3ccccc3)cc2c1=O

>  <Energy>  (31) 
87.84015034930849

>  <Genealogy>  (31) 
CCN(CC)CC[N-]C(=O)Cn1ncn2nc(-c3ccccc3)cc2c1=O (protonated)
CCN(CC)CC[N-]C(=O)Cn1ncn2nc(-c3ccccc3)cc2c1=O (3D coordinates assigned)
CCN(CC)CC[N-]C(=O)Cn1ncn2nc(-c3ccccc3)cc2c1=O (optimized conformer: 87.84015034930849 kcal/mol)

>  <smiles>  (31) 
CCN(CC)CCNC(=O)Cn1ncn2nc(-c3ccccc3)cc2c1=O

>  <score_type>  (31) 
oracle

>  <origin>  (31) 
adg

>  <m_score__min__energy>  (31) 
-9.3000000000000007

>  <m_primary>  (31) 
energy

$$$$
31:0
     RDKit          3D

 57 60  0  0  0  0  0  0  0  0999 V2000
   -5.3880   24.8580  -30.9100 C   0  0  0  0  0  0  0  0  0  0  0  0
   -5.3890   23.6500  -31.6620 O   0  0  0  0  0  0  0  0  0  0  0  0
   -6.4850   22.7790  -31.7740 C   0  0  0  0  0  0  0  0  0  0  0  0
   -7.7900   23.1840  -31.4270 C   0  0  0  0  0  0  0  0  0  0  0  0
   -8.8660   22.3080  -31.5790 C   0  0  0  0  0  0  0  0  0  0  0  0
   -8.6580   21.0230  -32.0790 C   0  0  0  0  0  0  0  0  0  0  0  0
   -7.3710   20.6080  -32.4230 C   0  0  0  0  0  0  0  0  0  0  0  0
   -6.2740   21.4740  -32.2680 C   0  0  0  0  0  0  0  0  0  0  0  0
   -4.9510   21.0190  -32.6140 N   0  0  0  0  0  0  0  0  0  0  0  0
   -4.0690   21.8700  -33.4210 C   0  0  0  0  0  0  0  0  0  0  0  0
   -2.6030   21.5300  -33.1450 C   0  0  0  0  0  0  0  0  0  0  0  0
   -2.3170   20.1010  -33.4040 N   0  0  0  0  0  0  0  0  0  0  0  0
   -0.9700   19.7380  -32.9080 C   0  0  0  0  0  0  0  0  0  0  0  0
   -0.1790   20.9720  -32.5510 C   0  0  0  0  0  0  0  0  0  0  0  0
    0.5260   21.5380  -33.4280 O   0  0  0  0  0  0  0  0  0  0  0  0
   -0.2340   21.5490  -31.2390 N   0  0  0  0  0  0  0  0  0  0  0  0
   -0.8230   20.9630  -30.0690 C   0  0  0  0  0  0  0  0  0  0  0  0
   -0.2320   19.8540  -29.4370 C   0  0  0  0  0  0  0  0  0  0  0  0
   -0.8070   19.3080  -28.2860 C   0  0  0  0  0  0  0  0  0  0  0  0
   -1.9650   19.8710  -27.7480 C   0  0  0  0  0  0  0  0  0  0  0  0
   -2.5430   20.9900  -28.3510 C   0  0  0  0  0  0  0  0  0  0  0  0
   -1.9690   21.5490  -29.5000 C   0  0  0  0  0  0  0  0  0  0  0  0
   -2.7310   22.9980  -30.2420 S   0  0  0  0  0  0  0  0  0  0  0  0
   -2.7640   23.8960  -28.6900 C   0  0  0  0  0  0  0  0  0  0  0  0
   -3.9380   23.9400  -27.9280 C   0  0  0  0  0  0  0  0  0  0  0  0
   -3.9630   24.6460  -26.7200 C   0  0  0  0  0  0  0  0  0  0  0  0
   -2.8140   25.3060  -26.2710 C   0  0  0  0  0  0  0  0  0  0  0  0
   -1.6390   25.2570  -27.0280 C   0  0  0  0  0  0  0  0  0  0  0  0
   -1.6120   24.5520  -28.2340 C   0  0  0  0  0  0  0  0  0  0  0  0
   -3.3710   19.1630  -32.9200 C   0  0  0  0  0  0  0  0  0  0  0  0
   -4.4000   19.8150  -31.9850 C   0  0  0  0  0  0  0  0  0  0  0  0
   -5.3882   24.6212  -29.8358 H   0  0  0  0  0  0  0  0  0  0  0  0
   -4.4894   25.4426  -31.1564 H   0  0  0  0  0  0  0  0  0  0  0  0
   -6.2857   25.4441  -31.1564 H   0  0  0  0  0  0  0  0  0  0  0  0
   -7.9614   24.1970  -31.0339 H   0  0  0  0  0  0  0  0  0  0  0  0
   -9.8805   22.6321  -31.3037 H   0  0  0  0  0  0  0  0  0  0  0  0
   -9.5086   20.3365  -32.2022 H   0  0  0  0  0  0  0  0  0  0  0  0
   -7.2131   19.5940  -32.8191 H   0  0  0  0  0  0  0  0  0  0  0  0
   -4.2844   21.7074  -34.4874 H   0  0  0  0  0  0  0  0  0  0  0  0
   -4.2477   22.9226  -33.1561 H   0  0  0  0  0  0  0  0  0  0  0  0
   -1.9651   22.1455  -33.7963 H   0  0  0  0  0  0  0  0  0  0  0  0
   -2.3959   21.7356  -32.0844 H   0  0  0  0  0  0  0  0  0  0  0  0
   -1.0734   19.1051  -32.0143 H   0  0  0  0  0  0  0  0  0  0  0  0
   -0.4366   19.1954  -33.7024 H   0  0  0  0  0  0  0  0  0  0  0  0
    0.6874   19.4142  -29.8508 H   0  0  0  0  0  0  0  0  0  0  0  0
   -0.3461   18.4334  -27.8036 H   0  0  0  0  0  0  0  0  0  0  0  0
   -2.4226   19.4332  -26.8486 H   0  0  0  0  0  0  0  0  0  0  0  0
   -3.4531   21.4345  -27.9218 H   0  0  0  0  0  0  0  0  0  0  0  0
   -4.8411   23.4193  -28.2792 H   0  0  0  0  0  0  0  0  0  0  0  0
   -4.8864   24.6820  -26.1233 H   0  0  0  0  0  0  0  0  0  0  0  0
   -2.8347   25.8633  -25.3229 H   0  0  0  0  0  0  0  0  0  0  0  0
   -0.7351   25.7741  -26.6735 H   0  0  0  0  0  0  0  0  0  0  0  0
   -0.6859   24.5116  -28.8263 H   0  0  0  0  0  0  0  0  0  0  0  0
   -3.9034   18.7592  -33.7937 H   0  0  0  0  0  0  0  0  0  0  0  0
   -2.8609   18.3807  -32.3388 H   0  0  0  0  0  0  0  0  0  0  0  0
   -5.2140   19.1027  -31.7846 H   0  0  0  0  0  0  0  0  0  0  0  0
   -3.9082   20.0916  -31.0408 H   0  0  0  0  0  0  0  0  0  0  0  0
  1  2  1  0
  2  3  1  0
  3  4  2  0
  4  5  1  0
  5  6  2  0
  6  7  1  0
  7  8  2  0
  8  9  1  0
  9 10  1  0
 10 11  1  0
 11 12  1  0
 12 13  1  0
 13 14  1  0
 14 15  2  0
 14 16  1  0
 16 17  1  0
 17 18  2  0
 18 19  1  0
 19 20  2  0
 20 21  1  0
 21 22  2  0
 22 23  1  0
 23 24  1  0
 24 25  2  0
 25 26  1  0
 26 27  2  0
 27 28  1  0
 28 29  2  0
 12 30  1  0
 30 31  1  0
  8  3  1  0
 31  9  1  0
 22 17  1  0
 29 24  1  0
  1 32  1  0
  1 33  1  0
  1 34  1  0
  4 35  1  0
  5 36  1  0
  6 37  1  0
  7 38  1  0
 10 39  1  0
 10 40  1  0
 11 41  1  0
 11 42  1  0
 13 43  1  0
 13 44  1  0
 18 45  1  0
 19 46  1  0
 20 47  1  0
 21 48  1  0
 25 49  1  0
 26 50  1  0
 27 51  1  0
 28 52  1  0
 29 53  1  0
 30 54  1  0
 30 55  1  0
 31 56  1  0
 31 57  1  0
M  CHG  1  16  -1
M  END
>  <UniqueID>  (32) 
30

>  <SMILES>  (32) 
COc1ccccc1N1CCN(CC(=O)[N-]c2ccccc2Sc2ccccc2)CC1

>  <Energy>  (32) 
73.38685850595657

>  <Genealogy>  (32) 
COc1ccccc1N1CCN(CC(=O)[N-]c2ccccc2Sc2ccccc2)CC1 (protonated)
COc1ccccc1N1CCN(CC(=O)[N-]c2ccccc2Sc2ccccc2)CC1 (3D coordinates assigned)
COc1ccccc1N1CCN(CC(=O)[N-]c2ccccc2Sc2ccccc2)CC1 (nonaromatic ring conformer: 73.38685850595657 kcal/mol)

>  <smiles>  (32) 
COc1ccccc1N1CCN(CC(=O)Nc2ccccc2Sc2ccccc2)CC1

>  <score_type>  (32) 
oracle

>  <origin>  (32) 
adg

>  <m_score__min__energy>  (32) 
-11.119999999999999

>  <m_primary>  (32) 
energy

$$$$
32:0
     RDKit          3D

 82 86  0  0  0  0  0  0  0  0999 V2000
   -8.0830   17.8990  -32.3570 C   0  0  0  0  0  0  0  0  0  0  0  0
   -6.7750   17.6630  -31.8480 O   0  0  0  0  0  0  0  0  0  0  0  0
   -5.6210   17.5410  -32.6400 C   0  0  0  0  0  0  0  0  0  0  0  0
   -4.5260   18.4160  -32.5040 C   0  0  0  0  0  0  0  0  0  0  0  0
   -3.3910   18.2530  -33.3000 C   0  0  0  0  0  0  0  0  0  0  0  0
   -3.3240   17.2130  -34.2370 C   0  0  0  0  0  0  0  0  0  0  0  0
   -2.0990   17.0500  -35.0980 C   0  0  0  0  0  0  0  0  0  0  0  0
   -1.1940   15.9370  -34.5550 C   0  0  0  0  0  0  0  0  0  0  0  0
   -0.0820   16.5070  -33.7630 N   0  0  0  0  0  0  0  0  0  0  0  0
    1.2330   16.2510  -34.3820 C   0  0  0  0  0  0  0  0  0  0  0  0
   -0.1230   16.0880  -32.3430 C   0  0  0  0  0  0  0  0  0  0  0  0
   -0.1500   17.2640  -31.3450 C   0  0  0  0  0  0  0  0  0  0  0  0
    1.0850   18.0370  -31.4270 N   0  0  0  0  0  0  0  0  0  0  0  0
    1.2080   19.2810  -32.1290 C   0  0  0  0  0  0  0  0  0  0  0  0
    2.3410   19.6570  -32.5390 O   0  0  0  0  0  0  0  0  0  0  0  0
    0.0430   20.1030  -32.3550 N   0  0  0  0  0  0  0  0  0  0  0  0
   -0.5770   20.0920  -33.6930 C   0  0  0  0  0  0  0  0  0  0  0  0
   -1.6300   21.1940  -33.8730 C   0  0  0  0  0  0  0  0  0  0  0  0
   -2.5180   21.2770  -32.6730 C   0  0  0  0  0  0  0  0  0  0  0  0
   -3.8420   21.5390  -32.8210 N   0  0  0  0  0  0  0  0  0  0  0  0
   -4.6560   21.7030  -31.7440 C   0  0  0  0  0  0  0  0  0  0  0  0
   -6.0590   21.9760  -31.9310 N   0  0  0  0  0  0  0  0  0  0  0  0
   -6.9230   21.0320  -32.6580 C   0  0  0  0  0  0  0  0  0  0  0  0
   -8.2660   20.8910  -31.9320 C   0  0  0  0  0  0  0  0  0  0  0  0
   -8.9450   22.2460  -31.6400 C   0  0  0  0  0  0  0  0  0  0  0  0
   -8.0540   23.4640  -31.9290 C   0  0  0  0  0  0  0  0  0  0  0  0
   -6.6180   23.2430  -31.4340 C   0  0  0  0  0  0  0  0  0  0  0  0
   -4.1270   21.6240  -30.4920 N   0  0  0  0  0  0  0  0  0  0  0  0
   -2.8080   21.3710  -30.2870 C   0  0  0  0  0  0  0  0  0  0  0  0
   -2.3080   21.3390  -28.9020 C   0  0  0  0  0  0  0  0  0  0  0  0
   -2.2060   20.1110  -28.2340 C   0  0  0  0  0  0  0  0  0  0  0  0
   -1.7480   20.0640  -26.9140 C   0  0  0  0  0  0  0  0  0  0  0  0
   -1.3960   21.2420  -26.2530 C   0  0  0  0  0  0  0  0  0  0  0  0
   -1.4970   22.4700  -26.9110 C   0  0  0  0  0  0  0  0  0  0  0  0
   -1.9540   22.5270  -28.2340 C   0  0  0  0  0  0  0  0  0  0  0  0
   -2.0570   24.0930  -29.0310 Cl  0  0  0  0  0  0  0  0  0  0  0  0
   -1.9590   21.1750  -31.3940 C   0  0  0  0  0  0  0  0  0  0  0  0
   -0.4660   20.9660  -31.2720 C   0  0  0  0  0  0  0  0  0  0  0  0
   -4.4220   16.3540  -34.3930 C   0  0  0  0  0  0  0  0  0  0  0  0
   -5.5710   16.5090  -33.5910 C   0  0  0  0  0  0  0  0  0  0  0  0
   -6.6820   15.6570  -33.7090 O   0  0  0  0  0  0  0  0  0  0  0  0
   -6.6310   14.3330  -34.2290 C   0  0  0  0  0  0  0  0  0  0  0  0
   -8.7850   18.0257  -31.5196 H   0  0  0  0  0  0  0  0  0  0  0  0
   -8.0780   18.8107  -32.9724 H   0  0  0  0  0  0  0  0  0  0  0  0
   -8.3970   17.0430  -32.9724 H   0  0  0  0  0  0  0  0  0  0  0  0
   -4.5653   19.2317  -31.7671 H   0  0  0  0  0  0  0  0  0  0  0  0
   -2.5434   18.9456  -33.1911 H   0  0  0  0  0  0  0  0  0  0  0  0
   -2.4095   16.7946  -36.1219 H   0  0  0  0  0  0  0  0  0  0  0  0
   -1.5365   17.9953  -35.0923 H   0  0  0  0  0  0  0  0  0  0  0  0
   -1.7882   15.2688  -33.9143 H   0  0  0  0  0  0  0  0  0  0  0  0
   -0.7734   15.3776  -35.4036 H   0  0  0  0  0  0  0  0  0  0  0  0
    1.9867   16.1043  -33.5943 H   0  0  0  0  0  0  0  0  0  0  0  0
    1.1746   15.3474  -35.0065 H   0  0  0  0  0  0  0  0  0  0  0  0
    1.5179   17.1106  -35.0065 H   0  0  0  0  0  0  0  0  0  0  0  0
   -1.0267   15.4805  -32.1871 H   0  0  0  0  0  0  0  0  0  0  0  0
    0.8023   15.5257  -32.1491 H   0  0  0  0  0  0  0  0  0  0  0  0
   -1.0022   17.9184  -31.5807 H   0  0  0  0  0  0  0  0  0  0  0  0
   -0.2490   16.8616  -30.3260 H   0  0  0  0  0  0  0  0  0  0  0  0
    0.2118   20.2340  -34.4464 H   0  0  0  0  0  0  0  0  0  0  0  0
   -1.0878   19.1251  -33.8119 H   0  0  0  0  0  0  0  0  0  0  0  0
   -1.1220   22.1594  -34.0138 H   0  0  0  0  0  0  0  0  0  0  0  0
   -2.2455   20.9549  -34.7528 H   0  0  0  0  0  0  0  0  0  0  0  0
   -7.0967   21.4070  -33.6774 H   0  0  0  0  0  0  0  0  0  0  0  0
   -6.4300   20.0497  -32.7030 H   0  0  0  0  0  0  0  0  0  0  0  0
   -8.9408   20.2898  -32.5590 H   0  0  0  0  0  0  0  0  0  0  0  0
   -8.0647   20.4109  -30.9630 H   0  0  0  0  0  0  0  0  0  0  0  0
   -9.8484   22.3221  -32.2630 H   0  0  0  0  0  0  0  0  0  0  0  0
   -9.1715   22.2643  -30.5637 H   0  0  0  0  0  0  0  0  0  0  0  0
   -8.0341   23.6424  -33.0143 H   0  0  0  0  0  0  0  0  0  0  0  0
   -8.4723   24.3307  -31.3963 H   0  0  0  0  0  0  0  0  0  0  0  0
   -5.9879   24.0730  -31.7864 H   0  0  0  0  0  0  0  0  0  0  0  0
   -6.6372   23.2011  -30.3350 H   0  0  0  0  0  0  0  0  0  0  0  0
   -2.4873   19.1812  -28.7501 H   0  0  0  0  0  0  0  0  0  0  0  0
   -1.6649   19.0974  -26.3955 H   0  0  0  0  0  0  0  0  0  0  0  0
   -1.0389   21.2032  -25.2133 H   0  0  0  0  0  0  0  0  0  0  0  0
   -1.2165   23.3962  -26.3881 H   0  0  0  0  0  0  0  0  0  0  0  0
    0.0383   21.9422  -31.3243 H   0  0  0  0  0  0  0  0  0  0  0  0
   -0.2610   20.4742  -30.3097 H   0  0  0  0  0  0  0  0  0  0  0  0
   -4.3862   15.5536  -35.1467 H   0  0  0  0  0  0  0  0  0  0  0  0
   -6.6033   13.6133  -33.3975 H   0  0  0  0  0  0  0  0  0  0  0  0
   -7.5226   14.1467  -34.8457 H   0  0  0  0  0  0  0  0  0  0  0  0
   -5.7277   14.2158  -34.8457 H   0  0  0  0  0  0  0  0  0  0  0  0
  1  2  1  0
  2  3  1  0
  3  4  2  0
  4  5  1  0
  5  6  2  0
  6  7  1  0
  7  8  1  0
  8  9  1  0
  9 10  1  0
  9 11  1  0
 11 12  1  0
 12 13  1  0
 13 14  1  0
 14 15  2  0
 14 16  1  0
 16 17  1  0
 17 18  1  0
 18 19  1  0
 19 20  2  0
 20 21  1  0
 21 22  1  0
 22 23  1  0
 23 24  1  0
 24 25  1  0
 25 26  1  0
 26 27  1  0
 21 28  2  0
 28 29  1  0
 29 30  1  0
 30 31  2  0
 31 32  1  0
 32 33  2  0
 33 34  1  0
 34 35  2  0
 35 36  1  0
 29 37  2  0
 37 38  1  0
  6 39  1  0
 39 40  2  0
 40 41  1  0
 41 42  1  0
 40  3  1  0
 38 16  1  0
 37 19  1  0
 27 22  1  0
 35 30  1  0
  1 43  1  0
  1 44  1  0
  1 45  1  0
  4 46  1  0
  5 47  1  0
  7 48  1  0
  7 49  1  0
  8 50  1  0
  8 51  1  0
 10 52  1  0
 10 53  1  0
 10 54  1  0
 11 55  1  0
 11 56  1  0
 12 57  1  0
 12 58  1  0
 17 59  1  0
 17 60  1  0
 18 61  1  0
 18 62  1  0
 23 63  1  0
 23 64  1  0
 24 65  1  0
 24 66  1  0
 25 67  1  0
 25 68  1  0
 26 69  1  0
 26 70  1  0
 27 71  1  0
 27 72  1  0
 31 73  1  0
 32 74  1  0
 33 75  1  0
 34 76  1  0
 38 77  1  0
 38 78  1  0
 39 79  1  0
 42 80  1  0
 42 81  1  0
 42 82  1  0
M  CHG  1  13  -1
M  END
>  <UniqueID>  (33) 
31

>  <SMILES>  (33) 
COc1ccc(CCN(C)CC[N-]C(=O)N2CCc3nc(N4CCCCC4)nc(-c4ccccc4Cl)c3C2)cc1OC

>  <Energy>  (33) 
95.783734608961

>  <Genealogy>  (33) 
COc1ccc(CCN(C)CC[N-]C(=O)N2CCc3nc(N4CCCCC4)nc(-c4ccccc4Cl)c3C2)cc1OC (protonated)
COc1ccc(CCN(C)CC[N-]C(=O)N2CCc3nc(N4CCCCC4)nc(-c4ccccc4Cl)c3C2)cc1OC (3D coordinates assigned)
COc1ccc(CCN(C)CC[N-]C(=O)N2CCc3nc(N4CCCCC4)nc(-c4ccccc4Cl)c3C2)cc1OC (nonaromatic ring conformer: 95.783734608961 kcal/mol)

>  <smiles>  (33) 
COc1ccc(CCN(C)CCNC(=O)N2CCc3nc(N4CCCCC4)nc(-c4ccccc4Cl)c3C2)cc1OC

>  <score_type>  (33) 
oracle

>  <origin>  (33) 
adg

>  <m_score__min__energy>  (33) 
-10.67

>  <m_primary>  (33) 
energy

$$$$
33:0
     RDKit          3D

 31 34  0  0  0  0  0  0  0  0999 V2000
   -8.7380   18.7680  -31.5810 C   0  0  0  0  0  0  0  0  0  0  0  0
   -8.5860   20.2100  -31.7580 N   0  0  0  0  0  0  0  0  0  0  0  0
   -9.4870   21.1430  -31.3850 C   0  0  0  0  0  0  0  0  0  0  0  0
   -9.0440   22.3940  -31.6160 N   0  0  0  0  0  0  0  0  0  0  0  0
   -7.8250   22.2430  -32.1640 C   0  0  0  0  0  0  0  0  0  0  0  0
   -7.5350   20.8970  -32.2680 C   0  0  0  0  0  0  0  0  0  0  0  0
   -6.2830   20.3210  -32.8220 C   0  0  0  0  0  0  0  0  0  0  0  0
   -6.3610   19.1910  -33.6570 C   0  0  0  0  0  0  0  0  0  0  0  0
   -5.2080   18.6100  -34.1830 C   0  0  0  0  0  0  0  0  0  0  0  0
   -3.9580   19.1560  -33.8990 C   0  0  0  0  0  0  0  0  0  0  0  0
   -3.8590   20.2930  -33.0970 C   0  0  0  0  0  0  0  0  0  0  0  0
   -5.0100   20.9010  -32.5600 C   0  0  0  0  0  0  0  0  0  0  0  0
   -4.8580   22.0890  -31.7510 N   0  0  0  0  0  0  0  0  0  0  0  0
   -3.8440   22.3580  -30.8990 C   0  0  0  0  0  0  0  0  0  0  0  0
   -3.9530   23.5730  -30.3200 N   0  0  0  0  0  0  0  0  0  0  0  0
   -5.0830   24.0890  -30.8400 C   0  0  0  0  0  0  0  0  0  0  0  0
   -5.7070   25.6740  -30.4240 Cl  0  0  0  0  0  0  0  0  0  0  0  0
   -5.6420   23.1870  -31.7220 C   0  0  0  0  0  0  0  0  0  0  0  0
   -6.9000   23.3590  -32.5110 C   0  0  0  0  0  0  0  0  0  0  0  0
   -8.7630   18.5310  -30.5071 H   0  0  0  0  0  0  0  0  0  0  0  0
   -9.6759   18.4377  -32.0513 H   0  0  0  0  0  0  0  0  0  0  0  0
   -7.8895   18.2494  -32.0513 H   0  0  0  0  0  0  0  0  0  0  0  0
  -10.4674   20.9095  -30.9443 H   0  0  0  0  0  0  0  0  0  0  0  0
   -9.5340   23.2870  -31.3900 H   0  0  0  0  0  0  0  0  0  0  0  0
   -7.3443   18.7606  -33.8978 H   0  0  0  0  0  0  0  0  0  0  0  0
   -5.2853   17.7190  -34.8234 H   0  0  0  0  0  0  0  0  0  0  0  0
   -3.0489   18.6903  -34.3073 H   0  0  0  0  0  0  0  0  0  0  0  0
   -2.8686   20.7203  -32.8812 H   0  0  0  0  0  0  0  0  0  0  0  0
   -3.0172   21.6608  -30.6984 H   0  0  0  0  0  0  0  0  0  0  0  0
   -7.3681   24.3222  -32.2597 H   0  0  0  0  0  0  0  0  0  0  0  0
   -6.6771   23.3462  -33.5881 H   0  0  0  0  0  0  0  0  0  0  0  0
  1  2  1  0
  2  3  1  0
  3  4  2  0
  4  5  1  0
  5  6  2  0
  6  7  1  0
  7  8  2  0
  8  9  1  0
  9 10  2  0
 10 11  1  0
 11 12  2  0
 12 13  1  0
 13 14  1  0
 14 15  2  0
 15 16  1  0
 16 17  1  0
 16 18  2  0
 18 19  1  0
  6  2  1  0
 12  7  1  0
 18 13  1  0
 19  5  1  0
  1 20  1  0
  1 21  1  0
  1 22  1  0
  3 23  1  0
  4 24  1  0
  8 25  1  0
  9 26  1  0
 10 27  1  0
 11 28  1  0
 14 29  1  0
 19 30  1  0
 19 31  1  0
M  CHG  1   4   1
M  END
>  <UniqueID>  (34) 
32

>  <SMILES>  (34) 
Cn1c[nH+]c2c1-c1ccccc1-n1cnc(Cl)c1C2

>  <Energy>  (34) 
108.16822834764858

>  <Genealogy>  (34) 
Cn1c[nH+]c2c1-c1ccccc1-n1cnc(Cl)c1C2 (protonated)
Cn1c[nH+]c2c1-c1ccccc1-n1cnc(Cl)c1C2 (3D coordinates assigned)
Cn1c[nH+]c2c1-c1ccccc1-n1cnc(Cl)c1C2 (nonaromatic ring conformer: 108.16822834764858 kcal/mol)

>  <smiles>  (34) 
Cn1cnc2c1-c1ccccc1-n1cnc(Cl)c1C2

>  <score_type>  (34) 
oracle

>  <origin>  (34) 
adg

>  <m_score__min__energy>  (34) 
-7.2000000000000002

>  <m_primary>  (34) 
energy

$$$$
34:0
     RDKit          3D

 35 36  0  0  0  0  0  0  0  0999 V2000
   -5.6850   18.1220  -34.7530 C   0  0  0  0  0  0  0  0  0  0  0  0
   -4.7840   18.8820  -33.7930 C   0  0  0  0  0  0  0  0  0  0  0  0
   -5.4280   18.9940  -32.5270 O   0  0  0  0  0  0  0  0  0  0  0  0
   -6.7200   19.5080  -32.3290 C   0  0  0  0  0  0  0  0  0  0  0  0
   -7.8450   18.6660  -32.2270 C   0  0  0  0  0  0  0  0  0  0  0  0
   -9.1150   19.2070  -32.0180 C   0  0  0  0  0  0  0  0  0  0  0  0
   -9.2790   20.5880  -31.9080 C   0  0  0  0  0  0  0  0  0  0  0  0
   -8.1750   21.4360  -32.0090 C   0  0  0  0  0  0  0  0  0  0  0  0
   -8.3620   22.7750  -31.8890 F   0  0  0  0  0  0  0  0  0  0  0  0
   -6.8880   20.9050  -32.2260 C   0  0  0  0  0  0  0  0  0  0  0  0
   -5.6850   21.8170  -32.3160 C   0  0  0  0  0  0  0  0  0  0  0  0
   -5.7050   22.8240  -31.2330 N   0  0  0  0  0  0  0  0  0  0  0  0
   -4.5190   22.7030  -30.3510 C   0  0  0  0  0  0  0  0  0  0  0  0
   -3.4770   23.8010  -30.6330 C   0  0  0  0  0  0  0  0  0  0  0  0
   -3.9820   25.1180  -30.4630 O   0  0  0  0  0  0  0  0  0  0  0  0
   -5.3640   25.2440  -30.7730 C   0  0  0  0  0  0  0  0  0  0  0  0
   -5.8760   24.1940  -31.7710 C   0  0  0  0  0  0  0  0  0  0  0  0
   -6.4029   17.5164  -34.1804 H   0  0  0  0  0  0  0  0  0  0  0  0
   -6.2311   18.8363  -35.3866 H   0  0  0  0  0  0  0  0  0  0  0  0
   -5.0729   17.4633  -35.3866 H   0  0  0  0  0  0  0  0  0  0  0  0
   -3.8340   18.3402  -33.6747 H   0  0  0  0  0  0  0  0  0  0  0  0
   -4.5849   19.8868  -34.1939 H   0  0  0  0  0  0  0  0  0  0  0  0
   -7.7221   17.5762  -32.3125 H   0  0  0  0  0  0  0  0  0  0  0  0
   -9.9883   18.5428  -31.9399 H   0  0  0  0  0  0  0  0  0  0  0  0
  -10.2811   21.0098  -31.7412 H   0  0  0  0  0  0  0  0  0  0  0  0
   -4.7688   21.2143  -32.2307 H   0  0  0  0  0  0  0  0  0  0  0  0
   -5.7116   22.3401  -33.2833 H   0  0  0  0  0  0  0  0  0  0  0  0
   -4.8454   22.7836  -29.3036 H   0  0  0  0  0  0  0  0  0  0  0  0
   -4.0477   21.7285  -30.5466 H   0  0  0  0  0  0  0  0  0  0  0  0
   -2.6295   23.6616  -29.9458 H   0  0  0  0  0  0  0  0  0  0  0  0
   -3.1795   23.7019  -31.6874 H   0  0  0  0  0  0  0  0  0  0  0  0
   -5.9387   25.1447  -29.8403 H   0  0  0  0  0  0  0  0  0  0  0  0
   -5.4965   26.2274  -31.2478 H   0  0  0  0  0  0  0  0  0  0  0  0
   -6.9436   24.3734  -31.9662 H   0  0  0  0  0  0  0  0  0  0  0  0
   -5.2949   24.2810  -32.7009 H   0  0  0  0  0  0  0  0  0  0  0  0
  1  2  1  0
  2  3  1  0
  3  4  1  0
  4  5  2  0
  5  6  1  0
  6  7  2  0
  7  8  1  0
  8  9  1  0
  8 10  2  0
 10 11  1  0
 11 12  1  0
 12 13  1  0
 13 14  1  0
 14 15  1  0
 15 16  1  0
 16 17  1  0
 10  4  1  0
 17 12  1  0
  1 18  1  0
  1 19  1  0
  1 20  1  0
  2 21  1  0
  2 22  1  0
  5 23  1  0
  6 24  1  0
  7 25  1  0
 11 26  1  0
 11 27  1  0
 13 28  1  0
 13 29  1  0
 14 30  1  0
 14 31  1  0
 16 32  1  0
 16 33  1  0
 17 34  1  0
 17 35  1  0
M  END
>  <UniqueID>  (35) 
33

>  <SMILES>  (35) 
CCOc1cccc(F)c1CN1CCOCC1

>  <Energy>  (35) 
45.290645897120974

>  <Genealogy>  (35) 
CCOc1cccc(F)c1CN1CCOCC1 (3D coordinates assigned)
CCOc1cccc(F)c1CN1CCOCC1 (nonaromatic ring conformer: 45.290645897120974 kcal/mol)

>  <smiles>  (35) 
CCOc1cccc(F)c1CN1CCOCC1

>  <score_type>  (35) 
oracle

>  <origin>  (35) 
adg

>  <m_score__min__energy>  (35) 
-6.5099999999999998

>  <m_primary>  (35) 
energy

$$$$
35:0
     RDKit          3D

 21 21  0  0  0  0  0  0  0  0999 V2000
   -3.6880   23.4200  -28.5760 C   0  0  0  0  0  0  0  0  0  0  0  0
   -3.2930   24.4290  -29.5990 C   0  0  0  0  0  0  0  0  0  0  0  0
   -2.3680   25.2470  -29.3440 O   0  0  0  0  0  0  0  0  0  0  0  0
   -4.0030   24.5050  -30.8020 O   0  0  0  0  0  0  0  0  0  0  0  0
   -5.1500   23.7460  -31.0660 C   0  0  0  0  0  0  0  0  0  0  0  0
   -6.3920   24.1780  -30.5630 C   0  0  0  0  0  0  0  0  0  0  0  0
   -6.4860   25.4530  -29.7710 C   0  0  0  0  0  0  0  0  0  0  0  0
   -7.5520   23.4370  -30.8440 C   0  0  0  0  0  0  0  0  0  0  0  0
   -7.4730   22.2630  -31.5960 C   0  0  0  0  0  0  0  0  0  0  0  0
   -9.0550   21.2580  -31.9650 Br  0  0  0  0  0  0  0  0  0  0  0  0
   -6.2380   21.8160  -32.0670 C   0  0  0  0  0  0  0  0  0  0  0  0
   -5.0740   22.5470  -31.8050 C   0  0  0  0  0  0  0  0  0  0  0  0
   -3.3970   21.8350  -32.3980 Br  0  0  0  0  0  0  0  0  0  0  0  0
   -3.5257   23.8347  -27.5702 H   0  0  0  0  0  0  0  0  0  0  0  0
   -4.7513   23.1677  -28.7013 H   0  0  0  0  0  0  0  0  0  0  0  0
   -3.0786   22.5128  -28.7013 H   0  0  0  0  0  0  0  0  0  0  0  0
   -6.4688   25.2192  -28.6963 H   0  0  0  0  0  0  0  0  0  0  0  0
   -5.6333   26.1022  -30.0187 H   0  0  0  0  0  0  0  0  0  0  0  0
   -7.4247   25.9702  -30.0187 H   0  0  0  0  0  0  0  0  0  0  0  0
   -8.5268   23.7831  -30.4700 H   0  0  0  0  0  0  0  0  0  0  0  0
   -6.1791   20.8836  -32.6476 H   0  0  0  0  0  0  0  0  0  0  0  0
  1  2  1  0
  2  3  2  0
  2  4  1  0
  4  5  1  0
  5  6  2  0
  6  7  1  0
  6  8  1  0
  8  9  2  0
  9 10  1  0
  9 11  1  0
 11 12  2  0
 12 13  1  0
 12  5  1  0
  1 14  1  0
  1 15  1  0
  1 16  1  0
  7 17  1  0
  7 18  1  0
  7 19  1  0
  8 20  1  0
 11 21  1  0
M  END
>  <UniqueID>  (36) 
34

>  <SMILES>  (36) 
CC(=O)Oc1c(C)cc(Br)cc1Br

>  <Energy>  (36) 
24.601685139128147

>  <Genealogy>  (36) 
CC(=O)Oc1c(C)cc(Br)cc1Br (3D coordinates assigned)
CC(=O)Oc1c(C)cc(Br)cc1Br (optimized conformer: 24.601685139128147 kcal/mol)

>  <smiles>  (36) 
CC(=O)Oc1c(C)cc(Br)cc1Br

>  <score_type>  (36) 
oracle

>  <origin>  (36) 
adg

>  <m_score__min__energy>  (36) 
-7.0599999999999996

>  <m_primary>  (36) 
energy

$$$$
36:0
     RDKit          3D

 58 61  0  0  0  0  0  0  0  0999 V2000
   -0.8530   26.8140  -23.3020 C   0  0  0  0  0  0  0  0  0  0  0  0
   -0.2060   25.6720  -24.0830 C   0  0  0  0  0  0  0  0  0  0  0  0
   -0.8030   25.5460  -25.4630 C   0  0  0  0  0  0  0  0  0  0  0  0
   -2.1670   25.2620  -25.6170 C   0  0  0  0  0  0  0  0  0  0  0  0
   -2.7260   25.1500  -26.8950 C   0  0  0  0  0  0  0  0  0  0  0  0
   -1.9230   25.3300  -28.0380 C   0  0  0  0  0  0  0  0  0  0  0  0
   -2.4550   25.2920  -29.3360 O   0  0  0  0  0  0  0  0  0  0  0  0
   -3.5720   24.5450  -29.7330 C   0  0  0  0  0  0  0  0  0  0  0  0
   -3.5220   23.1500  -29.8500 C   0  0  0  0  0  0  0  0  0  0  0  0
   -4.6410   22.4380  -30.2940 C   0  0  0  0  0  0  0  0  0  0  0  0
   -5.8290   23.1060  -30.6010 C   0  0  0  0  0  0  0  0  0  0  0  0
   -6.9940   22.3570  -31.1110 C   0  0  0  0  0  0  0  0  0  0  0  0
   -8.1960   23.0130  -31.4250 C   0  0  0  0  0  0  0  0  0  0  0  0
   -9.2650   22.2740  -31.9340 C   0  0  0  0  0  0  0  0  0  0  0  0
   -9.1250   20.9020  -32.1420 C   0  0  0  0  0  0  0  0  0  0  0  0
   -7.9120   20.2710  -31.8180 C   0  0  0  0  0  0  0  0  0  0  0  0
   -7.7120   18.8410  -32.1480 C   0  0  0  0  0  0  0  0  0  0  0  0
   -8.7380   18.1080  -32.1910 O   0  0  0  0  0  0  0  0  0  0  0  0
   -6.4110   18.2380  -32.4010 N   0  0  0  0  0  0  0  0  0  0  0  0
   -5.5600   19.0120  -33.3360 C   0  0  0  0  0  0  0  0  0  0  0  0
   -5.6680   18.5640  -34.8020 C   0  0  0  0  0  0  0  0  0  0  0  0
   -5.5460   17.1050  -34.9680 N   0  0  0  0  0  0  0  0  0  0  0  0
   -4.1680   16.6250  -34.7580 C   0  0  0  0  0  0  0  0  0  0  0  0
   -6.5240   16.3850  -34.1400 C   0  0  0  0  0  0  0  0  0  0  0  0
   -6.4670   16.7780  -32.6530 C   0  0  0  0  0  0  0  0  0  0  0  0
   -6.8890   21.0170  -31.3220 N   0  0  0  0  0  0  0  0  0  0  0  0
   -5.8790   24.5060  -30.4870 C   0  0  0  0  0  0  0  0  0  0  0  0
   -4.7520   25.2180  -30.0710 C   0  0  0  0  0  0  0  0  0  0  0  0
   -0.5630   25.6240  -27.8820 C   0  0  0  0  0  0  0  0  0  0  0  0
   -0.0030   25.7180  -26.6060 C   0  0  0  0  0  0  0  0  0  0  0  0
   -0.7469   26.6267  -22.2233 H   0  0  0  0  0  0  0  0  0  0  0  0
   -0.3576   27.7616  -23.5601 H   0  0  0  0  0  0  0  0  0  0  0  0
   -1.9205   26.8761  -23.5601 H   0  0  0  0  0  0  0  0  0  0  0  0
    0.8727   25.8668  -24.1754 H   0  0  0  0  0  0  0  0  0  0  0  0
   -0.3861   24.7330  -23.5391 H   0  0  0  0  0  0  0  0  0  0  0  0
   -2.8013   25.1265  -24.7286 H   0  0  0  0  0  0  0  0  0  0  0  0
   -3.7960   24.9207  -27.0072 H   0  0  0  0  0  0  0  0  0  0  0  0
   -2.5981   22.6119  -29.5914 H   0  0  0  0  0  0  0  0  0  0  0  0
   -4.5853   21.3448  -30.4022 H   0  0  0  0  0  0  0  0  0  0  0  0
   -8.2936   24.0978  -31.2713 H   0  0  0  0  0  0  0  0  0  0  0  0
  -10.2164   22.7728  -32.1707 H   0  0  0  0  0  0  0  0  0  0  0  0
   -9.9592   20.3174  -32.5572 H   0  0  0  0  0  0  0  0  0  0  0  0
   -5.9090   18.3190  -31.4820 H   0  0  0  0  0  0  0  0  0  0  0  0
   -5.8548   20.0700  -33.2758 H   0  0  0  0  0  0  0  0  0  0  0  0
   -4.5173   18.8426  -33.0292 H   0  0  0  0  0  0  0  0  0  0  0  0
   -6.6455   18.8810  -35.1944 H   0  0  0  0  0  0  0  0  0  0  0  0
   -4.8354   19.0286  -35.3505 H   0  0  0  0  0  0  0  0  0  0  0  0
   -3.9648   16.5542  -33.6793 H   0  0  0  0  0  0  0  0  0  0  0  0
   -4.0510   15.6332  -35.2190 H   0  0  0  0  0  0  0  0  0  0  0  0
   -3.4601   17.3295  -35.2190 H   0  0  0  0  0  0  0  0  0  0  0  0
   -7.5325   16.6037  -34.5208 H   0  0  0  0  0  0  0  0  0  0  0  0
   -6.2807   15.3142  -34.2042 H   0  0  0  0  0  0  0  0  0  0  0  0
   -7.3647   16.3788  -32.1582 H   0  0  0  0  0  0  0  0  0  0  0  0
   -5.5315   16.3575  -32.2556 H   0  0  0  0  0  0  0  0  0  0  0  0
   -6.8089   25.0426  -30.7263 H   0  0  0  0  0  0  0  0  0  0  0  0
   -4.7918   26.3155  -30.0085 H   0  0  0  0  0  0  0  0  0  0  0  0
    0.0678   25.7818  -28.7692 H   0  0  0  0  0  0  0  0  0  0  0  0
    1.0710   25.9280  -26.4947 H   0  0  0  0  0  0  0  0  0  0  0  0
  1  2  1  0
  2  3  1  0
  3  4  2  0
  4  5  1  0
  5  6  2  0
  6  7  1  0
  7  8  1  0
  8  9  2  0
  9 10  1  0
 10 11  2  0
 11 12  1  0
 12 13  2  0
 13 14  1  0
 14 15  2  0
 15 16  1  0
 16 17  1  0
 17 18  2  0
 17 19  1  0
 19 20  1  0
 20 21  1  0
 21 22  1  0
 22 23  1  0
 22 24  1  0
 24 25  1  0
 16 26  2  0
 11 27  1  0
 27 28  2  0
  6 29  1  0
 29 30  2  0
 30  3  1  0
 28  8  1  0
 26 12  1  0
 25 19  1  0
  1 31  1  0
  1 32  1  0
  1 33  1  0
  2 34  1  0
  2 35  1  0
  4 36  1  0
  5 37  1  0
  9 38  1  0
 10 39  1  0
 13 40  1  0
 14 41  1  0
 15 42  1  0
 19 43  1  0
 20 44  1  0
 20 45  1  0
 21 46  1  0
 21 47  1  0
 23 48  1  0
 23 49  1  0
 23 50  1  0
 24 51  1  0
 24 52  1  0
 25 53  1  0
 25 54  1  0
 27 55  1  0
 28 56  1  0
 29 57  1  0
 30 58  1  0
M  CHG  1  19   1
M  END
>  <UniqueID>  (37) 
35

>  <SMILES>  (37) 
CCc1ccc(Oc2ccc(-c3cccc(C(=O)[NH+]4CCN(C)CC4)n3)cc2)cc1

>  <Energy>  (37) 
88.79111387662212

>  <Genealogy>  (37) 
CCc1ccc(Oc2ccc(-c3cccc(C(=O)[NH+]4CCN(C)CC4)n3)cc2)cc1 (protonated)
CCc1ccc(Oc2ccc(-c3cccc(C(=O)[NH+]4CCN(C)CC4)n3)cc2)cc1 (3D coordinates assigned)
CCc1ccc(Oc2ccc(-c3cccc(C(=O)[NH+]4CCN(C)CC4)n3)cc2)cc1 (nonaromatic ring conformer: 88.79111387662212 kcal/mol)

>  <smiles>  (37) 
CCc1ccc(Oc2ccc(-c3cccc(C(=O)N4CCN(C)CC4)n3)cc2)cc1

>  <score_type>  (37) 
oracle

>  <origin>  (37) 
adg

>  <m_score__min__energy>  (37) 
-10.43

>  <m_primary>  (37) 
energy

$$$$
37:0
     RDKit          3D

 57 58  0  0  0  0  0  0  0  0999 V2000
   -6.4960   17.4060  -31.5220 C   0  0  0  0  0  0  0  0  0  0  0  0
   -6.8380   17.5010  -33.0050 C   0  0  0  0  0  0  0  0  0  0  0  0
   -6.8480   18.9330  -33.4620 C   0  0  0  0  0  0  0  0  0  0  0  0
   -6.4180   19.1940  -34.6170 O   0  0  0  0  0  0  0  0  0  0  0  0
   -7.3870   19.9820  -32.6330 N   0  0  0  0  0  0  0  0  0  0  0  0
   -8.8150   20.1590  -32.3430 C   0  0  0  0  0  0  0  0  0  0  0  0
   -8.9460   21.5100  -31.6020 C   0  0  0  0  0  0  0  0  0  0  0  0
   -7.5370   21.9700  -31.4770 C   0  0  0  0  0  0  0  0  0  0  0  0
   -7.0750   23.1230  -30.8420 C   0  0  0  0  0  0  0  0  0  0  0  0
   -5.6910   23.3640  -30.8050 C   0  0  0  0  0  0  0  0  0  0  0  0
   -5.0870   24.8240  -30.0290 S   0  0  0  0  0  0  0  0  0  0  0  0
   -3.9450   25.3700  -30.8390 O   0  0  0  0  0  0  0  0  0  0  0  0
   -6.1690   25.8670  -29.9610 O   0  0  0  0  0  0  0  0  0  0  0  0
   -4.5280   24.4470  -28.4280 N   0  0  0  0  0  0  0  0  0  0  0  0
   -4.1080   23.0430  -28.3670 C   0  0  0  0  0  0  0  0  0  0  0  0
   -2.7140   22.9120  -27.7330 C   0  0  0  0  0  0  0  0  0  0  0  0
   -1.5660   23.4160  -28.6270 C   0  0  0  0  0  0  0  0  0  0  0  0
   -1.1970   24.8600  -28.3770 C   0  0  0  0  0  0  0  0  0  0  0  0
   -1.2400   25.6810  -29.3330 O   0  0  0  0  0  0  0  0  0  0  0  0
   -0.8510   25.3270  -27.0550 N   0  0  0  0  0  0  0  0  0  0  0  0
    0.2880   24.7570  -26.3200 C   0  0  0  0  0  0  0  0  0  0  0  0
    1.4260   24.4130  -27.2760 C   0  0  0  0  0  0  0  0  0  0  0  0
   -1.6990   26.3340  -26.3970 C   0  0  0  0  0  0  0  0  0  0  0  0
   -2.7360   25.6640  -25.4980 C   0  0  0  0  0  0  0  0  0  0  0  0
   -3.8740   25.3280  -26.2430 O   0  0  0  0  0  0  0  0  0  0  0  0
   -4.8030   22.4420  -31.3980 C   0  0  0  0  0  0  0  0  0  0  0  0
   -5.2930   21.2880  -32.0290 C   0  0  0  0  0  0  0  0  0  0  0  0
   -6.6800   21.0820  -32.0690 C   0  0  0  0  0  0  0  0  0  0  0  0
   -7.3856   17.6531  -30.9240 H   0  0  0  0  0  0  0  0  0  0  0  0
   -6.1682   16.3828  -31.2861 H   0  0  0  0  0  0  0  0  0  0  0  0
   -5.6875   18.1136  -31.2861 H   0  0  0  0  0  0  0  0  0  0  0  0
   -6.0874   16.9432  -33.5842 H   0  0  0  0  0  0  0  0  0  0  0  0
   -7.8396   17.0745  -33.1630 H   0  0  0  0  0  0  0  0  0  0  0  0
   -9.3933   20.1806  -33.2785 H   0  0  0  0  0  0  0  0  0  0  0  0
   -9.2037   19.3303  -31.7329 H   0  0  0  0  0  0  0  0  0  0  0  0
   -9.5432   22.2243  -32.1877 H   0  0  0  0  0  0  0  0  0  0  0  0
   -9.4573   21.4211  -30.6321 H   0  0  0  0  0  0  0  0  0  0  0  0
   -7.7800   23.8294  -30.3795 H   0  0  0  0  0  0  0  0  0  0  0  0
   -5.3530   24.5690  -27.7970 H   0  0  0  0  0  0  0  0  0  0  0  0
   -4.8324   22.4768  -27.7632 H   0  0  0  0  0  0  0  0  0  0  0  0
   -4.0657   22.6451  -29.3916 H   0  0  0  0  0  0  0  0  0  0  0  0
   -2.7039   23.4919  -26.7983 H   0  0  0  0  0  0  0  0  0  0  0  0
   -2.5400   21.8383  -27.5692 H   0  0  0  0  0  0  0  0  0  0  0  0
   -0.6793   22.7926  -28.4396 H   0  0  0  0  0  0  0  0  0  0  0  0
   -1.9124   23.3462  -29.6687 H   0  0  0  0  0  0  0  0  0  0  0  0
    0.6452   25.4901  -25.5817 H   0  0  0  0  0  0  0  0  0  0  0  0
   -0.0408   23.8370  -25.8144 H   0  0  0  0  0  0  0  0  0  0  0  0
    2.3216   24.1423  -26.6976 H   0  0  0  0  0  0  0  0  0  0  0  0
    1.1286   23.5646  -27.9099 H   0  0  0  0  0  0  0  0  0  0  0  0
    1.6484   25.2841  -27.9099 H   0  0  0  0  0  0  0  0  0  0  0  0
   -1.0664   26.9957  -25.7872 H   0  0  0  0  0  0  0  0  0  0  0  0
   -2.2240   26.9135  -27.1706 H   0  0  0  0  0  0  0  0  0  0  0  0
   -2.3040   24.7512  -25.0620 H   0  0  0  0  0  0  0  0  0  0  0  0
   -3.0229   26.3617  -24.6974 H   0  0  0  0  0  0  0  0  0  0  0  0
   -3.8900   25.9510  -27.0150 H   0  0  0  0  0  0  0  0  0  0  0  0
   -3.7195   22.6287  -31.3656 H   0  0  0  0  0  0  0  0  0  0  0  0
   -4.6039   20.5604  -32.4826 H   0  0  0  0  0  0  0  0  0  0  0  0
  1  2  1  0
  2  3  1  0
  3  4  2  0
  3  5  1  0
  5  6  1  0
  6  7  1  0
  7  8  1  0
  8  9  2  0
  9 10  1  0
 10 11  1  0
 11 12  2  0
 11 13  2  0
 11 14  1  0
 14 15  1  0
 15 16  1  0
 16 17  1  0
 17 18  1  0
 18 19  2  0
 18 20  1  0
 20 21  1  0
 21 22  1  0
 20 23  1  0
 23 24  1  0
 24 25  1  0
 10 26  2  0
 26 27  1  0
 27 28  2  0
 28  5  1  0
 28  8  1  0
  1 29  1  0
  1 30  1  0
  1 31  1  0
  2 32  1  0
  2 33  1  0
  6 34  1  0
  6 35  1  0
  7 36  1  0
  7 37  1  0
  9 38  1  0
 14 39  1  0
 15 40  1  0
 15 41  1  0
 16 42  1  0
 16 43  1  0
 17 44  1  0
 17 45  1  0
 21 46  1  0
 21 47  1  0
 22 48  1  0
 22 49  1  0
 22 50  1  0
 23 51  1  0
 23 52  1  0
 24 53  1  0
 24 54  1  0
 25 55  1  0
 26 56  1  0
 27 57  1  0
M  END
>  <UniqueID>  (38) 
36

>  <SMILES>  (38) 
CCC(=O)N1CCc2cc(S(=O)(=O)NCCCC(=O)N(CC)CCO)ccc21

>  <Energy>  (38) 
57.206888724247904

>  <Genealogy>  (38) 
CCC(=O)N1CCc2cc(S(=O)(=O)NCCCC(=O)N(CC)CCO)ccc21 (3D coordinates assigned)
CCC(=O)N1CCc2cc(S(=O)(=O)NCCCC(=O)N(CC)CCO)ccc21 (nonaromatic ring conformer: 57.206888724247904 kcal/mol)

>  <smiles>  (38) 
CCC(=O)N1CCc2cc(S(=O)(=O)NCCCC(=O)N(CC)CCO)ccc21

>  <score_type>  (38) 
oracle

>  <origin>  (38) 
adg

>  <m_score__min__energy>  (38) 
-9.8399999999999999

>  <m_primary>  (38) 
energy

$$$$
38:0
     RDKit          3D

 78 82  0  0  0  0  0  0  0  0999 V2000
   -1.1020   26.5630  -26.3040 C   0  0  0  0  0  0  0  0  0  0  0  0
   -0.8990   26.2570  -27.7910 C   0  0  0  0  0  0  0  0  0  0  0  0
   -1.4560   24.9560  -28.2280 N   0  0  0  0  0  0  0  0  0  0  0  0
   -0.5250   24.1030  -29.0040 C   0  0  0  0  0  0  0  0  0  0  0  0
    0.1860   23.0190  -28.1780 C   0  0  0  0  0  0  0  0  0  0  0  0
   -2.2920   24.2560  -27.2280 C   0  0  0  0  0  0  0  0  0  0  0  0
   -3.7820   24.5540  -27.4440 C   0  0  0  0  0  0  0  0  0  0  0  0
   -4.3090   23.8030  -28.5970 N   0  0  0  0  0  0  0  0  0  0  0  0
   -4.4200   22.3390  -28.5030 C   0  0  0  0  0  0  0  0  0  0  0  0
   -3.2180   21.6770  -29.1330 C   0  0  0  0  0  0  0  0  0  0  0  0
   -2.8330   22.0250  -30.4360 C   0  0  0  0  0  0  0  0  0  0  0  0
   -1.7090   21.4300  -31.0230 C   0  0  0  0  0  0  0  0  0  0  0  0
   -1.3090   21.7570  -32.3250 C   0  0  0  0  0  0  0  0  0  0  0  0
   -0.1780   21.1420  -32.8980 C   0  0  0  0  0  0  0  0  0  0  0  0
    0.2530   21.4430  -34.2000 O   0  0  0  0  0  0  0  0  0  0  0  0
   -0.1110   20.7060  -35.3630 C   0  0  0  0  0  0  0  0  0  0  0  0
    0.5520   20.1970  -32.1580 C   0  0  0  0  0  0  0  0  0  0  0  0
    1.6710   19.6000  -32.7610 O   0  0  0  0  0  0  0  0  0  0  0  0
    1.9960   18.2170  -32.6680 C   0  0  0  0  0  0  0  0  0  0  0  0
    0.1500   19.8730  -30.8470 C   0  0  0  0  0  0  0  0  0  0  0  0
   -0.9730   20.4840  -30.2820 C   0  0  0  0  0  0  0  0  0  0  0  0
   -1.3580   20.1660  -29.0190 N   0  0  0  0  0  0  0  0  0  0  0  0
   -2.4440   20.7310  -28.4290 C   0  0  0  0  0  0  0  0  0  0  0  0
   -2.7510   20.3930  -27.2550 O   0  0  0  0  0  0  0  0  0  0  0  0
   -4.7190   24.4770  -29.8110 C   0  0  0  0  0  0  0  0  0  0  0  0
   -3.8660   25.1250  -30.4780 O   0  0  0  0  0  0  0  0  0  0  0  0
   -6.1550   24.4340  -30.2850 C   0  0  0  0  0  0  0  0  0  0  0  0
   -6.2900   24.1890  -31.7930 C   0  0  0  0  0  0  0  0  0  0  0  0
   -6.3930   22.7480  -32.0650 N   0  0  0  0  0  0  0  0  0  0  0  0
   -7.5780   22.0160  -31.6950 C   0  0  0  0  0  0  0  0  0  0  0  0
   -8.5500   22.6170  -31.1610 O   0  0  0  0  0  0  0  0  0  0  0  0
   -7.6530   20.5580  -31.9390 C   0  0  0  0  0  0  0  0  0  0  0  0
   -8.8170   19.8380  -31.6140 C   0  0  0  0  0  0  0  0  0  0  0  0
   -8.8870   18.4640  -31.8410 C   0  0  0  0  0  0  0  0  0  0  0  0
   -7.8010   17.7840  -32.3930 C   0  0  0  0  0  0  0  0  0  0  0  0
   -6.6300   18.4780  -32.7260 C   0  0  0  0  0  0  0  0  0  0  0  0
   -5.5380   17.7950  -33.2770 C   0  0  0  0  0  0  0  0  0  0  0  0
   -4.3710   18.4850  -33.6040 C   0  0  0  0  0  0  0  0  0  0  0  0
   -4.2810   19.8600  -33.3850 C   0  0  0  0  0  0  0  0  0  0  0  0
   -5.3630   20.5690  -32.8360 C   0  0  0  0  0  0  0  0  0  0  0  0
   -6.5490   19.8780  -32.5000 C   0  0  0  0  0  0  0  0  0  0  0  0
   -5.2670   22.0290  -32.6050 C   0  0  0  0  0  0  0  0  0  0  0  0
   -4.1980   22.6400  -32.8780 O   0  0  0  0  0  0  0  0  0  0  0  0
   -0.5940   25.7972  -25.6994 H   0  0  0  0  0  0  0  0  0  0  0  0
   -0.6805   27.5523  -26.0723 H   0  0  0  0  0  0  0  0  0  0  0  0
   -2.1773   26.5593  -26.0723 H   0  0  0  0  0  0  0  0  0  0  0  0
   -1.3836   27.0529  -28.3756 H   0  0  0  0  0  0  0  0  0  0  0  0
    0.1873   26.2056  -27.9562 H   0  0  0  0  0  0  0  0  0  0  0  0
   -1.0976   23.6068  -29.8015 H   0  0  0  0  0  0  0  0  0  0  0  0
    0.2615   24.7687  -29.3891 H   0  0  0  0  0  0  0  0  0  0  0  0
    0.0500   23.2264  -27.1063 H   0  0  0  0  0  0  0  0  0  0  0  0
   -0.2426   22.0348  -28.4183 H   0  0  0  0  0  0  0  0  0  0  0  0
    1.2594   23.0200  -28.4183 H   0  0  0  0  0  0  0  0  0  0  0  0
   -2.1262   23.1722  -27.3172 H   0  0  0  0  0  0  0  0  0  0  0  0
   -2.0074   24.6107  -26.2264 H   0  0  0  0  0  0  0  0  0  0  0  0
   -4.3409   24.2662  -26.5414 H   0  0  0  0  0  0  0  0  0  0  0  0
   -3.8990   25.6295  -27.6432 H   0  0  0  0  0  0  0  0  0  0  0  0
   -4.4804   22.0476  -27.4440 H   0  0  0  0  0  0  0  0  0  0  0  0
   -5.3256   22.0154  -29.0371 H   0  0  0  0  0  0  0  0  0  0  0  0
   -3.4162   22.7683  -30.9993 H   0  0  0  0  0  0  0  0  0  0  0  0
   -1.8808   22.4978  -32.9032 H   0  0  0  0  0  0  0  0  0  0  0  0
   -0.5798   19.7569  -35.0638 H   0  0  0  0  0  0  0  0  0  0  0  0
   -0.8225   21.2936  -35.9617 H   0  0  0  0  0  0  0  0  0  0  0  0
    0.7881   20.4982  -35.9617 H   0  0  0  0  0  0  0  0  0  0  0  0
    2.0642   17.9268  -31.6092 H   0  0  0  0  0  0  0  0  0  0  0  0
    1.2131   17.6224  -33.1615 H   0  0  0  0  0  0  0  0  0  0  0  0
    2.9618   18.0333  -33.1615 H   0  0  0  0  0  0  0  0  0  0  0  0
    0.7227   19.1356  -30.2654 H   0  0  0  0  0  0  0  0  0  0  0  0
   -6.6743   23.6239  -29.7520 H   0  0  0  0  0  0  0  0  0  0  0  0
   -6.5968   25.4192  -30.0746 H   0  0  0  0  0  0  0  0  0  0  0  0
   -7.1938   24.6945  -32.1640 H   0  0  0  0  0  0  0  0  0  0  0  0
   -5.4009   24.5883  -32.3030 H   0  0  0  0  0  0  0  0  0  0  0  0
   -9.6791   20.3633  -31.1772 H   0  0  0  0  0  0  0  0  0  0  0  0
   -9.8036   17.9131  -31.5834 H   0  0  0  0  0  0  0  0  0  0  0  0
   -7.8641   16.6997  -32.5674 H   0  0  0  0  0  0  0  0  0  0  0  0
   -5.6012   16.7109  -33.4523 H   0  0  0  0  0  0  0  0  0  0  0  0
   -3.5174   17.9426  -34.0366 H   0  0  0  0  0  0  0  0  0  0  0  0
   -3.3548   20.3938  -33.6444 H   0  0  0  0  0  0  0  0  0  0  0  0
  1  2  1  0
  2  3  1  0
  3  4  1  0
  4  5  1  0
  3  6  1  0
  6  7  1  0
  7  8  1  0
  8  9  1  0
  9 10  1  0
 10 11  2  0
 11 12  1  0
 12 13  2  0
 13 14  1  0
 14 15  1  0
 15 16  1  0
 14 17  2  0
 17 18  1  0
 18 19  1  0
 17 20  1  0
 20 21  2  0
 21 22  1  0
 22 23  1  0
 23 24  2  0
  8 25  1  0
 25 26  2  0
 25 27  1  0
 27 28  1  0
 28 29  1  0
 29 30  1  0
 30 31  2  0
 30 32  1  0
 32 33  2  0
 33 34  1  0
 34 35  2  0
 35 36  1  0
 36 37  2  0
 37 38  1  0
 38 39  2  0
 39 40  1  0
 40 41  2  0
 40 42  1  0
 42 43  2  0
 23 10  1  0
 42 29  1  0
 21 12  1  0
 41 32  1  0
 41 36  1  0
  1 44  1  0
  1 45  1  0
  1 46  1  0
  2 47  1  0
  2 48  1  0
  4 49  1  0
  4 50  1  0
  5 51  1  0
  5 52  1  0
  5 53  1  0
  6 54  1  0
  6 55  1  0
  7 56  1  0
  7 57  1  0
  9 58  1  0
  9 59  1  0
 11 60  1  0
 13 61  1  0
 16 62  1  0
 16 63  1  0
 16 64  1  0
 19 65  1  0
 19 66  1  0
 19 67  1  0
 20 68  1  0
 27 69  1  0
 27 70  1  0
 28 71  1  0
 28 72  1  0
 33 73  1  0
 34 74  1  0
 35 75  1  0
 37 76  1  0
 38 77  1  0
 39 78  1  0
M  CHG  1  22  -1
M  END
>  <UniqueID>  (39) 
37

>  <SMILES>  (39) 
CCN(CC)CCN(Cc1cc2cc(OC)c(OC)cc2[n-]c1=O)C(=O)CCN1C(=O)c2cccc3cccc(c23)C1=O

>  <Energy>  (39) 
94.30036091731574

>  <Genealogy>  (39) 
CCN(CC)CCN(Cc1cc2cc(OC)c(OC)cc2[n-]c1=O)C(=O)CCN1C(=O)c2cccc3cccc(c23)C1=O (protonated)
CCN(CC)CCN(Cc1cc2cc(OC)c(OC)cc2[n-]c1=O)C(=O)CCN1C(=O)c2cccc3cccc(c23)C1=O (3D coordinates assigned)
CCN(CC)CCN(Cc1cc2cc(OC)c(OC)cc2[n-]c1=O)C(=O)CCN1C(=O)c2cccc3cccc(c23)C1=O (nonaromatic ring conformer: 94.30036091731574 kcal/mol)

>  <smiles>  (39) 
CCN(CC)CCN(Cc1cc2cc(OC)c(OC)cc2[nH]c1=O)C(=O)CCN1C(=O)c2cccc3cccc(c23)C1=O

>  <score_type>  (39) 
oracle

>  <origin>  (39) 
adg

>  <m_score__min__energy>  (39) 
-12.550000000000001

>  <m_primary>  (39) 
energy

$$$$
39:0
     RDKit          3D

 44 46  0  0  0  0  0  0  0  0999 V2000
   -1.8240   24.9810  -28.2050 C   0  0  0  0  0  0  0  0  0  0  0  0
   -2.6060   25.2890  -29.3530 O   0  0  0  0  0  0  0  0  0  0  0  0
   -3.6610   24.4950  -29.8320 C   0  0  0  0  0  0  0  0  0  0  0  0
   -5.0050   24.8980  -29.7340 C   0  0  0  0  0  0  0  0  0  0  0  0
   -6.0260   24.0820  -30.2220 C   0  0  0  0  0  0  0  0  0  0  0  0
   -5.7290   22.8460  -30.8180 C   0  0  0  0  0  0  0  0  0  0  0  0
   -6.8180   21.9800  -31.3370 C   0  0  0  0  0  0  0  0  0  0  0  0
   -8.1630   22.3570  -31.1850 C   0  0  0  0  0  0  0  0  0  0  0  0
   -9.1860   21.5420  -31.6730 C   0  0  0  0  0  0  0  0  0  0  0  0
   -8.8810   20.3420  -32.3190 C   0  0  0  0  0  0  0  0  0  0  0  0
   -7.5440   19.9430  -32.4870 C   0  0  0  0  0  0  0  0  0  0  0  0
   -7.2270   18.6340  -33.1880 C   0  0  0  0  0  0  0  0  0  0  0  0
   -6.1190   18.8010  -34.2410 C   0  0  0  0  0  0  0  0  0  0  0  0
   -5.7980   17.4490  -34.9200 C   0  0  0  0  0  0  0  0  0  0  0  0
   -6.3720   16.3330  -34.2540 O   0  0  0  0  0  0  0  0  0  0  0  0
   -6.0770   16.3850  -32.8720 C   0  0  0  0  0  0  0  0  0  0  0  0
   -6.8600   17.5210  -32.1850 C   0  0  0  0  0  0  0  0  0  0  0  0
   -6.5180   20.7700  -31.9890 C   0  0  0  0  0  0  0  0  0  0  0  0
   -4.3850   22.4440  -30.9180 C   0  0  0  0  0  0  0  0  0  0  0  0
   -3.3490   23.2630  -30.4280 C   0  0  0  0  0  0  0  0  0  0  0  0
   -1.9990   22.8880  -30.5150 O   0  0  0  0  0  0  0  0  0  0  0  0
   -1.5420   21.5950  -30.9010 C   0  0  0  0  0  0  0  0  0  0  0  0
   -2.4011   25.2083  -27.2965 H   0  0  0  0  0  0  0  0  0  0  0  0
   -1.5623   23.9126  -28.2155 H   0  0  0  0  0  0  0  0  0  0  0  0
   -0.9040   25.5840  -28.2155 H   0  0  0  0  0  0  0  0  0  0  0  0
   -5.2529   25.8636  -29.2692 H   0  0  0  0  0  0  0  0  0  0  0  0
   -7.0727   24.4099  -30.1391 H   0  0  0  0  0  0  0  0  0  0  0  0
   -8.4116   23.3010  -30.6779 H   0  0  0  0  0  0  0  0  0  0  0  0
  -10.2358   21.8460  -31.5483 H   0  0  0  0  0  0  0  0  0  0  0  0
   -9.6930   19.7046  -32.6990 H   0  0  0  0  0  0  0  0  0  0  0  0
   -8.1453   18.3288  -33.7111 H   0  0  0  0  0  0  0  0  0  0  0  0
   -6.4531   19.5180  -35.0054 H   0  0  0  0  0  0  0  0  0  0  0  0
   -5.2107   19.1690  -33.7415 H   0  0  0  0  0  0  0  0  0  0  0  0
   -6.1828   17.4761  -35.9501 H   0  0  0  0  0  0  0  0  0  0  0  0
   -4.7060   17.3203  -34.8874 H   0  0  0  0  0  0  0  0  0  0  0  0
   -6.3525   15.4262  -32.4086 H   0  0  0  0  0  0  0  0  0  0  0  0
   -5.0006   16.5757  -32.7493 H   0  0  0  0  0  0  0  0  0  0  0  0
   -7.7838   17.1091  -31.7527 H   0  0  0  0  0  0  0  0  0  0  0  0
   -6.2239   17.9563  -31.4002 H   0  0  0  0  0  0  0  0  0  0  0  0
   -5.4681   20.4655  -32.1116 H   0  0  0  0  0  0  0  0  0  0  0  0
   -4.1399   21.4784  -31.3845 H   0  0  0  0  0  0  0  0  0  0  0  0
   -1.3307   20.9973  -30.0020 H   0  0  0  0  0  0  0  0  0  0  0  0
   -2.3180   21.0954  -31.4995 H   0  0  0  0  0  0  0  0  0  0  0  0
   -0.6244   21.6940  -31.4995 H   0  0  0  0  0  0  0  0  0  0  0  0
  1  2  1  0
  2  3  1  0
  3  4  2  0
  4  5  1  0
  5  6  2  0
  6  7  1  0
  7  8  2  0
  8  9  1  0
  9 10  2  0
 10 11  1  0
 11 12  1  0
 12 13  1  0
 13 14  1  0
 14 15  1  0
 15 16  1  0
 16 17  1  0
 11 18  2  0
  6 19  1  0
 19 20  2  0
 20 21  1  0
 21 22  1  0
 20  3  1  0
 18  7  1  0
 17 12  1  0
  1 23  1  0
  1 24  1  0
  1 25  1  0
  4 26  1  0
  5 27  1  0
  8 28  1  0
  9 29  1  0
 10 30  1  0
 12 31  1  0
 13 32  1  0
 13 33  1  0
 14 34  1  0
 14 35  1  0
 16 36  1  0
 16 37  1  0
 17 38  1  0
 17 39  1  0
 18 40  1  0
 19 41  1  0
 22 42  1  0
 22 43  1  0
 22 44  1  0
M  END
>  <UniqueID>  (40) 
38

>  <SMILES>  (40) 
COc1ccc(-c2cccc(C3CCOCC3)c2)cc1OC

>  <Energy>  (40) 
56.698997427521846

>  <Genealogy>  (40) 
COc1ccc(-c2cccc(C3CCOCC3)c2)cc1OC (3D coordinates assigned)
COc1ccc(-c2cccc(C3CCOCC3)c2)cc1OC (nonaromatic ring conformer: 56.698997427521846 kcal/mol)

>  <smiles>  (40) 
COc1ccc(-c2cccc(C3CCOCC3)c2)cc1OC

>  <score_type>  (40) 
oracle

>  <origin>  (40) 
adg

>  <m_score__min__energy>  (40) 
-8.9900000000000002

>  <m_primary>  (40) 
energy

$$$$
40:0
     RDKit          3D

 39 43  0  0  0  0  0  0  0  0999 V2000
   -9.7410   21.6690  -31.9150 C   0  0  0  0  0  0  0  0  0  0  0  0
   -8.3830   21.0350  -31.8340 C   0  0  0  0  0  0  0  0  0  0  0  0
   -8.2350   19.6350  -31.8140 C   0  0  0  0  0  0  0  0  0  0  0  0
   -6.9570   19.0530  -31.7280 C   0  0  0  0  0  0  0  0  0  0  0  0
   -5.8100   19.8580  -31.6600 C   0  0  0  0  0  0  0  0  0  0  0  0
   -4.5870   19.2850  -31.5610 F   0  0  0  0  0  0  0  0  0  0  0  0
   -5.9620   21.2500  -31.6860 C   0  0  0  0  0  0  0  0  0  0  0  0
   -7.2230   21.8190  -31.7660 C   0  0  0  0  0  0  0  0  0  0  0  0
   -7.1660   23.2350  -31.7530 N   0  0  0  0  0  0  0  0  0  0  0  0
   -5.7840   23.5500  -31.6540 C   0  0  0  0  0  0  0  0  0  0  0  0
   -5.3590   24.7340  -31.5930 O   0  0  0  0  0  0  0  0  0  0  0  0
   -4.9010   22.3250  -31.6170 C   0  0  2  0  0  0  0  0  0  0  0  0
   -3.9580   22.3000  -32.8520 C   0  0  0  0  0  0  0  0  0  0  0  0
   -2.7680   21.3750  -32.6890 C   0  0  0  0  0  0  0  0  0  0  0  0
   -2.1330   20.8460  -33.8230 C   0  0  0  0  0  0  0  0  0  0  0  0
   -0.9840   20.0620  -33.6850 C   0  0  0  0  0  0  0  0  0  0  0  0
   -0.4530   19.8150  -32.4170 C   0  0  0  0  0  0  0  0  0  0  0  0
   -1.0660   20.3490  -31.2820 C   0  0  0  0  0  0  0  0  0  0  0  0
   -2.2230   21.1390  -31.4080 C   0  0  0  0  0  0  0  0  0  0  0  0
   -2.9090   21.6670  -30.2610 N   0  0  0  0  0  0  0  0  0  0  0  0
   -2.5400   21.6580  -28.9630 C   0  0  0  0  0  0  0  0  0  0  0  0
   -3.5420   22.2180  -28.1930 C   0  0  0  0  0  0  0  0  0  0  0  0
   -4.5590   22.5780  -29.0570 C   0  0  0  0  0  0  0  0  0  0  0  0
   -4.1250   22.2380  -30.3260 C   0  0  0  0  0  0  0  0  0  0  0  0
  -10.1235   21.8476  -30.8992 H   0  0  0  0  0  0  0  0  0  0  0  0
   -9.6675   22.6259  -32.4526 H   0  0  0  0  0  0  0  0  0  0  0  0
  -10.4273   20.9982  -32.4526 H   0  0  0  0  0  0  0  0  0  0  0  0
   -9.1255   18.9913  -31.8660 H   0  0  0  0  0  0  0  0  0  0  0  0
   -6.8563   17.9577  -31.7140 H   0  0  0  0  0  0  0  0  0  0  0  0
   -7.9630   23.9090  -31.7830 H   0  0  0  0  0  0  0  0  0  0  0  0
   -4.5384   21.9692  -33.7259 H   0  0  0  0  0  0  0  0  0  0  0  0
   -3.5604   23.3183  -32.9746 H   0  0  0  0  0  0  0  0  0  0  0  0
   -2.5409   21.0490  -34.8242 H   0  0  0  0  0  0  0  0  0  0  0  0
   -0.4974   19.6390  -34.5762 H   0  0  0  0  0  0  0  0  0  0  0  0
    0.4513   19.1976  -32.3123 H   0  0  0  0  0  0  0  0  0  0  0  0
   -0.6429   20.1513  -30.2861 H   0  0  0  0  0  0  0  0  0  0  0  0
   -1.5878   21.2652  -28.5769 H   0  0  0  0  0  0  0  0  0  0  0  0
   -3.5320   22.3516  -27.1012 H   0  0  0  0  0  0  0  0  0  0  0  0
   -5.5200   23.0415  -28.7895 H   0  0  0  0  0  0  0  0  0  0  0  0
  1  2  1  0
  2  3  2  0
  3  4  1  0
  4  5  2  0
  5  6  1  0
  5  7  1  0
  7  8  2  0
  8  9  1  0
  9 10  1  0
 10 11  2  0
 10 12  1  0
 12 13  1  6
 13 14  1  0
 14 15  2  0
 15 16  1  0
 16 17  2  0
 17 18  1  0
 18 19  2  0
 19 20  1  0
 20 21  1  0
 21 22  2  0
 22 23  1  0
 23 24  2  0
  8  2  1  0
 24 12  1  0
 12  7  1  0
 19 14  1  0
 24 20  1  0
  1 25  1  0
  1 26  1  0
  1 27  1  0
  3 28  1  0
  4 29  1  0
  9 30  1  0
 13 31  1  0
 13 32  1  0
 15 33  1  0
 16 34  1  0
 17 35  1  0
 18 36  1  0
 21 37  1  0
 22 38  1  0
 23 39  1  0
M  END
>  <UniqueID>  (41) 
39

>  <SMILES>  (41) 
Cc1ccc(F)c2c1NC(=O)[C@]21Cc2ccccc2-n2cccc21

>  <Energy>  (41) 
96.01394302114025

>  <Genealogy>  (41) 
Cc1ccc(F)c2c1NC(=O)[C@]21Cc2ccccc2-n2cccc21 (chirality)
Cc1ccc(F)c2c1NC(=O)[C@]21Cc2ccccc2-n2cccc21 (3D coordinates assigned)
Cc1ccc(F)c2c1NC(=O)[C@]21Cc2ccccc2-n2cccc21 (nonaromatic ring conformer: 96.01394302114025 kcal/mol)

>  <smiles>  (41) 
Cc1ccc(F)c2c1NC(=O)C21Cc2ccccc2-n2cccc21

>  <score_type>  (41) 
oracle

>  <origin>  (41) 
adg

>  <m_score__min__energy>  (41) 
-8.1500000000000004

>  <m_primary>  (41) 
energy

$$$$
41:0
     RDKit          3D

 53 55  0  0  0  0  0  0  0  0999 V2000
   -7.5573   16.3980  -32.4175 H   0  0  0  0  0  0  0  0  0  0  0  0
   -6.8640   16.9370  -33.0800 C   0  0  0  0  0  0  0  0  0  0  0  0
   -5.8460   16.3800  -33.7640 N   0  0  0  0  0  0  0  0  0  0  0  0
   -5.2390   17.3450  -34.4360 N   0  0  0  0  0  0  0  0  0  0  0  0
   -4.1140   17.1240  -35.3370 C   0  0  0  0  0  0  0  0  0  0  0  0
   -4.2426   17.7423  -36.2377 H   0  0  0  0  0  0  0  0  0  0  0  0
   -4.0792   16.0601  -35.6145 H   0  0  0  0  0  0  0  0  0  0  0  0
   -2.8090   17.5020  -34.6490 C   0  0  0  0  0  0  0  0  0  0  0  0
   -2.9448   17.4627  -33.5581 H   0  0  0  0  0  0  0  0  0  0  0  0
   -2.0199   16.7955  -34.9460 H   0  0  0  0  0  0  0  0  0  0  0  0
   -2.5197   18.5209  -34.9460 H   0  0  0  0  0  0  0  0  0  0  0  0
   -5.8550   18.5220  -34.2130 C   0  0  0  0  0  0  0  0  0  0  0  0
   -5.5745   19.4926  -34.6481 H   0  0  0  0  0  0  0  0  0  0  0  0
   -6.8990   18.2940  -33.3430 C   0  0  0  0  0  0  0  0  0  0  0  0
   -7.8630   19.3060  -32.7800 C   0  0  0  0  0  0  0  0  0  0  0  0
   -8.0900   20.0455  -33.5620 H   0  0  0  0  0  0  0  0  0  0  0  0
   -8.7605   18.7584  -32.4567 H   0  0  0  0  0  0  0  0  0  0  0  0
   -7.3320   20.0210  -31.5950 N   0  0  0  0  0  0  0  0  0  0  0  0
   -6.1230   20.8110  -31.9260 C   0  0  0  0  0  0  0  0  0  0  0  0
   -6.0966   20.9829  -33.0122 H   0  0  0  0  0  0  0  0  0  0  0  0
   -5.2420   20.2423  -31.5936 H   0  0  0  0  0  0  0  0  0  0  0  0
   -6.1130   22.1660  -31.2090 C   0  0  0  0  0  0  0  0  0  0  0  0
   -5.0705   22.4700  -31.0334 H   0  0  0  0  0  0  0  0  0  0  0  0
   -6.6543   22.0575  -30.2576 H   0  0  0  0  0  0  0  0  0  0  0  0
   -6.7890   23.2080  -32.0120 N   0  0  0  0  0  0  0  0  0  0  0  0
   -6.0970   24.5160  -31.9490 C   0  0  0  0  0  0  0  0  0  0  0  0
   -5.3548   24.5518  -32.7601 H   0  0  0  0  0  0  0  0  0  0  0  0
   -6.8753   25.2874  -32.0449 H   0  0  0  0  0  0  0  0  0  0  0  0
   -5.3800   24.7850  -30.6370 C   0  0  0  0  0  0  0  0  0  0  0  0
   -6.0410   24.8860  -29.5720 O   0  0  0  0  0  0  0  0  0  0  0  0
   -3.9510   24.9300  -30.5600 N   0  0  0  0  0  0  0  0  0  0  0  0
   -3.1450   24.4800  -29.6420 C   0  0  0  0  0  0  0  0  0  0  0  0
   -2.1530   25.2560  -29.1210 N   0  0  0  0  0  0  0  0  0  0  0  0
   -1.3070   24.8040  -28.1550 C   0  0  0  0  0  0  0  0  0  0  0  0
   -0.2510   25.7090  -27.6140 C   0  0  0  0  0  0  0  0  0  0  0  0
   -0.2770   25.6867  -26.5145 H   0  0  0  0  0  0  0  0  0  0  0  0
    0.7357   25.3717  -27.9643 H   0  0  0  0  0  0  0  0  0  0  0  0
   -0.4332   26.7357  -27.9643 H   0  0  0  0  0  0  0  0  0  0  0  0
   -1.4670   23.5110  -27.6440 C   0  0  0  0  0  0  0  0  0  0  0  0
   -0.7998   23.1386  -26.8527 H   0  0  0  0  0  0  0  0  0  0  0  0
   -2.4820   22.7010  -28.1500 C   0  0  0  0  0  0  0  0  0  0  0  0
   -2.6186   21.6823  -27.7581 H   0  0  0  0  0  0  0  0  0  0  0  0
   -3.3260   23.1810  -29.1540 C   0  0  0  0  0  0  0  0  0  0  0  0
   -4.1262   22.5433  -29.5577 H   0  0  0  0  0  0  0  0  0  0  0  0
   -8.2370   23.2990  -31.7150 C   0  0  0  0  0  0  0  0  0  0  0  0
   -8.7034   24.0112  -32.4116 H   0  0  0  0  0  0  0  0  0  0  0  0
   -8.3619   23.6393  -30.6764 H   0  0  0  0  0  0  0  0  0  0  0  0
   -8.9140   21.9320  -31.8670 C   0  0  0  0  0  0  0  0  0  0  0  0
   -8.7735   21.5922  -32.9037 H   0  0  0  0  0  0  0  0  0  0  0  0
   -9.9718   22.0751  -31.6013 H   0  0  0  0  0  0  0  0  0  0  0  0
   -8.3700   20.8440  -30.9270 C   0  0  0  0  0  0  0  0  0  0  0  0
   -9.1995   20.1914  -30.6170 H   0  0  0  0  0  0  0  0  0  0  0  0
   -7.9137   21.3360  -30.0554 H   0  0  0  0  0  0  0  0  0  0  0  0
  1  2  1  0
  2  3  2  0
  3  4  1  0
  4  5  1  0
  5  6  1  0
  5  7  1  0
  5  8  1  0
  8  9  1  0
  8 10  1  0
  8 11  1  0
  4 12  1  0
 12 13  1  0
 12 14  2  0
 14 15  1  0
 15 16  1  0
 15 17  1  0
 15 18  1  0
 18 19  1  0
 19 20  1  0
 19 21  1  0
 19 22  1  0
 22 23  1  0
 22 24  1  0
 22 25  1  0
 25 26  1  0
 26 27  1  0
 26 28  1  0
 26 29  1  0
 29 30  2  0
 29 31  1  0
 31 32  2  0
 32 33  1  0
 33 34  1  0
 34 35  1  0
 35 36  1  0
 35 37  1  0
 35 38  1  0
 34 39  2  0
 39 40  1  0
 39 41  1  0
 41 42  1  0
 41 43  2  0
 43 44  1  0
 25 45  1  0
 45 46  1  0
 45 47  1  0
 45 48  1  0
 48 49  1  0
 48 50  1  0
 48 51  1  0
 51 52  1  0
 51 53  1  0
 14  2  1  0
 51 18  1  0
 43 32  1  0
M  CHG  1  33  -1
M  END
>  <UniqueID>  (42) 
40

>  <SMILES>  (42) 
CCn1cc(CN2CCCN(CC(=O)/N=c3/cccc(C)[n-]3)CC2)cn1

>  <Energy>  (42) 
96.72154784639575

>  <Genealogy>  (42) 
CCn1cc(CN2CCCN(CC(=O)N=c3cccc(C)[n-]3)CC2)cn1 (protonated)
CCn1cc(CN2CCCN(CC(=O)/N=c3/cccc(C)[n-]3)CC2)cn1 (cis-trans isomerization)
CCn1cc(CN2CCCN(CC(=O)/N=c3/cccc(C)[n-]3)CC2)cn1 (3D coordinates assigned)
CCn1cc(CN2CCCN(CC(=O)/N=c3/cccc(C)[n-]3)CC2)cn1 (nonaromatic ring conformer: 96.72154784639575 kcal/mol)

>  <smiles>  (42) 
CCn1cc(CN2CCCN(CC(=O)N=c3cccc(C)[nH]3)CC2)cn1

>  <score_type>  (42) 
oracle

>  <origin>  (42) 
adg

>  <m_score__min__energy>  (42) 
-8.5600000000000005

>  <m_primary>  (42) 
energy

$$$$
42:0
     RDKit          3D

 49 51  0  0  0  0  0  0  0  0999 V2000
   -5.7010   25.3200  -30.4260 C   0  0  0  0  0  0  0  0  0  0  0  0
   -4.7010   24.5520  -29.5710 C   0  0  0  0  0  0  0  0  0  0  0  0
   -3.5930   24.0590  -30.4150 N   0  0  0  0  0  0  0  0  0  0  0  0
   -2.3910   23.7150  -29.6390 C   0  0  0  0  0  0  0  0  0  0  0  0
   -3.9800   23.0440  -31.4270 C   0  0  0  0  0  0  0  0  0  0  0  0
   -3.0230   21.8380  -31.5890 C   0  0  0  0  0  0  0  0  0  0  0  0
   -3.1920   21.0350  -32.8870 C   0  0  0  0  0  0  0  0  0  0  0  0
   -4.5140   21.2440  -33.4860 N   0  0  0  0  0  0  0  0  0  0  0  0
   -5.6690   20.4770  -33.0980 C   0  0  0  0  0  0  0  0  0  0  0  0
   -5.6870   19.0820  -33.2900 C   0  0  0  0  0  0  0  0  0  0  0  0
   -4.5610   18.4070  -33.8110 C   0  0  0  0  0  0  0  0  0  0  0  0
   -4.6060   17.0420  -34.0780 C   0  0  0  0  0  0  0  0  0  0  0  0
   -5.7730   16.3270  -33.8450 C   0  0  0  0  0  0  0  0  0  0  0  0
   -6.8940   16.9660  -33.3160 C   0  0  0  0  0  0  0  0  0  0  0  0
   -6.8660   18.3460  -32.9890 C   0  0  0  0  0  0  0  0  0  0  0  0
   -7.9550   18.9780  -32.4160 N   0  0  0  0  0  0  0  0  0  0  0  0
   -9.0680   18.1740  -31.8630 C   0  0  0  0  0  0  0  0  0  0  0  0
   -7.9840   20.3560  -32.3170 C   0  0  0  0  0  0  0  0  0  0  0  0
   -9.1660   21.0540  -31.9560 C   0  0  0  0  0  0  0  0  0  0  0  0
   -9.1570   22.4340  -31.7580 C   0  0  0  0  0  0  0  0  0  0  0  0
   -7.9790   23.1530  -31.9140 C   0  0  0  0  0  0  0  0  0  0  0  0
   -6.8160   22.5050  -32.3230 C   0  0  0  0  0  0  0  0  0  0  0  0
   -6.8150   21.1190  -32.5870 C   0  0  0  0  0  0  0  0  0  0  0  0
   -6.4033   25.8594  -29.7734 H   0  0  0  0  0  0  0  0  0  0  0  0
   -5.1638   26.0399  -31.0610 H   0  0  0  0  0  0  0  0  0  0  0  0
   -6.2579   24.6153  -31.0610 H   0  0  0  0  0  0  0  0  0  0  0  0
   -4.2988   25.2178  -28.7932 H   0  0  0  0  0  0  0  0  0  0  0  0
   -5.2077   23.6959  -29.1016 H   0  0  0  0  0  0  0  0  0  0  0  0
   -2.6173   23.7798  -28.5645 H   0  0  0  0  0  0  0  0  0  0  0  0
   -2.0757   22.6906  -29.8862 H   0  0  0  0  0  0  0  0  0  0  0  0
   -1.5815   24.4175  -29.8862 H   0  0  0  0  0  0  0  0  0  0  0  0
   -4.9690   22.6519  -31.1474 H   0  0  0  0  0  0  0  0  0  0  0  0
   -3.9565   23.5692  -32.3933 H   0  0  0  0  0  0  0  0  0  0  0  0
   -1.9907   22.2166  -31.5557 H   0  0  0  0  0  0  0  0  0  0  0  0
   -3.2655   21.1455  -30.7695 H   0  0  0  0  0  0  0  0  0  0  0  0
   -2.4212   21.3518  -33.6050 H   0  0  0  0  0  0  0  0  0  0  0  0
   -3.0903   19.9668  -32.6450 H   0  0  0  0  0  0  0  0  0  0  0  0
   -4.6500   22.0930  -34.0790 H   0  0  0  0  0  0  0  0  0  0  0  0
   -3.6357   18.9681  -34.0084 H   0  0  0  0  0  0  0  0  0  0  0  0
   -3.7168   16.5295  -34.4737 H   0  0  0  0  0  0  0  0  0  0  0  0
   -5.8136   15.2528  -34.0784 H   0  0  0  0  0  0  0  0  0  0  0  0
   -7.8161   16.3898  -33.1494 H   0  0  0  0  0  0  0  0  0  0  0  0
   -9.0296   18.2017  -30.7640 H   0  0  0  0  0  0  0  0  0  0  0  0
  -10.0267   18.5895  -32.2070 H   0  0  0  0  0  0  0  0  0  0  0  0
   -8.9748   17.1333  -32.2070 H   0  0  0  0  0  0  0  0  0  0  0  0
  -10.1057   20.4963  -31.8302 H   0  0  0  0  0  0  0  0  0  0  0  0
  -10.0847   22.9544  -31.4777 H   0  0  0  0  0  0  0  0  0  0  0  0
   -7.9646   24.2347  -31.7144 H   0  0  0  0  0  0  0  0  0  0  0  0
   -5.8865   23.0811  -32.4417 H   0  0  0  0  0  0  0  0  0  0  0  0
  1  2  1  0
  2  3  1  0
  3  4  1  0
  3  5  1  0
  5  6  1  0
  6  7  1  0
  7  8  1  0
  8  9  1  0
  9 10  2  0
 10 11  1  0
 11 12  2  0
 12 13  1  0
 13 14  2  0
 14 15  1  0
 15 16  2  0
 16 17  1  0
 16 18  1  0
 18 19  2  0
 19 20  1  0
 20 21  2  0
 21 22  1  0
 22 23  2  0
 23  9  1  0
 15 10  1  0
 23 18  1  0
  1 24  1  0
  1 25  1  0
  1 26  1  0
  2 27  1  0
  2 28  1  0
  4 29  1  0
  4 30  1  0
  4 31  1  0
  5 32  1  0
  5 33  1  0
  6 34  1  0
  6 35  1  0
  7 36  1  0
  7 37  1  0
  8 38  1  0
 11 39  1  0
 12 40  1  0
 13 41  1  0
 14 42  1  0
 17 43  1  0
 17 44  1  0
 17 45  1  0
 19 46  1  0
 20 47  1  0
 21 48  1  0
 22 49  1  0
M  CHG  1  16   1
M  END
>  <UniqueID>  (43) 
41

>  <SMILES>  (43) 
CCN(C)CCCNc1c2ccccc2[n+](C)c2ccccc12

>  <Energy>  (43) 
78.40211106163527

>  <Genealogy>  (43) 
CCN(C)CCCNc1c2ccccc2[n+](C)c2ccccc12 (3D coordinates assigned)
CCN(C)CCCNc1c2ccccc2[n+](C)c2ccccc12 (optimized conformer: 78.40211106163527 kcal/mol)

>  <smiles>  (43) 
CCN(C)CCCNc1c2ccccc2[n+](C)c2ccccc12

>  <score_type>  (43) 
oracle

>  <origin>  (43) 
adg

>  <m_score__min__energy>  (43) 
-8.5999999999999996

>  <m_primary>  (43) 
energy

$$$$
43:0
     RDKit          3D

 74 79  0  0  0  0  0  0  0  0999 V2000
    3.1910   19.1520  -32.9000 C   0  0  0  0  0  0  0  0  0  0  0  0
    1.9410   19.5060  -33.4800 O   0  0  0  0  0  0  0  0  0  0  0  0
    1.7410   20.5940  -34.3420 C   0  0  0  0  0  0  0  0  0  0  0  0
    2.7560   21.5340  -34.6090 C   0  0  0  0  0  0  0  0  0  0  0  0
    2.5090   22.6140  -35.4560 C   0  0  0  0  0  0  0  0  0  0  0  0
    1.2540   22.7740  -36.0430 C   0  0  0  0  0  0  0  0  0  0  0  0
    0.2410   21.8470  -35.7920 C   0  0  0  0  0  0  0  0  0  0  0  0
    0.4820   20.7530  -34.9510 C   0  0  0  0  0  0  0  0  0  0  0  0
   -0.6020   19.7870  -34.6830 C   0  0  0  0  0  0  0  0  0  0  0  0
   -0.5410   18.4850  -35.2250 C   0  0  0  0  0  0  0  0  0  0  0  0
    0.5490   18.0620  -36.0580 N   0  0  0  0  0  0  0  0  0  0  0  0
    1.5400   17.1010  -35.5760 C   0  0  0  0  0  0  0  0  0  0  0  0
    2.9420   17.5660  -35.9900 C   0  0  0  0  0  0  0  0  0  0  0  0
    2.9960   17.8340  -37.3750 O   0  0  0  0  0  0  0  0  0  0  0  0
    2.1500   18.9240  -37.6900 C   0  0  0  0  0  0  0  0  0  0  0  0
    0.6840   18.5730  -37.4200 C   0  0  0  0  0  0  0  0  0  0  0  0
   -1.5410   17.6040  -34.9670 N   0  0  0  0  0  0  0  0  0  0  0  0
   -2.6320   17.9240  -34.2240 C   0  0  0  0  0  0  0  0  0  0  0  0
   -3.6280   16.9200  -34.0010 N   0  0  0  0  0  0  0  0  0  0  0  0
   -4.9560   17.1510  -34.5800 C   0  0  0  0  0  0  0  0  0  0  0  0
   -5.9520   16.0880  -34.1360 C   0  0  0  0  0  0  0  0  0  0  0  0
   -5.8170   15.8700  -32.7490 O   0  0  0  0  0  0  0  0  0  0  0  0
   -4.6280   15.1490  -32.5160 C   0  0  0  0  0  0  0  0  0  0  0  0
   -3.3730   15.9510  -32.9180 C   0  0  0  0  0  0  0  0  0  0  0  0
   -2.7640   19.2180  -33.6890 C   0  0  0  0  0  0  0  0  0  0  0  0
   -1.7130   20.1450  -33.8780 C   0  0  0  0  0  0  0  0  0  0  0  0
   -1.8050   21.5340  -33.2860 C   0  0  0  0  0  0  0  0  0  0  0  0
   -2.9170   21.6560  -32.2390 C   0  0  0  0  0  0  0  0  0  0  0  0
   -4.1630   21.0420  -32.7360 N   0  0  2  0  0  0  0  0  0  0  0  0
   -5.2890   21.3570  -31.8220 C   0  0  0  0  0  0  0  0  0  0  0  0
   -6.4430   20.4040  -32.0270 C   0  0  0  0  0  0  0  0  0  0  0  0
   -7.5930   20.8160  -32.7170 C   0  0  0  0  0  0  0  0  0  0  0  0
   -8.6770   19.9430  -32.8560 C   0  0  0  0  0  0  0  0  0  0  0  0
   -8.6200   18.6580  -32.3100 C   0  0  0  0  0  0  0  0  0  0  0  0
   -7.4810   18.2430  -31.6210 C   0  0  0  0  0  0  0  0  0  0  0  0
   -6.3970   19.1150  -31.4730 C   0  0  0  0  0  0  0  0  0  0  0  0
   -3.9790   19.5780  -32.8610 C   0  0  0  0  0  0  0  0  0  0  0  0
    3.1064   19.1760  -31.8035 H   0  0  0  0  0  0  0  0  0  0  0  0
    3.4718   18.1390  -33.2240 H   0  0  0  0  0  0  0  0  0  0  0  0
    3.9613   19.8673  -33.2240 H   0  0  0  0  0  0  0  0  0  0  0  0
    3.7474   21.4155  -34.1474 H   0  0  0  0  0  0  0  0  0  0  0  0
    3.3071   23.3425  -35.6619 H   0  0  0  0  0  0  0  0  0  0  0  0
    1.0622   23.6317  -36.7045 H   0  0  0  0  0  0  0  0  0  0  0  0
   -0.7483   21.9758  -36.2554 H   0  0  0  0  0  0  0  0  0  0  0  0
    1.4840   17.0345  -34.4794 H   0  0  0  0  0  0  0  0  0  0  0  0
    1.3364   16.1121  -36.0126 H   0  0  0  0  0  0  0  0  0  0  0  0
    3.1958   18.4817  -35.4359 H   0  0  0  0  0  0  0  0  0  0  0  0
    3.6600   16.7653  -35.7590 H   0  0  0  0  0  0  0  0  0  0  0  0
    2.4328   19.7896  -37.0729 H   0  0  0  0  0  0  0  0  0  0  0  0
    2.2640   19.1605  -38.7582 H   0  0  0  0  0  0  0  0  0  0  0  0
    0.0637   19.4738  -37.5369 H   0  0  0  0  0  0  0  0  0  0  0  0
    0.3530   17.8049  -38.1345 H   0  0  0  0  0  0  0  0  0  0  0  0
   -5.3195   18.1380  -34.2578 H   0  0  0  0  0  0  0  0  0  0  0  0
   -4.8674   17.1043  -35.6754 H   0  0  0  0  0  0  0  0  0  0  0  0
   -6.9746   16.4283  -34.3562 H   0  0  0  0  0  0  0  0  0  0  0  0
   -5.7543   15.1505  -34.6764 H   0  0  0  0  0  0  0  0  0  0  0  0
   -4.5651   14.9057  -31.4451 H   0  0  0  0  0  0  0  0  0  0  0  0
   -4.6588   14.2381  -33.1319 H   0  0  0  0  0  0  0  0  0  0  0  0
   -3.0104   16.4991  -32.0359 H   0  0  0  0  0  0  0  0  0  0  0  0
   -2.6290   15.2313  -33.2901 H   0  0  0  0  0  0  0  0  0  0  0  0
   -0.8441   21.7782  -32.8094 H   0  0  0  0  0  0  0  0  0  0  0  0
   -2.0404   22.2300  -34.1046 H   0  0  0  0  0  0  0  0  0  0  0  0
   -2.6039   21.1445  -31.3169 H   0  0  0  0  0  0  0  0  0  0  0  0
   -3.1009   22.7216  -32.0372 H   0  0  0  0  0  0  0  0  0  0  0  0
   -4.3780   21.4440  -33.6810 H   0  0  0  0  0  0  0  0  0  0  0  0
   -4.9395   21.2785  -30.7820 H   0  0  0  0  0  0  0  0  0  0  0  0
   -5.6378   22.3775  -32.0384 H   0  0  0  0  0  0  0  0  0  0  0  0
   -7.6422   21.8264  -33.1490 H   0  0  0  0  0  0  0  0  0  0  0  0
   -9.5775   20.2692  -33.3970 H   0  0  0  0  0  0  0  0  0  0  0  0
   -9.4737   17.9738  -32.4237 H   0  0  0  0  0  0  0  0  0  0  0  0
   -7.4348   17.2303  -31.1940 H   0  0  0  0  0  0  0  0  0  0  0  0
   -5.5040   18.7888  -30.9196 H   0  0  0  0  0  0  0  0  0  0  0  0
   -3.8604   19.1496  -31.8548 H   0  0  0  0  0  0  0  0  0  0  0  0
   -4.8648   19.1708  -33.3704 H   0  0  0  0  0  0  0  0  0  0  0  0
  1  2  1  0
  2  3  1  0
  3  4  2  0
  4  5  1  0
  5  6  2  0
  6  7  1  0
  7  8  2  0
  8  9  1  0
  9 10  1  0
 10 11  1  0
 11 12  1  0
 12 13  1  0
 13 14  1  0
 14 15  1  0
 15 16  1  0
 10 17  2  0
 17 18  1  0
 18 19  1  0
 19 20  1  0
 20 21  1  0
 21 22  1  0
 22 23  1  0
 23 24  1  0
 18 25  2  0
 25 26  1  0
 26 27  1  0
 27 28  1  0
 28 29  1  0
 29 30  1  0
 30 31  1  0
 31 32  2  0
 32 33  1  0
 33 34  2  0
 34 35  1  0
 35 36  2  0
 29 37  1  0
  8  3  1  0
 26  9  2  0
 36 31  1  0
 16 11  1  0
 24 19  1  0
 37 25  1  0
  1 38  1  0
  1 39  1  0
  1 40  1  0
  4 41  1  0
  5 42  1  0
  6 43  1  0
  7 44  1  0
 12 45  1  0
 12 46  1  0
 13 47  1  0
 13 48  1  0
 15 49  1  0
 15 50  1  0
 16 51  1  0
 16 52  1  0
 20 53  1  0
 20 54  1  0
 21 55  1  0
 21 56  1  0
 23 57  1  0
 23 58  1  0
 24 59  1  0
 24 60  1  0
 27 61  1  0
 27 62  1  0
 28 63  1  0
 28 64  1  0
 29 65  1  6
 30 66  1  0
 30 67  1  0
 32 68  1  0
 33 69  1  0
 34 70  1  0
 35 71  1  0
 36 72  1  0
 37 73  1  0
 37 74  1  0
M  CHG  1  29   1
M  END
>  <UniqueID>  (44) 
42

>  <SMILES>  (44) 
COc1ccccc1-c1c(N2CCOCC2)nc(N2CCOCC2)c2c1CC[N@H+](Cc1ccccc1)C2

>  <Energy>  (44) 
106.47954583117837

>  <Genealogy>  (44) 
COc1ccccc1-c1c(N2CCOCC2)nc(N2CCOCC2)c2c1CC[NH+](Cc1ccccc1)C2 (protonated)
COc1ccccc1-c1c(N2CCOCC2)nc(N2CCOCC2)c2c1CC[N@H+](Cc1ccccc1)C2 (chirality)
COc1ccccc1-c1c(N2CCOCC2)nc(N2CCOCC2)c2c1CC[N@H+](Cc1ccccc1)C2 (3D coordinates assigned)
COc1ccccc1-c1c(N2CCOCC2)nc(N2CCOCC2)c2c1CC[N@H+](Cc1ccccc1)C2 (nonaromatic ring conformer: 106.47954583117837 kcal/mol)

>  <smiles>  (44) 
COc1ccccc1-c1c(N2CCOCC2)nc(N2CCOCC2)c2c1CCN(Cc1ccccc1)C2

>  <score_type>  (44) 
oracle

>  <origin>  (44) 
adg

>  <m_score__min__energy>  (44) 
-7.79

>  <m_primary>  (44) 
energy

$$$$
44:0
     RDKit          3D

 34 36  0  0  0  0  0  0  0  0999 V2000
   -9.5490   21.3210  -31.9310 C   0  0  0  0  0  0  0  0  0  0  0  0
   -8.5130   21.9200  -31.7760 C   0  0  0  0  0  0  0  0  0  0  0  0
   -7.2620   22.6070  -31.5870 C   0  0  0  0  0  0  0  0  0  0  0  0
   -7.2370   23.7620  -30.7890 C   0  0  0  0  0  0  0  0  0  0  0  0
   -6.0190   24.4500  -30.6110 C   0  0  0  0  0  0  0  0  0  0  0  0
   -5.9690   25.6840  -29.7680 C   0  0  0  0  0  0  0  0  0  0  0  0
   -4.8830   23.9960  -31.2140 N   0  0  0  0  0  0  0  0  0  0  0  0
   -4.9430   22.8790  -31.9780 C   0  0  0  0  0  0  0  0  0  0  0  0
   -3.8990   22.3260  -32.6130 N   0  0  0  0  0  0  0  0  0  0  0  0
   -4.3780   21.2520  -33.2290 N   0  0  0  0  0  0  0  0  0  0  0  0
   -5.7030   21.1790  -32.9630 C   0  0  0  0  0  0  0  0  0  0  0  0
   -6.5440   20.0320  -33.4540 C   0  0  0  0  0  0  0  0  0  0  0  0
   -5.8560   18.7490  -33.2120 N   0  0  0  0  0  0  0  0  0  0  0  0
   -6.4650   18.0160  -32.0850 C   0  0  0  0  0  0  0  0  0  0  0  0
   -5.7540   16.6710  -31.9000 C   0  0  0  0  0  0  0  0  0  0  0  0
   -5.8460   15.8910  -33.0760 O   0  0  0  0  0  0  0  0  0  0  0  0
   -5.2110   16.5640  -34.1470 C   0  0  0  0  0  0  0  0  0  0  0  0
   -5.8930   17.9100  -34.4250 C   0  0  0  0  0  0  0  0  0  0  0  0
   -6.0880   22.2030  -32.1610 N   0  0  0  0  0  0  0  0  0  0  0  0
  -10.4934   20.7750  -32.0723 H   0  0  0  0  0  0  0  0  0  0  0  0
   -8.1570   24.1260  -30.3082 H   0  0  0  0  0  0  0  0  0  0  0  0
   -5.9804   25.4024  -28.7047 H   0  0  0  0  0  0  0  0  0  0  0  0
   -5.0475   26.2423  -29.9896 H   0  0  0  0  0  0  0  0  0  0  0  0
   -6.8423   26.3151  -29.9896 H   0  0  0  0  0  0  0  0  0  0  0  0
   -7.5060   20.0336  -32.9206 H   0  0  0  0  0  0  0  0  0  0  0  0
   -6.7109   20.1490  -34.5350 H   0  0  0  0  0  0  0  0  0  0  0  0
   -6.3663   18.6114  -31.1654 H   0  0  0  0  0  0  0  0  0  0  0  0
   -7.5297   17.8393  -32.2978 H   0  0  0  0  0  0  0  0  0  0  0  0
   -4.6939   16.8518  -31.6686 H   0  0  0  0  0  0  0  0  0  0  0  0
   -6.2371   16.1261  -31.0755 H   0  0  0  0  0  0  0  0  0  0  0  0
   -4.1567   16.7406  -33.8876 H   0  0  0  0  0  0  0  0  0  0  0  0
   -5.2836   15.9388  -35.0491 H   0  0  0  0  0  0  0  0  0  0  0  0
   -5.3655   18.4249  -35.2414 H   0  0  0  0  0  0  0  0  0  0  0  0
   -6.9399   17.7340  -34.7131 H   0  0  0  0  0  0  0  0  0  0  0  0
  1  2  3  0
  2  3  1  0
  3  4  2  0
  4  5  1  0
  5  6  1  0
  5  7  2  0
  7  8  1  0
  8  9  2  0
  9 10  1  0
 10 11  2  0
 11 12  1  0
 12 13  1  0
 13 14  1  0
 14 15  1  0
 15 16  1  0
 16 17  1  0
 17 18  1  0
 11 19  1  0
 19  3  1  0
 19  8  1  0
 18 13  1  0
  1 20  1  0
  4 21  1  0
  6 22  1  0
  6 23  1  0
  6 24  1  0
 12 25  1  0
 12 26  1  0
 14 27  1  0
 14 28  1  0
 15 29  1  0
 15 30  1  0
 17 31  1  0
 17 32  1  0
 18 33  1  0
 18 34  1  0
M  END
>  <UniqueID>  (45) 
43

>  <SMILES>  (45) 
C#Cc1cc(C)nc2nnc(CN3CCOCC3)n12

>  <Energy>  (45) 
79.22106666499438

>  <Genealogy>  (45) 
C#Cc1cc(C)nc2nnc(CN3CCOCC3)n12 (3D coordinates assigned)
C#Cc1cc(C)nc2nnc(CN3CCOCC3)n12 (nonaromatic ring conformer: 79.22106666499438 kcal/mol)

>  <smiles>  (45) 
C#Cc1cc(C)nc2nnc(CN3CCOCC3)n12

>  <score_type>  (45) 
oracle

>  <origin>  (45) 
adg

>  <m_score__min__energy>  (45) 
-7.2199999999999998

>  <m_primary>  (45) 
energy

$$$$
45:0
     RDKit          3D

 53 54  0  0  0  0  0  0  0  0999 V2000
   -2.6970   20.4330  -28.4180 C   0  0  0  0  0  0  0  0  0  0  0  0
   -3.4260   20.8320  -29.5730 O   0  0  0  0  0  0  0  0  0  0  0  0
   -2.8800   20.9410  -30.8610 C   0  0  0  0  0  0  0  0  0  0  0  0
   -1.5840   20.4810  -31.1640 C   0  0  0  0  0  0  0  0  0  0  0  0
   -1.0790   20.5960  -32.4610 C   0  0  0  0  0  0  0  0  0  0  0  0
   -1.8580   21.1670  -33.4680 C   0  0  0  0  0  0  0  0  0  0  0  0
   -3.1460   21.6210  -33.1810 C   0  0  0  0  0  0  0  0  0  0  0  0
   -3.6610   21.5180  -31.8800 C   0  0  0  0  0  0  0  0  0  0  0  0
   -4.9650   22.0410  -31.5850 N   0  0  0  0  0  0  0  0  0  0  0  0
   -6.0700   21.7870  -32.5170 C   0  0  0  0  0  0  0  0  0  0  0  0
   -6.6460   20.4080  -32.3020 C   0  0  0  0  0  0  0  0  0  0  0  0
   -5.8470   19.2800  -32.5650 C   0  0  0  0  0  0  0  0  0  0  0  0
   -6.3710   17.9920  -32.4260 C   0  0  0  0  0  0  0  0  0  0  0  0
   -7.6970   17.8150  -32.0320 C   0  0  0  0  0  0  0  0  0  0  0  0
   -8.5040   18.9270  -31.7810 C   0  0  0  0  0  0  0  0  0  0  0  0
   -7.9910   20.2230  -31.9200 C   0  0  0  0  0  0  0  0  0  0  0  0
   -9.1700   21.6990  -31.5840 Br  0  0  0  0  0  0  0  0  0  0  0  0
   -5.0510   23.1450  -30.6680 C   0  0  0  0  0  0  0  0  0  0  0  0
   -5.5870   24.5950  -31.2170 S   0  0  0  0  0  0  0  0  0  0  0  0
   -4.4190   23.0520  -29.3750 N   0  0  0  0  0  0  0  0  0  0  0  0
   -4.7180   24.2190  -28.5260 C   0  0  0  0  0  0  0  0  0  0  0  0
   -3.8740   24.2310  -27.2380 C   0  0  0  0  0  0  0  0  0  0  0  0
   -2.4310   23.7720  -27.4850 C   0  0  0  0  0  0  0  0  0  0  0  0
   -1.8810   24.3460  -28.7350 N   0  0  0  0  0  0  0  0  0  0  0  0
   -1.2470   25.6450  -28.4590 C   0  0  0  0  0  0  0  0  0  0  0  0
   -0.8950   23.4390  -29.3510 C   0  0  0  0  0  0  0  0  0  0  0  0
   -3.2476   20.7344  -27.5147 H   0  0  0  0  0  0  0  0  0  0  0  0
   -2.5711   19.3402  -28.4232 H   0  0  0  0  0  0  0  0  0  0  0  0
   -1.7087   20.9160  -28.4232 H   0  0  0  0  0  0  0  0  0  0  0  0
   -0.9659   20.0285  -30.3746 H   0  0  0  0  0  0  0  0  0  0  0  0
   -0.0650   20.2357  -32.6892 H   0  0  0  0  0  0  0  0  0  0  0  0
   -1.4569   21.2593  -34.4881 H   0  0  0  0  0  0  0  0  0  0  0  0
   -3.7609   22.0621  -33.9793 H   0  0  0  0  0  0  0  0  0  0  0  0
   -6.8585   22.5366  -32.3545 H   0  0  0  0  0  0  0  0  0  0  0  0
   -5.6859   21.8524  -33.5457 H   0  0  0  0  0  0  0  0  0  0  0  0
   -4.8022   19.4130  -32.8824 H   0  0  0  0  0  0  0  0  0  0  0  0
   -5.7365   17.1163  -32.6277 H   0  0  0  0  0  0  0  0  0  0  0  0
   -8.1070   16.8005  -31.9190 H   0  0  0  0  0  0  0  0  0  0  0  0
   -9.5500   18.7840  -31.4719 H   0  0  0  0  0  0  0  0  0  0  0  0
   -3.3820   22.9890  -29.5150 H   0  0  0  0  0  0  0  0  0  0  0  0
   -4.7230   22.1790  -28.8840 H   0  0  0  0  0  0  0  0  0  0  0  0
   -4.5074   25.1357  -29.0964 H   0  0  0  0  0  0  0  0  0  0  0  0
   -5.7775   24.1636  -28.2357 H   0  0  0  0  0  0  0  0  0  0  0  0
   -3.8560   25.2548  -26.8361 H   0  0  0  0  0  0  0  0  0  0  0  0
   -4.3340   23.5291  -26.5269 H   0  0  0  0  0  0  0  0  0  0  0  0
   -1.8049   24.0930  -26.6394 H   0  0  0  0  0  0  0  0  0  0  0  0
   -2.4309   22.6762  -27.5812 H   0  0  0  0  0  0  0  0  0  0  0  0
   -1.1743   25.7939  -27.3715 H   0  0  0  0  0  0  0  0  0  0  0  0
   -0.2392   25.6621  -28.8996 H   0  0  0  0  0  0  0  0  0  0  0  0
   -1.8535   26.4500  -28.8996 H   0  0  0  0  0  0  0  0  0  0  0  0
   -0.3310   22.9202  -28.5619 H   0  0  0  0  0  0  0  0  0  0  0  0
   -1.4173   22.6991  -29.9753 H   0  0  0  0  0  0  0  0  0  0  0  0
   -0.2012   24.0211  -29.9753 H   0  0  0  0  0  0  0  0  0  0  0  0
  1  2  1  0
  2  3  1  0
  3  4  2  0
  4  5  1  0
  5  6  2  0
  6  7  1  0
  7  8  2  0
  8  9  1  0
  9 10  1  0
 10 11  1  0
 11 12  2  0
 12 13  1  0
 13 14  2  0
 14 15  1  0
 15 16  2  0
 16 17  1  0
  9 18  1  0
 18 19  2  0
 18 20  1  0
 20 21  1  0
 21 22  1  0
 22 23  1  0
 23 24  1  0
 24 25  1  0
 24 26  1  0
  8  3  1  0
 16 11  1  0
  1 27  1  0
  1 28  1  0
  1 29  1  0
  4 30  1  0
  5 31  1  0
  6 32  1  0
  7 33  1  0
 10 34  1  0
 10 35  1  0
 12 36  1  0
 13 37  1  0
 14 38  1  0
 15 39  1  0
 20 40  1  0
 20 41  1  0
 21 42  1  0
 21 43  1  0
 22 44  1  0
 22 45  1  0
 23 46  1  0
 23 47  1  0
 25 48  1  0
 25 49  1  0
 25 50  1  0
 26 51  1  0
 26 52  1  0
 26 53  1  0
M  CHG  1  20   1
M  END
>  <UniqueID>  (46) 
44

>  <SMILES>  (46) 
COc1ccccc1N(Cc1ccccc1Br)C(=S)[NH2+]CCCN(C)C

>  <Energy>  (46) 
59.76481133914028

>  <Genealogy>  (46) 
COc1ccccc1N(Cc1ccccc1Br)C(=S)[NH2+]CCCN(C)C (protonated)
COc1ccccc1N(Cc1ccccc1Br)C(=S)[NH2+]CCCN(C)C (3D coordinates assigned)
COc1ccccc1N(Cc1ccccc1Br)C(=S)[NH2+]CCCN(C)C (optimized conformer: 59.76481133914028 kcal/mol)

>  <smiles>  (46) 
COc1ccccc1N(Cc1ccccc1Br)C(=S)NCCCN(C)C

>  <score_type>  (46) 
oracle

>  <origin>  (46) 
adg

>  <m_score__min__energy>  (46) 
-8.0700000000000003

>  <m_primary>  (46) 
energy

$$$$
