0:0
     RDKit          3D

 34 36  0  0  0  0  0  0  0  0999 V2000
    1.9370   26.1400  -24.0720 C   0  0  0  0  0  0  0  0  0  0  0  0
    1.5880   24.7090  -24.4900 C   0  0  0  0  0  0  0  0  0  0  0  0
    0.2220   24.3290  -24.0940 N   0  0  0  0  0  0  0  0  0  0  0  0
   -0.6730   24.3070  -25.2280 C   0  0  0  0  0  0  0  0  0  0  0  0
   -0.6680   23.2200  -26.1170 C   0  0  0  0  0  0  0  0  0  0  0  0
   -1.5430   23.1890  -27.2050 C   0  0  0  0  0  0  0  0  0  0  0  0
   -2.4460   24.2460  -27.4290 C   0  0  0  0  0  0  0  0  0  0  0  0
   -3.3770   24.2130  -28.5840 C   0  0  0  0  0  0  0  0  0  0  0  0
   -3.0960   24.9130  -29.7190 N   0  0  0  0  0  0  0  0  0  0  0  0
   -3.9200   24.8960  -30.7670 N   0  0  0  0  0  0  0  0  0  0  0  0
   -5.0700   24.1760  -30.7360 C   0  0  0  0  0  0  0  0  0  0  0  0
   -5.9370   24.1550  -31.8340 C   0  0  0  0  0  0  0  0  0  0  0  0
   -7.1160   23.4020  -31.7710 C   0  0  0  0  0  0  0  0  0  0  0  0
   -7.4250   22.6730  -30.6160 C   0  0  0  0  0  0  0  0  0  0  0  0
   -6.5580   22.6950  -29.5170 C   0  0  0  0  0  0  0  0  0  0  0  0
   -5.3790   23.4460  -29.5770 C   0  0  0  0  0  0  0  0  0  0  0  0
   -4.5230   23.4810  -28.5250 N   0  0  0  0  0  0  0  0  0  0  0  0
   -2.4510   25.3330  -26.5350 C   0  0  0  0  0  0  0  0  0  0  0  0
   -1.5740   25.3630  -25.4470 C   0  0  0  0  0  0  0  0  0  0  0  0
    1.9535   26.2076  -22.9742 H   0  0  0  0  0  0  0  0  0  0  0  0
    2.9267   26.4074  -24.4707 H   0  0  0  0  0  0  0  0  0  0  0  0
    1.1816   26.8330  -24.4707 H   0  0  0  0  0  0  0  0  0  0  0  0
    1.6745   24.6288  -25.5837 H   0  0  0  0  0  0  0  0  0  0  0  0
    2.2874   24.0295  -23.9809 H   0  0  0  0  0  0  0  0  0  0  0  0
    0.2330   23.4000  -23.6120 H   0  0  0  0  0  0  0  0  0  0  0  0
   -0.1310   25.0290  -23.4000 H   0  0  0  0  0  0  0  0  0  0  0  0
    0.0308   22.3861  -25.9551 H   0  0  0  0  0  0  0  0  0  0  0  0
   -1.5267   22.3311  -27.8933 H   0  0  0  0  0  0  0  0  0  0  0  0
   -5.6938   24.7268  -32.7417 H   0  0  0  0  0  0  0  0  0  0  0  0
   -7.8013   23.3831  -32.6312 H   0  0  0  0  0  0  0  0  0  0  0  0
   -8.3514   22.0815  -30.5721 H   0  0  0  0  0  0  0  0  0  0  0  0
   -6.8029   22.1238  -28.6094 H   0  0  0  0  0  0  0  0  0  0  0  0
   -3.1513   26.1663  -26.6939 H   0  0  0  0  0  0  0  0  0  0  0  0
   -1.5892   26.2196  -24.7571 H   0  0  0  0  0  0  0  0  0  0  0  0
  1  2  1  0
  2  3  1  0
  3  4  1  0
  4  5  2  0
  5  6  1  0
  6  7  2  0
  7  8  1  0
  8  9  2  0
  9 10  1  0
 10 11  2  0
 11 12  1  0
 12 13  2  0
 13 14  1  0
 14 15  2  0
 15 16  1  0
 16 17  2  0
  7 18  1  0
 18 19  2  0
 19  4  1  0
 17  8  1  0
 16 11  1  0
  1 20  1  0
  1 21  1  0
  1 22  1  0
  2 23  1  0
  2 24  1  0
  3 25  1  0
  3 26  1  0
  5 27  1  0
  6 28  1  0
 12 29  1  0
 13 30  1  0
 14 31  1  0
 15 32  1  0
 18 33  1  0
 19 34  1  0
M  CHG  1   3   1
M  END
>  <UniqueID>  (1) 
1

>  <SMILES>  (1) 
CC[NH2+]c1ccc(-c2nnc3ccccc3n2)cc1

>  <Energy>  (1) 
41.02282034585173

>  <Genealogy>  (1) 
CC[NH2+]c1ccc(-c2nnc3ccccc3n2)cc1 (protonated)
CC[NH2+]c1ccc(-c2nnc3ccccc3n2)cc1 (3D coordinates assigned)
CC[NH2+]c1ccc(-c2nnc3ccccc3n2)cc1 (optimized conformer: 41.02282034585173 kcal/mol)

>  <smiles>  (1) 
CCNc1ccc(-c2nnc3ccccc3n2)cc1

>  <score_type>  (1) 
oracle

>  <origin>  (1) 
adg

>  <m_score__min__energy>  (1) 
-7.2800000000000002

>  <m_primary>  (1) 
energy

$$$$
1:0
     RDKit          3D

 46 48  0  0  0  0  0  0  0  0999 V2000
   -0.4480   19.1260  -28.9600 C   0  0  0  0  0  0  0  0  0  0  0  0
   -0.3920   18.8000  -27.4680 C   0  0  0  0  0  0  0  0  0  0  0  0
   -1.2530   19.7100  -26.6820 N   0  0  0  0  0  0  0  0  0  0  0  0
   -2.6530   19.6750  -27.1580 C   0  0  0  0  0  0  0  0  0  0  0  0
   -3.4990   18.8180  -26.2230 C   0  0  0  0  0  0  0  0  0  0  0  0
   -0.6360   21.3560  -26.6950 S   0  0  0  0  0  0  0  0  0  0  0  0
    0.8150   21.3420  -27.0890 O   0  0  0  0  0  0  0  0  0  0  0  0
   -0.7220   21.9520  -25.3160 O   0  0  0  0  0  0  0  0  0  0  0  0
   -1.5330   22.3950  -27.8080 C   0  0  0  0  0  0  0  0  0  0  0  0
   -1.4180   22.2080  -29.1930 C   0  0  0  0  0  0  0  0  0  0  0  0
   -2.1010   23.0480  -30.0760 C   0  0  0  0  0  0  0  0  0  0  0  0
   -2.9010   24.0950  -29.5840 C   0  0  0  0  0  0  0  0  0  0  0  0
   -3.6050   24.9800  -30.4650 N   0  0  0  0  0  0  0  0  0  0  0  0
   -5.0290   25.0700  -30.6020 C   0  0  0  0  0  0  0  0  0  0  0  0
   -5.5910   26.1750  -30.3920 O   0  0  0  0  0  0  0  0  0  0  0  0
   -5.8430   23.9180  -31.0350 C   0  0  0  0  0  0  0  0  0  0  0  0
   -7.2150   23.7710  -30.8250 C   0  0  0  0  0  0  0  0  0  0  0  0
   -7.5080   22.5590  -31.4170 C   0  0  0  0  0  0  0  0  0  0  0  0
   -8.7290   21.8930  -31.5120 C   0  0  0  0  0  0  0  0  0  0  0  0
   -8.7430   20.6590  -32.1810 C   0  0  0  0  0  0  0  0  0  0  0  0
   -7.5560   20.1310  -32.7280 C   0  0  0  0  0  0  0  0  0  0  0  0
   -6.3570   20.8490  -32.6010 C   0  0  0  0  0  0  0  0  0  0  0  0
   -6.3890   22.0380  -31.9450 N   0  0  0  0  0  0  0  0  0  0  0  0
   -5.3730   22.8530  -31.7280 N   0  0  0  0  0  0  0  0  0  0  0  0
   -3.0490   24.2510  -28.2000 C   0  0  0  0  0  0  0  0  0  0  0  0
   -2.3650   23.4120  -27.3170 C   0  0  0  0  0  0  0  0  0  0  0  0
   -0.6329   20.2021  -29.0935 H   0  0  0  0  0  0  0  0  0  0  0  0
    0.5095   18.8573  -29.4302 H   0  0  0  0  0  0  0  0  0  0  0  0
   -1.2609   18.5532  -29.4302 H   0  0  0  0  0  0  0  0  0  0  0  0
   -0.7322   17.7651  -27.3152 H   0  0  0  0  0  0  0  0  0  0  0  0
    0.6459   18.9254  -27.1259 H   0  0  0  0  0  0  0  0  0  0  0  0
   -3.0564   20.6981  -27.1795 H   0  0  0  0  0  0  0  0  0  0  0  0
   -2.6805   19.2425  -28.1690 H   0  0  0  0  0  0  0  0  0  0  0  0
   -3.2556   19.0645  -25.1790 H   0  0  0  0  0  0  0  0  0  0  0  0
   -4.5650   19.0165  -26.4077 H   0  0  0  0  0  0  0  0  0  0  0  0
   -3.2867   17.7546  -26.4077 H   0  0  0  0  0  0  0  0  0  0  0  0
   -0.7875   21.3967  -29.5858 H   0  0  0  0  0  0  0  0  0  0  0  0
   -2.0127   22.8898  -31.1610 H   0  0  0  0  0  0  0  0  0  0  0  0
   -7.9011   24.4589  -30.3092 H   0  0  0  0  0  0  0  0  0  0  0  0
   -9.6465   22.3183  -31.0792 H   0  0  0  0  0  0  0  0  0  0  0  0
   -9.6858   20.1008  -32.2790 H   0  0  0  0  0  0  0  0  0  0  0  0
   -7.5695   19.1632  -33.2506 H   0  0  0  0  0  0  0  0  0  0  0  0
   -5.4177   20.4599  -33.0209 H   0  0  0  0  0  0  0  0  0  0  0  0
   -4.3960   22.6930  -32.0610 H   0  0  0  0  0  0  0  0  0  0  0  0
   -3.7078   25.0389  -27.8060 H   0  0  0  0  0  0  0  0  0  0  0  0
   -2.4794   23.5495  -26.2316 H   0  0  0  0  0  0  0  0  0  0  0  0
  1  2  1  0
  2  3  1  0
  3  4  1  0
  4  5  1  0
  3  6  1  0
  6  7  2  0
  6  8  2  0
  6  9  1  0
  9 10  2  0
 10 11  1  0
 11 12  2  0
 12 13  1  0
 13 14  1  0
 14 15  2  0
 14 16  1  0
 16 17  1  0
 17 18  2  0
 18 19  1  0
 19 20  2  0
 20 21  1  0
 21 22  2  0
 22 23  1  0
 23 24  1  0
 12 25  1  0
 25 26  2  0
 26  9  1  0
 24 16  2  0
 23 18  1  0
  1 27  1  0
  1 28  1  0
  1 29  1  0
  2 30  1  0
  2 31  1  0
  4 32  1  0
  4 33  1  0
  5 34  1  0
  5 35  1  0
  5 36  1  0
 10 37  1  0
 11 38  1  0
 17 39  1  0
 19 40  1  0
 20 41  1  0
 21 42  1  0
 22 43  1  0
 24 44  1  0
 25 45  1  0
 26 46  1  0
M  CHG  2  13  -1  24   1
M  END
>  <UniqueID>  (2) 
2

>  <SMILES>  (2) 
CCN(CC)S(=O)(=O)c1ccc([N-]C(=O)c2cc3ccccn3[nH+]2)cc1

>  <Energy>  (2) 
87.00553011455048

>  <Genealogy>  (2) 
CCN(CC)S(=O)(=O)c1ccc([N-]C(=O)c2cc3ccccn3[nH+]2)cc1 (protonated)
CCN(CC)S(=O)(=O)c1ccc([N-]C(=O)c2cc3ccccn3[nH+]2)cc1 (3D coordinates assigned)
CCN(CC)S(=O)(=O)c1ccc([N-]C(=O)c2cc3ccccn3[nH+]2)cc1 (optimized conformer: 87.00553011455048 kcal/mol)

>  <smiles>  (2) 
CCN(CC)S(=O)(=O)c1ccc(NC(=O)c2cc3ccccn3n2)cc1

>  <score_type>  (2) 
oracle

>  <origin>  (2) 
adg

>  <m_score__min__energy>  (2) 
-10.050000000000001

>  <m_primary>  (2) 
energy

$$$$
2:0
     RDKit          3D

 62 66  0  0  0  0  0  0  0  0999 V2000
   -6.4520   23.7470  -31.2630 C   0  0  0  0  0  0  0  0  0  0  0  0
   -7.1460   23.0690  -32.3050 O   0  0  0  0  0  0  0  0  0  0  0  0
   -7.2610   21.6720  -32.4090 C   0  0  0  0  0  0  0  0  0  0  0  0
   -6.3230   20.9020  -33.1170 C   0  0  0  0  0  0  0  0  0  0  0  0
   -6.4170   19.5020  -33.1650 C   0  0  0  0  0  0  0  0  0  0  0  0
   -5.1340   18.5900  -33.9860 S   0  0  0  0  0  0  0  0  0  0  0  0
   -5.6010   18.0880  -35.3260 O   0  0  0  0  0  0  0  0  0  0  0  0
   -4.7410   17.4030  -33.1540 O   0  0  0  0  0  0  0  0  0  0  0  0
   -3.7610   19.6310  -34.1940 N   0  0  0  0  0  0  0  0  0  0  0  0
   -2.9980   20.1630  -33.1050 C   0  0  0  0  0  0  0  0  0  0  0  0
   -1.7870   19.5740  -32.7000 C   0  0  0  0  0  0  0  0  0  0  0  0
   -1.0210   20.1490  -31.6850 C   0  0  0  0  0  0  0  0  0  0  0  0
   -1.4500   21.3220  -31.0600 C   0  0  0  0  0  0  0  0  0  0  0  0
   -0.6760   21.9010  -30.0990 N   0  0  0  0  0  0  0  0  0  0  0  0
   -1.0820   23.0610  -29.5290 C   0  0  0  0  0  0  0  0  0  0  0  0
   -0.2780   23.9450  -28.3570 S   0  0  0  0  0  0  0  0  0  0  0  0
   -1.4910   25.1440  -28.3640 C   0  0  0  0  0  0  0  0  0  0  0  0
   -1.5050   26.2120  -27.6240 N   0  0  0  0  0  0  0  0  0  0  0  0
   -1.7800   26.2640  -26.2160 C   0  0  0  0  0  0  0  0  0  0  0  0
   -2.8110   25.6880  -25.7790 O   0  0  0  0  0  0  0  0  0  0  0  0
   -0.9370   27.0960  -25.2710 C   0  0  0  0  0  0  0  0  0  0  0  0
    0.3460   27.6180  -25.9730 C   0  0  0  0  0  0  0  0  0  0  0  0
    1.5170   27.8730  -25.0020 C   0  0  0  0  0  0  0  0  0  0  0  0
    1.0230   28.2760  -23.6080 C   0  0  0  0  0  0  0  0  0  0  0  0
    0.1480   27.1740  -22.9680 C   0  0  0  0  0  0  0  0  0  0  0  0
   -0.5870   26.2960  -24.0020 C   0  0  0  0  0  0  0  0  0  0  0  0
   -2.5000   24.8580  -29.2250 N   0  0  0  0  0  0  0  0  0  0  0  0
   -2.2570   23.6950  -29.8800 C   0  0  0  0  0  0  0  0  0  0  0  0
   -3.0900   23.1250  -30.8400 C   0  0  0  0  0  0  0  0  0  0  0  0
   -2.6820   21.9210  -31.4510 C   0  0  0  0  0  0  0  0  0  0  0  0
   -3.4540   21.3200  -32.4570 C   0  0  0  0  0  0  0  0  0  0  0  0
   -7.4790   18.8580  -32.4870 C   0  0  0  0  0  0  0  0  0  0  0  0
   -7.6220   17.3580  -32.4790 C   0  0  0  0  0  0  0  0  0  0  0  0
   -8.4410   19.6330  -31.8180 C   0  0  0  0  0  0  0  0  0  0  0  0
   -8.3420   21.0310  -31.7800 C   0  0  0  0  0  0  0  0  0  0  0  0
   -9.3520   21.8340  -31.0070 C   0  0  0  0  0  0  0  0  0  0  0  0
   -6.8162   23.3912  -30.2879 H   0  0  0  0  0  0  0  0  0  0  0  0
   -5.3742   23.5444  -31.3480 H   0  0  0  0  0  0  0  0  0  0  0  0
   -6.6294   24.8293  -31.3480 H   0  0  0  0  0  0  0  0  0  0  0  0
   -5.4991   21.4057  -33.6438 H   0  0  0  0  0  0  0  0  0  0  0  0
   -1.4401   18.6512  -33.1879 H   0  0  0  0  0  0  0  0  0  0  0  0
   -0.0766   19.6770  -31.3763 H   0  0  0  0  0  0  0  0  0  0  0  0
   -1.5312   27.9714  -24.9698 H   0  0  0  0  0  0  0  0  0  0  0  0
    0.6652   26.8716  -26.7153 H   0  0  0  0  0  0  0  0  0  0  0  0
    0.0924   28.5834  -26.4353 H   0  0  0  0  0  0  0  0  0  0  0  0
    2.1148   26.9537  -24.9159 H   0  0  0  0  0  0  0  0  0  0  0  0
    2.1202   28.7006  -25.4035 H   0  0  0  0  0  0  0  0  0  0  0  0
    1.8935   28.4598  -22.9612 H   0  0  0  0  0  0  0  0  0  0  0  0
    0.4090   29.1827  -23.7119 H   0  0  0  0  0  0  0  0  0  0  0  0
    0.7945   26.5263  -22.3577 H   0  0  0  0  0  0  0  0  0  0  0  0
   -0.6217   27.6797  -22.3665 H   0  0  0  0  0  0  0  0  0  0  0  0
    0.0606   25.4510  -24.2788 H   0  0  0  0  0  0  0  0  0  0  0  0
   -1.5234   25.9381  -23.5491 H   0  0  0  0  0  0  0  0  0  0  0  0
   -4.0423   23.6020  -31.1148 H   0  0  0  0  0  0  0  0  0  0  0  0
   -4.4224   21.7590  -32.7389 H   0  0  0  0  0  0  0  0  0  0  0  0
   -7.6563   16.9985  -31.4400 H   0  0  0  0  0  0  0  0  0  0  0  0
   -8.5512   17.0755  -32.9956 H   0  0  0  0  0  0  0  0  0  0  0  0
   -6.7630   16.9050  -32.9956 H   0  0  0  0  0  0  0  0  0  0  0  0
   -9.2843   19.1356  -31.3166 H   0  0  0  0  0  0  0  0  0  0  0  0
   -9.1810   21.6981  -29.9289 H   0  0  0  0  0  0  0  0  0  0  0  0
   -9.2479   22.8986  -31.2634 H   0  0  0  0  0  0  0  0  0  0  0  0
  -10.3657   21.4926  -31.2634 H   0  0  0  0  0  0  0  0  0  0  0  0
  1  2  1  0
  2  3  1  0
  3  4  2  0
  4  5  1  0
  5  6  1  0
  6  7  2  0
  6  8  2  0
  6  9  1  0
  9 10  1  0
 10 11  2  0
 11 12  1  0
 12 13  2  0
 13 14  1  0
 14 15  2  0
 15 16  1  0
 16 17  1  0
 17 18  2  3
 18 19  1  0
 19 20  2  0
 19 21  1  0
 21 22  1  0
 22 23  1  0
 23 24  1  0
 24 25  1  0
 25 26  1  0
 17 27  1  0
 27 28  1  0
 28 29  2  0
 29 30  1  0
 30 31  2  0
  5 32  2  0
 32 33  1  0
 32 34  1  0
 34 35  2  0
 35 36  1  0
 35  3  1  0
 31 10  1  0
 30 13  1  0
 28 15  1  0
 26 21  1  0
  1 37  1  0
  1 38  1  0
  1 39  1  0
  4 40  1  0
 11 41  1  0
 12 42  1  0
 21 43  1  0
 22 44  1  0
 22 45  1  0
 23 46  1  0
 23 47  1  0
 24 48  1  0
 24 49  1  0
 25 50  1  0
 25 51  1  0
 26 52  1  0
 26 53  1  0
 29 54  1  0
 31 55  1  0
 33 56  1  0
 33 57  1  0
 33 58  1  0
 34 59  1  0
 36 60  1  0
 36 61  1  0
 36 62  1  0
M  CHG  2   9  -1  27  -1
M  END
>  <UniqueID>  (3) 
3

>  <SMILES>  (3) 
COc1cc(S(=O)(=O)[N-]c2ccc3nc4sc(=NC(=O)C5CCCCC5)[n-]c4cc3c2)c(C)cc1C

>  <Energy>  (3) 
119.54836235948831

>  <Genealogy>  (3) 
COc1cc(S(=O)(=O)[N-]c2ccc3nc4sc(=NC(=O)C5CCCCC5)[n-]c4cc3c2)c(C)cc1C (protonated)
COc1cc(S(=O)(=O)[N-]c2ccc3nc4sc(=NC(=O)C5CCCCC5)[n-]c4cc3c2)c(C)cc1C (3D coordinates assigned)
COc1cc(S(=O)(=O)[N-]c2ccc3nc4sc(=NC(=O)C5CCCCC5)[n-]c4cc3c2)c(C)cc1C (nonaromatic ring conformer: 119.54836235948831 kcal/mol)

>  <smiles>  (3) 
COc1cc(S(=O)(=O)Nc2ccc3nc4sc(=NC(=O)C5CCCCC5)[nH]c4cc3c2)c(C)cc1C

>  <score_type>  (3) 
oracle

>  <origin>  (3) 
adg

>  <m_score__min__energy>  (3) 
-12.789999999999999

>  <m_primary>  (3) 
energy

$$$$
3:0
     RDKit          3D

 53 54  0  0  0  0  0  0  0  0999 V2000
   -1.6090   25.7380  -28.9840 N   0  0  0  0  0  0  0  0  0  0  0  0
   -2.4600   24.6050  -28.8180 C   0  0  0  0  0  0  0  0  0  0  0  0
   -2.1150   23.6730  -28.0420 O   0  0  0  0  0  0  0  0  0  0  0  0
   -3.7300   24.5200  -29.5460 C   0  0  0  0  0  0  0  0  0  0  0  0
   -4.7640   23.6470  -29.2800 C   0  0  0  0  0  0  0  0  0  0  0  0
   -5.7390   23.8950  -30.1690 N   0  0  0  0  0  0  0  0  0  0  0  0
   -7.0030   23.1770  -30.3100 C   0  0  0  0  0  0  0  0  0  0  0  0
   -7.6630   23.5310  -31.6460 C   0  0  0  0  0  0  0  0  0  0  0  0
   -8.9350   22.7100  -31.9250 C   0  0  0  0  0  0  0  0  0  0  0  0
   -8.9640   21.3440  -31.2060 C   0  0  0  0  0  0  0  0  0  0  0  0
   -8.1200   20.2830  -31.9330 C   0  0  0  0  0  0  0  0  0  0  0  0
   -8.5810   18.8440  -31.6390 C   0  0  0  0  0  0  0  0  0  0  0  0
   -7.7880   17.7340  -32.3590 C   0  0  0  0  0  0  0  0  0  0  0  0
   -6.2720   17.7290  -32.0980 C   0  0  0  0  0  0  0  0  0  0  0  0
   -5.4420   17.9920  -33.3620 C   0  0  0  0  0  0  0  0  0  0  0  0
   -6.0190   19.1230  -34.2240 C   0  0  0  0  0  0  0  0  0  0  0  0
   -5.6980   20.4070  -33.6830 O   0  0  0  0  0  0  0  0  0  0  0  0
   -4.6040   20.7170  -32.8550 C   0  0  0  0  0  0  0  0  0  0  0  0
   -3.4210   21.1440  -33.4720 C   0  0  0  0  0  0  0  0  0  0  0  0
   -2.2950   21.4680  -32.7090 C   0  0  0  0  0  0  0  0  0  0  0  0
   -2.3430   21.3700  -31.3160 C   0  0  0  0  0  0  0  0  0  0  0  0
   -0.9300   21.7740  -30.3580 Cl  0  0  0  0  0  0  0  0  0  0  0  0
   -3.5190   20.9500  -30.6880 C   0  0  0  0  0  0  0  0  0  0  0  0
   -4.6460   20.6260  -31.4480 C   0  0  0  0  0  0  0  0  0  0  0  0
   -5.2810   24.8850  -30.9590 C   0  0  0  0  0  0  0  0  0  0  0  0
   -4.0470   25.3010  -30.6020 N   0  0  0  0  0  0  0  0  0  0  0  0
   -1.2460   26.0010  -29.9270 H   0  0  0  0  0  0  0  0  0  0  0  0
   -4.7859   22.8869  -28.4852 H   0  0  0  0  0  0  0  0  0  0  0  0
   -6.8124   22.0942  -30.2739 H   0  0  0  0  0  0  0  0  0  0  0  0
   -7.6750   23.4662  -29.4886 H   0  0  0  0  0  0  0  0  0  0  0  0
   -7.9303   24.5979  -31.6330 H   0  0  0  0  0  0  0  0  0  0  0  0
   -6.9402   23.2983  -32.4418 H   0  0  0  0  0  0  0  0  0  0  0  0
   -9.8054   23.2952  -31.5934 H   0  0  0  0  0  0  0  0  0  0  0  0
   -8.9535   22.5043  -33.0054 H   0  0  0  0  0  0  0  0  0  0  0  0
   -8.5698   21.4722  -30.1871 H   0  0  0  0  0  0  0  0  0  0  0  0
  -10.0064   20.9931  -31.1925 H   0  0  0  0  0  0  0  0  0  0  0  0
   -8.1917   20.4598  -33.0163 H   0  0  0  0  0  0  0  0  0  0  0  0
   -7.0863   20.3785  -31.5693 H   0  0  0  0  0  0  0  0  0  0  0  0
   -8.4941   18.6747  -30.5556 H   0  0  0  0  0  0  0  0  0  0  0  0
   -9.6117   18.7733  -32.0168 H   0  0  0  0  0  0  0  0  0  0  0  0
   -8.1913   16.7637  -32.0337 H   0  0  0  0  0  0  0  0  0  0  0  0
   -7.9090   17.9254  -33.4354 H   0  0  0  0  0  0  0  0  0  0  0  0
   -6.0415   18.5106  -31.3591 H   0  0  0  0  0  0  0  0  0  0  0  0
   -6.0055   16.7259  -31.7337 H   0  0  0  0  0  0  0  0  0  0  0  0
   -4.4197   18.2650  -33.0614 H   0  0  0  0  0  0  0  0  0  0  0  0
   -5.4562   17.0730  -33.9663 H   0  0  0  0  0  0  0  0  0  0  0  0
   -5.6018   19.0478  -35.2390 H   0  0  0  0  0  0  0  0  0  0  0  0
   -7.1139   19.0194  -34.2433 H   0  0  0  0  0  0  0  0  0  0  0  0
   -3.3775   21.2252  -34.5681 H   0  0  0  0  0  0  0  0  0  0  0  0
   -1.3713   21.8001  -33.2054 H   0  0  0  0  0  0  0  0  0  0  0  0
   -3.5575   20.8742  -29.5913 H   0  0  0  0  0  0  0  0  0  0  0  0
   -5.5692   20.2988  -30.9473 H   0  0  0  0  0  0  0  0  0  0  0  0
   -5.8488   25.3075  -31.8011 H   0  0  0  0  0  0  0  0  0  0  0  0
  1  2  1  0
  2  3  2  0
  2  4  1  0
  4  5  2  0
  5  6  1  0
  6  7  1  0
  7  8  1  0
  8  9  1  0
  9 10  1  0
 10 11  1  0
 11 12  1  0
 12 13  1  0
 13 14  1  0
 14 15  1  0
 15 16  1  0
 16 17  1  0
 17 18  1  0
 18 19  2  0
 19 20  1  0
 20 21  2  0
 21 22  1  0
 21 23  1  0
 23 24  2  0
  6 25  1  0
 25 26  2  0
 26  4  1  0
 24 18  1  0
  1 27  1  0
  5 28  1  0
  7 29  1  0
  7 30  1  0
  8 31  1  0
  8 32  1  0
  9 33  1  0
  9 34  1  0
 10 35  1  0
 10 36  1  0
 11 37  1  0
 11 38  1  0
 12 39  1  0
 12 40  1  0
 13 41  1  0
 13 42  1  0
 14 43  1  0
 14 44  1  0
 15 45  1  0
 15 46  1  0
 16 47  1  0
 16 48  1  0
 19 49  1  0
 20 50  1  0
 23 51  1  0
 24 52  1  0
 25 53  1  0
M  CHG  1   1  -1
M  END
>  <UniqueID>  (4) 
4

>  <SMILES>  (4) 
[NH-]C(=O)c1cn(CCCCCCCCCCOc2ccc(Cl)cc2)cn1

>  <Energy>  (4) 
67.52239031532015

>  <Genealogy>  (4) 
[NH-]C(=O)c1cn(CCCCCCCCCCOc2ccc(Cl)cc2)cn1 (protonated)
[NH-]C(=O)c1cn(CCCCCCCCCCOc2ccc(Cl)cc2)cn1 (3D coordinates assigned)
[NH-]C(=O)c1cn(CCCCCCCCCCOc2ccc(Cl)cc2)cn1 (optimized conformer: 67.52239031532015 kcal/mol)

>  <smiles>  (4) 
NC(=O)c1cn(CCCCCCCCCCOc2ccc(Cl)cc2)cn1

>  <score_type>  (4) 
oracle

>  <origin>  (4) 
adg

>  <m_score__min__energy>  (4) 
-10.65

>  <m_primary>  (4) 
energy

$$$$
4:0
     RDKit          3D

 27 29  0  0  0  0  0  0  0  0999 V2000
   -6.8290   15.8120  -34.2180 C   0  0  0  0  0  0  0  0  0  0  0  0
   -6.6170   17.1810  -33.6420 C   0  0  0  0  0  0  0  0  0  0  0  0
   -5.8830   18.1410  -34.3520 C   0  0  0  0  0  0  0  0  0  0  0  0
   -5.7160   19.4280  -33.8330 C   0  0  0  0  0  0  0  0  0  0  0  0
   -6.2980   19.7830  -32.6050 C   0  0  0  0  0  0  0  0  0  0  0  0
   -6.1120   21.1090  -32.0740 N   0  0  0  0  0  0  0  0  0  0  0  0
   -4.7510   22.0540  -32.2980 S   0  0  0  0  0  0  0  0  0  0  0  0
   -5.2540   23.3830  -31.4310 C   0  0  0  0  0  0  0  0  0  0  0  0
   -4.6050   24.5500  -31.2080 N   0  0  0  0  0  0  0  0  0  0  0  0
   -5.2200   25.5160  -30.4670 C   0  0  0  0  0  0  0  0  0  0  0  0
   -6.5140   25.3050  -29.9450 C   0  0  0  0  0  0  0  0  0  0  0  0
   -7.1770   24.0890  -30.1880 C   0  0  0  0  0  0  0  0  0  0  0  0
   -6.5210   23.1180  -30.9450 C   0  0  0  0  0  0  0  0  0  0  0  0
   -6.9870   21.8410  -31.3190 C   0  0  0  0  0  0  0  0  0  0  0  0
   -8.1350   21.4210  -31.0100 O   0  0  0  0  0  0  0  0  0  0  0  0
   -7.0390   18.8190  -31.8980 C   0  0  0  0  0  0  0  0  0  0  0  0
   -7.2040   17.5310  -32.4180 C   0  0  0  0  0  0  0  0  0  0  0  0
   -6.9417   15.0839  -33.4012 H   0  0  0  0  0  0  0  0  0  0  0  0
   -7.7379   15.8116  -34.8376 H   0  0  0  0  0  0  0  0  0  0  0  0
   -5.9628   15.5367  -34.8376 H   0  0  0  0  0  0  0  0  0  0  0  0
   -5.4361   17.8802  -35.3227 H   0  0  0  0  0  0  0  0  0  0  0  0
   -5.1241   20.1687  -34.3907 H   0  0  0  0  0  0  0  0  0  0  0  0
   -4.7029   26.4676  -30.2747 H   0  0  0  0  0  0  0  0  0  0  0  0
   -7.0029   26.0900  -29.3494 H   0  0  0  0  0  0  0  0  0  0  0  0
   -8.1869   23.9080  -29.7914 H   0  0  0  0  0  0  0  0  0  0  0  0
   -7.4917   19.0796  -30.9299 H   0  0  0  0  0  0  0  0  0  0  0  0
   -7.7974   16.7890  -31.8637 H   0  0  0  0  0  0  0  0  0  0  0  0
  1  2  1  0
  2  3  2  0
  3  4  1  0
  4  5  2  0
  5  6  1  0
  6  7  1  0
  7  8  1  0
  8  9  2  0
  9 10  1  0
 10 11  2  0
 11 12  1  0
 12 13  2  0
 13 14  1  0
 14 15  2  0
  5 16  1  0
 16 17  2  0
 17  2  1  0
 14  6  1  0
 13  8  1  0
  1 18  1  0
  1 19  1  0
  1 20  1  0
  3 21  1  0
  4 22  1  0
 10 23  1  0
 11 24  1  0
 12 25  1  0
 16 26  1  0
 17 27  1  0
M  END
>  <UniqueID>  (5) 
5

>  <SMILES>  (5) 
Cc1ccc(-n2sc3ncccc3c2=O)cc1

>  <Energy>  (5) 
76.11804300481975

>  <Genealogy>  (5) 
Cc1ccc(-n2sc3ncccc3c2=O)cc1 (3D coordinates assigned)
Cc1ccc(-n2sc3ncccc3c2=O)cc1 (optimized conformer: 76.11804300481975 kcal/mol)

>  <smiles>  (5) 
Cc1ccc(-n2sc3ncccc3c2=O)cc1

>  <score_type>  (5) 
oracle

>  <origin>  (5) 
adg

>  <m_score__min__energy>  (5) 
-7.5899999999999999

>  <m_primary>  (5) 
energy

$$$$
5:0
     RDKit          3D

 63 66  0  0  0  0  0  0  0  0999 V2000
   -2.0090   18.3510  -32.8440 C   0  0  0  0  0  0  0  0  0  0  0  0
   -3.1980   18.8740  -33.6470 C   0  0  0  0  0  0  0  0  0  0  0  0
   -3.8490   20.0650  -33.0660 N   0  0  0  0  0  0  0  0  0  0  0  0
   -3.3060   21.3790  -33.4740 C   0  0  0  0  0  0  0  0  0  0  0  0
   -1.7740   21.4720  -33.4690 C   0  0  0  0  0  0  0  0  0  0  0  0
   -5.5920   19.9590  -32.9330 S   0  0  0  0  0  0  0  0  0  0  0  0
   -5.9910   18.6460  -32.3200 O   0  0  0  0  0  0  0  0  0  0  0  0
   -6.2120   20.0460  -34.3000 O   0  0  0  0  0  0  0  0  0  0  0  0
   -6.2050   21.2940  -31.9420 C   0  0  0  0  0  0  0  0  0  0  0  0
   -5.4310   22.4590  -31.8290 C   0  0  0  0  0  0  0  0  0  0  0  0
   -5.8400   23.5230  -31.0110 C   0  0  0  0  0  0  0  0  0  0  0  0
   -4.9960   24.7340  -30.8580 C   0  0  0  0  0  0  0  0  0  0  0  0
   -5.3930   25.8270  -31.3400 O   0  0  0  0  0  0  0  0  0  0  0  0
   -3.7140   24.6930  -30.2150 N   0  0  0  0  0  0  0  0  0  0  0  0
   -3.0990   23.5340  -29.6340 C   0  0  0  0  0  0  0  0  0  0  0  0
   -3.5860   22.9630  -28.4450 C   0  0  0  0  0  0  0  0  0  0  0  0
   -2.9860   21.8180  -27.9160 C   0  0  0  0  0  0  0  0  0  0  0  0
   -1.8870   21.2400  -28.5600 C   0  0  0  0  0  0  0  0  0  0  0  0
   -1.3050   20.1340  -28.0440 N   0  0  0  0  0  0  0  0  0  0  0  0
   -0.2400   19.5410  -28.6430 C   0  0  0  0  0  0  0  0  0  0  0  0
    0.2780   20.0620  -29.8080 N   0  0  0  0  0  0  0  0  0  0  0  0
   -0.2650   21.2040  -30.3460 C   0  0  0  0  0  0  0  0  0  0  0  0
    0.2280   21.7110  -31.3930 O   0  0  0  0  0  0  0  0  0  0  0  0
   -1.3730   21.8170  -29.7350 C   0  0  0  0  0  0  0  0  0  0  0  0
   -1.9780   22.9740  -30.2590 C   0  0  0  0  0  0  0  0  0  0  0  0
    1.4410   19.4070  -30.4450 C   0  0  0  0  0  0  0  0  0  0  0  0
    1.0680   18.0570  -31.0850 C   0  0  0  0  0  0  0  0  0  0  0  0
    0.0160   17.2400  -30.3110 C   0  0  0  0  0  0  0  0  0  0  0  0
    0.3350   17.0530  -28.8140 C   0  0  0  0  0  0  0  0  0  0  0  0
    0.3910   18.3470  -27.9680 C   0  0  0  0  0  0  0  0  0  0  0  0
   -7.0690   23.4340  -30.3430 C   0  0  0  0  0  0  0  0  0  0  0  0
   -7.8630   22.2950  -30.4730 C   0  0  0  0  0  0  0  0  0  0  0  0
   -7.4510   21.2200  -31.2760 C   0  0  0  0  0  0  0  0  0  0  0  0
   -8.3330   20.0020  -31.3680 C   0  0  0  0  0  0  0  0  0  0  0  0
   -2.2227   18.4450  -31.7691 H   0  0  0  0  0  0  0  0  0  0  0  0
   -1.8356   17.2935  -33.0923 H   0  0  0  0  0  0  0  0  0  0  0  0
   -1.1123   18.9378  -33.0923 H   0  0  0  0  0  0  0  0  0  0  0  0
   -2.8447   19.1327  -34.6561 H   0  0  0  0  0  0  0  0  0  0  0  0
   -3.9522   18.0733  -33.6493 H   0  0  0  0  0  0  0  0  0  0  0  0
   -3.6585   21.5933  -34.4937 H   0  0  0  0  0  0  0  0  0  0  0  0
   -3.6628   22.1061  -32.7297 H   0  0  0  0  0  0  0  0  0  0  0  0
   -1.4114   21.4940  -32.4307 H   0  0  0  0  0  0  0  0  0  0  0  0
   -1.3519   20.5978  -33.9864 H   0  0  0  0  0  0  0  0  0  0  0  0
   -1.4607   22.3908  -33.9864 H   0  0  0  0  0  0  0  0  0  0  0  0
   -4.4886   22.5393  -32.3907 H   0  0  0  0  0  0  0  0  0  0  0  0
   -4.4433   23.4200  -27.9291 H   0  0  0  0  0  0  0  0  0  0  0  0
   -3.3785   21.3699  -26.9912 H   0  0  0  0  0  0  0  0  0  0  0  0
   -1.5676   23.4420  -31.1660 H   0  0  0  0  0  0  0  0  0  0  0  0
    1.8385   20.0718  -31.2260 H   0  0  0  0  0  0  0  0  0  0  0  0
    2.1912   19.2152  -29.6637 H   0  0  0  0  0  0  0  0  0  0  0  0
    0.6736   18.2541  -32.0928 H   0  0  0  0  0  0  0  0  0  0  0  0
    1.9871   17.4526  -31.0872 H   0  0  0  0  0  0  0  0  0  0  0  0
   -0.9517   17.7562  -30.3954 H   0  0  0  0  0  0  0  0  0  0  0  0
    0.0045   16.2354  -30.7590 H   0  0  0  0  0  0  0  0  0  0  0  0
   -0.4399   16.4020  -28.3831 H   0  0  0  0  0  0  0  0  0  0  0  0
    1.3493   16.6290  -28.7766 H   0  0  0  0  0  0  0  0  0  0  0  0
   -0.1363   18.1652  -27.0199 H   0  0  0  0  0  0  0  0  0  0  0  0
    1.4539   18.5871  -27.8177 H   0  0  0  0  0  0  0  0  0  0  0  0
   -7.4095   24.2682  -29.7120 H   0  0  0  0  0  0  0  0  0  0  0  0
   -8.8235   22.2383  -29.9399 H   0  0  0  0  0  0  0  0  0  0  0  0
   -8.5848   19.6543  -30.3552 H   0  0  0  0  0  0  0  0  0  0  0  0
   -9.2565   20.2580  -31.9080 H   0  0  0  0  0  0  0  0  0  0  0  0
   -7.8016   19.2045  -31.9080 H   0  0  0  0  0  0  0  0  0  0  0  0
  1  2  1  0
  2  3  1  0
  3  4  1  0
  4  5  1  0
  3  6  1  0
  6  7  2  0
  6  8  2  0
  6  9  1  0
  9 10  2  0
 10 11  1  0
 11 12  1  0
 12 13  2  0
 12 14  1  0
 14 15  1  0
 15 16  2  0
 16 17  1  0
 17 18  2  0
 18 19  1  0
 19 20  2  0
 20 21  1  0
 21 22  1  0
 22 23  2  0
 22 24  1  0
 24 25  2  0
 21 26  1  0
 26 27  1  0
 27 28  1  0
 28 29  1  0
 29 30  1  0
 11 31  2  0
 31 32  1  0
 32 33  2  0
 33 34  1  0
 33  9  1  0
 25 15  1  0
 24 18  1  0
 30 20  1  0
  1 35  1  0
  1 36  1  0
  1 37  1  0
  2 38  1  0
  2 39  1  0
  4 40  1  0
  4 41  1  0
  5 42  1  0
  5 43  1  0
  5 44  1  0
 10 45  1  0
 16 46  1  0
 17 47  1  0
 25 48  1  0
 26 49  1  0
 26 50  1  0
 27 51  1  0
 27 52  1  0
 28 53  1  0
 28 54  1  0
 29 55  1  0
 29 56  1  0
 30 57  1  0
 30 58  1  0
 31 59  1  0
 32 60  1  0
 34 61  1  0
 34 62  1  0
 34 63  1  0
M  CHG  1  14  -1
M  END
>  <UniqueID>  (6) 
6

>  <SMILES>  (6) 
CCN(CC)S(=O)(=O)c1cc(C(=O)[N-]c2ccc3nc4n(c(=O)c3c2)CCCCC4)ccc1C

>  <Energy>  (6) 
91.48880346235934

>  <Genealogy>  (6) 
CCN(CC)S(=O)(=O)c1cc(C(=O)[N-]c2ccc3nc4n(c(=O)c3c2)CCCCC4)ccc1C (protonated)
CCN(CC)S(=O)(=O)c1cc(C(=O)[N-]c2ccc3nc4n(c(=O)c3c2)CCCCC4)ccc1C (3D coordinates assigned)
CCN(CC)S(=O)(=O)c1cc(C(=O)[N-]c2ccc3nc4n(c(=O)c3c2)CCCCC4)ccc1C (nonaromatic ring conformer: 91.48880346235934 kcal/mol)

>  <smiles>  (6) 
CCN(CC)S(=O)(=O)c1cc(C(=O)Nc2ccc3nc4n(c(=O)c3c2)CCCCC4)ccc1C

>  <score_type>  (6) 
oracle

>  <origin>  (6) 
adg

>  <m_score__min__energy>  (6) 
-10.81

>  <m_primary>  (6) 
energy

$$$$
6:0
     RDKit          3D

 25 27  0  0  0  0  0  0  0  0999 V2000
   -6.4910   15.7230  -34.1520 Cl  0  0  0  0  0  0  0  0  0  0  0  0
   -6.5270   17.3960  -33.6250 C   0  0  0  0  0  0  0  0  0  0  0  0
   -5.7150   18.3450  -34.2500 C   0  0  0  0  0  0  0  0  0  0  0  0
   -5.7410   19.6790  -33.8310 C   0  0  0  0  0  0  0  0  0  0  0  0
   -6.5830   20.0820  -32.7750 C   0  0  0  0  0  0  0  0  0  0  0  0
   -6.6230   21.5010  -32.3210 C   0  0  0  0  0  0  0  0  0  0  0  0
   -7.7770   22.0340  -32.0060 N   0  0  0  0  0  0  0  0  0  0  0  0
   -7.9990   23.4250  -31.5920 C   0  0  0  0  0  0  0  0  0  0  0  0
   -6.7280   24.0270  -31.1020 C   0  0  0  0  0  0  0  0  0  0  0  0
   -6.6090   25.1750  -30.4120 N   0  0  0  0  0  0  0  0  0  0  0  0
   -5.2630   25.2950  -30.3160 C   0  0  0  0  0  0  0  0  0  0  0  0
   -4.6010   24.2900  -30.9290 N   0  0  0  0  0  0  0  0  0  0  0  0
   -5.5430   23.5020  -31.4070 N   0  0  0  0  0  0  0  0  0  0  0  0
   -5.3410   22.3170  -32.2310 C   0  0  0  0  0  0  0  0  0  0  0  0
   -7.4000   19.1140  -32.1570 C   0  0  0  0  0  0  0  0  0  0  0  0
   -7.3690   17.7820  -32.5790 C   0  0  0  0  0  0  0  0  0  0  0  0
   -5.0528   18.0422  -35.0745 H   0  0  0  0  0  0  0  0  0  0  0  0
   -5.0989   20.4199  -34.3298 H   0  0  0  0  0  0  0  0  0  0  0  0
   -8.3678   24.0049  -32.4509 H   0  0  0  0  0  0  0  0  0  0  0  0
   -8.7402   23.4428  -30.7794 H   0  0  0  0  0  0  0  0  0  0  0  0
   -4.7621   26.1236  -29.7939 H   0  0  0  0  0  0  0  0  0  0  0  0
   -5.0384   22.6272  -33.2420 H   0  0  0  0  0  0  0  0  0  0  0  0
   -4.5573   21.6961  -31.7725 H   0  0  0  0  0  0  0  0  0  0  0  0
   -8.0683   19.4096  -31.3348 H   0  0  0  0  0  0  0  0  0  0  0  0
   -8.0093   17.0355  -32.0863 H   0  0  0  0  0  0  0  0  0  0  0  0
  1  2  1  0
  2  3  2  0
  3  4  1  0
  4  5  2  0
  5  6  1  0
  6  7  2  0
  7  8  1  0
  8  9  1  0
  9 10  2  0
 10 11  1  0
 11 12  2  0
 12 13  1  0
 13 14  1  0
  5 15  1  0
 15 16  2  0
 16  2  1  0
 14  6  1  0
 13  9  1  0
  3 17  1  0
  4 18  1  0
  8 19  1  0
  8 20  1  0
 11 21  1  0
 14 22  1  0
 14 23  1  0
 15 24  1  0
 16 25  1  0
M  END
>  <UniqueID>  (7) 
7

>  <SMILES>  (7) 
Clc1ccc(C2=NCc3ncnn3C2)cc1

>  <Energy>  (7) 
66.928491849655

>  <Genealogy>  (7) 
Clc1ccc(C2=NCc3ncnn3C2)cc1 (3D coordinates assigned)
Clc1ccc(C2=NCc3ncnn3C2)cc1 (nonaromatic ring conformer: 66.928491849655 kcal/mol)

>  <smiles>  (7) 
Clc1ccc(C2=NCc3ncnn3C2)cc1

>  <score_type>  (7) 
oracle

>  <origin>  (7) 
adg

>  <m_score__min__energy>  (7) 
-7.1600000000000001

>  <m_primary>  (7) 
energy

$$$$
7:0
     RDKit          3D

 58 60  0  0  0  0  0  0  0  0999 V2000
   -7.1420   13.7790  -34.6100 C   0  0  0  0  0  0  0  0  0  0  0  0
   -5.7320   13.6040  -34.0230 C   0  0  0  0  0  0  0  0  0  0  0  0
   -5.1730   14.8280  -33.3700 N   0  0  0  0  0  0  0  0  0  0  0  0
   -4.6030   14.5050  -32.0280 C   0  0  0  0  0  0  0  0  0  0  0  0
   -4.6310   13.0050  -31.7000 C   0  0  0  0  0  0  0  0  0  0  0  0
   -4.1750   15.5800  -34.2090 C   0  0  1  0  0  0  0  0  0  0  0  0
   -3.4320   14.6970  -35.2400 C   0  0  0  0  0  0  0  0  0  0  0  0
   -4.7940   16.8170  -34.9520 C   0  0  0  0  0  0  0  0  0  0  0  0
   -5.2230   17.9110  -34.0430 N   0  0  0  0  0  0  0  0  0  0  0  0
   -4.3590   18.9450  -33.7500 C   0  0  0  0  0  0  0  0  0  0  0  0
   -3.1830   18.9660  -34.2060 O   0  0  0  0  0  0  0  0  0  0  0  0
   -4.8030   19.9680  -32.9220 C   0  0  0  0  0  0  0  0  0  0  0  0
   -6.0510   19.9320  -32.4010 C   0  0  0  0  0  0  0  0  0  0  0  0
   -6.2760   21.0010  -31.6120 N   0  0  0  0  0  0  0  0  0  0  0  0
   -5.1050   21.6840  -31.7000 C   0  0  0  0  0  0  0  0  0  0  0  0
   -4.8870   22.9270  -31.0200 N   0  0  0  0  0  0  0  0  0  0  0  0
   -5.9400   23.9490  -31.0170 C   0  0  0  0  0  0  0  0  0  0  0  0
   -5.3440   25.3660  -30.8530 C   0  0  0  0  0  0  0  0  0  0  0  0
   -3.9570   25.3740  -30.5540 O   0  0  0  0  0  0  0  0  0  0  0  0
   -3.6760   24.4520  -29.5210 C   0  0  0  0  0  0  0  0  0  0  0  0
   -3.7740   23.0290  -30.0730 C   0  0  0  0  0  0  0  0  0  0  0  0
   -4.1720   21.0710  -32.4770 N   0  0  0  0  0  0  0  0  0  0  0  0
   -2.7880   21.4770  -32.7190 C   0  0  0  0  0  0  0  0  0  0  0  0
   -6.9110   18.9080  -32.6450 N   0  0  0  0  0  0  0  0  0  0  0  0
   -8.2340   18.8700  -32.0080 C   0  0  0  0  0  0  0  0  0  0  0  0
   -6.4750   17.8720  -33.4430 C   0  0  0  0  0  0  0  0  0  0  0  0
   -7.2260   16.8720  -33.6180 O   0  0  0  0  0  0  0  0  0  0  0  0
   -7.8713   13.8695  -33.7915 H   0  0  0  0  0  0  0  0  0  0  0  0
   -7.1712   14.6877  -35.2293 H   0  0  0  0  0  0  0  0  0  0  0  0
   -7.3924   12.9050  -35.2293 H   0  0  0  0  0  0  0  0  0  0  0  0
   -5.7703   12.8015  -33.2717 H   0  0  0  0  0  0  0  0  0  0  0  0
   -5.0687   13.3716  -34.8692 H   0  0  0  0  0  0  0  0  0  0  0  0
   -5.9950   15.4560  -33.2250 H   0  0  0  0  0  0  0  0  0  0  0  0
   -3.5584   14.8487  -32.0006 H   0  0  0  0  0  0  0  0  0  0  0  0
   -5.2271   15.0136  -31.2785 H   0  0  0  0  0  0  0  0  0  0  0  0
   -4.6336   12.8683  -30.6085 H   0  0  0  0  0  0  0  0  0  0  0  0
   -5.5377   12.5529  -32.1283 H   0  0  0  0  0  0  0  0  0  0  0  0
   -3.7418   12.5194  -32.1283 H   0  0  0  0  0  0  0  0  0  0  0  0
   -3.4427   15.9383  -33.4705 H   0  0  0  0  0  0  0  0  0  0  0  0
   -2.8111   13.9591  -34.7109 H   0  0  0  0  0  0  0  0  0  0  0  0
   -4.1656   14.1739  -35.8710 H   0  0  0  0  0  0  0  0  0  0  0  0
   -2.7912   15.3304  -35.8710 H   0  0  0  0  0  0  0  0  0  0  0  0
   -4.0398   17.2180  -35.6451 H   0  0  0  0  0  0  0  0  0  0  0  0
   -5.6959   16.4600  -35.4707 H   0  0  0  0  0  0  0  0  0  0  0  0
   -6.4908   23.8994  -31.9679 H   0  0  0  0  0  0  0  0  0  0  0  0
   -6.6122   23.7537  -30.1685 H   0  0  0  0  0  0  0  0  0  0  0  0
   -5.4994   25.9181  -31.7916 H   0  0  0  0  0  0  0  0  0  0  0  0
   -5.8579   25.8323  -29.9995 H   0  0  0  0  0  0  0  0  0  0  0  0
   -2.6602   24.6282  -29.1375 H   0  0  0  0  0  0  0  0  0  0  0  0
   -4.4015   24.5812  -28.7044 H   0  0  0  0  0  0  0  0  0  0  0  0
   -2.8356   22.7736  -30.5870 H   0  0  0  0  0  0  0  0  0  0  0  0
   -3.9483   22.3328  -29.2393 H   0  0  0  0  0  0  0  0  0  0  0  0
   -2.2763   21.6271  -31.7569 H   0  0  0  0  0  0  0  0  0  0  0  0
   -2.2705   20.6928  -33.2911 H   0  0  0  0  0  0  0  0  0  0  0  0
   -2.7762   22.4165  -33.2911 H   0  0  0  0  0  0  0  0  0  0  0  0
   -8.1147   18.8734  -30.9145 H   0  0  0  0  0  0  0  0  0  0  0  0
   -8.8148   19.7518  -32.3162 H   0  0  0  0  0  0  0  0  0  0  0  0
   -8.7633   17.9563  -32.3162 H   0  0  0  0  0  0  0  0  0  0  0  0
  1  2  1  0
  2  3  1  0
  3  4  1  0
  4  5  1  0
  3  6  1  0
  6  7  1  0
  6  8  1  0
  8  9  1  0
  9 10  1  0
 10 11  2  0
 10 12  1  0
 12 13  2  0
 13 14  1  0
 14 15  2  0
 15 16  1  0
 16 17  1  0
 17 18  1  0
 18 19  1  0
 19 20  1  0
 20 21  1  0
 15 22  1  0
 22 23  1  0
 13 24  1  0
 24 25  1  0
 24 26  1  0
 26 27  2  0
 26  9  1  0
 22 12  1  0
 21 16  1  0
  1 28  1  0
  1 29  1  0
  1 30  1  0
  2 31  1  0
  2 32  1  0
  3 33  1  0
  4 34  1  0
  4 35  1  0
  5 36  1  0
  5 37  1  0
  5 38  1  0
  6 39  1  1
  7 40  1  0
  7 41  1  0
  7 42  1  0
  8 43  1  0
  8 44  1  0
 17 45  1  0
 17 46  1  0
 18 47  1  0
 18 48  1  0
 20 49  1  0
 20 50  1  0
 21 51  1  0
 21 52  1  0
 23 53  1  0
 23 54  1  0
 23 55  1  0
 25 56  1  0
 25 57  1  0
 25 58  1  0
M  CHG  1   3   1
M  END
>  <UniqueID>  (8) 
8

>  <SMILES>  (8) 
CC[NH+](CC)[C@@H](C)Cn1c(=O)c2c(nc(N3CCOCC3)n2C)n(C)c1=O

>  <Energy>  (8) 
124.3265064093135

>  <Genealogy>  (8) 
CC[NH+](CC)C(C)Cn1c(=O)c2c(nc(N3CCOCC3)n2C)n(C)c1=O (protonated)
CC[NH+](CC)[C@@H](C)Cn1c(=O)c2c(nc(N3CCOCC3)n2C)n(C)c1=O (chirality)
CC[NH+](CC)[C@@H](C)Cn1c(=O)c2c(nc(N3CCOCC3)n2C)n(C)c1=O (3D coordinates assigned)
CC[NH+](CC)[C@@H](C)Cn1c(=O)c2c(nc(N3CCOCC3)n2C)n(C)c1=O (nonaromatic ring conformer: 124.3265064093135 kcal/mol)

>  <smiles>  (8) 
CCN(CC)C(C)Cn1c(=O)c2c(nc(N3CCOCC3)n2C)n(C)c1=O

>  <score_type>  (8) 
oracle

>  <origin>  (8) 
adg

>  <m_score__min__energy>  (8) 
-6.8799999999999999

>  <m_primary>  (8) 
energy

$$$$
8:0
     RDKit          3D

 35 36  0  0  0  0  0  0  0  0999 V2000
   -5.7060   16.6950  -32.3500 C   0  0  0  0  0  0  0  0  0  0  0  0
   -6.8610   16.8830  -33.3280 C   0  0  0  0  0  0  0  0  0  0  0  0
   -7.8640   17.7300  -32.7690 O   0  0  0  0  0  0  0  0  0  0  0  0
   -7.7230   19.1050  -32.5140 C   0  0  0  0  0  0  0  0  0  0  0  0
   -6.6300   19.8600  -32.9810 C   0  0  0  0  0  0  0  0  0  0  0  0
   -6.5460   21.2260  -32.7030 C   0  0  0  0  0  0  0  0  0  0  0  0
   -7.5530   21.8650  -31.9620 C   0  0  0  0  0  0  0  0  0  0  0  0
   -7.4730   23.3500  -31.6870 C   0  0  0  0  0  0  0  0  0  0  0  0
   -6.9010   23.6820  -30.3610 N   0  0  0  0  0  0  0  0  0  0  0  0
   -5.6870   22.9250  -29.9930 C   0  0  0  0  0  0  0  0  0  0  0  0
   -4.3810   23.6420  -30.4100 C   0  0  0  0  0  0  0  0  0  0  0  0
   -4.6100   24.9090  -30.9910 O   0  0  0  0  0  0  0  0  0  0  0  0
   -5.4060   25.6860  -30.1250 C   0  0  0  0  0  0  0  0  0  0  0  0
   -6.8370   25.1250  -30.0450 C   0  0  0  0  0  0  0  0  0  0  0  0
   -8.6310   21.1060  -31.4780 C   0  0  0  0  0  0  0  0  0  0  0  0
   -8.7130   19.7400  -31.7560 C   0  0  0  0  0  0  0  0  0  0  0  0
   -6.0847   16.7566  -31.3191 H   0  0  0  0  0  0  0  0  0  0  0  0
   -5.2444   15.7099  -32.5127 H   0  0  0  0  0  0  0  0  0  0  0  0
   -4.9558   17.4829  -32.5127 H   0  0  0  0  0  0  0  0  0  0  0  0
   -6.4794   17.3381  -34.2539 H   0  0  0  0  0  0  0  0  0  0  0  0
   -7.3071   15.9003  -33.5407 H   0  0  0  0  0  0  0  0  0  0  0  0
   -5.8383   19.3713  -33.5678 H   0  0  0  0  0  0  0  0  0  0  0  0
   -5.6848   21.8055  -33.0671 H   0  0  0  0  0  0  0  0  0  0  0  0
   -6.8443   23.8130  -32.4618 H   0  0  0  0  0  0  0  0  0  0  0  0
   -8.5038   23.7339  -31.6968 H   0  0  0  0  0  0  0  0  0  0  0  0
   -5.6777   22.7853  -28.9019 H   0  0  0  0  0  0  0  0  0  0  0  0
   -5.7218   21.9647  -30.5283 H   0  0  0  0  0  0  0  0  0  0  0  0
   -3.7527   23.7740  -29.5168 H   0  0  0  0  0  0  0  0  0  0  0  0
   -3.8887   23.0156  -31.1684 H   0  0  0  0  0  0  0  0  0  0  0  0
   -4.9589   25.6777  -29.1200 H   0  0  0  0  0  0  0  0  0  0  0  0
   -5.4520   26.7132  -30.5159 H   0  0  0  0  0  0  0  0  0  0  0  0
   -7.2194   25.2795  -29.0253 H   0  0  0  0  0  0  0  0  0  0  0  0
   -7.4453   25.6566  -30.7916 H   0  0  0  0  0  0  0  0  0  0  0  0
   -9.4148   21.5901  -30.8768 H   0  0  0  0  0  0  0  0  0  0  0  0
   -9.5646   19.1572  -31.3752 H   0  0  0  0  0  0  0  0  0  0  0  0
  1  2  1  0
  2  3  1  0
  3  4  1  0
  4  5  2  0
  5  6  1  0
  6  7  2  0
  7  8  1  0
  8  9  1  0
  9 10  1  0
 10 11  1  0
 11 12  1  0
 12 13  1  0
 13 14  1  0
  7 15  1  0
 15 16  2  0
 16  4  1  0
 14  9  1  0
  1 17  1  0
  1 18  1  0
  1 19  1  0
  2 20  1  0
  2 21  1  0
  5 22  1  0
  6 23  1  0
  8 24  1  0
  8 25  1  0
 10 26  1  0
 10 27  1  0
 11 28  1  0
 11 29  1  0
 13 30  1  0
 13 31  1  0
 14 32  1  0
 14 33  1  0
 15 34  1  0
 16 35  1  0
M  END
>  <UniqueID>  (9) 
9

>  <SMILES>  (9) 
CCOc1ccc(CN2CCOCC2)cc1

>  <Energy>  (9) 
46.4908228960487

>  <Genealogy>  (9) 
CCOc1ccc(CN2CCOCC2)cc1 (3D coordinates assigned)
CCOc1ccc(CN2CCOCC2)cc1 (nonaromatic ring conformer: 46.4908228960487 kcal/mol)

>  <smiles>  (9) 
CCOc1ccc(CN2CCOCC2)cc1

>  <score_type>  (9) 
oracle

>  <origin>  (9) 
adg

>  <m_score__min__energy>  (9) 
-6.5700000000000003

>  <m_primary>  (9) 
energy

$$$$
9:0
     RDKit          3D

 49 50  0  0  0  0  0  0  0  0999 V2000
   -4.0780   16.9230  -35.3100 C   0  0  0  0  0  0  0  0  0  0  0  0
   -4.3190   17.0470  -33.9120 O   0  0  0  0  0  0  0  0  0  0  0  0
   -5.4260   17.7040  -33.3520 C   0  0  0  0  0  0  0  0  0  0  0  0
   -6.5340   17.0010  -32.8420 C   0  0  0  0  0  0  0  0  0  0  0  0
   -7.6100   17.6900  -32.2800 C   0  0  0  0  0  0  0  0  0  0  0  0
   -7.6030   19.0900  -32.2240 C   0  0  0  0  0  0  0  0  0  0  0  0
   -8.7380   19.8320  -31.5670 C   0  0  0  0  0  0  0  0  0  0  0  0
   -9.1460   21.0990  -32.3390 C   0  0  0  0  0  0  0  0  0  0  0  0
   -9.1010   22.3880  -31.4930 C   0  0  0  0  0  0  0  0  0  0  0  0
   -7.8820   23.2980  -31.7510 C   0  0  0  0  0  0  0  0  0  0  0  0
   -6.5140   22.5780  -31.5730 C   0  0  2  0  0  0  0  0  0  0  0  0
   -6.1640   22.3190  -30.0940 C   0  0  0  0  0  0  0  0  0  0  0  0
   -5.3970   23.3820  -29.5680 O   0  0  0  0  0  0  0  0  0  0  0  0
   -4.1280   23.4890  -30.2150 C   0  0  2  0  0  0  0  0  0  0  0  0
   -3.1000   22.6430  -29.4510 C   0  0  0  0  0  0  0  0  0  0  0  0
   -3.6740   24.9270  -30.1570 C   0  0  0  0  0  0  0  0  0  0  0  0
   -4.2930   25.8170  -30.7980 O   0  0  0  0  0  0  0  0  0  0  0  0
   -2.6050   25.2890  -29.3440 O   0  0  0  0  0  0  0  0  0  0  0  0
   -4.1440   23.0570  -31.5770 O   0  0  0  0  0  0  0  0  0  0  0  0
   -5.3690   23.3980  -32.1930 C   0  0  0  0  0  0  0  0  0  0  0  0
   -6.5100   19.7940  -32.7490 C   0  0  0  0  0  0  0  0  0  0  0  0
   -5.4120   19.1070  -33.3010 C   0  0  0  0  0  0  0  0  0  0  0  0
   -4.2870   19.7810  -33.8010 O   0  0  0  0  0  0  0  0  0  0  0  0
   -3.3790   20.5360  -33.0050 C   0  0  0  0  0  0  0  0  0  0  0  0
   -3.1106   16.4253  -35.4726 H   0  0  0  0  0  0  0  0  0  0  0  0
   -4.8795   16.3253  -35.7687 H   0  0  0  0  0  0  0  0  0  0  0  0
   -4.0577   17.9226  -35.7687 H   0  0  0  0  0  0  0  0  0  0  0  0
   -6.5519   15.9021  -32.8867 H   0  0  0  0  0  0  0  0  0  0  0  0
   -8.4681   17.1308  -31.8789 H   0  0  0  0  0  0  0  0  0  0  0  0
   -9.6080   19.1617  -31.5062 H   0  0  0  0  0  0  0  0  0  0  0  0
   -8.3959   20.1466  -30.5700 H   0  0  0  0  0  0  0  0  0  0  0  0
   -8.4618   21.2203  -33.1918 H   0  0  0  0  0  0  0  0  0  0  0  0
  -10.1910   20.9592  -32.6526 H   0  0  0  0  0  0  0  0  0  0  0  0
  -10.0107   22.9681  -31.7072 H   0  0  0  0  0  0  0  0  0  0  0  0
   -9.0248   22.0638  -30.4446 H   0  0  0  0  0  0  0  0  0  0  0  0
   -7.9435   23.6766  -32.7820 H   0  0  0  0  0  0  0  0  0  0  0  0
   -7.9198   24.1048  -31.0042 H   0  0  0  0  0  0  0  0  0  0  0  0
   -6.6214   21.6123  -32.0887 H   0  0  0  0  0  0  0  0  0  0  0  0
   -5.5871   21.3855  -30.0178 H   0  0  0  0  0  0  0  0  0  0  0  0
   -7.0982   22.2390  -29.5187 H   0  0  0  0  0  0  0  0  0  0  0  0
   -3.2530   22.7689  -28.3690 H   0  0  0  0  0  0  0  0  0  0  0  0
   -3.2259   21.5834  -29.7183 H   0  0  0  0  0  0  0  0  0  0  0  0
   -2.0844   22.9704  -29.7183 H   0  0  0  0  0  0  0  0  0  0  0  0
   -5.3079   23.1826  -33.2700 H   0  0  0  0  0  0  0  0  0  0  0  0
   -5.5660   24.4691  -32.0382 H   0  0  0  0  0  0  0  0  0  0  0  0
   -6.5104   20.8938  -32.7294 H   0  0  0  0  0  0  0  0  0  0  0  0
   -3.5909   20.3598  -31.9401 H   0  0  0  0  0  0  0  0  0  0  0  0
   -2.3481   20.2251  -33.2300 H   0  0  0  0  0  0  0  0  0  0  0  0
   -3.4966   21.6063  -33.2300 H   0  0  0  0  0  0  0  0  0  0  0  0
  1  2  1  0
  2  3  1  0
  3  4  2  0
  4  5  1  0
  5  6  2  0
  6  7  1  0
  7  8  1  0
  8  9  1  0
  9 10  1  0
 10 11  1  0
 11 12  1  0
 12 13  1  0
 13 14  1  0
 14 15  1  1
 14 16  1  0
 16 17  2  0
 16 18  1  0
 14 19  1  0
 19 20  1  0
  6 21  1  0
 21 22  2  0
 22 23  1  0
 23 24  1  0
 22  3  1  0
 20 11  1  0
  1 25  1  0
  1 26  1  0
  1 27  1  0
  4 28  1  0
  5 29  1  0
  7 30  1  0
  7 31  1  0
  8 32  1  0
  8 33  1  0
  9 34  1  0
  9 35  1  0
 10 36  1  0
 10 37  1  0
 11 38  1  6
 12 39  1  0
 12 40  1  0
 15 41  1  0
 15 42  1  0
 15 43  1  0
 20 44  1  0
 20 45  1  0
 21 46  1  0
 24 47  1  0
 24 48  1  0
 24 49  1  0
M  CHG  1  18  -1
M  END
>  <UniqueID>  (10) 
10

>  <SMILES>  (10) 
COc1ccc(CCCCC2COC(C)(C(=O)[O-])OC2)cc1OC

>  <Energy>  (10) 
53.270719753380114

>  <Genealogy>  (10) 
COc1ccc(CCCCC2COC(C)(C(=O)[O-])OC2)cc1OC (protonated)
COc1ccc(CCCCC2COC(C)(C(=O)[O-])OC2)cc1OC (3D coordinates assigned)
COc1ccc(CCCCC2COC(C)(C(=O)[O-])OC2)cc1OC (nonaromatic ring conformer: 53.270719753380114 kcal/mol)

>  <smiles>  (10) 
COc1ccc(CCCCC2COC(C)(C(=O)O)OC2)cc1OC

>  <score_type>  (10) 
oracle

>  <origin>  (10) 
adg

>  <m_score__min__energy>  (10) 
-10.279999999999999

>  <m_primary>  (10) 
energy

$$$$
10:0
     RDKit          3D

 36 38  0  0  0  0  0  0  0  0999 V2000
   -9.1140   19.3010  -32.3410 C   0  0  0  0  0  0  0  0  0  0  0  0
   -7.6980   19.7040  -32.5820 C   0  0  0  0  0  0  0  0  0  0  0  0
   -6.7450   18.9370  -33.2460 C   0  0  0  0  0  0  0  0  0  0  0  0
   -5.6120   19.7120  -33.1480 C   0  0  0  0  0  0  0  0  0  0  0  0
   -4.3790   19.4560  -33.6510 N   0  0  0  0  0  0  0  0  0  0  0  0
   -3.3850   20.3790  -33.4700 C   0  0  0  0  0  0  0  0  0  0  0  0
   -2.0050   20.1060  -33.9850 C   0  0  0  0  0  0  0  0  0  0  0  0
   -3.6440   21.5620  -32.7430 C   0  0  0  0  0  0  0  0  0  0  0  0
   -4.9360   21.7860  -32.2280 C   0  0  0  0  0  0  0  0  0  0  0  0
   -5.2420   22.9810  -31.4780 N   0  0  0  0  0  0  0  0  0  0  0  0
   -4.3400   23.4180  -30.4010 C   0  0  0  0  0  0  0  0  0  0  0  0
   -4.4990   24.9190  -30.1360 C   0  0  0  0  0  0  0  0  0  0  0  0
   -5.9540   25.2980  -29.8040 C   0  0  0  0  0  0  0  0  0  0  0  0
   -7.0010   24.3830  -30.4690 C   0  0  0  0  0  0  0  0  0  0  0  0
   -6.4750   23.7340  -31.7520 C   0  0  0  0  0  0  0  0  0  0  0  0
   -5.8780   20.8330  -32.4660 N   0  0  0  0  0  0  0  0  0  0  0  0
   -7.1520   20.8480  -32.1090 N   0  0  0  0  0  0  0  0  0  0  0  0
   -9.3009   19.2478  -31.2583 H   0  0  0  0  0  0  0  0  0  0  0  0
   -9.7885   20.0429  -32.7935 H   0  0  0  0  0  0  0  0  0  0  0  0
   -9.2967   18.3152  -32.7935 H   0  0  0  0  0  0  0  0  0  0  0  0
   -6.8670   17.9561  -33.7287 H   0  0  0  0  0  0  0  0  0  0  0  0
   -4.2000   18.5680  -34.1730 H   0  0  0  0  0  0  0  0  0  0  0  0
   -1.3175   19.9700  -33.1372 H   0  0  0  0  0  0  0  0  0  0  0  0
   -2.0164   19.1927  -34.5980 H   0  0  0  0  0  0  0  0  0  0  0  0
   -1.6678   20.9548  -34.5980 H   0  0  0  0  0  0  0  0  0  0  0  0
   -2.8452   22.3007  -32.5806 H   0  0  0  0  0  0  0  0  0  0  0  0
   -4.5787   22.8620  -29.4824 H   0  0  0  0  0  0  0  0  0  0  0  0
   -3.3021   23.2213  -30.7077 H   0  0  0  0  0  0  0  0  0  0  0  0
   -3.8572   25.1993  -29.2878 H   0  0  0  0  0  0  0  0  0  0  0  0
   -4.2093   25.4569  -31.0508 H   0  0  0  0  0  0  0  0  0  0  0  0
   -6.0870   25.2422  -28.7135 H   0  0  0  0  0  0  0  0  0  0  0  0
   -6.1189   26.3124  -30.1962 H   0  0  0  0  0  0  0  0  0  0  0  0
   -7.2788   23.5896  -29.7596 H   0  0  0  0  0  0  0  0  0  0  0  0
   -7.8683   25.0040  -30.7374 H   0  0  0  0  0  0  0  0  0  0  0  0
   -7.2374   23.0483  -32.1501 H   0  0  0  0  0  0  0  0  0  0  0  0
   -6.2553   24.5229  -32.4864 H   0  0  0  0  0  0  0  0  0  0  0  0
  1  2  1  0
  2  3  1  0
  3  4  2  0
  4  5  1  0
  5  6  2  0
  6  7  1  0
  6  8  1  0
  8  9  2  0
  9 10  1  0
 10 11  1  0
 11 12  1  0
 12 13  1  0
 13 14  1  0
 14 15  1  0
  9 16  1  0
 16 17  1  0
 17  2  2  0
 16  4  1  0
 15 10  1  0
  1 18  1  0
  1 19  1  0
  1 20  1  0
  3 21  1  0
  5 22  1  0
  7 23  1  0
  7 24  1  0
  7 25  1  0
  8 26  1  0
 11 27  1  0
 11 28  1  0
 12 29  1  0
 12 30  1  0
 13 31  1  0
 13 32  1  0
 14 33  1  0
 14 34  1  0
 15 35  1  0
 15 36  1  0
M  CHG  1   5   1
M  END
>  <UniqueID>  (11) 
11

>  <SMILES>  (11) 
Cc1cc2[nH+]c(C)cc(N3CCCCC3)n2n1

>  <Energy>  (11) 
74.50502444481434

>  <Genealogy>  (11) 
Cc1cc2[nH+]c(C)cc(N3CCCCC3)n2n1 (protonated)
Cc1cc2[nH+]c(C)cc(N3CCCCC3)n2n1 (3D coordinates assigned)
Cc1cc2[nH+]c(C)cc(N3CCCCC3)n2n1 (nonaromatic ring conformer: 74.50502444481434 kcal/mol)

>  <smiles>  (11) 
Cc1cc(N2CCCCC2)n2nc(C)cc2n1

>  <score_type>  (11) 
oracle

>  <origin>  (11) 
adg

>  <m_score__min__energy>  (11) 
-6.3700000000000001

>  <m_primary>  (11) 
energy

$$$$
11:0
     RDKit          3D

 43 45  0  0  0  0  0  0  0  0999 V2000
   -4.8220   11.9540  -33.1030 C   0  0  0  0  0  0  0  0  0  0  0  0
   -4.7550   13.1020  -33.9420 O   0  0  0  0  0  0  0  0  0  0  0  0
   -5.2600   14.3650  -33.5970 C   0  0  0  0  0  0  0  0  0  0  0  0
   -6.3130   14.9780  -34.2990 C   0  0  0  0  0  0  0  0  0  0  0  0
   -6.7680   16.2040  -33.9240 N   0  0  0  0  0  0  0  0  0  0  0  0
   -6.2290   16.8770  -32.8650 C   0  0  0  0  0  0  0  0  0  0  0  0
   -6.7470   18.1670  -32.4880 N   0  0  0  0  0  0  0  0  0  0  0  0
   -7.8110   18.2640  -31.4750 C   0  0  0  0  0  0  0  0  0  0  0  0
   -9.0700   18.9730  -32.0010 C   0  0  0  0  0  0  0  0  0  0  0  0
   -8.7780   20.3300  -32.6680 C   0  0  0  0  0  0  0  0  0  0  0  0
   -7.6750   21.0760  -32.0280 N   0  0  0  0  0  0  0  0  0  0  0  0
   -7.9870   22.2870  -31.3050 C   0  0  0  0  0  0  0  0  0  0  0  0
   -8.9650   22.9940  -31.6700 O   0  0  0  0  0  0  0  0  0  0  0  0
   -7.1930   22.7060  -30.0930 C   0  0  0  0  0  0  0  0  0  0  0  0
   -6.0470   23.5250  -30.4730 N   0  0  0  0  0  0  0  0  0  0  0  0
   -5.9870   24.8600  -30.5800 C   0  0  0  0  0  0  0  0  0  0  0  0
   -4.7360   25.2320  -30.9050 N   0  0  0  0  0  0  0  0  0  0  0  0
   -4.0450   24.1010  -30.9860 N   0  0  0  0  0  0  0  0  0  0  0  0
   -4.8320   23.0690  -30.7220 N   0  0  0  0  0  0  0  0  0  0  0  0
   -6.2870   20.5940  -32.1420 C   0  0  0  0  0  0  0  0  0  0  0  0
   -6.1800   19.3840  -33.0910 C   0  0  0  0  0  0  0  0  0  0  0  0
   -5.1800   16.2960  -32.1410 C   0  0  0  0  0  0  0  0  0  0  0  0
   -4.6960   15.0420  -32.5140 C   0  0  0  0  0  0  0  0  0  0  0  0
   -3.6830   14.4780  -31.8100 F   0  0  0  0  0  0  0  0  0  0  0  0
   -4.8036   12.2685  -32.0491 H   0  0  0  0  0  0  0  0  0  0  0  0
   -5.7537   11.4055  -33.3058 H   0  0  0  0  0  0  0  0  0  0  0  0
   -3.9604   11.3009  -33.3058 H   0  0  0  0  0  0  0  0  0  0  0  0
   -6.7714   14.4633  -35.1563 H   0  0  0  0  0  0  0  0  0  0  0  0
   -7.5390   16.6400  -34.4780 H   0  0  0  0  0  0  0  0  0  0  0  0
   -8.0868   17.2480  -31.1563 H   0  0  0  0  0  0  0  0  0  0  0  0
   -7.4191   18.8611  -30.6384 H   0  0  0  0  0  0  0  0  0  0  0  0
   -9.5546   18.3187  -32.7406 H   0  0  0  0  0  0  0  0  0  0  0  0
   -9.7157   19.1717  -31.1329 H   0  0  0  0  0  0  0  0  0  0  0  0
   -8.5125   20.1508  -33.7203 H   0  0  0  0  0  0  0  0  0  0  0  0
   -9.6856   20.9430  -32.5653 H   0  0  0  0  0  0  0  0  0  0  0  0
   -7.8424   23.2865  -29.4212 H   0  0  0  0  0  0  0  0  0  0  0  0
   -6.8236   21.8015  -29.5876 H   0  0  0  0  0  0  0  0  0  0  0  0
   -6.8323   25.5467  -30.4255 H   0  0  0  0  0  0  0  0  0  0  0  0
   -5.6576   21.4083  -32.5302 H   0  0  0  0  0  0  0  0  0  0  0  0
   -5.9507   20.2776  -31.1436 H   0  0  0  0  0  0  0  0  0  0  0  0
   -6.7258   19.6095  -34.0190 H   0  0  0  0  0  0  0  0  0  0  0  0
   -5.1146   19.2012  -33.2946 H   0  0  0  0  0  0  0  0  0  0  0  0
   -4.7403   16.8257  -31.2830 H   0  0  0  0  0  0  0  0  0  0  0  0
  1  2  1  0
  2  3  1  0
  3  4  2  0
  4  5  1  0
  5  6  2  0
  6  7  1  0
  7  8  1  0
  8  9  1  0
  9 10  1  0
 10 11  1  0
 11 12  1  0
 12 13  2  0
 12 14  1  0
 14 15  1  0
 15 16  1  0
 16 17  2  0
 17 18  1  0
 18 19  2  0
 11 20  1  0
 20 21  1  0
  6 22  1  0
 22 23  2  0
 23 24  1  0
 23  3  1  0
 21  7  1  0
 19 15  1  0
  1 25  1  0
  1 26  1  0
  1 27  1  0
  4 28  1  0
  5 29  1  0
  8 30  1  0
  8 31  1  0
  9 32  1  0
  9 33  1  0
 10 34  1  0
 10 35  1  0
 14 36  1  0
 14 37  1  0
 16 38  1  0
 20 39  1  0
 20 40  1  0
 21 41  1  0
 21 42  1  0
 22 43  1  0
M  CHG  1   5   1
M  END
>  <UniqueID>  (12) 
12

>  <SMILES>  (12) 
COc1c[nH+]c(N2CCCN(C(=O)Cn3cnnn3)CC2)cc1F

>  <Energy>  (12) 
90.42236750912413

>  <Genealogy>  (12) 
COc1c[nH+]c(N2CCCN(C(=O)Cn3cnnn3)CC2)cc1F (protonated)
COc1c[nH+]c(N2CCCN(C(=O)Cn3cnnn3)CC2)cc1F (3D coordinates assigned)
COc1c[nH+]c(N2CCCN(C(=O)Cn3cnnn3)CC2)cc1F (nonaromatic ring conformer: 90.42236750912413 kcal/mol)

>  <smiles>  (12) 
COc1cnc(N2CCCN(C(=O)Cn3cnnn3)CC2)cc1F

>  <score_type>  (12) 
oracle

>  <origin>  (12) 
adg

>  <m_score__min__energy>  (12) 
-5.1900000000000004

>  <m_primary>  (12) 
energy

$$$$
12:0
     RDKit          3D

 37 39  0  0  0  0  0  0  0  0999 V2000
   -6.8940   17.9560  -34.6940 H   0  0  0  0  0  0  0  0  0  0  0  0
   -6.7640   18.2570  -33.7070 N   0  0  0  0  0  0  0  0  0  0  0  0
   -6.4790   19.4500  -33.2610 C   0  0  0  0  0  0  0  0  0  0  0  0
   -7.4690   20.3170  -32.7390 C   0  0  0  0  0  0  0  0  0  0  0  0
   -8.8340   19.9340  -32.6730 C   0  0  0  0  0  0  0  0  0  0  0  0
   -9.1365   18.9493  -33.0590 H   0  0  0  0  0  0  0  0  0  0  0  0
   -9.7960   20.7770  -32.1310 C   0  0  0  0  0  0  0  0  0  0  0  0
  -10.8489   20.4603  -32.0973 H   0  0  0  0  0  0  0  0  0  0  0  0
   -9.4300   22.0140  -31.6340 C   0  0  0  0  0  0  0  0  0  0  0  0
  -10.1912   22.6740  -31.1925 H   0  0  0  0  0  0  0  0  0  0  0  0
   -8.1040   22.4270  -31.6900 C   0  0  0  0  0  0  0  0  0  0  0  0
   -7.8335   23.4128  -31.2838 H   0  0  0  0  0  0  0  0  0  0  0  0
   -7.0850   21.6090  -32.2590 C   0  0  0  0  0  0  0  0  0  0  0  0
   -5.7590   22.0280  -32.3350 N   0  0  0  0  0  0  0  0  0  0  0  0
   -5.3650   23.4090  -31.9330 C   0  0  0  0  0  0  0  0  0  0  0  0
   -4.5382   23.7392  -32.5790 H   0  0  0  0  0  0  0  0  0  0  0  0
   -6.2533   24.0485  -32.0420 H   0  0  0  0  0  0  0  0  0  0  0  0
   -4.9060   23.5040  -30.4580 C   0  0  0  0  0  0  0  0  0  0  0  0
   -5.4772   22.7669  -29.8746 H   0  0  0  0  0  0  0  0  0  0  0  0
   -3.8225   23.3139  -30.4599 H   0  0  0  0  0  0  0  0  0  0  0  0
   -5.1000   24.8840  -29.8050 C   0  0  0  0  0  0  0  0  0  0  0  0
   -4.6831   24.8535  -28.7875 H   0  0  0  0  0  0  0  0  0  0  0  0
   -4.5844   25.6244  -30.4342 H   0  0  0  0  0  0  0  0  0  0  0  0
   -6.5690   25.2950  -29.7190 C   0  0  0  0  0  0  0  0  0  0  0  0
   -6.8653   25.3779  -28.6629 H   0  0  0  0  0  0  0  0  0  0  0  0
   -6.7077   26.2664  -30.2161 H   0  0  0  0  0  0  0  0  0  0  0  0
   -7.1916   24.5366  -30.2161 H   0  0  0  0  0  0  0  0  0  0  0  0
   -4.7870   21.1700  -32.8370 C   0  0  0  0  0  0  0  0  0  0  0  0
   -3.4130   21.5430  -32.9180 C   0  0  0  0  0  0  0  0  0  0  0  0
   -3.1080   22.5423  -32.5739 H   0  0  0  0  0  0  0  0  0  0  0  0
   -2.4460   20.6740  -33.4220 C   0  0  0  0  0  0  0  0  0  0  0  0
   -0.7650   21.1760  -33.4960 Cl  0  0  0  0  0  0  0  0  0  0  0  0
   -2.8080   19.4120  -33.8640 C   0  0  0  0  0  0  0  0  0  0  0  0
   -2.0433   18.7276  -34.2601 H   0  0  0  0  0  0  0  0  0  0  0  0
   -4.1360   19.0110  -33.8070 C   0  0  0  0  0  0  0  0  0  0  0  0
   -4.4136   18.0076  -34.1620 H   0  0  0  0  0  0  0  0  0  0  0  0
   -5.1400   19.8730  -33.2990 C   0  0  0  0  0  0  0  0  0  0  0  0
  1  2  1  0
  2  3  2  0
  3  4  1  0
  4  5  2  0
  5  6  1  0
  5  7  1  0
  7  8  1  0
  7  9  2  0
  9 10  1  0
  9 11  1  0
 11 12  1  0
 11 13  2  0
 13 14  1  0
 14 15  1  0
 15 16  1  0
 15 17  1  0
 15 18  1  0
 18 19  1  0
 18 20  1  0
 18 21  1  0
 21 22  1  0
 21 23  1  0
 21 24  1  0
 24 25  1  0
 24 26  1  0
 24 27  1  0
 14 28  1  0
 28 29  2  0
 29 30  1  0
 29 31  1  0
 31 32  1  0
 31 33  2  0
 33 34  1  0
 33 35  1  0
 35 36  1  0
 35 37  2  0
 37  3  1  0
 13  4  1  0
 37 28  1  0
M  END
>  <UniqueID>  (13) 
13

>  <SMILES>  (13) 
[H]/N=c1\c2ccccc2n(CCCC)c2cc(Cl)ccc12

>  <Energy>  (13) 
65.28761760630532

>  <Genealogy>  (13) 
[H]/N=c1\c2ccccc2n(CCCC)c2cc(Cl)ccc12 (cis-trans isomerization)
[H]/N=c1\c2ccccc2n(CCCC)c2cc(Cl)ccc12 (3D coordinates assigned)
[H]/N=c1\c2ccccc2n(CCCC)c2cc(Cl)ccc12 (optimized conformer: 65.28761760630532 kcal/mol)

>  <smiles>  (13) 
CCCCn1c2ccccc2c(=N)c2ccc(Cl)cc21

>  <score_type>  (13) 
oracle

>  <origin>  (13) 
adg

>  <m_score__min__energy>  (13) 
-7.7999999999999998

>  <m_primary>  (13) 
energy

$$$$
13:0
     RDKit          3D

 48 50  0  0  0  0  0  0  0  0999 V2000
   -5.7140   25.5540  -30.3470 C   0  0  0  0  0  0  0  0  0  0  0  0
   -4.6730   24.7230  -30.8350 O   0  0  0  0  0  0  0  0  0  0  0  0
   -4.2090   23.5410  -30.2370 C   0  0  0  0  0  0  0  0  0  0  0  0
   -3.9030   23.2830  -28.8940 C   0  0  0  0  0  0  0  0  0  0  0  0
   -4.0220   24.1670  -27.6770 C   0  0  0  0  0  0  0  0  0  0  0  0
   -2.7110   24.8120  -27.2850 C   0  0  0  0  0  0  0  0  0  0  0  0
   -1.6570   24.9510  -28.2080 C   0  0  0  0  0  0  0  0  0  0  0  0
   -0.4750   25.5990  -27.8390 C   0  0  0  0  0  0  0  0  0  0  0  0
   -0.3370   26.1290  -26.5540 C   0  0  0  0  0  0  0  0  0  0  0  0
   -1.3850   26.0190  -25.6380 C   0  0  0  0  0  0  0  0  0  0  0  0
   -2.5710   25.3740  -26.0030 C   0  0  0  0  0  0  0  0  0  0  0  0
   -3.5180   21.9450  -28.8880 C   0  0  0  0  0  0  0  0  0  0  0  0
   -3.0760   21.1460  -27.7020 C   0  0  0  0  0  0  0  0  0  0  0  0
   -3.5880   21.4540  -30.1370 N   0  0  0  0  0  0  0  0  0  0  0  0
   -3.9930   22.4160  -30.9520 N   0  0  0  0  0  0  0  0  0  0  0  0
   -4.2130   22.2340  -32.3880 C   0  0  0  0  0  0  0  0  0  0  0  0
   -5.2760   21.1870  -32.6500 C   0  0  0  0  0  0  0  0  0  0  0  0
   -4.8850   19.9570  -33.2100 C   0  0  0  0  0  0  0  0  0  0  0  0
   -5.8220   18.9510  -33.4510 C   0  0  0  0  0  0  0  0  0  0  0  0
   -5.4260   17.7700  -33.9860 F   0  0  0  0  0  0  0  0  0  0  0  0
   -7.1640   19.1600  -33.1440 C   0  0  0  0  0  0  0  0  0  0  0  0
   -7.5750   20.3760  -32.5960 C   0  0  0  0  0  0  0  0  0  0  0  0
   -6.6450   21.3970  -32.3300 C   0  0  0  0  0  0  0  0  0  0  0  0
   -7.1530   22.7060  -31.7760 C   0  0  0  0  0  0  0  0  0  0  0  0
   -6.8640   23.7900  -32.7090 N   0  0  0  0  0  0  0  0  0  0  0  0
   -5.7042   25.5462  -29.2471 H   0  0  0  0  0  0  0  0  0  0  0  0
   -5.5622   26.5820  -30.7078 H   0  0  0  0  0  0  0  0  0  0  0  0
   -6.6828   25.1782  -30.7078 H   0  0  0  0  0  0  0  0  0  0  0  0
   -4.7532   24.9606  -27.8903 H   0  0  0  0  0  0  0  0  0  0  0  0
   -4.3398   23.5308  -26.8378 H   0  0  0  0  0  0  0  0  0  0  0  0
   -1.7645   24.5472  -29.2255 H   0  0  0  0  0  0  0  0  0  0  0  0
    0.3486   25.6919  -28.5622 H   0  0  0  0  0  0  0  0  0  0  0  0
    0.5968   26.6328  -26.2639 H   0  0  0  0  0  0  0  0  0  0  0  0
   -1.2776   26.4404  -24.6276 H   0  0  0  0  0  0  0  0  0  0  0  0
   -3.3998   25.3057  -25.2830 H   0  0  0  0  0  0  0  0  0  0  0  0
   -3.3655   21.6693  -26.7788 H   0  0  0  0  0  0  0  0  0  0  0  0
   -3.5547   20.1560  -27.7278 H   0  0  0  0  0  0  0  0  0  0  0  0
   -1.9829   21.0255  -27.7278 H   0  0  0  0  0  0  0  0  0  0  0  0
   -3.3710   20.4740  -30.4290 H   0  0  0  0  0  0  0  0  0  0  0  0
   -4.5354   23.1902  -32.8258 H   0  0  0  0  0  0  0  0  0  0  0  0
   -3.2711   21.8966  -32.8451 H   0  0  0  0  0  0  0  0  0  0  0  0
   -3.8278   19.7860  -33.4610 H   0  0  0  0  0  0  0  0  0  0  0  0
   -7.9011   18.3658  -33.3336 H   0  0  0  0  0  0  0  0  0  0  0  0
   -8.6392   20.5378  -32.3694 H   0  0  0  0  0  0  0  0  0  0  0  0
   -8.2400   22.6386  -31.6217 H   0  0  0  0  0  0  0  0  0  0  0  0
   -6.6516   22.9111  -30.8186 H   0  0  0  0  0  0  0  0  0  0  0  0
   -5.8970   24.1380  -32.5150 H   0  0  0  0  0  0  0  0  0  0  0  0
   -6.8460   23.3840  -33.6720 H   0  0  0  0  0  0  0  0  0  0  0  0
  1  2  1  0
  2  3  1  0
  3  4  2  0
  4  5  1  0
  5  6  1  0
  6  7  2  0
  7  8  1  0
  8  9  2  0
  9 10  1  0
 10 11  2  0
  4 12  1  0
 12 13  1  0
 12 14  2  0
 14 15  1  0
 15 16  1  0
 16 17  1  0
 17 18  2  0
 18 19  1  0
 19 20  1  0
 19 21  2  0
 21 22  1  0
 22 23  2  0
 23 24  1  0
 24 25  1  0
 15  3  1  0
 23 17  1  0
 11  6  1  0
  1 26  1  0
  1 27  1  0
  1 28  1  0
  5 29  1  0
  5 30  1  0
  7 31  1  0
  8 32  1  0
  9 33  1  0
 10 34  1  0
 11 35  1  0
 13 36  1  0
 13 37  1  0
 13 38  1  0
 14 39  1  0
 16 40  1  0
 16 41  1  0
 18 42  1  0
 21 43  1  0
 22 44  1  0
 24 45  1  0
 24 46  1  0
 25 47  1  0
 25 48  1  0
M  CHG  1  14   1
M  END
>  <UniqueID>  (14) 
14

>  <SMILES>  (14) 
COc1c(Cc2ccccc2)c(C)[nH+]n1Cc1cc(F)ccc1CN

>  <Energy>  (14) 
80.19696519552642

>  <Genealogy>  (14) 
COc1c(Cc2ccccc2)c(C)[nH+]n1Cc1cc(F)ccc1CN (protonated)
COc1c(Cc2ccccc2)c(C)[nH+]n1Cc1cc(F)ccc1CN (3D coordinates assigned)
COc1c(Cc2ccccc2)c(C)[nH+]n1Cc1cc(F)ccc1CN (optimized conformer: 80.19696519552642 kcal/mol)

>  <smiles>  (14) 
COc1c(Cc2ccccc2)c(C)nn1Cc1cc(F)ccc1CN

>  <score_type>  (14) 
oracle

>  <origin>  (14) 
adg

>  <m_score__min__energy>  (14) 
-7.6799999999999997

>  <m_primary>  (14) 
energy

$$$$
14:0
     RDKit          3D

 32 33  0  0  0  0  0  0  0  0999 V2000
   -1.4393   23.6951  -28.0375 H   0  0  0  0  0  0  0  0  0  0  0  0
   -2.2400   24.4410  -28.1490 C   0  0  0  0  0  0  0  0  0  0  0  0
   -2.8610   24.9690  -26.9680 N   0  0  0  0  0  0  0  0  0  0  0  0
   -2.0070   25.4610  -25.8910 C   0  0  0  0  0  0  0  0  0  0  0  0
   -2.4555   25.2026  -24.9204 H   0  0  0  0  0  0  0  0  0  0  0  0
   -1.0127   24.9973  -25.9706 H   0  0  0  0  0  0  0  0  0  0  0  0
   -1.9094   26.5538  -25.9706 H   0  0  0  0  0  0  0  0  0  0  0  0
   -4.2460   24.5960  -26.6750 C   0  0  0  0  0  0  0  0  0  0  0  0
   -4.3925   24.5566  -25.5855 H   0  0  0  0  0  0  0  0  0  0  0  0
   -4.9267   25.3428  -27.1097 H   0  0  0  0  0  0  0  0  0  0  0  0
   -4.4595   23.6083  -27.1097 H   0  0  0  0  0  0  0  0  0  0  0  0
   -2.5890   24.8120  -29.3490 N   0  0  0  0  0  0  0  0  0  0  0  0
   -2.1380   25.6680  -29.7440 H   0  0  0  0  0  0  0  0  0  0  0  0
   -3.5740   24.1590  -30.1640 C   0  0  0  0  0  0  0  0  0  0  0  0
   -4.3310   24.8260  -31.0610 N   0  0  0  0  0  0  0  0  0  0  0  0
   -5.2620   24.0640  -31.6350 N   0  0  0  0  0  0  0  0  0  0  0  0
   -5.2740   22.7850  -31.1910 C   0  0  0  0  0  0  0  0  0  0  0  0
   -6.2390   21.7510  -31.6470 C   0  0  0  0  0  0  0  0  0  0  0  0
   -5.8990   20.9550  -32.7580 C   0  0  0  0  0  0  0  0  0  0  0  0
   -4.9442   21.1261  -33.2768 H   0  0  0  0  0  0  0  0  0  0  0  0
   -6.7580   19.9520  -33.2090 C   0  0  0  0  0  0  0  0  0  0  0  0
   -6.4774   19.3392  -34.0783 H   0  0  0  0  0  0  0  0  0  0  0  0
   -7.9700   19.7250  -32.5610 C   0  0  0  0  0  0  0  0  0  0  0  0
   -8.6409   18.9277  -32.9133 H   0  0  0  0  0  0  0  0  0  0  0  0
   -8.3330   20.5080  -31.4660 C   0  0  0  0  0  0  0  0  0  0  0  0
   -9.2908   20.3218  -30.9581 H   0  0  0  0  0  0  0  0  0  0  0  0
   -7.4880   21.5340  -31.0030 C   0  0  0  0  0  0  0  0  0  0  0  0
   -7.9490   22.3720  -29.8390 C   0  0  0  0  0  0  0  0  0  0  0  0
   -7.6750   21.8739  -28.8973 H   0  0  0  0  0  0  0  0  0  0  0  0
   -7.4674   23.3599  -29.8849 H   0  0  0  0  0  0  0  0  0  0  0  0
   -9.0412   22.4941  -29.8849 H   0  0  0  0  0  0  0  0  0  0  0  0
   -4.0910   22.5600  -30.0050 S   0  0  0  0  0  0  0  0  0  0  0  0
  1  2  1  0
  2  3  1  0
  3  4  1  0
  4  5  1  0
  4  6  1  0
  4  7  1  0
  3  8  1  0
  8  9  1  0
  8 10  1  0
  8 11  1  0
  2 12  2  0
 12 13  1  0
 12 14  1  0
 14 15  2  0
 15 16  1  0
 16 17  2  0
 17 18  1  0
 18 19  2  0
 19 20  1  0
 19 21  1  0
 21 22  1  0
 21 23  2  0
 23 24  1  0
 23 25  1  0
 25 26  1  0
 25 27  2  0
 27 28  1  0
 28 29  1  0
 28 30  1  0
 28 31  1  0
 17 32  1  0
 32 14  1  0
 27 18  1  0
M  CHG  1  12   1
M  END
>  <UniqueID>  (15) 
15

>  <SMILES>  (15) 
Cc1ccccc1-c1nnc(/[NH+]=C\N(C)C)s1

>  <Energy>  (15) 
77.17536119410984

>  <Genealogy>  (15) 
Cc1ccccc1-c1nnc([NH+]=CN(C)C)s1 (protonated)
Cc1ccccc1-c1nnc(/[NH+]=C\N(C)C)s1 (cis-trans isomerization)
Cc1ccccc1-c1nnc(/[NH+]=C\N(C)C)s1 (3D coordinates assigned)
Cc1ccccc1-c1nnc(/[NH+]=C\N(C)C)s1 (optimized conformer: 77.17536119410984 kcal/mol)

>  <smiles>  (15) 
Cc1ccccc1-c1nnc(N=CN(C)C)s1

>  <score_type>  (15) 
oracle

>  <origin>  (15) 
adg

>  <m_score__min__energy>  (15) 
-6.8799999999999999

>  <m_primary>  (15) 
energy

$$$$
15:0
     RDKit          3D

 53 55  0  0  0  0  0  0  0  0999 V2000
   -5.3860   25.6820  -30.4300 C   0  0  0  0  0  0  0  0  0  0  0  0
   -5.8970   24.2450  -30.3480 C   0  0  0  0  0  0  0  0  0  0  0  0
   -5.8010   23.5140  -31.6960 C   0  0  0  0  0  0  0  0  0  0  0  0
   -6.8270   22.4010  -31.8170 C   0  0  0  0  0  0  0  0  0  0  0  0
   -8.0990   22.6600  -31.2820 C   0  0  0  0  0  0  0  0  0  0  0  0
   -9.0810   21.6760  -31.3140 C   0  0  0  0  0  0  0  0  0  0  0  0
  -10.2220   21.9080  -30.8360 O   0  0  0  0  0  0  0  0  0  0  0  0
   -8.8230   20.4900  -31.8420 O   0  0  0  0  0  0  0  0  0  0  0  0
   -7.6420   20.1720  -32.3610 C   0  0  0  0  0  0  0  0  0  0  0  0
   -7.4790   18.8890  -32.8830 C   0  0  0  0  0  0  0  0  0  0  0  0
   -6.2640   18.4990  -33.4470 C   0  0  0  0  0  0  0  0  0  0  0  0
   -6.0840   17.1010  -33.9580 C   0  0  0  0  0  0  0  0  0  0  0  0
   -5.1960   19.3990  -33.4690 C   0  0  0  0  0  0  0  0  0  0  0  0
   -5.3310   20.7080  -32.9610 C   0  0  0  0  0  0  0  0  0  0  0  0
   -4.2510   21.6020  -33.0310 O   0  0  0  0  0  0  0  0  0  0  0  0
   -2.8790   21.2370  -33.1460 C   0  0  0  0  0  0  0  0  0  0  0  0
   -2.1830   21.5460  -31.8610 C   0  0  0  0  0  0  0  0  0  0  0  0
   -0.9420   21.3540  -31.7620 O   0  0  0  0  0  0  0  0  0  0  0  0
   -2.9230   22.0910  -30.7580 N   0  0  0  0  0  0  0  0  0  0  0  0
   -2.2770   22.4720  -29.4950 C   0  0  0  0  0  0  0  0  0  0  0  0
   -3.0020   21.8150  -28.2960 C   0  0  0  0  0  0  0  0  0  0  0  0
   -4.2340   22.6210  -27.8670 C   0  0  0  0  0  0  0  0  0  0  0  0
   -3.8900   24.0800  -27.4940 C   0  0  0  0  0  0  0  0  0  0  0  0
   -2.4970   24.5290  -27.9700 C   0  0  0  0  0  0  0  0  0  0  0  0
   -2.2010   24.0180  -29.3830 C   0  0  0  0  0  0  0  0  0  0  0  0
   -6.5720   21.1110  -32.3840 C   0  0  0  0  0  0  0  0  0  0  0  0
   -5.2447   26.0794  -29.4141 H   0  0  0  0  0  0  0  0  0  0  0  0
   -4.4264   25.6998  -30.9675 H   0  0  0  0  0  0  0  0  0  0  0  0
   -6.1189   26.3017  -30.9675 H   0  0  0  0  0  0  0  0  0  0  0  0
   -5.2972   23.6981  -29.6056 H   0  0  0  0  0  0  0  0  0  0  0  0
   -6.9579   24.2811  -30.0597 H   0  0  0  0  0  0  0  0  0  0  0  0
   -5.9679   24.2397  -32.5056 H   0  0  0  0  0  0  0  0  0  0  0  0
   -4.8008   23.0615  -31.7653 H   0  0  0  0  0  0  0  0  0  0  0  0
   -8.3188   23.6418  -30.8373 H   0  0  0  0  0  0  0  0  0  0  0  0
   -8.3170   18.1773  -32.8497 H   0  0  0  0  0  0  0  0  0  0  0  0
   -5.9948   16.4085  -33.1080 H   0  0  0  0  0  0  0  0  0  0  0  0
   -6.9533   16.8197  -34.5705 H   0  0  0  0  0  0  0  0  0  0  0  0
   -5.1718   17.0491  -34.5705 H   0  0  0  0  0  0  0  0  0  0  0  0
   -4.2311   19.0809  -33.8906 H   0  0  0  0  0  0  0  0  0  0  0  0
   -2.8005   20.1605  -33.3581 H   0  0  0  0  0  0  0  0  0  0  0  0
   -2.4121   21.8021  -33.9662 H   0  0  0  0  0  0  0  0  0  0  0  0
   -3.9550   22.2060  -30.8700 H   0  0  0  0  0  0  0  0  0  0  0  0
   -1.2432   22.0963  -29.4795 H   0  0  0  0  0  0  0  0  0  0  0  0
   -3.3210   20.8024  -28.5837 H   0  0  0  0  0  0  0  0  0  0  0  0
   -2.3018   21.7819  -27.4483 H   0  0  0  0  0  0  0  0  0  0  0  0
   -4.9553   22.6305  -28.6975 H   0  0  0  0  0  0  0  0  0  0  0  0
   -4.6522   22.1383  -26.9714 H   0  0  0  0  0  0  0  0  0  0  0  0
   -4.6422   24.7412  -27.9490 H   0  0  0  0  0  0  0  0  0  0  0  0
   -3.8885   24.1388  -26.3956 H   0  0  0  0  0  0  0  0  0  0  0  0
   -2.4554   25.6282  -27.9703 H   0  0  0  0  0  0  0  0  0  0  0  0
   -1.7445   24.1116  -27.2848 H   0  0  0  0  0  0  0  0  0  0  0  0
   -2.9346   24.4565  -30.0755 H   0  0  0  0  0  0  0  0  0  0  0  0
   -1.1723   24.3166  -29.6330 H   0  0  0  0  0  0  0  0  0  0  0  0
  1  2  1  0
  2  3  1  0
  3  4  1  0
  4  5  2  0
  5  6  1  0
  6  7  2  0
  6  8  1  0
  8  9  1  0
  9 10  2  0
 10 11  1  0
 11 12  1  0
 11 13  2  0
 13 14  1  0
 14 15  1  0
 15 16  1  0
 16 17  1  0
 17 18  2  0
 17 19  1  0
 19 20  1  0
 20 21  1  0
 21 22  1  0
 22 23  1  0
 23 24  1  0
 24 25  1  0
 14 26  2  0
 26  4  1  0
 26  9  1  0
 25 20  1  0
  1 27  1  0
  1 28  1  0
  1 29  1  0
  2 30  1  0
  2 31  1  0
  3 32  1  0
  3 33  1  0
  5 34  1  0
 10 35  1  0
 12 36  1  0
 12 37  1  0
 12 38  1  0
 13 39  1  0
 16 40  1  0
 16 41  1  0
 19 42  1  0
 20 43  1  0
 21 44  1  0
 21 45  1  0
 22 46  1  0
 22 47  1  0
 23 48  1  0
 23 49  1  0
 24 50  1  0
 24 51  1  0
 25 52  1  0
 25 53  1  0
M  END
>  <UniqueID>  (16) 
16

>  <SMILES>  (16) 
CCCc1cc(=O)oc2cc(C)cc(OCC(=O)NC3CCCCC3)c12

>  <Energy>  (16) 
54.947819973359564

>  <Genealogy>  (16) 
CCCc1cc(=O)oc2cc(C)cc(OCC(=O)NC3CCCCC3)c12 (3D coordinates assigned)
CCCc1cc(=O)oc2cc(C)cc(OCC(=O)NC3CCCCC3)c12 (nonaromatic ring conformer: 54.947819973359564 kcal/mol)

>  <smiles>  (16) 
CCCc1cc(=O)oc2cc(C)cc(OCC(=O)NC3CCCCC3)c12

>  <score_type>  (16) 
oracle

>  <origin>  (16) 
adg

>  <m_score__min__energy>  (16) 
-8.5199999999999996

>  <m_primary>  (16) 
energy

$$$$
16:0
     RDKit          3D

 31 33  0  0  0  0  0  0  0  0999 V2000
   -6.8080   25.2500  -30.2530 O   0  0  0  0  0  0  0  0  0  0  0  0
   -5.7160   24.6150  -30.2550 C   0  0  0  0  0  0  0  0  0  0  0  0
   -4.8400   24.8320  -29.2430 N   0  0  0  0  0  0  0  0  0  0  0  0
   -3.6520   24.1800  -29.1800 C   0  0  0  0  0  0  0  0  0  0  0  0
   -2.7700   24.4300  -28.1150 C   0  0  0  0  0  0  0  0  0  0  0  0
   -1.5460   23.7650  -28.0410 C   0  0  0  0  0  0  0  0  0  0  0  0
   -1.1920   22.8470  -29.0270 C   0  0  0  0  0  0  0  0  0  0  0  0
   -2.0580   22.5880  -30.0920 C   0  0  0  0  0  0  0  0  0  0  0  0
   -3.3050   23.2530  -30.1850 C   0  0  0  0  0  0  0  0  0  0  0  0
   -4.2260   23.0340  -31.2400 C   0  0  0  0  0  0  0  0  0  0  0  0
   -3.8540   21.9560  -32.4420 S   0  0  0  0  0  0  0  0  0  0  0  0
   -5.4260   23.7220  -31.2600 N   0  0  0  0  0  0  0  0  0  0  0  0
   -6.4210   23.4970  -32.3370 C   0  0  0  0  0  0  0  0  0  0  0  0
   -7.2360   22.2540  -32.0740 C   0  0  0  0  0  0  0  0  0  0  0  0
   -6.9110   21.0430  -32.7110 C   0  0  0  0  0  0  0  0  0  0  0  0
   -7.6720   19.8940  -32.4700 C   0  0  0  0  0  0  0  0  0  0  0  0
   -8.7640   19.9450  -31.6010 C   0  0  0  0  0  0  0  0  0  0  0  0
   -9.1010   21.1470  -30.9740 C   0  0  0  0  0  0  0  0  0  0  0  0
   -8.3440   22.2980  -31.2100 C   0  0  0  0  0  0  0  0  0  0  0  0
   -5.0950   25.5180  -28.4950 H   0  0  0  0  0  0  0  0  0  0  0  0
   -3.0465   25.1545  -27.3349 H   0  0  0  0  0  0  0  0  0  0  0  0
   -0.8606   23.9655  -27.2043 H   0  0  0  0  0  0  0  0  0  0  0  0
   -0.2263   22.3237  -28.9667 H   0  0  0  0  0  0  0  0  0  0  0  0
   -1.7689   21.8611  -30.8653 H   0  0  0  0  0  0  0  0  0  0  0  0
   -7.0956   24.3643  -32.3896 H   0  0  0  0  0  0  0  0  0  0  0  0
   -5.8830   23.3669  -33.2876 H   0  0  0  0  0  0  0  0  0  0  0  0
   -6.0555   20.9991  -33.4011 H   0  0  0  0  0  0  0  0  0  0  0  0
   -7.4095   18.9481  -32.9663 H   0  0  0  0  0  0  0  0  0  0  0  0
   -9.3584   19.0393  -31.4103 H   0  0  0  0  0  0  0  0  0  0  0  0
   -9.9640   21.1877  -30.2931 H   0  0  0  0  0  0  0  0  0  0  0  0
   -8.6166   23.2429  -30.7172 H   0  0  0  0  0  0  0  0  0  0  0  0
  1  2  2  0
  2  3  1  0
  3  4  1  0
  4  5  2  0
  5  6  1  0
  6  7  2  0
  7  8  1  0
  8  9  2  0
  9 10  1  0
 10 11  2  0
 10 12  1  0
 12 13  1  0
 13 14  1  0
 14 15  2  0
 15 16  1  0
 16 17  2  0
 17 18  1  0
 18 19  2  0
 12  2  1  0
 19 14  1  0
  9  4  1  0
  3 20  1  0
  5 21  1  0
  6 22  1  0
  7 23  1  0
  8 24  1  0
 13 25  1  0
 13 26  1  0
 15 27  1  0
 16 28  1  0
 17 29  1  0
 18 30  1  0
 19 31  1  0
M  END
>  <UniqueID>  (17) 
17

>  <SMILES>  (17) 
O=c1[nH]c2ccccc2c(=S)n1Cc1ccccc1

>  <Energy>  (17) 
47.31804951517852

>  <Genealogy>  (17) 
O=c1[nH]c2ccccc2c(=S)n1Cc1ccccc1 (3D coordinates assigned)
O=c1[nH]c2ccccc2c(=S)n1Cc1ccccc1 (optimized conformer: 47.31804951517852 kcal/mol)

>  <smiles>  (17) 
O=c1[nH]c2ccccc2c(=S)n1Cc1ccccc1

>  <score_type>  (17) 
oracle

>  <origin>  (17) 
adg

>  <m_score__min__energy>  (17) 
-7.5199999999999996

>  <m_primary>  (17) 
energy

$$$$
17:0
     RDKit          3D

 33 35  0  0  0  0  0  0  0  0999 V2000
   -4.4630   22.2550  -32.5720 O   0  0  0  0  0  0  0  0  0  0  0  0
   -4.8610   22.8850  -31.5530 C   0  0  0  0  0  0  0  0  0  0  0  0
   -3.9640   23.1690  -30.5090 C   0  0  0  0  0  0  0  0  0  0  0  0
   -2.6150   22.7670  -30.5500 C   0  0  0  0  0  0  0  0  0  0  0  0
   -1.7580   23.0760  -29.4890 C   0  0  0  0  0  0  0  0  0  0  0  0
   -2.2360   23.7840  -28.3840 C   0  0  0  0  0  0  0  0  0  0  0  0
   -3.5730   24.1870  -28.3330 C   0  0  0  0  0  0  0  0  0  0  0  0
   -4.4430   23.8830  -29.3920 C   0  0  0  0  0  0  0  0  0  0  0  0
   -5.7460   24.2700  -29.3500 N   0  0  0  0  0  0  0  0  0  0  0  0
   -6.5960   23.9830  -30.3690 C   0  0  0  0  0  0  0  0  0  0  0  0
   -6.1630   23.3030  -31.4740 N   0  0  0  0  0  0  0  0  0  0  0  0
   -7.0580   23.0090  -32.5290 N   0  0  0  0  0  0  0  0  0  0  0  0
   -8.3140   22.2850  -32.3280 C   0  0  0  0  0  0  0  0  0  0  0  0
   -8.0690   20.8000  -32.3230 C   0  0  0  0  0  0  0  0  0  0  0  0
   -6.9710   20.2680  -33.0180 C   0  0  0  0  0  0  0  0  0  0  0  0
   -6.7500   18.8870  -33.0370 C   0  0  0  0  0  0  0  0  0  0  0  0
   -7.6250   18.0300  -32.3640 C   0  0  0  0  0  0  0  0  0  0  0  0
   -8.7210   18.5500  -31.6720 C   0  0  0  0  0  0  0  0  0  0  0  0
   -8.9450   19.9300  -31.6490 C   0  0  0  0  0  0  0  0  0  0  0  0
   -2.2346   22.2089  -31.4182 H   0  0  0  0  0  0  0  0  0  0  0  0
   -0.7048   22.7607  -29.5248 H   0  0  0  0  0  0  0  0  0  0  0  0
   -1.5583   24.0250  -27.5518 H   0  0  0  0  0  0  0  0  0  0  0  0
   -3.9449   24.7441  -27.4605 H   0  0  0  0  0  0  0  0  0  0  0  0
   -6.1130   24.7930  -28.5230 H   0  0  0  0  0  0  0  0  0  0  0  0
   -7.6469   24.3016  -30.3051 H   0  0  0  0  0  0  0  0  0  0  0  0
   -6.9080   23.4460  -33.4680 H   0  0  0  0  0  0  0  0  0  0  0  0
   -8.7539   22.5829  -31.3648 H   0  0  0  0  0  0  0  0  0  0  0  0
   -9.0025   22.5301  -33.1501 H   0  0  0  0  0  0  0  0  0  0  0  0
   -6.2816   20.9403  -33.5498 H   0  0  0  0  0  0  0  0  0  0  0  0
   -5.8875   18.4755  -33.5817 H   0  0  0  0  0  0  0  0  0  0  0  0
   -7.4502   16.9441  -32.3793 H   0  0  0  0  0  0  0  0  0  0  0  0
   -9.4089   17.8730  -31.1443 H   0  0  0  0  0  0  0  0  0  0  0  0
   -9.8087   20.3364  -31.1023 H   0  0  0  0  0  0  0  0  0  0  0  0
  1  2  2  0
  2  3  1  0
  3  4  2  0
  4  5  1  0
  5  6  2  0
  6  7  1  0
  7  8  2  0
  8  9  1  0
  9 10  2  0
 10 11  1  0
 11 12  1  0
 12 13  1  0
 13 14  1  0
 14 15  2  0
 15 16  1  0
 16 17  2  0
 17 18  1  0
 18 19  2  0
 11  2  1  0
 19 14  1  0
  8  3  1  0
  4 20  1  0
  5 21  1  0
  6 22  1  0
  7 23  1  0
  9 24  1  0
 10 25  1  0
 12 26  1  0
 13 27  1  0
 13 28  1  0
 15 29  1  0
 16 30  1  0
 17 31  1  0
 18 32  1  0
 19 33  1  0
M  CHG  1   9   1
M  END
>  <UniqueID>  (18) 
18

>  <SMILES>  (18) 
O=c1c2ccccc2[nH+]cn1NCc1ccccc1

>  <Energy>  (18) 
41.78995165745386

>  <Genealogy>  (18) 
O=c1c2ccccc2[nH+]cn1NCc1ccccc1 (protonated)
O=c1c2ccccc2[nH+]cn1NCc1ccccc1 (3D coordinates assigned)
O=c1c2ccccc2[nH+]cn1NCc1ccccc1 (optimized conformer: 41.78995165745386 kcal/mol)

>  <smiles>  (18) 
O=c1c2ccccc2ncn1NCc1ccccc1

>  <score_type>  (18) 
oracle

>  <origin>  (18) 
adg

>  <m_score__min__energy>  (18) 
-6.8300000000000001

>  <m_primary>  (18) 
energy

$$$$
18:0
     RDKit          3D

 53 55  0  0  0  0  0  0  0  0999 V2000
   -6.1390   25.3620  -30.1700 C   0  0  0  0  0  0  0  0  0  0  0  0
   -6.7680   24.0890  -30.6530 C   0  0  0  0  0  0  0  0  0  0  0  0
   -7.2250   23.1320  -29.7360 C   0  0  0  0  0  0  0  0  0  0  0  0
   -7.7320   21.9100  -30.1850 C   0  0  0  0  0  0  0  0  0  0  0  0
   -7.7680   21.6180  -31.5580 C   0  0  0  0  0  0  0  0  0  0  0  0
   -8.3650   20.0520  -32.1300 S   0  0  0  0  0  0  0  0  0  0  0  0
   -9.5300   20.3130  -33.0430 O   0  0  0  0  0  0  0  0  0  0  0  0
   -8.8740   19.2630  -30.9550 O   0  0  0  0  0  0  0  0  0  0  0  0
   -7.1760   19.0890  -32.9970 N   0  0  0  0  0  0  0  0  0  0  0  0
   -6.3230   18.2640  -32.1310 C   0  0  0  0  0  0  0  0  0  0  0  0
   -5.4340   19.1100  -31.2240 C   0  0  0  0  0  0  0  0  0  0  0  0
   -4.8910   20.3050  -31.8940 N   0  0  0  0  0  0  0  0  0  0  0  0
   -4.0120   21.2010  -31.1520 C   0  0  0  0  0  0  0  0  0  0  0  0
   -3.9000   22.5650  -31.5000 C   0  0  0  0  0  0  0  0  0  0  0  0
   -3.1030   23.4370  -30.7540 C   0  0  0  0  0  0  0  0  0  0  0  0
   -2.3780   22.9690  -29.6520 C   0  0  0  0  0  0  0  0  0  0  0  0
   -1.5630   23.8930  -28.8350 C   0  0  0  0  0  0  0  0  0  0  0  0
   -0.4600   24.2980  -29.2950 O   0  0  0  0  0  0  0  0  0  0  0  0
   -1.9990   24.3440  -27.5370 N   0  0  0  0  0  0  0  0  0  0  0  0
   -3.4280   24.5310  -27.2580 C   0  0  0  0  0  0  0  0  0  0  0  0
   -0.9960   24.7700  -26.5580 C   0  0  0  0  0  0  0  0  0  0  0  0
   -2.4730   21.6170  -29.2970 C   0  0  0  0  0  0  0  0  0  0  0  0
   -3.2660   20.7420  -30.0430 C   0  0  0  0  0  0  0  0  0  0  0  0
   -5.1220   20.5560  -33.3330 C   0  0  0  0  0  0  0  0  0  0  0  0
   -6.3720   19.8790  -33.9430 C   0  0  0  0  0  0  0  0  0  0  0  0
   -7.3570   22.5950  -32.4750 C   0  0  0  0  0  0  0  0  0  0  0  0
   -6.8380   23.8130  -32.0270 C   0  0  0  0  0  0  0  0  0  0  0  0
   -6.1332   25.3738  -29.0701 H   0  0  0  0  0  0  0  0  0  0  0  0
   -5.1060   25.4251  -30.5428 H   0  0  0  0  0  0  0  0  0  0  0  0
   -6.7165   26.2208  -30.5428 H   0  0  0  0  0  0  0  0  0  0  0  0
   -7.1842   23.3444  -28.6575 H   0  0  0  0  0  0  0  0  0  0  0  0
   -8.1050   21.1726  -29.4590 H   0  0  0  0  0  0  0  0  0  0  0  0
   -7.7420   18.4200  -33.5720 H   0  0  0  0  0  0  0  0  0  0  0  0
   -6.9647   17.6273  -31.5043 H   0  0  0  0  0  0  0  0  0  0  0  0
   -5.6691   17.6600  -32.7772 H   0  0  0  0  0  0  0  0  0  0  0  0
   -6.0277   19.4349  -30.3569 H   0  0  0  0  0  0  0  0  0  0  0  0
   -4.5790   18.4842  -30.9284 H   0  0  0  0  0  0  0  0  0  0  0  0
   -4.4494   22.9473  -32.3729 H   0  0  0  0  0  0  0  0  0  0  0  0
   -3.0449   24.4990  -31.0348 H   0  0  0  0  0  0  0  0  0  0  0  0
   -3.5895   24.5521  -26.1701 H   0  0  0  0  0  0  0  0  0  0  0  0
   -3.7661   25.4811  -27.6974 H   0  0  0  0  0  0  0  0  0  0  0  0
   -3.9992   23.6999  -27.6974 H   0  0  0  0  0  0  0  0  0  0  0  0
   -1.3829   24.6057  -25.5415 H   0  0  0  0  0  0  0  0  0  0  0  0
   -0.0749   24.1854  -26.6987 H   0  0  0  0  0  0  0  0  0  0  0  0
   -0.7771   25.8388  -26.6987 H   0  0  0  0  0  0  0  0  0  0  0  0
   -1.9188   21.2417  -28.4241 H   0  0  0  0  0  0  0  0  0  0  0  0
   -3.3105   19.6792  -29.7629 H   0  0  0  0  0  0  0  0  0  0  0  0
   -5.2240   21.6422  -33.4739 H   0  0  0  0  0  0  0  0  0  0  0  0
   -4.2596   20.1158  -33.8549 H   0  0  0  0  0  0  0  0  0  0  0  0
   -7.0154   20.6661  -34.3632 H   0  0  0  0  0  0  0  0  0  0  0  0
   -6.0000   19.1697  -34.6970 H   0  0  0  0  0  0  0  0  0  0  0  0
   -7.4435   22.4019  -33.5545 H   0  0  0  0  0  0  0  0  0  0  0  0
   -6.4831   24.5580  -32.7543 H   0  0  0  0  0  0  0  0  0  0  0  0
  1  2  1  0
  2  3  2  0
  3  4  1  0
  4  5  2  0
  5  6  1  0
  6  7  2  0
  6  8  2  0
  6  9  1  0
  9 10  1  0
 10 11  1  0
 11 12  1  0
 12 13  1  0
 13 14  2  0
 14 15  1  0
 15 16  2  0
 16 17  1  0
 17 18  2  0
 17 19  1  0
 19 20  1  0
 19 21  1  0
 16 22  1  0
 22 23  2  0
 12 24  1  0
 24 25  1  0
  5 26  1  0
 26 27  2  0
 27  2  1  0
 25  9  1  0
 23 13  1  0
  1 28  1  0
  1 29  1  0
  1 30  1  0
  3 31  1  0
  4 32  1  0
  9 33  1  0
 10 34  1  0
 10 35  1  0
 11 36  1  0
 11 37  1  0
 14 38  1  0
 15 39  1  0
 20 40  1  0
 20 41  1  0
 20 42  1  0
 21 43  1  0
 21 44  1  0
 21 45  1  0
 22 46  1  0
 23 47  1  0
 24 48  1  0
 24 49  1  0
 25 50  1  0
 25 51  1  0
 26 52  1  0
 27 53  1  0
M  CHG  1   9   1
M  END
>  <UniqueID>  (19) 
19

>  <SMILES>  (19) 
Cc1ccc(S(=O)(=O)[NH+]2CCN(c3ccc(C(=O)N(C)C)cc3)CC2)cc1

>  <Energy>  (19) 
65.56023880647838

>  <Genealogy>  (19) 
Cc1ccc(S(=O)(=O)[NH+]2CCN(c3ccc(C(=O)N(C)C)cc3)CC2)cc1 (protonated)
Cc1ccc(S(=O)(=O)[NH+]2CCN(c3ccc(C(=O)N(C)C)cc3)CC2)cc1 (3D coordinates assigned)
Cc1ccc(S(=O)(=O)[NH+]2CCN(c3ccc(C(=O)N(C)C)cc3)CC2)cc1 (nonaromatic ring conformer: 65.56023880647838 kcal/mol)

>  <smiles>  (19) 
Cc1ccc(S(=O)(=O)N2CCN(c3ccc(C(=O)N(C)C)cc3)CC2)cc1

>  <score_type>  (19) 
oracle

>  <origin>  (19) 
adg

>  <m_score__min__energy>  (19) 
-8.0199999999999996

>  <m_primary>  (19) 
energy

$$$$
19:0
     RDKit          3D

 39 41  0  0  0  0  0  0  0  0999 V2000
   -3.5600   24.0520  -28.3290 O   0  0  0  0  0  0  0  0  0  0  0  0
   -3.1290   24.7170  -29.3100 C   0  0  0  0  0  0  0  0  0  0  0  0
   -3.9430   24.9060  -30.4740 N   0  0  0  0  0  0  0  0  0  0  0  0
   -4.8590   23.9570  -31.0410 C   0  0  0  0  0  0  0  0  0  0  0  0
   -4.4670   22.6160  -31.1270 C   0  0  0  0  0  0  0  0  0  0  0  0
   -5.3190   21.6620  -31.6900 C   0  0  0  0  0  0  0  0  0  0  0  0
   -6.5660   22.0410  -32.2070 C   0  0  0  0  0  0  0  0  0  0  0  0
   -7.4380   21.0390  -32.7590 N   0  0  0  0  0  0  0  0  0  0  0  0
   -7.0340   19.6970  -33.0770 C   0  0  0  0  0  0  0  0  0  0  0  0
   -7.5950   18.5870  -32.4160 C   0  0  0  0  0  0  0  0  0  0  0  0
   -7.2070   17.2900  -32.7640 C   0  0  0  0  0  0  0  0  0  0  0  0
   -6.2700   17.0870  -33.7800 C   0  0  0  0  0  0  0  0  0  0  0  0
   -5.7250   18.1810  -34.4570 C   0  0  0  0  0  0  0  0  0  0  0  0
   -6.1110   19.4810  -34.1130 C   0  0  0  0  0  0  0  0  0  0  0  0
   -6.9610   23.3870  -32.1240 C   0  0  0  0  0  0  0  0  0  0  0  0
   -6.1080   24.3410  -31.5590 C   0  0  0  0  0  0  0  0  0  0  0  0
   -1.8120   25.2850  -29.2810 N   0  0  0  0  0  0  0  0  0  0  0  0
   -0.8310   25.0070  -28.2690 C   0  0  0  0  0  0  0  0  0  0  0  0
   -0.5260   25.9920  -27.3160 C   0  0  0  0  0  0  0  0  0  0  0  0
    0.4400   25.7540  -26.3340 C   0  0  0  0  0  0  0  0  0  0  0  0
    1.1230   24.5360  -26.3050 C   0  0  0  0  0  0  0  0  0  0  0  0
    0.8460   23.5570  -27.2630 C   0  0  0  0  0  0  0  0  0  0  0  0
   -0.1220   23.7910  -28.2460 C   0  0  0  0  0  0  0  0  0  0  0  0
   -3.4804   22.3106  -30.7484 H   0  0  0  0  0  0  0  0  0  0  0  0
   -5.0094   20.6071  -31.7278 H   0  0  0  0  0  0  0  0  0  0  0  0
   -8.4330   21.3050  -32.9400 H   0  0  0  0  0  0  0  0  0  0  0  0
   -8.3414   18.7414  -31.6228 H   0  0  0  0  0  0  0  0  0  0  0  0
   -7.6404   16.4274  -32.2367 H   0  0  0  0  0  0  0  0  0  0  0  0
   -5.9612   16.0656  -34.0471 H   0  0  0  0  0  0  0  0  0  0  0  0
   -4.9919   18.0200  -35.2611 H   0  0  0  0  0  0  0  0  0  0  0  0
   -5.6891   20.3388  -34.6572 H   0  0  0  0  0  0  0  0  0  0  0  0
   -7.9466   23.6922  -32.5055 H   0  0  0  0  0  0  0  0  0  0  0  0
   -6.4160   25.3963  -31.5199 H   0  0  0  0  0  0  0  0  0  0  0  0
   -1.5910   26.0180  -29.9940 H   0  0  0  0  0  0  0  0  0  0  0  0
   -1.0511   26.9582  -27.3423 H   0  0  0  0  0  0  0  0  0  0  0  0
    0.6625   26.5267  -25.5834 H   0  0  0  0  0  0  0  0  0  0  0  0
    1.8787   24.3474  -25.5283 H   0  0  0  0  0  0  0  0  0  0  0  0
    1.3897   22.6010  -27.2443 H   0  0  0  0  0  0  0  0  0  0  0  0
   -0.3299   23.0215  -29.0040 H   0  0  0  0  0  0  0  0  0  0  0  0
  1  2  2  0
  2  3  1  0
  3  4  1  0
  4  5  2  0
  5  6  1  0
  6  7  2  0
  7  8  1  0
  8  9  1  0
  9 10  2  0
 10 11  1  0
 11 12  2  0
 12 13  1  0
 13 14  2  0
  7 15  1  0
 15 16  2  0
  2 17  1  0
 17 18  1  0
 18 19  2  0
 19 20  1  0
 20 21  2  0
 21 22  1  0
 22 23  2  0
 16  4  1  0
 23 18  1  0
 14  9  1  0
  5 24  1  0
  6 25  1  0
  8 26  1  0
 10 27  1  0
 11 28  1  0
 12 29  1  0
 13 30  1  0
 14 31  1  0
 15 32  1  0
 16 33  1  0
 17 34  1  0
 19 35  1  0
 20 36  1  0
 21 37  1  0
 22 38  1  0
 23 39  1  0
M  CHG  1   3  -1
M  END
>  <UniqueID>  (20) 
20

>  <SMILES>  (20) 
O=C([N-]c1ccc(Nc2ccccc2)cc1)Nc1ccccc1

>  <Energy>  (20) 
53.96376644473557

>  <Genealogy>  (20) 
O=C([N-]c1ccc(Nc2ccccc2)cc1)Nc1ccccc1 (protonated)
O=C([N-]c1ccc(Nc2ccccc2)cc1)Nc1ccccc1 (3D coordinates assigned)
O=C([N-]c1ccc(Nc2ccccc2)cc1)Nc1ccccc1 (optimized conformer: 53.96376644473557 kcal/mol)

>  <smiles>  (20) 
O=C(Nc1ccccc1)Nc1ccc(Nc2ccccc2)cc1

>  <score_type>  (20) 
oracle

>  <origin>  (20) 
adg

>  <m_score__min__energy>  (20) 
-9.8800000000000008

>  <m_primary>  (20) 
energy

$$$$
20:0
     RDKit          3D

 38 39  0  0  0  0  0  0  0  0999 V2000
   -2.2610   22.0960  -28.0770 C   0  0  0  0  0  0  0  0  0  0  0  0
   -1.6070   21.9200  -29.2300 C   0  0  0  0  0  0  0  0  0  0  0  0
   -1.9080   22.7480  -30.4480 C   0  0  0  0  0  0  0  0  0  0  0  0
   -3.3450   23.0790  -30.4940 N   0  0  0  0  0  0  0  0  0  0  0  0
   -3.7610   24.3270  -30.1040 C   0  0  0  0  0  0  0  0  0  0  0  0
   -2.8430   25.2980  -29.7130 O   0  0  0  0  0  0  0  0  0  0  0  0
   -5.1170   24.6460  -30.0820 C   0  0  0  0  0  0  0  0  0  0  0  0
   -6.0400   23.6710  -30.4360 C   0  0  0  0  0  0  0  0  0  0  0  0
   -7.2730   23.9330  -30.4160 O   0  0  0  0  0  0  0  0  0  0  0  0
   -5.6110   22.4370  -30.7980 N   0  0  0  0  0  0  0  0  0  0  0  0
   -4.2830   22.1320  -30.8410 C   0  0  0  0  0  0  0  0  0  0  0  0
   -3.8150   20.4550  -31.3280 S   0  0  0  0  0  0  0  0  0  0  0  0
   -4.1930   20.6810  -33.1030 C   0  0  0  0  0  0  0  0  0  0  0  0
   -5.2200   19.6930  -33.5810 C   0  0  0  0  0  0  0  0  0  0  0  0
   -4.8930   18.9030  -34.5090 O   0  0  0  0  0  0  0  0  0  0  0  0
   -6.5820   19.5980  -32.9850 C   0  0  0  0  0  0  0  0  0  0  0  0
   -7.0950   18.3420  -32.6100 C   0  0  0  0  0  0  0  0  0  0  0  0
   -8.3550   18.2350  -32.0160 C   0  0  0  0  0  0  0  0  0  0  0  0
   -9.1220   19.3780  -31.7870 C   0  0  0  0  0  0  0  0  0  0  0  0
   -8.6410   20.6370  -32.1670 C   0  0  0  0  0  0  0  0  0  0  0  0
   -9.4450   21.8710  -31.8790 C   0  0  0  0  0  0  0  0  0  0  0  0
   -7.3690   20.7450  -32.7510 C   0  0  0  0  0  0  0  0  0  0  0  0
   -2.0155   21.4724  -27.2047 H   0  0  0  0  0  0  0  0  0  0  0  0
   -3.0445   22.8644  -28.0008 H   0  0  0  0  0  0  0  0  0  0  0  0
   -0.8264   21.1472  -29.2889 H   0  0  0  0  0  0  0  0  0  0  0  0
   -1.3216   23.6779  -30.4097 H   0  0  0  0  0  0  0  0  0  0  0  0
   -1.6419   22.1742  -31.3480 H   0  0  0  0  0  0  0  0  0  0  0  0
   -5.4505   25.6525  -29.7893 H   0  0  0  0  0  0  0  0  0  0  0  0
   -6.3150   21.7070  -31.0550 H   0  0  0  0  0  0  0  0  0  0  0  0
   -4.5780   21.6995  -33.2590 H   0  0  0  0  0  0  0  0  0  0  0  0
   -3.2675   20.5186  -33.6749 H   0  0  0  0  0  0  0  0  0  0  0  0
   -6.4977   17.4353  -32.7865 H   0  0  0  0  0  0  0  0  0  0  0  0
   -8.7435   17.2470  -31.7280 H   0  0  0  0  0  0  0  0  0  0  0  0
  -10.1075   19.2897  -31.3065 H   0  0  0  0  0  0  0  0  0  0  0  0
   -9.5328   22.0057  -30.7908 H   0  0  0  0  0  0  0  0  0  0  0  0
   -8.9433   22.7462  -32.3175 H   0  0  0  0  0  0  0  0  0  0  0  0
  -10.4483   21.7656  -32.3175 H   0  0  0  0  0  0  0  0  0  0  0  0
   -6.9813   21.7360  -33.0295 H   0  0  0  0  0  0  0  0  0  0  0  0
  1  2  2  0
  2  3  1  0
  3  4  1  0
  4  5  1  0
  5  6  1  0
  5  7  2  0
  7  8  1  0
  8  9  2  0
  8 10  1  0
 10 11  2  0
 11 12  1  0
 12 13  1  0
 13 14  1  0
 14 15  2  0
 14 16  1  0
 16 17  2  0
 17 18  1  0
 18 19  2  0
 19 20  1  0
 20 21  1  0
 20 22  2  0
 11  4  1  0
 22 16  1  0
  1 23  1  0
  1 24  1  0
  2 25  1  0
  3 26  1  0
  3 27  1  0
  7 28  1  0
 10 29  1  0
 13 30  1  0
 13 31  1  0
 17 32  1  0
 18 33  1  0
 19 34  1  0
 21 35  1  0
 21 36  1  0
 21 37  1  0
 22 38  1  0
M  CHG  2   6  -1  10   1
M  END
>  <UniqueID>  (21) 
21

>  <SMILES>  (21) 
C=CCn1c([O-])cc(=O)[nH+]c1SCC(=O)c1cccc(C)c1

>  <Energy>  (21) 
35.615437989584414

>  <Genealogy>  (21) 
C=CCn1c([O-])cc(=O)[nH+]c1SCC(=O)c1cccc(C)c1 (protonated)
C=CCn1c([O-])cc(=O)[nH+]c1SCC(=O)c1cccc(C)c1 (3D coordinates assigned)
C=CCn1c([O-])cc(=O)[nH+]c1SCC(=O)c1cccc(C)c1 (optimized conformer: 35.615437989584414 kcal/mol)

>  <smiles>  (21) 
C=CCn1c(O)cc(=O)nc1SCC(=O)c1cccc(C)c1

>  <score_type>  (21) 
oracle

>  <origin>  (21) 
adg

>  <m_score__min__energy>  (21) 
-9.4700000000000006

>  <m_primary>  (21) 
energy

$$$$
21:0
     RDKit          3D

 31 33  0  0  0  0  0  0  0  0999 V2000
   -7.2030   13.7500  -34.5960 C   0  0  0  0  0  0  0  0  0  0  0  0
   -5.9890   14.4950  -34.6380 O   0  0  0  0  0  0  0  0  0  0  0  0
   -5.8510   15.8100  -34.1680 C   0  0  0  0  0  0  0  0  0  0  0  0
   -4.6710   16.5550  -34.3440 C   0  0  0  0  0  0  0  0  0  0  0  0
   -4.5820   17.8620  -33.8560 C   0  0  0  0  0  0  0  0  0  0  0  0
   -5.6690   18.4490  -33.1840 C   0  0  0  0  0  0  0  0  0  0  0  0
   -5.5740   19.8390  -32.6660 C   0  0  0  0  0  0  0  0  0  0  0  0
   -4.3410   20.5140  -32.6510 C   0  0  0  0  0  0  0  0  0  0  0  0
   -4.2510   21.8210  -32.1640 C   0  0  0  0  0  0  0  0  0  0  0  0
   -5.3940   22.4800  -31.6820 C   0  0  0  0  0  0  0  0  0  0  0  0
   -5.2980   23.8620  -31.1670 C   0  0  0  0  0  0  0  0  0  0  0  0
   -6.3600   24.6460  -30.8860 N   0  0  0  0  0  0  0  0  0  0  0  0
   -5.8390   25.7850  -30.4580 N   0  0  0  0  0  0  0  0  0  0  0  0
   -4.5220   25.6930  -30.4780 N   0  0  0  0  0  0  0  0  0  0  0  0
   -4.1410   24.5060  -30.9160 N   0  0  0  0  0  0  0  0  0  0  0  0
   -6.6260   21.8090  -31.6960 C   0  0  0  0  0  0  0  0  0  0  0  0
   -6.7160   20.5010  -32.1830 C   0  0  0  0  0  0  0  0  0  0  0  0
   -6.8450   17.7000  -33.0120 C   0  0  0  0  0  0  0  0  0  0  0  0
   -6.9320   16.3940  -33.4990 C   0  0  0  0  0  0  0  0  0  0  0  0
   -7.4893   13.5743  -33.5486 H   0  0  0  0  0  0  0  0  0  0  0  0
   -7.9982   14.3158  -35.1035 H   0  0  0  0  0  0  0  0  0  0  0  0
   -7.0586   12.7848  -35.1035 H   0  0  0  0  0  0  0  0  0  0  0  0
   -3.8140   16.1070  -34.8682 H   0  0  0  0  0  0  0  0  0  0  0  0
   -3.6544   18.4358  -33.9988 H   0  0  0  0  0  0  0  0  0  0  0  0
   -3.4387   20.0089  -33.0260 H   0  0  0  0  0  0  0  0  0  0  0  0
   -3.2793   22.3366  -32.1582 H   0  0  0  0  0  0  0  0  0  0  0  0
   -3.8690   26.4540  -30.1880 H   0  0  0  0  0  0  0  0  0  0  0  0
   -7.5278   22.3153  -31.3212 H   0  0  0  0  0  0  0  0  0  0  0  0
   -7.6881   19.9863  -32.1881 H   0  0  0  0  0  0  0  0  0  0  0  0
   -7.7042   18.1458  -32.4895 H   0  0  0  0  0  0  0  0  0  0  0  0
   -7.8589   15.8193  -33.3553 H   0  0  0  0  0  0  0  0  0  0  0  0
  1  2  1  0
  2  3  1  0
  3  4  2  0
  4  5  1  0
  5  6  2  0
  6  7  1  0
  7  8  2  0
  8  9  1  0
  9 10  2  0
 10 11  1  0
 11 12  2  0
 12 13  1  0
 13 14  1  0
 14 15  2  0
 10 16  1  0
 16 17  2  0
  6 18  1  0
 18 19  2  0
 19  3  1  0
 17  7  1  0
 15 11  1  0
  1 20  1  0
  1 21  1  0
  1 22  1  0
  4 23  1  0
  5 24  1  0
  8 25  1  0
  9 26  1  0
 14 27  1  0
 16 28  1  0
 17 29  1  0
 18 30  1  0
 19 31  1  0
M  CHG  2  13  -1  14   1
M  END
>  <UniqueID>  (22) 
22

>  <SMILES>  (22) 
COc1ccc(-c2ccc(-c3n[n-][nH+]n3)cc2)cc1

>  <Energy>  (22) 
77.01477214527792

>  <Genealogy>  (22) 
COc1ccc(-c2ccc(-c3n[n-][nH+]n3)cc2)cc1 (protonated)
COc1ccc(-c2ccc(-c3n[n-][nH+]n3)cc2)cc1 (3D coordinates assigned)
COc1ccc(-c2ccc(-c3n[n-][nH+]n3)cc2)cc1 (optimized conformer: 77.01477214527792 kcal/mol)

>  <smiles>  (22) 
COc1ccc(-c2ccc(-c3nn[nH]n3)cc2)cc1

>  <score_type>  (22) 
oracle

>  <origin>  (22) 
adg

>  <m_score__min__energy>  (22) 
-7.8200000000000003

>  <m_primary>  (22) 
energy

$$$$
22:0
     RDKit          3D

 24 24  0  0  0  0  0  0  0  0999 V2000
   -8.8810   21.9020  -31.5990 C   0  0  0  0  0  0  0  0  0  0  0  0
   -7.9580   22.7940  -32.1860 O   0  0  0  0  0  0  0  0  0  0  0  0
   -6.7740   22.8760  -31.4070 C   0  0  2  0  0  0  0  0  0  0  0  0
   -7.1410   23.4280  -30.0120 C   0  0  0  0  0  0  0  0  0  0  0  0
   -6.8610   24.9240  -29.9000 C   0  0  0  0  0  0  0  0  0  0  0  0
   -5.3690   25.2200  -30.1490 C   0  0  0  0  0  0  0  0  0  0  0  0
   -4.7570   24.3840  -31.2150 N   0  0  0  0  0  0  0  0  0  0  0  0
   -3.8110   23.3900  -30.6800 C   0  0  0  0  0  0  0  0  0  0  0  0
   -5.7410   23.7750  -32.1350 C   0  0  0  0  0  0  0  0  0  0  0  0
   -8.8106   21.9700  -30.5034 H   0  0  0  0  0  0  0  0  0  0  0  0
   -9.9000   22.1662  -31.9181 H   0  0  0  0  0  0  0  0  0  0  0  0
   -8.6517   20.8746  -31.9181 H   0  0  0  0  0  0  0  0  0  0  0  0
   -6.3165   21.8841  -31.2774 H   0  0  0  0  0  0  0  0  0  0  0  0
   -8.2115   23.2520  -29.8303 H   0  0  0  0  0  0  0  0  0  0  0  0
   -6.5214   22.9085  -29.2661 H   0  0  0  0  0  0  0  0  0  0  0  0
   -7.4650   25.4611  -30.6462 H   0  0  0  0  0  0  0  0  0  0  0  0
   -7.1227   25.2574  -28.8849 H   0  0  0  0  0  0  0  0  0  0  0  0
   -5.2694   26.2767  -30.4380 H   0  0  0  0  0  0  0  0  0  0  0  0
   -4.8374   24.9847  -29.2151 H   0  0  0  0  0  0  0  0  0  0  0  0
   -3.8352   23.4154  -29.5806 H   0  0  0  0  0  0  0  0  0  0  0  0
   -4.0962   22.3869  -31.0299 H   0  0  0  0  0  0  0  0  0  0  0  0
   -2.7950   23.6253  -31.0299 H   0  0  0  0  0  0  0  0  0  0  0  0
   -6.2812   24.5805  -32.6540 H   0  0  0  0  0  0  0  0  0  0  0  0
   -5.1847   23.1360  -32.8366 H   0  0  0  0  0  0  0  0  0  0  0  0
  1  2  1  0
  2  3  1  0
  3  4  1  0
  4  5  1  0
  5  6  1  0
  6  7  1  0
  7  8  1  0
  7  9  1  0
  9  3  1  0
  1 10  1  0
  1 11  1  0
  1 12  1  0
  3 13  1  1
  4 14  1  0
  4 15  1  0
  5 16  1  0
  5 17  1  0
  6 18  1  0
  6 19  1  0
  8 20  1  0
  8 21  1  0
  8 22  1  0
  9 23  1  0
  9 24  1  0
M  END
>  <UniqueID>  (23) 
23

>  <SMILES>  (23) 
CO[C@@H]1CCCN(C)C1

>  <Energy>  (23) 
31.287025099849988

>  <Genealogy>  (23) 
CO[C@@H]1CCCN(C)C1 (chirality)
CO[C@@H]1CCCN(C)C1 (3D coordinates assigned)
CO[C@@H]1CCCN(C)C1 (nonaromatic ring conformer: 31.287025099849988 kcal/mol)

>  <smiles>  (23) 
COC1CCCN(C)C1

>  <score_type>  (23) 
oracle

>  <origin>  (23) 
adg

>  <m_score__min__energy>  (23) 
-4.3300000000000001

>  <m_primary>  (23) 
energy

$$$$
23:0
     RDKit          3D

 40 42  0  0  0  0  0  0  0  0999 V2000
   -1.6250   25.9710  -26.6030 C   0  0  0  0  0  0  0  0  0  0  0  0
   -0.8860   26.1320  -27.9220 C   0  0  0  0  0  0  0  0  0  0  0  0
   -1.7080   25.6720  -28.9740 O   0  0  0  0  0  0  0  0  0  0  0  0
   -2.1490   24.3490  -28.7250 C   0  0  0  0  0  0  0  0  0  0  0  0
   -3.6600   24.3390  -28.4980 C   0  0  0  0  0  0  0  0  0  0  0  0
   -4.3510   23.8300  -29.6790 N   0  0  0  0  0  0  0  0  0  0  0  0
   -4.6330   22.5390  -29.9330 C   0  0  0  0  0  0  0  0  0  0  0  0
   -5.2070   22.4630  -31.1880 C   0  0  0  0  0  0  0  0  0  0  0  0
   -5.6910   21.2390  -31.8780 C   0  0  0  0  0  0  0  0  0  0  0  0
   -4.7950   20.4870  -32.6400 C   0  0  0  0  0  0  0  0  0  0  0  0
   -5.2220   19.3350  -33.2870 C   0  0  0  0  0  0  0  0  0  0  0  0
   -4.3430   18.6040  -34.0220 N   0  0  0  0  0  0  0  0  0  0  0  0
   -4.7320   17.4750  -34.6630 C   0  0  0  0  0  0  0  0  0  0  0  0
   -6.0570   17.0530  -34.5670 C   0  0  0  0  0  0  0  0  0  0  0  0
   -6.9450   17.7760  -33.8340 N   0  0  0  0  0  0  0  0  0  0  0  0
   -6.5660   18.9210  -33.1780 C   0  0  0  0  0  0  0  0  0  0  0  0
   -7.4560   19.6660  -32.4310 N   0  0  0  0  0  0  0  0  0  0  0  0
   -8.8640   19.2350  -32.3160 C   0  0  0  0  0  0  0  0  0  0  0  0
   -7.0370   20.8160  -31.7960 C   0  0  0  0  0  0  0  0  0  0  0  0
   -7.8630   21.5190  -31.1500 O   0  0  0  0  0  0  0  0  0  0  0  0
   -5.2440   23.7740  -31.6400 C   0  0  0  0  0  0  0  0  0  0  0  0
   -4.7090   24.5840  -30.7060 N   0  0  0  0  0  0  0  0  0  0  0  0
   -0.9242   26.1237  -25.7690 H   0  0  0  0  0  0  0  0  0  0  0  0
   -2.4339   26.7140  -26.5429 H   0  0  0  0  0  0  0  0  0  0  0  0
   -2.0516   24.9589  -26.5429 H   0  0  0  0  0  0  0  0  0  0  0  0
   -0.6443   27.1932  -28.0811 H   0  0  0  0  0  0  0  0  0  0  0  0
    0.0451   25.5469  -27.8977 H   0  0  0  0  0  0  0  0  0  0  0  0
   -1.9058   23.7145  -29.5900 H   0  0  0  0  0  0  0  0  0  0  0  0
   -1.6451   23.9621  -27.8270 H   0  0  0  0  0  0  0  0  0  0  0  0
   -3.8925   23.6951  -27.6370 H   0  0  0  0  0  0  0  0  0  0  0  0
   -3.9975   25.3678  -28.3041 H   0  0  0  0  0  0  0  0  0  0  0  0
   -4.4402   21.6914  -29.2589 H   0  0  0  0  0  0  0  0  0  0  0  0
   -3.7467   20.8083  -32.7282 H   0  0  0  0  0  0  0  0  0  0  0  0
   -4.0075   16.8960  -35.2546 H   0  0  0  0  0  0  0  0  0  0  0  0
   -6.3832   16.1378  -35.0827 H   0  0  0  0  0  0  0  0  0  0  0  0
   -7.9230   17.4170  -33.7980 H   0  0  0  0  0  0  0  0  0  0  0  0
   -9.1363   19.1516  -31.2535 H   0  0  0  0  0  0  0  0  0  0  0  0
   -9.5150   19.9750  -32.8044 H   0  0  0  0  0  0  0  0  0  0  0  0
   -8.9893   18.2574  -32.8044 H   0  0  0  0  0  0  0  0  0  0  0  0
   -5.6473   24.1011  -32.6097 H   0  0  0  0  0  0  0  0  0  0  0  0
  1  2  1  0
  2  3  1  0
  3  4  1  0
  4  5  1  0
  5  6  1  0
  6  7  1  0
  7  8  2  0
  8  9  1  0
  9 10  2  0
 10 11  1  0
 11 12  2  0
 12 13  1  0
 13 14  2  0
 14 15  1  0
 15 16  2  0
 16 17  1  0
 17 18  1  0
 17 19  1  0
 19 20  2  0
  8 21  1  0
 21 22  2  0
 22  6  1  0
 19  9  1  0
 16 11  1  0
  1 23  1  0
  1 24  1  0
  1 25  1  0
  2 26  1  0
  2 27  1  0
  4 28  1  0
  4 29  1  0
  5 30  1  0
  5 31  1  0
  7 32  1  0
 10 33  1  0
 13 34  1  0
 14 35  1  0
 15 36  1  0
 18 37  1  0
 18 38  1  0
 18 39  1  0
 21 40  1  0
M  CHG  1  15   1
M  END
>  <UniqueID>  (24) 
24

>  <SMILES>  (24) 
CCOCCn1cc(-c2cc3ncc[nH+]c3n(C)c2=O)cn1

>  <Energy>  (24) 
82.05913266332642

>  <Genealogy>  (24) 
CCOCCn1cc(-c2cc3ncc[nH+]c3n(C)c2=O)cn1 (protonated)
CCOCCn1cc(-c2cc3ncc[nH+]c3n(C)c2=O)cn1 (3D coordinates assigned)
CCOCCn1cc(-c2cc3ncc[nH+]c3n(C)c2=O)cn1 (optimized conformer: 82.05913266332642 kcal/mol)

>  <smiles>  (24) 
CCOCCn1cc(-c2cc3nccnc3n(C)c2=O)cn1

>  <score_type>  (24) 
oracle

>  <origin>  (24) 
adg

>  <m_score__min__energy>  (24) 
-6.7800000000000002

>  <m_primary>  (24) 
energy

$$$$
24:0
     RDKit          3D

 49 52  0  0  0  0  0  0  0  0999 V2000
   -1.7330   26.0920  -25.4340 C   0  0  0  0  0  0  0  0  0  0  0  0
   -2.4210   24.8930  -25.7770 O   0  0  0  0  0  0  0  0  0  0  0  0
   -2.8540   24.5730  -27.0730 C   0  0  0  0  0  0  0  0  0  0  0  0
   -1.8910   24.4200  -28.0770 C   0  0  0  0  0  0  0  0  0  0  0  0
   -2.2710   24.1000  -29.3830 C   0  0  0  0  0  0  0  0  0  0  0  0
   -3.6210   23.9140  -29.7030 C   0  0  0  0  0  0  0  0  0  0  0  0
   -3.9630   23.6070  -31.0280 O   0  0  0  0  0  0  0  0  0  0  0  0
   -3.9870   22.3190  -31.5830 C   0  0  0  0  0  0  0  0  0  0  0  0
   -4.6060   21.2410  -30.9290 C   0  0  0  0  0  0  0  0  0  0  0  0
   -4.5870   19.9760  -31.5200 C   0  0  0  0  0  0  0  0  0  0  0  0
   -3.9380   19.7880  -32.7450 C   0  0  0  0  0  0  0  0  0  0  0  0
   -3.9200   18.2080  -33.5230 S   0  0  0  0  0  0  0  0  0  0  0  0
   -2.6280   18.0590  -34.2800 O   0  0  0  0  0  0  0  0  0  0  0  0
   -3.9820   17.1350  -32.4710 O   0  0  0  0  0  0  0  0  0  0  0  0
   -5.2780   18.0870  -34.6230 N   0  0  1  0  0  0  0  0  0  0  0  0
   -6.0720   16.8610  -34.4110 C   0  0  0  0  0  0  0  0  0  0  0  0
   -6.7820   16.8390  -33.0490 C   0  0  0  0  0  0  0  0  0  0  0  0
   -7.4010   18.1660  -32.6980 C   0  0  0  0  0  0  0  0  0  0  0  0
   -8.2880   18.2410  -31.6130 C   0  0  0  0  0  0  0  0  0  0  0  0
   -8.8290   19.4690  -31.2250 C   0  0  0  0  0  0  0  0  0  0  0  0
   -8.4830   20.6330  -31.9130 C   0  0  0  0  0  0  0  0  0  0  0  0
   -7.5930   20.5730  -32.9870 C   0  0  0  0  0  0  0  0  0  0  0  0
   -7.0330   19.3470  -33.3780 C   0  0  0  0  0  0  0  0  0  0  0  0
   -6.1240   19.2980  -34.5830 C   0  0  0  0  0  0  0  0  0  0  0  0
   -3.3200   20.8820  -33.3600 C   0  0  0  0  0  0  0  0  0  0  0  0
   -3.3530   22.1060  -32.7680 N   0  0  0  0  0  0  0  0  0  0  0  0
   -4.5940   24.0850  -28.7030 C   0  0  0  0  0  0  0  0  0  0  0  0
   -4.2140   24.4060  -27.3950 C   0  0  0  0  0  0  0  0  0  0  0  0
   -1.6802   26.1840  -24.3391 H   0  0  0  0  0  0  0  0  0  0  0  0
   -0.7147   26.0620  -25.8490 H   0  0  0  0  0  0  0  0  0  0  0  0
   -2.2727   26.9560  -25.8490 H   0  0  0  0  0  0  0  0  0  0  0  0
   -0.8260   24.5528  -27.8359 H   0  0  0  0  0  0  0  0  0  0  0  0
   -1.5044   23.9936  -30.1647 H   0  0  0  0  0  0  0  0  0  0  0  0
   -5.1019   21.3921  -29.9588 H   0  0  0  0  0  0  0  0  0  0  0  0
   -5.0817   19.1285  -31.0230 H   0  0  0  0  0  0  0  0  0  0  0  0
   -4.8680   18.0260  -35.5850 H   0  0  0  0  0  0  0  0  0  0  0  0
   -6.8311   16.7925  -35.2041 H   0  0  0  0  0  0  0  0  0  0  0  0
   -5.3774   16.0084  -34.4359 H   0  0  0  0  0  0  0  0  0  0  0  0
   -7.5746   16.0768  -33.0770 H   0  0  0  0  0  0  0  0  0  0  0  0
   -6.0266   16.6103  -32.2828 H   0  0  0  0  0  0  0  0  0  0  0  0
   -8.5590   17.3268  -31.0645 H   0  0  0  0  0  0  0  0  0  0  0  0
   -9.5279   19.5186  -30.3770 H   0  0  0  0  0  0  0  0  0  0  0  0
   -8.9121   21.5990  -31.6086 H   0  0  0  0  0  0  0  0  0  0  0  0
   -7.3291   21.4924  -33.5301 H   0  0  0  0  0  0  0  0  0  0  0  0
   -6.7448   19.3214  -35.4908 H   0  0  0  0  0  0  0  0  0  0  0  0
   -5.4510   20.1659  -34.5213 H   0  0  0  0  0  0  0  0  0  0  0  0
   -2.8065   20.7520  -34.3241 H   0  0  0  0  0  0  0  0  0  0  0  0
   -5.6593   23.9659  -28.9498 H   0  0  0  0  0  0  0  0  0  0  0  0
   -4.9808   24.5282  -26.6158 H   0  0  0  0  0  0  0  0  0  0  0  0
  1  2  1  0
  2  3  1  0
  3  4  2  0
  4  5  1  0
  5  6  2  0
  6  7  1  0
  7  8  1  0
  8  9  2  0
  9 10  1  0
 10 11  2  0
 11 12  1  0
 12 13  2  0
 12 14  2  0
 12 15  1  0
 15 16  1  0
 16 17  1  0
 17 18  1  0
 18 19  2  0
 19 20  1  0
 20 21  2  0
 21 22  1  0
 22 23  2  0
 23 24  1  0
 11 25  1  0
 25 26  2  0
  6 27  1  0
 27 28  2  0
 28  3  1  0
 26  8  1  0
 24 15  1  0
 23 18  1  0
  1 29  1  0
  1 30  1  0
  1 31  1  0
  4 32  1  0
  5 33  1  0
  9 34  1  0
 10 35  1  0
 15 36  1  6
 16 37  1  0
 16 38  1  0
 17 39  1  0
 17 40  1  0
 19 41  1  0
 20 42  1  0
 21 43  1  0
 22 44  1  0
 24 45  1  0
 24 46  1  0
 25 47  1  0
 27 48  1  0
 28 49  1  0
M  CHG  1  15   1
M  END
>  <UniqueID>  (25) 
25

>  <SMILES>  (25) 
COc1ccc(Oc2ccc(S(=O)(=O)[N@H+]3CCc4ccccc4C3)cn2)cc1

>  <Energy>  (25) 
63.528988501530506

>  <Genealogy>  (25) 
COc1ccc(Oc2ccc(S(=O)(=O)[NH+]3CCc4ccccc4C3)cn2)cc1 (protonated)
COc1ccc(Oc2ccc(S(=O)(=O)[N@H+]3CCc4ccccc4C3)cn2)cc1 (chirality)
COc1ccc(Oc2ccc(S(=O)(=O)[N@H+]3CCc4ccccc4C3)cn2)cc1 (3D coordinates assigned)
COc1ccc(Oc2ccc(S(=O)(=O)[N@H+]3CCc4ccccc4C3)cn2)cc1 (nonaromatic ring conformer: 63.528988501530506 kcal/mol)

>  <smiles>  (25) 
COc1ccc(Oc2ccc(S(=O)(=O)N3CCc4ccccc4C3)cn2)cc1

>  <score_type>  (25) 
oracle

>  <origin>  (25) 
adg

>  <m_score__min__energy>  (25) 
-8.6600000000000001

>  <m_primary>  (25) 
energy

$$$$
25:0
     RDKit          3D

 40 42  0  0  0  0  0  0  0  0999 V2000
   -9.4780   21.7250  -31.9330 C   0  0  0  0  0  0  0  0  0  0  0  0
   -8.4410   21.8810  -30.8260 C   0  0  0  0  0  0  0  0  0  0  0  0
   -7.0740   21.8070  -31.3830 N   0  0  0  0  0  0  0  0  0  0  0  0
   -6.2860   22.9320  -31.4810 C   0  0  0  0  0  0  0  0  0  0  0  0
   -6.8230   24.5380  -30.8440 S   0  0  0  0  0  0  0  0  0  0  0  0
   -5.6600   24.5480  -29.4320 C   0  0  0  0  0  0  0  0  0  0  0  0
   -4.2300   24.4950  -29.8930 C   0  0  0  0  0  0  0  0  0  0  0  0
   -3.8670   25.3050  -30.7900 O   0  0  0  0  0  0  0  0  0  0  0  0
   -3.2480   23.5130  -29.3540 C   0  0  0  0  0  0  0  0  0  0  0  0
   -1.8650   23.7880  -29.3270 C   0  0  0  0  0  0  0  0  0  0  0  0
   -0.9640   22.8570  -28.8020 C   0  0  0  0  0  0  0  0  0  0  0  0
   -1.4280   21.6410  -28.2950 C   0  0  0  0  0  0  0  0  0  0  0  0
   -2.7930   21.3550  -28.3120 C   0  0  0  0  0  0  0  0  0  0  0  0
   -3.6980   22.2820  -28.8370 C   0  0  0  0  0  0  0  0  0  0  0  0
   -5.0640   22.8680  -32.0790 N   0  0  0  0  0  0  0  0  0  0  0  0
   -4.5750   21.7000  -32.5710 C   0  0  0  0  0  0  0  0  0  0  0  0
   -3.3040   21.6550  -33.1680 C   0  0  0  0  0  0  0  0  0  0  0  0
   -2.8080   20.4520  -33.6730 C   0  0  0  0  0  0  0  0  0  0  0  0
   -3.5730   19.2870  -33.5890 C   0  0  0  0  0  0  0  0  0  0  0  0
   -4.8390   19.3200  -32.9970 C   0  0  0  0  0  0  0  0  0  0  0  0
   -5.3490   20.5290  -32.4820 C   0  0  0  0  0  0  0  0  0  0  0  0
   -6.6180   20.6120  -31.8860 C   0  0  0  0  0  0  0  0  0  0  0  0
   -7.3410   19.5760  -31.8220 O   0  0  0  0  0  0  0  0  0  0  0  0
  -10.4719   21.5755  -31.4860 H   0  0  0  0  0  0  0  0  0  0  0  0
   -9.4887   22.6316  -32.5558 H   0  0  0  0  0  0  0  0  0  0  0  0
   -9.2215   20.8553  -32.5558 H   0  0  0  0  0  0  0  0  0  0  0  0
   -8.5795   22.8555  -30.3350 H   0  0  0  0  0  0  0  0  0  0  0  0
   -8.5729   21.0672  -30.0978 H   0  0  0  0  0  0  0  0  0  0  0  0
   -5.8135   25.4684  -28.8495 H   0  0  0  0  0  0  0  0  0  0  0  0
   -5.8569   23.6571  -28.8176 H   0  0  0  0  0  0  0  0  0  0  0  0
   -1.4918   24.7441  -29.7228 H   0  0  0  0  0  0  0  0  0  0  0  0
    0.1126   23.0825  -28.7881 H   0  0  0  0  0  0  0  0  0  0  0  0
   -0.7174   20.9095  -27.8826 H   0  0  0  0  0  0  0  0  0  0  0  0
   -3.1582   20.3978  -27.9114 H   0  0  0  0  0  0  0  0  0  0  0  0
   -4.7728   22.0480  -28.8466 H   0  0  0  0  0  0  0  0  0  0  0  0
   -4.4900   23.7390  -32.1490 H   0  0  0  0  0  0  0  0  0  0  0  0
   -2.6981   22.5704  -33.2376 H   0  0  0  0  0  0  0  0  0  0  0  0
   -1.8118   20.4217  -34.1384 H   0  0  0  0  0  0  0  0  0  0  0  0
   -3.1788   18.3414  -33.9894 H   0  0  0  0  0  0  0  0  0  0  0  0
   -5.4387   18.4001  -32.9329 H   0  0  0  0  0  0  0  0  0  0  0  0
  1  2  1  0
  2  3  1  0
  3  4  1  0
  4  5  1  0
  5  6  1  0
  6  7  1  0
  7  8  2  0
  7  9  1  0
  9 10  2  0
 10 11  1  0
 11 12  2  0
 12 13  1  0
 13 14  2  0
  4 15  2  0
 15 16  1  0
 16 17  2  0
 17 18  1  0
 18 19  2  0
 19 20  1  0
 20 21  2  0
 21 22  1  0
 22 23  2  0
 22  3  1  0
 14  9  1  0
 21 16  1  0
  1 24  1  0
  1 25  1  0
  1 26  1  0
  2 27  1  0
  2 28  1  0
  6 29  1  0
  6 30  1  0
 10 31  1  0
 11 32  1  0
 12 33  1  0
 13 34  1  0
 14 35  1  0
 15 36  1  0
 17 37  1  0
 18 38  1  0
 19 39  1  0
 20 40  1  0
M  CHG  1  15   1
M  END
>  <UniqueID>  (26) 
26

>  <SMILES>  (26) 
CCn1c(SCC(=O)c2ccccc2)[nH+]c2ccccc2c1=O

>  <Energy>  (26) 
45.16581621851402

>  <Genealogy>  (26) 
CCn1c(SCC(=O)c2ccccc2)[nH+]c2ccccc2c1=O (protonated)
CCn1c(SCC(=O)c2ccccc2)[nH+]c2ccccc2c1=O (3D coordinates assigned)
CCn1c(SCC(=O)c2ccccc2)[nH+]c2ccccc2c1=O (optimized conformer: 45.16581621851402 kcal/mol)

>  <smiles>  (26) 
CCn1c(SCC(=O)c2ccccc2)nc2ccccc2c1=O

>  <score_type>  (26) 
oracle

>  <origin>  (26) 
adg

>  <m_score__min__energy>  (26) 
-8.4000000000000004

>  <m_primary>  (26) 
energy

$$$$
26:0
     RDKit          3D

 35 37  0  0  0  0  0  0  0  0999 V2000
    0.7090   28.1420  -26.2200 C   0  0  0  0  0  0  0  0  0  0  0  0
   -0.5270   27.5000  -25.6660 C   0  0  0  0  0  0  0  0  0  0  0  0
   -1.1080   28.0500  -24.6450 N   0  0  0  0  0  0  0  0  0  0  0  0
   -1.0620   26.2480  -26.2580 C   0  0  0  0  0  0  0  0  0  0  0  0
   -2.2050   25.8390  -25.9160 O   0  0  0  0  0  0  0  0  0  0  0  0
   -0.2770   25.4810  -27.1880 N   0  0  0  0  0  0  0  0  0  0  0  0
   -0.8260   24.4630  -28.0460 C   0  0  0  0  0  0  0  0  0  0  0  0
   -0.3070   23.1770  -28.0630 C   0  0  0  0  0  0  0  0  0  0  0  0
   -0.8700   22.2090  -28.8810 C   0  0  0  0  0  0  0  0  0  0  0  0
   -1.9950   22.4720  -29.7150 C   0  0  0  0  0  0  0  0  0  0  0  0
   -2.4040   21.4030  -30.5470 C   0  0  0  0  0  0  0  0  0  0  0  0
   -1.6270   20.4100  -30.6610 O   0  0  0  0  0  0  0  0  0  0  0  0
   -3.6010   21.2710  -31.2380 C   0  0  0  0  0  0  0  0  0  0  0  0
   -4.6800   22.1430  -31.3780 C   0  0  0  0  0  0  0  0  0  0  0  0
   -5.8280   21.5990  -32.0050 C   0  0  0  0  0  0  0  0  0  0  0  0
   -6.9290   22.3860  -32.3140 C   0  0  0  0  0  0  0  0  0  0  0  0
   -6.8880   23.7350  -32.0140 C   0  0  0  0  0  0  0  0  0  0  0  0
   -5.7940   24.2530  -31.4100 N   0  0  0  0  0  0  0  0  0  0  0  0
   -4.6910   23.5220  -31.0580 C   0  0  0  0  0  0  0  0  0  0  0  0
   -3.6800   24.2570  -30.4180 C   0  0  0  0  0  0  0  0  0  0  0  0
   -3.8630   25.6430  -30.4670 O   0  0  0  0  0  0  0  0  0  0  0  0
   -2.5630   23.7850  -29.6770 C   0  0  0  0  0  0  0  0  0  0  0  0
   -1.9450   24.7480  -28.8270 C   0  0  0  0  0  0  0  0  0  0  0  0
    1.3515   28.4757  -25.3919 H   0  0  0  0  0  0  0  0  0  0  0  0
    1.2553   27.4137  -26.8373 H   0  0  0  0  0  0  0  0  0  0  0  0
    0.4273   29.0077  -26.8373 H   0  0  0  0  0  0  0  0  0  0  0  0
   -1.8970   27.6000  -24.1300 H   0  0  0  0  0  0  0  0  0  0  0  0
    0.7610   25.5960  -27.1750 H   0  0  0  0  0  0  0  0  0  0  0  0
    0.5534   22.9242  -27.4260 H   0  0  0  0  0  0  0  0  0  0  0  0
   -0.4316   21.2002  -28.8862 H   0  0  0  0  0  0  0  0  0  0  0  0
   -3.7184   20.3132  -31.7661 H   0  0  0  0  0  0  0  0  0  0  0  0
   -5.8474   20.5275  -32.2529 H   0  0  0  0  0  0  0  0  0  0  0  0
   -7.8176   21.9445  -32.7888 H   0  0  0  0  0  0  0  0  0  0  0  0
   -7.7403   24.3835  -32.2651 H   0  0  0  0  0  0  0  0  0  0  0  0
   -2.3702   25.7616  -28.7854 H   0  0  0  0  0  0  0  0  0  0  0  0
  1  2  1  0
  2  3  2  3
  2  4  1  0
  4  5  2  0
  4  6  1  0
  6  7  1  0
  7  8  2  0
  8  9  1  0
  9 10  2  0
 10 11  1  0
 11 12  2  0
 11 13  1  0
 13 14  2  0
 14 15  1  0
 15 16  2  0
 16 17  1  0
 17 18  2  0
 18 19  1  0
 19 20  2  0
 20 21  1  0
 20 22  1  0
 22 23  2  0
 23  7  1  0
 22 10  1  0
 19 14  1  0
  1 24  1  0
  1 25  1  0
  1 26  1  0
  3 27  1  0
  6 28  1  0
  8 29  1  0
  9 30  1  0
 13 31  1  0
 15 32  1  0
 16 33  1  0
 17 34  1  0
 23 35  1  0
M  CHG  1  21  -1
M  END
>  <UniqueID>  (27) 
27

>  <SMILES>  (27) 
CC(=N)C(=O)Nc1ccc2c(=O)cc3cccnc3c([O-])c2c1

>  <Energy>  (27) 
86.27813284277126

>  <Genealogy>  (27) 
CC(=N)C(=O)Nc1ccc2c(=O)cc3cccnc3c([O-])c2c1 (protonated)
CC(=N)C(=O)Nc1ccc2c(=O)cc3cccnc3c([O-])c2c1 (3D coordinates assigned)
CC(=N)C(=O)Nc1ccc2c(=O)cc3cccnc3c([O-])c2c1 (optimized conformer: 86.27813284277126 kcal/mol)

>  <smiles>  (27) 
CC(=N)C(=O)Nc1ccc2c(=O)cc3cccnc3c(O)c2c1

>  <score_type>  (27) 
oracle

>  <origin>  (27) 
adg

>  <m_score__min__energy>  (27) 
-10.220000000000001

>  <m_primary>  (27) 
energy

$$$$
27:0
     RDKit          3D

 44 47  0  0  0  0  0  0  0  0999 V2000
   -4.5920   25.6460  -30.8330 N   0  0  0  0  0  0  0  0  0  0  0  0
   -5.5860   25.0530  -30.8350 C   0  0  0  0  0  0  0  0  0  0  0  0
   -6.8440   24.3000  -30.8360 C   0  0  0  0  0  0  0  0  0  0  0  0
   -6.5710   22.8650  -30.8430 N   0  0  0  0  0  0  0  0  0  0  0  0
   -7.4270   21.9220  -31.5050 C   0  0  0  0  0  0  0  0  0  0  0  0
   -8.4580   22.3230  -32.1110 O   0  0  0  0  0  0  0  0  0  0  0  0
   -7.1170   20.4490  -31.4410 C   0  0  1  0  0  0  0  0  0  0  0  0
   -8.3910   19.6120  -31.3100 C   0  0  1  0  0  0  0  0  0  0  0  0
   -9.4160   19.6670  -32.4400 C   0  0  0  0  0  0  0  0  0  0  0  0
   -8.3540   18.5820  -32.4320 C   0  0  1  0  0  0  0  0  0  0  0  0
   -7.1110   18.8550  -33.2690 C   0  0  0  0  0  0  0  0  0  0  0  0
   -6.4480   19.9890  -32.6480 N   0  0  0  0  0  0  0  0  0  0  0  0
   -5.0780   20.2930  -32.9230 C   0  0  0  0  0  0  0  0  0  0  0  0
   -4.2340   19.3620  -33.0050 O   0  0  0  0  0  0  0  0  0  0  0  0
   -4.6340   21.7180  -33.0400 C   0  0  0  0  0  0  0  0  0  0  0  0
   -3.5620   21.9950  -32.0830 N   0  0  0  0  0  0  0  0  0  0  0  0
   -3.6830   22.8460  -31.0670 N   0  0  0  0  0  0  0  0  0  0  0  0
   -2.5250   22.8440  -30.3670 C   0  0  0  0  0  0  0  0  0  0  0  0
   -2.2900   23.6980  -29.1930 C   0  0  0  0  0  0  0  0  0  0  0  0
   -2.2610   25.1140  -29.3470 N   0  0  0  0  0  0  0  0  0  0  0  0
   -2.1080   23.1920  -28.0540 O   0  0  0  0  0  0  0  0  0  0  0  0
   -1.6520   21.9450  -30.9590 C   0  0  0  0  0  0  0  0  0  0  0  0
   -0.3440   21.5550  -30.6660 C   0  0  0  0  0  0  0  0  0  0  0  0
    0.2560   20.5960  -31.5030 C   0  0  0  0  0  0  0  0  0  0  0  0
   -0.4540   20.0560  -32.5970 C   0  0  0  0  0  0  0  0  0  0  0  0
   -1.7700   20.4700  -32.8700 C   0  0  0  0  0  0  0  0  0  0  0  0
   -2.3400   21.4270  -32.0240 C   0  0  0  0  0  0  0  0  0  0  0  0
   -7.4217   24.5559  -29.9356 H   0  0  0  0  0  0  0  0  0  0  0  0
   -7.4188   24.5612  -31.7368 H   0  0  0  0  0  0  0  0  0  0  0  0
   -5.6990   22.5230  -30.3800 H   0  0  0  0  0  0  0  0  0  0  0  0
   -6.4697   20.3210  -30.5609 H   0  0  0  0  0  0  0  0  0  0  0  0
   -8.5205   19.6769  -30.2196 H   0  0  0  0  0  0  0  0  0  0  0  0
  -10.4669   19.4093  -32.2421 H   0  0  0  0  0  0  0  0  0  0  0  0
   -9.7393   20.4333  -33.1599 H   0  0  0  0  0  0  0  0  0  0  0  0
   -8.4181   17.4912  -32.5582 H   0  0  0  0  0  0  0  0  0  0  0  0
   -6.4484   17.9769  -33.2661 H   0  0  0  0  0  0  0  0  0  0  0  0
   -7.3705   19.0658  -34.3170 H   0  0  0  0  0  0  0  0  0  0  0  0
   -4.2661   21.9011  -34.0604 H   0  0  0  0  0  0  0  0  0  0  0  0
   -5.4870   22.3780  -32.8235 H   0  0  0  0  0  0  0  0  0  0  0  0
   -3.1410   25.6760  -29.3280 H   0  0  0  0  0  0  0  0  0  0  0  0
    0.1990   21.9826  -29.8103 H   0  0  0  0  0  0  0  0  0  0  0  0
    1.2858   20.2648  -31.3033 H   0  0  0  0  0  0  0  0  0  0  0  0
    0.0262   19.3050  -33.2415 H   0  0  0  0  0  0  0  0  0  0  0  0
   -2.3319   20.0553  -33.7199 H   0  0  0  0  0  0  0  0  0  0  0  0
  1  2  3  0
  2  3  1  0
  3  4  1  0
  4  5  1  0
  5  6  2  0
  5  7  1  0
  7  8  1  0
  8  9  1  0
  9 10  1  0
 10 11  1  0
 11 12  1  0
 12 13  1  0
 13 14  2  0
 13 15  1  0
 15 16  1  0
 16 17  1  0
 17 18  2  0
 18 19  1  0
 19 20  1  0
 19 21  2  0
 18 22  1  0
 22 23  2  0
 23 24  1  0
 24 25  2  0
 25 26  1  0
 26 27  2  0
 12  7  1  0
 27 16  1  0
 10  8  1  0
 27 22  1  0
  3 28  1  0
  3 29  1  0
  4 30  1  0
  7 31  1  1
  8 32  1  1
  9 33  1  0
  9 34  1  0
 10 35  1  1
 11 36  1  0
 11 37  1  0
 15 38  1  0
 15 39  1  0
 20 40  1  0
 23 41  1  0
 24 42  1  0
 25 43  1  0
 26 44  1  0
M  CHG  1  20  -1
M  END
>  <UniqueID>  (28) 
28

>  <SMILES>  (28) 
N#CCNC(=O)[C@H]1[C@H]2CC2CN1C(=O)Cn1nc(C([NH-])=O)c2ccccc21

>  <Energy>  (28) 
348.81375946846003

>  <Genealogy>  (28) 
N#CCNC(=O)C1C2CC2CN1C(=O)Cn1nc(C([NH-])=O)c2ccccc21 (protonated)
N#CCNC(=O)[C@H]1[C@H]2CC2CN1C(=O)Cn1nc(C([NH-])=O)c2ccccc21 (chirality)
N#CCNC(=O)[C@H]1[C@H]2CC2CN1C(=O)Cn1nc(C([NH-])=O)c2ccccc21 (3D coordinates assigned)
N#CCNC(=O)[C@H]1[C@H]2CC2CN1C(=O)Cn1nc(C([NH-])=O)c2ccccc21 (nonaromatic ring conformer: 348.81375946846003 kcal/mol)

>  <smiles>  (28) 
N#CCNC(=O)C1C2CC2CN1C(=O)Cn1nc(C(N)=O)c2ccccc21

>  <score_type>  (28) 
oracle

>  <origin>  (28) 
adg

>  <m_score__min__energy>  (28) 
-10.699999999999999

>  <m_primary>  (28) 
energy

$$$$
28:0
     RDKit          3D

 47 49  0  0  0  0  0  0  0  0999 V2000
   -6.0910   25.6650  -29.7370 C   0  0  0  0  0  0  0  0  0  0  0  0
   -5.1860   24.8720  -30.6320 C   0  0  0  0  0  0  0  0  0  0  0  0
   -4.0230   25.3100  -30.8490 O   0  0  0  0  0  0  0  0  0  0  0  0
   -5.6250   23.5970  -31.2640 C   0  0  0  0  0  0  0  0  0  0  0  0
   -4.6920   22.6710  -31.7690 C   0  0  0  0  0  0  0  0  0  0  0  0
   -5.1220   21.4800  -32.3590 C   0  0  0  0  0  0  0  0  0  0  0  0
   -6.4900   21.1820  -32.4530 C   0  0  0  0  0  0  0  0  0  0  0  0
   -6.9320   19.9610  -33.0780 N   0  0  0  0  0  0  0  0  0  0  0  0
   -8.1220   19.2490  -32.6060 C   0  0  0  0  0  0  0  0  0  0  0  0
   -7.7740   17.7880  -32.2550 C   0  0  0  0  0  0  0  0  0  0  0  0
   -6.6110   17.2470  -33.0070 N   0  0  0  0  0  0  0  0  0  0  0  0
   -5.3720   17.2570  -32.1950 C   0  0  0  0  0  0  0  0  0  0  0  0
   -4.1910   16.7230  -32.9760 C   0  0  0  0  0  0  0  0  0  0  0  0
   -4.1520   15.3550  -33.3010 C   0  0  0  0  0  0  0  0  0  0  0  0
   -3.0700   14.8200  -34.0010 C   0  0  0  0  0  0  0  0  0  0  0  0
   -2.0120   15.6420  -34.3880 C   0  0  0  0  0  0  0  0  0  0  0  0
   -2.0320   17.0020  -34.0750 C   0  0  0  0  0  0  0  0  0  0  0  0
   -3.1150   17.5600  -33.3720 C   0  0  0  0  0  0  0  0  0  0  0  0
   -3.0980   19.0310  -33.0460 C   0  0  0  0  0  0  0  0  0  0  0  0
   -6.4490   17.8890  -34.3330 C   0  0  0  0  0  0  0  0  0  0  0  0
   -6.1880   19.4000  -34.2110 C   0  0  0  0  0  0  0  0  0  0  0  0
   -7.4230   22.1070  -31.9600 C   0  0  0  0  0  0  0  0  0  0  0  0
   -6.9950   23.2990  -31.3690 C   0  0  0  0  0  0  0  0  0  0  0  0
   -5.8468   25.4510  -28.6860 H   0  0  0  0  0  0  0  0  0  0  0  0
   -5.9531   26.7384  -29.9342 H   0  0  0  0  0  0  0  0  0  0  0  0
   -7.1369   25.3873  -29.9342 H   0  0  0  0  0  0  0  0  0  0  0  0
   -3.6158   22.8873  -31.6983 H   0  0  0  0  0  0  0  0  0  0  0  0
   -4.3812   20.7690  -32.7536 H   0  0  0  0  0  0  0  0  0  0  0  0
   -8.5137   19.7530  -31.7102 H   0  0  0  0  0  0  0  0  0  0  0  0
   -8.8785   19.2524  -33.4046 H   0  0  0  0  0  0  0  0  0  0  0  0
   -7.5461   17.7352  -31.1802 H   0  0  0  0  0  0  0  0  0  0  0  0
   -8.6455   17.1771  -32.5332 H   0  0  0  0  0  0  0  0  0  0  0  0
   -5.1570   18.2900  -31.8842 H   0  0  0  0  0  0  0  0  0  0  0  0
   -5.5281   16.6085  -31.3203 H   0  0  0  0  0  0  0  0  0  0  0  0
   -4.9831   14.7002  -33.0002 H   0  0  0  0  0  0  0  0  0  0  0  0
   -3.0515   13.7482  -34.2480 H   0  0  0  0  0  0  0  0  0  0  0  0
   -1.1606   15.2180  -34.9406 H   0  0  0  0  0  0  0  0  0  0  0  0
   -1.1927   17.6437  -34.3811 H   0  0  0  0  0  0  0  0  0  0  0  0
   -3.0965   19.1646  -31.9541 H   0  0  0  0  0  0  0  0  0  0  0  0
   -2.1945   19.4908  -33.4729 H   0  0  0  0  0  0  0  0  0  0  0  0
   -3.9907   19.5115  -33.4729 H   0  0  0  0  0  0  0  0  0  0  0  0
   -5.5992   17.4222  -34.8526 H   0  0  0  0  0  0  0  0  0  0  0  0
   -7.3836   17.7490  -34.8959 H   0  0  0  0  0  0  0  0  0  0  0  0
   -5.1122   19.5701  -34.0572 H   0  0  0  0  0  0  0  0  0  0  0  0
   -6.5222   19.8941  -35.1352 H   0  0  0  0  0  0  0  0  0  0  0  0
   -8.4989   21.8924  -32.0393 H   0  0  0  0  0  0  0  0  0  0  0  0
   -7.7380   24.0117  -30.9818 H   0  0  0  0  0  0  0  0  0  0  0  0
  1  2  1  0
  2  3  2  0
  2  4  1  0
  4  5  2  0
  5  6  1  0
  6  7  2  0
  7  8  1  0
  8  9  1  0
  9 10  1  0
 10 11  1  0
 11 12  1  0
 12 13  1  0
 13 14  2  0
 14 15  1  0
 15 16  2  0
 16 17  1  0
 17 18  2  0
 18 19  1  0
 11 20  1  0
 20 21  1  0
  7 22  1  0
 22 23  2  0
 23  4  1  0
 21  8  1  0
 18 13  1  0
  1 24  1  0
  1 25  1  0
  1 26  1  0
  5 27  1  0
  6 28  1  0
  9 29  1  0
  9 30  1  0
 10 31  1  0
 10 32  1  0
 12 33  1  0
 12 34  1  0
 14 35  1  0
 15 36  1  0
 16 37  1  0
 17 38  1  0
 19 39  1  0
 19 40  1  0
 19 41  1  0
 20 42  1  0
 20 43  1  0
 21 44  1  0
 21 45  1  0
 22 46  1  0
 23 47  1  0
M  END
>  <UniqueID>  (29) 
29

>  <SMILES>  (29) 
CC(=O)c1ccc(N2CCN(Cc3ccccc3C)CC2)cc1

>  <Energy>  (29) 
61.59535455617201

>  <Genealogy>  (29) 
CC(=O)c1ccc(N2CCN(Cc3ccccc3C)CC2)cc1 (3D coordinates assigned)
CC(=O)c1ccc(N2CCN(Cc3ccccc3C)CC2)cc1 (nonaromatic ring conformer: 61.59535455617201 kcal/mol)

>  <smiles>  (29) 
CC(=O)c1ccc(N2CCN(Cc3ccccc3C)CC2)cc1

>  <score_type>  (29) 
oracle

>  <origin>  (29) 
adg

>  <m_score__min__energy>  (29) 
-8.6799999999999997

>  <m_primary>  (29) 
energy

$$$$
29:0
     RDKit          3D

 46 48  0  0  0  0  0  0  0  0999 V2000
   -8.6590   19.3730  -32.5790 N   0  0  0  0  0  0  0  0  0  0  0  0
   -8.0820   20.3200  -32.2450 C   0  0  0  0  0  0  0  0  0  0  0  0
   -7.3640   21.4960  -31.8290 C   0  0  0  0  0  0  0  0  0  0  0  0
   -6.0850   21.7540  -32.3390 C   0  0  0  0  0  0  0  0  0  0  0  0
   -5.3870   22.8970  -31.9350 C   0  0  0  0  0  0  0  0  0  0  0  0
   -5.9610   23.7890  -31.0160 C   0  0  0  0  0  0  0  0  0  0  0  0
   -5.2140   25.0300  -30.6070 C   0  0  0  0  0  0  0  0  0  0  0  0
   -4.1470   24.6790  -29.6640 N   0  0  0  0  0  0  0  0  0  0  0  0
   -4.5370   23.5180  -28.8550 C   0  0  0  0  0  0  0  0  0  0  0  0
   -3.4210   23.1480  -27.8490 C   0  0  2  0  0  0  0  0  0  0  0  0
   -2.8690   24.4020  -27.1270 C   0  0  0  0  0  0  0  0  0  0  0  0
   -2.0820   25.2790  -28.0130 N   0  0  0  0  0  0  0  0  0  0  0  0
   -1.1960   24.5760  -28.9620 C   0  0  0  0  0  0  0  0  0  0  0  0
   -0.9430   23.1120  -28.5820 C   0  0  0  0  0  0  0  0  0  0  0  0
   -2.2750   22.3390  -28.5470 C   0  0  1  0  0  0  0  0  0  0  0  0
   -2.0790   20.9700  -27.9140 C   0  0  0  0  0  0  0  0  0  0  0  0
   -0.8470   20.3020  -28.0420 C   0  0  0  0  0  0  0  0  0  0  0  0
   -0.6590   19.0450  -27.4580 C   0  0  0  0  0  0  0  0  0  0  0  0
   -1.6960   18.4430  -26.7410 C   0  0  0  0  0  0  0  0  0  0  0  0
   -2.9230   19.0970  -26.6060 C   0  0  0  0  0  0  0  0  0  0  0  0
   -3.1170   20.3530  -27.1880 C   0  0  0  0  0  0  0  0  0  0  0  0
   -7.2460   23.5290  -30.5130 C   0  0  0  0  0  0  0  0  0  0  0  0
   -7.9420   22.3850  -30.9140 C   0  0  0  0  0  0  0  0  0  0  0  0
   -5.6292   21.0572  -33.0578 H   0  0  0  0  0  0  0  0  0  0  0  0
   -4.3839   23.0975  -32.3394 H   0  0  0  0  0  0  0  0  0  0  0  0
   -4.7736   25.5015  -31.4979 H   0  0  0  0  0  0  0  0  0  0  0  0
   -5.9106   25.7305  -30.1232 H   0  0  0  0  0  0  0  0  0  0  0  0
   -4.0090   25.4910  -29.0150 H   0  0  0  0  0  0  0  0  0  0  0  0
   -5.4567   23.7573  -28.3011 H   0  0  0  0  0  0  0  0  0  0  0  0
   -4.7047   22.6621  -29.5253 H   0  0  0  0  0  0  0  0  0  0  0  0
   -3.8679   22.4988  -27.0817 H   0  0  0  0  0  0  0  0  0  0  0  0
   -3.7169   24.9777  -26.7275 H   0  0  0  0  0  0  0  0  0  0  0  0
   -2.1968   24.0525  -26.3295 H   0  0  0  0  0  0  0  0  0  0  0  0
   -2.7390   25.8900  -28.5540 H   0  0  0  0  0  0  0  0  0  0  0  0
   -1.6600   24.6031  -29.9590 H   0  0  0  0  0  0  0  0  0  0  0  0
   -0.2240   25.0908  -28.9441 H   0  0  0  0  0  0  0  0  0  0  0  0
   -0.2748   22.6529  -29.3255 H   0  0  0  0  0  0  0  0  0  0  0  0
   -0.4765   23.0728  -27.5866 H   0  0  0  0  0  0  0  0  0  0  0  0
   -2.6002   22.1926  -29.5876 H   0  0  0  0  0  0  0  0  0  0  0  0
   -0.0267   20.7713  -28.6049 H   0  0  0  0  0  0  0  0  0  0  0  0
    0.3070   18.5295  -27.5634 H   0  0  0  0  0  0  0  0  0  0  0  0
   -1.5463   17.4542  -26.2829 H   0  0  0  0  0  0  0  0  0  0  0  0
   -3.7384   18.6225  -26.0404 H   0  0  0  0  0  0  0  0  0  0  0  0
   -4.0856   20.8627  -27.0786 H   0  0  0  0  0  0  0  0  0  0  0  0
   -7.7069   24.2287  -29.8003 H   0  0  0  0  0  0  0  0  0  0  0  0
   -8.9451   22.1827  -30.5104 H   0  0  0  0  0  0  0  0  0  0  0  0
  1  2  3  0
  2  3  1  0
  3  4  2  0
  4  5  1  0
  5  6  2  0
  6  7  1  0
  7  8  1  0
  8  9  1  0
  9 10  1  0
 10 11  1  0
 11 12  1  0
 12 13  1  0
 13 14  1  0
 14 15  1  0
 15 16  1  0
 16 17  2  0
 17 18  1  0
 18 19  2  0
 19 20  1  0
 20 21  2  0
  6 22  1  0
 22 23  2  0
 23  3  1  0
 15 10  1  0
 21 16  1  0
  4 24  1  0
  5 25  1  0
  7 26  1  0
  7 27  1  0
  8 28  1  0
  9 29  1  0
  9 30  1  0
 10 31  1  1
 11 32  1  0
 11 33  1  0
 12 34  1  0
 13 35  1  0
 13 36  1  0
 14 37  1  0
 14 38  1  0
 15 39  1  6
 17 40  1  0
 18 41  1  0
 19 42  1  0
 20 43  1  0
 21 44  1  0
 22 45  1  0
 23 46  1  0
M  END
>  <UniqueID>  (30) 
30

>  <SMILES>  (30) 
N#Cc1ccc(CNC[C@@H]2CNCC[C@H]2c2ccccc2)cc1

>  <Energy>  (30) 
52.52766119402001

>  <Genealogy>  (30) 
N#Cc1ccc(CNC[C@@H]2CNCC[C@H]2c2ccccc2)cc1 (chirality)
N#Cc1ccc(CNC[C@@H]2CNCC[C@H]2c2ccccc2)cc1 (3D coordinates assigned)
N#Cc1ccc(CNC[C@@H]2CNCC[C@H]2c2ccccc2)cc1 (nonaromatic ring conformer: 52.52766119402001 kcal/mol)

>  <smiles>  (30) 
N#Cc1ccc(CNCC2CNCCC2c2ccccc2)cc1

>  <score_type>  (30) 
oracle

>  <origin>  (30) 
adg

>  <m_score__min__energy>  (30) 
-8.8499999999999996

>  <m_primary>  (30) 
energy

$$$$
30:0
     RDKit          3D

 60 63  0  0  0  0  0  0  0  0999 V2000
   -9.4340   21.4320  -31.8630 C   0  0  0  0  0  0  0  0  0  0  0  0
   -8.3230   20.4750  -32.1850 C   0  0  0  0  0  0  0  0  0  0  0  0
   -8.6430   19.1160  -32.3440 C   0  0  0  0  0  0  0  0  0  0  0  0
   -7.6430   18.1760  -32.5970 C   0  0  0  0  0  0  0  0  0  0  0  0
   -6.3130   18.5820  -32.6970 C   0  0  0  0  0  0  0  0  0  0  0  0
   -5.9800   19.9300  -32.5640 C   0  0  0  0  0  0  0  0  0  0  0  0
   -6.9750   20.8930  -32.3350 C   0  0  0  0  0  0  0  0  0  0  0  0
   -6.5770   22.2690  -32.2180 N   0  0  0  0  0  0  0  0  0  0  0  0
   -6.7390   23.0260  -31.0060 C   0  0  0  0  0  0  0  0  0  0  0  0
   -7.1570   22.4620  -29.9590 O   0  0  0  0  0  0  0  0  0  0  0  0
   -6.5480   24.5160  -30.9900 C   0  0  0  0  0  0  0  0  0  0  0  0
   -5.2580   25.0700  -29.8150 S   0  0  0  0  0  0  0  0  0  0  0  0
   -4.2310   23.5970  -29.9730 C   0  0  0  0  0  0  0  0  0  0  0  0
   -3.8020   23.2750  -31.2190 N   0  0  0  0  0  0  0  0  0  0  0  0
   -3.0160   22.1980  -31.4460 C   0  0  0  0  0  0  0  0  0  0  0  0
   -2.5910   21.9040  -32.7470 C   0  0  0  0  0  0  0  0  0  0  0  0
   -1.7840   20.7880  -32.9830 C   0  0  0  0  0  0  0  0  0  0  0  0
   -1.3990   19.9660  -31.9210 C   0  0  0  0  0  0  0  0  0  0  0  0
   -1.8180   20.2550  -30.6200 C   0  0  0  0  0  0  0  0  0  0  0  0
   -2.6310   21.3780  -30.3730 C   0  0  0  0  0  0  0  0  0  0  0  0
   -3.0690   21.7230  -29.0830 C   0  0  0  0  0  0  0  0  0  0  0  0
   -2.7290   21.0040  -28.1010 O   0  0  0  0  0  0  0  0  0  0  0  0
   -3.8530   22.8390  -28.8880 N   0  0  0  0  0  0  0  0  0  0  0  0
   -4.2370   23.2390  -27.5170 C   0  0  0  0  0  0  0  0  0  0  0  0
   -3.5920   24.5760  -27.1160 C   0  0  0  0  0  0  0  0  0  0  0  0
   -2.1730   24.7320  -27.6710 C   0  0  0  0  0  0  0  0  0  0  0  0
   -1.1830   24.2960  -26.6590 N   0  0  0  0  0  0  0  0  0  0  0  0
   -0.6560   22.9460  -26.9440 C   0  0  0  0  0  0  0  0  0  0  0  0
    0.2600   22.9420  -28.1910 C   0  0  0  0  0  0  0  0  0  0  0  0
    0.7100   24.2370  -28.5580 O   0  0  0  0  0  0  0  0  0  0  0  0
    1.1280   24.9480  -27.4130 C   0  0  0  0  0  0  0  0  0  0  0  0
   -0.0740   25.2680  -26.4980 C   0  0  0  0  0  0  0  0  0  0  0  0
   -9.5368   21.5206  -30.7714 H   0  0  0  0  0  0  0  0  0  0  0  0
   -9.2034   22.4188  -32.2908 H   0  0  0  0  0  0  0  0  0  0  0  0
  -10.3758   21.0578  -32.2908 H   0  0  0  0  0  0  0  0  0  0  0  0
   -9.6909   18.7902  -32.2684 H   0  0  0  0  0  0  0  0  0  0  0  0
   -7.9043   17.1143  -32.7176 H   0  0  0  0  0  0  0  0  0  0  0  0
   -5.5244   17.8376  -32.8812 H   0  0  0  0  0  0  0  0  0  0  0  0
   -4.9276   20.2412  -32.6393 H   0  0  0  0  0  0  0  0  0  0  0  0
   -6.4140   22.7940  -33.1070 H   0  0  0  0  0  0  0  0  0  0  0  0
   -6.2622   24.8419  -32.0010 H   0  0  0  0  0  0  0  0  0  0  0  0
   -7.4988   24.9622  -30.6631 H   0  0  0  0  0  0  0  0  0  0  0  0
   -2.8924   22.5516  -33.5836 H   0  0  0  0  0  0  0  0  0  0  0  0
   -1.4516   20.5565  -34.0057 H   0  0  0  0  0  0  0  0  0  0  0  0
   -0.7637   19.0881  -32.1099 H   0  0  0  0  0  0  0  0  0  0  0  0
   -1.5124   19.6044  -29.7873 H   0  0  0  0  0  0  0  0  0  0  0  0
   -5.3311   23.3416  -27.4683 H   0  0  0  0  0  0  0  0  0  0  0  0
   -3.8838   22.4640  -26.8208 H   0  0  0  0  0  0  0  0  0  0  0  0
   -4.2139   25.3974  -27.5014 H   0  0  0  0  0  0  0  0  0  0  0  0
   -3.5262   24.5996  -26.0182 H   0  0  0  0  0  0  0  0  0  0  0  0
   -2.0656   24.1150  -28.5753 H   0  0  0  0  0  0  0  0  0  0  0  0
   -1.9958   25.7892  -27.9178 H   0  0  0  0  0  0  0  0  0  0  0  0
   -0.0776   22.5982  -26.0754 H   0  0  0  0  0  0  0  0  0  0  0  0
   -1.5083   22.2794  -27.1418 H   0  0  0  0  0  0  0  0  0  0  0  0
    1.1378   22.3141  -27.9781 H   0  0  0  0  0  0  0  0  0  0  0  0
   -0.3331   22.5516  -29.0312 H   0  0  0  0  0  0  0  0  0  0  0  0
    1.8540   24.3385  -26.8549 H   0  0  0  0  0  0  0  0  0  0  0  0
    1.5890   25.8938  -27.7337 H   0  0  0  0  0  0  0  0  0  0  0  0
    0.2638   25.2480  -25.4514 H   0  0  0  0  0  0  0  0  0  0  0  0
   -0.4549   26.2606  -26.7802 H   0  0  0  0  0  0  0  0  0  0  0  0
  1  2  1  0
  2  3  2  0
  3  4  1  0
  4  5  2  0
  5  6  1  0
  6  7  2  0
  7  8  1  0
  8  9  1  0
  9 10  2  0
  9 11  1  0
 11 12  1  0
 12 13  1  0
 13 14  2  0
 14 15  1  0
 15 16  2  0
 16 17  1  0
 17 18  2  0
 18 19  1  0
 19 20  2  0
 20 21  1  0
 21 22  2  0
 21 23  1  0
 23 24  1  0
 24 25  1  0
 25 26  1  0
 26 27  1  0
 27 28  1  0
 28 29  1  0
 29 30  1  0
 30 31  1  0
 31 32  1  0
  7  2  1  0
 23 13  1  0
 32 27  1  0
 20 15  1  0
  1 33  1  0
  1 34  1  0
  1 35  1  0
  3 36  1  0
  4 37  1  0
  5 38  1  0
  6 39  1  0
  8 40  1  0
 11 41  1  0
 11 42  1  0
 16 43  1  0
 17 44  1  0
 18 45  1  0
 19 46  1  0
 24 47  1  0
 24 48  1  0
 25 49  1  0
 25 50  1  0
 26 51  1  0
 26 52  1  0
 28 53  1  0
 28 54  1  0
 29 55  1  0
 29 56  1  0
 31 57  1  0
 31 58  1  0
 32 59  1  0
 32 60  1  0
M  END
>  <UniqueID>  (31) 
31

>  <SMILES>  (31) 
Cc1ccccc1NC(=O)CSc1nc2ccccc2c(=O)n1CCCN1CCOCC1

>  <Energy>  (31) 
81.00764958734744

>  <Genealogy>  (31) 
Cc1ccccc1NC(=O)CSc1nc2ccccc2c(=O)n1CCCN1CCOCC1 (3D coordinates assigned)
Cc1ccccc1NC(=O)CSc1nc2ccccc2c(=O)n1CCCN1CCOCC1 (nonaromatic ring conformer: 81.00764958734744 kcal/mol)

>  <smiles>  (31) 
Cc1ccccc1NC(=O)CSc1nc2ccccc2c(=O)n1CCCN1CCOCC1

>  <score_type>  (31) 
oracle

>  <origin>  (31) 
adg

>  <m_score__min__energy>  (31) 
-9.4100000000000001

>  <m_primary>  (31) 
energy

$$$$
31:0
     RDKit          3D

 39 40  0  0  0  0  0  0  0  0999 V2000
   -6.6510   15.4670  -34.2060 C   0  0  0  0  0  0  0  0  0  0  0  0
   -5.9830   16.4950  -33.4810 O   0  0  0  0  0  0  0  0  0  0  0  0
   -6.5720   17.7130  -33.1090 C   0  0  0  0  0  0  0  0  0  0  0  0
   -7.5000   17.8110  -32.0540 C   0  0  0  0  0  0  0  0  0  0  0  0
   -8.0550   19.0480  -31.7160 C   0  0  0  0  0  0  0  0  0  0  0  0
   -7.6910   20.2050  -32.4200 C   0  0  0  0  0  0  0  0  0  0  0  0
   -8.2790   21.5390  -32.0390 C   0  0  0  0  0  0  0  0  0  0  0  0
   -7.3830   22.2890  -31.1320 N   0  0  0  0  0  0  0  0  0  0  0  0
   -7.9250   22.3140  -29.7630 C   0  0  0  0  0  0  0  0  0  0  0  0
   -7.0090   23.6420  -31.6150 C   0  0  0  0  0  0  0  0  0  0  0  0
   -6.1700   24.4690  -30.6190 C   0  0  0  0  0  0  0  0  0  0  0  0
   -4.7030   24.2330  -30.8480 C   0  0  0  0  0  0  0  0  0  0  0  0
   -3.8970   25.1870  -30.6760 O   0  0  0  0  0  0  0  0  0  0  0  0
   -4.1750   22.9070  -31.2270 C   0  0  0  0  0  0  0  0  0  0  0  0
   -4.2170   22.3170  -32.4880 C   0  0  0  0  0  0  0  0  0  0  0  0
   -3.6370   21.0430  -32.5240 C   0  0  0  0  0  0  0  0  0  0  0  0
   -3.1370   20.6220  -31.2990 C   0  0  0  0  0  0  0  0  0  0  0  0
   -3.4190   21.8360  -30.1710 S   0  0  0  0  0  0  0  0  0  0  0  0
   -6.7780   20.1050  -33.4810 C   0  0  0  0  0  0  0  0  0  0  0  0
   -6.2190   18.8680  -33.8180 C   0  0  0  0  0  0  0  0  0  0  0  0
   -5.3280   18.7930  -34.8370 F   0  0  0  0  0  0  0  0  0  0  0  0
   -7.1106   14.7597  -33.5000 H   0  0  0  0  0  0  0  0  0  0  0  0
   -7.4323   15.9131  -34.8390 H   0  0  0  0  0  0  0  0  0  0  0  0
   -5.9260   14.9343  -34.8390 H   0  0  0  0  0  0  0  0  0  0  0  0
   -7.7891   16.9097  -31.4936 H   0  0  0  0  0  0  0  0  0  0  0  0
   -8.7817   19.1147  -30.8929 H   0  0  0  0  0  0  0  0  0  0  0  0
   -8.4410   22.1316  -32.9515 H   0  0  0  0  0  0  0  0  0  0  0  0
   -9.2288   21.3594  -31.5140 H   0  0  0  0  0  0  0  0  0  0  0  0
   -7.0968   22.2758  -29.0400 H   0  0  0  0  0  0  0  0  0  0  0  0
   -8.5001   23.2396  -29.6132 H   0  0  0  0  0  0  0  0  0  0  0  0
   -8.5829   21.4452  -29.6132 H   0  0  0  0  0  0  0  0  0  0  0  0
   -6.4272   23.5271  -32.5415 H   0  0  0  0  0  0  0  0  0  0  0  0
   -7.9501   24.1920  -31.7626 H   0  0  0  0  0  0  0  0  0  0  0  0
   -6.3914   25.5375  -30.7581 H   0  0  0  0  0  0  0  0  0  0  0  0
   -6.4256   24.1606  -29.5945 H   0  0  0  0  0  0  0  0  0  0  0  0
   -4.6618   22.8037  -33.3685 H   0  0  0  0  0  0  0  0  0  0  0  0
   -3.5826   20.4327  -33.4375 H   0  0  0  0  0  0  0  0  0  0  0  0
   -2.6418   19.6600  -31.1008 H   0  0  0  0  0  0  0  0  0  0  0  0
   -6.5005   21.0042  -34.0506 H   0  0  0  0  0  0  0  0  0  0  0  0
  1  2  1  0
  2  3  1  0
  3  4  2  0
  4  5  1  0
  5  6  2  0
  6  7  1  0
  7  8  1  0
  8  9  1  0
  8 10  1  0
 10 11  1  0
 11 12  1  0
 12 13  2  0
 12 14  1  0
 14 15  2  0
 15 16  1  0
 16 17  2  0
 17 18  1  0
  6 19  1  0
 19 20  2  0
 20 21  1  0
 20  3  1  0
 18 14  1  0
  1 22  1  0
  1 23  1  0
  1 24  1  0
  4 25  1  0
  5 26  1  0
  7 27  1  0
  7 28  1  0
  9 29  1  0
  9 30  1  0
  9 31  1  0
 10 32  1  0
 10 33  1  0
 11 34  1  0
 11 35  1  0
 15 36  1  0
 16 37  1  0
 17 38  1  0
 19 39  1  0
M  END
>  <UniqueID>  (32) 
32

>  <SMILES>  (32) 
COc1ccc(CN(C)CCC(=O)c2cccs2)cc1F

>  <Energy>  (32) 
64.02831262604434

>  <Genealogy>  (32) 
COc1ccc(CN(C)CCC(=O)c2cccs2)cc1F (3D coordinates assigned)
COc1ccc(CN(C)CCC(=O)c2cccs2)cc1F (optimized conformer: 64.02831262604434 kcal/mol)

>  <smiles>  (32) 
COc1ccc(CN(C)CCC(=O)c2cccs2)cc1F

>  <score_type>  (32) 
oracle

>  <origin>  (32) 
adg

>  <m_score__min__energy>  (32) 
-7.1699999999999999

>  <m_primary>  (32) 
energy

$$$$
32:0
     RDKit          3D

 57 60  0  0  0  0  0  0  0  0999 V2000
   -3.8510   17.0360  -35.4580 C   0  0  0  0  0  0  0  0  0  0  0  0
   -4.8300   18.0100  -35.1180 O   0  0  0  0  0  0  0  0  0  0  0  0
   -5.5460   18.0340  -33.9110 C   0  0  0  0  0  0  0  0  0  0  0  0
   -6.7340   17.2970  -33.7330 C   0  0  0  0  0  0  0  0  0  0  0  0
   -7.4380   17.3740  -32.5280 C   0  0  0  0  0  0  0  0  0  0  0  0
   -6.9730   18.1910  -31.4960 C   0  0  0  0  0  0  0  0  0  0  0  0
   -5.7950   18.9220  -31.6600 C   0  0  0  0  0  0  0  0  0  0  0  0
   -5.0670   18.8350  -32.8560 C   0  0  0  0  0  0  0  0  0  0  0  0
   -3.8460   19.5760  -33.0070 N   0  0  0  0  0  0  0  0  0  0  0  0
   -2.5550   18.9200  -32.7720 C   0  0  0  0  0  0  0  0  0  0  0  0
   -1.4880   19.9590  -32.4070 C   0  0  0  0  0  0  0  0  0  0  0  0
   -2.1200   21.0430  -31.6290 N   0  0  0  0  0  0  0  0  0  0  0  0
   -1.1200   21.9020  -30.9640 C   0  0  0  0  0  0  0  0  0  0  0  0
   -0.8490   21.4000  -29.5380 C   0  0  0  0  0  0  0  0  0  0  0  0
   -2.0020   21.7570  -28.5900 C   0  0  0  0  0  0  0  0  0  0  0  0
   -2.0730   23.2000  -28.3550 N   0  0  0  0  0  0  0  0  0  0  0  0
   -2.5730   24.2060  -29.2490 C   0  0  0  0  0  0  0  0  0  0  0  0
   -1.9410   25.2910  -29.3430 O   0  0  0  0  0  0  0  0  0  0  0  0
   -3.8200   24.0540  -30.0170 C   0  0  0  0  0  0  0  0  0  0  0  0
   -4.6500   22.9970  -29.9660 N   0  0  0  0  0  0  0  0  0  0  0  0
   -5.6320   23.3470  -30.8240 C   0  0  0  0  0  0  0  0  0  0  0  0
   -6.8210   22.5220  -31.1380 C   0  0  0  0  0  0  0  0  0  0  0  0
   -6.9380   21.8340  -32.3580 C   0  0  0  0  0  0  0  0  0  0  0  0
   -8.0680   21.0580  -32.6220 C   0  0  0  0  0  0  0  0  0  0  0  0
   -9.0770   20.9690  -31.6630 C   0  0  0  0  0  0  0  0  0  0  0  0
   -8.9520   21.6310  -30.4840 N   0  0  0  0  0  0  0  0  0  0  0  0
   -7.8630   22.3960  -30.2010 C   0  0  0  0  0  0  0  0  0  0  0  0
   -5.3900   24.5530  -31.3810 N   0  0  0  0  0  0  0  0  0  0  0  0
   -4.2650   24.9530  -30.8630 O   0  0  0  0  0  0  0  0  0  0  0  0
   -3.0160   21.8500  -32.4890 C   0  0  0  0  0  0  0  0  0  0  0  0
   -3.8740   20.9790  -33.4320 C   0  0  0  0  0  0  0  0  0  0  0  0
   -3.4228   16.6100  -34.5386 H   0  0  0  0  0  0  0  0  0  0  0  0
   -4.3199   16.2356  -36.0492 H   0  0  0  0  0  0  0  0  0  0  0  0
   -3.0530   17.5090  -36.0492 H   0  0  0  0  0  0  0  0  0  0  0  0
   -7.1090   16.6582  -34.5462 H   0  0  0  0  0  0  0  0  0  0  0  0
   -8.3601   16.7898  -32.3926 H   0  0  0  0  0  0  0  0  0  0  0  0
   -7.5352   18.2588  -30.5529 H   0  0  0  0  0  0  0  0  0  0  0  0
   -5.4356   19.5698  -30.8469 H   0  0  0  0  0  0  0  0  0  0  0  0
   -2.6585   18.2008  -31.9461 H   0  0  0  0  0  0  0  0  0  0  0  0
   -2.2467   18.3983  -33.6900 H   0  0  0  0  0  0  0  0  0  0  0  0
   -0.7005   19.4830  -31.8042 H   0  0  0  0  0  0  0  0  0  0  0  0
   -1.0410   20.3710  -33.3238 H   0  0  0  0  0  0  0  0  0  0  0  0
   -0.1832   21.8810  -31.5401 H   0  0  0  0  0  0  0  0  0  0  0  0
   -1.5087   22.9298  -30.9134 H   0  0  0  0  0  0  0  0  0  0  0  0
   -0.7293   20.3068  -29.5601 H   0  0  0  0  0  0  0  0  0  0  0  0
    0.0662   21.8855  -29.1682 H   0  0  0  0  0  0  0  0  0  0  0  0
   -2.9494   21.4200  -29.0360 H   0  0  0  0  0  0  0  0  0  0  0  0
   -1.8248   21.2576  -27.6260 H   0  0  0  0  0  0  0  0  0  0  0  0
   -4.5280   22.1040  -29.4440 H   0  0  0  0  0  0  0  0  0  0  0  0
   -6.1362   21.9073  -33.1075 H   0  0  0  0  0  0  0  0  0  0  0  0
   -8.1619   20.5215  -33.5777 H   0  0  0  0  0  0  0  0  0  0  0  0
   -9.9733   20.3630  -31.8617 H   0  0  0  0  0  0  0  0  0  0  0  0
   -7.7969   22.9184  -29.2352 H   0  0  0  0  0  0  0  0  0  0  0  0
   -3.6863   22.4387  -31.8455 H   0  0  0  0  0  0  0  0  0  0  0  0
   -2.3842   22.4973  -33.1150 H   0  0  0  0  0  0  0  0  0  0  0  0
   -4.9124   21.3415  -33.4139 H   0  0  0  0  0  0  0  0  0  0  0  0
   -3.4640   21.0492  -34.4503 H   0  0  0  0  0  0  0  0  0  0  0  0
  1  2  1  0
  2  3  1  0
  3  4  2  0
  4  5  1  0
  5  6  2  0
  6  7  1  0
  7  8  2  0
  8  9  1  0
  9 10  1  0
 10 11  1  0
 11 12  1  0
 12 13  1  0
 13 14  1  0
 14 15  1  0
 15 16  1  0
 16 17  1  0
 17 18  2  0
 17 19  1  0
 19 20  2  0
 20 21  1  0
 21 22  1  0
 22 23  2  0
 23 24  1  0
 24 25  2  0
 25 26  1  0
 26 27  2  0
 21 28  2  0
 28 29  1  0
 12 30  1  0
 30 31  1  0
  8  3  1  0
 31  9  1  0
 29 19  1  0
 27 22  1  0
  1 32  1  0
  1 33  1  0
  1 34  1  0
  4 35  1  0
  5 36  1  0
  6 37  1  0
  7 38  1  0
 10 39  1  0
 10 40  1  0
 11 41  1  0
 11 42  1  0
 13 43  1  0
 13 44  1  0
 14 45  1  0
 14 46  1  0
 15 47  1  0
 15 48  1  0
 20 49  1  0
 23 50  1  0
 24 51  1  0
 25 52  1  0
 27 53  1  0
 30 54  1  0
 30 55  1  0
 31 56  1  0
 31 57  1  0
M  CHG  2  16  -1  20   1
M  END
>  <UniqueID>  (33) 
33

>  <SMILES>  (33) 
COc1ccccc1N1CCN(CCC[N-]C(=O)c2[nH+]c(-c3cccnc3)no2)CC1

>  <Energy>  (33) 
104.53540715372121

>  <Genealogy>  (33) 
COc1ccccc1N1CCN(CCC[N-]C(=O)c2[nH+]c(-c3cccnc3)no2)CC1 (protonated)
COc1ccccc1N1CCN(CCC[N-]C(=O)c2[nH+]c(-c3cccnc3)no2)CC1 (3D coordinates assigned)
COc1ccccc1N1CCN(CCC[N-]C(=O)c2[nH+]c(-c3cccnc3)no2)CC1 (nonaromatic ring conformer: 104.53540715372121 kcal/mol)

>  <smiles>  (33) 
COc1ccccc1N1CCN(CCCNC(=O)c2nc(-c3cccnc3)no2)CC1

>  <score_type>  (33) 
oracle

>  <origin>  (33) 
adg

>  <m_score__min__energy>  (33) 
-9.6600000000000001

>  <m_primary>  (33) 
energy

$$$$
33:0
     RDKit          3D

 36 37  0  0  0  0  0  0  0  0999 V2000
   -0.7971   24.1075  -26.1339 H   0  0  0  0  0  0  0  0  0  0  0  0
   -1.3900   24.2320  -27.0520 C   0  0  0  0  0  0  0  0  0  0  0  0
   -2.2580   23.2640  -27.4420 N   0  0  0  0  0  0  0  0  0  0  0  0
   -2.9990   23.3930  -28.5740 C   0  0  0  0  0  0  0  0  0  0  0  0
   -3.6989   22.5983  -28.8718 H   0  0  0  0  0  0  0  0  0  0  0  0
   -2.8640   24.5520  -29.3630 C   0  0  0  0  0  0  0  0  0  0  0  0
   -3.5360   24.7330  -30.4650 N   0  0  0  0  0  0  0  0  0  0  0  0
   -4.7330   24.0280  -30.8380 C   0  0  0  0  0  0  0  0  0  0  0  0
   -6.0000   24.5360  -30.4780 C   0  0  0  0  0  0  0  0  0  0  0  0
   -6.1280   25.8090  -29.6870 C   0  0  0  0  0  0  0  0  0  0  0  0
   -6.1046   25.5767  -28.6121 H   0  0  0  0  0  0  0  0  0  0  0  0
   -5.2928   26.4805  -29.9352 H   0  0  0  0  0  0  0  0  0  0  0  0
   -7.0801   26.3008  -29.9352 H   0  0  0  0  0  0  0  0  0  0  0  0
   -7.1560   23.8190  -30.8250 C   0  0  0  0  0  0  0  0  0  0  0  0
   -8.1440   24.2020  -30.5297 H   0  0  0  0  0  0  0  0  0  0  0  0
   -7.0630   22.6200  -31.5440 C   0  0  0  0  0  0  0  0  0  0  0  0
   -8.3070   21.8850  -31.9470 C   0  0  0  0  0  0  0  0  0  0  0  0
   -8.8510   21.5636  -31.0465 H   0  0  0  0  0  0  0  0  0  0  0  0
   -8.9480   22.5495  -32.5450 H   0  0  0  0  0  0  0  0  0  0  0  0
   -8.0343   21.0029  -32.5450 H   0  0  0  0  0  0  0  0  0  0  0  0
   -5.8060   22.1480  -31.9410 C   0  0  0  0  0  0  0  0  0  0  0  0
   -5.7334   21.2216  -32.5296 H   0  0  0  0  0  0  0  0  0  0  0  0
   -4.6390   22.8440  -31.5960 C   0  0  0  0  0  0  0  0  0  0  0  0
   -3.2940   22.3020  -31.9990 C   0  0  0  0  0  0  0  0  0  0  0  0
   -2.7088   22.0662  -31.0980 H   0  0  0  0  0  0  0  0  0  0  0  0
   -3.4308   21.3888  -32.5968 H   0  0  0  0  0  0  0  0  0  0  0  0
   -2.7594   23.0549  -32.5968 H   0  0  0  0  0  0  0  0  0  0  0  0
   -1.9880   25.5120  -28.9660 N   0  0  0  0  0  0  0  0  0  0  0  0
   -1.2550   25.3900  -27.8270 C   0  0  0  0  0  0  0  0  0  0  0  0
   -0.2770   26.4640  -27.4490 C   0  0  0  0  0  0  0  0  0  0  0  0
   -0.1864   27.1787  -28.2803 H   0  0  0  0  0  0  0  0  0  0  0  0
    0.6968   25.9975  -27.2388 H   0  0  0  0  0  0  0  0  0  0  0  0
   -0.7450   27.2040  -26.2020 C   0  0  0  0  0  0  0  0  0  0  0  0
   -0.4039   26.6647  -25.3060 H   0  0  0  0  0  0  0  0  0  0  0  0
   -0.3254   28.2208  -26.1999 H   0  0  0  0  0  0  0  0  0  0  0  0
   -1.8435   27.2607  -26.1999 H   0  0  0  0  0  0  0  0  0  0  0  0
  1  2  1  0
  2  3  1  0
  3  4  2  0
  4  5  1  0
  4  6  1  0
  6  7  2  0
  7  8  1  0
  8  9  2  0
  9 10  1  0
 10 11  1  0
 10 12  1  0
 10 13  1  0
  9 14  1  0
 14 15  1  0
 14 16  2  0
 16 17  1  0
 17 18  1  0
 17 19  1  0
 17 20  1  0
 16 21  1  0
 21 22  1  0
 21 23  2  0
 23 24  1  0
 24 25  1  0
 24 26  1  0
 24 27  1  0
  6 28  1  0
 28 29  1  0
 29 30  1  0
 30 31  1  0
 30 32  1  0
 30 33  1  0
 33 34  1  0
 33 35  1  0
 33 36  1  0
 29  2  2  0
 23  8  1  0
M  CHG  1  28  -1
M  END
>  <UniqueID>  (34) 
34

>  <SMILES>  (34) 
CCc1cnc/c(=N\c2c(C)cc(C)cc2C)[n-]1

>  <Energy>  (34) 
43.34447628239246

>  <Genealogy>  (34) 
CCc1cncc(=Nc2c(C)cc(C)cc2C)[n-]1 (protonated)
CCc1cnc/c(=N\c2c(C)cc(C)cc2C)[n-]1 (cis-trans isomerization)
CCc1cnc/c(=N\c2c(C)cc(C)cc2C)[n-]1 (3D coordinates assigned)
CCc1cnc/c(=N\c2c(C)cc(C)cc2C)[n-]1 (optimized conformer: 43.34447628239246 kcal/mol)

>  <smiles>  (34) 
CCc1cncc(=Nc2c(C)cc(C)cc2C)[nH]1

>  <score_type>  (34) 
oracle

>  <origin>  (34) 
adg

>  <m_score__min__energy>  (34) 
-8.6899999999999995

>  <m_primary>  (34) 
energy

$$$$
34:0
     RDKit          3D

 57 62  0  0  1  0  0  0  0  0999 V2000
   -8.4290   18.6600  -32.2490 C   0  0  0  0  0  0  0  0  0  0  0  0
   -5.6110   23.2130  -32.3470 N   0  0  0  0  0  0  0  0  0  0  0  0
   -6.8060   22.7550  -32.1250 C   0  0  0  0  0  0  0  0  0  0  0  0
   -9.2870   21.7010  -31.6300 C   0  0  0  0  0  0  0  0  0  0  0  0
   -9.1160   23.0260  -31.9730 C   0  0  0  0  0  0  0  0  0  0  0  0
   -7.9020   23.5460  -32.2150 N   0  0  0  0  0  0  0  0  0  0  0  0
   -8.1640   20.9030  -31.5390 C   0  0  0  0  0  0  0  0  0  0  0  0
   -8.2010   19.6660  -31.2310 N   0  0  0  0  0  0  0  0  0  0  0  0
   -4.4940   22.3500  -32.1800 C   0  0  0  0  0  0  0  0  0  0  0  0
   -4.3250   21.1820  -32.9030 C   0  0  0  0  0  0  0  0  0  0  0  0
   -3.1960   20.3920  -32.6730 C   0  0  0  0  0  0  0  0  0  0  0  0
   -2.9760   19.1660  -33.4030 C   0  0  0  0  0  0  0  0  0  0  0  0
   -1.8340   18.5720  -33.8640 C   0  0  0  0  0  0  0  0  0  0  0  0
   -2.1970   17.4340  -34.4830 N   0  0  0  0  0  0  0  0  0  0  0  0
   -3.5100   17.2620  -34.4470 N   0  0  0  0  0  0  0  0  0  0  0  0
   -4.3060   16.1880  -34.9830 C   0  0  0  0  0  0  0  0  0  0  0  0
   -5.1670   15.5040  -33.9630 C   0  0  0  0  0  0  0  0  0  0  0  0
   -6.5280   15.0300  -34.2230 C   0  0  0  0  0  0  0  0  0  0  0  0
   -6.3860   16.3310  -33.4790 C   0  0  0  0  0  0  0  0  0  0  0  0
   -4.0150   18.3210  -33.7830 C   0  0  0  0  0  0  0  0  0  0  0  0
   -2.2650   20.8040  -31.7170 C   0  0  0  0  0  0  0  0  0  0  0  0
   -2.4440   21.9670  -31.0040 C   0  0  0  0  0  0  0  0  0  0  0  0
   -1.6990   22.5930  -30.0250 C   0  0  0  0  0  0  0  0  0  0  0  0
   -2.3920   23.7370  -29.6900 C   0  0  0  0  0  0  0  0  0  0  0  0
   -1.9670   24.7080  -28.6870 C   0  0  0  0  0  0  0  0  0  0  0  0
   -2.2500   24.6630  -27.3300 C   0  0  0  0  0  0  0  0  0  0  0  0
   -1.6440   25.7830  -26.7950 C   0  0  0  0  0  0  0  0  0  0  0  0
   -1.6270   26.2350  -25.3640 C   0  0  0  0  0  0  0  0  0  0  0  0
   -1.0290   26.4690  -27.7710 N   0  0  0  0  0  0  0  0  0  0  0  0
   -1.2310   25.8150  -28.8950 N   0  0  0  0  0  0  0  0  0  0  0  0
   -3.4730   23.7940  -30.4150 O   0  0  0  0  0  0  0  0  0  0  0  0
   -3.5570   22.7570  -31.2210 C   0  0  0  0  0  0  0  0  0  0  0  0
   -6.9490   21.4430  -31.7870 N   0  0  0  0  0  0  0  0  0  0  0  0
   -8.6477   17.6950  -31.7684 H   0  0  0  0  0  0  0  0  0  0  0  0
   -9.2821   18.9592  -32.8756 H   0  0  0  0  0  0  0  0  0  0  0  0
   -7.5302   18.5622  -32.8756 H   0  0  0  0  0  0  0  0  0  0  0  0
  -10.2892   21.2919  -31.4346 H   0  0  0  0  0  0  0  0  0  0  0  0
  -10.0002   23.6758  -32.0506 H   0  0  0  0  0  0  0  0  0  0  0  0
   -7.8270   24.5390  -32.4690 H   0  0  0  0  0  0  0  0  0  0  0  0
   -5.0721   20.8788  -33.6512 H   0  0  0  0  0  0  0  0  0  0  0  0
   -0.8087   18.9538  -33.7499 H   0  0  0  0  0  0  0  0  0  0  0  0
   -4.9582   16.5983  -35.7680 H   0  0  0  0  0  0  0  0  0  0  0  0
   -3.6057   15.4326  -35.3689 H   0  0  0  0  0  0  0  0  0  0  0  0
   -4.2887   14.9917  -33.5433 H   0  0  0  0  0  0  0  0  0  0  0  0
   -6.9157   15.0342  -35.2524 H   0  0  0  0  0  0  0  0  0  0  0  0
   -7.0581   14.0890  -34.0145 H   0  0  0  0  0  0  0  0  0  0  0  0
   -6.6429   17.2830  -33.9666 H   0  0  0  0  0  0  0  0  0  0  0  0
   -6.7377   16.7393  -32.5201 H   0  0  0  0  0  0  0  0  0  0  0  0
   -5.0815   18.4909  -33.5741 H   0  0  0  0  0  0  0  0  0  0  0  0
   -1.3730   20.1879  -31.5308 H   0  0  0  0  0  0  0  0  0  0  0  0
   -0.7453   22.2488  -29.5984 H   0  0  0  0  0  0  0  0  0  0  0  0
   -2.8324   23.8989  -26.7944 H   0  0  0  0  0  0  0  0  0  0  0  0
   -1.6600   25.3573  -24.7018 H   0  0  0  0  0  0  0  0  0  0  0  0
   -0.7068   26.8058  -25.1707 H   0  0  0  0  0  0  0  0  0  0  0  0
   -2.5018   26.8733  -25.1707 H   0  0  0  0  0  0  0  0  0  0  0  0
   -0.4850   27.3480  -27.7130 H   0  0  0  0  0  0  0  0  0  0  0  0
   -6.0950   20.8410  -31.7200 H   0  0  0  0  0  0  0  0  0  0  0  0
  1  2  1  0
  2  3  2  0
  3  4  1  0
  4  5  2  0
  5  6  1  0
  6  7  1  0
  7  8  2  0
  8  9  1  0
  9 10  2  0
 10 11  1  0
 11 12  1  0
 12 13  1  0
 13 14  2  0
 14 15  1  0
 15 16  1  0
 16 17  1  0
 17 18  1  0
 18 19  1  0
 15 20  1  0
 11 21  2  0
 21 22  1  0
 22 23  1  0
 23 24  2  0
 24 25  1  0
 25 26  1  0
 26 27  2  0
 27 28  1  0
 27 29  1  0
 29 30  1  0
 24 31  1  0
 31 32  1  0
  7 33  1  0
 33  3  1  0
 32  9  1  0
 20 12  2  0
 32 22  2  0
 19 17  1  0
 30 25  2  0
  1 34  1  0
  1 35  1  0
  1 36  1  0
  4 37  1  0
  5 38  1  0
  6 39  1  0
 10 40  1  0
 13 41  1  0
 16 42  1  0
 16 43  1  0
 17 44  1  0
 18 45  1  0
 18 46  1  0
 19 47  1  0
 19 48  1  0
 20 49  1  0
 21 50  1  0
 23 51  1  0
 26 52  1  0
 28 53  1  0
 28 54  1  0
 28 55  1  0
 29 56  1  0
 33 57  1  0
M  END
>  <smiles>  (35) 
CN=c1cc[nH]c(=Nc2cc(-c3cnn(CC4CC4)c3)cc3cc(-c4cc(C)[nH]n4)oc23)[nH]1

>  <score_type>  (35) 
oracle

>  <origin>  (35) 
adg

>  <m_score__min__energy>  (35) 
-9.5299999999999994

>  <m_primary>  (35) 
energy

$$$$
35:0
     RDKit          3D

 34 37  0  0  0  0  0  0  0  0999 V2000
   -5.2440   22.3790  -31.4420 C   0  0  0  0  0  0  0  0  0  0  0  0
   -4.2030   22.1960  -30.3830 C   0  0  0  0  0  0  0  0  0  0  0  0
   -3.8130   21.0000  -29.9020 N   0  0  0  0  0  0  0  0  0  0  0  0
   -2.8060   21.2530  -29.0370 C   0  0  0  0  0  0  0  0  0  0  0  0
   -1.9600   20.1680  -28.5110 C   0  0  0  0  0  0  0  0  0  0  0  0
   -2.2890   19.5340  -27.3010 C   0  0  0  0  0  0  0  0  0  0  0  0
   -1.4590   18.5330  -26.7850 C   0  0  0  0  0  0  0  0  0  0  0  0
   -0.2910   18.1740  -27.4620 C   0  0  0  0  0  0  0  0  0  0  0  0
    0.0540   18.8210  -28.6530 C   0  0  0  0  0  0  0  0  0  0  0  0
   -0.7730   19.8220  -29.1720 C   0  0  0  0  0  0  0  0  0  0  0  0
   -2.5620   22.5900  -28.9270 N   0  0  0  0  0  0  0  0  0  0  0  0
   -3.4180   23.1700  -29.7960 C   0  0  0  0  0  0  0  0  0  0  0  0
   -3.3840   24.5490  -30.0190 C   0  0  0  0  0  0  0  0  0  0  0  0
   -4.1520   25.1020  -30.8500 O   0  0  0  0  0  0  0  0  0  0  0  0
   -2.4880   25.2950  -29.3190 N   0  0  0  0  0  0  0  0  0  0  0  0
   -1.6510   24.7330  -28.3990 C   0  0  0  0  0  0  0  0  0  0  0  0
   -0.7740   25.5440  -27.6700 C   0  0  0  0  0  0  0  0  0  0  0  0
    0.0320   24.9850  -26.6760 C   0  0  0  0  0  0  0  0  0  0  0  0
   -0.0540   23.6200  -26.3890 C   0  0  0  0  0  0  0  0  0  0  0  0
   -0.9220   22.7970  -27.1130 C   0  0  0  0  0  0  0  0  0  0  0  0
   -1.6990   23.3320  -28.1610 C   0  0  0  0  0  0  0  0  0  0  0  0
   -6.2221   22.5509  -30.9689 H   0  0  0  0  0  0  0  0  0  0  0  0
   -4.9821   23.2449  -32.0678 H   0  0  0  0  0  0  0  0  0  0  0  0
   -5.2931   21.4757  -32.0678 H   0  0  0  0  0  0  0  0  0  0  0  0
   -4.1610   20.0610  -30.2040 H   0  0  0  0  0  0  0  0  0  0  0  0
   -3.2006   19.8252  -26.7586 H   0  0  0  0  0  0  0  0  0  0  0  0
   -1.7264   18.0280  -25.8451 H   0  0  0  0  0  0  0  0  0  0  0  0
    0.3574   17.3824  -27.0584 H   0  0  0  0  0  0  0  0  0  0  0  0
    0.9771   18.5420  -29.1821 H   0  0  0  0  0  0  0  0  0  0  0  0
   -0.4916   20.3392  -30.1011 H   0  0  0  0  0  0  0  0  0  0  0  0
   -0.7195   26.6224  -27.8800 H   0  0  0  0  0  0  0  0  0  0  0  0
    0.7357   25.6201  -26.1180 H   0  0  0  0  0  0  0  0  0  0  0  0
    0.5654   23.1901  -25.5880 H   0  0  0  0  0  0  0  0  0  0  0  0
   -0.9990   21.7283  -26.8641 H   0  0  0  0  0  0  0  0  0  0  0  0
  1  2  1  0
  2  3  1  0
  3  4  2  0
  4  5  1  0
  5  6  2  0
  6  7  1  0
  7  8  2  0
  8  9  1  0
  9 10  2  0
  4 11  1  0
 11 12  1  0
 12 13  1  0
 13 14  2  0
 13 15  1  0
 15 16  1  0
 16 17  2  0
 17 18  1  0
 18 19  2  0
 19 20  1  0
 20 21  2  0
 12  2  2  0
 21 16  1  0
 10  5  1  0
 21 11  1  0
  1 22  1  0
  1 23  1  0
  1 24  1  0
  3 25  1  0
  6 26  1  0
  7 27  1  0
  8 28  1  0
  9 29  1  0
 10 30  1  0
 17 31  1  0
 18 32  1  0
 19 33  1  0
 20 34  1  0
M  CHG  2   3   1  15  -1
M  END
>  <UniqueID>  (36) 
35

>  <SMILES>  (36) 
Cc1[nH+]c(-c2ccccc2)n2c1c(=O)[n-]c1ccccc12

>  <Energy>  (36) 
91.16981488865436

>  <Genealogy>  (36) 
Cc1[nH+]c(-c2ccccc2)n2c1c(=O)[n-]c1ccccc12 (protonated)
Cc1[nH+]c(-c2ccccc2)n2c1c(=O)[n-]c1ccccc12 (3D coordinates assigned)
Cc1[nH+]c(-c2ccccc2)n2c1c(=O)[n-]c1ccccc12 (optimized conformer: 91.16981488865436 kcal/mol)

>  <smiles>  (36) 
Cc1nc(-c2ccccc2)n2c1c(=O)[nH]c1ccccc12

>  <score_type>  (36) 
oracle

>  <origin>  (36) 
adg

>  <m_score__min__energy>  (36) 
-7.9400000000000004

>  <m_primary>  (36) 
energy

$$$$
36:0
     RDKit          3D

 53 55  0  0  0  0  0  0  0  0999 V2000
   -1.8510   21.6770  -27.4580 C   0  0  0  0  0  0  0  0  0  0  0  0
   -2.2460   22.9860  -27.8590 O   0  0  0  0  0  0  0  0  0  0  0  0
   -3.3100   23.2630  -28.7320 C   0  0  0  0  0  0  0  0  0  0  0  0
   -4.4110   22.3960  -28.8650 C   0  0  0  0  0  0  0  0  0  0  0  0
   -5.4510   22.7050  -29.7440 C   0  0  0  0  0  0  0  0  0  0  0  0
   -5.4110   23.8830  -30.5020 C   0  0  0  0  0  0  0  0  0  0  0  0
   -6.5180   24.2100  -31.4690 C   0  0  0  0  0  0  0  0  0  0  0  0
   -6.9600   23.0000  -32.1600 N   0  0  0  0  0  0  0  0  0  0  0  0
   -7.9340   22.1060  -31.6020 C   0  0  0  0  0  0  0  0  0  0  0  0
   -8.4270   22.3450  -30.4670 O   0  0  0  0  0  0  0  0  0  0  0  0
   -8.3020   20.8810  -32.3440 C   0  0  0  0  0  0  0  0  0  0  0  0
   -7.5680   19.7590  -32.4150 C   0  0  0  0  0  0  0  0  0  0  0  0
   -6.1360   19.6970  -32.7730 C   0  0  0  0  0  0  0  0  0  0  0  0
   -5.6900   18.9110  -33.8460 C   0  0  0  0  0  0  0  0  0  0  0  0
   -4.3390   18.8910  -34.1900 C   0  0  0  0  0  0  0  0  0  0  0  0
   -3.4120   19.6700  -33.4850 C   0  0  0  0  0  0  0  0  0  0  0  0
   -2.0200   19.5590  -33.8160 N   0  0  0  0  0  0  0  0  0  0  0  0
   -1.2490   20.5250  -34.3390 C   0  0  0  0  0  0  0  0  0  0  0  0
    0.0020   19.9950  -34.5650 C   0  0  0  0  0  0  0  0  0  0  0  0
    0.0170   18.6950  -34.2040 N   0  0  0  0  0  0  0  0  0  0  0  0
   -1.2370   18.4580  -33.7660 C   0  0  0  0  0  0  0  0  0  0  0  0
   -1.6880   17.1160  -33.2790 C   0  0  0  0  0  0  0  0  0  0  0  0
   -3.8580   20.5200  -32.4440 C   0  0  0  0  0  0  0  0  0  0  0  0
   -2.9560   21.4120  -31.7640 N   0  0  0  0  0  0  0  0  0  0  0  0
   -3.0000   22.6400  -31.9830 O   0  0  0  0  0  0  0  0  0  0  0  0
   -1.9520   20.9170  -30.9640 O   0  0  0  0  0  0  0  0  0  0  0  0
   -5.2230   20.5180  -32.0980 C   0  0  0  0  0  0  0  0  0  0  0  0
   -4.3150   24.7490  -30.3730 C   0  0  0  0  0  0  0  0  0  0  0  0
   -3.2620   24.4450  -29.4880 C   0  0  0  0  0  0  0  0  0  0  0  0
   -2.1500   25.2890  -29.3360 O   0  0  0  0  0  0  0  0  0  0  0  0
   -1.5620   25.6320  -28.0850 C   0  0  0  0  0  0  0  0  0  0  0  0
   -1.8337   21.6196  -26.3596 H   0  0  0  0  0  0  0  0  0  0  0  0
   -2.5670   20.9410  -27.8524 H   0  0  0  0  0  0  0  0  0  0  0  0
   -0.8473   21.4599  -27.8524 H   0  0  0  0  0  0  0  0  0  0  0  0
   -4.4523   21.4698  -28.2731 H   0  0  0  0  0  0  0  0  0  0  0  0
   -6.3062   22.0201  -29.8420 H   0  0  0  0  0  0  0  0  0  0  0  0
   -7.3655   24.6435  -30.9177 H   0  0  0  0  0  0  0  0  0  0  0  0
   -6.1442   24.9305  -32.2114 H   0  0  0  0  0  0  0  0  0  0  0  0
   -6.5610   22.7930  -33.1040 H   0  0  0  0  0  0  0  0  0  0  0  0
   -9.2600   20.8897  -32.8846 H   0  0  0  0  0  0  0  0  0  0  0  0
   -8.0739   18.8089  -32.1882 H   0  0  0  0  0  0  0  0  0  0  0  0
   -6.4096   18.3076  -34.4187 H   0  0  0  0  0  0  0  0  0  0  0  0
   -3.9978   18.2579  -35.0224 H   0  0  0  0  0  0  0  0  0  0  0  0
   -1.5613   21.5584  -34.5501 H   0  0  0  0  0  0  0  0  0  0  0  0
    0.8590   20.5478  -34.9773 H   0  0  0  0  0  0  0  0  0  0  0  0
   -1.6910   17.1071  -32.1790 H   0  0  0  0  0  0  0  0  0  0  0  0
   -2.7035   16.9136  -33.6501 H   0  0  0  0  0  0  0  0  0  0  0  0
   -1.0008   16.3413  -33.6501 H   0  0  0  0  0  0  0  0  0  0  0  0
   -5.5775   21.1702  -31.2863 H   0  0  0  0  0  0  0  0  0  0  0  0
   -4.2775   25.6734  -30.9680 H   0  0  0  0  0  0  0  0  0  0  0  0
   -2.1975   25.2613  -27.2672 H   0  0  0  0  0  0  0  0  0  0  0  0
   -0.5646   25.1740  -28.0108 H   0  0  0  0  0  0  0  0  0  0  0  0
   -1.4697   26.7256  -28.0108 H   0  0  0  0  0  0  0  0  0  0  0  0
  1  2  1  0
  2  3  1  0
  3  4  2  0
  4  5  1  0
  5  6  2  0
  6  7  1  0
  7  8  1  0
  8  9  1  0
  9 10  2  0
  9 11  1  0
 11 12  2  3
 12 13  1  0
 13 14  2  0
 14 15  1  0
 15 16  2  0
 16 17  1  0
 17 18  1  0
 18 19  2  0
 19 20  1  0
 20 21  2  0
 21 22  1  0
 16 23  1  0
 23 24  1  0
 24 25  2  0
 24 26  1  0
 23 27  2  0
  6 28  1  0
 28 29  2  0
 29 30  1  0
 30 31  1  0
 29  3  1  0
 27 13  1  0
 21 17  1  0
  1 32  1  0
  1 33  1  0
  1 34  1  0
  4 35  1  0
  5 36  1  0
  7 37  1  0
  7 38  1  0
  8 39  1  0
 11 40  1  0
 12 41  1  0
 14 42  1  0
 15 43  1  0
 18 44  1  0
 19 45  1  0
 22 46  1  0
 22 47  1  0
 22 48  1  0
 27 49  1  0
 28 50  1  0
 31 51  1  0
 31 52  1  0
 31 53  1  0
M  CHG  2  24   1  26  -1
M  END
>  <UniqueID>  (37) 
36

>  <SMILES>  (37) 
COc1ccc(CNC(=O)C=Cc2ccc(-n3ccnc3C)c([N+](=O)[O-])c2)cc1OC

>  <Energy>  (37) 
96.98015753196555

>  <Genealogy>  (37) 
COc1ccc(CNC(=O)C=Cc2ccc(-n3ccnc3C)c([N+](=O)[O-])c2)cc1OC (3D coordinates assigned)
COc1ccc(CNC(=O)C=Cc2ccc(-n3ccnc3C)c([N+](=O)[O-])c2)cc1OC (optimized conformer: 96.98015753196555 kcal/mol)

>  <smiles>  (37) 
COc1ccc(CNC(=O)C=Cc2ccc(-n3ccnc3C)c([N+](=O)[O-])c2)cc1OC

>  <score_type>  (37) 
oracle

>  <origin>  (37) 
adg

>  <m_score__min__energy>  (37) 
-9.8599999999999994

>  <m_primary>  (37) 
energy

$$$$
37:0
     RDKit          3D

 57 60  0  0  0  0  0  0  0  0999 V2000
   -0.4931   21.0363  -33.9530 H   0  0  0  0  0  0  0  0  0  0  0  0
   -1.1300   21.1750  -33.0670 C   0  0  0  0  0  0  0  0  0  0  0  0
   -0.5670   21.2760  -31.8360 N   0  0  0  0  0  0  0  0  0  0  0  0
   -1.3340   21.4470  -30.7280 C   0  0  0  0  0  0  0  0  0  0  0  0
   -0.7640   21.5460  -29.5640 N   0  0  0  0  0  0  0  0  0  0  0  0
   -1.3200   21.0240  -28.3110 C   0  0  2  0  0  0  0  0  0  0  0  0
   -1.5380   19.9521  -28.4268 H   0  0  0  0  0  0  0  0  0  0  0  0
   -2.6200   21.7740  -27.9920 C   0  0  0  0  0  0  0  0  0  0  0  0
   -3.3211   21.6524  -28.8309 H   0  0  0  0  0  0  0  0  0  0  0  0
   -3.0492   21.3567  -27.0692 H   0  0  0  0  0  0  0  0  0  0  0  0
   -2.3600   23.2150  -27.7830 N   0  0  0  0  0  0  0  0  0  0  0  0
   -3.5680   23.9870  -27.4230 C   0  0  0  0  0  0  0  0  0  0  0  0
   -3.2526   24.9786  -27.0664 H   0  0  0  0  0  0  0  0  0  0  0  0
   -4.0981   23.4112  -26.6501 H   0  0  0  0  0  0  0  0  0  0  0  0
   -4.5550   24.1820  -28.5960 C   0  0  0  0  0  0  0  0  0  0  0  0
   -5.0749   25.1431  -28.4694 H   0  0  0  0  0  0  0  0  0  0  0  0
   -5.2695   23.3457  -28.5880 H   0  0  0  0  0  0  0  0  0  0  0  0
   -3.8300   24.1820  -29.9480 C   0  0  0  0  0  0  0  0  0  0  0  0
   -3.8807   23.1732  -30.3836 H   0  0  0  0  0  0  0  0  0  0  0  0
   -2.7834   24.4786  -29.7850 H   0  0  0  0  0  0  0  0  0  0  0  0
   -4.4270   25.1040  -30.8430 O   0  0  0  0  0  0  0  0  0  0  0  0
   -5.7430   25.4100  -30.4330 C   0  0  0  0  0  0  0  0  0  0  0  0
   -5.7914   25.4213  -29.3341 H   0  0  0  0  0  0  0  0  0  0  0  0
   -6.0280   26.3984  -30.8227 H   0  0  0  0  0  0  0  0  0  0  0  0
   -6.4348   24.6488  -30.8227 H   0  0  0  0  0  0  0  0  0  0  0  0
   -1.1630   23.5400  -26.9650 C   0  0  0  0  0  0  0  0  0  0  0  0
   -0.3743   23.9183  -27.6320 H   0  0  0  0  0  0  0  0  0  0  0  0
   -1.4659   24.2918  -26.2213 H   0  0  0  0  0  0  0  0  0  0  0  0
   -0.6160   22.3280  -26.1980 C   0  0  0  0  0  0  0  0  0  0  0  0
    0.3039   22.6220  -25.6713 H   0  0  0  0  0  0  0  0  0  0  0  0
   -1.3822   21.9935  -25.4832 H   0  0  0  0  0  0  0  0  0  0  0  0
   -0.2980   21.1640  -27.1510 C   0  0  0  0  0  0  0  0  0  0  0  0
    0.7001   21.3290  -27.5829 H   0  0  0  0  0  0  0  0  0  0  0  0
   -0.3459   20.2370  -26.5607 H   0  0  0  0  0  0  0  0  0  0  0  0
   -2.6890   21.5190  -30.8520 N   0  0  0  0  0  0  0  0  0  0  0  0
   -3.3010   21.4250  -32.0630 C   0  0  0  0  0  0  0  0  0  0  0  0
   -4.7380   21.4850  -32.1520 N   0  0  0  0  0  0  0  0  0  0  0  0
   -5.6090   20.4560  -32.2570 C   0  0  0  0  0  0  0  0  0  0  0  0
   -5.3720   19.0780  -32.2290 C   0  0  0  0  0  0  0  0  0  0  0  0
   -4.3527   18.6792  -32.1198 H   0  0  0  0  0  0  0  0  0  0  0  0
   -6.4790   18.2190  -32.3450 C   0  0  0  0  0  0  0  0  0  0  0  0
   -6.3256   17.1298  -32.3359 H   0  0  0  0  0  0  0  0  0  0  0  0
   -7.7850   18.7390  -32.4730 C   0  0  0  0  0  0  0  0  0  0  0  0
   -8.6391   18.0522  -32.5673 H   0  0  0  0  0  0  0  0  0  0  0  0
   -8.0040   20.1370  -32.4810 C   0  0  0  0  0  0  0  0  0  0  0  0
   -9.2780   20.7150  -32.5920 O   0  0  0  0  0  0  0  0  0  0  0  0
   -9.8640   21.5500  -31.6000 C   0  0  0  0  0  0  0  0  0  0  0  0
   -9.5997   21.1733  -30.6009 H   0  0  0  0  0  0  0  0  0  0  0  0
   -9.4875   22.5770  -31.7161 H   0  0  0  0  0  0  0  0  0  0  0  0
  -10.9578   21.5451  -31.7161 H   0  0  0  0  0  0  0  0  0  0  0  0
   -6.8820   20.9560  -32.3670 C   0  0  0  0  0  0  0  0  0  0  0  0
   -6.7550   22.3290  -32.3290 C   0  0  0  0  0  0  0  0  0  0  0  0
   -7.5752   23.0592  -32.3936 H   0  0  0  0  0  0  0  0  0  0  0  0
   -5.4400   22.6150  -32.1980 N   0  0  0  0  0  0  0  0  0  0  0  0
   -5.0370   23.5780  -32.1730 H   0  0  0  0  0  0  0  0  0  0  0  0
   -2.5150   21.2470  -33.2090 C   0  0  0  0  0  0  0  0  0  0  0  0
   -2.9817   21.1656  -34.2018 H   0  0  0  0  0  0  0  0  0  0  0  0
  1  2  1  0
  2  3  1  0
  3  4  1  0
  4  5  2  0
  5  6  1  0
  6  7  1  6
  6  8  1  0
  8  9  1  0
  8 10  1  0
  8 11  1  0
 11 12  1  0
 12 13  1  0
 12 14  1  0
 12 15  1  0
 15 16  1  0
 15 17  1  0
 15 18  1  0
 18 19  1  0
 18 20  1  0
 18 21  1  0
 21 22  1  0
 22 23  1  0
 22 24  1  0
 22 25  1  0
 11 26  1  0
 26 27  1  0
 26 28  1  0
 26 29  1  0
 29 30  1  0
 29 31  1  0
 29 32  1  0
 32 33  1  0
 32 34  1  0
  4 35  1  0
 35 36  2  0
 36 37  1  0
 37 38  1  0
 38 39  2  0
 39 40  1  0
 39 41  1  0
 41 42  1  0
 41 43  2  0
 43 44  1  0
 43 45  1  0
 45 46  1  0
 46 47  1  0
 47 48  1  0
 47 49  1  0
 47 50  1  0
 45 51  2  0
 51 52  1  0
 52 53  1  0
 52 54  2  0
 54 55  1  0
 36 56  1  0
 56 57  1  0
 56  2  2  0
 32  6  1  0
 54 37  1  0
 51 38  1  0
M  CHG  2   3  -1  54   1
M  END
>  <UniqueID>  (38) 
37

>  <SMILES>  (38) 
COCCCN1CCC[C@H](/N=c2\nc(-n3[nH+]cc4c(OC)cccc43)cc[n-]2)C1

>  <Energy>  (38) 
111.78983449355428

>  <Genealogy>  (38) 
COCCCN1CCCC(N=c2nc(-n3[nH+]cc4c(OC)cccc43)cc[n-]2)C1 (protonated)
COCCCN1CCC[C@H](N=c2nc(-n3[nH+]cc4c(OC)cccc43)cc[n-]2)C1 (chirality)
COCCCN1CCC[C@H](/N=c2\nc(-n3[nH+]cc4c(OC)cccc43)cc[n-]2)C1 (cis-trans isomerization)
COCCCN1CCC[C@H](/N=c2\nc(-n3[nH+]cc4c(OC)cccc43)cc[n-]2)C1 (3D coordinates assigned)
COCCCN1CCC[C@H](/N=c2\nc(-n3[nH+]cc4c(OC)cccc43)cc[n-]2)C1 (nonaromatic ring conformer: 111.78983449355428 kcal/mol)

>  <smiles>  (38) 
COCCCN1CCCC(N=c2nc(-n3ncc4c(OC)cccc43)cc[nH]2)C1

>  <score_type>  (38) 
oracle

>  <origin>  (38) 
adg

>  <m_score__min__energy>  (38) 
-9.5800000000000001

>  <m_primary>  (38) 
energy

$$$$
38:0
     RDKit          3D

 35 36  0  0  0  0  0  0  0  0999 V2000
   -8.9170   21.7370  -29.9070 H   0  0  0  0  0  0  0  0  0  0  0  0
   -9.3020   21.1820  -30.7020 N   0  0  0  0  0  0  0  0  0  0  0  0
   -8.8030   21.2130  -31.8990 C   0  0  0  0  0  0  0  0  0  0  0  0
   -8.8710   20.0700  -32.7720 N   0  0  0  0  0  0  0  0  0  0  0  0
   -8.6580   20.2060  -33.7840 H   0  0  0  0  0  0  0  0  0  0  0  0
   -9.0550   18.6970  -32.3010 C   0  0  0  0  0  0  0  0  0  0  0  0
   -9.8521   18.6787  -31.5432 H   0  0  0  0  0  0  0  0  0  0  0  0
   -9.3285   18.0625  -33.1569 H   0  0  0  0  0  0  0  0  0  0  0  0
   -7.7840   18.1700  -31.6940 C   0  0  0  0  0  0  0  0  0  0  0  0
   -7.7568   17.9414  -30.6184 H   0  0  0  0  0  0  0  0  0  0  0  0
   -6.6870   17.9730  -32.4310 C   0  0  0  0  0  0  0  0  0  0  0  0
   -5.7707   17.5864  -31.9609 H   0  0  0  0  0  0  0  0  0  0  0  0
   -6.7002   18.1974  -33.5078 H   0  0  0  0  0  0  0  0  0  0  0  0
   -8.0530   22.4330  -32.3430 C   0  0  0  0  0  0  0  0  0  0  0  0
   -8.1522   22.5485  -33.4324 H   0  0  0  0  0  0  0  0  0  0  0  0
   -8.4661   23.3208  -31.8418 H   0  0  0  0  0  0  0  0  0  0  0  0
   -6.6060   22.2850  -31.9860 C   0  0  0  0  0  0  0  0  0  0  0  0
   -5.7320   21.3220  -32.4810 C   0  0  0  0  0  0  0  0  0  0  0  0
   -6.0261   20.4775  -33.1216 H   0  0  0  0  0  0  0  0  0  0  0  0
   -4.4690   21.5710  -32.0630 N   0  0  0  0  0  0  0  0  0  0  0  0
   -3.6140   21.0180  -32.2960 H   0  0  0  0  0  0  0  0  0  0  0  0
   -4.5370   22.6910  -31.3230 C   0  0  0  0  0  0  0  0  0  0  0  0
   -3.4780   23.3600  -30.7110 C   0  0  0  0  0  0  0  0  0  0  0  0
   -2.4503   22.9734  -30.7765 H   0  0  0  0  0  0  0  0  0  0  0  0
   -3.7650   24.5530  -30.0020 C   0  0  0  0  0  0  0  0  0  0  0  0
   -2.7660   25.2960  -29.3560 O   0  0  0  0  0  0  0  0  0  0  0  0
   -2.0850   24.8720  -28.1790 C   0  0  0  0  0  0  0  0  0  0  0  0
   -2.6372   25.2158  -27.2919 H   0  0  0  0  0  0  0  0  0  0  0  0
   -2.0207   23.7739  -28.1681 H   0  0  0  0  0  0  0  0  0  0  0  0
   -1.0712   25.2988  -28.1681 H   0  0  0  0  0  0  0  0  0  0  0  0
   -5.0960   25.0250  -29.9370 C   0  0  0  0  0  0  0  0  0  0  0  0
   -5.3170   25.9505  -29.3850 H   0  0  0  0  0  0  0  0  0  0  0  0
   -6.1410   24.3280  -30.5680 C   0  0  0  0  0  0  0  0  0  0  0  0
   -7.1771   24.6945  -30.5210 H   0  0  0  0  0  0  0  0  0  0  0  0
   -5.8230   23.1580  -31.2550 C   0  0  0  0  0  0  0  0  0  0  0  0
  1  2  1  0
  2  3  2  0
  3  4  1  0
  4  5  1  0
  4  6  1  0
  6  7  1  0
  6  8  1  0
  6  9  1  0
  9 10  1  0
  9 11  2  0
 11 12  1  0
 11 13  1  0
  3 14  1  0
 14 15  1  0
 14 16  1  0
 14 17  1  0
 17 18  2  0
 18 19  1  0
 18 20  1  0
 20 21  1  0
 20 22  1  0
 22 23  2  0
 23 24  1  0
 23 25  1  0
 25 26  1  0
 26 27  1  0
 27 28  1  0
 27 29  1  0
 27 30  1  0
 25 31  2  0
 31 32  1  0
 31 33  1  0
 33 34  1  0
 33 35  2  0
 35 17  1  0
 35 22  1  0
M  END
>  <UniqueID>  (39) 
38

>  <SMILES>  (39) 
[H]/N=C(/Cc1c[nH]c2cc(OC)ccc12)NCC=C

>  <Energy>  (39) 
59.03385359071242

>  <Genealogy>  (39) 
[H]/N=C(/Cc1c[nH]c2cc(OC)ccc12)NCC=C (cis-trans isomerization)
[H]/N=C(/Cc1c[nH]c2cc(OC)ccc12)NCC=C (3D coordinates assigned)
[H]/N=C(/Cc1c[nH]c2cc(OC)ccc12)NCC=C (optimized conformer: 59.03385359071242 kcal/mol)

>  <smiles>  (39) 
C=CCNC(=N)Cc1c[nH]c2cc(OC)ccc12

>  <score_type>  (39) 
oracle

>  <origin>  (39) 
adg

>  <m_score__min__energy>  (39) 
-7.0300000000000002

>  <m_primary>  (39) 
energy

$$$$
39:0
     RDKit          3D

 18 19  0  0  0  0  0  0  0  0999 V2000
   -3.5760   24.5300  -29.7520 C   0  0  0  0  0  0  0  0  0  0  0  0
   -2.4360   25.2790  -29.3430 O   0  0  0  0  0  0  0  0  0  0  0  0
   -1.6990   25.0240  -28.1770 C   0  0  0  0  0  0  0  0  0  0  0  0
   -1.0310   23.7840  -28.0670 C   0  0  0  0  0  0  0  0  0  0  0  0
   -0.2750   23.4660  -26.9230 C   0  0  0  0  0  0  0  0  0  0  0  0
   -0.1970   24.4020  -25.8930 C   0  0  0  0  0  0  0  0  0  0  0  0
    0.4980   24.2280  -24.7320 N   0  0  0  0  0  0  0  0  0  0  0  0
    0.4120   25.2750  -23.9120 N   0  0  0  0  0  0  0  0  0  0  0  0
   -0.5350   26.4580  -24.6050 S   0  0  0  0  0  0  0  0  0  0  0  0
   -0.8550   25.6170  -26.0080 C   0  0  0  0  0  0  0  0  0  0  0  0
   -1.6100   25.9630  -27.1230 C   0  0  0  0  0  0  0  0  0  0  0  0
   -4.1185   24.1736  -28.8639 H   0  0  0  0  0  0  0  0  0  0  0  0
   -4.2382   25.1696  -30.3540 H   0  0  0  0  0  0  0  0  0  0  0  0
   -3.2519   23.6683  -30.3540 H   0  0  0  0  0  0  0  0  0  0  0  0
   -1.1028   23.0556  -28.8882 H   0  0  0  0  0  0  0  0  0  0  0  0
    0.2434   22.4991  -26.8435 H   0  0  0  0  0  0  0  0  0  0  0  0
    0.8760   25.3260  -22.9790 H   0  0  0  0  0  0  0  0  0  0  0  0
   -2.1213   26.9351  -27.1835 H   0  0  0  0  0  0  0  0  0  0  0  0
  1  2  1  0
  2  3  1  0
  3  4  2  0
  4  5  1  0
  5  6  2  0
  6  7  1  0
  7  8  2  0
  8  9  1  0
  9 10  1  0
 10 11  2  0
 11  3  1  0
 10  6  1  0
  1 12  1  0
  1 13  1  0
  1 14  1  0
  4 15  1  0
  5 16  1  0
  8 17  1  0
 11 18  1  0
M  CHG  1   8   1
M  END
>  <UniqueID>  (40) 
39

>  <SMILES>  (40) 
COc1ccc2n[nH+]sc2c1

>  <Energy>  (40) 
60.91200988561211

>  <Genealogy>  (40) 
COc1ccc2n[nH+]sc2c1 (protonated)
COc1ccc2n[nH+]sc2c1 (3D coordinates assigned)
COc1ccc2n[nH+]sc2c1 (optimized conformer: 60.91200988561211 kcal/mol)

>  <smiles>  (40) 
COc1ccc2nnsc2c1

>  <score_type>  (40) 
oracle

>  <origin>  (40) 
adg

>  <m_score__min__energy>  (40) 
-5.4400000000000004

>  <m_primary>  (40) 
energy

$$$$
40:0
     RDKit          3D

 51 53  0  0  0  0  0  0  0  0999 V2000
   -3.8250   21.5530  -33.4440 C   0  0  0  0  0  0  0  0  0  0  0  0
   -4.2430   20.7190  -32.2340 C   0  0  0  0  0  0  0  0  0  0  0  0
   -3.6520   21.2550  -30.9200 C   0  0  0  0  0  0  0  0  0  0  0  0
   -2.9870   22.6370  -31.0560 C   0  0  0  0  0  0  0  0  0  0  0  0
   -3.0270   23.4380  -29.7770 C   0  0  0  0  0  0  0  0  0  0  0  0
   -2.2290   23.2230  -28.6630 C   0  0  0  0  0  0  0  0  0  0  0  0
   -2.6660   24.1540  -27.7380 C   0  0  0  0  0  0  0  0  0  0  0  0
   -2.0730   24.3980  -26.3900 C   0  0  0  0  0  0  0  0  0  0  0  0
   -3.6650   24.8790  -28.2720 N   0  0  0  0  0  0  0  0  0  0  0  0
   -3.8990   24.4370  -29.4980 N   0  0  0  0  0  0  0  0  0  0  0  0
   -4.9320   24.9970  -30.3730 C   0  0  0  0  0  0  0  0  0  0  0  0
   -5.9680   23.9610  -30.7350 C   0  0  0  0  0  0  0  0  0  0  0  0
   -6.6490   23.2690  -29.7230 C   0  0  0  0  0  0  0  0  0  0  0  0
   -7.6240   22.3220  -30.0460 C   0  0  0  0  0  0  0  0  0  0  0  0
   -7.9400   22.0540  -31.3840 C   0  0  0  0  0  0  0  0  0  0  0  0
   -8.9060   21.0690  -31.6520 O   0  0  0  0  0  0  0  0  0  0  0  0
   -8.7480   19.6720  -31.4050 C   0  0  0  0  0  0  0  0  0  0  0  0
   -7.6840   19.0830  -32.2930 C   0  0  0  0  0  0  0  0  0  0  0  0
   -7.0790   17.8600  -31.9640 C   0  0  0  0  0  0  0  0  0  0  0  0
   -6.0730   17.3370  -32.7780 C   0  0  0  0  0  0  0  0  0  0  0  0
   -5.6710   18.0470  -33.9120 C   0  0  0  0  0  0  0  0  0  0  0  0
   -4.4070   17.4140  -34.9490 Cl  0  0  0  0  0  0  0  0  0  0  0  0
   -6.2570   19.2370  -34.2110 N   0  0  0  0  0  0  0  0  0  0  0  0
   -7.2400   19.7670  -33.4350 C   0  0  0  0  0  0  0  0  0  0  0  0
   -7.2810   22.7700  -32.4010 C   0  0  0  0  0  0  0  0  0  0  0  0
   -6.3150   23.7260  -32.0770 C   0  0  0  0  0  0  0  0  0  0  0  0
   -3.3567   22.4874  -33.1012 H   0  0  0  0  0  0  0  0  0  0  0  0
   -3.1058   20.9836  -34.0510 H   0  0  0  0  0  0  0  0  0  0  0  0
   -4.7116   21.7884  -34.0510 H   0  0  0  0  0  0  0  0  0  0  0  0
   -5.3403   20.7313  -32.1587 H   0  0  0  0  0  0  0  0  0  0  0  0
   -3.8603   19.6984  -32.3820 H   0  0  0  0  0  0  0  0  0  0  0  0
   -4.4629   21.3316  -30.1807 H   0  0  0  0  0  0  0  0  0  0  0  0
   -2.8660   20.5502  -30.6111 H   0  0  0  0  0  0  0  0  0  0  0  0
   -1.9360   22.4934  -31.3472 H   0  0  0  0  0  0  0  0  0  0  0  0
   -3.5495   23.2001  -31.8152 H   0  0  0  0  0  0  0  0  0  0  0  0
   -1.4280   22.4788  -28.5422 H   0  0  0  0  0  0  0  0  0  0  0  0
   -2.7934   24.1016  -25.6134 H   0  0  0  0  0  0  0  0  0  0  0  0
   -1.1525   23.8055  -26.2816 H   0  0  0  0  0  0  0  0  0  0  0  0
   -1.8361   25.4667  -26.2816 H   0  0  0  0  0  0  0  0  0  0  0  0
   -4.1750   25.6660  -27.8090 H   0  0  0  0  0  0  0  0  0  0  0  0
   -5.4265   25.8316  -29.8543 H   0  0  0  0  0  0  0  0  0  0  0  0
   -4.4505   25.3435  -31.2993 H   0  0  0  0  0  0  0  0  0  0  0  0
   -6.4139   23.4732  -28.6680 H   0  0  0  0  0  0  0  0  0  0  0  0
   -8.1477   21.7825  -29.2431 H   0  0  0  0  0  0  0  0  0  0  0  0
   -8.4617   19.5229  -30.3534 H   0  0  0  0  0  0  0  0  0  0  0  0
   -9.7019   19.1684  -31.6203 H   0  0  0  0  0  0  0  0  0  0  0  0
   -7.3978   17.3134  -31.0642 H   0  0  0  0  0  0  0  0  0  0  0  0
   -5.6012   16.3750  -32.5290 H   0  0  0  0  0  0  0  0  0  0  0  0
   -7.6885   20.7349  -33.7034 H   0  0  0  0  0  0  0  0  0  0  0  0
   -7.5276   22.5761  -33.4553 H   0  0  0  0  0  0  0  0  0  0  0  0
   -5.8228   24.2985  -32.8770 H   0  0  0  0  0  0  0  0  0  0  0  0
  1  2  1  0
  2  3  1  0
  3  4  1  0
  4  5  1  0
  5  6  2  0
  6  7  1  0
  7  8  1  0
  7  9  2  0
  9 10  1  0
 10 11  1  0
 11 12  1  0
 12 13  2  0
 13 14  1  0
 14 15  2  0
 15 16  1  0
 16 17  1  0
 17 18  1  0
 18 19  2  0
 19 20  1  0
 20 21  2  0
 21 22  1  0
 21 23  1  0
 23 24  2  0
 15 25  1  0
 25 26  2  0
 10  5  1  0
 26 12  1  0
 24 18  1  0
  1 27  1  0
  1 28  1  0
  1 29  1  0
  2 30  1  0
  2 31  1  0
  3 32  1  0
  3 33  1  0
  4 34  1  0
  4 35  1  0
  6 36  1  0
  8 37  1  0
  8 38  1  0
  8 39  1  0
  9 40  1  0
 11 41  1  0
 11 42  1  0
 13 43  1  0
 14 44  1  0
 17 45  1  0
 17 46  1  0
 19 47  1  0
 20 48  1  0
 24 49  1  0
 25 50  1  0
 26 51  1  0
M  CHG  1   9   1
M  END
>  <UniqueID>  (41) 
40

>  <SMILES>  (41) 
CCCCc1cc(C)[nH+]n1Cc1ccc(OCc2ccc(Cl)nc2)cc1

>  <Energy>  (41) 
73.6455007338093

>  <Genealogy>  (41) 
CCCCc1cc(C)[nH+]n1Cc1ccc(OCc2ccc(Cl)nc2)cc1 (protonated)
CCCCc1cc(C)[nH+]n1Cc1ccc(OCc2ccc(Cl)nc2)cc1 (3D coordinates assigned)
CCCCc1cc(C)[nH+]n1Cc1ccc(OCc2ccc(Cl)nc2)cc1 (optimized conformer: 73.6455007338093 kcal/mol)

>  <smiles>  (41) 
CCCCc1cc(C)nn1Cc1ccc(OCc2ccc(Cl)nc2)cc1

>  <score_type>  (41) 
oracle

>  <origin>  (41) 
adg

>  <m_score__min__energy>  (41) 
-8.7899999999999991

>  <m_primary>  (41) 
energy

$$$$
41:0
     RDKit          3D

 46 49  0  0  0  0  0  0  0  0999 V2000
   -6.2530   22.8410  -29.8340 C   0  0  0  0  0  0  0  0  0  0  0  0
   -4.9930   23.6350  -29.8410 C   0  0  0  0  0  0  0  0  0  0  0  0
   -4.0700   23.6920  -28.8180 C   0  0  0  0  0  0  0  0  0  0  0  0
   -3.1370   24.5940  -29.2860 C   0  0  0  0  0  0  0  0  0  0  0  0
   -1.9130   25.0630  -28.5630 C   0  0  0  0  0  0  0  0  0  0  0  0
   -0.7600   24.2370  -28.9150 N   0  0  0  0  0  0  0  0  0  0  0  0
   -0.7120   22.8030  -28.8640 C   0  0  0  0  0  0  0  0  0  0  0  0
   -0.2820   22.2450  -27.8210 O   0  0  0  0  0  0  0  0  0  0  0  0
   -1.1930   21.9670  -29.9780 C   0  0  0  0  0  0  0  0  0  0  0  0
   -2.3710   21.2210  -29.8320 C   0  0  0  0  0  0  0  0  0  0  0  0
   -2.8700   20.4740  -30.9030 C   0  0  0  0  0  0  0  0  0  0  0  0
   -2.1870   20.4520  -32.1300 C   0  0  0  0  0  0  0  0  0  0  0  0
   -2.7630   19.7040  -33.3010 C   0  0  0  0  0  0  0  0  0  0  0  0
   -4.2010   19.4630  -33.0910 N   0  0  0  0  0  0  0  0  0  0  0  0
   -4.6530   18.1690  -32.9680 C   0  0  0  0  0  0  0  0  0  0  0  0
   -5.9720   17.9080  -32.7390 N   0  0  0  0  0  0  0  0  0  0  0  0
   -6.8350   18.9430  -32.6280 C   0  0  0  0  0  0  0  0  0  0  0  0
   -8.4810   18.8630  -32.3090 S   0  0  0  0  0  0  0  0  0  0  0  0
   -8.6900   20.5440  -32.3280 C   0  0  0  0  0  0  0  0  0  0  0  0
   -9.9720   21.2430  -32.0230 C   0  0  0  0  0  0  0  0  0  0  0  0
   -7.4650   21.1730  -32.5600 C   0  0  0  0  0  0  0  0  0  0  0  0
   -6.4270   20.2520  -32.7350 C   0  0  0  0  0  0  0  0  0  0  0  0
   -5.0780   20.5170  -32.9700 C   0  0  0  0  0  0  0  0  0  0  0  0
   -4.6770   21.7100  -33.0640 O   0  0  0  0  0  0  0  0  0  0  0  0
   -0.9920   21.1760  -32.2650 C   0  0  0  0  0  0  0  0  0  0  0  0
   -0.4950   21.9230  -31.1930 C   0  0  0  0  0  0  0  0  0  0  0  0
   -3.5020   25.0110  -30.4750 O   0  0  0  0  0  0  0  0  0  0  0  0
   -4.6210   24.4570  -30.8420 N   0  0  0  0  0  0  0  0  0  0  0  0
   -6.5591   22.6481  -28.7952 H   0  0  0  0  0  0  0  0  0  0  0  0
   -7.0441   23.4041  -30.3508 H   0  0  0  0  0  0  0  0  0  0  0  0
   -6.0864   21.8844  -30.3508 H   0  0  0  0  0  0  0  0  0  0  0  0
   -4.0762   23.1498  -27.8610 H   0  0  0  0  0  0  0  0  0  0  0  0
   -1.7075   26.1076  -28.8399 H   0  0  0  0  0  0  0  0  0  0  0  0
   -2.0886   24.9841  -27.4800 H   0  0  0  0  0  0  0  0  0  0  0  0
   -2.9050   21.2235  -28.8703 H   0  0  0  0  0  0  0  0  0  0  0  0
   -3.8015   19.9010  -30.7843 H   0  0  0  0  0  0  0  0  0  0  0  0
   -2.6237   20.2981  -34.2162 H   0  0  0  0  0  0  0  0  0  0  0  0
   -2.2470   18.7376  -33.3995 H   0  0  0  0  0  0  0  0  0  0  0  0
   -3.9415   17.3346  -33.0555 H   0  0  0  0  0  0  0  0  0  0  0  0
   -6.3060   16.9230  -32.6430 H   0  0  0  0  0  0  0  0  0  0  0  0
  -10.1009   21.3133  -30.9328 H   0  0  0  0  0  0  0  0  0  0  0  0
   -9.9503   22.2541  -32.4556 H   0  0  0  0  0  0  0  0  0  0  0  0
  -10.8102   20.6770  -32.4556 H   0  0  0  0  0  0  0  0  0  0  0  0
   -7.3321   22.2642  -32.6004 H   0  0  0  0  0  0  0  0  0  0  0  0
   -0.4442   21.1555  -33.2186 H   0  0  0  0  0  0  0  0  0  0  0  0
    0.4479   22.4787  -31.3033 H   0  0  0  0  0  0  0  0  0  0  0  0
  1  2  1  0
  2  3  1  0
  3  4  2  0
  4  5  1  0
  5  6  1  0
  6  7  1  0
  7  8  2  0
  7  9  1  0
  9 10  2  0
 10 11  1  0
 11 12  2  0
 12 13  1  0
 13 14  1  0
 14 15  1  0
 15 16  2  0
 16 17  1  0
 17 18  1  0
 18 19  1  0
 19 20  1  0
 19 21  2  0
 21 22  1  0
 22 23  1  0
 23 24  2  0
 12 25  1  0
 25 26  2  0
  4 27  1  0
 27 28  1  0
 28  2  2  0
 26  9  1  0
 23 14  1  0
 22 17  2  0
  1 29  1  0
  1 30  1  0
  1 31  1  0
  3 32  1  0
  5 33  1  0
  5 34  1  0
 10 35  1  0
 11 36  1  0
 13 37  1  0
 13 38  1  0
 15 39  1  0
 16 40  1  0
 20 41  1  0
 20 42  1  0
 20 43  1  0
 21 44  1  0
 25 45  1  0
 26 46  1  0
M  CHG  2   6  -1  16   1
M  END
>  <UniqueID>  (42) 
41

>  <SMILES>  (42) 
Cc1cc(C[N-]C(=O)c2ccc(Cn3c[nH+]c4sc(C)cc4c3=O)cc2)on1

>  <Energy>  (42) 
108.94725647545849

>  <Genealogy>  (42) 
Cc1cc(C[N-]C(=O)c2ccc(Cn3c[nH+]c4sc(C)cc4c3=O)cc2)on1 (protonated)
Cc1cc(C[N-]C(=O)c2ccc(Cn3c[nH+]c4sc(C)cc4c3=O)cc2)on1 (3D coordinates assigned)
Cc1cc(C[N-]C(=O)c2ccc(Cn3c[nH+]c4sc(C)cc4c3=O)cc2)on1 (optimized conformer: 108.94725647545849 kcal/mol)

>  <smiles>  (42) 
Cc1cc(CNC(=O)c2ccc(Cn3cnc4sc(C)cc4c3=O)cc2)on1

>  <score_type>  (42) 
oracle

>  <origin>  (42) 
adg

>  <m_score__min__energy>  (42) 
-12.08

>  <m_primary>  (42) 
energy

$$$$
42:0
     RDKit          3D

 43 44  0  0  0  0  0  0  0  0999 V2000
   -8.7980   23.4250  -32.2540 C   0  0  0  0  0  0  0  0  0  0  0  0
   -7.2900   23.6020  -32.3730 C   0  0  0  0  0  0  0  0  0  0  0  0
   -6.5860   22.6610  -31.4890 N   0  0  0  0  0  0  0  0  0  0  0  0
   -5.8950   23.1570  -30.2890 C   0  0  0  0  0  0  0  0  0  0  0  0
   -4.5060   23.7100  -30.6180 C   0  0  0  0  0  0  0  0  0  0  0  0
   -4.5880   25.1020  -30.8360 O   0  0  0  0  0  0  0  0  0  0  0  0
   -5.7190   25.6160  -30.1720 C   0  0  0  0  0  0  0  0  0  0  0  0
   -6.1800   21.3950  -32.0350 C   0  0  0  0  0  0  0  0  0  0  0  0
   -4.9330   21.2680  -32.6470 C   0  0  0  0  0  0  0  0  0  0  0  0
   -4.5580   20.0840  -33.1900 N   0  0  0  0  0  0  0  0  0  0  0  0
   -5.3750   18.9970  -33.1550 C   0  0  0  0  0  0  0  0  0  0  0  0
   -4.9180   17.7230  -33.7620 C   0  0  0  0  0  0  0  0  0  0  0  0
   -5.6580   16.5420  -33.5590 C   0  0  0  0  0  0  0  0  0  0  0  0
   -5.2410   15.3360  -34.1310 C   0  0  0  0  0  0  0  0  0  0  0  0
   -4.0880   15.2960  -34.9180 C   0  0  0  0  0  0  0  0  0  0  0  0
   -3.3530   16.4620  -35.1380 C   0  0  0  0  0  0  0  0  0  0  0  0
   -3.7630   17.6710  -34.5670 C   0  0  0  0  0  0  0  0  0  0  0  0
   -6.6060   19.1020  -32.5690 N   0  0  0  0  0  0  0  0  0  0  0  0
   -7.0180   20.2690  -31.9990 C   0  0  0  0  0  0  0  0  0  0  0  0
   -8.6410   20.3390  -31.2300 S   0  0  0  0  0  0  0  0  0  0  0  0
   -9.4760   19.5390  -32.6340 C   0  0  0  0  0  0  0  0  0  0  0  0
   -9.0806   23.3918  -31.1914 H   0  0  0  0  0  0  0  0  0  0  0  0
   -9.3060   24.2697  -32.7423 H   0  0  0  0  0  0  0  0  0  0  0  0
   -9.0966   22.4856  -32.7423 H   0  0  0  0  0  0  0  0  0  0  0  0
   -6.9855   23.4168  -33.4137 H   0  0  0  0  0  0  0  0  0  0  0  0
   -7.0294   24.6288  -32.0767 H   0  0  0  0  0  0  0  0  0  0  0  0
   -6.4985   23.9576  -29.8364 H   0  0  0  0  0  0  0  0  0  0  0  0
   -5.7704   22.3134  -29.5941 H   0  0  0  0  0  0  0  0  0  0  0  0
   -3.8246   23.5109  -29.7777 H   0  0  0  0  0  0  0  0  0  0  0  0
   -4.1247   23.2207  -31.5264 H   0  0  0  0  0  0  0  0  0  0  0  0
   -5.5683   25.5475  -29.0845 H   0  0  0  0  0  0  0  0  0  0  0  0
   -5.8643   26.6686  -30.4565 H   0  0  0  0  0  0  0  0  0  0  0  0
   -6.6075   25.0333  -30.4565 H   0  0  0  0  0  0  0  0  0  0  0  0
   -4.2522   22.1309  -32.6891 H   0  0  0  0  0  0  0  0  0  0  0  0
   -6.5709   16.5685  -32.9459 H   0  0  0  0  0  0  0  0  0  0  0  0
   -5.8220   14.4176  -33.9608 H   0  0  0  0  0  0  0  0  0  0  0  0
   -3.7592   14.3459  -35.3643 H   0  0  0  0  0  0  0  0  0  0  0  0
   -2.4481   16.4299  -35.7627 H   0  0  0  0  0  0  0  0  0  0  0  0
   -3.1804   18.5864  -34.7474 H   0  0  0  0  0  0  0  0  0  0  0  0
   -7.2620   18.2910  -32.5680 H   0  0  0  0  0  0  0  0  0  0  0  0
  -10.2224   18.8239  -32.2577 H   0  0  0  0  0  0  0  0  0  0  0  0
   -9.9767   20.3032  -33.2467 H   0  0  0  0  0  0  0  0  0  0  0  0
   -8.7340   19.0061  -33.2467 H   0  0  0  0  0  0  0  0  0  0  0  0
  1  2  1  0
  2  3  1  0
  3  4  1  0
  4  5  1  0
  5  6  1  0
  6  7  1  0
  3  8  1  0
  8  9  2  0
  9 10  1  0
 10 11  2  0
 11 12  1  0
 12 13  2  0
 13 14  1  0
 14 15  2  0
 15 16  1  0
 16 17  2  0
 11 18  1  0
 18 19  2  0
 19 20  1  0
 20 21  1  0
 19  8  1  0
 17 12  1  0
  1 22  1  0
  1 23  1  0
  1 24  1  0
  2 25  1  0
  2 26  1  0
  4 27  1  0
  4 28  1  0
  5 29  1  0
  5 30  1  0
  7 31  1  0
  7 32  1  0
  7 33  1  0
  9 34  1  0
 13 35  1  0
 14 36  1  0
 15 37  1  0
 16 38  1  0
 17 39  1  0
 18 40  1  0
 21 41  1  0
 21 42  1  0
 21 43  1  0
M  CHG  1  18   1
M  END
>  <UniqueID>  (43) 
42

>  <SMILES>  (43) 
CCN(CCOC)c1cnc(-c2ccccc2)[nH+]c1SC

>  <Energy>  (43) 
42.87158278552823

>  <Genealogy>  (43) 
CCN(CCOC)c1cnc(-c2ccccc2)[nH+]c1SC (protonated)
CCN(CCOC)c1cnc(-c2ccccc2)[nH+]c1SC (3D coordinates assigned)
CCN(CCOC)c1cnc(-c2ccccc2)[nH+]c1SC (optimized conformer: 42.87158278552823 kcal/mol)

>  <smiles>  (43) 
CCN(CCOC)c1cnc(-c2ccccc2)nc1SC

>  <score_type>  (43) 
oracle

>  <origin>  (43) 
adg

>  <m_score__min__energy>  (43) 
-6.25

>  <m_primary>  (43) 
energy

$$$$
43:0
     RDKit          3D

 48 51  0  0  0  0  0  0  0  0999 V2000
   -2.9180   18.8080  -34.2220 C   0  0  0  0  0  0  0  0  0  0  0  0
   -3.2980   19.8900  -33.2990 N   0  0  0  0  0  0  0  0  0  0  0  0
   -4.5700   19.9590  -32.7820 C   0  0  0  0  0  0  0  0  0  0  0  0
   -5.5880   19.0210  -33.1710 N   0  0  0  0  0  0  0  0  0  0  0  0
   -6.8700   19.5030  -33.6860 C   0  0  0  0  0  0  0  0  0  0  0  0
   -7.9640   19.1840  -32.6610 C   0  0  0  0  0  0  0  0  0  0  0  0
   -7.9590   17.8070  -32.3270 O   0  0  0  0  0  0  0  0  0  0  0  0
   -6.7370   17.4600  -31.6970 C   0  0  0  0  0  0  0  0  0  0  0  0
   -5.5600   17.6510  -32.6580 C   0  0  0  0  0  0  0  0  0  0  0  0
   -4.8910   20.9380  -31.8960 N   0  0  0  0  0  0  0  0  0  0  0  0
   -3.9990   21.8850  -31.5120 C   0  0  0  0  0  0  0  0  0  0  0  0
   -4.4240   22.9360  -30.5560 C   0  0  0  0  0  0  0  0  0  0  0  0
   -3.5410   23.3430  -29.5420 C   0  0  0  0  0  0  0  0  0  0  0  0
   -3.9320   24.3360  -28.6380 C   0  0  0  0  0  0  0  0  0  0  0  0
   -3.0420   24.7550  -27.5910 C   0  0  0  0  0  0  0  0  0  0  0  0
   -2.2930   25.1100  -26.7150 C   0  0  0  0  0  0  0  0  0  0  0  0
   -1.3980   25.5330  -25.6700 C   0  0  0  0  0  0  0  0  0  0  0  0
   -0.1190   24.9710  -25.5780 C   0  0  0  0  0  0  0  0  0  0  0  0
    0.7390   25.3890  -24.5600 C   0  0  0  0  0  0  0  0  0  0  0  0
    0.3160   26.3590  -23.6500 C   0  0  0  0  0  0  0  0  0  0  0  0
   -0.9660   26.8980  -23.7720 C   0  0  0  0  0  0  0  0  0  0  0  0
   -1.7930   26.4800  -24.7700 N   0  0  0  0  0  0  0  0  0  0  0  0
   -5.1570   24.9130  -28.7490 N   0  0  0  0  0  0  0  0  0  0  0  0
   -6.0290   24.5530  -29.7260 C   0  0  0  0  0  0  0  0  0  0  0  0
   -5.6820   23.5640  -30.6500 C   0  0  0  0  0  0  0  0  0  0  0  0
   -6.5470   23.2660  -31.6530 F   0  0  0  0  0  0  0  0  0  0  0  0
   -2.7210   21.8750  -32.0740 C   0  0  0  0  0  0  0  0  0  0  0  0
   -2.3860   20.8630  -32.9750 C   0  0  0  0  0  0  0  0  0  0  0  0
   -1.2320   20.8620  -33.4870 O   0  0  0  0  0  0  0  0  0  0  0  0
   -2.6079   17.9250  -33.6440 H   0  0  0  0  0  0  0  0  0  0  0  0
   -3.7785   18.5476  -34.8559 H   0  0  0  0  0  0  0  0  0  0  0  0
   -2.0837   19.1429  -34.8559 H   0  0  0  0  0  0  0  0  0  0  0  0
   -6.8191   20.5900  -33.8465 H   0  0  0  0  0  0  0  0  0  0  0  0
   -7.0982   19.0102  -34.6426 H   0  0  0  0  0  0  0  0  0  0  0  0
   -7.7880   19.7759  -31.7507 H   0  0  0  0  0  0  0  0  0  0  0  0
   -8.9407   19.4352  -33.1003 H   0  0  0  0  0  0  0  0  0  0  0  0
   -6.5907   18.1007  -30.8149 H   0  0  0  0  0  0  0  0  0  0  0  0
   -6.7811   16.4026  -31.3972 H   0  0  0  0  0  0  0  0  0  0  0  0
   -4.6145   17.4754  -32.1241 H   0  0  0  0  0  0  0  0  0  0  0  0
   -5.6386   16.9379  -33.4918 H   0  0  0  0  0  0  0  0  0  0  0  0
   -2.5455   22.8823  -29.4593 H   0  0  0  0  0  0  0  0  0  0  0  0
    0.2061   24.2080  -26.3006 H   0  0  0  0  0  0  0  0  0  0  0  0
    1.7462   24.9551  -24.4749 H   0  0  0  0  0  0  0  0  0  0  0  0
    0.9859   26.6953  -22.8449 H   0  0  0  0  0  0  0  0  0  0  0  0
   -1.3093   27.6628  -23.0597 H   0  0  0  0  0  0  0  0  0  0  0  0
   -2.7480   26.8990  -24.8400 H   0  0  0  0  0  0  0  0  0  0  0  0
   -7.0123   25.0419  -29.7901 H   0  0  0  0  0  0  0  0  0  0  0  0
   -1.9892   22.6529  -31.8107 H   0  0  0  0  0  0  0  0  0  0  0  0
  1  2  1  0
  2  3  1  0
  3  4  1  0
  4  5  1  0
  5  6  1  0
  6  7  1  0
  7  8  1  0
  8  9  1  0
  3 10  2  0
 10 11  1  0
 11 12  1  0
 12 13  2  0
 13 14  1  0
 14 15  1  0
 15 16  3  0
 16 17  1  0
 17 18  2  0
 18 19  1  0
 19 20  2  0
 20 21  1  0
 21 22  2  0
 14 23  2  0
 23 24  1  0
 24 25  2  0
 25 26  1  0
 11 27  2  0
 27 28  1  0
 28 29  2  0
 28  2  1  0
  9  4  1  0
 25 12  1  0
 22 17  1  0
  1 30  1  0
  1 31  1  0
  1 32  1  0
  5 33  1  0
  5 34  1  0
  6 35  1  0
  6 36  1  0
  8 37  1  0
  8 38  1  0
  9 39  1  0
  9 40  1  0
 13 41  1  0
 18 42  1  0
 19 43  1  0
 20 44  1  0
 21 45  1  0
 22 46  1  0
 24 47  1  0
 27 48  1  0
M  CHG  1  22   1
M  END
>  <UniqueID>  (44) 
43

>  <SMILES>  (44) 
Cn1c(N2CCOCC2)nc(-c2cc(C#Cc3cccc[nH+]3)ncc2F)cc1=O

>  <Energy>  (44) 
63.97782702055734

>  <Genealogy>  (44) 
Cn1c(N2CCOCC2)nc(-c2cc(C#Cc3cccc[nH+]3)ncc2F)cc1=O (protonated)
Cn1c(N2CCOCC2)nc(-c2cc(C#Cc3cccc[nH+]3)ncc2F)cc1=O (3D coordinates assigned)
Cn1c(N2CCOCC2)nc(-c2cc(C#Cc3cccc[nH+]3)ncc2F)cc1=O (nonaromatic ring conformer: 63.97782702055734 kcal/mol)

>  <smiles>  (44) 
Cn1c(N2CCOCC2)nc(-c2cc(C#Cc3ccccn3)ncc2F)cc1=O

>  <score_type>  (44) 
oracle

>  <origin>  (44) 
adg

>  <m_score__min__energy>  (44) 
-7.4299999999999997

>  <m_primary>  (44) 
energy

$$$$
44:0
     RDKit          3D

 39 40  0  0  0  0  0  0  0  0999 V2000
   -6.4353   19.9162  -32.9743 H   0  0  0  0  0  0  0  0  0  0  0  0
   -5.3660   20.1680  -33.0300 C   0  0  0  0  0  0  0  0  0  0  0  0
   -4.1940   20.4440  -33.0910 C   0  0  0  0  0  0  0  0  0  0  0  0
   -2.7720   20.7800  -33.1650 C   0  0  0  0  0  0  0  0  0  0  0  0
   -2.1742   19.9268  -32.8119 H   0  0  0  0  0  0  0  0  0  0  0  0
   -2.5018   21.0092  -34.2064 H   0  0  0  0  0  0  0  0  0  0  0  0
   -2.5130   21.9100  -32.3480 O   0  0  0  0  0  0  0  0  0  0  0  0
   -2.0820   21.7450  -31.0500 N   0  0  0  0  0  0  0  0  0  0  0  0
   -2.4010   22.5920  -30.1230 C   0  0  0  0  0  0  0  0  0  0  0  0
   -1.4390   23.5300  -29.4910 C   0  0  0  0  0  0  0  0  0  0  0  0
   -0.6987   22.9837  -28.8881 H   0  0  0  0  0  0  0  0  0  0  0  0
   -0.8629   24.1073  -30.2291 H   0  0  0  0  0  0  0  0  0  0  0  0
   -2.3130   24.4130  -28.6070 C   0  0  0  0  0  0  0  0  0  0  0  0
   -1.8199   24.5881  -27.6394 H   0  0  0  0  0  0  0  0  0  0  0  0
   -2.4871   25.3937  -29.0738 H   0  0  0  0  0  0  0  0  0  0  0  0
   -3.6390   23.6520  -28.3990 C   0  0  1  0  0  0  0  0  0  0  0  0
   -3.6060   23.1155  -27.4393 H   0  0  0  0  0  0  0  0  0  0  0  0
   -4.8130   24.5360  -28.3040 N   0  0  0  0  0  0  0  0  0  0  0  0
   -5.6060   24.0360  -27.8390 H   0  0  0  0  0  0  0  0  0  0  0  0
   -5.3510   25.0680  -29.8730 S   0  0  0  0  0  0  0  0  0  0  0  0
   -4.1660   25.3120  -30.7660 O   0  0  0  0  0  0  0  0  0  0  0  0
   -6.1040   26.3590  -29.7190 O   0  0  0  0  0  0  0  0  0  0  0  0
   -6.4270   23.8790  -30.5950 C   0  0  0  0  0  0  0  0  0  0  0  0
   -7.1670   23.0750  -29.7860 N   0  0  0  0  0  0  0  0  0  0  0  0
   -8.0040   22.1270  -30.2840 C   0  0  0  0  0  0  0  0  0  0  0  0
   -8.5878   21.4971  -29.5967 H   0  0  0  0  0  0  0  0  0  0  0  0
   -8.1270   21.9480  -31.6660 C   0  0  0  0  0  0  0  0  0  0  0  0
   -8.9970   20.9570  -32.1430 O   0  0  0  0  0  0  0  0  0  0  0  0
   -8.7760   19.5580  -32.0000 C   0  0  0  0  0  0  0  0  0  0  0  0
   -8.7353   19.3006  -30.9313 H   0  0  0  0  0  0  0  0  0  0  0  0
   -9.5981   19.0061  -32.4791 H   0  0  0  0  0  0  0  0  0  0  0  0
   -7.8238   19.2863  -32.4791 H   0  0  0  0  0  0  0  0  0  0  0  0
   -7.3710   22.7710  -32.5210 C   0  0  0  0  0  0  0  0  0  0  0  0
   -7.4494   22.6504  -33.6116 H   0  0  0  0  0  0  0  0  0  0  0  0
   -6.5210   23.7410  -31.9850 C   0  0  0  0  0  0  0  0  0  0  0  0
   -5.9311   24.3903  -32.6486 H   0  0  0  0  0  0  0  0  0  0  0  0
   -3.7790   22.7070  -29.5950 C   0  0  0  0  0  0  0  0  0  0  0  0
   -4.1586   21.7253  -29.2754 H   0  0  0  0  0  0  0  0  0  0  0  0
   -4.4911   23.0779  -30.3469 H   0  0  0  0  0  0  0  0  0  0  0  0
  1  2  1  0
  2  3  3  0
  3  4  1  0
  4  5  1  0
  4  6  1  0
  4  7  1  0
  7  8  1  0
  8  9  2  0
  9 10  1  0
 10 11  1  0
 10 12  1  0
 10 13  1  0
 13 14  1  0
 13 15  1  0
 13 16  1  0
 16 17  1  1
 16 18  1  0
 18 19  1  0
 18 20  1  0
 20 21  2  0
 20 22  2  0
 20 23  1  0
 23 24  2  0
 24 25  1  0
 25 26  1  0
 25 27  2  0
 27 28  1  0
 28 29  1  0
 29 30  1  0
 29 31  1  0
 29 32  1  0
 27 33  1  0
 33 34  1  0
 33 35  2  0
 35 36  1  0
 16 37  1  0
 37 38  1  0
 37 39  1  0
 37  9  1  0
 35 23  1  0
M  END
>  <UniqueID>  (45) 
44

>  <SMILES>  (45) 
C#CCO/N=C1\CC[C@@H](NS(=O)(=O)c2ccc(OC)cn2)C1

>  <Energy>  (45) 
30.798354584506228

>  <Genealogy>  (45) 
C#CCON=C1CC[C@@H](NS(=O)(=O)c2ccc(OC)cn2)C1 (chirality)
C#CCO/N=C1\CC[C@@H](NS(=O)(=O)c2ccc(OC)cn2)C1 (cis-trans isomerization)
C#CCO/N=C1\CC[C@@H](NS(=O)(=O)c2ccc(OC)cn2)C1 (3D coordinates assigned)
C#CCO/N=C1\CC[C@@H](NS(=O)(=O)c2ccc(OC)cn2)C1 (nonaromatic ring conformer: 30.798354584506228 kcal/mol)

>  <smiles>  (45) 
C#CCON=C1CCC(NS(=O)(=O)c2ccc(OC)cn2)C1

>  <score_type>  (45) 
oracle

>  <origin>  (45) 
adg

>  <m_score__min__energy>  (45) 
-8.1899999999999995

>  <m_primary>  (45) 
energy

$$$$
45:0
     RDKit          3D

 62 66  0  0  0  0  0  0  0  0999 V2000
    2.1420   24.5620  -27.8410 C   0  0  0  0  0  0  0  0  0  0  0  0
    0.7910   24.8830  -28.1520 O   0  0  0  0  0  0  0  0  0  0  0  0
   -0.1540   25.3520  -27.2250 C   0  0  0  0  0  0  0  0  0  0  0  0
    0.1220   26.4420  -26.3750 C   0  0  0  0  0  0  0  0  0  0  0  0
   -0.8250   26.8660  -25.4390 C   0  0  0  0  0  0  0  0  0  0  0  0
   -2.0530   26.2120  -25.3390 C   0  0  0  0  0  0  0  0  0  0  0  0
   -2.3420   25.1370  -26.1800 C   0  0  0  0  0  0  0  0  0  0  0  0
   -1.4030   24.7010  -27.1310 C   0  0  0  0  0  0  0  0  0  0  0  0
   -1.7350   23.6140  -28.0160 N   0  0  0  0  0  0  0  0  0  0  0  0
   -2.0750   22.2930  -27.4880 C   0  0  0  0  0  0  0  0  0  0  0  0
   -3.5270   21.9560  -27.8430 C   0  0  0  0  0  0  0  0  0  0  0  0
   -3.8960   22.3610  -29.2220 N   0  0  0  0  0  0  0  0  0  0  0  0
   -5.1910   23.0580  -29.3620 C   0  0  0  0  0  0  0  0  0  0  0  0
   -5.1300   24.3050  -30.2650 C   0  0  0  0  0  0  0  0  0  0  0  0
   -6.2130   24.2730  -31.3500 C   0  0  0  0  0  0  0  0  0  0  0  0
   -6.3100   22.9380  -31.9390 N   0  0  0  0  0  0  0  0  0  0  0  0
   -5.2690   22.2920  -32.4590 N   0  0  0  0  0  0  0  0  0  0  0  0
   -5.6910   21.0630  -32.8460 C   0  0  0  0  0  0  0  0  0  0  0  0
   -4.8360   20.0760  -33.4360 N   0  0  0  0  0  0  0  0  0  0  0  0
   -3.4320   19.9300  -33.0960 C   0  0  0  0  0  0  0  0  0  0  0  0
   -2.9310   18.7020  -33.8790 C   0  0  0  0  0  0  0  0  0  0  0  0
   -4.1700   17.9810  -34.4260 C   0  0  0  0  0  0  0  0  0  0  0  0
   -5.2690   18.9200  -34.1310 C   0  0  0  0  0  0  0  0  0  0  0  0
   -6.4790   18.6730  -34.3770 O   0  0  0  0  0  0  0  0  0  0  0  0
   -7.0370   20.9480  -32.5630 C   0  0  0  0  0  0  0  0  0  0  0  0
   -7.9340   19.9630  -32.8110 N   0  0  0  0  0  0  0  0  0  0  0  0
   -9.2310   20.1640  -32.4230 C   0  0  0  0  0  0  0  0  0  0  0  0
   -9.6030   21.3390  -31.8190 N   0  0  0  0  0  0  0  0  0  0  0  0
   -8.7030   22.3430  -31.5940 C   0  0  0  0  0  0  0  0  0  0  0  0
   -7.3890   22.1300  -31.9920 C   0  0  0  0  0  0  0  0  0  0  0  0
   -2.8090   22.8220  -30.1140 C   0  0  0  0  0  0  0  0  0  0  0  0
   -1.8730   23.8520  -29.4560 C   0  0  0  0  0  0  0  0  0  0  0  0
    2.2696   24.5317  -26.7488 H   0  0  0  0  0  0  0  0  0  0  0  0
    2.3928   23.5793  -28.2669 H   0  0  0  0  0  0  0  0  0  0  0  0
    2.8080   25.3269  -28.2669 H   0  0  0  0  0  0  0  0  0  0  0  0
    1.0885   26.9619  -26.4489 H   0  0  0  0  0  0  0  0  0  0  0  0
   -0.6015   27.7175  -24.7795 H   0  0  0  0  0  0  0  0  0  0  0  0
   -2.7938   26.5440  -24.5967 H   0  0  0  0  0  0  0  0  0  0  0  0
   -3.3128   24.6263  -26.0983 H   0  0  0  0  0  0  0  0  0  0  0  0
   -1.4059   21.5392  -27.9287 H   0  0  0  0  0  0  0  0  0  0  0  0
   -1.9573   22.2952  -26.3943 H   0  0  0  0  0  0  0  0  0  0  0  0
   -3.6680   20.8693  -27.7473 H   0  0  0  0  0  0  0  0  0  0  0  0
   -4.1732   22.5166  -27.1515 H   0  0  0  0  0  0  0  0  0  0  0  0
   -5.9194   22.3541  -29.7910 H   0  0  0  0  0  0  0  0  0  0  0  0
   -5.4803   23.4024  -28.3582 H   0  0  0  0  0  0  0  0  0  0  0  0
   -5.2735   25.2019  -29.6445 H   0  0  0  0  0  0  0  0  0  0  0  0
   -4.1482   24.3216  -30.7608 H   0  0  0  0  0  0  0  0  0  0  0  0
   -7.1812   24.5424  -30.9028 H   0  0  0  0  0  0  0  0  0  0  0  0
   -5.9464   24.9911  -32.1394 H   0  0  0  0  0  0  0  0  0  0  0  0
   -2.8712   20.8282  -33.3940 H   0  0  0  0  0  0  0  0  0  0  0  0
   -3.2910   19.8020  -32.0126 H   0  0  0  0  0  0  0  0  0  0  0  0
   -2.2833   19.0217  -34.7086 H   0  0  0  0  0  0  0  0  0  0  0  0
   -2.3444   18.0355  -33.2296 H   0  0  0  0  0  0  0  0  0  0  0  0
   -4.0793   17.8086  -35.5086 H   0  0  0  0  0  0  0  0  0  0  0  0
   -4.3217   16.9876  -33.9786 H   0  0  0  0  0  0  0  0  0  0  0  0
   -7.6610   19.0850  -33.3020 H   0  0  0  0  0  0  0  0  0  0  0  0
   -9.9808   19.3781  -32.5965 H   0  0  0  0  0  0  0  0  0  0  0  0
   -9.0080   23.2852  -31.1153 H   0  0  0  0  0  0  0  0  0  0  0  0
   -2.2107   21.9492  -30.4143 H   0  0  0  0  0  0  0  0  0  0  0  0
   -3.2831   23.3173  -30.9742 H   0  0  0  0  0  0  0  0  0  0  0  0
   -0.8807   23.7837  -29.9257 H   0  0  0  0  0  0  0  0  0  0  0  0
   -2.3077   24.8523  -29.5991 H   0  0  0  0  0  0  0  0  0  0  0  0
  1  2  1  0
  2  3  1  0
  3  4  2  0
  4  5  1  0
  5  6  2  0
  6  7  1  0
  7  8  2  0
  8  9  1  0
  9 10  1  0
 10 11  1  0
 11 12  1  0
 12 13  1  0
 13 14  1  0
 14 15  1  0
 15 16  1  0
 16 17  1  0
 17 18  2  0
 18 19  1  0
 19 20  1  0
 20 21  1  0
 21 22  1  0
 22 23  1  0
 23 24  2  0
 18 25  1  0
 25 26  2  0
 26 27  1  0
 27 28  2  0
 28 29  1  0
 29 30  2  0
 12 31  1  0
 31 32  1  0
  8  3  1  0
 32  9  1  0
 30 16  1  0
 23 19  1  0
 30 25  1  0
  1 33  1  0
  1 34  1  0
  1 35  1  0
  4 36  1  0
  5 37  1  0
  6 38  1  0
  7 39  1  0
 10 40  1  0
 10 41  1  0
 11 42  1  0
 11 43  1  0
 13 44  1  0
 13 45  1  0
 14 46  1  0
 14 47  1  0
 15 48  1  0
 15 49  1  0
 20 50  1  0
 20 51  1  0
 21 52  1  0
 21 53  1  0
 22 54  1  0
 22 55  1  0
 26 56  1  0
 27 57  1  0
 29 58  1  0
 31 59  1  0
 31 60  1  0
 32 61  1  0
 32 62  1  0
M  CHG  1  26   1
M  END
>  <UniqueID>  (46) 
45

>  <SMILES>  (46) 
COc1ccccc1N1CCN(CCCn2nc(N3CCCC3=O)c3[nH+]cncc32)CC1

>  <Energy>  (46) 
132.6513386623912

>  <Genealogy>  (46) 
COc1ccccc1N1CCN(CCCn2nc(N3CCCC3=O)c3[nH+]cncc32)CC1 (protonated)
COc1ccccc1N1CCN(CCCn2nc(N3CCCC3=O)c3[nH+]cncc32)CC1 (3D coordinates assigned)
COc1ccccc1N1CCN(CCCn2nc(N3CCCC3=O)c3[nH+]cncc32)CC1 (nonaromatic ring conformer: 132.6513386623912 kcal/mol)

>  <smiles>  (46) 
COc1ccccc1N1CCN(CCCn2nc(N3CCCC3=O)c3ncncc32)CC1

>  <score_type>  (46) 
oracle

>  <origin>  (46) 
adg

>  <m_score__min__energy>  (46) 
-8.6600000000000001

>  <m_primary>  (46) 
energy

$$$$
46:0
     RDKit          3D

 25 26  0  0  0  0  0  0  0  0999 V2000
   -2.9320   21.1860  -33.1650 C   0  0  0  0  0  0  0  0  0  0  0  0
   -3.9380   20.3170  -33.2120 C   0  0  0  0  0  0  0  0  0  0  0  0
   -4.8130   20.0740  -32.0430 C   0  0  0  0  0  0  0  0  0  0  0  0
   -6.2200   20.2060  -32.3700 N   0  0  0  0  0  0  0  0  0  0  0  0
   -6.9710   21.2930  -32.1070 C   0  0  0  0  0  0  0  0  0  0  0  0
   -6.5700   22.5390  -31.4620 C   0  0  0  0  0  0  0  0  0  0  0  0
   -7.2480   23.0990  -30.4050 C   0  0  0  0  0  0  0  0  0  0  0  0
   -6.7890   24.2960  -29.8510 C   0  0  0  0  0  0  0  0  0  0  0  0
   -5.6450   24.8650  -30.4120 C   0  0  0  0  0  0  0  0  0  0  0  0
   -4.9880   24.3230  -31.4350 N   0  0  0  0  0  0  0  0  0  0  0  0
   -5.4390   23.1730  -31.9580 C   0  0  0  0  0  0  0  0  0  0  0  0
   -8.2180   21.0150  -32.5660 N   0  0  0  0  0  0  0  0  0  0  0  0
   -8.2360   19.7990  -33.0940 N   0  0  0  0  0  0  0  0  0  0  0  0
   -6.9990   19.2880  -32.9770 C   0  0  0  0  0  0  0  0  0  0  0  0
   -6.4550   17.8150  -33.4610 S   0  0  0  0  0  0  0  0  0  0  0  0
   -2.2998   21.3439  -34.0512 H   0  0  0  0  0  0  0  0  0  0  0  0
   -2.7323   21.7467  -32.2399 H   0  0  0  0  0  0  0  0  0  0  0  0
   -4.1247   19.7642  -34.1445 H   0  0  0  0  0  0  0  0  0  0  0  0
   -4.6307   19.0551  -31.6707 H   0  0  0  0  0  0  0  0  0  0  0  0
   -4.5729   20.8299  -31.2808 H   0  0  0  0  0  0  0  0  0  0  0  0
   -8.1448   22.6081  -29.9990 H   0  0  0  0  0  0  0  0  0  0  0  0
   -7.3086   24.7714  -29.0060 H   0  0  0  0  0  0  0  0  0  0  0  0
   -5.2677   25.8074  -29.9882 H   0  0  0  0  0  0  0  0  0  0  0  0
   -4.8983   22.7204  -32.8023 H   0  0  0  0  0  0  0  0  0  0  0  0
   -9.0630   19.3270  -33.5220 H   0  0  0  0  0  0  0  0  0  0  0  0
  1  2  2  0
  2  3  1  0
  3  4  1  0
  4  5  1  0
  5  6  1  0
  6  7  2  0
  7  8  1  0
  8  9  2  0
  9 10  1  0
 10 11  2  0
  5 12  2  0
 12 13  1  0
 13 14  1  0
 14 15  2  0
 14  4  1  0
 11  6  1  0
  1 16  1  0
  1 17  1  0
  2 18  1  0
  3 19  1  0
  3 20  1  0
  7 21  1  0
  8 22  1  0
  9 23  1  0
 11 24  1  0
 13 25  1  0
M  END
>  <smiles>  (47) 
C=CCn1c(-c2cccnc2)n[nH]c1=S

>  <score_type>  (47) 
oracle

>  <origin>  (47) 
adg

>  <m_score__min__energy>  (47) 
-6.2000000000000002

>  <m_primary>  (47) 
energy

$$$$
47:0
     RDKit          3D

 46 49  0  0  0  0  0  0  0  0999 V2000
   -5.7860   14.4540  -34.1890 C   0  0  0  0  0  0  0  0  0  0  0  0
   -6.6380   15.5380  -34.5410 O   0  0  0  0  0  0  0  0  0  0  0  0
   -6.5590   16.8220  -33.9820 C   0  0  0  0  0  0  0  0  0  0  0  0
   -5.8300   17.8640  -34.5840 C   0  0  0  0  0  0  0  0  0  0  0  0
   -5.7810   19.1270  -33.9890 C   0  0  0  0  0  0  0  0  0  0  0  0
   -6.4560   19.3780  -32.7790 C   0  0  0  0  0  0  0  0  0  0  0  0
   -6.4000   20.7230  -32.1540 C   0  0  0  0  0  0  0  0  0  0  0  0
   -5.2460   21.4920  -31.9450 C   0  0  0  0  0  0  0  0  0  0  0  0
   -5.5150   22.7200  -31.3270 C   0  0  0  0  0  0  0  0  0  0  0  0
   -4.6000   23.7280  -30.9870 C   0  0  0  0  0  0  0  0  0  0  0  0
   -3.2240   23.5770  -31.1850 O   0  0  0  0  0  0  0  0  0  0  0  0
   -2.5830   22.3030  -31.1660 C   0  0  0  0  0  0  0  0  0  0  0  0
   -1.9350   22.0520  -29.8050 C   0  0  0  0  0  0  0  0  0  0  0  0
   -2.4000   23.0380  -28.8320 N   0  0  0  0  0  0  0  0  0  0  0  0
   -3.5810   22.8810  -28.0030 C   0  0  0  0  0  0  0  0  0  0  0  0
   -3.6620   24.1520  -27.1350 C   0  0  0  0  0  0  0  0  0  0  0  0
   -2.3690   24.9520  -27.3690 C   0  0  0  0  0  0  0  0  0  0  0  0
   -1.6970   24.2030  -28.4480 C   0  0  0  0  0  0  0  0  0  0  0  0
   -0.5990   24.5480  -28.9620 O   0  0  0  0  0  0  0  0  0  0  0  0
   -5.1000   24.9220  -30.4390 C   0  0  0  0  0  0  0  0  0  0  0  0
   -4.2520   25.9280  -30.1070 F   0  0  0  0  0  0  0  0  0  0  0  0
   -6.4820   25.0670  -30.2140 C   0  0  0  0  0  0  0  0  0  0  0  0
   -7.3440   24.0610  -30.5370 N   0  0  0  0  0  0  0  0  0  0  0  0
   -6.8600   22.9180  -31.0800 C   0  0  0  0  0  0  0  0  0  0  0  0
   -7.7470   21.5920  -31.5890 S   0  0  0  0  0  0  0  0  0  0  0  0
   -7.1870   18.3320  -32.1860 C   0  0  0  0  0  0  0  0  0  0  0  0
   -7.2350   17.0690  -32.7830 C   0  0  0  0  0  0  0  0  0  0  0  0
   -5.7250   14.3764  -33.0934 H   0  0  0  0  0  0  0  0  0  0  0  0
   -6.1933   13.5188  -34.6007 H   0  0  0  0  0  0  0  0  0  0  0  0
   -4.7811   14.6288  -34.6007 H   0  0  0  0  0  0  0  0  0  0  0  0
   -5.2957   17.6832  -35.5284 H   0  0  0  0  0  0  0  0  0  0  0  0
   -5.2092   19.9338  -34.4707 H   0  0  0  0  0  0  0  0  0  0  0  0
   -4.2366   21.1655  -32.2356 H   0  0  0  0  0  0  0  0  0  0  0  0
   -3.3293   21.5190  -31.3621 H   0  0  0  0  0  0  0  0  0  0  0  0
   -1.8027   22.2850  -31.9411 H   0  0  0  0  0  0  0  0  0  0  0  0
   -2.2027   21.0437  -29.4561 H   0  0  0  0  0  0  0  0  0  0  0  0
   -0.8432   22.1379  -29.9074 H   0  0  0  0  0  0  0  0  0  0  0  0
   -4.4794   22.7890  -28.6310 H   0  0  0  0  0  0  0  0  0  0  0  0
   -3.5215   21.9734  -27.3843 H   0  0  0  0  0  0  0  0  0  0  0  0
   -4.5347   24.7534  -27.4294 H   0  0  0  0  0  0  0  0  0  0  0  0
   -3.7698   23.8902  -26.0721 H   0  0  0  0  0  0  0  0  0  0  0  0
   -2.5942   25.9813  -27.6849 H   0  0  0  0  0  0  0  0  0  0  0  0
   -1.7524   25.0481  -26.4631 H   0  0  0  0  0  0  0  0  0  0  0  0
   -6.8692   25.9982  -29.7746 H   0  0  0  0  0  0  0  0  0  0  0  0
   -7.7258   18.5099  -31.2436 H   0  0  0  0  0  0  0  0  0  0  0  0
   -7.8098   16.2619  -32.3053 H   0  0  0  0  0  0  0  0  0  0  0  0
  1  2  1  0
  2  3  1  0
  3  4  2  0
  4  5  1  0
  5  6  2  0
  6  7  1  0
  7  8  2  0
  8  9  1  0
  9 10  2  0
 10 11  1  0
 11 12  1  0
 12 13  1  0
 13 14  1  0
 14 15  1  0
 15 16  1  0
 16 17  1  0
 17 18  1  0
 18 19  2  0
 10 20  1  0
 20 21  1  0
 20 22  2  0
 22 23  1  0
 23 24  2  0
 24 25  1  0
  6 26  1  0
 26 27  2  0
 27  3  1  0
 25  7  1  0
 24  9  1  0
 18 14  1  0
  1 28  1  0
  1 29  1  0
  1 30  1  0
  4 31  1  0
  5 32  1  0
  8 33  1  0
 12 34  1  0
 12 35  1  0
 13 36  1  0
 13 37  1  0
 15 38  1  0
 15 39  1  0
 16 40  1  0
 16 41  1  0
 17 42  1  0
 17 43  1  0
 22 44  1  0
 26 45  1  0
 27 46  1  0
M  END
>  <UniqueID>  (48) 
46

>  <SMILES>  (48) 
COc1ccc(-c2cc3c(OCCN4CCCC4=O)c(F)cnc3s2)cc1

>  <Energy>  (48) 
91.89510584357706

>  <Genealogy>  (48) 
COc1ccc(-c2cc3c(OCCN4CCCC4=O)c(F)cnc3s2)cc1 (3D coordinates assigned)
COc1ccc(-c2cc3c(OCCN4CCCC4=O)c(F)cnc3s2)cc1 (nonaromatic ring conformer: 91.89510584357706 kcal/mol)

>  <smiles>  (48) 
COc1ccc(-c2cc3c(OCCN4CCCC4=O)c(F)cnc3s2)cc1

>  <score_type>  (48) 
oracle

>  <origin>  (48) 
adg

>  <m_score__min__energy>  (48) 
-8.7699999999999996

>  <m_primary>  (48) 
energy

$$$$
48:0
     RDKit          3D

 30 31  0  0  0  0  0  0  0  0999 V2000
   -6.1270   25.6820  -29.4660 C   0  0  0  0  0  0  0  0  0  0  0  0
   -5.4550   24.8110  -30.4860 C   0  0  0  0  0  0  0  0  0  0  0  0
   -4.2840   25.1080  -30.8490 O   0  0  0  0  0  0  0  0  0  0  0  0
   -6.1300   23.6200  -31.0700 C   0  0  0  0  0  0  0  0  0  0  0  0
   -7.5060   23.4120  -30.8490 C   0  0  0  0  0  0  0  0  0  0  0  0
   -8.1540   22.2990  -31.3890 C   0  0  0  0  0  0  0  0  0  0  0  0
   -7.4440   21.3740  -32.1680 C   0  0  0  0  0  0  0  0  0  0  0  0
   -8.1340   20.1540  -32.7170 C   0  0  0  0  0  0  0  0  0  0  0  0
   -7.1920   18.9810  -32.7180 C   0  0  0  0  0  0  0  0  0  0  0  0
   -6.4010   18.7070  -33.8460 C   0  0  0  0  0  0  0  0  0  0  0  0
   -5.4990   17.6380  -33.8320 C   0  0  0  0  0  0  0  0  0  0  0  0
   -5.3760   16.8410  -32.6910 C   0  0  0  0  0  0  0  0  0  0  0  0
   -4.5000   15.8060  -32.6780 F   0  0  0  0  0  0  0  0  0  0  0  0
   -6.1500   17.1140  -31.5600 C   0  0  0  0  0  0  0  0  0  0  0  0
   -7.0530   18.1830  -31.5700 C   0  0  0  0  0  0  0  0  0  0  0  0
   -6.0710   21.5680  -32.3820 C   0  0  0  0  0  0  0  0  0  0  0  0
   -5.4210   22.6810  -31.8420 C   0  0  0  0  0  0  0  0  0  0  0  0
   -5.8605   25.3366  -28.4562 H   0  0  0  0  0  0  0  0  0  0  0  0
   -5.7955   26.7227  -29.5969 H   0  0  0  0  0  0  0  0  0  0  0  0
   -7.2177   25.6254  -29.5969 H   0  0  0  0  0  0  0  0  0  0  0  0
   -8.0756   24.1336  -30.2450 H   0  0  0  0  0  0  0  0  0  0  0  0
   -9.2273   22.1470  -31.2023 H   0  0  0  0  0  0  0  0  0  0  0  0
   -9.0075   19.9181  -32.0914 H   0  0  0  0  0  0  0  0  0  0  0  0
   -8.4554   20.3573  -33.7492 H   0  0  0  0  0  0  0  0  0  0  0  0
   -6.4913   19.3357  -34.7441 H   0  0  0  0  0  0  0  0  0  0  0  0
   -4.8860   17.4246  -34.7201 H   0  0  0  0  0  0  0  0  0  0  0  0
   -6.0494   16.4881  -30.6611 H   0  0  0  0  0  0  0  0  0  0  0  0
   -7.6561   18.3993  -30.6759 H   0  0  0  0  0  0  0  0  0  0  0  0
   -5.5026   20.8394  -32.9786 H   0  0  0  0  0  0  0  0  0  0  0  0
   -4.3454   22.8244  -32.0220 H   0  0  0  0  0  0  0  0  0  0  0  0
  1  2  1  0
  2  3  2  0
  2  4  1  0
  4  5  2  0
  5  6  1  0
  6  7  2  0
  7  8  1  0
  8  9  1  0
  9 10  2  0
 10 11  1  0
 11 12  2  0
 12 13  1  0
 12 14  1  0
 14 15  2  0
  7 16  1  0
 16 17  2  0
 17  4  1  0
 15  9  1  0
  1 18  1  0
  1 19  1  0
  1 20  1  0
  5 21  1  0
  6 22  1  0
  8 23  1  0
  8 24  1  0
 10 25  1  0
 11 26  1  0
 14 27  1  0
 15 28  1  0
 16 29  1  0
 17 30  1  0
M  END
>  <UniqueID>  (49) 
47

>  <SMILES>  (49) 
CC(=O)c1ccc(Cc2ccc(F)cc2)cc1

>  <Energy>  (49) 
29.36026313384518

>  <Genealogy>  (49) 
CC(=O)c1ccc(Cc2ccc(F)cc2)cc1 (3D coordinates assigned)
CC(=O)c1ccc(Cc2ccc(F)cc2)cc1 (optimized conformer: 29.36026313384518 kcal/mol)

>  <smiles>  (49) 
CC(=O)c1ccc(Cc2ccc(F)cc2)cc1

>  <score_type>  (49) 
oracle

>  <origin>  (49) 
adg

>  <m_score__min__energy>  (49) 
-7.9199999999999999

>  <m_primary>  (49) 
energy

$$$$
49:0
     RDKit          3D

 41 44  0  0  0  0  0  0  0  0999 V2000
    3.2547   24.6818  -28.5271 H   0  0  0  0  0  0  0  0  0  0  0  0
    2.4240   24.4830  -27.8340 C   0  0  0  0  0  0  0  0  0  0  0  0
    1.1260   24.5870  -28.1890 N   0  0  0  0  0  0  0  0  0  0  0  0
    0.4640   24.2530  -27.0690 C   0  0  0  0  0  0  0  0  0  0  0  0
   -1.0300   24.2760  -26.9380 C   0  0  0  0  0  0  0  0  0  0  0  0
   -1.2971   24.2220  -25.8723 H   0  0  0  0  0  0  0  0  0  0  0  0
   -1.4399   23.4148  -27.4861 H   0  0  0  0  0  0  0  0  0  0  0  0
   -1.6200   25.5530  -27.5350 C   0  0  0  0  0  0  0  0  0  0  0  0
   -0.9381   26.3941  -27.3412 H   0  0  0  0  0  0  0  0  0  0  0  0
   -2.5977   25.7494  -27.0707 H   0  0  0  0  0  0  0  0  0  0  0  0
   -1.7980   25.3970  -28.9790 N   0  0  0  0  0  0  0  0  0  0  0  0
   -2.5880   24.5470  -29.5700 C   0  0  0  0  0  0  0  0  0  0  0  0
   -3.7720   24.9980  -30.0660 N   0  0  0  0  0  0  0  0  0  0  0  0
   -4.6560   24.1800  -30.6950 C   0  0  0  0  0  0  0  0  0  0  0  0
   -5.8570   24.6950  -31.1950 C   0  0  0  0  0  0  0  0  0  0  0  0
   -6.0875   25.7642  -31.0780 H   0  0  0  0  0  0  0  0  0  0  0  0
   -6.7640   23.8520  -31.8430 C   0  0  0  0  0  0  0  0  0  0  0  0
   -7.7023   24.2647  -32.2420 H   0  0  0  0  0  0  0  0  0  0  0  0
   -6.4890   22.4860  -31.9890 C   0  0  0  0  0  0  0  0  0  0  0  0
   -7.4220   21.6800  -32.6580 O   0  0  0  0  0  0  0  0  0  0  0  0
   -7.4070   20.2780  -32.6960 C   0  0  0  0  0  0  0  0  0  0  0  0
   -6.4590   19.5640  -33.4550 C   0  0  0  0  0  0  0  0  0  0  0  0
   -5.7105   20.1079  -34.0500 H   0  0  0  0  0  0  0  0  0  0  0  0
   -6.4670   18.1660  -33.4540 C   0  0  0  0  0  0  0  0  0  0  0  0
   -5.7316   17.6117  -34.0556 H   0  0  0  0  0  0  0  0  0  0  0  0
   -7.4090   17.4720  -32.6890 C   0  0  0  0  0  0  0  0  0  0  0  0
   -7.4180   16.3720  -32.6933 H   0  0  0  0  0  0  0  0  0  0  0  0
   -8.3390   18.1750  -31.9190 C   0  0  0  0  0  0  0  0  0  0  0  0
   -9.0764   17.6281  -31.3131 H   0  0  0  0  0  0  0  0  0  0  0  0
   -8.3330   19.5730  -31.9180 C   0  0  0  0  0  0  0  0  0  0  0  0
   -9.0603   20.1224  -31.3022 H   0  0  0  0  0  0  0  0  0  0  0  0
   -5.2720   21.9700  -31.5070 C   0  0  0  0  0  0  0  0  0  0  0  0
   -5.0368   20.9040  -31.6421 H   0  0  0  0  0  0  0  0  0  0  0  0
   -4.3580   22.8100  -30.8550 C   0  0  0  0  0  0  0  0  0  0  0  0
   -3.1460   22.3200  -30.3570 C   0  0  0  0  0  0  0  0  0  0  0  0
   -2.8936   21.2557  -30.4731 H   0  0  0  0  0  0  0  0  0  0  0  0
   -2.2560   23.1830  -29.7120 C   0  0  0  0  0  0  0  0  0  0  0  0
   -1.3027   22.8014  -29.3175 H   0  0  0  0  0  0  0  0  0  0  0  0
    1.3610   23.9730  -26.0660 C   0  0  0  0  0  0  0  0  0  0  0  0
    1.1010   23.6827  -25.0373 H   0  0  0  0  0  0  0  0  0  0  0  0
    2.6080   24.1120  -26.5480 N   0  0  0  0  0  0  0  0  0  0  0  0
  1  2  1  0
  2  3  2  0
  3  4  1  0
  4  5  1  0
  5  6  1  0
  5  7  1  0
  5  8  1  0
  8  9  1  0
  8 10  1  0
  8 11  1  0
 11 12  2  0
 12 13  1  0
 13 14  1  0
 14 15  2  0
 15 16  1  0
 15 17  1  0
 17 18  1  0
 17 19  2  0
 19 20  1  0
 20 21  1  0
 21 22  2  0
 22 23  1  0
 22 24  1  0
 24 25  1  0
 24 26  2  0
 26 27  1  0
 26 28  1  0
 28 29  1  0
 28 30  2  0
 30 31  1  0
 19 32  1  0
 32 33  1  0
 32 34  2  0
 34 35  1  0
 35 36  1  0
 35 37  2  0
 37 38  1  0
  4 39  2  0
 39 40  1  0
 39 41  1  0
 41  2  1  0
 37 12  1  0
 34 14  1  0
 30 21  1  0
M  CHG  2  13  -1  41  -1
M  END
>  <UniqueID>  (50) 
48

>  <SMILES>  (50) 
c1ccc(Oc2ccc3[n-]/c(=N/CCc4c[n-]cn4)ccc3c2)cc1

>  <Energy>  (50) 
80.5600385688635

>  <Genealogy>  (50) 
c1ccc(Oc2ccc3[n-]c(=NCCc4c[n-]cn4)ccc3c2)cc1 (protonated)
c1ccc(Oc2ccc3[n-]/c(=N/CCc4c[n-]cn4)ccc3c2)cc1 (cis-trans isomerization)
c1ccc(Oc2ccc3[n-]/c(=N/CCc4c[n-]cn4)ccc3c2)cc1 (3D coordinates assigned)
c1ccc(Oc2ccc3[n-]/c(=N/CCc4c[n-]cn4)ccc3c2)cc1 (optimized conformer: 80.5600385688635 kcal/mol)

>  <smiles>  (50) 
c1ccc(Oc2ccc3[nH]c(=NCCc4c[nH]cn4)ccc3c2)cc1

>  <score_type>  (50) 
oracle

>  <origin>  (50) 
adg

>  <m_score__min__energy>  (50) 
-10.529999999999999

>  <m_primary>  (50) 
energy

$$$$
