0:0
     RDKit          3D

108113  0  0  0  0  0  0  0  0999 V2000
   -8.4130   18.4370  -31.8480 C   0  0  0  0  0  0  0  0  0  0  0  0
   -6.9800   17.9380  -32.0760 C   0  0  0  0  0  0  0  0  0  0  0  0
   -6.2810   18.5970  -33.2040 N   0  0  0  0  0  0  0  0  0  0  0  0
   -6.1460   17.7100  -34.3860 C   0  0  0  0  0  0  0  0  0  0  0  0
   -6.7810   16.3580  -34.0850 C   0  0  0  0  0  0  0  0  0  0  0  0
   -6.8370   19.9330  -33.5250 C   0  0  0  0  0  0  0  0  0  0  0  0
   -6.4660   20.9620  -32.4490 C   0  0  0  0  0  0  0  0  0  0  0  0
   -5.1530   21.5610  -32.7070 N   0  0  0  0  0  0  0  0  0  0  0  0
   -4.3710   22.0890  -31.6200 C   0  0  0  0  0  0  0  0  0  0  0  0
   -4.8980   23.1320  -30.8400 C   0  0  0  0  0  0  0  0  0  0  0  0
   -5.9960   23.8900  -31.2970 C   0  0  0  0  0  0  0  0  0  0  0  0
   -6.4930   24.9490  -30.5420 C   0  0  0  0  0  0  0  0  0  0  0  0
   -5.8970   25.2820  -29.3310 C   0  0  0  0  0  0  0  0  0  0  0  0
   -4.8170   24.5380  -28.8540 C   0  0  0  0  0  0  0  0  0  0  0  0
   -4.3160   23.4270  -29.5820 C   0  0  0  0  0  0  0  0  0  0  0  0
   -3.3020   22.6280  -29.0950 N   0  0  0  0  0  0  0  0  0  0  0  0
   -2.9360   22.6870  -27.6600 C   0  0  0  0  0  0  0  0  0  0  0  0
   -2.6330   21.7630  -29.9430 C   0  0  0  0  0  0  0  0  0  0  0  0
   -1.4390   21.1170  -29.5380 C   0  0  0  0  0  0  0  0  0  0  0  0
   -0.7670   20.2460  -30.3840 C   0  0  0  0  0  0  0  0  0  0  0  0
   -1.2150   20.0450  -31.6790 C   0  0  0  0  0  0  0  0  0  0  0  0
   -2.3700   20.6920  -32.1530 C   0  0  0  0  0  0  0  0  0  0  0  0
   -2.6500   20.6700  -33.5670 N   0  0  0  0  0  0  0  0  0  0  0  0
   -3.3600   19.5720  -34.2290 C   0  0  0  0  0  0  0  0  0  0  0  0
   -2.6920   18.2220  -33.9560 C   0  0  0  0  0  0  0  0  0  0  0  0
   -3.3360   17.4690  -32.7840 C   0  0  0  0  0  0  0  0  0  0  0  0
   -2.8670   16.0090  -32.7490 C   0  0  0  0  0  0  0  0  0  0  0  0
   -3.8910   15.0270  -33.3400 C   0  0  0  0  0  0  0  0  0  0  0  0
   -3.4670   14.4150  -34.6900 C   0  0  0  0  0  0  0  0  0  0  0  0
   -3.1770   15.4760  -35.7720 C   0  0  0  0  0  0  0  0  0  0  0  0
   -2.3430   14.9040  -36.9380 C   0  0  0  0  0  0  0  0  0  0  0  0
   -0.9410   14.4430  -36.5060 C   0  0  0  0  0  0  0  0  0  0  0  0
    0.0880   15.5770  -36.5100 C   0  0  0  0  0  0  0  0  0  0  0  0
   -0.4700   16.7780  -35.8880 N   0  0  0  0  0  0  0  0  0  0  0  0
    0.2000   17.4280  -34.7910 C   0  0  0  0  0  0  0  0  0  0  0  0
    0.5300   18.7950  -34.8710 C   0  0  0  0  0  0  0  0  0  0  0  0
    0.2720   19.5340  -36.0480 C   0  0  0  0  0  0  0  0  0  0  0  0
    0.5140   20.9020  -36.0950 C   0  0  0  0  0  0  0  0  0  0  0  0
    1.0220   21.5590  -34.9800 C   0  0  0  0  0  0  0  0  0  0  0  0
    1.3330   20.8430  -33.8230 C   0  0  0  0  0  0  0  0  0  0  0  0
    1.1370   19.4390  -33.7580 C   0  0  0  0  0  0  0  0  0  0  0  0
    1.5040   18.7040  -32.6440 N   0  0  0  0  0  0  0  0  0  0  0  0
    2.3820   19.3060  -31.6140 C   0  0  0  0  0  0  0  0  0  0  0  0
    1.0850   17.3920  -32.5110 C   0  0  0  0  0  0  0  0  0  0  0  0
    1.2370   16.6780  -31.2930 C   0  0  0  0  0  0  0  0  0  0  0  0
    0.8450   15.3440  -31.1820 C   0  0  0  0  0  0  0  0  0  0  0  0
    0.2830   14.6900  -32.2700 C   0  0  0  0  0  0  0  0  0  0  0  0
    0.0880   15.3700  -33.4680 C   0  0  0  0  0  0  0  0  0  0  0  0
    0.4610   16.7240  -33.6020 C   0  0  0  0  0  0  0  0  0  0  0  0
   -3.1310   21.5120  -31.2590 C   0  0  0  0  0  0  0  0  0  0  0  0
   -8.6099   18.5056  -30.7679 H   0  0  0  0  0  0  0  0  0  0  0  0
   -8.5328   19.4298  -32.3063 H   0  0  0  0  0  0  0  0  0  0  0  0
   -9.1236   17.7334  -32.3063 H   0  0  0  0  0  0  0  0  0  0  0  0
   -6.4013   18.1190  -31.1582 H   0  0  0  0  0  0  0  0  0  0  0  0
   -7.0531   16.8701  -32.3293 H   0  0  0  0  0  0  0  0  0  0  0  0
   -6.6527   18.1688  -35.2479 H   0  0  0  0  0  0  0  0  0  0  0  0
   -5.0799   17.5696  -34.6178 H   0  0  0  0  0  0  0  0  0  0  0  0
   -6.8467   16.2181  -32.9959 H   0  0  0  0  0  0  0  0  0  0  0  0
   -7.7903   16.3218  -34.5209 H   0  0  0  0  0  0  0  0  0  0  0  0
   -6.1644   15.5581  -34.5209 H   0  0  0  0  0  0  0  0  0  0  0  0
   -6.4349   20.2657  -34.4933 H   0  0  0  0  0  0  0  0  0  0  0  0
   -7.9333   19.8529  -33.5669 H   0  0  0  0  0  0  0  0  0  0  0  0
   -7.2257   21.7575  -32.4383 H   0  0  0  0  0  0  0  0  0  0  0  0
   -6.4248   20.4461  -31.4783 H   0  0  0  0  0  0  0  0  0  0  0  0
   -5.0080   21.9820  -33.6520 H   0  0  0  0  0  0  0  0  0  0  0  0
   -6.4649   23.6418  -32.2606 H   0  0  0  0  0  0  0  0  0  0  0  0
   -7.3586   25.5231  -30.9043 H   0  0  0  0  0  0  0  0  0  0  0  0
   -6.2774   26.1335  -28.7477 H   0  0  0  0  0  0  0  0  0  0  0  0
   -4.3468   24.8166  -27.8994 H   0  0  0  0  0  0  0  0  0  0  0  0
   -3.8368   22.5418  -27.0456 H   0  0  0  0  0  0  0  0  0  0  0  0
   -2.2069   21.8948  -27.4347 H   0  0  0  0  0  0  0  0  0  0  0  0
   -2.4927   23.6682  -27.4347 H   0  0  0  0  0  0  0  0  0  0  0  0
   -1.0364   21.3097  -28.5326 H   0  0  0  0  0  0  0  0  0  0  0  0
    0.1255   19.7129  -30.0244 H   0  0  0  0  0  0  0  0  0  0  0  0
   -0.6594   19.3696  -32.3462 H   0  0  0  0  0  0  0  0  0  0  0  0
   -2.0310   21.2570  -34.1660 H   0  0  0  0  0  0  0  0  0  0  0  0
   -4.3945   19.5400  -33.8564 H   0  0  0  0  0  0  0  0  0  0  0  0
   -3.3380   19.7531  -35.3138 H   0  0  0  0  0  0  0  0  0  0  0  0
   -2.7720   17.6005  -34.8601 H   0  0  0  0  0  0  0  0  0  0  0  0
   -1.6431   18.4182  -33.6888 H   0  0  0  0  0  0  0  0  0  0  0  0
   -3.0541   17.9607  -31.8413 H   0  0  0  0  0  0  0  0  0  0  0  0
   -4.4283   17.4847  -32.9133 H   0  0  0  0  0  0  0  0  0  0  0  0
   -1.9333   15.9284  -33.3249 H   0  0  0  0  0  0  0  0  0  0  0  0
   -2.7272   15.7371  -31.6924 H   0  0  0  0  0  0  0  0  0  0  0  0
   -4.0399   14.2082  -32.6207 H   0  0  0  0  0  0  0  0  0  0  0  0
   -4.8111   15.6006  -33.5258 H   0  0  0  0  0  0  0  0  0  0  0  0
   -2.5568   13.8175  -34.5329 H   0  0  0  0  0  0  0  0  0  0  0  0
   -4.3061   13.8013  -35.0495 H   0  0  0  0  0  0  0  0  0  0  0  0
   -4.1330   15.8481  -36.1690 H   0  0  0  0  0  0  0  0  0  0  0  0
   -2.5962   16.2853  -35.3055 H   0  0  0  0  0  0  0  0  0  0  0  0
   -2.8795   14.0428  -37.3630 H   0  0  0  0  0  0  0  0  0  0  0  0
   -2.2112   15.7106  -37.6743 H   0  0  0  0  0  0  0  0  0  0  0  0
   -1.0053   14.0313  -35.4880 H   0  0  0  0  0  0  0  0  0  0  0  0
   -0.6035   13.6892  -37.2325 H   0  0  0  0  0  0  0  0  0  0  0  0
    0.9789   15.2592  -35.9485 H   0  0  0  0  0  0  0  0  0  0  0  0
    0.3581   15.8084  -37.5509 H   0  0  0  0  0  0  0  0  0  0  0  0
   -1.2010   17.3090  -36.4130 H   0  0  0  0  0  0  0  0  0  0  0  0
   -0.1246   19.0209  -36.9365 H   0  0  0  0  0  0  0  0  0  0  0  0
    0.3032   21.4656  -37.0158 H   0  0  0  0  0  0  0  0  0  0  0  0
    1.1794   22.6473  -35.0098 H   0  0  0  0  0  0  0  0  0  0  0  0
    1.7360   21.3749  -32.9485 H   0  0  0  0  0  0  0  0  0  0  0  0
    2.0046   19.0472  -30.6137 H   0  0  0  0  0  0  0  0  0  0  0  0
    3.4046   18.9182  -31.7317 H   0  0  0  0  0  0  0  0  0  0  0  0
    2.3888   20.3997  -31.7317 H   0  0  0  0  0  0  0  0  0  0  0  0
    1.6723   17.1867  -30.4202 H   0  0  0  0  0  0  0  0  0  0  0  0
    0.9814   14.8091  -30.2305 H   0  0  0  0  0  0  0  0  0  0  0  0
   -0.0085   13.6328  -32.1848 H   0  0  0  0  0  0  0  0  0  0  0  0
   -0.3633   14.8446  -34.3226 H   0  0  0  0  0  0  0  0  0  0  0  0
  1  2  1  0
  2  3  1  0
  3  4  1  0
  4  5  1  0
  3  6  1  0
  6  7  1  0
  7  8  1  0
  8  9  1  0
  9 10  2  0
 10 11  1  0
 11 12  2  0
 12 13  1  0
 13 14  2  0
 14 15  1  0
 15 16  2  0
 16 17  1  0
 16 18  1  0
 18 19  2  0
 19 20  1  0
 20 21  2  0
 21 22  1  0
 22 23  1  0
 23 24  1  0
 24 25  1  0
 25 26  1  0
 26 27  1  0
 27 28  1  0
 28 29  1  0
 29 30  1  0
 30 31  1  0
 31 32  1  0
 32 33  1  0
 33 34  1  0
 34 35  1  0
 35 36  1  0
 36 37  2  0
 37 38  1  0
 38 39  2  0
 39 40  1  0
 40 41  2  0
 41 42  1  0
 42 43  1  0
 42 44  2  0
 44 45  1  0
 45 46  2  0
 46 47  1  0
 47 48  2  0
 48 49  1  0
 22 50  2  0
 50  9  1  0
 15 10  1  0
 50 18  1  0
 49 35  2  0
 41 36  1  0
 49 44  1  0
  1 51  1  0
  1 52  1  0
  1 53  1  0
  2 54  1  0
  2 55  1  0
  4 56  1  0
  4 57  1  0
  5 58  1  0
  5 59  1  0
  5 60  1  0
  6 61  1  0
  6 62  1  0
  7 63  1  0
  7 64  1  0
  8 65  1  0
 11 66  1  0
 12 67  1  0
 13 68  1  0
 14 69  1  0
 17 70  1  0
 17 71  1  0
 17 72  1  0
 19 73  1  0
 20 74  1  0
 21 75  1  0
 23 76  1  0
 24 77  1  0
 24 78  1  0
 25 79  1  0
 25 80  1  0
 26 81  1  0
 26 82  1  0
 27 83  1  0
 27 84  1  0
 28 85  1  0
 28 86  1  0
 29 87  1  0
 29 88  1  0
 30 89  1  0
 30 90  1  0
 31 91  1  0
 31 92  1  0
 32 93  1  0
 32 94  1  0
 33 95  1  0
 33 96  1  0
 34 97  1  0
 37 98  1  0
 38 99  1  0
 39100  1  0
 40101  1  0
 43102  1  0
 43103  1  0
 43104  1  0
 45105  1  0
 46106  1  0
 47107  1  0
 48108  1  0
M  CHG  2  16   1  42   1
M  END
>  <UniqueID>  (1) 
1

>  <SMILES>  (1) 
CCN(CC)CCNc1c2ccccc2[n+](C)c2cccc(NCCCCCCCCCCNc3c4ccccc4[n+](C)c4ccccc34)c12

>  <Energy>  (1) 
164.61564505730456

>  <Genealogy>  (1) 
CCN(CC)CCNc1c2ccccc2[n+](C)c2cccc(NCCCCCCCCCCNc3c4ccccc4[n+](C)c4ccccc34)c12 (3D coordinates assigned)
CCN(CC)CCNc1c2ccccc2[n+](C)c2cccc(NCCCCCCCCCCNc3c4ccccc4[n+](C)c4ccccc34)c12 (optimized conformer: 164.61564505730456 kcal/mol)

>  <smiles>  (1) 
CCN(CC)CCNc1c2ccccc2[n+](C)c2cccc(NCCCCCCCCCCNc3c4ccccc4[n+](C)c4ccccc34)c12

>  <score_type>  (1) 
oracle

>  <origin>  (1) 
adg

>  <m_score__min__energy>  (1) 
-9.9900000000000002

>  <m_primary>  (1) 
energy

$$$$
1:0
     RDKit          3D

 54 56  0  0  0  0  0  0  0  0999 V2000
   -6.0430   25.3870  -30.2220 C   0  0  0  0  0  0  0  0  0  0  0  0
   -4.7470   24.7030  -29.7630 C   0  0  0  0  0  0  0  0  0  0  0  0
   -4.8710   23.9290  -28.5040 N   0  0  2  0  0  0  0  0  0  0  0  0
   -4.1020   24.5420  -27.4020 C   0  0  0  0  0  0  0  0  0  0  0  0
   -4.5140   22.5020  -28.6910 C   0  0  0  0  0  0  0  0  0  0  0  0
   -3.8480   22.2800  -29.9860 C   0  0  0  0  0  0  0  0  0  0  0  0
   -3.3060   22.1060  -31.0470 C   0  0  0  0  0  0  0  0  0  0  0  0
   -2.6400   21.8860  -32.3360 C   0  0  0  0  0  0  0  0  0  0  0  0
   -2.5570   20.3900  -32.6780 C   0  0  0  0  0  0  0  0  0  0  0  0
   -3.8610   19.6160  -32.3960 C   0  0  0  0  0  0  0  0  0  0  0  0
   -4.9320   19.7760  -33.4890 C   0  0  0  0  0  0  0  0  0  0  0  0
   -6.3360   19.6290  -32.9400 C   0  0  0  0  0  0  0  0  0  0  0  0
   -6.9350   18.3860  -32.6620 C   0  0  0  0  0  0  0  0  0  0  0  0
   -6.3710   17.0500  -32.9240 C   0  0  0  0  0  0  0  0  0  0  0  0
   -5.3750   16.5350  -32.0780 C   0  0  0  0  0  0  0  0  0  0  0  0
   -4.8390   15.2650  -32.3130 C   0  0  0  0  0  0  0  0  0  0  0  0
   -5.3020   14.4970  -33.3860 C   0  0  0  0  0  0  0  0  0  0  0  0
   -6.3070   14.9960  -34.2190 C   0  0  0  0  0  0  0  0  0  0  0  0
   -6.8450   16.2660  -33.9860 C   0  0  0  0  0  0  0  0  0  0  0  0
   -8.4240   18.6300  -31.9010 S   0  0  0  0  0  0  0  0  0  0  0  0
   -8.3410   20.3010  -31.9320 C   0  0  0  0  0  0  0  0  0  0  0  0
   -9.2790   21.2040  -31.4390 C   0  0  0  0  0  0  0  0  0  0  0  0
   -9.0030   22.5740  -31.5470 C   0  0  0  0  0  0  0  0  0  0  0  0
   -7.8050   23.0100  -32.1400 C   0  0  0  0  0  0  0  0  0  0  0  0
   -6.8720   22.0820  -32.6300 C   0  0  0  0  0  0  0  0  0  0  0  0
   -7.1500   20.7080  -32.5230 C   0  0  0  0  0  0  0  0  0  0  0  0
   -6.6266   25.6950  -29.3419 H   0  0  0  0  0  0  0  0  0  0  0  0
   -5.7962   26.2723  -30.8264 H   0  0  0  0  0  0  0  0  0  0  0  0
   -6.6346   24.6837  -30.8264 H   0  0  0  0  0  0  0  0  0  0  0  0
   -4.4214   24.0158  -30.5578 H   0  0  0  0  0  0  0  0  0  0  0  0
   -4.0228   25.5070  -29.5652 H   0  0  0  0  0  0  0  0  0  0  0  0
   -5.8840   23.9780  -28.2360 H   0  0  0  0  0  0  0  0  0  0  0  0
   -4.5162   24.2119  -26.4379 H   0  0  0  0  0  0  0  0  0  0  0  0
   -3.0487   24.2330  -27.4737 H   0  0  0  0  0  0  0  0  0  0  0  0
   -4.1684   25.6377  -27.4737 H   0  0  0  0  0  0  0  0  0  0  0  0
   -3.8353   22.1939  -27.8820 H   0  0  0  0  0  0  0  0  0  0  0  0
   -5.4397   21.9080  -28.6714 H   0  0  0  0  0  0  0  0  0  0  0  0
   -3.2075   22.4021  -33.1244 H   0  0  0  0  0  0  0  0  0  0  0  0
   -1.6161   22.2822  -32.2679 H   0  0  0  0  0  0  0  0  0  0  0  0
   -2.3187   20.2910  -33.7473 H   0  0  0  0  0  0  0  0  0  0  0  0
   -1.7794   19.9555  -32.0326 H   0  0  0  0  0  0  0  0  0  0  0  0
   -3.6163   18.5474  -32.3051 H   0  0  0  0  0  0  0  0  0  0  0  0
   -4.2853   20.0333  -31.4709 H   0  0  0  0  0  0  0  0  0  0  0  0
   -4.8309   20.7739  -33.9407 H   0  0  0  0  0  0  0  0  0  0  0  0
   -4.7757   18.9818  -34.2338 H   0  0  0  0  0  0  0  0  0  0  0  0
   -5.0154   17.1329  -31.2276 H   0  0  0  0  0  0  0  0  0  0  0  0
   -4.0525   14.8698  -31.6533 H   0  0  0  0  0  0  0  0  0  0  0  0
   -4.8754   13.5007  -33.5742 H   0  0  0  0  0  0  0  0  0  0  0  0
   -6.6756   14.3892  -35.0592 H   0  0  0  0  0  0  0  0  0  0  0  0
   -7.6427   16.6513  -34.6381 H   0  0  0  0  0  0  0  0  0  0  0  0
  -10.2127   20.8514  -30.9766 H   0  0  0  0  0  0  0  0  0  0  0  0
   -9.7261   23.3105  -31.1666 H   0  0  0  0  0  0  0  0  0  0  0  0
   -7.5969   24.0871  -32.2208 H   0  0  0  0  0  0  0  0  0  0  0  0
   -5.9349   22.4259  -33.0920 H   0  0  0  0  0  0  0  0  0  0  0  0
  1  2  1  0
  2  3  1  0
  3  4  1  0
  3  5  1  0
  5  6  1  0
  6  7  3  0
  7  8  1  0
  8  9  1  0
  9 10  1  0
 10 11  1  0
 11 12  1  0
 12 13  2  0
 13 14  1  0
 14 15  2  0
 15 16  1  0
 16 17  2  0
 17 18  1  0
 18 19  2  0
 13 20  1  0
 20 21  1  0
 21 22  2  0
 22 23  1  0
 23 24  2  0
 24 25  1  0
 25 26  2  0
 26 12  1  0
 19 14  1  0
 26 21  1  0
  1 27  1  0
  1 28  1  0
  1 29  1  0
  2 30  1  0
  2 31  1  0
  3 32  1  1
  4 33  1  0
  4 34  1  0
  4 35  1  0
  5 36  1  0
  5 37  1  0
  8 38  1  0
  8 39  1  0
  9 40  1  0
  9 41  1  0
 10 42  1  0
 10 43  1  0
 11 44  1  0
 11 45  1  0
 15 46  1  0
 16 47  1  0
 17 48  1  0
 18 49  1  0
 19 50  1  0
 22 51  1  0
 23 52  1  0
 24 53  1  0
 25 54  1  0
M  CHG  1   3   1
M  END
>  <UniqueID>  (2) 
2

>  <SMILES>  (2) 
CC[N@H+](C)CC#CCCCCc1c(-c2ccccc2)sc2ccccc12

>  <Energy>  (2) 
85.15615507843744

>  <Genealogy>  (2) 
CC[NH+](C)CC#CCCCCc1c(-c2ccccc2)sc2ccccc12 (protonated)
CC[N@H+](C)CC#CCCCCc1c(-c2ccccc2)sc2ccccc12 (chirality)
CC[N@H+](C)CC#CCCCCc1c(-c2ccccc2)sc2ccccc12 (3D coordinates assigned)
CC[N@H+](C)CC#CCCCCc1c(-c2ccccc2)sc2ccccc12 (optimized conformer: 85.15615507843744 kcal/mol)

>  <smiles>  (2) 
CCN(C)CC#CCCCCc1c(-c2ccccc2)sc2ccccc12

>  <score_type>  (2) 
oracle

>  <origin>  (2) 
adg

>  <m_score__min__energy>  (2) 
-7.9699999999999998

>  <m_primary>  (2) 
energy

$$$$
2:0
     RDKit          3D

 51 53  0  0  0  0  0  0  0  0999 V2000
    0.2290   21.1390  -36.2000 C   0  0  0  0  0  0  0  0  0  0  0  0
    0.0760   21.5730  -34.7330 C   0  0  0  0  0  0  0  0  0  0  0  0
   -1.0040   20.8770  -33.9830 N   0  0  0  0  0  0  0  0  0  0  0  0
   -1.0800   19.4190  -34.2360 C   0  0  0  0  0  0  0  0  0  0  0  0
   -1.1820   18.6060  -32.9430 C   0  0  0  0  0  0  0  0  0  0  0  0
   -0.9670   21.1700  -32.5300 C   0  0  0  0  0  0  0  0  0  0  0  0
   -2.3540   21.5670  -32.0000 C   0  0  0  0  0  0  0  0  0  0  0  0
   -3.4130   21.3500  -32.9930 N   0  0  0  0  0  0  0  0  0  0  0  0
   -4.7990   21.2110  -32.6360 C   0  0  0  0  0  0  0  0  0  0  0  0
   -5.5030   20.0710  -33.0210 C   0  0  0  0  0  0  0  0  0  0  0  0
   -6.7730   19.8230  -32.5660 C   0  0  0  0  0  0  0  0  0  0  0  0
   -7.4230   20.6940  -31.7310 N   0  0  0  0  0  0  0  0  0  0  0  0
   -8.7780   20.3770  -31.2400 C   0  0  0  0  0  0  0  0  0  0  0  0
   -6.8020   21.8840  -31.3850 C   0  0  0  0  0  0  0  0  0  0  0  0
   -7.4500   22.8510  -30.5790 C   0  0  0  0  0  0  0  0  0  0  0  0
   -6.8350   24.0670  -30.2800 C   0  0  0  0  0  0  0  0  0  0  0  0
   -5.5720   24.3660  -30.7900 C   0  0  0  0  0  0  0  0  0  0  0  0
   -4.9670   25.6330  -30.5130 N   0  0  0  0  0  0  0  0  0  0  0  0
   -4.9060   23.4280  -31.5830 C   0  0  0  0  0  0  0  0  0  0  0  0
   -5.4820   22.1720  -31.8560 C   0  0  0  0  0  0  0  0  0  0  0  0
   -7.2920   18.5070  -33.0810 C   0  0  0  0  0  0  0  0  0  0  0  0
   -6.1620   17.9510  -33.9720 C   0  0  0  0  0  0  0  0  0  0  0  0
   -5.0870   18.9760  -33.8720 C   0  0  0  0  0  0  0  0  0  0  0  0
   -3.9830   18.9010  -34.4720 O   0  0  0  0  0  0  0  0  0  0  0  0
    0.5945   20.1022  -36.2394 H   0  0  0  0  0  0  0  0  0  0  0  0
   -0.7461   21.2035  -36.7051 H   0  0  0  0  0  0  0  0  0  0  0  0
    0.9480   21.8007  -36.7051 H   0  0  0  0  0  0  0  0  0  0  0  0
    1.0287   21.3795  -34.2183 H   0  0  0  0  0  0  0  0  0  0  0  0
   -0.1996   22.6377  -34.7535 H   0  0  0  0  0  0  0  0  0  0  0  0
   -1.9670   19.2135  -34.8532 H   0  0  0  0  0  0  0  0  0  0  0  0
   -0.1538   19.1191  -34.7481 H   0  0  0  0  0  0  0  0  0  0  0  0
   -1.0974   19.2805  -32.0782 H   0  0  0  0  0  0  0  0  0  0  0  0
   -2.1521   18.0885  -32.9108 H   0  0  0  0  0  0  0  0  0  0  0  0
   -0.3698   17.8649  -32.9108 H   0  0  0  0  0  0  0  0  0  0  0  0
   -0.6223   20.2738  -31.9933 H   0  0  0  0  0  0  0  0  0  0  0  0
   -0.2802   22.0133  -32.3653 H   0  0  0  0  0  0  0  0  0  0  0  0
   -2.5773   20.9644  -31.1073 H   0  0  0  0  0  0  0  0  0  0  0  0
   -2.3292   22.6411  -31.7638 H   0  0  0  0  0  0  0  0  0  0  0  0
   -3.1260   21.1170  -33.9690 H   0  0  0  0  0  0  0  0  0  0  0  0
   -8.7787   20.3768  -30.1400 H   0  0  0  0  0  0  0  0  0  0  0  0
   -9.4873   21.1335  -31.6070 H   0  0  0  0  0  0  0  0  0  0  0  0
   -9.0781   19.3844  -31.6070 H   0  0  0  0  0  0  0  0  0  0  0  0
   -8.4541   22.6402  -30.1823 H   0  0  0  0  0  0  0  0  0  0  0  0
   -7.3504   24.7956  -29.6369 H   0  0  0  0  0  0  0  0  0  0  0  0
   -4.6940   26.2770  -31.2880 H   0  0  0  0  0  0  0  0  0  0  0  0
   -4.7860   25.9350  -29.5290 H   0  0  0  0  0  0  0  0  0  0  0  0
   -3.9182   23.6738  -31.9999 H   0  0  0  0  0  0  0  0  0  0  0  0
   -7.4995   17.8205  -32.2469 H   0  0  0  0  0  0  0  0  0  0  0  0
   -8.2347   18.6241  -33.6356 H   0  0  0  0  0  0  0  0  0  0  0  0
   -5.8110   16.9784  -33.5968 H   0  0  0  0  0  0  0  0  0  0  0  0
   -6.4867   17.7778  -35.0086 H   0  0  0  0  0  0  0  0  0  0  0  0
  1  2  1  0
  2  3  1  0
  3  4  1  0
  4  5  1  0
  3  6  1  0
  6  7  1  0
  7  8  1  0
  8  9  1  0
  9 10  2  0
 10 11  1  0
 11 12  2  0
 12 13  1  0
 12 14  1  0
 14 15  2  0
 15 16  1  0
 16 17  2  0
 17 18  1  0
 17 19  1  0
 19 20  2  0
 11 21  1  0
 21 22  1  0
 22 23  1  0
 23 24  2  0
 20  9  1  0
 23 10  1  0
 20 14  1  0
  1 25  1  0
  1 26  1  0
  1 27  1  0
  2 28  1  0
  2 29  1  0
  4 30  1  0
  4 31  1  0
  5 32  1  0
  5 33  1  0
  5 34  1  0
  6 35  1  0
  6 36  1  0
  7 37  1  0
  7 38  1  0
  8 39  1  0
 13 40  1  0
 13 41  1  0
 13 42  1  0
 15 43  1  0
 16 44  1  0
 18 45  1  0
 18 46  1  0
 19 47  1  0
 21 48  1  0
 21 49  1  0
 22 50  1  0
 22 51  1  0
M  CHG  1  12   1
M  END
>  <UniqueID>  (3) 
3

>  <SMILES>  (3) 
CCN(CC)CCNc1c2c([n+](C)c3ccc(N)cc13)CCC2=O

>  <Energy>  (3) 
79.29340115972485

>  <Genealogy>  (3) 
CCN(CC)CCNc1c2c([n+](C)c3ccc(N)cc13)CCC2=O (3D coordinates assigned)
CCN(CC)CCNc1c2c([n+](C)c3ccc(N)cc13)CCC2=O (nonaromatic ring conformer: 79.29340115972485 kcal/mol)

>  <smiles>  (3) 
CCN(CC)CCNc1c2c([n+](C)c3ccc(N)cc13)CCC2=O

>  <score_type>  (3) 
oracle

>  <origin>  (3) 
adg

>  <m_score__min__energy>  (3) 
-8.2200000000000006

>  <m_primary>  (3) 
energy

$$$$
3:0
     RDKit          3D

 47 48  0  0  0  0  0  0  0  0999 V2000
   -2.8900   18.5340  -33.0920 C   0  0  0  0  0  0  0  0  0  0  0  0
   -3.4270   17.3600  -33.9080 C   0  0  0  0  0  0  0  0  0  0  0  0
   -4.6420   16.6850  -33.2340 C   0  0  0  0  0  0  0  0  0  0  0  0
   -5.9220   17.1220  -33.8420 N   0  0  0  0  0  0  0  0  0  0  0  0
   -5.7650   18.2980  -34.7430 C   0  0  0  0  0  0  0  0  0  0  0  0
   -6.3460   19.6120  -34.1810 C   0  0  0  0  0  0  0  0  0  0  0  0
   -6.1300   19.6980  -32.6630 C   0  0  0  0  0  0  0  0  0  0  0  0
   -6.6000   21.0310  -32.1050 C   0  0  0  0  0  0  0  0  0  0  0  0
   -7.9710   21.3390  -32.0180 C   0  0  0  0  0  0  0  0  0  0  0  0
   -8.3890   22.5650  -31.4920 C   0  0  0  0  0  0  0  0  0  0  0  0
   -7.4480   23.4920  -31.0410 C   0  0  0  0  0  0  0  0  0  0  0  0
   -6.0810   23.1970  -31.1120 C   0  0  0  0  0  0  0  0  0  0  0  0
   -4.8820   24.3460  -30.5240 S   0  0  0  0  0  0  0  0  0  0  0  0
   -5.0500   25.6750  -31.2090 O   0  0  0  0  0  0  0  0  0  0  0  0
   -3.5090   23.8130  -30.8290 O   0  0  0  0  0  0  0  0  0  0  0  0
   -5.0470   24.5560  -28.8060 N   0  0  0  0  0  0  0  0  0  0  0  0
   -4.2030   23.5840  -28.1050 C   0  0  0  0  0  0  0  0  0  0  0  0
   -3.2340   24.3080  -27.1770 C   0  0  0  0  0  0  0  0  0  0  0  0
   -5.6610   21.9710  -31.6430 C   0  0  0  0  0  0  0  0  0  0  0  0
   -6.8020   18.5110  -31.9350 C   0  0  0  0  0  0  0  0  0  0  0  0
   -7.0140   17.2930  -32.8560 C   0  0  0  0  0  0  0  0  0  0  0  0
   -2.9916   18.3120  -32.0194 H   0  0  0  0  0  0  0  0  0  0  0  0
   -1.8291   18.6942  -33.3344 H   0  0  0  0  0  0  0  0  0  0  0  0
   -3.4626   19.4414  -33.3344 H   0  0  0  0  0  0  0  0  0  0  0  0
   -3.7313   17.7278  -34.8990 H   0  0  0  0  0  0  0  0  0  0  0  0
   -2.6260   16.6102  -33.9864 H   0  0  0  0  0  0  0  0  0  0  0  0
   -4.5497   15.5944  -33.3437 H   0  0  0  0  0  0  0  0  0  0  0  0
   -4.6502   16.9763  -32.1733 H   0  0  0  0  0  0  0  0  0  0  0  0
   -4.6913   18.4482  -34.9291 H   0  0  0  0  0  0  0  0  0  0  0  0
   -6.3306   18.0704  -35.6586 H   0  0  0  0  0  0  0  0  0  0  0  0
   -5.8460   20.4637  -34.6653 H   0  0  0  0  0  0  0  0  0  0  0  0
   -7.4266   19.6358  -34.3855 H   0  0  0  0  0  0  0  0  0  0  0  0
   -5.0475   19.6325  -32.4789 H   0  0  0  0  0  0  0  0  0  0  0  0
   -8.7180   20.6104  -32.3661 H   0  0  0  0  0  0  0  0  0  0  0  0
   -9.4621   22.7997  -31.4334 H   0  0  0  0  0  0  0  0  0  0  0  0
   -7.7809   24.4561  -30.6290 H   0  0  0  0  0  0  0  0  0  0  0  0
   -6.0460   24.3470  -28.5740 H   0  0  0  0  0  0  0  0  0  0  0  0
   -4.8390   22.9094  -27.5130 H   0  0  0  0  0  0  0  0  0  0  0  0
   -3.6302   23.0042  -28.8438 H   0  0  0  0  0  0  0  0  0  0  0  0
   -3.5067   24.1043  -26.1310 H   0  0  0  0  0  0  0  0  0  0  0  0
   -2.2105   23.9516  -27.3652 H   0  0  0  0  0  0  0  0  0  0  0  0
   -3.2857   25.3905  -27.3652 H   0  0  0  0  0  0  0  0  0  0  0  0
   -4.5868   21.7410  -31.6993 H   0  0  0  0  0  0  0  0  0  0  0  0
   -6.1638   18.2081  -31.0918 H   0  0  0  0  0  0  0  0  0  0  0  0
   -7.7925   18.8471  -31.5943 H   0  0  0  0  0  0  0  0  0  0  0  0
   -7.0707   16.3876  -32.2339 H   0  0  0  0  0  0  0  0  0  0  0  0
   -7.9445   17.4608  -33.4181 H   0  0  0  0  0  0  0  0  0  0  0  0
  1  2  1  0
  2  3  1  0
  3  4  1  0
  4  5  1  0
  5  6  1  0
  6  7  1  0
  7  8  1  0
  8  9  2  0
  9 10  1  0
 10 11  2  0
 11 12  1  0
 12 13  1  0
 13 14  2  0
 13 15  2  0
 13 16  1  0
 16 17  1  0
 17 18  1  0
 12 19  2  0
  7 20  1  0
 20 21  1  0
 21  4  1  0
 19  8  1  0
  1 22  1  0
  1 23  1  0
  1 24  1  0
  2 25  1  0
  2 26  1  0
  3 27  1  0
  3 28  1  0
  5 29  1  0
  5 30  1  0
  6 31  1  0
  6 32  1  0
  7 33  1  0
  9 34  1  0
 10 35  1  0
 11 36  1  0
 16 37  1  0
 17 38  1  0
 17 39  1  0
 18 40  1  0
 18 41  1  0
 18 42  1  0
 19 43  1  0
 20 44  1  0
 20 45  1  0
 21 46  1  0
 21 47  1  0
M  END
>  <UniqueID>  (4) 
4

>  <SMILES>  (4) 
CCCN1CCC(c2cccc(S(=O)(=O)NCC)c2)CC1

>  <Energy>  (4) 
49.99626673511023

>  <Genealogy>  (4) 
CCCN1CCC(c2cccc(S(=O)(=O)NCC)c2)CC1 (3D coordinates assigned)
CCCN1CCC(c2cccc(S(=O)(=O)NCC)c2)CC1 (nonaromatic ring conformer: 49.99626673511023 kcal/mol)

>  <smiles>  (4) 
CCCN1CCC(c2cccc(S(=O)(=O)NCC)c2)CC1

>  <score_type>  (4) 
oracle

>  <origin>  (4) 
adg

>  <m_score__min__energy>  (4) 
-8.9800000000000004

>  <m_primary>  (4) 
energy

$$$$
4:0
     RDKit          3D

 62 65  0  0  0  0  0  0  0  0999 V2000
   -3.8100   24.3970  -29.9890 C   0  0  0  0  0  0  0  0  0  0  0  0
   -4.8310   24.9740  -30.8800 N   0  0  0  0  0  0  0  0  0  0  0  0
   -5.7380   25.8290  -30.0980 C   0  0  0  0  0  0  0  0  0  0  0  0
   -5.5850   23.9150  -31.5830 C   0  0  0  0  0  0  0  0  0  0  0  0
   -4.6970   22.6870  -31.8290 C   0  0  0  0  0  0  0  0  0  0  0  0
   -5.0590   22.0020  -33.0890 N   0  0  0  0  0  0  0  0  0  0  0  0
   -5.1920   20.5620  -32.9000 C   0  0  0  0  0  0  0  0  0  0  0  0
   -6.4680   20.0210  -32.5510 C   0  0  0  0  0  0  0  0  0  0  0  0
   -7.6030   20.8500  -32.3370 C   0  0  0  0  0  0  0  0  0  0  0  0
   -8.8420   20.3130  -31.9980 C   0  0  0  0  0  0  0  0  0  0  0  0
   -8.9970   18.9420  -31.8800 C   0  0  0  0  0  0  0  0  0  0  0  0
   -7.9130   18.1000  -32.1020 C   0  0  0  0  0  0  0  0  0  0  0  0
   -6.6300   18.6150  -32.4260 C   0  0  0  0  0  0  0  0  0  0  0  0
   -5.5700   17.7720  -32.6660 N   0  0  0  0  0  0  0  0  0  0  0  0
   -5.6620   16.3400  -32.2930 C   0  0  0  0  0  0  0  0  0  0  0  0
   -4.4170   18.2550  -33.2420 C   0  0  0  0  0  0  0  0  0  0  0  0
   -3.5190   17.3730  -33.8860 C   0  0  0  0  0  0  0  0  0  0  0  0
   -2.3130   17.8220  -34.3960 C   0  0  0  0  0  0  0  0  0  0  0  0
   -1.9380   19.1390  -34.2150 C   0  0  0  0  0  0  0  0  0  0  0  0
   -2.7950   20.0580  -33.5950 C   0  0  0  0  0  0  0  0  0  0  0  0
   -2.2180   21.3040  -33.1700 N   0  0  0  0  0  0  0  0  0  0  0  0
   -1.7530   21.5550  -31.8030 C   0  0  0  0  0  0  0  0  0  0  0  0
   -1.0430   20.3220  -31.2340 C   0  0  0  0  0  0  0  0  0  0  0  0
   -1.3450   20.1510  -29.8080 N   0  0  0  0  0  0  0  0  0  0  0  0
   -2.4220   20.7970  -29.2640 C   0  0  0  0  0  0  0  0  0  0  0  0
   -2.7040   20.6790  -27.9010 C   0  0  0  0  0  0  0  0  0  0  0  0
   -1.8750   19.9020  -27.0940 C   0  0  0  0  0  0  0  0  0  0  0  0
   -0.7770   19.2520  -27.6560 C   0  0  0  0  0  0  0  0  0  0  0  0
   -0.5240   19.3880  -29.0230 C   0  0  0  0  0  0  0  0  0  0  0  0
   -4.1240   19.6540  -33.2220 C   0  0  0  0  0  0  0  0  0  0  0  0
   -4.1020   24.5620  -28.9414 H   0  0  0  0  0  0  0  0  0  0  0  0
   -3.7246   23.3171  -30.1801 H   0  0  0  0  0  0  0  0  0  0  0  0
   -2.8408   24.8809  -30.1801 H   0  0  0  0  0  0  0  0  0  0  0  0
   -5.5630   25.6640  -29.0246 H   0  0  0  0  0  0  0  0  0  0  0  0
   -5.5485   26.8846  -30.3424 H   0  0  0  0  0  0  0  0  0  0  0  0
   -6.7806   25.5775  -30.3424 H   0  0  0  0  0  0  0  0  0  0  0  0
   -6.4485   23.6188  -30.9693 H   0  0  0  0  0  0  0  0  0  0  0  0
   -5.9225   24.3069  -32.5538 H   0  0  0  0  0  0  0  0  0  0  0  0
   -3.6472   23.0104  -31.8865 H   0  0  0  0  0  0  0  0  0  0  0  0
   -4.8437   21.9819  -30.9975 H   0  0  0  0  0  0  0  0  0  0  0  0
   -4.3920   22.2390  -33.8480 H   0  0  0  0  0  0  0  0  0  0  0  0
   -5.9550   22.3880  -33.4610 H   0  0  0  0  0  0  0  0  0  0  0  0
   -7.4999   21.9402  -32.4416 H   0  0  0  0  0  0  0  0  0  0  0  0
   -9.6997   20.9793  -31.8235 H   0  0  0  0  0  0  0  0  0  0  0  0
   -9.9764   18.5196  -31.6110 H   0  0  0  0  0  0  0  0  0  0  0  0
   -8.0523   17.0116  -32.0250 H   0  0  0  0  0  0  0  0  0  0  0  0
   -5.6680   16.2462  -31.1970 H   0  0  0  0  0  0  0  0  0  0  0  0
   -6.5894   15.9133  -32.7026 H   0  0  0  0  0  0  0  0  0  0  0  0
   -4.7968   15.7981  -32.7026 H   0  0  0  0  0  0  0  0  0  0  0  0
   -3.7837   16.3098  -33.9836 H   0  0  0  0  0  0  0  0  0  0  0  0
   -1.6549   17.1317  -34.9441 H   0  0  0  0  0  0  0  0  0  0  0  0
   -0.9494   19.4722  -34.5637 H   0  0  0  0  0  0  0  0  0  0  0  0
   -2.1790   22.0890  -33.8530 H   0  0  0  0  0  0  0  0  0  0  0  0
   -1.0524   22.4030  -31.8105 H   0  0  0  0  0  0  0  0  0  0  0  0
   -2.6239   21.7830  -31.1709 H   0  0  0  0  0  0  0  0  0  0  0  0
   -1.3784   19.4292  -31.7821 H   0  0  0  0  0  0  0  0  0  0  0  0
    0.0424   20.4597  -31.3477 H   0  0  0  0  0  0  0  0  0  0  0  0
   -3.0700   21.4133  -29.9045 H   0  0  0  0  0  0  0  0  0  0  0  0
   -3.5735   21.1953  -27.4681 H   0  0  0  0  0  0  0  0  0  0  0  0
   -2.0859   19.8020  -26.0190 H   0  0  0  0  0  0  0  0  0  0  0  0
   -0.1154   18.6372  -27.0281 H   0  0  0  0  0  0  0  0  0  0  0  0
    0.3413   18.8781  -29.4716 H   0  0  0  0  0  0  0  0  0  0  0  0
  1  2  1  0
  2  3  1  0
  2  4  1  0
  4  5  1  0
  5  6  1  0
  6  7  1  0
  7  8  2  0
  8  9  1  0
  9 10  2  0
 10 11  1  0
 11 12  2  0
 12 13  1  0
 13 14  2  0
 14 15  1  0
 14 16  1  0
 16 17  2  0
 17 18  1  0
 18 19  2  0
 19 20  1  0
 20 21  1  0
 21 22  1  0
 22 23  1  0
 23 24  1  0
 24 25  2  0
 25 26  1  0
 26 27  2  0
 27 28  1  0
 28 29  2  0
 20 30  2  0
 30  7  1  0
 13  8  1  0
 30 16  1  0
 29 24  1  0
  1 31  1  0
  1 32  1  0
  1 33  1  0
  3 34  1  0
  3 35  1  0
  3 36  1  0
  4 37  1  0
  4 38  1  0
  5 39  1  0
  5 40  1  0
  6 41  1  0
  6 42  1  0
  9 43  1  0
 10 44  1  0
 11 45  1  0
 12 46  1  0
 15 47  1  0
 15 48  1  0
 15 49  1  0
 17 50  1  0
 18 51  1  0
 19 52  1  0
 21 53  1  0
 22 54  1  0
 22 55  1  0
 23 56  1  0
 23 57  1  0
 25 58  1  0
 26 59  1  0
 27 60  1  0
 28 61  1  0
 29 62  1  0
M  CHG  3   6   1  14   1  24   1
M  END
>  <UniqueID>  (5) 
5

>  <SMILES>  (5) 
CN(C)CC[NH2+]c1c2ccccc2[n+](C)c2cccc(NCC[n+]3ccccc3)c12

>  <Energy>  (5) 
103.35720056189264

>  <Genealogy>  (5) 
CN(C)CC[NH2+]c1c2ccccc2[n+](C)c2cccc(NCC[n+]3ccccc3)c12 (protonated)
CN(C)CC[NH2+]c1c2ccccc2[n+](C)c2cccc(NCC[n+]3ccccc3)c12 (3D coordinates assigned)
CN(C)CC[NH2+]c1c2ccccc2[n+](C)c2cccc(NCC[n+]3ccccc3)c12 (optimized conformer: 103.35720056189264 kcal/mol)

>  <smiles>  (5) 
CN(C)CCNc1c2ccccc2[n+](C)c2cccc(NCC[n+]3ccccc3)c12

>  <score_type>  (5) 
oracle

>  <origin>  (5) 
adg

>  <m_score__min__energy>  (5) 
-8.0299999999999994

>  <m_primary>  (5) 
energy

$$$$
5:0
     RDKit          3D

 67 70  0  0  0  0  0  0  0  0999 V2000
   -6.6410   24.9400  -30.1520 C   0  0  0  0  0  0  0  0  0  0  0  0
   -5.3850   25.7690  -30.4640 C   0  0  0  0  0  0  0  0  0  0  0  0
   -4.2450   24.9430  -30.8880 N   0  0  0  0  0  0  0  0  0  0  0  0
   -3.3910   24.5690  -29.7470 C   0  0  0  0  0  0  0  0  0  0  0  0
   -4.1030   23.5530  -28.8380 C   0  0  0  0  0  0  0  0  0  0  0  0
   -4.6470   22.3020  -29.5660 C   0  0  0  0  0  0  0  0  0  0  0  0
   -4.8630   22.4690  -31.0300 N   0  0  0  0  0  0  0  0  0  0  0  0
   -5.3070   21.2360  -31.6830 C   0  0  0  0  0  0  0  0  0  0  0  0
   -6.7060   20.9820  -31.8300 C   0  0  0  0  0  0  0  0  0  0  0  0
   -7.6880   21.8270  -31.2500 C   0  0  0  0  0  0  0  0  0  0  0  0
   -9.0500   21.5890  -31.4150 C   0  0  0  0  0  0  0  0  0  0  0  0
   -9.4780   20.5220  -32.1930 C   0  0  0  0  0  0  0  0  0  0  0  0
   -8.5480   19.6750  -32.7790 C   0  0  0  0  0  0  0  0  0  0  0  0
   -7.1490   19.8640  -32.5900 C   0  0  0  0  0  0  0  0  0  0  0  0
   -6.2330   19.0180  -33.1740 N   0  0  0  0  0  0  0  0  0  0  0  0
   -6.6730   17.7140  -33.7110 C   0  0  0  0  0  0  0  0  0  0  0  0
   -4.8980   19.3600  -33.2140 C   0  0  0  0  0  0  0  0  0  0  0  0
   -4.0240   18.7330  -34.1340 C   0  0  0  0  0  0  0  0  0  0  0  0
   -2.6610   18.9940  -34.1220 C   0  0  0  0  0  0  0  0  0  0  0  0
   -2.1290   19.8190  -33.1510 C   0  0  0  0  0  0  0  0  0  0  0  0
   -2.9570   20.4680  -32.2210 C   0  0  0  0  0  0  0  0  0  0  0  0
   -2.3370   21.0190  -31.0510 N   0  0  0  0  0  0  0  0  0  0  0  0
   -1.0180   21.6600  -31.0660 C   0  0  0  0  0  0  0  0  0  0  0  0
   -0.4600   21.9110  -29.6480 C   0  0  0  0  0  0  0  0  0  0  0  0
   -1.3180   21.5060  -28.5110 N   0  0  0  0  0  0  0  0  0  0  0  0
   -1.0930   22.2240  -27.2510 C   0  0  0  0  0  0  0  0  0  0  0  0
   -1.2930   21.2220  -26.1190 C   0  0  0  0  0  0  0  0  0  0  0  0
   -1.8970   19.9960  -26.7760 C   0  0  0  0  0  0  0  0  0  0  0  0
   -1.4400   20.0750  -28.2180 C   0  0  0  0  0  0  0  0  0  0  0  0
   -4.3800   20.3620  -32.3400 C   0  0  0  0  0  0  0  0  0  0  0  0
   -6.7649   24.8582  -29.0621 H   0  0  0  0  0  0  0  0  0  0  0  0
   -7.5233   25.4338  -30.5853 H   0  0  0  0  0  0  0  0  0  0  0  0
   -6.5338   23.9346  -30.5853 H   0  0  0  0  0  0  0  0  0  0  0  0
   -5.6238   26.4780  -31.2704 H   0  0  0  0  0  0  0  0  0  0  0  0
   -5.0920   26.2856  -29.5381 H   0  0  0  0  0  0  0  0  0  0  0  0
   -3.6700   25.4840  -31.5830 H   0  0  0  0  0  0  0  0  0  0  0  0
   -2.4595   24.1228  -30.1254 H   0  0  0  0  0  0  0  0  0  0  0  0
   -3.1731   25.4734  -29.1599 H   0  0  0  0  0  0  0  0  0  0  0  0
   -3.3878   23.2192  -28.0718 H   0  0  0  0  0  0  0  0  0  0  0  0
   -4.9774   24.0721  -28.4185 H   0  0  0  0  0  0  0  0  0  0  0  0
   -3.9285   21.4822  -29.4186 H   0  0  0  0  0  0  0  0  0  0  0  0
   -5.6367   22.0995  -29.1307 H   0  0  0  0  0  0  0  0  0  0  0  0
   -3.9900   22.8340  -31.4700 H   0  0  0  0  0  0  0  0  0  0  0  0
   -5.5440   23.2290  -31.2510 H   0  0  0  0  0  0  0  0  0  0  0  0
   -7.3644   22.6932  -30.6541 H   0  0  0  0  0  0  0  0  0  0  0  0
   -9.7863   22.2461  -30.9291 H   0  0  0  0  0  0  0  0  0  0  0  0
  -10.5535   20.3480  -32.3449 H   0  0  0  0  0  0  0  0  0  0  0  0
   -8.8988   18.8397  -33.4029 H   0  0  0  0  0  0  0  0  0  0  0  0
   -6.9027   17.0331  -32.8781 H   0  0  0  0  0  0  0  0  0  0  0  0
   -7.5730   17.8561  -34.3274 H   0  0  0  0  0  0  0  0  0  0  0  0
   -5.8709   17.2818  -34.3274 H   0  0  0  0  0  0  0  0  0  0  0  0
   -4.4323   18.0264  -34.8715 H   0  0  0  0  0  0  0  0  0  0  0  0
   -2.0066   18.5450  -34.8837 H   0  0  0  0  0  0  0  0  0  0  0  0
   -1.0404   19.9701  -33.1053 H   0  0  0  0  0  0  0  0  0  0  0  0
   -2.8240   20.8890  -30.1370 H   0  0  0  0  0  0  0  0  0  0  0  0
   -0.3171   21.0096  -31.6098 H   0  0  0  0  0  0  0  0  0  0  0  0
   -1.1300   22.6382  -31.5564 H   0  0  0  0  0  0  0  0  0  0  0  0
    0.4885   21.3607  -29.5615 H   0  0  0  0  0  0  0  0  0  0  0  0
   -0.3685   23.0040  -29.5642 H   0  0  0  0  0  0  0  0  0  0  0  0
   -0.0689   22.6246  -27.2232 H   0  0  0  0  0  0  0  0  0  0  0  0
   -1.7910   23.0685  -27.1528 H   0  0  0  0  0  0  0  0  0  0  0  0
   -0.3299   20.9731  -25.6494 H   0  0  0  0  0  0  0  0  0  0  0  0
   -1.9390   21.6230  -25.3241 H   0  0  0  0  0  0  0  0  0  0  0  0
   -1.5251   19.0767  -26.3000 H   0  0  0  0  0  0  0  0  0  0  0  0
   -2.9929   19.9697  -26.6852 H   0  0  0  0  0  0  0  0  0  0  0  0
   -0.4692   19.5729  -28.3419 H   0  0  0  0  0  0  0  0  0  0  0  0
   -2.1467   19.5774  -28.8984 H   0  0  0  0  0  0  0  0  0  0  0  0
  1  2  1  0
  2  3  1  0
  3  4  1  0
  4  5  1  0
  5  6  1  0
  6  7  1  0
  7  8  1  0
  8  9  2  0
  9 10  1  0
 10 11  2  0
 11 12  1  0
 12 13  2  0
 13 14  1  0
 14 15  2  0
 15 16  1  0
 15 17  1  0
 17 18  2  0
 18 19  1  0
 19 20  2  0
 20 21  1  0
 21 22  1  0
 22 23  1  0
 23 24  1  0
 24 25  1  0
 25 26  1  0
 26 27  1  0
 27 28  1  0
 28 29  1  0
 21 30  2  0
 30  8  1  0
 14  9  1  0
 30 17  1  0
 29 25  1  0
  1 31  1  0
  1 32  1  0
  1 33  1  0
  2 34  1  0
  2 35  1  0
  3 36  1  0
  4 37  1  0
  4 38  1  0
  5 39  1  0
  5 40  1  0
  6 41  1  0
  6 42  1  0
  7 43  1  0
  7 44  1  0
 10 45  1  0
 11 46  1  0
 12 47  1  0
 13 48  1  0
 16 49  1  0
 16 50  1  0
 16 51  1  0
 18 52  1  0
 19 53  1  0
 20 54  1  0
 22 55  1  0
 23 56  1  0
 23 57  1  0
 24 58  1  0
 24 59  1  0
 26 60  1  0
 26 61  1  0
 27 62  1  0
 27 63  1  0
 28 64  1  0
 28 65  1  0
 29 66  1  0
 29 67  1  0
M  CHG  2   7   1  15   1
M  END
>  <UniqueID>  (6) 
6

>  <SMILES>  (6) 
CCNCCC[NH2+]c1c2ccccc2[n+](C)c2cccc(NCCN3CCCC3)c12

>  <Energy>  (6) 
118.06179447785571

>  <Genealogy>  (6) 
CCNCCC[NH2+]c1c2ccccc2[n+](C)c2cccc(NCCN3CCCC3)c12 (protonated)
CCNCCC[NH2+]c1c2ccccc2[n+](C)c2cccc(NCCN3CCCC3)c12 (3D coordinates assigned)
CCNCCC[NH2+]c1c2ccccc2[n+](C)c2cccc(NCCN3CCCC3)c12 (nonaromatic ring conformer: 118.06179447785571 kcal/mol)

>  <smiles>  (6) 
CCNCCCNc1c2ccccc2[n+](C)c2cccc(NCCN3CCCC3)c12

>  <score_type>  (6) 
oracle

>  <origin>  (6) 
adg

>  <m_score__min__energy>  (6) 
-9.0600000000000005

>  <m_primary>  (6) 
energy

$$$$
6:0
     RDKit          3D

 58 60  0  0  0  0  0  0  0  0999 V2000
   -6.2410   25.3560  -29.6780 C   0  0  0  0  0  0  0  0  0  0  0  0
   -5.2590   25.2620  -30.8440 C   0  0  0  0  0  0  0  0  0  0  0  0
   -3.8740   25.1860  -30.3530 N   0  0  0  0  0  0  0  0  0  0  0  0
   -3.3190   23.8220  -30.4300 C   0  0  0  0  0  0  0  0  0  0  0  0
   -2.3660   23.5900  -29.2630 C   0  0  0  0  0  0  0  0  0  0  0  0
   -2.0070   24.8330  -28.6960 O   0  0  0  0  0  0  0  0  0  0  0  0
   -2.4150   24.8740  -27.3440 C   0  0  0  0  0  0  0  0  0  0  0  0
   -1.7100   26.0430  -26.6210 C   0  0  0  0  0  0  0  0  0  0  0  0
   -0.7040   25.6870  -25.5580 N   0  0  1  0  0  0  0  0  0  0  0  0
   -0.8850   24.2580  -25.1120 C   0  0  0  0  0  0  0  0  0  0  0  0
   -0.1080   23.1800  -25.9110 C   0  0  0  0  0  0  0  0  0  0  0  0
    1.3210   23.5790  -26.3050 C   0  0  0  0  0  0  0  0  0  0  0  0
    1.7350   24.9030  -25.6820 C   0  0  0  0  0  0  0  0  0  0  0  0
    0.7030   25.9910  -26.0460 C   0  0  2  0  0  0  0  0  0  0  0  0
    1.2080   27.4000  -25.6270 C   0  0  0  0  0  0  0  0  0  0  0  0
    1.2120   27.6340  -24.1460 N   0  0  1  0  0  0  0  0  0  0  0  0
    2.5330   27.3770  -23.5360 C   0  0  0  0  0  0  0  0  0  0  0  0
    2.6470   28.3370  -22.3660 C   0  0  0  0  0  0  0  0  0  0  0  0
    1.6860   29.4100  -22.6030 N   0  0  0  0  0  0  0  0  0  0  0  0
    1.0240   29.0800  -23.8670 C   0  0  0  0  0  0  0  0  0  0  0  0
    0.1480   26.8370  -23.4550 C   0  0  0  0  0  0  0  0  0  0  0  0
   -1.0510   26.5610  -24.3790 C   0  0  0  0  0  0  0  0  0  0  0  0
   -5.6886   25.3031  -28.7282 H   0  0  0  0  0  0  0  0  0  0  0  0
   -6.7852   26.3103  -29.7330 H   0  0  0  0  0  0  0  0  0  0  0  0
   -6.9564   24.5222  -29.7330 H   0  0  0  0  0  0  0  0  0  0  0  0
   -5.4832   24.3605  -31.4331 H   0  0  0  0  0  0  0  0  0  0  0  0
   -5.3640   26.1617  -31.4681 H   0  0  0  0  0  0  0  0  0  0  0  0
   -3.8730   25.4840  -29.3470 H   0  0  0  0  0  0  0  0  0  0  0  0
   -4.1390   23.0902  -30.3839 H   0  0  0  0  0  0  0  0  0  0  0  0
   -2.7719   23.7036  -31.3769 H   0  0  0  0  0  0  0  0  0  0  0  0
   -2.8617   22.9691  -28.5022 H   0  0  0  0  0  0  0  0  0  0  0  0
   -1.4627   23.0758  -29.6230 H   0  0  0  0  0  0  0  0  0  0  0  0
   -3.5044   25.0181  -27.2953 H   0  0  0  0  0  0  0  0  0  0  0  0
   -2.1446   23.9272  -26.8537 H   0  0  0  0  0  0  0  0  0  0  0  0
   -1.1881   26.6382  -27.3848 H   0  0  0  0  0  0  0  0  0  0  0  0
   -2.5128   26.5720  -26.0866 H   0  0  0  0  0  0  0  0  0  0  0  0
   -0.5634   24.1923  -24.0621 H   0  0  0  0  0  0  0  0  0  0  0  0
   -1.9488   24.0335  -25.2789 H   0  0  0  0  0  0  0  0  0  0  0  0
   -0.0522   22.2706  -25.2946 H   0  0  0  0  0  0  0  0  0  0  0  0
   -0.6597   23.0325  -26.8512 H   0  0  0  0  0  0  0  0  0  0  0  0
    2.0146   22.7951  -25.9668 H   0  0  0  0  0  0  0  0  0  0  0  0
    1.3525   23.6935  -27.3986 H   0  0  0  0  0  0  0  0  0  0  0  0
    1.7821   24.7942  -24.5884 H   0  0  0  0  0  0  0  0  0  0  0  0
    2.7239   25.1942  -26.0658 H   0  0  0  0  0  0  0  0  0  0  0  0
    0.6128   25.9891  -27.1423 H   0  0  0  0  0  0  0  0  0  0  0  0
    2.2359   27.5231  -25.9989 H   0  0  0  0  0  0  0  0  0  0  0  0
    0.5085   28.1295  -26.0613 H   0  0  0  0  0  0  0  0  0  0  0  0
    2.5958   26.3366  -23.1844 H   0  0  0  0  0  0  0  0  0  0  0  0
    3.3473   27.5259  -24.2604 H   0  0  0  0  0  0  0  0  0  0  0  0
    2.4098   27.8175  -21.4259 H   0  0  0  0  0  0  0  0  0  0  0  0
    3.6689   28.7351  -22.2814 H   0  0  0  0  0  0  0  0  0  0  0  0
    0.9680   29.3900  -21.8400 H   0  0  0  0  0  0  0  0  0  0  0  0
   -0.0501   29.3046  -23.7908 H   0  0  0  0  0  0  0  0  0  0  0  0
    1.4597   29.6763  -24.6823 H   0  0  0  0  0  0  0  0  0  0  0  0
    0.5762   25.8769  -23.1312 H   0  0  0  0  0  0  0  0  0  0  0  0
   -0.2111   27.4204  -22.5944 H   0  0  0  0  0  0  0  0  0  0  0  0
   -1.8364   26.0615  -23.7928 H   0  0  0  0  0  0  0  0  0  0  0  0
   -1.3860   27.5299  -24.7779 H   0  0  0  0  0  0  0  0  0  0  0  0
  1  2  1  0
  2  3  1  0
  3  4  1  0
  4  5  1  0
  5  6  1  0
  6  7  1  0
  7  8  1  0
  9  8  1  6
  9 10  1  0
 10 11  1  0
 11 12  1  0
 12 13  1  0
 13 14  1  0
 14 15  1  0
 16 15  1  6
 16 17  1  0
 17 18  1  0
 18 19  1  0
 19 20  1  0
 16 21  1  0
 21 22  1  0
 14  9  1  0
 20 16  1  0
 22  9  1  0
  1 23  1  0
  1 24  1  0
  1 25  1  0
  2 26  1  0
  2 27  1  0
  3 28  1  0
  4 29  1  0
  4 30  1  0
  5 31  1  0
  5 32  1  0
  7 33  1  0
  7 34  1  0
  8 35  1  0
  8 36  1  0
 10 37  1  0
 10 38  1  0
 11 39  1  0
 11 40  1  0
 12 41  1  0
 12 42  1  0
 13 43  1  0
 13 44  1  0
 14 45  1  6
 15 46  1  0
 15 47  1  0
 17 48  1  0
 17 49  1  0
 18 50  1  0
 18 51  1  0
 19 52  1  0
 20 53  1  0
 20 54  1  0
 21 55  1  0
 21 56  1  0
 22 57  1  0
 22 58  1  0
M  CHG  2   9   1  16   1
M  END
>  <UniqueID>  (7) 
7

>  <SMILES>  (7) 
CCNCCOCC[N@@+]12CCCC[C@@H]1C[N+]1(CCNC1)CC2

>  <Energy>  (7) 
98.39103599371346

>  <Genealogy>  (7) 
CCNCCOCC[N@@+]12CCCC[C@@H]1C[N+]1(CCNC1)CC2 (chirality)
CCNCCOCC[N@@+]12CCCC[C@@H]1C[N+]1(CCNC1)CC2 (3D coordinates assigned)
CCNCCOCC[N@@+]12CCCC[C@@H]1C[N+]1(CCNC1)CC2 (nonaromatic ring conformer: 98.39103599371346 kcal/mol)

>  <smiles>  (7) 
CCNCCOCC[N+]12CCCCC1C[N+]1(CCNC1)CC2

>  <score_type>  (7) 
oracle

>  <origin>  (7) 
adg

>  <m_score__min__energy>  (7) 
-6.5199999999999996

>  <m_primary>  (7) 
energy

$$$$
7:0
     RDKit          3D

 49 51  0  0  0  0  0  0  0  0999 V2000
   -8.7220   21.9140  -30.4990 C   0  0  0  0  0  0  0  0  0  0  0  0
   -9.2840   21.8720  -31.9170 C   0  0  0  0  0  0  0  0  0  0  0  0
   -9.0890   20.5490  -32.5280 N   0  0  0  0  0  0  0  0  0  0  0  0
   -8.6350   19.5300  -31.5640 C   0  0  0  0  0  0  0  0  0  0  0  0
   -8.4930   18.1620  -32.2500 C   0  0  0  0  0  0  0  0  0  0  0  0
   -7.1780   17.9980  -33.0330 C   0  0  0  0  0  0  0  0  0  0  0  0
   -6.8410   19.1970  -33.8200 N   0  0  0  0  0  0  0  0  0  0  0  0
   -5.4360   19.5370  -33.6540 C   0  0  0  0  0  0  0  0  0  0  0  0
   -4.4220   18.6710  -34.1400 C   0  0  0  0  0  0  0  0  0  0  0  0
   -4.7310   17.5230  -34.9130 C   0  0  0  0  0  0  0  0  0  0  0  0
   -3.7390   16.6270  -35.2990 C   0  0  0  0  0  0  0  0  0  0  0  0
   -2.4220   16.8440  -34.9240 C   0  0  0  0  0  0  0  0  0  0  0  0
   -2.0790   17.9890  -34.2100 C   0  0  0  0  0  0  0  0  0  0  0  0
   -3.0580   18.9540  -33.8530 C   0  0  0  0  0  0  0  0  0  0  0  0
   -2.7060   20.1360  -33.2330 N   0  0  0  0  0  0  0  0  0  0  0  0
   -1.2870   20.5660  -33.2180 C   0  0  0  0  0  0  0  0  0  0  0  0
   -3.6760   20.9510  -32.6830 C   0  0  0  0  0  0  0  0  0  0  0  0
   -3.3320   22.0350  -31.8330 C   0  0  0  0  0  0  0  0  0  0  0  0
   -4.2980   22.9330  -31.3570 C   0  0  0  0  0  0  0  0  0  0  0  0
   -3.9270   24.0380  -30.5090 N   0  0  0  0  0  0  0  0  0  0  0  0
   -3.3240   23.8420  -29.4330 O   0  0  0  0  0  0  0  0  0  0  0  0
   -4.2290   25.3300  -30.8710 O   0  0  0  0  0  0  0  0  0  0  0  0
   -5.6300   22.7480  -31.7270 C   0  0  0  0  0  0  0  0  0  0  0  0
   -6.0050   21.6570  -32.5040 C   0  0  0  0  0  0  0  0  0  0  0  0
   -5.0520   20.7100  -32.9500 C   0  0  0  0  0  0  0  0  0  0  0  0
   -9.5480   21.8523  -29.7752 H   0  0  0  0  0  0  0  0  0  0  0  0
   -8.0395   21.0644  -30.3498 H   0  0  0  0  0  0  0  0  0  0  0  0
   -8.1733   22.8557  -30.3498 H   0  0  0  0  0  0  0  0  0  0  0  0
  -10.3604   22.0962  -31.8830 H   0  0  0  0  0  0  0  0  0  0  0  0
   -8.7510   22.6180  -32.5248 H   0  0  0  0  0  0  0  0  0  0  0  0
  -10.0150   20.2450  -32.9100 H   0  0  0  0  0  0  0  0  0  0  0  0
   -7.6604   19.8308  -31.1521 H   0  0  0  0  0  0  0  0  0  0  0  0
   -9.3794   19.4473  -30.7583 H   0  0  0  0  0  0  0  0  0  0  0  0
   -8.5378   17.3797  -31.4780 H   0  0  0  0  0  0  0  0  0  0  0  0
   -9.3138   18.0797  -32.9777 H   0  0  0  0  0  0  0  0  0  0  0  0
   -6.3637   17.8031  -32.3196 H   0  0  0  0  0  0  0  0  0  0  0  0
   -7.3071   17.1609  -33.7348 H   0  0  0  0  0  0  0  0  0  0  0  0
   -7.4550   19.9990  -33.5560 H   0  0  0  0  0  0  0  0  0  0  0  0
   -7.0670   19.0520  -34.8250 H   0  0  0  0  0  0  0  0  0  0  0  0
   -5.7730   17.3376  -35.2126 H   0  0  0  0  0  0  0  0  0  0  0  0
   -4.0000   15.7452  -35.9026 H   0  0  0  0  0  0  0  0  0  0  0  0
   -1.6470   16.1105  -35.1910 H   0  0  0  0  0  0  0  0  0  0  0  0
   -1.0309   18.1491  -33.9171 H   0  0  0  0  0  0  0  0  0  0  0  0
   -0.9462   20.6693  -32.1773 H   0  0  0  0  0  0  0  0  0  0  0  0
   -0.6706   19.8143  -33.7328 H   0  0  0  0  0  0  0  0  0  0  0  0
   -1.1916   21.5334  -33.7328 H   0  0  0  0  0  0  0  0  0  0  0  0
   -2.2808   22.1739  -31.5404 H   0  0  0  0  0  0  0  0  0  0  0  0
   -6.3914   23.4720  -31.4011 H   0  0  0  0  0  0  0  0  0  0  0  0
   -7.0626   21.5275  -32.7772 H   0  0  0  0  0  0  0  0  0  0  0  0
  1  2  1  0
  2  3  1  0
  3  4  1  0
  4  5  1  0
  5  6  1  0
  6  7  1  0
  7  8  1  0
  8  9  2  0
  9 10  1  0
 10 11  2  0
 11 12  1  0
 12 13  2  0
 13 14  1  0
 14 15  2  0
 15 16  1  0
 15 17  1  0
 17 18  2  0
 18 19  1  0
 19 20  1  0
 20 21  2  0
 20 22  1  0
 19 23  2  0
 23 24  1  0
 24 25  2  0
 25  8  1  0
 14  9  1  0
 25 17  1  0
  1 26  1  0
  1 27  1  0
  1 28  1  0
  2 29  1  0
  2 30  1  0
  3 31  1  0
  4 32  1  0
  4 33  1  0
  5 34  1  0
  5 35  1  0
  6 36  1  0
  6 37  1  0
  7 38  1  0
  7 39  1  0
 10 40  1  0
 11 41  1  0
 12 42  1  0
 13 43  1  0
 16 44  1  0
 16 45  1  0
 16 46  1  0
 18 47  1  0
 23 48  1  0
 24 49  1  0
M  CHG  4   7   1  15   1  20   1  22  -1
M  END
>  <UniqueID>  (8) 
8

>  <SMILES>  (8) 
CCNCCC[NH2+]c1c2ccccc2[n+](C)c2cc([N+](=O)[O-])ccc12

>  <Energy>  (8) 
77.17959891294944

>  <Genealogy>  (8) 
CCNCCC[NH2+]c1c2ccccc2[n+](C)c2cc([N+](=O)[O-])ccc12 (protonated)
CCNCCC[NH2+]c1c2ccccc2[n+](C)c2cc([N+](=O)[O-])ccc12 (3D coordinates assigned)
CCNCCC[NH2+]c1c2ccccc2[n+](C)c2cc([N+](=O)[O-])ccc12 (optimized conformer: 77.17959891294944 kcal/mol)

>  <smiles>  (8) 
CCNCCCNc1c2ccccc2[n+](C)c2cc([N+](=O)[O-])ccc12

>  <score_type>  (8) 
oracle

>  <origin>  (8) 
adg

>  <m_score__min__energy>  (8) 
-8.5

>  <m_primary>  (8) 
energy

$$$$
8:0
     RDKit          3D

 60 62  0  0  0  0  0  0  0  0999 V2000
   -2.4780   21.6980  -28.6610 C   0  0  0  0  0  0  0  0  0  0  0  0
   -3.8860   22.2370  -28.3750 C   0  0  0  0  0  0  0  0  0  0  0  0
   -4.1140   23.6340  -28.8040 N   0  0  0  0  0  0  0  0  0  0  0  0
   -3.0920   24.5640  -28.3060 C   0  0  0  0  0  0  0  0  0  0  0  0
   -4.3140   23.8060  -30.5330 S   0  0  0  0  0  0  0  0  0  0  0  0
   -4.6130   25.2430  -30.8560 O   0  0  0  0  0  0  0  0  0  0  0  0
   -3.0480   23.4120  -31.2460 O   0  0  0  0  0  0  0  0  0  0  0  0
   -5.6610   22.8200  -31.1000 C   0  0  0  0  0  0  0  0  0  0  0  0
   -6.8120   23.4140  -31.6290 C   0  0  0  0  0  0  0  0  0  0  0  0
   -7.8580   22.6190  -32.1010 C   0  0  0  0  0  0  0  0  0  0  0  0
   -7.7680   21.2190  -32.0520 C   0  0  0  0  0  0  0  0  0  0  0  0
   -6.5980   20.6180  -31.5380 C   0  0  0  0  0  0  0  0  0  0  0  0
   -5.5620   21.4250  -31.0470 C   0  0  0  0  0  0  0  0  0  0  0  0
   -6.4700   19.1170  -31.4500 C   0  0  0  0  0  0  0  0  0  0  0  0
   -7.3610   18.4210  -32.3940 N   0  0  0  0  0  0  0  0  0  0  0  0
   -6.8140   18.1590  -33.7480 C   0  0  0  0  0  0  0  0  0  0  0  0
   -5.4510   17.4400  -33.7750 C   0  0  0  0  0  0  0  0  0  0  0  0
   -4.3340   18.4310  -33.5860 C   0  0  0  0  0  0  0  0  0  0  0  0
   -3.0690   17.9980  -33.1610 C   0  0  0  0  0  0  0  0  0  0  0  0
   -2.0390   18.9210  -32.9520 C   0  0  0  0  0  0  0  0  0  0  0  0
   -2.2600   20.2950  -33.1560 C   0  0  0  0  0  0  0  0  0  0  0  0
   -1.1550   21.3100  -32.9290 C   0  0  0  0  0  0  0  0  0  0  0  0
   -0.0480   21.1690  -33.9810 C   0  0  0  0  0  0  0  0  0  0  0  0
   -0.5860   21.1950  -31.5100 C   0  0  0  0  0  0  0  0  0  0  0  0
   -3.5350   20.7260  -33.5660 C   0  0  0  0  0  0  0  0  0  0  0  0
   -4.5630   19.8030  -33.7740 C   0  0  0  0  0  0  0  0  0  0  0  0
   -8.7550   18.8990  -32.3390 C   0  0  0  0  0  0  0  0  0  0  0  0
   -8.8840   20.3960  -32.6450 C   0  0  0  0  0  0  0  0  0  0  0  0
   -1.9611   21.5001  -27.7104 H   0  0  0  0  0  0  0  0  0  0  0  0
   -2.5529   20.7650  -29.2388 H   0  0  0  0  0  0  0  0  0  0  0  0
   -1.9107   22.4425  -29.2388 H   0  0  0  0  0  0  0  0  0  0  0  0
   -4.6107   21.5957  -28.8980 H   0  0  0  0  0  0  0  0  0  0  0  0
   -4.0061   22.2252  -27.2816 H   0  0  0  0  0  0  0  0  0  0  0  0
   -3.0969   24.5595  -27.2060 H   0  0  0  0  0  0  0  0  0  0  0  0
   -2.1024   24.2502  -28.6695 H   0  0  0  0  0  0  0  0  0  0  0  0
   -3.3113   25.5788  -28.6695 H   0  0  0  0  0  0  0  0  0  0  0  0
   -6.8930   24.5101  -31.6731 H   0  0  0  0  0  0  0  0  0  0  0  0
   -8.7601   23.0935  -32.5147 H   0  0  0  0  0  0  0  0  0  0  0  0
   -4.6639   20.9579  -30.6166 H   0  0  0  0  0  0  0  0  0  0  0  0
   -5.4300   18.8374  -31.6743 H   0  0  0  0  0  0  0  0  0  0  0  0
   -6.7581   18.8150  -30.4323 H   0  0  0  0  0  0  0  0  0  0  0  0
   -7.5385   17.5365  -34.2935 H   0  0  0  0  0  0  0  0  0  0  0  0
   -6.6494   19.1447  -34.2077 H   0  0  0  0  0  0  0  0  0  0  0  0
   -5.4170   16.6961  -32.9654 H   0  0  0  0  0  0  0  0  0  0  0  0
   -5.3277   16.9431  -34.7486 H   0  0  0  0  0  0  0  0  0  0  0  0
   -2.8862   16.9267  -32.9912 H   0  0  0  0  0  0  0  0  0  0  0  0
   -1.0490   18.5698  -32.6257 H   0  0  0  0  0  0  0  0  0  0  0  0
   -1.5929   22.3133  -33.0370 H   0  0  0  0  0  0  0  0  0  0  0  0
    0.9224   21.0454  -33.4779 H   0  0  0  0  0  0  0  0  0  0  0  0
   -0.2497   20.2893  -34.6098 H   0  0  0  0  0  0  0  0  0  0  0  0
   -0.0227   22.0712  -34.6098 H   0  0  0  0  0  0  0  0  0  0  0  0
   -1.3908   21.3577  -30.7780 H   0  0  0  0  0  0  0  0  0  0  0  0
   -0.1574   20.1921  -31.3670 H   0  0  0  0  0  0  0  0  0  0  0  0
    0.1984   21.9528  -31.3670 H   0  0  0  0  0  0  0  0  0  0  0  0
   -3.7239   21.7981  -33.7240 H   0  0  0  0  0  0  0  0  0  0  0  0
   -5.5576   20.1535  -34.0869 H   0  0  0  0  0  0  0  0  0  0  0  0
   -9.3481   18.3376  -33.0759 H   0  0  0  0  0  0  0  0  0  0  0  0
   -9.1191   18.7387  -31.3135 H   0  0  0  0  0  0  0  0  0  0  0  0
   -8.8776   20.5321  -33.7365 H   0  0  0  0  0  0  0  0  0  0  0  0
   -9.8243   20.7436  -32.1923 H   0  0  0  0  0  0  0  0  0  0  0  0
  1  2  1  0
  2  3  1  0
  3  4  1  0
  3  5  1  0
  5  6  2  0
  5  7  2  0
  5  8  1  0
  8  9  2  0
  9 10  1  0
 10 11  2  0
 11 12  1  0
 12 13  2  0
 12 14  1  0
 14 15  1  0
 15 16  1  0
 16 17  1  0
 17 18  1  0
 18 19  2  0
 19 20  1  0
 20 21  2  0
 21 22  1  0
 22 23  1  0
 22 24  1  0
 21 25  1  0
 25 26  2  0
 15 27  1  0
 27 28  1  0
 13  8  1  0
 26 18  1  0
 28 11  1  0
  1 29  1  0
  1 30  1  0
  1 31  1  0
  2 32  1  0
  2 33  1  0
  4 34  1  0
  4 35  1  0
  4 36  1  0
  9 37  1  0
 10 38  1  0
 13 39  1  0
 14 40  1  0
 14 41  1  0
 16 42  1  0
 16 43  1  0
 17 44  1  0
 17 45  1  0
 19 46  1  0
 20 47  1  0
 22 48  1  0
 23 49  1  0
 23 50  1  0
 23 51  1  0
 24 52  1  0
 24 53  1  0
 24 54  1  0
 25 55  1  0
 26 56  1  0
 27 57  1  0
 27 58  1  0
 28 59  1  0
 28 60  1  0
M  END
>  <UniqueID>  (9) 
9

>  <SMILES>  (9) 
CCN(C)S(=O)(=O)c1ccc2c(c1)CN(CCc1ccc(C(C)C)cc1)CC2

>  <Energy>  (9) 
65.8358150094926

>  <Genealogy>  (9) 
CCN(C)S(=O)(=O)c1ccc2c(c1)CN(CCc1ccc(C(C)C)cc1)CC2 (3D coordinates assigned)
CCN(C)S(=O)(=O)c1ccc2c(c1)CN(CCc1ccc(C(C)C)cc1)CC2 (nonaromatic ring conformer: 65.8358150094926 kcal/mol)

>  <smiles>  (9) 
CCN(C)S(=O)(=O)c1ccc2c(c1)CN(CCc1ccc(C(C)C)cc1)CC2

>  <score_type>  (9) 
oracle

>  <origin>  (9) 
adg

>  <m_score__min__energy>  (9) 
-10.35

>  <m_primary>  (9) 
energy

$$$$
9:0
     RDKit          3D

 63 65  0  0  0  0  0  0  0  0999 V2000
   -2.3160   19.8180  -26.8150 C   0  0  0  0  0  0  0  0  0  0  0  0
   -2.5680   21.1020  -27.6190 C   0  0  0  0  0  0  0  0  0  0  0  0
   -2.1330   22.3410  -26.9350 N   0  0  0  0  0  0  0  0  0  0  0  0
   -0.6840   22.5730  -27.0830 C   0  0  0  0  0  0  0  0  0  0  0  0
   -2.9330   23.5200  -27.3360 C   0  0  0  0  0  0  0  0  0  0  0  0
   -2.0500   24.6300  -27.9210 C   0  0  0  0  0  0  0  0  0  0  0  0
   -2.2500   24.7550  -29.3650 N   0  0  0  0  0  0  0  0  0  0  0  0
   -2.9730   23.7570  -30.1050 C   0  0  0  0  0  0  0  0  0  0  0  0
   -2.3170   22.6030  -30.5690 C   0  0  0  0  0  0  0  0  0  0  0  0
   -0.9390   22.4070  -30.3380 C   0  0  0  0  0  0  0  0  0  0  0  0
   -0.2850   21.2830  -30.8440 C   0  0  0  0  0  0  0  0  0  0  0  0
   -0.9880   20.3450  -31.5910 C   0  0  0  0  0  0  0  0  0  0  0  0
   -2.3490   20.5230  -31.8380 C   0  0  0  0  0  0  0  0  0  0  0  0
   -3.0390   21.6560  -31.3400 C   0  0  0  0  0  0  0  0  0  0  0  0
   -4.3740   21.8630  -31.6170 N   0  0  0  0  0  0  0  0  0  0  0  0
   -4.9500   21.2240  -32.8210 C   0  0  0  0  0  0  0  0  0  0  0  0
   -5.0750   22.8450  -30.9460 C   0  0  0  0  0  0  0  0  0  0  0  0
   -6.5070   22.8580  -30.8450 C   0  0  0  0  0  0  0  0  0  0  0  0
   -7.2980   21.6390  -30.8520 N   0  0  0  0  0  0  0  0  0  0  0  0
   -8.3080   21.6460  -31.9270 C   0  0  0  0  0  0  0  0  0  0  0  0
   -8.2160   20.3950  -32.8230 C   0  0  0  0  0  0  0  0  0  0  0  0
   -7.6780   19.2490  -32.0590 N   0  0  0  0  0  0  0  0  0  0  0  0
   -7.0300   18.2850  -32.9640 C   0  0  0  0  0  0  0  0  0  0  0  0
   -8.7470   18.5700  -31.3030 C   0  0  0  0  0  0  0  0  0  0  0  0
   -7.1500   24.0480  -30.4610 C   0  0  0  0  0  0  0  0  0  0  0  0
   -6.4190   25.1480  -30.0340 C   0  0  0  0  0  0  0  0  0  0  0  0
   -5.0370   25.0590  -29.9130 C   0  0  0  0  0  0  0  0  0  0  0  0
   -4.3550   23.9000  -30.3250 C   0  0  0  0  0  0  0  0  0  0  0  0
   -2.3604   20.0442  -25.7394 H   0  0  0  0  0  0  0  0  0  0  0  0
   -3.0849   19.0721  -27.0649 H   0  0  0  0  0  0  0  0  0  0  0  0
   -1.3222   19.4180  -27.0649 H   0  0  0  0  0  0  0  0  0  0  0  0
   -2.0240   21.0248  -28.5720 H   0  0  0  0  0  0  0  0  0  0  0  0
   -3.6566   21.1814  -27.7552 H   0  0  0  0  0  0  0  0  0  0  0  0
   -0.2210   22.6471  -26.0879 H   0  0  0  0  0  0  0  0  0  0  0  0
   -0.2332   21.7356  -27.6357 H   0  0  0  0  0  0  0  0  0  0  0  0
   -0.5171   23.5093  -27.6357 H   0  0  0  0  0  0  0  0  0  0  0  0
   -3.6677   23.2116  -28.0943 H   0  0  0  0  0  0  0  0  0  0  0  0
   -3.4347   23.9158  -26.4406 H   0  0  0  0  0  0  0  0  0  0  0  0
   -2.3062   25.5848  -27.4387 H   0  0  0  0  0  0  0  0  0  0  0  0
   -0.9966   24.3737  -27.7347 H   0  0  0  0  0  0  0  0  0  0  0  0
   -2.0540   25.6750  -29.8230 H   0  0  0  0  0  0  0  0  0  0  0  0
   -0.3744   23.1479  -29.7530 H   0  0  0  0  0  0  0  0  0  0  0  0
    0.7884   21.1391  -30.6515 H   0  0  0  0  0  0  0  0  0  0  0  0
   -0.4695   19.4600  -31.9884 H   0  0  0  0  0  0  0  0  0  0  0  0
   -2.8951   19.7725  -32.4284 H   0  0  0  0  0  0  0  0  0  0  0  0
   -5.6577   20.4389  -32.5164 H   0  0  0  0  0  0  0  0  0  0  0  0
   -5.4774   21.9804  -33.4208 H   0  0  0  0  0  0  0  0  0  0  0  0
   -4.1431   20.7777  -33.4208 H   0  0  0  0  0  0  0  0  0  0  0  0
   -7.8080   21.4670  -29.9650 H   0  0  0  0  0  0  0  0  0  0  0  0
   -6.6620   20.8240  -31.0040 H   0  0  0  0  0  0  0  0  0  0  0  0
   -9.3088   21.6827  -31.4721 H   0  0  0  0  0  0  0  0  0  0  0  0
   -8.1218   22.5272  -32.5585 H   0  0  0  0  0  0  0  0  0  0  0  0
   -9.2195   20.1423  -33.1959 H   0  0  0  0  0  0  0  0  0  0  0  0
   -7.5413   20.6094  -33.6649 H   0  0  0  0  0  0  0  0  0  0  0  0
   -6.5131   17.5160  -32.3713 H   0  0  0  0  0  0  0  0  0  0  0  0
   -7.7918   17.8084  -33.5984 H   0  0  0  0  0  0  0  0  0  0  0  0
   -6.3010   18.8105  -33.5984 H   0  0  0  0  0  0  0  0  0  0  0  0
   -8.5640   18.6862  -30.2246 H   0  0  0  0  0  0  0  0  0  0  0  0
   -9.7187   19.0168  -31.5603 H   0  0  0  0  0  0  0  0  0  0  0  0
   -8.7556   17.5005  -31.5603 H   0  0  0  0  0  0  0  0  0  0  0  0
   -8.2477   24.1081  -30.4995 H   0  0  0  0  0  0  0  0  0  0  0  0
   -6.9331   26.0898  -29.7915 H   0  0  0  0  0  0  0  0  0  0  0  0
   -4.4715   25.9029  -29.4911 H   0  0  0  0  0  0  0  0  0  0  0  0
  1  2  1  0
  2  3  1  0
  3  4  1  0
  3  5  1  0
  5  6  1  0
  6  7  1  0
  7  8  1  0
  8  9  2  0
  9 10  1  0
 10 11  2  0
 11 12  1  0
 12 13  2  0
 13 14  1  0
 14 15  2  0
 15 16  1  0
 15 17  1  0
 17 18  2  0
 18 19  1  0
 19 20  1  0
 20 21  1  0
 21 22  1  0
 22 23  1  0
 22 24  1  0
 18 25  1  0
 25 26  2  0
 26 27  1  0
 27 28  2  0
 28  8  1  0
 14  9  1  0
 28 17  1  0
  1 29  1  0
  1 30  1  0
  1 31  1  0
  2 32  1  0
  2 33  1  0
  4 34  1  0
  4 35  1  0
  4 36  1  0
  5 37  1  0
  5 38  1  0
  6 39  1  0
  6 40  1  0
  7 41  1  0
 10 42  1  0
 11 43  1  0
 12 44  1  0
 13 45  1  0
 16 46  1  0
 16 47  1  0
 16 48  1  0
 19 49  1  0
 19 50  1  0
 20 51  1  0
 20 52  1  0
 21 53  1  0
 21 54  1  0
 23 55  1  0
 23 56  1  0
 23 57  1  0
 24 58  1  0
 24 59  1  0
 24 60  1  0
 25 61  1  0
 26 62  1  0
 27 63  1  0
M  CHG  2  15   1  19   1
M  END
>  <UniqueID>  (10) 
10

>  <SMILES>  (10) 
CCN(C)CCNc1c2ccccc2[n+](C)c2c([NH2+]CCN(C)C)cccc12

>  <Energy>  (10) 
103.42901198569574

>  <Genealogy>  (10) 
CCN(C)CCNc1c2ccccc2[n+](C)c2c([NH2+]CCN(C)C)cccc12 (protonated)
CCN(C)CCNc1c2ccccc2[n+](C)c2c([NH2+]CCN(C)C)cccc12 (3D coordinates assigned)
CCN(C)CCNc1c2ccccc2[n+](C)c2c([NH2+]CCN(C)C)cccc12 (optimized conformer: 103.42901198569574 kcal/mol)

>  <smiles>  (10) 
CCN(C)CCNc1c2ccccc2[n+](C)c2c(NCCN(C)C)cccc12

>  <score_type>  (10) 
oracle

>  <origin>  (10) 
adg

>  <m_score__min__energy>  (10) 
-7.29

>  <m_primary>  (10) 
energy

$$$$
10:0
     RDKit          3D

 74 77  0  0  0  0  0  0  0  0999 V2000
   -4.0430   23.4710  -28.5830 C   0  0  0  0  0  0  0  0  0  0  0  0
   -3.3650   24.4660  -29.5140 C   0  0  0  0  0  0  0  0  0  0  0  0
   -3.9190   24.3490  -30.8670 N   0  0  0  0  0  0  0  0  0  0  0  0
   -5.3730   24.5320  -30.8390 C   0  0  0  0  0  0  0  0  0  0  0  0
   -6.0960   23.2240  -31.2060 C   0  0  0  0  0  0  0  0  0  0  0  0
   -5.5950   22.6720  -32.4840 N   0  0  0  0  0  0  0  0  0  0  0  0
   -5.6490   21.2140  -32.5200 C   0  0  0  0  0  0  0  0  0  0  0  0
   -6.9200   20.5640  -32.4570 C   0  0  0  0  0  0  0  0  0  0  0  0
   -8.1200   21.2900  -32.2440 C   0  0  0  0  0  0  0  0  0  0  0  0
   -9.3530   20.6510  -32.1750 C   0  0  0  0  0  0  0  0  0  0  0  0
   -9.4350   19.2790  -32.3430 C   0  0  0  0  0  0  0  0  0  0  0  0
   -8.2830   18.5380  -32.5840 C   0  0  0  0  0  0  0  0  0  0  0  0
   -7.0060   19.1560  -32.6360 C   0  0  0  0  0  0  0  0  0  0  0  0
   -5.8740   18.4240  -32.9180 N   0  0  0  0  0  0  0  0  0  0  0  0
   -5.9190   16.9440  -32.8830 C   0  0  0  0  0  0  0  0  0  0  0  0
   -4.6940   19.0650  -33.2200 C   0  0  0  0  0  0  0  0  0  0  0  0
   -3.6730   18.3890  -33.9260 C   0  0  0  0  0  0  0  0  0  0  0  0
   -2.4470   18.9870  -34.1600 C   0  0  0  0  0  0  0  0  0  0  0  0
   -2.1730   20.2320  -33.6220 C   0  0  0  0  0  0  0  0  0  0  0  0
   -3.1550   20.9480  -32.9110 C   0  0  0  0  0  0  0  0  0  0  0  0
   -2.7260   22.0460  -32.0820 N   0  0  0  0  0  0  0  0  0  0  0  0
   -2.0330   21.8460  -30.8020 C   0  0  0  0  0  0  0  0  0  0  0  0
   -0.5550   21.4860  -30.9940 C   0  0  0  0  0  0  0  0  0  0  0  0
   -0.1730   20.1670  -30.2680 C   0  0  0  0  0  0  0  0  0  0  0  0
   -0.2410   20.2050  -28.7690 N   0  0  0  0  0  0  0  0  0  0  0  0
    0.9140   19.4340  -28.2220 C   0  0  0  0  0  0  0  0  0  0  0  0
   -0.0980   21.6390  -28.3640 C   0  0  0  0  0  0  0  0  0  0  0  0
   -0.1620   21.8680  -26.8380 C   0  0  0  0  0  0  0  0  0  0  0  0
   -1.1710   20.9470  -26.1320 C   0  0  0  0  0  0  0  0  0  0  0  0
   -2.2040   20.4000  -27.1090 C   0  0  0  0  0  0  0  0  0  0  0  0
   -1.5480   19.6380  -28.2840 C   0  0  0  0  0  0  0  0  0  0  0  0
   -4.4940   20.4300  -32.8530 C   0  0  0  0  0  0  0  0  0  0  0  0
   -3.8491   23.7555  -27.5383 H   0  0  0  0  0  0  0  0  0  0  0  0
   -5.1272   23.4749  -28.7689 H   0  0  0  0  0  0  0  0  0  0  0  0
   -3.6427   22.4634  -28.7689 H   0  0  0  0  0  0  0  0  0  0  0  0
   -3.5321   25.4867  -29.1395 H   0  0  0  0  0  0  0  0  0  0  0  0
   -2.2867   24.2510  -29.5468 H   0  0  0  0  0  0  0  0  0  0  0  0
   -3.5110   25.1190  -31.4490 H   0  0  0  0  0  0  0  0  0  0  0  0
   -5.6781   24.8413  -29.8284 H   0  0  0  0  0  0  0  0  0  0  0  0
   -5.6453   25.3035  -31.5743 H   0  0  0  0  0  0  0  0  0  0  0  0
   -5.9291   22.4863  -30.4073 H   0  0  0  0  0  0  0  0  0  0  0  0
   -7.1686   23.4405  -31.3186 H   0  0  0  0  0  0  0  0  0  0  0  0
   -6.1510   23.0450  -33.2890 H   0  0  0  0  0  0  0  0  0  0  0  0
   -4.6380   23.0380  -32.6730 H   0  0  0  0  0  0  0  0  0  0  0  0
   -8.0740   22.3832  -32.1309 H   0  0  0  0  0  0  0  0  0  0  0  0
  -10.2650   21.2365  -31.9866 H   0  0  0  0  0  0  0  0  0  0  0  0
  -10.4112   18.7752  -32.2859 H   0  0  0  0  0  0  0  0  0  0  0  0
   -8.3629   17.4517  -32.7373 H   0  0  0  0  0  0  0  0  0  0  0  0
   -5.9294   16.6021  -31.8375 H   0  0  0  0  0  0  0  0  0  0  0  0
   -6.8282   16.5927  -33.3927 H   0  0  0  0  0  0  0  0  0  0  0  0
   -5.0328   16.5381  -33.3927 H   0  0  0  0  0  0  0  0  0  0  0  0
   -3.8561   17.3694  -34.2961 H   0  0  0  0  0  0  0  0  0  0  0  0
   -1.6916   18.4733  -34.7727 H   0  0  0  0  0  0  0  0  0  0  0  0
   -1.1721   20.6694  -33.7518 H   0  0  0  0  0  0  0  0  0  0  0  0
   -3.2540   22.9350  -32.1970 H   0  0  0  0  0  0  0  0  0  0  0  0
   -2.0983   22.7740  -30.2150 H   0  0  0  0  0  0  0  0  0  0  0  0
   -2.5199   21.0081  -30.2815 H   0  0  0  0  0  0  0  0  0  0  0  0
   -0.3558   21.3689  -32.0695 H   0  0  0  0  0  0  0  0  0  0  0  0
    0.0490   22.2969  -30.5608 H   0  0  0  0  0  0  0  0  0  0  0  0
   -0.8564   19.3790  -30.6173 H   0  0  0  0  0  0  0  0  0  0  0  0
    0.8831   19.9840  -30.5154 H   0  0  0  0  0  0  0  0  0  0  0  0
    0.8816   19.4556  -27.1227 H   0  0  0  0  0  0  0  0  0  0  0  0
    0.8572   18.3921  -28.5701 H   0  0  0  0  0  0  0  0  0  0  0  0
    1.8545   19.8861  -28.5701 H   0  0  0  0  0  0  0  0  0  0  0  0
    0.8723   22.0068  -28.7290 H   0  0  0  0  0  0  0  0  0  0  0  0
   -0.9480   22.1812  -28.8040 H   0  0  0  0  0  0  0  0  0  0  0  0
    0.8362   21.6840  -26.4141 H   0  0  0  0  0  0  0  0  0  0  0  0
   -0.4937   22.9041  -26.6753 H   0  0  0  0  0  0  0  0  0  0  0  0
   -0.6290   20.1054  -25.6761 H   0  0  0  0  0  0  0  0  0  0  0  0
   -1.6974   21.5342  -25.3651 H   0  0  0  0  0  0  0  0  0  0  0  0
   -2.8728   19.7128  -26.5700 H   0  0  0  0  0  0  0  0  0  0  0  0
   -2.7596   21.2526  -27.5266 H   0  0  0  0  0  0  0  0  0  0  0  0
   -1.3695   18.6021  -27.9598 H   0  0  0  0  0  0  0  0  0  0  0  0
   -2.2476   19.7213  -29.1287 H   0  0  0  0  0  0  0  0  0  0  0  0
  1  2  1  0
  2  3  1  0
  3  4  1  0
  4  5  1  0
  5  6  1  0
  6  7  1  0
  7  8  2  0
  8  9  1  0
  9 10  2  0
 10 11  1  0
 11 12  2  0
 12 13  1  0
 13 14  2  0
 14 15  1  0
 14 16  1  0
 16 17  2  0
 17 18  1  0
 18 19  2  0
 19 20  1  0
 20 21  1  0
 21 22  1  0
 22 23  1  0
 23 24  1  0
 24 25  1  0
 25 26  1  0
 25 27  1  0
 27 28  1  0
 28 29  1  0
 29 30  1  0
 30 31  1  0
 20 32  2  0
 32  7  1  0
 13  8  1  0
 32 16  1  0
 31 25  1  0
  1 33  1  0
  1 34  1  0
  1 35  1  0
  2 36  1  0
  2 37  1  0
  3 38  1  0
  4 39  1  0
  4 40  1  0
  5 41  1  0
  5 42  1  0
  6 43  1  0
  6 44  1  0
  9 45  1  0
 10 46  1  0
 11 47  1  0
 12 48  1  0
 15 49  1  0
 15 50  1  0
 15 51  1  0
 17 52  1  0
 18 53  1  0
 19 54  1  0
 21 55  1  0
 22 56  1  0
 22 57  1  0
 23 58  1  0
 23 59  1  0
 24 60  1  0
 24 61  1  0
 26 62  1  0
 26 63  1  0
 26 64  1  0
 27 65  1  0
 27 66  1  0
 28 67  1  0
 28 68  1  0
 29 69  1  0
 29 70  1  0
 30 71  1  0
 30 72  1  0
 31 73  1  0
 31 74  1  0
M  CHG  3   6   1  14   1  25   1
M  END
>  <UniqueID>  (11) 
11

>  <SMILES>  (11) 
CCNCC[NH2+]c1c2ccccc2[n+](C)c2cccc(NCCC[N+]3(C)CCCCC3)c12

>  <Energy>  (11) 
129.06407929527728

>  <Genealogy>  (11) 
CCNCC[NH2+]c1c2ccccc2[n+](C)c2cccc(NCCC[N+]3(C)CCCCC3)c12 (protonated)
CCNCC[NH2+]c1c2ccccc2[n+](C)c2cccc(NCCC[N+]3(C)CCCCC3)c12 (3D coordinates assigned)
CCNCC[NH2+]c1c2ccccc2[n+](C)c2cccc(NCCC[N+]3(C)CCCCC3)c12 (nonaromatic ring conformer: 129.06407929527728 kcal/mol)

>  <smiles>  (11) 
CCNCCNc1c2ccccc2[n+](C)c2cccc(NCCC[N+]3(C)CCCCC3)c12

>  <score_type>  (11) 
oracle

>  <origin>  (11) 
adg

>  <m_score__min__energy>  (11) 
-8.5899999999999999

>  <m_primary>  (11) 
energy

$$$$
11:0
     RDKit          3D

 34 35  0  0  0  0  0  0  0  0999 V2000
   -2.6340   25.6670  -25.8310 C   0  0  0  0  0  0  0  0  0  0  0  0
   -3.0740   24.9550  -27.0460 N   0  0  0  0  0  0  0  0  0  0  0  0
   -4.2360   24.1060  -26.7250 C   0  0  0  0  0  0  0  0  0  0  0  0
   -1.9890   24.1210  -27.6200 C   0  0  0  0  0  0  0  0  0  0  0  0
   -1.7790   24.3490  -29.1290 C   0  0  0  0  0  0  0  0  0  0  0  0
   -2.9150   24.9700  -29.7330 O   0  0  0  0  0  0  0  0  0  0  0  0
   -4.0970   24.3160  -30.1190 C   0  0  0  0  0  0  0  0  0  0  0  0
   -5.3160   24.9290  -29.8080 C   0  0  0  0  0  0  0  0  0  0  0  0
   -6.5280   24.3300  -30.1600 C   0  0  0  0  0  0  0  0  0  0  0  0
   -6.5380   23.1030  -30.8360 C   0  0  0  0  0  0  0  0  0  0  0  0
   -7.7490   22.4910  -31.1930 C   0  0  0  0  0  0  0  0  0  0  0  0
   -7.7460   21.2680  -31.8700 C   0  0  0  0  0  0  0  0  0  0  0  0
   -9.3970   20.4390  -32.3530 Br  0  0  0  0  0  0  0  0  0  0  0  0
   -6.5340   20.6490  -32.1950 C   0  0  0  0  0  0  0  0  0  0  0  0
   -5.3210   21.2490  -31.8450 C   0  0  0  0  0  0  0  0  0  0  0  0
   -5.3110   22.4760  -31.1630 C   0  0  0  0  0  0  0  0  0  0  0  0
   -4.0990   23.0870  -30.8070 C   0  0  0  0  0  0  0  0  0  0  0  0
   -2.9736   25.1174  -24.9407 H   0  0  0  0  0  0  0  0  0  0  0  0
   -1.5361   25.7351  -25.8232 H   0  0  0  0  0  0  0  0  0  0  0  0
   -3.0642   26.6794  -25.8232 H   0  0  0  0  0  0  0  0  0  0  0  0
   -3.3880   25.6620  -27.7530 H   0  0  0  0  0  0  0  0  0  0  0  0
   -4.3427   24.0281  -25.6330 H   0  0  0  0  0  0  0  0  0  0  0  0
   -5.1460   24.5535  -27.1513 H   0  0  0  0  0  0  0  0  0  0  0  0
   -4.0863   23.1031  -27.1513 H   0  0  0  0  0  0  0  0  0  0  0  0
   -1.0512   24.3597  -27.0969 H   0  0  0  0  0  0  0  0  0  0  0  0
   -2.2815   23.0690  -27.4869 H   0  0  0  0  0  0  0  0  0  0  0  0
   -0.9008   24.9956  -29.2730 H   0  0  0  0  0  0  0  0  0  0  0  0
   -1.6298   23.3692  -29.6062 H   0  0  0  0  0  0  0  0  0  0  0  0
   -5.3199   25.8940  -29.2801 H   0  0  0  0  0  0  0  0  0  0  0  0
   -7.4776   24.8234  -29.9055 H   0  0  0  0  0  0  0  0  0  0  0  0
   -8.7037   22.9750  -30.9394 H   0  0  0  0  0  0  0  0  0  0  0  0
   -6.5357   19.6867  -32.7279 H   0  0  0  0  0  0  0  0  0  0  0  0
   -4.3714   20.7583  -32.1047 H   0  0  0  0  0  0  0  0  0  0  0  0
   -3.1456   22.6037  -31.0666 H   0  0  0  0  0  0  0  0  0  0  0  0
  1  2  1  0
  2  3  1  0
  2  4  1  0
  4  5  1  0
  5  6  1  0
  6  7  1  0
  7  8  2  0
  8  9  1  0
  9 10  2  0
 10 11  1  0
 11 12  2  0
 12 13  1  0
 12 14  1  0
 14 15  2  0
 15 16  1  0
 16 17  2  0
 17  7  1  0
 16 10  1  0
  1 18  1  0
  1 19  1  0
  1 20  1  0
  2 21  1  0
  3 22  1  0
  3 23  1  0
  3 24  1  0
  4 25  1  0
  4 26  1  0
  5 27  1  0
  5 28  1  0
  8 29  1  0
  9 30  1  0
 11 31  1  0
 14 32  1  0
 15 33  1  0
 17 34  1  0
M  CHG  1   2   1
M  END
>  <UniqueID>  (12) 
12

>  <SMILES>  (12) 
C[NH+](C)CCOc1ccc2cc(Br)ccc2c1

>  <Energy>  (12) 
36.962656018800864

>  <Genealogy>  (12) 
C[NH+](C)CCOc1ccc2cc(Br)ccc2c1 (protonated)
C[NH+](C)CCOc1ccc2cc(Br)ccc2c1 (3D coordinates assigned)
C[NH+](C)CCOc1ccc2cc(Br)ccc2c1 (optimized conformer: 36.962656018800864 kcal/mol)

>  <smiles>  (12) 
CN(C)CCOc1ccc2cc(Br)ccc2c1

>  <score_type>  (12) 
oracle

>  <origin>  (12) 
adg

>  <m_score__min__energy>  (12) 
-6.4100000000000001

>  <m_primary>  (12) 
energy

$$$$
12:0
     RDKit          3D

 39 40  0  0  0  0  0  0  0  0999 V2000
   -2.4660   19.0490  -33.5000 C   0  0  0  0  0  0  0  0  0  0  0  0
   -1.4830   20.0390  -33.5470 C   0  0  0  0  0  0  0  0  0  0  0  0
   -1.6850   21.2600  -32.8960 C   0  0  0  0  0  0  0  0  0  0  0  0
   -2.8720   21.5020  -32.1850 C   0  0  0  0  0  0  0  0  0  0  0  0
   -3.0390   22.7630  -31.5090 N   0  0  0  0  0  0  0  0  0  0  0  0
   -2.9760   22.9420  -30.0580 C   0  0  0  0  0  0  0  0  0  0  0  0
   -3.4360   24.3510  -29.6340 C   0  0  0  0  0  0  0  0  0  0  0  0
   -4.0120   25.1350  -30.7420 N   0  0  0  0  0  0  0  0  0  0  0  0
   -5.4510   25.4090  -30.5970 C   0  0  0  0  0  0  0  0  0  0  0  0
   -6.2950   24.1380  -30.7890 C   0  0  0  0  0  0  0  0  0  0  0  0
   -5.8690   23.2970  -32.3550 S   0  0  0  0  0  0  0  0  0  0  0  0
   -7.1560   22.0610  -32.1880 C   0  0  0  0  0  0  0  0  0  0  0  0
   -8.3570   22.3820  -31.5420 C   0  0  0  0  0  0  0  0  0  0  0  0
   -9.3620   21.4190  -31.4150 C   0  0  0  0  0  0  0  0  0  0  0  0
   -9.1720   20.1350  -31.9350 C   0  0  0  0  0  0  0  0  0  0  0  0
   -7.9740   19.8130  -32.5830 C   0  0  0  0  0  0  0  0  0  0  0  0
   -6.9680   20.7760  -32.7120 C   0  0  0  0  0  0  0  0  0  0  0  0
   -3.8640   20.5000  -32.1530 C   0  0  0  0  0  0  0  0  0  0  0  0
   -3.6560   19.2810  -32.8060 C   0  0  0  0  0  0  0  0  0  0  0  0
   -2.3038   18.0873  -34.0088 H   0  0  0  0  0  0  0  0  0  0  0  0
   -0.5478   19.8583  -34.0972 H   0  0  0  0  0  0  0  0  0  0  0  0
   -0.9080   22.0373  -32.9411 H   0  0  0  0  0  0  0  0  0  0  0  0
   -3.1930   23.6200  -32.0870 H   0  0  0  0  0  0  0  0  0  0  0  0
   -3.6268   22.1958  -29.5787 H   0  0  0  0  0  0  0  0  0  0  0  0
   -1.9297   22.8149  -29.7431 H   0  0  0  0  0  0  0  0  0  0  0  0
   -4.1974   24.2475  -28.8469 H   0  0  0  0  0  0  0  0  0  0  0  0
   -2.5455   24.8917  -29.2810 H   0  0  0  0  0  0  0  0  0  0  0  0
   -3.5030   26.0430  -30.8430 H   0  0  0  0  0  0  0  0  0  0  0  0
   -5.6374   25.8118  -29.5905 H   0  0  0  0  0  0  0  0  0  0  0  0
   -5.7416   26.1335  -31.3721 H   0  0  0  0  0  0  0  0  0  0  0  0
   -6.1075   23.4518  -29.9499 H   0  0  0  0  0  0  0  0  0  0  0  0
   -7.3564   24.4248  -30.8234 H   0  0  0  0  0  0  0  0  0  0  0  0
   -8.5091   23.3924  -31.1346 H   0  0  0  0  0  0  0  0  0  0  0  0
  -10.3035   21.6715  -30.9054 H   0  0  0  0  0  0  0  0  0  0  0  0
   -9.9639   19.3781  -31.8348 H   0  0  0  0  0  0  0  0  0  0  0  0
   -7.8237   18.8025  -32.9908 H   0  0  0  0  0  0  0  0  0  0  0  0
   -6.0284   20.5239  -33.2254 H   0  0  0  0  0  0  0  0  0  0  0  0
   -4.8052   20.6781  -31.6122 H   0  0  0  0  0  0  0  0  0  0  0  0
   -4.4321   18.5021  -32.7731 H   0  0  0  0  0  0  0  0  0  0  0  0
  1  2  2  0
  2  3  1  0
  3  4  2  0
  4  5  1  0
  5  6  1  0
  6  7  1  0
  7  8  1  0
  8  9  1  0
  9 10  1  0
 10 11  1  0
 11 12  1  0
 12 13  2  0
 13 14  1  0
 14 15  2  0
 15 16  1  0
 16 17  2  0
  4 18  1  0
 18 19  2  0
 19  1  1  0
 17 12  1  0
  1 20  1  0
  2 21  1  0
  3 22  1  0
  5 23  1  0
  6 24  1  0
  6 25  1  0
  7 26  1  0
  7 27  1  0
  8 28  1  0
  9 29  1  0
  9 30  1  0
 10 31  1  0
 10 32  1  0
 13 33  1  0
 14 34  1  0
 15 35  1  0
 16 36  1  0
 17 37  1  0
 18 38  1  0
 19 39  1  0
M  END
>  <UniqueID>  (13) 
13

>  <SMILES>  (13) 
c1ccc(NCCNCCSc2ccccc2)cc1

>  <Energy>  (13) 
34.292041209584326

>  <Genealogy>  (13) 
c1ccc(NCCNCCSc2ccccc2)cc1 (3D coordinates assigned)
c1ccc(NCCNCCSc2ccccc2)cc1 (optimized conformer: 34.292041209584326 kcal/mol)

>  <smiles>  (13) 
c1ccc(NCCNCCSc2ccccc2)cc1

>  <score_type>  (13) 
oracle

>  <origin>  (13) 
adg

>  <m_score__min__energy>  (13) 
-8.3900000000000006

>  <m_primary>  (13) 
energy

$$$$
13:0
     RDKit          3D

 37 38  0  0  0  0  0  0  0  0999 V2000
   -4.8155   20.7579  -32.9260 H   0  0  0  0  0  0  0  0  0  0  0  0
   -5.6820   21.2480  -32.4580 C   0  0  0  0  0  0  0  0  0  0  0  0
   -6.9730   20.6950  -32.5940 C   0  0  0  0  0  0  0  0  0  0  0  0
   -7.1480   19.4260  -33.3860 C   0  0  0  0  0  0  0  0  0  0  0  0
   -7.2651   18.5768  -32.6967 H   0  0  0  0  0  0  0  0  0  0  0  0
   -8.0431   19.5099  -34.0199 H   0  0  0  0  0  0  0  0  0  0  0  0
   -6.2636   19.2645  -34.0199 H   0  0  0  0  0  0  0  0  0  0  0  0
   -8.0880   21.3340  -31.9750 C   0  0  0  0  0  0  0  0  0  0  0  0
   -9.4790   20.7710  -32.0990 C   0  0  0  0  0  0  0  0  0  0  0  0
   -9.8969   20.6019  -31.0956 H   0  0  0  0  0  0  0  0  0  0  0  0
  -10.1151   21.4825  -32.6460 H   0  0  0  0  0  0  0  0  0  0  0  0
   -9.4412   19.8174  -32.6460 H   0  0  0  0  0  0  0  0  0  0  0  0
   -7.8920   22.5230  -31.2390 C   0  0  0  0  0  0  0  0  0  0  0  0
   -8.7406   23.0319  -30.7585 H   0  0  0  0  0  0  0  0  0  0  0  0
   -6.6060   23.0370  -31.1340 C   0  0  0  0  0  0  0  0  0  0  0  0
   -6.0940   24.4180  -30.3240 S   0  0  0  0  0  0  0  0  0  0  0  0
   -4.4880   24.1610  -30.7820 C   0  0  0  0  0  0  0  0  0  0  0  0
   -3.5120   24.9370  -30.4230 N   0  0  0  0  0  0  0  0  0  0  0  0
   -2.6310   24.6590  -29.3280 C   0  0  0  0  0  0  0  0  0  0  0  0
   -1.6060   25.3710  -29.1690 O   0  0  0  0  0  0  0  0  0  0  0  0
   -2.8560   23.5530  -28.4470 N   0  0  0  0  0  0  0  0  0  0  0  0
   -1.9470   22.4200  -28.3090 C   0  0  0  0  0  0  0  0  0  0  0  0
   -1.1853   22.6536  -27.5506 H   0  0  0  0  0  0  0  0  0  0  0  0
   -1.4608   22.2255  -29.2763 H   0  0  0  0  0  0  0  0  0  0  0  0
   -2.7240   21.1820  -27.8800 C   0  0  0  0  0  0  0  0  0  0  0  0
   -2.7673   20.4684  -28.7160 H   0  0  0  0  0  0  0  0  0  0  0  0
   -3.7453   21.4717  -27.5919 H   0  0  0  0  0  0  0  0  0  0  0  0
   -2.0770   20.5780  -26.7780 O   0  0  0  0  0  0  0  0  0  0  0  0
   -2.1640   19.1680  -26.8620 C   0  0  0  0  0  0  0  0  0  0  0  0
   -1.2157   18.7246  -26.5242 H   0  0  0  0  0  0  0  0  0  0  0  0
   -2.3615   18.8821  -27.9057 H   0  0  0  0  0  0  0  0  0  0  0  0
   -3.3010   18.6570  -25.9820 C   0  0  0  0  0  0  0  0  0  0  0  0
   -3.0287   18.7794  -24.9233 H   0  0  0  0  0  0  0  0  0  0  0  0
   -4.2152   19.2308  -26.1942 H   0  0  0  0  0  0  0  0  0  0  0  0
   -3.4788   17.5924  -26.1942 H   0  0  0  0  0  0  0  0  0  0  0  0
   -4.3250   23.0400  -31.5290 N   0  0  0  0  0  0  0  0  0  0  0  0
   -5.5160   22.4210  -31.7250 C   0  0  0  0  0  0  0  0  0  0  0  0
  1  2  1  0
  2  3  2  0
  3  4  1  0
  4  5  1  0
  4  6  1  0
  4  7  1  0
  3  8  1  0
  8  9  1  0
  9 10  1  0
  9 11  1  0
  9 12  1  0
  8 13  2  0
 13 14  1  0
 13 15  1  0
 15 16  1  0
 16 17  1  0
 17 18  2  0
 18 19  1  0
 19 20  2  0
 19 21  1  0
 21 22  1  0
 22 23  1  0
 22 24  1  0
 22 25  1  0
 25 26  1  0
 25 27  1  0
 25 28  1  0
 28 29  1  0
 29 30  1  0
 29 31  1  0
 29 32  1  0
 32 33  1  0
 32 34  1  0
 32 35  1  0
 17 36  1  0
 36 37  1  0
 37  2  1  0
 37 15  2  0
M  CHG  2  21  -1  36  -1
M  END
>  <UniqueID>  (14) 
14

>  <SMILES>  (14) 
CCOCC[N-]C(=O)/N=c1\[n-]c2cc(C)c(C)cc2s1

>  <Energy>  (14) 
73.60753956585793

>  <Genealogy>  (14) 
CCOCC[N-]C(=O)N=c1[n-]c2cc(C)c(C)cc2s1 (protonated)
CCOCC[N-]C(=O)/N=c1\[n-]c2cc(C)c(C)cc2s1 (cis-trans isomerization)
CCOCC[N-]C(=O)/N=c1\[n-]c2cc(C)c(C)cc2s1 (3D coordinates assigned)
CCOCC[N-]C(=O)/N=c1\[n-]c2cc(C)c(C)cc2s1 (optimized conformer: 73.60753956585793 kcal/mol)

>  <smiles>  (14) 
CCOCCNC(=O)N=c1[nH]c2cc(C)c(C)cc2s1

>  <score_type>  (14) 
oracle

>  <origin>  (14) 
adg

>  <m_score__min__energy>  (14) 
-9.1099999999999994

>  <m_primary>  (14) 
energy

$$$$
14:0
     RDKit          3D

 92 95  0  0  0  0  0  0  0  0999 V2000
   -3.5000   18.5510  -25.9590 C   0  0  0  0  0  0  0  0  0  0  0  0
   -2.5580   19.0610  -27.0560 C   0  0  0  0  0  0  0  0  0  0  0  0
   -1.9920   20.3830  -26.7330 N   0  0  0  0  0  0  0  0  0  0  0  0
   -0.6310   20.5370  -27.2660 C   0  0  0  0  0  0  0  0  0  0  0  0
   -0.2490   22.0150  -27.3790 C   0  0  0  0  0  0  0  0  0  0  0  0
   -1.3230   22.8570  -26.8340 N   0  0  0  0  0  0  0  0  0  0  0  0
   -1.5630   24.0460  -27.6640 C   0  0  0  0  0  0  0  0  0  0  0  0
   -3.0420   24.4850  -27.6400 C   0  0  0  0  0  0  0  0  0  0  0  0
   -3.9950   23.2770  -27.6400 C   0  0  0  0  0  0  0  0  0  0  0  0
   -3.5260   22.1880  -28.5140 N   0  0  0  0  0  0  0  0  0  0  0  0
   -3.4940   22.5940  -29.9210 C   0  0  0  0  0  0  0  0  0  0  0  0
   -4.2010   21.5320  -30.7800 C   0  0  0  0  0  0  0  0  0  0  0  0
   -3.5390   21.3360  -32.1550 C   0  0  0  0  0  0  0  0  0  0  0  0
   -4.4720   21.3510  -33.3030 N   0  0  0  0  0  0  0  0  0  0  0  0
   -5.7020   20.6190  -33.0320 C   0  0  0  0  0  0  0  0  0  0  0  0
   -6.8520   21.3120  -32.5430 C   0  0  0  0  0  0  0  0  0  0  0  0
   -6.8710   22.7180  -32.3590 C   0  0  0  0  0  0  0  0  0  0  0  0
   -8.0350   23.3860  -32.0020 C   0  0  0  0  0  0  0  0  0  0  0  0
   -9.2130   22.6810  -31.8120 C   0  0  0  0  0  0  0  0  0  0  0  0
   -9.2160   21.3000  -31.9120 C   0  0  0  0  0  0  0  0  0  0  0  0
   -8.0300   20.5830  -32.2240 C   0  0  0  0  0  0  0  0  0  0  0  0
   -8.0150   19.2070  -32.2330 N   0  0  0  0  0  0  0  0  0  0  0  0
   -9.1030   18.4520  -31.5610 C   0  0  0  0  0  0  0  0  0  0  0  0
   -6.9880   18.5210  -32.8480 C   0  0  0  0  0  0  0  0  0  0  0  0
   -7.1270   17.1340  -33.1090 C   0  0  0  0  0  0  0  0  0  0  0  0
   -6.0950   16.3930  -33.6400 C   0  0  0  0  0  0  0  0  0  0  0  0
   -4.9060   17.0050  -33.9770 C   0  0  0  0  0  0  0  0  0  0  0  0
   -4.7410   18.4000  -33.8560 C   0  0  0  0  0  0  0  0  0  0  0  0
   -3.5900   19.0080  -34.3820 O   0  0  0  0  0  0  0  0  0  0  0  0
   -2.2790   18.4610  -34.5780 C   0  0  0  0  0  0  0  0  0  0  0  0
   -1.6820   17.9720  -33.2410 C   0  0  0  0  0  0  0  0  0  0  0  0
   -0.5040   18.7400  -32.7260 N   0  0  0  0  0  0  0  0  0  0  0  0
    0.7620   18.1810  -33.2790 C   0  0  0  0  0  0  0  0  0  0  0  0
   -0.4730   18.6680  -31.2220 C   0  0  0  0  0  0  0  0  0  0  0  0
   -1.1390   19.8700  -30.5430 C   0  0  0  0  0  0  0  0  0  0  0  0
   -0.3880   21.1610  -30.8900 C   0  0  0  0  0  0  0  0  0  0  0  0
    0.1100   21.1740  -32.3470 C   0  0  0  0  0  0  0  0  0  0  0  0
   -0.6430   20.1520  -33.2130 C   0  0  0  0  0  0  0  0  0  0  0  0
   -5.7890   19.1920  -33.2500 C   0  0  0  0  0  0  0  0  0  0  0  0
   -3.0728   18.7823  -24.9721 H   0  0  0  0  0  0  0  0  0  0  0  0
   -4.4791   19.0422  -26.0589 H   0  0  0  0  0  0  0  0  0  0  0  0
   -3.6239   17.4626  -26.0589 H   0  0  0  0  0  0  0  0  0  0  0  0
   -1.7338   18.3427  -27.1774 H   0  0  0  0  0  0  0  0  0  0  0  0
   -3.1416   19.1607  -27.9830 H   0  0  0  0  0  0  0  0  0  0  0  0
   -2.6040   21.1390  -27.1240 H   0  0  0  0  0  0  0  0  0  0  0  0
    0.0780   20.0329  -26.5928 H   0  0  0  0  0  0  0  0  0  0  0  0
   -0.5954   20.0885  -28.2698 H   0  0  0  0  0  0  0  0  0  0  0  0
    0.6773   22.1957  -26.8139 H   0  0  0  0  0  0  0  0  0  0  0  0
   -0.0961   22.2674  -28.4387 H   0  0  0  0  0  0  0  0  0  0  0  0
   -2.2070   22.3020  -26.7800 H   0  0  0  0  0  0  0  0  0  0  0  0
   -0.9421   24.8722  -27.2872 H   0  0  0  0  0  0  0  0  0  0  0  0
   -1.3033   23.7911  -28.7021 H   0  0  0  0  0  0  0  0  0  0  0  0
   -3.2221   25.0810  -26.7332 H   0  0  0  0  0  0  0  0  0  0  0  0
   -3.2386   25.0765  -28.5464 H   0  0  0  0  0  0  0  0  0  0  0  0
   -4.0783   22.8935  -26.6124 H   0  0  0  0  0  0  0  0  0  0  0  0
   -4.9674   23.6186  -28.0244 H   0  0  0  0  0  0  0  0  0  0  0  0
   -2.5770   21.8440  -28.2300 H   0  0  0  0  0  0  0  0  0  0  0  0
   -4.0086   23.5594  -30.0353 H   0  0  0  0  0  0  0  0  0  0  0  0
   -2.4488   22.6931  -30.2492 H   0  0  0  0  0  0  0  0  0  0  0  0
   -4.1801   20.5735  -30.2406 H   0  0  0  0  0  0  0  0  0  0  0  0
   -5.2294   21.8807  -30.9556 H   0  0  0  0  0  0  0  0  0  0  0  0
   -2.8061   22.1434  -32.2997 H   0  0  0  0  0  0  0  0  0  0  0  0
   -3.0853   20.3341  -32.1391 H   0  0  0  0  0  0  0  0  0  0  0  0
   -4.7300   22.3310  -33.5560 H   0  0  0  0  0  0  0  0  0  0  0  0
   -4.0020   21.0590  -34.1800 H   0  0  0  0  0  0  0  0  0  0  0  0
   -5.9436   23.2920  -32.5022 H   0  0  0  0  0  0  0  0  0  0  0  0
   -8.0220   24.4779  -31.8696 H   0  0  0  0  0  0  0  0  0  0  0  0
  -10.1449   23.2182  -31.5819 H   0  0  0  0  0  0  0  0  0  0  0  0
  -10.1533   20.7484  -31.7469 H   0  0  0  0  0  0  0  0  0  0  0  0
   -8.9861   18.5331  -30.4702 H   0  0  0  0  0  0  0  0  0  0  0  0
  -10.0765   18.8697  -31.8575 H   0  0  0  0  0  0  0  0  0  0  0  0
   -9.0524   17.3939  -31.8575 H   0  0  0  0  0  0  0  0  0  0  0  0
   -8.0823   16.6382  -32.8818 H   0  0  0  0  0  0  0  0  0  0  0  0
   -6.2192   15.3112  -33.7956 H   0  0  0  0  0  0  0  0  0  0  0  0
   -4.0703   16.3931  -34.3473 H   0  0  0  0  0  0  0  0  0  0  0  0
   -2.3429   17.6130  -35.2757 H   0  0  0  0  0  0  0  0  0  0  0  0
   -1.6274   19.2467  -34.9880 H   0  0  0  0  0  0  0  0  0  0  0  0
   -2.4749   18.0226  -32.4803 H   0  0  0  0  0  0  0  0  0  0  0  0
   -1.3095   16.9558  -33.4376 H   0  0  0  0  0  0  0  0  0  0  0  0
    1.4255   17.8880  -32.4520 H   0  0  0  0  0  0  0  0  0  0  0  0
    0.5347   17.2996  -33.8966 H   0  0  0  0  0  0  0  0  0  0  0  0
    1.2602   18.9428  -33.8966 H   0  0  0  0  0  0  0  0  0  0  0  0
   -0.9967   17.7539  -30.9055 H   0  0  0  0  0  0  0  0  0  0  0  0
    0.5841   18.6668  -30.9179 H   0  0  0  0  0  0  0  0  0  0  0  0
   -2.1799   19.9515  -30.8892 H   0  0  0  0  0  0  0  0  0  0  0  0
   -1.1146   19.7239  -29.4530 H   0  0  0  0  0  0  0  0  0  0  0  0
   -1.0647   22.0151  -30.7399 H   0  0  0  0  0  0  0  0  0  0  0  0
    0.4920   21.2252  -30.2331 H   0  0  0  0  0  0  0  0  0  0  0  0
   -0.0428   22.1790  -32.7672 H   0  0  0  0  0  0  0  0  0  0  0  0
    1.1766   20.9050  -32.3477 H   0  0  0  0  0  0  0  0  0  0  0  0
   -1.7107   20.4164  -33.2151 H   0  0  0  0  0  0  0  0  0  0  0  0
   -0.2022   20.1927  -34.2200 H   0  0  0  0  0  0  0  0  0  0  0  0
  1  2  1  0
  2  3  1  0
  3  4  1  0
  4  5  1  0
  5  6  1  0
  6  7  1  0
  7  8  1  0
  8  9  1  0
  9 10  1  0
 10 11  1  0
 11 12  1  0
 12 13  1  0
 13 14  1  0
 14 15  1  0
 15 16  2  0
 16 17  1  0
 17 18  2  0
 18 19  1  0
 19 20  2  0
 20 21  1  0
 21 22  2  0
 22 23  1  0
 22 24  1  0
 24 25  2  0
 25 26  1  0
 26 27  2  0
 27 28  1  0
 28 29  1  0
 29 30  1  0
 30 31  1  0
 31 32  1  0
 32 33  1  0
 32 34  1  0
 34 35  1  0
 35 36  1  0
 36 37  1  0
 37 38  1  0
 28 39  2  0
 39 15  1  0
 21 16  1  0
 39 24  1  0
 38 32  1  0
  1 40  1  0
  1 41  1  0
  1 42  1  0
  2 43  1  0
  2 44  1  0
  3 45  1  0
  4 46  1  0
  4 47  1  0
  5 48  1  0
  5 49  1  0
  6 50  1  0
  7 51  1  0
  7 52  1  0
  8 53  1  0
  8 54  1  0
  9 55  1  0
  9 56  1  0
 10 57  1  0
 11 58  1  0
 11 59  1  0
 12 60  1  0
 12 61  1  0
 13 62  1  0
 13 63  1  0
 14 64  1  0
 14 65  1  0
 17 66  1  0
 18 67  1  0
 19 68  1  0
 20 69  1  0
 23 70  1  0
 23 71  1  0
 23 72  1  0
 25 73  1  0
 26 74  1  0
 27 75  1  0
 30 76  1  0
 30 77  1  0
 31 78  1  0
 31 79  1  0
 33 80  1  0
 33 81  1  0
 33 82  1  0
 34 83  1  0
 34 84  1  0
 35 85  1  0
 35 86  1  0
 36 87  1  0
 36 88  1  0
 37 89  1  0
 37 90  1  0
 38 91  1  0
 38 92  1  0
M  CHG  3  14   1  22   1  32   1
M  END
>  <UniqueID>  (15) 
15

>  <SMILES>  (15) 
CCNCCNCCCNCCC[NH2+]c1c2ccccc2[n+](C)c2cccc(OCC[N+]3(C)CCCCC3)c12

>  <Energy>  (15) 
149.8261899191521

>  <Genealogy>  (15) 
CCNCCNCCCNCCC[NH2+]c1c2ccccc2[n+](C)c2cccc(OCC[N+]3(C)CCCCC3)c12 (protonated)
CCNCCNCCCNCCC[NH2+]c1c2ccccc2[n+](C)c2cccc(OCC[N+]3(C)CCCCC3)c12 (3D coordinates assigned)
CCNCCNCCCNCCC[NH2+]c1c2ccccc2[n+](C)c2cccc(OCC[N+]3(C)CCCCC3)c12 (nonaromatic ring conformer: 149.8261899191521 kcal/mol)

>  <smiles>  (15) 
CCNCCNCCCNCCCNc1c2ccccc2[n+](C)c2cccc(OCC[N+]3(C)CCCCC3)c12

>  <score_type>  (15) 
oracle

>  <origin>  (15) 
adg

>  <m_score__min__energy>  (15) 
-9.4600000000000009

>  <m_primary>  (15) 
energy

$$$$
15:0
     RDKit          3D

 45 45  0  0  0  0  0  0  0  0999 V2000
   -6.1550   25.3430  -29.4290 C   0  0  0  0  0  0  0  0  0  0  0  0
   -5.3120   25.6520  -30.6620 C   0  0  0  0  0  0  0  0  0  0  0  0
   -3.9060   25.2850  -30.4330 N   0  0  0  0  0  0  0  0  0  0  0  0
   -3.7940   24.1210  -29.5450 C   0  0  0  0  0  0  0  0  0  0  0  0
   -3.7790   22.8340  -30.3720 C   0  0  0  0  0  0  0  0  0  0  0  0
   -4.1580   23.1040  -31.7090 O   0  0  0  0  0  0  0  0  0  0  0  0
   -5.1170   22.1720  -32.1750 C   0  0  0  0  0  0  0  0  0  0  0  0
   -6.5430   22.6490  -31.8610 C   0  0  0  0  0  0  0  0  0  0  0  0
   -7.3490   21.6390  -30.9990 C   0  0  0  0  0  0  0  0  0  0  0  0
   -8.7840   21.4700  -31.3630 N   0  0  1  0  0  0  0  0  0  0  0  0
   -9.4030   22.6690  -31.9590 C   0  0  0  0  0  0  0  0  0  0  0  0
   -9.0850   20.2210  -32.1090 C   0  0  0  0  0  0  0  0  0  0  0  0
   -7.8780   19.3620  -32.4140 C   0  0  0  0  0  0  0  0  0  0  0  0
   -7.0090   19.7070  -33.4650 C   0  0  0  0  0  0  0  0  0  0  0  0
   -5.8950   18.9100  -33.7490 C   0  0  0  0  0  0  0  0  0  0  0  0
   -5.6340   17.7730  -32.9810 C   0  0  0  0  0  0  0  0  0  0  0  0
   -6.4820   17.4330  -31.9240 C   0  0  0  0  0  0  0  0  0  0  0  0
   -7.5970   18.2260  -31.6370 C   0  0  0  0  0  0  0  0  0  0  0  0
   -5.5705   25.5572  -28.5221 H   0  0  0  0  0  0  0  0  0  0  0  0
   -7.0603   25.9677  -29.4378 H   0  0  0  0  0  0  0  0  0  0  0  0
   -6.4421   24.2812  -29.4378 H   0  0  0  0  0  0  0  0  0  0  0  0
   -5.7001   25.0803  -31.5179 H   0  0  0  0  0  0  0  0  0  0  0  0
   -5.3678   26.7310  -30.8685 H   0  0  0  0  0  0  0  0  0  0  0  0
   -3.4960   25.0160  -31.3590 H   0  0  0  0  0  0  0  0  0  0  0  0
   -2.8618   24.1929  -28.9654 H   0  0  0  0  0  0  0  0  0  0  0  0
   -4.6562   24.1024  -28.8622 H   0  0  0  0  0  0  0  0  0  0  0  0
   -2.7650   22.4078  -30.3614 H   0  0  0  0  0  0  0  0  0  0  0  0
   -4.4928   22.1200  -29.9353 H   0  0  0  0  0  0  0  0  0  0  0  0
   -5.0075   22.0563  -33.2634 H   0  0  0  0  0  0  0  0  0  0  0  0
   -4.9483   21.2108  -31.6674 H   0  0  0  0  0  0  0  0  0  0  0  0
   -6.4809   23.6025  -31.3160 H   0  0  0  0  0  0  0  0  0  0  0  0
   -7.0712   22.7555  -32.8200 H   0  0  0  0  0  0  0  0  0  0  0  0
   -6.8614   20.6569  -31.0871 H   0  0  0  0  0  0  0  0  0  0  0  0
   -7.3480   22.0518  -29.9794 H   0  0  0  0  0  0  0  0  0  0  0  0
   -9.2790   21.3460  -30.4470 H   0  0  0  0  0  0  0  0  0  0  0  0
   -9.7491   23.3394  -31.1585 H   0  0  0  0  0  0  0  0  0  0  0  0
   -8.6627   23.1929  -32.5815 H   0  0  0  0  0  0  0  0  0  0  0  0
  -10.2588   22.3689  -32.5815 H   0  0  0  0  0  0  0  0  0  0  0  0
   -9.7878   19.6242  -31.5091 H   0  0  0  0  0  0  0  0  0  0  0  0
   -9.5000   20.5305  -33.0796 H   0  0  0  0  0  0  0  0  0  0  0  0
   -7.2062   20.6070  -34.0659 H   0  0  0  0  0  0  0  0  0  0  0  0
   -5.2239   19.1790  -34.5780 H   0  0  0  0  0  0  0  0  0  0  0  0
   -4.7602   17.1448  -33.2085 H   0  0  0  0  0  0  0  0  0  0  0  0
   -6.2721   16.5401  -31.3168 H   0  0  0  0  0  0  0  0  0  0  0  0
   -8.2574   17.9591  -30.7988 H   0  0  0  0  0  0  0  0  0  0  0  0
  1  2  1  0
  2  3  1  0
  3  4  1  0
  4  5  1  0
  5  6  1  0
  6  7  1  0
  7  8  1  0
  8  9  1  0
  9 10  1  0
 10 11  1  0
 10 12  1  0
 12 13  1  0
 13 14  2  0
 14 15  1  0
 15 16  2  0
 16 17  1  0
 17 18  2  0
 18 13  1  0
  1 19  1  0
  1 20  1  0
  1 21  1  0
  2 22  1  0
  2 23  1  0
  3 24  1  0
  4 25  1  0
  4 26  1  0
  5 27  1  0
  5 28  1  0
  7 29  1  0
  7 30  1  0
  8 31  1  0
  8 32  1  0
  9 33  1  0
  9 34  1  0
 10 35  1  1
 11 36  1  0
 11 37  1  0
 11 38  1  0
 12 39  1  0
 12 40  1  0
 14 41  1  0
 15 42  1  0
 16 43  1  0
 17 44  1  0
 18 45  1  0
M  CHG  1  10   1
M  END
>  <UniqueID>  (16) 
16

>  <SMILES>  (16) 
CCNCCOCCC[N@@H+](C)Cc1ccccc1

>  <Energy>  (16) 
48.2968007513801

>  <Genealogy>  (16) 
CCNCCOCCC[NH+](C)Cc1ccccc1 (protonated)
CCNCCOCCC[N@@H+](C)Cc1ccccc1 (chirality)
CCNCCOCCC[N@@H+](C)Cc1ccccc1 (3D coordinates assigned)
CCNCCOCCC[N@@H+](C)Cc1ccccc1 (optimized conformer: 48.2968007513801 kcal/mol)

>  <smiles>  (16) 
CCNCCOCCCN(C)Cc1ccccc1

>  <score_type>  (16) 
oracle

>  <origin>  (16) 
adg

>  <m_score__min__energy>  (16) 
-6.25

>  <m_primary>  (16) 
energy

$$$$
