0:0
     RDKit          3D

 60 63  0  0  0  0  0  0  0  0999 V2000
   -6.8200   24.6430  -30.3820 C   0  0  0  0  0  0  0  0  0  0  0  0
   -6.2850   23.4160  -31.0790 C   0  0  0  0  0  0  0  0  0  0  0  0
   -4.8900   23.2580  -31.2550 C   0  0  0  0  0  0  0  0  0  0  0  0
   -3.9860   24.2460  -30.8580 O   0  0  0  0  0  0  0  0  0  0  0  0
   -3.1270   24.0590  -29.7380 C   0  0  0  0  0  0  0  0  0  0  0  0
   -3.9400   23.7720  -28.4640 C   0  0  0  0  0  0  0  0  0  0  0  0
   -3.3080   24.2060  -27.1970 N   0  0  0  0  0  0  0  0  0  0  0  0
   -4.2220   24.9290  -26.3010 C   0  0  0  0  0  0  0  0  0  0  0  0
   -2.0500   24.9440  -27.3950 C   0  0  0  0  0  0  0  0  0  0  0  0
   -4.3820   22.0950  -31.8360 C   0  0  0  0  0  0  0  0  0  0  0  0
   -5.2360   21.0920  -32.2840 C   0  0  0  0  0  0  0  0  0  0  0  0
   -6.6280   21.2420  -32.1710 C   0  0  0  0  0  0  0  0  0  0  0  0
   -7.5090   20.2480  -32.6470 C   0  0  0  0  0  0  0  0  0  0  0  0
   -7.0240   19.0460  -33.2600 N   0  0  0  0  0  0  0  0  0  0  0  0
   -6.1330   19.1270  -34.4210 C   0  0  0  0  0  0  0  0  0  0  0  0
   -4.9590   18.1540  -34.2560 C   0  0  0  0  0  0  0  0  0  0  0  0
   -5.3980   16.8570  -33.7130 N   0  0  0  0  0  0  0  0  0  0  0  0
   -4.4100   15.8980  -33.2870 C   0  0  0  0  0  0  0  0  0  0  0  0
   -3.0490   16.0950  -33.5880 C   0  0  0  0  0  0  0  0  0  0  0  0
   -2.0900   15.1700  -33.1600 C   0  0  0  0  0  0  0  0  0  0  0  0
   -2.4790   14.0470  -32.4230 C   0  0  0  0  0  0  0  0  0  0  0  0
   -3.8270   13.8470  -32.1130 C   0  0  0  0  0  0  0  0  0  0  0  0
   -4.7900   14.7670  -32.5420 C   0  0  0  0  0  0  0  0  0  0  0  0
   -6.8290   16.5970  -33.5100 C   0  0  0  0  0  0  0  0  0  0  0  0
   -7.4480   17.7490  -32.7180 C   0  0  0  0  0  0  0  0  0  0  0  0
   -8.8860   20.4340  -32.5270 C   0  0  0  0  0  0  0  0  0  0  0  0
   -9.3780   21.5980  -31.9460 C   0  0  0  0  0  0  0  0  0  0  0  0
   -8.5260   22.5550  -31.4900 N   0  0  0  0  0  0  0  0  0  0  0  0
   -7.1640   22.4130  -31.5730 C   0  0  0  0  0  0  0  0  0  0  0  0
   -6.7585   24.5021  -29.2928 H   0  0  0  0  0  0  0  0  0  0  0  0
   -6.2224   25.5196  -30.6726 H   0  0  0  0  0  0  0  0  0  0  0  0
   -7.8690   24.8017  -30.6726 H   0  0  0  0  0  0  0  0  0  0  0  0
   -2.4566   23.2098  -29.9363 H   0  0  0  0  0  0  0  0  0  0  0  0
   -2.5455   24.9799  -29.5836 H   0  0  0  0  0  0  0  0  0  0  0  0
   -4.9073   24.2878  -28.5551 H   0  0  0  0  0  0  0  0  0  0  0  0
   -4.0276   22.6774  -28.4001 H   0  0  0  0  0  0  0  0  0  0  0  0
   -3.9542   24.7172  -25.2553 H   0  0  0  0  0  0  0  0  0  0  0  0
   -4.1407   26.0098  -26.4886 H   0  0  0  0  0  0  0  0  0  0  0  0
   -5.2551   24.6010  -26.4886 H   0  0  0  0  0  0  0  0  0  0  0  0
   -1.6163   25.1984  -26.4167 H   0  0  0  0  0  0  0  0  0  0  0  0
   -1.3423   24.3179  -27.9582 H   0  0  0  0  0  0  0  0  0  0  0  0
   -2.2512   25.8672  -27.9582 H   0  0  0  0  0  0  0  0  0  0  0  0
   -3.2942   21.9700  -31.9409 H   0  0  0  0  0  0  0  0  0  0  0  0
   -4.8188   20.1767  -32.7291 H   0  0  0  0  0  0  0  0  0  0  0  0
   -6.6956   18.8669  -35.3297 H   0  0  0  0  0  0  0  0  0  0  0  0
   -5.7414   20.1517  -34.5024 H   0  0  0  0  0  0  0  0  0  0  0  0
   -4.4917   17.9894  -35.2381 H   0  0  0  0  0  0  0  0  0  0  0  0
   -4.2433   18.5974  -33.5481 H   0  0  0  0  0  0  0  0  0  0  0  0
   -2.7379   16.9801  -34.1623 H   0  0  0  0  0  0  0  0  0  0  0  0
   -1.0288   15.3265  -33.4036 H   0  0  0  0  0  0  0  0  0  0  0  0
   -1.7239   13.3210  -32.0872 H   0  0  0  0  0  0  0  0  0  0  0  0
   -4.1314   12.9648  -31.5307 H   0  0  0  0  0  0  0  0  0  0  0  0
   -5.8497   14.6050  -32.2954 H   0  0  0  0  0  0  0  0  0  0  0  0
   -7.3287   16.5129  -34.4863 H   0  0  0  0  0  0  0  0  0  0  0  0
   -6.9558   15.6578  -32.9516 H   0  0  0  0  0  0  0  0  0  0  0  0
   -8.5442   17.6764  -32.7742 H   0  0  0  0  0  0  0  0  0  0  0  0
   -7.1108   17.6779  -31.6734 H   0  0  0  0  0  0  0  0  0  0  0  0
   -9.5807   19.6626  -32.8907 H   0  0  0  0  0  0  0  0  0  0  0  0
  -10.4642   21.7456  -31.8546 H   0  0  0  0  0  0  0  0  0  0  0  0
   -8.9600   23.4120  -31.0830 H   0  0  0  0  0  0  0  0  0  0  0  0
  1  2  1  0
  2  3  2  0
  3  4  1  0
  4  5  1  0
  5  6  1  0
  6  7  1  0
  7  8  1  0
  7  9  1  0
  3 10  1  0
 10 11  2  0
 11 12  1  0
 12 13  2  0
 13 14  1  0
 14 15  1  0
 15 16  1  0
 16 17  1  0
 17 18  1  0
 18 19  2  0
 19 20  1  0
 20 21  2  0
 21 22  1  0
 22 23  2  0
 17 24  1  0
 24 25  1  0
 13 26  1  0
 26 27  2  0
 27 28  1  0
 28 29  2  0
 29  2  1  0
 29 12  1  0
 25 14  1  0
 23 18  1  0
  1 30  1  0
  1 31  1  0
  1 32  1  0
  5 33  1  0
  5 34  1  0
  6 35  1  0
  6 36  1  0
  8 37  1  0
  8 38  1  0
  8 39  1  0
  9 40  1  0
  9 41  1  0
  9 42  1  0
 10 43  1  0
 11 44  1  0
 15 45  1  0
 15 46  1  0
 16 47  1  0
 16 48  1  0
 19 49  1  0
 20 50  1  0
 21 51  1  0
 22 52  1  0
 23 53  1  0
 24 54  1  0
 24 55  1  0
 25 56  1  0
 25 57  1  0
 26 58  1  0
 27 59  1  0
 28 60  1  0
M  CHG  1  28   1
M  END
>  <UniqueID>  (1) 
1

>  <SMILES>  (1) 
Cc1c(OCCN(C)C)ccc2c(N3CCN(c4ccccc4)CC3)cc[nH+]c12

>  <Energy>  (1) 
87.65600412050514

>  <Genealogy>  (1) 
Cc1c(OCCN(C)C)ccc2c(N3CCN(c4ccccc4)CC3)cc[nH+]c12 (protonated)
Cc1c(OCCN(C)C)ccc2c(N3CCN(c4ccccc4)CC3)cc[nH+]c12 (3D coordinates assigned)
Cc1c(OCCN(C)C)ccc2c(N3CCN(c4ccccc4)CC3)cc[nH+]c12 (nonaromatic ring conformer: 87.65600412050514 kcal/mol)

>  <smiles>  (1) 
Cc1c(OCCN(C)C)ccc2c(N3CCN(c4ccccc4)CC3)ccnc12

>  <score_type>  (1) 
oracle

>  <origin>  (1) 
adg

>  <m_score__min__energy>  (1) 
-8.5199999999999996

>  <m_primary>  (1) 
energy

$$$$
1:0
     RDKit          3D

 32 34  0  0  0  0  0  0  0  0999 V2000
   -4.3380   23.3880  -30.8180 Cl  0  0  0  0  0  0  0  0  0  0  0  0
   -5.8570   22.6300  -31.2640 C   0  0  0  0  0  0  0  0  0  0  0  0
   -6.9430   23.4180  -31.6500 C   0  0  0  0  0  0  0  0  0  0  0  0
   -8.1520   22.8170  -32.0070 C   0  0  0  0  0  0  0  0  0  0  0  0
   -8.2830   21.4200  -31.9940 C   0  0  0  0  0  0  0  0  0  0  0  0
   -7.1900   20.6220  -31.5900 C   0  0  0  0  0  0  0  0  0  0  0  0
   -5.9790   21.2390  -31.2320 C   0  0  0  0  0  0  0  0  0  0  0  0
   -7.2820   19.1090  -31.5970 C   0  0  2  0  0  0  0  0  0  0  0  0
   -6.4300   18.4910  -32.6960 C   0  0  0  0  0  0  0  0  0  0  0  0
   -6.1870   19.1590  -33.9140 C   0  0  0  0  0  0  0  0  0  0  0  0
   -5.4260   18.5500  -34.9170 C   0  0  0  0  0  0  0  0  0  0  0  0
   -4.9080   17.2680  -34.7220 C   0  0  0  0  0  0  0  0  0  0  0  0
   -5.1540   16.5900  -33.5260 C   0  0  0  0  0  0  0  0  0  0  0  0
   -5.9140   17.1940  -32.5200 C   0  0  0  0  0  0  0  0  0  0  0  0
   -8.7440   18.6230  -31.6900 C   0  0  0  0  0  0  0  0  0  0  0  0
   -9.5040   19.3840  -32.6910 N   0  0  0  0  0  0  0  0  0  0  0  0
   -9.6230   20.7990  -32.3090 C   0  0  0  0  0  0  0  0  0  0  0  0
   -6.8462   24.5135  -31.6729 H   0  0  0  0  0  0  0  0  0  0  0  0
   -9.0075   23.4431  -32.3004 H   0  0  0  0  0  0  0  0  0  0  0  0
   -5.1216   20.6223  -30.9246 H   0  0  0  0  0  0  0  0  0  0  0  0
   -6.8774   18.7657  -30.6335 H   0  0  0  0  0  0  0  0  0  0  0  0
   -6.5988   20.1660  -34.0763 H   0  0  0  0  0  0  0  0  0  0  0  0
   -5.2352   19.0817  -35.8609 H   0  0  0  0  0  0  0  0  0  0  0  0
   -4.3062   16.7921  -35.5103 H   0  0  0  0  0  0  0  0  0  0  0  0
   -4.7489   15.5785  -33.3752 H   0  0  0  0  0  0  0  0  0  0  0  0
   -6.1101   16.6510  -31.5837 H   0  0  0  0  0  0  0  0  0  0  0  0
   -8.7495   17.5594  -31.9704 H   0  0  0  0  0  0  0  0  0  0  0  0
   -9.2196   18.7731  -30.7096 H   0  0  0  0  0  0  0  0  0  0  0  0
   -9.0560   19.3020  -33.6320 H   0  0  0  0  0  0  0  0  0  0  0  0
  -10.4670   18.9770  -32.7580 H   0  0  0  0  0  0  0  0  0  0  0  0
  -10.0833   21.3528  -33.1405 H   0  0  0  0  0  0  0  0  0  0  0  0
  -10.2416   20.8525  -31.4010 H   0  0  0  0  0  0  0  0  0  0  0  0
  1  2  1  0
  2  3  2  0
  3  4  1  0
  4  5  2  0
  5  6  1  0
  6  7  2  0
  6  8  1  0
  8  9  1  0
  9 10  2  0
 10 11  1  0
 11 12  2  0
 12 13  1  0
 13 14  2  0
  8 15  1  0
 15 16  1  0
 16 17  1  0
  7  2  1  0
 14  9  1  0
 17  5  1  0
  3 18  1  0
  4 19  1  0
  7 20  1  0
  8 21  1  1
 10 22  1  0
 11 23  1  0
 12 24  1  0
 13 25  1  0
 14 26  1  0
 15 27  1  0
 15 28  1  0
 16 29  1  0
 16 30  1  0
 17 31  1  0
 17 32  1  0
M  CHG  1  16   1
M  END
>  <UniqueID>  (2) 
2

>  <SMILES>  (2) 
Clc1ccc2c(c1)[C@H](c1ccccc1)C[NH2+]C2

>  <Energy>  (2) 
37.518181590572965

>  <Genealogy>  (2) 
Clc1ccc2c(c1)C(c1ccccc1)C[NH2+]C2 (protonated)
Clc1ccc2c(c1)[C@H](c1ccccc1)C[NH2+]C2 (chirality)
Clc1ccc2c(c1)[C@H](c1ccccc1)C[NH2+]C2 (3D coordinates assigned)
Clc1ccc2c(c1)[C@H](c1ccccc1)C[NH2+]C2 (nonaromatic ring conformer: 37.518181590572965 kcal/mol)

>  <smiles>  (2) 
Clc1ccc2c(c1)C(c1ccccc1)CNC2

>  <score_type>  (2) 
oracle

>  <origin>  (2) 
adg

>  <m_score__min__energy>  (2) 
-7.21

>  <m_primary>  (2) 
energy

$$$$
2:0
     RDKit          3D

 38 40  0  0  0  0  0  0  0  0999 V2000
   -6.8330   15.6340  -34.2160 C   0  0  0  0  0  0  0  0  0  0  0  0
   -6.8660   16.7400  -33.1620 C   0  0  0  0  0  0  0  0  0  0  0  0
   -6.3110   18.0010  -33.7030 N   0  0  0  0  0  0  0  0  0  0  0  0
   -5.5650   17.8830  -34.9740 C   0  0  0  0  0  0  0  0  0  0  0  0
   -4.0830   17.6190  -34.7120 C   0  0  0  0  0  0  0  0  0  0  0  0
   -6.4770   19.1740  -33.1030 C   0  0  0  0  0  0  0  0  0  0  0  0
   -5.3970   20.0180  -32.7420 C   0  0  0  0  0  0  0  0  0  0  0  0
   -5.5680   21.2640  -32.1040 C   0  0  0  0  0  0  0  0  0  0  0  0
   -4.5290   22.0590  -31.7660 N   0  0  0  0  0  0  0  0  0  0  0  0
   -5.0630   23.1470  -31.1860 C   0  0  0  0  0  0  0  0  0  0  0  0
   -4.3640   24.2410  -30.6780 C   0  0  0  0  0  0  0  0  0  0  0  0
   -5.1020   25.2890  -30.1070 C   0  0  0  0  0  0  0  0  0  0  0  0
   -6.5090   25.2240  -30.0560 C   0  0  0  0  0  0  0  0  0  0  0  0
   -7.1920   24.1100  -30.5760 C   0  0  0  0  0  0  0  0  0  0  0  0
   -6.4390   23.0740  -31.1430 C   0  0  0  0  0  0  0  0  0  0  0  0
   -6.7880   21.8590  -31.7330 C   0  0  0  0  0  0  0  0  0  0  0  0
   -8.0470   21.2830  -31.9510 C   0  0  0  0  0  0  0  0  0  0  0  0
   -9.3500   21.9090  -31.5610 C   0  0  0  0  0  0  0  0  0  0  0  0
   -8.0390   19.7700  -32.7150 S   0  0  0  0  0  0  0  0  0  0  0  0
   -6.8037   14.6536  -33.7180 H   0  0  0  0  0  0  0  0  0  0  0  0
   -7.7335   15.6993  -34.8444 H   0  0  0  0  0  0  0  0  0  0  0  0
   -5.9380   15.7529  -34.8444 H   0  0  0  0  0  0  0  0  0  0  0  0
   -7.9071   16.9093  -32.8499 H   0  0  0  0  0  0  0  0  0  0  0  0
   -6.2541   16.4261  -32.3035 H   0  0  0  0  0  0  0  0  0  0  0  0
   -5.9813   17.0506  -35.5603 H   0  0  0  0  0  0  0  0  0  0  0  0
   -5.6617   18.8283  -35.5281 H   0  0  0  0  0  0  0  0  0  0  0  0
   -3.9024   17.5868  -33.6274 H   0  0  0  0  0  0  0  0  0  0  0  0
   -3.7973   16.6558  -35.1600 H   0  0  0  0  0  0  0  0  0  0  0  0
   -3.4823   18.4243  -35.1600 H   0  0  0  0  0  0  0  0  0  0  0  0
   -4.3741   19.6844  -32.9710 H   0  0  0  0  0  0  0  0  0  0  0  0
   -3.5130   21.8690  -31.9210 H   0  0  0  0  0  0  0  0  0  0  0  0
   -3.2657   24.2815  -30.7235 H   0  0  0  0  0  0  0  0  0  0  0  0
   -4.5796   26.1659  -29.6970 H   0  0  0  0  0  0  0  0  0  0  0  0
   -7.0774   26.0512  -29.6059 H   0  0  0  0  0  0  0  0  0  0  0  0
   -8.2899   24.0537  -30.5384 H   0  0  0  0  0  0  0  0  0  0  0  0
   -9.4256   21.9453  -30.4642 H   0  0  0  0  0  0  0  0  0  0  0  0
   -9.4019   22.9304  -31.9661 H   0  0  0  0  0  0  0  0  0  0  0  0
  -10.1798   21.3112  -31.9661 H   0  0  0  0  0  0  0  0  0  0  0  0
  1  2  1  0
  2  3  1  0
  3  4  1  0
  4  5  1  0
  3  6  2  3
  6  7  1  0
  7  8  2  0
  8  9  1  0
  9 10  1  0
 10 11  2  0
 11 12  1  0
 12 13  2  0
 13 14  1  0
 14 15  2  0
 15 16  1  0
 16 17  2  0
 17 18  1  0
 17 19  1  0
 19  6  1  0
 16  8  1  0
 15 10  1  0
  1 20  1  0
  1 21  1  0
  1 22  1  0
  2 23  1  0
  2 24  1  0
  4 25  1  0
  4 26  1  0
  5 27  1  0
  5 28  1  0
  5 29  1  0
  7 30  1  0
  9 31  1  0
 11 32  1  0
 12 33  1  0
 13 34  1  0
 14 35  1  0
 18 36  1  0
 18 37  1  0
 18 38  1  0
M  CHG  1   3   1
M  END
>  <UniqueID>  (3) 
3

>  <SMILES>  (3) 
CC[N+](CC)=c1cc2[nH]c3ccccc3c2c(C)s1

>  <Energy>  (3) 
80.57486312278463

>  <Genealogy>  (3) 
CC[N+](CC)=c1cc2[nH]c3ccccc3c2c(C)s1 (3D coordinates assigned)
CC[N+](CC)=c1cc2[nH]c3ccccc3c2c(C)s1 (optimized conformer: 80.57486312278463 kcal/mol)

>  <smiles>  (3) 
CC[N+](CC)=c1cc2[nH]c3ccccc3c2c(C)s1

>  <score_type>  (3) 
oracle

>  <origin>  (3) 
adg

>  <m_score__min__energy>  (3) 
-6.9199999999999999

>  <m_primary>  (3) 
energy

$$$$
3:0
     RDKit          3D

 47 48  0  0  0  0  0  0  0  0999 V2000
   -2.7010   15.8380  -33.9130 C   0  0  0  0  0  0  0  0  0  0  0  0
   -3.6070   16.6080  -34.6990 O   0  0  0  0  0  0  0  0  0  0  0  0
   -4.6000   17.4470  -34.1710 C   0  0  0  0  0  0  0  0  0  0  0  0
   -5.9250   17.0150  -33.9780 C   0  0  0  0  0  0  0  0  0  0  0  0
   -6.8820   17.8870  -33.4500 C   0  0  0  0  0  0  0  0  0  0  0  0
   -6.5300   19.1990  -33.1020 C   0  0  0  0  0  0  0  0  0  0  0  0
   -7.4820   20.0760  -32.5630 C   0  0  0  0  0  0  0  0  0  0  0  0
   -7.1250   21.3940  -32.2130 C   0  0  0  0  0  0  0  0  0  0  0  0
   -8.1370   22.3410  -31.6000 C   0  0  1  0  0  0  0  0  0  0  0  0
   -9.4590   21.6290  -31.2830 C   0  0  0  0  0  0  0  0  0  0  0  0
   -7.5490   23.0070  -30.3890 C   0  0  0  0  0  0  0  0  0  0  0  0
   -7.2570   22.3290  -29.3650 O   0  0  0  0  0  0  0  0  0  0  0  0
   -7.2660   24.3760  -30.4380 O   0  0  0  0  0  0  0  0  0  0  0  0
   -6.1220   24.9130  -31.0990 C   0  0  0  0  0  0  0  0  0  0  0  0
   -4.9330   24.8240  -30.1900 C   0  0  0  0  0  0  0  0  0  0  0  0
   -3.8160   25.2490  -30.5940 O   0  0  0  0  0  0  0  0  0  0  0  0
   -5.0490   24.1890  -28.9090 N   0  0  0  0  0  0  0  0  0  0  0  0
   -3.8790   23.8730  -28.0850 C   0  0  0  0  0  0  0  0  0  0  0  0
   -3.9880   24.5720  -26.7270 C   0  0  0  0  0  0  0  0  0  0  0  0
   -3.7530   22.3580  -27.9020 C   0  0  0  0  0  0  0  0  0  0  0  0
   -5.7980   21.8180  -32.4090 C   0  0  0  0  0  0  0  0  0  0  0  0
   -4.8450   20.9490  -32.9450 C   0  0  0  0  0  0  0  0  0  0  0  0
   -5.2000   19.6370  -33.2940 C   0  0  0  0  0  0  0  0  0  0  0  0
   -4.2470   18.7570  -33.8270 C   0  0  0  0  0  0  0  0  0  0  0  0
   -2.9037   16.0103  -32.8457 H   0  0  0  0  0  0  0  0  0  0  0  0
   -2.8317   14.7704  -34.1434 H   0  0  0  0  0  0  0  0  0  0  0  0
   -1.6684   16.1391  -34.1434 H   0  0  0  0  0  0  0  0  0  0  0  0
   -6.2094   15.9862  -34.2438 H   0  0  0  0  0  0  0  0  0  0  0  0
   -7.9166   17.5420  -33.3068 H   0  0  0  0  0  0  0  0  0  0  0  0
   -8.5161   19.7327  -32.4120 H   0  0  0  0  0  0  0  0  0  0  0  0
   -8.3765   23.1223  -32.3364 H   0  0  0  0  0  0  0  0  0  0  0  0
   -9.5862   21.5605  -30.1925 H   0  0  0  0  0  0  0  0  0  0  0  0
  -10.2950   22.1988  -31.7146 H   0  0  0  0  0  0  0  0  0  0  0  0
   -9.4433   20.6173  -31.7146 H   0  0  0  0  0  0  0  0  0  0  0  0
   -5.9258   24.3394  -32.0169 H   0  0  0  0  0  0  0  0  0  0  0  0
   -6.3082   25.9658  -31.3578 H   0  0  0  0  0  0  0  0  0  0  0  0
   -5.9990   23.8950  -28.5830 H   0  0  0  0  0  0  0  0  0  0  0  0
   -2.9750   24.2373  -28.5950 H   0  0  0  0  0  0  0  0  0  0  0  0
   -3.8724   23.8306  -25.9227 H   0  0  0  0  0  0  0  0  0  0  0  0
   -3.1975   25.3322  -26.6414 H   0  0  0  0  0  0  0  0  0  0  0  0
   -4.9724   25.0554  -26.6414 H   0  0  0  0  0  0  0  0  0  0  0  0
   -3.7331   22.1187  -26.8285 H   0  0  0  0  0  0  0  0  0  0  0  0
   -4.6127   21.8590  -28.3730 H   0  0  0  0  0  0  0  0  0  0  0  0
   -2.8226   22.0079  -28.3730 H   0  0  0  0  0  0  0  0  0  0  0  0
   -5.5082   22.8438  -32.1375 H   0  0  0  0  0  0  0  0  0  0  0  0
   -3.8114   21.2946  -33.0943 H   0  0  0  0  0  0  0  0  0  0  0  0
   -3.2124   19.0995  -33.9761 H   0  0  0  0  0  0  0  0  0  0  0  0
  1  2  1  0
  2  3  1  0
  3  4  2  0
  4  5  1  0
  5  6  2  0
  6  7  1  0
  7  8  2  0
  8  9  1  0
  9 10  1  0
  9 11  1  0
 11 12  2  0
 11 13  1  0
 13 14  1  0
 14 15  1  0
 15 16  2  0
 15 17  1  0
 17 18  1  0
 18 19  1  0
 18 20  1  0
  8 21  1  0
 21 22  2  0
 22 23  1  0
 23 24  2  0
 24  3  1  0
 23  6  1  0
  1 25  1  0
  1 26  1  0
  1 27  1  0
  4 28  1  0
  5 29  1  0
  7 30  1  0
  9 31  1  6
 10 32  1  0
 10 33  1  0
 10 34  1  0
 14 35  1  0
 14 36  1  0
 17 37  1  0
 18 38  1  0
 19 39  1  0
 19 40  1  0
 19 41  1  0
 20 42  1  0
 20 43  1  0
 20 44  1  0
 21 45  1  0
 22 46  1  0
 24 47  1  0
M  END
>  <UniqueID>  (4) 
4

>  <SMILES>  (4) 
COc1ccc2cc([C@@H](C)C(=O)OCC(=O)NC(C)C)ccc2c1

>  <Energy>  (4) 
36.74400595469476

>  <Genealogy>  (4) 
COc1ccc2cc([C@@H](C)C(=O)OCC(=O)NC(C)C)ccc2c1 (chirality)
COc1ccc2cc([C@@H](C)C(=O)OCC(=O)NC(C)C)ccc2c1 (3D coordinates assigned)
COc1ccc2cc([C@@H](C)C(=O)OCC(=O)NC(C)C)ccc2c1 (optimized conformer: 36.74400595469476 kcal/mol)

>  <smiles>  (4) 
COc1ccc2cc(C(C)C(=O)OCC(=O)NC(C)C)ccc2c1

>  <score_type>  (4) 
oracle

>  <origin>  (4) 
adg

>  <m_score__min__energy>  (4) 
-8.9900000000000002

>  <m_primary>  (4) 
energy

$$$$
4:0
     RDKit          3D

 48 50  0  0  0  0  0  0  0  0999 V2000
   -3.4680   18.5470  -25.7550 C   0  0  0  0  0  0  0  0  0  0  0  0
   -2.3960   18.9710  -26.7540 C   0  0  0  0  0  0  0  0  0  0  0  0
   -2.8240   20.2340  -27.5220 C   0  0  0  0  0  0  0  0  0  0  0  0
   -1.9650   20.5070  -28.6860 N   0  0  0  0  0  0  0  0  0  0  0  0
   -1.5190   21.9070  -28.7430 C   0  0  0  0  0  0  0  0  0  0  0  0
   -1.8950   22.6480  -27.4550 C   0  0  0  0  0  0  0  0  0  0  0  0
   -2.7400   23.9200  -27.6850 C   0  0  0  0  0  0  0  0  0  0  0  0
   -2.1550   24.8950  -28.7270 C   0  0  0  0  0  0  0  0  0  0  0  0
   -3.1280   25.2430  -29.7150 O   0  0  0  0  0  0  0  0  0  0  0  0
   -4.2800   24.5050  -30.0260 C   0  0  0  0  0  0  0  0  0  0  0  0
   -5.5670   25.0660  -30.0100 C   0  0  0  0  0  0  0  0  0  0  0  0
   -6.6690   24.3070  -30.4100 C   0  0  0  0  0  0  0  0  0  0  0  0
   -6.5060   22.9740  -30.8260 C   0  0  0  0  0  0  0  0  0  0  0  0
   -5.2210   22.3930  -30.8000 C   0  0  0  0  0  0  0  0  0  0  0  0
   -4.1230   23.1610  -30.3780 C   0  0  0  0  0  0  0  0  0  0  0  0
   -5.0330   20.9910  -31.2440 C   0  0  0  0  0  0  0  0  0  0  0  0
   -3.8860   20.4670  -31.2070 O   0  0  0  0  0  0  0  0  0  0  0  0
   -6.1880   20.2090  -31.7410 C   0  0  0  0  0  0  0  0  0  0  0  0
   -6.0170   18.8870  -32.1940 C   0  0  0  0  0  0  0  0  0  0  0  0
   -7.1090   18.1550  -32.6660 C   0  0  0  0  0  0  0  0  0  0  0  0
   -8.3790   18.7290  -32.6910 C   0  0  0  0  0  0  0  0  0  0  0  0
   -8.5640   20.0390  -32.2450 C   0  0  0  0  0  0  0  0  0  0  0  0
   -7.4750   20.7900  -31.7670 C   0  0  0  0  0  0  0  0  0  0  0  0
   -7.6660   22.1830  -31.2980 C   0  0  0  0  0  0  0  0  0  0  0  0
   -8.8180   22.6980  -31.3060 O   0  0  0  0  0  0  0  0  0  0  0  0
   -3.0941   18.6949  -24.7311 H   0  0  0  0  0  0  0  0  0  0  0  0
   -4.3718   19.1554  -25.9067 H   0  0  0  0  0  0  0  0  0  0  0  0
   -3.7111   17.4850  -25.9067 H   0  0  0  0  0  0  0  0  0  0  0  0
   -1.4618   19.1793  -26.2119 H   0  0  0  0  0  0  0  0  0  0  0  0
   -2.2493   18.1550  -27.4769 H   0  0  0  0  0  0  0  0  0  0  0  0
   -3.8585   20.1004  -27.8712 H   0  0  0  0  0  0  0  0  0  0  0  0
   -2.7350   21.0881  -26.8346 H   0  0  0  0  0  0  0  0  0  0  0  0
   -2.4900   20.2780  -29.5630 H   0  0  0  0  0  0  0  0  0  0  0  0
   -0.4265   21.9331  -28.8689 H   0  0  0  0  0  0  0  0  0  0  0  0
   -2.0129   22.4013  -29.5925 H   0  0  0  0  0  0  0  0  0  0  0  0
   -2.4704   21.9615  -26.8165 H   0  0  0  0  0  0  0  0  0  0  0  0
   -0.9532   22.9721  -26.9882 H   0  0  0  0  0  0  0  0  0  0  0  0
   -3.7395   23.6119  -28.0256 H   0  0  0  0  0  0  0  0  0  0  0  0
   -2.7604   24.4602  -26.7270 H   0  0  0  0  0  0  0  0  0  0  0  0
   -1.8214   25.8095  -28.2147 H   0  0  0  0  0  0  0  0  0  0  0  0
   -1.3104   24.4010  -29.2297 H   0  0  0  0  0  0  0  0  0  0  0  0
   -5.7077   26.1063  -29.6815 H   0  0  0  0  0  0  0  0  0  0  0  0
   -7.6731   24.7560  -30.3995 H   0  0  0  0  0  0  0  0  0  0  0  0
   -3.1263   22.6988  -30.3238 H   0  0  0  0  0  0  0  0  0  0  0  0
   -5.0176   18.4279  -32.1761 H   0  0  0  0  0  0  0  0  0  0  0  0
   -6.9664   17.1229  -33.0189 H   0  0  0  0  0  0  0  0  0  0  0  0
   -9.2366   18.1490  -33.0626 H   0  0  0  0  0  0  0  0  0  0  0  0
   -9.5684   20.4869  -32.2676 H   0  0  0  0  0  0  0  0  0  0  0  0
  1  2  1  0
  2  3  1  0
  3  4  1  0
  4  5  1  0
  5  6  1  0
  6  7  1  0
  7  8  1  0
  8  9  1  0
  9 10  1  0
 10 11  2  0
 11 12  1  0
 12 13  2  0
 13 14  1  0
 14 15  2  0
 14 16  1  0
 16 17  2  0
 16 18  1  0
 18 19  2  0
 19 20  1  0
 20 21  2  0
 21 22  1  0
 22 23  2  0
 23 24  1  0
 24 25  2  0
 15 10  1  0
 23 18  1  0
 24 13  1  0
  1 26  1  0
  1 27  1  0
  1 28  1  0
  2 29  1  0
  2 30  1  0
  3 31  1  0
  3 32  1  0
  4 33  1  0
  5 34  1  0
  5 35  1  0
  6 36  1  0
  6 37  1  0
  7 38  1  0
  7 39  1  0
  8 40  1  0
  8 41  1  0
 11 42  1  0
 12 43  1  0
 15 44  1  0
 19 45  1  0
 20 46  1  0
 21 47  1  0
 22 48  1  0
M  END
>  <UniqueID>  (5) 
5

>  <SMILES>  (5) 
CCCNCCCCOc1ccc2c(c1)C(=O)c1ccccc1C2=O

>  <Energy>  (5) 
49.175148918564425

>  <Genealogy>  (5) 
CCCNCCCCOc1ccc2c(c1)C(=O)c1ccccc1C2=O (3D coordinates assigned)
CCCNCCCCOc1ccc2c(c1)C(=O)c1ccccc1C2=O (nonaromatic ring conformer: 49.175148918564425 kcal/mol)

>  <smiles>  (5) 
CCCNCCCCOc1ccc2c(c1)C(=O)c1ccccc1C2=O

>  <score_type>  (5) 
oracle

>  <origin>  (5) 
adg

>  <m_score__min__energy>  (5) 
-8.6899999999999995

>  <m_primary>  (5) 
energy

$$$$
5:0
     RDKit          3D

 38 39  0  0  0  0  0  0  0  0999 V2000
   -9.0620   18.8590  -31.6810 C   0  0  0  0  0  0  0  0  0  0  0  0
   -8.1100   19.8130  -32.4230 C   0  0  0  0  0  0  0  0  0  0  0  0
   -8.4040   21.2540  -32.2060 N   0  0  1  0  0  0  0  0  0  0  0  0
   -9.8450   21.4810  -31.9830 C   0  0  0  0  0  0  0  0  0  0  0  0
   -7.5940   21.8600  -31.1530 C   0  0  0  0  0  0  0  0  0  0  0  0
   -7.9870   21.8770  -29.9940 O   0  0  0  0  0  0  0  0  0  0  0  0
   -6.2160   22.4200  -31.4350 C   0  0  1  0  0  0  0  0  0  0  0  0
   -5.2110   21.4850  -32.0680 C   0  0  0  0  0  0  0  0  0  0  0  0
   -4.2330   21.9780  -32.9480 C   0  0  0  0  0  0  0  0  0  0  0  0
   -3.2750   21.1180  -33.4930 C   0  0  0  0  0  0  0  0  0  0  0  0
   -3.2730   19.7630  -33.1510 C   0  0  0  0  0  0  0  0  0  0  0  0
   -1.9610   18.5900  -33.8950 Br  0  0  0  0  0  0  0  0  0  0  0  0
   -4.2270   19.2680  -32.2560 C   0  0  0  0  0  0  0  0  0  0  0  0
   -5.1860   20.1260  -31.7100 C   0  0  0  0  0  0  0  0  0  0  0  0
   -6.2570   23.8190  -32.0650 C   0  0  0  0  0  0  0  0  0  0  0  0
   -5.7570   23.6510  -30.6370 C   0  0  2  0  0  0  0  0  0  0  0  0
   -4.2460   23.8950  -30.4600 C   0  0  0  0  0  0  0  0  0  0  0  0
   -3.9280   25.3110  -30.6240 N   0  0  0  0  0  0  0  0  0  0  0  0
   -8.9356   18.9857  -30.5957 H   0  0  0  0  0  0  0  0  0  0  0  0
  -10.1013   19.0890  -31.9584 H   0  0  0  0  0  0  0  0  0  0  0  0
   -8.8298   17.8202  -31.9584 H   0  0  0  0  0  0  0  0  0  0  0  0
   -7.0843   19.6141  -32.0790 H   0  0  0  0  0  0  0  0  0  0  0  0
   -8.2424   19.6206  -33.4979 H   0  0  0  0  0  0  0  0  0  0  0  0
   -8.1500   21.7400  -33.0980 H   0  0  0  0  0  0  0  0  0  0  0  0
  -10.0482   21.5130  -30.9024 H   0  0  0  0  0  0  0  0  0  0  0  0
  -10.1407   22.4368  -32.4402 H   0  0  0  0  0  0  0  0  0  0  0  0
  -10.4202   20.6624  -32.4402 H   0  0  0  0  0  0  0  0  0  0  0  0
   -4.2210   23.0464  -33.2096 H   0  0  0  0  0  0  0  0  0  0  0  0
   -2.5212   21.5087  -34.1925 H   0  0  0  0  0  0  0  0  0  0  0  0
   -4.2226   18.2028  -31.9816 H   0  0  0  0  0  0  0  0  0  0  0  0
   -5.9257   19.7352  -30.9957 H   0  0  0  0  0  0  0  0  0  0  0  0
   -5.5508   24.0810  -32.8667 H   0  0  0  0  0  0  0  0  0  0  0  0
   -7.0341   24.4297  -32.5479 H   0  0  0  0  0  0  0  0  0  0  0  0
   -6.0187   24.0447  -29.6438 H   0  0  0  0  0  0  0  0  0  0  0  0
   -3.9437   23.5715  -29.4530 H   0  0  0  0  0  0  0  0  0  0  0  0
   -3.7034   23.3202  -31.2250 H   0  0  0  0  0  0  0  0  0  0  0  0
   -4.1910   25.6040  -31.5930 H   0  0  0  0  0  0  0  0  0  0  0  0
   -4.5100   25.8670  -29.9570 H   0  0  0  0  0  0  0  0  0  0  0  0
  1  2  1  0
  2  3  1  0
  3  4  1  0
  3  5  1  0
  5  6  2  0
  7  5  1  1
  7  8  1  0
  8  9  2  0
  9 10  1  0
 10 11  2  0
 11 12  1  0
 11 13  1  0
 13 14  2  0
  7 15  1  0
 15 16  1  0
 16 17  1  0
 17 18  1  0
 16  7  1  0
 14  8  1  0
  1 19  1  0
  1 20  1  0
  1 21  1  0
  2 22  1  0
  2 23  1  0
  3 24  1  6
  4 25  1  0
  4 26  1  0
  4 27  1  0
  9 28  1  0
 10 29  1  0
 13 30  1  0
 14 31  1  0
 15 32  1  0
 15 33  1  0
 16 34  1  1
 17 35  1  0
 17 36  1  0
 18 37  1  0
 18 38  1  0
M  CHG  1   3   1
M  END
>  <UniqueID>  (6) 
6

>  <SMILES>  (6) 
CC[N@@H+](C)C(=O)[C@@]1(c2ccc(Br)cc2)CC1CN

>  <Energy>  (6) 
308.4052667186541

>  <Genealogy>  (6) 
CC[NH+](C)C(=O)C1(c2ccc(Br)cc2)CC1CN (protonated)
CC[N@@H+](C)C(=O)[C@@]1(c2ccc(Br)cc2)CC1CN (chirality)
CC[N@@H+](C)C(=O)[C@@]1(c2ccc(Br)cc2)CC1CN (3D coordinates assigned)
CC[N@@H+](C)C(=O)[C@@]1(c2ccc(Br)cc2)CC1CN (nonaromatic ring conformer: 308.4052667186541 kcal/mol)

>  <smiles>  (6) 
CCN(C)C(=O)C1(c2ccc(Br)cc2)CC1CN

>  <score_type>  (6) 
oracle

>  <origin>  (6) 
adg

>  <m_score__min__energy>  (6) 
-6.8700000000000001

>  <m_primary>  (6) 
energy

$$$$
6:0
     RDKit          3D

 55 58  0  0  0  0  0  0  0  0999 V2000
   -7.1240   23.0350  -30.1850 C   0  0  0  0  0  0  0  0  0  0  0  0
   -7.4650   23.1940  -31.6690 C   0  0  0  0  0  0  0  0  0  0  0  0
   -7.8280   21.9180  -32.3060 N   0  0  0  0  0  0  0  0  0  0  0  0
   -8.8580   21.1660  -31.5620 C   0  0  0  0  0  0  0  0  0  0  0  0
   -9.2150   19.8390  -32.2570 C   0  0  0  0  0  0  0  0  0  0  0  0
   -8.1750   18.7470  -31.9760 C   0  0  0  0  0  0  0  0  0  0  0  0
   -6.8710   19.1970  -32.2910 O   0  0  0  0  0  0  0  0  0  0  0  0
   -6.4660   18.7140  -33.5560 C   0  0  0  0  0  0  0  0  0  0  0  0
   -5.0620   19.2250  -33.8680 C   0  0  0  0  0  0  0  0  0  0  0  0
   -4.2260   19.2570  -32.6640 N   0  0  0  0  0  0  0  0  0  0  0  0
   -3.9120   20.4680  -31.9510 C   0  0  0  0  0  0  0  0  0  0  0  0
   -4.4260   21.6840  -32.4130 C   0  0  0  0  0  0  0  0  0  0  0  0
   -4.1320   22.8780  -31.7570 C   0  0  0  0  0  0  0  0  0  0  0  0
   -3.3240   22.8830  -30.6070 C   0  0  0  0  0  0  0  0  0  0  0  0
   -3.0040   24.0950  -29.9690 C   0  0  0  0  0  0  0  0  0  0  0  0
   -3.5040   25.2960  -30.4690 O   0  0  0  0  0  0  0  0  0  0  0  0
   -2.1760   24.1020  -28.8330 C   0  0  0  0  0  0  0  0  0  0  0  0
   -1.8370   25.3150  -28.2020 C   0  0  0  0  0  0  0  0  0  0  0  0
   -1.0190   25.3210  -27.0710 C   0  0  0  0  0  0  0  0  0  0  0  0
   -0.5310   24.1230  -26.5540 C   0  0  0  0  0  0  0  0  0  0  0  0
   -0.8570   22.9100  -27.1640 C   0  0  0  0  0  0  0  0  0  0  0  0
   -1.6790   22.8800  -28.3110 C   0  0  0  0  0  0  0  0  0  0  0  0
   -2.0250   21.6570  -28.9250 C   0  0  0  0  0  0  0  0  0  0  0  0
   -1.5540   20.4290  -28.3440 N   0  0  0  0  0  0  0  0  0  0  0  0
   -2.2230   19.7940  -27.4340 C   0  0  0  0  0  0  0  0  0  0  0  0
   -3.4240   19.5060  -26.8200 C   0  0  0  0  0  0  0  0  0  0  0  0
   -2.2610   18.9150  -26.3720 C   0  0  0  0  0  0  0  0  0  0  0  0
   -2.8190   21.6570  -30.1020 C   0  0  0  0  0  0  0  0  0  0  0  0
   -3.1010   20.4640  -30.8020 C   0  0  0  0  0  0  0  0  0  0  0  0
   -7.9534   23.4217  -29.5747 H   0  0  0  0  0  0  0  0  0  0  0  0
   -6.9663   21.9705  -29.9570 H   0  0  0  0  0  0  0  0  0  0  0  0
   -6.2072   23.5985  -29.9570 H   0  0  0  0  0  0  0  0  0  0  0  0
   -8.3128   23.8886  -31.7633 H   0  0  0  0  0  0  0  0  0  0  0  0
   -6.5682   23.5772  -32.1778 H   0  0  0  0  0  0  0  0  0  0  0  0
   -6.9680   21.3440  -32.4700 H   0  0  0  0  0  0  0  0  0  0  0  0
   -8.4793   20.9480  -30.5525 H   0  0  0  0  0  0  0  0  0  0  0  0
   -9.7671   21.7839  -31.5199 H   0  0  0  0  0  0  0  0  0  0  0  0
  -10.1952   19.4988  -31.8915 H   0  0  0  0  0  0  0  0  0  0  0  0
   -9.2361   20.0179  -33.3421 H   0  0  0  0  0  0  0  0  0  0  0  0
   -8.2151   18.4775  -30.9103 H   0  0  0  0  0  0  0  0  0  0  0  0
   -8.4056   17.8731  -32.6029 H   0  0  0  0  0  0  0  0  0  0  0  0
   -6.4622   17.6141  -33.5448 H   0  0  0  0  0  0  0  0  0  0  0  0
   -7.1661   19.0695  -34.3264 H   0  0  0  0  0  0  0  0  0  0  0  0
   -4.5957   18.5604  -34.6102 H   0  0  0  0  0  0  0  0  0  0  0  0
   -5.1449   20.2495  -34.2599 H   0  0  0  0  0  0  0  0  0  0  0  0
   -3.8200   18.3610  -32.3110 H   0  0  0  0  0  0  0  0  0  0  0  0
   -5.0699   21.6981  -33.3047 H   0  0  0  0  0  0  0  0  0  0  0  0
   -4.5362   23.8255  -32.1430 H   0  0  0  0  0  0  0  0  0  0  0  0
   -2.2199   26.2648  -28.6037 H   0  0  0  0  0  0  0  0  0  0  0  0
   -0.7591   26.2739  -26.5868 H   0  0  0  0  0  0  0  0  0  0  0  0
    0.1132   24.1326  -25.6624 H   0  0  0  0  0  0  0  0  0  0  0  0
   -0.4695   21.9689  -26.7467 H   0  0  0  0  0  0  0  0  0  0  0  0
   -4.5124   19.6455  -26.7436 H   0  0  0  0  0  0  0  0  0  0  0  0
   -1.7430   18.2381  -25.6767 H   0  0  0  0  0  0  0  0  0  0  0  0
   -2.6788   19.5141  -30.4423 H   0  0  0  0  0  0  0  0  0  0  0  0
  1  2  1  0
  2  3  1  0
  3  4  1  0
  4  5  1  0
  5  6  1  0
  6  7  1  0
  7  8  1  0
  8  9  1  0
  9 10  1  0
 10 11  1  0
 11 12  2  0
 12 13  1  0
 13 14  2  0
 14 15  1  0
 15 16  1  0
 15 17  2  0
 17 18  1  0
 18 19  2  0
 19 20  1  0
 20 21  2  0
 21 22  1  0
 22 23  2  0
 23 24  1  0
 24 25  2  3
 25 26  1  0
 26 27  2  0
 23 28  1  0
 28 29  2  0
 29 11  1  0
 28 14  1  0
 22 17  1  0
 27 25  1  0
  1 30  1  0
  1 31  1  0
  1 32  1  0
  2 33  1  0
  2 34  1  0
  3 35  1  0
  4 36  1  0
  4 37  1  0
  5 38  1  0
  5 39  1  0
  6 40  1  0
  6 41  1  0
  8 42  1  0
  8 43  1  0
  9 44  1  0
  9 45  1  0
 10 46  1  0
 12 47  1  0
 13 48  1  0
 18 49  1  0
 19 50  1  0
 20 51  1  0
 21 52  1  0
 26 53  1  0
 27 54  1  0
 29 55  1  0
M  CHG  1  16  -1
M  END
>  <UniqueID>  (7) 
7

>  <SMILES>  (7) 
CCNCCCOCCNc1ccc2c([O-])c3ccccc3c(N=c3cc3)c2c1

>  <Energy>  (7) 
67.42358819943985

>  <Genealogy>  (7) 
CCNCCCOCCNc1ccc2c([O-])c3ccccc3c(N=c3cc3)c2c1 (protonated)
CCNCCCOCCNc1ccc2c([O-])c3ccccc3c(N=c3cc3)c2c1 (3D coordinates assigned)
CCNCCCOCCNc1ccc2c([O-])c3ccccc3c(N=c3cc3)c2c1 (optimized conformer: 67.42358819943985 kcal/mol)

>  <smiles>  (7) 
CCNCCCOCCNc1ccc2c(O)c3ccccc3c(N=c3cc3)c2c1

>  <score_type>  (7) 
oracle

>  <origin>  (7) 
adg

>  <m_score__min__energy>  (7) 
-11.17

>  <m_primary>  (7) 
energy

$$$$
7:0
     RDKit          3D

 51 53  0  0  0  0  0  0  0  0999 V2000
   -3.9660   22.6790  -28.6370 C   0  0  0  0  0  0  0  0  0  0  0  0
   -3.9300   24.1660  -28.9890 C   0  0  0  0  0  0  0  0  0  0  0  0
   -5.1500   24.8440  -28.5190 N   0  0  0  0  0  0  0  0  0  0  0  0
   -5.9820   25.3340  -29.6320 C   0  0  0  0  0  0  0  0  0  0  0  0
   -5.6050   24.6840  -30.9740 C   0  0  0  0  0  0  0  0  0  0  0  0
   -6.4350   23.4220  -31.2270 C   0  0  0  0  0  0  0  0  0  0  0  0
   -6.0210   22.7720  -32.4710 N   0  0  0  0  0  0  0  0  0  0  0  0
   -5.9210   21.3420  -32.5780 C   0  0  0  0  0  0  0  0  0  0  0  0
   -7.0720   20.5470  -32.4650 C   0  0  0  0  0  0  0  0  0  0  0  0
   -8.3480   21.1370  -32.3350 C   0  0  0  0  0  0  0  0  0  0  0  0
   -9.4910   20.3460  -32.2570 C   0  0  0  0  0  0  0  0  0  0  0  0
   -9.3870   18.9620  -32.3200 C   0  0  0  0  0  0  0  0  0  0  0  0
   -8.1350   18.3560  -32.4360 C   0  0  0  0  0  0  0  0  0  0  0  0
   -6.9480   19.1320  -32.4760 C   0  0  0  0  0  0  0  0  0  0  0  0
   -5.6960   18.5470  -32.5360 N   0  0  0  0  0  0  0  0  0  0  0  0
   -5.5410   17.1030  -32.2520 C   0  0  0  0  0  0  0  0  0  0  0  0
   -4.5890   19.3160  -32.8450 C   0  0  0  0  0  0  0  0  0  0  0  0
   -3.3470   18.7280  -33.1900 C   0  0  0  0  0  0  0  0  0  0  0  0
   -2.2310   19.5150  -33.4710 C   0  0  0  0  0  0  0  0  0  0  0  0
   -2.3140   20.9030  -33.4460 C   0  0  0  0  0  0  0  0  0  0  0  0
   -1.1590   21.6430  -33.7370 O   0  0  0  0  0  0  0  0  0  0  0  0
   -0.1050   21.1950  -34.5850 C   0  0  0  0  0  0  0  0  0  0  0  0
   -3.5430   21.5100  -33.1430 C   0  0  0  0  0  0  0  0  0  0  0  0
   -4.6820   20.7310  -32.8450 C   0  0  0  0  0  0  0  0  0  0  0  0
   -3.9689   22.5611  -27.5433 H   0  0  0  0  0  0  0  0  0  0  0  0
   -4.8754   22.2246  -29.0572 H   0  0  0  0  0  0  0  0  0  0  0  0
   -3.0796   22.1812  -29.0572 H   0  0  0  0  0  0  0  0  0  0  0  0
   -3.0536   24.6286  -28.5116 H   0  0  0  0  0  0  0  0  0  0  0  0
   -3.8686   24.2683  -30.0825 H   0  0  0  0  0  0  0  0  0  0  0  0
   -4.8710   25.6720  -27.9400 H   0  0  0  0  0  0  0  0  0  0  0  0
   -5.7080   24.1970  -27.9130 H   0  0  0  0  0  0  0  0  0  0  0  0
   -7.0356   25.1065  -29.4126 H   0  0  0  0  0  0  0  0  0  0  0  0
   -5.8152   26.4173  -29.7247 H   0  0  0  0  0  0  0  0  0  0  0  0
   -5.7882   25.4034  -31.7858 H   0  0  0  0  0  0  0  0  0  0  0  0
   -4.5422   24.4025  -30.9399 H   0  0  0  0  0  0  0  0  0  0  0  0
   -6.2935   22.7228  -30.3897 H   0  0  0  0  0  0  0  0  0  0  0  0
   -7.4943   23.7062  -31.3117 H   0  0  0  0  0  0  0  0  0  0  0  0
   -5.8440   23.3580  -33.3180 H   0  0  0  0  0  0  0  0  0  0  0  0
   -8.4400   22.2324  -32.2949 H   0  0  0  0  0  0  0  0  0  0  0  0
  -10.4784   20.8177  -32.1453 H   0  0  0  0  0  0  0  0  0  0  0  0
  -10.2945   18.3417  -32.2783 H   0  0  0  0  0  0  0  0  0  0  0  0
   -8.0676   17.2598  -32.4974 H   0  0  0  0  0  0  0  0  0  0  0  0
   -5.5238   16.9431  -31.1638 H   0  0  0  0  0  0  0  0  0  0  0  0
   -6.3850   16.5504  -32.6905 H   0  0  0  0  0  0  0  0  0  0  0  0
   -4.5990   16.7421  -32.6905 H   0  0  0  0  0  0  0  0  0  0  0  0
   -3.2618   17.6323  -33.2369 H   0  0  0  0  0  0  0  0  0  0  0  0
   -1.2733   19.0322  -33.7154 H   0  0  0  0  0  0  0  0  0  0  0  0
    0.7342   20.8383  -33.9697 H   0  0  0  0  0  0  0  0  0  0  0  0
   -0.4691   20.3739  -35.2199 H   0  0  0  0  0  0  0  0  0  0  0  0
    0.2335   22.0270  -35.2199 H   0  0  0  0  0  0  0  0  0  0  0  0
   -3.6195   22.6073  -33.1377 H   0  0  0  0  0  0  0  0  0  0  0  0
  1  2  1  0
  2  3  1  0
  3  4  1  0
  4  5  1  0
  5  6  1  0
  6  7  1  0
  7  8  1  0
  8  9  2  0
  9 10  1  0
 10 11  2  0
 11 12  1  0
 12 13  2  0
 13 14  1  0
 14 15  2  0
 15 16  1  0
 15 17  1  0
 17 18  2  0
 18 19  1  0
 19 20  2  0
 20 21  1  0
 21 22  1  0
 20 23  1  0
 23 24  2  0
 24  8  1  0
 14  9  1  0
 24 17  1  0
  1 25  1  0
  1 26  1  0
  1 27  1  0
  2 28  1  0
  2 29  1  0
  3 30  1  0
  3 31  1  0
  4 32  1  0
  4 33  1  0
  5 34  1  0
  5 35  1  0
  6 36  1  0
  6 37  1  0
  7 38  1  0
 10 39  1  0
 11 40  1  0
 12 41  1  0
 13 42  1  0
 16 43  1  0
 16 44  1  0
 16 45  1  0
 18 46  1  0
 19 47  1  0
 22 48  1  0
 22 49  1  0
 22 50  1  0
 23 51  1  0
M  CHG  2   3   1  15   1
M  END
>  <UniqueID>  (8) 
8

>  <SMILES>  (8) 
CC[NH2+]CCCNc1c2ccccc2[n+](C)c2ccc(OC)cc12

>  <Energy>  (8) 
71.05155709254386

>  <Genealogy>  (8) 
CC[NH2+]CCCNc1c2ccccc2[n+](C)c2ccc(OC)cc12 (protonated)
CC[NH2+]CCCNc1c2ccccc2[n+](C)c2ccc(OC)cc12 (3D coordinates assigned)
CC[NH2+]CCCNc1c2ccccc2[n+](C)c2ccc(OC)cc12 (optimized conformer: 71.05155709254386 kcal/mol)

>  <smiles>  (8) 
CCNCCCNc1c2ccccc2[n+](C)c2ccc(OC)cc12

>  <score_type>  (8) 
oracle

>  <origin>  (8) 
adg

>  <m_score__min__energy>  (8) 
-7.5999999999999996

>  <m_primary>  (8) 
energy

$$$$
8:0
     RDKit          3D

 36 36  0  0  0  0  0  0  0  0999 V2000
   -1.8030   24.9680  -28.1270 C   0  0  0  0  0  0  0  0  0  0  0  0
   -2.9060   24.4360  -27.2140 C   0  0  0  0  0  0  0  0  0  0  0  0
   -3.7560   23.3170  -27.8580 C   0  0  0  0  0  0  0  0  0  0  0  0
   -4.2630   23.6080  -29.2290 N   0  0  2  0  0  0  0  0  0  0  0  0
   -5.4130   24.5600  -29.1360 C   0  0  0  0  0  0  0  0  0  0  0  0
   -5.3130   25.7030  -30.1560 C   0  0  0  0  0  0  0  0  0  0  0  0
   -4.0630   25.6720  -30.7860 O   0  0  0  0  0  0  0  0  0  0  0  0
   -4.6590   22.3560  -29.9300 C   0  0  0  0  0  0  0  0  0  0  0  0
   -5.4090   22.6350  -31.2150 C   0  0  0  0  0  0  0  0  0  0  0  0
   -4.9640   23.5530  -31.9570 O   0  0  0  0  0  0  0  0  0  0  0  0
   -6.6660   21.9390  -31.6080 C   0  0  0  0  0  0  0  0  0  0  0  0
   -6.6660   20.7060  -32.2940 C   0  0  0  0  0  0  0  0  0  0  0  0
   -7.8700   20.0850  -32.6400 C   0  0  0  0  0  0  0  0  0  0  0  0
   -9.0880   20.6850  -32.3150 C   0  0  0  0  0  0  0  0  0  0  0  0
   -9.1060   21.9110  -31.6500 C   0  0  0  0  0  0  0  0  0  0  0  0
   -7.9060   22.5340  -31.2990 C   0  0  0  0  0  0  0  0  0  0  0  0
   -0.9799   25.3650  -27.5147 H   0  0  0  0  0  0  0  0  0  0  0  0
   -1.4272   24.1521  -28.7619 H   0  0  0  0  0  0  0  0  0  0  0  0
   -2.2076   25.7700  -28.7619 H   0  0  0  0  0  0  0  0  0  0  0  0
   -2.4396   24.0368  -26.3012 H   0  0  0  0  0  0  0  0  0  0  0  0
   -3.5843   25.2761  -27.0040 H   0  0  0  0  0  0  0  0  0  0  0  0
   -3.1377   22.4088  -27.9105 H   0  0  0  0  0  0  0  0  0  0  0  0
   -4.6470   23.2091  -27.2220 H   0  0  0  0  0  0  0  0  0  0  0  0
   -3.4850   24.0550  -29.7660 H   0  0  0  0  0  0  0  0  0  0  0  0
   -6.3456   24.0056  -29.3175 H   0  0  0  0  0  0  0  0  0  0  0  0
   -5.3974   25.0064  -28.1308 H   0  0  0  0  0  0  0  0  0  0  0  0
   -6.1048   25.5884  -30.9109 H   0  0  0  0  0  0  0  0  0  0  0  0
   -5.4321   26.6645  -29.6351 H   0  0  0  0  0  0  0  0  0  0  0  0
   -4.2470   25.6760  -31.7620 H   0  0  0  0  0  0  0  0  0  0  0  0
   -3.7522   21.7801  -30.1666 H   0  0  0  0  0  0  0  0  0  0  0  0
   -5.3278   21.7919  -29.2634 H   0  0  0  0  0  0  0  0  0  0  0  0
   -5.7107   20.2293  -32.5588 H   0  0  0  0  0  0  0  0  0  0  0  0
   -7.8575   19.1210  -33.1697 H   0  0  0  0  0  0  0  0  0  0  0  0
  -10.0334   20.1909  -32.5834 H   0  0  0  0  0  0  0  0  0  0  0  0
  -10.0658   22.3876  -31.4018 H   0  0  0  0  0  0  0  0  0  0  0  0
   -7.9290   23.5009  -30.7750 H   0  0  0  0  0  0  0  0  0  0  0  0
  1  2  1  0
  2  3  1  0
  3  4  1  0
  4  5  1  0
  5  6  1  0
  6  7  1  0
  4  8  1  0
  8  9  1  0
  9 10  2  0
  9 11  1  0
 11 12  2  0
 12 13  1  0
 13 14  2  0
 14 15  1  0
 15 16  2  0
 16 11  1  0
  1 17  1  0
  1 18  1  0
  1 19  1  0
  2 20  1  0
  2 21  1  0
  3 22  1  0
  3 23  1  0
  4 24  1  6
  5 25  1  0
  5 26  1  0
  6 27  1  0
  6 28  1  0
  7 29  1  0
  8 30  1  0
  8 31  1  0
 12 32  1  0
 13 33  1  0
 14 34  1  0
 15 35  1  0
 16 36  1  0
M  CHG  1   4   1
M  END
>  <UniqueID>  (9) 
9

>  <SMILES>  (9) 
CCC[N@H+](CCO)CC(=O)c1ccccc1

>  <Energy>  (9) 
39.75584589646768

>  <Genealogy>  (9) 
CCC[NH+](CCO)CC(=O)c1ccccc1 (protonated)
CCC[N@H+](CCO)CC(=O)c1ccccc1 (chirality)
CCC[N@H+](CCO)CC(=O)c1ccccc1 (3D coordinates assigned)
CCC[N@H+](CCO)CC(=O)c1ccccc1 (optimized conformer: 39.75584589646768 kcal/mol)

>  <smiles>  (9) 
CCCN(CCO)CC(=O)c1ccccc1

>  <score_type>  (9) 
oracle

>  <origin>  (9) 
adg

>  <m_score__min__energy>  (9) 
-5.2999999999999998

>  <m_primary>  (9) 
energy

$$$$
9:0
     RDKit          3D

 31 32  0  0  0  0  0  0  0  0999 V2000
   -4.9485   22.7106  -32.2838 H   0  0  0  0  0  0  0  0  0  0  0  0
   -5.8560   22.3970  -31.7470 C   0  0  0  0  0  0  0  0  0  0  0  0
   -6.3820   23.2040  -30.8070 C   0  0  0  0  0  0  0  0  0  0  0  0
   -5.8020   24.5590  -30.5780 C   0  0  0  0  0  0  0  0  0  0  0  0
   -4.6950   24.9420  -31.1400 N   0  0  0  0  0  0  0  0  0  0  0  0
   -3.4970   25.0230  -30.4640 O   0  0  0  0  0  0  0  0  0  0  0  0
   -2.9640   23.8840  -29.8090 C   0  0  0  0  0  0  0  0  0  0  0  0
   -1.8736   23.8563  -29.9514 H   0  0  0  0  0  0  0  0  0  0  0  0
   -3.4133   22.9741  -30.2335 H   0  0  0  0  0  0  0  0  0  0  0  0
   -3.2790   23.9580  -28.3230 C   0  0  0  0  0  0  0  0  0  0  0  0
   -2.3685   23.7441  -27.7441 H   0  0  0  0  0  0  0  0  0  0  0  0
   -3.6428   24.9661  -28.0751 H   0  0  0  0  0  0  0  0  0  0  0  0
   -4.0536   23.2174  -28.0751 H   0  0  0  0  0  0  0  0  0  0  0  0
   -6.5340   25.5490  -29.7210 C   0  0  0  0  0  0  0  0  0  0  0  0
   -6.3607   25.3146  -28.6603 H   0  0  0  0  0  0  0  0  0  0  0  0
   -6.1669   26.5632  -29.9371 H   0  0  0  0  0  0  0  0  0  0  0  0
   -7.6112   25.4952  -29.9371 H   0  0  0  0  0  0  0  0  0  0  0  0
   -7.5330   22.7040  -29.9500 C   0  0  0  0  0  0  0  0  0  0  0  0
   -8.1892   23.5531  -29.7084 H   0  0  0  0  0  0  0  0  0  0  0  0
   -7.1060   22.2554  -29.0409 H   0  0  0  0  0  0  0  0  0  0  0  0
   -8.3060   21.6990  -30.6130 O   0  0  0  0  0  0  0  0  0  0  0  0
   -7.7230   20.7960  -31.5040 C   0  0  0  0  0  0  0  0  0  0  0  0
   -8.3820   19.6130  -31.8500 C   0  0  0  0  0  0  0  0  0  0  0  0
   -9.3666   19.3836  -31.4164 H   0  0  0  0  0  0  0  0  0  0  0  0
   -7.7870   18.7210  -32.7490 C   0  0  0  0  0  0  0  0  0  0  0  0
   -8.3009   17.7857  -33.0157 H   0  0  0  0  0  0  0  0  0  0  0  0
   -6.5380   19.0170  -33.3100 C   0  0  0  0  0  0  0  0  0  0  0  0
   -5.7980   17.9000  -34.4410 Cl  0  0  0  0  0  0  0  0  0  0  0  0
   -5.8850   20.2100  -32.9750 C   0  0  0  0  0  0  0  0  0  0  0  0
   -4.9090   20.4482  -33.4230 H   0  0  0  0  0  0  0  0  0  0  0  0
   -6.4770   21.1000  -32.0680 C   0  0  0  0  0  0  0  0  0  0  0  0
  1  2  1  0
  2  3  2  0
  3  4  1  0
  4  5  2  0
  5  6  1  0
  6  7  1  0
  7  8  1  0
  7  9  1  0
  7 10  1  0
 10 11  1  0
 10 12  1  0
 10 13  1  0
  4 14  1  0
 14 15  1  0
 14 16  1  0
 14 17  1  0
  3 18  1  0
 18 19  1  0
 18 20  1  0
 18 21  1  0
 21 22  1  0
 22 23  2  0
 23 24  1  0
 23 25  1  0
 25 26  1  0
 25 27  2  0
 27 28  1  0
 27 29  1  0
 29 30  1  0
 29 31  2  0
 31  2  1  0
 31 22  1  0
M  END
>  <UniqueID>  (10) 
10

>  <SMILES>  (10) 
CCO/N=C(/C)C1=Cc2cc(Cl)ccc2OC1

>  <Energy>  (10) 
30.404670490097143

>  <Genealogy>  (10) 
CCO/N=C(/C)C1=Cc2cc(Cl)ccc2OC1 (cis-trans isomerization)
CCO/N=C(/C)C1=Cc2cc(Cl)ccc2OC1 (3D coordinates assigned)
CCO/N=C(/C)C1=Cc2cc(Cl)ccc2OC1 (nonaromatic ring conformer: 30.404670490097143 kcal/mol)

>  <smiles>  (10) 
CCON=C(C)C1=Cc2cc(Cl)ccc2OC1

>  <score_type>  (10) 
oracle

>  <origin>  (10) 
adg

>  <m_score__min__energy>  (10) 
-8.4199999999999999

>  <m_primary>  (10) 
energy

$$$$
10:0
     RDKit          3D

 47 48  0  0  0  0  0  0  0  0999 V2000
   -1.8820   25.6980  -26.5480 C   0  0  0  0  0  0  0  0  0  0  0  0
   -1.2470   26.0860  -27.8790 C   0  0  0  0  0  0  0  0  0  0  0  0
   -1.9910   25.5440  -28.9710 O   0  0  0  0  0  0  0  0  0  0  0  0
   -2.0740   24.1820  -29.3130 C   0  0  0  0  0  0  0  0  0  0  0  0
   -1.2210   23.2120  -28.7560 C   0  0  0  0  0  0  0  0  0  0  0  0
   -1.3330   21.8710  -29.1370 C   0  0  0  0  0  0  0  0  0  0  0  0
   -2.2910   21.4870  -30.0730 C   0  0  0  0  0  0  0  0  0  0  0  0
   -3.1370   22.4390  -30.6350 C   0  0  0  0  0  0  0  0  0  0  0  0
   -3.0440   23.7930  -30.2520 C   0  0  0  0  0  0  0  0  0  0  0  0
   -3.8930   24.7860  -30.7770 O   0  0  0  0  0  0  0  0  0  0  0  0
   -4.9900   25.3840  -30.0860 C   0  0  0  0  0  0  0  0  0  0  0  0
   -6.1150   24.3660  -29.8760 C   0  0  0  0  0  0  0  0  0  0  0  0
   -5.8990   23.2120  -30.7630 N   0  0  0  0  0  0  0  0  0  0  0  0
   -7.1450   22.7450  -31.3900 C   0  0  0  0  0  0  0  0  0  0  0  0
   -6.9050   21.4840  -32.1960 C   0  0  0  0  0  0  0  0  0  0  0  0
   -5.6010   21.2130  -32.6370 C   0  0  0  0  0  0  0  0  0  0  0  0
   -5.3240   20.0540  -33.3560 C   0  0  0  0  0  0  0  0  0  0  0  0
   -6.3610   19.1670  -33.6600 C   0  0  0  0  0  0  0  0  0  0  0  0
   -6.0780   17.8970  -34.4070 C   0  0  0  0  0  0  0  0  0  0  0  0
   -7.6290   19.4380  -33.2390 N   0  0  0  0  0  0  0  0  0  0  0  0
   -7.9360   20.5660  -32.5290 C   0  0  0  0  0  0  0  0  0  0  0  0
   -9.3630   20.7970  -32.1100 C   0  0  0  0  0  0  0  0  0  0  0  0
   -1.2623   26.0767  -25.7219 H   0  0  0  0  0  0  0  0  0  0  0  0
   -2.8892   26.1351  -26.4810 H   0  0  0  0  0  0  0  0  0  0  0  0
   -1.9526   24.6023  -26.4810 H   0  0  0  0  0  0  0  0  0  0  0  0
   -1.2282   27.1826  -27.9639 H   0  0  0  0  0  0  0  0  0  0  0  0
   -0.2242   25.6826  -27.9135 H   0  0  0  0  0  0  0  0  0  0  0  0
   -0.4623   23.5096  -28.0173 H   0  0  0  0  0  0  0  0  0  0  0  0
   -0.6632   21.1177  -28.6967 H   0  0  0  0  0  0  0  0  0  0  0  0
   -2.3789   20.4310  -30.3680 H   0  0  0  0  0  0  0  0  0  0  0  0
   -3.8832   22.1330  -31.3830 H   0  0  0  0  0  0  0  0  0  0  0  0
   -4.6451   25.7485  -29.1071 H   0  0  0  0  0  0  0  0  0  0  0  0
   -5.3758   26.2192  -30.6890 H   0  0  0  0  0  0  0  0  0  0  0  0
   -6.1151   24.0294  -28.8287 H   0  0  0  0  0  0  0  0  0  0  0  0
   -7.0830   24.8336  -30.1090 H   0  0  0  0  0  0  0  0  0  0  0  0
   -5.2460   23.4980  -31.5300 H   0  0  0  0  0  0  0  0  0  0  0  0
   -7.8865   22.5351  -30.6051 H   0  0  0  0  0  0  0  0  0  0  0  0
   -7.5137   23.5299  -32.0667 H   0  0  0  0  0  0  0  0  0  0  0  0
   -4.7908   21.9224  -32.4126 H   0  0  0  0  0  0  0  0  0  0  0  0
   -4.2963   19.8374  -33.6828 H   0  0  0  0  0  0  0  0  0  0  0  0
   -5.8965   17.0826  -33.6902 H   0  0  0  0  0  0  0  0  0  0  0  0
   -6.9416   17.6433  -35.0393 H   0  0  0  0  0  0  0  0  0  0  0  0
   -5.1883   18.0340  -35.0393 H   0  0  0  0  0  0  0  0  0  0  0  0
   -8.3870   18.7530  -33.4690 H   0  0  0  0  0  0  0  0  0  0  0  0
   -9.4256   20.8071  -31.0118 H   0  0  0  0  0  0  0  0  0  0  0  0
   -9.7096   21.7629  -32.5060 H   0  0  0  0  0  0  0  0  0  0  0  0
   -9.9967   19.9897  -32.5060 H   0  0  0  0  0  0  0  0  0  0  0  0
  1  2  1  0
  2  3  1  0
  3  4  1  0
  4  5  2  0
  5  6  1  0
  6  7  2  0
  7  8  1  0
  8  9  2  0
  9 10  1  0
 10 11  1  0
 11 12  1  0
 12 13  1  0
 13 14  1  0
 14 15  1  0
 15 16  2  0
 16 17  1  0
 17 18  2  0
 18 19  1  0
 18 20  1  0
 20 21  2  0
 21 22  1  0
  9  4  1  0
 21 15  1  0
  1 23  1  0
  1 24  1  0
  1 25  1  0
  2 26  1  0
  2 27  1  0
  5 28  1  0
  6 29  1  0
  7 30  1  0
  8 31  1  0
 11 32  1  0
 11 33  1  0
 12 34  1  0
 12 35  1  0
 13 36  1  0
 14 37  1  0
 14 38  1  0
 16 39  1  0
 17 40  1  0
 19 41  1  0
 19 42  1  0
 19 43  1  0
 20 44  1  0
 22 45  1  0
 22 46  1  0
 22 47  1  0
M  CHG  1  20   1
M  END
>  <UniqueID>  (11) 
11

>  <SMILES>  (11) 
CCOc1ccccc1OCCNCc1ccc(C)[nH+]c1C

>  <Energy>  (11) 
42.27159564612877

>  <Genealogy>  (11) 
CCOc1ccccc1OCCNCc1ccc(C)[nH+]c1C (protonated)
CCOc1ccccc1OCCNCc1ccc(C)[nH+]c1C (3D coordinates assigned)
CCOc1ccccc1OCCNCc1ccc(C)[nH+]c1C (optimized conformer: 42.27159564612877 kcal/mol)

>  <smiles>  (11) 
CCOc1ccccc1OCCNCc1ccc(C)nc1C

>  <score_type>  (11) 
oracle

>  <origin>  (11) 
adg

>  <m_score__min__energy>  (11) 
-8.1600000000000001

>  <m_primary>  (11) 
energy

$$$$
11:0
     RDKit          3D

 71 74  0  0  0  0  0  0  0  0999 V2000
   -6.2460   24.9260  -29.6440 C   0  0  0  0  0  0  0  0  0  0  0  0
   -5.3730   25.2840  -30.8420 C   0  0  0  0  0  0  0  0  0  0  0  0
   -4.2310   24.4540  -30.8450 O   0  0  0  0  0  0  0  0  0  0  0  0
   -4.4590   23.2870  -30.0710 C   0  0  0  0  0  0  0  0  0  0  0  0
   -4.2680   22.0320  -30.9300 C   0  0  0  0  0  0  0  0  0  0  0  0
   -4.0320   22.3780  -32.4060 C   0  0  0  0  0  0  0  0  0  0  0  0
   -4.7780   21.4790  -33.2930 N   0  0  0  0  0  0  0  0  0  0  0  0
   -5.8320   20.6330  -32.7970 C   0  0  0  0  0  0  0  0  0  0  0  0
   -7.0280   21.2280  -32.3520 C   0  0  0  0  0  0  0  0  0  0  0  0
   -7.1300   22.6320  -32.2230 C   0  0  0  0  0  0  0  0  0  0  0  0
   -8.3360   23.2300  -31.8660 C   0  0  0  0  0  0  0  0  0  0  0  0
   -9.4610   22.4480  -31.6430 C   0  0  0  0  0  0  0  0  0  0  0  0
   -9.3840   21.0610  -31.7490 C   0  0  0  0  0  0  0  0  0  0  0  0
   -8.1610   20.4160  -32.0810 C   0  0  0  0  0  0  0  0  0  0  0  0
   -8.0670   19.0390  -32.1820 N   0  0  0  0  0  0  0  0  0  0  0  0
   -9.1720   18.1890  -31.6830 C   0  0  0  0  0  0  0  0  0  0  0  0
   -6.9350   18.4580  -32.7320 C   0  0  0  0  0  0  0  0  0  0  0  0
   -6.9200   17.0970  -33.1260 C   0  0  0  0  0  0  0  0  0  0  0  0
   -5.7770   16.5150  -33.6590 C   0  0  0  0  0  0  0  0  0  0  0  0
   -4.5970   17.2410  -33.7470 C   0  0  0  0  0  0  0  0  0  0  0  0
   -4.5530   18.5820  -33.3350 C   0  0  0  0  0  0  0  0  0  0  0  0
   -3.3320   19.2770  -33.2540 O   0  0  0  0  0  0  0  0  0  0  0  0
   -2.0310   18.6900  -33.2870 C   0  0  0  0  0  0  0  0  0  0  0  0
   -1.0800   19.5960  -34.1100 C   0  0  0  0  0  0  0  0  0  0  0  0
   -0.2690   20.5630  -33.2940 N   0  0  0  0  0  0  0  0  0  0  0  0
    0.4050   21.5260  -34.2070 C   0  0  0  0  0  0  0  0  0  0  0  0
    0.8060   19.7930  -32.5740 C   0  0  0  0  0  0  0  0  0  0  0  0
    0.3240   19.1890  -31.2470 C   0  0  0  0  0  0  0  0  0  0  0  0
   -0.1510   20.2820  -30.2710 C   0  0  0  0  0  0  0  0  0  0  0  0
   -0.5100   21.5940  -30.9800 C   0  0  0  0  0  0  0  0  0  0  0  0
   -1.1630   21.3140  -32.3410 C   0  0  0  0  0  0  0  0  0  0  0  0
   -5.7590   19.2300  -32.9490 C   0  0  0  0  0  0  0  0  0  0  0  0
   -5.7021   25.1490  -28.7143 H   0  0  0  0  0  0  0  0  0  0  0  0
   -7.1736   25.5163  -29.6768 H   0  0  0  0  0  0  0  0  0  0  0  0
   -6.4920   23.8544  -29.6768 H   0  0  0  0  0  0  0  0  0  0  0  0
   -5.9418   25.1315  -31.7711 H   0  0  0  0  0  0  0  0  0  0  0  0
   -5.0653   26.3380  -30.7749 H   0  0  0  0  0  0  0  0  0  0  0  0
   -3.7482   23.2638  -29.2318 H   0  0  0  0  0  0  0  0  0  0  0  0
   -5.4911   23.3062  -29.6909 H   0  0  0  0  0  0  0  0  0  0  0  0
   -3.3995   21.4720  -30.5530 H   0  0  0  0  0  0  0  0  0  0  0  0
   -5.1871   21.4312  -30.8640 H   0  0  0  0  0  0  0  0  0  0  0  0
   -4.3591   23.4124  -32.5877 H   0  0  0  0  0  0  0  0  0  0  0  0
   -2.9592   22.2640  -32.6207 H   0  0  0  0  0  0  0  0  0  0  0  0
   -4.4680   21.3710  -34.2840 H   0  0  0  0  0  0  0  0  0  0  0  0
   -6.2458   23.2600  -32.4069 H   0  0  0  0  0  0  0  0  0  0  0  0
   -8.3971   24.3232  -31.7606 H   0  0  0  0  0  0  0  0  0  0  0  0
  -10.4170   22.9253  -31.3816 H   0  0  0  0  0  0  0  0  0  0  0  0
  -10.2846   20.4545  -31.5729 H   0  0  0  0  0  0  0  0  0  0  0  0
   -9.1686   18.1916  -30.5830 H   0  0  0  0  0  0  0  0  0  0  0  0
  -10.1317   18.5839  -32.0476 H   0  0  0  0  0  0  0  0  0  0  0  0
   -9.0365   17.1601  -32.0476 H   0  0  0  0  0  0  0  0  0  0  0  0
   -7.8300   16.4904  -33.0076 H   0  0  0  0  0  0  0  0  0  0  0  0
   -5.8069   15.4740  -34.0130 H   0  0  0  0  0  0  0  0  0  0  0  0
   -3.6895   16.7616  -34.1427 H   0  0  0  0  0  0  0  0  0  0  0  0
   -1.6469   18.5904  -32.2611 H   0  0  0  0  0  0  0  0  0  0  0  0
   -2.0876   17.6955  -33.7538 H   0  0  0  0  0  0  0  0  0  0  0  0
   -0.3846   18.9484  -34.6642 H   0  0  0  0  0  0  0  0  0  0  0  0
   -1.7211   20.2045  -34.7648 H   0  0  0  0  0  0  0  0  0  0  0  0
    0.9358   22.2844  -33.6129 H   0  0  0  0  0  0  0  0  0  0  0  0
    1.1245   20.9876  -34.8414 H   0  0  0  0  0  0  0  0  0  0  0  0
   -0.3472   22.0176  -34.8414 H   0  0  0  0  0  0  0  0  0  0  0  0
    1.1495   18.9768  -33.2265 H   0  0  0  0  0  0  0  0  0  0  0  0
    1.6160   20.4993  -32.3394 H   0  0  0  0  0  0  0  0  0  0  0  0
   -0.5111   18.5021  -31.4489 H   0  0  0  0  0  0  0  0  0  0  0  0
    1.1664   18.6542  -30.7841 H   0  0  0  0  0  0  0  0  0  0  0  0
   -1.0406   19.9153  -29.7380 H   0  0  0  0  0  0  0  0  0  0  0  0
    0.6786   20.4939  -29.5805 H   0  0  0  0  0  0  0  0  0  0  0  0
   -1.2121   22.1630  -30.3528 H   0  0  0  0  0  0  0  0  0  0  0  0
    0.4116   22.1722  -31.1421 H   0  0  0  0  0  0  0  0  0  0  0  0
   -2.0728   20.7185  -32.1747 H   0  0  0  0  0  0  0  0  0  0  0  0
   -1.3807   22.2888  -32.8019 H   0  0  0  0  0  0  0  0  0  0  0  0
  1  2  1  0
  2  3  1  0
  3  4  1  0
  4  5  1  0
  5  6  1  0
  6  7  1  0
  7  8  1  0
  8  9  2  0
  9 10  1  0
 10 11  2  0
 11 12  1  0
 12 13  2  0
 13 14  1  0
 14 15  2  0
 15 16  1  0
 15 17  1  0
 17 18  2  0
 18 19  1  0
 19 20  2  0
 20 21  1  0
 21 22  1  0
 22 23  1  0
 23 24  1  0
 24 25  1  0
 25 26  1  0
 25 27  1  0
 27 28  1  0
 28 29  1  0
 29 30  1  0
 30 31  1  0
 21 32  2  0
 32  8  1  0
 14  9  1  0
 32 17  1  0
 31 25  1  0
  1 33  1  0
  1 34  1  0
  1 35  1  0
  2 36  1  0
  2 37  1  0
  4 38  1  0
  4 39  1  0
  5 40  1  0
  5 41  1  0
  6 42  1  0
  6 43  1  0
  7 44  1  0
 10 45  1  0
 11 46  1  0
 12 47  1  0
 13 48  1  0
 16 49  1  0
 16 50  1  0
 16 51  1  0
 18 52  1  0
 19 53  1  0
 20 54  1  0
 23 55  1  0
 23 56  1  0
 24 57  1  0
 24 58  1  0
 26 59  1  0
 26 60  1  0
 26 61  1  0
 27 62  1  0
 27 63  1  0
 28 64  1  0
 28 65  1  0
 29 66  1  0
 29 67  1  0
 30 68  1  0
 30 69  1  0
 31 70  1  0
 31 71  1  0
M  CHG  2  15   1  25   1
M  END
>  <UniqueID>  (12) 
12

>  <SMILES>  (12) 
CCOCCCNc1c2ccccc2[n+](C)c2cccc(OCC[N+]3(C)CCCCC3)c12

>  <Energy>  (12) 
114.6939413380357

>  <Genealogy>  (12) 
CCOCCCNc1c2ccccc2[n+](C)c2cccc(OCC[N+]3(C)CCCCC3)c12 (3D coordinates assigned)
CCOCCCNc1c2ccccc2[n+](C)c2cccc(OCC[N+]3(C)CCCCC3)c12 (nonaromatic ring conformer: 114.6939413380357 kcal/mol)

>  <smiles>  (12) 
CCOCCCNc1c2ccccc2[n+](C)c2cccc(OCC[N+]3(C)CCCCC3)c12

>  <score_type>  (12) 
oracle

>  <origin>  (12) 
adg

>  <m_score__min__energy>  (12) 
-9.0800000000000001

>  <m_primary>  (12) 
energy

$$$$
12:0
     RDKit          3D

 49 50  0  0  0  0  0  0  0  0999 V2000
   -7.6480   23.0230  -31.2040 C   0  0  0  0  0  0  0  0  0  0  0  0
   -7.4150   21.5050  -31.1490 C   0  0  0  0  0  0  0  0  0  0  0  0
   -7.1160   20.8650  -32.4550 N   0  0  0  0  0  0  0  0  0  0  0  0
   -8.2320   20.0750  -33.0240 C   0  0  0  0  0  0  0  0  0  0  0  0
   -8.8920   19.1540  -31.9950 C   0  0  0  0  0  0  0  0  0  0  0  0
   -5.6710   19.8760  -32.3940 S   0  0  0  0  0  0  0  0  0  0  0  0
   -5.9050   18.6720  -31.5220 O   0  0  0  0  0  0  0  0  0  0  0  0
   -5.3410   19.3930  -33.7780 O   0  0  0  0  0  0  0  0  0  0  0  0
   -4.2910   20.7980  -31.8010 C   0  0  0  0  0  0  0  0  0  0  0  0
   -3.0110   20.2330  -31.7750 C   0  0  0  0  0  0  0  0  0  0  0  0
   -1.9210   20.9880  -31.3360 C   0  0  0  0  0  0  0  0  0  0  0  0
   -2.1030   22.3080  -30.9150 C   0  0  0  0  0  0  0  0  0  0  0  0
   -3.3830   22.8870  -30.9250 C   0  0  0  0  0  0  0  0  0  0  0  0
   -3.5840   24.2830  -30.4720 C   0  0  0  0  0  0  0  0  0  0  0  0
   -4.6140   24.9210  -30.8250 O   0  0  0  0  0  0  0  0  0  0  0  0
   -2.6070   24.9160  -29.6360 N   0  0  0  0  0  0  0  0  0  0  0  0
   -2.4860   24.6820  -28.2020 C   0  0  0  0  0  0  0  0  0  0  0  0
   -3.3610   23.5000  -27.7670 C   0  0  0  0  0  0  0  0  0  0  0  0
   -2.5210   22.2700  -27.5430 C   0  0  0  0  0  0  0  0  0  0  0  0
   -1.1370   22.3810  -27.3310 C   0  0  0  0  0  0  0  0  0  0  0  0
   -0.3590   21.2330  -27.1530 C   0  0  0  0  0  0  0  0  0  0  0  0
   -0.9520   19.9680  -27.1950 C   0  0  0  0  0  0  0  0  0  0  0  0
   -2.3260   19.8490  -27.4160 C   0  0  0  0  0  0  0  0  0  0  0  0
   -3.1110   20.9960  -27.5860 C   0  0  0  0  0  0  0  0  0  0  0  0
   -4.4750   22.1190  -31.3740 C   0  0  0  0  0  0  0  0  0  0  0  0
   -7.7092   23.4219  -30.1807 H   0  0  0  0  0  0  0  0  0  0  0  0
   -6.8130   23.5031  -31.7353 H   0  0  0  0  0  0  0  0  0  0  0  0
   -8.5885   23.2306  -31.7353 H   0  0  0  0  0  0  0  0  0  0  0  0
   -6.5672   21.3148  -30.4745 H   0  0  0  0  0  0  0  0  0  0  0  0
   -8.3602   21.0628  -30.8009 H   0  0  0  0  0  0  0  0  0  0  0  0
   -6.9020   21.6360  -33.1300 H   0  0  0  0  0  0  0  0  0  0  0  0
   -8.9916   20.7692  -33.4126 H   0  0  0  0  0  0  0  0  0  0  0  0
   -7.8157   19.4388  -33.8189 H   0  0  0  0  0  0  0  0  0  0  0  0
   -8.6440   19.5001  -30.9808 H   0  0  0  0  0  0  0  0  0  0  0  0
   -9.9832   19.1732  -32.1324 H   0  0  0  0  0  0  0  0  0  0  0  0
   -8.5231   18.1268  -32.1324 H   0  0  0  0  0  0  0  0  0  0  0  0
   -2.8631   19.1928  -32.1008 H   0  0  0  0  0  0  0  0  0  0  0  0
   -0.9156   20.5419  -31.3216 H   0  0  0  0  0  0  0  0  0  0  0  0
   -1.2390   22.8972  -30.5738 H   0  0  0  0  0  0  0  0  0  0  0  0
   -1.4359   24.4615  -27.9600 H   0  0  0  0  0  0  0  0  0  0  0  0
   -2.8209   25.5836  -27.6683 H   0  0  0  0  0  0  0  0  0  0  0  0
   -3.8787   23.7590  -26.8317 H   0  0  0  0  0  0  0  0  0  0  0  0
   -4.0916   23.2894  -28.5619 H   0  0  0  0  0  0  0  0  0  0  0  0
   -0.6639   23.3737  -27.3049 H   0  0  0  0  0  0  0  0  0  0  0  0
    0.7232   21.3257  -26.9793 H   0  0  0  0  0  0  0  0  0  0  0  0
   -0.3371   19.0669  -27.0541 H   0  0  0  0  0  0  0  0  0  0  0  0
   -2.7918   18.8533  -27.4565 H   0  0  0  0  0  0  0  0  0  0  0  0
   -4.1938   20.8990  -27.7539 H   0  0  0  0  0  0  0  0  0  0  0  0
   -5.4821   22.5611  -31.3894 H   0  0  0  0  0  0  0  0  0  0  0  0
  1  2  1  0
  2  3  1  0
  3  4  1  0
  4  5  1  0
  3  6  1  0
  6  7  2  0
  6  8  2  0
  6  9  1  0
  9 10  2  0
 10 11  1  0
 11 12  2  0
 12 13  1  0
 13 14  1  0
 14 15  2  0
 14 16  1  0
 16 17  1  0
 17 18  1  0
 18 19  1  0
 19 20  2  0
 20 21  1  0
 21 22  2  0
 22 23  1  0
 23 24  2  0
 13 25  2  0
 25  9  1  0
 24 19  1  0
  1 26  1  0
  1 27  1  0
  1 28  1  0
  2 29  1  0
  2 30  1  0
  3 31  1  0
  4 32  1  0
  4 33  1  0
  5 34  1  0
  5 35  1  0
  5 36  1  0
 10 37  1  0
 11 38  1  0
 12 39  1  0
 17 40  1  0
 17 41  1  0
 18 42  1  0
 18 43  1  0
 20 44  1  0
 21 45  1  0
 22 46  1  0
 23 47  1  0
 24 48  1  0
 25 49  1  0
M  CHG  2   3   1  16  -1
M  END
>  <UniqueID>  (13) 
13

>  <SMILES>  (13) 
CC[NH+](CC)S(=O)(=O)c1cccc(C(=O)[N-]CCc2ccccc2)c1

>  <Energy>  (13) 
45.559270048921164

>  <Genealogy>  (13) 
CC[NH+](CC)S(=O)(=O)c1cccc(C(=O)[N-]CCc2ccccc2)c1 (protonated)
CC[NH+](CC)S(=O)(=O)c1cccc(C(=O)[N-]CCc2ccccc2)c1 (3D coordinates assigned)
CC[NH+](CC)S(=O)(=O)c1cccc(C(=O)[N-]CCc2ccccc2)c1 (optimized conformer: 45.559270048921164 kcal/mol)

>  <smiles>  (13) 
CCN(CC)S(=O)(=O)c1cccc(C(=O)NCCc2ccccc2)c1

>  <score_type>  (13) 
oracle

>  <origin>  (13) 
adg

>  <m_score__min__energy>  (13) 
-9.9299999999999997

>  <m_primary>  (13) 
energy

$$$$
13:0
     RDKit          3D

 50 52  0  0  0  0  0  0  0  0999 V2000
   -6.8490   24.2680  -30.1100 C   0  0  0  0  0  0  0  0  0  0  0  0
   -5.7820   25.3280  -30.3550 C   0  0  0  0  0  0  0  0  0  0  0  0
   -4.7800   24.8270  -31.2190 O   0  0  0  0  0  0  0  0  0  0  0  0
   -4.0530   23.7930  -30.5860 C   0  0  0  0  0  0  0  0  0  0  0  0
   -3.8510   22.6470  -31.5810 C   0  0  0  0  0  0  0  0  0  0  0  0
   -4.9290   22.5670  -32.5890 N   0  0  0  0  0  0  0  0  0  0  0  0
   -5.3120   21.1920  -32.8810 C   0  0  0  0  0  0  0  0  0  0  0  0
   -4.3660   20.2960  -33.4400 C   0  0  0  0  0  0  0  0  0  0  0  0
   -4.7480   18.9790  -33.7740 C   0  0  0  0  0  0  0  0  0  0  0  0
   -6.0620   18.5710  -33.6500 N   0  0  0  0  0  0  0  0  0  0  0  0
   -6.4840   17.2750  -34.2400 C   0  0  0  0  0  0  0  0  0  0  0  0
   -6.0900   16.1000  -33.3410 C   0  0  0  0  0  0  0  0  0  0  0  0
   -6.9790   19.3810  -33.0030 C   0  0  0  0  0  0  0  0  0  0  0  0
   -8.2920   18.9210  -32.7050 C   0  0  0  0  0  0  0  0  0  0  0  0
   -9.2230   19.7370  -32.0720 C   0  0  0  0  0  0  0  0  0  0  0  0
   -8.8800   21.0270  -31.7080 C   0  0  0  0  0  0  0  0  0  0  0  0
   -7.6030   21.5120  -31.9690 C   0  0  0  0  0  0  0  0  0  0  0  0
   -6.6240   20.7080  -32.6110 C   0  0  0  0  0  0  0  0  0  0  0  0
   -3.6520   18.0740  -34.3310 C   0  0  0  0  0  0  0  0  0  0  0  0
   -2.3630   18.2160  -33.5130 C   0  0  0  0  0  0  0  0  0  0  0  0
   -1.9160   19.6780  -33.3190 C   0  0  0  0  0  0  0  0  0  0  0  0
   -2.9450   20.7110  -33.8010 C   0  0  0  0  0  0  0  0  0  0  0  0
   -6.9874   24.1305  -29.0275 H   0  0  0  0  0  0  0  0  0  0  0  0
   -7.7979   24.5914  -30.5628 H   0  0  0  0  0  0  0  0  0  0  0  0
   -6.5319   23.3170  -30.5628 H   0  0  0  0  0  0  0  0  0  0  0  0
   -6.2480   26.2123  -30.8143 H   0  0  0  0  0  0  0  0  0  0  0  0
   -5.3216   25.6004  -29.3939 H   0  0  0  0  0  0  0  0  0  0  0  0
   -3.0746   24.1757  -30.2602 H   0  0  0  0  0  0  0  0  0  0  0  0
   -4.6084   23.4307  -29.7083 H   0  0  0  0  0  0  0  0  0  0  0  0
   -2.8937   22.7980  -32.1014 H   0  0  0  0  0  0  0  0  0  0  0  0
   -3.8611   21.7069  -31.0099 H   0  0  0  0  0  0  0  0  0  0  0  0
   -4.6090   23.0280  -33.4700 H   0  0  0  0  0  0  0  0  0  0  0  0
   -5.7330   23.1680  -32.3140 H   0  0  0  0  0  0  0  0  0  0  0  0
   -7.5766   17.2781  -34.3673 H   0  0  0  0  0  0  0  0  0  0  0  0
   -5.9795   17.1544  -35.2100 H   0  0  0  0  0  0  0  0  0  0  0  0
   -6.1892   16.3960  -32.2862 H   0  0  0  0  0  0  0  0  0  0  0  0
   -6.7504   15.2444  -33.5454 H   0  0  0  0  0  0  0  0  0  0  0  0
   -5.0473   15.8155  -33.5454 H   0  0  0  0  0  0  0  0  0  0  0  0
   -8.5774   17.8954  -32.9820 H   0  0  0  0  0  0  0  0  0  0  0  0
  -10.2332   19.3566  -31.8604 H   0  0  0  0  0  0  0  0  0  0  0  0
   -9.6199   21.6712  -31.2105 H   0  0  0  0  0  0  0  0  0  0  0  0
   -7.3459   22.5395  -31.6721 H   0  0  0  0  0  0  0  0  0  0  0  0
   -3.9919   17.0286  -34.2905 H   0  0  0  0  0  0  0  0  0  0  0  0
   -3.4450   18.3684  -35.3705 H   0  0  0  0  0  0  0  0  0  0  0  0
   -2.5284   17.7681  -32.5220 H   0  0  0  0  0  0  0  0  0  0  0  0
   -1.5661   17.7057  -34.0738 H   0  0  0  0  0  0  0  0  0  0  0  0
   -1.7329   19.8452  -32.2473 H   0  0  0  0  0  0  0  0  0  0  0  0
   -1.0112   19.8194  -33.9284 H   0  0  0  0  0  0  0  0  0  0  0  0
   -2.7255   21.6805  -33.3300 H   0  0  0  0  0  0  0  0  0  0  0  0
   -2.8746   20.7822  -34.8964 H   0  0  0  0  0  0  0  0  0  0  0  0
  1  2  1  0
  2  3  1  0
  3  4  1  0
  4  5  1  0
  5  6  1  0
  6  7  1  0
  7  8  2  0
  8  9  1  0
  9 10  2  0
 10 11  1  0
 11 12  1  0
 10 13  1  0
 13 14  2  0
 14 15  1  0
 15 16  2  0
 16 17  1  0
 17 18  2  0
  9 19  1  0
 19 20  1  0
 20 21  1  0
 21 22  1  0
 18  7  1  0
 22  8  1  0
 18 13  1  0
  1 23  1  0
  1 24  1  0
  1 25  1  0
  2 26  1  0
  2 27  1  0
  4 28  1  0
  4 29  1  0
  5 30  1  0
  5 31  1  0
  6 32  1  0
  6 33  1  0
 11 34  1  0
 11 35  1  0
 12 36  1  0
 12 37  1  0
 12 38  1  0
 14 39  1  0
 15 40  1  0
 16 41  1  0
 17 42  1  0
 19 43  1  0
 19 44  1  0
 20 45  1  0
 20 46  1  0
 21 47  1  0
 21 48  1  0
 22 49  1  0
 22 50  1  0
M  CHG  2   6   1  10   1
M  END
>  <UniqueID>  (14) 
14

>  <SMILES>  (14) 
CCOCC[NH2+]c1c2c([n+](CC)c3ccccc13)CCCC2

>  <Energy>  (14) 
75.07831291476663

>  <Genealogy>  (14) 
CCOCC[NH2+]c1c2c([n+](CC)c3ccccc13)CCCC2 (protonated)
CCOCC[NH2+]c1c2c([n+](CC)c3ccccc13)CCCC2 (3D coordinates assigned)
CCOCC[NH2+]c1c2c([n+](CC)c3ccccc13)CCCC2 (nonaromatic ring conformer: 75.07831291476663 kcal/mol)

>  <smiles>  (14) 
CCOCCNc1c2c([n+](CC)c3ccccc13)CCCC2

>  <score_type>  (14) 
oracle

>  <origin>  (14) 
adg

>  <m_score__min__energy>  (14) 
-7.5

>  <m_primary>  (14) 
energy

$$$$
14:0
     RDKit          3D

 37 38  0  0  0  0  0  0  0  0999 V2000
   -9.8080   20.7270  -32.3410 C   0  0  0  0  0  0  0  0  0  0  0  0
   -9.0860   21.5800  -31.3000 C   0  0  0  0  0  0  0  0  0  0  0  0
   -8.2220   22.6720  -31.9420 C   0  0  0  0  0  0  0  0  0  0  0  0
   -6.8560   22.1940  -32.2060 N   0  0  0  0  0  0  0  0  0  0  0  0
   -5.7200   23.1150  -32.0610 C   0  0  0  0  0  0  0  0  0  0  0  0
   -5.0340   22.9250  -30.7030 C   0  0  0  0  0  0  0  0  0  0  0  0
   -4.7140   24.4960  -29.9160 S   0  0  0  0  0  0  0  0  0  0  0  0
   -6.2400   25.3490  -29.5800 C   0  0  0  0  0  0  0  0  0  0  0  0
   -3.8760   25.3400  -30.8350 O   0  0  0  0  0  0  0  0  0  0  0  0
   -3.9680   24.2790  -28.6300 O   0  0  0  0  0  0  0  0  0  0  0  0
   -6.6320   20.8150  -32.5550 C   0  0  0  0  0  0  0  0  0  0  0  0
   -6.7890   19.7880  -31.6750 N   0  0  0  0  0  0  0  0  0  0  0  0
   -6.4730   18.7240  -32.4340 C   0  0  0  0  0  0  0  0  0  0  0  0
   -6.4540   17.3820  -32.0610 C   0  0  0  0  0  0  0  0  0  0  0  0
   -6.0860   16.4390  -33.0390 C   0  0  0  0  0  0  0  0  0  0  0  0
   -5.7520   16.8580  -34.3480 C   0  0  0  0  0  0  0  0  0  0  0  0
   -5.7830   18.2230  -34.6900 C   0  0  0  0  0  0  0  0  0  0  0  0
   -6.1510   19.1250  -33.6950 C   0  0  0  0  0  0  0  0  0  0  0  0
   -6.2530   20.4240  -33.7620 O   0  0  0  0  0  0  0  0  0  0  0  0
  -10.4380   19.9827  -31.8321 H   0  0  0  0  0  0  0  0  0  0  0  0
  -10.4385   21.3722  -32.9704 H   0  0  0  0  0  0  0  0  0  0  0  0
   -9.0675   20.2117  -32.9704 H   0  0  0  0  0  0  0  0  0  0  0  0
   -9.8357   22.0572  -30.6518 H   0  0  0  0  0  0  0  0  0  0  0  0
   -8.4211   20.9188  -30.7249 H   0  0  0  0  0  0  0  0  0  0  0  0
   -8.6828   22.9796  -32.8923 H   0  0  0  0  0  0  0  0  0  0  0  0
   -8.1618   23.5194  -31.2432 H   0  0  0  0  0  0  0  0  0  0  0  0
   -4.9927   22.9194  -32.8628 H   0  0  0  0  0  0  0  0  0  0  0  0
   -6.0933   24.1477  -32.1257 H   0  0  0  0  0  0  0  0  0  0  0  0
   -5.6863   22.3240  -30.0524 H   0  0  0  0  0  0  0  0  0  0  0  0
   -4.0732   22.4150  -30.8663 H   0  0  0  0  0  0  0  0  0  0  0  0
   -6.3834   25.4292  -28.4923 H   0  0  0  0  0  0  0  0  0  0  0  0
   -6.2015   26.3564  -30.0200 H   0  0  0  0  0  0  0  0  0  0  0  0
   -7.0780   24.7885  -30.0200 H   0  0  0  0  0  0  0  0  0  0  0  0
   -6.7170   17.0706  -31.0393 H   0  0  0  0  0  0  0  0  0  0  0  0
   -6.0580   15.3694  -32.7837 H   0  0  0  0  0  0  0  0  0  0  0  0
   -5.4660   16.1119  -35.1040 H   0  0  0  0  0  0  0  0  0  0  0  0
   -5.5265   18.5640  -35.7039 H   0  0  0  0  0  0  0  0  0  0  0  0
  1  2  1  0
  2  3  1  0
  3  4  1  0
  4  5  1  0
  5  6  1  0
  6  7  1  0
  7  8  1  0
  7  9  2  0
  7 10  2  0
  4 11  1  0
 11 12  2  0
 12 13  1  0
 13 14  2  0
 14 15  1  0
 15 16  2  0
 16 17  1  0
 17 18  2  0
 18 19  1  0
 19 11  1  0
 18 13  1  0
  1 20  1  0
  1 21  1  0
  1 22  1  0
  2 23  1  0
  2 24  1  0
  3 25  1  0
  3 26  1  0
  5 27  1  0
  5 28  1  0
  6 29  1  0
  6 30  1  0
  8 31  1  0
  8 32  1  0
  8 33  1  0
 14 34  1  0
 15 35  1  0
 16 36  1  0
 17 37  1  0
M  END
>  <UniqueID>  (15) 
15

>  <SMILES>  (15) 
CCCN(CCS(C)(=O)=O)c1nc2ccccc2o1

>  <Energy>  (15) 
57.25886686796327

>  <Genealogy>  (15) 
CCCN(CCS(C)(=O)=O)c1nc2ccccc2o1 (3D coordinates assigned)
CCCN(CCS(C)(=O)=O)c1nc2ccccc2o1 (optimized conformer: 57.25886686796327 kcal/mol)

>  <smiles>  (15) 
CCCN(CCS(C)(=O)=O)c1nc2ccccc2o1

>  <score_type>  (15) 
oracle

>  <origin>  (15) 
adg

>  <m_score__min__energy>  (15) 
-7.4100000000000001

>  <m_primary>  (15) 
energy

$$$$
15:0
     RDKit          3D

 52 55  0  0  0  0  0  0  0  0999 V2000
   -5.0350   13.3910  -34.8720 C   0  0  0  0  0  0  0  0  0  0  0  0
   -5.0970   14.8290  -34.4500 C   0  0  0  0  0  0  0  0  0  0  0  0
   -3.9780   15.6710  -34.6300 C   0  0  0  0  0  0  0  0  0  0  0  0
   -4.0360   17.0060  -34.2040 C   0  0  0  0  0  0  0  0  0  0  0  0
   -5.1690   17.4420  -33.5890 N   0  0  0  0  0  0  0  0  0  0  0  0
   -5.5050   18.6590  -33.1130 C   0  0  0  0  0  0  0  0  0  0  0  0
   -4.6300   19.8880  -33.1930 C   0  0  0  0  0  0  0  0  0  0  0  0
   -4.0560   20.3450  -31.8250 C   0  0  0  0  0  0  0  0  0  0  0  0
   -3.5580   21.7470  -31.8160 N   0  0  0  0  0  0  0  0  0  0  0  0
   -4.4080   22.6480  -32.6500 C   0  0  0  0  0  0  0  0  0  0  0  0
   -5.3840   23.4820  -31.8070 C   0  0  0  0  0  0  0  0  0  0  0  0
   -4.6580   24.3620  -30.8660 N   0  0  0  0  0  0  0  0  0  0  0  0
   -5.5500   24.7960  -29.7800 C   0  0  0  0  0  0  0  0  0  0  0  0
   -3.4110   23.7560  -30.3340 C   0  0  0  0  0  0  0  0  0  0  0  0
   -3.4320   22.2230  -30.4120 C   0  0  0  0  0  0  0  0  0  0  0  0
   -6.8410   18.5770  -32.7030 C   0  0  0  0  0  0  0  0  0  0  0  0
   -7.7240   19.6800  -32.2680 C   0  0  0  0  0  0  0  0  0  0  0  0
   -7.2110   20.6850  -31.4310 C   0  0  0  0  0  0  0  0  0  0  0  0
   -8.0230   21.7470  -31.0220 C   0  0  0  0  0  0  0  0  0  0  0  0
   -9.3490   21.8220  -31.4560 C   0  0  0  0  0  0  0  0  0  0  0  0
   -9.8600   20.8390  -32.3060 C   0  0  0  0  0  0  0  0  0  0  0  0
   -9.0510   19.7760  -32.7160 C   0  0  0  0  0  0  0  0  0  0  0  0
   -7.3060   17.3210  -32.9010 N   0  0  0  0  0  0  0  0  0  0  0  0
   -6.2540   16.6670  -33.4270 C   0  0  0  0  0  0  0  0  0  0  0  0
   -6.2580   15.3350  -33.8340 C   0  0  0  0  0  0  0  0  0  0  0  0
   -5.0073   12.7480  -33.9800 H   0  0  0  0  0  0  0  0  0  0  0  0
   -5.9234   13.1465  -35.4728 H   0  0  0  0  0  0  0  0  0  0  0  0
   -4.1288   13.2239  -35.4728 H   0  0  0  0  0  0  0  0  0  0  0  0
   -3.0642   15.2814  -35.1025 H   0  0  0  0  0  0  0  0  0  0  0  0
   -3.1853   17.6850  -34.3633 H   0  0  0  0  0  0  0  0  0  0  0  0
   -3.7877   19.6696  -33.8659 H   0  0  0  0  0  0  0  0  0  0  0  0
   -5.2651   20.7072  -33.5611 H   0  0  0  0  0  0  0  0  0  0  0  0
   -4.8501   20.2551  -31.0692 H   0  0  0  0  0  0  0  0  0  0  0  0
   -3.1921   19.6988  -31.6103 H   0  0  0  0  0  0  0  0  0  0  0  0
   -2.5890   21.7560  -32.2120 H   0  0  0  0  0  0  0  0  0  0  0  0
   -3.7533   23.3313  -33.2108 H   0  0  0  0  0  0  0  0  0  0  0  0
   -5.0045   22.0155  -33.3239 H   0  0  0  0  0  0  0  0  0  0  0  0
   -5.9983   24.1016  -32.4769 H   0  0  0  0  0  0  0  0  0  0  0  0
   -6.0173   22.7959  -31.2254 H   0  0  0  0  0  0  0  0  0  0  0  0
   -5.0838   24.5692  -28.8098 H   0  0  0  0  0  0  0  0  0  0  0  0
   -5.7237   25.8793  -29.8590 H   0  0  0  0  0  0  0  0  0  0  0  0
   -6.5096   24.2641  -29.8590 H   0  0  0  0  0  0  0  0  0  0  0  0
   -2.5580   24.1288  -30.9200 H   0  0  0  0  0  0  0  0  0  0  0  0
   -3.3233   24.0390  -29.2746 H   0  0  0  0  0  0  0  0  0  0  0  0
   -2.4971   21.8311  -29.9849 H   0  0  0  0  0  0  0  0  0  0  0  0
   -4.3041   21.8620  -29.8471 H   0  0  0  0  0  0  0  0  0  0  0  0
   -6.1645   20.6360  -31.0956 H   0  0  0  0  0  0  0  0  0  0  0  0
   -7.6175   22.5244  -30.3578 H   0  0  0  0  0  0  0  0  0  0  0  0
   -9.9895   22.6542  -31.1286 H   0  0  0  0  0  0  0  0  0  0  0  0
  -10.9018   20.9016  -32.6536 H   0  0  0  0  0  0  0  0  0  0  0  0
   -9.4562   19.0101  -33.3936 H   0  0  0  0  0  0  0  0  0  0  0  0
   -7.1411   14.6977  -33.6790 H   0  0  0  0  0  0  0  0  0  0  0  0
  1  2  1  0
  2  3  1  0
  3  4  2  0
  4  5  1  0
  5  6  1  0
  6  7  1  0
  7  8  1  0
  8  9  1  0
  9 10  1  0
 10 11  1  0
 11 12  1  0
 12 13  1  0
 12 14  1  0
 14 15  1  0
  6 16  2  0
 16 17  1  0
 17 18  2  0
 18 19  1  0
 19 20  2  0
 20 21  1  0
 21 22  2  0
 16 23  1  0
 23 24  2  0
 24 25  1  0
 25  2  2  0
 24  5  1  0
 15  9  1  0
 22 17  1  0
  1 26  1  0
  1 27  1  0
  1 28  1  0
  3 29  1  0
  4 30  1  0
  7 31  1  0
  7 32  1  0
  8 33  1  0
  8 34  1  0
  9 35  1  0
 10 36  1  0
 10 37  1  0
 11 38  1  0
 11 39  1  0
 13 40  1  0
 13 41  1  0
 13 42  1  0
 14 43  1  0
 14 44  1  0
 15 45  1  0
 15 46  1  0
 18 47  1  0
 19 48  1  0
 20 49  1  0
 21 50  1  0
 22 51  1  0
 25 52  1  0
M  CHG  1   9   1
M  END
>  <UniqueID>  (16) 
16

>  <SMILES>  (16) 
Cc1ccn2c(CC[NH+]3CCN(C)CC3)c(-c3ccccc3)nc2c1

>  <Energy>  (16) 
108.70891730200104

>  <Genealogy>  (16) 
Cc1ccn2c(CC[NH+]3CCN(C)CC3)c(-c3ccccc3)nc2c1 (protonated)
Cc1ccn2c(CC[NH+]3CCN(C)CC3)c(-c3ccccc3)nc2c1 (3D coordinates assigned)
Cc1ccn2c(CC[NH+]3CCN(C)CC3)c(-c3ccccc3)nc2c1 (nonaromatic ring conformer: 108.70891730200104 kcal/mol)

>  <smiles>  (16) 
Cc1ccn2c(CCN3CCN(C)CC3)c(-c3ccccc3)nc2c1

>  <score_type>  (16) 
oracle

>  <origin>  (16) 
adg

>  <m_score__min__energy>  (16) 
-7.6100000000000003

>  <m_primary>  (16) 
energy

$$$$
16:0
     RDKit          3D

 63 66  0  0  0  0  0  0  0  0999 V2000
   -6.1260   16.7800  -32.0580 C   0  0  0  0  0  0  0  0  0  0  0  0
   -6.8180   17.8120  -31.1680 C   0  0  0  0  0  0  0  0  0  0  0  0
   -7.9950   18.5160  -31.8640 C   0  0  0  0  0  0  0  0  0  0  0  0
   -8.3150   19.9180  -31.3190 C   0  0  0  0  0  0  0  0  0  0  0  0
   -8.1010   21.0260  -32.3600 C   0  0  0  0  0  0  0  0  0  0  0  0
   -6.7720   21.6270  -32.2030 N   0  0  0  0  0  0  0  0  0  0  0  0
   -5.5560   21.1350  -32.5850 C   0  0  0  0  0  0  0  0  0  0  0  0
   -4.5400   21.9210  -32.0770 C   0  0  0  0  0  0  0  0  0  0  0  0
   -5.1410   22.9650  -31.4150 C   0  0  0  0  0  0  0  0  0  0  0  0
   -4.5970   24.0420  -30.7170 C   0  0  0  0  0  0  0  0  0  0  0  0
   -5.4860   24.9390  -30.1000 C   0  0  0  0  0  0  0  0  0  0  0  0
   -6.8810   24.7350  -30.1860 C   0  0  0  0  0  0  0  0  0  0  0  0
   -7.4000   23.6330  -30.8900 C   0  0  0  0  0  0  0  0  0  0  0  0
   -6.4970   22.7580  -31.5060 C   0  0  0  0  0  0  0  0  0  0  0  0
   -3.0940   21.5780  -32.2220 C   0  0  0  0  0  0  0  0  0  0  0  0
   -2.9360   20.0460  -32.2350 C   0  0  0  0  0  0  0  0  0  0  0  0
   -3.9120   19.3590  -33.1970 C   0  0  0  0  0  0  0  0  0  0  0  0
   -3.5670   18.1670  -33.8960 C   0  0  0  0  0  0  0  0  0  0  0  0
   -2.2290   17.4630  -33.7290 C   0  0  0  0  0  0  0  0  0  0  0  0
   -1.4650   17.3600  -35.0000 N   0  0  0  0  0  0  0  0  0  0  0  0
   -1.1660   15.9340  -35.2870 C   0  0  0  0  0  0  0  0  0  0  0  0
   -2.3100   15.2120  -36.0090 C   0  0  0  0  0  0  0  0  0  0  0  0
   -0.2610   18.2400  -35.0250 C   0  0  0  0  0  0  0  0  0  0  0  0
   -0.5110   19.6970  -34.6060 C   0  0  0  0  0  0  0  0  0  0  0  0
   -4.5020   17.5960  -34.7770 C   0  0  0  0  0  0  0  0  0  0  0  0
   -5.7480   18.1820  -34.9750 C   0  0  0  0  0  0  0  0  0  0  0  0
   -6.1040   19.3290  -34.2750 C   0  0  0  0  0  0  0  0  0  0  0  0
   -5.2250   19.8950  -33.3400 C   0  0  0  0  0  0  0  0  0  0  0  0
   -5.6237   16.0308  -31.4284 H   0  0  0  0  0  0  0  0  0  0  0  0
   -6.8741   16.2830  -32.6931 H   0  0  0  0  0  0  0  0  0  0  0  0
   -5.3822   17.2834  -32.6931 H   0  0  0  0  0  0  0  0  0  0  0  0
   -7.1966   17.3021  -30.2698 H   0  0  0  0  0  0  0  0  0  0  0  0
   -6.0740   18.5835  -30.9206 H   0  0  0  0  0  0  0  0  0  0  0  0
   -7.7547   18.6101  -32.9333 H   0  0  0  0  0  0  0  0  0  0  0  0
   -8.8846   17.8973  -31.6746 H   0  0  0  0  0  0  0  0  0  0  0  0
   -9.3664   19.9377  -30.9963 H   0  0  0  0  0  0  0  0  0  0  0  0
   -7.6269   20.1126  -30.4831 H   0  0  0  0  0  0  0  0  0  0  0  0
   -8.1875   20.5966  -33.3690 H   0  0  0  0  0  0  0  0  0  0  0  0
   -8.8638   21.8048  -32.2134 H   0  0  0  0  0  0  0  0  0  0  0  0
   -3.5083   24.1851  -30.6512 H   0  0  0  0  0  0  0  0  0  0  0  0
   -5.0931   25.8049  -29.5470 H   0  0  0  0  0  0  0  0  0  0  0  0
   -7.5671   25.4434  -29.6987 H   0  0  0  0  0  0  0  0  0  0  0  0
   -8.4849   23.4635  -30.9547 H   0  0  0  0  0  0  0  0  0  0  0  0
   -2.7095   21.9956  -33.1642 H   0  0  0  0  0  0  0  0  0  0  0  0
   -2.5275   22.0009  -31.3793 H   0  0  0  0  0  0  0  0  0  0  0  0
   -1.9084   19.8007  -32.5415 H   0  0  0  0  0  0  0  0  0  0  0  0
   -3.1561   19.6806  -31.2211 H   0  0  0  0  0  0  0  0  0  0  0  0
   -1.6252   18.0254  -33.0015 H   0  0  0  0  0  0  0  0  0  0  0  0
   -2.4364   16.4388  -33.3855 H   0  0  0  0  0  0  0  0  0  0  0  0
   -2.0900   17.6920  -35.7690 H   0  0  0  0  0  0  0  0  0  0  0  0
   -0.2672   15.8853  -35.9193 H   0  0  0  0  0  0  0  0  0  0  0  0
   -1.0183   15.4294  -34.3208 H   0  0  0  0  0  0  0  0  0  0  0  0
   -2.9965   14.7787  -35.2667 H   0  0  0  0  0  0  0  0  0  0  0  0
   -2.8564   15.9292  -36.6391 H   0  0  0  0  0  0  0  0  0  0  0  0
   -1.8977   14.4101  -36.6391 H   0  0  0  0  0  0  0  0  0  0  0  0
    0.4880   17.8126  -34.3421 H   0  0  0  0  0  0  0  0  0  0  0  0
    0.0717   18.2749  -36.0729 H   0  0  0  0  0  0  0  0  0  0  0  0
   -0.5228   19.7660  -33.5082 H   0  0  0  0  0  0  0  0  0  0  0  0
    0.2906   20.3359  -35.0049 H   0  0  0  0  0  0  0  0  0  0  0  0
   -1.4798   20.0322  -35.0049 H   0  0  0  0  0  0  0  0  0  0  0  0
   -4.2447   16.6730  -35.3173 H   0  0  0  0  0  0  0  0  0  0  0  0
   -6.4553   17.7354  -35.6893 H   0  0  0  0  0  0  0  0  0  0  0  0
   -7.0831   19.7966  -34.4559 H   0  0  0  0  0  0  0  0  0  0  0  0
  1  2  1  0
  2  3  1  0
  3  4  1  0
  4  5  1  0
  5  6  1  0
  6  7  1  0
  7  8  2  0
  8  9  1  0
  9 10  2  0
 10 11  1  0
 11 12  2  0
 12 13  1  0
 13 14  2  0
  8 15  1  0
 15 16  1  0
 16 17  1  0
 17 18  2  0
 18 19  1  0
 19 20  1  0
 20 21  1  0
 21 22  1  0
 20 23  1  0
 23 24  1  0
 18 25  1  0
 25 26  2  0
 26 27  1  0
 27 28  2  0
 14  6  1  0
 28 17  1  0
 28  7  1  0
 14  9  1  0
  1 29  1  0
  1 30  1  0
  1 31  1  0
  2 32  1  0
  2 33  1  0
  3 34  1  0
  3 35  1  0
  4 36  1  0
  4 37  1  0
  5 38  1  0
  5 39  1  0
 10 40  1  0
 11 41  1  0
 12 42  1  0
 13 43  1  0
 15 44  1  0
 15 45  1  0
 16 46  1  0
 16 47  1  0
 19 48  1  0
 19 49  1  0
 20 50  1  0
 21 51  1  0
 21 52  1  0
 22 53  1  0
 22 54  1  0
 22 55  1  0
 23 56  1  0
 23 57  1  0
 24 58  1  0
 24 59  1  0
 24 60  1  0
 25 61  1  0
 26 62  1  0
 27 63  1  0
M  CHG  1  20   1
M  END
>  <UniqueID>  (17) 
17

>  <SMILES>  (17) 
CCCCCn1c2c(c3ccccc31)CCc1c(C[NH+](CC)CC)cccc1-2

>  <Energy>  (17) 
108.66151366245772

>  <Genealogy>  (17) 
CCCCCn1c2c(c3ccccc31)CCc1c(C[NH+](CC)CC)cccc1-2 (protonated)
CCCCCn1c2c(c3ccccc31)CCc1c(C[NH+](CC)CC)cccc1-2 (3D coordinates assigned)
CCCCCn1c2c(c3ccccc31)CCc1c(C[NH+](CC)CC)cccc1-2 (nonaromatic ring conformer: 108.66151366245772 kcal/mol)

>  <smiles>  (17) 
CCCCCn1c2c(c3ccccc31)CCc1c(CN(CC)CC)cccc1-2

>  <score_type>  (17) 
oracle

>  <origin>  (17) 
adg

>  <m_score__min__energy>  (17) 
-8.3000000000000007

>  <m_primary>  (17) 
energy

$$$$
17:0
     RDKit          3D

 26 27  0  0  0  0  0  0  0  0999 V2000
   -1.2200   26.7750  -29.3740 H   0  0  0  0  0  0  0  0  0  0  0  0
   -1.6050   25.9930  -28.7990 N   0  0  0  0  0  0  0  0  0  0  0  0
   -2.0610   24.9140  -29.3450 C   0  0  0  0  0  0  0  0  0  0  0  0
   -1.3430   23.7630  -29.2660 N   0  0  0  0  0  0  0  0  0  0  0  0
   -1.7900   22.6100  -29.8290 C   0  0  0  0  0  0  0  0  0  0  0  0
   -1.0910   21.5660  -29.7330 O   0  0  0  0  0  0  0  0  0  0  0  0
   -3.0210   22.5980  -30.5080 C   0  0  0  0  0  0  0  0  0  0  0  0
   -3.5350   21.4410  -31.1150 C   0  0  0  0  0  0  0  0  0  0  0  0
   -2.9675   20.4999  -31.0664 H   0  0  0  0  0  0  0  0  0  0  0  0
   -4.7660   21.4780  -31.7820 C   0  0  0  0  0  0  0  0  0  0  0  0
   -5.3840   19.8570  -32.6050 Br  0  0  0  0  0  0  0  0  0  0  0  0
   -5.5070   22.6830  -31.8410 C   0  0  0  0  0  0  0  0  0  0  0  0
   -6.7670   22.7570  -32.5440 N   0  0  0  0  0  0  0  0  0  0  0  0
   -6.7150   23.4650  -33.3110 H   0  0  0  0  0  0  0  0  0  0  0  0
   -6.9740   21.8330  -32.9920 H   0  0  0  0  0  0  0  0  0  0  0  0
   -7.8490   23.0960  -31.6070 C   0  0  0  0  0  0  0  0  0  0  0  0
   -7.4184   23.2854  -30.6126 H   0  0  0  0  0  0  0  0  0  0  0  0
   -8.3675   23.9925  -31.9776 H   0  0  0  0  0  0  0  0  0  0  0  0
   -8.8580   21.9550  -31.5060 C   0  0  0  0  0  0  0  0  0  0  0  0
   -9.0549   21.7323  -30.4469 H   0  0  0  0  0  0  0  0  0  0  0  0
   -9.7959   22.2502  -31.9991 H   0  0  0  0  0  0  0  0  0  0  0  0
   -8.4503   21.0603  -31.9991 H   0  0  0  0  0  0  0  0  0  0  0  0
   -4.9770   23.8400  -31.2410 C   0  0  0  0  0  0  0  0  0  0  0  0
   -5.5362   24.7857  -31.2962 H   0  0  0  0  0  0  0  0  0  0  0  0
   -3.7490   23.8020  -30.5760 C   0  0  0  0  0  0  0  0  0  0  0  0
   -3.2540   24.9260  -29.9970 N   0  0  0  0  0  0  0  0  0  0  0  0
  1  2  1  0
  2  3  2  0
  3  4  1  0
  4  5  1  0
  5  6  2  0
  5  7  1  0
  7  8  2  0
  8  9  1  0
  8 10  1  0
 10 11  1  0
 10 12  2  0
 12 13  1  0
 13 14  1  0
 13 15  1  0
 13 16  1  0
 16 17  1  0
 16 18  1  0
 16 19  1  0
 19 20  1  0
 19 21  1  0
 19 22  1  0
 12 23  1  0
 23 24  1  0
 23 25  2  0
 25 26  1  0
 26  3  1  0
 25  7  1  0
M  CHG  3   4  -1  13   1  26  -1
M  END
>  <UniqueID>  (18) 
18

>  <SMILES>  (18) 
[H]/N=c1/[n-]c(=O)c2cc(Br)c([NH2+]CC)cc2[n-]1

>  <Energy>  (18) 
29.89109555346676

>  <Genealogy>  (18) 
CC[NH2+]c1cc2[n-]c(=N)[n-]c(=O)c2cc1Br (protonated)
[H]/N=c1/[n-]c(=O)c2cc(Br)c([NH2+]CC)cc2[n-]1 (cis-trans isomerization)
[H]/N=c1/[n-]c(=O)c2cc(Br)c([NH2+]CC)cc2[n-]1 (3D coordinates assigned)
[H]/N=c1/[n-]c(=O)c2cc(Br)c([NH2+]CC)cc2[n-]1 (optimized conformer: 29.89109555346676 kcal/mol)

>  <smiles>  (18) 
CCNc1cc2[nH]c(=N)[nH]c(=O)c2cc1Br

>  <score_type>  (18) 
oracle

>  <origin>  (18) 
adg

>  <m_score__min__energy>  (18) 
-8.7100000000000009

>  <m_primary>  (18) 
energy

$$$$
18:0
     RDKit          3D

 52 55  0  0  0  0  0  0  0  0999 V2000
   -2.1350   23.1190  -29.6160 C   0  0  0  0  0  0  0  0  0  0  0  0
   -1.1660   22.0410  -30.1000 C   0  0  0  0  0  0  0  0  0  0  0  0
   -1.6310   21.4470  -31.3650 N   0  0  0  0  0  0  0  0  0  0  0  0
   -0.7800   20.3190  -31.7930 C   0  0  0  0  0  0  0  0  0  0  0  0
   -1.0510   19.8790  -33.2420 C   0  0  0  0  0  0  0  0  0  0  0  0
   -2.2880   20.4720  -33.7540 N   0  0  0  0  0  0  0  0  0  0  0  0
   -3.5590   19.8350  -33.5490 C   0  0  0  0  0  0  0  0  0  0  0  0
   -4.6030   20.5320  -32.9500 C   0  0  0  0  0  0  0  0  0  0  0  0
   -5.8570   19.9690  -32.8040 C   0  0  0  0  0  0  0  0  0  0  0  0
   -6.0960   18.6540  -33.1150 N   0  0  0  0  0  0  0  0  0  0  0  0
   -7.3340   18.0030  -32.6540 C   0  0  0  0  0  0  0  0  0  0  0  0
   -5.1160   17.9440  -33.7920 C   0  0  0  0  0  0  0  0  0  0  0  0
   -5.3630   16.6540  -34.3200 C   0  0  0  0  0  0  0  0  0  0  0  0
   -4.3480   15.9230  -34.9380 C   0  0  0  0  0  0  0  0  0  0  0  0
   -3.0680   16.4560  -35.0500 C   0  0  0  0  0  0  0  0  0  0  0  0
   -2.7980   17.7390  -34.5790 C   0  0  0  0  0  0  0  0  0  0  0  0
   -3.8140   18.5140  -33.9840 C   0  0  0  0  0  0  0  0  0  0  0  0
   -6.7630   21.0050  -32.2470 C   0  0  0  0  0  0  0  0  0  0  0  0
   -8.1580   21.0350  -32.1010 C   0  0  0  0  0  0  0  0  0  0  0  0
   -8.7610   22.2030  -31.6080 C   0  0  0  0  0  0  0  0  0  0  0  0
   -7.9870   23.3370  -31.3090 C   0  0  0  0  0  0  0  0  0  0  0  0
   -6.6000   23.3280  -31.5230 C   0  0  0  0  0  0  0  0  0  0  0  0
   -5.6340   24.8100  -31.2120 S   0  0  0  0  0  0  0  0  0  0  0  0
   -6.5680   25.2460  -29.7130 C   0  0  0  0  0  0  0  0  0  0  0  0
   -6.0130   22.1510  -32.0060 C   0  0  0  0  0  0  0  0  0  0  0  0
   -4.6420   21.8960  -32.4300 C   0  0  0  0  0  0  0  0  0  0  0  0
   -3.6750   22.7000  -32.3620 O   0  0  0  0  0  0  0  0  0  0  0  0
   -2.1479   23.1334  -28.5162 H   0  0  0  0  0  0  0  0  0  0  0  0
   -1.8093   24.1002  -29.9917 H   0  0  0  0  0  0  0  0  0  0  0  0
   -3.1452   22.8994  -29.9917 H   0  0  0  0  0  0  0  0  0  0  0  0
   -0.1748   22.4915  -30.2564 H   0  0  0  0  0  0  0  0  0  0  0  0
   -1.1118   21.2491  -29.3385 H   0  0  0  0  0  0  0  0  0  0  0  0
   -2.6260   21.1400  -31.2660 H   0  0  0  0  0  0  0  0  0  0  0  0
   -1.5930   22.1810  -32.1100 H   0  0  0  0  0  0  0  0  0  0  0  0
    0.2738   20.6235  -31.7102 H   0  0  0  0  0  0  0  0  0  0  0  0
   -1.0125   19.4647  -31.1403 H   0  0  0  0  0  0  0  0  0  0  0  0
   -0.2110   20.1978  -33.8766 H   0  0  0  0  0  0  0  0  0  0  0  0
   -1.1570   18.7843  -33.2591 H   0  0  0  0  0  0  0  0  0  0  0  0
   -2.2180   21.1960  -34.5020 H   0  0  0  0  0  0  0  0  0  0  0  0
   -7.3549   17.9920  -31.5543 H   0  0  0  0  0  0  0  0  0  0  0  0
   -8.2039   18.5603  -33.0317 H   0  0  0  0  0  0  0  0  0  0  0  0
   -7.3679   16.9704  -33.0317 H   0  0  0  0  0  0  0  0  0  0  0  0
   -6.3712   16.2211  -34.2418 H   0  0  0  0  0  0  0  0  0  0  0  0
   -4.5608   14.9208  -35.3384 H   0  0  0  0  0  0  0  0  0  0  0  0
   -2.2658   15.8621  -35.5123 H   0  0  0  0  0  0  0  0  0  0  0  0
   -1.7824   18.1511  -34.6723 H   0  0  0  0  0  0  0  0  0  0  0  0
   -8.7681   20.1595  -32.3679 H   0  0  0  0  0  0  0  0  0  0  0  0
   -9.8499   22.2307  -31.4543 H   0  0  0  0  0  0  0  0  0  0  0  0
   -8.4715   24.2379  -30.9045 H   0  0  0  0  0  0  0  0  0  0  0  0
   -5.9819   24.9724  -28.8233 H   0  0  0  0  0  0  0  0  0  0  0  0
   -6.7635   26.3285  -29.7047 H   0  0  0  0  0  0  0  0  0  0  0  0
   -7.5233   24.7008  -29.7047 H   0  0  0  0  0  0  0  0  0  0  0  0
  1  2  1  0
  2  3  1  0
  3  4  1  0
  4  5  1  0
  5  6  1  0
  6  7  1  0
  7  8  2  0
  8  9  1  0
  9 10  2  0
 10 11  1  0
 10 12  1  0
 12 13  2  0
 13 14  1  0
 14 15  2  0
 15 16  1  0
 16 17  2  0
  9 18  1  0
 18 19  2  0
 19 20  1  0
 20 21  2  0
 21 22  1  0
 22 23  1  0
 23 24  1  0
 22 25  2  0
 25 26  1  0
 26 27  2  0
 17  7  1  0
 25 18  1  0
 26  8  1  0
 17 12  1  0
  1 28  1  0
  1 29  1  0
  1 30  1  0
  2 31  1  0
  2 32  1  0
  3 33  1  0
  3 34  1  0
  4 35  1  0
  4 36  1  0
  5 37  1  0
  5 38  1  0
  6 39  1  0
 11 40  1  0
 11 41  1  0
 11 42  1  0
 13 43  1  0
 14 44  1  0
 15 45  1  0
 16 46  1  0
 19 47  1  0
 20 48  1  0
 21 49  1  0
 24 50  1  0
 24 51  1  0
 24 52  1  0
M  CHG  2   3   1  10   1
M  END
>  <UniqueID>  (19) 
19

>  <SMILES>  (19) 
CC[NH2+]CCNc1c2c([n+](C)c3ccccc13)-c1cccc(SC)c1C2=O

>  <Energy>  (19) 
102.21712755706686

>  <Genealogy>  (19) 
CC[NH2+]CCNc1c2c([n+](C)c3ccccc13)-c1cccc(SC)c1C2=O (protonated)
CC[NH2+]CCNc1c2c([n+](C)c3ccccc13)-c1cccc(SC)c1C2=O (3D coordinates assigned)
CC[NH2+]CCNc1c2c([n+](C)c3ccccc13)-c1cccc(SC)c1C2=O (nonaromatic ring conformer: 102.21712755706686 kcal/mol)

>  <smiles>  (19) 
CCNCCNc1c2c([n+](C)c3ccccc13)-c1cccc(SC)c1C2=O

>  <score_type>  (19) 
oracle

>  <origin>  (19) 
adg

>  <m_score__min__energy>  (19) 
-7.7000000000000002

>  <m_primary>  (19) 
energy

$$$$
19:0
     RDKit          3D

 62 64  0  0  0  0  0  0  0  0999 V2000
   -0.3350   25.7230  -36.6370 C   0  0  0  0  0  0  0  0  0  0  0  0
    0.9890   25.4660  -37.3430 C   0  0  0  0  0  0  0  0  0  0  0  0
    1.4290   24.1550  -37.0440 O   0  0  0  0  0  0  0  0  0  0  0  0
    1.9960   24.1040  -35.7460 C   0  0  0  0  0  0  0  0  0  0  0  0
    2.4000   22.6660  -35.4080 C   0  0  0  0  0  0  0  0  0  0  0  0
    2.3540   21.8590  -36.5710 O   0  0  0  0  0  0  0  0  0  0  0  0
    1.5710   20.6970  -36.3680 C   0  0  0  0  0  0  0  0  0  0  0  0
    0.0830   21.0370  -36.4140 C   0  0  0  0  0  0  0  0  0  0  0  0
   -0.5050   20.7320  -35.1640 O   0  0  0  0  0  0  0  0  0  0  0  0
   -0.5400   21.8560  -34.3790 N   0  0  0  0  0  0  0  0  0  0  0  0
   -0.5460   21.4760  -32.9640 C   0  0  0  0  0  0  0  0  0  0  0  0
   -1.9760   21.1560  -32.5220 C   0  0  0  0  0  0  0  0  0  0  0  0
   -2.9170   21.2850  -33.6450 N   0  0  0  0  0  0  0  0  0  0  0  0
   -4.1990   20.6820  -33.3080 C   0  0  0  0  0  0  0  0  0  0  0  0
   -4.4840   19.3420  -33.6840 C   0  0  0  0  0  0  0  0  0  0  0  0
   -3.5010   18.5080  -34.2780 C   0  0  0  0  0  0  0  0  0  0  0  0
   -3.8220   17.2360  -34.7430 C   0  0  0  0  0  0  0  0  0  0  0  0
   -5.1190   16.7620  -34.6310 C   0  0  0  0  0  0  0  0  0  0  0  0
   -6.0920   17.5320  -34.0010 C   0  0  0  0  0  0  0  0  0  0  0  0
   -5.7850   18.8100  -33.4620 C   0  0  0  0  0  0  0  0  0  0  0  0
   -6.7200   19.5310  -32.7470 N   0  0  0  0  0  0  0  0  0  0  0  0
   -7.9440   18.8600  -32.2520 C   0  0  0  0  0  0  0  0  0  0  0  0
   -6.4920   20.8620  -32.4430 C   0  0  0  0  0  0  0  0  0  0  0  0
   -7.5240   21.6860  -31.9240 C   0  0  0  0  0  0  0  0  0  0  0  0
   -7.2750   22.9960  -31.5260 C   0  0  0  0  0  0  0  0  0  0  0  0
   -5.9980   23.5360  -31.6460 C   0  0  0  0  0  0  0  0  0  0  0  0
   -5.7190   24.9260  -31.1490 C   0  0  0  0  0  0  0  0  0  0  0  0
   -4.9710   22.7580  -32.1890 C   0  0  0  0  0  0  0  0  0  0  0  0
   -5.2090   21.4390  -32.6520 C   0  0  0  0  0  0  0  0  0  0  0  0
   -0.1817   25.6933  -35.5481 H   0  0  0  0  0  0  0  0  0  0  0  0
   -0.7188   26.7124  -36.9264 H   0  0  0  0  0  0  0  0  0  0  0  0
   -1.0611   24.9490  -36.9264 H   0  0  0  0  0  0  0  0  0  0  0  0
    0.8527   25.5694  -38.4296 H   0  0  0  0  0  0  0  0  0  0  0  0
    1.7383   26.1945  -36.9998 H   0  0  0  0  0  0  0  0  0  0  0  0
    2.8855   24.7502  -35.7112 H   0  0  0  0  0  0  0  0  0  0  0  0
    1.2533   24.4525  -35.0132 H   0  0  0  0  0  0  0  0  0  0  0  0
    3.4227   22.6616  -35.0028 H   0  0  0  0  0  0  0  0  0  0  0  0
    1.6991   22.2619  -34.6627 H   0  0  0  0  0  0  0  0  0  0  0  0
    1.7991   19.9650  -37.1567 H   0  0  0  0  0  0  0  0  0  0  0  0
    1.8086   20.2774  -35.3793 H   0  0  0  0  0  0  0  0  0  0  0  0
   -0.0426   22.1088  -36.6275 H   0  0  0  0  0  0  0  0  0  0  0  0
   -0.4053   20.4482  -37.2045 H   0  0  0  0  0  0  0  0  0  0  0  0
   -1.3430   22.4950  -34.5990 H   0  0  0  0  0  0  0  0  0  0  0  0
    0.0882   20.5887  -32.8210 H   0  0  0  0  0  0  0  0  0  0  0  0
   -0.1562   22.3095  -32.3612 H   0  0  0  0  0  0  0  0  0  0  0  0
   -2.0119   20.1253  -32.1394 H   0  0  0  0  0  0  0  0  0  0  0  0
   -2.2677   21.8693  -31.7371 H   0  0  0  0  0  0  0  0  0  0  0  0
   -3.0220   22.2870  -33.9110 H   0  0  0  0  0  0  0  0  0  0  0  0
   -2.5210   20.8610  -34.5110 H   0  0  0  0  0  0  0  0  0  0  0  0
   -2.4677   18.8732  -34.3725 H   0  0  0  0  0  0  0  0  0  0  0  0
   -3.0447   16.6061  -35.2001 H   0  0  0  0  0  0  0  0  0  0  0  0
   -5.3802   15.7752  -35.0408 H   0  0  0  0  0  0  0  0  0  0  0  0
   -7.1180   17.1438  -33.9188 H   0  0  0  0  0  0  0  0  0  0  0  0
   -7.9431   18.8605  -31.1520 H   0  0  0  0  0  0  0  0  0  0  0  0
   -8.8308   19.3981  -32.6182 H   0  0  0  0  0  0  0  0  0  0  0  0
   -7.9673   17.8230  -32.6182 H   0  0  0  0  0  0  0  0  0  0  0  0
   -8.5426   21.2806  -31.8343 H   0  0  0  0  0  0  0  0  0  0  0  0
   -8.0915   23.6076  -31.1146 H   0  0  0  0  0  0  0  0  0  0  0  0
   -5.7184   24.9289  -30.0490 H   0  0  0  0  0  0  0  0  0  0  0  0
   -4.7366   25.2567  -31.5170 H   0  0  0  0  0  0  0  0  0  0  0  0
   -6.4977   25.6102  -31.5170 H   0  0  0  0  0  0  0  0  0  0  0  0
   -3.9567   23.1781  -32.2585 H   0  0  0  0  0  0  0  0  0  0  0  0
  1  2  1  0
  2  3  1  0
  3  4  1  0
  4  5  1  0
  5  6  1  0
  6  7  1  0
  7  8  1  0
  8  9  1  0
  9 10  1  0
 10 11  1  0
 11 12  1  0
 12 13  1  0
 13 14  1  0
 14 15  2  0
 15 16  1  0
 16 17  2  0
 17 18  1  0
 18 19  2  0
 19 20  1  0
 20 21  2  0
 21 22  1  0
 21 23  1  0
 23 24  2  0
 24 25  1  0
 25 26  2  0
 26 27  1  0
 26 28  1  0
 28 29  2  0
 29 14  1  0
 20 15  1  0
 29 23  1  0
  1 30  1  0
  1 31  1  0
  1 32  1  0
  2 33  1  0
  2 34  1  0
  4 35  1  0
  4 36  1  0
  5 37  1  0
  5 38  1  0
  7 39  1  0
  7 40  1  0
  8 41  1  0
  8 42  1  0
 10 43  1  0
 11 44  1  0
 11 45  1  0
 12 46  1  0
 12 47  1  0
 13 48  1  0
 13 49  1  0
 16 50  1  0
 17 51  1  0
 18 52  1  0
 19 53  1  0
 22 54  1  0
 22 55  1  0
 22 56  1  0
 24 57  1  0
 25 58  1  0
 27 59  1  0
 27 60  1  0
 27 61  1  0
 28 62  1  0
M  CHG  2  13   1  21   1
M  END
>  <UniqueID>  (20) 
20

>  <SMILES>  (20) 
CCOCCOCCONCC[NH2+]c1c2ccccc2[n+](C)c2ccc(C)cc12

>  <Energy>  (20) 
92.24660066007135

>  <Genealogy>  (20) 
CCOCCOCCONCC[NH2+]c1c2ccccc2[n+](C)c2ccc(C)cc12 (protonated)
CCOCCOCCONCC[NH2+]c1c2ccccc2[n+](C)c2ccc(C)cc12 (3D coordinates assigned)
CCOCCOCCONCC[NH2+]c1c2ccccc2[n+](C)c2ccc(C)cc12 (optimized conformer: 92.24660066007135 kcal/mol)

>  <smiles>  (20) 
CCOCCOCCONCCNc1c2ccccc2[n+](C)c2ccc(C)cc12

>  <score_type>  (20) 
oracle

>  <origin>  (20) 
adg

>  <m_score__min__energy>  (20) 
-7.71

>  <m_primary>  (20) 
energy

$$$$
20:0
     RDKit          3D

 56 58  0  0  0  0  0  0  0  0999 V2000
   -4.9700   15.3970  -31.5350 N   0  0  0  0  0  0  0  0  0  0  0  0
   -4.6100   14.0600  -32.0150 C   0  0  0  0  0  0  0  0  0  0  0  0
   -3.0860   13.8140  -31.9760 C   0  0  0  0  0  0  0  0  0  0  0  0
   -2.2940   14.6180  -33.0360 C   0  0  0  0  0  0  0  0  0  0  0  0
   -2.5610   16.0720  -33.0250 N   0  0  0  0  0  0  0  0  0  0  0  0
   -2.1520   16.7130  -34.2850 C   0  0  0  0  0  0  0  0  0  0  0  0
   -3.1800   17.7620  -34.7390 C   0  0  0  0  0  0  0  0  0  0  0  0
   -4.5580   17.1340  -34.9820 C   0  0  0  0  0  0  0  0  0  0  0  0
   -5.2960   17.0200  -33.7090 N   0  0  0  0  0  0  0  0  0  0  0  0
   -6.5470   17.7970  -33.7030 C   0  0  0  0  0  0  0  0  0  0  0  0
   -6.3100   19.1520  -33.0660 C   0  0  0  0  0  0  0  0  0  0  0  0
   -4.9860   19.5290  -32.8150 C   0  0  0  0  0  0  0  0  0  0  0  0
   -4.6880   20.6800  -32.0860 C   0  0  0  0  0  0  0  0  0  0  0  0
   -3.3430   20.9800  -31.8150 C   0  0  0  0  0  0  0  0  0  0  0  0
   -3.0060   22.1000  -31.0650 C   0  0  0  0  0  0  0  0  0  0  0  0
   -4.0070   22.9490  -30.5830 C   0  0  0  0  0  0  0  0  0  0  0  0
   -3.6330   24.1410  -29.7430 C   0  0  0  0  0  0  0  0  0  0  0  0
   -3.6110   25.3000  -30.5310 O   0  0  0  0  0  0  0  0  0  0  0  0
   -5.3560   22.6520  -30.8340 C   0  0  0  0  0  0  0  0  0  0  0  0
   -5.7270   21.5120  -31.5920 C   0  0  0  0  0  0  0  0  0  0  0  0
   -7.0870   21.1580  -31.8540 C   0  0  0  0  0  0  0  0  0  0  0  0
   -8.1780   21.9290  -31.3750 C   0  0  0  0  0  0  0  0  0  0  0  0
   -9.4940   21.5440  -31.6190 C   0  0  0  0  0  0  0  0  0  0  0  0
   -9.7650   20.3900  -32.3390 C   0  0  0  0  0  0  0  0  0  0  0  0
   -8.7220   19.6080  -32.8220 C   0  0  0  0  0  0  0  0  0  0  0  0
   -7.3730   19.9710  -32.5980 C   0  0  0  0  0  0  0  0  0  0  0  0
   -5.7970   15.7540  -32.0650 H   0  0  0  0  0  0  0  0  0  0  0  0
   -5.2490   15.3310  -30.5270 H   0  0  0  0  0  0  0  0  0  0  0  0
   -5.1056   13.3109  -31.3800 H   0  0  0  0  0  0  0  0  0  0  0  0
   -4.9373   13.9789  -33.0621 H   0  0  0  0  0  0  0  0  0  0  0  0
   -2.7150   14.0953  -30.9794 H   0  0  0  0  0  0  0  0  0  0  0  0
   -2.9285   12.7486  -32.1997 H   0  0  0  0  0  0  0  0  0  0  0  0
   -1.2203   14.4640  -32.8530 H   0  0  0  0  0  0  0  0  0  0  0  0
   -2.6192   14.2466  -34.0190 H   0  0  0  0  0  0  0  0  0  0  0  0
   -1.9950   16.4900  -32.2440 H   0  0  0  0  0  0  0  0  0  0  0  0
   -3.5720   16.2610  -32.8200 H   0  0  0  0  0  0  0  0  0  0  0  0
   -1.1795   17.2053  -34.1371 H   0  0  0  0  0  0  0  0  0  0  0  0
   -2.0821   15.9373  -35.0618 H   0  0  0  0  0  0  0  0  0  0  0  0
   -3.2714   18.5328  -33.9596 H   0  0  0  0  0  0  0  0  0  0  0  0
   -2.8297   18.1998  -35.6854 H   0  0  0  0  0  0  0  0  0  0  0  0
   -5.1285   17.7669  -35.6777 H   0  0  0  0  0  0  0  0  0  0  0  0
   -4.4250   16.1302  -35.4118 H   0  0  0  0  0  0  0  0  0  0  0  0
   -5.5260   16.0130  -33.5370 H   0  0  0  0  0  0  0  0  0  0  0  0
   -6.8949   17.9361  -34.7372 H   0  0  0  0  0  0  0  0  0  0  0  0
   -7.3082   17.2531  -33.1244 H   0  0  0  0  0  0  0  0  0  0  0  0
   -4.1651   18.9060  -33.1998 H   0  0  0  0  0  0  0  0  0  0  0  0
   -2.5495   20.3226  -32.1999 H   0  0  0  0  0  0  0  0  0  0  0  0
   -1.9497   22.3192  -30.8500 H   0  0  0  0  0  0  0  0  0  0  0  0
   -4.3713   24.2636  -28.9368 H   0  0  0  0  0  0  0  0  0  0  0  0
   -2.6329   23.9789  -29.3145 H   0  0  0  0  0  0  0  0  0  0  0  0
   -3.4350   25.0120  -31.4610 H   0  0  0  0  0  0  0  0  0  0  0  0
   -6.1386   23.3147  -30.4360 H   0  0  0  0  0  0  0  0  0  0  0  0
   -7.9808   22.8465  -30.8011 H   0  0  0  0  0  0  0  0  0  0  0  0
  -10.3231   22.1586  -31.2385 H   0  0  0  0  0  0  0  0  0  0  0  0
  -10.8071   20.0930  -32.5282 H   0  0  0  0  0  0  0  0  0  0  0  0
   -8.9492   18.6922  -33.3875 H   0  0  0  0  0  0  0  0  0  0  0  0
  1  2  1  0
  2  3  1  0
  3  4  1  0
  4  5  1  0
  5  6  1  0
  6  7  1  0
  7  8  1  0
  8  9  1  0
  9 10  1  0
 10 11  1  0
 11 12  2  0
 12 13  1  0
 13 14  2  0
 14 15  1  0
 15 16  2  0
 16 17  1  0
 17 18  1  0
 16 19  1  0
 19 20  2  0
 20 21  1  0
 21 22  2  0
 22 23  1  0
 23 24  2  0
 24 25  1  0
 25 26  2  0
 26 11  1  0
 20 13  1  0
 26 21  1  0
  1 27  1  0
  1 28  1  0
  2 29  1  0
  2 30  1  0
  3 31  1  0
  3 32  1  0
  4 33  1  0
  4 34  1  0
  5 35  1  0
  5 36  1  0
  6 37  1  0
  6 38  1  0
  7 39  1  0
  7 40  1  0
  8 41  1  0
  8 42  1  0
  9 43  1  0
 10 44  1  0
 10 45  1  0
 12 46  1  0
 14 47  1  0
 15 48  1  0
 17 49  1  0
 17 50  1  0
 18 51  1  0
 19 52  1  0
 22 53  1  0
 23 54  1  0
 24 55  1  0
 25 56  1  0
M  CHG  1   5   1
M  END
>  <UniqueID>  (21) 
21

>  <SMILES>  (21) 
NCCC[NH2+]CCCNCc1cc2ccc(CO)cc2c2ccccc12

>  <Energy>  (21) 
62.33443866011696

>  <Genealogy>  (21) 
NCCC[NH2+]CCCNCc1cc2ccc(CO)cc2c2ccccc12 (protonated)
NCCC[NH2+]CCCNCc1cc2ccc(CO)cc2c2ccccc12 (3D coordinates assigned)
NCCC[NH2+]CCCNCc1cc2ccc(CO)cc2c2ccccc12 (optimized conformer: 62.33443866011696 kcal/mol)

>  <smiles>  (21) 
NCCCNCCCNCc1cc2ccc(CO)cc2c2ccccc12

>  <score_type>  (21) 
oracle

>  <origin>  (21) 
adg

>  <m_score__min__energy>  (21) 
-8.8499999999999996

>  <m_primary>  (21) 
energy

$$$$
21:0
     RDKit          3D

 59 61  0  0  0  0  0  0  0  0999 V2000
   -9.1490   19.5470  -31.9780 C   0  0  0  0  0  0  0  0  0  0  0  0
   -8.6340   18.1740  -31.5770 C   0  0  0  0  0  0  0  0  0  0  0  0
   -7.2900   18.0470  -31.9850 O   0  0  0  0  0  0  0  0  0  0  0  0
   -7.1800   17.0070  -32.9370 C   0  0  0  0  0  0  0  0  0  0  0  0
   -5.9220   17.2130  -33.7820 C   0  0  0  0  0  0  0  0  0  0  0  0
   -5.9300   18.5320  -34.5800 C   0  0  0  0  0  0  0  0  0  0  0  0
   -6.7760   19.5790  -33.9610 N   0  0  0  0  0  0  0  0  0  0  0  0
   -6.0090   20.7480  -33.4760 C   0  0  0  0  0  0  0  0  0  0  0  0
   -6.8470   21.6950  -32.5950 C   0  0  0  0  0  0  0  0  0  0  0  0
   -5.9800   22.6130  -31.7770 C   0  0  0  0  0  0  0  0  0  0  0  0
   -6.3710   23.9450  -31.5640 C   0  0  0  0  0  0  0  0  0  0  0  0
   -5.5350   24.8220  -30.8680 C   0  0  0  0  0  0  0  0  0  0  0  0
   -4.2890   24.3860  -30.4040 C   0  0  0  0  0  0  0  0  0  0  0  0
   -3.4450   25.3000  -29.6980 N   0  0  0  0  0  0  0  0  0  0  0  0
   -2.2590   24.9320  -28.9820 C   0  0  0  0  0  0  0  0  0  0  0  0
   -1.2260   25.6410  -29.1140 O   0  0  0  0  0  0  0  0  0  0  0  0
   -2.1830   23.6730  -28.1520 C   0  0  0  0  0  0  0  0  0  0  0  0
   -1.5000   22.4850  -28.8240 C   0  0  0  0  0  0  0  0  0  0  0  0
   -0.8400   22.6290  -30.0660 C   0  0  0  0  0  0  0  0  0  0  0  0
   -0.2100   21.5480  -30.6770 C   0  0  0  0  0  0  0  0  0  0  0  0
   -0.2000   20.2990  -30.0640 C   0  0  0  0  0  0  0  0  0  0  0  0
   -0.8160   20.1200  -28.8210 C   0  0  0  0  0  0  0  0  0  0  0  0
   -0.7690   18.8640  -28.1970 C   0  0  0  0  0  0  0  0  0  0  0  0
   -1.3670   18.6730  -26.9520 C   0  0  0  0  0  0  0  0  0  0  0  0
   -2.0230   19.7300  -26.3230 C   0  0  0  0  0  0  0  0  0  0  0  0
   -2.0820   20.9860  -26.9300 C   0  0  0  0  0  0  0  0  0  0  0  0
   -1.4780   21.2090  -28.1890 C   0  0  0  0  0  0  0  0  0  0  0  0
   -3.9050   23.0520  -30.5940 C   0  0  0  0  0  0  0  0  0  0  0  0
   -4.7430   22.1700  -31.2810 C   0  0  0  0  0  0  0  0  0  0  0  0
   -9.3693   20.1343  -31.0744 H   0  0  0  0  0  0  0  0  0  0  0  0
   -8.3842   20.0655  -32.5749 H   0  0  0  0  0  0  0  0  0  0  0  0
  -10.0661   19.4347  -32.5749 H   0  0  0  0  0  0  0  0  0  0  0  0
   -8.6995   18.0608  -30.4848 H   0  0  0  0  0  0  0  0  0  0  0  0
   -9.2425   17.3950  -32.0595 H   0  0  0  0  0  0  0  0  0  0  0  0
   -7.1166   16.0400  -32.4165 H   0  0  0  0  0  0  0  0  0  0  0  0
   -8.0642   17.0169  -33.5913 H   0  0  0  0  0  0  0  0  0  0  0  0
   -5.0490   17.2156  -33.1128 H   0  0  0  0  0  0  0  0  0  0  0  0
   -5.8833   16.3916  -34.5126 H   0  0  0  0  0  0  0  0  0  0  0  0
   -4.8984   18.9083  -34.6452 H   0  0  0  0  0  0  0  0  0  0  0  0
   -6.3513   18.3132  -35.5723 H   0  0  0  0  0  0  0  0  0  0  0  0
   -7.4940   19.9120  -34.6470 H   0  0  0  0  0  0  0  0  0  0  0  0
   -7.3150   19.1560  -33.1690 H   0  0  0  0  0  0  0  0  0  0  0  0
   -5.1538   20.3860  -32.8865 H   0  0  0  0  0  0  0  0  0  0  0  0
   -5.6868   21.3193  -34.3590 H   0  0  0  0  0  0  0  0  0  0  0  0
   -7.4961   22.3023  -33.2429 H   0  0  0  0  0  0  0  0  0  0  0  0
   -7.4414   21.0805  -31.9029 H   0  0  0  0  0  0  0  0  0  0  0  0
   -7.3395   24.2994  -31.9467 H   0  0  0  0  0  0  0  0  0  0  0  0
   -5.8572   25.8576  -30.6844 H   0  0  0  0  0  0  0  0  0  0  0  0
   -1.6284   23.9067  -27.2312 H   0  0  0  0  0  0  0  0  0  0  0  0
   -3.2237   23.3636  -27.9754 H   0  0  0  0  0  0  0  0  0  0  0  0
   -0.8239   23.6125  -30.5584 H   0  0  0  0  0  0  0  0  0  0  0  0
    0.2832   21.6824  -31.6510 H   0  0  0  0  0  0  0  0  0  0  0  0
    0.2939   19.4496  -30.5585 H   0  0  0  0  0  0  0  0  0  0  0  0
   -0.2577   18.0257  -28.6927 H   0  0  0  0  0  0  0  0  0  0  0  0
   -1.3211   17.6874  -26.4657 H   0  0  0  0  0  0  0  0  0  0  0  0
   -2.4969   19.5736  -25.3427 H   0  0  0  0  0  0  0  0  0  0  0  0
   -2.6040   21.8111  -26.4233 H   0  0  0  0  0  0  0  0  0  0  0  0
   -2.9406   22.6979  -30.2010 H   0  0  0  0  0  0  0  0  0  0  0  0
   -4.4330   21.1257  -31.4338 H   0  0  0  0  0  0  0  0  0  0  0  0
  1  2  1  0
  2  3  1  0
  3  4  1  0
  4  5  1  0
  5  6  1  0
  6  7  1  0
  7  8  1  0
  8  9  1  0
  9 10  1  0
 10 11  2  0
 11 12  1  0
 12 13  2  0
 13 14  1  0
 14 15  1  0
 15 16  2  0
 15 17  1  0
 17 18  1  0
 18 19  2  0
 19 20  1  0
 20 21  2  0
 21 22  1  0
 22 23  2  0
 23 24  1  0
 24 25  2  0
 25 26  1  0
 26 27  2  0
 13 28  1  0
 28 29  2  0
 29 10  1  0
 27 18  1  0
 27 22  1  0
  1 30  1  0
  1 31  1  0
  1 32  1  0
  2 33  1  0
  2 34  1  0
  4 35  1  0
  4 36  1  0
  5 37  1  0
  5 38  1  0
  6 39  1  0
  6 40  1  0
  7 41  1  0
  7 42  1  0
  8 43  1  0
  8 44  1  0
  9 45  1  0
  9 46  1  0
 11 47  1  0
 12 48  1  0
 17 49  1  0
 17 50  1  0
 19 51  1  0
 20 52  1  0
 21 53  1  0
 23 54  1  0
 24 55  1  0
 25 56  1  0
 26 57  1  0
 28 58  1  0
 29 59  1  0
M  CHG  2   7   1  14  -1
M  END
>  <UniqueID>  (22) 
22

>  <SMILES>  (22) 
CCOCCC[NH2+]CCc1ccc([N-]C(=O)Cc2cccc3ccccc23)cc1

>  <Energy>  (22) 
62.87778363687179

>  <Genealogy>  (22) 
CCOCCC[NH2+]CCc1ccc([N-]C(=O)Cc2cccc3ccccc23)cc1 (protonated)
CCOCCC[NH2+]CCc1ccc([N-]C(=O)Cc2cccc3ccccc23)cc1 (3D coordinates assigned)
CCOCCC[NH2+]CCc1ccc([N-]C(=O)Cc2cccc3ccccc23)cc1 (optimized conformer: 62.87778363687179 kcal/mol)

>  <smiles>  (22) 
CCOCCCNCCc1ccc(NC(=O)Cc2cccc3ccccc23)cc1

>  <score_type>  (22) 
oracle

>  <origin>  (22) 
adg

>  <m_score__min__energy>  (22) 
-10.24

>  <m_primary>  (22) 
energy

$$$$
