0:0
     RDKit          3D

 44 45  0  0  0  0  0  0  0  0999 V2000
   -2.6160   20.8010  -27.5720 C   0  0  0  0  0  0  0  0  0  0  0  0
   -3.5360   21.7520  -28.2150 N   0  0  0  0  0  0  0  0  0  0  0  0
   -3.5120   23.0540  -27.5050 C   0  0  0  0  0  0  0  0  0  0  0  0
   -4.0210   24.1920  -28.3950 C   0  0  0  0  0  0  0  0  0  0  0  0
   -3.0970   24.3880  -29.6130 C   0  0  0  0  0  0  0  0  0  0  0  0
   -3.8720   24.9590  -30.7150 N   0  0  0  0  0  0  0  0  0  0  0  0
   -5.2780   25.2360  -30.6740 C   0  0  0  0  0  0  0  0  0  0  0  0
   -5.6600   26.4100  -30.4240 O   0  0  0  0  0  0  0  0  0  0  0  0
   -6.2530   24.2080  -30.9220 N   0  0  0  0  0  0  0  0  0  0  0  0
   -6.9390   23.5640  -29.8000 C   0  0  0  0  0  0  0  0  0  0  0  0
   -6.3710   23.6170  -32.2600 C   0  0  0  0  0  0  0  0  0  0  0  0
   -5.7830   22.2030  -32.2750 C   0  0  0  0  0  0  0  0  0  0  0  0
   -6.8790   21.1730  -32.3070 C   0  0  0  0  0  0  0  0  0  0  0  0
   -8.1950   21.5260  -31.9630 C   0  0  0  0  0  0  0  0  0  0  0  0
   -9.2060   20.5610  -31.9630 C   0  0  0  0  0  0  0  0  0  0  0  0
   -8.9110   19.2360  -32.2970 C   0  0  0  0  0  0  0  0  0  0  0  0
   -7.6020   18.8740  -32.6270 C   0  0  0  0  0  0  0  0  0  0  0  0
   -6.5870   19.8360  -32.6280 C   0  0  0  0  0  0  0  0  0  0  0  0
   -2.4290   23.0650  -30.0550 C   0  0  0  0  0  0  0  0  0  0  0  0
   -3.2820   21.8460  -29.6770 C   0  0  0  0  0  0  0  0  0  0  0  0
   -2.7019   20.8898  -26.4790 H   0  0  0  0  0  0  0  0  0  0  0  0
   -2.8746   19.7766  -27.8781 H   0  0  0  0  0  0  0  0  0  0  0  0
   -1.5836   21.0256  -27.8781 H   0  0  0  0  0  0  0  0  0  0  0  0
   -4.1515   22.9856  -26.6126 H   0  0  0  0  0  0  0  0  0  0  0  0
   -2.4709   23.2746  -27.2268 H   0  0  0  0  0  0  0  0  0  0  0  0
   -5.0347   23.9494  -28.7465 H   0  0  0  0  0  0  0  0  0  0  0  0
   -4.0324   25.1217  -27.8073 H   0  0  0  0  0  0  0  0  0  0  0  0
   -2.2881   25.0753  -29.3245 H   0  0  0  0  0  0  0  0  0  0  0  0
   -6.5314   23.9466  -28.8527 H   0  0  0  0  0  0  0  0  0  0  0  0
   -8.0152   23.7856  -29.8522 H   0  0  0  0  0  0  0  0  0  0  0  0
   -6.7857   22.4760  -29.8522 H   0  0  0  0  0  0  0  0  0  0  0  0
   -7.4330   23.5705  -32.5429 H   0  0  0  0  0  0  0  0  0  0  0  0
   -5.8152   24.2412  -32.9751 H   0  0  0  0  0  0  0  0  0  0  0  0
   -5.1497   22.0845  -33.1665 H   0  0  0  0  0  0  0  0  0  0  0  0
   -5.1869   22.0576  -31.3621 H   0  0  0  0  0  0  0  0  0  0  0  0
   -8.4303   22.5660  -31.6927 H   0  0  0  0  0  0  0  0  0  0  0  0
  -10.2357   20.8446  -31.6997 H   0  0  0  0  0  0  0  0  0  0  0  0
   -9.7087   18.4786  -32.3001 H   0  0  0  0  0  0  0  0  0  0  0  0
   -7.3697   17.8306  -32.8864 H   0  0  0  0  0  0  0  0  0  0  0  0
   -5.5566   19.5454  -32.8808 H   0  0  0  0  0  0  0  0  0  0  0  0
   -2.2936   23.0810  -31.1465 H   0  0  0  0  0  0  0  0  0  0  0  0
   -1.4609   22.9800  -29.5396 H   0  0  0  0  0  0  0  0  0  0  0  0
   -4.2482   21.9180  -30.1978 H   0  0  0  0  0  0  0  0  0  0  0  0
   -2.7242   20.9460  -29.9749 H   0  0  0  0  0  0  0  0  0  0  0  0
  1  2  1  0
  2  3  1  0
  3  4  1  0
  4  5  1  0
  5  6  1  0
  6  7  1  0
  7  8  2  0
  7  9  1  0
  9 10  1  0
  9 11  1  0
 11 12  1  0
 12 13  1  0
 13 14  2  0
 14 15  1  0
 15 16  2  0
 16 17  1  0
 17 18  2  0
  5 19  1  0
 19 20  1  0
 20  2  1  0
 18 13  1  0
  1 21  1  0
  1 22  1  0
  1 23  1  0
  3 24  1  0
  3 25  1  0
  4 26  1  0
  4 27  1  0
  5 28  1  0
 10 29  1  0
 10 30  1  0
 10 31  1  0
 11 32  1  0
 11 33  1  0
 12 34  1  0
 12 35  1  0
 14 36  1  0
 15 37  1  0
 16 38  1  0
 17 39  1  0
 18 40  1  0
 19 41  1  0
 19 42  1  0
 20 43  1  0
 20 44  1  0
M  CHG  1   6  -1
M  END
>  <UniqueID>  (1) 
1

>  <SMILES>  (1) 
CN1CCC([N-]C(=O)N(C)CCc2ccccc2)CC1

>  <Energy>  (1) 
48.27258816201138

>  <Genealogy>  (1) 
CN1CCC([N-]C(=O)N(C)CCc2ccccc2)CC1 (protonated)
CN1CCC([N-]C(=O)N(C)CCc2ccccc2)CC1 (3D coordinates assigned)
CN1CCC([N-]C(=O)N(C)CCc2ccccc2)CC1 (nonaromatic ring conformer: 48.27258816201138 kcal/mol)

>  <smiles>  (1) 
CN1CCC(NC(=O)N(C)CCc2ccccc2)CC1

>  <score_type>  (1) 
oracle

>  <origin>  (1) 
adg

>  <m_score__min__energy>  (1) 
-8.9299999999999997

>  <m_primary>  (1) 
energy

$$$$
1:0
     RDKit          3D

 42 43  0  0  0  0  0  0  0  0999 V2000
   -5.6780   16.6990  -31.8760 C   0  0  0  0  0  0  0  0  0  0  0  0
   -5.1880   16.9160  -33.2480 N   0  0  0  0  0  0  0  0  0  0  0  0
   -5.9310   16.0820  -34.2070 C   0  0  0  0  0  0  0  0  0  0  0  0
   -3.7260   16.7190  -33.3540 C   0  0  0  0  0  0  0  0  0  0  0  0
   -2.9620   17.9560  -33.1110 C   0  0  0  0  0  0  0  0  0  0  0  0
   -2.3480   18.9760  -32.9330 C   0  0  0  0  0  0  0  0  0  0  0  0
   -1.5990   20.2250  -32.6840 C   0  0  2  0  0  0  0  0  0  0  0  0
   -0.6840   20.5410  -33.8880 C   0  0  0  0  0  0  0  0  0  0  0  0
    0.6440   20.3030  -33.5750 F   0  0  0  0  0  0  0  0  0  0  0  0
   -0.8120   21.8730  -34.2450 F   0  0  0  0  0  0  0  0  0  0  0  0
   -1.0320   19.7550  -34.9730 F   0  0  0  0  0  0  0  0  0  0  0  0
   -0.7770   20.0860  -31.3680 C   0  0  0  0  0  0  0  0  0  0  0  0
   -1.5540   20.8300  -30.2750 C   0  0  0  0  0  0  0  0  0  0  0  0
   -2.5400   21.6160  -31.0400 C   0  0  0  0  0  0  0  0  0  0  0  0
   -3.3340   22.4380  -30.5090 O   0  0  0  0  0  0  0  0  0  0  0  0
   -2.5480   21.3120  -32.4270 N   0  0  0  0  0  0  0  0  0  0  0  0
   -3.5640   21.8080  -33.3660 C   0  0  0  0  0  0  0  0  0  0  0  0
   -4.9060   21.1750  -33.0940 C   0  0  0  0  0  0  0  0  0  0  0  0
   -5.3310   20.0560  -33.8290 C   0  0  0  0  0  0  0  0  0  0  0  0
   -6.5800   19.4780  -33.5780 C   0  0  0  0  0  0  0  0  0  0  0  0
   -7.4190   20.0180  -32.6000 C   0  0  0  0  0  0  0  0  0  0  0  0
   -9.1230   19.2270  -32.2590 Br  0  0  0  0  0  0  0  0  0  0  0  0
   -7.0110   21.1420  -31.8750 C   0  0  0  0  0  0  0  0  0  0  0  0
   -5.7630   21.7220  -32.1240 C   0  0  0  0  0  0  0  0  0  0  0  0
   -4.9167   17.0361  -31.1571 H   0  0  0  0  0  0  0  0  0  0  0  0
   -6.6053   17.2706  -31.7231 H   0  0  0  0  0  0  0  0  0  0  0  0
   -5.8779   15.6282  -31.7231 H   0  0  0  0  0  0  0  0  0  0  0  0
   -6.5654   15.3698  -33.6590 H   0  0  0  0  0  0  0  0  0  0  0  0
   -6.5620   16.7239  -34.8393 H   0  0  0  0  0  0  0  0  0  0  0  0
   -5.2207   15.5291  -34.8393 H   0  0  0  0  0  0  0  0  0  0  0  0
   -3.4187   15.9654  -32.6139 H   0  0  0  0  0  0  0  0  0  0  0  0
   -3.5101   16.3940  -34.3825 H   0  0  0  0  0  0  0  0  0  0  0  0
   -0.6697   19.0246  -31.0997 H   0  0  0  0  0  0  0  0  0  0  0  0
    0.2322   20.5067  -31.4886 H   0  0  0  0  0  0  0  0  0  0  0  0
   -2.0537   20.1237  -29.5957 H   0  0  0  0  0  0  0  0  0  0  0  0
   -0.9106   21.4506  -29.6340 H   0  0  0  0  0  0  0  0  0  0  0  0
   -3.6522   22.8991  -33.2573 H   0  0  0  0  0  0  0  0  0  0  0  0
   -3.2538   21.5465  -34.3885 H   0  0  0  0  0  0  0  0  0  0  0  0
   -4.6782   19.6319  -34.6062 H   0  0  0  0  0  0  0  0  0  0  0  0
   -6.9022   18.5966  -34.1518 H   0  0  0  0  0  0  0  0  0  0  0  0
   -7.6726   21.5706  -31.1078 H   0  0  0  0  0  0  0  0  0  0  0  0
   -5.4505   22.6115  -31.5573 H   0  0  0  0  0  0  0  0  0  0  0  0
  1  2  1  0
  2  3  1  0
  2  4  1  0
  4  5  1  0
  5  6  3  0
  7  6  1  6
  7  8  1  0
  8  9  1  0
  8 10  1  0
  8 11  1  0
  7 12  1  0
 12 13  1  0
 13 14  1  0
 14 15  2  0
 14 16  1  0
 16 17  1  0
 17 18  1  0
 18 19  2  0
 19 20  1  0
 20 21  2  0
 21 22  1  0
 21 23  1  0
 23 24  2  0
 16  7  1  0
 24 18  1  0
  1 25  1  0
  1 26  1  0
  1 27  1  0
  3 28  1  0
  3 29  1  0
  3 30  1  0
  4 31  1  0
  4 32  1  0
 12 33  1  0
 12 34  1  0
 13 35  1  0
 13 36  1  0
 17 37  1  0
 17 38  1  0
 19 39  1  0
 20 40  1  0
 23 41  1  0
 24 42  1  0
M  END
>  <UniqueID>  (2) 
2

>  <SMILES>  (2) 
CN(C)CC#C[C@]1(C(F)(F)F)CCC(=O)N1Cc1ccc(Br)cc1

>  <Energy>  (2) 
43.9571092849918

>  <Genealogy>  (2) 
CN(C)CC#C[C@]1(C(F)(F)F)CCC(=O)N1Cc1ccc(Br)cc1 (chirality)
CN(C)CC#C[C@]1(C(F)(F)F)CCC(=O)N1Cc1ccc(Br)cc1 (3D coordinates assigned)
CN(C)CC#C[C@]1(C(F)(F)F)CCC(=O)N1Cc1ccc(Br)cc1 (nonaromatic ring conformer: 43.9571092849918 kcal/mol)

>  <smiles>  (2) 
CN(C)CC#CC1(C(F)(F)F)CCC(=O)N1Cc1ccc(Br)cc1

>  <score_type>  (2) 
oracle

>  <origin>  (2) 
adg

>  <m_score__min__energy>  (2) 
-6.0899999999999999

>  <m_primary>  (2) 
energy

$$$$
2:0
     RDKit          3D

 76 78  0  0  0  0  0  0  0  0999 V2000
    1.3780   16.3180  -27.2200 C   0  0  0  0  0  0  0  0  0  0  0  0
    1.6010   17.7470  -27.7080 C   0  0  0  0  0  0  0  0  0  0  0  0
    0.3230   18.3420  -28.1620 N   0  0  0  0  0  0  0  0  0  0  0  0
   -0.7330   18.1950  -27.1330 C   0  0  0  0  0  0  0  0  0  0  0  0
   -1.6030   19.4490  -27.0660 C   0  0  0  0  0  0  0  0  0  0  0  0
   -0.1080   17.7800  -29.4690 C   0  0  0  0  0  0  0  0  0  0  0  0
   -0.5000   18.9070  -30.4280 C   0  0  0  0  0  0  0  0  0  0  0  0
   -0.1460   20.2140  -29.8740 N   0  0  0  0  0  0  0  0  0  0  0  0
   -1.0560   21.3290  -29.8490 C   0  0  0  0  0  0  0  0  0  0  0  0
   -2.2070   21.2590  -30.6360 C   0  0  0  0  0  0  0  0  0  0  0  0
   -3.0220   22.3650  -30.8070 C   0  0  0  0  0  0  0  0  0  0  0  0
   -2.7050   23.5880  -30.2130 C   0  0  0  0  0  0  0  0  0  0  0  0
   -3.5410   24.7200  -30.5130 N   0  0  0  0  0  0  0  0  0  0  0  0
   -4.9580   24.5850  -30.8500 C   0  0  0  0  0  0  0  0  0  0  0  0
   -5.7080   23.8000  -29.7670 C   0  0  0  0  0  0  0  0  0  0  0  0
   -7.1090   23.8890  -29.9480 O   0  0  0  0  0  0  0  0  0  0  0  0
   -7.6570   22.6690  -30.4140 C   0  0  0  0  0  0  0  0  0  0  0  0
   -7.7270   22.6690  -31.9420 C   0  0  0  0  0  0  0  0  0  0  0  0
   -7.6080   21.2810  -32.4660 N   0  0  0  0  0  0  0  0  0  0  0  0
   -8.7940   20.4600  -32.1260 C   0  0  0  0  0  0  0  0  0  0  0  0
   -8.4820   18.9650  -32.1950 C   0  0  0  0  0  0  0  0  0  0  0  0
   -6.3740   20.6200  -31.9810 C   0  0  0  0  0  0  0  0  0  0  0  0
   -5.2760   20.6680  -33.0410 C   0  0  0  0  0  0  0  0  0  0  0  0
   -1.5560   23.6940  -29.3740 C   0  0  0  0  0  0  0  0  0  0  0  0
   -1.2120   24.9070  -28.7250 C   0  0  0  0  0  0  0  0  0  0  0  0
   -1.9840   26.0530  -28.8950 O   0  0  0  0  0  0  0  0  0  0  0  0
   -0.0830   24.9840  -27.8950 C   0  0  0  0  0  0  0  0  0  0  0  0
    0.2770   26.2110  -27.2980 C   0  0  0  0  0  0  0  0  0  0  0  0
    1.4000   26.3010  -26.4790 C   0  0  0  0  0  0  0  0  0  0  0  0
    2.1880   25.1780  -26.2530 C   0  0  0  0  0  0  0  0  0  0  0  0
    1.8460   23.9530  -26.8280 C   0  0  0  0  0  0  0  0  0  0  0  0
    0.6960   23.8300  -27.6400 C   0  0  0  0  0  0  0  0  0  0  0  0
    0.3110   22.5920  -28.2070 C   0  0  0  0  0  0  0  0  0  0  0  0
    0.9180   21.3980  -27.7940 O   0  0  0  0  0  0  0  0  0  0  0  0
   -0.7470   22.5340  -29.1540 C   0  0  0  0  0  0  0  0  0  0  0  0
    1.3756   16.3023  -26.1201 H   0  0  0  0  0  0  0  0  0  0  0  0
    0.4115   15.9494  -27.5941 H   0  0  0  0  0  0  0  0  0  0  0  0
    2.1863   15.6724  -27.5941 H   0  0  0  0  0  0  0  0  0  0  0  0
    2.0103   18.3515  -26.8851 H   0  0  0  0  0  0  0  0  0  0  0  0
    2.3068   17.7303  -28.5515 H   0  0  0  0  0  0  0  0  0  0  0  0
   -1.3648   17.3307  -27.3855 H   0  0  0  0  0  0  0  0  0  0  0  0
   -0.2535   18.0456  -26.1543 H   0  0  0  0  0  0  0  0  0  0  0  0
   -1.7859   19.7126  -26.0138 H   0  0  0  0  0  0  0  0  0  0  0  0
   -1.0868   20.2806  -27.5680 H   0  0  0  0  0  0  0  0  0  0  0  0
   -2.5627   19.2567  -27.5680 H   0  0  0  0  0  0  0  0  0  0  0  0
    0.7198   17.2026  -29.9065 H   0  0  0  0  0  0  0  0  0  0  0  0
   -0.9788   17.1274  -29.3084 H   0  0  0  0  0  0  0  0  0  0  0  0
    0.0274   18.7663  -31.3830 H   0  0  0  0  0  0  0  0  0  0  0  0
   -1.5889   18.8744  -30.5805 H   0  0  0  0  0  0  0  0  0  0  0  0
    0.8040   20.3230  -29.4510 H   0  0  0  0  0  0  0  0  0  0  0  0
   -2.4703   20.3108  -31.1276 H   0  0  0  0  0  0  0  0  0  0  0  0
   -3.9318   22.2790  -31.4193 H   0  0  0  0  0  0  0  0  0  0  0  0
   -3.1010   25.6650  -30.5790 H   0  0  0  0  0  0  0  0  0  0  0  0
   -5.4030   25.5868  -30.9414 H   0  0  0  0  0  0  0  0  0  0  0  0
   -5.0416   24.0380  -31.8007 H   0  0  0  0  0  0  0  0  0  0  0  0
   -5.4063   22.7433  -29.8159 H   0  0  0  0  0  0  0  0  0  0  0  0
   -5.4554   24.2305  -28.7868 H   0  0  0  0  0  0  0  0  0  0  0  0
   -7.0226   21.8349  -30.0796 H   0  0  0  0  0  0  0  0  0  0  0  0
   -8.6733   22.5548  -30.0088 H   0  0  0  0  0  0  0  0  0  0  0  0
   -8.6894   23.0957  -32.2609 H   0  0  0  0  0  0  0  0  0  0  0  0
   -6.8968   23.2725  -32.3376 H   0  0  0  0  0  0  0  0  0  0  0  0
   -9.1205   20.7098  -31.1057 H   0  0  0  0  0  0  0  0  0  0  0  0
   -9.5860   20.6803  -32.8569 H   0  0  0  0  0  0  0  0  0  0  0  0
   -8.3976   18.5606  -31.1755 H   0  0  0  0  0  0  0  0  0  0  0  0
   -9.2912   18.4459  -32.7296 H   0  0  0  0  0  0  0  0  0  0  0  0
   -7.5327   18.8128  -32.7296 H   0  0  0  0  0  0  0  0  0  0  0  0
   -6.0222   21.1349  -31.0748 H   0  0  0  0  0  0  0  0  0  0  0  0
   -6.6033   19.5670  -31.7608 H   0  0  0  0  0  0  0  0  0  0  0  0
   -4.2931   20.7110  -32.5491 H   0  0  0  0  0  0  0  0  0  0  0  0
   -5.3327   19.7665  -33.6688 H   0  0  0  0  0  0  0  0  0  0  0  0
   -5.4112   21.5611  -33.6688 H   0  0  0  0  0  0  0  0  0  0  0  0
   -0.3358   27.1059  -27.4814 H   0  0  0  0  0  0  0  0  0  0  0  0
    1.6636   27.2609  -26.0108 H   0  0  0  0  0  0  0  0  0  0  0  0
    3.0837   25.2552  -25.6191 H   0  0  0  0  0  0  0  0  0  0  0  0
    2.4796   23.0723  -26.6468 H   0  0  0  0  0  0  0  0  0  0  0  0
    0.4900   20.4850  -27.8480 H   0  0  0  0  0  0  0  0  0  0  0  0
  1  2  1  0
  2  3  1  0
  3  4  1  0
  4  5  1  0
  3  6  1  0
  6  7  1  0
  7  8  1  0
  8  9  1  0
  9 10  2  0
 10 11  1  0
 11 12  2  0
 12 13  1  0
 13 14  1  0
 14 15  1  0
 15 16  1  0
 16 17  1  0
 17 18  1  0
 18 19  1  0
 19 20  1  0
 20 21  1  0
 19 22  1  0
 22 23  1  0
 12 24  1  0
 24 25  2  0
 25 26  1  0
 25 27  1  0
 27 28  2  0
 28 29  1  0
 29 30  2  0
 30 31  1  0
 31 32  2  0
 32 33  1  0
 33 34  1  0
 33 35  2  0
 35  9  1  0
 35 24  1  0
 32 27  1  0
  1 36  1  0
  1 37  1  0
  1 38  1  0
  2 39  1  0
  2 40  1  0
  4 41  1  0
  4 42  1  0
  5 43  1  0
  5 44  1  0
  5 45  1  0
  6 46  1  0
  6 47  1  0
  7 48  1  0
  7 49  1  0
  8 50  1  0
 10 51  1  0
 11 52  1  0
 13 53  1  0
 14 54  1  0
 14 55  1  0
 15 56  1  0
 15 57  1  0
 17 58  1  0
 17 59  1  0
 18 60  1  0
 18 61  1  0
 20 62  1  0
 20 63  1  0
 21 64  1  0
 21 65  1  0
 21 66  1  0
 22 67  1  0
 22 68  1  0
 23 69  1  0
 23 70  1  0
 23 71  1  0
 28 72  1  0
 29 73  1  0
 30 74  1  0
 31 75  1  0
 34 76  1  0
M  CHG  1  26  -1
M  END
>  <UniqueID>  (3) 
3

>  <SMILES>  (3) 
CCN(CC)CCNc1ccc(NCCOCCN(CC)CC)c2c([O-])c3ccccc3c(O)c12

>  <Energy>  (3) 
101.19935061977465

>  <Genealogy>  (3) 
CCN(CC)CCNc1ccc(NCCOCCN(CC)CC)c2c([O-])c3ccccc3c(O)c12 (protonated)
CCN(CC)CCNc1ccc(NCCOCCN(CC)CC)c2c([O-])c3ccccc3c(O)c12 (3D coordinates assigned)
CCN(CC)CCNc1ccc(NCCOCCN(CC)CC)c2c([O-])c3ccccc3c(O)c12 (optimized conformer: 101.19935061977465 kcal/mol)

>  <smiles>  (3) 
CCN(CC)CCNc1ccc(NCCOCCN(CC)CC)c2c(O)c3ccccc3c(O)c12

>  <score_type>  (3) 
oracle

>  <origin>  (3) 
adg

>  <m_score__min__energy>  (3) 
-10.279999999999999

>  <m_primary>  (3) 
energy

$$$$
3:0
     RDKit          3D

 50 54  0  0  0  0  0  0  0  0999 V2000
    0.4190   17.6680  -28.0880 C   0  0  0  0  0  0  0  0  0  0  0  0
   -0.7880   18.2990  -27.6700 O   0  0  0  0  0  0  0  0  0  0  0  0
   -1.3150   19.4660  -28.2440 C   0  0  0  0  0  0  0  0  0  0  0  0
   -0.8290   19.9870  -29.4590 C   0  0  0  0  0  0  0  0  0  0  0  0
   -1.3880   21.1430  -30.0070 C   0  0  0  0  0  0  0  0  0  0  0  0
   -2.4410   21.7970  -29.3540 C   0  0  0  0  0  0  0  0  0  0  0  0
   -3.0270   23.0220  -29.9360 C   0  0  0  0  0  0  0  0  0  0  0  0
   -2.5930   24.3060  -29.6290 C   0  0  0  0  0  0  0  0  0  0  0  0
   -3.5100   25.1860  -29.9680 O   0  0  0  0  0  0  0  0  0  0  0  0
   -4.5230   24.5320  -30.4800 C   0  0  0  0  0  0  0  0  0  0  0  0
   -5.7520   25.0680  -30.8280 C   0  0  0  0  0  0  0  0  0  0  0  0
   -6.7780   24.1850  -31.1850 C   0  0  0  0  0  0  0  0  0  0  0  0
   -6.5380   22.7860  -31.2960 C   0  0  0  0  0  0  0  0  0  0  0  0
   -7.5820   21.8800  -31.5830 C   0  0  0  0  0  0  0  0  0  0  0  0
   -8.9260   22.3570  -31.7630 N   0  0  0  0  0  0  0  0  0  0  0  0
   -7.2970   20.4980  -31.6470 C   0  0  0  0  0  0  0  0  0  0  0  0
   -8.3170   19.5430  -31.8560 C   0  0  0  0  0  0  0  0  0  0  0  0
   -8.0150   18.1850  -31.9460 C   0  0  0  0  0  0  0  0  0  0  0  0
   -6.6990   17.7530  -31.8470 C   0  0  0  0  0  0  0  0  0  0  0  0
   -5.6700   18.6780  -31.6720 C   0  0  0  0  0  0  0  0  0  0  0  0
   -5.9450   20.0630  -31.5760 C   0  0  0  0  0  0  0  0  0  0  0  0
   -4.9270   20.9820  -31.4430 N   0  0  0  0  0  0  0  0  0  0  0  0
   -3.5800   20.6300  -31.9440 C   0  0  0  0  0  0  0  0  0  0  0  0
   -5.2220   22.2790  -31.0850 C   0  0  0  0  0  0  0  0  0  0  0  0
   -4.2660   23.1840  -30.5560 C   0  0  0  0  0  0  0  0  0  0  0  0
   -2.9020   21.3030  -28.1250 C   0  0  0  0  0  0  0  0  0  0  0  0
   -2.3580   20.1250  -27.5760 C   0  0  0  0  0  0  0  0  0  0  0  0
   -2.8330   19.5780  -26.3730 O   0  0  0  0  0  0  0  0  0  0  0  0
   -3.8260   18.5600  -26.2870 C   0  0  0  0  0  0  0  0  0  0  0  0
    0.9993   17.3646  -27.2041 H   0  0  0  0  0  0  0  0  0  0  0  0
    0.1787   16.7801  -28.6913 H   0  0  0  0  0  0  0  0  0  0  0  0
    1.0109   18.3720  -28.6913 H   0  0  0  0  0  0  0  0  0  0  0  0
   -0.0034   19.4796  -29.9796 H   0  0  0  0  0  0  0  0  0  0  0  0
   -1.0000   21.5421  -30.9557 H   0  0  0  0  0  0  0  0  0  0  0  0
   -1.6240   24.5507  -29.1695 H   0  0  0  0  0  0  0  0  0  0  0  0
   -5.9169   26.1556  -30.8239 H   0  0  0  0  0  0  0  0  0  0  0  0
   -7.7860   24.5784  -31.3830 H   0  0  0  0  0  0  0  0  0  0  0  0
   -9.1370   23.3760  -31.8250 H   0  0  0  0  0  0  0  0  0  0  0  0
   -9.7270   21.6940  -31.8490 H   0  0  0  0  0  0  0  0  0  0  0  0
   -9.3616   19.8749  -31.9488 H   0  0  0  0  0  0  0  0  0  0  0  0
   -8.8222   17.4529  -32.0960 H   0  0  0  0  0  0  0  0  0  0  0  0
   -6.4677   16.6793  -31.9067 H   0  0  0  0  0  0  0  0  0  0  0  0
   -4.6298   18.3261  -31.6077 H   0  0  0  0  0  0  0  0  0  0  0  0
   -2.9065   20.4540  -31.0923 H   0  0  0  0  0  0  0  0  0  0  0  0
   -3.6432   19.7182  -32.5561 H   0  0  0  0  0  0  0  0  0  0  0  0
   -3.1890   21.4561  -32.5561 H   0  0  0  0  0  0  0  0  0  0  0  0
   -3.6955   21.8401  -27.5848 H   0  0  0  0  0  0  0  0  0  0  0  0
   -4.0378   18.3428  -25.2297 H   0  0  0  0  0  0  0  0  0  0  0  0
   -4.7463   18.9027  -26.7825 H   0  0  0  0  0  0  0  0  0  0  0  0
   -3.4605   17.6485  -26.7825 H   0  0  0  0  0  0  0  0  0  0  0  0
  1  2  1  0
  2  3  1  0
  3  4  2  0
  4  5  1  0
  5  6  2  0
  6  7  1  0
  7  8  2  0
  8  9  1  0
  9 10  1  0
 10 11  2  0
 11 12  1  0
 12 13  2  0
 13 14  1  0
 14 15  1  0
 14 16  2  0
 16 17  1  0
 17 18  2  0
 18 19  1  0
 19 20  2  0
 20 21  1  0
 21 22  2  0
 22 23  1  0
 22 24  1  0
 24 25  2  0
  6 26  1  0
 26 27  2  0
 27 28  1  0
 28 29  1  0
 27  3  1  0
 25  7  1  0
 25 10  1  0
 24 13  1  0
 21 16  1  0
  1 30  1  0
  1 31  1  0
  1 32  1  0
  4 33  1  0
  5 34  1  0
  8 35  1  0
 11 36  1  0
 12 37  1  0
 15 38  1  0
 15 39  1  0
 17 40  1  0
 18 41  1  0
 19 42  1  0
 20 43  1  0
 23 44  1  0
 23 45  1  0
 23 46  1  0
 26 47  1  0
 29 48  1  0
 29 49  1  0
 29 50  1  0
M  CHG  1  22   1
M  END
>  <UniqueID>  (4) 
4

>  <SMILES>  (4) 
COc1ccc(-c2coc3ccc4c(N)c5ccccc5[n+](C)c4c23)cc1OC

>  <Energy>  (4) 
128.60615159258856

>  <Genealogy>  (4) 
COc1ccc(-c2coc3ccc4c(N)c5ccccc5[n+](C)c4c23)cc1OC (3D coordinates assigned)
COc1ccc(-c2coc3ccc4c(N)c5ccccc5[n+](C)c4c23)cc1OC (optimized conformer: 128.60615159258856 kcal/mol)

>  <smiles>  (4) 
COc1ccc(-c2coc3ccc4c(N)c5ccccc5[n+](C)c4c23)cc1OC

>  <score_type>  (4) 
oracle

>  <origin>  (4) 
adg

>  <m_score__min__energy>  (4) 
-8.6199999999999992

>  <m_primary>  (4) 
energy

$$$$
4:0
     RDKit          3D

 59 61  0  0  0  0  0  0  0  0999 V2000
   -5.3850   26.0510  -30.4680 C   0  0  0  0  0  0  0  0  0  0  0  0
   -6.2960   25.1900  -29.5850 C   0  0  0  0  0  0  0  0  0  0  0  0
   -5.7060   23.8540  -29.3020 N   0  0  0  0  0  0  0  0  0  0  0  0
   -4.2350   23.8380  -29.0490 C   0  0  0  0  0  0  0  0  0  0  0  0
   -3.7210   22.7360  -28.1080 C   0  0  0  0  0  0  0  0  0  0  0  0
   -6.1590   22.8120  -30.2640 C   0  0  0  0  0  0  0  0  0  0  0  0
   -6.5010   23.3130  -31.6830 C   0  0  0  0  0  0  0  0  0  0  0  0
   -5.8790   22.4740  -32.7110 N   0  0  0  0  0  0  0  0  0  0  0  0
   -5.8340   21.0420  -32.5730 C   0  0  0  0  0  0  0  0  0  0  0  0
   -7.0410   20.3250  -32.4510 C   0  0  0  0  0  0  0  0  0  0  0  0
   -8.2630   20.9940  -32.2180 C   0  0  0  0  0  0  0  0  0  0  0  0
   -9.4620   20.2900  -32.1540 C   0  0  0  0  0  0  0  0  0  0  0  0
   -9.4710   18.9140  -32.3350 C   0  0  0  0  0  0  0  0  0  0  0  0
   -8.2780   18.2290  -32.5570 C   0  0  0  0  0  0  0  0  0  0  0  0
   -7.0330   18.9120  -32.5860 C   0  0  0  0  0  0  0  0  0  0  0  0
   -5.8420   18.2420  -32.7890 N   0  0  0  0  0  0  0  0  0  0  0  0
   -5.8060   16.7640  -32.7000 C   0  0  0  0  0  0  0  0  0  0  0  0
   -4.6770   18.9480  -33.0240 C   0  0  0  0  0  0  0  0  0  0  0  0
   -3.5290   18.3140  -33.5430 C   0  0  0  0  0  0  0  0  0  0  0  0
   -2.3190   18.9950  -33.7070 C   0  0  0  0  0  0  0  0  0  0  0  0
   -1.1430   18.2510  -34.2950 C   0  0  0  0  0  0  0  0  0  0  0  0
   -2.2160   20.3440  -33.3040 C   0  0  0  0  0  0  0  0  0  0  0  0
   -0.8950   21.0770  -33.4310 C   0  0  0  0  0  0  0  0  0  0  0  0
   -3.3430   20.9830  -32.7230 C   0  0  0  0  0  0  0  0  0  0  0  0
   -3.1400   22.2750  -31.9550 C   0  0  0  0  0  0  0  0  0  0  0  0
   -4.6180   20.3410  -32.7680 C   0  0  0  0  0  0  0  0  0  0  0  0
   -4.7331   26.6671  -29.8313 H   0  0  0  0  0  0  0  0  0  0  0  0
   -4.7673   25.3990  -31.1031 H   0  0  0  0  0  0  0  0  0  0  0  0
   -6.0011   26.7045  -31.1031 H   0  0  0  0  0  0  0  0  0  0  0  0
   -6.4621   25.7129  -28.6316 H   0  0  0  0  0  0  0  0  0  0  0  0
   -7.2408   25.0338  -30.1262 H   0  0  0  0  0  0  0  0  0  0  0  0
   -6.1360   23.5440  -28.3980 H   0  0  0  0  0  0  0  0  0  0  0  0
   -3.7289   23.7152  -30.0179 H   0  0  0  0  0  0  0  0  0  0  0  0
   -4.0131   24.7875  -28.5400 H   0  0  0  0  0  0  0  0  0  0  0  0
   -3.8667   23.0484  -27.0634 H   0  0  0  0  0  0  0  0  0  0  0  0
   -4.2782   21.8059  -28.2937 H   0  0  0  0  0  0  0  0  0  0  0  0
   -2.6503   22.5652  -28.2937 H   0  0  0  0  0  0  0  0  0  0  0  0
   -5.3575   22.0640  -30.3540 H   0  0  0  0  0  0  0  0  0  0  0  0
   -7.0981   22.4131  -29.8530 H   0  0  0  0  0  0  0  0  0  0  0  0
   -7.5927   23.2921  -31.8164 H   0  0  0  0  0  0  0  0  0  0  0  0
   -6.1139   24.3369  -31.7911 H   0  0  0  0  0  0  0  0  0  0  0  0
   -5.2960   22.9230  -33.4510 H   0  0  0  0  0  0  0  0  0  0  0  0
   -8.2671   22.0860  -32.0853 H   0  0  0  0  0  0  0  0  0  0  0  0
  -10.4034   20.8248  -31.9598 H   0  0  0  0  0  0  0  0  0  0  0  0
  -10.4224   18.3627  -32.3031 H   0  0  0  0  0  0  0  0  0  0  0  0
   -8.3009   17.1403  -32.7125 H   0  0  0  0  0  0  0  0  0  0  0  0
   -5.7986   16.4604  -31.6428 H   0  0  0  0  0  0  0  0  0  0  0  0
   -6.6942   16.3451  -33.1956 H   0  0  0  0  0  0  0  0  0  0  0  0
   -4.8985   16.3888  -33.1956 H   0  0  0  0  0  0  0  0  0  0  0  0
   -3.5873   17.2529  -33.8270 H   0  0  0  0  0  0  0  0  0  0  0  0
   -0.5165   17.8546  -33.4824 H   0  0  0  0  0  0  0  0  0  0  0  0
   -1.5083   17.4193  -34.9154 H   0  0  0  0  0  0  0  0  0  0  0  0
   -0.5479   18.9373  -34.9154 H   0  0  0  0  0  0  0  0  0  0  0  0
   -0.4995   21.2964  -32.4283 H   0  0  0  0  0  0  0  0  0  0  0  0
   -0.1777   20.4479  -33.9784 H   0  0  0  0  0  0  0  0  0  0  0  0
   -1.0493   22.0185  -33.9784 H   0  0  0  0  0  0  0  0  0  0  0  0
   -3.1724   22.0686  -30.8750 H   0  0  0  0  0  0  0  0  0  0  0  0
   -2.1629   22.7073  -32.2165 H   0  0  0  0  0  0  0  0  0  0  0  0
   -3.9374   22.9862  -32.2165 H   0  0  0  0  0  0  0  0  0  0  0  0
  1  2  1  0
  2  3  1  0
  3  4  1  0
  4  5  1  0
  3  6  1  0
  6  7  1  0
  7  8  1  0
  8  9  1  0
  9 10  2  0
 10 11  1  0
 11 12  2  0
 12 13  1  0
 13 14  2  0
 14 15  1  0
 15 16  2  0
 16 17  1  0
 16 18  1  0
 18 19  2  0
 19 20  1  0
 20 21  1  0
 20 22  2  0
 22 23  1  0
 22 24  1  0
 24 25  1  0
 24 26  2  0
 26  9  1  0
 15 10  1  0
 26 18  1  0
  1 27  1  0
  1 28  1  0
  1 29  1  0
  2 30  1  0
  2 31  1  0
  3 32  1  0
  4 33  1  0
  4 34  1  0
  5 35  1  0
  5 36  1  0
  5 37  1  0
  6 38  1  0
  6 39  1  0
  7 40  1  0
  7 41  1  0
  8 42  1  0
 11 43  1  0
 12 44  1  0
 13 45  1  0
 14 46  1  0
 17 47  1  0
 17 48  1  0
 17 49  1  0
 19 50  1  0
 21 51  1  0
 21 52  1  0
 21 53  1  0
 23 54  1  0
 23 55  1  0
 23 56  1  0
 25 57  1  0
 25 58  1  0
 25 59  1  0
M  CHG  2   3   1  16   1
M  END
>  <UniqueID>  (5) 
5

>  <SMILES>  (5) 
CC[NH+](CC)CCNc1c2ccccc2[n+](C)c2cc(C)c(C)c(C)c12

>  <Energy>  (5) 
108.74236958074422

>  <Genealogy>  (5) 
CC[NH+](CC)CCNc1c2ccccc2[n+](C)c2cc(C)c(C)c(C)c12 (protonated)
CC[NH+](CC)CCNc1c2ccccc2[n+](C)c2cc(C)c(C)c(C)c12 (3D coordinates assigned)
CC[NH+](CC)CCNc1c2ccccc2[n+](C)c2cc(C)c(C)c(C)c12 (optimized conformer: 108.74236958074422 kcal/mol)

>  <smiles>  (5) 
CCN(CC)CCNc1c2ccccc2[n+](C)c2cc(C)c(C)c(C)c12

>  <score_type>  (5) 
oracle

>  <origin>  (5) 
adg

>  <m_score__min__energy>  (5) 
-7.6900000000000004

>  <m_primary>  (5) 
energy

$$$$
5:0
     RDKit          3D

 57 60  0  0  0  0  0  0  0  0999 V2000
    0.3790   21.3840  -35.6880 C   0  0  0  0  0  0  0  0  0  0  0  0
   -0.1590   22.0180  -34.5480 O   0  0  0  0  0  0  0  0  0  0  0  0
   -0.0480   21.1760  -33.4160 C   0  0  0  0  0  0  0  0  0  0  0  0
   -1.3450   21.1900  -32.6040 C   0  0  0  0  0  0  0  0  0  0  0  0
   -2.4990   21.3740  -33.4970 N   0  0  0  0  0  0  0  0  0  0  0  0
   -3.1290   20.0880  -33.8260 C   0  0  0  0  0  0  0  0  0  0  0  0
   -4.4090   19.8990  -33.0050 C   0  0  0  0  0  0  0  0  0  0  0  0
   -5.2620   21.0840  -33.1040 N   0  0  0  0  0  0  0  0  0  0  0  0
   -6.6000   21.1640  -32.5690 C   0  0  0  0  0  0  0  0  0  0  0  0
   -7.5770   20.2240  -32.9540 C   0  0  0  0  0  0  0  0  0  0  0  0
   -8.8490   20.2440  -32.3800 C   0  0  0  0  0  0  0  0  0  0  0  0
   -9.1660   21.1970  -31.4150 C   0  0  0  0  0  0  0  0  0  0  0  0
   -8.2180   22.1460  -31.0300 C   0  0  0  0  0  0  0  0  0  0  0  0
   -6.9320   22.1460  -31.6020 C   0  0  0  0  0  0  0  0  0  0  0  0
   -5.9790   23.2190  -31.2300 C   0  0  0  0  0  0  0  0  0  0  0  0
   -4.6390   22.9250  -30.9390 C   0  0  0  0  0  0  0  0  0  0  0  0
   -3.7760   23.9770  -30.5890 C   0  0  0  0  0  0  0  0  0  0  0  0
   -2.4210   23.7670  -30.2950 O   0  0  0  0  0  0  0  0  0  0  0  0
   -1.8960   23.6860  -28.9990 C   0  0  0  0  0  0  0  0  0  0  0  0
   -1.3960   24.8540  -28.4110 C   0  0  0  0  0  0  0  0  0  0  0  0
   -0.8880   24.8350  -27.1120 C   0  0  0  0  0  0  0  0  0  0  0  0
   -0.8630   23.6450  -26.3840 C   0  0  0  0  0  0  0  0  0  0  0  0
   -1.3320   22.4550  -26.9600 C   0  0  0  0  0  0  0  0  0  0  0  0
   -1.2880   21.2530  -26.2360 C   0  0  0  0  0  0  0  0  0  0  0  0
   -1.7350   20.0640  -26.8180 C   0  0  0  0  0  0  0  0  0  0  0  0
   -2.2180   20.0630  -28.1270 C   0  0  0  0  0  0  0  0  0  0  0  0
   -2.2680   21.2510  -28.8610 C   0  0  0  0  0  0  0  0  0  0  0  0
   -1.8450   22.4650  -28.2850 C   0  0  0  0  0  0  0  0  0  0  0  0
   -4.2680   25.2420  -30.5210 N   0  0  0  0  0  0  0  0  0  0  0  0
   -5.5690   25.5110  -30.7960 C   0  0  0  0  0  0  0  0  0  0  0  0
   -6.4120   24.5050  -31.1470 N   0  0  0  0  0  0  0  0  0  0  0  0
    1.0609   20.5804  -35.3731 H   0  0  0  0  0  0  0  0  0  0  0  0
   -0.4371   20.9576  -36.2898 H   0  0  0  0  0  0  0  0  0  0  0  0
    0.9325   22.1198  -36.2898 H   0  0  0  0  0  0  0  0  0  0  0  0
    0.1588   20.1482  -33.7490 H   0  0  0  0  0  0  0  0  0  0  0  0
    0.7717   21.5428  -32.7807 H   0  0  0  0  0  0  0  0  0  0  0  0
   -1.4487   20.2352  -32.0677 H   0  0  0  0  0  0  0  0  0  0  0  0
   -1.3103   22.0217  -31.8849 H   0  0  0  0  0  0  0  0  0  0  0  0
   -2.1440   21.7950  -34.3880 H   0  0  0  0  0  0  0  0  0  0  0  0
   -3.3786   20.0694  -34.8972 H   0  0  0  0  0  0  0  0  0  0  0  0
   -2.4278   19.2743  -33.5890 H   0  0  0  0  0  0  0  0  0  0  0  0
   -4.9578   19.0253  -33.3863 H   0  0  0  0  0  0  0  0  0  0  0  0
   -4.1355   19.7450  -31.9507 H   0  0  0  0  0  0  0  0  0  0  0  0
   -4.8670   21.9100  -33.6070 H   0  0  0  0  0  0  0  0  0  0  0  0
   -7.3346   19.4671  -33.7144 H   0  0  0  0  0  0  0  0  0  0  0  0
   -9.6028   19.5055  -32.6904 H   0  0  0  0  0  0  0  0  0  0  0  0
  -10.1654   21.2016  -30.9555 H   0  0  0  0  0  0  0  0  0  0  0  0
   -8.4781   22.9005  -30.2730 H   0  0  0  0  0  0  0  0  0  0  0  0
   -4.2703   21.8896  -30.9840 H   0  0  0  0  0  0  0  0  0  0  0  0
   -1.4038   25.7960  -28.9790 H   0  0  0  0  0  0  0  0  0  0  0  0
   -0.5056   25.7619  -26.6598 H   0  0  0  0  0  0  0  0  0  0  0  0
   -0.4742   23.6399  -25.3550 H   0  0  0  0  0  0  0  0  0  0  0  0
   -0.9002   21.2472  -25.2067 H   0  0  0  0  0  0  0  0  0  0  0  0
   -1.7061   19.1267  -26.2430 H   0  0  0  0  0  0  0  0  0  0  0  0
   -2.5610   19.1227  -28.5833 H   0  0  0  0  0  0  0  0  0  0  0  0
   -2.6403   21.2382  -29.8960 H   0  0  0  0  0  0  0  0  0  0  0  0
   -5.9415   26.5442  -30.7348 H   0  0  0  0  0  0  0  0  0  0  0  0
  1  2  1  0
  2  3  1  0
  3  4  1  0
  4  5  1  0
  5  6  1  0
  6  7  1  0
  7  8  1  0
  8  9  1  0
  9 10  2  0
 10 11  1  0
 11 12  2  0
 12 13  1  0
 13 14  2  0
 14 15  1  0
 15 16  2  0
 16 17  1  0
 17 18  1  0
 18 19  1  0
 19 20  2  0
 20 21  1  0
 21 22  2  0
 22 23  1  0
 23 24  2  0
 24 25  1  0
 25 26  2  0
 26 27  1  0
 27 28  2  0
 17 29  2  0
 29 30  1  0
 30 31  2  0
 14  9  1  0
 31 15  1  0
 28 19  1  0
 28 23  1  0
  1 32  1  0
  1 33  1  0
  1 34  1  0
  3 35  1  0
  3 36  1  0
  4 37  1  0
  4 38  1  0
  5 39  1  0
  6 40  1  0
  6 41  1  0
  7 42  1  0
  7 43  1  0
  8 44  1  0
 10 45  1  0
 11 46  1  0
 12 47  1  0
 13 48  1  0
 16 49  1  0
 20 50  1  0
 21 51  1  0
 22 52  1  0
 24 53  1  0
 25 54  1  0
 26 55  1  0
 27 56  1  0
 30 57  1  0
M  END
>  <UniqueID>  (6) 
6

>  <SMILES>  (6) 
COCCNCCNc1ccccc1-c1cc(Oc2cccc3ccccc23)ncn1

>  <Energy>  (6) 
78.54948576862957

>  <Genealogy>  (6) 
COCCNCCNc1ccccc1-c1cc(Oc2cccc3ccccc23)ncn1 (3D coordinates assigned)
COCCNCCNc1ccccc1-c1cc(Oc2cccc3ccccc23)ncn1 (optimized conformer: 78.54948576862957 kcal/mol)

>  <smiles>  (6) 
COCCNCCNc1ccccc1-c1cc(Oc2cccc3ccccc23)ncn1

>  <score_type>  (6) 
oracle

>  <origin>  (6) 
adg

>  <m_score__min__energy>  (6) 
-9.9800000000000004

>  <m_primary>  (6) 
energy

$$$$
6:0
     RDKit          3D

 41 43  0  0  0  0  0  0  0  0999 V2000
   -7.5030   17.8190  -31.9710 C   0  0  0  0  0  0  0  0  0  0  0  0
   -6.8660   18.2830  -33.2740 C   0  0  0  0  0  0  0  0  0  0  0  0
   -6.1030   19.5150  -33.0570 N   0  0  0  0  0  0  0  0  0  0  0  0
   -6.5750   20.7370  -32.7010 C   0  0  0  0  0  0  0  0  0  0  0  0
   -8.3020   21.0840  -32.3440 S   0  0  0  0  0  0  0  0  0  0  0  0
   -7.9640   22.6180  -31.4050 C   0  0  0  0  0  0  0  0  0  0  0  0
   -7.1080   22.3670  -30.1510 C   0  0  0  0  0  0  0  0  0  0  0  0
   -6.3890   23.5870  -29.7180 N   0  0  0  0  0  0  0  0  0  0  0  0
   -6.4950   24.6740  -30.7200 C   0  0  0  0  0  0  0  0  0  0  0  0
   -5.3360   25.6730  -30.5800 C   0  0  0  0  0  0  0  0  0  0  0  0
   -4.0540   25.0930  -30.7820 O   0  0  0  0  0  0  0  0  0  0  0  0
   -3.9990   23.7080  -30.4650 C   0  0  0  0  0  0  0  0  0  0  0  0
   -4.9810   23.2920  -29.3540 C   0  0  0  0  0  0  0  0  0  0  0  0
   -5.6180   21.7020  -32.6670 N   0  0  0  0  0  0  0  0  0  0  0  0
   -4.5070   21.0330  -33.0220 C   0  0  0  0  0  0  0  0  0  0  0  0
   -3.2200   21.5470  -33.1670 C   0  0  0  0  0  0  0  0  0  0  0  0
   -2.2050   20.6630  -33.5790 C   0  0  0  0  0  0  0  0  0  0  0  0
   -2.5000   19.3050  -33.8390 C   0  0  0  0  0  0  0  0  0  0  0  0
   -3.8120   18.8190  -33.6860 C   0  0  0  0  0  0  0  0  0  0  0  0
   -4.7920   19.7210  -33.2670 C   0  0  0  0  0  0  0  0  0  0  0  0
   -6.9391   18.2298  -31.1205 H   0  0  0  0  0  0  0  0  0  0  0  0
   -8.5438   18.1720  -31.9256 H   0  0  0  0  0  0  0  0  0  0  0  0
   -7.4862   16.7201  -31.9256 H   0  0  0  0  0  0  0  0  0  0  0  0
   -6.1907   17.4989  -33.6470 H   0  0  0  0  0  0  0  0  0  0  0  0
   -7.6595   18.4787  -34.0102 H   0  0  0  0  0  0  0  0  0  0  0  0
   -7.4308   23.3222  -32.0605 H   0  0  0  0  0  0  0  0  0  0  0  0
   -8.9303   23.0255  -31.0730 H   0  0  0  0  0  0  0  0  0  0  0  0
   -7.7642   22.0325  -29.3340 H   0  0  0  0  0  0  0  0  0  0  0  0
   -6.3589   21.6004  -30.3983 H   0  0  0  0  0  0  0  0  0  0  0  0
   -6.4713   24.2359  -31.7287 H   0  0  0  0  0  0  0  0  0  0  0  0
   -7.4403   25.2112  -30.5528 H   0  0  0  0  0  0  0  0  0  0  0  0
   -5.4758   26.4733  -31.3216 H   0  0  0  0  0  0  0  0  0  0  0  0
   -5.3592   26.0495  -29.5467 H   0  0  0  0  0  0  0  0  0  0  0  0
   -4.2365   23.1335  -31.3725 H   0  0  0  0  0  0  0  0  0  0  0  0
   -2.9844   23.5014  -30.0937 H   0  0  0  0  0  0  0  0  0  0  0  0
   -4.8790   22.2113  -29.1762 H   0  0  0  0  0  0  0  0  0  0  0  0
   -4.7356   23.8687  -28.4500 H   0  0  0  0  0  0  0  0  0  0  0  0
   -3.0046   22.6069  -32.9664 H   0  0  0  0  0  0  0  0  0  0  0  0
   -1.1755   21.0312  -33.6995 H   0  0  0  0  0  0  0  0  0  0  0  0
   -1.6992   18.6240  -34.1629 H   0  0  0  0  0  0  0  0  0  0  0  0
   -4.0566   17.7660  -33.8893 H   0  0  0  0  0  0  0  0  0  0  0  0
  1  2  1  0
  2  3  1  0
  3  4  1  0
  4  5  1  0
  5  6  1  0
  6  7  1  0
  7  8  1  0
  8  9  1  0
  9 10  1  0
 10 11  1  0
 11 12  1  0
 12 13  1  0
  4 14  2  0
 14 15  1  0
 15 16  2  0
 16 17  1  0
 17 18  2  0
 18 19  1  0
 19 20  2  0
 20  3  1  0
 13  8  1  0
 20 15  1  0
  1 21  1  0
  1 22  1  0
  1 23  1  0
  2 24  1  0
  2 25  1  0
  6 26  1  0
  6 27  1  0
  7 28  1  0
  7 29  1  0
  9 30  1  0
  9 31  1  0
 10 32  1  0
 10 33  1  0
 12 34  1  0
 12 35  1  0
 13 36  1  0
 13 37  1  0
 16 38  1  0
 17 39  1  0
 18 40  1  0
 19 41  1  0
M  END
>  <UniqueID>  (7) 
7

>  <SMILES>  (7) 
CCn1c(SCCN2CCOCC2)nc2ccccc21

>  <Energy>  (7) 
87.34044866616647

>  <Genealogy>  (7) 
CCn1c(SCCN2CCOCC2)nc2ccccc21 (3D coordinates assigned)
CCn1c(SCCN2CCOCC2)nc2ccccc21 (nonaromatic ring conformer: 87.34044866616647 kcal/mol)

>  <smiles>  (7) 
CCn1c(SCCN2CCOCC2)nc2ccccc21

>  <score_type>  (7) 
oracle

>  <origin>  (7) 
adg

>  <m_score__min__energy>  (7) 
-7.8700000000000001

>  <m_primary>  (7) 
energy

$$$$
7:0
     RDKit          3D

 27 26  0  0  0  0  0  0  0  0999 V2000
   -7.6360   19.2600  -32.6760 C   0  0  0  0  0  0  0  0  0  0  0  0
   -6.4930   19.9070  -33.4690 C   0  0  0  0  0  0  0  0  0  0  0  0
   -5.9920   21.1920  -32.9140 N   0  0  0  0  0  0  0  0  0  0  0  0
   -4.7320   21.0190  -32.1420 C   0  0  0  0  0  0  0  0  0  0  0  0
   -3.5040   21.5340  -32.9040 C   0  0  0  0  0  0  0  0  0  0  0  0
   -7.0460   21.9780  -32.2160 C   0  0  0  0  0  0  0  0  0  0  0  0
   -6.5500   23.2190  -31.5950 C   0  0  0  0  0  0  0  0  0  0  0  0
   -6.1450   24.2340  -31.0860 C   0  0  0  0  0  0  0  0  0  0  0  0
   -5.6530   25.4750  -30.4730 C   0  0  0  0  0  0  0  0  0  0  0  0
   -4.2000   25.5750  -30.5890 N   0  0  0  0  0  0  0  0  0  0  0  0
   -7.4427   19.3694  -31.5987 H   0  0  0  0  0  0  0  0  0  0  0  0
   -8.5848   19.7550  -32.9304 H   0  0  0  0  0  0  0  0  0  0  0  0
   -7.7000   18.1917  -32.9304 H   0  0  0  0  0  0  0  0  0  0  0  0
   -5.6531   19.1972  -33.4978 H   0  0  0  0  0  0  0  0  0  0  0  0
   -6.9020   20.1402  -34.4631 H   0  0  0  0  0  0  0  0  0  0  0  0
   -5.7380   21.7570  -33.7600 H   0  0  0  0  0  0  0  0  0  0  0  0
   -4.8186   21.5731  -31.1957 H   0  0  0  0  0  0  0  0  0  0  0  0
   -4.5909   19.9422  -31.9670 H   0  0  0  0  0  0  0  0  0  0  0  0
   -2.7355   21.8563  -32.1860 H   0  0  0  0  0  0  0  0  0  0  0  0
   -3.1007   20.7292  -33.5362 H   0  0  0  0  0  0  0  0  0  0  0  0
   -3.7954   22.3857  -33.5362 H   0  0  0  0  0  0  0  0  0  0  0  0
   -7.8228   22.2432  -32.9483 H   0  0  0  0  0  0  0  0  0  0  0  0
   -7.4317   21.3452  -31.4031 H   0  0  0  0  0  0  0  0  0  0  0  0
   -6.1146   26.3348  -30.9807 H   0  0  0  0  0  0  0  0  0  0  0  0
   -5.9202   25.4692  -29.4060 H   0  0  0  0  0  0  0  0  0  0  0  0
   -3.8770   26.4290  -30.0740 H   0  0  0  0  0  0  0  0  0  0  0  0
   -3.9480   25.6980  -31.5980 H   0  0  0  0  0  0  0  0  0  0  0  0
  1  2  1  0
  2  3  1  0
  3  4  1  0
  4  5  1  0
  3  6  1  0
  6  7  1  0
  7  8  3  0
  8  9  1  0
  9 10  1  0
  1 11  1  0
  1 12  1  0
  1 13  1  0
  2 14  1  0
  2 15  1  0
  3 16  1  0
  4 17  1  0
  4 18  1  0
  5 19  1  0
  5 20  1  0
  5 21  1  0
  6 22  1  0
  6 23  1  0
  9 24  1  0
  9 25  1  0
 10 26  1  0
 10 27  1  0
M  CHG  1   3   1
M  END
>  <UniqueID>  (8) 
8

>  <SMILES>  (8) 
CC[NH+](CC)CC#CCN

>  <Energy>  (8) 
21.40554376245038

>  <Genealogy>  (8) 
CC[NH+](CC)CC#CCN (protonated)
CC[NH+](CC)CC#CCN (3D coordinates assigned)
CC[NH+](CC)CC#CCN (optimized conformer: 21.40554376245038 kcal/mol)

>  <smiles>  (8) 
CCN(CC)CC#CCN

>  <score_type>  (8) 
oracle

>  <origin>  (8) 
adg

>  <m_score__min__energy>  (8) 
-4.04

>  <m_primary>  (8) 
energy

$$$$
8:0
     RDKit          3D

 51 54  0  0  0  0  0  0  0  0999 V2000
   -3.2540   23.4860  -28.8830 C   0  0  0  0  0  0  0  0  0  0  0  0
   -1.9860   23.3750  -29.7280 C   0  0  0  0  0  0  0  0  0  0  0  0
   -1.4080   22.0150  -29.6240 N   0  0  0  0  0  0  0  0  0  0  0  0
   -2.4650   20.9950  -29.4310 C   0  0  0  0  0  0  0  0  0  0  0  0
   -2.3250   20.3350  -28.0610 C   0  0  0  0  0  0  0  0  0  0  0  0
   -0.5430   21.6960  -30.7910 C   0  0  0  0  0  0  0  0  0  0  0  0
   -0.8140   20.2690  -31.2790 C   0  0  0  0  0  0  0  0  0  0  0  0
   -0.1310   19.9680  -32.6190 C   0  0  0  0  0  0  0  0  0  0  0  0
   -1.1150   19.9320  -33.7000 N   0  0  0  0  0  0  0  0  0  0  0  0
   -2.4710   19.4590  -33.5510 C   0  0  0  0  0  0  0  0  0  0  0  0
   -2.8030   18.1520  -33.7860 N   0  0  0  0  0  0  0  0  0  0  0  0
   -4.0700   17.6860  -33.5840 C   0  0  0  0  0  0  0  0  0  0  0  0
   -5.0940   18.5450  -33.1650 C   0  0  0  0  0  0  0  0  0  0  0  0
   -4.8100   19.9090  -33.0000 C   0  0  0  0  0  0  0  0  0  0  0  0
   -3.4860   20.3310  -33.1340 C   0  0  0  0  0  0  0  0  0  0  0  0
   -3.3280   21.9300  -32.6310 S   0  0  0  0  0  0  0  0  0  0  0  0
   -4.9590   22.1080  -32.2630 C   0  0  0  0  0  0  0  0  0  0  0  0
   -5.5780   23.2120  -31.6870 C   0  0  0  0  0  0  0  0  0  0  0  0
   -4.9130   24.2360  -31.3780 O   0  0  0  0  0  0  0  0  0  0  0  0
   -6.8840   23.1740  -31.4510 O   0  0  0  0  0  0  0  0  0  0  0  0
   -7.6500   22.1350  -31.7910 C   0  0  0  0  0  0  0  0  0  0  0  0
   -9.0260   22.2020  -31.5510 C   0  0  0  0  0  0  0  0  0  0  0  0
   -9.8680   21.1800  -31.9920 C   0  0  0  0  0  0  0  0  0  0  0  0
   -9.3420   20.1050  -32.7090 C   0  0  0  0  0  0  0  0  0  0  0  0
   -7.9670   20.0140  -32.9430 C   0  0  0  0  0  0  0  0  0  0  0  0
   -7.0880   20.9840  -32.4210 C   0  0  0  0  0  0  0  0  0  0  0  0
   -5.6760   20.9530  -32.5700 C   0  0  0  0  0  0  0  0  0  0  0  0
   -2.9869   23.4626  -27.8162 H   0  0  0  0  0  0  0  0  0  0  0  0
   -3.7657   24.4324  -29.1122 H   0  0  0  0  0  0  0  0  0  0  0  0
   -3.9223   22.6429  -29.1122 H   0  0  0  0  0  0  0  0  0  0  0  0
   -2.2328   23.5836  -30.7795 H   0  0  0  0  0  0  0  0  0  0  0  0
   -1.2487   24.1031  -29.3588 H   0  0  0  0  0  0  0  0  0  0  0  0
   -3.4511   21.4772  -29.5018 H   0  0  0  0  0  0  0  0  0  0  0  0
   -2.3637   20.2248  -30.2098 H   0  0  0  0  0  0  0  0  0  0  0  0
   -2.4844   21.0867  -27.2739 H   0  0  0  0  0  0  0  0  0  0  0  0
   -3.0735   19.5351  -27.9612 H   0  0  0  0  0  0  0  0  0  0  0  0
   -1.3163   19.9078  -27.9612 H   0  0  0  0  0  0  0  0  0  0  0  0
   -0.7559   22.4045  -31.6050 H   0  0  0  0  0  0  0  0  0  0  0  0
    0.5113   21.7765  -30.4878 H   0  0  0  0  0  0  0  0  0  0  0  0
   -0.4394   19.5610  -30.5250 H   0  0  0  0  0  0  0  0  0  0  0  0
   -1.8993   20.1659  -31.4259 H   0  0  0  0  0  0  0  0  0  0  0  0
    0.6109   20.7520  -32.8311 H   0  0  0  0  0  0  0  0  0  0  0  0
    0.3615   18.9866  -32.5541 H   0  0  0  0  0  0  0  0  0  0  0  0
   -0.7990   20.2800  -34.6320 H   0  0  0  0  0  0  0  0  0  0  0  0
   -2.0820   17.4610  -34.0870 H   0  0  0  0  0  0  0  0  0  0  0  0
   -4.2898   16.6215  -33.7525 H   0  0  0  0  0  0  0  0  0  0  0  0
   -6.1042   18.1565  -32.9686 H   0  0  0  0  0  0  0  0  0  0  0  0
   -9.4466   23.0639  -31.0123 H   0  0  0  0  0  0  0  0  0  0  0  0
  -10.9454   21.2221  -31.7744 H   0  0  0  0  0  0  0  0  0  0  0  0
  -10.0142   19.3235  -33.0929 H   0  0  0  0  0  0  0  0  0  0  0  0
   -7.5683   19.1796  -33.5386 H   0  0  0  0  0  0  0  0  0  0  0  0
  1  2  1  0
  2  3  1  0
  3  4  1  0
  4  5  1  0
  3  6  1  0
  6  7  1  0
  7  8  1  0
  8  9  1  0
  9 10  1  0
 10 11  2  0
 11 12  1  0
 12 13  2  0
 13 14  1  0
 14 15  2  0
 15 16  1  0
 16 17  1  0
 17 18  1  0
 18 19  2  0
 18 20  1  0
 20 21  1  0
 21 22  2  0
 22 23  1  0
 23 24  2  0
 24 25  1  0
 25 26  2  0
 26 27  1  0
 15 10  1  0
 27 17  2  0
 27 14  1  0
 26 21  1  0
  1 28  1  0
  1 29  1  0
  1 30  1  0
  2 31  1  0
  2 32  1  0
  4 33  1  0
  4 34  1  0
  5 35  1  0
  5 36  1  0
  5 37  1  0
  6 38  1  0
  6 39  1  0
  7 40  1  0
  7 41  1  0
  8 42  1  0
  8 43  1  0
  9 44  1  0
 11 45  1  0
 12 46  1  0
 13 47  1  0
 22 48  1  0
 23 49  1  0
 24 50  1  0
 25 51  1  0
M  CHG  1  11   1
M  END
>  <UniqueID>  (9) 
9

>  <SMILES>  (9) 
CCN(CC)CCCNc1[nH+]ccc2c1sc1c(=O)oc3ccccc3c12

>  <Energy>  (9) 
103.62845054721845

>  <Genealogy>  (9) 
CCN(CC)CCCNc1[nH+]ccc2c1sc1c(=O)oc3ccccc3c12 (protonated)
CCN(CC)CCCNc1[nH+]ccc2c1sc1c(=O)oc3ccccc3c12 (3D coordinates assigned)
CCN(CC)CCCNc1[nH+]ccc2c1sc1c(=O)oc3ccccc3c12 (optimized conformer: 103.62845054721845 kcal/mol)

>  <smiles>  (9) 
CCN(CC)CCCNc1nccc2c1sc1c(=O)oc3ccccc3c12

>  <score_type>  (9) 
oracle

>  <origin>  (9) 
adg

>  <m_score__min__energy>  (9) 
-7.8899999999999997

>  <m_primary>  (9) 
energy

$$$$
9:0
     RDKit          3D

 42 42  0  0  0  0  0  0  0  0999 V2000
   -8.5160   18.6960  -31.9710 C   0  0  0  0  0  0  0  0  0  0  0  0
   -7.2880   19.3400  -32.6120 C   0  0  0  0  0  0  0  0  0  0  0  0
   -7.3690   20.8170  -32.5540 N   0  0  0  0  0  0  0  0  0  0  0  0
   -8.0400   21.2890  -31.3140 C   0  0  0  0  0  0  0  0  0  0  0  0
   -9.3680   21.9450  -31.6720 C   0  0  0  0  0  0  0  0  0  0  0  0
   -6.0270   21.4220  -32.7180 C   0  0  0  0  0  0  0  0  0  0  0  0
   -5.5430   22.0540  -31.4080 C   0  0  0  0  0  0  0  0  0  0  0  0
   -5.0990   23.3770  -31.6560 O   0  0  0  0  0  0  0  0  0  0  0  0
   -5.9950   24.3440  -31.1410 C   0  0  0  0  0  0  0  0  0  0  0  0
   -5.2520   25.5920  -30.6410 C   0  0  0  0  0  0  0  0  0  0  0  0
   -3.8590   25.3330  -30.4600 O   0  0  0  0  0  0  0  0  0  0  0  0
   -3.2980   24.5130  -29.4700 C   0  0  0  0  0  0  0  0  0  0  0  0
   -4.1680   23.8490  -28.5980 C   0  0  0  0  0  0  0  0  0  0  0  0
   -3.6690   23.0100  -27.6010 C   0  0  0  0  0  0  0  0  0  0  0  0
   -2.2920   22.8300  -27.4600 C   0  0  0  0  0  0  0  0  0  0  0  0
   -1.3950   23.4950  -28.3150 C   0  0  0  0  0  0  0  0  0  0  0  0
    0.0250   23.3130  -28.1610 N   0  0  0  0  0  0  0  0  0  0  0  0
    0.4920   22.2100  -27.8070 O   0  0  0  0  0  0  0  0  0  0  0  0
    0.8940   24.3530  -28.4010 O   0  0  0  0  0  0  0  0  0  0  0  0
   -1.9080   24.3390  -29.3180 C   0  0  0  0  0  0  0  0  0  0  0  0
   -8.4254   18.7435  -30.8758 H   0  0  0  0  0  0  0  0  0  0  0  0
   -9.4206   19.2358  -32.2878 H   0  0  0  0  0  0  0  0  0  0  0  0
   -8.5863   17.6450  -32.2878 H   0  0  0  0  0  0  0  0  0  0  0  0
   -6.3870   19.0083  -32.0752 H   0  0  0  0  0  0  0  0  0  0  0  0
   -7.2440   19.0338  -33.6676 H   0  0  0  0  0  0  0  0  0  0  0  0
   -8.2220   20.4332  -30.6473 H   0  0  0  0  0  0  0  0  0  0  0  0
   -7.3956   22.0207  -30.8047 H   0  0  0  0  0  0  0  0  0  0  0  0
   -9.9060   22.2108  -30.7501 H   0  0  0  0  0  0  0  0  0  0  0  0
   -9.1805   22.8541  -32.2622 H   0  0  0  0  0  0  0  0  0  0  0  0
   -9.9761   21.2436  -32.2622 H   0  0  0  0  0  0  0  0  0  0  0  0
   -5.3157   20.6408  -33.0244 H   0  0  0  0  0  0  0  0  0  0  0  0
   -6.0898   22.2094  -33.4836 H   0  0  0  0  0  0  0  0  0  0  0  0
   -6.3705   22.0749  -30.6836 H   0  0  0  0  0  0  0  0  0  0  0  0
   -4.7124   21.4596  -30.9997 H   0  0  0  0  0  0  0  0  0  0  0  0
   -6.6962   24.6400  -31.9351 H   0  0  0  0  0  0  0  0  0  0  0  0
   -6.5313   23.8983  -30.2903 H   0  0  0  0  0  0  0  0  0  0  0  0
   -5.3728   26.3995  -31.3781 H   0  0  0  0  0  0  0  0  0  0  0  0
   -5.6787   25.8823  -29.6696 H   0  0  0  0  0  0  0  0  0  0  0  0
   -5.2543   23.9896  -28.6994 H   0  0  0  0  0  0  0  0  0  0  0  0
   -4.3625   22.4891  -26.9244 H   0  0  0  0  0  0  0  0  0  0  0  0
   -1.9058   22.1635  -26.6748 H   0  0  0  0  0  0  0  0  0  0  0  0
   -1.2165   24.8682  -29.9902 H   0  0  0  0  0  0  0  0  0  0  0  0
  1  2  1  0
  2  3  1  0
  3  4  1  0
  4  5  1  0
  3  6  1  0
  6  7  1  0
  7  8  1  0
  8  9  1  0
  9 10  1  0
 10 11  1  0
 11 12  1  0
 12 13  2  0
 13 14  1  0
 14 15  2  0
 15 16  1  0
 16 17  1  0
 17 18  2  0
 17 19  1  0
 16 20  2  0
 20 12  1  0
  1 21  1  0
  1 22  1  0
  1 23  1  0
  2 24  1  0
  2 25  1  0
  4 26  1  0
  4 27  1  0
  5 28  1  0
  5 29  1  0
  5 30  1  0
  6 31  1  0
  6 32  1  0
  7 33  1  0
  7 34  1  0
  9 35  1  0
  9 36  1  0
 10 37  1  0
 10 38  1  0
 13 39  1  0
 14 40  1  0
 15 41  1  0
 20 42  1  0
M  CHG  2  17   1  19  -1
M  END
>  <UniqueID>  (10) 
10

>  <SMILES>  (10) 
CCN(CC)CCOCCOc1cccc([N+](=O)[O-])c1

>  <Energy>  (10) 
40.0445345920533

>  <Genealogy>  (10) 
CCN(CC)CCOCCOc1cccc([N+](=O)[O-])c1 (3D coordinates assigned)
CCN(CC)CCOCCOc1cccc([N+](=O)[O-])c1 (optimized conformer: 40.0445345920533 kcal/mol)

>  <smiles>  (10) 
CCN(CC)CCOCCOc1cccc([N+](=O)[O-])c1

>  <score_type>  (10) 
oracle

>  <origin>  (10) 
adg

>  <m_score__min__energy>  (10) 
-6.54

>  <m_primary>  (10) 
energy

$$$$
10:0
     RDKit          3D

 31 33  0  0  0  0  0  0  0  0999 V2000
   -6.8370   16.7540  -33.4710 C   0  0  0  0  0  0  0  0  0  0  0  0
   -6.8840   18.2100  -33.1320 C   0  0  0  0  0  0  0  0  0  0  0  0
   -5.7220   18.9870  -33.1840 C   0  0  0  0  0  0  0  0  0  0  0  0
   -5.7790   20.3390  -32.8420 C   0  0  0  0  0  0  0  0  0  0  0  0
   -7.0010   20.9210  -32.4580 C   0  0  0  0  0  0  0  0  0  0  0  0
   -7.1240   22.2940  -32.1190 C   0  0  0  0  0  0  0  0  0  0  0  0
   -6.0670   23.2080  -32.2410 O   0  0  0  0  0  0  0  0  0  0  0  0
   -4.9840   23.3340  -31.3560 C   0  0  0  0  0  0  0  0  0  0  0  0
   -3.8720   22.5110  -31.5760 C   0  0  0  0  0  0  0  0  0  0  0  0
   -2.7440   22.6040  -30.7580 C   0  0  0  0  0  0  0  0  0  0  0  0
   -2.7230   23.5090  -29.6970 C   0  0  0  0  0  0  0  0  0  0  0  0
   -1.1800   23.6340  -28.5780 Br  0  0  0  0  0  0  0  0  0  0  0  0
   -3.8370   24.3140  -29.4440 C   0  0  0  0  0  0  0  0  0  0  0  0
   -4.9750   24.2290  -30.2580 C   0  0  0  0  0  0  0  0  0  0  0  0
   -6.4960   25.2760  -29.7400 Br  0  0  0  0  0  0  0  0  0  0  0  0
   -8.3450   22.7730  -31.6270 C   0  0  0  0  0  0  0  0  0  0  0  0
   -9.4560   21.9320  -31.5360 C   0  0  0  0  0  0  0  0  0  0  0  0
   -9.3590   20.5950  -31.9210 C   0  0  0  0  0  0  0  0  0  0  0  0
   -8.1410   20.0830  -32.3730 C   0  0  0  0  0  0  0  0  0  0  0  0
   -8.0500   18.7690  -32.7130 N   0  0  0  0  0  0  0  0  0  0  0  0
   -6.8179   16.1621  -32.5440 H   0  0  0  0  0  0  0  0  0  0  0  0
   -7.7269   16.4856  -34.0592 H   0  0  0  0  0  0  0  0  0  0  0  0
   -5.9316   16.5435  -34.0592 H   0  0  0  0  0  0  0  0  0  0  0  0
   -4.7680   18.5347  -33.4929 H   0  0  0  0  0  0  0  0  0  0  0  0
   -4.8657   20.9514  -32.8728 H   0  0  0  0  0  0  0  0  0  0  0  0
   -3.8875   21.7841  -32.4015 H   0  0  0  0  0  0  0  0  0  0  0  0
   -1.8712   21.9629  -30.9507 H   0  0  0  0  0  0  0  0  0  0  0  0
   -3.8207   25.0194  -28.6001 H   0  0  0  0  0  0  0  0  0  0  0  0
   -8.4295   23.8226  -31.3090 H   0  0  0  0  0  0  0  0  0  0  0  0
  -10.4116   22.3256  -31.1591 H   0  0  0  0  0  0  0  0  0  0  0  0
  -10.2433   19.9429  -31.8685 H   0  0  0  0  0  0  0  0  0  0  0  0
  1  2  1  0
  2  3  2  0
  3  4  1  0
  4  5  2  0
  5  6  1  0
  6  7  1  0
  7  8  1  0
  8  9  2  0
  9 10  1  0
 10 11  2  0
 11 12  1  0
 11 13  1  0
 13 14  2  0
 14 15  1  0
  6 16  2  0
 16 17  1  0
 17 18  2  0
 18 19  1  0
 19 20  2  0
 20  2  1  0
 19  5  1  0
 14  8  1  0
  1 21  1  0
  1 22  1  0
  1 23  1  0
  3 24  1  0
  4 25  1  0
  9 26  1  0
 10 27  1  0
 13 28  1  0
 16 29  1  0
 17 30  1  0
 18 31  1  0
M  END
>  <UniqueID>  (11) 
11

>  <SMILES>  (11) 
Cc1ccc2c(Oc3ccc(Br)cc3Br)cccc2n1

>  <Energy>  (11) 
48.52137239230049

>  <Genealogy>  (11) 
Cc1ccc2c(Oc3ccc(Br)cc3Br)cccc2n1 (3D coordinates assigned)
Cc1ccc2c(Oc3ccc(Br)cc3Br)cccc2n1 (optimized conformer: 48.52137239230049 kcal/mol)

>  <smiles>  (11) 
Cc1ccc2c(Oc3ccc(Br)cc3Br)cccc2n1

>  <score_type>  (11) 
oracle

>  <origin>  (11) 
adg

>  <m_score__min__energy>  (11) 
-8.6699999999999999

>  <m_primary>  (11) 
energy

$$$$
11:0
     RDKit          3D

 39 39  0  0  0  0  0  0  0  0999 V2000
   -3.6400   24.1250  -29.0330 C   0  0  0  0  0  0  0  0  0  0  0  0
   -3.8960   23.5720  -30.4320 C   0  0  0  0  0  0  0  0  0  0  0  0
   -4.8120   24.4680  -31.1760 N   0  0  0  0  0  0  0  0  0  0  0  0
   -5.4700   25.4350  -30.2670 C   0  0  0  0  0  0  0  0  0  0  0  0
   -6.8520   24.9270  -29.8660 C   0  0  0  0  0  0  0  0  0  0  0  0
   -5.8020   23.7000  -31.9700 C   0  0  0  0  0  0  0  0  0  0  0  0
   -5.3300   22.2570  -32.1370 C   0  0  0  0  0  0  0  0  0  0  0  0
   -6.1830   21.5660  -33.0480 O   0  0  0  0  0  0  0  0  0  0  0  0
   -7.0820   20.5530  -32.6800 C   0  0  0  0  0  0  0  0  0  0  0  0
   -6.7690   19.2280  -33.0490 C   0  0  0  0  0  0  0  0  0  0  0  0
   -5.5190   18.9380  -33.8320 C   0  0  0  0  0  0  0  0  0  0  0  0
   -7.6180   18.1760  -32.6730 C   0  0  0  0  0  0  0  0  0  0  0  0
   -8.7740   18.4320  -31.9400 C   0  0  0  0  0  0  0  0  0  0  0  0
   -9.1100   19.7410  -31.5960 C   0  0  0  0  0  0  0  0  0  0  0  0
   -8.2880   20.8140  -31.9770 C   0  0  0  0  0  0  0  0  0  0  0  0
   -8.7360   22.2120  -31.6540 C   0  0  0  0  0  0  0  0  0  0  0  0
   -3.9779   23.3950  -28.2827 H   0  0  0  0  0  0  0  0  0  0  0  0
   -2.5637   24.3120  -28.9039 H   0  0  0  0  0  0  0  0  0  0  0  0
   -4.1938   25.0666  -28.9039 H   0  0  0  0  0  0  0  0  0  0  0  0
   -2.9415   23.4971  -30.9735 H   0  0  0  0  0  0  0  0  0  0  0  0
   -4.3577   22.5773  -30.3461 H   0  0  0  0  0  0  0  0  0  0  0  0
   -4.8540   25.5622  -29.3646 H   0  0  0  0  0  0  0  0  0  0  0  0
   -5.5792   26.3983  -30.7868 H   0  0  0  0  0  0  0  0  0  0  0  0
   -6.9283   24.8990  -28.7690 H   0  0  0  0  0  0  0  0  0  0  0  0
   -7.6218   25.6009  -30.2700 H   0  0  0  0  0  0  0  0  0  0  0  0
   -7.0021   23.9149  -30.2700 H   0  0  0  0  0  0  0  0  0  0  0  0
   -6.7715   23.7085  -31.4503 H   0  0  0  0  0  0  0  0  0  0  0  0
   -5.9070   24.1631  -32.9622 H   0  0  0  0  0  0  0  0  0  0  0  0
   -4.3015   22.2532  -32.5270 H   0  0  0  0  0  0  0  0  0  0  0  0
   -5.3610   21.7521  -31.1602 H   0  0  0  0  0  0  0  0  0  0  0  0
   -4.6879   18.7452  -33.1377 H   0  0  0  0  0  0  0  0  0  0  0  0
   -5.6802   18.0534  -34.4656 H   0  0  0  0  0  0  0  0  0  0  0  0
   -5.2742   19.8032  -34.4656 H   0  0  0  0  0  0  0  0  0  0  0  0
   -7.3690   17.1434  -32.9588 H   0  0  0  0  0  0  0  0  0  0  0  0
   -9.4237   17.5997  -31.6316 H   0  0  0  0  0  0  0  0  0  0  0  0
  -10.0274   19.9349  -31.0209 H   0  0  0  0  0  0  0  0  0  0  0  0
   -8.7773   22.3408  -30.5623 H   0  0  0  0  0  0  0  0  0  0  0  0
   -8.0240   22.9332  -32.0816 H   0  0  0  0  0  0  0  0  0  0  0  0
   -9.7346   22.3850  -32.0816 H   0  0  0  0  0  0  0  0  0  0  0  0
  1  2  1  0
  2  3  1  0
  3  4  1  0
  4  5  1  0
  3  6  1  0
  6  7  1  0
  7  8  1  0
  8  9  1  0
  9 10  2  0
 10 11  1  0
 10 12  1  0
 12 13  2  0
 13 14  1  0
 14 15  2  0
 15 16  1  0
 15  9  1  0
  1 17  1  0
  1 18  1  0
  1 19  1  0
  2 20  1  0
  2 21  1  0
  4 22  1  0
  4 23  1  0
  5 24  1  0
  5 25  1  0
  5 26  1  0
  6 27  1  0
  6 28  1  0
  7 29  1  0
  7 30  1  0
 11 31  1  0
 11 32  1  0
 11 33  1  0
 12 34  1  0
 13 35  1  0
 14 36  1  0
 16 37  1  0
 16 38  1  0
 16 39  1  0
M  END
>  <UniqueID>  (12) 
12

>  <SMILES>  (12) 
CCN(CC)CCOc1c(C)cccc1C

>  <Energy>  (12) 
39.18394132222303

>  <Genealogy>  (12) 
CCN(CC)CCOc1c(C)cccc1C (3D coordinates assigned)
CCN(CC)CCOc1c(C)cccc1C (optimized conformer: 39.18394132222303 kcal/mol)

>  <smiles>  (12) 
CCN(CC)CCOc1c(C)cccc1C

>  <score_type>  (12) 
oracle

>  <origin>  (12) 
adg

>  <m_score__min__energy>  (12) 
-6.4699999999999998

>  <m_primary>  (12) 
energy

$$$$
12:0
     RDKit          3D

 57 59  0  0  0  0  0  0  0  0999 V2000
   -4.2060   24.9240  -26.3840 C   0  0  0  0  0  0  0  0  0  0  0  0
   -2.7040   25.1800  -26.4330 C   0  0  0  0  0  0  0  0  0  0  0  0
   -2.0250   24.0540  -27.0850 N   0  0  0  0  0  0  0  0  0  0  0  0
   -0.5710   24.1050  -26.8710 C   0  0  0  0  0  0  0  0  0  0  0  0
    0.1930   23.8930  -28.1840 C   0  0  0  0  0  0  0  0  0  0  0  0
   -0.6690   24.1500  -29.3380 N   0  0  0  0  0  0  0  0  0  0  0  0
   -1.2220   23.0600  -30.0890 C   0  0  0  0  0  0  0  0  0  0  0  0
   -0.3610   22.0290  -30.4570 C   0  0  0  0  0  0  0  0  0  0  0  0
   -0.8410   20.8980  -31.0950 C   0  0  0  0  0  0  0  0  0  0  0  0
   -2.2060   20.7450  -31.3600 C   0  0  0  0  0  0  0  0  0  0  0  0
   -2.6310   19.5810  -32.0920 N   0  0  0  0  0  0  0  0  0  0  0  0
   -2.1000   19.2220  -33.4110 C   0  0  0  0  0  0  0  0  0  0  0  0
   -3.1400   18.4560  -34.2440 C   0  0  0  0  0  0  0  0  0  0  0  0
   -4.4110   18.3060  -33.5030 N   0  0  0  0  0  0  0  0  0  0  0  0
   -4.6180   16.9020  -33.1170 C   0  0  0  0  0  0  0  0  0  0  0  0
   -5.5530   18.7720  -34.3090 C   0  0  0  0  0  0  0  0  0  0  0  0
   -3.1210   21.7760  -30.9820 C   0  0  0  0  0  0  0  0  0  0  0  0
   -4.5290   21.6230  -31.1260 C   0  0  0  0  0  0  0  0  0  0  0  0
   -5.0450   20.3630  -31.4510 O   0  0  0  0  0  0  0  0  0  0  0  0
   -5.3940   22.7210  -30.8920 C   0  0  0  0  0  0  0  0  0  0  0  0
   -6.7830   22.6480  -31.1520 C   0  0  0  0  0  0  0  0  0  0  0  0
   -7.6160   23.7420  -30.9110 C   0  0  0  0  0  0  0  0  0  0  0  0
   -7.0860   24.9300  -30.4210 C   0  0  0  0  0  0  0  0  0  0  0  0
   -5.7190   25.0360  -30.1790 C   0  0  0  0  0  0  0  0  0  0  0  0
   -4.8600   23.9430  -30.4150 C   0  0  0  0  0  0  0  0  0  0  0  0
   -3.4820   24.0660  -30.1760 C   0  0  0  0  0  0  0  0  0  0  0  0
   -2.9840   25.2980  -29.7530 O   0  0  0  0  0  0  0  0  0  0  0  0
   -2.6080   22.9770  -30.4030 C   0  0  0  0  0  0  0  0  0  0  0  0
   -4.5344   24.8680  -25.3357 H   0  0  0  0  0  0  0  0  0  0  0  0
   -4.7346   25.7450  -26.8905 H   0  0  0  0  0  0  0  0  0  0  0  0
   -4.4328   23.9742  -26.8905 H   0  0  0  0  0  0  0  0  0  0  0  0
   -2.5097   26.1014  -27.0015 H   0  0  0  0  0  0  0  0  0  0  0  0
   -2.3219   25.2876  -25.4071 H   0  0  0  0  0  0  0  0  0  0  0  0
   -2.1960   24.1340  -28.1150 H   0  0  0  0  0  0  0  0  0  0  0  0
   -0.3041   25.0880  -26.4558 H   0  0  0  0  0  0  0  0  0  0  0  0
   -0.2940   23.3002  -26.1742 H   0  0  0  0  0  0  0  0  0  0  0  0
    1.0515   24.5800  -28.2159 H   0  0  0  0  0  0  0  0  0  0  0  0
    0.5345   22.8482  -28.2267 H   0  0  0  0  0  0  0  0  0  0  0  0
   -0.5400   25.0600  -29.8350 H   0  0  0  0  0  0  0  0  0  0  0  0
    0.7136   22.1144  -30.2380 H   0  0  0  0  0  0  0  0  0  0  0  0
   -0.1384   20.1077  -31.3981 H   0  0  0  0  0  0  0  0  0  0  0  0
   -3.3800   18.9740  -31.6870 H   0  0  0  0  0  0  0  0  0  0  0  0
   -1.8192   20.1411  -33.9462 H   0  0  0  0  0  0  0  0  0  0  0  0
   -1.2246   18.5718  -33.2668 H   0  0  0  0  0  0  0  0  0  0  0  0
   -3.3307   19.0081  -35.1761 H   0  0  0  0  0  0  0  0  0  0  0  0
   -2.7428   17.4537  -34.4622 H   0  0  0  0  0  0  0  0  0  0  0  0
   -4.6299   16.8213  -32.0200 H   0  0  0  0  0  0  0  0  0  0  0  0
   -5.5780   16.5483  -33.5211 H   0  0  0  0  0  0  0  0  0  0  0  0
   -3.8009   16.2863  -33.5211 H   0  0  0  0  0  0  0  0  0  0  0  0
   -6.3625   19.1023  -33.6414 H   0  0  0  0  0  0  0  0  0  0  0  0
   -5.2352   19.6124  -34.9437 H   0  0  0  0  0  0  0  0  0  0  0  0
   -5.9139   17.9492  -34.9437 H   0  0  0  0  0  0  0  0  0  0  0  0
   -4.8210   19.8410  -32.2850 H   0  0  0  0  0  0  0  0  0  0  0  0
   -7.2123   21.7165  -31.5495 H   0  0  0  0  0  0  0  0  0  0  0  0
   -8.6951   23.6637  -31.1095 H   0  0  0  0  0  0  0  0  0  0  0  0
   -7.7471   25.7869  -30.2243 H   0  0  0  0  0  0  0  0  0  0  0  0
   -5.3049   25.9819  -29.7999 H   0  0  0  0  0  0  0  0  0  0  0  0
  1  2  1  0
  2  3  1  0
  3  4  1  0
  4  5  1  0
  5  6  1  0
  6  7  1  0
  7  8  2  0
  8  9  1  0
  9 10  2  0
 10 11  1  0
 11 12  1  0
 12 13  1  0
 13 14  1  0
 14 15  1  0
 14 16  1  0
 10 17  1  0
 17 18  2  0
 18 19  1  0
 18 20  1  0
 20 21  2  0
 21 22  1  0
 22 23  2  0
 23 24  1  0
 24 25  2  0
 25 26  1  0
 26 27  1  0
 26 28  2  0
 28  7  1  0
 28 17  1  0
 25 20  1  0
  1 29  1  0
  1 30  1  0
  1 31  1  0
  2 32  1  0
  2 33  1  0
  3 34  1  0
  4 35  1  0
  4 36  1  0
  5 37  1  0
  5 38  1  0
  6 39  1  0
  8 40  1  0
  9 41  1  0
 11 42  1  0
 12 43  1  0
 12 44  1  0
 13 45  1  0
 13 46  1  0
 15 47  1  0
 15 48  1  0
 15 49  1  0
 16 50  1  0
 16 51  1  0
 16 52  1  0
 19 53  1  0
 21 54  1  0
 22 55  1  0
 23 56  1  0
 24 57  1  0
M  CHG  1  27  -1
M  END
>  <UniqueID>  (13) 
13

>  <SMILES>  (13) 
CCNCCNc1ccc(NCCN(C)C)c2c(O)c3ccccc3c([O-])c12

>  <Energy>  (13) 
79.41710172930443

>  <Genealogy>  (13) 
CCNCCNc1ccc(NCCN(C)C)c2c(O)c3ccccc3c([O-])c12 (protonated)
CCNCCNc1ccc(NCCN(C)C)c2c(O)c3ccccc3c([O-])c12 (3D coordinates assigned)
CCNCCNc1ccc(NCCN(C)C)c2c(O)c3ccccc3c([O-])c12 (optimized conformer: 79.41710172930443 kcal/mol)

>  <smiles>  (13) 
CCNCCNc1ccc(NCCN(C)C)c2c(O)c3ccccc3c(O)c12

>  <score_type>  (13) 
oracle

>  <origin>  (13) 
adg

>  <m_score__min__energy>  (13) 
-9.3499999999999996

>  <m_primary>  (13) 
energy

$$$$
13:0
     RDKit          3D

 59 62  0  0  0  0  0  0  0  0999 V2000
   -0.9710   23.1660  -27.7020 C   0  0  0  0  0  0  0  0  0  0  0  0
   -0.7400   23.6130  -29.1440 C   0  0  0  0  0  0  0  0  0  0  0  0
   -1.8310   23.1320  -30.0230 N   0  0  0  0  0  0  0  0  0  0  0  0
   -3.0030   23.8680  -30.0700 C   0  0  0  0  0  0  0  0  0  0  0  0
   -3.1220   24.9320  -29.4010 O   0  0  0  0  0  0  0  0  0  0  0  0
   -4.0610   23.4310  -30.8770 C   0  0  0  0  0  0  0  0  0  0  0  0
   -3.9400   22.2940  -31.6250 C   0  0  0  0  0  0  0  0  0  0  0  0
   -5.1150   22.1410  -32.3360 C   0  0  0  0  0  0  0  0  0  0  0  0
   -5.9100   23.2250  -31.9870 C   0  0  0  0  0  0  0  0  0  0  0  0
   -7.2650   23.4850  -32.6050 C   0  0  0  0  0  0  0  0  0  0  0  0
   -8.3480   23.4410  -31.6110 N   0  0  0  0  0  0  0  0  0  0  0  0
   -8.4760   22.1260  -30.9640 C   0  0  0  0  0  0  0  0  0  0  0  0
   -9.2460   21.1690  -31.8820 C   0  0  0  0  0  0  0  0  0  0  0  0
   -8.8370   19.6990  -31.6290 C   0  0  0  0  0  0  0  0  0  0  0  0
   -8.1620   19.0800  -32.7960 N   0  0  0  0  0  0  0  0  0  0  0  0
   -7.4940   17.8090  -32.3970 C   0  0  0  0  0  0  0  0  0  0  0  0
   -6.0000   18.0280  -32.0980 C   0  0  0  0  0  0  0  0  0  0  0  0
   -5.2650   18.5020  -33.2190 O   0  0  0  0  0  0  0  0  0  0  0  0
   -6.0420   19.2850  -34.1200 C   0  0  0  0  0  0  0  0  0  0  0  0
   -7.2160   20.0260  -33.4480 C   0  0  0  0  0  0  0  0  0  0  0  0
   -5.2680   24.0140  -31.0790 N   0  0  0  0  0  0  0  0  0  0  0  0
   -5.7430   25.2580  -30.4660 C   0  0  0  0  0  0  0  0  0  0  0  0
   -2.7660   21.5410  -31.6300 C   0  0  0  0  0  0  0  0  0  0  0  0
   -2.6340   20.3850  -32.4200 C   0  0  0  0  0  0  0  0  0  0  0  0
   -1.4340   19.6760  -32.4280 C   0  0  0  0  0  0  0  0  0  0  0  0
   -0.3580   20.1130  -31.6600 C   0  0  0  0  0  0  0  0  0  0  0  0
   -0.4720   21.2570  -30.8660 C   0  0  0  0  0  0  0  0  0  0  0  0
   -1.6840   21.9950  -30.8160 C   0  0  0  0  0  0  0  0  0  0  0  0
   -0.5769   23.9286  -27.0141 H   0  0  0  0  0  0  0  0  0  0  0  0
   -2.0491   23.0361  -27.5266 H   0  0  0  0  0  0  0  0  0  0  0  0
   -0.4533   22.2114  -27.5266 H   0  0  0  0  0  0  0  0  0  0  0  0
   -0.7052   24.7119  -29.1801 H   0  0  0  0  0  0  0  0  0  0  0  0
    0.2115   23.1889  -29.4973 H   0  0  0  0  0  0  0  0  0  0  0  0
   -5.3681   21.3291  -33.0337 H   0  0  0  0  0  0  0  0  0  0  0  0
   -7.2552   24.4800  -33.0740 H   0  0  0  0  0  0  0  0  0  0  0  0
   -7.4550   22.6944  -33.3458 H   0  0  0  0  0  0  0  0  0  0  0  0
   -9.2550   23.6890  -32.0690 H   0  0  0  0  0  0  0  0  0  0  0  0
   -7.4742   21.7166  -30.7673 H   0  0  0  0  0  0  0  0  0  0  0  0
   -9.0225   22.2389  -30.0161 H   0  0  0  0  0  0  0  0  0  0  0  0
  -10.3238   21.2791  -31.6917 H   0  0  0  0  0  0  0  0  0  0  0  0
   -9.0080   21.4215  -32.9258 H   0  0  0  0  0  0  0  0  0  0  0  0
   -8.1512   19.6682  -30.7695 H   0  0  0  0  0  0  0  0  0  0  0  0
   -9.7575   19.1278  -31.4380 H   0  0  0  0  0  0  0  0  0  0  0  0
   -8.9020   18.8320  -33.4950 H   0  0  0  0  0  0  0  0  0  0  0  0
   -7.9852   17.4146  -31.4952 H   0  0  0  0  0  0  0  0  0  0  0  0
   -7.5788   17.0972  -33.2314 H   0  0  0  0  0  0  0  0  0  0  0  0
   -5.9109   18.7643  -31.2856 H   0  0  0  0  0  0  0  0  0  0  0  0
   -5.5769   17.0512  -31.8208 H   0  0  0  0  0  0  0  0  0  0  0  0
   -5.3831   20.0314  -34.5878 H   0  0  0  0  0  0  0  0  0  0  0  0
   -6.4789   18.5907  -34.8529 H   0  0  0  0  0  0  0  0  0  0  0  0
   -6.8159   20.7117  -32.6866 H   0  0  0  0  0  0  0  0  0  0  0  0
   -7.7640   20.5778  -34.2260 H   0  0  0  0  0  0  0  0  0  0  0  0
   -5.7071   25.1640  -29.3706 H   0  0  0  0  0  0  0  0  0  0  0  0
   -5.1001   26.0921  -30.7837 H   0  0  0  0  0  0  0  0  0  0  0  0
   -6.7782   25.4514  -30.7837 H   0  0  0  0  0  0  0  0  0  0  0  0
   -3.4796   20.0396  -33.0329 H   0  0  0  0  0  0  0  0  0  0  0  0
   -1.3368   18.7689  -33.0426 H   0  0  0  0  0  0  0  0  0  0  0  0
    0.5889   19.5534  -31.6785 H   0  0  0  0  0  0  0  0  0  0  0  0
    0.3904   21.5910  -30.2705 H   0  0  0  0  0  0  0  0  0  0  0  0
  1  2  1  0
  2  3  1  0
  3  4  1  0
  4  5  2  0
  4  6  1  0
  6  7  2  0
  7  8  1  0
  8  9  2  0
  9 10  1  0
 10 11  1  0
 11 12  1  0
 12 13  1  0
 13 14  1  0
 14 15  1  0
 15 16  1  0
 16 17  1  0
 17 18  1  0
 18 19  1  0
 19 20  1  0
  9 21  1  0
 21 22  1  0
  7 23  1  0
 23 24  2  0
 24 25  1  0
 25 26  2  0
 26 27  1  0
 27 28  2  0
 28  3  1  0
 21  6  1  0
 28 23  1  0
 20 15  1  0
  1 29  1  0
  1 30  1  0
  1 31  1  0
  2 32  1  0
  2 33  1  0
  8 34  1  0
 10 35  1  0
 10 36  1  0
 11 37  1  0
 12 38  1  0
 12 39  1  0
 13 40  1  0
 13 41  1  0
 14 42  1  0
 14 43  1  0
 15 44  1  0
 16 45  1  0
 16 46  1  0
 17 47  1  0
 17 48  1  0
 19 49  1  0
 19 50  1  0
 20 51  1  0
 20 52  1  0
 22 53  1  0
 22 54  1  0
 22 55  1  0
 24 56  1  0
 25 57  1  0
 26 58  1  0
 27 59  1  0
M  CHG  1  15   1
M  END
>  <UniqueID>  (14) 
14

>  <SMILES>  (14) 
CCn1c(=O)c2c(cc(CNCCC[NH+]3CCOCC3)n2C)c2ccccc21

>  <Energy>  (14) 
119.05298542829134

>  <Genealogy>  (14) 
CCn1c(=O)c2c(cc(CNCCC[NH+]3CCOCC3)n2C)c2ccccc21 (protonated)
CCn1c(=O)c2c(cc(CNCCC[NH+]3CCOCC3)n2C)c2ccccc21 (3D coordinates assigned)
CCn1c(=O)c2c(cc(CNCCC[NH+]3CCOCC3)n2C)c2ccccc21 (nonaromatic ring conformer: 119.05298542829134 kcal/mol)

>  <smiles>  (14) 
CCn1c(=O)c2c(cc(CNCCCN3CCOCC3)n2C)c2ccccc21

>  <score_type>  (14) 
oracle

>  <origin>  (14) 
adg

>  <m_score__min__energy>  (14) 
-7.9000000000000004

>  <m_primary>  (14) 
energy

$$$$
14:0
     RDKit          3D

 39 41  0  0  0  0  0  0  0  0999 V2000
    1.5110   21.9010  -35.3630 C   0  0  0  0  0  0  0  0  0  0  0  0
    0.5790   20.9330  -34.6370 C   0  0  0  0  0  0  0  0  0  0  0  0
   -0.8220   21.3520  -34.7730 N   0  0  0  0  0  0  0  0  0  0  0  0
   -1.5150   21.1770  -33.5190 C   0  0  0  0  0  0  0  0  0  0  0  0
   -0.7970   20.8940  -32.3450 C   0  0  0  0  0  0  0  0  0  0  0  0
   -1.4700   20.6990  -31.1370 C   0  0  0  0  0  0  0  0  0  0  0  0
   -2.8650   20.7720  -31.0910 C   0  0  0  0  0  0  0  0  0  0  0  0
   -3.5990   21.0310  -32.2580 C   0  0  0  0  0  0  0  0  0  0  0  0
   -5.0770   21.1120  -32.2110 C   0  0  0  0  0  0  0  0  0  0  0  0
   -5.8060   22.2510  -31.8720 C   0  0  0  0  0  0  0  0  0  0  0  0
   -5.2860   23.5390  -31.4860 C   0  0  0  0  0  0  0  0  0  0  0  0
   -4.8680   24.5720  -31.1760 N   0  0  0  0  0  0  0  0  0  0  0  0
   -7.1320   21.8770  -31.8970 C   0  0  0  0  0  0  0  0  0  0  0  0
   -8.2910   22.5990  -31.6130 C   0  0  0  0  0  0  0  0  0  0  0  0
   -9.5230   21.9280  -31.7080 C   0  0  0  0  0  0  0  0  0  0  0  0
   -9.5690   20.5660  -32.0730 C   0  0  0  0  0  0  0  0  0  0  0  0
   -8.3830   19.8600  -32.3490 C   0  0  0  0  0  0  0  0  0  0  0  0
   -7.1700   20.5510  -32.2550 C   0  0  0  0  0  0  0  0  0  0  0  0
   -5.9220   20.0750  -32.4650 N   0  0  0  0  0  0  0  0  0  0  0  0
   -5.5660   18.7120  -32.8620 C   0  0  0  0  0  0  0  0  0  0  0  0
   -2.9180   21.2350  -33.4690 C   0  0  0  0  0  0  0  0  0  0  0  0
    2.0767   22.4885  -34.6249 H   0  0  0  0  0  0  0  0  0  0  0  0
    2.2108   21.3329  -35.9935 H   0  0  0  0  0  0  0  0  0  0  0  0
    0.9168   22.5788  -35.9935 H   0  0  0  0  0  0  0  0  0  0  0  0
    0.6976   19.9278  -35.0677 H   0  0  0  0  0  0  0  0  0  0  0  0
    0.8417   20.9272  -33.5688 H   0  0  0  0  0  0  0  0  0  0  0  0
   -0.8650   22.3580  -35.0630 H   0  0  0  0  0  0  0  0  0  0  0  0
   -1.2920   20.7820  -35.5160 H   0  0  0  0  0  0  0  0  0  0  0  0
    0.3004   20.8257  -32.3775 H   0  0  0  0  0  0  0  0  0  0  0  0
   -0.9010   20.4875  -30.2197 H   0  0  0  0  0  0  0  0  0  0  0  0
   -3.3897   20.6257  -30.1353 H   0  0  0  0  0  0  0  0  0  0  0  0
   -8.2428   23.6593  -31.3240 H   0  0  0  0  0  0  0  0  0  0  0  0
  -10.4573   22.4687  -31.4963 H   0  0  0  0  0  0  0  0  0  0  0  0
  -10.5390   20.0519  -32.1424 H   0  0  0  0  0  0  0  0  0  0  0  0
   -8.4090   18.7969  -32.6302 H   0  0  0  0  0  0  0  0  0  0  0  0
   -5.4057   18.0984  -31.9632 H   0  0  0  0  0  0  0  0  0  0  0  0
   -6.3814   18.2797  -33.4606 H   0  0  0  0  0  0  0  0  0  0  0  0
   -4.6434   18.7336  -33.4606 H   0  0  0  0  0  0  0  0  0  0  0  0
   -3.4880   21.4421  -34.3867 H   0  0  0  0  0  0  0  0  0  0  0  0
  1  2  1  0
  2  3  1  0
  3  4  1  0
  4  5  2  0
  5  6  1  0
  6  7  2  0
  7  8  1  0
  8  9  1  0
  9 10  2  0
 10 11  1  0
 11 12  3  0
 10 13  1  0
 13 14  2  0
 14 15  1  0
 15 16  2  0
 16 17  1  0
 17 18  2  0
 18 19  1  0
 19 20  1  0
  8 21  2  0
 21  4  1  0
 19  9  1  0
 18 13  1  0
  1 22  1  0
  1 23  1  0
  1 24  1  0
  2 25  1  0
  2 26  1  0
  3 27  1  0
  3 28  1  0
  5 29  1  0
  6 30  1  0
  7 31  1  0
 14 32  1  0
 15 33  1  0
 16 34  1  0
 17 35  1  0
 20 36  1  0
 20 37  1  0
 20 38  1  0
 21 39  1  0
M  CHG  1   3   1
M  END
>  <UniqueID>  (15) 
15

>  <SMILES>  (15) 
CC[NH2+]c1cccc(-c2c(C#N)c3ccccc3n2C)c1

>  <Energy>  (15) 
78.44593800014208

>  <Genealogy>  (15) 
CC[NH2+]c1cccc(-c2c(C#N)c3ccccc3n2C)c1 (protonated)
CC[NH2+]c1cccc(-c2c(C#N)c3ccccc3n2C)c1 (3D coordinates assigned)
CC[NH2+]c1cccc(-c2c(C#N)c3ccccc3n2C)c1 (optimized conformer: 78.44593800014208 kcal/mol)

>  <smiles>  (15) 
CCNc1cccc(-c2c(C#N)c3ccccc3n2C)c1

>  <score_type>  (15) 
oracle

>  <origin>  (15) 
adg

>  <m_score__min__energy>  (15) 
-7.4000000000000004

>  <m_primary>  (15) 
energy

$$$$
15:0
     RDKit          3D

 60 63  0  0  0  0  0  0  0  0999 V2000
   -2.6650   24.9260  -26.7800 C   0  0  0  0  0  0  0  0  0  0  0  0
   -1.5920   25.4130  -27.7420 C   0  0  0  0  0  0  0  0  0  0  0  0
   -2.0670   25.3010  -29.0810 O   0  0  0  0  0  0  0  0  0  0  0  0
   -2.3570   24.0880  -29.7200 C   0  0  0  0  0  0  0  0  0  0  0  0
   -1.3590   23.1090  -29.9740 C   0  0  0  0  0  0  0  0  0  0  0  0
   -1.6920   21.8900  -30.5860 C   0  0  0  0  0  0  0  0  0  0  0  0
   -3.0170   21.6810  -30.9590 C   0  0  0  0  0  0  0  0  0  0  0  0
   -3.5230   20.5610  -31.5110 N   0  0  0  0  0  0  0  0  0  0  0  0
   -4.8410   20.8090  -31.6620 C   0  0  0  0  0  0  0  0  0  0  0  0
   -5.7930   19.9530  -32.2050 C   0  0  0  0  0  0  0  0  0  0  0  0
   -5.3770   18.7060  -32.7910 N   0  0  0  0  0  0  0  0  0  0  0  0
   -5.1680   18.5210  -34.2340 C   0  0  0  0  0  0  0  0  0  0  0  0
   -3.7060   18.1950  -34.5830 C   0  0  0  0  0  0  0  0  0  0  0  0
   -2.8450   18.2060  -33.3690 N   0  0  0  0  0  0  0  0  0  0  0  0
   -1.6480   19.0560  -33.5850 C   0  0  0  0  0  0  0  0  0  0  0  0
   -2.0140   20.4140  -34.1880 C   0  0  0  0  0  0  0  0  0  0  0  0
   -2.4340   16.8320  -32.9840 C   0  0  0  0  0  0  0  0  0  0  0  0
   -3.5830   15.8370  -33.1210 C   0  0  0  0  0  0  0  0  0  0  0  0
   -7.1460   20.3720  -32.1490 C   0  0  0  0  0  0  0  0  0  0  0  0
   -8.1950   19.4770  -32.4350 C   0  0  0  0  0  0  0  0  0  0  0  0
   -9.5240   19.8900  -32.3660 C   0  0  0  0  0  0  0  0  0  0  0  0
   -9.8330   21.1880  -31.9730 C   0  0  0  0  0  0  0  0  0  0  0  0
   -8.8190   22.0840  -31.6370 C   0  0  0  0  0  0  0  0  0  0  0  0
   -7.4560   21.7100  -31.7250 C   0  0  0  0  0  0  0  0  0  0  0  0
   -6.4370   22.5870  -31.3780 N   0  0  0  0  0  0  0  0  0  0  0  0
   -6.6790   24.0310  -31.2150 C   0  0  0  0  0  0  0  0  0  0  0  0
   -5.1720   22.0780  -31.2410 C   0  0  0  0  0  0  0  0  0  0  0  0
   -3.9900   22.6410  -30.7600 C   0  0  0  0  0  0  0  0  0  0  0  0
   -3.6890   23.8440  -30.1090 C   0  0  0  0  0  0  0  0  0  0  0  0
   -2.3264   25.0797  -25.7448 H   0  0  0  0  0  0  0  0  0  0  0  0
   -3.5935   25.4909  -26.9498 H   0  0  0  0  0  0  0  0  0  0  0  0
   -2.8511   23.8552  -26.9498 H   0  0  0  0  0  0  0  0  0  0  0  0
   -1.3544   26.4647  -27.5242 H   0  0  0  0  0  0  0  0  0  0  0  0
   -0.6868   24.7997  -27.6220 H   0  0  0  0  0  0  0  0  0  0  0  0
   -0.3155   23.3080  -29.6884 H   0  0  0  0  0  0  0  0  0  0  0  0
   -0.9266   21.1207  -30.7659 H   0  0  0  0  0  0  0  0  0  0  0  0
   -3.0010   19.6910  -31.7530 H   0  0  0  0  0  0  0  0  0  0  0  0
   -4.9870   17.9720  -32.1590 H   0  0  0  0  0  0  0  0  0  0  0  0
   -5.8055   17.6936  -34.5791 H   0  0  0  0  0  0  0  0  0  0  0  0
   -5.4263   19.4672  -34.7320 H   0  0  0  0  0  0  0  0  0  0  0  0
   -3.6616   17.1976  -35.0448 H   0  0  0  0  0  0  0  0  0  0  0  0
   -3.3355   18.9626  -35.2784 H   0  0  0  0  0  0  0  0  0  0  0  0
   -1.1484   19.2190  -32.6186 H   0  0  0  0  0  0  0  0  0  0  0  0
   -0.9841   18.5368  -34.2919 H   0  0  0  0  0  0  0  0  0  0  0  0
   -2.2080   21.1340  -33.3793 H   0  0  0  0  0  0  0  0  0  0  0  0
   -1.1813   20.7758  -34.8091 H   0  0  0  0  0  0  0  0  0  0  0  0
   -2.9157   20.3084  -34.8091 H   0  0  0  0  0  0  0  0  0  0  0  0
   -1.6068   16.5124  -33.6348 H   0  0  0  0  0  0  0  0  0  0  0  0
   -2.1226   16.8514  -31.9292 H   0  0  0  0  0  0  0  0  0  0  0  0
   -3.9294   15.5370  -32.1210 H   0  0  0  0  0  0  0  0  0  0  0  0
   -4.4118   16.3074  -33.6704 H   0  0  0  0  0  0  0  0  0  0  0  0
   -3.2359   14.9495  -33.6704 H   0  0  0  0  0  0  0  0  0  0  0  0
   -7.9624   18.4393  -32.7163 H   0  0  0  0  0  0  0  0  0  0  0  0
  -10.3308   19.1878  -32.6230 H   0  0  0  0  0  0  0  0  0  0  0  0
  -10.8839   21.5096  -31.9270 H   0  0  0  0  0  0  0  0  0  0  0  0
   -9.0818   23.0970  -31.2983 H   0  0  0  0  0  0  0  0  0  0  0  0
   -6.7203   24.2772  -30.1437 H   0  0  0  0  0  0  0  0  0  0  0  0
   -5.8629   24.5954  -31.6898 H   0  0  0  0  0  0  0  0  0  0  0  0
   -7.6345   24.2985  -31.6898 H   0  0  0  0  0  0  0  0  0  0  0  0
   -4.4771   24.5839  -29.9054 H   0  0  0  0  0  0  0  0  0  0  0  0
  1  2  1  0
  2  3  1  0
  3  4  1  0
  4  5  2  0
  5  6  1  0
  6  7  2  0
  7  8  1  0
  8  9  1  0
  9 10  2  0
 10 11  1  0
 11 12  1  0
 12 13  1  0
 13 14  1  0
 14 15  1  0
 15 16  1  0
 14 17  1  0
 17 18  1  0
 10 19  1  0
 19 20  2  0
 20 21  1  0
 21 22  2  0
 22 23  1  0
 23 24  2  0
 24 25  1  0
 25 26  1  0
 25 27  2  0
 27 28  1  0
 28 29  2  0
 29  4  1  0
 28  7  1  0
 27  9  1  0
 24 19  1  0
  1 30  1  0
  1 31  1  0
  1 32  1  0
  2 33  1  0
  2 34  1  0
  5 35  1  0
  6 36  1  0
  8 37  1  0
 11 38  1  0
 12 39  1  0
 12 40  1  0
 13 41  1  0
 13 42  1  0
 15 43  1  0
 15 44  1  0
 16 45  1  0
 16 46  1  0
 16 47  1  0
 17 48  1  0
 17 49  1  0
 18 50  1  0
 18 51  1  0
 18 52  1  0
 20 53  1  0
 21 54  1  0
 22 55  1  0
 23 56  1  0
 26 57  1  0
 26 58  1  0
 26 59  1  0
 29 60  1  0
M  CHG  1  25   1
M  END
>  <UniqueID>  (16) 
16

>  <SMILES>  (16) 
CCOc1ccc2[nH]c3c(NCCN(CC)CC)c4ccccc4[n+](C)c3c2c1

>  <Energy>  (16) 
118.76741266194308

>  <Genealogy>  (16) 
CCOc1ccc2[nH]c3c(NCCN(CC)CC)c4ccccc4[n+](C)c3c2c1 (3D coordinates assigned)
CCOc1ccc2[nH]c3c(NCCN(CC)CC)c4ccccc4[n+](C)c3c2c1 (optimized conformer: 118.76741266194308 kcal/mol)

>  <smiles>  (16) 
CCOc1ccc2[nH]c3c(NCCN(CC)CC)c4ccccc4[n+](C)c3c2c1

>  <score_type>  (16) 
oracle

>  <origin>  (16) 
adg

>  <m_score__min__energy>  (16) 
-8.8399999999999999

>  <m_primary>  (16) 
energy

$$$$
16:0
     RDKit          3D

 61 64  0  0  0  0  0  0  0  0999 V2000
    1.3130   24.1800  -27.8620 C   0  0  0  0  0  0  0  0  0  0  0  0
    2.5590   24.2000  -26.9870 C   0  0  0  0  0  0  0  0  0  0  0  0
    2.1980   24.3310  -25.6140 O   0  0  0  0  0  0  0  0  0  0  0  0
    1.5470   25.4570  -25.0940 C   0  0  0  0  0  0  0  0  0  0  0  0
    1.8480   26.6100  -25.5170 O   0  0  0  0  0  0  0  0  0  0  0  0
    0.5000   25.2720  -24.1100 N   0  0  0  0  0  0  0  0  0  0  0  0
   -0.5460   26.3280  -24.1430 C   0  0  0  0  0  0  0  0  0  0  0  0
   -1.7420   25.9710  -25.0540 C   0  0  0  0  0  0  0  0  0  0  0  0
   -1.3240   25.0330  -26.1090 N   0  0  0  0  0  0  0  0  0  0  0  0
   -2.3990   24.8140  -27.1030 C   0  0  0  0  0  0  0  0  0  0  0  0
   -1.9890   25.2840  -28.5100 C   0  0  0  0  0  0  0  0  0  0  0  0
   -2.4380   24.3340  -29.6250 C   0  0  0  0  0  0  0  0  0  0  0  0
   -3.5120   24.9340  -30.4080 N   0  0  0  0  0  0  0  0  0  0  0  0
   -4.8680   24.4830  -30.3600 C   0  0  0  0  0  0  0  0  0  0  0  0
   -5.3970   24.2770  -29.2350 O   0  0  0  0  0  0  0  0  0  0  0  0
   -5.7290   24.4070  -31.5930 C   0  0  0  0  0  0  0  0  0  0  0  0
   -6.1800   23.0270  -31.8820 N   0  0  0  0  0  0  0  0  0  0  0  0
   -7.5190   22.7230  -31.7460 C   0  0  0  0  0  0  0  0  0  0  0  0
   -8.3600   23.6000  -31.4000 O   0  0  0  0  0  0  0  0  0  0  0  0
   -7.9520   21.4270  -32.0100 C   0  0  0  0  0  0  0  0  0  0  0  0
   -9.2360   20.9230  -31.9390 C   0  0  0  0  0  0  0  0  0  0  0  0
   -9.1350   19.5910  -32.3040 C   0  0  0  0  0  0  0  0  0  0  0  0
   -7.8000   19.3450  -32.5810 C   0  0  0  0  0  0  0  0  0  0  0  0
   -7.0880   20.4780  -32.3970 N   0  0  0  0  0  0  0  0  0  0  0  0
   -5.7580   20.7240  -32.5520 C   0  0  0  0  0  0  0  0  0  0  0  0
   -4.8620   19.7200  -32.9650 C   0  0  0  0  0  0  0  0  0  0  0  0
   -3.5080   20.0070  -33.1190 C   0  0  0  0  0  0  0  0  0  0  0  0
   -3.0320   21.2910  -32.8690 C   0  0  0  0  0  0  0  0  0  0  0  0
   -3.9040   22.3030  -32.4640 C   0  0  0  0  0  0  0  0  0  0  0  0
   -5.2850   22.0430  -32.2880 C   0  0  0  0  0  0  0  0  0  0  0  0
   -0.9040   23.7420  -25.5200 C   0  0  0  0  0  0  0  0  0  0  0  0
   -0.0840   23.9220  -24.2230 C   0  0  0  0  0  0  0  0  0  0  0  0
    0.4171   24.1656  -27.2239 H   0  0  0  0  0  0  0  0  0  0  0  0
    1.2965   25.0780  -28.4971 H   0  0  0  0  0  0  0  0  0  0  0  0
    1.3253   23.2819  -28.4971 H   0  0  0  0  0  0  0  0  0  0  0  0
    3.1162   23.2621  -27.1277 H   0  0  0  0  0  0  0  0  0  0  0  0
    3.1849   25.0573  -27.2756 H   0  0  0  0  0  0  0  0  0  0  0  0
    0.9680   25.3300  -23.1740 H   0  0  0  0  0  0  0  0  0  0  0  0
   -0.9195   26.4824  -23.1199 H   0  0  0  0  0  0  0  0  0  0  0  0
   -0.0812   27.2362  -24.5542 H   0  0  0  0  0  0  0  0  0  0  0  0
   -2.5326   25.5050  -24.4476 H   0  0  0  0  0  0  0  0  0  0  0  0
   -2.1182   26.8913  -25.5246 H   0  0  0  0  0  0  0  0  0  0  0  0
   -2.6332   23.7399  -27.1418 H   0  0  0  0  0  0  0  0  0  0  0  0
   -3.2749   25.4017  -26.7907 H   0  0  0  0  0  0  0  0  0  0  0  0
   -2.4377   26.2717  -28.6920 H   0  0  0  0  0  0  0  0  0  0  0  0
   -0.8897   25.3153  -28.5339 H   0  0  0  0  0  0  0  0  0  0  0  0
   -1.5841   24.1220  -30.2852 H   0  0  0  0  0  0  0  0  0  0  0  0
   -2.8075   23.4029  -29.1706 H   0  0  0  0  0  0  0  0  0  0  0  0
   -6.6135   25.0443  -31.4461 H   0  0  0  0  0  0  0  0  0  0  0  0
   -5.1240   24.7478  -32.4461 H   0  0  0  0  0  0  0  0  0  0  0  0
  -10.1485   21.4663  -31.6523 H   0  0  0  0  0  0  0  0  0  0  0  0
   -9.9594   18.8651  -32.3629 H   0  0  0  0  0  0  0  0  0  0  0  0
   -7.3847   18.3779  -32.9009 H   0  0  0  0  0  0  0  0  0  0  0  0
   -5.2329   18.7043  -33.1670 H   0  0  0  0  0  0  0  0  0  0  0  0
   -2.8128   19.2169  -33.4391 H   0  0  0  0  0  0  0  0  0  0  0  0
   -1.9609   21.5097  -32.9915 H   0  0  0  0  0  0  0  0  0  0  0  0
   -3.5138   23.3147  -32.2793 H   0  0  0  0  0  0  0  0  0  0  0  0
   -1.8024   23.1503  -25.2901 H   0  0  0  0  0  0  0  0  0  0  0  0
   -0.2614   23.2333  -26.2537 H   0  0  0  0  0  0  0  0  0  0  0  0
   -0.7446   23.7495  -23.3605 H   0  0  0  0  0  0  0  0  0  0  0  0
    0.7446   23.1989  -24.2468 H   0  0  0  0  0  0  0  0  0  0  0  0
  1  2  1  0
  2  3  1  0
  3  4  1  0
  4  5  2  0
  4  6  1  0
  6  7  1  0
  7  8  1  0
  8  9  1  0
  9 10  1  0
 10 11  1  0
 11 12  1  0
 12 13  1  0
 13 14  1  0
 14 15  2  0
 14 16  1  0
 16 17  1  0
 17 18  1  0
 18 19  2  0
 18 20  1  0
 20 21  2  0
 21 22  1  0
 22 23  2  0
 23 24  1  0
 24 25  1  0
 25 26  2  0
 26 27  1  0
 27 28  2  0
 28 29  1  0
 29 30  2  0
  9 31  1  0
 31 32  1  0
 32  6  1  0
 30 17  1  0
 24 20  1  0
 30 25  1  0
  1 33  1  0
  1 34  1  0
  1 35  1  0
  2 36  1  0
  2 37  1  0
  6 38  1  0
  7 39  1  0
  7 40  1  0
  8 41  1  0
  8 42  1  0
 10 43  1  0
 10 44  1  0
 11 45  1  0
 11 46  1  0
 12 47  1  0
 12 48  1  0
 16 49  1  0
 16 50  1  0
 21 51  1  0
 22 52  1  0
 23 53  1  0
 26 54  1  0
 27 55  1  0
 28 56  1  0
 29 57  1  0
 31 58  1  0
 31 59  1  0
 32 60  1  0
 32 61  1  0
M  CHG  2   6   1  13  -1
M  END
>  <UniqueID>  (17) 
17

>  <SMILES>  (17) 
CCOC(=O)[NH+]1CCN(CCC[N-]C(=O)Cn2c(=O)c3cccn3c3ccccc32)CC1

>  <Energy>  (17) 
114.48662135638433

>  <Genealogy>  (17) 
CCOC(=O)[NH+]1CCN(CCC[N-]C(=O)Cn2c(=O)c3cccn3c3ccccc32)CC1 (protonated)
CCOC(=O)[NH+]1CCN(CCC[N-]C(=O)Cn2c(=O)c3cccn3c3ccccc32)CC1 (3D coordinates assigned)
CCOC(=O)[NH+]1CCN(CCC[N-]C(=O)Cn2c(=O)c3cccn3c3ccccc32)CC1 (nonaromatic ring conformer: 114.48662135638433 kcal/mol)

>  <smiles>  (17) 
CCOC(=O)N1CCN(CCCNC(=O)Cn2c(=O)c3cccn3c3ccccc32)CC1

>  <score_type>  (17) 
oracle

>  <origin>  (17) 
adg

>  <m_score__min__energy>  (17) 
-11.15

>  <m_primary>  (17) 
energy

$$$$
17:0
     RDKit          3D

 60 63  0  0  0  0  0  0  0  0999 V2000
   -6.0970   17.5410  -34.3580 C   0  0  0  0  0  0  0  0  0  0  0  0
   -6.3960   18.3030  -33.0560 C   0  0  0  0  0  0  0  0  0  0  0  0
   -6.2550   17.3880  -31.8250 C   0  0  0  0  0  0  0  0  0  0  0  0
   -7.7010   19.0070  -33.0910 N   0  0  0  0  0  0  0  0  0  0  0  0
   -8.0590   19.7440  -31.8540 C   0  0  0  0  0  0  0  0  0  0  0  0
   -7.8700   21.2660  -32.0120 C   0  0  2  0  0  0  0  0  0  0  0  0
   -7.2020   21.5270  -33.2220 O   0  0  0  0  0  0  0  0  0  0  0  0
   -7.0460   21.8330  -30.8460 C   0  0  0  0  0  0  0  0  0  0  0  0
   -5.7200   22.1560  -31.2680 O   0  0  0  0  0  0  0  0  0  0  0  0
   -4.6630   22.5310  -30.4220 C   0  0  0  0  0  0  0  0  0  0  0  0
   -4.8680   23.0580  -29.1320 C   0  0  0  0  0  0  0  0  0  0  0  0
   -3.7780   23.4390  -28.3450 C   0  0  0  0  0  0  0  0  0  0  0  0
   -2.4690   23.2990  -28.8320 C   0  0  0  0  0  0  0  0  0  0  0  0
   -1.3140   23.7460  -28.0150 C   0  0  0  0  0  0  0  0  0  0  0  0
   -0.5590   22.8350  -27.2320 C   0  0  0  0  0  0  0  0  0  0  0  0
   -0.7980   21.3740  -27.2590 C   0  0  0  0  0  0  0  0  0  0  0  0
   -1.9300   20.8090  -26.6440 C   0  0  0  0  0  0  0  0  0  0  0  0
   -2.1380   19.4270  -26.6850 C   0  0  0  0  0  0  0  0  0  0  0  0
   -1.2320   18.6020  -27.3550 C   0  0  0  0  0  0  0  0  0  0  0  0
   -0.1190   19.1570  -27.9910 C   0  0  0  0  0  0  0  0  0  0  0  0
    0.0950   20.5390  -27.9500 C   0  0  0  0  0  0  0  0  0  0  0  0
    0.4070   23.2850  -26.4370 O   0  0  0  0  0  0  0  0  0  0  0  0
    0.7390   24.5670  -26.3470 C   0  0  0  0  0  0  0  0  0  0  0  0
    1.7740   24.9530  -25.4870 C   0  0  0  0  0  0  0  0  0  0  0  0
    2.1370   26.3000  -25.3860 C   0  0  0  0  0  0  0  0  0  0  0  0
    1.4700   27.2650  -26.1440 C   0  0  0  0  0  0  0  0  0  0  0  0
    0.4330   26.8890  -27.0060 C   0  0  0  0  0  0  0  0  0  0  0  0
    0.0600   25.5360  -27.1140 C   0  0  0  0  0  0  0  0  0  0  0  0
   -0.9830   25.1130  -27.9530 C   0  0  0  0  0  0  0  0  0  0  0  0
   -1.6360   25.9550  -28.6310 O   0  0  0  0  0  0  0  0  0  0  0  0
   -2.2650   22.7490  -30.1060 C   0  0  0  0  0  0  0  0  0  0  0  0
   -3.3550   22.3690  -30.8920 C   0  0  0  0  0  0  0  0  0  0  0  0
   -5.7050   16.5420  -34.1164 H   0  0  0  0  0  0  0  0  0  0  0  0
   -7.0222   17.4399  -34.9444 H   0  0  0  0  0  0  0  0  0  0  0  0
   -5.3500   18.0961  -34.9444 H   0  0  0  0  0  0  0  0  0  0  0  0
   -5.6344   19.0915  -32.9650 H   0  0  0  0  0  0  0  0  0  0  0  0
   -6.3477   17.9894  -30.9086 H   0  0  0  0  0  0  0  0  0  0  0  0
   -7.0460   16.6238  -31.8436 H   0  0  0  0  0  0  0  0  0  0  0  0
   -5.2707   16.8974  -31.8436 H   0  0  0  0  0  0  0  0  0  0  0  0
   -7.6830   19.6860  -33.8880 H   0  0  0  0  0  0  0  0  0  0  0  0
   -8.4420   18.3080  -33.3360 H   0  0  0  0  0  0  0  0  0  0  0  0
   -9.1125   19.5404  -31.6119 H   0  0  0  0  0  0  0  0  0  0  0  0
   -7.3918   19.4009  -31.0495 H   0  0  0  0  0  0  0  0  0  0  0  0
   -8.8591   21.7474  -32.0134 H   0  0  0  0  0  0  0  0  0  0  0  0
   -6.5580   22.2650  -33.0500 H   0  0  0  0  0  0  0  0  0  0  0  0
   -7.5353   22.7429  -30.4683 H   0  0  0  0  0  0  0  0  0  0  0  0
   -6.9870   21.0714  -30.0545 H   0  0  0  0  0  0  0  0  0  0  0  0
   -5.8906   23.1701  -28.7424 H   0  0  0  0  0  0  0  0  0  0  0  0
   -3.9466   23.8506  -27.3389 H   0  0  0  0  0  0  0  0  0  0  0  0
   -2.6544   21.4570  -26.1288 H   0  0  0  0  0  0  0  0  0  0  0  0
   -3.0165   18.9889  -26.1888 H   0  0  0  0  0  0  0  0  0  0  0  0
   -1.3949   17.5145  -27.3819 H   0  0  0  0  0  0  0  0  0  0  0  0
    0.5899   18.5068  -28.5246 H   0  0  0  0  0  0  0  0  0  0  0  0
    0.9667   20.9735  -28.4613 H   0  0  0  0  0  0  0  0  0  0  0  0
    2.3027   24.1956  -24.8896 H   0  0  0  0  0  0  0  0  0  0  0  0
    2.9496   26.6000  -24.7080 H   0  0  0  0  0  0  0  0  0  0  0  0
    1.7602   28.3230  -26.0635 H   0  0  0  0  0  0  0  0  0  0  0  0
   -0.0912   27.6522  -27.5999 H   0  0  0  0  0  0  0  0  0  0  0  0
   -1.2419   22.6164  -30.4878 H   0  0  0  0  0  0  0  0  0  0  0  0
   -3.1838   21.9384  -31.8896 H   0  0  0  0  0  0  0  0  0  0  0  0
  1  2  1  0
  2  3  1  0
  2  4  1  0
  4  5  1  0
  5  6  1  0
  6  7  1  0
  6  8  1  0
  8  9  1  0
  9 10  1  0
 10 11  2  0
 11 12  1  0
 12 13  2  0
 13 14  1  0
 14 15  2  0
 15 16  1  0
 16 17  2  0
 17 18  1  0
 18 19  2  0
 19 20  1  0
 20 21  2  0
 15 22  1  0
 22 23  1  0
 23 24  2  0
 24 25  1  0
 25 26  2  0
 26 27  1  0
 27 28  2  0
 28 29  1  0
 29 30  2  0
 13 31  1  0
 31 32  2  0
 32 10  1  0
 29 14  1  0
 21 16  1  0
 28 23  1  0
  1 33  1  0
  1 34  1  0
  1 35  1  0
  2 36  1  0
  3 37  1  0
  3 38  1  0
  3 39  1  0
  4 40  1  0
  4 41  1  0
  5 42  1  0
  5 43  1  0
  6 44  1  6
  7 45  1  0
  8 46  1  0
  8 47  1  0
 11 48  1  0
 12 49  1  0
 17 50  1  0
 18 51  1  0
 19 52  1  0
 20 53  1  0
 21 54  1  0
 24 55  1  0
 25 56  1  0
 26 57  1  0
 27 58  1  0
 31 59  1  0
 32 60  1  0
M  CHG  1   4   1
M  END
>  <UniqueID>  (18) 
18

>  <SMILES>  (18) 
CC(C)[NH2+]C[C@H](O)COc1ccc(-c2c(-c3ccccc3)oc3ccccc3c2=O)cc1

>  <Energy>  (18) 
81.37522442520834

>  <Genealogy>  (18) 
CC(C)[NH2+]CC(O)COc1ccc(-c2c(-c3ccccc3)oc3ccccc3c2=O)cc1 (protonated)
CC(C)[NH2+]C[C@H](O)COc1ccc(-c2c(-c3ccccc3)oc3ccccc3c2=O)cc1 (chirality)
CC(C)[NH2+]C[C@H](O)COc1ccc(-c2c(-c3ccccc3)oc3ccccc3c2=O)cc1 (3D coordinates assigned)
CC(C)[NH2+]C[C@H](O)COc1ccc(-c2c(-c3ccccc3)oc3ccccc3c2=O)cc1 (optimized conformer: 81.37522442520834 kcal/mol)

>  <smiles>  (18) 
CC(C)NCC(O)COc1ccc(-c2c(-c3ccccc3)oc3ccccc3c2=O)cc1

>  <score_type>  (18) 
oracle

>  <origin>  (18) 
adg

>  <m_score__min__energy>  (18) 
-9.3499999999999996

>  <m_primary>  (18) 
energy

$$$$
18:0
     RDKit          3D

 43 45  0  0  0  0  0  0  0  0999 V2000
   -3.3740   16.2130  -35.3110 C   0  0  0  0  0  0  0  0  0  0  0  0
   -4.4400   17.2560  -34.9830 C   0  0  0  0  0  0  0  0  0  0  0  0
   -4.9000   17.1000  -33.5830 N   0  0  0  0  0  0  0  0  0  0  0  0
   -6.2620   16.5190  -33.5330 C   0  0  0  0  0  0  0  0  0  0  0  0
   -7.0830   17.1520  -32.4110 C   0  0  0  0  0  0  0  0  0  0  0  0
   -4.8080   18.3690  -32.8150 C   0  0  0  0  0  0  0  0  0  0  0  0
   -5.2060   19.5500  -33.7070 C   0  0  0  0  0  0  0  0  0  0  0  0
   -6.6600   19.6860  -33.8060 N   0  0  0  0  0  0  0  0  0  0  0  0
   -7.4280   20.5350  -32.9340 C   0  0  0  0  0  0  0  0  0  0  0  0
   -8.8300   20.3960  -32.7750 C   0  0  0  0  0  0  0  0  0  0  0  0
   -9.5470   21.2500  -31.9080 C   0  0  0  0  0  0  0  0  0  0  0  0
   -8.8850   22.2570  -31.1850 C   0  0  0  0  0  0  0  0  0  0  0  0
   -7.5100   22.3760  -31.3570 C   0  0  0  0  0  0  0  0  0  0  0  0
   -6.7990   21.5470  -32.2010 C   0  0  0  0  0  0  0  0  0  0  0  0
   -5.5150   21.8530  -32.1920 O   0  0  0  0  0  0  0  0  0  0  0  0
   -5.3740   22.8660  -31.3600 C   0  0  0  0  0  0  0  0  0  0  0  0
   -4.1970   23.5330  -31.0240 C   0  0  0  0  0  0  0  0  0  0  0  0
   -2.9820   23.1560  -31.5820 O   0  0  0  0  0  0  0  0  0  0  0  0
   -4.2770   24.5970  -30.1030 C   0  0  0  0  0  0  0  0  0  0  0  0
   -3.1290   25.2890  -29.7390 O   0  0  0  0  0  0  0  0  0  0  0  0
   -5.5240   24.9660  -29.5440 C   0  0  0  0  0  0  0  0  0  0  0  0
   -6.7000   24.2780  -29.8990 C   0  0  0  0  0  0  0  0  0  0  0  0
   -6.5850   23.2320  -30.8110 C   0  0  0  0  0  0  0  0  0  0  0  0
   -2.9588   15.8068  -34.3769 H   0  0  0  0  0  0  0  0  0  0  0  0
   -3.8258   15.3985  -35.8962 H   0  0  0  0  0  0  0  0  0  0  0  0
   -2.5695   16.6824  -35.8962 H   0  0  0  0  0  0  0  0  0  0  0  0
   -4.0158   18.2622  -35.1154 H   0  0  0  0  0  0  0  0  0  0  0  0
   -5.2968   17.1159  -35.6584 H   0  0  0  0  0  0  0  0  0  0  0  0
   -6.7660   16.6991  -34.4940 H   0  0  0  0  0  0  0  0  0  0  0  0
   -6.1770   15.4393  -33.3406 H   0  0  0  0  0  0  0  0  0  0  0  0
   -6.6768   16.8388  -31.4379 H   0  0  0  0  0  0  0  0  0  0  0  0
   -7.0333   18.2478  -32.4936 H   0  0  0  0  0  0  0  0  0  0  0  0
   -8.1301   16.8252  -32.4936 H   0  0  0  0  0  0  0  0  0  0  0  0
   -5.4854   18.3213  -31.9496 H   0  0  0  0  0  0  0  0  0  0  0  0
   -3.7728   18.5089  -32.4703 H   0  0  0  0  0  0  0  0  0  0  0  0
   -4.7894   20.4748  -33.2814 H   0  0  0  0  0  0  0  0  0  0  0  0
   -4.8086   19.3674  -34.7163 H   0  0  0  0  0  0  0  0  0  0  0  0
   -7.1720   19.1580  -34.5470 H   0  0  0  0  0  0  0  0  0  0  0  0
   -9.3656   19.6140  -33.3333 H   0  0  0  0  0  0  0  0  0  0  0  0
  -10.6344   21.1256  -31.7976 H   0  0  0  0  0  0  0  0  0  0  0  0
   -9.4346   22.9270  -30.5074 H   0  0  0  0  0  0  0  0  0  0  0  0
   -5.5747   25.7977  -28.8258 H   0  0  0  0  0  0  0  0  0  0  0  0
   -7.6744   24.5567  -29.4714 H   0  0  0  0  0  0  0  0  0  0  0  0
  1  2  1  0
  2  3  1  0
  3  4  1  0
  4  5  1  0
  3  6  1  0
  6  7  1  0
  7  8  1  0
  8  9  1  0
  9 10  2  0
 10 11  1  0
 11 12  2  0
 12 13  1  0
 13 14  2  0
 14 15  1  0
 15 16  1  0
 16 17  2  0
 17 18  1  0
 17 19  1  0
 19 20  1  0
 19 21  2  0
 21 22  1  0
 22 23  2  0
 14  9  1  0
 23 16  1  0
 23 13  1  0
  1 24  1  0
  1 25  1  0
  1 26  1  0
  2 27  1  0
  2 28  1  0
  4 29  1  0
  4 30  1  0
  5 31  1  0
  5 32  1  0
  5 33  1  0
  6 34  1  0
  6 35  1  0
  7 36  1  0
  7 37  1  0
  8 38  1  0
 10 39  1  0
 11 40  1  0
 12 41  1  0
 21 42  1  0
 22 43  1  0
M  CHG  2  18  -1  20  -1
M  END
>  <UniqueID>  (19) 
19

>  <SMILES>  (19) 
CCN(CC)CCNc1cccc2c1oc1c([O-])c([O-])ccc12

>  <Energy>  (19) 
84.78479139547966

>  <Genealogy>  (19) 
CCN(CC)CCNc1cccc2c1oc1c([O-])c([O-])ccc12 (protonated)
CCN(CC)CCNc1cccc2c1oc1c([O-])c([O-])ccc12 (3D coordinates assigned)
CCN(CC)CCNc1cccc2c1oc1c([O-])c([O-])ccc12 (optimized conformer: 84.78479139547966 kcal/mol)

>  <smiles>  (19) 
CCN(CC)CCNc1cccc2c1oc1c(O)c(O)ccc12

>  <score_type>  (19) 
oracle

>  <origin>  (19) 
adg

>  <m_score__min__energy>  (19) 
-11.380000000000001

>  <m_primary>  (19) 
energy

$$$$
19:0
     RDKit          3D

 59 63  0  0  0  0  0  0  0  0999 V2000
   -5.2040   14.6530  -33.2820 C   0  0  0  0  0  0  0  0  0  0  0  0
   -5.0100   15.5650  -32.0670 C   0  0  0  0  0  0  0  0  0  0  0  0
   -5.6640   16.8840  -32.2500 N   0  0  0  0  0  0  0  0  0  0  0  0
   -6.1220   17.4190  -30.9490 C   0  0  0  0  0  0  0  0  0  0  0  0
   -6.8060   16.7560  -33.1870 C   0  0  0  0  0  0  0  0  0  0  0  0
   -6.3890   17.0490  -34.6380 C   0  0  0  0  0  0  0  0  0  0  0  0
   -5.9720   18.4420  -34.8180 N   0  0  0  0  0  0  0  0  0  0  0  0
   -4.9340   19.0220  -34.0130 C   0  0  0  0  0  0  0  0  0  0  0  0
   -3.6210   18.5470  -34.1580 C   0  0  0  0  0  0  0  0  0  0  0  0
   -3.3600   17.3150  -34.7970 C   0  0  0  0  0  0  0  0  0  0  0  0
   -2.0590   16.8230  -34.8900 C   0  0  0  0  0  0  0  0  0  0  0  0
   -1.0040   17.5410  -34.3370 C   0  0  0  0  0  0  0  0  0  0  0  0
   -1.2390   18.7730  -33.7270 C   0  0  0  0  0  0  0  0  0  0  0  0
   -2.5460   19.3170  -33.6580 C   0  0  0  0  0  0  0  0  0  0  0  0
   -2.7870   20.5740  -33.1480 N   0  0  0  0  0  0  0  0  0  0  0  0
   -1.6690   21.5380  -33.0170 C   0  0  0  0  0  0  0  0  0  0  0  0
   -4.0730   20.9450  -32.7960 C   0  0  0  0  0  0  0  0  0  0  0  0
   -4.3100   22.1330  -32.0730 C   0  0  0  0  0  0  0  0  0  0  0  0
   -5.5950   22.5910  -31.7900 C   0  0  0  0  0  0  0  0  0  0  0  0
   -5.7240   23.8670  -31.0490 C   0  0  0  0  0  0  0  0  0  0  0  0
   -6.6320   24.1270  -30.0380 C   0  0  0  0  0  0  0  0  0  0  0  0
   -6.4100   25.4350  -29.6650 C   0  0  0  0  0  0  0  0  0  0  0  0
   -5.3920   25.8960  -30.4740 C   0  0  0  0  0  0  0  0  0  0  0  0
   -5.0040   24.9410  -31.2860 O   0  0  0  0  0  0  0  0  0  0  0  0
   -6.7060   21.7950  -32.1320 C   0  0  0  0  0  0  0  0  0  0  0  0
   -8.0230   22.2410  -31.8840 C   0  0  0  0  0  0  0  0  0  0  0  0
   -9.1110   21.4000  -32.0870 C   0  0  0  0  0  0  0  0  0  0  0  0
   -8.9060   20.0940  -32.5100 C   0  0  0  0  0  0  0  0  0  0  0  0
   -7.6190   19.6490  -32.8080 C   0  0  0  0  0  0  0  0  0  0  0  0
   -6.5020   20.5170  -32.7310 C   0  0  0  0  0  0  0  0  0  0  0  0
   -5.1880   20.1380  -33.1690 C   0  0  0  0  0  0  0  0  0  0  0  0
   -5.4216   13.6299  -32.9415 H   0  0  0  0  0  0  0  0  0  0  0  0
   -6.0433   15.0239  -33.8886 H   0  0  0  0  0  0  0  0  0  0  0  0
   -4.2864   14.6502  -33.8886 H   0  0  0  0  0  0  0  0  0  0  0  0
   -5.4422   15.0743  -31.1824 H   0  0  0  0  0  0  0  0  0  0  0  0
   -3.9308   15.7363  -31.9406 H   0  0  0  0  0  0  0  0  0  0  0  0
   -5.6424   16.8588  -30.1328 H   0  0  0  0  0  0  0  0  0  0  0  0
   -5.8498   18.4821  -30.8734 H   0  0  0  0  0  0  0  0  0  0  0  0
   -7.2144   17.3139  -30.8734 H   0  0  0  0  0  0  0  0  0  0  0  0
   -7.2004   15.7307  -33.1299 H   0  0  0  0  0  0  0  0  0  0  0  0
   -7.5714   17.4905  -32.8960 H   0  0  0  0  0  0  0  0  0  0  0  0
   -5.5505   16.3896  -34.9067 H   0  0  0  0  0  0  0  0  0  0  0  0
   -7.2600   16.8685  -35.2852 H   0  0  0  0  0  0  0  0  0  0  0  0
   -6.6740   19.0920  -35.2410 H   0  0  0  0  0  0  0  0  0  0  0  0
   -4.1921   16.7374  -35.2259 H   0  0  0  0  0  0  0  0  0  0  0  0
   -1.8670   15.8677  -35.4003 H   0  0  0  0  0  0  0  0  0  0  0  0
    0.0179   17.1363  -34.3808 H   0  0  0  0  0  0  0  0  0  0  0  0
   -0.3967   19.3313  -33.2926 H   0  0  0  0  0  0  0  0  0  0  0  0
   -1.4618   21.7166  -31.9516 H   0  0  0  0  0  0  0  0  0  0  0  0
   -0.7712   21.1262  -33.5011 H   0  0  0  0  0  0  0  0  0  0  0  0
   -1.9442   22.4866  -33.5011 H   0  0  0  0  0  0  0  0  0  0  0  0
   -3.4488   22.7191  -31.7198 H   0  0  0  0  0  0  0  0  0  0  0  0
   -7.3763   23.4339  -29.6190 H   0  0  0  0  0  0  0  0  0  0  0  0
   -6.9377   25.9977  -28.8808 H   0  0  0  0  0  0  0  0  0  0  0  0
   -4.9693   26.9111  -30.4430 H   0  0  0  0  0  0  0  0  0  0  0  0
   -8.1899   23.2674  -31.5255 H   0  0  0  0  0  0  0  0  0  0  0  0
  -10.1326   21.7688  -31.9127 H   0  0  0  0  0  0  0  0  0  0  0  0
   -9.7607   19.4089  -32.6103 H   0  0  0  0  0  0  0  0  0  0  0  0
   -7.4675   18.6020  -33.1092 H   0  0  0  0  0  0  0  0  0  0  0  0
  1  2  1  0
  2  3  1  0
  3  4  1  0
  3  5  1  0
  5  6  1  0
  6  7  1  0
  7  8  1  0
  8  9  2  0
  9 10  1  0
 10 11  2  0
 11 12  1  0
 12 13  2  0
 13 14  1  0
 14 15  2  0
 15 16  1  0
 15 17  1  0
 17 18  2  0
 18 19  1  0
 19 20  1  0
 20 21  2  0
 21 22  1  0
 22 23  2  0
 23 24  1  0
 19 25  2  0
 25 26  1  0
 26 27  2  0
 27 28  1  0
 28 29  2  0
 29 30  1  0
 30 31  2  0
 31  8  1  0
 14  9  1  0
 31 17  1  0
 24 20  1  0
 30 25  1  0
  1 32  1  0
  1 33  1  0
  1 34  1  0
  2 35  1  0
  2 36  1  0
  4 37  1  0
  4 38  1  0
  4 39  1  0
  5 40  1  0
  5 41  1  0
  6 42  1  0
  6 43  1  0
  7 44  1  0
 10 45  1  0
 11 46  1  0
 12 47  1  0
 13 48  1  0
 16 49  1  0
 16 50  1  0
 16 51  1  0
 18 52  1  0
 21 53  1  0
 22 54  1  0
 23 55  1  0
 26 56  1  0
 27 57  1  0
 28 58  1  0
 29 59  1  0
M  CHG  1  15   1
M  END
>  <UniqueID>  (20) 
20

>  <SMILES>  (20) 
CCN(C)CCNc1c2ccccc2[n+](C)c2cc(-c3ccco3)c3ccccc3c12

>  <Energy>  (20) 
136.46700114122356

>  <Genealogy>  (20) 
CCN(C)CCNc1c2ccccc2[n+](C)c2cc(-c3ccco3)c3ccccc3c12 (3D coordinates assigned)
CCN(C)CCNc1c2ccccc2[n+](C)c2cc(-c3ccco3)c3ccccc3c12 (optimized conformer: 136.46700114122356 kcal/mol)

>  <smiles>  (20) 
CCN(C)CCNc1c2ccccc2[n+](C)c2cc(-c3ccco3)c3ccccc3c12

>  <score_type>  (20) 
oracle

>  <origin>  (20) 
adg

>  <m_score__min__energy>  (20) 
-10.130000000000001

>  <m_primary>  (20) 
energy

$$$$
20:0
     RDKit          3D

 54 57  0  0  0  0  0  0  0  0999 V2000
   -3.2330   21.4380  -28.4490 H   0  0  0  0  0  0  0  0  0  0  0  0
   -3.5910   22.3470  -28.0840 N   0  0  0  0  0  0  0  0  0  0  0  0
   -2.9740   23.4670  -28.3180 C   0  0  0  0  0  0  0  0  0  0  0  0
   -1.9450   23.9740  -27.5610 C   0  0  0  0  0  0  0  0  0  0  0  0
   -1.2300   23.2770  -26.1200 Cl  0  0  0  0  0  0  0  0  0  0  0  0
   -1.5750   25.1300  -28.2340 C   0  0  0  0  0  0  0  0  0  0  0  0
   -0.4310   26.0330  -27.8820 C   0  0  0  0  0  0  0  0  0  0  0  0
    0.3695   25.4383  -27.4178 H   0  0  0  0  0  0  0  0  0  0  0  0
   -0.0635   26.5145  -28.8002 H   0  0  0  0  0  0  0  0  0  0  0  0
   -0.8830   27.1170  -26.9040 C   0  0  0  0  0  0  0  0  0  0  0  0
   -0.7360   26.7645  -25.8724 H   0  0  0  0  0  0  0  0  0  0  0  0
   -0.2902   28.0290  -27.0678 H   0  0  0  0  0  0  0  0  0  0  0  0
   -1.9481   27.3377  -27.0678 H   0  0  0  0  0  0  0  0  0  0  0  0
   -2.3470   25.2910  -29.3310 N   0  0  0  0  0  0  0  0  0  0  0  0
   -3.2120   24.2850  -29.3670 N   0  0  0  0  0  0  0  0  0  0  0  0
   -4.1900   24.0950  -30.4410 C   0  0  0  0  0  0  0  0  0  0  0  0
   -5.1733   23.8736  -30.0004 H   0  0  0  0  0  0  0  0  0  0  0  0
   -4.2425   25.0150  -31.0417 H   0  0  0  0  0  0  0  0  0  0  0  0
   -3.7760   22.9480  -31.3370 C   0  0  0  0  0  0  0  0  0  0  0  0
   -2.4890   22.4130  -31.1590 C   0  0  0  0  0  0  0  0  0  0  0  0
   -1.8005   22.8845  -30.4423 H   0  0  0  0  0  0  0  0  0  0  0  0
   -2.0720   21.2940  -31.8770 C   0  0  0  0  0  0  0  0  0  0  0  0
   -1.0615   20.8892  -31.7191 H   0  0  0  0  0  0  0  0  0  0  0  0
   -2.9320   20.6800  -32.8000 C   0  0  0  0  0  0  0  0  0  0  0  0
   -2.4980   19.4720  -33.5500 C   0  0  0  0  0  0  0  0  0  0  0  0
   -3.4220   18.4660  -33.8940 C   0  0  0  0  0  0  0  0  0  0  0  0
   -4.4784   18.5717  -33.6061 H   0  0  0  0  0  0  0  0  0  0  0  0
   -3.0030   17.3330  -34.6000 C   0  0  0  0  0  0  0  0  0  0  0  0
   -3.7300   16.5509  -34.8643 H   0  0  0  0  0  0  0  0  0  0  0  0
   -1.6630   17.1930  -34.9700 C   0  0  0  0  0  0  0  0  0  0  0  0
   -1.3363   16.3003  -35.5235 H   0  0  0  0  0  0  0  0  0  0  0  0
   -0.7380   18.1850  -34.6380 C   0  0  0  0  0  0  0  0  0  0  0  0
    0.3160   18.0746  -34.9326 H   0  0  0  0  0  0  0  0  0  0  0  0
   -1.1510   19.3190  -33.9310 C   0  0  0  0  0  0  0  0  0  0  0  0
   -0.4182   20.0970  -33.6707 H   0  0  0  0  0  0  0  0  0  0  0  0
   -4.2000   21.2400  -33.0250 C   0  0  0  0  0  0  0  0  0  0  0  0
   -4.8688   20.7786  -33.7665 H   0  0  0  0  0  0  0  0  0  0  0  0
   -4.6340   22.3830  -32.3190 C   0  0  0  0  0  0  0  0  0  0  0  0
   -5.8990   23.0000  -32.6540 N   0  0  0  0  0  0  0  0  0  0  0  0
   -5.9520   23.6270  -33.4850 H   0  0  0  0  0  0  0  0  0  0  0  0
   -7.1600   22.7540  -31.9480 C   0  0  0  0  0  0  0  0  0  0  0  0
   -7.0422   23.0329  -30.8905 H   0  0  0  0  0  0  0  0  0  0  0  0
   -7.9512   23.3581  -32.4161 H   0  0  0  0  0  0  0  0  0  0  0  0
   -7.5440   21.3020  -32.0360 C   0  0  0  0  0  0  0  0  0  0  0  0
   -7.0000   20.4900  -33.0480 C   0  0  0  0  0  0  0  0  0  0  0  0
   -6.2802   20.9145  -33.7633 H   0  0  0  0  0  0  0  0  0  0  0  0
   -7.3700   19.1480  -33.1480 C   0  0  0  0  0  0  0  0  0  0  0  0
   -6.9419   18.5174  -33.9412 H   0  0  0  0  0  0  0  0  0  0  0  0
   -8.2840   18.6050  -32.2410 C   0  0  0  0  0  0  0  0  0  0  0  0
   -8.5707   17.5458  -32.3182 H   0  0  0  0  0  0  0  0  0  0  0  0
   -8.8350   19.4060  -31.2350 C   0  0  0  0  0  0  0  0  0  0  0  0
   -9.5578   18.9772  -30.5253 H   0  0  0  0  0  0  0  0  0  0  0  0
   -8.4680   20.7500  -31.1310 C   0  0  0  0  0  0  0  0  0  0  0  0
   -8.9028   21.3779  -30.3394 H   0  0  0  0  0  0  0  0  0  0  0  0
  1  2  1  0
  2  3  2  0
  3  4  1  0
  4  5  1  0
  4  6  2  0
  6  7  1  0
  7  8  1  0
  7  9  1  0
  7 10  1  0
 10 11  1  0
 10 12  1  0
 10 13  1  0
  6 14  1  0
 14 15  1  0
 15 16  1  0
 16 17  1  0
 16 18  1  0
 16 19  1  0
 19 20  2  0
 20 21  1  0
 20 22  1  0
 22 23  1  0
 22 24  2  0
 24 25  1  0
 25 26  2  0
 26 27  1  0
 26 28  1  0
 28 29  1  0
 28 30  2  0
 30 31  1  0
 30 32  1  0
 32 33  1  0
 32 34  2  0
 34 35  1  0
 24 36  1  0
 36 37  1  0
 36 38  2  0
 38 39  1  0
 39 40  1  0
 39 41  1  0
 41 42  1  0
 41 43  1  0
 41 44  1  0
 44 45  2  0
 45 46  1  0
 45 47  1  0
 47 48  1  0
 47 49  2  0
 49 50  1  0
 49 51  1  0
 51 52  1  0
 51 53  2  0
 53 54  1  0
 15  3  1  0
 38 19  1  0
 53 44  1  0
 34 25  1  0
M  CHG  1  14  -1
M  END
>  <UniqueID>  (21) 
21

>  <SMILES>  (21) 
[H]/N=c1/c(Cl)c(CC)[n-]n1Cc1ccc(-c2ccccc2)cc1NCc1ccccc1

>  <Energy>  (21) 
93.83620420548354

>  <Genealogy>  (21) 
CCc1[n-]n(Cc2ccc(-c3ccccc3)cc2NCc2ccccc2)c(=N)c1Cl (protonated)
[H]/N=c1/c(Cl)c(CC)[n-]n1Cc1ccc(-c2ccccc2)cc1NCc1ccccc1 (cis-trans isomerization)
[H]/N=c1/c(Cl)c(CC)[n-]n1Cc1ccc(-c2ccccc2)cc1NCc1ccccc1 (3D coordinates assigned)
[H]/N=c1/c(Cl)c(CC)[n-]n1Cc1ccc(-c2ccccc2)cc1NCc1ccccc1 (optimized conformer: 93.83620420548354 kcal/mol)

>  <smiles>  (21) 
CCc1[nH]n(Cc2ccc(-c3ccccc3)cc2NCc2ccccc2)c(=N)c1Cl

>  <score_type>  (21) 
oracle

>  <origin>  (21) 
adg

>  <m_score__min__energy>  (21) 
-10.49

>  <m_primary>  (21) 
energy

$$$$
21:0
     RDKit          3D

 41 42  0  0  0  0  0  0  0  0999 V2000
   -5.3480   25.7950  -30.4800 C   0  0  0  0  0  0  0  0  0  0  0  0
   -4.0410   25.2310  -30.5260 O   0  0  0  0  0  0  0  0  0  0  0  0
   -3.7500   23.8860  -30.2560 C   0  0  0  0  0  0  0  0  0  0  0  0
   -3.7900   23.3520  -28.9540 C   0  0  0  0  0  0  0  0  0  0  0  0
   -3.4920   22.0030  -28.7380 C   0  0  0  0  0  0  0  0  0  0  0  0
   -3.1520   21.1780  -29.8120 C   0  0  0  0  0  0  0  0  0  0  0  0
   -3.1070   21.6960  -31.1160 C   0  0  0  0  0  0  0  0  0  0  0  0
   -2.7540   20.8040  -32.2830 C   0  0  0  0  0  0  0  0  0  0  0  0
   -3.7380   20.8960  -33.3750 N   0  0  0  0  0  0  0  0  0  0  0  0
   -4.5830   19.6970  -33.4880 C   0  0  0  0  0  0  0  0  0  0  0  0
   -5.2070   19.3490  -32.1330 C   0  0  0  0  0  0  0  0  0  0  0  0
   -6.6960   19.5890  -32.1580 C   0  0  0  0  0  0  0  0  0  0  0  0
   -7.5710   18.4990  -32.0060 C   0  0  0  0  0  0  0  0  0  0  0  0
   -8.9530   18.6980  -31.9940 C   0  0  0  0  0  0  0  0  0  0  0  0
   -9.4740   19.9850  -32.1240 C   0  0  0  0  0  0  0  0  0  0  0  0
   -8.6180   21.0800  -32.2590 C   0  0  0  0  0  0  0  0  0  0  0  0
   -7.2200   20.8940  -32.2710 C   0  0  0  0  0  0  0  0  0  0  0  0
   -6.3320   21.9770  -32.3890 O   0  0  0  0  0  0  0  0  0  0  0  0
   -6.7100   23.3460  -32.3000 C   0  0  0  0  0  0  0  0  0  0  0  0
   -3.4070   23.0520  -31.3280 C   0  0  0  0  0  0  0  0  0  0  0  0
   -5.6537   25.9269  -29.4316 H   0  0  0  0  0  0  0  0  0  0  0  0
   -5.3440   26.7715  -30.9864 H   0  0  0  0  0  0  0  0  0  0  0  0
   -6.0557   25.1222  -30.9864 H   0  0  0  0  0  0  0  0  0  0  0  0
   -4.0564   23.9977  -28.1043 H   0  0  0  0  0  0  0  0  0  0  0  0
   -3.5255   21.5904  -27.7189 H   0  0  0  0  0  0  0  0  0  0  0  0
   -2.9184   20.1177  -29.6356 H   0  0  0  0  0  0  0  0  0  0  0  0
   -1.7679   21.1010  -32.6695 H   0  0  0  0  0  0  0  0  0  0  0  0
   -2.7480   19.7648  -31.9223 H   0  0  0  0  0  0  0  0  0  0  0  0
   -4.3520   21.7300  -33.2150 H   0  0  0  0  0  0  0  0  0  0  0  0
   -5.3844   19.8867  -34.2173 H   0  0  0  0  0  0  0  0  0  0  0  0
   -3.9598   18.8532  -33.8192 H   0  0  0  0  0  0  0  0  0  0  0  0
   -5.0151   18.2895  -31.9079 H   0  0  0  0  0  0  0  0  0  0  0  0
   -4.7571   19.9893  -31.3600 H   0  0  0  0  0  0  0  0  0  0  0  0
   -7.1642   17.4829  -31.8958 H   0  0  0  0  0  0  0  0  0  0  0  0
   -9.6311   17.8392  -31.8819 H   0  0  0  0  0  0  0  0  0  0  0  0
  -10.5633   20.1382  -32.1202 H   0  0  0  0  0  0  0  0  0  0  0  0
   -9.0362   22.0927  -32.3565 H   0  0  0  0  0  0  0  0  0  0  0  0
   -6.7901   23.6362  -31.2420 H   0  0  0  0  0  0  0  0  0  0  0  0
   -5.9503   23.9691  -32.7946 H   0  0  0  0  0  0  0  0  0  0  0  0
   -7.6818   23.4910  -32.7946 H   0  0  0  0  0  0  0  0  0  0  0  0
   -3.3722   23.4636  -32.3475 H   0  0  0  0  0  0  0  0  0  0  0  0
  1  2  1  0
  2  3  1  0
  3  4  2  0
  4  5  1  0
  5  6  2  0
  6  7  1  0
  7  8  1  0
  8  9  1  0
  9 10  1  0
 10 11  1  0
 11 12  1  0
 12 13  2  0
 13 14  1  0
 14 15  2  0
 15 16  1  0
 16 17  2  0
 17 18  1  0
 18 19  1  0
  7 20  2  0
 20  3  1  0
 17 12  1  0
  1 21  1  0
  1 22  1  0
  1 23  1  0
  4 24  1  0
  5 25  1  0
  6 26  1  0
  8 27  1  0
  8 28  1  0
  9 29  1  0
 10 30  1  0
 10 31  1  0
 11 32  1  0
 11 33  1  0
 13 34  1  0
 14 35  1  0
 15 36  1  0
 16 37  1  0
 19 38  1  0
 19 39  1  0
 19 40  1  0
 20 41  1  0
M  END
>  <UniqueID>  (22) 
22

>  <SMILES>  (22) 
COc1cccc(CNCCc2ccccc2OC)c1

>  <Energy>  (22) 
38.42794459307542

>  <Genealogy>  (22) 
COc1cccc(CNCCc2ccccc2OC)c1 (3D coordinates assigned)
COc1cccc(CNCCc2ccccc2OC)c1 (optimized conformer: 38.42794459307542 kcal/mol)

>  <smiles>  (22) 
COc1cccc(CNCCc2ccccc2OC)c1

>  <score_type>  (22) 
oracle

>  <origin>  (22) 
adg

>  <m_score__min__energy>  (22) 
-7.5700000000000003

>  <m_primary>  (22) 
energy

$$$$
22:0
     RDKit          3D

 54 56  0  0  0  0  0  0  0  0999 V2000
   -3.4850   18.9200  -26.3340 C   0  0  0  0  0  0  0  0  0  0  0  0
   -2.0630   18.9070  -26.9100 C   0  0  0  0  0  0  0  0  0  0  0  0
   -1.8560   19.9580  -27.9440 N   0  0  0  0  0  0  0  0  0  0  0  0
   -2.2190   21.3010  -27.4140 C   0  0  0  0  0  0  0  0  0  0  0  0
   -3.4590   21.9290  -28.0690 C   0  0  0  0  0  0  0  0  0  0  0  0
   -0.4750   19.8920  -28.4920 C   0  0  0  0  0  0  0  0  0  0  0  0
   -0.3680   20.3780  -29.9460 C   0  0  0  0  0  0  0  0  0  0  0  0
   -1.6640   20.5810  -30.4820 O   0  0  0  0  0  0  0  0  0  0  0  0
   -1.5860   21.0200  -31.8240 C   0  0  0  0  0  0  0  0  0  0  0  0
   -2.9190   20.7600  -32.5280 C   0  0  0  0  0  0  0  0  0  0  0  0
   -3.9680   20.3560  -31.5840 N   0  0  0  0  0  0  0  0  0  0  0  0
   -5.3000   20.8940  -31.6170 C   0  0  0  0  0  0  0  0  0  0  0  0
   -5.5930   22.2260  -31.2550 C   0  0  0  0  0  0  0  0  0  0  0  0
   -4.5630   23.1450  -30.9790 C   0  0  0  0  0  0  0  0  0  0  0  0
   -4.8590   24.4390  -30.5590 C   0  0  0  0  0  0  0  0  0  0  0  0
   -6.1820   24.8430  -30.4150 C   0  0  0  0  0  0  0  0  0  0  0  0
   -7.2220   23.9700  -30.7320 C   0  0  0  0  0  0  0  0  0  0  0  0
   -6.9600   22.6570  -31.1980 C   0  0  0  0  0  0  0  0  0  0  0  0
   -7.9840   21.8050  -31.5900 N   0  0  0  0  0  0  0  0  0  0  0  0
   -9.3770   22.2900  -31.6630 C   0  0  0  0  0  0  0  0  0  0  0  0
   -7.6760   20.5060  -31.9260 C   0  0  0  0  0  0  0  0  0  0  0  0
   -8.5910   19.4710  -32.2230 C   0  0  0  0  0  0  0  0  0  0  0  0
   -7.9760   18.2580  -32.5110 C   0  0  0  0  0  0  0  0  0  0  0  0
   -6.3080   18.4450  -32.3840 S   0  0  0  0  0  0  0  0  0  0  0  0
   -6.3620   20.0710  -31.9630 C   0  0  0  0  0  0  0  0  0  0  0  0
   -3.4355   18.9195  -25.2351 H   0  0  0  0  0  0  0  0  0  0  0  0
   -4.0113   19.8230  -26.6770 H   0  0  0  0  0  0  0  0  0  0  0  0
   -4.0277   18.0268  -26.6770 H   0  0  0  0  0  0  0  0  0  0  0  0
   -1.3489   19.0736  -26.0900 H   0  0  0  0  0  0  0  0  0  0  0  0
   -1.9066   17.9302  -27.3910 H   0  0  0  0  0  0  0  0  0  0  0  0
   -2.5200   19.7700  -28.7330 H   0  0  0  0  0  0  0  0  0  0  0  0
   -2.4116   21.2044  -26.3353 H   0  0  0  0  0  0  0  0  0  0  0  0
   -1.3733   21.9668  -27.6412 H   0  0  0  0  0  0  0  0  0  0  0  0
   -4.1493   22.2786  -27.2872 H   0  0  0  0  0  0  0  0  0  0  0  0
   -3.1519   22.7802  -28.6944 H   0  0  0  0  0  0  0  0  0  0  0  0
   -3.9635   21.1777  -28.6944 H   0  0  0  0  0  0  0  0  0  0  0  0
    0.1779   20.5186  -27.8666 H   0  0  0  0  0  0  0  0  0  0  0  0
   -0.1732   18.8342  -28.4816 H   0  0  0  0  0  0  0  0  0  0  0  0
    0.1910   21.3249  -29.9741 H   0  0  0  0  0  0  0  0  0  0  0  0
    0.1572   19.6190  -30.5444 H   0  0  0  0  0  0  0  0  0  0  0  0
   -1.3654   22.0975  -31.8443 H   0  0  0  0  0  0  0  0  0  0  0  0
   -0.7863   20.4703  -32.3420 H   0  0  0  0  0  0  0  0  0  0  0  0
   -3.2364   21.6807  -33.0394 H   0  0  0  0  0  0  0  0  0  0  0  0
   -2.7711   19.9386  -33.2446 H   0  0  0  0  0  0  0  0  0  0  0  0
   -3.6680   19.8520  -30.7190 H   0  0  0  0  0  0  0  0  0  0  0  0
   -3.5134   22.8376  -31.0964 H   0  0  0  0  0  0  0  0  0  0  0  0
   -4.0437   25.1443  -30.3403 H   0  0  0  0  0  0  0  0  0  0  0  0
   -6.4089   25.8554  -30.0495 H   0  0  0  0  0  0  0  0  0  0  0  0
   -8.2633   24.3058  -30.6186 H   0  0  0  0  0  0  0  0  0  0  0  0
   -9.7713   22.4273  -30.6453 H   0  0  0  0  0  0  0  0  0  0  0  0
   -9.4033   23.2502  -32.1990 H   0  0  0  0  0  0  0  0  0  0  0  0
   -9.9940   21.5538  -32.1990 H   0  0  0  0  0  0  0  0  0  0  0  0
   -9.6820   19.6112  -32.2260 H   0  0  0  0  0  0  0  0  0  0  0  0
   -8.4956   17.3262  -32.7787 H   0  0  0  0  0  0  0  0  0  0  0  0
  1  2  1  0
  2  3  1  0
  3  4  1  0
  4  5  1  0
  3  6  1  0
  6  7  1  0
  7  8  1  0
  8  9  1  0
  9 10  1  0
 10 11  1  0
 11 12  1  0
 12 13  2  0
 13 14  1  0
 14 15  2  0
 15 16  1  0
 16 17  2  0
 17 18  1  0
 18 19  2  0
 19 20  1  0
 19 21  1  0
 21 22  1  0
 22 23  2  0
 23 24  1  0
 24 25  1  0
 25 12  1  0
 18 13  1  0
 25 21  2  0
  1 26  1  0
  1 27  1  0
  1 28  1  0
  2 29  1  0
  2 30  1  0
  3 31  1  0
  4 32  1  0
  4 33  1  0
  5 34  1  0
  5 35  1  0
  5 36  1  0
  6 37  1  0
  6 38  1  0
  7 39  1  0
  7 40  1  0
  9 41  1  0
  9 42  1  0
 10 43  1  0
 10 44  1  0
 11 45  1  0
 14 46  1  0
 15 47  1  0
 16 48  1  0
 17 49  1  0
 20 50  1  0
 20 51  1  0
 20 52  1  0
 22 53  1  0
 23 54  1  0
M  CHG  2   3   1  19   1
M  END
>  <UniqueID>  (23) 
23

>  <SMILES>  (23) 
CC[NH+](CC)CCOCCNc1c2ccccc2[n+](C)c2ccsc12

>  <Energy>  (23) 
100.25713833749124

>  <Genealogy>  (23) 
CC[NH+](CC)CCOCCNc1c2ccccc2[n+](C)c2ccsc12 (protonated)
CC[NH+](CC)CCOCCNc1c2ccccc2[n+](C)c2ccsc12 (3D coordinates assigned)
CC[NH+](CC)CCOCCNc1c2ccccc2[n+](C)c2ccsc12 (optimized conformer: 100.25713833749124 kcal/mol)

>  <smiles>  (23) 
CCN(CC)CCOCCNc1c2ccccc2[n+](C)c2ccsc12

>  <score_type>  (23) 
oracle

>  <origin>  (23) 
adg

>  <m_score__min__energy>  (23) 
-7.2199999999999998

>  <m_primary>  (23) 
energy

$$$$
23:0
     RDKit          3D

 40 41  0  0  0  0  0  0  0  0999 V2000
   -5.0120   15.5530  -32.6460 C   0  0  0  0  0  0  0  0  0  0  0  0
   -5.9400   15.9140  -33.8140 C   0  0  0  0  0  0  0  0  0  0  0  0
   -6.4860   17.2930  -33.7560 N   0  0  0  0  0  0  0  0  0  0  0  0
   -5.7610   18.2240  -34.6500 C   0  0  0  0  0  0  0  0  0  0  0  0
   -4.3110   18.3700  -34.1940 C   0  0  0  0  0  0  0  0  0  0  0  0
   -6.6100   17.8330  -32.3820 C   0  0  0  0  0  0  0  0  0  0  0  0
   -7.8800   18.6840  -32.2280 C   0  0  0  0  0  0  0  0  0  0  0  0
   -7.7370   19.9590  -32.9330 N   0  0  0  0  0  0  0  0  0  0  0  0
   -6.9290   21.0620  -32.4740 C   0  0  0  0  0  0  0  0  0  0  0  0
   -5.5570   21.1670  -32.7870 C   0  0  0  0  0  0  0  0  0  0  0  0
   -4.8070   22.2560  -32.3300 C   0  0  0  0  0  0  0  0  0  0  0  0
   -5.4150   23.2500  -31.5640 C   0  0  0  0  0  0  0  0  0  0  0  0
   -6.7700   23.1450  -31.2280 C   0  0  0  0  0  0  0  0  0  0  0  0
   -7.5270   22.0660  -31.6920 C   0  0  0  0  0  0  0  0  0  0  0  0
   -7.3490   24.1310  -30.4220 O   0  0  0  0  0  0  0  0  0  0  0  0
   -6.5400   25.0770  -29.7180 C   0  0  0  0  0  0  0  0  0  0  0  0
   -5.3490   25.5090  -30.5840 C   0  0  0  0  0  0  0  0  0  0  0  0
   -4.6890   24.3620  -31.1240 O   0  0  0  0  0  0  0  0  0  0  0  0
   -5.5258   15.7529  -31.6941 H   0  0  0  0  0  0  0  0  0  0  0  0
   -4.7482   14.4867  -32.7034 H   0  0  0  0  0  0  0  0  0  0  0  0
   -4.0969   16.1607  -32.7034 H   0  0  0  0  0  0  0  0  0  0  0  0
   -5.3729   15.8070  -34.7505 H   0  0  0  0  0  0  0  0  0  0  0  0
   -6.8007   15.2315  -33.7554 H   0  0  0  0  0  0  0  0  0  0  0  0
   -5.7812   17.8313  -35.6773 H   0  0  0  0  0  0  0  0  0  0  0  0
   -6.2494   19.2090  -34.6153 H   0  0  0  0  0  0  0  0  0  0  0  0
   -4.2710   18.3740  -33.0947 H   0  0  0  0  0  0  0  0  0  0  0  0
   -3.7188   17.5269  -34.5794 H   0  0  0  0  0  0  0  0  0  0  0  0
   -3.8987   19.3142  -34.5794 H   0  0  0  0  0  0  0  0  0  0  0  0
   -6.6518   16.9952  -31.6704 H   0  0  0  0  0  0  0  0  0  0  0  0
   -5.7377   18.4722  -32.1806 H   0  0  0  0  0  0  0  0  0  0  0  0
   -8.7360   18.1342  -32.6462 H   0  0  0  0  0  0  0  0  0  0  0  0
   -8.0422   18.8871  -31.1592 H   0  0  0  0  0  0  0  0  0  0  0  0
   -8.2320   20.0530  -33.8490 H   0  0  0  0  0  0  0  0  0  0  0  0
   -5.0740   20.3874  -33.3944 H   0  0  0  0  0  0  0  0  0  0  0  0
   -3.7371   22.3282  -32.5751 H   0  0  0  0  0  0  0  0  0  0  0  0
   -8.5968   22.0017  -31.4441 H   0  0  0  0  0  0  0  0  0  0  0  0
   -7.1472   25.9600  -29.4698 H   0  0  0  0  0  0  0  0  0  0  0  0
   -6.1615   24.6087  -28.7974 H   0  0  0  0  0  0  0  0  0  0  0  0
   -5.7098   26.1420  -31.4081 H   0  0  0  0  0  0  0  0  0  0  0  0
   -4.6381   26.0718  -29.9612 H   0  0  0  0  0  0  0  0  0  0  0  0
  1  2  1  0
  2  3  1  0
  3  4  1  0
  4  5  1  0
  3  6  1  0
  6  7  1  0
  7  8  1  0
  8  9  1  0
  9 10  2  0
 10 11  1  0
 11 12  2  0
 12 13  1  0
 13 14  2  0
 13 15  1  0
 15 16  1  0
 16 17  1  0
 17 18  1  0
 14  9  1  0
 18 12  1  0
  1 19  1  0
  1 20  1  0
  1 21  1  0
  2 22  1  0
  2 23  1  0
  4 24  1  0
  4 25  1  0
  5 26  1  0
  5 27  1  0
  5 28  1  0
  6 29  1  0
  6 30  1  0
  7 31  1  0
  7 32  1  0
  8 33  1  0
 10 34  1  0
 11 35  1  0
 14 36  1  0
 16 37  1  0
 16 38  1  0
 17 39  1  0
 17 40  1  0
M  END
>  <UniqueID>  (24) 
24

>  <SMILES>  (24) 
CCN(CC)CCNc1ccc2c(c1)OCCO2

>  <Energy>  (24) 
39.501281241931004

>  <Genealogy>  (24) 
CCN(CC)CCNc1ccc2c(c1)OCCO2 (3D coordinates assigned)
CCN(CC)CCNc1ccc2c(c1)OCCO2 (nonaromatic ring conformer: 39.501281241931004 kcal/mol)

>  <smiles>  (24) 
CCN(CC)CCNc1ccc2c(c1)OCCO2

>  <score_type>  (24) 
oracle

>  <origin>  (24) 
adg

>  <m_score__min__energy>  (24) 
-6.3600000000000003

>  <m_primary>  (24) 
energy

$$$$
24:0
     RDKit          3D

 49 50  0  0  0  0  0  0  0  0999 V2000
   -7.8620   23.3100  -31.9510 C   0  0  0  0  0  0  0  0  0  0  0  0
   -9.0760   22.3850  -31.9690 C   0  0  0  0  0  0  0  0  0  0  0  0
   -8.8430   21.1500  -31.0860 C   0  0  0  0  0  0  0  0  0  0  0  0
   -8.5660   19.8780  -31.9170 C   0  0  0  0  0  0  0  0  0  0  0  0
   -7.1290   19.4870  -31.9220 N   0  0  1  0  0  0  0  0  0  0  0  0
   -6.9690   18.0120  -32.0370 C   0  0  0  0  0  0  0  0  0  0  0  0
   -6.6700   17.5140  -33.4590 C   0  0  0  0  0  0  0  0  0  0  0  0
   -6.3780   20.2350  -32.9650 C   0  0  0  0  0  0  0  0  0  0  0  0
   -5.3240   21.1270  -32.3730 C   0  0  0  0  0  0  0  0  0  0  0  0
   -4.4600   21.9370  -33.0740 C   0  0  0  0  0  0  0  0  0  0  0  0
   -3.7380   22.5860  -32.1960 O   0  0  0  0  0  0  0  0  0  0  0  0
   -4.1330   22.2060  -30.9990 C   0  0  0  0  0  0  0  0  0  0  0  0
   -3.5600   22.7190  -29.7310 C   0  0  0  0  0  0  0  0  0  0  0  0
   -3.1350   21.8060  -28.7480 C   0  0  0  0  0  0  0  0  0  0  0  0
   -2.5910   22.2560  -27.5450 C   0  0  0  0  0  0  0  0  0  0  0  0
   -2.4640   23.6220  -27.3040 C   0  0  0  0  0  0  0  0  0  0  0  0
   -2.8790   24.5440  -28.2650 C   0  0  0  0  0  0  0  0  0  0  0  0
   -3.4280   24.1080  -29.4900 C   0  0  0  0  0  0  0  0  0  0  0  0
   -3.8570   25.0180  -30.4730 O   0  0  0  0  0  0  0  0  0  0  0  0
   -5.2120   25.3000  -30.8240 C   0  0  0  0  0  0  0  0  0  0  0  0
   -6.1130   25.2340  -29.5950 C   0  0  0  0  0  0  0  0  0  0  0  0
   -5.1290   21.2940  -31.0530 N   0  0  0  0  0  0  0  0  0  0  0  0
   -7.5801   23.5248  -30.9097 H   0  0  0  0  0  0  0  0  0  0  0  0
   -7.0212   22.8215  -32.4652 H   0  0  0  0  0  0  0  0  0  0  0  0
   -8.1098   24.2503  -32.4652 H   0  0  0  0  0  0  0  0  0  0  0  0
   -9.9521   22.9346  -31.5942 H   0  0  0  0  0  0  0  0  0  0  0  0
   -9.2439   22.0488  -33.0028 H   0  0  0  0  0  0  0  0  0  0  0  0
   -7.9789   21.3405  -30.4325 H   0  0  0  0  0  0  0  0  0  0  0  0
   -9.7588   20.9770  -30.5017 H   0  0  0  0  0  0  0  0  0  0  0  0
   -9.1533   19.0490  -31.4951 H   0  0  0  0  0  0  0  0  0  0  0  0
   -8.8510   20.0960  -32.9568 H   0  0  0  0  0  0  0  0  0  0  0  0
   -6.7130   19.7460  -30.9970 H   0  0  0  0  0  0  0  0  0  0  0  0
   -6.1395   17.7041  -31.3834 H   0  0  0  0  0  0  0  0  0  0  0  0
   -7.9326   17.5685  -31.7457 H   0  0  0  0  0  0  0  0  0  0  0  0
   -6.1044   16.5720  -33.4063 H   0  0  0  0  0  0  0  0  0  0  0  0
   -7.6157   17.3444  -33.9945 H   0  0  0  0  0  0  0  0  0  0  0  0
   -6.0757   18.2690  -33.9945 H   0  0  0  0  0  0  0  0  0  0  0  0
   -5.8939   19.5134  -33.6395 H   0  0  0  0  0  0  0  0  0  0  0  0
   -7.0937   20.8705  -33.5072 H   0  0  0  0  0  0  0  0  0  0  0  0
   -4.3893   22.0230  -34.1684 H   0  0  0  0  0  0  0  0  0  0  0  0
   -3.2329   20.7256  -28.9303 H   0  0  0  0  0  0  0  0  0  0  0  0
   -2.2619   21.5313  -26.7857 H   0  0  0  0  0  0  0  0  0  0  0  0
   -2.0356   23.9744  -26.3541 H   0  0  0  0  0  0  0  0  0  0  0  0
   -2.7774   25.6211  -28.0662 H   0  0  0  0  0  0  0  0  0  0  0  0
   -5.2696   26.3082  -31.2600 H   0  0  0  0  0  0  0  0  0  0  0  0
   -5.5520   24.5489  -31.5522 H   0  0  0  0  0  0  0  0  0  0  0  0
   -5.4962   25.2792  -28.6853 H   0  0  0  0  0  0  0  0  0  0  0  0
   -6.8119   26.0834  -29.6067 H   0  0  0  0  0  0  0  0  0  0  0  0
   -6.6807   24.2919  -29.6067 H   0  0  0  0  0  0  0  0  0  0  0  0
  1  2  1  0
  2  3  1  0
  3  4  1  0
  4  5  1  0
  5  6  1  0
  6  7  1  0
  5  8  1  0
  8  9  1  0
  9 10  2  0
 10 11  1  0
 11 12  1  0
 12 13  1  0
 13 14  2  0
 14 15  1  0
 15 16  2  0
 16 17  1  0
 17 18  2  0
 18 19  1  0
 19 20  1  0
 20 21  1  0
 12 22  2  0
 22  9  1  0
 18 13  1  0
  1 23  1  0
  1 24  1  0
  1 25  1  0
  2 26  1  0
  2 27  1  0
  3 28  1  0
  3 29  1  0
  4 30  1  0
  4 31  1  0
  5 32  1  1
  6 33  1  0
  6 34  1  0
  7 35  1  0
  7 36  1  0
  7 37  1  0
  8 38  1  0
  8 39  1  0
 10 40  1  0
 14 41  1  0
 15 42  1  0
 16 43  1  0
 17 44  1  0
 20 45  1  0
 20 46  1  0
 21 47  1  0
 21 48  1  0
 21 49  1  0
M  CHG  1   5   1
M  END
>  <UniqueID>  (25) 
25

>  <SMILES>  (25) 
CCCC[N@@H+](CC)Cc1coc(-c2ccccc2OCC)n1

>  <Energy>  (25) 
75.77545636160782

>  <Genealogy>  (25) 
CCCC[NH+](CC)Cc1coc(-c2ccccc2OCC)n1 (protonated)
CCCC[N@@H+](CC)Cc1coc(-c2ccccc2OCC)n1 (chirality)
CCCC[N@@H+](CC)Cc1coc(-c2ccccc2OCC)n1 (3D coordinates assigned)
CCCC[N@@H+](CC)Cc1coc(-c2ccccc2OCC)n1 (optimized conformer: 75.77545636160782 kcal/mol)

>  <smiles>  (25) 
CCCCN(CC)Cc1coc(-c2ccccc2OCC)n1

>  <score_type>  (25) 
oracle

>  <origin>  (25) 
adg

>  <m_score__min__energy>  (25) 
-6.54

>  <m_primary>  (25) 
energy

$$$$
25:0
     RDKit          3D

 52 53  0  0  0  0  0  0  0  0999 V2000
   -3.1250   21.0000  -27.5590 C   0  0  0  0  0  0  0  0  0  0  0  0
   -3.9140   22.2800  -27.8230 C   0  0  0  0  0  0  0  0  0  0  0  0
   -3.1150   23.2220  -28.6390 N   0  0  0  0  0  0  0  0  0  0  0  0
   -2.1650   23.9900  -27.8020 C   0  0  0  0  0  0  0  0  0  0  0  0
   -1.5870   25.1600  -28.5910 C   0  0  0  0  0  0  0  0  0  0  0  0
   -2.4100   22.5210  -29.7370 C   0  0  0  0  0  0  0  0  0  0  0  0
   -2.8960   23.0420  -31.0870 C   0  0  0  0  0  0  0  0  0  0  0  0
   -4.2890   23.3330  -31.0130 O   0  0  0  0  0  0  0  0  0  0  0  0
   -4.7790   24.5870  -30.6420 C   0  0  0  0  0  0  0  0  0  0  0  0
   -4.0940   25.6280  -30.8400 O   0  0  0  0  0  0  0  0  0  0  0  0
   -6.1510   24.6940  -30.0530 C   0  0  0  0  0  0  0  0  0  0  0  0
   -7.1830   23.9190  -30.8890 C   0  0  0  0  0  0  0  0  0  0  0  0
   -7.2920   22.5120  -30.4620 N   0  0  0  0  0  0  0  0  0  0  0  0
   -8.3490   21.7590  -31.1560 C   0  0  0  0  0  0  0  0  0  0  0  0
   -7.8270   20.4870  -31.8040 C   0  0  0  0  0  0  0  0  0  0  0  0
   -8.6860   19.3750  -31.7970 C   0  0  0  0  0  0  0  0  0  0  0  0
   -8.2990   18.1630  -32.3570 C   0  0  0  0  0  0  0  0  0  0  0  0
   -7.0380   18.0150  -32.9290 C   0  0  0  0  0  0  0  0  0  0  0  0
   -6.6050   16.2930  -33.6670 Br  0  0  0  0  0  0  0  0  0  0  0  0
   -6.1440   19.1060  -32.9490 C   0  0  0  0  0  0  0  0  0  0  0  0
   -4.8580   18.9800  -33.5040 C   0  0  0  0  0  0  0  0  0  0  0  0
   -3.9940   20.0680  -33.5220 C   0  0  0  0  0  0  0  0  0  0  0  0
   -4.4140   21.2850  -33.0000 C   0  0  0  0  0  0  0  0  0  0  0  0
   -5.6540   21.4120  -32.4590 N   0  0  0  0  0  0  0  0  0  0  0  0
   -6.5360   20.3610  -32.4000 C   0  0  0  0  0  0  0  0  0  0  0  0
   -3.0296   20.8452  -26.4741 H   0  0  0  0  0  0  0  0  0  0  0  0
   -3.6530   20.1450  -28.0063 H   0  0  0  0  0  0  0  0  0  0  0  0
   -2.1239   21.0875  -28.0063 H   0  0  0  0  0  0  0  0  0  0  0  0
   -4.8400   22.0300  -28.3615 H   0  0  0  0  0  0  0  0  0  0  0  0
   -4.1521   22.7563  -26.8605 H   0  0  0  0  0  0  0  0  0  0  0  0
   -2.6916   24.3750  -26.9163 H   0  0  0  0  0  0  0  0  0  0  0  0
   -1.3434   23.3264  -27.4945 H   0  0  0  0  0  0  0  0  0  0  0  0
   -1.2104   25.9224  -27.8932 H   0  0  0  0  0  0  0  0  0  0  0  0
   -0.7616   24.8030  -29.2245 H   0  0  0  0  0  0  0  0  0  0  0  0
   -2.3721   25.5986  -29.2245 H   0  0  0  0  0  0  0  0  0  0  0  0
   -1.3281   22.6979  -29.6465 H   0  0  0  0  0  0  0  0  0  0  0  0
   -2.6191   21.4431  -29.6698 H   0  0  0  0  0  0  0  0  0  0  0  0
   -2.3440   23.9574  -31.3466 H   0  0  0  0  0  0  0  0  0  0  0  0
   -2.7228   22.2768  -31.8580 H   0  0  0  0  0  0  0  0  0  0  0  0
   -6.1355   24.2828  -29.0328 H   0  0  0  0  0  0  0  0  0  0  0  0
   -6.4411   25.7550  -30.0421 H   0  0  0  0  0  0  0  0  0  0  0  0
   -8.1653   24.4015  -30.7777 H   0  0  0  0  0  0  0  0  0  0  0  0
   -6.8511   23.9321  -31.9376 H   0  0  0  0  0  0  0  0  0  0  0  0
   -7.4080   22.4280  -29.4250 H   0  0  0  0  0  0  0  0  0  0  0  0
   -9.1273   21.4898  -30.4268 H   0  0  0  0  0  0  0  0  0  0  0  0
   -8.7483   22.4016  -31.9545 H   0  0  0  0  0  0  0  0  0  0  0  0
   -9.6826   19.4652  -31.3402 H   0  0  0  0  0  0  0  0  0  0  0  0
   -8.9960   17.3121  -32.3482 H   0  0  0  0  0  0  0  0  0  0  0  0
   -4.5350   18.0166  -33.9254 H   0  0  0  0  0  0  0  0  0  0  0  0
   -2.9844   19.9664  -33.9467 H   0  0  0  0  0  0  0  0  0  0  0  0
   -3.7378   22.1522  -33.0248 H   0  0  0  0  0  0  0  0  0  0  0  0
   -5.8920   22.3570  -32.0990 H   0  0  0  0  0  0  0  0  0  0  0  0
  1  2  1  0
  2  3  1  0
  3  4  1  0
  4  5  1  0
  3  6  1  0
  6  7  1  0
  7  8  1  0
  8  9  1  0
  9 10  2  0
  9 11  1  0
 11 12  1  0
 12 13  1  0
 13 14  1  0
 14 15  1  0
 15 16  2  0
 16 17  1  0
 17 18  2  0
 18 19  1  0
 18 20  1  0
 20 21  2  0
 21 22  1  0
 22 23  2  0
 23 24  1  0
 24 25  2  0
 25 15  1  0
 25 20  1  0
  1 26  1  0
  1 27  1  0
  1 28  1  0
  2 29  1  0
  2 30  1  0
  4 31  1  0
  4 32  1  0
  5 33  1  0
  5 34  1  0
  5 35  1  0
  6 36  1  0
  6 37  1  0
  7 38  1  0
  7 39  1  0
 11 40  1  0
 11 41  1  0
 12 42  1  0
 12 43  1  0
 13 44  1  0
 14 45  1  0
 14 46  1  0
 16 47  1  0
 17 48  1  0
 21 49  1  0
 22 50  1  0
 23 51  1  0
 24 52  1  0
M  CHG  1  24   1
M  END
>  <UniqueID>  (26) 
26

>  <SMILES>  (26) 
CCN(CC)CCOC(=O)CCNCc1ccc(Br)c2ccc[nH+]c12

>  <Energy>  (26) 
50.65360477126741

>  <Genealogy>  (26) 
CCN(CC)CCOC(=O)CCNCc1ccc(Br)c2ccc[nH+]c12 (protonated)
CCN(CC)CCOC(=O)CCNCc1ccc(Br)c2ccc[nH+]c12 (3D coordinates assigned)
CCN(CC)CCOC(=O)CCNCc1ccc(Br)c2ccc[nH+]c12 (optimized conformer: 50.65360477126741 kcal/mol)

>  <smiles>  (26) 
CCN(CC)CCOC(=O)CCNCc1ccc(Br)c2cccnc12

>  <score_type>  (26) 
oracle

>  <origin>  (26) 
adg

>  <m_score__min__energy>  (26) 
-7.5599999999999996

>  <m_primary>  (26) 
energy

$$$$
26:0
     RDKit          3D

 29 30  0  0  0  0  0  0  0  0999 V2000
   -9.4840   19.8070  -32.3640 C   0  0  0  0  0  0  0  0  0  0  0  0
   -9.5060   21.5310  -31.7760 S   0  0  0  0  0  0  0  0  0  0  0  0
   -7.7320   21.7360  -31.9460 C   0  0  0  0  0  0  0  0  0  0  0  0
   -7.1180   22.9170  -31.5140 C   0  0  0  0  0  0  0  0  0  0  0  0
   -5.7330   23.0800  -31.6480 C   0  0  0  0  0  0  0  0  0  0  0  0
   -5.1020   24.2940  -31.2000 C   0  0  0  0  0  0  0  0  0  0  0  0
   -4.5960   25.2700  -30.8400 N   0  0  0  0  0  0  0  0  0  0  0  0
   -4.9620   22.0600  -32.2210 C   0  0  0  0  0  0  0  0  0  0  0  0
   -5.5750   20.8780  -32.6590 C   0  0  0  0  0  0  0  0  0  0  0  0
   -4.7850   19.8300  -33.2470 C   0  0  0  0  0  0  0  0  0  0  0  0
   -4.1220   18.9510  -33.7390 C   0  0  0  0  0  0  0  0  0  0  0  0
   -3.3310   17.9030  -34.3290 C   0  0  0  0  0  0  0  0  0  0  0  0
   -3.9560   16.8510  -35.0110 C   0  0  0  0  0  0  0  0  0  0  0  0
   -3.1840   15.8330  -35.5840 C   0  0  0  0  0  0  0  0  0  0  0  0
   -1.7910   15.8650  -35.4760 C   0  0  0  0  0  0  0  0  0  0  0  0
   -1.1650   16.9150  -34.7950 C   0  0  0  0  0  0  0  0  0  0  0  0
    0.1870   16.9450  -34.6920 F   0  0  0  0  0  0  0  0  0  0  0  0
   -1.9330   17.9350  -34.2220 C   0  0  0  0  0  0  0  0  0  0  0  0
   -6.9610   20.7180  -32.5220 C   0  0  0  0  0  0  0  0  0  0  0  0
   -9.4753   19.1253  -31.5008 H   0  0  0  0  0  0  0  0  0  0  0  0
  -10.3798   19.6159  -32.9731 H   0  0  0  0  0  0  0  0  0  0  0  0
   -8.5836   19.6388  -32.9731 H   0  0  0  0  0  0  0  0  0  0  0  0
   -7.7243   23.7193  -31.0681 H   0  0  0  0  0  0  0  0  0  0  0  0
   -3.8745   22.1869  -32.3272 H   0  0  0  0  0  0  0  0  0  0  0  0
   -5.0524   16.8247  -35.0963 H   0  0  0  0  0  0  0  0  0  0  0  0
   -3.6746   15.0070  -36.1198 H   0  0  0  0  0  0  0  0  0  0  0  0
   -1.1863   15.0642  -35.9266 H   0  0  0  0  0  0  0  0  0  0  0  0
   -1.4406   18.7611  -33.6881 H   0  0  0  0  0  0  0  0  0  0  0  0
   -7.4438   19.7919  -32.8672 H   0  0  0  0  0  0  0  0  0  0  0  0
  1  2  1  0
  2  3  1  0
  3  4  2  0
  4  5  1  0
  5  6  1  0
  6  7  3  0
  5  8  2  0
  8  9  1  0
  9 10  1  0
 10 11  3  0
 11 12  1  0
 12 13  2  0
 13 14  1  0
 14 15  2  0
 15 16  1  0
 16 17  1  0
 16 18  2  0
  9 19  2  0
 19  3  1  0
 18 12  1  0
  1 20  1  0
  1 21  1  0
  1 22  1  0
  4 23  1  0
  8 24  1  0
 13 25  1  0
 14 26  1  0
 15 27  1  0
 18 28  1  0
 19 29  1  0
M  END
>  <UniqueID>  (27) 
27

>  <SMILES>  (27) 
CSc1cc(C#N)cc(C#Cc2cccc(F)c2)c1

>  <Energy>  (27) 
20.69009797124354

>  <Genealogy>  (27) 
CSc1cc(C#N)cc(C#Cc2cccc(F)c2)c1 (3D coordinates assigned)
CSc1cc(C#N)cc(C#Cc2cccc(F)c2)c1 (optimized conformer: 20.69009797124354 kcal/mol)

>  <smiles>  (27) 
CSc1cc(C#N)cc(C#Cc2cccc(F)c2)c1

>  <score_type>  (27) 
oracle

>  <origin>  (27) 
adg

>  <m_score__min__energy>  (27) 
-6.2699999999999996

>  <m_primary>  (27) 
energy

$$$$
27:0
     RDKit          3D

 45 47  0  0  0  0  0  0  0  0999 V2000
   -7.6530   23.5834  -33.1450 H   0  0  0  0  0  0  0  0  0  0  0  0
   -7.1010   23.4640  -32.2010 C   0  0  0  0  0  0  0  0  0  0  0  0
   -7.5950   22.6120  -31.2070 C   0  0  0  0  0  0  0  0  0  0  0  0
   -8.5345   22.0641  -31.3717 H   0  0  0  0  0  0  0  0  0  0  0  0
   -6.8980   22.4550  -30.0050 C   0  0  0  0  0  0  0  0  0  0  0  0
   -7.2887   21.7838  -29.2260 H   0  0  0  0  0  0  0  0  0  0  0  0
   -5.7000   23.1540  -29.7930 C   0  0  0  0  0  0  0  0  0  0  0  0
   -4.9780   23.0190  -28.6030 C   0  0  0  0  0  0  0  0  0  0  0  0
   -5.3470   22.3542  -27.8081 H   0  0  0  0  0  0  0  0  0  0  0  0
   -3.7890   23.7280  -28.4240 C   0  0  0  0  0  0  0  0  0  0  0  0
   -3.2206   23.6264  -27.4877 H   0  0  0  0  0  0  0  0  0  0  0  0
   -3.3200   24.5750  -29.4490 C   0  0  0  0  0  0  0  0  0  0  0  0
   -2.2140   25.2540  -29.3410 N   0  0  0  0  0  0  0  0  0  0  0  0
   -1.0260   24.8560  -28.5850 C   0  0  0  0  0  0  0  0  0  0  0  0
   -0.2640   24.4749  -29.2808 H   0  0  0  0  0  0  0  0  0  0  0  0
   -1.3057   24.0720  -27.8659 H   0  0  0  0  0  0  0  0  0  0  0  0
   -0.4560   26.0560  -27.8180 C   0  0  0  0  0  0  0  0  0  0  0  0
   -0.4319   26.9235  -28.4939 H   0  0  0  0  0  0  0  0  0  0  0  0
    0.5492   25.7746  -27.4709 H   0  0  0  0  0  0  0  0  0  0  0  0
   -1.2820   26.4280  -26.5740 C   0  0  0  0  0  0  0  0  0  0  0  0
   -1.9671   25.6000  -26.3394 H   0  0  0  0  0  0  0  0  0  0  0  0
   -1.8412   27.3492  -26.7945 H   0  0  0  0  0  0  0  0  0  0  0  0
   -0.4160   26.6810  -25.4030 N   0  0  0  0  0  0  0  0  0  0  0  0
   -1.2240   26.8810  -24.1820 C   0  0  0  0  0  0  0  0  0  0  0  0
   -2.0013   26.1037  -24.1406 H   0  0  0  0  0  0  0  0  0  0  0  0
   -1.6655   27.8873  -24.2309 H   0  0  0  0  0  0  0  0  0  0  0  0
   -0.3700   26.8000  -22.8950 C   0  0  0  0  0  0  0  0  0  0  0  0
   -0.5068   25.8063  -22.4435 H   0  0  0  0  0  0  0  0  0  0  0  0
   -0.7063   27.6019  -22.2213 H   0  0  0  0  0  0  0  0  0  0  0  0
    1.0710   27.0080  -23.1540 N   0  0  0  0  0  0  0  0  0  0  0  0
    1.5730   26.8400  -22.2480 H   0  0  0  0  0  0  0  0  0  0  0  0
    1.3610   28.4050  -23.5350 C   0  0  0  0  0  0  0  0  0  0  0  0
    1.4874   29.0138  -22.6276 H   0  0  0  0  0  0  0  0  0  0  0  0
    2.2852   28.4383  -24.1306 H   0  0  0  0  0  0  0  0  0  0  0  0
    0.5264   28.8034  -24.1306 H   0  0  0  0  0  0  0  0  0  0  0  0
    1.6060   26.0360  -24.1460 C   0  0  0  0  0  0  0  0  0  0  0  0
    1.9498   25.1408  -23.6071 H   0  0  0  0  0  0  0  0  0  0  0  0
    2.4250   26.5365  -24.6834 H   0  0  0  0  0  0  0  0  0  0  0  0
    0.5660   25.6040  -25.1990 C   0  0  0  0  0  0  0  0  0  0  0  0
    0.0476   24.6988  -24.8499 H   0  0  0  0  0  0  0  0  0  0  0  0
    1.0780   25.3953  -26.1499 H   0  0  0  0  0  0  0  0  0  0  0  0
   -4.0420   24.6900  -30.5970 N   0  0  0  0  0  0  0  0  0  0  0  0
   -5.2030   24.0130  -30.7980 C   0  0  0  0  0  0  0  0  0  0  0  0
   -5.9080   24.1640  -31.9980 C   0  0  0  0  0  0  0  0  0  0  0  0
   -5.5232   24.8336  -32.7813 H   0  0  0  0  0  0  0  0  0  0  0  0
  1  2  1  0
  2  3  2  0
  3  4  1  0
  3  5  1  0
  5  6  1  0
  5  7  2  0
  7  8  1  0
  8  9  1  0
  8 10  2  0
 10 11  1  0
 10 12  1  0
 12 13  2  0
 13 14  1  0
 14 15  1  0
 14 16  1  0
 14 17  1  0
 17 18  1  0
 17 19  1  0
 17 20  1  0
 20 21  1  0
 20 22  1  0
 20 23  1  0
 23 24  1  0
 24 25  1  0
 24 26  1  0
 24 27  1  0
 27 28  1  0
 27 29  1  0
 27 30  1  0
 30 31  1  0
 30 32  1  0
 32 33  1  0
 32 34  1  0
 32 35  1  0
 30 36  1  0
 36 37  1  0
 36 38  1  0
 36 39  1  0
 39 40  1  0
 39 41  1  0
 12 42  1  0
 42 43  1  0
 43 44  2  0
 44 45  1  0
 44  2  1  0
 43  7  1  0
 39 23  1  0
M  CHG  2  30   1  42  -1
M  END
>  <UniqueID>  (28) 
28

>  <SMILES>  (28) 
C[NH+]1CCN(CCC/N=c2\ccc3ccccc3[n-]2)CC1

>  <Energy>  (28) 
57.336951970126776

>  <Genealogy>  (28) 
C[NH+]1CCN(CCCN=c2ccc3ccccc3[n-]2)CC1 (protonated)
C[NH+]1CCN(CCC/N=c2\ccc3ccccc3[n-]2)CC1 (cis-trans isomerization)
C[NH+]1CCN(CCC/N=c2\ccc3ccccc3[n-]2)CC1 (3D coordinates assigned)
C[NH+]1CCN(CCC/N=c2\ccc3ccccc3[n-]2)CC1 (nonaromatic ring conformer: 57.336951970126776 kcal/mol)

>  <smiles>  (28) 
CN1CCN(CCCN=c2ccc3ccccc3[nH]2)CC1

>  <score_type>  (28) 
oracle

>  <origin>  (28) 
adg

>  <m_score__min__energy>  (28) 
-9.4900000000000002

>  <m_primary>  (28) 
energy

$$$$
28:0
     RDKit          3D

 53 55  0  0  0  0  0  0  0  0999 V2000
   -5.8560   25.5410  -30.0960 C   0  0  0  0  0  0  0  0  0  0  0  0
   -4.6300   24.9530  -30.8100 C   0  0  0  0  0  0  0  0  0  0  0  0
   -4.6600   23.4780  -30.9460 N   0  0  0  0  0  0  0  0  0  0  0  0
   -5.3180   22.8320  -29.7950 C   0  0  0  0  0  0  0  0  0  0  0  0
   -3.3230   22.9080  -31.2170 C   0  0  0  0  0  0  0  0  0  0  0  0
   -3.4040   21.8300  -32.3090 C   0  0  0  0  0  0  0  0  0  0  0  0
   -4.5580   22.0250  -33.2080 N   0  0  0  0  0  0  0  0  0  0  0  0
   -5.6120   21.0440  -32.9640 C   0  0  0  0  0  0  0  0  0  0  0  0
   -6.8990   21.4750  -32.5330 C   0  0  0  0  0  0  0  0  0  0  0  0
   -7.1970   22.8470  -32.3180 C   0  0  0  0  0  0  0  0  0  0  0  0
   -8.4780   23.2610  -31.9670 C   0  0  0  0  0  0  0  0  0  0  0  0
   -9.4970   22.3320  -31.8280 C   0  0  0  0  0  0  0  0  0  0  0  0
   -9.2300   20.9780  -31.9990 C   0  0  0  0  0  0  0  0  0  0  0  0
   -7.9240   20.5150  -32.3070 C   0  0  0  0  0  0  0  0  0  0  0  0
   -7.6480   19.1690  -32.3990 N   0  0  0  0  0  0  0  0  0  0  0  0
   -8.6030   18.1820  -31.8410 C   0  0  0  0  0  0  0  0  0  0  0  0
   -6.4660   18.7370  -32.9650 C   0  0  0  0  0  0  0  0  0  0  0  0
   -6.2930   17.3830  -33.3410 C   0  0  0  0  0  0  0  0  0  0  0  0
   -5.0750   16.9010  -33.8300 C   0  0  0  0  0  0  0  0  0  0  0  0
   -4.9470   15.4420  -34.1910 C   0  0  0  0  0  0  0  0  0  0  0  0
   -3.9810   17.7770  -33.9330 C   0  0  0  0  0  0  0  0  0  0  0  0
   -2.6340   17.2930  -34.4090 C   0  0  0  0  0  0  0  0  0  0  0  0
   -4.1600   19.1360  -33.6460 C   0  0  0  0  0  0  0  0  0  0  0  0
   -5.4020   19.6520  -33.1960 C   0  0  0  0  0  0  0  0  0  0  0  0
   -5.7140   25.4729  -29.0073 H   0  0  0  0  0  0  0  0  0  0  0  0
   -5.9777   26.5955  -30.3846 H   0  0  0  0  0  0  0  0  0  0  0  0
   -6.7545   24.9758  -30.3846 H   0  0  0  0  0  0  0  0  0  0  0  0
   -4.5731   25.3918  -31.8171 H   0  0  0  0  0  0  0  0  0  0  0  0
   -3.7544   25.1971  -30.1906 H   0  0  0  0  0  0  0  0  0  0  0  0
   -4.9040   23.2384  -28.8604 H   0  0  0  0  0  0  0  0  0  0  0  0
   -6.3996   23.0288  -29.8331 H   0  0  0  0  0  0  0  0  0  0  0  0
   -5.1412   21.7470  -29.8331 H   0  0  0  0  0  0  0  0  0  0  0  0
   -2.6491   23.7107  -31.5511 H   0  0  0  0  0  0  0  0  0  0  0  0
   -2.9404   22.4485  -30.2937 H   0  0  0  0  0  0  0  0  0  0  0  0
   -2.4811   21.8627  -32.9067 H   0  0  0  0  0  0  0  0  0  0  0  0
   -3.5276   20.8570  -31.8110 H   0  0  0  0  0  0  0  0  0  0  0  0
   -4.2450   22.0640  -34.2000 H   0  0  0  0  0  0  0  0  0  0  0  0
   -4.9360   22.9890  -33.0770 H   0  0  0  0  0  0  0  0  0  0  0  0
   -6.3998   23.5965  -32.4312 H   0  0  0  0  0  0  0  0  0  0  0  0
   -8.6826   24.3287  -31.7993 H   0  0  0  0  0  0  0  0  0  0  0  0
  -10.5161   22.6654  -31.5826 H   0  0  0  0  0  0  0  0  0  0  0  0
  -10.0482   20.2504  -31.8933 H   0  0  0  0  0  0  0  0  0  0  0  0
   -8.5678   18.2184  -30.7422 H   0  0  0  0  0  0  0  0  0  0  0  0
   -9.6204   18.4221  -32.1834 H   0  0  0  0  0  0  0  0  0  0  0  0
   -8.3295   17.1731  -32.1834 H   0  0  0  0  0  0  0  0  0  0  0  0
   -7.1418   16.6899  -33.2456 H   0  0  0  0  0  0  0  0  0  0  0  0
   -4.8942   14.8401  -33.2718 H   0  0  0  0  0  0  0  0  0  0  0  0
   -5.8214   15.1325  -34.7822 H   0  0  0  0  0  0  0  0  0  0  0  0
   -4.0320   15.2895  -34.7822 H   0  0  0  0  0  0  0  0  0  0  0  0
   -1.9986   17.0647  -33.5406 H   0  0  0  0  0  0  0  0  0  0  0  0
   -2.7643   16.3854  -35.0168 H   0  0  0  0  0  0  0  0  0  0  0  0
   -2.1569   18.0759  -35.0168 H   0  0  0  0  0  0  0  0  0  0  0  0
   -3.3114   19.8242  -33.7735 H   0  0  0  0  0  0  0  0  0  0  0  0
  1  2  1  0
  2  3  1  0
  3  4  1  0
  3  5  1  0
  5  6  1  0
  6  7  1  0
  7  8  1  0
  8  9  2  0
  9 10  1  0
 10 11  2  0
 11 12  1  0
 12 13  2  0
 13 14  1  0
 14 15  2  0
 15 16  1  0
 15 17  1  0
 17 18  2  0
 18 19  1  0
 19 20  1  0
 19 21  2  0
 21 22  1  0
 21 23  1  0
 23 24  2  0
 24  8  1  0
 14  9  1  0
 24 17  1  0
  1 25  1  0
  1 26  1  0
  1 27  1  0
  2 28  1  0
  2 29  1  0
  4 30  1  0
  4 31  1  0
  4 32  1  0
  5 33  1  0
  5 34  1  0
  6 35  1  0
  6 36  1  0
  7 37  1  0
  7 38  1  0
 10 39  1  0
 11 40  1  0
 12 41  1  0
 13 42  1  0
 16 43  1  0
 16 44  1  0
 16 45  1  0
 18 46  1  0
 20 47  1  0
 20 48  1  0
 20 49  1  0
 22 50  1  0
 22 51  1  0
 22 52  1  0
 23 53  1  0
M  CHG  2   7   1  15   1
M  END
>  <UniqueID>  (29) 
29

>  <SMILES>  (29) 
CCN(C)CC[NH2+]c1c2ccccc2[n+](C)c2cc(C)c(C)cc12

>  <Energy>  (29) 
85.12055216709452

>  <Genealogy>  (29) 
CCN(C)CC[NH2+]c1c2ccccc2[n+](C)c2cc(C)c(C)cc12 (protonated)
CCN(C)CC[NH2+]c1c2ccccc2[n+](C)c2cc(C)c(C)cc12 (3D coordinates assigned)
CCN(C)CC[NH2+]c1c2ccccc2[n+](C)c2cc(C)c(C)cc12 (optimized conformer: 85.12055216709452 kcal/mol)

>  <smiles>  (29) 
CCN(C)CCNc1c2ccccc2[n+](C)c2cc(C)c(C)cc12

>  <score_type>  (29) 
oracle

>  <origin>  (29) 
adg

>  <m_score__min__energy>  (29) 
-8.2899999999999991

>  <m_primary>  (29) 
energy

$$$$
29:0
     RDKit          3D

 67 70  0  0  0  0  0  0  0  0999 V2000
    0.3340   17.0210  -34.3270 C   0  0  0  0  0  0  0  0  0  0  0  0
   -0.8150   17.0570  -35.3480 C   0  0  0  0  0  0  0  0  0  0  0  0
   -1.9950   16.2180  -34.9960 N   0  0  0  0  0  0  0  0  0  0  0  0
   -1.9160   14.8830  -35.6460 C   0  0  0  0  0  0  0  0  0  0  0  0
   -2.7450   14.8100  -36.9350 C   0  0  0  0  0  0  0  0  0  0  0  0
   -2.2070   16.0920  -33.5270 C   0  0  0  0  0  0  0  0  0  0  0  0
   -3.6520   16.4250  -33.1060 C   0  0  0  0  0  0  0  0  0  0  0  0
   -4.4660   16.6750  -34.2370 O   0  0  0  0  0  0  0  0  0  0  0  0
   -5.7340   16.0540  -34.1270 C   0  0  0  0  0  0  0  0  0  0  0  0
   -6.8010   17.0850  -33.7620 C   0  0  0  0  0  0  0  0  0  0  0  0
   -6.4820   18.3920  -34.3370 N   0  0  0  0  0  0  0  0  0  0  0  0
   -6.1700   19.4970  -33.4800 C   0  0  0  0  0  0  0  0  0  0  0  0
   -7.1650   20.1790  -32.7480 C   0  0  0  0  0  0  0  0  0  0  0  0
   -8.5110   19.7610  -32.7870 C   0  0  0  0  0  0  0  0  0  0  0  0
   -9.4860   20.4370  -32.0550 C   0  0  0  0  0  0  0  0  0  0  0  0
   -9.1390   21.5370  -31.2760 C   0  0  0  0  0  0  0  0  0  0  0  0
   -7.8150   21.9760  -31.2230 C   0  0  0  0  0  0  0  0  0  0  0  0
   -6.8010   21.3170  -31.9550 C   0  0  0  0  0  0  0  0  0  0  0  0
   -5.4860   21.7550  -31.9210 N   0  0  0  0  0  0  0  0  0  0  0  0
   -5.1840   23.1440  -31.5380 C   0  0  0  0  0  0  0  0  0  0  0  0
   -4.5220   20.9450  -32.4700 C   0  0  0  0  0  0  0  0  0  0  0  0
   -4.8530   19.9100  -33.3170 C   0  0  0  0  0  0  0  0  0  0  0  0
   -3.7720   19.4230  -33.9570 N   0  0  0  0  0  0  0  0  0  0  0  0
   -2.7310   20.1270  -33.4770 C   0  0  0  0  0  0  0  0  0  0  0  0
   -1.3970   19.9500  -33.8350 C   0  0  0  0  0  0  0  0  0  0  0  0
   -0.4210   20.7160  -33.1740 C   0  0  0  0  0  0  0  0  0  0  0  0
    1.0290   20.5370  -33.5130 C   0  0  0  0  0  0  0  0  0  0  0  0
   -0.7960   21.5540  -32.1010 C   0  0  0  0  0  0  0  0  0  0  0  0
   -2.1480   21.6880  -31.7130 C   0  0  0  0  0  0  0  0  0  0  0  0
   -2.4470   22.3190  -30.3840 C   0  0  0  0  0  0  0  0  0  0  0  0
   -3.1230   21.0450  -32.5120 C   0  0  0  0  0  0  0  0  0  0  0  0
   -0.0803   17.0340  -33.3081 H   0  0  0  0  0  0  0  0  0  0  0  0
    0.9241   16.1039  -34.4712 H   0  0  0  0  0  0  0  0  0  0  0  0
    0.9803   17.8993  -34.4712 H   0  0  0  0  0  0  0  0  0  0  0  0
   -1.1536   18.0991  -35.4445 H   0  0  0  0  0  0  0  0  0  0  0  0
   -0.4097   16.6419  -36.2826 H   0  0  0  0  0  0  0  0  0  0  0  0
   -2.8230   16.7180  -35.3980 H   0  0  0  0  0  0  0  0  0  0  0  0
   -0.8646   14.6704  -35.8897 H   0  0  0  0  0  0  0  0  0  0  0  0
   -2.3243   14.1427  -34.9423 H   0  0  0  0  0  0  0  0  0  0  0  0
   -3.8110   14.7161  -36.6805 H   0  0  0  0  0  0  0  0  0  0  0  0
   -2.5879   15.7255  -37.5243 H   0  0  0  0  0  0  0  0  0  0  0  0
   -2.4304   13.9361  -37.5243 H   0  0  0  0  0  0  0  0  0  0  0  0
   -1.9816   15.0583  -33.2259 H   0  0  0  0  0  0  0  0  0  0  0  0
   -1.5408   16.8133  -33.0311 H   0  0  0  0  0  0  0  0  0  0  0  0
   -4.0678   15.5754  -32.5445 H   0  0  0  0  0  0  0  0  0  0  0  0
   -3.6347   17.3295  -32.4803 H   0  0  0  0  0  0  0  0  0  0  0  0
   -5.9941   15.5878  -35.0888 H   0  0  0  0  0  0  0  0  0  0  0  0
   -5.6903   15.2900  -33.3368 H   0  0  0  0  0  0  0  0  0  0  0  0
   -7.7741   16.7489  -34.1494 H   0  0  0  0  0  0  0  0  0  0  0  0
   -6.8363   17.1818  -32.6668 H   0  0  0  0  0  0  0  0  0  0  0  0
   -6.8470   18.6060  -35.2950 H   0  0  0  0  0  0  0  0  0  0  0  0
   -8.7944   18.8933  -33.4008 H   0  0  0  0  0  0  0  0  0  0  0  0
  -10.5325   20.1001  -32.0932 H   0  0  0  0  0  0  0  0  0  0  0  0
   -9.9130   22.0637  -30.6985 H   0  0  0  0  0  0  0  0  0  0  0  0
   -7.5570   22.8471  -30.6028 H   0  0  0  0  0  0  0  0  0  0  0  0
   -5.1661   23.2263  -30.4412 H   0  0  0  0  0  0  0  0  0  0  0  0
   -4.2025   23.4310  -31.9433 H   0  0  0  0  0  0  0  0  0  0  0  0
   -5.9578   23.8126  -31.9433 H   0  0  0  0  0  0  0  0  0  0  0  0
   -3.7380   18.6620  -34.6700 H   0  0  0  0  0  0  0  0  0  0  0  0
   -1.1139   19.2286  -34.6157 H   0  0  0  0  0  0  0  0  0  0  0  0
    1.6161   20.4645  -32.5856 H   0  0  0  0  0  0  0  0  0  0  0  0
    1.1571   19.6162  -34.1010 H   0  0  0  0  0  0  0  0  0  0  0  0
    1.3772   21.3990  -34.1010 H   0  0  0  0  0  0  0  0  0  0  0  0
   -0.0207   22.1132  -31.5568 H   0  0  0  0  0  0  0  0  0  0  0  0
   -2.1269   21.6435  -29.5770 H   0  0  0  0  0  0  0  0  0  0  0  0
   -1.9050   23.2725  -30.3006 H   0  0  0  0  0  0  0  0  0  0  0  0
   -3.5282   22.5033  -30.3006 H   0  0  0  0  0  0  0  0  0  0  0  0
  1  2  1  0
  2  3  1  0
  3  4  1  0
  4  5  1  0
  3  6  1  0
  6  7  1  0
  7  8  1  0
  8  9  1  0
  9 10  1  0
 10 11  1  0
 11 12  1  0
 12 13  2  0
 13 14  1  0
 14 15  2  0
 15 16  1  0
 16 17  2  0
 17 18  1  0
 18 19  2  0
 19 20  1  0
 19 21  1  0
 21 22  2  0
 22 23  1  0
 23 24  1  0
 24 25  2  0
 25 26  1  0
 26 27  1  0
 26 28  2  0
 28 29  1  0
 29 30  1  0
 29 31  2  0
 22 12  1  0
 31 24  1  0
 18 13  1  0
 31 21  1  0
  1 32  1  0
  1 33  1  0
  1 34  1  0
  2 35  1  0
  2 36  1  0
  3 37  1  0
  4 38  1  0
  4 39  1  0
  5 40  1  0
  5 41  1  0
  5 42  1  0
  6 43  1  0
  6 44  1  0
  7 45  1  0
  7 46  1  0
  9 47  1  0
  9 48  1  0
 10 49  1  0
 10 50  1  0
 11 51  1  0
 14 52  1  0
 15 53  1  0
 16 54  1  0
 17 55  1  0
 20 56  1  0
 20 57  1  0
 20 58  1  0
 23 59  1  0
 25 60  1  0
 27 61  1  0
 27 62  1  0
 27 63  1  0
 28 64  1  0
 30 65  1  0
 30 66  1  0
 30 67  1  0
M  CHG  2   3   1  19   1
M  END
>  <UniqueID>  (30) 
30

>  <SMILES>  (30) 
CC[NH+](CC)CCOCCNc1c2ccccc2[n+](C)c2c1[nH]c1cc(C)cc(C)c12

>  <Energy>  (30) 
142.27296204528264

>  <Genealogy>  (30) 
CC[NH+](CC)CCOCCNc1c2ccccc2[n+](C)c2c1[nH]c1cc(C)cc(C)c12 (protonated)
CC[NH+](CC)CCOCCNc1c2ccccc2[n+](C)c2c1[nH]c1cc(C)cc(C)c12 (3D coordinates assigned)
CC[NH+](CC)CCOCCNc1c2ccccc2[n+](C)c2c1[nH]c1cc(C)cc(C)c12 (optimized conformer: 142.27296204528264 kcal/mol)

>  <smiles>  (30) 
CCN(CC)CCOCCNc1c2ccccc2[n+](C)c2c1[nH]c1cc(C)cc(C)c12

>  <score_type>  (30) 
oracle

>  <origin>  (30) 
adg

>  <m_score__min__energy>  (30) 
-8.1300000000000008

>  <m_primary>  (30) 
energy

$$$$
30:0
     RDKit          3D

 31 33  0  0  0  0  0  0  0  0999 V2000
   -9.1450   19.7530  -32.4810 C   0  0  0  0  0  0  0  0  0  0  0  0
   -7.9730   19.3780  -31.5770 C   0  0  0  0  0  0  0  0  0  0  0  0
   -6.7180   19.3480  -32.3360 N   0  0  0  0  0  0  0  0  0  0  0  0
   -5.7750   20.3240  -32.4580 C   0  0  0  0  0  0  0  0  0  0  0  0
   -5.8380   21.6400  -31.7930 C   0  0  0  0  0  0  0  0  0  0  0  0
   -6.9720   22.4500  -31.9660 C   0  0  0  0  0  0  0  0  0  0  0  0
   -7.0560   23.6930  -31.3320 C   0  0  0  0  0  0  0  0  0  0  0  0
   -6.0120   24.1360  -30.5160 C   0  0  0  0  0  0  0  0  0  0  0  0
   -6.1190   25.6970  -29.7230 Cl  0  0  0  0  0  0  0  0  0  0  0  0
   -4.8830   23.3330  -30.3290 C   0  0  0  0  0  0  0  0  0  0  0  0
   -4.7900   22.0850  -30.9600 C   0  0  0  0  0  0  0  0  0  0  0  0
   -3.3330   21.1280  -30.7170 Cl  0  0  0  0  0  0  0  0  0  0  0  0
   -4.7610   19.9900  -33.3000 N   0  0  0  0  0  0  0  0  0  0  0  0
   -5.0980   18.7550  -33.7080 C   0  0  0  0  0  0  0  0  0  0  0  0
   -4.4080   17.9410  -34.6050 C   0  0  0  0  0  0  0  0  0  0  0  0
   -4.9650   16.6870  -34.9150 C   0  0  0  0  0  0  0  0  0  0  0  0
   -6.1890   16.2850  -34.3330 C   0  0  0  0  0  0  0  0  0  0  0  0
   -6.8620   17.1310  -33.4340 C   0  0  0  0  0  0  0  0  0  0  0  0
   -6.2750   18.3640  -33.1380 C   0  0  0  0  0  0  0  0  0  0  0  0
  -10.0112   20.0302  -31.8623 H   0  0  0  0  0  0  0  0  0  0  0  0
   -8.8603   20.6049  -33.1160 H   0  0  0  0  0  0  0  0  0  0  0  0
   -9.4077   18.8941  -33.1160 H   0  0  0  0  0  0  0  0  0  0  0  0
   -7.8885   20.1203  -30.7697 H   0  0  0  0  0  0  0  0  0  0  0  0
   -8.1563   18.3770  -31.1594 H   0  0  0  0  0  0  0  0  0  0  0  0
   -7.7988   22.1044  -32.6040 H   0  0  0  0  0  0  0  0  0  0  0  0
   -7.9458   24.3236  -31.4758 H   0  0  0  0  0  0  0  0  0  0  0  0
   -4.0637   23.6824  -29.6835 H   0  0  0  0  0  0  0  0  0  0  0  0
   -3.4594   18.2684  -35.0555 H   0  0  0  0  0  0  0  0  0  0  0  0
   -4.4452   16.0155  -35.6142 H   0  0  0  0  0  0  0  0  0  0  0  0
   -6.6177   15.3039  -34.5851 H   0  0  0  0  0  0  0  0  0  0  0  0
   -7.8180   16.8324  -32.9792 H   0  0  0  0  0  0  0  0  0  0  0  0
  1  2  1  0
  2  3  1  0
  3  4  1  0
  4  5  1  0
  5  6  2  0
  6  7  1  0
  7  8  2  0
  8  9  1  0
  8 10  1  0
 10 11  2  0
 11 12  1  0
  4 13  2  0
 13 14  1  0
 14 15  2  0
 15 16  1  0
 16 17  2  0
 17 18  1  0
 18 19  2  0
 19  3  1  0
 11  5  1  0
 19 14  1  0
  1 20  1  0
  1 21  1  0
  1 22  1  0
  2 23  1  0
  2 24  1  0
  6 25  1  0
  7 26  1  0
 10 27  1  0
 15 28  1  0
 16 29  1  0
 17 30  1  0
 18 31  1  0
M  END
>  <UniqueID>  (31) 
31

>  <SMILES>  (31) 
CCn1c(-c2ccc(Cl)cc2Cl)nc2ccccc21

>  <Energy>  (31) 
74.87634944532276

>  <Genealogy>  (31) 
CCn1c(-c2ccc(Cl)cc2Cl)nc2ccccc21 (3D coordinates assigned)
CCn1c(-c2ccc(Cl)cc2Cl)nc2ccccc21 (optimized conformer: 74.87634944532276 kcal/mol)

>  <smiles>  (31) 
CCn1c(-c2ccc(Cl)cc2Cl)nc2ccccc21

>  <score_type>  (31) 
oracle

>  <origin>  (31) 
adg

>  <m_score__min__energy>  (31) 
-7.4800000000000004

>  <m_primary>  (31) 
energy

$$$$
31:0
     RDKit          3D

 48 51  0  0  0  0  0  0  0  0999 V2000
   -8.5040   19.8310  -32.6770 C   0  0  0  0  0  0  0  0  0  0  0  0
   -7.0970   20.2620  -32.6470 N   0  0  0  0  0  0  0  0  0  0  0  0
   -6.1230   19.4610  -33.1880 C   0  0  0  0  0  0  0  0  0  0  0  0
   -4.8510   19.9410  -33.4490 C   0  0  0  0  0  0  0  0  0  0  0  0
   -4.4720   21.2290  -33.0810 C   0  0  0  0  0  0  0  0  0  0  0  0
   -3.1530   21.7090  -33.3810 N   0  0  0  0  0  0  0  0  0  0  0  0
   -2.0690   21.5980  -32.4050 C   0  0  0  0  0  0  0  0  0  0  0  0
   -0.9090   20.7510  -32.9590 C   0  0  0  0  0  0  0  0  0  0  0  0
   -0.8450   20.7520  -34.4430 N   0  0  0  0  0  0  0  0  0  0  0  0
   -0.1120   21.9270  -34.9500 C   0  0  0  0  0  0  0  0  0  0  0  0
   -0.1890   19.5220  -34.9220 C   0  0  0  0  0  0  0  0  0  0  0  0
   -5.4080   22.0110  -32.3690 C   0  0  0  0  0  0  0  0  0  0  0  0
   -5.0670   23.2920  -31.8920 C   0  0  0  0  0  0  0  0  0  0  0  0
   -5.9870   24.0510  -31.1730 C   0  0  0  0  0  0  0  0  0  0  0  0
   -7.2550   23.5450  -30.9050 C   0  0  0  0  0  0  0  0  0  0  0  0
   -7.6250   22.2840  -31.3740 C   0  0  0  0  0  0  0  0  0  0  0  0
   -6.7290   21.4990  -32.1390 C   0  0  0  0  0  0  0  0  0  0  0  0
   -4.0690   18.8740  -34.0710 C   0  0  0  0  0  0  0  0  0  0  0  0
   -2.8570   18.9200  -34.4050 O   0  0  0  0  0  0  0  0  0  0  0  0
   -4.9380   17.7130  -34.1530 C   0  0  0  0  0  0  0  0  0  0  0  0
   -4.6370   16.4210  -34.5830 C   0  0  0  0  0  0  0  0  0  0  0  0
   -5.6150   15.4270  -34.4390 C   0  0  0  0  0  0  0  0  0  0  0  0
   -6.8500   15.7290  -33.8370 C   0  0  0  0  0  0  0  0  0  0  0  0
   -7.1310   17.0330  -33.3940 C   0  0  0  0  0  0  0  0  0  0  0  0
   -6.1720   18.0370  -33.6040 C   0  0  0  0  0  0  0  0  0  0  0  0
   -8.8747   19.7174  -31.6476 H   0  0  0  0  0  0  0  0  0  0  0  0
   -9.1075   20.5855  -33.2029 H   0  0  0  0  0  0  0  0  0  0  0  0
   -8.5814   18.8680  -33.2029 H   0  0  0  0  0  0  0  0  0  0  0  0
   -2.9110   21.9240  -34.3750 H   0  0  0  0  0  0  0  0  0  0  0  0
   -1.6963   22.6050  -32.1659 H   0  0  0  0  0  0  0  0  0  0  0  0
   -2.4606   21.1063  -31.5023 H   0  0  0  0  0  0  0  0  0  0  0  0
    0.0368   21.1535  -32.5673 H   0  0  0  0  0  0  0  0  0  0  0  0
   -1.0782   19.7125  -32.6383 H   0  0  0  0  0  0  0  0  0  0  0  0
   -1.8110   20.7700  -34.8470 H   0  0  0  0  0  0  0  0  0  0  0  0
    0.2589   22.5216  -34.1022 H   0  0  0  0  0  0  0  0  0  0  0  0
    0.7379   21.5925  -35.5630 H   0  0  0  0  0  0  0  0  0  0  0  0
   -0.7861   22.5433  -35.5630 H   0  0  0  0  0  0  0  0  0  0  0  0
    0.1328   18.9187  -34.0603 H   0  0  0  0  0  0  0  0  0  0  0  0
   -0.8976   18.9421  -35.5316 H   0  0  0  0  0  0  0  0  0  0  0  0
    0.6874   19.7874  -35.5316 H   0  0  0  0  0  0  0  0  0  0  0  0
   -4.0635   23.6970  -32.0896 H   0  0  0  0  0  0  0  0  0  0  0  0
   -5.7102   25.0539  -30.8158 H   0  0  0  0  0  0  0  0  0  0  0  0
   -7.9699   24.1424  -30.3201 H   0  0  0  0  0  0  0  0  0  0  0  0
   -8.6279   21.8940  -31.1459 H   0  0  0  0  0  0  0  0  0  0  0  0
   -3.6567   16.1877  -35.0241 H   0  0  0  0  0  0  0  0  0  0  0  0
   -5.4158   14.4066  -34.7983 H   0  0  0  0  0  0  0  0  0  0  0  0
   -7.6031   14.9370  -33.7117 H   0  0  0  0  0  0  0  0  0  0  0  0
   -8.0830   17.2624  -32.8929 H   0  0  0  0  0  0  0  0  0  0  0  0
  1  2  1  0
  2  3  2  0
  3  4  1  0
  4  5  2  0
  5  6  1  0
  6  7  1  0
  7  8  1  0
  8  9  1  0
  9 10  1  0
  9 11  1  0
  5 12  1  0
 12 13  2  0
 13 14  1  0
 14 15  2  0
 15 16  1  0
 16 17  2  0
  4 18  1  0
 18 19  2  0
 18 20  1  0
 20 21  2  0
 21 22  1  0
 22 23  2  0
 23 24  1  0
 24 25  2  0
 17  2  1  0
 25 20  1  0
 25  3  1  0
 17 12  1  0
  1 26  1  0
  1 27  1  0
  1 28  1  0
  6 29  1  0
  7 30  1  0
  7 31  1  0
  8 32  1  0
  8 33  1  0
  9 34  1  0
 10 35  1  0
 10 36  1  0
 10 37  1  0
 11 38  1  0
 11 39  1  0
 11 40  1  0
 13 41  1  0
 14 42  1  0
 15 43  1  0
 16 44  1  0
 21 45  1  0
 22 46  1  0
 23 47  1  0
 24 48  1  0
M  CHG  2   2   1   9   1
M  END
>  <UniqueID>  (32) 
32

>  <SMILES>  (32) 
C[n+]1c2c(c(NCC[NH+](C)C)c3ccccc31)C(=O)c1ccccc1-2

>  <Energy>  (32) 
105.16490719088377

>  <Genealogy>  (32) 
C[n+]1c2c(c(NCC[NH+](C)C)c3ccccc31)C(=O)c1ccccc1-2 (protonated)
C[n+]1c2c(c(NCC[NH+](C)C)c3ccccc31)C(=O)c1ccccc1-2 (3D coordinates assigned)
C[n+]1c2c(c(NCC[NH+](C)C)c3ccccc31)C(=O)c1ccccc1-2 (nonaromatic ring conformer: 105.16490719088377 kcal/mol)

>  <smiles>  (32) 
CN(C)CCNc1c2c([n+](C)c3ccccc13)-c1ccccc1C2=O

>  <score_type>  (32) 
oracle

>  <origin>  (32) 
adg

>  <m_score__min__energy>  (32) 
-7.1799999999999997

>  <m_primary>  (32) 
energy

$$$$
