0:0
     RDKit          3D

 44 46  0  0  0  0  0  0  0  0999 V2000
   -4.2540   25.6670  -30.8690 O   0  0  0  0  0  0  0  0  0  0  0  0
   -3.8670   24.9000  -29.9470 C   0  0  0  0  0  0  0  0  0  0  0  0
   -4.7220   23.7260  -29.5430 C   0  0  0  0  0  0  0  0  0  0  0  0
   -4.9840   22.8470  -30.6830 N   0  0  0  0  0  0  0  0  0  0  0  0
   -3.9660   22.3760  -31.6250 C   0  0  0  0  0  0  0  0  0  0  0  0
   -4.7070   21.4580  -32.6280 C   0  0  0  0  0  0  0  0  0  0  0  0
   -6.1160   21.4780  -32.1400 C   0  0  0  0  0  0  0  0  0  0  0  0
   -7.2250   20.8210  -32.6820 C   0  0  0  0  0  0  0  0  0  0  0  0
   -8.4740   20.9940  -32.0610 C   0  0  0  0  0  0  0  0  0  0  0  0
   -8.5910   21.8080  -30.9150 C   0  0  0  0  0  0  0  0  0  0  0  0
   -7.4590   22.4550  -30.3870 C   0  0  0  0  0  0  0  0  0  0  0  0
   -6.2310   22.2710  -31.0310 C   0  0  0  0  0  0  0  0  0  0  0  0
   -2.5980   25.1570  -29.3280 N   0  0  0  0  0  0  0  0  0  0  0  0
   -1.4520   24.2530  -29.3300 C   0  0  0  0  0  0  0  0  0  0  0  0
   -1.6160   23.1820  -28.2450 C   0  0  0  0  0  0  0  0  0  0  0  0
   -1.0920   21.8150  -28.6980 C   0  0  0  0  0  0  0  0  0  0  0  0
   -1.6520   20.7350  -27.8840 N   0  0  0  0  0  0  0  0  0  0  0  0
   -3.0630   20.5890  -27.5770 C   0  0  0  0  0  0  0  0  0  0  0  0
   -3.1800   19.3120  -26.7210 C   0  0  0  0  0  0  0  0  0  0  0  0
   -1.8120   18.6120  -26.7550 C   0  0  0  0  0  0  0  0  0  0  0  0
   -0.9490   19.5870  -27.4490 C   0  0  0  0  0  0  0  0  0  0  0  0
    0.2790   19.4070  -27.6670 O   0  0  0  0  0  0  0  0  0  0  0  0
   -4.2007   23.1543  -28.7611 H   0  0  0  0  0  0  0  0  0  0  0  0
   -5.6833   24.1071  -29.1680 H   0  0  0  0  0  0  0  0  0  0  0  0
   -3.5088   23.2270  -32.1511 H   0  0  0  0  0  0  0  0  0  0  0  0
   -3.1562   21.8393  -31.1090 H   0  0  0  0  0  0  0  0  0  0  0  0
   -4.6391   21.8570  -33.6508 H   0  0  0  0  0  0  0  0  0  0  0  0
   -4.2835   20.4439  -32.6752 H   0  0  0  0  0  0  0  0  0  0  0  0
   -7.1224   20.1841  -33.5730 H   0  0  0  0  0  0  0  0  0  0  0  0
   -9.3635   20.4927  -32.4702 H   0  0  0  0  0  0  0  0  0  0  0  0
   -9.5710   21.9373  -30.4324 H   0  0  0  0  0  0  0  0  0  0  0  0
   -7.5374   23.0888  -29.4914 H   0  0  0  0  0  0  0  0  0  0  0  0
   -1.3767   23.7650  -30.3129 H   0  0  0  0  0  0  0  0  0  0  0  0
   -0.5395   24.8322  -29.1255 H   0  0  0  0  0  0  0  0  0  0  0  0
   -1.0591   23.4961  -27.3499 H   0  0  0  0  0  0  0  0  0  0  0  0
   -2.6902   23.0785  -28.0319 H   0  0  0  0  0  0  0  0  0  0  0  0
   -1.3727   21.6540  -29.7493 H   0  0  0  0  0  0  0  0  0  0  0  0
    0.0018   21.8063  -28.5818 H   0  0  0  0  0  0  0  0  0  0  0  0
   -3.4241   21.4618  -27.0132 H   0  0  0  0  0  0  0  0  0  0  0  0
   -3.6699   20.5187  -28.4917 H   0  0  0  0  0  0  0  0  0  0  0  0
   -3.4424   19.5755  -25.6858 H   0  0  0  0  0  0  0  0  0  0  0  0
   -3.9659   18.6503  -27.1141 H   0  0  0  0  0  0  0  0  0  0  0  0
   -1.4447   18.4151  -25.7370 H   0  0  0  0  0  0  0  0  0  0  0  0
   -1.8421   17.6321  -27.2539 H   0  0  0  0  0  0  0  0  0  0  0  0
  1  2  2  0
  2  3  1  0
  3  4  1  0
  4  5  1  0
  5  6  1  0
  6  7  1  0
  7  8  2  0
  8  9  1  0
  9 10  2  0
 10 11  1  0
 11 12  2  0
  2 13  1  0
 13 14  1  0
 14 15  1  0
 15 16  1  0
 16 17  1  0
 17 18  1  0
 18 19  1  0
 19 20  1  0
 20 21  1  0
 21 22  2  0
 12  4  1  0
 21 17  1  0
 12  7  1  0
  3 23  1  0
  3 24  1  0
  5 25  1  0
  5 26  1  0
  6 27  1  0
  6 28  1  0
  8 29  1  0
  9 30  1  0
 10 31  1  0
 11 32  1  0
 14 33  1  0
 14 34  1  0
 15 35  1  0
 15 36  1  0
 16 37  1  0
 16 38  1  0
 18 39  1  0
 18 40  1  0
 19 41  1  0
 19 42  1  0
 20 43  1  0
 20 44  1  0
M  CHG  1  13  -1
M  END
>  <UniqueID>  (1) 
1

>  <SMILES>  (1) 
O=C(CN1CCc2ccccc21)[N-]CCCN1CCCC1=O

>  <Energy>  (1) 
55.92322548424301

>  <Genealogy>  (1) 
O=C(CN1CCc2ccccc21)[N-]CCCN1CCCC1=O (protonated)
O=C(CN1CCc2ccccc21)[N-]CCCN1CCCC1=O (3D coordinates assigned)
O=C(CN1CCc2ccccc21)[N-]CCCN1CCCC1=O (nonaromatic ring conformer: 55.92322548424301 kcal/mol)

>  <smiles>  (1) 
O=C(CN1CCc2ccccc21)NCCCN1CCCC1=O

>  <score_type>  (1) 
oracle

>  <origin>  (1) 
adg

>  <m_score__min__energy>  (1) 
-9.7599999999999998

>  <m_primary>  (1) 
energy

$$$$
1:0
     RDKit          3D

 30 32  0  0  0  0  0  0  0  0999 V2000
   -8.5700   21.8120  -31.9360 C   0  0  0  0  0  0  0  0  0  0  0  0
   -7.1390   22.1330  -31.8010 N   0  0  0  0  0  0  0  0  0  0  0  0
   -6.8020   23.3780  -31.3460 C   0  0  0  0  0  0  0  0  0  0  0  0
   -5.4640   23.7700  -31.1860 C   0  0  0  0  0  0  0  0  0  0  0  0
   -5.1530   25.1380  -30.6870 C   0  0  0  0  0  0  0  0  0  0  0  0
   -6.0530   25.8440  -30.1580 O   0  0  0  0  0  0  0  0  0  0  0  0
   -3.8710   25.6670  -30.7930 O   0  0  0  0  0  0  0  0  0  0  0  0
   -4.4530   22.8470  -31.5050 C   0  0  0  0  0  0  0  0  0  0  0  0
   -3.2380   23.1650  -31.3740 O   0  0  0  0  0  0  0  0  0  0  0  0
   -4.7930   21.5650  -31.9730 C   0  0  0  0  0  0  0  0  0  0  0  0
   -3.7940   20.6280  -32.2970 C   0  0  0  0  0  0  0  0  0  0  0  0
   -4.1320   19.3590  -32.7610 C   0  0  0  0  0  0  0  0  0  0  0  0
   -5.4740   18.9890  -32.9120 C   0  0  0  0  0  0  0  0  0  0  0  0
   -5.8000   17.6300  -33.4080 C   0  0  0  0  0  0  0  0  0  0  0  0
   -7.0520   17.0350  -33.4680 C   0  0  0  0  0  0  0  0  0  0  0  0
   -6.8460   15.7790  -33.9970 C   0  0  0  0  0  0  0  0  0  0  0  0
   -5.4920   15.6780  -34.2290 C   0  0  0  0  0  0  0  0  0  0  0  0
   -4.8970   16.7920  -33.8700 O   0  0  0  0  0  0  0  0  0  0  0  0
   -6.4800   19.9180  -32.5910 C   0  0  0  0  0  0  0  0  0  0  0  0
   -6.1600   21.2140  -32.1180 C   0  0  0  0  0  0  0  0  0  0  0  0
   -9.0190   21.7113  -30.9369 H   0  0  0  0  0  0  0  0  0  0  0  0
   -9.0765   22.6189  -32.4860 H   0  0  0  0  0  0  0  0  0  0  0  0
   -8.6833   20.8661  -32.4860 H   0  0  0  0  0  0  0  0  0  0  0  0
   -7.6017   24.0917  -31.0987 H   0  0  0  0  0  0  0  0  0  0  0  0
   -2.7346   20.9009  -32.1825 H   0  0  0  0  0  0  0  0  0  0  0  0
   -3.3373   18.6408  -33.0112 H   0  0  0  0  0  0  0  0  0  0  0  0
   -8.0112   17.4749  -33.1574 H   0  0  0  0  0  0  0  0  0  0  0  0
   -7.6092   15.0118  -34.1942 H   0  0  0  0  0  0  0  0  0  0  0  0
   -4.9858   14.7973  -34.6511 H   0  0  0  0  0  0  0  0  0  0  0  0
   -7.5357   19.6325  -32.7096 H   0  0  0  0  0  0  0  0  0  0  0  0
  1  2  1  0
  2  3  1  0
  3  4  2  0
  4  5  1  0
  5  6  2  0
  5  7  1  0
  4  8  1  0
  8  9  2  0
  8 10  1  0
 10 11  2  0
 11 12  1  0
 12 13  2  0
 13 14  1  0
 14 15  2  0
 15 16  1  0
 16 17  2  0
 17 18  1  0
 13 19  1  0
 19 20  2  0
 20  2  1  0
 20 10  1  0
 18 14  1  0
  1 21  1  0
  1 22  1  0
  1 23  1  0
  3 24  1  0
 11 25  1  0
 12 26  1  0
 15 27  1  0
 16 28  1  0
 17 29  1  0
 19 30  1  0
M  CHG  1   7  -1
M  END
>  <UniqueID>  (2) 
2

>  <SMILES>  (2) 
Cn1cc(C(=O)[O-])c(=O)c2ccc(-c3ccco3)cc21

>  <Energy>  (2) 
71.51415353733378

>  <Genealogy>  (2) 
Cn1cc(C(=O)[O-])c(=O)c2ccc(-c3ccco3)cc21 (protonated)
Cn1cc(C(=O)[O-])c(=O)c2ccc(-c3ccco3)cc21 (3D coordinates assigned)
Cn1cc(C(=O)[O-])c(=O)c2ccc(-c3ccco3)cc21 (optimized conformer: 71.51415353733378 kcal/mol)

>  <smiles>  (2) 
Cn1cc(C(=O)O)c(=O)c2ccc(-c3ccco3)cc21

>  <score_type>  (2) 
oracle

>  <origin>  (2) 
adg

>  <m_score__min__energy>  (2) 
-9.0399999999999991

>  <m_primary>  (2) 
energy

$$$$
2:0
     RDKit          3D

 41 44  0  0  0  0  0  0  0  0999 V2000
   -8.7250   18.7480  -31.3890 C   0  0  0  0  0  0  0  0  0  0  0  0
   -8.2340   19.3370  -32.3190 C   0  0  0  0  0  0  0  0  0  0  0  0
   -7.6360   20.0510  -33.4510 C   0  0  0  0  0  0  0  0  0  0  0  0
   -6.4580   20.7940  -33.0060 N   0  0  0  0  0  0  0  0  0  0  0  0
   -5.1710   20.3910  -33.1360 C   0  0  0  0  0  0  0  0  0  0  0  0
   -4.3160   21.3150  -32.5470 C   0  0  0  0  0  0  0  0  0  0  0  0
   -2.8500   21.1990  -32.4610 C   0  0  0  0  0  0  0  0  0  0  0  0
   -2.0670   21.3190  -33.5690 N   0  0  0  0  0  0  0  0  0  0  0  0
   -0.7440   21.1860  -33.3030 C   0  0  0  0  0  0  0  0  0  0  0  0
    0.3330   21.2560  -34.3210 C   0  0  0  0  0  0  0  0  0  0  0  0
    0.2760   22.2150  -35.3500 C   0  0  0  0  0  0  0  0  0  0  0  0
    1.2880   22.2860  -36.3130 C   0  0  0  0  0  0  0  0  0  0  0  0
    2.3670   21.4000  -36.2620 C   0  0  0  0  0  0  0  0  0  0  0  0
    3.3470   21.4690  -37.1970 F   0  0  0  0  0  0  0  0  0  0  0  0
    2.4330   20.4400  -35.2500 C   0  0  0  0  0  0  0  0  0  0  0  0
    1.4240   20.3650  -34.2860 C   0  0  0  0  0  0  0  0  0  0  0  0
   -0.5040   20.9290  -31.6540 S   0  0  0  0  0  0  0  0  0  0  0  0
   -2.1390   20.9990  -31.2730 C   0  0  0  0  0  0  0  0  0  0  0  0
   -2.6820   20.9020  -29.8820 C   0  0  0  0  0  0  0  0  0  0  0  0
   -5.1300   22.2940  -32.0060 C   0  0  0  0  0  0  0  0  0  0  0  0
   -4.8340   23.4070  -31.2160 C   0  0  0  0  0  0  0  0  0  0  0  0
   -5.9040   24.2000  -30.7660 C   0  0  0  0  0  0  0  0  0  0  0  0
   -7.2340   23.8580  -31.0910 C   0  0  0  0  0  0  0  0  0  0  0  0
   -7.5080   22.7150  -31.8630 C   0  0  0  0  0  0  0  0  0  0  0  0
   -6.4260   21.9490  -32.3070 C   0  0  0  0  0  0  0  0  0  0  0  0
   -9.1731   18.2105  -30.5403 H   0  0  0  0  0  0  0  0  0  0  0  0
   -7.3395   19.3262  -34.2235 H   0  0  0  0  0  0  0  0  0  0  0  0
   -8.3729   20.7553  -33.8643 H   0  0  0  0  0  0  0  0  0  0  0  0
   -4.8491   19.4655  -33.6359 H   0  0  0  0  0  0  0  0  0  0  0  0
   -2.4630   21.4590  -34.5250 H   0  0  0  0  0  0  0  0  0  0  0  0
   -0.5716   22.9145  -35.3971 H   0  0  0  0  0  0  0  0  0  0  0  0
    1.2342   23.0405  -37.1116 H   0  0  0  0  0  0  0  0  0  0  0  0
    3.2815   19.7410  -35.2115 H   0  0  0  0  0  0  0  0  0  0  0  0
    1.4820   19.6043  -33.4936 H   0  0  0  0  0  0  0  0  0  0  0  0
   -1.8660   21.0478  -29.1589 H   0  0  0  0  0  0  0  0  0  0  0  0
   -3.4475   21.6776  -29.7323 H   0  0  0  0  0  0  0  0  0  0  0  0
   -3.1316   19.9093  -29.7323 H   0  0  0  0  0  0  0  0  0  0  0  0
   -3.7950   23.6556  -30.9538 H   0  0  0  0  0  0  0  0  0  0  0  0
   -5.7032   25.0933  -30.1563 H   0  0  0  0  0  0  0  0  0  0  0  0
   -8.0622   24.4900  -30.7380 H   0  0  0  0  0  0  0  0  0  0  0  0
   -8.5420   22.4323  -32.1100 H   0  0  0  0  0  0  0  0  0  0  0  0
  1  2  3  0
  2  3  1  0
  3  4  1  0
  4  5  1  0
  5  6  2  0
  6  7  1  0
  7  8  1  0
  8  9  2  0
  9 10  1  0
 10 11  2  0
 11 12  1  0
 12 13  2  0
 13 14  1  0
 13 15  1  0
 15 16  2  0
  9 17  1  0
 17 18  1  0
 18 19  1  0
  6 20  1  0
 20 21  2  0
 21 22  1  0
 22 23  2  0
 23 24  1  0
 24 25  2  0
 25  4  1  0
 18  7  2  0
 25 20  1  0
 16 10  1  0
  1 26  1  0
  3 27  1  0
  3 28  1  0
  5 29  1  0
  8 30  1  0
 11 31  1  0
 12 32  1  0
 15 33  1  0
 16 34  1  0
 19 35  1  0
 19 36  1  0
 19 37  1  0
 21 38  1  0
 22 39  1  0
 23 40  1  0
 24 41  1  0
M  CHG  1   8   1
M  END
>  <UniqueID>  (3) 
3

>  <SMILES>  (3) 
C#CCn1cc(-c2[nH+]c(-c3ccc(F)cc3)sc2C)c2ccccc21

>  <Energy>  (3) 
112.03229786481715

>  <Genealogy>  (3) 
C#CCn1cc(-c2[nH+]c(-c3ccc(F)cc3)sc2C)c2ccccc21 (protonated)
C#CCn1cc(-c2[nH+]c(-c3ccc(F)cc3)sc2C)c2ccccc21 (3D coordinates assigned)
C#CCn1cc(-c2[nH+]c(-c3ccc(F)cc3)sc2C)c2ccccc21 (optimized conformer: 112.03229786481715 kcal/mol)

>  <smiles>  (3) 
C#CCn1cc(-c2nc(-c3ccc(F)cc3)sc2C)c2ccccc21

>  <score_type>  (3) 
oracle

>  <origin>  (3) 
adg

>  <m_score__min__energy>  (3) 
-7.4500000000000002

>  <m_primary>  (3) 
energy

$$$$
3:0
     RDKit          3D

 42 43  0  0  0  0  0  0  0  0999 V2000
   -7.2860   17.4270  -32.7050 C   0  0  0  0  0  0  0  0  0  0  0  0
   -8.2450   18.4280  -32.3760 O   0  0  0  0  0  0  0  0  0  0  0  0
   -7.9420   19.7860  -32.2000 C   0  0  0  0  0  0  0  0  0  0  0  0
   -8.8790   20.7120  -31.7040 C   0  0  0  0  0  0  0  0  0  0  0  0
   -8.5270   22.0550  -31.5470 C   0  0  0  0  0  0  0  0  0  0  0  0
   -7.2380   22.4960  -31.8870 C   0  0  0  0  0  0  0  0  0  0  0  0
   -6.8470   23.9360  -31.6780 C   0  0  0  0  0  0  0  0  0  0  0  0
   -7.0040   24.3530  -30.2110 C   0  0  0  0  0  0  0  0  0  0  0  0
   -5.7660   24.1310  -29.4630 N   0  0  0  0  0  0  0  0  0  0  0  0
   -4.5080   24.6920  -29.8680 C   0  0  0  0  0  0  0  0  0  0  0  0
   -4.4160   25.3190  -30.9580 O   0  0  0  0  0  0  0  0  0  0  0  0
   -3.3150   24.5450  -29.0200 C   0  0  0  0  0  0  0  0  0  0  0  0
   -3.3400   23.7730  -28.0230 O   0  0  0  0  0  0  0  0  0  0  0  0
   -2.1310   25.2870  -29.3270 N   0  0  0  0  0  0  0  0  0  0  0  0
   -0.8700   25.1280  -28.6130 C   0  0  0  0  0  0  0  0  0  0  0  0
   -0.9620   25.7480  -27.2440 C   0  0  0  0  0  0  0  0  0  0  0  0
   -1.1820   24.9480  -26.1100 C   0  0  0  0  0  0  0  0  0  0  0  0
   -1.2460   25.5310  -24.8400 C   0  0  0  0  0  0  0  0  0  0  0  0
   -1.0860   26.9110  -24.6930 C   0  0  0  0  0  0  0  0  0  0  0  0
   -0.8620   27.7120  -25.8170 C   0  0  0  0  0  0  0  0  0  0  0  0
   -0.7980   27.1340  -27.0880 C   0  0  0  0  0  0  0  0  0  0  0  0
   -6.3020   21.5710  -32.3710 C   0  0  0  0  0  0  0  0  0  0  0  0
   -6.6540   20.2280  -32.5290 C   0  0  0  0  0  0  0  0  0  0  0  0
   -6.8735   16.9965  -31.7806 H   0  0  0  0  0  0  0  0  0  0  0  0
   -7.7706   16.6345  -33.2942 H   0  0  0  0  0  0  0  0  0  0  0  0
   -6.4735   17.8772  -33.2942 H   0  0  0  0  0  0  0  0  0  0  0  0
   -9.8926   20.3769  -31.4389 H   0  0  0  0  0  0  0  0  0  0  0  0
   -9.2641   22.7711  -31.1547 H   0  0  0  0  0  0  0  0  0  0  0  0
   -5.7967   24.0683  -31.9769 H   0  0  0  0  0  0  0  0  0  0  0  0
   -7.5100   24.5661  -32.2890 H   0  0  0  0  0  0  0  0  0  0  0  0
   -7.2632   25.4211  -30.1672 H   0  0  0  0  0  0  0  0  0  0  0  0
   -7.7991   23.7424  -29.7582 H   0  0  0  0  0  0  0  0  0  0  0  0
   -5.8080   23.5200  -28.6160 H   0  0  0  0  0  0  0  0  0  0  0  0
   -0.6433   24.0564  -28.5114 H   0  0  0  0  0  0  0  0  0  0  0  0
   -0.0723   25.6302  -29.1800 H   0  0  0  0  0  0  0  0  0  0  0  0
   -1.3042   23.8605  -26.2212 H   0  0  0  0  0  0  0  0  0  0  0  0
   -1.4227   24.9016  -23.9553 H   0  0  0  0  0  0  0  0  0  0  0  0
   -1.1362   27.3673  -23.6934 H   0  0  0  0  0  0  0  0  0  0  0  0
   -0.7360   28.7986  -25.7008 H   0  0  0  0  0  0  0  0  0  0  0  0
   -0.6185   27.7671  -27.9694 H   0  0  0  0  0  0  0  0  0  0  0  0
   -5.2856   21.9042  -32.6276 H   0  0  0  0  0  0  0  0  0  0  0  0
   -5.9136   19.5119  -32.9149 H   0  0  0  0  0  0  0  0  0  0  0  0
  1  2  1  0
  2  3  1  0
  3  4  2  0
  4  5  1  0
  5  6  2  0
  6  7  1  0
  7  8  1  0
  8  9  1  0
  9 10  1  0
 10 11  2  0
 10 12  1  0
 12 13  2  0
 12 14  1  0
 14 15  1  0
 15 16  1  0
 16 17  2  0
 17 18  1  0
 18 19  2  0
 19 20  1  0
 20 21  2  0
  6 22  1  0
 22 23  2  0
 23  3  1  0
 21 16  1  0
  1 24  1  0
  1 25  1  0
  1 26  1  0
  4 27  1  0
  5 28  1  0
  7 29  1  0
  7 30  1  0
  8 31  1  0
  8 32  1  0
  9 33  1  0
 15 34  1  0
 15 35  1  0
 17 36  1  0
 18 37  1  0
 19 38  1  0
 20 39  1  0
 21 40  1  0
 22 41  1  0
 23 42  1  0
M  CHG  1  14  -1
M  END
>  <UniqueID>  (4) 
4

>  <SMILES>  (4) 
COc1ccc(CCNC(=O)C(=O)[N-]Cc2ccccc2)cc1

>  <Energy>  (4) 
32.78058306725793

>  <Genealogy>  (4) 
COc1ccc(CCNC(=O)C(=O)[N-]Cc2ccccc2)cc1 (protonated)
COc1ccc(CCNC(=O)C(=O)[N-]Cc2ccccc2)cc1 (3D coordinates assigned)
COc1ccc(CCNC(=O)C(=O)[N-]Cc2ccccc2)cc1 (optimized conformer: 32.78058306725793 kcal/mol)

>  <smiles>  (4) 
COc1ccc(CCNC(=O)C(=O)NCc2ccccc2)cc1

>  <score_type>  (4) 
oracle

>  <origin>  (4) 
adg

>  <m_score__min__energy>  (4) 
-9.6500000000000004

>  <m_primary>  (4) 
energy

$$$$
4:0
     RDKit          3D

 49 51  0  0  0  0  0  0  0  0999 V2000
   -3.4290   21.6040  -33.0300 C   0  0  0  0  0  0  0  0  0  0  0  0
   -3.9940   22.2400  -31.8880 O   0  0  0  0  0  0  0  0  0  0  0  0
   -5.3630   22.2430  -31.5720 C   0  0  0  0  0  0  0  0  0  0  0  0
   -6.3230   21.6690  -32.4310 C   0  0  0  0  0  0  0  0  0  0  0  0
   -7.6790   21.6990  -32.0970 C   0  0  0  0  0  0  0  0  0  0  0  0
   -8.0960   22.3000  -30.9100 C   0  0  0  0  0  0  0  0  0  0  0  0
   -7.1560   22.8700  -30.0490 C   0  0  0  0  0  0  0  0  0  0  0  0
   -5.7860   22.8350  -30.3630 C   0  0  0  0  0  0  0  0  0  0  0  0
   -4.7980   23.4780  -29.4210 C   0  0  0  0  0  0  0  0  0  0  0  0
   -4.0990   24.6350  -30.0850 C   0  0  0  0  0  0  0  0  0  0  0  0
   -4.7550   25.4030  -30.8390 O   0  0  0  0  0  0  0  0  0  0  0  0
   -2.7130   24.9180  -29.8510 N   0  0  0  0  0  0  0  0  0  0  0  0
   -2.0060   24.7550  -28.6140 C   0  0  0  0  0  0  0  0  0  0  0  0
   -0.6030   24.6840  -28.5690 C   0  0  0  0  0  0  0  0  0  0  0  0
    0.0570   24.5440  -27.3450 C   0  0  0  0  0  0  0  0  0  0  0  0
   -0.6730   24.5000  -26.1510 C   0  0  0  0  0  0  0  0  0  0  0  0
    0.1690   24.2950  -24.6170 S   0  0  0  0  0  0  0  0  0  0  0  0
   -0.5130   23.2000  -23.8420 O   0  0  0  0  0  0  0  0  0  0  0  0
    1.5910   23.8780  -24.8760 O   0  0  0  0  0  0  0  0  0  0  0  0
    0.1120   25.7990  -23.7200 N   0  0  0  0  0  0  0  0  0  0  0  0
   -1.0930   26.5960  -24.0600 C   0  0  0  0  0  0  0  0  0  0  0  0
   -0.8020   27.7030  -25.0910 C   0  0  0  0  0  0  0  0  0  0  0  0
    0.2180   27.2960  -25.9760 O   0  0  0  0  0  0  0  0  0  0  0  0
    1.4580   27.2190  -25.2930 C   0  0  0  0  0  0  0  0  0  0  0  0
    1.3550   26.5780  -23.8880 C   0  0  0  0  0  0  0  0  0  0  0  0
   -2.0710   24.6010  -26.1910 C   0  0  0  0  0  0  0  0  0  0  0  0
   -2.7310   24.7370  -27.4160 C   0  0  0  0  0  0  0  0  0  0  0  0
   -2.7312   20.8185  -32.7045 H   0  0  0  0  0  0  0  0  0  0  0  0
   -4.2312   21.1546  -33.6338 H   0  0  0  0  0  0  0  0  0  0  0  0
   -2.8882   22.3476  -33.6338 H   0  0  0  0  0  0  0  0  0  0  0  0
   -6.0019   21.1946  -33.3701 H   0  0  0  0  0  0  0  0  0  0  0  0
   -8.4202   21.2471  -32.7726 H   0  0  0  0  0  0  0  0  0  0  0  0
   -9.1650   22.3251  -30.6519 H   0  0  0  0  0  0  0  0  0  0  0  0
   -7.4901   23.3503  -29.1175 H   0  0  0  0  0  0  0  0  0  0  0  0
   -5.3328   23.8425  -28.5316 H   0  0  0  0  0  0  0  0  0  0  0  0
   -4.0450   22.7287  -29.1355 H   0  0  0  0  0  0  0  0  0  0  0  0
   -0.0218   24.7389  -29.5013 H   0  0  0  0  0  0  0  0  0  0  0  0
    1.1541   24.4681  -27.3196 H   0  0  0  0  0  0  0  0  0  0  0  0
    0.0470   25.5300  -22.7100 H   0  0  0  0  0  0  0  0  0  0  0  0
   -1.8561   25.9208  -24.4745 H   0  0  0  0  0  0  0  0  0  0  0  0
   -1.4398   27.0841  -23.1373 H   0  0  0  0  0  0  0  0  0  0  0  0
   -1.7167   27.9134  -25.6646 H   0  0  0  0  0  0  0  0  0  0  0  0
   -0.4724   28.6077  -24.5591 H   0  0  0  0  0  0  0  0  0  0  0  0
    2.1517   26.6178  -25.8991 H   0  0  0  0  0  0  0  0  0  0  0  0
    1.8115   28.2509  -25.1507 H   0  0  0  0  0  0  0  0  0  0  0  0
    2.2153   25.9086  -23.7401 H   0  0  0  0  0  0  0  0  0  0  0  0
    1.3474   27.3901  -23.1461 H   0  0  0  0  0  0  0  0  0  0  0  0
   -2.6500   24.5732  -25.2561 H   0  0  0  0  0  0  0  0  0  0  0  0
   -3.8268   24.8305  -27.4389 H   0  0  0  0  0  0  0  0  0  0  0  0
  1  2  1  0
  2  3  1  0
  3  4  2  0
  4  5  1  0
  5  6  2  0
  6  7  1  0
  7  8  2  0
  8  9  1  0
  9 10  1  0
 10 11  2  0
 10 12  1  0
 12 13  1  0
 13 14  2  0
 14 15  1  0
 15 16  2  0
 16 17  1  0
 17 18  2  0
 17 19  2  0
 17 20  1  0
 20 21  1  0
 21 22  1  0
 22 23  1  0
 23 24  1  0
 24 25  1  0
 16 26  1  0
 26 27  2  0
  8  3  1  0
 27 13  1  0
 25 20  1  0
  1 28  1  0
  1 29  1  0
  1 30  1  0
  4 31  1  0
  5 32  1  0
  6 33  1  0
  7 34  1  0
  9 35  1  0
  9 36  1  0
 14 37  1  0
 15 38  1  0
 20 39  1  0
 21 40  1  0
 21 41  1  0
 22 42  1  0
 22 43  1  0
 24 44  1  0
 24 45  1  0
 25 46  1  0
 25 47  1  0
 26 48  1  0
 27 49  1  0
M  CHG  2  12  -1  20   1
M  END
>  <UniqueID>  (5) 
5

>  <SMILES>  (5) 
COc1ccccc1CC(=O)[N-]c1ccc(S(=O)(=O)[NH+]2CCOCC2)cc1

>  <Energy>  (5) 
64.68940114391496

>  <Genealogy>  (5) 
COc1ccccc1CC(=O)[N-]c1ccc(S(=O)(=O)[NH+]2CCOCC2)cc1 (protonated)
COc1ccccc1CC(=O)[N-]c1ccc(S(=O)(=O)[NH+]2CCOCC2)cc1 (3D coordinates assigned)
COc1ccccc1CC(=O)[N-]c1ccc(S(=O)(=O)[NH+]2CCOCC2)cc1 (nonaromatic ring conformer: 64.68940114391496 kcal/mol)

>  <smiles>  (5) 
COc1ccccc1CC(=O)Nc1ccc(S(=O)(=O)N2CCOCC2)cc1

>  <score_type>  (5) 
oracle

>  <origin>  (5) 
adg

>  <m_score__min__energy>  (5) 
-10.57

>  <m_primary>  (5) 
energy

$$$$
5:0
     RDKit          3D

 28 29  0  0  0  0  0  0  0  0999 V2000
   -1.3970   25.3760  -29.0890 O   0  0  0  0  0  0  0  0  0  0  0  0
   -2.5720   24.9290  -29.0240 C   0  0  0  0  0  0  0  0  0  0  0  0
   -2.9370   24.0060  -27.8940 C   0  0  0  0  0  0  0  0  0  0  0  0
   -3.6630   24.9320  -26.4950 S   0  0  0  0  0  0  0  0  0  0  0  0
   -2.0990   25.2520  -25.6780 C   0  0  0  0  0  0  0  0  0  0  0  0
   -1.0360   24.4370  -25.9110 N   0  0  0  0  0  0  0  0  0  0  0  0
    0.1610   24.6610  -25.3120 C   0  0  0  0  0  0  0  0  0  0  0  0
    0.3130   25.7440  -24.4470 C   0  0  0  0  0  0  0  0  0  0  0  0
   -0.7840   26.5750  -24.2240 C   0  0  0  0  0  0  0  0  0  0  0  0
   -1.9680   26.3190  -24.8430 N   0  0  0  0  0  0  0  0  0  0  0  0
   -3.4820   25.2290  -30.0900 N   0  0  0  0  0  0  0  0  0  0  0  0
   -4.6830   24.5190  -30.4230 C   0  0  0  0  0  0  0  0  0  0  0  0
   -5.9490   25.0160  -30.0740 C   0  0  0  0  0  0  0  0  0  0  0  0
   -7.1050   24.3180  -30.4380 C   0  0  0  0  0  0  0  0  0  0  0  0
   -7.0060   23.1300  -31.1690 C   0  0  0  0  0  0  0  0  0  0  0  0
   -8.4560   22.2580  -31.6280 Cl  0  0  0  0  0  0  0  0  0  0  0  0
   -5.7480   22.6470  -31.5470 C   0  0  0  0  0  0  0  0  0  0  0  0
   -4.5910   23.3440  -31.1830 C   0  0  0  0  0  0  0  0  0  0  0  0
   -3.3780   22.8680  -31.5590 F   0  0  0  0  0  0  0  0  0  0  0  0
   -3.6689   23.2684  -28.2549 H   0  0  0  0  0  0  0  0  0  0  0  0
   -2.0228   23.5045  -27.5437 H   0  0  0  0  0  0  0  0  0  0  0  0
    1.0097   23.9894  -25.5085 H   0  0  0  0  0  0  0  0  0  0  0  0
    1.2760   25.9382  -23.9521 H   0  0  0  0  0  0  0  0  0  0  0  0
   -0.6921   27.4376  -23.5476 H   0  0  0  0  0  0  0  0  0  0  0  0
   -2.7830   26.9490  -24.6680 H   0  0  0  0  0  0  0  0  0  0  0  0
   -6.0319   25.9580  -29.5121 H   0  0  0  0  0  0  0  0  0  0  0  0
   -8.0936   24.7041  -30.1488 H   0  0  0  0  0  0  0  0  0  0  0  0
   -5.6689   21.7182  -32.1310 H   0  0  0  0  0  0  0  0  0  0  0  0
  1  2  2  0
  2  3  1  0
  3  4  1  0
  4  5  1  0
  5  6  2  0
  6  7  1  0
  7  8  2  0
  8  9  1  0
  9 10  2  0
  2 11  1  0
 11 12  1  0
 12 13  2  0
 13 14  1  0
 14 15  2  0
 15 16  1  0
 15 17  1  0
 17 18  2  0
 18 19  1  0
 10  5  1  0
 18 12  1  0
  3 20  1  0
  3 21  1  0
  7 22  1  0
  8 23  1  0
  9 24  1  0
 10 25  1  0
 13 26  1  0
 14 27  1  0
 17 28  1  0
M  CHG  2  10   1  11  -1
M  END
>  <UniqueID>  (6) 
6

>  <SMILES>  (6) 
O=C(CSc1nccc[nH+]1)[N-]c1ccc(Cl)cc1F

>  <Energy>  (6) 
30.590034150422316

>  <Genealogy>  (6) 
O=C(CSc1nccc[nH+]1)[N-]c1ccc(Cl)cc1F (protonated)
O=C(CSc1nccc[nH+]1)[N-]c1ccc(Cl)cc1F (3D coordinates assigned)
O=C(CSc1nccc[nH+]1)[N-]c1ccc(Cl)cc1F (optimized conformer: 30.590034150422316 kcal/mol)

>  <smiles>  (6) 
O=C(CSc1ncccn1)Nc1ccc(Cl)cc1F

>  <score_type>  (6) 
oracle

>  <origin>  (6) 
adg

>  <m_score__min__energy>  (6) 
-8.6500000000000004

>  <m_primary>  (6) 
energy

$$$$
6:0
     RDKit          3D

 41 42  0  0  0  0  0  0  0  0999 V2000
   -6.4330   25.5760  -29.3990 C   0  0  0  0  0  0  0  0  0  0  0  0
   -5.7110   25.5650  -30.7570 C   0  0  0  0  0  0  0  0  0  0  0  0
   -4.5970   24.5910  -30.8430 N   0  0  0  0  0  0  0  0  0  0  0  0
   -3.9570   24.3230  -29.5380 C   0  0  0  0  0  0  0  0  0  0  0  0
   -4.2320   22.8900  -29.0870 C   0  0  0  0  0  0  0  0  0  0  0  0
   -4.9590   23.3600  -31.5850 C   0  0  0  0  0  0  0  0  0  0  0  0
   -6.3660   23.4930  -32.1780 C   0  0  0  0  0  0  0  0  0  0  0  0
   -7.1640   22.2980  -31.8970 N   0  0  0  0  0  0  0  0  0  0  0  0
   -8.3480   22.2640  -31.2370 C   0  0  0  0  0  0  0  0  0  0  0  0
   -8.9160   21.0320  -31.2160 N   0  0  0  0  0  0  0  0  0  0  0  0
   -8.0320   20.2820  -31.9050 C   0  0  0  0  0  0  0  0  0  0  0  0
   -6.9850   21.0320  -32.3190 C   0  0  0  0  0  0  0  0  0  0  0  0
   -5.9740   20.4620  -33.0860 C   0  0  0  0  0  0  0  0  0  0  0  0
   -4.9840   21.1500  -33.4580 O   0  0  0  0  0  0  0  0  0  0  0  0
   -6.0830   19.1320  -33.4220 N   0  0  0  0  0  0  0  0  0  0  0  0
   -5.0230   18.4890  -34.2170 C   0  0  0  0  0  0  0  0  0  0  0  0
   -7.1530   18.3810  -32.9650 C   0  0  0  0  0  0  0  0  0  0  0  0
   -7.2310   17.1550  -33.2600 O   0  0  0  0  0  0  0  0  0  0  0  0
   -8.1380   18.9570  -32.1910 N   0  0  0  0  0  0  0  0  0  0  0  0
   -9.3060   18.1830  -31.7500 C   0  0  0  0  0  0  0  0  0  0  0  0
   -5.6895   25.5647  -28.5884 H   0  0  0  0  0  0  0  0  0  0  0  0
   -7.0492   26.4836  -29.3187 H   0  0  0  0  0  0  0  0  0  0  0  0
   -7.0766   24.6876  -29.3187 H   0  0  0  0  0  0  0  0  0  0  0  0
   -6.4463   25.3184  -31.5370 H   0  0  0  0  0  0  0  0  0  0  0  0
   -5.2696   26.5638  -30.8893 H   0  0  0  0  0  0  0  0  0  0  0  0
   -2.8709   24.4702  -29.6313 H   0  0  0  0  0  0  0  0  0  0  0  0
   -4.3728   25.0152  -28.7910 H   0  0  0  0  0  0  0  0  0  0  0  0
   -4.2403   22.8467  -27.9879 H   0  0  0  0  0  0  0  0  0  0  0  0
   -5.2089   22.5648  -29.4741 H   0  0  0  0  0  0  0  0  0  0  0  0
   -3.4448   22.2263  -29.4741 H   0  0  0  0  0  0  0  0  0  0  0  0
   -4.2357   23.2001  -32.3982 H   0  0  0  0  0  0  0  0  0  0  0  0
   -4.9410   22.5055  -30.8925 H   0  0  0  0  0  0  0  0  0  0  0  0
   -6.8620   24.3699  -31.7364 H   0  0  0  0  0  0  0  0  0  0  0  0
   -6.2793   23.6106  -33.2683 H   0  0  0  0  0  0  0  0  0  0  0  0
   -8.8029   23.1476  -30.7654 H   0  0  0  0  0  0  0  0  0  0  0  0
   -4.2805   18.0386  -33.5419 H   0  0  0  0  0  0  0  0  0  0  0  0
   -5.4642   17.7062  -34.8514 H   0  0  0  0  0  0  0  0  0  0  0  0
   -4.5326   19.2420  -34.8514 H   0  0  0  0  0  0  0  0  0  0  0  0
   -9.3380   18.1618  -30.6507 H   0  0  0  0  0  0  0  0  0  0  0  0
  -10.2234   18.6525  -32.1345 H   0  0  0  0  0  0  0  0  0  0  0  0
   -9.2312   17.1551  -32.1345 H   0  0  0  0  0  0  0  0  0  0  0  0
  1  2  1  0
  2  3  1  0
  3  4  1  0
  4  5  1  0
  3  6  1  0
  6  7  1  0
  7  8  1  0
  8  9  1  0
  9 10  2  0
 10 11  1  0
 11 12  2  0
 12 13  1  0
 13 14  2  0
 13 15  1  0
 15 16  1  0
 15 17  1  0
 17 18  2  0
 17 19  1  0
 19 20  1  0
 12  8  1  0
 19 11  1  0
  1 21  1  0
  1 22  1  0
  1 23  1  0
  2 24  1  0
  2 25  1  0
  4 26  1  0
  4 27  1  0
  5 28  1  0
  5 29  1  0
  5 30  1  0
  6 31  1  0
  6 32  1  0
  7 33  1  0
  7 34  1  0
  9 35  1  0
 16 36  1  0
 16 37  1  0
 16 38  1  0
 20 39  1  0
 20 40  1  0
 20 41  1  0
M  END
>  <UniqueID>  (7) 
7

>  <SMILES>  (7) 
CCN(CC)CCn1cnc2c1c(=O)n(C)c(=O)n2C

>  <Energy>  (7) 
83.41644574715663

>  <Genealogy>  (7) 
CCN(CC)CCn1cnc2c1c(=O)n(C)c(=O)n2C (3D coordinates assigned)
CCN(CC)CCn1cnc2c1c(=O)n(C)c(=O)n2C (optimized conformer: 83.41644574715663 kcal/mol)

>  <smiles>  (7) 
CCN(CC)CCn1cnc2c1c(=O)n(C)c(=O)n2C

>  <score_type>  (7) 
oracle

>  <origin>  (7) 
adg

>  <m_score__min__energy>  (7) 
-6.8099999999999996

>  <m_primary>  (7) 
energy

$$$$
7:0
     RDKit          3D

 38 40  0  0  0  0  0  0  0  0999 V2000
   -7.5480   17.8270  -32.7100 C   0  0  0  0  0  0  0  0  0  0  0  0
   -7.8590   19.2560  -32.3770 C   0  0  0  0  0  0  0  0  0  0  0  0
   -9.1900   19.6700  -32.2390 C   0  0  0  0  0  0  0  0  0  0  0  0
   -9.4670   21.0080  -31.9640 C   0  0  0  0  0  0  0  0  0  0  0  0
   -8.4220   21.9220  -31.8410 C   0  0  0  0  0  0  0  0  0  0  0  0
   -7.0980   21.4890  -32.0070 C   0  0  0  0  0  0  0  0  0  0  0  0
   -6.0060   22.4190  -31.8710 N   0  0  0  0  0  0  0  0  0  0  0  0
   -6.2510   23.8680  -31.8340 C   0  0  0  0  0  0  0  0  0  0  0  0
   -5.6270   24.4660  -30.5680 C   0  0  0  0  0  0  0  0  0  0  0  0
   -4.2870   23.9110  -30.3140 N   0  0  0  0  0  0  0  0  0  0  0  0
   -3.5800   24.3180  -29.1270 C   0  0  0  0  0  0  0  0  0  0  0  0
   -4.1500   24.1610  -27.8510 C   0  0  0  0  0  0  0  0  0  0  0  0
   -3.4410   24.5870  -26.7250 C   0  0  0  0  0  0  0  0  0  0  0  0
   -2.1840   25.1720  -26.8750 C   0  0  0  0  0  0  0  0  0  0  0  0
   -1.6530   25.3300  -28.1560 C   0  0  0  0  0  0  0  0  0  0  0  0
   -2.3570   24.9080  -29.2410 N   0  0  0  0  0  0  0  0  0  0  0  0
   -3.6660   23.0300  -31.3150 C   0  0  0  0  0  0  0  0  0  0  0  0
   -4.6380   21.9070  -31.6950 C   0  0  0  0  0  0  0  0  0  0  0  0
   -6.8500   20.1700  -32.2690 N   0  0  0  0  0  0  0  0  0  0  0  0
   -7.4230   17.2527  -31.7802 H   0  0  0  0  0  0  0  0  0  0  0  0
   -8.3741   17.3992  -33.2970 H   0  0  0  0  0  0  0  0  0  0  0  0
   -6.6189   17.7811  -33.2970 H   0  0  0  0  0  0  0  0  0  0  0  0
  -10.0101   18.9449  -32.3468 H   0  0  0  0  0  0  0  0  0  0  0  0
  -10.5082   21.3419  -31.8443 H   0  0  0  0  0  0  0  0  0  0  0  0
   -8.6343   22.9774  -31.6149 H   0  0  0  0  0  0  0  0  0  0  0  0
   -5.8002   24.3377  -32.7206 H   0  0  0  0  0  0  0  0  0  0  0  0
   -7.3352   24.0538  -31.8281 H   0  0  0  0  0  0  0  0  0  0  0  0
   -5.5453   25.5561  -30.6902 H   0  0  0  0  0  0  0  0  0  0  0  0
   -6.2724   24.2155  -29.7132 H   0  0  0  0  0  0  0  0  0  0  0  0
   -5.1456   23.7066  -27.7404 H   0  0  0  0  0  0  0  0  0  0  0  0
   -3.8737   24.4611  -25.7215 H   0  0  0  0  0  0  0  0  0  0  0  0
   -1.6171   25.5053  -25.9932 H   0  0  0  0  0  0  0  0  0  0  0  0
   -0.6653   25.7957  -28.2884 H   0  0  0  0  0  0  0  0  0  0  0  0
   -3.4165   23.6158  -32.2120 H   0  0  0  0  0  0  0  0  0  0  0  0
   -2.7507   22.5898  -30.8925 H   0  0  0  0  0  0  0  0  0  0  0  0
   -4.3037   21.4475  -32.6369 H   0  0  0  0  0  0  0  0  0  0  0  0
   -4.6471   21.1665  -30.8817 H   0  0  0  0  0  0  0  0  0  0  0  0
   -5.8640   19.8540  -32.4110 H   0  0  0  0  0  0  0  0  0  0  0  0
  1  2  1  0
  2  3  2  0
  3  4  1  0
  4  5  2  0
  5  6  1  0
  6  7  1  0
  7  8  1  0
  8  9  1  0
  9 10  1  0
 10 11  1  0
 11 12  2  0
 12 13  1  0
 13 14  2  0
 14 15  1  0
 15 16  2  0
 10 17  1  0
 17 18  1  0
  6 19  2  0
 19  2  1  0
 18  7  1  0
 16 11  1  0
  1 20  1  0
  1 21  1  0
  1 22  1  0
  3 23  1  0
  4 24  1  0
  5 25  1  0
  8 26  1  0
  8 27  1  0
  9 28  1  0
  9 29  1  0
 12 30  1  0
 13 31  1  0
 14 32  1  0
 15 33  1  0
 17 34  1  0
 17 35  1  0
 18 36  1  0
 18 37  1  0
 19 38  1  0
M  CHG  1  19   1
M  END
>  <UniqueID>  (8) 
8

>  <SMILES>  (8) 
Cc1cccc(N2CCN(c3ccccn3)CC2)[nH+]1

>  <Energy>  (8) 
47.172166130428636

>  <Genealogy>  (8) 
Cc1cccc(N2CCN(c3ccccn3)CC2)[nH+]1 (protonated)
Cc1cccc(N2CCN(c3ccccn3)CC2)[nH+]1 (3D coordinates assigned)
Cc1cccc(N2CCN(c3ccccn3)CC2)[nH+]1 (nonaromatic ring conformer: 47.172166130428636 kcal/mol)

>  <smiles>  (8) 
Cc1cccc(N2CCN(c3ccccn3)CC2)n1

>  <score_type>  (8) 
oracle

>  <origin>  (8) 
adg

>  <m_score__min__energy>  (8) 
-6.6500000000000004

>  <m_primary>  (8) 
energy

$$$$
8:0
     RDKit          3D

 49 51  0  0  0  0  0  0  0  0999 V2000
   -1.1790   26.9430  -25.1150 C   0  0  0  0  0  0  0  0  0  0  0  0
   -0.8000   25.9380  -24.0290 C   0  0  0  0  0  0  0  0  0  0  0  0
    0.2730   25.0430  -24.4950 N   0  0  0  0  0  0  0  0  0  0  0  0
   -0.2530   23.7930  -25.0760 C   0  0  0  0  0  0  0  0  0  0  0  0
    0.0480   23.6620  -26.5820 C   0  0  1  0  0  0  0  0  0  0  0  0
   -1.0430   22.8310  -27.3190 C   0  0  0  0  0  0  0  0  0  0  0  0
   -1.6680   23.7570  -28.2590 N   0  0  0  0  0  0  0  0  0  0  0  0
   -2.8200   23.4720  -29.0770 C   0  0  0  0  0  0  0  0  0  0  0  0
   -3.2260   22.1430  -29.2870 C   0  0  0  0  0  0  0  0  0  0  0  0
   -4.3470   21.8580  -30.0700 C   0  0  0  0  0  0  0  0  0  0  0  0
   -5.0910   22.8950  -30.6480 C   0  0  0  0  0  0  0  0  0  0  0  0
   -6.2480   22.5930  -31.4460 N   0  0  0  0  0  0  0  0  0  0  0  0
   -6.2330   21.3900  -32.2960 C   0  0  0  0  0  0  0  0  0  0  0  0
   -7.1540   20.2640  -31.7680 C   0  0  0  0  0  0  0  0  0  0  0  0
   -8.6520   20.4520  -32.0790 C   0  0  0  0  0  0  0  0  0  0  0  0
   -9.2340   21.6110  -31.5020 O   0  0  0  0  0  0  0  0  0  0  0  0
   -8.6970   22.8320  -31.9850 C   0  0  0  0  0  0  0  0  0  0  0  0
   -7.4810   23.3600  -31.1950 C   0  0  0  0  0  0  0  0  0  0  0  0
   -4.6980   24.2260  -30.4340 C   0  0  0  0  0  0  0  0  0  0  0  0
   -5.3890   25.2470  -30.9980 F   0  0  0  0  0  0  0  0  0  0  0  0
   -3.5750   24.5100  -29.6520 C   0  0  0  0  0  0  0  0  0  0  0  0
   -0.9620   24.9810  -28.1620 C   0  0  0  0  0  0  0  0  0  0  0  0
   -1.1610   25.9770  -28.9040 O   0  0  0  0  0  0  0  0  0  0  0  0
    0.0250   24.9430  -27.2050 O   0  0  0  0  0  0  0  0  0  0  0  0
   -1.5302   27.8742  -24.6464 H   0  0  0  0  0  0  0  0  0  0  0  0
   -0.2995   27.1562  -25.7403 H   0  0  0  0  0  0  0  0  0  0  0  0
   -1.9803   26.5224  -25.7403 H   0  0  0  0  0  0  0  0  0  0  0  0
   -0.4535   26.4830  -23.1385 H   0  0  0  0  0  0  0  0  0  0  0  0
   -1.6847   25.3309  -23.7867 H   0  0  0  0  0  0  0  0  0  0  0  0
    0.8180   25.5360  -25.2420 H   0  0  0  0  0  0  0  0  0  0  0  0
    0.9270   24.8300  -23.7060 H   0  0  0  0  0  0  0  0  0  0  0  0
    0.2042   22.9415  -24.5507 H   0  0  0  0  0  0  0  0  0  0  0  0
   -1.3464   23.8064  -24.9565 H   0  0  0  0  0  0  0  0  0  0  0  0
    1.0322   23.1760  -26.6536 H   0  0  0  0  0  0  0  0  0  0  0  0
   -0.5860   21.9871  -27.8566 H   0  0  0  0  0  0  0  0  0  0  0  0
   -1.7752   22.4045  -26.6176 H   0  0  0  0  0  0  0  0  0  0  0  0
   -2.6560   21.3202  -28.8308 H   0  0  0  0  0  0  0  0  0  0  0  0
   -4.6476   20.8127  -30.2339 H   0  0  0  0  0  0  0  0  0  0  0  0
   -6.5663   21.6705  -33.3061 H   0  0  0  0  0  0  0  0  0  0  0  0
   -5.2043   21.0003  -32.2960 H   0  0  0  0  0  0  0  0  0  0  0  0
   -6.8276   19.3156  -32.2196 H   0  0  0  0  0  0  0  0  0  0  0  0
   -7.0621   20.2786  -30.6719 H   0  0  0  0  0  0  0  0  0  0  0  0
   -8.7705   20.5157  -33.1707 H   0  0  0  0  0  0  0  0  0  0  0  0
   -9.1728   19.5891  -31.6383 H   0  0  0  0  0  0  0  0  0  0  0  0
   -8.3872   22.6804  -33.0295 H   0  0  0  0  0  0  0  0  0  0  0  0
   -9.4905   23.5856  -31.8734 H   0  0  0  0  0  0  0  0  0  0  0  0
   -7.3057   24.4073  -31.4819 H   0  0  0  0  0  0  0  0  0  0  0  0
   -7.7170   23.2585  -30.1254 H   0  0  0  0  0  0  0  0  0  0  0  0
   -3.2786   25.5560  -29.4845 H   0  0  0  0  0  0  0  0  0  0  0  0
  1  2  1  0
  2  3  1  0
  3  4  1  0
  4  5  1  0
  5  6  1  0
  6  7  1  0
  7  8  1  0
  8  9  2  0
  9 10  1  0
 10 11  2  0
 11 12  1  0
 12 13  1  0
 13 14  1  0
 14 15  1  0
 15 16  1  0
 16 17  1  0
 17 18  1  0
 11 19  1  0
 19 20  1  0
 19 21  2  0
  7 22  1  0
 22 23  2  0
 22 24  1  0
 24  5  1  0
 21  8  1  0
 18 12  1  0
  1 25  1  0
  1 26  1  0
  1 27  1  0
  2 28  1  0
  2 29  1  0
  3 30  1  0
  3 31  1  0
  4 32  1  0
  4 33  1  0
  5 34  1  1
  6 35  1  0
  6 36  1  0
  9 37  1  0
 10 38  1  0
 13 39  1  0
 13 40  1  0
 14 41  1  0
 14 42  1  0
 15 43  1  0
 15 44  1  0
 17 45  1  0
 17 46  1  0
 18 47  1  0
 18 48  1  0
 21 49  1  0
M  CHG  1   3   1
M  END
>  <UniqueID>  (9) 
9

>  <SMILES>  (9) 
CC[NH2+]C[C@H]1CN(c2ccc(N3CCCOCC3)c(F)c2)C(=O)O1

>  <Energy>  (9) 
83.89766112936944

>  <Genealogy>  (9) 
CC[NH2+]CC1CN(c2ccc(N3CCCOCC3)c(F)c2)C(=O)O1 (protonated)
CC[NH2+]C[C@H]1CN(c2ccc(N3CCCOCC3)c(F)c2)C(=O)O1 (chirality)
CC[NH2+]C[C@H]1CN(c2ccc(N3CCCOCC3)c(F)c2)C(=O)O1 (3D coordinates assigned)
CC[NH2+]C[C@H]1CN(c2ccc(N3CCCOCC3)c(F)c2)C(=O)O1 (nonaromatic ring conformer: 83.89766112936944 kcal/mol)

>  <smiles>  (9) 
CCNCC1CN(c2ccc(N3CCCOCC3)c(F)c2)C(=O)O1

>  <score_type>  (9) 
oracle

>  <origin>  (9) 
adg

>  <m_score__min__energy>  (9) 
-5.0499999999999998

>  <m_primary>  (9) 
energy

$$$$
9:0
     RDKit          3D

 52 56  0  0  0  0  0  0  0  0999 V2000
    1.6720   15.1990  -33.3830 C   0  0  0  0  0  0  0  0  0  0  0  0
    1.1670   16.5070  -33.6270 O   0  0  0  0  0  0  0  0  0  0  0  0
   -0.1970   16.8320  -33.6800 C   0  0  0  0  0  0  0  0  0  0  0  0
   -1.0650   16.2070  -32.7780 C   0  0  0  0  0  0  0  0  0  0  0  0
   -2.4340   16.4940  -32.7930 C   0  0  0  0  0  0  0  0  0  0  0  0
   -2.9530   17.4010  -33.7270 C   0  0  0  0  0  0  0  0  0  0  0  0
   -4.3900   17.7280  -33.7220 C   0  0  0  0  0  0  0  0  0  0  0  0
   -5.3120   16.8090  -34.2240 C   0  0  0  0  0  0  0  0  0  0  0  0
   -6.8630   17.3280  -33.8490 S   0  0  0  0  0  0  0  0  0  0  0  0
   -6.3860   18.7370  -33.0630 C   0  0  0  0  0  0  0  0  0  0  0  0
   -5.0040   18.8500  -33.0940 C   0  0  0  0  0  0  0  0  0  0  0  0
   -4.4030   20.0190  -32.5600 C   0  0  0  0  0  0  0  0  0  0  0  0
   -2.9300   20.3050  -32.7880 C   0  0  0  0  0  0  0  0  0  0  0  0
   -5.1910   20.9260  -31.8710 N   0  0  0  0  0  0  0  0  0  0  0  0
   -4.5610   22.0450  -31.2120 C   0  0  0  0  0  0  0  0  0  0  0  0
   -3.5290   21.8310  -30.2880 C   0  0  0  0  0  0  0  0  0  0  0  0
   -2.9280   22.9160  -29.6440 C   0  0  0  0  0  0  0  0  0  0  0  0
   -3.3500   24.2250  -29.9100 C   0  0  0  0  0  0  0  0  0  0  0  0
   -2.7150   25.2790  -29.2380 O   0  0  0  0  0  0  0  0  0  0  0  0
   -1.9560   25.1290  -28.0430 C   0  0  0  0  0  0  0  0  0  0  0  0
   -4.3900   24.4360  -30.8370 C   0  0  0  0  0  0  0  0  0  0  0  0
   -4.9900   23.3510  -31.4820 C   0  0  0  0  0  0  0  0  0  0  0  0
   -6.5670   20.7740  -31.7940 C   0  0  0  0  0  0  0  0  0  0  0  0
   -7.3850   21.6960  -31.0930 C   0  0  0  0  0  0  0  0  0  0  0  0
   -8.7710   21.5360  -31.0510 C   0  0  0  0  0  0  0  0  0  0  0  0
   -9.3760   20.4600  -31.6960 C   0  0  0  0  0  0  0  0  0  0  0  0
   -8.5960   19.5280  -32.3800 C   0  0  0  0  0  0  0  0  0  0  0  0
   -7.1970   19.6740  -32.4280 C   0  0  0  0  0  0  0  0  0  0  0  0
   -2.0850   18.0500  -34.6170 C   0  0  0  0  0  0  0  0  0  0  0  0
   -0.7170   17.7620  -34.6020 C   0  0  0  0  0  0  0  0  0  0  0  0
    1.7381   15.0279  -32.2984 H   0  0  0  0  0  0  0  0  0  0  0  0
    0.9963   14.4556  -33.8310 H   0  0  0  0  0  0  0  0  0  0  0  0
    2.6720   15.1026  -33.8310 H   0  0  0  0  0  0  0  0  0  0  0  0
   -0.6674   15.4837  -32.0508 H   0  0  0  0  0  0  0  0  0  0  0  0
   -3.1048   16.0067  -32.0701 H   0  0  0  0  0  0  0  0  0  0  0  0
   -5.0622   15.8914  -34.7769 H   0  0  0  0  0  0  0  0  0  0  0  0
   -2.4212   20.4038  -31.8178 H   0  0  0  0  0  0  0  0  0  0  0  0
   -2.4794   19.4776  -33.3557 H   0  0  0  0  0  0  0  0  0  0  0  0
   -2.8218   21.2409  -33.3557 H   0  0  0  0  0  0  0  0  0  0  0  0
   -3.1915   20.8071  -30.0693 H   0  0  0  0  0  0  0  0  0  0  0  0
   -2.1167   22.7406  -28.9221 H   0  0  0  0  0  0  0  0  0  0  0  0
   -2.6146   25.2591  -27.1716 H   0  0  0  0  0  0  0  0  0  0  0  0
   -1.5076   24.1249  -28.0170 H   0  0  0  0  0  0  0  0  0  0  0  0
   -1.1594   25.8871  -28.0170 H   0  0  0  0  0  0  0  0  0  0  0  0
   -4.7311   25.4590  -31.0539 H   0  0  0  0  0  0  0  0  0  0  0  0
   -5.8018   23.5231  -32.2041 H   0  0  0  0  0  0  0  0  0  0  0  0
   -6.9212   22.5486  -30.5754 H   0  0  0  0  0  0  0  0  0  0  0  0
   -9.3891   22.2641  -30.5052 H   0  0  0  0  0  0  0  0  0  0  0  0
  -10.4696   20.3453  -31.6659 H   0  0  0  0  0  0  0  0  0  0  0  0
   -9.0758   18.6759  -32.8837 H   0  0  0  0  0  0  0  0  0  0  0  0
   -2.4819   18.7882  -35.3294 H   0  0  0  0  0  0  0  0  0  0  0  0
   -0.0438   18.2635  -35.3129 H   0  0  0  0  0  0  0  0  0  0  0  0
  1  2  1  0
  2  3  1  0
  3  4  2  0
  4  5  1  0
  5  6  2  0
  6  7  1  0
  7  8  2  0
  8  9  1  0
  9 10  1  0
 10 11  2  0
 11 12  1  0
 12 13  1  0
 12 14  2  0
 14 15  1  0
 15 16  2  0
 16 17  1  0
 17 18  2  0
 18 19  1  0
 19 20  1  0
 18 21  1  0
 21 22  2  0
 14 23  1  0
 23 24  2  0
 24 25  1  0
 25 26  2  0
 26 27  1  0
 27 28  2  0
  6 29  1  0
 29 30  2  0
 30  3  1  0
 11  7  1  0
 22 15  1  0
 28 23  1  0
 28 10  1  0
  1 31  1  0
  1 32  1  0
  1 33  1  0
  4 34  1  0
  5 35  1  0
  8 36  1  0
 13 37  1  0
 13 38  1  0
 13 39  1  0
 16 40  1  0
 17 41  1  0
 20 42  1  0
 20 43  1  0
 20 44  1  0
 21 45  1  0
 22 46  1  0
 24 47  1  0
 25 48  1  0
 26 49  1  0
 27 50  1  0
 29 51  1  0
 30 52  1  0
M  CHG  1  14   1
M  END
>  <UniqueID>  (10) 
10

>  <SMILES>  (10) 
COc1ccc(-c2csc3c2c(C)[n+](-c2ccc(OC)cc2)c2ccccc32)cc1

>  <Energy>  (10) 
116.66442749872103

>  <Genealogy>  (10) 
COc1ccc(-c2csc3c2c(C)[n+](-c2ccc(OC)cc2)c2ccccc32)cc1 (3D coordinates assigned)
COc1ccc(-c2csc3c2c(C)[n+](-c2ccc(OC)cc2)c2ccccc32)cc1 (optimized conformer: 116.66442749872103 kcal/mol)

>  <smiles>  (10) 
COc1ccc(-c2csc3c2c(C)[n+](-c2ccc(OC)cc2)c2ccccc32)cc1

>  <score_type>  (10) 
oracle

>  <origin>  (10) 
adg

>  <m_score__min__energy>  (10) 
-8.3499999999999996

>  <m_primary>  (10) 
energy

$$$$
10:0
     RDKit          3D

 46 47  0  0  0  0  0  0  0  0999 V2000
   -6.6760   24.9620  -30.1020 C   0  0  0  0  0  0  0  0  0  0  0  0
   -5.3480   25.6230  -30.4650 C   0  0  0  0  0  0  0  0  0  0  0  0
   -4.2820   24.6300  -30.7450 N   0  0  0  0  0  0  0  0  0  0  0  0
   -3.3600   24.5510  -29.5870 C   0  0  0  0  0  0  0  0  0  0  0  0
   -4.0020   23.7950  -28.4240 C   0  0  0  0  0  0  0  0  0  0  0  0
   -4.8400   23.2890  -31.0710 C   0  0  0  0  0  0  0  0  0  0  0  0
   -3.8700   22.4640  -31.9320 C   0  0  0  0  0  0  0  0  0  0  0  0
   -4.5330   21.9230  -33.1170 N   0  0  0  0  0  0  0  0  0  0  0  0
   -5.1450   20.6210  -33.1240 C   0  0  0  0  0  0  0  0  0  0  0  0
   -4.4090   19.5170  -33.5510 C   0  0  0  0  0  0  0  0  0  0  0  0
   -5.0000   18.2600  -33.6020 C   0  0  0  0  0  0  0  0  0  0  0  0
   -6.3030   18.0690  -33.2310 N   0  0  0  0  0  0  0  0  0  0  0  0
   -6.8310   16.6930  -33.3220 C   0  0  0  0  0  0  0  0  0  0  0  0
   -5.7680   15.7420  -33.8660 C   0  0  0  0  0  0  0  0  0  0  0  0
   -7.0710   19.1430  -32.8190 C   0  0  0  0  0  0  0  0  0  0  0  0
   -8.4350   18.9970  -32.4600 C   0  0  0  0  0  0  0  0  0  0  0  0
   -9.1810   20.0880  -32.0140 C   0  0  0  0  0  0  0  0  0  0  0  0
   -8.5930   21.3440  -31.9100 C   0  0  0  0  0  0  0  0  0  0  0  0
   -7.2600   21.5240  -32.2700 C   0  0  0  0  0  0  0  0  0  0  0  0
   -6.4910   20.4430  -32.7440 C   0  0  0  0  0  0  0  0  0  0  0  0
   -6.7742   24.9131  -29.0075 H   0  0  0  0  0  0  0  0  0  0  0  0
   -7.5054   25.5524  -30.5185 H   0  0  0  0  0  0  0  0  0  0  0  0
   -6.7050   23.9443  -30.5185 H   0  0  0  0  0  0  0  0  0  0  0  0
   -5.4957   26.2451  -31.3601 H   0  0  0  0  0  0  0  0  0  0  0  0
   -5.0268   26.2273  -29.6038 H   0  0  0  0  0  0  0  0  0  0  0  0
   -2.4424   24.0273  -29.8932 H   0  0  0  0  0  0  0  0  0  0  0  0
   -3.1283   25.5735  -29.2541 H   0  0  0  0  0  0  0  0  0  0  0  0
   -3.6452   24.2151  -27.4721 H   0  0  0  0  0  0  0  0  0  0  0  0
   -5.0960   23.8943  -28.4815 H   0  0  0  0  0  0  0  0  0  0  0  0
   -3.7268   22.7315  -28.4815 H   0  0  0  0  0  0  0  0  0  0  0  0
   -5.0348   22.7465  -30.1341 H   0  0  0  0  0  0  0  0  0  0  0  0
   -5.7684   23.4335  -31.6430 H   0  0  0  0  0  0  0  0  0  0  0  0
   -3.0381   23.1091  -32.2511 H   0  0  0  0  0  0  0  0  0  0  0  0
   -3.5027   21.6217  -31.3273 H   0  0  0  0  0  0  0  0  0  0  0  0
   -4.4490   22.4430  -34.0200 H   0  0  0  0  0  0  0  0  0  0  0  0
   -3.3573   19.6409  -33.8485 H   0  0  0  0  0  0  0  0  0  0  0  0
   -4.4074   17.4003  -33.9481 H   0  0  0  0  0  0  0  0  0  0  0  0
   -7.1376   16.3569  -32.3205 H   0  0  0  0  0  0  0  0  0  0  0  0
   -7.6923   16.6893  -34.0062 H   0  0  0  0  0  0  0  0  0  0  0  0
   -5.2372   15.2672  -33.0277 H   0  0  0  0  0  0  0  0  0  0  0  0
   -6.2492   14.9674  -34.4812 H   0  0  0  0  0  0  0  0  0  0  0  0
   -5.0515   16.3061  -34.4812 H   0  0  0  0  0  0  0  0  0  0  0  0
   -8.9120   18.0086  -32.5343 H   0  0  0  0  0  0  0  0  0  0  0  0
  -10.2388   19.9544  -31.7434 H   0  0  0  0  0  0  0  0  0  0  0  0
   -9.1822   22.1971  -31.5425 H   0  0  0  0  0  0  0  0  0  0  0  0
   -6.8027   22.5207  -32.1834 H   0  0  0  0  0  0  0  0  0  0  0  0
  1  2  1  0
  2  3  1  0
  3  4  1  0
  4  5  1  0
  3  6  1  0
  6  7  1  0
  7  8  1  0
  8  9  1  0
  9 10  2  0
 10 11  1  0
 11 12  2  0
 12 13  1  0
 13 14  1  0
 12 15  1  0
 15 16  2  0
 16 17  1  0
 17 18  2  0
 18 19  1  0
 19 20  2  0
 20  9  1  0
 20 15  1  0
  1 21  1  0
  1 22  1  0
  1 23  1  0
  2 24  1  0
  2 25  1  0
  4 26  1  0
  4 27  1  0
  5 28  1  0
  5 29  1  0
  5 30  1  0
  6 31  1  0
  6 32  1  0
  7 33  1  0
  7 34  1  0
  8 35  1  0
 10 36  1  0
 11 37  1  0
 13 38  1  0
 13 39  1  0
 14 40  1  0
 14 41  1  0
 14 42  1  0
 16 43  1  0
 17 44  1  0
 18 45  1  0
 19 46  1  0
M  CHG  1  12   1
M  END
>  <UniqueID>  (11) 
11

>  <SMILES>  (11) 
CCN(CC)CCNc1cc[n+](CC)c2ccccc12

>  <Energy>  (11) 
53.8124416062972

>  <Genealogy>  (11) 
CCN(CC)CCNc1cc[n+](CC)c2ccccc12 (3D coordinates assigned)
CCN(CC)CCNc1cc[n+](CC)c2ccccc12 (optimized conformer: 53.8124416062972 kcal/mol)

>  <smiles>  (11) 
CCN(CC)CCNc1cc[n+](CC)c2ccccc12

>  <score_type>  (11) 
oracle

>  <origin>  (11) 
adg

>  <m_score__min__energy>  (11) 
-7.3399999999999999

>  <m_primary>  (11) 
energy

$$$$
11:0
     RDKit          3D

 33 35  0  0  0  0  0  0  0  0999 V2000
   -1.4830   20.6660  -33.8250 C   0  0  0  0  0  0  0  0  0  0  0  0
   -2.4000   19.4480  -33.8460 C   0  0  0  0  0  0  0  0  0  0  0  0
   -3.7280   19.7830  -33.3340 N   0  0  0  0  0  0  0  0  0  0  0  0
   -4.8760   18.9810  -33.6530 C   0  0  0  0  0  0  0  0  0  0  0  0
   -4.7900   18.0960  -34.5470 O   0  0  0  0  0  0  0  0  0  0  0  0
   -6.1730   19.2040  -32.9720 C   0  0  0  0  0  0  0  0  0  0  0  0
   -7.1580   18.2050  -33.0440 C   0  0  0  0  0  0  0  0  0  0  0  0
   -8.3980   18.3820  -32.4300 C   0  0  0  0  0  0  0  0  0  0  0  0
   -8.6720   19.5510  -31.7220 C   0  0  0  0  0  0  0  0  0  0  0  0
   -7.6980   20.5600  -31.6100 C   0  0  0  0  0  0  0  0  0  0  0  0
   -7.9400   21.7410  -30.8780 C   0  0  0  0  0  0  0  0  0  0  0  0
   -9.0590   21.9230  -30.3200 O   0  0  0  0  0  0  0  0  0  0  0  0
   -6.9300   22.7130  -30.7680 C   0  0  0  0  0  0  0  0  0  0  0  0
   -7.1220   23.9090  -30.0480 C   0  0  0  0  0  0  0  0  0  0  0  0
   -6.0910   24.8490  -29.9570 C   0  0  0  0  0  0  0  0  0  0  0  0
   -4.8630   24.6090  -30.5800 C   0  0  0  0  0  0  0  0  0  0  0  0
   -3.8670   25.5250  -30.4880 F   0  0  0  0  0  0  0  0  0  0  0  0
   -4.6590   23.4270  -31.2960 C   0  0  0  0  0  0  0  0  0  0  0  0
   -5.6850   22.4800  -31.3940 C   0  0  0  0  0  0  0  0  0  0  0  0
   -5.4790   21.3360  -32.0950 N   0  0  0  0  0  0  0  0  0  0  0  0
   -6.4380   20.3810  -32.2350 C   0  0  0  0  0  0  0  0  0  0  0  0
   -1.2711   20.9475  -32.7830 H   0  0  0  0  0  0  0  0  0  0  0  0
   -0.5407   20.4244  -34.3384 H   0  0  0  0  0  0  0  0  0  0  0  0
   -1.9757   21.5048  -34.3384 H   0  0  0  0  0  0  0  0  0  0  0  0
   -2.4941   19.0863  -34.8806 H   0  0  0  0  0  0  0  0  0  0  0  0
   -1.9630   18.6692  -33.2037 H   0  0  0  0  0  0  0  0  0  0  0  0
   -3.8550   20.6390  -32.7480 H   0  0  0  0  0  0  0  0  0  0  0  0
   -6.9493   17.2733  -33.5903 H   0  0  0  0  0  0  0  0  0  0  0  0
   -9.1632   17.5953  -32.5049 H   0  0  0  0  0  0  0  0  0  0  0  0
   -9.6555   19.6854  -31.2481 H   0  0  0  0  0  0  0  0  0  0  0  0
   -8.0863   24.1037  -29.5559 H   0  0  0  0  0  0  0  0  0  0  0  0
   -6.2468   25.7806  -29.3932 H   0  0  0  0  0  0  0  0  0  0  0  0
   -3.6907   23.2402  -31.7834 H   0  0  0  0  0  0  0  0  0  0  0  0
  1  2  1  0
  2  3  1  0
  3  4  1  0
  4  5  2  0
  4  6  1  0
  6  7  2  0
  7  8  1  0
  8  9  2  0
  9 10  1  0
 10 11  1  0
 11 12  2  0
 11 13  1  0
 13 14  2  0
 14 15  1  0
 15 16  2  0
 16 17  1  0
 16 18  1  0
 18 19  2  0
 19 20  1  0
 20 21  1  0
 21  6  1  0
 21 10  2  0
 19 13  1  0
  1 22  1  0
  1 23  1  0
  1 24  1  0
  2 25  1  0
  2 26  1  0
  3 27  1  0
  7 28  1  0
  8 29  1  0
  9 30  1  0
 14 31  1  0
 15 32  1  0
 18 33  1  0
M  CHG  1  20  -1
M  END
>  <UniqueID>  (12) 
12

>  <SMILES>  (12) 
CCNC(=O)c1cccc2c(=O)c3ccc(F)cc3[n-]c12

>  <Energy>  (12) 
43.60499253347683

>  <Genealogy>  (12) 
CCNC(=O)c1cccc2c(=O)c3ccc(F)cc3[n-]c12 (protonated)
CCNC(=O)c1cccc2c(=O)c3ccc(F)cc3[n-]c12 (3D coordinates assigned)
CCNC(=O)c1cccc2c(=O)c3ccc(F)cc3[n-]c12 (optimized conformer: 43.60499253347683 kcal/mol)

>  <smiles>  (12) 
CCNC(=O)c1cccc2c(=O)c3ccc(F)cc3[nH]c12

>  <score_type>  (12) 
oracle

>  <origin>  (12) 
adg

>  <m_score__min__energy>  (12) 
-7.71

>  <m_primary>  (12) 
energy

$$$$
12:0
     RDKit          3D

 47 49  0  0  0  0  0  0  0  0999 V2000
   -2.3520   19.9450  -26.2420 C   0  0  0  0  0  0  0  0  0  0  0  0
   -0.9470   20.0460  -26.8870 C   0  0  1  0  0  0  0  0  0  0  0  0
   -0.8550   19.3420  -28.2730 C   0  0  1  0  0  0  0  0  0  0  0  0
   -1.9450   19.9680  -29.1940 C   0  0  0  0  0  0  0  0  0  0  0  0
   -1.9260   21.4800  -29.1880 C   0  0  0  0  0  0  0  0  0  0  0  0
   -2.6320   22.1540  -30.1980 C   0  0  0  0  0  0  0  0  0  0  0  0
   -2.6540   23.5460  -30.2400 C   0  0  0  0  0  0  0  0  0  0  0  0
   -1.9680   24.2840  -29.2770 C   0  0  0  0  0  0  0  0  0  0  0  0
   -1.9720   25.6730  -29.3350 O   0  0  0  0  0  0  0  0  0  0  0  0
   -1.2740   23.6310  -28.2560 C   0  0  0  0  0  0  0  0  0  0  0  0
   -1.2700   22.2210  -28.1660 C   0  0  0  0  0  0  0  0  0  0  0  0
   -0.4410   21.5080  -27.0760 C   0  0  1  0  0  0  0  0  0  0  0  0
   -0.5320   22.2580  -25.7200 C   0  0  0  0  0  0  0  0  0  0  0  0
    1.0530   21.4670  -27.5420 C   0  0  0  0  0  0  0  0  0  0  0  0
    1.5410   20.0590  -27.9600 C   0  0  0  0  0  0  0  0  0  0  0  0
    0.5760   19.3090  -28.8410 N   0  0  2  0  0  0  0  0  0  0  0  0
    0.7050   19.9550  -30.1890 C   0  0  0  0  0  0  0  0  0  0  0  0
    1.0770   17.8790  -28.9790 C   0  0  0  0  0  0  0  0  0  0  0  0
    0.7650   16.9580  -27.7630 C   0  0  0  0  0  0  0  0  0  0  0  0
    0.6240   17.1750  -30.2890 C   0  0  0  0  0  0  0  0  0  0  0  0
   -2.2539   19.9521  -25.1464 H   0  0  0  0  0  0  0  0  0  0  0  0
   -2.9642   20.8015  -26.5608 H   0  0  0  0  0  0  0  0  0  0  0  0
   -2.8355   19.0098  -26.5608 H   0  0  0  0  0  0  0  0  0  0  0  0
   -0.3055   19.5300  -26.1574 H   0  0  0  0  0  0  0  0  0  0  0  0
   -1.0752   18.2680  -28.1829 H   0  0  0  0  0  0  0  0  0  0  0  0
   -2.9327   19.6284  -28.8490 H   0  0  0  0  0  0  0  0  0  0  0  0
   -1.7345   19.6403  -30.2227 H   0  0  0  0  0  0  0  0  0  0  0  0
   -3.1725   21.5771  -30.9629 H   0  0  0  0  0  0  0  0  0  0  0  0
   -3.2131   24.0632  -31.0337 H   0  0  0  0  0  0  0  0  0  0  0  0
   -0.7224   24.2231  -27.5110 H   0  0  0  0  0  0  0  0  0  0  0  0
   -0.4444   21.5358  -24.8949 H   0  0  0  0  0  0  0  0  0  0  0  0
    0.2835   22.9930  -25.6521 H   0  0  0  0  0  0  0  0  0  0  0  0
   -1.4997   22.7767  -25.6521 H   0  0  0  0  0  0  0  0  0  0  0  0
    1.6841   21.8204  -26.7133 H   0  0  0  0  0  0  0  0  0  0  0  0
    1.1274   22.1082  -28.4327 H   0  0  0  0  0  0  0  0  0  0  0  0
    1.7080   19.4667  -27.0483 H   0  0  0  0  0  0  0  0  0  0  0  0
    2.4596   20.2036  -28.5475 H   0  0  0  0  0  0  0  0  0  0  0  0
    0.9190   21.0266  -30.0631 H   0  0  0  0  0  0  0  0  0  0  0  0
    1.5260   19.4801  -30.7461 H   0  0  0  0  0  0  0  0  0  0  0  0
   -0.2355   19.8319  -30.7461 H   0  0  0  0  0  0  0  0  0  0  0  0
    2.1675   18.0178  -29.0176 H   0  0  0  0  0  0  0  0  0  0  0  0
    0.9514   17.5082  -26.8289 H   0  0  0  0  0  0  0  0  0  0  0  0
   -0.2891   16.6457  -27.8005 H   0  0  0  0  0  0  0  0  0  0  0  0
    1.4122   16.0694  -27.8005 H   0  0  0  0  0  0  0  0  0  0  0  0
    0.0443   16.2741  -30.0395 H   0  0  0  0  0  0  0  0  0  0  0  0
   -0.0017   17.8624  -30.8772 H   0  0  0  0  0  0  0  0  0  0  0  0
    1.5089   16.8904  -30.8772 H   0  0  0  0  0  0  0  0  0  0  0  0
  1  2  1  0
  2  3  1  0
  3  4  1  0
  4  5  1  0
  5  6  2  0
  6  7  1  0
  7  8  2  0
  8  9  1  0
  8 10  1  0
 10 11  2  0
 11 12  1  0
 12 13  1  1
 12 14  1  0
 14 15  1  0
 15 16  1  0
 16 17  1  6
 16 18  1  0
 18 19  1  0
 18 20  1  0
 12  2  1  0
 16  3  1  0
 11  5  1  0
  1 21  1  0
  1 22  1  0
  1 23  1  0
  2 24  1  1
  3 25  1  1
  4 26  1  0
  4 27  1  0
  6 28  1  0
  7 29  1  0
 10 30  1  0
 13 31  1  0
 13 32  1  0
 13 33  1  0
 14 34  1  0
 14 35  1  0
 15 36  1  0
 15 37  1  0
 17 38  1  0
 17 39  1  0
 17 40  1  0
 18 41  1  0
 19 42  1  0
 19 43  1  0
 19 44  1  0
 20 45  1  0
 20 46  1  0
 20 47  1  0
M  CHG  2   9  -1  16   1
M  END
>  <UniqueID>  (13) 
13

>  <SMILES>  (13) 
CC(C)[N+]1(C)CCC2(C)c3cc([O-])ccc3C[C@@H]1[C@@H]2C

>  <Energy>  (13) 
95.6743851866325

>  <Genealogy>  (13) 
CC1C2Cc3ccc([O-])cc3C1(C)CC[N+]2(C)C(C)C (protonated)
CC(C)[N+]1(C)CCC2(C)c3cc([O-])ccc3C[C@@H]1[C@@H]2C (chirality)
CC(C)[N+]1(C)CCC2(C)c3cc([O-])ccc3C[C@@H]1[C@@H]2C (3D coordinates assigned)
CC(C)[N+]1(C)CCC2(C)c3cc([O-])ccc3C[C@@H]1[C@@H]2C (nonaromatic ring conformer: 95.6743851866325 kcal/mol)

>  <smiles>  (13) 
CC1C2Cc3ccc(O)cc3C1(C)CC[N+]2(C)C(C)C

>  <score_type>  (13) 
oracle

>  <origin>  (13) 
adg

>  <m_score__min__energy>  (13) 
-8.1400000000000006

>  <m_primary>  (13) 
energy

$$$$
13:0
     RDKit          3D

 28 29  0  0  0  0  0  0  0  0999 V2000
   -5.6810   25.6530  -30.3830 C   0  0  0  0  0  0  0  0  0  0  0  0
   -5.4820   24.4640  -30.3520 C   0  0  0  0  0  0  0  0  0  0  0  0
   -5.2390   23.0180  -30.3150 C   0  0  0  0  0  0  0  0  0  0  0  0
   -4.6180   22.5440  -31.6370 C   0  0  0  0  0  0  0  0  0  0  0  0
   -5.6180   22.4440  -32.7160 N   0  0  0  0  0  0  0  0  0  0  0  0
   -6.7340   21.6000  -32.3420 C   0  0  0  0  0  0  0  0  0  0  0  0
   -7.8690   22.1820  -31.7550 C   0  0  0  0  0  0  0  0  0  0  0  0
   -8.9530   21.3810  -31.4000 C   0  0  0  0  0  0  0  0  0  0  0  0
   -9.9720   21.9000  -30.8740 O   0  0  0  0  0  0  0  0  0  0  0  0
   -8.9220   20.0720  -31.6140 O   0  0  0  0  0  0  0  0  0  0  0  0
   -7.8810   19.4600  -32.1680 C   0  0  0  0  0  0  0  0  0  0  0  0
   -7.9260   18.0750  -32.3600 C   0  0  0  0  0  0  0  0  0  0  0  0
   -6.8460   17.4100  -32.9410 C   0  0  0  0  0  0  0  0  0  0  0  0
   -5.7130   18.1240  -33.3330 C   0  0  0  0  0  0  0  0  0  0  0  0
   -5.6510   19.5080  -33.1460 C   0  0  0  0  0  0  0  0  0  0  0  0
   -6.7340   20.1970  -32.5600 C   0  0  0  0  0  0  0  0  0  0  0  0
   -5.8625   26.7376  -30.4113 H   0  0  0  0  0  0  0  0  0  0  0  0
   -4.5508   22.7874  -29.4884 H   0  0  0  0  0  0  0  0  0  0  0  0
   -6.1975   22.4995  -30.1656 H   0  0  0  0  0  0  0  0  0  0  0  0
   -3.8398   23.2600  -31.9400 H   0  0  0  0  0  0  0  0  0  0  0  0
   -4.1962   21.5415  -31.4725 H   0  0  0  0  0  0  0  0  0  0  0  0
   -5.9630   23.4000  -32.9640 H   0  0  0  0  0  0  0  0  0  0  0  0
   -5.1580   22.0810  -33.5830 H   0  0  0  0  0  0  0  0  0  0  0  0
   -7.9026   23.2668  -31.5758 H   0  0  0  0  0  0  0  0  0  0  0  0
   -8.8167   17.5080  -32.0516 H   0  0  0  0  0  0  0  0  0  0  0  0
   -6.8876   16.3210  -33.0904 H   0  0  0  0  0  0  0  0  0  0  0  0
   -4.8644   17.5952  -33.7915 H   0  0  0  0  0  0  0  0  0  0  0  0
   -4.7535   20.0626  -33.4572 H   0  0  0  0  0  0  0  0  0  0  0  0
  1  2  3  0
  2  3  1  0
  3  4  1  0
  4  5  1  0
  5  6  1  0
  6  7  2  0
  7  8  1  0
  8  9  2  0
  8 10  1  0
 10 11  1  0
 11 12  2  0
 12 13  1  0
 13 14  2  0
 14 15  1  0
 15 16  2  0
 16  6  1  0
 16 11  1  0
  1 17  1  0
  3 18  1  0
  3 19  1  0
  4 20  1  0
  4 21  1  0
  5 22  1  0
  5 23  1  0
  7 24  1  0
 12 25  1  0
 13 26  1  0
 14 27  1  0
 15 28  1  0
M  CHG  1   5   1
M  END
>  <UniqueID>  (14) 
14

>  <SMILES>  (14) 
C#CCC[NH2+]c1cc(=O)oc2ccccc12

>  <Energy>  (14) 
31.824844728711003

>  <Genealogy>  (14) 
C#CCC[NH2+]c1cc(=O)oc2ccccc12 (protonated)
C#CCC[NH2+]c1cc(=O)oc2ccccc12 (3D coordinates assigned)
C#CCC[NH2+]c1cc(=O)oc2ccccc12 (optimized conformer: 31.824844728711003 kcal/mol)

>  <smiles>  (14) 
C#CCCNc1cc(=O)oc2ccccc12

>  <score_type>  (14) 
oracle

>  <origin>  (14) 
adg

>  <m_score__min__energy>  (14) 
-5.7199999999999998

>  <m_primary>  (14) 
energy

$$$$
14:0
     RDKit          3D

 40 40  0  0  0  0  0  0  0  0999 V2000
   -6.9092   25.7131  -30.6475 H   0  0  0  0  0  0  0  0  0  0  0  0
   -6.1330   24.9670  -30.8730 C   0  0  0  0  0  0  0  0  0  0  0  0
   -4.9860   24.8320  -29.9610 C   0  0  0  0  0  0  0  0  0  0  0  0
   -5.1850   24.8460  -28.7170 O   0  0  0  0  0  0  0  0  0  0  0  0
   -3.6900   24.6890  -30.4690 O   0  0  0  0  0  0  0  0  0  0  0  0
   -3.1100   23.4200  -30.7530 C   0  0  0  0  0  0  0  0  0  0  0  0
   -2.4778   23.4977  -31.6498 H   0  0  0  0  0  0  0  0  0  0  0  0
   -3.9070   22.6829  -30.9304 H   0  0  0  0  0  0  0  0  0  0  0  0
   -2.2540   22.9730  -29.5600 C   0  0  0  0  0  0  0  0  0  0  0  0
   -1.2886   23.4987  -29.6001 H   0  0  0  0  0  0  0  0  0  0  0  0
   -2.1200   21.8834  -29.6301 H   0  0  0  0  0  0  0  0  0  0  0  0
   -2.9080   23.2700  -28.2550 N   0  0  0  0  0  0  0  0  0  0  0  0
   -3.6280   24.0190  -28.4030 H   0  0  0  0  0  0  0  0  0  0  0  0
   -1.9030   23.7630  -27.2740 C   0  0  0  0  0  0  0  0  0  0  0  0
   -0.9698   23.9937  -27.8087 H   0  0  0  0  0  0  0  0  0  0  0  0
   -1.7500   22.9743  -26.5227 H   0  0  0  0  0  0  0  0  0  0  0  0
   -2.3770   25.0240  -26.5420 C   0  0  0  0  0  0  0  0  0  0  0  0
   -2.3161   24.8621  -25.4557 H   0  0  0  0  0  0  0  0  0  0  0  0
   -1.7368   25.8733  -26.8226 H   0  0  0  0  0  0  0  0  0  0  0  0
   -3.4182   25.2413  -26.8226 H   0  0  0  0  0  0  0  0  0  0  0  0
   -3.5870   22.0540  -27.7310 C   0  0  0  0  0  0  0  0  0  0  0  0
   -3.9814   22.2734  -26.7279 H   0  0  0  0  0  0  0  0  0  0  0  0
   -4.3939   21.7908  -28.4307 H   0  0  0  0  0  0  0  0  0  0  0  0
   -2.6370   20.8530  -27.6360 C   0  0  0  0  0  0  0  0  0  0  0  0
   -2.4498   20.6163  -26.5782 H   0  0  0  0  0  0  0  0  0  0  0  0
   -3.0945   19.9836  -28.1308 H   0  0  0  0  0  0  0  0  0  0  0  0
   -1.6856   21.0980  -28.1308 H   0  0  0  0  0  0  0  0  0  0  0  0
   -6.2600   24.2080  -31.9700 C   0  0  0  0  0  0  0  0  0  0  0  0
   -5.9249   24.6255  -32.9309 H   0  0  0  0  0  0  0  0  0  0  0  0
   -6.8270   22.8360  -31.9630 C   0  0  0  0  0  0  0  0  0  0  0  0
   -6.0570   21.6940  -32.2630 C   0  0  0  0  0  0  0  0  0  0  0  0
   -4.9939   21.8043  -32.5231 H   0  0  0  0  0  0  0  0  0  0  0  0
   -6.6360   20.4230  -32.2320 C   0  0  0  0  0  0  0  0  0  0  0  0
   -6.0292   19.5381  -32.4744 H   0  0  0  0  0  0  0  0  0  0  0  0
   -7.9840   20.2720  -31.8940 C   0  0  0  0  0  0  0  0  0  0  0  0
   -8.7710   18.5320  -31.8500 Br  0  0  0  0  0  0  0  0  0  0  0  0
   -8.7520   21.3960  -31.5790 C   0  0  0  0  0  0  0  0  0  0  0  0
   -9.8115   21.2782  -31.3076 H   0  0  0  0  0  0  0  0  0  0  0  0
   -8.1770   22.6700  -31.6080 C   0  0  0  0  0  0  0  0  0  0  0  0
   -8.7858   23.5494  -31.3510 H   0  0  0  0  0  0  0  0  0  0  0  0
  1  2  1  0
  2  3  1  0
  3  4  2  0
  3  5  1  0
  5  6  1  0
  6  7  1  0
  6  8  1  0
  6  9  1  0
  9 10  1  0
  9 11  1  0
  9 12  1  0
 12 13  1  0
 12 14  1  0
 14 15  1  0
 14 16  1  0
 14 17  1  0
 17 18  1  0
 17 19  1  0
 17 20  1  0
 12 21  1  0
 21 22  1  0
 21 23  1  0
 21 24  1  0
 24 25  1  0
 24 26  1  0
 24 27  1  0
  2 28  2  0
 28 29  1  0
 28 30  1  0
 30 31  2  0
 31 32  1  0
 31 33  1  0
 33 34  1  0
 33 35  2  0
 35 36  1  0
 35 37  1  0
 37 38  1  0
 37 39  2  0
 39 40  1  0
 39 30  1  0
M  CHG  1  12   1
M  END
>  <UniqueID>  (15) 
15

>  <SMILES>  (15) 
CC[NH+](CC)CCOC(=O)/C=C/c1ccc(Br)cc1

>  <Energy>  (15) 
36.869981389782446

>  <Genealogy>  (15) 
CC[NH+](CC)CCOC(=O)C=Cc1ccc(Br)cc1 (protonated)
CC[NH+](CC)CCOC(=O)/C=C/c1ccc(Br)cc1 (cis-trans isomerization)
CC[NH+](CC)CCOC(=O)/C=C/c1ccc(Br)cc1 (3D coordinates assigned)
CC[NH+](CC)CCOC(=O)/C=C/c1ccc(Br)cc1 (optimized conformer: 36.869981389782446 kcal/mol)

>  <smiles>  (15) 
CCN(CC)CCOC(=O)C=Cc1ccc(Br)cc1

>  <score_type>  (15) 
oracle

>  <origin>  (15) 
adg

>  <m_score__min__energy>  (15) 
-6.0099999999999998

>  <m_primary>  (15) 
energy

$$$$
15:0
     RDKit          3D

 43 45  0  0  0  0  0  0  0  0999 V2000
   -8.2387   24.0780  -32.0256 H   0  0  0  0  0  0  0  0  0  0  0  0
   -7.6790   23.2620  -31.5450 C   0  0  0  0  0  0  0  0  0  0  0  0
   -8.1270   22.0100  -31.7110 C   0  0  0  0  0  0  0  0  0  0  0  0
   -9.1698   21.7745  -31.4519 H   0  0  0  0  0  0  0  0  0  0  0  0
   -7.2520   20.9350  -32.2350 C   0  0  0  0  0  0  0  0  0  0  0  0
   -6.0090   21.3300  -32.7380 C   0  0  0  0  0  0  0  0  0  0  0  0
   -5.6967   22.3822  -32.6647 H   0  0  0  0  0  0  0  0  0  0  0  0
   -5.1690   20.3990  -33.3290 C   0  0  0  0  0  0  0  0  0  0  0  0
   -4.1817   20.7073  -33.7034 H   0  0  0  0  0  0  0  0  0  0  0  0
   -5.5770   19.0730  -33.4480 C   0  0  0  0  0  0  0  0  0  0  0  0
   -4.7520   18.1410  -34.0970 C   0  0  0  0  0  0  0  0  0  0  0  0
   -3.7759   18.4564  -34.4943 H   0  0  0  0  0  0  0  0  0  0  0  0
   -5.1650   16.8170  -34.2400 C   0  0  0  0  0  0  0  0  0  0  0  0
   -4.5124   16.0888  -34.7438 H   0  0  0  0  0  0  0  0  0  0  0  0
   -6.4040   16.4160  -33.7450 C   0  0  0  0  0  0  0  0  0  0  0  0
   -6.7306   15.3730  -33.8692 H   0  0  0  0  0  0  0  0  0  0  0  0
   -7.2340   17.3300  -33.0920 C   0  0  0  0  0  0  0  0  0  0  0  0
   -8.2120   17.0000  -32.7117 H   0  0  0  0  0  0  0  0  0  0  0  0
   -6.8320   18.6780  -32.9130 C   0  0  0  0  0  0  0  0  0  0  0  0
   -7.6210   19.6020  -32.2510 N   0  0  0  0  0  0  0  0  0  0  0  0
   -8.8290   19.1550  -31.5260 C   0  0  0  0  0  0  0  0  0  0  0  0
   -8.6516   19.2207  -30.4424 H   0  0  0  0  0  0  0  0  0  0  0  0
   -9.6789   19.7982  -31.7980 H   0  0  0  0  0  0  0  0  0  0  0  0
   -9.0555   18.1135  -31.7980 H   0  0  0  0  0  0  0  0  0  0  0  0
   -6.4760   23.6160  -30.7540 C   0  0  0  0  0  0  0  0  0  0  0  0
   -5.7540   24.8070  -30.9570 C   0  0  0  0  0  0  0  0  0  0  0  0
   -6.0769   25.5142  -31.7352 H   0  0  0  0  0  0  0  0  0  0  0  0
   -4.6310   25.0990  -30.1790 C   0  0  0  0  0  0  0  0  0  0  0  0
   -4.0754   26.0316  -30.3570 H   0  0  0  0  0  0  0  0  0  0  0  0
   -4.2000   24.2150  -29.1690 C   0  0  0  0  0  0  0  0  0  0  0  0
   -3.0320   24.5170  -28.3610 N   0  0  0  0  0  0  0  0  0  0  0  0
   -1.6880   24.4890  -28.9510 C   0  0  0  0  0  0  0  0  0  0  0  0
   -0.9356   24.4733  -28.1487 H   0  0  0  0  0  0  0  0  0  0  0  0
   -1.5794   23.5884  -29.5732 H   0  0  0  0  0  0  0  0  0  0  0  0
   -1.5420   25.3843  -29.5732 H   0  0  0  0  0  0  0  0  0  0  0  0
   -3.1750   24.8590  -26.9390 C   0  0  0  0  0  0  0  0  0  0  0  0
   -2.8235   24.0185  -26.3226 H   0  0  0  0  0  0  0  0  0  0  0  0
   -2.5756   25.7537  -26.7150 H   0  0  0  0  0  0  0  0  0  0  0  0
   -4.2329   25.0608  -26.7150 H   0  0  0  0  0  0  0  0  0  0  0  0
   -4.9370   23.0320  -28.9620 C   0  0  0  0  0  0  0  0  0  0  0  0
   -4.6237   22.3276  -28.1773 H   0  0  0  0  0  0  0  0  0  0  0  0
   -6.0600   22.7420  -29.7400 C   0  0  0  0  0  0  0  0  0  0  0  0
   -6.6250   21.8165  -29.5548 H   0  0  0  0  0  0  0  0  0  0  0  0
  1  2  1  0
  2  3  2  0
  3  4  1  0
  3  5  1  0
  5  6  2  0
  6  7  1  0
  6  8  1  0
  8  9  1  0
  8 10  2  0
 10 11  1  0
 11 12  1  0
 11 13  2  0
 13 14  1  0
 13 15  1  0
 15 16  1  0
 15 17  2  0
 17 18  1  0
 17 19  1  0
 19 20  2  0
 20 21  1  0
 21 22  1  0
 21 23  1  0
 21 24  1  0
  2 25  1  0
 25 26  2  0
 26 27  1  0
 26 28  1  0
 28 29  1  0
 28 30  2  0
 30 31  1  0
 31 32  1  0
 32 33  1  0
 32 34  1  0
 32 35  1  0
 31 36  1  0
 36 37  1  0
 36 38  1  0
 36 39  1  0
 30 40  1  0
 40 41  1  0
 40 42  2  0
 42 43  1  0
 20  5  1  0
 42 25  1  0
 19 10  1  0
M  CHG  1  20   1
M  END
>  <UniqueID>  (16) 
16

>  <SMILES>  (16) 
CN(C)c1ccc(/C=C/c2ccc3ccccc3[n+]2C)cc1

>  <Energy>  (16) 
65.65055540279326

>  <Genealogy>  (16) 
CN(C)c1ccc(/C=C/c2ccc3ccccc3[n+]2C)cc1 (cis-trans isomerization)
CN(C)c1ccc(/C=C/c2ccc3ccccc3[n+]2C)cc1 (3D coordinates assigned)
CN(C)c1ccc(/C=C/c2ccc3ccccc3[n+]2C)cc1 (optimized conformer: 65.65055540279326 kcal/mol)

>  <smiles>  (16) 
CN(C)c1ccc(C=Cc2ccc3ccccc3[n+]2C)cc1

>  <score_type>  (16) 
oracle

>  <origin>  (16) 
adg

>  <m_score__min__energy>  (16) 
-7.6600000000000001

>  <m_primary>  (16) 
energy

$$$$
16:0
     RDKit          3D

 50 51  0  0  0  0  0  0  0  0999 V2000
   -1.0890   21.4520  -30.9280 C   0  0  0  0  0  0  0  0  0  0  0  0
   -2.3880   22.1160  -31.3800 C   0  0  0  0  0  0  0  0  0  0  0  0
   -3.4730   22.0190  -30.2920 C   0  0  0  0  0  0  0  0  0  0  0  0
   -3.6600   23.3090  -29.5800 N   0  0  2  0  0  0  0  0  0  0  0  0
   -4.2410   23.1300  -28.2240 C   0  0  0  0  0  0  0  0  0  0  0  0
   -3.8820   24.2480  -27.2090 C   0  0  0  0  0  0  0  0  0  0  0  0
   -2.4540   24.2480  -26.8150 N   0  0  0  0  0  0  0  0  0  0  0  0
   -1.8320   25.5840  -26.7190 C   0  0  0  0  0  0  0  0  0  0  0  0
   -1.1120   26.0170  -28.0210 C   0  0  0  0  0  0  0  0  0  0  0  0
   -1.0130   24.9860  -28.9830 O   0  0  0  0  0  0  0  0  0  0  0  0
   -0.5350   23.8110  -28.3710 C   0  0  0  0  0  0  0  0  0  0  0  0
   -1.6220   23.2100  -27.4680 C   0  0  0  0  0  0  0  0  0  0  0  0
   -4.4190   24.2620  -30.3780 C   0  0  0  0  0  0  0  0  0  0  0  0
   -3.8970   25.2960  -30.7760 O   0  0  0  0  0  0  0  0  0  0  0  0
   -5.8850   24.0440  -30.6610 C   0  0  0  0  0  0  0  0  0  0  0  0
   -6.0520   23.2130  -31.8100 O   0  0  0  0  0  0  0  0  0  0  0  0
   -7.0430   22.2270  -31.9670 C   0  0  0  0  0  0  0  0  0  0  0  0
   -8.3680   22.4170  -31.5190 C   0  0  0  0  0  0  0  0  0  0  0  0
   -9.3230   21.4100  -31.6870 C   0  0  0  0  0  0  0  0  0  0  0  0
   -8.9710   20.2070  -32.3030 C   0  0  0  0  0  0  0  0  0  0  0  0
   -7.6650   20.0090  -32.7630 C   0  0  0  0  0  0  0  0  0  0  0  0
   -6.7030   21.0150  -32.6020 C   0  0  0  0  0  0  0  0  0  0  0  0
   -5.3570   20.7890  -33.0730 C   0  0  0  0  0  0  0  0  0  0  0  0
   -4.2760   20.6070  -33.4520 N   0  0  0  0  0  0  0  0  0  0  0  0
   -1.0504   21.4323  -29.8289 H   0  0  0  0  0  0  0  0  0  0  0  0
   -1.0493   20.4230  -31.3148 H   0  0  0  0  0  0  0  0  0  0  0  0
   -0.2317   22.0225  -31.3148 H   0  0  0  0  0  0  0  0  0  0  0  0
   -2.1919   23.1764  -31.5971 H   0  0  0  0  0  0  0  0  0  0  0  0
   -2.7498   21.5955  -32.2790 H   0  0  0  0  0  0  0  0  0  0  0  0
   -4.4245   21.7317  -30.7632 H   0  0  0  0  0  0  0  0  0  0  0  0
   -3.1519   21.2669  -29.5563 H   0  0  0  0  0  0  0  0  0  0  0  0
   -2.7020   23.7070  -29.4190 H   0  0  0  0  0  0  0  0  0  0  0  0
   -5.3360   23.0962  -28.3227 H   0  0  0  0  0  0  0  0  0  0  0  0
   -3.8122   22.1994  -27.8239 H   0  0  0  0  0  0  0  0  0  0  0  0
   -4.1182   25.2212  -27.6641 H   0  0  0  0  0  0  0  0  0  0  0  0
   -4.4703   24.0613  -26.2985 H   0  0  0  0  0  0  0  0  0  0  0  0
   -2.6176   26.3199  -26.4926 H   0  0  0  0  0  0  0  0  0  0  0  0
   -1.0714   25.5343  -25.9259 H   0  0  0  0  0  0  0  0  0  0  0  0
   -1.6702   26.8544  -28.4650 H   0  0  0  0  0  0  0  0  0  0  0  0
   -0.0855   26.2986  -27.7434 H   0  0  0  0  0  0  0  0  0  0  0  0
   -0.2616   23.0812  -29.1473 H   0  0  0  0  0  0  0  0  0  0  0  0
    0.3473   24.0547  -27.7610 H   0  0  0  0  0  0  0  0  0  0  0  0
   -2.2737   22.5684  -28.0793 H   0  0  0  0  0  0  0  0  0  0  0  0
   -1.1192   22.6367  -26.6753 H   0  0  0  0  0  0  0  0  0  0  0  0
   -6.3537   23.5593  -29.7919 H   0  0  0  0  0  0  0  0  0  0  0  0
   -6.3600   25.0175  -30.8527 H   0  0  0  0  0  0  0  0  0  0  0  0
   -8.6509   23.3633  -31.0347 H   0  0  0  0  0  0  0  0  0  0  0  0
  -10.3530   21.5653  -31.3336 H   0  0  0  0  0  0  0  0  0  0  0  0
   -9.7226   19.4134  -32.4267 H   0  0  0  0  0  0  0  0  0  0  0  0
   -7.3927   19.0620  -33.2519 H   0  0  0  0  0  0  0  0  0  0  0  0
  1  2  1  0
  2  3  1  0
  3  4  1  0
  4  5  1  0
  5  6  1  0
  6  7  1  0
  7  8  1  0
  8  9  1  0
  9 10  1  0
 10 11  1  0
 11 12  1  0
  4 13  1  0
 13 14  2  0
 13 15  1  0
 15 16  1  0
 16 17  1  0
 17 18  2  0
 18 19  1  0
 19 20  2  0
 20 21  1  0
 21 22  2  0
 22 23  1  0
 23 24  3  0
 12  7  1  0
 22 17  1  0
  1 25  1  0
  1 26  1  0
  1 27  1  0
  2 28  1  0
  2 29  1  0
  3 30  1  0
  3 31  1  0
  4 32  1  1
  5 33  1  0
  5 34  1  0
  6 35  1  0
  6 36  1  0
  8 37  1  0
  8 38  1  0
  9 39  1  0
  9 40  1  0
 11 41  1  0
 11 42  1  0
 12 43  1  0
 12 44  1  0
 15 45  1  0
 15 46  1  0
 18 47  1  0
 19 48  1  0
 20 49  1  0
 21 50  1  0
M  CHG  1   4   1
M  END
>  <UniqueID>  (17) 
17

>  <SMILES>  (17) 
CCC[N@H+](CCN1CCOCC1)C(=O)COc1ccccc1C#N

>  <Energy>  (17) 
62.18892020659917

>  <Genealogy>  (17) 
CCC[NH+](CCN1CCOCC1)C(=O)COc1ccccc1C#N (protonated)
CCC[N@H+](CCN1CCOCC1)C(=O)COc1ccccc1C#N (chirality)
CCC[N@H+](CCN1CCOCC1)C(=O)COc1ccccc1C#N (3D coordinates assigned)
CCC[N@H+](CCN1CCOCC1)C(=O)COc1ccccc1C#N (nonaromatic ring conformer: 62.18892020659917 kcal/mol)

>  <smiles>  (17) 
CCCN(CCN1CCOCC1)C(=O)COc1ccccc1C#N

>  <score_type>  (17) 
oracle

>  <origin>  (17) 
adg

>  <m_score__min__energy>  (17) 
-6.3300000000000001

>  <m_primary>  (17) 
energy

$$$$
17:0
     RDKit          3D

 44 45  0  0  0  0  0  0  0  0999 V2000
   -9.0940   19.4500  -31.9720 C   0  0  0  0  0  0  0  0  0  0  0  0
   -8.9180   20.9590  -32.1050 C   0  0  0  0  0  0  0  0  0  0  0  0
   -8.0830   21.5210  -30.9490 C   0  0  0  0  0  0  0  0  0  0  0  0
   -6.7700   22.0650  -31.4400 C   0  0  0  0  0  0  0  0  0  0  0  0
   -6.2060   23.3160  -31.2090 C   0  0  0  0  0  0  0  0  0  0  0  0
   -6.8110   24.4550  -30.4430 C   0  0  0  0  0  0  0  0  0  0  0  0
   -5.7510   25.4990  -30.1050 C   0  0  0  0  0  0  0  0  0  0  0  0
   -4.9920   23.3830  -31.7970 N   0  0  0  0  0  0  0  0  0  0  0  0
   -4.7680   22.2230  -32.3960 N   0  0  0  0  0  0  0  0  0  0  0  0
   -3.5400   21.9090  -33.1140 C   0  0  0  0  0  0  0  0  0  0  0  0
   -5.8200   21.4060  -32.1940 C   0  0  0  0  0  0  0  0  0  0  0  0
   -5.9040   20.0480  -32.6470 N   0  0  0  0  0  0  0  0  0  0  0  0
   -5.7450   18.9550  -31.6900 C   0  0  0  0  0  0  0  0  0  0  0  0
   -5.0180   17.7800  -32.3570 C   0  0  0  0  0  0  0  0  0  0  0  0
   -5.6160   17.4050  -33.6560 N   0  0  0  0  0  0  0  0  0  0  0  0
   -6.8970   16.6950  -33.5040 C   0  0  0  0  0  0  0  0  0  0  0  0
   -5.7100   18.5550  -34.5800 C   0  0  0  0  0  0  0  0  0  0  0  0
   -6.4560   19.7470  -33.9650 C   0  0  0  0  0  0  0  0  0  0  0  0
   -9.1258   19.1770  -30.9069 H   0  0  0  0  0  0  0  0  0  0  0  0
  -10.0337   19.1463  -32.4566 H   0  0  0  0  0  0  0  0  0  0  0  0
   -8.2495   18.9382  -32.4566 H   0  0  0  0  0  0  0  0  0  0  0  0
   -8.4098   21.1791  -33.0554 H   0  0  0  0  0  0  0  0  0  0  0  0
   -9.9116   21.4303  -32.0798 H   0  0  0  0  0  0  0  0  0  0  0  0
   -8.6459   22.3297  -30.4599 H   0  0  0  0  0  0  0  0  0  0  0  0
   -7.8784   20.7060  -30.2391 H   0  0  0  0  0  0  0  0  0  0  0  0
   -7.5977   24.9231  -31.0528 H   0  0  0  0  0  0  0  0  0  0  0  0
   -7.2362   24.0657  -29.5062 H   0  0  0  0  0  0  0  0  0  0  0  0
   -5.6599   25.5887  -29.0124 H   0  0  0  0  0  0  0  0  0  0  0  0
   -4.7842   25.1906  -30.5294 H   0  0  0  0  0  0  0  0  0  0  0  0
   -6.0446   26.4704  -30.5294 H   0  0  0  0  0  0  0  0  0  0  0  0
   -2.7357   21.7033  -32.3923 H   0  0  0  0  0  0  0  0  0  0  0  0
   -3.7010   21.0231  -33.7459 H   0  0  0  0  0  0  0  0  0  0  0  0
   -3.2560   22.7634  -33.7459 H   0  0  0  0  0  0  0  0  0  0  0  0
   -5.1574   19.3064  -30.8290 H   0  0  0  0  0  0  0  0  0  0  0  0
   -6.7373   18.6223  -31.3514 H   0  0  0  0  0  0  0  0  0  0  0  0
   -3.9678   18.0630  -32.5212 H   0  0  0  0  0  0  0  0  0  0  0  0
   -5.1042   16.9115  -31.6874 H   0  0  0  0  0  0  0  0  0  0  0  0
   -7.1224   16.5701  -32.4346 H   0  0  0  0  0  0  0  0  0  0  0  0
   -7.6982   17.2778  -33.9819 H   0  0  0  0  0  0  0  0  0  0  0  0
   -6.8274   15.7067  -33.9819 H   0  0  0  0  0  0  0  0  0  0  0  0
   -4.6925   18.8762  -34.8474 H   0  0  0  0  0  0  0  0  0  0  0  0
   -6.2773   18.2269  -35.4635 H   0  0  0  0  0  0  0  0  0  0  0  0
   -6.3428   20.6251  -34.6178 H   0  0  0  0  0  0  0  0  0  0  0  0
   -7.5222   19.4959  -33.8640 H   0  0  0  0  0  0  0  0  0  0  0  0
  1  2  1  0
  2  3  1  0
  3  4  1  0
  4  5  1  0
  5  6  1  0
  6  7  1  0
  5  8  2  0
  8  9  1  0
  9 10  1  0
  9 11  1  0
 11 12  1  0
 12 13  1  0
 13 14  1  0
 14 15  1  0
 15 16  1  0
 15 17  1  0
 17 18  1  0
 11  4  2  0
 18 12  1  0
  1 19  1  0
  1 20  1  0
  1 21  1  0
  2 22  1  0
  2 23  1  0
  3 24  1  0
  3 25  1  0
  6 26  1  0
  6 27  1  0
  7 28  1  0
  7 29  1  0
  7 30  1  0
 10 31  1  0
 10 32  1  0
 10 33  1  0
 13 34  1  0
 13 35  1  0
 14 36  1  0
 14 37  1  0
 16 38  1  0
 16 39  1  0
 16 40  1  0
 17 41  1  0
 17 42  1  0
 18 43  1  0
 18 44  1  0
M  END
>  <UniqueID>  (18) 
18

>  <SMILES>  (18) 
CCCc1c(CC)nn(C)c1N1CCN(C)CC1

>  <Energy>  (18) 
68.70379592759211

>  <Genealogy>  (18) 
CCCc1c(CC)nn(C)c1N1CCN(C)CC1 (3D coordinates assigned)
CCCc1c(CC)nn(C)c1N1CCN(C)CC1 (nonaromatic ring conformer: 68.70379592759211 kcal/mol)

>  <smiles>  (18) 
CCCc1c(CC)nn(C)c1N1CCN(C)CC1

>  <score_type>  (18) 
oracle

>  <origin>  (18) 
adg

>  <m_score__min__energy>  (18) 
-6.8399999999999999

>  <m_primary>  (18) 
energy

$$$$
18:0
     RDKit          3D

 37 36  0  0  0  0  0  0  0  0999 V2000
   -6.5790   19.9880  -34.0670 N   0  0  0  0  0  0  0  0  0  0  0  0
   -6.1030   18.6100  -34.1480 C   0  0  0  0  0  0  0  0  0  0  0  0
   -6.8170   17.7370  -33.1170 C   0  0  0  0  0  0  0  0  0  0  0  0
   -7.2210   18.5520  -31.9620 N   0  0  0  0  0  0  0  0  0  0  0  0
   -8.6680   18.4950  -31.6990 C   0  0  0  0  0  0  0  0  0  0  0  0
   -9.4550   19.6340  -32.3830 C   0  0  0  0  0  0  0  0  0  0  0  0
   -8.6080   20.8200  -32.5730 N   0  0  0  0  0  0  0  0  0  0  0  0
   -8.8640   21.8570  -31.5620 C   0  0  0  0  0  0  0  0  0  0  0  0
   -7.9240   23.0560  -31.7690 C   0  0  0  0  0  0  0  0  0  0  0  0
   -6.8090   22.7640  -32.6950 N   0  0  0  0  0  0  0  0  0  0  0  0
   -5.4950   22.9710  -32.0640 C   0  0  0  0  0  0  0  0  0  0  0  0
   -4.7180   21.6510  -31.9790 C   0  0  0  0  0  0  0  0  0  0  0  0
   -5.6170   20.5530  -31.6380 N   0  0  0  0  0  0  0  0  0  0  0  0
   -7.5990   19.9980  -34.3000 H   0  0  0  0  0  0  0  0  0  0  0  0
   -6.5030   20.2920  -33.0680 H   0  0  0  0  0  0  0  0  0  0  0  0
   -6.3021   18.2167  -35.1558 H   0  0  0  0  0  0  0  0  0  0  0  0
   -5.0226   18.5936  -33.9418 H   0  0  0  0  0  0  0  0  0  0  0  0
   -7.7099   17.2876  -33.5760 H   0  0  0  0  0  0  0  0  0  0  0  0
   -6.1329   16.9449  -32.7786 H   0  0  0  0  0  0  0  0  0  0  0  0
   -6.9320   19.5470  -32.1250 H   0  0  0  0  0  0  0  0  0  0  0  0
   -9.0530   17.5330  -32.0683 H   0  0  0  0  0  0  0  0  0  0  0  0
   -8.8080   18.6063  -30.6136 H   0  0  0  0  0  0  0  0  0  0  0  0
   -9.8118   19.2861  -33.3636 H   0  0  0  0  0  0  0  0  0  0  0  0
  -10.3035   19.9091  -31.7392 H   0  0  0  0  0  0  0  0  0  0  0  0
   -7.6080   20.5200  -32.4820 H   0  0  0  0  0  0  0  0  0  0  0  0
   -9.9070   22.1960  -31.6474 H   0  0  0  0  0  0  0  0  0  0  0  0
   -8.6834   21.4321  -30.5636 H   0  0  0  0  0  0  0  0  0  0  0  0
   -8.5088   23.8932  -32.1778 H   0  0  0  0  0  0  0  0  0  0  0  0
   -7.4836   23.3009  -30.7912 H   0  0  0  0  0  0  0  0  0  0  0  0
   -6.8770   21.7580  -32.9780 H   0  0  0  0  0  0  0  0  0  0  0  0
   -6.8850   23.3440  -33.5650 H   0  0  0  0  0  0  0  0  0  0  0  0
   -4.9174   23.6917  -32.6615 H   0  0  0  0  0  0  0  0  0  0  0  0
   -5.6496   23.3556  -31.0451 H   0  0  0  0  0  0  0  0  0  0  0  0
   -4.2463   21.4448  -32.9511 H   0  0  0  0  0  0  0  0  0  0  0  0
   -3.9493   21.7389  -31.1971 H   0  0  0  0  0  0  0  0  0  0  0  0
   -6.5950   20.8450  -31.8650 H   0  0  0  0  0  0  0  0  0  0  0  0
   -5.3920   19.7510  -32.2740 H   0  0  0  0  0  0  0  0  0  0  0  0
  1  2  1  0
  2  3  1  0
  3  4  1  0
  4  5  1  0
  5  6  1  0
  6  7  1  0
  7  8  1  0
  8  9  1  0
  9 10  1  0
 10 11  1  0
 11 12  1  0
 12 13  1  0
  1 14  1  0
  1 15  1  0
  2 16  1  0
  2 17  1  0
  3 18  1  0
  3 19  1  0
  4 20  1  0
  5 21  1  0
  5 22  1  0
  6 23  1  0
  6 24  1  0
  7 25  1  0
  8 26  1  0
  8 27  1  0
  9 28  1  0
  9 29  1  0
 10 30  1  0
 10 31  1  0
 11 32  1  0
 11 33  1  0
 12 34  1  0
 12 35  1  0
 13 36  1  0
 13 37  1  0
M  CHG  1  10   1
M  END
>  <UniqueID>  (19) 
19

>  <SMILES>  (19) 
NCCNCCNCC[NH2+]CCN

>  <Energy>  (19) 
24.015018981577235

>  <Genealogy>  (19) 
NCCNCCNCC[NH2+]CCN (protonated)
NCCNCCNCC[NH2+]CCN (3D coordinates assigned)
NCCNCCNCC[NH2+]CCN (optimized conformer: 24.015018981577235 kcal/mol)

>  <smiles>  (19) 
NCCNCCNCCNCCN

>  <score_type>  (19) 
oracle

>  <origin>  (19) 
adg

>  <m_score__min__energy>  (19) 
-1.3700000000000001

>  <m_primary>  (19) 
energy

$$$$
19:0
     RDKit          3D

 23 23  0  0  0  0  0  0  0  0999 V2000
   -7.3150   21.7980  -31.0780 C   0  0  0  0  0  0  0  0  0  0  0  0
   -6.1260   22.4080  -30.4840 C   0  0  0  0  0  0  0  0  0  0  0  0
   -5.1460   22.9110  -29.9940 C   0  0  0  0  0  0  0  0  0  0  0  0
   -3.9710   23.5130  -29.4080 C   0  0  0  0  0  0  0  0  0  0  0  0
   -3.3110   22.8810  -28.3410 C   0  0  0  0  0  0  0  0  0  0  0  0
   -3.8130   21.6600  -27.8570 O   0  0  0  0  0  0  0  0  0  0  0  0
   -3.0120   20.5240  -27.5510 C   0  0  0  0  0  0  0  0  0  0  0  0
   -2.1690   23.4880  -27.7880 C   0  0  0  0  0  0  0  0  0  0  0  0
   -1.7100   24.7040  -28.3080 C   0  0  0  0  0  0  0  0  0  0  0  0
   -0.4960   25.3630  -27.7310 C   0  0  0  0  0  0  0  0  0  0  0  0
   -2.3700   25.2920  -29.3410 N   0  0  0  0  0  0  0  0  0  0  0  0
   -3.4760   24.7340  -29.8990 C   0  0  0  0  0  0  0  0  0  0  0  0
   -4.0500   25.3220  -30.8550 O   0  0  0  0  0  0  0  0  0  0  0  0
   -7.9879   21.4528  -30.2792 H   0  0  0  0  0  0  0  0  0  0  0  0
   -7.8357   22.5403  -31.7008 H   0  0  0  0  0  0  0  0  0  0  0  0
   -7.0157   20.9421  -31.7008 H   0  0  0  0  0  0  0  0  0  0  0  0
   -2.9341   20.4136  -26.4593 H   0  0  0  0  0  0  0  0  0  0  0  0
   -3.4754   19.6227  -27.9786 H   0  0  0  0  0  0  0  0  0  0  0  0
   -2.0074   20.6578  -27.9786 H   0  0  0  0  0  0  0  0  0  0  0  0
   -1.6392   23.0096  -26.9511 H   0  0  0  0  0  0  0  0  0  0  0  0
   -0.5500   25.3337  -26.6327 H   0  0  0  0  0  0  0  0  0  0  0  0
    0.4055   24.8304  -28.0682 H   0  0  0  0  0  0  0  0  0  0  0  0
   -0.4515   26.4091  -28.0682 H   0  0  0  0  0  0  0  0  0  0  0  0
  1  2  1  0
  2  3  3  0
  3  4  1  0
  4  5  2  0
  5  6  1  0
  6  7  1  0
  5  8  1  0
  8  9  2  0
  9 10  1  0
  9 11  1  0
 11 12  1  0
 12 13  2  0
 12  4  1  0
  1 14  1  0
  1 15  1  0
  1 16  1  0
  7 17  1  0
  7 18  1  0
  7 19  1  0
  8 20  1  0
 10 21  1  0
 10 22  1  0
 10 23  1  0
M  CHG  1  11  -1
M  END
>  <UniqueID>  (20) 
20

>  <SMILES>  (20) 
CC#Cc1c(OC)cc(C)[n-]c1=O

>  <Energy>  (20) 
16.164094843201326

>  <Genealogy>  (20) 
CC#Cc1c(OC)cc(C)[n-]c1=O (protonated)
CC#Cc1c(OC)cc(C)[n-]c1=O (3D coordinates assigned)
CC#Cc1c(OC)cc(C)[n-]c1=O (optimized conformer: 16.164094843201326 kcal/mol)

>  <smiles>  (20) 
CC#Cc1c(OC)cc(C)[nH]c1=O

>  <score_type>  (20) 
oracle

>  <origin>  (20) 
adg

>  <m_score__min__energy>  (20) 
-6.1200000000000001

>  <m_primary>  (20) 
energy

$$$$
20:0
     RDKit          3D

 36 37  0  0  0  0  0  0  0  0999 V2000
   -2.6160   21.4620  -28.7060 C   0  0  0  0  0  0  0  0  0  0  0  0
   -1.9280   21.4690  -29.8500 C   0  0  0  0  0  0  0  0  0  0  0  0
   -1.9920   22.6320  -30.7990 C   0  0  0  0  0  0  0  0  0  0  0  0
   -3.3380   23.2160  -30.8080 N   0  0  0  0  0  0  0  0  0  0  0  0
   -3.6740   24.4350  -30.3430 C   0  0  0  0  0  0  0  0  0  0  0  0
   -2.7930   25.2990  -29.7010 O   0  0  0  0  0  0  0  0  0  0  0  0
   -4.9970   24.7030  -30.6050 C   0  0  0  0  0  0  0  0  0  0  0  0
   -5.6830   25.8620  -30.2550 O   0  0  0  0  0  0  0  0  0  0  0  0
   -5.5140   23.6050  -31.2770 C   0  0  0  0  0  0  0  0  0  0  0  0
   -6.9060   23.4190  -31.7470 C   0  0  0  0  0  0  0  0  0  0  0  0
   -7.9300   22.7290  -30.9010 C   0  0  0  0  0  0  0  0  0  0  0  0
   -7.2400   23.8220  -32.8940 O   0  0  0  0  0  0  0  0  0  0  0  0
   -4.4540   22.7010  -31.3840 C   0  0  0  0  0  0  0  0  0  0  0  0
   -4.4900   21.4100  -32.0990 C   0  0  0  0  0  0  0  0  0  0  0  0
   -3.5280   21.1160  -33.0760 C   0  0  0  0  0  0  0  0  0  0  0  0
   -3.5750   19.9000  -33.7640 C   0  0  0  0  0  0  0  0  0  0  0  0
   -4.5750   18.9600  -33.4740 C   0  0  0  0  0  0  0  0  0  0  0  0
   -4.6490   17.6740  -34.2410 C   0  0  0  0  0  0  0  0  0  0  0  0
   -5.5470   19.2630  -32.5080 C   0  0  0  0  0  0  0  0  0  0  0  0
   -5.5010   20.4800  -31.8200 C   0  0  0  0  0  0  0  0  0  0  0  0
   -2.5503   20.5968  -28.0299 H   0  0  0  0  0  0  0  0  0  0  0  0
   -3.2486   22.3215  -28.4394 H   0  0  0  0  0  0  0  0  0  0  0  0
   -1.2994   20.6028  -30.1038 H   0  0  0  0  0  0  0  0  0  0  0  0
   -1.2678   23.3972  -30.4828 H   0  0  0  0  0  0  0  0  0  0  0  0
   -1.7519   22.2773  -31.8122 H   0  0  0  0  0  0  0  0  0  0  0  0
   -5.3740   26.4380  -29.4820 H   0  0  0  0  0  0  0  0  0  0  0  0
   -7.6947   22.8875  -29.8382 H   0  0  0  0  0  0  0  0  0  0  0  0
   -8.9258   23.1410  -31.1215 H   0  0  0  0  0  0  0  0  0  0  0  0
   -7.9220   21.6514  -31.1215 H   0  0  0  0  0  0  0  0  0  0  0  0
   -2.7346   21.8438  -33.3015 H   0  0  0  0  0  0  0  0  0  0  0  0
   -2.8239   19.6791  -34.5368 H   0  0  0  0  0  0  0  0  0  0  0  0
   -4.6976   16.8298  -33.5375 H   0  0  0  0  0  0  0  0  0  0  0  0
   -5.5485   17.6759  -34.8741 H   0  0  0  0  0  0  0  0  0  0  0  0
   -3.7552   17.5727  -34.8741 H   0  0  0  0  0  0  0  0  0  0  0  0
   -6.3479   18.5408  -32.2911 H   0  0  0  0  0  0  0  0  0  0  0  0
   -6.2605   20.7079  -31.0577 H   0  0  0  0  0  0  0  0  0  0  0  0
  1  2  2  0
  2  3  1  0
  3  4  1  0
  4  5  1  0
  5  6  1  0
  5  7  2  0
  7  8  1  0
  7  9  1  0
  9 10  1  0
 10 11  1  0
 10 12  2  0
  9 13  2  0
 13 14  1  0
 14 15  2  0
 15 16  1  0
 16 17  2  0
 17 18  1  0
 17 19  1  0
 19 20  2  0
 13  4  1  0
 20 14  1  0
  1 21  1  0
  1 22  1  0
  2 23  1  0
  3 24  1  0
  3 25  1  0
  8 26  1  0
 11 27  1  0
 11 28  1  0
 11 29  1  0
 15 30  1  0
 16 31  1  0
 18 32  1  0
 18 33  1  0
 18 34  1  0
 19 35  1  0
 20 36  1  0
M  CHG  1   6  -1
M  END
>  <UniqueID>  (21) 
21

>  <SMILES>  (21) 
C=CCn1c([O-])c(O)c(C(C)=O)c1-c1ccc(C)cc1

>  <Energy>  (21) 
66.29001055353883

>  <Genealogy>  (21) 
C=CCn1c([O-])c(O)c(C(C)=O)c1-c1ccc(C)cc1 (protonated)
C=CCn1c([O-])c(O)c(C(C)=O)c1-c1ccc(C)cc1 (3D coordinates assigned)
C=CCn1c([O-])c(O)c(C(C)=O)c1-c1ccc(C)cc1 (optimized conformer: 66.29001055353883 kcal/mol)

>  <smiles>  (21) 
C=CCn1c(O)c(O)c(C(C)=O)c1-c1ccc(C)cc1

>  <score_type>  (21) 
oracle

>  <origin>  (21) 
adg

>  <m_score__min__energy>  (21) 
-9.8800000000000008

>  <m_primary>  (21) 
energy

$$$$
21:0
     RDKit          3D

 63 66  0  0  0  0  0  0  0  0999 V2000
   -4.6230   13.3320  -31.1800 C   0  0  0  0  0  0  0  0  0  0  0  0
   -3.7510   13.8480  -32.3350 C   0  0  0  0  0  0  0  0  0  0  0  0
   -4.4320   14.8110  -33.2300 N   0  0  0  0  0  0  0  0  0  0  0  0
   -5.5950   14.2380  -33.9240 C   0  0  0  0  0  0  0  0  0  0  0  0
   -3.5120   15.5120  -34.1510 C   0  0  0  0  0  0  0  0  0  0  0  0
   -4.1830   16.7590  -34.7320 C   0  0  0  0  0  0  0  0  0  0  0  0
   -4.3500   17.7600  -33.7270 O   0  0  0  0  0  0  0  0  0  0  0  0
   -5.5650   18.1590  -33.1430 C   0  0  0  0  0  0  0  0  0  0  0  0
   -6.7210   17.3540  -33.2010 C   0  0  0  0  0  0  0  0  0  0  0  0
   -7.9180   17.7880  -32.6320 C   0  0  0  0  0  0  0  0  0  0  0  0
   -7.9800   19.0220  -31.9880 C   0  0  0  0  0  0  0  0  0  0  0  0
   -6.8430   19.8270  -31.9080 C   0  0  0  0  0  0  0  0  0  0  0  0
   -5.6260   19.4080  -32.4790 C   0  0  0  0  0  0  0  0  0  0  0  0
   -4.4230   20.2720  -32.3810 C   0  0  0  0  0  0  0  0  0  0  0  0
   -3.5240   20.3990  -33.4510 C   0  0  0  0  0  0  0  0  0  0  0  0
   -2.4050   21.2240  -33.3160 C   0  0  0  0  0  0  0  0  0  0  0  0
   -2.1830   21.9060  -32.1210 C   0  0  0  0  0  0  0  0  0  0  0  0
   -3.0850   21.7470  -31.0580 C   0  0  0  0  0  0  0  0  0  0  0  0
   -2.8940   22.4520  -29.7700 C   0  0  0  0  0  0  0  0  0  0  0  0
   -2.3330   21.7480  -28.6890 C   0  0  0  0  0  0  0  0  0  0  0  0
   -2.1340   22.3790  -27.4600 C   0  0  0  0  0  0  0  0  0  0  0  0
   -2.4820   23.7180  -27.2970 C   0  0  0  0  0  0  0  0  0  0  0  0
   -3.0210   24.4380  -28.3660 C   0  0  0  0  0  0  0  0  0  0  0  0
   -3.2250   23.8180  -29.6170 C   0  0  0  0  0  0  0  0  0  0  0  0
   -3.7200   24.5300  -30.7240 O   0  0  0  0  0  0  0  0  0  0  0  0
   -4.9880   25.1850  -30.7960 C   0  0  0  0  0  0  0  0  0  0  0  0
   -6.1060   24.1810  -30.8720 C   0  0  0  0  0  0  0  0  0  0  0  0
   -6.7190   23.9010  -32.1040 C   0  0  0  0  0  0  0  0  0  0  0  0
   -7.7610   22.9730  -32.1780 C   0  0  0  0  0  0  0  0  0  0  0  0
   -8.2060   22.3240  -31.0220 C   0  0  0  0  0  0  0  0  0  0  0  0
   -7.6130   22.6090  -29.7900 C   0  0  0  0  0  0  0  0  0  0  0  0
   -6.5690   23.5370  -29.7120 C   0  0  0  0  0  0  0  0  0  0  0  0
   -4.1780   20.9510  -31.2250 N   0  0  0  0  0  0  0  0  0  0  0  0
   -4.1601   13.6059  -30.2204 H   0  0  0  0  0  0  0  0  0  0  0  0
   -5.6240   13.7833  -31.2463 H   0  0  0  0  0  0  0  0  0  0  0  0
   -4.7092   12.2374  -31.2463 H   0  0  0  0  0  0  0  0  0  0  0  0
   -2.8675   14.3427  -31.9052 H   0  0  0  0  0  0  0  0  0  0  0  0
   -3.4943   12.9733  -32.9507 H   0  0  0  0  0  0  0  0  0  0  0  0
   -6.3240   13.8788  -33.1827 H   0  0  0  0  0  0  0  0  0  0  0  0
   -6.0624   15.0090  -34.5542 H   0  0  0  0  0  0  0  0  0  0  0  0
   -5.2685   13.3976  -34.5542 H   0  0  0  0  0  0  0  0  0  0  0  0
   -2.6072   15.8106  -33.6012 H   0  0  0  0  0  0  0  0  0  0  0  0
   -3.2479   14.8332  -34.9753 H   0  0  0  0  0  0  0  0  0  0  0  0
   -3.5564   17.1617  -35.5414 H   0  0  0  0  0  0  0  0  0  0  0  0
   -5.1740   16.4785  -35.1183 H   0  0  0  0  0  0  0  0  0  0  0  0
   -6.6784   16.3745  -33.6997 H   0  0  0  0  0  0  0  0  0  0  0  0
   -8.8153   17.1546  -32.6918 H   0  0  0  0  0  0  0  0  0  0  0  0
   -8.9263   19.3620  -31.5421 H   0  0  0  0  0  0  0  0  0  0  0  0
   -6.8980   20.7980  -31.3941 H   0  0  0  0  0  0  0  0  0  0  0  0
   -3.6993   19.8527  -34.3895 H   0  0  0  0  0  0  0  0  0  0  0  0
   -1.6993   21.3354  -34.1524 H   0  0  0  0  0  0  0  0  0  0  0  0
   -1.3079   22.5635  -32.0121 H   0  0  0  0  0  0  0  0  0  0  0  0
   -2.0491   20.6925  -28.8132 H   0  0  0  0  0  0  0  0  0  0  0  0
   -1.7015   21.8179  -26.6185 H   0  0  0  0  0  0  0  0  0  0  0  0
   -2.3321   24.2095  -26.3244 H   0  0  0  0  0  0  0  0  0  0  0  0
   -3.2884   25.4965  -28.2314 H   0  0  0  0  0  0  0  0  0  0  0  0
   -5.1233   25.8078  -29.8995 H   0  0  0  0  0  0  0  0  0  0  0  0
   -5.0117   25.8074  -31.7026 H   0  0  0  0  0  0  0  0  0  0  0  0
   -6.3774   24.4145  -33.0148 H   0  0  0  0  0  0  0  0  0  0  0  0
   -8.2321   22.7526  -33.1473 H   0  0  0  0  0  0  0  0  0  0  0  0
   -9.0226   21.5895  -31.0829 H   0  0  0  0  0  0  0  0  0  0  0  0
   -7.9673   22.1031  -28.8798 H   0  0  0  0  0  0  0  0  0  0  0  0
   -6.1088   23.7634  -28.7389 H   0  0  0  0  0  0  0  0  0  0  0  0
  1  2  1  0
  2  3  1  0
  3  4  1  0
  3  5  1  0
  5  6  1  0
  6  7  1  0
  7  8  1  0
  8  9  2  0
  9 10  1  0
 10 11  2  0
 11 12  1  0
 12 13  2  0
 13 14  1  0
 14 15  2  0
 15 16  1  0
 16 17  2  0
 17 18  1  0
 18 19  1  0
 19 20  2  0
 20 21  1  0
 21 22  2  0
 22 23  1  0
 23 24  2  0
 24 25  1  0
 25 26  1  0
 26 27  1  0
 27 28  2  0
 28 29  1  0
 29 30  2  0
 30 31  1  0
 31 32  2  0
 18 33  2  0
 13  8  1  0
 33 14  1  0
 24 19  1  0
 32 27  1  0
  1 34  1  0
  1 35  1  0
  1 36  1  0
  2 37  1  0
  2 38  1  0
  4 39  1  0
  4 40  1  0
  4 41  1  0
  5 42  1  0
  5 43  1  0
  6 44  1  0
  6 45  1  0
  9 46  1  0
 10 47  1  0
 11 48  1  0
 12 49  1  0
 15 50  1  0
 16 51  1  0
 17 52  1  0
 20 53  1  0
 21 54  1  0
 22 55  1  0
 23 56  1  0
 26 57  1  0
 26 58  1  0
 28 59  1  0
 29 60  1  0
 30 61  1  0
 31 62  1  0
 32 63  1  0
M  END
>  <UniqueID>  (22) 
22

>  <SMILES>  (22) 
CCN(C)CCOc1ccccc1-c1cccc(-c2ccccc2OCc2ccccc2)n1

>  <Energy>  (22) 
79.64033221117245

>  <Genealogy>  (22) 
CCN(C)CCOc1ccccc1-c1cccc(-c2ccccc2OCc2ccccc2)n1 (3D coordinates assigned)
CCN(C)CCOc1ccccc1-c1cccc(-c2ccccc2OCc2ccccc2)n1 (optimized conformer: 79.64033221117245 kcal/mol)

>  <smiles>  (22) 
CCN(C)CCOc1ccccc1-c1cccc(-c2ccccc2OCc2ccccc2)n1

>  <score_type>  (22) 
oracle

>  <origin>  (22) 
adg

>  <m_score__min__energy>  (22) 
-9.4800000000000004

>  <m_primary>  (22) 
energy

$$$$
22:0
     RDKit          3D

 62 65  0  0  0  0  0  0  0  0999 V2000
   -9.0400   18.1340  -31.6970 O   0  0  0  0  0  0  0  0  0  0  0  0
   -7.9810   18.8210  -31.6890 C   0  0  0  0  0  0  0  0  0  0  0  0
   -6.6470   18.1180  -31.7530 C   0  0  0  0  0  0  0  0  0  0  0  0
   -6.6660   16.8960  -32.6840 C   0  0  0  0  0  0  0  0  0  0  0  0
   -5.5560   16.9650  -33.6630 N   0  0  0  0  0  0  0  0  0  0  0  0
   -5.8380   17.9120  -34.7600 C   0  0  0  0  0  0  0  0  0  0  0  0
   -5.7880   19.3780  -34.2810 C   0  0  0  0  0  0  0  0  0  0  0  0
   -4.7030   19.6230  -33.2920 N   0  0  0  0  0  0  0  0  0  0  0  0
   -4.1640   21.0050  -33.3590 C   0  0  0  0  0  0  0  0  0  0  0  0
   -2.7800   21.2120  -32.7590 C   0  0  0  0  0  0  0  0  0  0  0  0
   -1.7600   21.1740  -33.5010 O   0  0  0  0  0  0  0  0  0  0  0  0
   -2.6060   21.4800  -31.3460 N   0  0  0  0  0  0  0  0  0  0  0  0
   -3.5300   20.8210  -30.3980 C   0  0  0  0  0  0  0  0  0  0  0  0
   -3.0940   20.9560  -28.9320 C   0  0  0  0  0  0  0  0  0  0  0  0
   -2.6400   22.3540  -28.6420 C   0  0  0  0  0  0  0  0  0  0  0  0
   -2.9530   22.9870  -27.4280 C   0  0  0  0  0  0  0  0  0  0  0  0
   -2.4740   24.2740  -27.1660 C   0  0  0  0  0  0  0  0  0  0  0  0
   -1.6680   24.9260  -28.1040 C   0  0  0  0  0  0  0  0  0  0  0  0
   -1.3400   24.2930  -29.3070 C   0  0  0  0  0  0  0  0  0  0  0  0
   -1.8330   23.0080  -29.5830 C   0  0  0  0  0  0  0  0  0  0  0  0
   -1.4700   22.2900  -30.8550 C   0  0  0  0  0  0  0  0  0  0  0  0
   -3.6430   18.5930  -33.3160 C   0  0  0  0  0  0  0  0  0  0  0  0
   -4.2320   17.1970  -33.0270 C   0  0  0  0  0  0  0  0  0  0  0  0
   -8.0810   20.3030  -31.6680 C   0  0  0  0  0  0  0  0  0  0  0  0
   -9.3000   20.9240  -31.9910 C   0  0  0  0  0  0  0  0  0  0  0  0
   -9.4160   22.3150  -31.9600 C   0  0  0  0  0  0  0  0  0  0  0  0
   -8.3160   23.1050  -31.6220 C   0  0  0  0  0  0  0  0  0  0  0  0
   -7.0760   22.5090  -31.3340 C   0  0  0  0  0  0  0  0  0  0  0  0
   -5.8930   23.3550  -30.9310 C   0  0  0  0  0  0  0  0  0  0  0  0
   -6.2660   24.6830  -30.8150 F   0  0  0  0  0  0  0  0  0  0  0  0
   -4.9080   23.2480  -31.8940 F   0  0  0  0  0  0  0  0  0  0  0  0
   -5.3800   22.9430  -29.7140 F   0  0  0  0  0  0  0  0  0  0  0  0
   -6.9730   21.1060  -31.3400 C   0  0  0  0  0  0  0  0  0  0  0  0
   -5.8918   18.8286  -32.1201 H   0  0  0  0  0  0  0  0  0  0  0  0
   -6.4102   17.7608  -30.7399 H   0  0  0  0  0  0  0  0  0  0  0  0
   -6.5597   15.9817  -32.0817 H   0  0  0  0  0  0  0  0  0  0  0  0
   -7.6199   16.8840  -33.2317 H   0  0  0  0  0  0  0  0  0  0  0  0
   -5.0888   17.7711  -35.5530 H   0  0  0  0  0  0  0  0  0  0  0  0
   -6.8528   17.7095  -35.1331 H   0  0  0  0  0  0  0  0  0  0  0  0
   -5.6224   20.0276  -35.1531 H   0  0  0  0  0  0  0  0  0  0  0  0
   -6.7450   19.5982  -33.7853 H   0  0  0  0  0  0  0  0  0  0  0  0
   -5.1460   19.5550  -32.3440 H   0  0  0  0  0  0  0  0  0  0  0  0
   -4.1186   21.2974  -34.4184 H   0  0  0  0  0  0  0  0  0  0  0  0
   -4.8453   21.6186  -32.7512 H   0  0  0  0  0  0  0  0  0  0  0  0
   -4.5261   21.2742  -30.5092 H   0  0  0  0  0  0  0  0  0  0  0  0
   -3.5337   19.7478  -30.6393 H   0  0  0  0  0  0  0  0  0  0  0  0
   -3.9435   20.7091  -28.2783 H   0  0  0  0  0  0  0  0  0  0  0  0
   -2.2573   20.2664  -28.7466 H   0  0  0  0  0  0  0  0  0  0  0  0
   -3.5754   22.4698  -26.6829 H   0  0  0  0  0  0  0  0  0  0  0  0
   -2.7316   24.7742  -26.2208 H   0  0  0  0  0  0  0  0  0  0  0  0
   -1.2914   25.9382  -27.8954 H   0  0  0  0  0  0  0  0  0  0  0  0
   -0.6949   24.8026  -30.0379 H   0  0  0  0  0  0  0  0  0  0  0  0
   -1.1977   23.0305  -31.6215 H   0  0  0  0  0  0  0  0  0  0  0  0
   -0.6223   21.6194  -30.6506 H   0  0  0  0  0  0  0  0  0  0  0  0
   -3.1686   18.5863  -34.3084 H   0  0  0  0  0  0  0  0  0  0  0  0
   -2.9010   18.8312  -32.5396 H   0  0  0  0  0  0  0  0  0  0  0  0
   -3.5288   16.4387  -33.4017 H   0  0  0  0  0  0  0  0  0  0  0  0
   -4.3809   17.1291  -31.9392 H   0  0  0  0  0  0  0  0  0  0  0  0
  -10.1687   20.3097  -32.2702 H   0  0  0  0  0  0  0  0  0  0  0  0
  -10.3779   22.7902  -32.2029 H   0  0  0  0  0  0  0  0  0  0  0  0
   -8.4200   24.1993  -31.5808 H   0  0  0  0  0  0  0  0  0  0  0  0
   -6.0143   20.6307  -31.0851 H   0  0  0  0  0  0  0  0  0  0  0  0
  1  2  2  0
  2  3  1  0
  3  4  1  0
  4  5  1  0
  5  6  1  0
  6  7  1  0
  7  8  1  0
  8  9  1  0
  9 10  1  0
 10 11  2  0
 10 12  1  0
 12 13  1  0
 13 14  1  0
 14 15  1  0
 15 16  2  0
 16 17  1  0
 17 18  2  0
 18 19  1  0
 19 20  2  0
 20 21  1  0
  8 22  1  0
 22 23  1  0
  2 24  1  0
 24 25  2  0
 25 26  1  0
 26 27  2  0
 27 28  1  0
 28 29  1  0
 29 30  1  0
 29 31  1  0
 29 32  1  0
 28 33  2  0
 23  5  1  0
 33 24  1  0
 21 12  1  0
 20 15  1  0
  3 34  1  0
  3 35  1  0
  4 36  1  0
  4 37  1  0
  6 38  1  0
  6 39  1  0
  7 40  1  0
  7 41  1  0
  8 42  1  0
  9 43  1  0
  9 44  1  0
 13 45  1  0
 13 46  1  0
 14 47  1  0
 14 48  1  0
 16 49  1  0
 17 50  1  0
 18 51  1  0
 19 52  1  0
 21 53  1  0
 21 54  1  0
 22 55  1  0
 22 56  1  0
 23 57  1  0
 23 58  1  0
 25 59  1  0
 26 60  1  0
 27 61  1  0
 33 62  1  0
M  CHG  1   8   1
M  END
>  <UniqueID>  (23) 
23

>  <SMILES>  (23) 
O=C(CCN1CC[NH+](CC(=O)N2CCc3ccccc3C2)CC1)c1cccc(C(F)(F)F)c1

>  <Energy>  (23) 
89.20848009799722

>  <Genealogy>  (23) 
O=C(CCN1CC[NH+](CC(=O)N2CCc3ccccc3C2)CC1)c1cccc(C(F)(F)F)c1 (protonated)
O=C(CCN1CC[NH+](CC(=O)N2CCc3ccccc3C2)CC1)c1cccc(C(F)(F)F)c1 (3D coordinates assigned)
O=C(CCN1CC[NH+](CC(=O)N2CCc3ccccc3C2)CC1)c1cccc(C(F)(F)F)c1 (nonaromatic ring conformer: 89.20848009799722 kcal/mol)

>  <smiles>  (23) 
O=C(CCN1CCN(CC(=O)N2CCc3ccccc3C2)CC1)c1cccc(C(F)(F)F)c1

>  <score_type>  (23) 
oracle

>  <origin>  (23) 
adg

>  <m_score__min__energy>  (23) 
-9.4600000000000009

>  <m_primary>  (23) 
energy

$$$$
23:0
     RDKit          3D

 38 40  0  0  0  0  0  0  0  0999 V2000
   -2.5760   24.8620  -28.9700 C   0  0  0  0  0  0  0  0  0  0  0  0
   -3.4840   25.2920  -29.9790 O   0  0  0  0  0  0  0  0  0  0  0  0
   -4.5770   24.5410  -30.4340 C   0  0  0  0  0  0  0  0  0  0  0  0
   -5.8620   25.0770  -30.2830 C   0  0  0  0  0  0  0  0  0  0  0  0
   -6.9870   24.3690  -30.7140 C   0  0  0  0  0  0  0  0  0  0  0  0
   -6.8390   23.1040  -31.3060 C   0  0  0  0  0  0  0  0  0  0  0  0
   -7.9360   22.3480  -31.7490 C   0  0  0  0  0  0  0  0  0  0  0  0
   -9.1140   22.7800  -31.6310 O   0  0  0  0  0  0  0  0  0  0  0  0
   -7.7170   21.0950  -32.3250 C   0  0  0  0  0  0  0  0  0  0  0  0
   -6.4020   20.6180  -32.4520 C   0  0  0  0  0  0  0  0  0  0  0  0
   -6.1180   19.2910  -33.0550 C   0  0  0  0  0  0  0  0  0  0  0  0
   -7.0910   18.2760  -33.0060 C   0  0  0  0  0  0  0  0  0  0  0  0
   -6.8640   17.0410  -33.6180 C   0  0  0  0  0  0  0  0  0  0  0  0
   -5.6660   16.8030  -34.2890 C   0  0  0  0  0  0  0  0  0  0  0  0
   -4.6890   17.7980  -34.3500 C   0  0  0  0  0  0  0  0  0  0  0  0
   -4.9030   19.0480  -33.7450 C   0  0  0  0  0  0  0  0  0  0  0  0
   -3.8580   20.0350  -33.7580 N   0  0  0  0  0  0  0  0  0  0  0  0
   -2.4650   19.7010  -33.8480 C   0  0  0  0  0  0  0  0  0  0  0  0
   -1.4400   20.7870  -33.8440 C   0  0  0  0  0  0  0  0  0  0  0  0
   -2.1000   18.5040  -34.0000 O   0  0  0  0  0  0  0  0  0  0  0  0
   -5.3850   21.3630  -32.0230 O   0  0  0  0  0  0  0  0  0  0  0  0
   -5.5460   22.5580  -31.4640 C   0  0  0  0  0  0  0  0  0  0  0  0
   -4.4250   23.2740  -31.0300 C   0  0  0  0  0  0  0  0  0  0  0  0
   -3.0064   25.0658  -27.9784 H   0  0  0  0  0  0  0  0  0  0  0  0
   -2.3945   23.7823  -29.0760 H   0  0  0  0  0  0  0  0  0  0  0  0
   -1.6257   25.4057  -29.0760 H   0  0  0  0  0  0  0  0  0  0  0  0
   -5.9872   26.0668  -29.8197 H   0  0  0  0  0  0  0  0  0  0  0  0
   -7.9900   24.8031  -30.5894 H   0  0  0  0  0  0  0  0  0  0  0  0
   -8.5649   20.4882  -32.6754 H   0  0  0  0  0  0  0  0  0  0  0  0
   -8.0402   18.4568  -32.4804 H   0  0  0  0  0  0  0  0  0  0  0  0
   -7.6321   16.2551  -33.5702 H   0  0  0  0  0  0  0  0  0  0  0  0
   -5.4902   15.8300  -34.7711 H   0  0  0  0  0  0  0  0  0  0  0  0
   -3.7432   17.6018  -34.8763 H   0  0  0  0  0  0  0  0  0  0  0  0
   -4.1250   21.0450  -33.7880 H   0  0  0  0  0  0  0  0  0  0  0  0
   -1.1902   21.0516  -32.8059 H   0  0  0  0  0  0  0  0  0  0  0  0
   -0.5342   20.4382  -34.3616 H   0  0  0  0  0  0  0  0  0  0  0  0
   -1.8405   21.6711  -34.3616 H   0  0  0  0  0  0  0  0  0  0  0  0
   -3.4198   22.8451  -31.1549 H   0  0  0  0  0  0  0  0  0  0  0  0
  1  2  1  0
  2  3  1  0
  3  4  2  0
  4  5  1  0
  5  6  2  0
  6  7  1  0
  7  8  2  0
  7  9  1  0
  9 10  2  0
 10 11  1  0
 11 12  2  0
 12 13  1  0
 13 14  2  0
 14 15  1  0
 15 16  2  0
 16 17  1  0
 17 18  1  0
 18 19  1  0
 18 20  2  0
 10 21  1  0
 21 22  1  0
 22 23  2  0
 23  3  1  0
 22  6  1  0
 16 11  1  0
  1 24  1  0
  1 25  1  0
  1 26  1  0
  4 27  1  0
  5 28  1  0
  9 29  1  0
 12 30  1  0
 13 31  1  0
 14 32  1  0
 15 33  1  0
 17 34  1  0
 19 35  1  0
 19 36  1  0
 19 37  1  0
 23 38  1  0
M  END
>  <UniqueID>  (24) 
24

>  <SMILES>  (24) 
COc1ccc2c(=O)cc(-c3ccccc3NC(C)=O)oc2c1

>  <Energy>  (24) 
51.675975842340215

>  <Genealogy>  (24) 
COc1ccc2c(=O)cc(-c3ccccc3NC(C)=O)oc2c1 (3D coordinates assigned)
COc1ccc2c(=O)cc(-c3ccccc3NC(C)=O)oc2c1 (optimized conformer: 51.675975842340215 kcal/mol)

>  <smiles>  (24) 
COc1ccc2c(=O)cc(-c3ccccc3NC(C)=O)oc2c1

>  <score_type>  (24) 
oracle

>  <origin>  (24) 
adg

>  <m_score__min__energy>  (24) 
-8.2899999999999991

>  <m_primary>  (24) 
energy

$$$$
24:0
     RDKit          3D

 65 66  0  0  0  0  0  0  0  0999 V2000
   -0.5650   21.1160  -29.7620 C   0  0  0  0  0  0  0  0  0  0  0  0
   -0.5890   19.6740  -30.2930 C   0  0  0  0  0  0  0  0  0  0  0  0
   -0.7800   19.6160  -31.7680 N   0  0  0  0  0  0  0  0  0  0  0  0
   -0.0650   18.4550  -32.3650 C   0  0  0  0  0  0  0  0  0  0  0  0
   -0.9890   17.3790  -32.9620 C   0  0  0  0  0  0  0  0  0  0  0  0
   -0.4170   20.9130  -32.3990 C   0  0  0  0  0  0  0  0  0  0  0  0
   -1.5210   21.4970  -33.2920 C   0  0  0  0  0  0  0  0  0  0  0  0
   -2.6310   20.6090  -33.3350 O   0  0  0  0  0  0  0  0  0  0  0  0
   -3.6630   20.6160  -32.3980 C   0  0  0  0  0  0  0  0  0  0  0  0
   -3.4990   20.1020  -31.2560 O   0  0  0  0  0  0  0  0  0  0  0  0
   -5.0110   21.1660  -32.7930 C   0  0  2  0  0  0  0  0  0  0  0  0
   -5.0160   22.6610  -32.4070 C   0  0  0  0  0  0  0  0  0  0  0  0
   -3.9060   22.9360  -31.5790 O   0  0  0  0  0  0  0  0  0  0  0  0
   -4.3880   23.9900  -30.3460 S   0  0  0  0  0  0  0  0  0  0  0  0
   -4.3780   25.4190  -30.8260 O   0  0  0  0  0  0  0  0  0  0  0  0
   -5.7750   23.6380  -29.8830 O   0  0  0  0  0  0  0  0  0  0  0  0
   -3.2500   23.8290  -29.0150 C   0  0  0  0  0  0  0  0  0  0  0  0
   -2.3890   24.8890  -28.7030 C   0  0  0  0  0  0  0  0  0  0  0  0
   -1.4910   24.7800  -27.6360 C   0  0  0  0  0  0  0  0  0  0  0  0
   -1.4490   23.6090  -26.8670 C   0  0  0  0  0  0  0  0  0  0  0  0
   -0.4810   23.4930  -25.7250 C   0  0  0  0  0  0  0  0  0  0  0  0
   -2.2870   22.5330  -27.2040 C   0  0  0  0  0  0  0  0  0  0  0  0
   -3.1850   22.6410  -28.2710 C   0  0  0  0  0  0  0  0  0  0  0  0
   -6.1180   20.4140  -32.1280 N   0  0  0  0  0  0  0  0  0  0  0  0
   -7.3700   21.2220  -32.0330 C   0  0  0  0  0  0  0  0  0  0  0  0
   -8.6280   20.4330  -31.6140 C   0  0  0  0  0  0  0  0  0  0  0  0
   -9.0360   19.3590  -32.6440 C   0  0  0  0  0  0  0  0  0  0  0  0
   -8.5650   18.0760  -32.2730 O   0  0  0  0  0  0  0  0  0  0  0  0
   -7.2230   18.1310  -31.8290 C   0  0  0  0  0  0  0  0  0  0  0  0
   -6.3040   19.0410  -32.6760 C   0  0  0  0  0  0  0  0  0  0  0  0
   -0.5652   21.1018  -28.6621 H   0  0  0  0  0  0  0  0  0  0  0  0
    0.3417   21.6242  -30.1219 H   0  0  0  0  0  0  0  0  0  0  0  0
   -1.4543   21.6541  -30.1219 H   0  0  0  0  0  0  0  0  0  0  0  0
    0.3655   19.1887  -30.0410 H   0  0  0  0  0  0  0  0  0  0  0  0
   -1.4396   19.1578  -29.8239 H   0  0  0  0  0  0  0  0  0  0  0  0
   -1.7960   19.4390  -31.9500 H   0  0  0  0  0  0  0  0  0  0  0  0
    0.5901   18.8289  -33.1656 H   0  0  0  0  0  0  0  0  0  0  0  0
    0.4905   17.9734  -31.5468 H   0  0  0  0  0  0  0  0  0  0  0  0
   -1.4713   16.8174  -32.1484 H   0  0  0  0  0  0  0  0  0  0  0  0
   -1.7595   17.8604  -33.5822 H   0  0  0  0  0  0  0  0  0  0  0  0
   -0.3967   16.6901  -33.5822 H   0  0  0  0  0  0  0  0  0  0  0  0
   -0.1966   21.6374  -31.6011 H   0  0  0  0  0  0  0  0  0  0  0  0
    0.4520   20.7229  -33.0461 H   0  0  0  0  0  0  0  0  0  0  0  0
   -1.8450   22.4660  -32.8844 H   0  0  0  0  0  0  0  0  0  0  0  0
   -1.1278   21.6338  -34.3102 H   0  0  0  0  0  0  0  0  0  0  0  0
   -5.1800   21.0525  -33.8740 H   0  0  0  0  0  0  0  0  0  0  0  0
   -4.9555   23.2752  -33.3176 H   0  0  0  0  0  0  0  0  0  0  0  0
   -5.9445   22.8975  -31.8667 H   0  0  0  0  0  0  0  0  0  0  0  0
   -2.4192   25.8122  -29.3003 H   0  0  0  0  0  0  0  0  0  0  0  0
   -0.8159   25.6157  -27.3998 H   0  0  0  0  0  0  0  0  0  0  0  0
   -1.0278   23.5585  -24.7728 H   0  0  0  0  0  0  0  0  0  0  0  0
    0.0401   22.5260  -25.7828 H   0  0  0  0  0  0  0  0  0  0  0  0
    0.2538   24.3095  -25.7828 H   0  0  0  0  0  0  0  0  0  0  0  0
   -2.2366   21.5992  -26.6248 H   0  0  0  0  0  0  0  0  0  0  0  0
   -3.8399   21.7950  -28.5268 H   0  0  0  0  0  0  0  0  0  0  0  0
   -7.2057   22.0193  -31.2932 H   0  0  0  0  0  0  0  0  0  0  0  0
   -7.5687   21.5994  -33.0470 H   0  0  0  0  0  0  0  0  0  0  0  0
   -8.4275   19.9382  -30.6522 H   0  0  0  0  0  0  0  0  0  0  0  0
   -9.4580   21.1512  -31.5407 H   0  0  0  0  0  0  0  0  0  0  0  0
  -10.1334   19.3300  -32.7140 H   0  0  0  0  0  0  0  0  0  0  0  0
   -8.5876   19.6234  -33.6131 H   0  0  0  0  0  0  0  0  0  0  0  0
   -7.2184   18.5055  -30.7947 H   0  0  0  0  0  0  0  0  0  0  0  0
   -6.8218   17.1107  -31.9190 H   0  0  0  0  0  0  0  0  0  0  0  0
   -5.3161   18.5622  -32.7454 H   0  0  0  0  0  0  0  0  0  0  0  0
   -6.7951   19.1584  -33.6532 H   0  0  0  0  0  0  0  0  0  0  0  0
  1  2  1  0
  2  3  1  0
  3  4  1  0
  4  5  1  0
  3  6  1  0
  6  7  1  0
  7  8  1  0
  8  9  1  0
  9 10  2  0
  9 11  1  0
 11 12  1  0
 12 13  1  0
 13 14  1  0
 14 15  2  0
 14 16  2  0
 14 17  1  0
 17 18  2  0
 18 19  1  0
 19 20  2  0
 20 21  1  0
 20 22  1  0
 22 23  2  0
 11 24  1  0
 24 25  1  0
 25 26  1  0
 26 27  1  0
 27 28  1  0
 28 29  1  0
 29 30  1  0
 23 17  1  0
 30 24  1  0
  1 31  1  0
  1 32  1  0
  1 33  1  0
  2 34  1  0
  2 35  1  0
  3 36  1  0
  4 37  1  0
  4 38  1  0
  5 39  1  0
  5 40  1  0
  5 41  1  0
  6 42  1  0
  6 43  1  0
  7 44  1  0
  7 45  1  0
 11 46  1  6
 12 47  1  0
 12 48  1  0
 18 49  1  0
 19 50  1  0
 21 51  1  0
 21 52  1  0
 21 53  1  0
 22 54  1  0
 23 55  1  0
 25 56  1  0
 25 57  1  0
 26 58  1  0
 26 59  1  0
 27 60  1  0
 27 61  1  0
 29 62  1  0
 29 63  1  0
 30 64  1  0
 30 65  1  0
M  CHG  1   3   1
M  END
>  <UniqueID>  (25) 
25

>  <SMILES>  (25) 
CC[NH+](CC)CCOC(=O)[C@H](COS(=O)(=O)c1ccc(C)cc1)N1CCCOCC1

>  <Energy>  (25) 
81.15672688758852

>  <Genealogy>  (25) 
CC[NH+](CC)CCOC(=O)C(COS(=O)(=O)c1ccc(C)cc1)N1CCCOCC1 (protonated)
CC[NH+](CC)CCOC(=O)[C@H](COS(=O)(=O)c1ccc(C)cc1)N1CCCOCC1 (chirality)
CC[NH+](CC)CCOC(=O)[C@H](COS(=O)(=O)c1ccc(C)cc1)N1CCCOCC1 (3D coordinates assigned)
CC[NH+](CC)CCOC(=O)[C@H](COS(=O)(=O)c1ccc(C)cc1)N1CCCOCC1 (nonaromatic ring conformer: 81.15672688758852 kcal/mol)

>  <smiles>  (25) 
CCN(CC)CCOC(=O)C(COS(=O)(=O)c1ccc(C)cc1)N1CCCOCC1

>  <score_type>  (25) 
oracle

>  <origin>  (25) 
adg

>  <m_score__min__energy>  (25) 
-6.3499999999999996

>  <m_primary>  (25) 
energy

$$$$
25:0
     RDKit          3D

 46 49  0  0  1  0  0  0  0  0999 V2000
   -1.5840   21.4940  -27.7360 C   0  0  0  0  0  0  0  0  0  0  0  0
   -0.7490   22.6400  -28.0170 N   0  0  0  0  0  0  0  0  0  0  0  0
    0.6050   22.6330  -27.5410 C   0  0  0  0  0  0  0  0  0  0  0  0
   -1.2020   23.7810  -28.7460 C   0  0  0  0  0  0  0  0  0  0  0  0
   -0.4400   24.7640  -28.9700 O   0  0  0  0  0  0  0  0  0  0  0  0
   -2.5590   23.8890  -29.2790 C   0  0  0  0  0  0  0  0  0  0  0  0
   -3.0570   22.9370  -30.1690 C   0  0  0  0  0  0  0  0  0  0  0  0
   -4.3420   23.3430  -30.4660 C   0  0  0  0  0  0  0  0  0  0  0  0
   -5.2950   22.7840  -31.2880 C   0  0  0  0  0  0  0  0  0  0  0  0
   -6.5560   23.3790  -31.4420 C   0  0  0  0  0  0  0  0  0  0  0  0
   -7.4430   22.7060  -32.3150 N   0  0  0  0  0  0  0  0  0  0  0  0
   -7.6540   21.4570  -32.3290 C   0  0  0  0  0  0  0  0  0  0  0  0
   -6.7860   20.5930  -32.9040 N   0  0  0  0  0  0  0  0  0  0  0  0
   -7.0360   19.2880  -32.9200 C   0  0  0  0  0  0  0  0  0  0  0  0
   -6.1500   18.2850  -33.5110 C   0  0  0  0  0  0  0  0  0  0  0  0
   -5.6230   18.4000  -34.7780 C   0  0  0  0  0  0  0  0  0  0  0  0
   -4.7870   17.4040  -35.2920 C   0  0  0  0  0  0  0  0  0  0  0  0
   -4.4700   16.2760  -34.5320 C   0  0  0  0  0  0  0  0  0  0  0  0
   -5.0300   16.2240  -33.2730 C   0  0  0  0  0  0  0  0  0  0  0  0
   -4.7870   15.1070  -32.3790 C   0  0  0  0  0  0  0  0  0  0  0  0
   -4.6150   14.2180  -31.6650 N   0  0  0  0  0  0  0  0  0  0  0  0
   -5.8300   17.1910  -32.8030 N   0  0  0  0  0  0  0  0  0  0  0  0
   -8.2130   18.8590  -32.3300 C   0  0  0  0  0  0  0  0  0  0  0  0
   -9.1170   19.7140  -31.7370 C   0  0  0  0  0  0  0  0  0  0  0  0
   -8.8090   21.0240  -31.7500 N   0  0  0  0  0  0  0  0  0  0  0  0
   -6.8450   24.5370  -30.7630 C   0  0  0  0  0  0  0  0  0  0  0  0
   -5.8670   25.0960  -29.9290 C   0  0  0  0  0  0  0  0  0  0  0  0
   -4.6220   24.5050  -29.7800 C   0  0  0  0  0  0  0  0  0  0  0  0
   -3.5060   24.8020  -29.0680 N   0  0  0  0  0  0  0  0  0  0  0  0
   -1.6771   21.3663  -26.6474 H   0  0  0  0  0  0  0  0  0  0  0  0
   -2.5811   21.6507  -28.1734 H   0  0  0  0  0  0  0  0  0  0  0  0
   -1.1293   20.5929  -28.1734 H   0  0  0  0  0  0  0  0  0  0  0  0
    0.6070   22.6330  -26.4410 H   0  0  0  0  0  0  0  0  0  0  0  0
    1.1182   21.7322  -27.9086 H   0  0  0  0  0  0  0  0  0  0  0  0
    1.1275   23.5285  -27.9086 H   0  0  0  0  0  0  0  0  0  0  0  0
   -2.5346   22.0486  -30.5535 H   0  0  0  0  0  0  0  0  0  0  0  0
   -5.0638   21.8565  -31.8323 H   0  0  0  0  0  0  0  0  0  0  0  0
   -5.8615   19.2821  -35.3904 H   0  0  0  0  0  0  0  0  0  0  0  0
   -4.3744   17.5101  -36.3062 H   0  0  0  0  0  0  0  0  0  0  0  0
   -3.8148   15.4791  -34.9137 H   0  0  0  0  0  0  0  0  0  0  0  0
   -8.4378   17.7822  -32.3348 H   0  0  0  0  0  0  0  0  0  0  0  0
  -10.0445   19.3438  -31.2758 H   0  0  0  0  0  0  0  0  0  0  0  0
   -9.4810   21.6850  -31.3060 H   0  0  0  0  0  0  0  0  0  0  0  0
   -7.8282   25.0182  -30.8718 H   0  0  0  0  0  0  0  0  0  0  0  0
   -6.0921   26.0230  -29.3813 H   0  0  0  0  0  0  0  0  0  0  0  0
   -3.4090   25.6300  -28.4470 H   0  0  0  0  0  0  0  0  0  0  0  0
  1  2  1  0
  2  3  1  0
  2  4  1  0
  4  5  2  0
  4  6  1  0
  6  7  2  0
  7  8  1  0
  8  9  2  0
  9 10  1  0
 10 11  1  0
 11 12  2  0
 12 13  1  0
 13 14  2  0
 14 15  1  0
 15 16  2  0
 16 17  1  0
 17 18  2  0
 18 19  1  0
 19 20  1  0
 20 21  3  0
 19 22  2  0
 14 23  1  0
 23 24  2  0
 24 25  1  0
 10 26  2  0
 26 27  1  0
 27 28  2  0
 28 29  1  0
 29  6  1  0
 28  8  1  0
 25 12  1  0
 22 15  1  0
  1 30  1  0
  1 31  1  0
  1 32  1  0
  3 33  1  0
  3 34  1  0
  3 35  1  0
  7 36  1  0
  9 37  1  0
 16 38  1  0
 17 39  1  0
 18 40  1  0
 23 41  1  0
 24 42  1  0
 25 43  1  0
 26 44  1  0
 27 45  1  0
 29 46  1  0
M  END
>  <smiles>  (26) 
CN(C)C(=O)c1cc2cc(N=c3nc(-c4cccc(C#N)n4)cc[nH]3)ccc2[nH]1

>  <score_type>  (26) 
oracle

>  <origin>  (26) 
adg

>  <m_score__min__energy>  (26) 
-9.6999999999999993

>  <m_primary>  (26) 
energy

$$$$
26:0
     RDKit          3D

 25 26  0  0  0  0  0  0  0  0999 V2000
   -8.6352   23.4949  -32.1811 H   0  0  0  0  0  0  0  0  0  0  0  0
   -8.0080   22.8020  -31.6010 C   0  0  0  0  0  0  0  0  0  0  0  0
   -7.3290   23.2480  -30.5870 N   0  0  0  0  0  0  0  0  0  0  0  0
   -6.0620   23.8530  -30.6930 N   0  0  0  0  0  0  0  0  0  0  0  0
   -4.8930   23.2080  -30.7980 C   0  0  0  0  0  0  0  0  0  0  0  0
   -4.7803   22.1139  -30.8142 H   0  0  0  0  0  0  0  0  0  0  0  0
   -3.8740   24.0860  -30.8810 N   0  0  0  0  0  0  0  0  0  0  0  0
   -4.4000   25.3040  -30.8270 N   0  0  0  0  0  0  0  0  0  0  0  0
   -5.7340   25.1580  -30.7120 C   0  0  0  0  0  0  0  0  0  0  0  0
   -6.4531   25.9875  -30.6434 H   0  0  0  0  0  0  0  0  0  0  0  0
   -7.9490   21.3780  -31.9850 C   0  0  0  0  0  0  0  0  0  0  0  0
   -8.9940   20.5190  -31.6100 C   0  0  0  0  0  0  0  0  0  0  0  0
   -9.8452   20.9126  -31.0351 H   0  0  0  0  0  0  0  0  0  0  0  0
   -8.9600   19.1680  -31.9620 C   0  0  0  0  0  0  0  0  0  0  0  0
   -9.7835   18.5027  -31.6632 H   0  0  0  0  0  0  0  0  0  0  0  0
   -7.8840   18.6590  -32.6920 C   0  0  0  0  0  0  0  0  0  0  0  0
   -7.8629   17.5940  -32.9665 H   0  0  0  0  0  0  0  0  0  0  0  0
   -6.8260   19.5040  -33.0780 C   0  0  0  0  0  0  0  0  0  0  0  0
   -5.7240   19.0420  -33.8110 O   0  0  0  0  0  0  0  0  0  0  0  0
   -5.7410   17.8910  -34.6500 C   0  0  0  0  0  0  0  0  0  0  0  0
   -5.7544   16.9839  -34.0279 H   0  0  0  0  0  0  0  0  0  0  0  0
   -6.6389   17.9134  -35.2850 H   0  0  0  0  0  0  0  0  0  0  0  0
   -4.8428   17.8868  -35.2850 H   0  0  0  0  0  0  0  0  0  0  0  0
   -6.8670   20.8580  -32.7220 C   0  0  0  0  0  0  0  0  0  0  0  0
   -6.0441   21.5236  -33.0216 H   0  0  0  0  0  0  0  0  0  0  0  0
  1  2  1  0
  2  3  2  0
  3  4  1  0
  4  5  1  0
  5  6  1  0
  5  7  2  0
  7  8  1  0
  8  9  2  0
  9 10  1  0
  2 11  1  0
 11 12  2  0
 12 13  1  0
 12 14  1  0
 14 15  1  0
 14 16  2  0
 16 17  1  0
 16 18  1  0
 18 19  1  0
 19 20  1  0
 20 21  1  0
 20 22  1  0
 20 23  1  0
 18 24  2  0
 24 25  1  0
  9  4  1  0
 24 11  1  0
M  END
>  <UniqueID>  (27) 
26

>  <SMILES>  (27) 
COc1cccc(/C=N/n2cnnc2)c1

>  <Energy>  (27) 
61.51988563310314

>  <Genealogy>  (27) 
COc1cccc(/C=N/n2cnnc2)c1 (cis-trans isomerization)
COc1cccc(/C=N/n2cnnc2)c1 (3D coordinates assigned)
COc1cccc(/C=N/n2cnnc2)c1 (optimized conformer: 61.51988563310314 kcal/mol)

>  <smiles>  (27) 
COc1cccc(C=Nn2cnnc2)c1

>  <score_type>  (27) 
oracle

>  <origin>  (27) 
adg

>  <m_score__min__energy>  (27) 
-6.5199999999999996

>  <m_primary>  (27) 
energy

$$$$
27:0
     RDKit          3D

 59 61  0  0  0  0  0  0  0  0999 V2000
   -8.7550   19.0210  -32.1400 C   0  0  0  0  0  0  0  0  0  0  0  0
   -8.9910   20.5250  -32.3150 C   0  0  0  0  0  0  0  0  0  0  0  0
   -7.9280   21.3900  -31.6090 C   0  0  0  0  0  0  0  0  0  0  0  0
   -8.1080   22.9170  -31.7780 C   0  0  0  0  0  0  0  0  0  0  0  0
   -6.8310   23.6420  -32.2310 C   0  0  0  0  0  0  0  0  0  0  0  0
   -6.3480   24.5550  -31.1840 N   0  0  0  0  0  0  0  0  0  0  0  0
   -5.5240   23.8320  -30.2030 C   0  0  0  0  0  0  0  0  0  0  0  0
   -4.0170   24.1010  -30.4230 C   0  0  1  0  0  0  0  0  0  0  0  0
   -3.7760   25.4390  -30.7920 O   0  0  0  0  0  0  0  0  0  0  0  0
   -3.1830   23.6690  -29.2260 C   0  0  0  0  0  0  0  0  0  0  0  0
   -2.7480   22.3450  -29.0540 C   0  0  0  0  0  0  0  0  0  0  0  0
   -1.9170   22.0100  -27.9710 C   0  0  0  0  0  0  0  0  0  0  0  0
   -1.4330   20.6160  -27.7970 C   0  0  0  0  0  0  0  0  0  0  0  0
   -2.1020   19.7210  -26.9370 C   0  0  0  0  0  0  0  0  0  0  0  0
   -1.6380   18.4140  -26.7730 C   0  0  0  0  0  0  0  0  0  0  0  0
   -0.5070   17.9810  -27.4690 C   0  0  0  0  0  0  0  0  0  0  0  0
    0.1600   18.8550  -28.3320 C   0  0  0  0  0  0  0  0  0  0  0  0
   -0.2970   20.1640  -28.4950 C   0  0  0  0  0  0  0  0  0  0  0  0
   -1.5410   22.9830  -27.0880 N   0  0  0  0  0  0  0  0  0  0  0  0
   -1.9450   24.2790  -27.2270 C   0  0  0  0  0  0  0  0  0  0  0  0
   -1.4700   25.3110  -26.2770 C   0  0  0  0  0  0  0  0  0  0  0  0
   -1.2220   24.9810  -24.9350 C   0  0  0  0  0  0  0  0  0  0  0  0
   -0.7540   25.9530  -24.0440 C   0  0  0  0  0  0  0  0  0  0  0  0
   -0.5250   27.2590  -24.4840 C   0  0  0  0  0  0  0  0  0  0  0  0
   -0.7720   27.6070  -25.8220 C   0  0  0  0  0  0  0  0  0  0  0  0
   -0.4700   28.9900  -26.3170 C   0  0  0  0  0  0  0  0  0  0  0  0
   -1.2380   26.6290  -26.7160 C   0  0  0  0  0  0  0  0  0  0  0  0
   -2.7830   24.6340  -28.2940 C   0  0  0  0  0  0  0  0  0  0  0  0
   -8.7169   18.7781  -31.0678 H   0  0  0  0  0  0  0  0  0  0  0  0
   -9.5766   18.4634  -32.6133 H   0  0  0  0  0  0  0  0  0  0  0  0
   -7.8021   18.7419  -32.6133 H   0  0  0  0  0  0  0  0  0  0  0  0
   -8.9755   20.7591  -33.3897 H   0  0  0  0  0  0  0  0  0  0  0  0
   -9.9628   20.7601  -31.8563 H   0  0  0  0  0  0  0  0  0  0  0  0
   -7.9603   21.1598  -30.5338 H   0  0  0  0  0  0  0  0  0  0  0  0
   -6.9664   21.1404  -32.0812 H   0  0  0  0  0  0  0  0  0  0  0  0
   -8.8926   23.0935  -32.5285 H   0  0  0  0  0  0  0  0  0  0  0  0
   -8.3744   23.3211  -30.7902 H   0  0  0  0  0  0  0  0  0  0  0  0
   -6.0511   22.8970  -32.4474 H   0  0  0  0  0  0  0  0  0  0  0  0
   -7.0606   24.2297  -33.1321 H   0  0  0  0  0  0  0  0  0  0  0  0
   -5.7470   25.2810  -31.6440 H   0  0  0  0  0  0  0  0  0  0  0  0
   -5.8020   24.1607  -29.1908 H   0  0  0  0  0  0  0  0  0  0  0  0
   -5.7046   22.7541  -30.3272 H   0  0  0  0  0  0  0  0  0  0  0  0
   -3.6933   23.4770  -31.2691 H   0  0  0  0  0  0  0  0  0  0  0  0
   -4.3290   25.6420  -31.5920 H   0  0  0  0  0  0  0  0  0  0  0  0
   -3.0583   21.5682  -29.7684 H   0  0  0  0  0  0  0  0  0  0  0  0
   -2.9966   20.0549  -26.3909 H   0  0  0  0  0  0  0  0  0  0  0  0
   -2.1635   17.7251  -26.0953 H   0  0  0  0  0  0  0  0  0  0  0  0
   -0.1412   16.9519  -27.3379 H   0  0  0  0  0  0  0  0  0  0  0  0
    1.0470   18.5107  -28.8840 H   0  0  0  0  0  0  0  0  0  0  0  0
    0.2344   20.8473  -29.1738 H   0  0  0  0  0  0  0  0  0  0  0  0
   -0.8800   22.7440  -26.3150 H   0  0  0  0  0  0  0  0  0  0  0  0
   -1.3964   23.9537  -24.5825 H   0  0  0  0  0  0  0  0  0  0  0  0
   -0.5657   25.6879  -22.9932 H   0  0  0  0  0  0  0  0  0  0  0  0
   -0.1501   28.0169  -23.7804 H   0  0  0  0  0  0  0  0  0  0  0  0
   -0.3231   29.6626  -25.4591 H   0  0  0  0  0  0  0  0  0  0  0  0
    0.4448   28.9693  -26.9275 H   0  0  0  0  0  0  0  0  0  0  0  0
   -1.3101   29.3525  -26.9275 H   0  0  0  0  0  0  0  0  0  0  0  0
   -1.4232   26.8945  -27.7673 H   0  0  0  0  0  0  0  0  0  0  0  0
   -3.1269   25.6736  -28.3989 H   0  0  0  0  0  0  0  0  0  0  0  0
  1  2  1  0
  2  3  1  0
  3  4  1  0
  4  5  1  0
  5  6  1  0
  6  7  1  0
  7  8  1  0
  8  9  1  0
  8 10  1  0
 10 11  2  0
 11 12  1  0
 12 13  1  0
 13 14  2  0
 14 15  1  0
 15 16  2  0
 16 17  1  0
 17 18  2  0
 12 19  2  0
 19 20  1  0
 20 21  1  0
 21 22  2  0
 22 23  1  0
 23 24  2  0
 24 25  1  0
 25 26  1  0
 25 27  2  0
 20 28  2  0
 28 10  1  0
 18 13  1  0
 27 21  1  0
  1 29  1  0
  1 30  1  0
  1 31  1  0
  2 32  1  0
  2 33  1  0
  3 34  1  0
  3 35  1  0
  4 36  1  0
  4 37  1  0
  5 38  1  0
  5 39  1  0
  6 40  1  0
  7 41  1  0
  7 42  1  0
  8 43  1  6
  9 44  1  0
 11 45  1  0
 14 46  1  0
 15 47  1  0
 16 48  1  0
 17 49  1  0
 18 50  1  0
 19 51  1  0
 22 52  1  0
 23 53  1  0
 24 54  1  0
 26 55  1  0
 26 56  1  0
 26 57  1  0
 27 58  1  0
 28 59  1  0
M  CHG  1  19   1
M  END
>  <UniqueID>  (28) 
27

>  <SMILES>  (28) 
CCCCCNC[C@@H](O)c1cc(-c2ccccc2)[nH+]c(-c2cccc(C)c2)c1

>  <Energy>  (28) 
60.53649356854682

>  <Genealogy>  (28) 
CCCCCNCC(O)c1cc(-c2ccccc2)[nH+]c(-c2cccc(C)c2)c1 (protonated)
CCCCCNC[C@@H](O)c1cc(-c2ccccc2)[nH+]c(-c2cccc(C)c2)c1 (chirality)
CCCCCNC[C@@H](O)c1cc(-c2ccccc2)[nH+]c(-c2cccc(C)c2)c1 (3D coordinates assigned)
CCCCCNC[C@@H](O)c1cc(-c2ccccc2)[nH+]c(-c2cccc(C)c2)c1 (optimized conformer: 60.53649356854682 kcal/mol)

>  <smiles>  (28) 
CCCCCNCC(O)c1cc(-c2ccccc2)nc(-c2cccc(C)c2)c1

>  <score_type>  (28) 
oracle

>  <origin>  (28) 
adg

>  <m_score__min__energy>  (28) 
-9.8499999999999996

>  <m_primary>  (28) 
energy

$$$$
28:0
     RDKit          3D

 37 38  0  0  0  0  0  0  0  0999 V2000
   -1.4230   25.2600  -28.4100 C   0  0  0  0  0  0  0  0  0  0  0  0
   -2.4390   25.0960  -29.3750 O   0  0  0  0  0  0  0  0  0  0  0  0
   -3.2250   23.9600  -29.0710 C   0  0  0  0  0  0  0  0  0  0  0  0
   -3.7680   23.3320  -30.3370 C   0  0  0  0  0  0  0  0  0  0  0  0
   -2.8810   22.6200  -31.1540 C   0  0  0  0  0  0  0  0  0  0  0  0
   -3.3280   22.0580  -32.3540 C   0  0  0  0  0  0  0  0  0  0  0  0
   -2.3850   21.2580  -33.2040 C   0  0  0  0  0  0  0  0  0  0  0  0
   -4.6320   22.1950  -32.7180 N   0  0  0  0  0  0  0  0  0  0  0  0
   -5.5220   22.8990  -31.9650 C   0  0  0  0  0  0  0  0  0  0  0  0
   -7.2090   23.0760  -32.5690 S   0  0  0  0  0  0  0  0  0  0  0  0
   -7.5540   21.3240  -32.4010 C   0  0  0  0  0  0  0  0  0  0  0  0
   -6.8750   20.3960  -33.2030 C   0  0  0  0  0  0  0  0  0  0  0  0
   -7.1500   19.0320  -33.0810 C   0  0  0  0  0  0  0  0  0  0  0  0
   -8.0980   18.5880  -32.1550 C   0  0  0  0  0  0  0  0  0  0  0  0
   -8.7710   19.5110  -31.3470 C   0  0  0  0  0  0  0  0  0  0  0  0
   -8.4970   20.8770  -31.4670 C   0  0  0  0  0  0  0  0  0  0  0  0
   -5.1160   23.4740  -30.7430 C   0  0  0  0  0  0  0  0  0  0  0  0
   -6.3100   24.3690  -29.7230 S   0  0  0  0  0  0  0  0  0  0  0  0
   -5.6970   26.0060  -30.2250 C   0  0  0  0  0  0  0  0  0  0  0  0
   -1.8593   25.1896  -27.4027 H   0  0  0  0  0  0  0  0  0  0  0  0
   -0.6657   24.4725  -28.5375 H   0  0  0  0  0  0  0  0  0  0  0  0
   -0.9519   26.2458  -28.5375 H   0  0  0  0  0  0  0  0  0  0  0  0
   -2.6048   23.2232  -28.5395 H   0  0  0  0  0  0  0  0  0  0  0  0
   -4.0701   24.2726  -28.4401 H   0  0  0  0  0  0  0  0  0  0  0  0
   -1.8301   22.5025  -30.8511 H   0  0  0  0  0  0  0  0  0  0  0  0
   -1.7066   20.6825  -32.5570 H   0  0  0  0  0  0  0  0  0  0  0  0
   -2.9596   20.5677  -33.8390 H   0  0  0  0  0  0  0  0  0  0  0  0
   -1.7975   21.9374  -33.8390 H   0  0  0  0  0  0  0  0  0  0  0  0
   -4.9620   21.7590  -33.6090 H   0  0  0  0  0  0  0  0  0  0  0  0
   -6.1249   20.7424  -33.9291 H   0  0  0  0  0  0  0  0  0  0  0  0
   -6.6196   18.3061  -33.7148 H   0  0  0  0  0  0  0  0  0  0  0  0
   -8.3149   17.5137  -32.0615 H   0  0  0  0  0  0  0  0  0  0  0  0
   -9.5161   19.1619  -30.6169 H   0  0  0  0  0  0  0  0  0  0  0  0
   -9.0226   21.6011  -30.8272 H   0  0  0  0  0  0  0  0  0  0  0  0
   -5.4730   26.6041  -29.3294 H   0  0  0  0  0  0  0  0  0  0  0  0
   -4.7825   25.8870  -30.8246 H   0  0  0  0  0  0  0  0  0  0  0  0
   -6.4647   26.5170  -30.8246 H   0  0  0  0  0  0  0  0  0  0  0  0
  1  2  1  0
  2  3  1  0
  3  4  1  0
  4  5  2  0
  5  6  1  0
  6  7  1  0
  6  8  2  0
  8  9  1  0
  9 10  1  0
 10 11  1  0
 11 12  2  0
 12 13  1  0
 13 14  2  0
 14 15  1  0
 15 16  2  0
  9 17  2  0
 17 18  1  0
 18 19  1  0
 17  4  1  0
 16 11  1  0
  1 20  1  0
  1 21  1  0
  1 22  1  0
  3 23  1  0
  3 24  1  0
  5 25  1  0
  7 26  1  0
  7 27  1  0
  7 28  1  0
  8 29  1  0
 12 30  1  0
 13 31  1  0
 14 32  1  0
 15 33  1  0
 16 34  1  0
 19 35  1  0
 19 36  1  0
 19 37  1  0
M  CHG  1   8   1
M  END
>  <UniqueID>  (29) 
28

>  <SMILES>  (29) 
COCc1cc(C)[nH+]c(Sc2ccccc2)c1SC

>  <Energy>  (29) 
31.272626034172692

>  <Genealogy>  (29) 
COCc1cc(C)[nH+]c(Sc2ccccc2)c1SC (protonated)
COCc1cc(C)[nH+]c(Sc2ccccc2)c1SC (3D coordinates assigned)
COCc1cc(C)[nH+]c(Sc2ccccc2)c1SC (optimized conformer: 31.272626034172692 kcal/mol)

>  <smiles>  (29) 
COCc1cc(C)nc(Sc2ccccc2)c1SC

>  <score_type>  (29) 
oracle

>  <origin>  (29) 
adg

>  <m_score__min__energy>  (29) 
-7.1600000000000001

>  <m_primary>  (29) 
energy

$$$$
29:0
     RDKit          3D

 67 70  0  0  0  0  0  0  0  0999 V2000
   -1.2970   20.2450  -30.9780 C   0  0  0  0  0  0  0  0  0  0  0  0
   -1.9170   21.4850  -31.6360 C   0  0  0  0  0  0  0  0  0  0  0  0
   -3.2560   21.8020  -31.0830 N   0  0  0  0  0  0  0  0  0  0  0  0
   -3.2940   22.9350  -30.1220 C   0  0  1  0  0  0  0  0  0  0  0  0
   -1.8900   23.3400  -29.5960 C   0  0  0  0  0  0  0  0  0  0  0  0
   -1.9670   24.2230  -28.3760 C   0  0  0  0  0  0  0  0  0  0  0  0
   -0.9280   25.1240  -28.0840 C   0  0  0  0  0  0  0  0  0  0  0  0
   -0.9870   25.9210  -26.9350 C   0  0  0  0  0  0  0  0  0  0  0  0
   -2.0830   25.8260  -26.0730 C   0  0  0  0  0  0  0  0  0  0  0  0
   -3.1170   24.9270  -26.3530 C   0  0  0  0  0  0  0  0  0  0  0  0
   -3.0600   24.1250  -27.4990 C   0  0  0  0  0  0  0  0  0  0  0  0
   -4.0390   24.1270  -30.6990 C   0  0  0  0  0  0  0  0  0  0  0  0
   -3.6840   25.2910  -30.3820 O   0  0  0  0  0  0  0  0  0  0  0  0
   -5.0610   23.9770  -31.6960 N   0  0  0  0  0  0  0  0  0  0  0  0
   -6.4970   24.1910  -31.5060 C   0  0  0  0  0  0  0  0  0  0  0  0
   -6.8720   23.8680  -30.0450 C   0  0  0  0  0  0  0  0  0  0  0  0
   -7.4360   22.4510  -29.9110 C   0  0  0  0  0  0  0  0  0  0  0  0
   -8.6920   22.2930  -30.6870 N   0  0  0  0  0  0  0  0  0  0  0  0
   -9.0600   20.8680  -30.8520 C   0  0  0  0  0  0  0  0  0  0  0  0
   -9.1120   20.4490  -32.3320 C   0  0  0  0  0  0  0  0  0  0  0  0
   -8.3450   19.1440  -32.5870 C   0  0  0  0  0  0  0  0  0  0  0  0
   -6.8740   19.4110  -32.6950 C   0  0  0  0  0  0  0  0  0  0  0  0
   -6.1360   20.3420  -31.9700 C   0  0  0  0  0  0  0  0  0  0  0  0
   -4.8550   20.2390  -32.2740 O   0  0  0  0  0  0  0  0  0  0  0  0
   -4.7280   19.2750  -33.1550 C   0  0  0  0  0  0  0  0  0  0  0  0
   -3.5550   18.8130  -33.7510 C   0  0  0  0  0  0  0  0  0  0  0  0
   -3.6550   17.7490  -34.6660 C   0  0  0  0  0  0  0  0  0  0  0  0
   -4.9140   17.1760  -34.9640 C   0  0  0  0  0  0  0  0  0  0  0  0
   -6.0820   17.6640  -34.3490 C   0  0  0  0  0  0  0  0  0  0  0  0
   -5.9470   18.7220  -33.4480 C   0  0  0  0  0  0  0  0  0  0  0  0
   -8.6960   23.0200  -31.9880 C   0  0  0  0  0  0  0  0  0  0  0  0
   -7.2840   23.3270  -32.5120 C   0  0  0  0  0  0  0  0  0  0  0  0
   -1.3477   20.3465  -29.8839 H   0  0  0  0  0  0  0  0  0  0  0  0
   -1.8528   19.3482  -31.2892 H   0  0  0  0  0  0  0  0  0  0  0  0
   -0.2461   20.1515  -31.2892 H   0  0  0  0  0  0  0  0  0  0  0  0
   -1.2518   22.3449  -31.4684 H   0  0  0  0  0  0  0  0  0  0  0  0
   -2.0360   21.2741  -32.7090 H   0  0  0  0  0  0  0  0  0  0  0  0
   -3.6340   20.9460  -30.6150 H   0  0  0  0  0  0  0  0  0  0  0  0
   -3.9280   22.0000  -31.8600 H   0  0  0  0  0  0  0  0  0  0  0  0
   -3.8535   22.5747  -29.2461 H   0  0  0  0  0  0  0  0  0  0  0  0
   -1.3327   22.4276  -29.3373 H   0  0  0  0  0  0  0  0  0  0  0  0
   -1.3848   23.9085  -30.3907 H   0  0  0  0  0  0  0  0  0  0  0  0
   -0.0650   25.2029  -28.7615 H   0  0  0  0  0  0  0  0  0  0  0  0
   -0.1702   26.6226  -26.7103 H   0  0  0  0  0  0  0  0  0  0  0  0
   -2.1323   26.4584  -25.1743 H   0  0  0  0  0  0  0  0  0  0  0  0
   -3.9769   24.8499  -25.6713 H   0  0  0  0  0  0  0  0  0  0  0  0
   -3.8733   23.4161  -27.7133 H   0  0  0  0  0  0  0  0  0  0  0  0
   -6.7580   25.2427  -31.6955 H   0  0  0  0  0  0  0  0  0  0  0  0
   -5.9729   23.9557  -29.4174 H   0  0  0  0  0  0  0  0  0  0  0  0
   -7.6460   24.5797  -29.7218 H   0  0  0  0  0  0  0  0  0  0  0  0
   -6.6915   21.7325  -30.2846 H   0  0  0  0  0  0  0  0  0  0  0  0
   -7.6586   22.2656  -28.8498 H   0  0  0  0  0  0  0  0  0  0  0  0
   -8.3142   20.2472  -30.3340 H   0  0  0  0  0  0  0  0  0  0  0  0
  -10.0640   20.7268  -30.4254 H   0  0  0  0  0  0  0  0  0  0  0  0
  -10.1629   20.3063  -32.6241 H   0  0  0  0  0  0  0  0  0  0  0  0
   -8.6383   21.2436  -32.9271 H   0  0  0  0  0  0  0  0  0  0  0  0
   -8.5264   18.4490  -31.7539 H   0  0  0  0  0  0  0  0  0  0  0  0
   -8.6966   18.7040  -33.5319 H   0  0  0  0  0  0  0  0  0  0  0  0
   -6.5578   21.0584  -31.2496 H   0  0  0  0  0  0  0  0  0  0  0  0
   -2.5815   19.2665  -33.5131 H   0  0  0  0  0  0  0  0  0  0  0  0
   -2.7486   17.3600  -35.1529 H   0  0  0  0  0  0  0  0  0  0  0  0
   -4.9802   16.3441  -35.6807 H   0  0  0  0  0  0  0  0  0  0  0  0
   -7.0669   17.2271  -34.5704 H   0  0  0  0  0  0  0  0  0  0  0  0
   -9.2190   22.4020  -32.7327 H   0  0  0  0  0  0  0  0  0  0  0  0
   -9.2013   23.9832  -31.8237 H   0  0  0  0  0  0  0  0  0  0  0  0
   -6.7460   22.3809  -32.6718 H   0  0  0  0  0  0  0  0  0  0  0  0
   -7.3740   23.8834  -33.4566 H   0  0  0  0  0  0  0  0  0  0  0  0
  1  2  1  0
  2  3  1  0
  3  4  1  0
  4  5  1  0
  5  6  1  0
  6  7  2  0
  7  8  1  0
  8  9  2  0
  9 10  1  0
 10 11  2  0
  4 12  1  0
 12 13  2  0
 12 14  1  0
 14 15  1  0
 15 16  1  0
 16 17  1  0
 17 18  1  0
 18 19  1  0
 19 20  1  0
 20 21  1  0
 21 22  1  0
 22 23  2  0
 23 24  1  0
 24 25  1  0
 25 26  2  0
 26 27  1  0
 27 28  2  0
 28 29  1  0
 29 30  2  0
 18 31  1  0
 31 32  1  0
 11  6  1  0
 32 15  1  0
 30 22  1  0
 30 25  1  0
  1 33  1  0
  1 34  1  0
  1 35  1  0
  2 36  1  0
  2 37  1  0
  3 38  1  0
  3 39  1  0
  4 40  1  1
  5 41  1  0
  5 42  1  0
  7 43  1  0
  8 44  1  0
  9 45  1  0
 10 46  1  0
 11 47  1  0
 15 48  1  0
 16 49  1  0
 16 50  1  0
 17 51  1  0
 17 52  1  0
 19 53  1  0
 19 54  1  0
 20 55  1  0
 20 56  1  0
 21 57  1  0
 21 58  1  0
 23 59  1  0
 26 60  1  0
 27 61  1  0
 28 62  1  0
 29 63  1  0
 31 64  1  0
 31 65  1  0
 32 66  1  0
 32 67  1  0
M  CHG  2   3   1  14  -1
M  END
>  <UniqueID>  (30) 
29

>  <SMILES>  (30) 
CC[NH2+][C@@H](Cc1ccccc1)C(=O)[N-]C1CCN(CCCc2coc3ccccc23)CC1

>  <Energy>  (30) 
109.50338832092847

>  <Genealogy>  (30) 
CC[NH2+]C(Cc1ccccc1)C(=O)[N-]C1CCN(CCCc2coc3ccccc23)CC1 (protonated)
CC[NH2+][C@@H](Cc1ccccc1)C(=O)[N-]C1CCN(CCCc2coc3ccccc23)CC1 (chirality)
CC[NH2+][C@@H](Cc1ccccc1)C(=O)[N-]C1CCN(CCCc2coc3ccccc23)CC1 (3D coordinates assigned)
CC[NH2+][C@@H](Cc1ccccc1)C(=O)[N-]C1CCN(CCCc2coc3ccccc23)CC1 (nonaromatic ring conformer: 109.50338832092847 kcal/mol)

>  <smiles>  (30) 
CCNC(Cc1ccccc1)C(=O)NC1CCN(CCCc2coc3ccccc23)CC1

>  <score_type>  (30) 
oracle

>  <origin>  (30) 
adg

>  <m_score__min__energy>  (30) 
-12.18

>  <m_primary>  (30) 
energy

$$$$
30:0
     RDKit          3D

 65 66  0  0  0  0  0  0  0  0999 V2000
   -3.4573   22.6878  -33.0711 H   0  0  0  0  0  0  0  0  0  0  0  0
   -4.1730   22.2230  -32.3770 C   0  0  0  0  0  0  0  0  0  0  0  0
   -4.1910   20.9310  -32.2480 N   0  0  0  0  0  0  0  0  0  0  0  0
   -5.4210   20.1800  -32.0050 C   0  0  0  0  0  0  0  0  0  0  0  0
   -6.0191   20.7032  -31.2444 H   0  0  0  0  0  0  0  0  0  0  0  0
   -5.1561   19.1714  -31.6551 H   0  0  0  0  0  0  0  0  0  0  0  0
   -6.2470   20.0540  -33.2990 C   0  0  0  0  0  0  0  0  0  0  0  0
   -5.6305   20.3979  -34.1426 H   0  0  0  0  0  0  0  0  0  0  0  0
   -7.1509   20.6678  -33.1720 H   0  0  0  0  0  0  0  0  0  0  0  0
   -6.6910   18.6640  -33.5740 N   0  0  0  0  0  0  0  0  0  0  0  0
   -6.4670   17.7810  -32.4050 C   0  0  0  0  0  0  0  0  0  0  0  0
   -7.2640   17.0232  -32.3824 H   0  0  0  0  0  0  0  0  0  0  0  0
   -6.4752   18.4192  -31.5091 H   0  0  0  0  0  0  0  0  0  0  0  0
   -5.1020   17.0560  -32.4370 C   0  0  0  0  0  0  0  0  0  0  0  0
   -5.2411   16.0435  -32.8438 H   0  0  0  0  0  0  0  0  0  0  0  0
   -4.7055   17.0063  -31.4121 H   0  0  0  0  0  0  0  0  0  0  0  0
   -4.1400   17.7870  -33.2800 N   0  0  0  0  0  0  0  0  0  0  0  0
   -2.7920   17.1880  -33.1640 C   0  0  0  0  0  0  0  0  0  0  0  0
   -2.6603   16.4552  -33.9737 H   0  0  0  0  0  0  0  0  0  0  0  0
   -2.7203   16.7128  -32.1745 H   0  0  0  0  0  0  0  0  0  0  0  0
   -1.6690   18.2420  -33.2620 C   0  0  0  0  0  0  0  0  0  0  0  0
   -1.0991   18.0559  -34.1843 H   0  0  0  0  0  0  0  0  0  0  0  0
   -1.0537   18.1374  -32.3562 H   0  0  0  0  0  0  0  0  0  0  0  0
   -2.1560   19.6360  -33.2900 N   0  0  0  0  0  0  0  0  0  0  0  0
   -2.2300   19.9900  -32.3090 H   0  0  0  0  0  0  0  0  0  0  0  0
   -3.1280   19.6430  -33.6770 H   0  0  0  0  0  0  0  0  0  0  0  0
   -1.3150   20.5790  -34.0530 C   0  0  0  0  0  0  0  0  0  0  0  0
   -1.9523   21.4077  -34.3953 H   0  0  0  0  0  0  0  0  0  0  0  0
   -0.8737   20.0044  -34.8807 H   0  0  0  0  0  0  0  0  0  0  0  0
   -0.1350   21.1760  -33.2560 C   0  0  0  0  0  0  0  0  0  0  0  0
   -0.1505   22.2673  -33.3931 H   0  0  0  0  0  0  0  0  0  0  0  0
    0.7717   20.6937  -33.6501 H   0  0  0  0  0  0  0  0  0  0  0  0
   -0.1460   20.8860  -31.7380 C   0  0  0  0  0  0  0  0  0  0  0  0
    0.7226   21.3869  -31.2857 H   0  0  0  0  0  0  0  0  0  0  0  0
   -0.1158   19.7920  -31.6270 H   0  0  0  0  0  0  0  0  0  0  0  0
   -1.3580   21.3460  -31.0400 N   0  0  0  0  0  0  0  0  0  0  0  0
   -2.1530   21.4260  -31.7120 H   0  0  0  0  0  0  0  0  0  0  0  0
   -1.7450   20.4640  -29.9370 C   0  0  0  0  0  0  0  0  0  0  0  0
   -1.5280   20.9585  -28.9787 H   0  0  0  0  0  0  0  0  0  0  0  0
   -2.8213   20.2464  -30.0019 H   0  0  0  0  0  0  0  0  0  0  0  0
   -1.1764   19.5246  -30.0019 H   0  0  0  0  0  0  0  0  0  0  0  0
   -4.6010   17.8140  -34.6860 C   0  0  0  0  0  0  0  0  0  0  0  0
   -4.3640   16.8476  -35.1549 H   0  0  0  0  0  0  0  0  0  0  0  0
   -4.0863   18.6430  -35.1937 H   0  0  0  0  0  0  0  0  0  0  0  0
   -6.1200   18.0610  -34.7980 C   0  0  0  0  0  0  0  0  0  0  0  0
   -6.6204   17.0991  -34.9831 H   0  0  0  0  0  0  0  0  0  0  0  0
   -6.2820   18.7688  -35.6243 H   0  0  0  0  0  0  0  0  0  0  0  0
   -5.1000   23.0800  -31.6050 C   0  0  0  0  0  0  0  0  0  0  0  0
   -6.4850   23.0380  -31.8500 C   0  0  0  0  0  0  0  0  0  0  0  0
   -6.8849   22.3423  -32.6024 H   0  0  0  0  0  0  0  0  0  0  0  0
   -7.3560   23.8720  -31.1460 C   0  0  0  0  0  0  0  0  0  0  0  0
   -8.4369   23.8326  -31.3464 H   0  0  0  0  0  0  0  0  0  0  0  0
   -6.8570   24.7540  -30.1900 C   0  0  0  0  0  0  0  0  0  0  0  0
   -7.5453   25.4099  -29.6368 H   0  0  0  0  0  0  0  0  0  0  0  0
   -5.4860   24.8080  -29.9320 C   0  0  0  0  0  0  0  0  0  0  0  0
   -5.0995   25.5058  -29.1746 H   0  0  0  0  0  0  0  0  0  0  0  0
   -4.5940   23.9740  -30.6360 C   0  0  0  0  0  0  0  0  0  0  0  0
   -3.2100   24.0100  -30.3990 O   0  0  0  0  0  0  0  0  0  0  0  0
   -2.5700   23.4880  -29.2360 C   0  0  0  0  0  0  0  0  0  0  0  0
   -3.2936   23.4447  -28.4086 H   0  0  0  0  0  0  0  0  0  0  0  0
   -2.1931   22.4770  -29.4500 H   0  0  0  0  0  0  0  0  0  0  0  0
   -1.4060   24.3880  -28.8440 C   0  0  0  0  0  0  0  0  0  0  0  0
   -1.6180   25.6690  -29.3230 F   0  0  0  0  0  0  0  0  0  0  0  0
   -0.2300   23.8930  -29.3780 F   0  0  0  0  0  0  0  0  0  0  0  0
   -1.2960   24.4330  -27.4670 F   0  0  0  0  0  0  0  0  0  0  0  0
  1  2  1  0
  2  3  2  0
  3  4  1  0
  4  5  1  0
  4  6  1  0
  4  7  1  0
  7  8  1  0
  7  9  1  0
  7 10  1  0
 10 11  1  0
 11 12  1  0
 11 13  1  0
 11 14  1  0
 14 15  1  0
 14 16  1  0
 14 17  1  0
 17 18  1  0
 18 19  1  0
 18 20  1  0
 18 21  1  0
 21 22  1  0
 21 23  1  0
 21 24  1  0
 24 25  1  0
 24 26  1  0
 24 27  1  0
 27 28  1  0
 27 29  1  0
 27 30  1  0
 30 31  1  0
 30 32  1  0
 30 33  1  0
 33 34  1  0
 33 35  1  0
 33 36  1  0
 36 37  1  0
 36 38  1  0
 38 39  1  0
 38 40  1  0
 38 41  1  0
 17 42  1  0
 42 43  1  0
 42 44  1  0
 42 45  1  0
 45 46  1  0
 45 47  1  0
  2 48  1  0
 48 49  2  0
 49 50  1  0
 49 51  1  0
 51 52  1  0
 51 53  2  0
 53 54  1  0
 53 55  1  0
 55 56  1  0
 55 57  2  0
 57 58  1  0
 58 59  1  0
 59 60  1  0
 59 61  1  0
 59 62  1  0
 62 63  1  0
 62 64  1  0
 62 65  1  0
 45 10  1  0
 57 48  1  0
M  CHG  1  24   1
M  END
>  <UniqueID>  (31) 
30

>  <SMILES>  (31) 
CNCCC[NH2+]CCN1CCN(CC/N=C/c2ccccc2OCC(F)(F)F)CC1

>  <Energy>  (31) 
65.64213624604193

>  <Genealogy>  (31) 
CNCCC[NH2+]CCN1CCN(CCN=Cc2ccccc2OCC(F)(F)F)CC1 (protonated)
CNCCC[NH2+]CCN1CCN(CC/N=C/c2ccccc2OCC(F)(F)F)CC1 (cis-trans isomerization)
CNCCC[NH2+]CCN1CCN(CC/N=C/c2ccccc2OCC(F)(F)F)CC1 (3D coordinates assigned)
CNCCC[NH2+]CCN1CCN(CC/N=C/c2ccccc2OCC(F)(F)F)CC1 (nonaromatic ring conformer: 65.64213624604193 kcal/mol)

>  <smiles>  (31) 
CNCCCNCCN1CCN(CCN=Cc2ccccc2OCC(F)(F)F)CC1

>  <score_type>  (31) 
oracle

>  <origin>  (31) 
adg

>  <m_score__min__energy>  (31) 
-5.4299999999999997

>  <m_primary>  (31) 
energy

$$$$
31:0
     RDKit          3D

 51 55  0  0  0  0  0  0  0  0999 V2000
    1.2970   25.2270  -27.2090 C   0  0  0  0  0  0  0  0  0  0  0  0
    0.2510   25.2830  -28.1740 O   0  0  0  0  0  0  0  0  0  0  0  0
   -1.0980   25.0170  -27.8960 C   0  0  0  0  0  0  0  0  0  0  0  0
   -1.6280   25.4750  -26.6840 C   0  0  0  0  0  0  0  0  0  0  0  0
   -2.9660   25.2350  -26.3600 C   0  0  0  0  0  0  0  0  0  0  0  0
   -3.7880   24.5370  -27.2470 C   0  0  0  0  0  0  0  0  0  0  0  0
   -3.2780   24.0740  -28.4700 C   0  0  0  0  0  0  0  0  0  0  0  0
   -4.1210   23.3450  -29.3830 N   0  0  0  0  0  0  0  0  0  0  0  0
   -3.7900   22.0500  -29.7090 C   0  0  0  0  0  0  0  0  0  0  0  0
   -4.5650   21.3220  -30.5630 N   0  0  0  0  0  0  0  0  0  0  0  0
   -5.6730   21.8810  -31.1120 C   0  0  0  0  0  0  0  0  0  0  0  0
   -6.5660   21.2420  -31.9920 C   0  0  0  0  0  0  0  0  0  0  0  0
   -6.4230   19.8550  -32.4930 C   0  0  0  0  0  0  0  0  0  0  0  0
   -7.4140   18.8970  -32.2460 C   0  0  0  0  0  0  0  0  0  0  0  0
   -7.2730   17.6330  -32.7170 N   0  0  0  0  0  0  0  0  0  0  0  0
   -6.1840   17.2650  -33.4450 C   0  0  0  0  0  0  0  0  0  0  0  0
   -6.0650   15.9130  -33.9240 N   0  0  0  0  0  0  0  0  0  0  0  0
   -7.2090   15.2860  -34.5970 C   0  0  0  0  0  0  0  0  0  0  0  0
   -7.1660   13.7690  -34.3950 C   0  0  0  0  0  0  0  0  0  0  0  0
   -5.8590   13.2360  -34.7960 N   0  0  0  0  0  0  0  0  0  0  0  0
   -4.7950   13.8130  -33.9630 C   0  0  0  0  0  0  0  0  0  0  0  0
   -4.7390   15.3300  -34.1550 C   0  0  0  0  0  0  0  0  0  0  0  0
   -5.2040   18.1800  -33.6950 N   0  0  0  0  0  0  0  0  0  0  0  0
   -5.3070   19.4570  -33.2420 C   0  0  0  0  0  0  0  0  0  0  0  0
   -7.6360   22.0770  -32.3420 C   0  0  0  0  0  0  0  0  0  0  0  0
   -7.4520   23.5760  -31.5800 S   0  0  0  0  0  0  0  0  0  0  0  0
   -6.0270   23.1720  -30.7940 C   0  0  0  0  0  0  0  0  0  0  0  0
   -5.2450   23.9230  -29.9260 C   0  0  0  0  0  0  0  0  0  0  0  0
   -5.5620   25.1150  -29.6590 O   0  0  0  0  0  0  0  0  0  0  0  0
   -1.9290   24.3140  -28.7880 C   0  0  0  0  0  0  0  0  0  0  0  0
    0.8646   25.2501  -26.1978 H   0  0  0  0  0  0  0  0  0  0  0  0
    1.8691   24.2969  -27.3419 H   0  0  0  0  0  0  0  0  0  0  0  0
    1.9651   26.0907  -27.3419 H   0  0  0  0  0  0  0  0  0  0  0  0
   -0.9867   26.0277  -25.9817 H   0  0  0  0  0  0  0  0  0  0  0  0
   -3.3726   25.5968  -25.4041 H   0  0  0  0  0  0  0  0  0  0  0  0
   -4.8400   24.3491  -26.9862 H   0  0  0  0  0  0  0  0  0  0  0  0
   -2.8874   21.5953  -29.2747 H   0  0  0  0  0  0  0  0  0  0  0  0
   -8.3093   19.1704  -31.6684 H   0  0  0  0  0  0  0  0  0  0  0  0
   -8.1434   15.6837  -34.1744 H   0  0  0  0  0  0  0  0  0  0  0  0
   -7.1625   15.5092  -35.6731 H   0  0  0  0  0  0  0  0  0  0  0  0
   -7.3406   13.5397  -33.3334 H   0  0  0  0  0  0  0  0  0  0  0  0
   -7.9463   13.3043  -35.0156 H   0  0  0  0  0  0  0  0  0  0  0  0
   -5.8710   12.2030  -34.6250 H   0  0  0  0  0  0  0  0  0  0  0  0
   -4.9985   13.5876  -32.9057 H   0  0  0  0  0  0  0  0  0  0  0  0
   -3.8297   13.3773  -34.2603 H   0  0  0  0  0  0  0  0  0  0  0  0
   -4.0217   15.7615  -33.4413 H   0  0  0  0  0  0  0  0  0  0  0  0
   -4.4203   15.5527  -35.1840 H   0  0  0  0  0  0  0  0  0  0  0  0
   -4.3450   17.9050  -34.2220 H   0  0  0  0  0  0  0  0  0  0  0  0
   -4.5104   20.1823  -33.4643 H   0  0  0  0  0  0  0  0  0  0  0  0
   -8.4663   21.8005  -33.0085 H   0  0  0  0  0  0  0  0  0  0  0  0
   -1.5202   23.9492  -29.7418 H   0  0  0  0  0  0  0  0  0  0  0  0
  1  2  1  0
  2  3  1  0
  3  4  2  0
  4  5  1  0
  5  6  2  0
  6  7  1  0
  7  8  1  0
  8  9  1  0
  9 10  2  0
 10 11  1  0
 11 12  1  0
 12 13  1  0
 13 14  2  0
 14 15  1  0
 15 16  2  0
 16 17  1  0
 17 18  1  0
 18 19  1  0
 19 20  1  0
 20 21  1  0
 21 22  1  0
 16 23  1  0
 23 24  2  0
 12 25  2  0
 25 26  1  0
 26 27  1  0
 27 28  1  0
 28 29  2  0
  7 30  2  0
 30  3  1  0
 28  8  1  0
 27 11  2  0
 24 13  1  0
 22 17  1  0
  1 31  1  0
  1 32  1  0
  1 33  1  0
  4 34  1  0
  5 35  1  0
  6 36  1  0
  9 37  1  0
 14 38  1  0
 18 39  1  0
 18 40  1  0
 19 41  1  0
 19 42  1  0
 20 43  1  0
 21 44  1  0
 21 45  1  0
 22 46  1  0
 22 47  1  0
 23 48  1  0
 24 49  1  0
 25 50  1  0
 30 51  1  0
M  CHG  1  23   1
M  END
>  <UniqueID>  (32) 
31

>  <SMILES>  (32) 
COc1cccc(-n2cnc3c(-c4cnc(N5CCNCC5)[nH+]c4)csc3c2=O)c1

>  <Energy>  (32) 
102.98290179043786

>  <Genealogy>  (32) 
COc1cccc(-n2cnc3c(-c4cnc(N5CCNCC5)[nH+]c4)csc3c2=O)c1 (protonated)
COc1cccc(-n2cnc3c(-c4cnc(N5CCNCC5)[nH+]c4)csc3c2=O)c1 (3D coordinates assigned)
COc1cccc(-n2cnc3c(-c4cnc(N5CCNCC5)[nH+]c4)csc3c2=O)c1 (nonaromatic ring conformer: 102.98290179043786 kcal/mol)

>  <smiles>  (32) 
COc1cccc(-n2cnc3c(-c4cnc(N5CCNCC5)nc4)csc3c2=O)c1

>  <score_type>  (32) 
oracle

>  <origin>  (32) 
adg

>  <m_score__min__energy>  (32) 
-8.1699999999999999

>  <m_primary>  (32) 
energy

$$$$
32:0
     RDKit          3D

 41 44  0  0  0  0  0  0  0  0999 V2000
    0.5990   24.4390  -26.9410 C   0  0  0  0  0  0  0  0  0  0  0  0
    0.1560   24.7550  -28.2570 O   0  0  0  0  0  0  0  0  0  0  0  0
   -0.7990   24.0160  -28.9720 C   0  0  0  0  0  0  0  0  0  0  0  0
   -0.4820   22.7080  -29.3390 C   0  0  0  0  0  0  0  0  0  0  0  0
   -1.3940   21.9310  -30.0510 C   0  0  0  0  0  0  0  0  0  0  0  0
   -2.6520   22.4430  -30.4110 C   0  0  0  0  0  0  0  0  0  0  0  0
   -2.9920   23.7750  -30.0420 C   0  0  0  0  0  0  0  0  0  0  0  0
   -2.0510   24.5450  -29.3310 C   0  0  0  0  0  0  0  0  0  0  0  0
   -4.2680   24.4370  -30.4430 C   0  0  0  0  0  0  0  0  0  0  0  0
   -4.2270   25.6540  -30.7750 O   0  0  0  0  0  0  0  0  0  0  0  0
   -5.5440   23.7580  -30.4260 N   0  0  0  0  0  0  0  0  0  0  0  0
   -6.7490   24.4850  -30.8420 C   0  0  0  0  0  0  0  0  0  0  0  0
   -5.6420   22.3600  -30.0130 C   0  0  0  0  0  0  0  0  0  0  0  0
   -4.8950   21.5250  -30.9990 C   0  0  0  0  0  0  0  0  0  0  0  0
   -5.3850   20.5870  -31.9010 C   0  0  0  0  0  0  0  0  0  0  0  0
   -6.7950   20.2320  -32.1710 C   0  0  0  0  0  0  0  0  0  0  0  0
   -7.8050   21.2060  -32.1110 C   0  0  0  0  0  0  0  0  0  0  0  0
   -9.1320   20.8370  -32.3440 C   0  0  0  0  0  0  0  0  0  0  0  0
   -9.4430   19.5070  -32.6280 C   0  0  0  0  0  0  0  0  0  0  0  0
   -8.4170   18.5620  -32.6750 C   0  0  0  0  0  0  0  0  0  0  0  0
   -7.1320   18.9410  -32.4440 N   0  0  0  0  0  0  0  0  0  0  0  0
   -4.3360   20.0690  -32.5750 N   0  0  0  0  0  0  0  0  0  0  0  0
   -3.2450   20.6980  -32.0990 C   0  0  0  0  0  0  0  0  0  0  0  0
   -3.5600   21.6030  -31.1480 N   0  0  0  0  0  0  0  0  0  0  0  0
   -0.0672   24.9142  -26.2059 H   0  0  0  0  0  0  0  0  0  0  0  0
    0.5816   23.3482  -26.8003 H   0  0  0  0  0  0  0  0  0  0  0  0
    1.6247   24.8105  -26.8003 H   0  0  0  0  0  0  0  0  0  0  0  0
    0.4961   22.2863  -29.0641 H   0  0  0  0  0  0  0  0  0  0  0  0
   -1.1253   20.9028  -30.3350 H   0  0  0  0  0  0  0  0  0  0  0  0
   -2.3004   25.5793  -29.0515 H   0  0  0  0  0  0  0  0  0  0  0  0
   -7.3018   24.8185  -29.9514 H   0  0  0  0  0  0  0  0  0  0  0  0
   -6.4602   25.3597  -31.4432 H   0  0  0  0  0  0  0  0  0  0  0  0
   -7.3882   23.8217  -31.4432 H   0  0  0  0  0  0  0  0  0  0  0  0
   -5.2021   22.2363  -29.0124 H   0  0  0  0  0  0  0  0  0  0  0  0
   -6.6966   22.0494  -29.9763 H   0  0  0  0  0  0  0  0  0  0  0  0
   -7.5529   22.2520  -31.8822 H   0  0  0  0  0  0  0  0  0  0  0  0
   -9.9298   21.5933  -32.3037 H   0  0  0  0  0  0  0  0  0  0  0  0
  -10.4849   19.2066  -32.8128 H   0  0  0  0  0  0  0  0  0  0  0  0
   -8.6482   17.5102  -32.8990 H   0  0  0  0  0  0  0  0  0  0  0  0
   -4.3560   19.3600  -33.3410 H   0  0  0  0  0  0  0  0  0  0  0  0
   -2.2196   20.4984  -32.4437 H   0  0  0  0  0  0  0  0  0  0  0  0
  1  2  1  0
  2  3  1  0
  3  4  2  0
  4  5  1  0
  5  6  2  0
  6  7  1  0
  7  8  2  0
  7  9  1  0
  9 10  2  0
  9 11  1  0
 11 12  1  0
 11 13  1  0
 13 14  1  0
 14 15  2  0
 15 16  1  0
 16 17  2  0
 17 18  1  0
 18 19  2  0
 19 20  1  0
 20 21  2  0
 15 22  1  0
 22 23  2  0
 23 24  1  0
  8  3  1  0
 24 14  1  0
 24  6  1  0
 21 16  1  0
  1 25  1  0
  1 26  1  0
  1 27  1  0
  4 28  1  0
  5 29  1  0
  8 30  1  0
 12 31  1  0
 12 32  1  0
 12 33  1  0
 13 34  1  0
 13 35  1  0
 17 36  1  0
 18 37  1  0
 19 38  1  0
 20 39  1  0
 22 40  1  0
 23 41  1  0
M  CHG  1  22   1
M  END
>  <UniqueID>  (33) 
32

>  <SMILES>  (33) 
COc1ccc2c(c1)C(=O)N(C)Cc1c(-c3ccccn3)[nH+]cn1-2

>  <Energy>  (33) 
89.43301476607334

>  <Genealogy>  (33) 
COc1ccc2c(c1)C(=O)N(C)Cc1c(-c3ccccn3)[nH+]cn1-2 (protonated)
COc1ccc2c(c1)C(=O)N(C)Cc1c(-c3ccccn3)[nH+]cn1-2 (3D coordinates assigned)
COc1ccc2c(c1)C(=O)N(C)Cc1c(-c3ccccn3)[nH+]cn1-2 (nonaromatic ring conformer: 89.43301476607334 kcal/mol)

>  <smiles>  (33) 
COc1ccc2c(c1)C(=O)N(C)Cc1c(-c3ccccn3)ncn1-2

>  <score_type>  (33) 
oracle

>  <origin>  (33) 
adg

>  <m_score__min__energy>  (33) 
-7.46

>  <m_primary>  (33) 
energy

$$$$
33:0
     RDKit          3D

 47 49  0  0  0  0  0  0  0  0999 V2000
   -9.4270   21.5980  -30.7940 C   0  0  0  0  0  0  0  0  0  0  0  0
   -8.8860   22.3980  -31.9720 C   0  0  0  0  0  0  0  0  0  0  0  0
   -7.4150   22.4140  -31.9500 N   0  0  0  0  0  0  0  0  0  0  0  0
   -6.5960   21.5370  -32.5790 C   0  0  0  0  0  0  0  0  0  0  0  0
   -7.0420   20.4370  -33.5030 C   0  0  0  0  0  0  0  0  0  0  0  0
   -7.9710   19.5280  -32.8100 N   0  0  0  0  0  0  0  0  0  0  0  0
   -7.2990   18.2990  -32.3570 C   0  0  0  0  0  0  0  0  0  0  0  0
   -6.0760   18.0010  -33.1750 C   0  0  0  0  0  0  0  0  0  0  0  0
   -6.0370   17.2290  -34.3290 C   0  0  0  0  0  0  0  0  0  0  0  0
   -4.7440   17.0790  -34.8480 C   0  0  0  0  0  0  0  0  0  0  0  0
   -3.7670   17.7270  -34.1040 C   0  0  0  0  0  0  0  0  0  0  0  0
   -4.5090   18.4850  -32.7990 S   0  0  0  0  0  0  0  0  0  0  0  0
   -5.2760   21.8110  -32.2810 C   0  0  0  0  0  0  0  0  0  0  0  0
   -5.2850   22.8840  -31.4080 C   0  0  0  0  0  0  0  0  0  0  0  0
   -4.0960   23.4580  -30.7390 C   0  0  0  0  0  0  0  0  0  0  0  0
   -3.8730   24.6950  -30.8420 O   0  0  0  0  0  0  0  0  0  0  0  0
   -3.1780   22.6270  -29.9230 C   0  0  0  0  0  0  0  0  0  0  0  0
   -3.4910   22.2950  -28.5910 C   0  0  0  0  0  0  0  0  0  0  0  0
   -2.6220   21.5000  -27.8370 C   0  0  0  0  0  0  0  0  0  0  0  0
   -1.4390   21.0200  -28.4070 C   0  0  0  0  0  0  0  0  0  0  0  0
   -0.5990   20.2480  -27.6750 F   0  0  0  0  0  0  0  0  0  0  0  0
   -1.1270   21.3300  -29.7320 C   0  0  0  0  0  0  0  0  0  0  0  0
   -1.9930   22.1260  -30.4900 C   0  0  0  0  0  0  0  0  0  0  0  0
   -6.6190   23.2350  -31.2210 C   0  0  0  0  0  0  0  0  0  0  0  0
   -7.1070   24.3020  -30.2790 C   0  0  0  0  0  0  0  0  0  0  0  0
   -9.1079   22.0698  -29.8529 H   0  0  0  0  0  0  0  0  0  0  0  0
  -10.5259   21.5764  -30.8392 H   0  0  0  0  0  0  0  0  0  0  0  0
   -9.0379   20.5701  -30.8392 H   0  0  0  0  0  0  0  0  0  0  0  0
   -9.2293   21.9381  -32.9104 H   0  0  0  0  0  0  0  0  0  0  0  0
   -9.2548   23.4318  -31.9001 H   0  0  0  0  0  0  0  0  0  0  0  0
   -7.5491   20.8785  -34.3736 H   0  0  0  0  0  0  0  0  0  0  0  0
   -6.1603   19.8654  -33.8282 H   0  0  0  0  0  0  0  0  0  0  0  0
   -8.4160   20.0080  -31.9930 H   0  0  0  0  0  0  0  0  0  0  0  0
   -8.7310   19.2580  -33.4780 H   0  0  0  0  0  0  0  0  0  0  0  0
   -7.0028   18.4218  -31.3048 H   0  0  0  0  0  0  0  0  0  0  0  0
   -8.0020   17.4610  -32.4735 H   0  0  0  0  0  0  0  0  0  0  0  0
   -6.9302   16.7809  -34.7888 H   0  0  0  0  0  0  0  0  0  0  0  0
   -4.5239   16.5025  -35.7586 H   0  0  0  0  0  0  0  0  0  0  0  0
   -2.6905   17.7420  -34.3298 H   0  0  0  0  0  0  0  0  0  0  0  0
   -4.3912   21.2804  -32.6627 H   0  0  0  0  0  0  0  0  0  0  0  0
   -4.4247   22.6632  -28.1407 H   0  0  0  0  0  0  0  0  0  0  0  0
   -2.8695   21.2520  -26.7943 H   0  0  0  0  0  0  0  0  0  0  0  0
   -0.1985   20.9477  -30.1811 H   0  0  0  0  0  0  0  0  0  0  0  0
   -1.7452   22.3611  -31.5356 H   0  0  0  0  0  0  0  0  0  0  0  0
   -6.9559   23.9716  -29.2407 H   0  0  0  0  0  0  0  0  0  0  0  0
   -6.5442   25.2308  -30.4538 H   0  0  0  0  0  0  0  0  0  0  0  0
   -8.1777   24.4837  -30.4538 H   0  0  0  0  0  0  0  0  0  0  0  0
  1  2  1  0
  2  3  1  0
  3  4  1  0
  4  5  1  0
  5  6  1  0
  6  7  1  0
  7  8  1  0
  8  9  2  0
  9 10  1  0
 10 11  2  0
 11 12  1  0
  4 13  2  0
 13 14  1  0
 14 15  1  0
 15 16  2  0
 15 17  1  0
 17 18  2  0
 18 19  1  0
 19 20  2  0
 20 21  1  0
 20 22  1  0
 22 23  2  0
 14 24  2  0
 24 25  1  0
 24  3  1  0
 12  8  1  0
 23 17  1  0
  1 26  1  0
  1 27  1  0
  1 28  1  0
  2 29  1  0
  2 30  1  0
  5 31  1  0
  5 32  1  0
  6 33  1  0
  6 34  1  0
  7 35  1  0
  7 36  1  0
  9 37  1  0
 10 38  1  0
 11 39  1  0
 13 40  1  0
 18 41  1  0
 19 42  1  0
 22 43  1  0
 23 44  1  0
 25 45  1  0
 25 46  1  0
 25 47  1  0
M  CHG  1   6   1
M  END
>  <UniqueID>  (34) 
33

>  <SMILES>  (34) 
CCn1c(C[NH2+]Cc2cccs2)cc(C(=O)c2ccc(F)cc2)c1C

>  <Energy>  (34) 
100.34991234922718

>  <Genealogy>  (34) 
CCn1c(C[NH2+]Cc2cccs2)cc(C(=O)c2ccc(F)cc2)c1C (protonated)
CCn1c(C[NH2+]Cc2cccs2)cc(C(=O)c2ccc(F)cc2)c1C (3D coordinates assigned)
CCn1c(C[NH2+]Cc2cccs2)cc(C(=O)c2ccc(F)cc2)c1C (optimized conformer: 100.34991234922718 kcal/mol)

>  <smiles>  (34) 
CCn1c(CNCc2cccs2)cc(C(=O)c2ccc(F)cc2)c1C

>  <score_type>  (34) 
oracle

>  <origin>  (34) 
adg

>  <m_score__min__energy>  (34) 
-7.7800000000000002

>  <m_primary>  (34) 
energy

$$$$
34:0
     RDKit          3D

 45 47  0  0  0  0  0  0  0  0999 V2000
   -6.5090   16.8480  -34.3310 C   0  0  0  0  0  0  0  0  0  0  0  0
   -5.6220   17.8530  -34.8090 O   0  0  0  0  0  0  0  0  0  0  0  0
   -4.3330   18.0850  -34.3040 C   0  0  0  0  0  0  0  0  0  0  0  0
   -3.2120   17.3660  -34.7670 C   0  0  0  0  0  0  0  0  0  0  0  0
   -1.9500   17.5910  -34.2110 C   0  0  0  0  0  0  0  0  0  0  0  0
   -1.7910   18.5280  -33.1900 C   0  0  0  0  0  0  0  0  0  0  0  0
   -2.8920   19.2520  -32.7280 C   0  0  0  0  0  0  0  0  0  0  0  0
   -4.1610   19.0510  -33.2930 C   0  0  0  0  0  0  0  0  0  0  0  0
   -5.2770   19.8080  -32.8010 N   0  0  0  0  0  0  0  0  0  0  0  0
   -6.4130   19.2450  -32.4190 N   0  0  0  0  0  0  0  0  0  0  0  0
   -7.2410   20.2250  -32.0060 C   0  0  0  0  0  0  0  0  0  0  0  0
   -8.6270   19.9740  -31.5080 C   0  0  0  0  0  0  0  0  0  0  0  0
   -6.6020   21.4500  -32.1250 C   0  0  0  0  0  0  0  0  0  0  0  0
   -7.2140   23.0510  -31.7070 S   0  0  0  0  0  0  0  0  0  0  0  0
   -8.7100   23.0920  -31.8500 O   0  0  0  0  0  0  0  0  0  0  0  0
   -6.6180   24.0410  -32.6680 O   0  0  0  0  0  0  0  0  0  0  0  0
   -6.7450   23.4710  -30.0730 N   0  0  0  0  0  0  0  0  0  0  0  0
   -6.8060   24.9260  -29.8390 C   0  0  0  0  0  0  0  0  0  0  0  0
   -5.6190   25.6800  -30.4830 C   0  0  0  0  0  0  0  0  0  0  0  0
   -4.5420   24.8340  -30.8480 O   0  0  0  0  0  0  0  0  0  0  0  0
   -4.2820   23.9110  -29.8160 C   0  0  0  0  0  0  0  0  0  0  0  0
   -5.4320   22.8940  -29.7080 C   0  0  0  0  0  0  0  0  0  0  0  0
   -5.3470   21.1460  -32.6170 C   0  0  0  0  0  0  0  0  0  0  0  0
   -4.2440   22.1270  -32.8870 C   0  0  0  0  0  0  0  0  0  0  0  0
   -6.5070   16.8502  -33.2310 H   0  0  0  0  0  0  0  0  0  0  0  0
   -7.5262   17.0528  -34.6963 H   0  0  0  0  0  0  0  0  0  0  0  0
   -6.1794   15.8642  -34.6963 H   0  0  0  0  0  0  0  0  0  0  0  0
   -3.3316   16.6240  -35.5702 H   0  0  0  0  0  0  0  0  0  0  0  0
   -1.0798   17.0279  -34.5793 H   0  0  0  0  0  0  0  0  0  0  0  0
   -0.7977   18.6967  -32.7485 H   0  0  0  0  0  0  0  0  0  0  0  0
   -2.7641   19.9839  -31.9168 H   0  0  0  0  0  0  0  0  0  0  0  0
   -8.6270   19.9740  -30.4080 H   0  0  0  0  0  0  0  0  0  0  0  0
   -9.2973   20.7654  -31.8747 H   0  0  0  0  0  0  0  0  0  0  0  0
   -8.9772   18.9978  -31.8747 H   0  0  0  0  0  0  0  0  0  0  0  0
   -7.7430   25.3129  -30.2659 H   0  0  0  0  0  0  0  0  0  0  0  0
   -6.7575   25.0920  -28.7527 H   0  0  0  0  0  0  0  0  0  0  0  0
   -5.9811   26.1920  -31.3867 H   0  0  0  0  0  0  0  0  0  0  0  0
   -5.2361   26.3838  -29.7294 H   0  0  0  0  0  0  0  0  0  0  0  0
   -3.3449   23.3776  -30.0336 H   0  0  0  0  0  0  0  0  0  0  0  0
   -4.1935   24.4541  -28.8635 H   0  0  0  0  0  0  0  0  0  0  0  0
   -5.2195   22.0506  -30.3814 H   0  0  0  0  0  0  0  0  0  0  0  0
   -5.4922   22.5729  -28.6576 H   0  0  0  0  0  0  0  0  0  0  0  0
   -3.8351   22.4907  -31.9328 H   0  0  0  0  0  0  0  0  0  0  0  0
   -3.4473   21.6336  -33.4631 H   0  0  0  0  0  0  0  0  0  0  0  0
   -4.6411   22.9758  -33.4631 H   0  0  0  0  0  0  0  0  0  0  0  0
  1  2  1  0
  2  3  1  0
  3  4  2  0
  4  5  1  0
  5  6  2  0
  6  7  1  0
  7  8  2  0
  8  9  1  0
  9 10  1  0
 10 11  2  0
 11 12  1  0
 11 13  1  0
 13 14  1  0
 14 15  2  0
 14 16  2  0
 14 17  1  0
 17 18  1  0
 18 19  1  0
 19 20  1  0
 20 21  1  0
 21 22  1  0
 13 23  2  0
 23 24  1  0
  8  3  1  0
 23  9  1  0
 22 17  1  0
  1 25  1  0
  1 26  1  0
  1 27  1  0
  4 28  1  0
  5 29  1  0
  6 30  1  0
  7 31  1  0
 12 32  1  0
 12 33  1  0
 12 34  1  0
 18 35  1  0
 18 36  1  0
 19 37  1  0
 19 38  1  0
 21 39  1  0
 21 40  1  0
 22 41  1  0
 22 42  1  0
 24 43  1  0
 24 44  1  0
 24 45  1  0
M  END
>  <UniqueID>  (35) 
34

>  <SMILES>  (35) 
COc1ccccc1-n1nc(C)c(S(=O)(=O)N2CCOCC2)c1C

>  <Energy>  (35) 
90.85927980935328

>  <Genealogy>  (35) 
COc1ccccc1-n1nc(C)c(S(=O)(=O)N2CCOCC2)c1C (3D coordinates assigned)
COc1ccccc1-n1nc(C)c(S(=O)(=O)N2CCOCC2)c1C (nonaromatic ring conformer: 90.85927980935328 kcal/mol)

>  <smiles>  (35) 
COc1ccccc1-n1nc(C)c(S(=O)(=O)N2CCOCC2)c1C

>  <score_type>  (35) 
oracle

>  <origin>  (35) 
adg

>  <m_score__min__energy>  (35) 
-8.6500000000000004

>  <m_primary>  (35) 
energy

$$$$
35:0
     RDKit          3D

 44 45  0  0  0  0  0  0  0  0999 V2000
   -5.4000   25.0930  -30.6960 C   0  0  0  0  0  0  0  0  0  0  0  0
   -4.9420   23.7920  -31.2170 N   0  0  0  0  0  0  0  0  0  0  0  0
   -4.9590   22.7380  -30.1790 C   0  0  0  0  0  0  0  0  0  0  0  0
   -3.9410   21.6290  -30.5150 C   0  0  0  0  0  0  0  0  0  0  0  0
   -2.7910   22.1350  -31.3040 N   0  0  0  0  0  0  0  0  0  0  0  0
   -2.4940   21.2040  -32.4080 C   0  0  0  0  0  0  0  0  0  0  0  0
   -1.5860   22.3080  -30.4700 C   0  0  0  0  0  0  0  0  0  0  0  0
   -5.6410   23.4010  -32.4690 C   0  0  0  0  0  0  0  0  0  0  0  0
   -6.8540   22.4950  -32.2570 C   0  0  0  0  0  0  0  0  0  0  0  0
   -7.9960   23.0430  -31.6410 C   0  0  0  0  0  0  0  0  0  0  0  0
   -9.1350   22.2720  -31.4220 C   0  0  0  0  0  0  0  0  0  0  0  0
   -9.1510   20.9310  -31.7850 C   0  0  0  0  0  0  0  0  0  0  0  0
   -8.0210   20.3400  -32.3600 C   0  0  0  0  0  0  0  0  0  0  0  0
   -6.8650   21.1170  -32.6240 C   0  0  0  0  0  0  0  0  0  0  0  0
   -5.6320   20.4210  -33.1780 C   0  0  0  0  0  0  0  0  0  0  0  0
   -5.9720   19.1410  -33.9480 C   0  0  0  0  0  0  0  0  0  0  0  0
   -6.8480   18.2280  -33.0960 C   0  0  0  0  0  0  0  0  0  0  0  0
   -8.0520   18.9410  -32.6870 N   0  0  0  0  0  0  0  0  0  0  0  0
   -5.3922   25.0709  -29.5962 H   0  0  0  0  0  0  0  0  0  0  0  0
   -4.7276   25.8876  -31.0515 H   0  0  0  0  0  0  0  0  0  0  0  0
   -6.4219   25.2912  -31.0515 H   0  0  0  0  0  0  0  0  0  0  0  0
   -4.7006   23.1836  -29.2070 H   0  0  0  0  0  0  0  0  0  0  0  0
   -5.9653   22.2956  -30.1392 H   0  0  0  0  0  0  0  0  0  0  0  0
   -3.5629   21.2004  -29.5751 H   0  0  0  0  0  0  0  0  0  0  0  0
   -4.4583   20.8732  -31.1243 H   0  0  0  0  0  0  0  0  0  0  0  0
   -3.0400   23.0600  -31.7270 H   0  0  0  0  0  0  0  0  0  0  0  0
   -2.1841   20.2326  -31.9952 H   0  0  0  0  0  0  0  0  0  0  0  0
   -3.3938   21.0694  -33.0263 H   0  0  0  0  0  0  0  0  0  0  0  0
   -1.6825   21.6153  -33.0263 H   0  0  0  0  0  0  0  0  0  0  0  0
   -1.8668   22.2677  -29.4072 H   0  0  0  0  0  0  0  0  0  0  0  0
   -0.8688   21.5036  -30.6905 H   0  0  0  0  0  0  0  0  0  0  0  0
   -1.1241   23.2817  -30.6905 H   0  0  0  0  0  0  0  0  0  0  0  0
   -5.9798   24.3172  -32.9747 H   0  0  0  0  0  0  0  0  0  0  0  0
   -4.9186   22.8248  -33.0657 H   0  0  0  0  0  0  0  0  0  0  0  0
   -7.9881   24.0974  -31.3277 H   0  0  0  0  0  0  0  0  0  0  0  0
  -10.0243   22.7260  -30.9604 H   0  0  0  0  0  0  0  0  0  0  0  0
  -10.0576   20.3305  -31.6193 H   0  0  0  0  0  0  0  0  0  0  0  0
   -5.1126   21.1129  -33.8573 H   0  0  0  0  0  0  0  0  0  0  0  0
   -4.9988   20.1372  -32.3245 H   0  0  0  0  0  0  0  0  0  0  0  0
   -6.5112   19.4044  -34.8699 H   0  0  0  0  0  0  0  0  0  0  0  0
   -5.0390   18.6133  -34.1950 H   0  0  0  0  0  0  0  0  0  0  0  0
   -7.1301   17.3411  -33.6824 H   0  0  0  0  0  0  0  0  0  0  0  0
   -6.2878   17.9178  -32.2016 H   0  0  0  0  0  0  0  0  0  0  0  0
   -8.9360   18.3960  -32.5670 H   0  0  0  0  0  0  0  0  0  0  0  0
  1  2  1  0
  2  3  1  0
  3  4  1  0
  4  5  1  0
  5  6  1  0
  5  7  1  0
  2  8  1  0
  8  9  1  0
  9 10  2  0
 10 11  1  0
 11 12  2  0
 12 13  1  0
 13 14  2  0
 14 15  1  0
 15 16  1  0
 16 17  1  0
 17 18  1  0
 14  9  1  0
 18 13  1  0
  1 19  1  0
  1 20  1  0
  1 21  1  0
  3 22  1  0
  3 23  1  0
  4 24  1  0
  4 25  1  0
  5 26  1  0
  6 27  1  0
  6 28  1  0
  6 29  1  0
  7 30  1  0
  7 31  1  0
  7 32  1  0
  8 33  1  0
  8 34  1  0
 10 35  1  0
 11 36  1  0
 12 37  1  0
 15 38  1  0
 15 39  1  0
 16 40  1  0
 16 41  1  0
 17 42  1  0
 17 43  1  0
 18 44  1  0
M  CHG  1   5   1
M  END
>  <UniqueID>  (36) 
35

>  <SMILES>  (36) 
CN(CC[NH+](C)C)Cc1cccc2c1CCCN2

>  <Energy>  (36) 
49.541699168480044

>  <Genealogy>  (36) 
CN(CC[NH+](C)C)Cc1cccc2c1CCCN2 (protonated)
CN(CC[NH+](C)C)Cc1cccc2c1CCCN2 (3D coordinates assigned)
CN(CC[NH+](C)C)Cc1cccc2c1CCCN2 (nonaromatic ring conformer: 49.541699168480044 kcal/mol)

>  <smiles>  (36) 
CN(C)CCN(C)Cc1cccc2c1CCCN2

>  <score_type>  (36) 
oracle

>  <origin>  (36) 
adg

>  <m_score__min__energy>  (36) 
-5.7400000000000002

>  <m_primary>  (36) 
energy

$$$$
36:0
     RDKit          3D

 36 36  0  0  0  0  0  0  0  0999 V2000
   -2.7680   18.6840  -33.9120 C   0  0  0  0  0  0  0  0  0  0  0  0
   -3.5520   19.9360  -33.4910 C   0  0  0  0  0  0  0  0  0  0  0  0
   -2.7400   21.1780  -33.4280 N   0  0  2  0  0  0  0  0  0  0  0  0
   -1.3090   20.9130  -33.6870 C   0  0  0  0  0  0  0  0  0  0  0  0
   -2.9400   21.9090  -32.1550 C   0  0  0  0  0  0  0  0  0  0  0  0
   -4.2980   22.4720  -32.0690 C   0  0  0  0  0  0  0  0  0  0  0  0
   -5.4190   22.9080  -31.9990 C   0  0  0  0  0  0  0  0  0  0  0  0
   -6.7950   23.4070  -31.9080 C   0  0  0  0  0  0  0  0  0  0  0  0
   -7.5920   22.6100  -30.8770 C   0  0  0  0  0  0  0  0  0  0  0  0
   -9.0950   21.8900  -31.6290 S   0  0  0  0  0  0  0  0  0  0  0  0
   -8.2700   20.3810  -32.1360 C   0  0  0  0  0  0  0  0  0  0  0  0
   -8.6410   19.1570  -31.5680 C   0  0  0  0  0  0  0  0  0  0  0  0
   -7.9970   17.9790  -31.9600 C   0  0  0  0  0  0  0  0  0  0  0  0
   -6.9780   18.0240  -32.9200 C   0  0  0  0  0  0  0  0  0  0  0  0
   -6.1000   16.4150  -33.4560 Br  0  0  0  0  0  0  0  0  0  0  0  0
   -6.6060   19.2490  -33.4860 C   0  0  0  0  0  0  0  0  0  0  0  0
   -7.2490   20.4260  -33.0940 C   0  0  0  0  0  0  0  0  0  0  0  0
   -2.4300   18.1442  -33.0151 H   0  0  0  0  0  0  0  0  0  0  0  0
   -3.4175   18.0289  -34.5112 H   0  0  0  0  0  0  0  0  0  0  0  0
   -1.8951   18.9823  -34.5112 H   0  0  0  0  0  0  0  0  0  0  0  0
   -4.3643   20.0928  -34.2160 H   0  0  0  0  0  0  0  0  0  0  0  0
   -3.9171   19.7484  -32.4705 H   0  0  0  0  0  0  0  0  0  0  0  0
   -3.0860   21.7850  -34.2100 H   0  0  0  0  0  0  0  0  0  0  0  0
   -0.7754   20.8142  -32.7302 H   0  0  0  0  0  0  0  0  0  0  0  0
   -1.2069   19.9807  -34.2618 H   0  0  0  0  0  0  0  0  0  0  0  0
   -0.8798   21.7469  -34.2618 H   0  0  0  0  0  0  0  0  0  0  0  0
   -2.7859   21.2152  -31.3154 H   0  0  0  0  0  0  0  0  0  0  0  0
   -2.2174   22.7373  -32.1130 H   0  0  0  0  0  0  0  0  0  0  0  0
   -6.7761   24.4656  -31.6098 H   0  0  0  0  0  0  0  0  0  0  0  0
   -7.2770   23.2954  -32.8904 H   0  0  0  0  0  0  0  0  0  0  0  0
   -6.9620   21.7986  -30.4836 H   0  0  0  0  0  0  0  0  0  0  0  0
   -7.8952   23.2886  -30.0661 H   0  0  0  0  0  0  0  0  0  0  0  0
   -9.4398   19.1214  -30.8126 H   0  0  0  0  0  0  0  0  0  0  0  0
   -8.2907   17.0171  -31.5144 H   0  0  0  0  0  0  0  0  0  0  0  0
   -5.8063   19.2851  -34.2405 H   0  0  0  0  0  0  0  0  0  0  0  0
   -6.9534   21.3881  -33.5378 H   0  0  0  0  0  0  0  0  0  0  0  0
  1  2  1  0
  2  3  1  0
  3  4  1  0
  3  5  1  0
  5  6  1  0
  6  7  3  0
  7  8  1  0
  8  9  1  0
  9 10  1  0
 10 11  1  0
 11 12  2  0
 12 13  1  0
 13 14  2  0
 14 15  1  0
 14 16  1  0
 16 17  2  0
 17 11  1  0
  1 18  1  0
  1 19  1  0
  1 20  1  0
  2 21  1  0
  2 22  1  0
  3 23  1  6
  4 24  1  0
  4 25  1  0
  4 26  1  0
  5 27  1  0
  5 28  1  0
  8 29  1  0
  8 30  1  0
  9 31  1  0
  9 32  1  0
 12 33  1  0
 13 34  1  0
 16 35  1  0
 17 36  1  0
M  CHG  1   3   1
M  END
>  <UniqueID>  (37) 
36

>  <SMILES>  (37) 
CC[N@H+](C)CC#CCCSc1ccc(Br)cc1

>  <Energy>  (37) 
24.110150476579957

>  <Genealogy>  (37) 
CC[NH+](C)CC#CCCSc1ccc(Br)cc1 (protonated)
CC[N@H+](C)CC#CCCSc1ccc(Br)cc1 (chirality)
CC[N@H+](C)CC#CCCSc1ccc(Br)cc1 (3D coordinates assigned)
CC[N@H+](C)CC#CCCSc1ccc(Br)cc1 (optimized conformer: 24.110150476579957 kcal/mol)

>  <smiles>  (37) 
CCN(C)CC#CCCSc1ccc(Br)cc1

>  <score_type>  (37) 
oracle

>  <origin>  (37) 
adg

>  <m_score__min__energy>  (37) 
-5.9699999999999998

>  <m_primary>  (37) 
energy

$$$$
37:0
     RDKit          3D

 51 52  0  0  0  0  0  0  0  0999 V2000
   -8.8916   22.9825  -31.0709 H   0  0  0  0  0  0  0  0  0  0  0  0
   -7.9070   22.6380  -31.4200 C   0  0  0  0  0  0  0  0  0  0  0  0
   -7.8370   21.6370  -32.2370 N   0  0  0  0  0  0  0  0  0  0  0  0
   -8.9700   20.9430  -32.5930 O   0  0  0  0  0  0  0  0  0  0  0  0
   -9.2790   19.7050  -31.9720 C   0  0  0  0  0  0  0  0  0  0  0  0
  -10.3156   19.4259  -32.2120 H   0  0  0  0  0  0  0  0  0  0  0  0
   -9.1627   19.8087  -30.8831 H   0  0  0  0  0  0  0  0  0  0  0  0
   -8.3280   18.6110  -32.4780 C   0  0  0  0  0  0  0  0  0  0  0  0
   -8.6787   18.2659  -33.4618 H   0  0  0  0  0  0  0  0  0  0  0  0
   -8.3320   17.7961  -31.7391 H   0  0  0  0  0  0  0  0  0  0  0  0
   -6.9240   19.0940  -32.6130 N   0  0  0  0  0  0  0  0  0  0  0  0
   -6.9260   20.1400  -32.5570 H   0  0  0  0  0  0  0  0  0  0  0  0
   -6.3400   18.7300  -33.9310 C   0  0  0  0  0  0  0  0  0  0  0  0
   -6.7800   19.3774  -34.7038 H   0  0  0  0  0  0  0  0  0  0  0  0
   -6.5665   17.6700  -34.1182 H   0  0  0  0  0  0  0  0  0  0  0  0
   -4.8140   18.8960  -33.9580 C   0  0  0  0  0  0  0  0  0  0  0  0
   -4.4314   18.9376  -32.9275 H   0  0  0  0  0  0  0  0  0  0  0  0
   -4.3615   18.0418  -34.4829 H   0  0  0  0  0  0  0  0  0  0  0  0
   -4.5557   19.8275  -34.4829 H   0  0  0  0  0  0  0  0  0  0  0  0
   -6.0630   18.6390  -31.4860 C   0  0  0  0  0  0  0  0  0  0  0  0
   -5.0250   18.9228  -31.7140 H   0  0  0  0  0  0  0  0  0  0  0  0
   -6.4608   19.1228  -30.5817 H   0  0  0  0  0  0  0  0  0  0  0  0
   -6.0940   17.1240  -31.2110 C   0  0  0  0  0  0  0  0  0  0  0  0
   -6.0976   16.9485  -30.1251 H   0  0  0  0  0  0  0  0  0  0  0  0
   -7.0012   16.6891  -31.6557 H   0  0  0  0  0  0  0  0  0  0  0  0
   -5.2053   16.6524  -31.6557 H   0  0  0  0  0  0  0  0  0  0  0  0
   -6.6890   23.3260  -30.9480 C   0  0  0  0  0  0  0  0  0  0  0  0
   -6.7240   24.6600  -30.5050 C   0  0  0  0  0  0  0  0  0  0  0  0
   -7.6772   25.2090  -30.4981 H   0  0  0  0  0  0  0  0  0  0  0  0
   -5.5540   25.2930  -30.0730 C   0  0  0  0  0  0  0  0  0  0  0  0
   -5.5924   26.3361  -29.7260 H   0  0  0  0  0  0  0  0  0  0  0  0
   -4.3290   24.6030  -30.0800 C   0  0  0  0  0  0  0  0  0  0  0  0
   -3.1220   25.1930  -29.6690 O   0  0  0  0  0  0  0  0  0  0  0  0
   -2.0710   24.5290  -28.9680 C   0  0  0  0  0  0  0  0  0  0  0  0
   -2.3884   23.5025  -28.7322 H   0  0  0  0  0  0  0  0  0  0  0  0
   -1.1757   24.5186  -29.6071 H   0  0  0  0  0  0  0  0  0  0  0  0
   -1.7370   25.2490  -27.6850 C   0  0  0  0  0  0  0  0  0  0  0  0
   -0.4980   25.9010  -27.5540 C   0  0  0  0  0  0  0  0  0  0  0  0
    0.2181   25.8858  -28.3889 H   0  0  0  0  0  0  0  0  0  0  0  0
   -0.1700   26.5680  -26.3710 C   0  0  0  0  0  0  0  0  0  0  0  0
    0.8053   27.0676  -26.2752 H   0  0  0  0  0  0  0  0  0  0  0  0
   -1.0770   26.6020  -25.3100 C   0  0  0  0  0  0  0  0  0  0  0  0
   -0.8145   27.1252  -24.3787 H   0  0  0  0  0  0  0  0  0  0  0  0
   -2.3170   25.9720  -25.4310 C   0  0  0  0  0  0  0  0  0  0  0  0
   -3.0309   26.0041  -24.5947 H   0  0  0  0  0  0  0  0  0  0  0  0
   -2.6570   25.2990  -26.6120 C   0  0  0  0  0  0  0  0  0  0  0  0
   -4.2440   24.5430  -26.7160 Cl  0  0  0  0  0  0  0  0  0  0  0  0
   -4.2980   23.2720  -30.5110 C   0  0  0  0  0  0  0  0  0  0  0  0
   -3.3464   22.7201  -30.5099 H   0  0  0  0  0  0  0  0  0  0  0  0
   -5.4670   22.6380  -30.9430 C   0  0  0  0  0  0  0  0  0  0  0  0
   -5.4278   21.5921  -31.2814 H   0  0  0  0  0  0  0  0  0  0  0  0
  1  2  1  0
  2  3  2  0
  3  4  1  0
  4  5  1  0
  5  6  1  0
  5  7  1  0
  5  8  1  0
  8  9  1  0
  8 10  1  0
  8 11  1  0
 11 12  1  0
 11 13  1  0
 13 14  1  0
 13 15  1  0
 13 16  1  0
 16 17  1  0
 16 18  1  0
 16 19  1  0
 11 20  1  0
 20 21  1  0
 20 22  1  0
 20 23  1  0
 23 24  1  0
 23 25  1  0
 23 26  1  0
  2 27  1  0
 27 28  2  0
 28 29  1  0
 28 30  1  0
 30 31  1  0
 30 32  2  0
 32 33  1  0
 33 34  1  0
 34 35  1  0
 34 36  1  0
 34 37  1  0
 37 38  2  0
 38 39  1  0
 38 40  1  0
 40 41  1  0
 40 42  2  0
 42 43  1  0
 42 44  1  0
 44 45  1  0
 44 46  2  0
 46 47  1  0
 32 48  1  0
 48 49  1  0
 48 50  2  0
 50 51  1  0
 50 27  1  0
 46 37  1  0
M  CHG  1  11   1
M  END
>  <UniqueID>  (38) 
37

>  <SMILES>  (38) 
CC[NH+](CC)CCO/N=C/c1ccc(OCc2ccccc2Cl)cc1

>  <Energy>  (38) 
50.45405144038654

>  <Genealogy>  (38) 
CC[NH+](CC)CCON=Cc1ccc(OCc2ccccc2Cl)cc1 (protonated)
CC[NH+](CC)CCO/N=C/c1ccc(OCc2ccccc2Cl)cc1 (cis-trans isomerization)
CC[NH+](CC)CCO/N=C/c1ccc(OCc2ccccc2Cl)cc1 (3D coordinates assigned)
CC[NH+](CC)CCO/N=C/c1ccc(OCc2ccccc2Cl)cc1 (optimized conformer: 50.45405144038654 kcal/mol)

>  <smiles>  (38) 
CCN(CC)CCON=Cc1ccc(OCc2ccccc2Cl)cc1

>  <score_type>  (38) 
oracle

>  <origin>  (38) 
adg

>  <m_score__min__energy>  (38) 
-7.1200000000000001

>  <m_primary>  (38) 
energy

$$$$
38:0
     RDKit          3D

 64 66  0  0  0  0  0  0  0  0999 V2000
    0.0910   27.1670  -23.0830 C   0  0  0  0  0  0  0  0  0  0  0  0
    0.6520   27.1520  -24.5020 C   0  0  0  0  0  0  0  0  0  0  0  0
   -0.3380   26.5700  -25.4370 N   0  0  0  0  0  0  0  0  0  0  0  0
   -1.4070   25.8290  -24.7290 C   0  0  0  0  0  0  0  0  0  0  0  0
   -2.6430   25.6790  -25.6130 C   0  0  0  0  0  0  0  0  0  0  0  0
   -0.8480   27.5600  -26.4170 C   0  0  0  0  0  0  0  0  0  0  0  0
   -0.7920   27.0950  -27.8860 C   0  0  0  0  0  0  0  0  0  0  0  0
   -0.6360   25.6790  -27.9590 O   0  0  0  0  0  0  0  0  0  0  0  0
   -1.6270   24.8430  -28.4880 C   0  0  0  0  0  0  0  0  0  0  0  0
   -2.4230   25.2990  -29.3550 O   0  0  0  0  0  0  0  0  0  0  0  0
   -1.7240   23.4050  -28.0950 C   0  0  0  0  0  0  0  0  0  0  0  0
   -2.9000   22.7890  -27.8030 C   0  0  0  0  0  0  0  0  0  0  0  0
   -4.2320   23.4690  -27.9180 C   0  0  0  0  0  0  0  0  0  0  0  0
   -2.9110   21.4270  -27.3460 N   0  0  0  0  0  0  0  0  0  0  0  0
   -1.8840   20.6330  -27.3930 C   0  0  0  0  0  0  0  0  0  0  0  0
   -2.0890   19.2050  -26.9750 C   0  0  0  0  0  0  0  0  0  0  0  0
   -0.6130   21.1020  -28.0710 C   0  0  2  0  0  0  0  0  0  0  0  0
    0.6180   20.3350  -27.6510 C   0  0  0  0  0  0  0  0  0  0  0  0
    1.7240   20.9290  -27.5100 O   0  0  0  0  0  0  0  0  0  0  0  0
    0.5310   18.9500  -27.4830 O   0  0  0  0  0  0  0  0  0  0  0  0
    0.8360   18.0320  -28.5250 C   0  0  0  0  0  0  0  0  0  0  0  0
   -0.4180   22.6370  -27.9060 C   0  0  2  0  0  0  0  0  0  0  0  0
    0.2560   23.0240  -26.5780 C   0  0  0  0  0  0  0  0  0  0  0  0
   -0.2590   22.4970  -25.3750 C   0  0  0  0  0  0  0  0  0  0  0  0
    0.2990   22.8440  -24.1500 C   0  0  0  0  0  0  0  0  0  0  0  0
    1.3620   23.6790  -24.0910 N   0  0  0  0  0  0  0  0  0  0  0  0
    1.9370   24.1850  -25.2180 C   0  0  0  0  0  0  0  0  0  0  0  0
    3.0600   25.0210  -25.1070 C   0  0  0  0  0  0  0  0  0  0  0  0
    3.6860   25.5200  -26.2480 C   0  0  0  0  0  0  0  0  0  0  0  0
    3.2050   25.1840  -27.5090 C   0  0  0  0  0  0  0  0  0  0  0  0
    2.0840   24.3610  -27.6420 C   0  0  0  0  0  0  0  0  0  0  0  0
    1.4130   23.8580  -26.5020 C   0  0  0  0  0  0  0  0  0  0  0  0
    0.9203   27.1448  -22.3606 H   0  0  0  0  0  0  0  0  0  0  0  0
   -0.5018   28.0813  -22.9327 H   0  0  0  0  0  0  0  0  0  0  0  0
   -0.5498   26.2857  -22.9327 H   0  0  0  0  0  0  0  0  0  0  0  0
    0.8832   28.1817  -24.8122 H   0  0  0  0  0  0  0  0  0  0  0  0
    1.5660   26.5402  -24.5203 H   0  0  0  0  0  0  0  0  0  0  0  0
   -1.0343   24.8301  -24.4584 H   0  0  0  0  0  0  0  0  0  0  0  0
   -1.6866   26.3921  -23.8264 H   0  0  0  0  0  0  0  0  0  0  0  0
   -3.5358   25.5706  -24.9796 H   0  0  0  0  0  0  0  0  0  0  0  0
   -2.7500   26.5708  -26.2481 H   0  0  0  0  0  0  0  0  0  0  0  0
   -2.5336   24.7875  -26.2481 H   0  0  0  0  0  0  0  0  0  0  0  0
   -1.8959   27.7821  -26.1669 H   0  0  0  0  0  0  0  0  0  0  0  0
   -0.1915   28.4395  -26.3427 H   0  0  0  0  0  0  0  0  0  0  0  0
   -1.7255   27.3824  -28.3919 H   0  0  0  0  0  0  0  0  0  0  0  0
    0.0692   27.5723  -28.3764 H   0  0  0  0  0  0  0  0  0  0  0  0
   -4.6284   23.6714  -26.9121 H   0  0  0  0  0  0  0  0  0  0  0  0
   -4.1138   24.4171  -28.4631 H   0  0  0  0  0  0  0  0  0  0  0  0
   -4.9306   22.8172  -28.4631 H   0  0  0  0  0  0  0  0  0  0  0  0
   -2.0980   19.1421  -25.8768 H   0  0  0  0  0  0  0  0  0  0  0  0
   -3.0486   18.8412  -27.3710 H   0  0  0  0  0  0  0  0  0  0  0  0
   -1.2705   18.5859  -27.3710 H   0  0  0  0  0  0  0  0  0  0  0  0
   -0.7437   20.8846  -29.1414 H   0  0  0  0  0  0  0  0  0  0  0  0
    1.1543   17.0740  -28.0881 H   0  0  0  0  0  0  0  0  0  0  0  0
   -0.0575   17.8727  -29.1465 H   0  0  0  0  0  0  0  0  0  0  0  0
    1.6472   18.4391  -29.1465 H   0  0  0  0  0  0  0  0  0  0  0  0
    0.2716   22.9317  -28.7107 H   0  0  0  0  0  0  0  0  0  0  0  0
   -1.1121   21.8033  -25.4067 H   0  0  0  0  0  0  0  0  0  0  0  0
   -0.1270   22.4365  -23.2213 H   0  0  0  0  0  0  0  0  0  0  0  0
    1.7500   23.9180  -23.1500 H   0  0  0  0  0  0  0  0  0  0  0  0
    3.4485   25.2840  -24.1121 H   0  0  0  0  0  0  0  0  0  0  0  0
    4.5608   26.1798  -26.1511 H   0  0  0  0  0  0  0  0  0  0  0  0
    3.7104   25.5687  -28.4071 H   0  0  0  0  0  0  0  0  0  0  0  0
    1.7180   24.1005  -28.6461 H   0  0  0  0  0  0  0  0  0  0  0  0
  1  2  1  0
  2  3  1  0
  3  4  1  0
  4  5  1  0
  3  6  1  0
  6  7  1  0
  7  8  1  0
  8  9  1  0
  9 10  2  0
  9 11  1  0
 11 12  2  0
 12 13  1  0
 12 14  1  0
 14 15  2  0
 15 16  1  0
 15 17  1  0
 17 18  1  0
 18 19  2  0
 18 20  1  0
 20 21  1  0
 17 22  1  0
 22 23  1  0
 23 24  2  0
 24 25  1  0
 25 26  2  0
 26 27  1  0
 27 28  2  0
 28 29  1  0
 29 30  2  0
 30 31  1  0
 31 32  2  0
 22 11  1  0
 32 23  1  0
 32 27  1  0
  1 33  1  0
  1 34  1  0
  1 35  1  0
  2 36  1  0
  2 37  1  0
  4 38  1  0
  4 39  1  0
  5 40  1  0
  5 41  1  0
  5 42  1  0
  6 43  1  0
  6 44  1  0
  7 45  1  0
  7 46  1  0
 13 47  1  0
 13 48  1  0
 13 49  1  0
 16 50  1  0
 16 51  1  0
 16 52  1  0
 17 53  1  6
 21 54  1  0
 21 55  1  0
 21 56  1  0
 22 57  1  6
 24 58  1  0
 25 59  1  0
 26 60  1  0
 28 61  1  0
 29 62  1  0
 30 63  1  0
 31 64  1  0
M  CHG  1  26   1
M  END
>  <UniqueID>  (39) 
38

>  <SMILES>  (39) 
CCN(CC)CCOC(=O)C1=C(C)N=C(C)[C@H](C(=O)OC)[C@@H]1c1cc[nH+]c2ccccc12

>  <Energy>  (39) 
75.96163519611702

>  <Genealogy>  (39) 
CCN(CC)CCOC(=O)C1=C(C)N=C(C)C(C(=O)OC)C1c1cc[nH+]c2ccccc12 (protonated)
CCN(CC)CCOC(=O)C1=C(C)N=C(C)[C@H](C(=O)OC)[C@@H]1c1cc[nH+]c2ccccc12 (chirality)
CCN(CC)CCOC(=O)C1=C(C)N=C(C)[C@H](C(=O)OC)[C@@H]1c1cc[nH+]c2ccccc12 (3D coordinates assigned)
CCN(CC)CCOC(=O)C1=C(C)N=C(C)[C@H](C(=O)OC)[C@@H]1c1cc[nH+]c2ccccc12 (nonaromatic ring conformer: 75.96163519611702 kcal/mol)

>  <smiles>  (39) 
CCN(CC)CCOC(=O)C1=C(C)N=C(C)C(C(=O)OC)C1c1ccnc2ccccc12

>  <score_type>  (39) 
oracle

>  <origin>  (39) 
adg

>  <m_score__min__energy>  (39) 
-7.1900000000000004

>  <m_primary>  (39) 
energy

$$$$
39:0
     RDKit          3D

 39 42  0  0  0  0  0  0  0  0999 V2000
   -0.3510   29.5320  -27.4800 C   0  0  0  0  0  0  0  0  0  0  0  0
   -0.5800   28.1700  -27.1340 O   0  0  0  0  0  0  0  0  0  0  0  0
   -0.4080   27.6340  -25.8460 C   0  0  0  0  0  0  0  0  0  0  0  0
    0.3770   28.2840  -24.8730 C   0  0  0  0  0  0  0  0  0  0  0  0
    0.5050   27.7480  -23.5900 C   0  0  0  0  0  0  0  0  0  0  0  0
   -0.1470   26.5610  -23.2600 C   0  0  0  0  0  0  0  0  0  0  0  0
   -0.9240   25.9010  -24.2140 C   0  0  0  0  0  0  0  0  0  0  0  0
   -1.0550   26.4220  -25.5130 C   0  0  0  0  0  0  0  0  0  0  0  0
   -1.8760   25.6920  -26.5100 C   0  0  0  0  0  0  0  0  0  0  0  0
   -3.1700   25.2580  -26.1800 C   0  0  0  0  0  0  0  0  0  0  0  0
   -3.9440   24.5630  -27.1140 C   0  0  0  0  0  0  0  0  0  0  0  0
   -3.4370   24.2800  -28.3950 C   0  0  0  0  0  0  0  0  0  0  0  0
   -4.2530   23.5440  -29.3930 C   0  0  0  0  0  0  0  0  0  0  0  0
   -5.6060   23.4190  -29.3370 N   0  0  0  0  0  0  0  0  0  0  0  0
   -6.0960   22.6940  -30.3780 C   0  0  0  0  0  0  0  0  0  0  0  0
   -7.4460   22.3990  -30.5800 C   0  0  0  0  0  0  0  0  0  0  0  0
   -7.8100   21.6330  -31.7020 C   0  0  0  0  0  0  0  0  0  0  0  0
   -9.4980   21.2460  -31.9830 Cl  0  0  0  0  0  0  0  0  0  0  0  0
   -6.8270   21.1740  -32.6020 C   0  0  0  0  0  0  0  0  0  0  0  0
   -5.4720   21.4760  -32.3870 C   0  0  0  0  0  0  0  0  0  0  0  0
   -5.1390   22.2350  -31.2690 C   0  0  0  0  0  0  0  0  0  0  0  0
   -3.6260   22.7420  -30.7540 S   0  0  0  0  0  0  0  0  0  0  0  0
   -2.1400   24.7150  -28.7210 C   0  0  0  0  0  0  0  0  0  0  0  0
   -1.3660   25.4090  -27.7870 C   0  0  0  0  0  0  0  0  0  0  0  0
   -0.2502   30.1313  -26.5631 H   0  0  0  0  0  0  0  0  0  0  0  0
    0.5728   29.6096  -28.0721 H   0  0  0  0  0  0  0  0  0  0  0  0
   -1.1986   29.9074  -28.0721 H   0  0  0  0  0  0  0  0  0  0  0  0
    0.8934   29.2217  -25.1263 H   0  0  0  0  0  0  0  0  0  0  0  0
    1.1213   28.2633  -22.8386 H   0  0  0  0  0  0  0  0  0  0  0  0
   -0.0493   26.1438  -22.2469 H   0  0  0  0  0  0  0  0  0  0  0  0
   -1.4378   24.9658  -23.9469 H   0  0  0  0  0  0  0  0  0  0  0  0
   -3.5775   25.4663  -25.1797 H   0  0  0  0  0  0  0  0  0  0  0  0
   -4.9587   24.2345  -26.8446 H   0  0  0  0  0  0  0  0  0  0  0  0
   -6.2100   23.8050  -28.5790 H   0  0  0  0  0  0  0  0  0  0  0  0
   -8.2100   22.7588  -29.8751 H   0  0  0  0  0  0  0  0  0  0  0  0
   -7.1224   20.5764  -33.4770 H   0  0  0  0  0  0  0  0  0  0  0  0
   -4.6964   21.1227  -33.0824 H   0  0  0  0  0  0  0  0  0  0  0  0
   -1.7308   24.5070  -29.7207 H   0  0  0  0  0  0  0  0  0  0  0  0
   -0.3502   25.7358  -28.0542 H   0  0  0  0  0  0  0  0  0  0  0  0
  1  2  1  0
  2  3  1  0
  3  4  2  0
  4  5  1  0
  5  6  2  0
  6  7  1  0
  7  8  2  0
  8  9  1  0
  9 10  2  0
 10 11  1  0
 11 12  2  0
 12 13  1  0
 13 14  2  0
 14 15  1  0
 15 16  2  0
 16 17  1  0
 17 18  1  0
 17 19  2  0
 19 20  1  0
 20 21  2  0
 21 22  1  0
 12 23  1  0
 23 24  2  0
  8  3  1  0
 24  9  1  0
 22 13  1  0
 21 15  1  0
  1 25  1  0
  1 26  1  0
  1 27  1  0
  4 28  1  0
  5 29  1  0
  6 30  1  0
  7 31  1  0
 10 32  1  0
 11 33  1  0
 14 34  1  0
 16 35  1  0
 19 36  1  0
 20 37  1  0
 23 38  1  0
 24 39  1  0
M  CHG  1  14   1
M  END
>  <UniqueID>  (40) 
39

>  <SMILES>  (40) 
COc1ccccc1-c1ccc(-c2[nH+]c3cc(Cl)ccc3s2)cc1

>  <Energy>  (40) 
86.2869114327851

>  <Genealogy>  (40) 
COc1ccccc1-c1ccc(-c2[nH+]c3cc(Cl)ccc3s2)cc1 (protonated)
COc1ccccc1-c1ccc(-c2[nH+]c3cc(Cl)ccc3s2)cc1 (3D coordinates assigned)
COc1ccccc1-c1ccc(-c2[nH+]c3cc(Cl)ccc3s2)cc1 (optimized conformer: 86.2869114327851 kcal/mol)

>  <smiles>  (40) 
COc1ccccc1-c1ccc(-c2nc3cc(Cl)ccc3s2)cc1

>  <score_type>  (40) 
oracle

>  <origin>  (40) 
adg

>  <m_score__min__energy>  (40) 
-7.7400000000000002

>  <m_primary>  (40) 
energy

$$$$
40:0
     RDKit          3D

 17 18  0  0  0  0  0  0  0  0999 V2000
   -3.9920   24.5010  -30.8380 O   0  0  0  0  0  0  0  0  0  0  0  0
   -5.1170   23.9960  -31.1010 C   0  0  0  0  0  0  0  0  0  0  0  0
   -5.2230   22.7620  -31.8920 C   0  0  0  0  0  0  0  0  0  0  0  0
   -6.4330   22.2660  -32.1810 C   0  0  0  0  0  0  0  0  0  0  0  0
   -6.6110   20.7330  -33.0890 S   0  0  0  0  0  0  0  0  0  0  0  0
   -7.4420   19.8510  -31.7060 C   0  0  0  0  0  0  0  0  0  0  0  0
   -8.6470   20.5840  -31.0540 C   0  0  0  0  0  0  0  0  0  0  0  0
   -9.2200   22.0800  -31.9490 S   0  0  0  0  0  0  0  0  0  0  0  0
   -7.6620   22.9160  -31.6790 C   0  0  0  0  0  0  0  0  0  0  0  0
   -7.6100   23.9870  -30.9400 N   0  0  0  0  0  0  0  0  0  0  0  0
   -6.3610   24.6160  -30.6240 C   0  0  0  0  0  0  0  0  0  0  0  0
   -6.3400   25.6730  -29.9400 O   0  0  0  0  0  0  0  0  0  0  0  0
   -4.3155   22.2497  -32.2440 H   0  0  0  0  0  0  0  0  0  0  0  0
   -7.8040   18.8865  -32.0917 H   0  0  0  0  0  0  0  0  0  0  0  0
   -6.6845   19.7644  -30.9131 H   0  0  0  0  0  0  0  0  0  0  0  0
   -9.4875   19.8766  -30.9984 H   0  0  0  0  0  0  0  0  0  0  0  0
   -8.3009   20.9287  -30.0684 H   0  0  0  0  0  0  0  0  0  0  0  0
  1  2  2  0
  2  3  1  0
  3  4  2  0
  4  5  1  0
  5  6  1  0
  6  7  1  0
  7  8  1  0
  8  9  1  0
  9 10  2  0
 10 11  1  0
 11 12  2  0
 11  2  1  0
  9  4  1  0
  3 13  1  0
  6 14  1  0
  6 15  1  0
  7 16  1  0
  7 17  1  0
M  END
>  <UniqueID>  (41) 
40

>  <SMILES>  (41) 
O=C1C=C2SCCSC2=NC1=O

>  <Energy>  (41) 
22.29892102035769

>  <Genealogy>  (41) 
O=C1C=C2SCCSC2=NC1=O (3D coordinates assigned)
O=C1C=C2SCCSC2=NC1=O (nonaromatic ring conformer: 22.29892102035769 kcal/mol)

>  <smiles>  (41) 
O=C1C=C2SCCSC2=NC1=O

>  <score_type>  (41) 
oracle

>  <origin>  (41) 
adg

>  <m_score__min__energy>  (41) 
-6.3899999999999997

>  <m_primary>  (41) 
energy

$$$$
41:0
     RDKit          3D

 44 46  0  0  0  0  0  0  0  0999 V2000
   -5.6360   12.2230  -34.3870 C   0  0  0  0  0  0  0  0  0  0  0  0
   -6.0620   13.6430  -34.2130 C   0  0  0  0  0  0  0  0  0  0  0  0
   -5.3110   14.6480  -33.6410 C   0  0  0  0  0  0  0  0  0  0  0  0
   -6.1050   15.7640  -33.7960 C   0  0  0  0  0  0  0  0  0  0  0  0
   -5.7740   17.1570  -33.3370 C   0  0  0  0  0  0  0  0  0  0  0  0
   -6.9420   18.0670  -33.4420 N   0  0  0  0  0  0  0  0  0  0  0  0
   -7.9730   17.6890  -32.4370 C   0  0  0  0  0  0  0  0  0  0  0  0
   -8.8570   18.8840  -32.0580 C   0  0  0  0  0  0  0  0  0  0  0  0
   -8.0600   19.9370  -31.3890 N   0  0  0  0  0  0  0  0  0  0  0  0
   -8.7720   21.2320  -31.4150 C   0  0  0  0  0  0  0  0  0  0  0  0
   -7.7960   22.3610  -31.2070 C   0  0  0  0  0  0  0  0  0  0  0  0
   -7.3530   23.1400  -32.2870 C   0  0  0  0  0  0  0  0  0  0  0  0
   -6.4190   24.1610  -32.0850 C   0  0  0  0  0  0  0  0  0  0  0  0
   -5.9210   24.4280  -30.7970 C   0  0  0  0  0  0  0  0  0  0  0  0
   -4.9600   25.4790  -30.5890 N   0  0  0  0  0  0  0  0  0  0  0  0
   -3.7370   25.2250  -30.5490 O   0  0  0  0  0  0  0  0  0  0  0  0
   -5.3740   26.7830  -30.4300 O   0  0  0  0  0  0  0  0  0  0  0  0
   -6.3720   23.6470  -29.7160 C   0  0  0  0  0  0  0  0  0  0  0  0
   -7.2950   22.6170  -29.9210 C   0  0  0  0  0  0  0  0  0  0  0  0
   -6.6700   20.0440  -31.9090 C   0  0  0  0  0  0  0  0  0  0  0  0
   -6.5340   19.4980  -33.3410 C   0  0  0  0  0  0  0  0  0  0  0  0
   -7.2150   15.4180  -34.4090 O   0  0  0  0  0  0  0  0  0  0  0  0
   -7.2200   14.1460  -34.6840 N   0  0  0  0  0  0  0  0  0  0  0  0
   -5.4966   11.7584  -33.3997 H   0  0  0  0  0  0  0  0  0  0  0  0
   -6.4090   11.6740  -34.9448 H   0  0  0  0  0  0  0  0  0  0  0  0
   -4.6885   12.1902  -34.9448 H   0  0  0  0  0  0  0  0  0  0  0  0
   -4.3178   14.5764  -33.1737 H   0  0  0  0  0  0  0  0  0  0  0  0
   -5.4474   17.1173  -32.2873 H   0  0  0  0  0  0  0  0  0  0  0  0
   -4.9771   17.5492  -33.9859 H   0  0  0  0  0  0  0  0  0  0  0  0
   -7.3770   17.9310  -34.3880 H   0  0  0  0  0  0  0  0  0  0  0  0
   -8.6074   16.8949  -32.8577 H   0  0  0  0  0  0  0  0  0  0  0  0
   -7.4577   17.3408  -31.5297 H   0  0  0  0  0  0  0  0  0  0  0  0
   -9.3111   19.2999  -32.9695 H   0  0  0  0  0  0  0  0  0  0  0  0
   -9.6376   18.5387  -31.3642 H   0  0  0  0  0  0  0  0  0  0  0  0
   -9.2691   21.3549  -32.3885 H   0  0  0  0  0  0  0  0  0  0  0  0
   -9.5205   21.2487  -30.6091 H   0  0  0  0  0  0  0  0  0  0  0  0
   -7.7424   22.9465  -33.2974 H   0  0  0  0  0  0  0  0  0  0  0  0
   -6.0712   24.7597  -32.9397 H   0  0  0  0  0  0  0  0  0  0  0  0
   -5.9954   23.8486  -28.7024 H   0  0  0  0  0  0  0  0  0  0  0  0
   -7.6300   22.0046  -29.0708 H   0  0  0  0  0  0  0  0  0  0  0  0
   -6.3723   21.1029  -31.9053 H   0  0  0  0  0  0  0  0  0  0  0  0
   -6.0215   19.4398  -31.2575 H   0  0  0  0  0  0  0  0  0  0  0  0
   -7.1712   20.0956  -34.0095 H   0  0  0  0  0  0  0  0  0  0  0  0
   -5.4745   19.5670  -33.6284 H   0  0  0  0  0  0  0  0  0  0  0  0
  1  2  1  0
  2  3  1  0
  3  4  2  0
  4  5  1  0
  5  6  1  0
  6  7  1  0
  7  8  1  0
  8  9  1  0
  9 10  1  0
 10 11  1  0
 11 12  2  0
 12 13  1  0
 13 14  2  0
 14 15  1  0
 15 16  2  0
 15 17  1  0
 14 18  1  0
 18 19  2  0
  9 20  1  0
 20 21  1  0
  4 22  1  0
 22 23  1  0
 23  2  2  0
 21  6  1  0
 19 11  1  0
  1 24  1  0
  1 25  1  0
  1 26  1  0
  3 27  1  0
  5 28  1  0
  5 29  1  0
  6 30  1  0
  7 31  1  0
  7 32  1  0
  8 33  1  0
  8 34  1  0
 10 35  1  0
 10 36  1  0
 12 37  1  0
 13 38  1  0
 18 39  1  0
 19 40  1  0
 20 41  1  0
 20 42  1  0
 21 43  1  0
 21 44  1  0
M  CHG  3   6   1  15   1  17  -1
M  END
>  <UniqueID>  (42) 
41

>  <SMILES>  (42) 
Cc1cc(C[NH+]2CCN(Cc3ccc([N+](=O)[O-])cc3)CC2)on1

>  <Energy>  (42) 
88.93375953107477

>  <Genealogy>  (42) 
Cc1cc(C[NH+]2CCN(Cc3ccc([N+](=O)[O-])cc3)CC2)on1 (protonated)
Cc1cc(C[NH+]2CCN(Cc3ccc([N+](=O)[O-])cc3)CC2)on1 (3D coordinates assigned)
Cc1cc(C[NH+]2CCN(Cc3ccc([N+](=O)[O-])cc3)CC2)on1 (nonaromatic ring conformer: 88.93375953107477 kcal/mol)

>  <smiles>  (42) 
Cc1cc(CN2CCN(Cc3ccc([N+](=O)[O-])cc3)CC2)on1

>  <score_type>  (42) 
oracle

>  <origin>  (42) 
adg

>  <m_score__min__energy>  (42) 
-8.1799999999999997

>  <m_primary>  (42) 
energy

$$$$
42:0
     RDKit          3D

 30 31  0  0  0  0  0  0  0  0999 V2000
   -1.4158   20.2875  -25.3474 H   0  0  0  0  0  0  0  0  0  0  0  0
   -1.3090   20.7110  -26.3570 C   0  0  0  0  0  0  0  0  0  0  0  0
   -1.1840   19.8650  -27.4560 C   0  0  0  0  0  0  0  0  0  0  0  0
   -1.1900   18.7744  -27.3125 H   0  0  0  0  0  0  0  0  0  0  0  0
   -1.0510   20.3980  -28.7400 C   0  0  0  0  0  0  0  0  0  0  0  0
   -0.9210   19.5430  -29.7860 F   0  0  0  0  0  0  0  0  0  0  0  0
   -1.0490   21.7950  -28.9390 C   0  0  0  0  0  0  0  0  0  0  0  0
   -0.8840   22.3410  -30.3330 C   0  0  0  0  0  0  0  0  0  0  0  0
   -0.5662   23.3927  -30.2796 H   0  0  0  0  0  0  0  0  0  0  0  0
   -0.1229   21.7547  -30.8687 H   0  0  0  0  0  0  0  0  0  0  0  0
   -1.8424   22.2743  -30.8687 H   0  0  0  0  0  0  0  0  0  0  0  0
   -1.1690   22.6560  -27.8150 C   0  0  0  0  0  0  0  0  0  0  0  0
   -1.1510   24.4250  -27.9630 S   0  0  0  0  0  0  0  0  0  0  0  0
    0.2560   24.8900  -28.2160 O   0  0  0  0  0  0  0  0  0  0  0  0
   -1.5960   25.0500  -26.6730 O   0  0  0  0  0  0  0  0  0  0  0  0
   -2.1110   24.9180  -29.3340 N   0  0  0  0  0  0  0  0  0  0  0  0
   -3.3060   24.5650  -29.7190 C   0  0  0  0  0  0  0  0  0  0  0  0
   -3.8650   25.2420  -30.7580 N   0  0  0  0  0  0  0  0  0  0  0  0
   -5.0820   24.9550  -31.2230 N   0  0  0  0  0  0  0  0  0  0  0  0
   -5.8330   23.9640  -30.6800 C   0  0  0  0  0  0  0  0  0  0  0  0
   -7.1860   23.6550  -31.2370 C   0  0  0  0  0  0  0  0  0  0  0  0
   -7.8943   23.4932  -30.4111 H   0  0  0  0  0  0  0  0  0  0  0  0
   -7.5294   24.4978  -31.8548 H   0  0  0  0  0  0  0  0  0  0  0  0
   -7.1295   22.7466  -31.8548 H   0  0  0  0  0  0  0  0  0  0  0  0
   -5.3150   23.2230  -29.6170 C   0  0  0  0  0  0  0  0  0  0  0  0
   -5.9040   22.4095  -29.1685 H   0  0  0  0  0  0  0  0  0  0  0  0
   -4.0450   23.5230  -29.1290 C   0  0  0  0  0  0  0  0  0  0  0  0
   -3.6236   22.9502  -28.2897 H   0  0  0  0  0  0  0  0  0  0  0  0
   -1.2990   22.0930  -26.5340 C   0  0  0  0  0  0  0  0  0  0  0  0
   -1.3942   22.7526  -25.6588 H   0  0  0  0  0  0  0  0  0  0  0  0
  1  2  1  0
  2  3  2  0
  3  4  1  0
  3  5  1  0
  5  6  1  0
  5  7  2  0
  7  8  1  0
  8  9  1  0
  8 10  1  0
  8 11  1  0
  7 12  1  0
 12 13  1  0
 13 14  2  0
 13 15  2  0
 13 16  1  0
 16 17  2  0
 17 18  1  0
 18 19  1  0
 19 20  2  0
 20 21  1  0
 21 22  1  0
 21 23  1  0
 21 24  1  0
 20 25  1  0
 25 26  1  0
 25 27  2  0
 27 28  1  0
 12 29  2  0
 29 30  1  0
 29  2  1  0
 27 17  1  0
M  CHG  1  18  -1
M  END
>  <UniqueID>  (43) 
42

>  <SMILES>  (43) 
Cc1cc/c(=N\S(=O)(=O)c2cccc(F)c2C)[n-]n1

>  <Energy>  (43) 
43.58583120016029

>  <Genealogy>  (43) 
Cc1ccc(=NS(=O)(=O)c2cccc(F)c2C)[n-]n1 (protonated)
Cc1cc/c(=N\S(=O)(=O)c2cccc(F)c2C)[n-]n1 (cis-trans isomerization)
Cc1cc/c(=N\S(=O)(=O)c2cccc(F)c2C)[n-]n1 (3D coordinates assigned)
Cc1cc/c(=N\S(=O)(=O)c2cccc(F)c2C)[n-]n1 (optimized conformer: 43.58583120016029 kcal/mol)

>  <smiles>  (43) 
Cc1ccc(=NS(=O)(=O)c2cccc(F)c2C)[nH]n1

>  <score_type>  (43) 
oracle

>  <origin>  (43) 
adg

>  <m_score__min__energy>  (43) 
-9.0899999999999999

>  <m_primary>  (43) 
energy

$$$$
43:0
     RDKit          3D

 60 62  0  0  0  0  0  0  0  0999 V2000
   -5.5840   16.9760  -34.1720 C   0  0  0  0  0  0  0  0  0  0  0  0
   -5.7500   17.6610  -32.9350 O   0  0  0  0  0  0  0  0  0  0  0  0
   -6.8780   18.4240  -32.5880 C   0  0  0  0  0  0  0  0  0  0  0  0
   -8.0030   17.8400  -31.9720 C   0  0  0  0  0  0  0  0  0  0  0  0
   -9.1070   18.6220  -31.6260 C   0  0  0  0  0  0  0  0  0  0  0  0
   -9.1040   19.9920  -31.8860 C   0  0  0  0  0  0  0  0  0  0  0  0
   -7.9990   20.5840  -32.4990 C   0  0  0  0  0  0  0  0  0  0  0  0
   -6.8840   19.8100  -32.8640 C   0  0  0  0  0  0  0  0  0  0  0  0
   -5.7080   20.4950  -33.5130 C   0  0  0  0  0  0  0  0  0  0  0  0
   -4.4620   19.9790  -32.9390 N   0  0  0  0  0  0  0  0  0  0  0  0
   -3.4260   21.0190  -32.9260 C   0  0  0  0  0  0  0  0  0  0  0  0
   -3.9080   22.2470  -32.1390 C   0  0  0  0  0  0  0  0  0  0  0  0
   -4.7620   21.8960  -30.9090 C   0  0  0  0  0  0  0  0  0  0  0  0
   -5.9530   22.8470  -30.7050 C   0  0  0  0  0  0  0  0  0  0  0  0
   -5.8070   24.1010  -31.5770 C   0  0  0  0  0  0  0  0  0  0  0  0
   -5.0830   25.2430  -30.8490 C   0  0  0  0  0  0  0  0  0  0  0  0
   -3.7150   24.8590  -30.4520 N   0  0  0  0  0  0  0  0  0  0  0  0
   -3.5980   24.5410  -29.0180 C   0  0  0  0  0  0  0  0  0  0  0  0
   -2.2590   23.9060  -28.7140 C   0  0  0  0  0  0  0  0  0  0  0  0
   -1.0950   24.6740  -28.9010 C   0  0  0  0  0  0  0  0  0  0  0  0
    0.1570   24.1710  -28.5500 C   0  0  0  0  0  0  0  0  0  0  0  0
    0.2740   22.8960  -28.0010 C   0  0  0  0  0  0  0  0  0  0  0  0
   -0.8640   22.0990  -27.8170 C   0  0  0  0  0  0  0  0  0  0  0  0
   -0.7380   20.8130  -27.2670 C   0  0  0  0  0  0  0  0  0  0  0  0
   -1.8630   20.0070  -27.0980 C   0  0  0  0  0  0  0  0  0  0  0  0
   -3.1200   20.4700  -27.4830 C   0  0  0  0  0  0  0  0  0  0  0  0
   -3.2660   21.7500  -28.0220 C   0  0  0  0  0  0  0  0  0  0  0  0
   -2.1440   22.5910  -28.1890 C   0  0  0  0  0  0  0  0  0  0  0  0
   -5.3290   15.9238  -33.9772 H   0  0  0  0  0  0  0  0  0  0  0  0
   -6.5202   17.0259  -34.7473 H   0  0  0  0  0  0  0  0  0  0  0  0
   -4.7745   17.4490  -34.7473 H   0  0  0  0  0  0  0  0  0  0  0  0
   -8.0115   16.7602  -31.7622 H   0  0  0  0  0  0  0  0  0  0  0  0
   -9.9810   18.1562  -31.1473 H   0  0  0  0  0  0  0  0  0  0  0  0
   -9.9730   20.6063  -31.6078 H   0  0  0  0  0  0  0  0  0  0  0  0
   -8.0006   21.6658  -32.6983 H   0  0  0  0  0  0  0  0  0  0  0  0
   -5.7215   20.2991  -34.5953 H   0  0  0  0  0  0  0  0  0  0  0  0
   -5.7717   21.5786  -33.3348 H   0  0  0  0  0  0  0  0  0  0  0  0
   -4.1290   19.1930  -33.5470 H   0  0  0  0  0  0  0  0  0  0  0  0
   -2.5172   20.6191  -32.4524 H   0  0  0  0  0  0  0  0  0  0  0  0
   -3.2116   21.3213  -33.9617 H   0  0  0  0  0  0  0  0  0  0  0  0
   -3.0262   22.8106  -31.8003 H   0  0  0  0  0  0  0  0  0  0  0  0
   -4.5457   22.8336  -32.8167 H   0  0  0  0  0  0  0  0  0  0  0  0
   -5.1486   20.8736  -31.0324 H   0  0  0  0  0  0  0  0  0  0  0  0
   -4.1144   21.9899  -30.0248 H   0  0  0  0  0  0  0  0  0  0  0  0
   -6.8819   22.3247  -30.9777 H   0  0  0  0  0  0  0  0  0  0  0  0
   -5.9811   23.1541  -29.6491 H   0  0  0  0  0  0  0  0  0  0  0  0
   -5.2345   23.8387  -32.4789 H   0  0  0  0  0  0  0  0  0  0  0  0
   -6.8185   24.4530  -31.8279 H   0  0  0  0  0  0  0  0  0  0  0  0
   -5.0282   26.1140  -31.5186 H   0  0  0  0  0  0  0  0  0  0  0  0
   -5.6498   25.4808  -29.9368 H   0  0  0  0  0  0  0  0  0  0  0  0
   -3.0900   25.6790  -30.6370 H   0  0  0  0  0  0  0  0  0  0  0  0
   -3.6980   25.4679  -28.4341 H   0  0  0  0  0  0  0  0  0  0  0  0
   -4.3934   23.8303  -28.7493 H   0  0  0  0  0  0  0  0  0  0  0  0
   -1.1738   25.6840  -29.3295 H   0  0  0  0  0  0  0  0  0  0  0  0
    1.0568   24.7839  -28.7073 H   0  0  0  0  0  0  0  0  0  0  0  0
    1.2636   22.5133  -27.7108 H   0  0  0  0  0  0  0  0  0  0  0  0
    0.2527   20.4399  -26.9682 H   0  0  0  0  0  0  0  0  0  0  0  0
   -1.7583   19.0035  -26.6599 H   0  0  0  0  0  0  0  0  0  0  0  0
   -4.0018   19.8237  -27.3616 H   0  0  0  0  0  0  0  0  0  0  0  0
   -4.2635   22.1061  -28.3190 H   0  0  0  0  0  0  0  0  0  0  0  0
  1  2  1  0
  2  3  1  0
  3  4  2  0
  4  5  1  0
  5  6  2  0
  6  7  1  0
  7  8  2  0
  8  9  1  0
  9 10  1  0
 10 11  1  0
 11 12  1  0
 12 13  1  0
 13 14  1  0
 14 15  1  0
 15 16  1  0
 16 17  1  0
 17 18  1  0
 18 19  1  0
 19 20  2  0
 20 21  1  0
 21 22  2  0
 22 23  1  0
 23 24  2  0
 24 25  1  0
 25 26  2  0
 26 27  1  0
 27 28  2  0
  8  3  1  0
 28 19  1  0
 28 23  1  0
  1 29  1  0
  1 30  1  0
  1 31  1  0
  4 32  1  0
  5 33  1  0
  6 34  1  0
  7 35  1  0
  9 36  1  0
  9 37  1  0
 10 38  1  0
 11 39  1  0
 11 40  1  0
 12 41  1  0
 12 42  1  0
 13 43  1  0
 13 44  1  0
 14 45  1  0
 14 46  1  0
 15 47  1  0
 15 48  1  0
 16 49  1  0
 16 50  1  0
 17 51  1  0
 18 52  1  0
 18 53  1  0
 20 54  1  0
 21 55  1  0
 22 56  1  0
 24 57  1  0
 25 58  1  0
 26 59  1  0
 27 60  1  0
M  END
>  <UniqueID>  (44) 
43

>  <SMILES>  (44) 
COc1ccccc1CNCCCCCCNCc1cccc2ccccc12

>  <Energy>  (44) 
52.42313948708463

>  <Genealogy>  (44) 
COc1ccccc1CNCCCCCCNCc1cccc2ccccc12 (3D coordinates assigned)
COc1ccccc1CNCCCCCCNCc1cccc2ccccc12 (optimized conformer: 52.42313948708463 kcal/mol)

>  <smiles>  (44) 
COc1ccccc1CNCCCCCCNCc1cccc2ccccc12

>  <score_type>  (44) 
oracle

>  <origin>  (44) 
adg

>  <m_score__min__energy>  (44) 
-10.73

>  <m_primary>  (44) 
energy

$$$$
44:0
     RDKit          3D

 38 40  0  0  0  0  0  0  0  0999 V2000
   -7.2190   23.2550  -31.1590 C   0  0  0  0  0  0  0  0  0  0  0  0
   -7.8850   21.9800  -31.5870 C   0  0  0  0  0  0  0  0  0  0  0  0
   -9.2470   21.9730  -31.9220 C   0  0  0  0  0  0  0  0  0  0  0  0
   -9.8670   20.7850  -32.3190 C   0  0  0  0  0  0  0  0  0  0  0  0
   -9.1330   19.5970  -32.3820 C   0  0  0  0  0  0  0  0  0  0  0  0
   -7.7760   19.5840  -32.0270 C   0  0  0  0  0  0  0  0  0  0  0  0
   -6.9690   18.3210  -32.1690 C   0  0  0  0  0  0  0  0  0  0  0  0
   -6.3100   18.1530  -33.8680 S   0  0  0  0  0  0  0  0  0  0  0  0
   -4.8240   19.0940  -33.5360 C   0  0  0  0  0  0  0  0  0  0  0  0
   -3.6720   18.9570  -34.2180 N   0  0  0  0  0  0  0  0  0  0  0  0
   -2.8200   19.7820  -33.6310 N   0  0  0  0  0  0  0  0  0  0  0  0
   -3.4690   20.3850  -32.6160 C   0  0  0  0  0  0  0  0  0  0  0  0
   -2.8800   21.3420  -31.6540 C   0  0  0  0  0  0  0  0  0  0  0  0
   -1.5550   21.2090  -31.2030 C   0  0  0  0  0  0  0  0  0  0  0  0
   -1.0320   22.1130  -30.2740 C   0  0  0  0  0  0  0  0  0  0  0  0
   -1.8210   23.1610  -29.7850 C   0  0  0  0  0  0  0  0  0  0  0  0
   -1.1610   24.2860  -28.6070 S   0  0  0  0  0  0  0  0  0  0  0  0
   -1.5710   25.6880  -28.9610 O   0  0  0  0  0  0  0  0  0  0  0  0
    0.3380   24.1850  -28.6000 O   0  0  0  0  0  0  0  0  0  0  0  0
   -1.7460   23.9280  -27.0790 F   0  0  0  0  0  0  0  0  0  0  0  0
   -3.1410   23.2980  -30.2310 C   0  0  0  0  0  0  0  0  0  0  0  0
   -3.6660   22.3980  -31.1620 C   0  0  0  0  0  0  0  0  0  0  0  0
   -4.7130   19.9690  -32.5630 O   0  0  0  0  0  0  0  0  0  0  0  0
   -7.1600   20.7790  -31.6140 C   0  0  0  0  0  0  0  0  0  0  0  0
   -7.1932   23.3043  -30.0604 H   0  0  0  0  0  0  0  0  0  0  0  0
   -6.1917   23.2817  -31.5514 H   0  0  0  0  0  0  0  0  0  0  0  0
   -7.7839   24.1134  -31.5514 H   0  0  0  0  0  0  0  0  0  0  0  0
   -9.8288   22.9052  -31.8721 H   0  0  0  0  0  0  0  0  0  0  0  0
  -10.9350   20.7848  -32.5825 H   0  0  0  0  0  0  0  0  0  0  0  0
   -9.6217   18.6682  -32.7114 H   0  0  0  0  0  0  0  0  0  0  0  0
   -6.1297   18.3483  -31.4585 H   0  0  0  0  0  0  0  0  0  0  0  0
   -7.6227   17.4614  -31.9595 H   0  0  0  0  0  0  0  0  0  0  0  0
   -1.8230   19.8930  -33.9160 H   0  0  0  0  0  0  0  0  0  0  0  0
   -0.9270   20.3897  -31.5830 H   0  0  0  0  0  0  0  0  0  0  0  0
    0.0051   22.0004  -29.9252 H   0  0  0  0  0  0  0  0  0  0  0  0
   -3.7670   24.1170  -29.8472 H   0  0  0  0  0  0  0  0  0  0  0  0
   -4.7019   22.5169  -31.5123 H   0  0  0  0  0  0  0  0  0  0  0  0
   -6.1028   20.7720  -31.3101 H   0  0  0  0  0  0  0  0  0  0  0  0
  1  2  1  0
  2  3  2  0
  3  4  1  0
  4  5  2  0
  5  6  1  0
  6  7  1  0
  7  8  1  0
  8  9  1  0
  9 10  2  0
 10 11  1  0
 11 12  2  0
 12 13  1  0
 13 14  2  0
 14 15  1  0
 15 16  2  0
 16 17  1  0
 17 18  2  0
 17 19  2  0
 17 20  1  0
 16 21  1  0
 21 22  2  0
 12 23  1  0
  6 24  2  0
 24  2  1  0
 23  9  1  0
 22 13  1  0
  1 25  1  0
  1 26  1  0
  1 27  1  0
  3 28  1  0
  4 29  1  0
  5 30  1  0
  7 31  1  0
  7 32  1  0
 11 33  1  0
 14 34  1  0
 15 35  1  0
 21 36  1  0
 22 37  1  0
 24 38  1  0
M  CHG  1  11   1
M  END
>  <UniqueID>  (45) 
44

>  <SMILES>  (45) 
Cc1cccc(CSc2n[nH+]c(-c3ccc(S(=O)(=O)F)cc3)o2)c1

>  <Energy>  (45) 
70.13962257842994

>  <Genealogy>  (45) 
Cc1cccc(CSc2n[nH+]c(-c3ccc(S(=O)(=O)F)cc3)o2)c1 (protonated)
Cc1cccc(CSc2n[nH+]c(-c3ccc(S(=O)(=O)F)cc3)o2)c1 (3D coordinates assigned)
Cc1cccc(CSc2n[nH+]c(-c3ccc(S(=O)(=O)F)cc3)o2)c1 (optimized conformer: 70.13962257842994 kcal/mol)

>  <smiles>  (45) 
Cc1cccc(CSc2nnc(-c3ccc(S(=O)(=O)F)cc3)o2)c1

>  <score_type>  (45) 
oracle

>  <origin>  (45) 
adg

>  <m_score__min__energy>  (45) 
-8.6099999999999994

>  <m_primary>  (45) 
energy

$$$$
