0:0
     RDKit          3D

 48 49  0  0  0  0  0  0  0  0999 V2000
   -2.9880   21.9870  -27.8180 C   0  0  0  0  0  0  0  0  0  0  0  0
   -3.8370   23.2150  -27.4800 C   0  0  0  0  0  0  0  0  0  0  0  0
   -3.0680   24.5470  -27.5900 C   0  0  0  0  0  0  0  0  0  0  0  0
   -2.1710   24.6360  -28.8300 C   0  0  0  0  0  0  0  0  0  0  0  0
   -2.9650   24.9200  -29.9830 O   0  0  0  0  0  0  0  0  0  0  0  0
   -3.9010   24.0300  -30.5260 C   0  0  0  0  0  0  0  0  0  0  0  0
   -3.4980   22.8130  -31.1060 C   0  0  0  0  0  0  0  0  0  0  0  0
   -4.4430   21.9240  -31.6210 C   0  0  0  0  0  0  0  0  0  0  0  0
   -4.0260   20.7680  -32.1210 O   0  0  0  0  0  0  0  0  0  0  0  0
   -4.8530   19.8510  -32.6010 C   0  0  0  0  0  0  0  0  0  0  0  0
   -4.3680   18.7720  -33.0390 O   0  0  0  0  0  0  0  0  0  0  0  0
   -6.2480   20.0720  -32.6190 C   0  0  0  0  0  0  0  0  0  0  0  0
   -7.1610   18.9720  -33.1300 C   0  0  0  0  0  0  0  0  0  0  0  0
   -7.6950   18.1150  -31.9740 C   0  0  0  0  0  0  0  0  0  0  0  0
   -9.0920   18.5560  -31.5570 C   0  0  0  0  0  0  0  0  0  0  0  0
   -6.7400   21.3260  -32.1650 C   0  0  0  0  0  0  0  0  0  0  0  0
   -8.2140   21.6740  -32.2540 C   0  0  0  0  0  0  0  0  0  0  0  0
   -5.8200   22.2460  -31.5980 C   0  0  0  0  0  0  0  0  0  0  0  0
   -6.2200   23.4560  -30.9870 C   0  0  0  0  0  0  0  0  0  0  0  0
   -5.2720   24.3490  -30.4580 C   0  0  0  0  0  0  0  0  0  0  0  0
   -5.7430   25.6200  -29.7900 C   0  0  0  0  0  0  0  0  0  0  0  0
   -7.2170   25.5090  -29.3910 C   0  0  0  0  0  0  0  0  0  0  0  0
   -2.6544   21.5045  -26.8875 H   0  0  0  0  0  0  0  0  0  0  0  0
   -3.5885   21.2763  -28.4047 H   0  0  0  0  0  0  0  0  0  0  0  0
   -2.1110   22.2978  -28.4047 H   0  0  0  0  0  0  0  0  0  0  0  0
   -4.6911   23.2484  -28.1724 H   0  0  0  0  0  0  0  0  0  0  0  0
   -4.1521   23.1103  -26.4313 H   0  0  0  0  0  0  0  0  0  0  0  0
   -3.7986   25.3684  -27.6294 H   0  0  0  0  0  0  0  0  0  0  0  0
   -2.4108   24.6142  -26.7104 H   0  0  0  0  0  0  0  0  0  0  0  0
   -1.4319   25.4384  -28.6891 H   0  0  0  0  0  0  0  0  0  0  0  0
   -1.6535   23.6759  -28.9732 H   0  0  0  0  0  0  0  0  0  0  0  0
   -2.4286   22.5599  -31.1540 H   0  0  0  0  0  0  0  0  0  0  0  0
   -8.0097   19.4275  -33.6613 H   0  0  0  0  0  0  0  0  0  0  0  0
   -6.5834   18.3249  -33.8065 H   0  0  0  0  0  0  0  0  0  0  0  0
   -7.7322   17.0635  -32.2950 H   0  0  0  0  0  0  0  0  0  0  0  0
   -7.0215   18.2356  -31.1127 H   0  0  0  0  0  0  0  0  0  0  0  0
   -9.1575   18.5767  -30.4591 H   0  0  0  0  0  0  0  0  0  0  0  0
   -9.2933   19.5614  -31.9553 H   0  0  0  0  0  0  0  0  0  0  0  0
   -9.8341   17.8484  -31.9553 H   0  0  0  0  0  0  0  0  0  0  0  0
   -8.6294   21.7721  -31.2402 H   0  0  0  0  0  0  0  0  0  0  0  0
   -8.3343   22.6252  -32.7932 H   0  0  0  0  0  0  0  0  0  0  0  0
   -8.7470   20.8770  -32.7932 H   0  0  0  0  0  0  0  0  0  0  0  0
   -7.2901   23.7029  -30.9244 H   0  0  0  0  0  0  0  0  0  0  0  0
   -5.1379   25.7998  -28.8892 H   0  0  0  0  0  0  0  0  0  0  0  0
   -5.6308   26.4538  -30.4986 H   0  0  0  0  0  0  0  0  0  0  0  0
   -7.3005   25.5027  -28.2942 H   0  0  0  0  0  0  0  0  0  0  0  0
   -7.7722   26.3679  -29.7961 H   0  0  0  0  0  0  0  0  0  0  0  0
   -7.6373   24.5767  -29.7961 H   0  0  0  0  0  0  0  0  0  0  0  0
  1  2  1  0
  2  3  1  0
  3  4  1  0
  4  5  1  0
  5  6  1  0
  6  7  2  0
  7  8  1  0
  8  9  1  0
  9 10  1  0
 10 11  2  0
 10 12  1  0
 12 13  1  0
 13 14  1  0
 14 15  1  0
 12 16  2  0
 16 17  1  0
 16 18  1  0
 18 19  1  0
 19 20  2  0
 20 21  1  0
 21 22  1  0
 20  6  1  0
 18  8  2  0
  1 23  1  0
  1 24  1  0
  1 25  1  0
  2 26  1  0
  2 27  1  0
  3 28  1  0
  3 29  1  0
  4 30  1  0
  4 31  1  0
  7 32  1  0
 13 33  1  0
 13 34  1  0
 14 35  1  0
 14 36  1  0
 15 37  1  0
 15 38  1  0
 15 39  1  0
 17 40  1  0
 17 41  1  0
 17 42  1  0
 19 43  1  0
 21 44  1  0
 21 45  1  0
 22 46  1  0
 22 47  1  0
 22 48  1  0
M  END
>  <UniqueID>  (1) 
1

>  <SMILES>  (1) 
CCCCOc1cc2oc(=O)c(CCC)c(C)c2cc1CC

>  <Energy>  (1) 
47.20531752439788

>  <Genealogy>  (1) 
CCCCOc1cc2oc(=O)c(CCC)c(C)c2cc1CC (3D coordinates assigned)
CCCCOc1cc2oc(=O)c(CCC)c(C)c2cc1CC (optimized conformer: 47.20531752439788 kcal/mol)

>  <smiles>  (1) 
CCCCOc1cc2oc(=O)c(CCC)c(C)c2cc1CC

>  <score_type>  (1) 
oracle

>  <origin>  (1) 
adg

>  <m_score__min__energy>  (1) 
-7.7599999999999998

>  <m_primary>  (1) 
energy

$$$$
1:0
     RDKit          3D

 39 41  0  0  0  0  0  0  0  0999 V2000
    0.5710   21.7510  -35.4140 C   0  0  0  0  0  0  0  0  0  0  0  0
    0.6530   21.2390  -33.6690 S   0  0  0  0  0  0  0  0  0  0  0  0
   -1.0310   20.6210  -33.6490 C   0  0  0  0  0  0  0  0  0  0  0  0
   -1.3230   19.3530  -34.2040 C   0  0  0  0  0  0  0  0  0  0  0  0
   -2.6390   18.8580  -34.1980 C   0  0  0  0  0  0  0  0  0  0  0  0
   -3.6300   19.6490  -33.6170 C   0  0  0  0  0  0  0  0  0  0  0  0
   -4.9910   19.4650  -33.4850 C   0  0  0  0  0  0  0  0  0  0  0  0
   -5.7800   18.3460  -34.0300 C   0  0  0  0  0  0  0  0  0  0  0  0
   -6.1140   18.3760  -35.2460 O   0  0  0  0  0  0  0  0  0  0  0  0
   -6.1760   17.2340  -33.2040 N   0  0  0  0  0  0  0  0  0  0  0  0
   -6.3430   17.4140  -31.7570 C   0  0  0  0  0  0  0  0  0  0  0  0
   -6.5300   15.9620  -33.8390 C   0  0  0  0  0  0  0  0  0  0  0  0
   -5.4590   20.6470  -32.8960 C   0  0  0  0  0  0  0  0  0  0  0  0
   -6.8530   20.9850  -32.5410 C   0  0  0  0  0  0  0  0  0  0  0  0
   -7.8970   20.0540  -32.6930 C   0  0  0  0  0  0  0  0  0  0  0  0
   -9.2050   20.3940  -32.3350 C   0  0  0  0  0  0  0  0  0  0  0  0
   -9.4820   21.6590  -31.8110 C   0  0  0  0  0  0  0  0  0  0  0  0
   -8.4490   22.5840  -31.6370 C   0  0  0  0  0  0  0  0  0  0  0  0
   -7.1400   22.2480  -31.9940 C   0  0  0  0  0  0  0  0  0  0  0  0
   -4.4480   21.4740  -32.6850 O   0  0  0  0  0  0  0  0  0  0  0  0
   -3.3530   20.8910  -33.1080 C   0  0  0  0  0  0  0  0  0  0  0  0
   -2.0600   21.4080  -33.0990 C   0  0  0  0  0  0  0  0  0  0  0  0
    0.3973   22.8357  -35.4701 H   0  0  0  0  0  0  0  0  0  0  0  0
    1.5199   21.5054  -35.9132 H   0  0  0  0  0  0  0  0  0  0  0  0
   -0.2538   21.2213  -35.9132 H   0  0  0  0  0  0  0  0  0  0  0  0
   -0.5147   18.7500  -34.6434 H   0  0  0  0  0  0  0  0  0  0  0  0
   -2.8792   17.8786  -34.6373 H   0  0  0  0  0  0  0  0  0  0  0  0
   -5.6893   16.7094  -31.2220 H   0  0  0  0  0  0  0  0  0  0  0  0
   -6.0740   18.4446  -31.4822 H   0  0  0  0  0  0  0  0  0  0  0  0
   -7.3908   17.2229  -31.4822 H   0  0  0  0  0  0  0  0  0  0  0  0
   -6.7391   15.2106  -33.0633 H   0  0  0  0  0  0  0  0  0  0  0  0
   -7.4236   16.1010  -34.4652 H   0  0  0  0  0  0  0  0  0  0  0  0
   -5.6931   15.6194  -34.4652 H   0  0  0  0  0  0  0  0  0  0  0  0
   -7.6828   19.0530  -33.0958 H   0  0  0  0  0  0  0  0  0  0  0  0
  -10.0175   19.6641  -32.4662 H   0  0  0  0  0  0  0  0  0  0  0  0
  -10.5127   21.9269  -31.5355 H   0  0  0  0  0  0  0  0  0  0  0  0
   -8.6663   23.5778  -31.2185 H   0  0  0  0  0  0  0  0  0  0  0  0
   -6.3292   22.9765  -31.8460 H   0  0  0  0  0  0  0  0  0  0  0  0
   -1.8494   22.4009  -32.6751 H   0  0  0  0  0  0  0  0  0  0  0  0
  1  2  1  0
  2  3  1  0
  3  4  2  0
  4  5  1  0
  5  6  2  0
  6  7  1  0
  7  8  1  0
  8  9  2  0
  8 10  1  0
 10 11  1  0
 10 12  1  0
  7 13  2  0
 13 14  1  0
 14 15  2  0
 15 16  1  0
 16 17  2  0
 17 18  1  0
 18 19  2  0
 13 20  1  0
 20 21  1  0
 21 22  2  0
 22  3  1  0
 21  6  1  0
 19 14  1  0
  1 23  1  0
  1 24  1  0
  1 25  1  0
  4 26  1  0
  5 27  1  0
 11 28  1  0
 11 29  1  0
 11 30  1  0
 12 31  1  0
 12 32  1  0
 12 33  1  0
 15 34  1  0
 16 35  1  0
 17 36  1  0
 18 37  1  0
 19 38  1  0
 22 39  1  0
M  END
>  <UniqueID>  (2) 
2

>  <SMILES>  (2) 
CSc1ccc2c(C(=O)N(C)C)c(-c3ccccc3)oc2c1

>  <Energy>  (2) 
77.25713578809794

>  <Genealogy>  (2) 
CSc1ccc2c(C(=O)N(C)C)c(-c3ccccc3)oc2c1 (3D coordinates assigned)
CSc1ccc2c(C(=O)N(C)C)c(-c3ccccc3)oc2c1 (optimized conformer: 77.25713578809794 kcal/mol)

>  <smiles>  (2) 
CSc1ccc2c(C(=O)N(C)C)c(-c3ccccc3)oc2c1

>  <score_type>  (2) 
oracle

>  <origin>  (2) 
adg

>  <m_score__min__energy>  (2) 
-7.71

>  <m_primary>  (2) 
energy

$$$$
2:0
     RDKit          3D

 29 31  0  0  0  0  0  0  0  0999 V2000
   -1.8320   25.0130  -28.3460 C   0  0  0  0  0  0  0  0  0  0  0  0
   -2.7990   25.2960  -29.3510 O   0  0  0  0  0  0  0  0  0  0  0  0
   -3.4850   24.3190  -30.0880 C   0  0  0  0  0  0  0  0  0  0  0  0
   -4.7740   24.5340  -30.6110 C   0  0  0  0  0  0  0  0  0  0  0  0
   -5.4170   23.5270  -31.3390 C   0  0  0  0  0  0  0  0  0  0  0  0
   -4.7860   22.2940  -31.5570 C   0  0  0  0  0  0  0  0  0  0  0  0
   -5.4700   21.2360  -32.3260 C   0  0  0  0  0  0  0  0  0  0  0  0
   -6.6240   21.4110  -33.0050 N   0  0  0  0  0  0  0  0  0  0  0  0
   -6.8960   20.2370  -33.5480 N   0  0  0  0  0  0  0  0  0  0  0  0
   -5.9150   19.3900  -33.1920 C   0  0  0  0  0  0  0  0  0  0  0  0
   -5.8360   17.9780  -33.5880 C   0  0  0  0  0  0  0  0  0  0  0  0
   -6.8320   17.0300  -33.4020 C   0  0  0  0  0  0  0  0  0  0  0  0
   -6.4790   15.7610  -33.8780 C   0  0  0  0  0  0  0  0  0  0  0  0
   -5.2090   15.7080  -34.4380 C   0  0  0  0  0  0  0  0  0  0  0  0
   -4.5250   17.2420  -34.3400 S   0  0  0  0  0  0  0  0  0  0  0  0
   -5.0320   19.9990  -32.4390 O   0  0  0  0  0  0  0  0  0  0  0  0
   -3.4990   22.0810  -31.0340 C   0  0  0  0  0  0  0  0  0  0  0  0
   -2.8580   23.0870  -30.3060 C   0  0  0  0  0  0  0  0  0  0  0  0
   -2.2858   25.1458  -27.3528 H   0  0  0  0  0  0  0  0  0  0  0  0
   -1.4837   23.9752  -28.4542 H   0  0  0  0  0  0  0  0  0  0  0  0
   -0.9791   25.6992  -28.4542 H   0  0  0  0  0  0  0  0  0  0  0  0
   -5.2779   25.4979  -30.4466 H   0  0  0  0  0  0  0  0  0  0  0  0
   -6.4247   23.7038  -31.7432 H   0  0  0  0  0  0  0  0  0  0  0  0
   -7.7300   20.0340  -34.1430 H   0  0  0  0  0  0  0  0  0  0  0  0
   -7.7999   17.2524  -32.9290 H   0  0  0  0  0  0  0  0  0  0  0  0
   -7.1452   14.8880  -33.8143 H   0  0  0  0  0  0  0  0  0  0  0  0
   -4.7323   14.8163  -34.8711 H   0  0  0  0  0  0  0  0  0  0  0  0
   -2.9938   21.1178  -31.1985 H   0  0  0  0  0  0  0  0  0  0  0  0
   -1.8511   22.9088  -29.9005 H   0  0  0  0  0  0  0  0  0  0  0  0
  1  2  1  0
  2  3  1  0
  3  4  2  0
  4  5  1  0
  5  6  2  0
  6  7  1  0
  7  8  2  0
  8  9  1  0
  9 10  2  0
 10 11  1  0
 11 12  2  0
 12 13  1  0
 13 14  2  0
 14 15  1  0
 10 16  1  0
  6 17  1  0
 17 18  2  0
 18  3  1  0
 16  7  1  0
 15 11  1  0
  1 19  1  0
  1 20  1  0
  1 21  1  0
  4 22  1  0
  5 23  1  0
  9 24  1  0
 12 25  1  0
 13 26  1  0
 14 27  1  0
 17 28  1  0
 18 29  1  0
M  CHG  1   9   1
M  END
>  <UniqueID>  (3) 
3

>  <SMILES>  (3) 
COc1ccc(-c2n[nH+]c(-c3cccs3)o2)cc1

>  <Energy>  (3) 
91.3881353803147

>  <Genealogy>  (3) 
COc1ccc(-c2n[nH+]c(-c3cccs3)o2)cc1 (protonated)
COc1ccc(-c2n[nH+]c(-c3cccs3)o2)cc1 (3D coordinates assigned)
COc1ccc(-c2n[nH+]c(-c3cccs3)o2)cc1 (optimized conformer: 91.3881353803147 kcal/mol)

>  <smiles>  (3) 
COc1ccc(-c2nnc(-c3cccs3)o2)cc1

>  <score_type>  (3) 
oracle

>  <origin>  (3) 
adg

>  <m_score__min__energy>  (3) 
-6.3700000000000001

>  <m_primary>  (3) 
energy

$$$$
3:0
     RDKit          3D

 51 54  0  0  0  0  0  0  0  0999 V2000
   -0.1940   26.4520  -23.9720 C   0  0  0  0  0  0  0  0  0  0  0  0
    1.0820   26.2610  -24.8010 C   0  0  0  0  0  0  0  0  0  0  0  0
    0.8790   26.4310  -26.2560 N   0  0  0  0  0  0  0  0  0  0  0  0
   -0.4550   26.9710  -26.6120 C   0  0  0  0  0  0  0  0  0  0  0  0
   -0.8870   26.5650  -28.0200 C   0  0  0  0  0  0  0  0  0  0  0  0
   -0.8700   25.1020  -28.1120 N   0  0  0  0  0  0  0  0  0  0  0  0
   -1.9390   24.3700  -28.7400 C   0  0  0  0  0  0  0  0  0  0  0  0
   -1.7400   23.0700  -29.2290 C   0  0  0  0  0  0  0  0  0  0  0  0
   -2.7940   22.3990  -29.8500 C   0  0  0  0  0  0  0  0  0  0  0  0
   -4.0430   23.0220  -29.9970 C   0  0  0  0  0  0  0  0  0  0  0  0
   -5.1730   22.3190  -30.6590 C   0  0  0  0  0  0  0  0  0  0  0  0
   -6.4700   22.8550  -30.6120 C   0  0  0  0  0  0  0  0  0  0  0  0
   -7.5300   22.2020  -31.2420 C   0  0  0  0  0  0  0  0  0  0  0  0
   -7.3200   20.9960  -31.9270 C   0  0  0  0  0  0  0  0  0  0  0  0
   -6.0250   20.4280  -31.9510 C   0  0  0  0  0  0  0  0  0  0  0  0
   -4.9610   21.1040  -31.3330 C   0  0  0  0  0  0  0  0  0  0  0  0
   -5.7840   19.1160  -32.5940 C   0  0  0  0  0  0  0  0  0  0  0  0
   -4.8700   18.9960  -33.4520 O   0  0  0  0  0  0  0  0  0  0  0  0
   -6.5640   17.9670  -32.2420 N   0  0  0  0  0  0  0  0  0  0  0  0
   -7.9630   17.8120  -32.6340 C   0  0  0  0  0  0  0  0  0  0  0  0
   -8.8390   18.9700  -32.1280 C   0  0  0  0  0  0  0  0  0  0  0  0
   -8.4610   20.3530  -32.6820 C   0  0  0  0  0  0  0  0  0  0  0  0
   -4.1940   24.3310  -29.5100 C   0  0  0  0  0  0  0  0  0  0  0  0
   -3.1530   24.9630  -28.9060 N   0  0  0  0  0  0  0  0  0  0  0  0
    0.2880   24.3680  -27.5870 C   0  0  0  0  0  0  0  0  0  0  0  0
    1.3930   25.3200  -27.0930 C   0  0  0  0  0  0  0  0  0  0  0  0
    0.0554   26.4147  -22.9013 H   0  0  0  0  0  0  0  0  0  0  0  0
   -0.6433   27.4274  -24.2100 H   0  0  0  0  0  0  0  0  0  0  0  0
   -0.9093   25.6509  -24.2100 H   0  0  0  0  0  0  0  0  0  0  0  0
    1.8268   26.9980  -24.4662 H   0  0  0  0  0  0  0  0  0  0  0  0
    1.4150   25.2246  -24.6427 H   0  0  0  0  0  0  0  0  0  0  0  0
   -1.1944   26.5910  -25.8916 H   0  0  0  0  0  0  0  0  0  0  0  0
   -0.3930   28.0688  -26.5821 H   0  0  0  0  0  0  0  0  0  0  0  0
   -1.9033   26.9367  -28.2172 H   0  0  0  0  0  0  0  0  0  0  0  0
   -0.1992   26.9958  -28.7625 H   0  0  0  0  0  0  0  0  0  0  0  0
   -0.7594   22.5830  -29.1235 H   0  0  0  0  0  0  0  0  0  0  0  0
   -2.6452   21.3762  -30.2264 H   0  0  0  0  0  0  0  0  0  0  0  0
   -6.6518   23.7972  -30.0742 H   0  0  0  0  0  0  0  0  0  0  0  0
   -8.5396   22.6369  -31.2011 H   0  0  0  0  0  0  0  0  0  0  0  0
   -3.9481   20.6772  -31.3769 H   0  0  0  0  0  0  0  0  0  0  0  0
   -8.0216   17.7769  -33.7319 H   0  0  0  0  0  0  0  0  0  0  0  0
   -8.3392   16.8817  -32.1834 H   0  0  0  0  0  0  0  0  0  0  0  0
   -9.8809   18.7605  -32.4120 H   0  0  0  0  0  0  0  0  0  0  0  0
   -8.6880   19.0202  -31.0396 H   0  0  0  0  0  0  0  0  0  0  0  0
   -8.1658   20.2406  -33.7357 H   0  0  0  0  0  0  0  0  0  0  0  0
   -9.3399   21.0051  -32.5712 H   0  0  0  0  0  0  0  0  0  0  0  0
   -5.1594   24.8471  -29.6179 H   0  0  0  0  0  0  0  0  0  0  0  0
   -0.0407   23.7380  -26.7473 H   0  0  0  0  0  0  0  0  0  0  0  0
    0.7029   23.7564  -28.4017 H   0  0  0  0  0  0  0  0  0  0  0  0
    2.1139   24.7396  -26.4985 H   0  0  0  0  0  0  0  0  0  0  0  0
    1.8570   25.7702  -27.9829 H   0  0  0  0  0  0  0  0  0  0  0  0
  1  2  1  0
  2  3  1  0
  3  4  1  0
  4  5  1  0
  5  6  1  0
  6  7  1  0
  7  8  2  0
  8  9  1  0
  9 10  2  0
 10 11  1  0
 11 12  2  0
 12 13  1  0
 13 14  2  0
 14 15  1  0
 15 16  2  0
 15 17  1  0
 17 18  2  0
 17 19  1  0
 19 20  1  0
 20 21  1  0
 21 22  1  0
 10 23  1  0
 23 24  2  0
  6 25  1  0
 25 26  1  0
 26  3  1  0
 24  7  1  0
 16 11  1  0
 22 14  1  0
  1 27  1  0
  1 28  1  0
  1 29  1  0
  2 30  1  0
  2 31  1  0
  4 32  1  0
  4 33  1  0
  5 34  1  0
  5 35  1  0
  8 36  1  0
  9 37  1  0
 12 38  1  0
 13 39  1  0
 16 40  1  0
 20 41  1  0
 20 42  1  0
 21 43  1  0
 21 44  1  0
 22 45  1  0
 22 46  1  0
 23 47  1  0
 25 48  1  0
 25 49  1  0
 26 50  1  0
 26 51  1  0
M  CHG  1  19  -1
M  END
>  <UniqueID>  (4) 
4

>  <SMILES>  (4) 
CCN1CCN(c2ccc(-c3ccc4c(c3)C(=O)[N-]CCC4)cn2)CC1

>  <Energy>  (4) 
77.39135540637365

>  <Genealogy>  (4) 
CCN1CCN(c2ccc(-c3ccc4c(c3)C(=O)[N-]CCC4)cn2)CC1 (protonated)
CCN1CCN(c2ccc(-c3ccc4c(c3)C(=O)[N-]CCC4)cn2)CC1 (3D coordinates assigned)
CCN1CCN(c2ccc(-c3ccc4c(c3)C(=O)[N-]CCC4)cn2)CC1 (nonaromatic ring conformer: 77.39135540637365 kcal/mol)

>  <smiles>  (4) 
CCN1CCN(c2ccc(-c3ccc4c(c3)C(=O)NCCC4)cn2)CC1

>  <score_type>  (4) 
oracle

>  <origin>  (4) 
adg

>  <m_score__min__energy>  (4) 
-6.8600000000000003

>  <m_primary>  (4) 
energy

$$$$
4:0
     RDKit          3D

 61 65  0  0  0  0  0  0  0  0999 V2000
   -6.8300   17.8240  -32.0660 C   0  0  0  0  0  0  0  0  0  0  0  0
   -6.3360   19.1550  -32.1900 O   0  0  0  0  0  0  0  0  0  0  0  0
   -7.0860   20.3200  -31.9580 C   0  0  0  0  0  0  0  0  0  0  0  0
   -8.4340   20.4000  -32.3640 C   0  0  0  0  0  0  0  0  0  0  0  0
   -9.1640   21.5710  -32.1810 C   0  0  0  0  0  0  0  0  0  0  0  0
   -8.5720   22.6770  -31.5780 C   0  0  0  0  0  0  0  0  0  0  0  0
   -7.2480   22.6130  -31.1480 C   0  0  0  0  0  0  0  0  0  0  0  0
   -6.4820   21.4430  -31.3220 C   0  0  0  0  0  0  0  0  0  0  0  0
   -5.0340   21.4780  -30.8200 C   0  0  2  0  0  0  0  0  0  0  0  0
   -4.6130   22.9240  -30.5870 C   0  0  0  0  0  0  0  0  0  0  0  0
   -4.6050   23.8490  -31.5690 N   0  0  0  0  0  0  0  0  0  0  0  0
   -4.2290   24.9790  -30.9860 N   0  0  0  0  0  0  0  0  0  0  0  0
   -4.0150   24.7720  -29.6930 N   0  0  0  0  0  0  0  0  0  0  0  0
   -4.2490   23.4990  -29.4180 N   0  0  0  0  0  0  0  0  0  0  0  0
   -4.0570   22.9050  -28.0940 C   0  0  0  0  0  0  0  0  0  0  0  0
   -2.8310   22.0150  -28.0400 C   0  0  0  0  0  0  0  0  0  0  0  0
   -1.5340   22.4880  -28.3870 C   0  0  0  0  0  0  0  0  0  0  0  0
   -0.4200   21.6420  -28.2970 C   0  0  0  0  0  0  0  0  0  0  0  0
   -0.5790   20.3260  -27.8510 C   0  0  0  0  0  0  0  0  0  0  0  0
   -1.8530   19.8600  -27.4650 C   0  0  0  0  0  0  0  0  0  0  0  0
   -2.9700   20.7060  -27.5330 C   0  0  0  0  0  0  0  0  0  0  0  0
   -4.0800   20.7040  -31.6710 N   0  0  0  0  0  0  0  0  0  0  0  0
   -2.7390   20.5860  -31.0200 C   0  0  0  0  0  0  0  0  0  0  0  0
   -1.6470   21.4400  -31.6820 C   0  0  0  0  0  0  0  0  0  0  0  0
   -1.5490   21.0970  -33.1100 N   0  0  0  0  0  0  0  0  0  0  0  0
   -0.2770   21.1360  -33.8030 C   0  0  0  0  0  0  0  0  0  0  0  0
   -0.1170   21.9320  -34.9580 C   0  0  0  0  0  0  0  0  0  0  0  0
    1.1130   21.9690  -35.6290 C   0  0  0  0  0  0  0  0  0  0  0  0
    2.1950   21.2150  -35.1570 C   0  0  0  0  0  0  0  0  0  0  0  0
    3.3870   21.2560  -35.8060 F   0  0  0  0  0  0  0  0  0  0  0  0
    2.0530   20.4220  -34.0110 C   0  0  0  0  0  0  0  0  0  0  0  0
    0.8250   20.3780  -33.3390 C   0  0  0  0  0  0  0  0  0  0  0  0
   -2.7750   20.7040  -33.8200 C   0  0  0  0  0  0  0  0  0  0  0  0
   -4.0140   21.2120  -33.0690 C   0  0  0  0  0  0  0  0  0  0  0  0
   -6.9257   17.5661  -31.0009 H   0  0  0  0  0  0  0  0  0  0  0  0
   -7.8148   17.7518  -32.5507 H   0  0  0  0  0  0  0  0  0  0  0  0
   -6.1308   17.1267  -32.5507 H   0  0  0  0  0  0  0  0  0  0  0  0
   -8.9141   19.5272  -32.8306 H   0  0  0  0  0  0  0  0  0  0  0  0
  -10.2112   21.6224  -32.5137 H   0  0  0  0  0  0  0  0  0  0  0  0
   -9.1500   23.6028  -31.4407 H   0  0  0  0  0  0  0  0  0  0  0  0
   -6.7933   23.4903  -30.6647 H   0  0  0  0  0  0  0  0  0  0  0  0
   -4.9952   20.9493  -29.8562 H   0  0  0  0  0  0  0  0  0  0  0  0
   -3.9415   23.7128  -27.3563 H   0  0  0  0  0  0  0  0  0  0  0  0
   -4.9367   22.2833  -27.8711 H   0  0  0  0  0  0  0  0  0  0  0  0
   -1.4049   23.5257  -28.7285 H   0  0  0  0  0  0  0  0  0  0  0  0
    0.5773   22.0124  -28.5766 H   0  0  0  0  0  0  0  0  0  0  0  0
    0.2903   19.6538  -27.8012 H   0  0  0  0  0  0  0  0  0  0  0  0
   -1.9716   18.8262  -27.1082 H   0  0  0  0  0  0  0  0  0  0  0  0
   -3.9528   20.3491  -27.1915 H   0  0  0  0  0  0  0  0  0  0  0  0
   -2.8351   20.9000  -29.9702 H   0  0  0  0  0  0  0  0  0  0  0  0
   -2.4272   19.5359  -31.1205 H   0  0  0  0  0  0  0  0  0  0  0  0
   -1.9020   22.5050  -31.5781 H   0  0  0  0  0  0  0  0  0  0  0  0
   -0.6821   21.2426  -31.1921 H   0  0  0  0  0  0  0  0  0  0  0  0
   -0.9627   22.5267  -35.3335 H   0  0  0  0  0  0  0  0  0  0  0  0
    1.2289   22.5916  -36.5284 H   0  0  0  0  0  0  0  0  0  0  0  0
    2.9053   19.8343  -33.6392 H   0  0  0  0  0  0  0  0  0  0  0  0
    0.7158   19.7492  -32.4431 H   0  0  0  0  0  0  0  0  0  0  0  0
   -2.7621   21.1355  -34.8318 H   0  0  0  0  0  0  0  0  0  0  0  0
   -2.8177   19.6064  -33.8779 H   0  0  0  0  0  0  0  0  0  0  0  0
   -3.9856   22.3114  -33.0441 H   0  0  0  0  0  0  0  0  0  0  0  0
   -4.9029   20.8430  -33.6016 H   0  0  0  0  0  0  0  0  0  0  0  0
  1  2  1  0
  2  3  1  0
  3  4  2  0
  4  5  1  0
  5  6  2  0
  6  7  1  0
  7  8  2  0
  8  9  1  0
  9 10  1  0
 10 11  2  0
 11 12  1  0
 12 13  2  0
 13 14  1  0
 14 15  1  0
 15 16  1  0
 16 17  2  0
 17 18  1  0
 18 19  2  0
 19 20  1  0
 20 21  2  0
  9 22  1  0
 22 23  1  0
 23 24  1  0
 24 25  1  0
 25 26  1  0
 26 27  2  0
 27 28  1  0
 28 29  2  0
 29 30  1  0
 29 31  1  0
 31 32  2  0
 25 33  1  0
 33 34  1  0
  8  3  1  0
 14 10  1  0
 21 16  1  0
 34 22  1  0
 32 26  1  0
  1 35  1  0
  1 36  1  0
  1 37  1  0
  4 38  1  0
  5 39  1  0
  6 40  1  0
  7 41  1  0
  9 42  1  1
 15 43  1  0
 15 44  1  0
 17 45  1  0
 18 46  1  0
 19 47  1  0
 20 48  1  0
 21 49  1  0
 23 50  1  0
 23 51  1  0
 24 52  1  0
 24 53  1  0
 27 54  1  0
 28 55  1  0
 31 56  1  0
 32 57  1  0
 33 58  1  0
 33 59  1  0
 34 60  1  0
 34 61  1  0
M  END
>  <UniqueID>  (5) 
5

>  <SMILES>  (5) 
COc1ccccc1[C@H](c1nnnn1Cc1ccccc1)N1CCN(c2ccc(F)cc2)CC1

>  <Energy>  (5) 
122.07570402237072

>  <Genealogy>  (5) 
COc1ccccc1[C@H](c1nnnn1Cc1ccccc1)N1CCN(c2ccc(F)cc2)CC1 (chirality)
COc1ccccc1[C@H](c1nnnn1Cc1ccccc1)N1CCN(c2ccc(F)cc2)CC1 (3D coordinates assigned)
COc1ccccc1[C@H](c1nnnn1Cc1ccccc1)N1CCN(c2ccc(F)cc2)CC1 (nonaromatic ring conformer: 122.07570402237072 kcal/mol)

>  <smiles>  (5) 
COc1ccccc1C(c1nnnn1Cc1ccccc1)N1CCN(c2ccc(F)cc2)CC1

>  <score_type>  (5) 
oracle

>  <origin>  (5) 
adg

>  <m_score__min__energy>  (5) 
-10.5

>  <m_primary>  (5) 
energy

$$$$
5:0
     RDKit          3D

 32 34  0  0  0  0  0  0  0  0999 V2000
   -8.3208   23.4944  -32.1849 H   0  0  0  0  0  0  0  0  0  0  0  0
   -7.4710   22.9560  -31.7400 C   0  0  0  0  0  0  0  0  0  0  0  0
   -7.3850   21.6290  -31.9760 C   0  0  0  0  0  0  0  0  0  0  0  0
   -6.2150   21.0800  -32.7110 C   0  0  0  0  0  0  0  0  0  0  0  0
   -5.2750   21.8370  -33.0790 O   0  0  0  0  0  0  0  0  0  0  0  0
   -6.1580   19.6310  -33.0160 C   0  0  0  0  0  0  0  0  0  0  0  0
   -4.9840   19.0470  -33.5190 C   0  0  0  0  0  0  0  0  0  0  0  0
   -4.0947   19.6701  -33.6949 H   0  0  0  0  0  0  0  0  0  0  0  0
   -4.9400   17.6790  -33.7970 C   0  0  0  0  0  0  0  0  0  0  0  0
   -4.0108   17.2280  -34.1754 H   0  0  0  0  0  0  0  0  0  0  0  0
   -6.0720   16.8770  -33.5970 C   0  0  0  0  0  0  0  0  0  0  0  0
   -6.0120   15.4040  -33.8700 C   0  0  0  0  0  0  0  0  0  0  0  0
   -5.9896   14.8551  -32.9170 H   0  0  0  0  0  0  0  0  0  0  0  0
   -6.8986   15.1015  -34.4466 H   0  0  0  0  0  0  0  0  0  0  0  0
   -5.1038   15.1747  -34.4466 H   0  0  0  0  0  0  0  0  0  0  0  0
   -7.2430   17.4530  -33.0830 C   0  0  0  0  0  0  0  0  0  0  0  0
   -8.1304   16.8256  -32.9135 H   0  0  0  0  0  0  0  0  0  0  0  0
   -7.2920   18.8240  -32.7830 C   0  0  0  0  0  0  0  0  0  0  0  0
   -8.5840   19.4440  -32.3120 C   0  0  0  0  0  0  0  0  0  0  0  0
   -9.1458   19.8047  -33.1862 H   0  0  0  0  0  0  0  0  0  0  0  0
   -9.1535   18.6771  -31.7665 H   0  0  0  0  0  0  0  0  0  0  0  0
   -8.3350   20.6200  -31.3620 C   0  0  0  0  0  0  0  0  0  0  0  0
   -9.2930   21.1150  -31.1450 H   0  0  0  0  0  0  0  0  0  0  0  0
   -7.8812   20.2316  -30.4383 H   0  0  0  0  0  0  0  0  0  0  0  0
   -6.5190   23.7410  -30.9350 C   0  0  0  0  0  0  0  0  0  0  0  0
   -4.9380   23.3000  -30.5540 S   0  0  0  0  0  0  0  0  0  0  0  0
   -4.6540   24.5480  -29.4630 C   0  0  0  0  0  0  0  0  0  0  0  0
   -3.7123   24.7333  -28.9256 H   0  0  0  0  0  0  0  0  0  0  0  0
   -5.8140   25.3040  -29.3580 C   0  0  0  0  0  0  0  0  0  0  0  0
   -5.9013   26.1837  -28.7034 H   0  0  0  0  0  0  0  0  0  0  0  0
   -6.8620   24.8420  -30.1630 C   0  0  0  0  0  0  0  0  0  0  0  0
   -7.8592   25.3060  -30.1818 H   0  0  0  0  0  0  0  0  0  0  0  0
  1  2  1  0
  2  3  2  0
  3  4  1  0
  4  5  2  0
  4  6  1  0
  6  7  2  0
  7  8  1  0
  7  9  1  0
  9 10  1  0
  9 11  2  0
 11 12  1  0
 12 13  1  0
 12 14  1  0
 12 15  1  0
 11 16  1  0
 16 17  1  0
 16 18  2  0
 18 19  1  0
 19 20  1  0
 19 21  1  0
 19 22  1  0
 22 23  1  0
 22 24  1  0
  2 25  1  0
 25 26  1  0
 26 27  1  0
 27 28  1  0
 27 29  2  0
 29 30  1  0
 29 31  1  0
 31 32  1  0
 22  3  1  0
 31 25  2  0
 18  6  1  0
M  END
>  <UniqueID>  (6) 
6

>  <SMILES>  (6) 
Cc1ccc2c(c1)CC/C(=C\c1cccs1)C2=O

>  <Energy>  (6) 
69.22295015866528

>  <Genealogy>  (6) 
Cc1ccc2c(c1)CC/C(=C\c1cccs1)C2=O (cis-trans isomerization)
Cc1ccc2c(c1)CC/C(=C\c1cccs1)C2=O (3D coordinates assigned)
Cc1ccc2c(c1)CC/C(=C\c1cccs1)C2=O (nonaromatic ring conformer: 69.22295015866528 kcal/mol)

>  <smiles>  (6) 
Cc1ccc2c(c1)CCC(=Cc1cccs1)C2=O

>  <score_type>  (6) 
oracle

>  <origin>  (6) 
adg

>  <m_score__min__energy>  (6) 
-8.0099999999999998

>  <m_primary>  (6) 
energy

$$$$
6:0
     RDKit          3D

 45 46  0  0  0  0  0  0  0  0999 V2000
   -3.7670   20.5850  -33.1040 C   0  0  0  0  0  0  0  0  0  0  0  0
   -4.0770   21.9820  -32.5700 C   0  0  0  0  0  0  0  0  0  0  0  0
   -5.5830   22.1500  -32.2870 C   0  0  0  0  0  0  0  0  0  0  0  0
   -5.8620   23.2120  -31.2810 N   0  0  0  0  0  0  0  0  0  0  0  0
   -7.1700   22.9860  -30.6070 C   0  0  0  0  0  0  0  0  0  0  0  0
   -8.3140   22.7410  -31.6120 C   0  0  0  0  0  0  0  0  0  0  0  0
   -9.0860   21.4710  -31.2660 C   0  0  0  0  0  0  0  0  0  0  0  0
   -4.7660   23.3590  -30.2850 C   0  0  0  0  0  0  0  0  0  0  0  0
   -4.0390   24.6900  -30.3650 C   0  0  0  0  0  0  0  0  0  0  0  0
   -4.5930   25.6500  -30.9620 O   0  0  0  0  0  0  0  0  0  0  0  0
   -2.7860   24.9220  -29.7100 N   0  0  0  0  0  0  0  0  0  0  0  0
   -2.0030   23.9440  -29.0100 C   0  0  0  0  0  0  0  0  0  0  0  0
   -1.5740   22.7810  -29.6690 C   0  0  0  0  0  0  0  0  0  0  0  0
   -0.8150   21.8230  -28.9950 C   0  0  0  0  0  0  0  0  0  0  0  0
   -0.4550   22.0210  -27.6620 C   0  0  0  0  0  0  0  0  0  0  0  0
   -0.8410   23.1910  -26.9940 C   0  0  0  0  0  0  0  0  0  0  0  0
   -0.4710   23.3960  -25.6560 C   0  0  0  0  0  0  0  0  0  0  0  0
   -0.8530   24.5640  -24.9920 C   0  0  0  0  0  0  0  0  0  0  0  0
   -1.6040   25.5360  -25.6570 C   0  0  0  0  0  0  0  0  0  0  0  0
   -1.9810   25.3460  -26.9880 C   0  0  0  0  0  0  0  0  0  0  0  0
   -1.6080   24.1720  -27.6740 C   0  0  0  0  0  0  0  0  0  0  0  0
   -3.6140   19.8957  -32.2606 H   0  0  0  0  0  0  0  0  0  0  0  0
   -4.6087   20.2320  -33.7180 H   0  0  0  0  0  0  0  0  0  0  0  0
   -2.8550   20.6212  -33.7180 H   0  0  0  0  0  0  0  0  0  0  0  0
   -3.5167   22.1418  -31.6370 H   0  0  0  0  0  0  0  0  0  0  0  0
   -3.7817   22.7190  -33.3313 H   0  0  0  0  0  0  0  0  0  0  0  0
   -6.0908   22.4128  -33.2267 H   0  0  0  0  0  0  0  0  0  0  0  0
   -5.9532   21.1983  -31.8780 H   0  0  0  0  0  0  0  0  0  0  0  0
   -5.9190   24.1290  -31.7850 H   0  0  0  0  0  0  0  0  0  0  0  0
   -7.0822   22.1077  -29.9506 H   0  0  0  0  0  0  0  0  0  0  0  0
   -7.4142   23.8934  -30.0352 H   0  0  0  0  0  0  0  0  0  0  0  0
   -9.0030   23.5981  -31.5881 H   0  0  0  0  0  0  0  0  0  0  0  0
   -7.8787   22.6231  -32.6153 H   0  0  0  0  0  0  0  0  0  0  0  0
   -9.1494   21.3668  -30.1728 H   0  0  0  0  0  0  0  0  0  0  0  0
  -10.1000   21.5319  -31.6879 H   0  0  0  0  0  0  0  0  0  0  0  0
   -8.5651   20.5988  -31.6879 H   0  0  0  0  0  0  0  0  0  0  0  0
   -5.1970   23.2593  -29.2779 H   0  0  0  0  0  0  0  0  0  0  0  0
   -4.0256   22.5760  -30.5057 H   0  0  0  0  0  0  0  0  0  0  0  0
   -1.8382   22.6235  -30.7251 H   0  0  0  0  0  0  0  0  0  0  0  0
   -0.4993   20.9078  -29.5173 H   0  0  0  0  0  0  0  0  0  0  0  0
    0.1336   21.2566  -27.1336 H   0  0  0  0  0  0  0  0  0  0  0  0
    0.1218   22.6344  -25.1283 H   0  0  0  0  0  0  0  0  0  0  0  0
   -0.5616   24.7188  -23.9426 H   0  0  0  0  0  0  0  0  0  0  0  0
   -1.8997   26.4551  -25.1299 H   0  0  0  0  0  0  0  0  0  0  0  0
   -2.5723   26.1166  -27.5043 H   0  0  0  0  0  0  0  0  0  0  0  0
  1  2  1  0
  2  3  1  0
  3  4  1  0
  4  5  1  0
  5  6  1  0
  6  7  1  0
  4  8  1  0
  8  9  1  0
  9 10  2  0
  9 11  1  0
 11 12  1  0
 12 13  2  0
 13 14  1  0
 14 15  2  0
 15 16  1  0
 16 17  2  0
 17 18  1  0
 18 19  2  0
 19 20  1  0
 20 21  2  0
 21 12  1  0
 21 16  1  0
  1 22  1  0
  1 23  1  0
  1 24  1  0
  2 25  1  0
  2 26  1  0
  3 27  1  0
  3 28  1  0
  4 29  1  0
  5 30  1  0
  5 31  1  0
  6 32  1  0
  6 33  1  0
  7 34  1  0
  7 35  1  0
  7 36  1  0
  8 37  1  0
  8 38  1  0
 13 39  1  0
 14 40  1  0
 15 41  1  0
 17 42  1  0
 18 43  1  0
 19 44  1  0
 20 45  1  0
M  CHG  2   4   1  11  -1
M  END
>  <UniqueID>  (7) 
7

>  <SMILES>  (7) 
CCC[NH+](CCC)CC(=O)[N-]c1cccc2ccccc12

>  <Energy>  (7) 
49.44997649296275

>  <Genealogy>  (7) 
CCC[NH+](CCC)CC(=O)[N-]c1cccc2ccccc12 (protonated)
CCC[NH+](CCC)CC(=O)[N-]c1cccc2ccccc12 (3D coordinates assigned)
CCC[NH+](CCC)CC(=O)[N-]c1cccc2ccccc12 (optimized conformer: 49.44997649296275 kcal/mol)

>  <smiles>  (7) 
CCCN(CCC)CC(=O)Nc1cccc2ccccc12

>  <score_type>  (7) 
oracle

>  <origin>  (7) 
adg

>  <m_score__min__energy>  (7) 
-7.7300000000000004

>  <m_primary>  (7) 
energy

$$$$
7:0
     RDKit          3D

 44 45  0  0  0  0  0  0  0  0999 V2000
   -0.4870   26.2140  -23.6710 C   0  0  0  0  0  0  0  0  0  0  0  0
   -1.3170   26.7650  -24.6880 O   0  0  0  0  0  0  0  0  0  0  0  0
   -1.6490   26.1090  -25.8820 C   0  0  0  0  0  0  0  0  0  0  0  0
   -0.8690   26.3590  -27.0180 C   0  0  0  0  0  0  0  0  0  0  0  0
   -1.1610   25.7310  -28.2330 C   0  0  0  0  0  0  0  0  0  0  0  0
   -2.2360   24.8330  -28.3250 C   0  0  0  0  0  0  0  0  0  0  0  0
   -2.5720   24.1700  -29.6320 C   0  0  0  0  0  0  0  0  0  0  0  0
   -3.5440   24.9700  -30.3680 N   0  0  0  0  0  0  0  0  0  0  0  0
   -4.9490   24.9630  -30.0930 C   0  0  0  0  0  0  0  0  0  0  0  0
   -5.3640   24.9720  -28.9030 O   0  0  0  0  0  0  0  0  0  0  0  0
   -5.9310   24.9130  -31.2220 C   0  0  0  0  0  0  0  0  0  0  0  0
   -5.8440   23.6660  -31.9100 O   0  0  0  0  0  0  0  0  0  0  0  0
   -6.7220   22.5970  -31.6890 C   0  0  0  0  0  0  0  0  0  0  0  0
   -7.7450   22.7560  -30.9670 O   0  0  0  0  0  0  0  0  0  0  0  0
   -6.4500   21.2810  -32.3090 C   0  0  0  0  0  0  0  0  0  0  0  0
   -5.1530   20.9530  -32.7390 C   0  0  0  0  0  0  0  0  0  0  0  0
   -4.8930   19.7100  -33.3270 C   0  0  0  0  0  0  0  0  0  0  0  0
   -5.9260   18.7800  -33.4960 C   0  0  0  0  0  0  0  0  0  0  0  0
   -5.5920   17.2150  -34.2320 S   0  0  0  0  0  0  0  0  0  0  0  0
   -4.9860   17.4170  -35.5930 O   0  0  0  0  0  0  0  0  0  0  0  0
   -6.8730   16.4420  -34.3870 O   0  0  0  0  0  0  0  0  0  0  0  0
   -4.4670   16.2950  -33.2060 C   0  0  0  0  0  0  0  0  0  0  0  0
   -5.1000   15.9330  -32.0310 F   0  0  0  0  0  0  0  0  0  0  0  0
   -4.0530   15.1580  -33.8730 F   0  0  0  0  0  0  0  0  0  0  0  0
   -7.2180   19.0970  -33.0610 C   0  0  0  0  0  0  0  0  0  0  0  0
   -7.4820   20.3390  -32.4760 C   0  0  0  0  0  0  0  0  0  0  0  0
   -3.0210   24.5830  -27.1900 C   0  0  0  0  0  0  0  0  0  0  0  0
   -2.7310   25.2130  -25.9750 C   0  0  0  0  0  0  0  0  0  0  0  0
   -0.8905   26.4818  -22.6833 H   0  0  0  0  0  0  0  0  0  0  0  0
   -0.4614   25.1189  -23.7719 H   0  0  0  0  0  0  0  0  0  0  0  0
    0.5321   26.6155  -23.7719 H   0  0  0  0  0  0  0  0  0  0  0  0
   -0.0197   27.0551  -26.9541 H   0  0  0  0  0  0  0  0  0  0  0  0
   -0.5458   25.9416  -29.1202 H   0  0  0  0  0  0  0  0  0  0  0  0
   -1.6565   24.0672  -30.2331 H   0  0  0  0  0  0  0  0  0  0  0  0
   -3.0028   23.1781  -29.4307 H   0  0  0  0  0  0  0  0  0  0  0  0
   -6.9483   25.0345  -30.8216 H   0  0  0  0  0  0  0  0  0  0  0  0
   -5.7000   25.7240  -31.9284 H   0  0  0  0  0  0  0  0  0  0  0  0
   -4.3360   21.6787  -32.6125 H   0  0  0  0  0  0  0  0  0  0  0  0
   -3.8734   19.4627  -33.6576 H   0  0  0  0  0  0  0  0  0  0  0  0
   -3.5935   16.9221  -32.9742 H   0  0  0  0  0  0  0  0  0  0  0  0
   -8.0302   18.3648  -33.1801 H   0  0  0  0  0  0  0  0  0  0  0  0
   -8.5024   20.5813  -32.1443 H   0  0  0  0  0  0  0  0  0  0  0  0
   -3.8703   23.8870  -27.2555 H   0  0  0  0  0  0  0  0  0  0  0  0
   -3.3504   25.0076  -25.0895 H   0  0  0  0  0  0  0  0  0  0  0  0
  1  2  1  0
  2  3  1  0
  3  4  2  0
  4  5  1  0
  5  6  2  0
  6  7  1  0
  7  8  1  0
  8  9  1  0
  9 10  2  0
  9 11  1  0
 11 12  1  0
 12 13  1  0
 13 14  2  0
 13 15  1  0
 15 16  2  0
 16 17  1  0
 17 18  2  0
 18 19  1  0
 19 20  2  0
 19 21  2  0
 19 22  1  0
 22 23  1  0
 22 24  1  0
 18 25  1  0
 25 26  2  0
  6 27  1  0
 27 28  2  0
 28  3  1  0
 26 15  1  0
  1 29  1  0
  1 30  1  0
  1 31  1  0
  4 32  1  0
  5 33  1  0
  7 34  1  0
  7 35  1  0
 11 36  1  0
 11 37  1  0
 16 38  1  0
 17 39  1  0
 22 40  1  0
 25 41  1  0
 26 42  1  0
 27 43  1  0
 28 44  1  0
M  CHG  1   8  -1
M  END
>  <UniqueID>  (8) 
8

>  <SMILES>  (8) 
COc1ccc(C[N-]C(=O)COC(=O)c2ccc(S(=O)(=O)C(F)F)cc2)cc1

>  <Energy>  (8) 
37.20460129035942

>  <Genealogy>  (8) 
COc1ccc(C[N-]C(=O)COC(=O)c2ccc(S(=O)(=O)C(F)F)cc2)cc1 (protonated)
COc1ccc(C[N-]C(=O)COC(=O)c2ccc(S(=O)(=O)C(F)F)cc2)cc1 (3D coordinates assigned)
COc1ccc(C[N-]C(=O)COC(=O)c2ccc(S(=O)(=O)C(F)F)cc2)cc1 (optimized conformer: 37.20460129035942 kcal/mol)

>  <smiles>  (8) 
COc1ccc(CNC(=O)COC(=O)c2ccc(S(=O)(=O)C(F)F)cc2)cc1

>  <score_type>  (8) 
oracle

>  <origin>  (8) 
adg

>  <m_score__min__energy>  (8) 
-9.2799999999999994

>  <m_primary>  (8) 
energy

$$$$
8:0
     RDKit          3D

 19 20  0  0  0  0  0  0  0  0999 V2000
   -9.8230   21.8390  -30.7380 F   0  0  0  0  0  0  0  0  0  0  0  0
   -8.5610   21.7820  -31.2310 C   0  0  0  0  0  0  0  0  0  0  0  0
   -8.2360   20.8370  -32.2040 C   0  0  0  0  0  0  0  0  0  0  0  0
   -6.9350   20.7710  -32.7060 C   0  0  0  0  0  0  0  0  0  0  0  0
   -5.9500   21.6570  -32.2470 C   0  0  0  0  0  0  0  0  0  0  0  0
   -4.3110   21.4390  -32.8530 Cl  0  0  0  0  0  0  0  0  0  0  0  0
   -6.2800   22.6330  -31.2760 C   0  0  0  0  0  0  0  0  0  0  0  0
   -5.2930   23.6100  -30.7640 C   0  0  0  0  0  0  0  0  0  0  0  0
   -4.2920   23.3740  -29.8360 C   0  0  0  0  0  0  0  0  0  0  0  0
   -3.6080   24.5670  -29.7550 C   0  0  0  0  0  0  0  0  0  0  0  0
   -4.1740   25.4460  -30.6000 N   0  0  0  0  0  0  0  0  0  0  0  0
   -5.1900   24.8740  -31.2240 N   0  0  0  0  0  0  0  0  0  0  0  0
   -7.5890   22.6710  -30.7650 C   0  0  0  0  0  0  0  0  0  0  0  0
   -9.0048   20.1437  -32.5758 H   0  0  0  0  0  0  0  0  0  0  0  0
   -6.6809   20.0185  -33.4671 H   0  0  0  0  0  0  0  0  0  0  0  0
   -4.0889   22.4428  -29.2869 H   0  0  0  0  0  0  0  0  0  0  0  0
   -2.7423   24.7671  -29.1065 H   0  0  0  0  0  0  0  0  0  0  0  0
   -3.8630   26.4290  -30.7620 H   0  0  0  0  0  0  0  0  0  0  0  0
   -7.8505   23.4075  -29.9910 H   0  0  0  0  0  0  0  0  0  0  0  0
  1  2  1  0
  2  3  2  0
  3  4  1  0
  4  5  2  0
  5  6  1  0
  5  7  1  0
  7  8  1  0
  8  9  1  0
  9 10  2  0
 10 11  1  0
 11 12  1  0
  7 13  2  0
 13  2  1  0
 12  8  2  0
  3 14  1  0
  4 15  1  0
  9 16  1  0
 10 17  1  0
 11 18  1  0
 13 19  1  0
M  END
>  <UniqueID>  (9) 
9

>  <SMILES>  (9) 
Fc1ccc(Cl)c(-c2cc[nH]n2)c1

>  <Energy>  (9) 
54.91060404391887

>  <Genealogy>  (9) 
Fc1ccc(Cl)c(-c2cc[nH]n2)c1 (3D coordinates assigned)
Fc1ccc(Cl)c(-c2cc[nH]n2)c1 (optimized conformer: 54.91060404391887 kcal/mol)

>  <smiles>  (9) 
Fc1ccc(Cl)c(-c2cc[nH]n2)c1

>  <score_type>  (9) 
oracle

>  <origin>  (9) 
adg

>  <m_score__min__energy>  (9) 
-6.8099999999999996

>  <m_primary>  (9) 
energy

$$$$
9:0
     RDKit          3D

 42 44  0  0  0  0  0  0  0  0999 V2000
   -9.3050   21.5490  -30.8880 C   0  0  0  0  0  0  0  0  0  0  0  0
   -7.9400   21.1400  -30.8910 O   0  0  0  0  0  0  0  0  0  0  0  0
   -7.3980   20.1230  -31.6950 C   0  0  0  0  0  0  0  0  0  0  0  0
   -8.1070   18.9180  -31.8780 C   0  0  0  0  0  0  0  0  0  0  0  0
   -7.6240   17.9280  -32.7220 C   0  0  0  0  0  0  0  0  0  0  0  0
   -6.4380   18.1250  -33.4130 C   0  0  0  0  0  0  0  0  0  0  0  0
   -5.7110   19.3040  -33.2430 C   0  0  0  0  0  0  0  0  0  0  0  0
   -6.1370   20.3210  -32.3470 C   0  0  0  0  0  0  0  0  0  0  0  0
   -5.3130   21.6420  -32.1650 C   0  0  0  0  0  0  0  0  0  0  0  0
   -6.2600   22.8730  -32.3330 C   0  0  0  0  0  0  0  0  0  0  0  0
   -6.1500   23.8650  -31.2630 N   0  0  0  0  0  0  0  0  0  0  0  0
   -6.8770   23.9210  -30.1330 C   0  0  0  0  0  0  0  0  0  0  0  0
   -6.4490   24.9300  -29.3560 N   0  0  0  0  0  0  0  0  0  0  0  0
   -5.4290   25.4670  -30.0540 C   0  0  0  0  0  0  0  0  0  0  0  0
   -5.2310   24.8170  -31.2190 N   0  0  0  0  0  0  0  0  0  0  0  0
   -4.1910   21.8230  -33.2560 C   0  0  0  0  0  0  0  0  0  0  0  0
   -2.9560   20.9690  -32.9530 C   0  0  0  0  0  0  0  0  0  0  0  0
   -2.2580   21.4500  -31.6650 C   0  0  0  0  0  0  0  0  0  0  0  0
   -3.1930   22.2470  -30.7350 C   0  0  0  0  0  0  0  0  0  0  0  0
   -4.6110   21.6600  -30.7470 C   0  0  0  0  0  0  0  0  0  0  0  0
   -9.6541   21.6536  -29.8501 H   0  0  0  0  0  0  0  0  0  0  0  0
   -9.3995   22.5149  -31.4058 H   0  0  0  0  0  0  0  0  0  0  0  0
   -9.9151   20.7942  -31.4058 H   0  0  0  0  0  0  0  0  0  0  0  0
   -9.0560   18.7605  -31.3444 H   0  0  0  0  0  0  0  0  0  0  0  0
   -8.1816   16.9875  -32.8428 H   0  0  0  0  0  0  0  0  0  0  0  0
   -6.0684   17.3481  -34.0985 H   0  0  0  0  0  0  0  0  0  0  0  0
   -4.7843   19.4497  -33.8175 H   0  0  0  0  0  0  0  0  0  0  0  0
   -6.0191   23.3659  -33.2864 H   0  0  0  0  0  0  0  0  0  0  0  0
   -7.2894   22.4865  -32.3010 H   0  0  0  0  0  0  0  0  0  0  0  0
   -7.7027   23.2392  -29.8813 H   0  0  0  0  0  0  0  0  0  0  0  0
   -6.8130   25.2230  -28.4220 H   0  0  0  0  0  0  0  0  0  0  0  0
   -4.8328   26.3274  -29.7160 H   0  0  0  0  0  0  0  0  0  0  0  0
   -4.5961   21.5275  -34.2351 H   0  0  0  0  0  0  0  0  0  0  0  0
   -3.8833   22.8791  -33.2563 H   0  0  0  0  0  0  0  0  0  0  0  0
   -3.2651   19.9210  -32.8255 H   0  0  0  0  0  0  0  0  0  0  0  0
   -2.2499   21.0616  -33.7914 H   0  0  0  0  0  0  0  0  0  0  0  0
   -1.8863   20.5707  -31.1185 H   0  0  0  0  0  0  0  0  0  0  0  0
   -1.4410   22.1226  -31.9651 H   0  0  0  0  0  0  0  0  0  0  0  0
   -2.7971   22.2103  -29.7094 H   0  0  0  0  0  0  0  0  0  0  0  0
   -3.2407   23.2862  -31.0925 H   0  0  0  0  0  0  0  0  0  0  0  0
   -4.5552   20.6244  -30.3803 H   0  0  0  0  0  0  0  0  0  0  0  0
   -5.2216   22.3158  -30.1089 H   0  0  0  0  0  0  0  0  0  0  0  0
  1  2  1  0
  2  3  1  0
  3  4  2  0
  4  5  1  0
  5  6  2  0
  6  7  1  0
  7  8  2  0
  8  9  1  0
  9 10  1  0
 10 11  1  0
 11 12  1  0
 12 13  2  0
 13 14  1  0
 14 15  2  0
  9 16  1  0
 16 17  1  0
 17 18  1  0
 18 19  1  0
 19 20  1  0
  8  3  1  0
 20  9  1  0
 15 11  1  0
  1 21  1  0
  1 22  1  0
  1 23  1  0
  4 24  1  0
  5 25  1  0
  6 26  1  0
  7 27  1  0
 10 28  1  0
 10 29  1  0
 12 30  1  0
 13 31  1  0
 14 32  1  0
 16 33  1  0
 16 34  1  0
 17 35  1  0
 17 36  1  0
 18 37  1  0
 18 38  1  0
 19 39  1  0
 19 40  1  0
 20 41  1  0
 20 42  1  0
M  CHG  1  13   1
M  END
>  <UniqueID>  (10) 
10

>  <SMILES>  (10) 
COc1ccccc1C1(Cn2c[nH+]cn2)CCCCC1

>  <Energy>  (10) 
93.94334443542832

>  <Genealogy>  (10) 
COc1ccccc1C1(Cn2c[nH+]cn2)CCCCC1 (protonated)
COc1ccccc1C1(Cn2c[nH+]cn2)CCCCC1 (3D coordinates assigned)
COc1ccccc1C1(Cn2c[nH+]cn2)CCCCC1 (nonaromatic ring conformer: 93.94334443542832 kcal/mol)

>  <smiles>  (10) 
COc1ccccc1C1(Cn2cncn2)CCCCC1

>  <score_type>  (10) 
oracle

>  <origin>  (10) 
adg

>  <m_score__min__energy>  (10) 
-6.9000000000000004

>  <m_primary>  (10) 
energy

$$$$
10:0
     RDKit          3D

 50 52  0  0  0  0  0  0  0  0999 V2000
   -1.9190   18.8290  -26.7000 C   0  0  0  0  0  0  0  0  0  0  0  0
   -2.8590   19.9640  -27.0890 C   0  0  0  0  0  0  0  0  0  0  0  0
   -2.1090   21.2140  -27.2730 N   0  0  0  0  0  0  0  0  0  0  0  0
   -0.8760   21.4600  -26.5130 C   0  0  0  0  0  0  0  0  0  0  0  0
   -0.4480   22.8910  -26.6830 C   0  0  0  0  0  0  0  0  0  0  0  0
   -0.8010   23.8600  -25.7320 C   0  0  0  0  0  0  0  0  0  0  0  0
   -0.3480   25.1730  -25.8770 C   0  0  0  0  0  0  0  0  0  0  0  0
    0.4630   25.5030  -26.9670 C   0  0  0  0  0  0  0  0  0  0  0  0
    0.8080   24.5490  -27.8730 N   0  0  0  0  0  0  0  0  0  0  0  0
    0.3800   23.2630  -27.7540 C   0  0  0  0  0  0  0  0  0  0  0  0
   -2.6360   22.2540  -28.1190 C   0  0  0  0  0  0  0  0  0  0  0  0
   -3.5660   23.1740  -27.6120 C   0  0  0  0  0  0  0  0  0  0  0  0
   -4.0960   24.1700  -28.4360 C   0  0  0  0  0  0  0  0  0  0  0  0
   -3.7080   24.2560  -29.7870 C   0  0  0  0  0  0  0  0  0  0  0  0
   -4.2180   25.2280  -30.6620 O   0  0  0  0  0  0  0  0  0  0  0  0
   -5.5610   25.2760  -31.1490 C   0  0  0  0  0  0  0  0  0  0  0  0
   -6.1540   23.8940  -31.2430 C   0  0  0  0  0  0  0  0  0  0  0  0
   -7.2290   23.5280  -30.4200 C   0  0  0  0  0  0  0  0  0  0  0  0
   -7.7950   22.2560  -30.5270 C   0  0  0  0  0  0  0  0  0  0  0  0
   -7.3000   21.3410  -31.4590 C   0  0  0  0  0  0  0  0  0  0  0  0
   -6.2310   21.6990  -32.3020 C   0  0  0  0  0  0  0  0  0  0  0  0
   -5.7010   20.8180  -33.2580 O   0  0  0  0  0  0  0  0  0  0  0  0
   -6.3400   19.6230  -33.6910 C   0  0  0  0  0  0  0  0  0  0  0  0
   -5.6720   22.9770  -32.1930 C   0  0  0  0  0  0  0  0  0  0  0  0
   -2.7770   23.3400  -30.2870 C   0  0  0  0  0  0  0  0  0  0  0  0
   -2.2450   22.3440  -29.4630 C   0  0  0  0  0  0  0  0  0  0  0  0
   -1.8617   18.7598  -25.6037 H   0  0  0  0  0  0  0  0  0  0  0  0
   -2.3002   17.8812  -27.1078 H   0  0  0  0  0  0  0  0  0  0  0  0
   -0.9167   19.0269  -27.1078 H   0  0  0  0  0  0  0  0  0  0  0  0
   -3.3684   19.7059  -28.0292 H   0  0  0  0  0  0  0  0  0  0  0  0
   -3.5959   20.1067  -26.2849 H   0  0  0  0  0  0  0  0  0  0  0  0
   -1.0578   21.2577  -25.4472 H   0  0  0  0  0  0  0  0  0  0  0  0
   -0.0816   20.7972  -26.8866 H   0  0  0  0  0  0  0  0  0  0  0  0
   -1.4330   23.5863  -24.8743 H   0  0  0  0  0  0  0  0  0  0  0  0
   -0.6268   25.9407  -25.1402 H   0  0  0  0  0  0  0  0  0  0  0  0
    0.8224   26.5351  -27.0920 H   0  0  0  0  0  0  0  0  0  0  0  0
    0.6835   22.5127  -28.4990 H   0  0  0  0  0  0  0  0  0  0  0  0
   -3.8797   23.1108  -26.5596 H   0  0  0  0  0  0  0  0  0  0  0  0
   -4.8199   24.8905  -28.0275 H   0  0  0  0  0  0  0  0  0  0  0  0
   -6.1704   25.8825  -30.4629 H   0  0  0  0  0  0  0  0  0  0  0  0
   -5.5521   25.7213  -32.1548 H   0  0  0  0  0  0  0  0  0  0  0  0
   -7.6277   24.2455  -29.6877 H   0  0  0  0  0  0  0  0  0  0  0  0
   -8.6343   21.9734  -29.8745 H   0  0  0  0  0  0  0  0  0  0  0  0
   -7.7465   20.3385  -31.5344 H   0  0  0  0  0  0  0  0  0  0  0  0
   -6.6535   19.0366  -32.8147 H   0  0  0  0  0  0  0  0  0  0  0  0
   -7.2223   19.8777  -34.2965 H   0  0  0  0  0  0  0  0  0  0  0  0
   -5.6383   19.0307  -34.2965 H   0  0  0  0  0  0  0  0  0  0  0  0
   -4.8457   23.2675  -32.8585 H   0  0  0  0  0  0  0  0  0  0  0  0
   -2.4604   23.4039  -31.3385 H   0  0  0  0  0  0  0  0  0  0  0  0
   -1.5165   21.6276  -29.8704 H   0  0  0  0  0  0  0  0  0  0  0  0
  1  2  1  0
  2  3  1  0
  3  4  1  0
  4  5  1  0
  5  6  2  0
  6  7  1  0
  7  8  2  0
  8  9  1  0
  9 10  2  0
  3 11  1  0
 11 12  2  0
 12 13  1  0
 13 14  2  0
 14 15  1  0
 15 16  1  0
 16 17  1  0
 17 18  2  0
 18 19  1  0
 19 20  2  0
 20 21  1  0
 21 22  1  0
 22 23  1  0
 21 24  2  0
 14 25  1  0
 25 26  2  0
 10  5  1  0
 26 11  1  0
 24 17  1  0
  1 27  1  0
  1 28  1  0
  1 29  1  0
  2 30  1  0
  2 31  1  0
  4 32  1  0
  4 33  1  0
  6 34  1  0
  7 35  1  0
  8 36  1  0
 10 37  1  0
 12 38  1  0
 13 39  1  0
 16 40  1  0
 16 41  1  0
 18 42  1  0
 19 43  1  0
 20 44  1  0
 23 45  1  0
 23 46  1  0
 23 47  1  0
 24 48  1  0
 25 49  1  0
 26 50  1  0
M  END
>  <UniqueID>  (11) 
11

>  <SMILES>  (11) 
CCN(Cc1cccnc1)c1ccc(OCc2cccc(OC)c2)cc1

>  <Energy>  (11) 
50.72837180129929

>  <Genealogy>  (11) 
CCN(Cc1cccnc1)c1ccc(OCc2cccc(OC)c2)cc1 (3D coordinates assigned)
CCN(Cc1cccnc1)c1ccc(OCc2cccc(OC)c2)cc1 (optimized conformer: 50.72837180129929 kcal/mol)

>  <smiles>  (11) 
CCN(Cc1cccnc1)c1ccc(OCc2cccc(OC)c2)cc1

>  <score_type>  (11) 
oracle

>  <origin>  (11) 
adg

>  <m_score__min__energy>  (11) 
-8.25

>  <m_primary>  (11) 
energy

$$$$
11:0
     RDKit          3D

 27 28  0  0  0  0  0  0  0  0999 V2000
   -8.0460   22.3070  -30.0990 F   0  0  0  0  0  0  0  0  0  0  0  0
   -8.7570   21.9410  -31.2290 C   0  0  0  0  0  0  0  0  0  0  0  0
   -8.7040   22.9670  -32.1560 F   0  0  0  0  0  0  0  0  0  0  0  0
  -10.0780   21.7580  -30.8570 F   0  0  0  0  0  0  0  0  0  0  0  0
   -8.1640   20.6840  -31.8320 C   0  0  0  0  0  0  0  0  0  0  0  0
   -8.8520   19.4590  -31.7080 C   0  0  0  0  0  0  0  0  0  0  0  0
   -8.3160   18.2840  -32.2360 C   0  0  0  0  0  0  0  0  0  0  0  0
   -7.0940   18.3090  -32.9010 C   0  0  0  0  0  0  0  0  0  0  0  0
   -6.4050   19.5120  -33.0530 C   0  0  0  0  0  0  0  0  0  0  0  0
   -6.9250   20.7120  -32.5290 C   0  0  0  0  0  0  0  0  0  0  0  0
   -6.2090   21.9510  -32.7180 N   0  0  0  0  0  0  0  0  0  0  0  0
   -4.9780   22.2940  -32.0040 C   0  0  0  0  0  0  0  0  0  0  0  0
   -5.2420   23.3740  -30.9980 C   0  0  0  0  0  0  0  0  0  0  0  0
   -4.5980   23.4320  -29.7520 C   0  0  0  0  0  0  0  0  0  0  0  0
   -4.9620   24.5340  -28.9910 C   0  0  0  0  0  0  0  0  0  0  0  0
   -6.0790   25.4300  -29.8710 S   0  0  0  0  0  0  0  0  0  0  0  0
   -6.1150   24.4330  -31.2230 C   0  0  0  0  0  0  0  0  0  0  0  0
   -9.8216   19.4297  -31.1894 H   0  0  0  0  0  0  0  0  0  0  0  0
   -8.8612   17.3349  -32.1262 H   0  0  0  0  0  0  0  0  0  0  0  0
   -6.6708   17.3786  -33.3074 H   0  0  0  0  0  0  0  0  0  0  0  0
   -5.4441   19.5241  -33.5884 H   0  0  0  0  0  0  0  0  0  0  0  0
   -6.6080   22.6850  -33.3430 H   0  0  0  0  0  0  0  0  0  0  0  0
   -4.5984   21.4009  -31.4861 H   0  0  0  0  0  0  0  0  0  0  0  0
   -4.2335   22.6551  -32.7287 H   0  0  0  0  0  0  0  0  0  0  0  0
   -3.8744   22.6766  -29.4116 H   0  0  0  0  0  0  0  0  0  0  0  0
   -4.5851   24.7784  -27.9869 H   0  0  0  0  0  0  0  0  0  0  0  0
   -6.7220   24.5902  -32.1268 H   0  0  0  0  0  0  0  0  0  0  0  0
  1  2  1  0
  2  3  1  0
  2  4  1  0
  2  5  1  0
  5  6  2  0
  6  7  1  0
  7  8  2  0
  8  9  1  0
  9 10  2  0
 10 11  1  0
 11 12  1  0
 12 13  1  0
 13 14  1  0
 14 15  2  0
 15 16  1  0
 16 17  1  0
 10  5  1  0
 17 13  2  0
  6 18  1  0
  7 19  1  0
  8 20  1  0
  9 21  1  0
 11 22  1  0
 12 23  1  0
 12 24  1  0
 14 25  1  0
 15 26  1  0
 17 27  1  0
M  END
>  <UniqueID>  (12) 
12

>  <SMILES>  (12) 
FC(F)(F)c1ccccc1NCc1ccsc1

>  <Energy>  (12) 
55.01959944224855

>  <Genealogy>  (12) 
FC(F)(F)c1ccccc1NCc1ccsc1 (3D coordinates assigned)
FC(F)(F)c1ccccc1NCc1ccsc1 (optimized conformer: 55.01959944224855 kcal/mol)

>  <smiles>  (12) 
FC(F)(F)c1ccccc1NCc1ccsc1

>  <score_type>  (12) 
oracle

>  <origin>  (12) 
adg

>  <m_score__min__energy>  (12) 
-6.0099999999999998

>  <m_primary>  (12) 
energy

$$$$
12:0
     RDKit          3D

 57 58  0  0  0  0  0  0  0  0999 V2000
   -5.7265   17.0659  -34.1128 H   0  0  0  0  0  0  0  0  0  0  0  0
   -6.2640   17.9490  -33.7370 C   0  0  0  0  0  0  0  0  0  0  0  0
   -7.3930   17.7610  -33.1350 N   0  0  0  0  0  0  0  0  0  0  0  0
   -7.7110   18.1740  -31.7820 C   0  0  0  0  0  0  0  0  0  0  0  0
   -8.1090   17.3117  -31.2271 H   0  0  0  0  0  0  0  0  0  0  0  0
   -6.7931   18.5492  -31.3058 H   0  0  0  0  0  0  0  0  0  0  0  0
   -8.7540   19.2950  -31.7800 C   0  0  0  0  0  0  0  0  0  0  0  0
   -9.7158   18.8932  -31.4287 H   0  0  0  0  0  0  0  0  0  0  0  0
   -8.4101   20.0981  -31.1116 H   0  0  0  0  0  0  0  0  0  0  0  0
   -8.9240   19.8410  -33.1230 N   0  0  0  0  0  0  0  0  0  0  0  0
   -9.5730   19.2140  -33.6530 H   0  0  0  0  0  0  0  0  0  0  0  0
   -8.0000   19.7850  -33.6080 H   0  0  0  0  0  0  0  0  0  0  0  0
   -5.6380   19.3050  -33.9560 C   0  0  0  0  0  0  0  0  0  0  0  0
   -6.0577   19.7530  -34.8688 H   0  0  0  0  0  0  0  0  0  0  0  0
   -4.5499   19.1793  -34.0572 H   0  0  0  0  0  0  0  0  0  0  0  0
   -5.9050   20.1890  -32.8210 N   0  0  0  0  0  0  0  0  0  0  0  0
   -6.8920   20.2580  -32.4870 H   0  0  0  0  0  0  0  0  0  0  0  0
   -4.8820   20.9710  -32.1700 C   0  0  0  0  0  0  0  0  0  0  0  0
   -3.6320   20.3990  -31.9430 C   0  0  0  0  0  0  0  0  0  0  0  0
   -3.4544   19.3519  -32.2296 H   0  0  0  0  0  0  0  0  0  0  0  0
   -2.6110   21.1300  -31.3620 C   0  0  0  0  0  0  0  0  0  0  0  0
   -1.6372   20.6467  -31.1942 H   0  0  0  0  0  0  0  0  0  0  0  0
   -2.7810   22.4710  -30.9800 C   0  0  0  0  0  0  0  0  0  0  0  0
   -1.6290   23.1250  -30.3840 N   0  0  0  0  0  0  0  0  0  0  0  0
   -1.7810   24.1170  -30.1200 H   0  0  0  0  0  0  0  0  0  0  0  0
   -0.8860   23.1950  -31.1200 H   0  0  0  0  0  0  0  0  0  0  0  0
   -1.0530   22.3420  -29.2720 C   0  0  0  0  0  0  0  0  0  0  0  0
   -0.0200   22.0689  -29.5333 H   0  0  0  0  0  0  0  0  0  0  0  0
   -1.6875   21.4548  -29.1297 H   0  0  0  0  0  0  0  0  0  0  0  0
   -1.0350   23.1140  -27.9430 C   0  0  0  0  0  0  0  0  0  0  0  0
    0.0084   23.3154  -27.6589 H   0  0  0  0  0  0  0  0  0  0  0  0
   -1.5336   22.5018  -27.1771 H   0  0  0  0  0  0  0  0  0  0  0  0
   -1.7600   24.3990  -28.0620 N   0  0  0  0  0  0  0  0  0  0  0  0
   -0.9170   25.6160  -27.9830 C   0  0  0  0  0  0  0  0  0  0  0  0
   -1.1831   26.2726  -28.8245 H   0  0  0  0  0  0  0  0  0  0  0  0
    0.1278   25.2735  -28.0157 H   0  0  0  0  0  0  0  0  0  0  0  0
   -1.0710   26.4200  -26.6800 C   0  0  0  0  0  0  0  0  0  0  0  0
   -0.9425   25.7491  -25.8178 H   0  0  0  0  0  0  0  0  0  0  0  0
   -0.3082   27.2118  -26.6454 H   0  0  0  0  0  0  0  0  0  0  0  0
   -2.0724   26.8739  -26.6454 H   0  0  0  0  0  0  0  0  0  0  0  0
   -3.0450   24.4830  -27.3280 C   0  0  0  0  0  0  0  0  0  0  0  0
   -2.8268   24.4694  -26.2499 H   0  0  0  0  0  0  0  0  0  0  0  0
   -3.5331   25.4129  -27.6553 H   0  0  0  0  0  0  0  0  0  0  0  0
   -4.0240   23.3450  -27.6330 C   0  0  0  0  0  0  0  0  0  0  0  0
   -4.3930   22.9161  -26.6897 H   0  0  0  0  0  0  0  0  0  0  0  0
   -4.8719   23.7366  -28.2142 H   0  0  0  0  0  0  0  0  0  0  0  0
   -3.5101   22.5651  -28.2142 H   0  0  0  0  0  0  0  0  0  0  0  0
   -4.0670   23.0940  -31.1810 C   0  0  0  0  0  0  0  0  0  0  0  0
   -4.3760   24.4410  -30.8090 C   0  0  0  0  0  0  0  0  0  0  0  0
   -3.4590   25.2990  -30.2230 O   0  0  0  0  0  0  0  0  0  0  0  0
   -5.6540   24.9620  -31.0130 C   0  0  0  0  0  0  0  0  0  0  0  0
   -5.8674   26.0024  -30.7266 H   0  0  0  0  0  0  0  0  0  0  0  0
   -6.6580   24.1880  -31.5710 C   0  0  0  0  0  0  0  0  0  0  0  0
   -7.6621   24.6125  -31.7176 H   0  0  0  0  0  0  0  0  0  0  0  0
   -6.3980   22.8780  -31.9450 C   0  0  0  0  0  0  0  0  0  0  0  0
   -7.2054   22.2691  -32.3778 H   0  0  0  0  0  0  0  0  0  0  0  0
   -5.1160   22.3130  -31.7800 C   0  0  0  0  0  0  0  0  0  0  0  0
  1  2  1  0
  2  3  2  0
  3  4  1  0
  4  5  1  0
  4  6  1  0
  4  7  1  0
  7  8  1  0
  7  9  1  0
  7 10  1  0
 10 11  1  0
 10 12  1  0
  2 13  1  0
 13 14  1  0
 13 15  1  0
 13 16  1  0
 16 17  1  0
 16 18  1  0
 18 19  2  0
 19 20  1  0
 19 21  1  0
 21 22  1  0
 21 23  2  0
 23 24  1  0
 24 25  1  0
 24 26  1  0
 24 27  1  0
 27 28  1  0
 27 29  1  0
 27 30  1  0
 30 31  1  0
 30 32  1  0
 30 33  1  0
 33 34  1  0
 34 35  1  0
 34 36  1  0
 34 37  1  0
 37 38  1  0
 37 39  1  0
 37 40  1  0
 33 41  1  0
 41 42  1  0
 41 43  1  0
 41 44  1  0
 44 45  1  0
 44 46  1  0
 44 47  1  0
 23 48  1  0
 48 49  2  0
 49 50  1  0
 49 51  1  0
 51 52  1  0
 51 53  2  0
 53 54  1  0
 53 55  1  0
 55 56  1  0
 55 57  2  0
 57 18  1  0
 57 48  1  0
M  CHG  2  24   1  50  -1
M  END
>  <UniqueID>  (13) 
13

>  <SMILES>  (13) 
CCN(CC)CC[NH2+]c1ccc(NC/C=N\CCN)c2cccc([O-])c12

>  <Energy>  (13) 
78.23439528464293

>  <Genealogy>  (13) 
CCN(CC)CC[NH2+]c1ccc(NCC=NCCN)c2cccc([O-])c12 (protonated)
CCN(CC)CC[NH2+]c1ccc(NC/C=N\CCN)c2cccc([O-])c12 (cis-trans isomerization)
CCN(CC)CC[NH2+]c1ccc(NC/C=N\CCN)c2cccc([O-])c12 (3D coordinates assigned)
CCN(CC)CC[NH2+]c1ccc(NC/C=N\CCN)c2cccc([O-])c12 (optimized conformer: 78.23439528464293 kcal/mol)

>  <smiles>  (13) 
CCN(CC)CCNc1ccc(NCC=NCCN)c2cccc(O)c12

>  <score_type>  (13) 
oracle

>  <origin>  (13) 
adg

>  <m_score__min__energy>  (13) 
-8.6699999999999999

>  <m_primary>  (13) 
energy

$$$$
13:0
     RDKit          3D

 27 28  0  0  0  0  0  0  0  0999 V2000
   -2.2630   24.9100  -28.5940 C   0  0  0  0  0  0  0  0  0  0  0  0
   -3.1070   25.2980  -29.6730 O   0  0  0  0  0  0  0  0  0  0  0  0
   -4.2290   24.5730  -30.1030 C   0  0  0  0  0  0  0  0  0  0  0  0
   -5.5450   24.9830  -29.8230 C   0  0  0  0  0  0  0  0  0  0  0  0
   -6.6300   24.2260  -30.2730 C   0  0  0  0  0  0  0  0  0  0  0  0
   -6.4250   23.0470  -31.0120 C   0  0  0  0  0  0  0  0  0  0  0  0
   -7.5450   22.2660  -31.4760 N   0  0  0  0  0  0  0  0  0  0  0  0
   -8.7470   22.7240  -31.8970 C   0  0  0  0  0  0  0  0  0  0  0  0
   -9.5830   21.7320  -32.2700 N   0  0  0  0  0  0  0  0  0  0  0  0
   -8.8630   20.6120  -32.0680 C   0  0  0  0  0  0  0  0  0  0  0  0
   -9.4740   18.9600  -32.3860 S   0  0  0  0  0  0  0  0  0  0  0  0
   -7.8870   18.1710  -31.9800 C   0  0  0  0  0  0  0  0  0  0  0  0
   -7.6170   20.9260  -31.5840 C   0  0  0  0  0  0  0  0  0  0  0  0
   -5.1060   22.6430  -31.2880 C   0  0  0  0  0  0  0  0  0  0  0  0
   -4.0220   23.4010  -30.8370 C   0  0  0  0  0  0  0  0  0  0  0  0
   -2.7598   25.1384  -27.6395 H   0  0  0  0  0  0  0  0  0  0  0  0
   -2.0637   23.8299  -28.6544 H   0  0  0  0  0  0  0  0  0  0  0  0
   -1.3134   25.4620  -28.6544 H   0  0  0  0  0  0  0  0  0  0  0  0
   -5.7209   25.9036  -29.2472 H   0  0  0  0  0  0  0  0  0  0  0  0
   -7.6548   24.5556  -30.0470 H   0  0  0  0  0  0  0  0  0  0  0  0
   -9.0141   23.7905  -31.9315 H   0  0  0  0  0  0  0  0  0  0  0  0
   -7.7743   18.1150  -30.8872 H   0  0  0  0  0  0  0  0  0  0  0  0
   -7.8631   17.1561  -32.4036 H   0  0  0  0  0  0  0  0  0  0  0  0
   -7.0634   18.7646  -32.4036 H   0  0  0  0  0  0  0  0  0  0  0  0
   -6.8206   20.2110  -31.3301 H   0  0  0  0  0  0  0  0  0  0  0  0
   -4.9264   21.7229  -31.8635 H   0  0  0  0  0  0  0  0  0  0  0  0
   -2.9964   23.0726  -31.0615 H   0  0  0  0  0  0  0  0  0  0  0  0
  1  2  1  0
  2  3  1  0
  3  4  2  0
  4  5  1  0
  5  6  2  0
  6  7  1  0
  7  8  1  0
  8  9  2  0
  9 10  1  0
 10 11  1  0
 11 12  1  0
 10 13  2  0
  6 14  1  0
 14 15  2  0
 15  3  1  0
 13  7  1  0
  1 16  1  0
  1 17  1  0
  1 18  1  0
  4 19  1  0
  5 20  1  0
  8 21  1  0
 12 22  1  0
 12 23  1  0
 12 24  1  0
 13 25  1  0
 14 26  1  0
 15 27  1  0
M  END
>  <UniqueID>  (14) 
14

>  <SMILES>  (14) 
COc1ccc(-n2cnc(SC)c2)cc1

>  <Energy>  (14) 
55.48018018176657

>  <Genealogy>  (14) 
COc1ccc(-n2cnc(SC)c2)cc1 (3D coordinates assigned)
COc1ccc(-n2cnc(SC)c2)cc1 (optimized conformer: 55.48018018176657 kcal/mol)

>  <smiles>  (14) 
COc1ccc(-n2cnc(SC)c2)cc1

>  <score_type>  (14) 
oracle

>  <origin>  (14) 
adg

>  <m_score__min__energy>  (14) 
-6.4400000000000004

>  <m_primary>  (14) 
energy

$$$$
14:0
     RDKit          3D

 47 49  0  0  0  0  0  0  0  0999 V2000
   -5.2793   25.3687  -30.7874 H   0  0  0  0  0  0  0  0  0  0  0  0
   -4.4270   24.7510  -30.4680 C   0  0  0  0  0  0  0  0  0  0  0  0
   -3.4380   25.2970  -29.7280 N   0  0  0  0  0  0  0  0  0  0  0  0
   -2.3660   24.5760  -29.3120 C   0  0  0  0  0  0  0  0  0  0  0  0
   -1.3840   25.2250  -28.5560 C   0  0  0  0  0  0  0  0  0  0  0  0
   -1.5023   26.2899  -28.3070 H   0  0  0  0  0  0  0  0  0  0  0  0
   -0.2600   24.5350  -28.1170 C   0  0  0  0  0  0  0  0  0  0  0  0
    0.5084   25.0517  -27.5231 H   0  0  0  0  0  0  0  0  0  0  0  0
   -0.1110   23.1880  -28.4320 C   0  0  0  0  0  0  0  0  0  0  0  0
    0.7789   22.6419  -28.0857 H   0  0  0  0  0  0  0  0  0  0  0  0
   -1.0830   22.5230  -29.1850 C   0  0  0  0  0  0  0  0  0  0  0  0
   -0.9437   21.4584  -29.4244 H   0  0  0  0  0  0  0  0  0  0  0  0
   -2.2430   23.1910  -29.6460 C   0  0  0  0  0  0  0  0  0  0  0  0
   -3.2980   22.5970  -30.4290 C   0  0  0  0  0  0  0  0  0  0  0  0
   -3.3820   21.3520  -30.8310 N   0  0  0  0  0  0  0  0  0  0  0  0
   -2.4270   20.2950  -31.1530 C   0  0  0  0  0  0  0  0  0  0  0  0
   -2.7781   19.3475  -30.7182 H   0  0  0  0  0  0  0  0  0  0  0  0
   -1.4462   20.5683  -30.7366 H   0  0  0  0  0  0  0  0  0  0  0  0
   -2.2860   20.1290  -32.6740 C   0  0  0  0  0  0  0  0  0  0  0  0
   -2.6586   19.1328  -32.9546 H   0  0  0  0  0  0  0  0  0  0  0  0
   -1.2216   20.2522  -32.9229 H   0  0  0  0  0  0  0  0  0  0  0  0
   -3.0730   21.1900  -33.4670 C   0  0  0  0  0  0  0  0  0  0  0  0
   -2.9348   20.9992  -34.5415 H   0  0  0  0  0  0  0  0  0  0  0  0
   -2.6852   22.1766  -33.1734 H   0  0  0  0  0  0  0  0  0  0  0  0
   -4.5230   21.1750  -33.1670 N   0  0  0  0  0  0  0  0  0  0  0  0
   -4.7010   21.3550  -32.1530 H   0  0  0  0  0  0  0  0  0  0  0  0
   -4.9820   21.9500  -33.7020 H   0  0  0  0  0  0  0  0  0  0  0  0
   -5.1580   19.9100  -33.5710 C   0  0  0  0  0  0  0  0  0  0  0  0
   -4.4816   19.0748  -33.3368 H   0  0  0  0  0  0  0  0  0  0  0  0
   -5.3603   19.9436  -34.6517 H   0  0  0  0  0  0  0  0  0  0  0  0
   -6.4640   19.7130  -32.8360 C   0  0  0  0  0  0  0  0  0  0  0  0
   -6.9800   18.4150  -32.6790 C   0  0  0  0  0  0  0  0  0  0  0  0
   -6.4162   17.5524  -33.0638 H   0  0  0  0  0  0  0  0  0  0  0  0
   -8.2030   18.2140  -32.0380 C   0  0  0  0  0  0  0  0  0  0  0  0
   -8.5958   17.1944  -31.9110 H   0  0  0  0  0  0  0  0  0  0  0  0
   -8.9280   19.3050  -31.5580 C   0  0  0  0  0  0  0  0  0  0  0  0
   -9.8900   19.1434  -31.0497 H   0  0  0  0  0  0  0  0  0  0  0  0
   -8.4360   20.6010  -31.7210 C   0  0  0  0  0  0  0  0  0  0  0  0
   -9.0149   21.4568  -31.3437 H   0  0  0  0  0  0  0  0  0  0  0  0
   -7.2020   20.8200  -32.3660 C   0  0  0  0  0  0  0  0  0  0  0  0
   -6.6890   22.1130  -32.5590 O   0  0  0  0  0  0  0  0  0  0  0  0
   -7.4000   23.3160  -32.2900 C   0  0  0  0  0  0  0  0  0  0  0  0
   -7.4835   23.4572  -31.2023 H   0  0  0  0  0  0  0  0  0  0  0  0
   -6.8599   24.1673  -32.7299 H   0  0  0  0  0  0  0  0  0  0  0  0
   -8.4063   23.2534  -32.7299 H   0  0  0  0  0  0  0  0  0  0  0  0
   -4.3690   23.4110  -30.8260 C   0  0  0  0  0  0  0  0  0  0  0  0
   -5.1786   22.9793  -31.4327 H   0  0  0  0  0  0  0  0  0  0  0  0
  1  2  1  0
  2  3  1  0
  3  4  1  0
  4  5  2  0
  5  6  1  0
  5  7  1  0
  7  8  1  0
  7  9  2  0
  9 10  1  0
  9 11  1  0
 11 12  1  0
 11 13  2  0
 13 14  1  0
 14 15  2  0
 15 16  1  0
 16 17  1  0
 16 18  1  0
 16 19  1  0
 19 20  1  0
 19 21  1  0
 19 22  1  0
 22 23  1  0
 22 24  1  0
 22 25  1  0
 25 26  1  0
 25 27  1  0
 25 28  1  0
 28 29  1  0
 28 30  1  0
 28 31  1  0
 31 32  2  0
 32 33  1  0
 32 34  1  0
 34 35  1  0
 34 36  2  0
 36 37  1  0
 36 38  1  0
 38 39  1  0
 38 40  2  0
 40 41  1  0
 41 42  1  0
 42 43  1  0
 42 44  1  0
 42 45  1  0
 14 46  1  0
 46 47  1  0
 46  2  2  0
 13  4  1  0
 40 31  1  0
M  CHG  2   3  -1  25   1
M  END
>  <UniqueID>  (15) 
15

>  <SMILES>  (15) 
COc1ccccc1C[NH2+]CCC/N=c1/cc[n-]c2ccccc12

>  <Energy>  (15) 
66.26620931544255

>  <Genealogy>  (15) 
COc1ccccc1C[NH2+]CCCN=c1cc[n-]c2ccccc12 (protonated)
COc1ccccc1C[NH2+]CCC/N=c1/cc[n-]c2ccccc12 (cis-trans isomerization)
COc1ccccc1C[NH2+]CCC/N=c1/cc[n-]c2ccccc12 (3D coordinates assigned)
COc1ccccc1C[NH2+]CCC/N=c1/cc[n-]c2ccccc12 (optimized conformer: 66.26620931544255 kcal/mol)

>  <smiles>  (15) 
COc1ccccc1CNCCCN=c1cc[nH]c2ccccc12

>  <score_type>  (15) 
oracle

>  <origin>  (15) 
adg

>  <m_score__min__energy>  (15) 
-8.5999999999999996

>  <m_primary>  (15) 
energy

$$$$
15:0
     RDKit          3D

 42 43  0  0  0  0  0  0  0  0999 V2000
   -2.6150   24.8280  -28.7090 C   0  0  0  0  0  0  0  0  0  0  0  0
   -3.4730   25.1940  -29.7860 O   0  0  0  0  0  0  0  0  0  0  0  0
   -4.2730   24.2920  -30.5030 C   0  0  0  0  0  0  0  0  0  0  0  0
   -5.5100   24.6620  -31.0640 C   0  0  0  0  0  0  0  0  0  0  0  0
   -6.2710   23.7260  -31.7720 C   0  0  0  0  0  0  0  0  0  0  0  0
   -5.7990   22.4140  -31.9470 C   0  0  0  0  0  0  0  0  0  0  0  0
   -6.5790   21.4290  -32.6440 N   0  0  0  0  0  0  0  0  0  0  0  0
   -7.9500   21.1050  -32.3450 C   0  0  0  0  0  0  0  0  0  0  0  0
   -8.9250   22.1970  -31.5890 S   0  0  0  0  0  0  0  0  0  0  0  0
   -8.5200   19.8860  -32.8620 N   0  0  0  0  0  0  0  0  0  0  0  0
   -8.2830   18.7380  -31.9700 C   0  0  0  0  0  0  0  0  0  0  0  0
   -7.0050   17.9620  -32.3460 C   0  0  0  0  0  0  0  0  0  0  0  0
   -6.0960   18.7110  -33.2400 N   0  0  0  0  0  0  0  0  0  0  0  0
   -6.1060   18.3070  -34.6600 C   0  0  0  0  0  0  0  0  0  0  0  0
   -4.8810   17.4630  -35.0360 C   0  0  0  0  0  0  0  0  0  0  0  0
   -3.6920   18.1090  -34.6390 O   0  0  0  0  0  0  0  0  0  0  0  0
   -3.6470   18.1670  -33.2310 C   0  0  0  0  0  0  0  0  0  0  0  0
   -4.7720   19.0570  -32.6820 C   0  0  0  0  0  0  0  0  0  0  0  0
   -4.5800   22.0430  -31.3670 C   0  0  0  0  0  0  0  0  0  0  0  0
   -3.8200   22.9780  -30.6590 C   0  0  0  0  0  0  0  0  0  0  0  0
   -3.1153   25.0414  -27.7529 H   0  0  0  0  0  0  0  0  0  0  0  0
   -2.3861   23.7539  -28.7713 H   0  0  0  0  0  0  0  0  0  0  0  0
   -1.6813   25.4061  -28.7713 H   0  0  0  0  0  0  0  0  0  0  0  0
   -5.8795   25.6912  -30.9451 H   0  0  0  0  0  0  0  0  0  0  0  0
   -7.2439   24.0184  -32.1939 H   0  0  0  0  0  0  0  0  0  0  0  0
   -6.1250   20.9340  -33.4450 H   0  0  0  0  0  0  0  0  0  0  0  0
   -8.0830   19.6840  -33.7910 H   0  0  0  0  0  0  0  0  0  0  0  0
   -9.5460   20.0120  -33.0210 H   0  0  0  0  0  0  0  0  0  0  0  0
   -8.1833   19.1059  -30.9381 H   0  0  0  0  0  0  0  0  0  0  0  0
   -9.1365   18.0513  -32.0697 H   0  0  0  0  0  0  0  0  0  0  0  0
   -6.4609   17.7201  -31.4211 H   0  0  0  0  0  0  0  0  0  0  0  0
   -7.3243   17.0625  -32.8927 H   0  0  0  0  0  0  0  0  0  0  0  0
   -7.0142   17.7173  -34.8532 H   0  0  0  0  0  0  0  0  0  0  0  0
   -6.0829   19.2224  -35.2696 H   0  0  0  0  0  0  0  0  0  0  0  0
   -4.9469   16.4866  -34.5338 H   0  0  0  0  0  0  0  0  0  0  0  0
   -4.8642   17.3292  -36.1277 H   0  0  0  0  0  0  0  0  0  0  0  0
   -3.7611   17.1510  -32.8250 H   0  0  0  0  0  0  0  0  0  0  0  0
   -2.6805   18.5960  -32.9280 H   0  0  0  0  0  0  0  0  0  0  0  0
   -4.8099   18.9422  -31.5887 H   0  0  0  0  0  0  0  0  0  0  0  0
   -4.5485   20.0936  -32.9744 H   0  0  0  0  0  0  0  0  0  0  0  0
   -4.2182   21.0092  -31.4692 H   0  0  0  0  0  0  0  0  0  0  0  0
   -2.8569   22.6778  -30.2205 H   0  0  0  0  0  0  0  0  0  0  0  0
  1  2  1  0
  2  3  1  0
  3  4  2  0
  4  5  1  0
  5  6  2  0
  6  7  1  0
  7  8  1  0
  8  9  2  0
  8 10  1  0
 10 11  1  0
 11 12  1  0
 12 13  1  0
 13 14  1  0
 14 15  1  0
 15 16  1  0
 16 17  1  0
 17 18  1  0
  6 19  1  0
 19 20  2  0
 20  3  1  0
 18 13  1  0
  1 21  1  0
  1 22  1  0
  1 23  1  0
  4 24  1  0
  5 25  1  0
  7 26  1  0
 10 27  1  0
 10 28  1  0
 11 29  1  0
 11 30  1  0
 12 31  1  0
 12 32  1  0
 14 33  1  0
 14 34  1  0
 15 35  1  0
 15 36  1  0
 17 37  1  0
 17 38  1  0
 18 39  1  0
 18 40  1  0
 19 41  1  0
 20 42  1  0
M  CHG  1  10   1
M  END
>  <UniqueID>  (16) 
16

>  <SMILES>  (16) 
COc1ccc(NC(=S)[NH2+]CCN2CCOCC2)cc1

>  <Energy>  (16) 
55.58577556885757

>  <Genealogy>  (16) 
COc1ccc(NC(=S)[NH2+]CCN2CCOCC2)cc1 (protonated)
COc1ccc(NC(=S)[NH2+]CCN2CCOCC2)cc1 (3D coordinates assigned)
COc1ccc(NC(=S)[NH2+]CCN2CCOCC2)cc1 (nonaromatic ring conformer: 55.58577556885757 kcal/mol)

>  <smiles>  (16) 
COc1ccc(NC(=S)NCCN2CCOCC2)cc1

>  <score_type>  (16) 
oracle

>  <origin>  (16) 
adg

>  <m_score__min__energy>  (16) 
-6.9199999999999999

>  <m_primary>  (16) 
energy

$$$$
16:0
     RDKit          3D

 42 44  0  0  0  0  0  0  0  0999 V2000
   -0.8600   24.3360  -25.5350 C   0  0  0  0  0  0  0  0  0  0  0  0
   -1.9850   25.2680  -25.7380 N   0  0  0  0  0  0  0  0  0  0  0  0
   -1.5670   26.6470  -25.3970 C   0  0  0  0  0  0  0  0  0  0  0  0
   -2.5680   25.1080  -27.1040 C   0  0  1  0  0  0  0  0  0  0  0  0
   -1.7220   24.2210  -28.0190 C   0  0  0  0  0  0  0  0  0  0  0  0
   -2.6470   23.0960  -28.4520 C   0  0  0  0  0  0  0  0  0  0  0  0
   -4.0320   23.5340  -28.2420 N   0  0  0  0  0  0  0  0  0  0  0  0
   -4.6720   24.2750  -29.6930 S   0  0  0  0  0  0  0  0  0  0  0  0
   -3.5590   24.9240  -30.4710 O   0  0  0  0  0  0  0  0  0  0  0  0
   -5.6870   25.3210  -29.3240 O   0  0  0  0  0  0  0  0  0  0  0  0
   -5.4670   23.0550  -30.6860 C   0  0  0  0  0  0  0  0  0  0  0  0
   -4.7310   22.3000  -31.6090 C   0  0  0  0  0  0  0  0  0  0  0  0
   -5.3640   21.3310  -32.3930 C   0  0  0  0  0  0  0  0  0  0  0  0
   -6.7430   21.1090  -32.2630 C   0  0  0  0  0  0  0  0  0  0  0  0
   -7.3890   20.1380  -33.0430 C   0  0  0  0  0  0  0  0  0  0  0  0
   -8.7630   19.9270  -32.9040 C   0  0  0  0  0  0  0  0  0  0  0  0
   -9.5020   20.6820  -31.9880 C   0  0  0  0  0  0  0  0  0  0  0  0
   -8.8700   21.6520  -31.2050 C   0  0  0  0  0  0  0  0  0  0  0  0
   -7.4910   21.8730  -31.3350 C   0  0  0  0  0  0  0  0  0  0  0  0
   -6.8460   22.8440  -30.5540 C   0  0  0  0  0  0  0  0  0  0  0  0
   -3.9820   24.5050  -27.1430 C   0  0  0  0  0  0  0  0  0  0  0  0
   -0.6902   24.1954  -24.4573 H   0  0  0  0  0  0  0  0  0  0  0  0
   -1.0983   23.3671  -25.9981 H   0  0  0  0  0  0  0  0  0  0  0  0
    0.0476   24.7504  -25.9981 H   0  0  0  0  0  0  0  0  0  0  0  0
   -2.7260   24.9900  -25.0510 H   0  0  0  0  0  0  0  0  0  0  0  0
   -1.5328   26.7599  -24.3033 H   0  0  0  0  0  0  0  0  0  0  0  0
   -0.5693   26.8422  -25.8172 H   0  0  0  0  0  0  0  0  0  0  0  0
   -2.2884   27.3633  -25.8172 H   0  0  0  0  0  0  0  0  0  0  0  0
   -2.5967   26.1503  -27.4545 H   0  0  0  0  0  0  0  0  0  0  0  0
   -1.3727   24.7907  -28.8927 H   0  0  0  0  0  0  0  0  0  0  0  0
   -0.8250   23.8413  -27.5079 H   0  0  0  0  0  0  0  0  0  0  0  0
   -2.4854   22.8699  -29.5163 H   0  0  0  0  0  0  0  0  0  0  0  0
   -2.4424   22.1887  -27.8646 H   0  0  0  0  0  0  0  0  0  0  0  0
   -3.6497   22.4707  -31.7172 H   0  0  0  0  0  0  0  0  0  0  0  0
   -4.7791   20.7409  -33.1139 H   0  0  0  0  0  0  0  0  0  0  0  0
   -6.8124   19.5416  -33.7654 H   0  0  0  0  0  0  0  0  0  0  0  0
   -9.2652   19.1643  -33.5172 H   0  0  0  0  0  0  0  0  0  0  0  0
  -10.5837   20.5120  -31.8834 H   0  0  0  0  0  0  0  0  0  0  0  0
   -9.4552   22.2433  -30.4854 H   0  0  0  0  0  0  0  0  0  0  0  0
   -7.4253   23.4421  -29.8351 H   0  0  0  0  0  0  0  0  0  0  0  0
   -4.7222   25.3005  -27.3140 H   0  0  0  0  0  0  0  0  0  0  0  0
   -4.2131   24.0119  -26.1873 H   0  0  0  0  0  0  0  0  0  0  0  0
  1  2  1  0
  2  3  1  0
  2  4  1  0
  4  5  1  0
  5  6  1  0
  6  7  1  0
  7  8  1  0
  8  9  2  0
  8 10  2  0
  8 11  1  0
 11 12  2  0
 12 13  1  0
 13 14  2  0
 14 15  1  0
 15 16  2  0
 16 17  1  0
 17 18  2  0
 18 19  1  0
 19 20  2  0
  7 21  1  0
 21  4  1  0
 20 11  1  0
 19 14  1  0
  1 22  1  0
  1 23  1  0
  1 24  1  0
  2 25  1  0
  3 26  1  0
  3 27  1  0
  3 28  1  0
  4 29  1  6
  5 30  1  0
  5 31  1  0
  6 32  1  0
  6 33  1  0
 12 34  1  0
 13 35  1  0
 15 36  1  0
 16 37  1  0
 17 38  1  0
 18 39  1  0
 20 40  1  0
 21 41  1  0
 21 42  1  0
M  CHG  1   2   1
M  END
>  <UniqueID>  (17) 
17

>  <SMILES>  (17) 
C[NH+](C)[C@H]1CCN(S(=O)(=O)c2ccc3ccccc3c2)C1

>  <Energy>  (17) 
54.53213037272487

>  <Genealogy>  (17) 
C[NH+](C)C1CCN(S(=O)(=O)c2ccc3ccccc3c2)C1 (protonated)
C[NH+](C)[C@H]1CCN(S(=O)(=O)c2ccc3ccccc3c2)C1 (chirality)
C[NH+](C)[C@H]1CCN(S(=O)(=O)c2ccc3ccccc3c2)C1 (3D coordinates assigned)
C[NH+](C)[C@H]1CCN(S(=O)(=O)c2ccc3ccccc3c2)C1 (nonaromatic ring conformer: 54.53213037272487 kcal/mol)

>  <smiles>  (17) 
CN(C)C1CCN(S(=O)(=O)c2ccc3ccccc3c2)C1

>  <score_type>  (17) 
oracle

>  <origin>  (17) 
adg

>  <m_score__min__energy>  (17) 
-8.2300000000000004

>  <m_primary>  (17) 
energy

$$$$
17:0
     RDKit          3D

 44 47  0  0  0  0  0  0  0  0999 V2000
   -4.3940   23.8920  -28.7900 O   0  0  0  0  0  0  0  0  0  0  0  0
   -3.5560   23.9300  -30.0380 S   0  0  0  0  0  0  0  0  0  0  0  0
   -3.9230   25.1580  -30.8220 O   0  0  0  0  0  0  0  0  0  0  0  0
   -3.9140   22.4870  -30.9840 C   0  0  0  0  0  0  0  0  0  0  0  0
   -3.9160   21.2190  -30.3860 C   0  0  0  0  0  0  0  0  0  0  0  0
   -4.2200   20.0840  -31.1450 C   0  0  0  0  0  0  0  0  0  0  0  0
   -4.5440   20.2080  -32.5050 C   0  0  0  0  0  0  0  0  0  0  0  0
   -4.8780   19.0020  -33.2900 C   0  0  0  0  0  0  0  0  0  0  0  0
   -4.2320   18.6540  -34.4230 N   0  0  0  0  0  0  0  0  0  0  0  0
   -4.8220   17.5610  -34.8940 N   0  0  0  0  0  0  0  0  0  0  0  0
   -5.8180   17.2580  -34.0400 C   0  0  0  0  0  0  0  0  0  0  0  0
   -6.8100   15.9700  -34.2190 S   0  0  0  0  0  0  0  0  0  0  0  0
   -5.8610   18.1190  -33.0130 N   0  0  0  0  0  0  0  0  0  0  0  0
   -6.7820   18.1150  -31.9480 N   0  0  0  0  0  0  0  0  0  0  0  0
   -7.9850   18.6110  -32.0040 C   0  0  0  0  0  0  0  0  0  0  0  0
   -8.3040   20.0430  -31.8570 C   0  0  0  0  0  0  0  0  0  0  0  0
   -9.4820   20.6820  -32.2120 C   0  0  0  0  0  0  0  0  0  0  0  0
   -9.2900   22.0140  -31.9140 C   0  0  0  0  0  0  0  0  0  0  0  0
   -8.0090   22.1050  -31.4120 C   0  0  0  0  0  0  0  0  0  0  0  0
   -7.1580   23.7120  -30.8420 Br  0  0  0  0  0  0  0  0  0  0  0  0
   -7.4450   20.9210  -31.3930 O   0  0  0  0  0  0  0  0  0  0  0  0
   -4.5290   21.4780  -33.1030 C   0  0  0  0  0  0  0  0  0  0  0  0
   -4.2200   22.6100  -32.3440 C   0  0  0  0  0  0  0  0  0  0  0  0
   -1.8590   23.9410  -29.6090 N   0  0  0  0  0  0  0  0  0  0  0  0
   -1.5760   24.8070  -28.4470 C   0  0  0  0  0  0  0  0  0  0  0  0
   -1.8540   24.0990  -27.1120 C   0  0  0  0  0  0  0  0  0  0  0  0
   -1.1500   22.8770  -27.0340 O   0  0  0  0  0  0  0  0  0  0  0  0
   -1.6080   22.0060  -28.0450 C   0  0  0  0  0  0  0  0  0  0  0  0
   -1.3130   22.5810  -29.4390 C   0  0  0  0  0  0  0  0  0  0  0  0
   -3.6779   21.1163  -29.3170 H   0  0  0  0  0  0  0  0  0  0  0  0
   -4.2051   19.0901  -30.6740 H   0  0  0  0  0  0  0  0  0  0  0  0
   -8.8195   17.9144  -32.1724 H   0  0  0  0  0  0  0  0  0  0  0  0
  -10.3834   20.2213  -32.6424 H   0  0  0  0  0  0  0  0  0  0  0  0
  -10.0099   22.8347  -32.0488 H   0  0  0  0  0  0  0  0  0  0  0  0
   -4.7614   21.5825  -34.1731 H   0  0  0  0  0  0  0  0  0  0  0  0
   -4.2173   23.6027  -32.8180 H   0  0  0  0  0  0  0  0  0  0  0  0
   -0.5172   25.1039  -28.4764 H   0  0  0  0  0  0  0  0  0  0  0  0
   -2.2399   25.6818  -28.5091 H   0  0  0  0  0  0  0  0  0  0  0  0
   -1.5361   24.7513  -26.2853 H   0  0  0  0  0  0  0  0  0  0  0  0
   -2.9316   23.8891  -27.0429 H   0  0  0  0  0  0  0  0  0  0  0  0
   -1.1010   21.0354  -27.9411 H   0  0  0  0  0  0  0  0  0  0  0  0
   -2.6960   21.8845  -27.9379 H   0  0  0  0  0  0  0  0  0  0  0  0
   -0.2232   22.6163  -29.5840 H   0  0  0  0  0  0  0  0  0  0  0  0
   -1.7954   21.9287  -30.1818 H   0  0  0  0  0  0  0  0  0  0  0  0
  1  2  2  0
  2  3  2  0
  2  4  1  0
  4  5  2  0
  5  6  1  0
  6  7  2  0
  7  8  1  0
  8  9  2  0
  9 10  1  0
 10 11  1  0
 11 12  2  0
 11 13  1  0
 13 14  1  0
 14 15  2  3
 15 16  1  0
 16 17  2  0
 17 18  1  0
 18 19  2  0
 19 20  1  0
 19 21  1  0
  7 22  1  0
 22 23  2  0
  2 24  1  0
 24 25  1  0
 25 26  1  0
 26 27  1  0
 27 28  1  0
 28 29  1  0
 23  4  1  0
 29 24  1  0
 13  8  1  0
 21 16  1  0
  5 30  1  0
  6 31  1  0
 15 32  1  0
 17 33  1  0
 18 34  1  0
 22 35  1  0
 23 36  1  0
 25 37  1  0
 25 38  1  0
 26 39  1  0
 26 40  1  0
 28 41  1  0
 28 42  1  0
 29 43  1  0
 29 44  1  0
M  CHG  1  10  -1
M  END
>  <UniqueID>  (18) 
18

>  <SMILES>  (18) 
O=S(=O)(c1ccc(-c2n[n-]c(=S)n2N=Cc2ccc(Br)o2)cc1)N1CCOCC1

>  <Energy>  (18) 
125.43290574832074

>  <Genealogy>  (18) 
O=S(=O)(c1ccc(-c2n[n-]c(=S)n2N=Cc2ccc(Br)o2)cc1)N1CCOCC1 (protonated)
O=S(=O)(c1ccc(-c2n[n-]c(=S)n2N=Cc2ccc(Br)o2)cc1)N1CCOCC1 (3D coordinates assigned)
O=S(=O)(c1ccc(-c2n[n-]c(=S)n2N=Cc2ccc(Br)o2)cc1)N1CCOCC1 (nonaromatic ring conformer: 125.43290574832074 kcal/mol)

>  <smiles>  (18) 
O=S(=O)(c1ccc(-c2n[nH]c(=S)n2N=Cc2ccc(Br)o2)cc1)N1CCOCC1

>  <score_type>  (18) 
oracle

>  <origin>  (18) 
adg

>  <m_score__min__energy>  (18) 
-10.210000000000001

>  <m_primary>  (18) 
energy

$$$$
18:0
     RDKit          3D

 30 31  0  0  0  0  0  0  0  0999 V2000
   -2.9480   23.3660  -28.7300 C   0  0  0  0  0  0  0  0  0  0  0  0
   -3.9530   23.8060  -29.7400 C   0  0  0  0  0  0  0  0  0  0  0  0
   -5.1460   23.1750  -30.0200 C   0  0  0  0  0  0  0  0  0  0  0  0
   -5.7090   23.9780  -30.9920 C   0  0  0  0  0  0  0  0  0  0  0  0
   -7.0160   23.7560  -31.6920 C   0  0  0  0  0  0  0  0  0  0  0  0
   -7.9150   22.7350  -30.9740 C   0  0  0  0  0  0  0  0  0  0  0  0
   -8.8010   21.9070  -31.9220 C   0  0  0  0  0  0  0  0  0  0  0  0
   -8.2070   20.5590  -32.2480 C   0  0  0  0  0  0  0  0  0  0  0  0
   -7.0840   20.4580  -33.0850 C   0  0  0  0  0  0  0  0  0  0  0  0
   -6.5100   19.2110  -33.3500 C   0  0  0  0  0  0  0  0  0  0  0  0
   -7.0570   18.0550  -32.7850 C   0  0  0  0  0  0  0  0  0  0  0  0
   -8.1820   18.1440  -31.9620 C   0  0  0  0  0  0  0  0  0  0  0  0
   -8.7600   19.3900  -31.6970 C   0  0  0  0  0  0  0  0  0  0  0  0
   -4.9100   24.9950  -31.2190 O   0  0  0  0  0  0  0  0  0  0  0  0
   -3.8420   24.9270  -30.4790 N   0  0  0  0  0  0  0  0  0  0  0  0
   -3.3443   23.5395  -27.7187 H   0  0  0  0  0  0  0  0  0  0  0  0
   -2.7394   22.2942  -28.8632 H   0  0  0  0  0  0  0  0  0  0  0  0
   -2.0189   23.9397  -28.8632 H   0  0  0  0  0  0  0  0  0  0  0  0
   -5.5517   22.2539  -29.5762 H   0  0  0  0  0  0  0  0  0  0  0  0
   -7.5509   24.7155  -31.7488 H   0  0  0  0  0  0  0  0  0  0  0  0
   -6.7909   23.3524  -32.6902 H   0  0  0  0  0  0  0  0  0  0  0  0
   -7.2716   22.0439  -30.4097 H   0  0  0  0  0  0  0  0  0  0  0  0
   -8.5924   23.3083  -30.3240 H   0  0  0  0  0  0  0  0  0  0  0  0
   -9.7798   21.7536  -31.4441 H   0  0  0  0  0  0  0  0  0  0  0  0
   -8.8908   22.4664  -32.8649 H   0  0  0  0  0  0  0  0  0  0  0  0
   -6.6536   21.3650  -33.5346 H   0  0  0  0  0  0  0  0  0  0  0  0
   -5.6278   19.1394  -34.0032 H   0  0  0  0  0  0  0  0  0  0  0  0
   -6.6011   17.0749  -32.9887 H   0  0  0  0  0  0  0  0  0  0  0  0
   -8.6140   17.2332  -31.5217 H   0  0  0  0  0  0  0  0  0  0  0  0
   -9.6508   19.4553  -31.0549 H   0  0  0  0  0  0  0  0  0  0  0  0
  1  2  1  0
  2  3  1  0
  3  4  2  0
  4  5  1  0
  5  6  1  0
  6  7  1  0
  7  8  1  0
  8  9  2  0
  9 10  1  0
 10 11  2  0
 11 12  1  0
 12 13  2  0
  4 14  1  0
 14 15  1  0
 15  2  2  0
 13  8  1  0
  1 16  1  0
  1 17  1  0
  1 18  1  0
  3 19  1  0
  5 20  1  0
  5 21  1  0
  6 22  1  0
  6 23  1  0
  7 24  1  0
  7 25  1  0
  9 26  1  0
 10 27  1  0
 11 28  1  0
 12 29  1  0
 13 30  1  0
M  END
>  <UniqueID>  (19) 
19

>  <SMILES>  (19) 
Cc1cc(CCCc2ccccc2)on1

>  <Energy>  (19) 
52.587895661986614

>  <Genealogy>  (19) 
Cc1cc(CCCc2ccccc2)on1 (3D coordinates assigned)
Cc1cc(CCCc2ccccc2)on1 (optimized conformer: 52.587895661986614 kcal/mol)

>  <smiles>  (19) 
Cc1cc(CCCc2ccccc2)on1

>  <score_type>  (19) 
oracle

>  <origin>  (19) 
adg

>  <m_score__min__energy>  (19) 
-7.7199999999999998

>  <m_primary>  (19) 
energy

$$$$
19:0
     RDKit          3D

 27 29  0  0  0  0  0  0  0  0999 V2000
   -5.6670   18.5630  -34.9680 C   0  0  0  0  0  0  0  0  0  0  0  0
   -6.3010   19.2320  -33.7860 C   0  0  0  0  0  0  0  0  0  0  0  0
   -7.3600   18.5930  -33.1000 C   0  0  0  0  0  0  0  0  0  0  0  0
   -7.9730   19.2500  -32.0180 C   0  0  0  0  0  0  0  0  0  0  0  0
   -9.0760   18.5990  -31.2370 C   0  0  0  0  0  0  0  0  0  0  0  0
   -7.5040   20.4790  -31.6770 N   0  0  0  0  0  0  0  0  0  0  0  0
   -7.9300   21.2560  -30.6870 N   0  0  0  0  0  0  0  0  0  0  0  0
   -7.1700   22.3720  -30.7480 C   0  0  0  0  0  0  0  0  0  0  0  0
   -7.2330   23.4890  -29.9180 C   0  0  0  0  0  0  0  0  0  0  0  0
   -6.3350   24.5450  -30.1700 C   0  0  0  0  0  0  0  0  0  0  0  0
   -5.4040   24.4630  -31.2320 C   0  0  0  0  0  0  0  0  0  0  0  0
   -5.3600   23.3230  -32.0580 C   0  0  0  0  0  0  0  0  0  0  0  0
   -6.2610   22.3000  -31.7820 C   0  0  0  0  0  0  0  0  0  0  0  0
   -6.5040   21.0750  -32.3500 C   0  0  0  0  0  0  0  0  0  0  0  0
   -5.8940   20.4830  -33.4070 N   0  0  0  0  0  0  0  0  0  0  0  0
   -4.9493   17.8057  -34.6194 H   0  0  0  0  0  0  0  0  0  0  0  0
   -6.4451   18.0784  -35.5760 H   0  0  0  0  0  0  0  0  0  0  0  0
   -5.1413   19.3140  -35.5760 H   0  0  0  0  0  0  0  0  0  0  0  0
   -7.7003   17.5937  -33.4091 H   0  0  0  0  0  0  0  0  0  0  0  0
   -8.8806   18.7143  -30.1607 H   0  0  0  0  0  0  0  0  0  0  0  0
  -10.0346   19.0761  -31.4888 H   0  0  0  0  0  0  0  0  0  0  0  0
   -9.1216   17.5292  -31.4888 H   0  0  0  0  0  0  0  0  0  0  0  0
   -7.9593   23.5447  -29.0937 H   0  0  0  0  0  0  0  0  0  0  0  0
   -6.3580   25.4425  -29.5344 H   0  0  0  0  0  0  0  0  0  0  0  0
   -4.7091   25.2960  -31.4141 H   0  0  0  0  0  0  0  0  0  0  0  0
   -4.6421   23.2449  -32.8878 H   0  0  0  0  0  0  0  0  0  0  0  0
   -5.1250   20.9740  -33.9160 H   0  0  0  0  0  0  0  0  0  0  0  0
  1  2  1  0
  2  3  1  0
  3  4  2  0
  4  5  1  0
  4  6  1  0
  6  7  1  0
  7  8  2  0
  8  9  1  0
  9 10  2  0
 10 11  1  0
 11 12  2  0
 12 13  1  0
 13 14  2  0
 14 15  1  0
 15  2  2  0
 14  6  1  0
 13  8  1  0
  1 16  1  0
  1 17  1  0
  1 18  1  0
  3 19  1  0
  5 20  1  0
  5 21  1  0
  5 22  1  0
  9 23  1  0
 10 24  1  0
 11 25  1  0
 12 26  1  0
 15 27  1  0
M  CHG  1  15   1
M  END
>  <UniqueID>  (20) 
20

>  <SMILES>  (20) 
Cc1cc(C)n2nc3ccccc3c2[nH+]1

>  <Energy>  (20) 
72.83571022676792

>  <Genealogy>  (20) 
Cc1cc(C)n2nc3ccccc3c2[nH+]1 (protonated)
Cc1cc(C)n2nc3ccccc3c2[nH+]1 (3D coordinates assigned)
Cc1cc(C)n2nc3ccccc3c2[nH+]1 (optimized conformer: 72.83571022676792 kcal/mol)

>  <smiles>  (20) 
Cc1cc(C)n2nc3ccccc3c2n1

>  <score_type>  (20) 
oracle

>  <origin>  (20) 
adg

>  <m_score__min__energy>  (20) 
-6.1399999999999997

>  <m_primary>  (20) 
energy

$$$$
20:0
     RDKit          3D

 39 42  0  0  0  0  0  0  0  0999 V2000
   -9.3340   19.2730  -32.5930 C   0  0  0  0  0  0  0  0  0  0  0  0
   -8.2250   20.1710  -32.2290 N   0  0  0  0  0  0  0  0  0  0  0  0
   -6.9650   19.6520  -32.0280 C   0  0  0  0  0  0  0  0  0  0  0  0
   -6.7270   18.4210  -32.1670 O   0  0  0  0  0  0  0  0  0  0  0  0
   -5.9500   20.5170  -31.6590 C   0  0  0  0  0  0  0  0  0  0  0  0
   -4.6490   20.2520  -31.4040 N   0  0  0  0  0  0  0  0  0  0  0  0
   -4.0870   21.4090  -31.0700 N   0  0  0  0  0  0  0  0  0  0  0  0
   -2.7950   21.6380  -30.7250 C   0  0  0  0  0  0  0  0  0  0  0  0
   -1.9610   20.6920  -30.6970 O   0  0  0  0  0  0  0  0  0  0  0  0
   -2.4140   22.9590  -30.4150 C   0  0  0  0  0  0  0  0  0  0  0  0
   -1.0170   23.2590  -30.0260 C   0  0  0  0  0  0  0  0  0  0  0  0
   -0.6100   23.3710  -28.7930 N   0  0  0  0  0  0  0  0  0  0  0  0
   -0.9120   24.4270  -27.8670 C   0  0  0  0  0  0  0  0  0  0  0  0
   -2.0650   24.3950  -27.0600 C   0  0  0  0  0  0  0  0  0  0  0  0
   -2.3290   25.4620  -26.2000 C   0  0  0  0  0  0  0  0  0  0  0  0
   -1.4660   26.5580  -26.1660 C   0  0  0  0  0  0  0  0  0  0  0  0
   -0.3490   26.5720  -27.0050 C   0  0  0  0  0  0  0  0  0  0  0  0
   -0.1050   25.5220  -27.8320 N   0  0  0  0  0  0  0  0  0  0  0  0
   -3.4130   23.9700  -30.4320 C   0  0  0  0  0  0  0  0  0  0  0  0
   -3.1050   25.2750  -30.0660 O   0  0  0  0  0  0  0  0  0  0  0  0
   -4.6960   23.6690  -30.7890 N   0  0  0  0  0  0  0  0  0  0  0  0
   -5.0040   22.3900  -31.1100 C   0  0  0  0  0  0  0  0  0  0  0  0
   -6.2130   21.8460  -31.4880 C   0  0  0  0  0  0  0  0  0  0  0  0
   -7.4530   22.3790  -31.6580 N   0  0  0  0  0  0  0  0  0  0  0  0
   -7.6770   23.8160  -31.4370 C   0  0  0  0  0  0  0  0  0  0  0  0
   -8.4720   21.5200  -32.0210 C   0  0  0  0  0  0  0  0  0  0  0  0
   -9.6460   21.9680  -32.1580 O   0  0  0  0  0  0  0  0  0  0  0  0
   -9.8093   18.8881  -31.6787 H   0  0  0  0  0  0  0  0  0  0  0  0
  -10.0757   19.8281  -33.1861 H   0  0  0  0  0  0  0  0  0  0  0  0
   -8.9453   18.4321  -33.1861 H   0  0  0  0  0  0  0  0  0  0  0  0
   -4.1660   19.3280  -31.4480 H   0  0  0  0  0  0  0  0  0  0  0  0
   -0.2765   23.3959  -30.8279 H   0  0  0  0  0  0  0  0  0  0  0  0
   -2.7516   23.5369  -27.1068 H   0  0  0  0  0  0  0  0  0  0  0  0
   -3.2161   25.4390  -25.5499 H   0  0  0  0  0  0  0  0  0  0  0  0
   -1.6628   27.4007  -25.4869 H   0  0  0  0  0  0  0  0  0  0  0  0
    0.3339   27.4343  -26.9960 H   0  0  0  0  0  0  0  0  0  0  0  0
   -7.7088   24.0202  -30.3566 H   0  0  0  0  0  0  0  0  0  0  0  0
   -6.8574   24.3895  -31.8946 H   0  0  0  0  0  0  0  0  0  0  0  0
   -8.6323   24.1128  -31.8946 H   0  0  0  0  0  0  0  0  0  0  0  0
  1  2  1  0
  2  3  1  0
  3  4  2  0
  3  5  1  0
  5  6  2  0
  6  7  1  0
  7  8  1  0
  8  9  2  0
  8 10  1  0
 10 11  1  0
 11 12  2  3
 12 13  1  0
 13 14  2  0
 14 15  1  0
 15 16  2  0
 16 17  1  0
 17 18  2  0
 10 19  2  0
 19 20  1  0
 19 21  1  0
 21 22  1  0
 22 23  2  0
 23 24  1  0
 24 25  1  0
 24 26  1  0
 26 27  2  0
 26  2  1  0
 23  5  1  0
 22  7  1  0
 18 13  1  0
  1 28  1  0
  1 29  1  0
  1 30  1  0
  6 31  1  0
 11 32  1  0
 14 33  1  0
 15 34  1  0
 16 35  1  0
 17 36  1  0
 25 37  1  0
 25 38  1  0
 25 39  1  0
M  CHG  3   6   1  20  -1  21  -1
M  END
>  <UniqueID>  (21) 
21

>  <SMILES>  (21) 
Cn1c(=O)c2[nH+]n3c(=O)c(C=Nc4ccccn4)c([O-])[n-]c3c2n(C)c1=O

>  <Energy>  (21) 
114.93105676568312

>  <Genealogy>  (21) 
Cn1c(=O)c2[nH+]n3c(=O)c(C=Nc4ccccn4)c([O-])[n-]c3c2n(C)c1=O (protonated)
Cn1c(=O)c2[nH+]n3c(=O)c(C=Nc4ccccn4)c([O-])[n-]c3c2n(C)c1=O (3D coordinates assigned)
Cn1c(=O)c2[nH+]n3c(=O)c(C=Nc4ccccn4)c([O-])[n-]c3c2n(C)c1=O (optimized conformer: 114.93105676568312 kcal/mol)

>  <smiles>  (21) 
Cn1c(=O)c2nn3c(=O)c(C=Nc4ccccn4)c(O)[nH]c3c2n(C)c1=O

>  <score_type>  (21) 
oracle

>  <origin>  (21) 
adg

>  <m_score__min__energy>  (21) 
-10.890000000000001

>  <m_primary>  (21) 
energy

$$$$
21:0
     RDKit          3D

 37 39  0  0  0  0  0  0  0  0999 V2000
   -9.1250   23.4110  -32.3420 C   0  0  0  0  0  0  0  0  0  0  0  0
   -8.1760   22.9600  -31.2370 C   0  0  0  0  0  0  0  0  0  0  0  0
   -7.3860   21.8050  -31.6780 N   0  0  0  0  0  0  0  0  0  0  0  0
   -6.0560   21.5670  -31.4920 C   0  0  0  0  0  0  0  0  0  0  0  0
   -5.0870   22.5220  -30.9140 C   0  0  0  0  0  0  0  0  0  0  0  0
   -5.3160   23.9050  -30.9870 C   0  0  0  0  0  0  0  0  0  0  0  0
   -4.3880   24.8040  -30.4550 C   0  0  0  0  0  0  0  0  0  0  0  0
   -3.2130   24.3410  -29.8520 C   0  0  0  0  0  0  0  0  0  0  0  0
   -2.3140   25.2850  -29.3320 O   0  0  0  0  0  0  0  0  0  0  0  0
   -1.6310   25.1440  -28.0910 C   0  0  0  0  0  0  0  0  0  0  0  0
   -2.9720   22.9560  -29.7930 C   0  0  0  0  0  0  0  0  0  0  0  0
   -3.9010   22.0560  -30.3250 C   0  0  0  0  0  0  0  0  0  0  0  0
   -5.7520   20.2400  -31.8080 C   0  0  0  0  0  0  0  0  0  0  0  0
   -6.9410   19.7060  -32.2460 C   0  0  0  0  0  0  0  0  0  0  0  0
   -7.8830   20.6490  -32.1590 C   0  0  0  0  0  0  0  0  0  0  0  0
   -9.2550   20.1010  -32.1300 C   0  0  0  0  0  0  0  0  0  0  0  0
   -9.0120   18.5890  -32.3860 C   0  0  0  0  0  0  0  0  0  0  0  0
   -7.4830   18.3380  -32.3140 C   0  0  0  0  0  0  0  0  0  0  0  0
  -10.0320   23.8420  -31.8931 H   0  0  0  0  0  0  0  0  0  0  0  0
   -8.6283   24.1694  -32.9650 H   0  0  0  0  0  0  0  0  0  0  0  0
   -9.3993   22.5470  -32.9650 H   0  0  0  0  0  0  0  0  0  0  0  0
   -7.4970   23.7873  -30.9829 H   0  0  0  0  0  0  0  0  0  0  0  0
   -8.7676   22.6709  -30.3559 H   0  0  0  0  0  0  0  0  0  0  0  0
   -6.2313   24.2832  -31.4658 H   0  0  0  0  0  0  0  0  0  0  0  0
   -4.5827   25.8852  -30.5106 H   0  0  0  0  0  0  0  0  0  0  0  0
   -2.3405   25.2905  -27.2633 H   0  0  0  0  0  0  0  0  0  0  0  0
   -1.1939   24.1367  -28.0254 H   0  0  0  0  0  0  0  0  0  0  0  0
   -0.8308   25.8959  -28.0254 H   0  0  0  0  0  0  0  0  0  0  0  0
   -2.0495   22.5797  -29.3267 H   0  0  0  0  0  0  0  0  0  0  0  0
   -3.7009   20.9752  -30.2816 H   0  0  0  0  0  0  0  0  0  0  0  0
   -4.7783   19.7351  -31.7248 H   0  0  0  0  0  0  0  0  0  0  0  0
   -9.7303   20.2683  -31.1522 H   0  0  0  0  0  0  0  0  0  0  0  0
   -9.9319   20.5685  -32.8603 H   0  0  0  0  0  0  0  0  0  0  0  0
   -9.5262   17.9918  -31.6186 H   0  0  0  0  0  0  0  0  0  0  0  0
   -9.4042   18.2973  -33.3714 H   0  0  0  0  0  0  0  0  0  0  0  0
   -7.2165   17.7593  -31.4173 H   0  0  0  0  0  0  0  0  0  0  0  0
   -7.0934   17.7523  -33.1597 H   0  0  0  0  0  0  0  0  0  0  0  0
  1  2  1  0
  2  3  1  0
  3  4  1  0
  4  5  1  0
  5  6  2  0
  6  7  1  0
  7  8  2  0
  8  9  1  0
  9 10  1  0
  8 11  1  0
 11 12  2  0
  4 13  2  0
 13 14  1  0
 14 15  2  0
 15 16  1  0
 16 17  1  0
 17 18  1  0
 15  3  1  0
 12  5  1  0
 18 14  1  0
  1 19  1  0
  1 20  1  0
  1 21  1  0
  2 22  1  0
  2 23  1  0
  6 24  1  0
  7 25  1  0
 10 26  1  0
 10 27  1  0
 10 28  1  0
 11 29  1  0
 12 30  1  0
 13 31  1  0
 16 32  1  0
 16 33  1  0
 17 34  1  0
 17 35  1  0
 18 36  1  0
 18 37  1  0
M  END
>  <UniqueID>  (22) 
22

>  <SMILES>  (22) 
CCn1c(-c2ccc(OC)cc2)cc2c1CCC2

>  <Energy>  (22) 
86.53804078313613

>  <Genealogy>  (22) 
CCn1c(-c2ccc(OC)cc2)cc2c1CCC2 (3D coordinates assigned)
CCn1c(-c2ccc(OC)cc2)cc2c1CCC2 (nonaromatic ring conformer: 86.53804078313613 kcal/mol)

>  <smiles>  (22) 
CCn1c(-c2ccc(OC)cc2)cc2c1CCC2

>  <score_type>  (22) 
oracle

>  <origin>  (22) 
adg

>  <m_score__min__energy>  (22) 
-7.6699999999999999

>  <m_primary>  (22) 
energy

$$$$
22:0
     RDKit          3D

 42 45  0  0  0  0  0  0  0  0999 V2000
   -4.0210   19.7900  -34.2020 O   0  0  0  0  0  0  0  0  0  0  0  0
   -4.8170   20.4070  -33.4400 C   0  0  0  0  0  0  0  0  0  0  0  0
   -6.0180   19.7080  -32.9220 C   0  0  0  0  0  0  0  0  0  0  0  0
   -6.1800   18.3230  -33.0940 C   0  0  0  0  0  0  0  0  0  0  0  0
   -7.3020   17.6720  -32.5750 C   0  0  0  0  0  0  0  0  0  0  0  0
   -8.2750   18.3910  -31.8800 C   0  0  0  0  0  0  0  0  0  0  0  0
   -8.1350   19.7750  -31.7030 C   0  0  0  0  0  0  0  0  0  0  0  0
   -9.1130   20.5070  -31.0150 C   0  0  0  0  0  0  0  0  0  0  0  0
   -8.9730   21.8870  -30.8550 C   0  0  0  0  0  0  0  0  0  0  0  0
   -7.8590   22.5470  -31.3780 C   0  0  0  0  0  0  0  0  0  0  0  0
   -6.8640   21.8300  -32.0650 C   0  0  0  0  0  0  0  0  0  0  0  0
   -7.0000   20.4390  -32.2280 C   0  0  0  0  0  0  0  0  0  0  0  0
   -5.6730   22.5170  -32.6180 C   0  0  0  0  0  0  0  0  0  0  0  0
   -5.6510   23.7790  -32.6700 O   0  0  0  0  0  0  0  0  0  0  0  0
   -4.5140   21.7730  -33.0590 N   0  0  0  0  0  0  0  0  0  0  0  0
   -3.4110   21.8260  -32.0670 C   0  0  0  0  0  0  0  0  0  0  0  0
   -3.8450   22.2510  -30.6290 C   0  0  0  0  0  0  0  0  0  0  0  0
   -3.5840   23.7490  -30.3600 C   0  0  0  0  0  0  0  0  0  0  0  0
   -4.1780   24.1910  -29.0070 C   0  0  0  0  0  0  0  0  0  0  0  0
   -4.2390   23.0560  -27.9650 C   0  0  0  0  0  0  0  0  0  0  0  0
   -3.0980   22.0520  -28.1560 C   0  0  0  0  0  0  0  0  0  0  0  0
   -3.1230   21.3970  -29.5550 C   0  0  0  0  0  0  0  0  0  0  0  0
   -5.4186   17.7475  -33.6408 H   0  0  0  0  0  0  0  0  0  0  0  0
   -7.4188   16.5872  -32.7150 H   0  0  0  0  0  0  0  0  0  0  0  0
   -9.1536   17.8712  -31.4702 H   0  0  0  0  0  0  0  0  0  0  0  0
   -9.9926   19.9930  -30.6003 H   0  0  0  0  0  0  0  0  0  0  0  0
   -9.7434   22.4567  -30.3147 H   0  0  0  0  0  0  0  0  0  0  0  0
   -7.7594   23.6352  -31.2515 H   0  0  0  0  0  0  0  0  0  0  0  0
   -4.1670   22.2500  -33.9260 H   0  0  0  0  0  0  0  0  0  0  0  0
   -2.9570   20.8259  -32.0061 H   0  0  0  0  0  0  0  0  0  0  0  0
   -2.7124   22.5984  -32.4210 H   0  0  0  0  0  0  0  0  0  0  0  0
   -4.9291   22.0763  -30.5645 H   0  0  0  0  0  0  0  0  0  0  0  0
   -2.4985   23.9266  -30.3491 H   0  0  0  0  0  0  0  0  0  0  0  0
   -4.0678   24.3327  -31.1571 H   0  0  0  0  0  0  0  0  0  0  0  0
   -3.5565   25.0032  -28.6020 H   0  0  0  0  0  0  0  0  0  0  0  0
   -5.2123   24.5139  -29.1964 H   0  0  0  0  0  0  0  0  0  0  0  0
   -4.1657   23.4920  -26.9578 H   0  0  0  0  0  0  0  0  0  0  0  0
   -5.1919   22.5219  -28.0940 H   0  0  0  0  0  0  0  0  0  0  0  0
   -2.1397   22.5767  -28.0279 H   0  0  0  0  0  0  0  0  0  0  0  0
   -3.2219   21.2547  -27.4083 H   0  0  0  0  0  0  0  0  0  0  0  0
   -2.0851   21.2338  -29.8809 H   0  0  0  0  0  0  0  0  0  0  0  0
   -3.6854   20.4564  -29.4601 H   0  0  0  0  0  0  0  0  0  0  0  0
  1  2  2  0
  2  3  1  0
  3  4  1  0
  4  5  2  0
  5  6  1  0
  6  7  2  0
  7  8  1  0
  8  9  2  0
  9 10  1  0
 10 11  2  0
 11 12  1  0
 11 13  1  0
 13 14  2  0
 13 15  1  0
 15 16  1  0
 16 17  1  0
 17 18  1  0
 18 19  1  0
 19 20  1  0
 20 21  1  0
 21 22  1  0
 15  2  1  0
 22 17  1  0
 12  3  2  0
 12  7  1  0
  4 23  1  0
  5 24  1  0
  6 25  1  0
  8 26  1  0
  9 27  1  0
 10 28  1  0
 15 29  1  0
 16 30  1  0
 16 31  1  0
 17 32  1  0
 18 33  1  0
 18 34  1  0
 19 35  1  0
 19 36  1  0
 20 37  1  0
 20 38  1  0
 21 39  1  0
 21 40  1  0
 22 41  1  0
 22 42  1  0
M  CHG  1  15   1
M  END
>  <UniqueID>  (23) 
23

>  <SMILES>  (23) 
O=C1c2cccc3cccc(c23)C(=O)[NH+]1CC1CCCCC1

>  <Energy>  (23) 
60.25409569826135

>  <Genealogy>  (23) 
O=C1c2cccc3cccc(c23)C(=O)[NH+]1CC1CCCCC1 (protonated)
O=C1c2cccc3cccc(c23)C(=O)[NH+]1CC1CCCCC1 (3D coordinates assigned)
O=C1c2cccc3cccc(c23)C(=O)[NH+]1CC1CCCCC1 (nonaromatic ring conformer: 60.25409569826135 kcal/mol)

>  <smiles>  (23) 
O=C1c2cccc3cccc(c23)C(=O)N1CC1CCCCC1

>  <score_type>  (23) 
oracle

>  <origin>  (23) 
adg

>  <m_score__min__energy>  (23) 
-8.3499999999999996

>  <m_primary>  (23) 
energy

$$$$
23:0
     RDKit          3D

 52 55  0  0  0  0  0  0  0  0999 V2000
   -1.6040   20.5080  -29.4540 C   0  0  0  0  0  0  0  0  0  0  0  0
   -2.6370   20.4650  -30.4320 O   0  0  0  0  0  0  0  0  0  0  0  0
   -3.3900   21.5740  -30.8480 C   0  0  0  0  0  0  0  0  0  0  0  0
   -3.0740   22.8840  -30.4370 C   0  0  0  0  0  0  0  0  0  0  0  0
   -3.8640   23.9630  -30.8430 C   0  0  0  0  0  0  0  0  0  0  0  0
   -3.5440   25.2520  -30.4310 O   0  0  0  0  0  0  0  0  0  0  0  0
   -4.9760   23.7490  -31.6590 C   0  0  0  0  0  0  0  0  0  0  0  0
   -5.2960   22.4570  -32.0800 C   0  0  0  0  0  0  0  0  0  0  0  0
   -4.5000   21.3670  -31.6940 C   0  0  0  0  0  0  0  0  0  0  0  0
   -4.8520   20.0100  -32.1720 C   0  0  0  0  0  0  0  0  0  0  0  0
   -3.8490   19.1580  -32.5300 N   0  0  0  0  0  0  0  0  0  0  0  0
   -4.0910   17.9470  -33.0510 N   0  0  0  0  0  0  0  0  0  0  0  0
   -2.9480   17.1370  -33.5090 C   0  0  0  0  0  0  0  0  0  0  0  0
   -2.1300   17.8900  -34.5670 C   0  0  0  0  0  0  0  0  0  0  0  0
   -1.3140   18.9980  -33.9550 C   0  0  0  0  0  0  0  0  0  0  0  0
   -1.5480   20.3340  -34.3190 C   0  0  0  0  0  0  0  0  0  0  0  0
   -0.8300   21.3670  -33.7080 C   0  0  0  0  0  0  0  0  0  0  0  0
    0.1180   21.0740  -32.7240 C   0  0  0  0  0  0  0  0  0  0  0  0
    0.3500   19.7480  -32.3480 C   0  0  0  0  0  0  0  0  0  0  0  0
   -0.3630   18.7130  -32.9580 C   0  0  0  0  0  0  0  0  0  0  0  0
   -5.3800   17.5150  -33.2270 C   0  0  0  0  0  0  0  0  0  0  0  0
   -5.6240   16.3840  -33.7310 O   0  0  0  0  0  0  0  0  0  0  0  0
   -6.4420   18.3330  -32.8550 C   0  0  0  0  0  0  0  0  0  0  0  0
   -6.1930   19.5950  -32.3150 C   0  0  0  0  0  0  0  0  0  0  0  0
   -7.3380   20.4440  -31.9020 C   0  0  0  0  0  0  0  0  0  0  0  0
   -7.2960   21.1660  -30.6960 C   0  0  0  0  0  0  0  0  0  0  0  0
   -8.3700   21.9810  -30.3250 C   0  0  0  0  0  0  0  0  0  0  0  0
   -9.4950   22.0740  -31.1470 C   0  0  0  0  0  0  0  0  0  0  0  0
   -9.5510   21.3500  -32.3410 C   0  0  0  0  0  0  0  0  0  0  0  0
   -8.4800   20.5330  -32.7160 C   0  0  0  0  0  0  0  0  0  0  0  0
   -2.0499   20.4894  -28.4486 H   0  0  0  0  0  0  0  0  0  0  0  0
   -0.9445   19.6365  -29.5787 H   0  0  0  0  0  0  0  0  0  0  0  0
   -1.0192   21.4313  -29.5787 H   0  0  0  0  0  0  0  0  0  0  0  0
   -2.1999   23.0587  -29.7924 H   0  0  0  0  0  0  0  0  0  0  0  0
   -5.6007   24.5991  -31.9706 H   0  0  0  0  0  0  0  0  0  0  0  0
   -6.1769   22.2921  -32.7178 H   0  0  0  0  0  0  0  0  0  0  0  0
   -2.8590   19.4830  -32.4270 H   0  0  0  0  0  0  0  0  0  0  0  0
   -2.3010   16.9089  -32.6491 H   0  0  0  0  0  0  0  0  0  0  0  0
   -3.3329   16.2095  -33.9579 H   0  0  0  0  0  0  0  0  0  0  0  0
   -1.4521   17.1810  -35.0647 H   0  0  0  0  0  0  0  0  0  0  0  0
   -2.8303   18.3375  -35.2876 H   0  0  0  0  0  0  0  0  0  0  0  0
   -2.2990   20.5689  -35.0877 H   0  0  0  0  0  0  0  0  0  0  0  0
   -1.0117   22.4112  -34.0023 H   0  0  0  0  0  0  0  0  0  0  0  0
    0.6822   21.8877  -32.2449 H   0  0  0  0  0  0  0  0  0  0  0  0
    1.0945   19.5192  -31.5712 H   0  0  0  0  0  0  0  0  0  0  0  0
   -0.1801   17.6708  -32.6575 H   0  0  0  0  0  0  0  0  0  0  0  0
   -7.4772   17.9850  -32.9865 H   0  0  0  0  0  0  0  0  0  0  0  0
   -6.4149   21.0894  -30.0420 H   0  0  0  0  0  0  0  0  0  0  0  0
   -8.3286   22.5497  -29.3843 H   0  0  0  0  0  0  0  0  0  0  0  0
  -10.3377   22.7176  -30.8545 H   0  0  0  0  0  0  0  0  0  0  0  0
  -10.4386   21.4229  -32.9866 H   0  0  0  0  0  0  0  0  0  0  0  0
   -8.5316   19.9576  -33.6521 H   0  0  0  0  0  0  0  0  0  0  0  0
  1  2  1  0
  2  3  1  0
  3  4  2  0
  4  5  1  0
  5  6  1  0
  5  7  2  0
  7  8  1  0
  8  9  2  0
  9 10  1  0
 10 11  2  0
 11 12  1  0
 12 13  1  0
 13 14  1  0
 14 15  1  0
 15 16  2  0
 16 17  1  0
 17 18  2  0
 18 19  1  0
 19 20  2  0
 12 21  1  0
 21 22  2  0
 21 23  1  0
 23 24  2  0
 24 25  1  0
 25 26  2  0
 26 27  1  0
 27 28  2  0
 28 29  1  0
 29 30  2  0
  9  3  1  0
 24 10  1  0
 30 25  1  0
 20 15  1  0
  1 31  1  0
  1 32  1  0
  1 33  1  0
  4 34  1  0
  7 35  1  0
  8 36  1  0
 11 37  1  0
 13 38  1  0
 13 39  1  0
 14 40  1  0
 14 41  1  0
 16 42  1  0
 17 43  1  0
 18 44  1  0
 19 45  1  0
 20 46  1  0
 23 47  1  0
 26 48  1  0
 27 49  1  0
 28 50  1  0
 29 51  1  0
 30 52  1  0
M  CHG  2   6  -1  11   1
M  END
>  <UniqueID>  (24) 
24

>  <SMILES>  (24) 
COc1cc([O-])ccc1-c1[nH+]n(CCc2ccccc2)c(=O)cc1-c1ccccc1

>  <Energy>  (24) 
65.91820562368038

>  <Genealogy>  (24) 
COc1cc([O-])ccc1-c1[nH+]n(CCc2ccccc2)c(=O)cc1-c1ccccc1 (protonated)
COc1cc([O-])ccc1-c1[nH+]n(CCc2ccccc2)c(=O)cc1-c1ccccc1 (3D coordinates assigned)
COc1cc([O-])ccc1-c1[nH+]n(CCc2ccccc2)c(=O)cc1-c1ccccc1 (optimized conformer: 65.91820562368038 kcal/mol)

>  <smiles>  (24) 
COc1cc(O)ccc1-c1nn(CCc2ccccc2)c(=O)cc1-c1ccccc1

>  <score_type>  (24) 
oracle

>  <origin>  (24) 
adg

>  <m_score__min__energy>  (24) 
-10.359999999999999

>  <m_primary>  (24) 
energy

$$$$
24:0
     RDKit          3D

 32 34  0  0  0  0  0  0  0  0999 V2000
   -5.5510   19.5360  -33.7240 C   0  0  0  0  0  0  0  0  0  0  0  0
   -6.1210   20.6220  -32.8680 C   0  0  0  0  0  0  0  0  0  0  0  0
   -7.5010   20.7150  -32.6670 C   0  0  0  0  0  0  0  0  0  0  0  0
   -7.9890   21.7380  -31.8490 C   0  0  0  0  0  0  0  0  0  0  0  0
   -9.4560   21.8680  -31.5930 C   0  0  0  0  0  0  0  0  0  0  0  0
   -7.1190   22.6020  -31.2630 N   0  0  0  0  0  0  0  0  0  0  0  0
   -5.7780   22.5030  -31.4680 C   0  0  0  0  0  0  0  0  0  0  0  0
   -4.8680   23.4510  -30.7980 C   0  0  0  0  0  0  0  0  0  0  0  0
   -4.7040   24.7210  -31.2170 N   0  0  0  0  0  0  0  0  0  0  0  0
   -3.8710   25.2960  -30.3980 O   0  0  0  0  0  0  0  0  0  0  0  0
   -3.4800   24.4720  -29.4540 C   0  0  0  0  0  0  0  0  0  0  0  0
   -2.5630   24.8690  -28.3730 C   0  0  0  0  0  0  0  0  0  0  0  0
   -2.7060   24.6240  -27.0100 C   0  0  0  0  0  0  0  0  0  0  0  0
   -1.6890   25.1950  -26.2360 C   0  0  0  0  0  0  0  0  0  0  0  0
   -0.7530   25.9040  -26.9770 C   0  0  0  0  0  0  0  0  0  0  0  0
   -1.1970   25.8240  -28.5960 S   0  0  0  0  0  0  0  0  0  0  0  0
   -4.0780   23.2380  -29.6760 C   0  0  0  0  0  0  0  0  0  0  0  0
   -3.8730   21.9610  -28.9150 C   0  0  0  0  0  0  0  0  0  0  0  0
   -5.2920   21.5110  -32.2600 N   0  0  0  0  0  0  0  0  0  0  0  0
   -5.1354   18.7442  -33.0834 H   0  0  0  0  0  0  0  0  0  0  0  0
   -6.3444   19.1151  -34.3591 H   0  0  0  0  0  0  0  0  0  0  0  0
   -4.7539   19.9499  -34.3591 H   0  0  0  0  0  0  0  0  0  0  0  0
   -8.1878   19.9990  -33.1420 H   0  0  0  0  0  0  0  0  0  0  0  0
   -9.6389   21.8842  -30.5084 H   0  0  0  0  0  0  0  0  0  0  0  0
   -9.8250   22.8024  -32.0411 H   0  0  0  0  0  0  0  0  0  0  0  0
   -9.9836   21.0131  -32.0411 H   0  0  0  0  0  0  0  0  0  0  0  0
   -3.5352   24.0401  -26.5839 H   0  0  0  0  0  0  0  0  0  0  0  0
   -1.6362   25.0916  -25.1421 H   0  0  0  0  0  0  0  0  0  0  0  0
    0.1267   26.4274  -26.5742 H   0  0  0  0  0  0  0  0  0  0  0  0
   -3.9063   22.1683  -27.8352 H   0  0  0  0  0  0  0  0  0  0  0  0
   -4.6680   21.2470  -29.1760 H   0  0  0  0  0  0  0  0  0  0  0  0
   -2.8944   21.5317  -29.1760 H   0  0  0  0  0  0  0  0  0  0  0  0
  1  2  1  0
  2  3  2  0
  3  4  1  0
  4  5  1  0
  4  6  2  0
  6  7  1  0
  7  8  1  0
  8  9  2  0
  9 10  1  0
 10 11  1  0
 11 12  1  0
 12 13  2  0
 13 14  1  0
 14 15  2  0
 15 16  1  0
 11 17  2  0
 17 18  1  0
  7 19  2  0
 19  2  1  0
 17  8  1  0
 16 12  1  0
  1 20  1  0
  1 21  1  0
  1 22  1  0
  3 23  1  0
  5 24  1  0
  5 25  1  0
  5 26  1  0
 13 27  1  0
 14 28  1  0
 15 29  1  0
 18 30  1  0
 18 31  1  0
 18 32  1  0
M  END
>  <UniqueID>  (25) 
25

>  <SMILES>  (25) 
Cc1cc(C)nc(-c2noc(-c3cccs3)c2C)n1

>  <Energy>  (25) 
91.59325581196124

>  <Genealogy>  (25) 
Cc1cc(C)nc(-c2noc(-c3cccs3)c2C)n1 (3D coordinates assigned)
Cc1cc(C)nc(-c2noc(-c3cccs3)c2C)n1 (optimized conformer: 91.59325581196124 kcal/mol)

>  <smiles>  (25) 
Cc1cc(C)nc(-c2noc(-c3cccs3)c2C)n1

>  <score_type>  (25) 
oracle

>  <origin>  (25) 
adg

>  <m_score__min__energy>  (25) 
-8.4100000000000001

>  <m_primary>  (25) 
energy

$$$$
25:0
     RDKit          3D

 50 52  0  0  1  0  0  0  0  0999 V2000
   -1.4050   26.0780  -26.5170 C   0  0  0  0  0  0  0  0  0  0  0  0
   -0.8230   26.4080  -27.8720 C   0  0  0  0  0  0  0  0  0  0  0  0
   -1.5800   25.8220  -28.8870 O   0  0  0  0  0  0  0  0  0  0  0  0
   -2.3880   24.8640  -28.2790 C   0  0  0  0  0  0  0  0  0  0  0  0
   -2.7190   23.7840  -29.1880 N   0  0  0  0  0  0  0  0  0  0  0  0
   -2.3070   22.5180  -28.9740 C   0  0  0  0  0  0  0  0  0  0  0  0
   -2.6310   21.5000  -29.8480 C   0  0  0  0  0  0  0  0  0  0  0  0
   -3.3990   21.7420  -30.9920 C   0  0  0  0  0  0  0  0  0  0  0  0
   -3.7460   20.6750  -31.9220 C   0  0  0  0  0  0  0  0  0  0  0  0
   -2.8820   20.4080  -32.9190 N   0  0  0  0  0  0  0  0  0  0  0  0
   -3.1100   19.4420  -33.8300 C   0  0  0  0  0  0  0  0  0  0  0  0
   -4.2560   18.6800  -33.7730 C   0  0  0  0  0  0  0  0  0  0  0  0
   -4.5560   17.7100  -34.6320 F   0  0  0  0  0  0  0  0  0  0  0  0
   -5.1390   18.9550  -32.7510 C   0  0  0  0  0  0  0  0  0  0  0  0
   -6.2340   18.2960  -32.6180 N   0  0  0  0  0  0  0  0  0  0  0  0
   -7.5280   18.8460  -32.7960 C   0  0  0  0  0  0  0  0  0  0  0  0
   -7.8180   20.0620  -31.9810 C   0  0  0  0  0  0  0  0  0  0  0  0
   -7.2150   21.2640  -32.7240 C   0  0  0  0  0  0  0  0  0  0  0  0
   -7.5380   22.5410  -32.0110 C   0  0  0  0  0  0  0  0  0  0  0  0
   -8.3440   22.3740  -30.8470 N   0  0  0  0  0  0  0  0  0  0  0  0
   -9.4880   21.5430  -31.0020 C   0  0  0  0  0  0  0  0  0  0  0  0
   -9.3060   20.3710  -31.9370 C   0  0  0  0  0  0  0  0  0  0  0  0
   -4.8570   19.9450  -31.8550 N   0  0  0  0  0  0  0  0  0  0  0  0
   -3.7980   23.0500  -31.1710 C   0  0  0  0  0  0  0  0  0  0  0  0
   -3.4590   24.0440  -30.2800 C   0  0  0  0  0  0  0  0  0  0  0  0
   -3.8480   25.2170  -30.4900 O   0  0  0  0  0  0  0  0  0  0  0  0
   -0.7373   26.4566  -25.7291 H   0  0  0  0  0  0  0  0  0  0  0  0
   -2.3937   26.5499  -26.4178 H   0  0  0  0  0  0  0  0  0  0  0  0
   -1.5077   24.9873  -26.4178 H   0  0  0  0  0  0  0  0  0  0  0  0
   -0.8193   27.4996  -28.0079 H   0  0  0  0  0  0  0  0  0  0  0  0
    0.2032   26.0151  -27.9227 H   0  0  0  0  0  0  0  0  0  0  0  0
   -1.8557   24.4482  -27.4108 H   0  0  0  0  0  0  0  0  0  0  0  0
   -3.3248   25.3518  -27.9717 H   0  0  0  0  0  0  0  0  0  0  0  0
   -1.7003   22.2919  -28.0847 H   0  0  0  0  0  0  0  0  0  0  0  0
   -2.2785   20.4788  -29.6410 H   0  0  0  0  0  0  0  0  0  0  0  0
   -2.3739   19.2601  -34.6269 H   0  0  0  0  0  0  0  0  0  0  0  0
   -7.6418   19.1122  -33.8572 H   0  0  0  0  0  0  0  0  0  0  0  0
   -8.2368   18.0755  -32.4584 H   0  0  0  0  0  0  0  0  0  0  0  0
   -7.4219   19.8894  -30.9694 H   0  0  0  0  0  0  0  0  0  0  0  0
   -6.1226   21.1456  -32.7764 H   0  0  0  0  0  0  0  0  0  0  0  0
   -7.6424   21.3055  -33.7367 H   0  0  0  0  0  0  0  0  0  0  0  0
   -6.5928   23.0166  -31.7105 H   0  0  0  0  0  0  0  0  0  0  0  0
   -8.1208   23.1556  -32.7129 H   0  0  0  0  0  0  0  0  0  0  0  0
   -7.8640   22.3510  -29.9440 H   0  0  0  0  0  0  0  0  0  0  0  0
   -9.7603   21.1497  -30.0115 H   0  0  0  0  0  0  0  0  0  0  0  0
  -10.2677   22.1755  -31.4515 H   0  0  0  0  0  0  0  0  0  0  0  0
   -9.8616   19.4990  -31.5618 H   0  0  0  0  0  0  0  0  0  0  0  0
   -9.6868   20.6082  -32.9414 H   0  0  0  0  0  0  0  0  0  0  0  0
   -5.5360   20.1220  -31.1090 H   0  0  0  0  0  0  0  0  0  0  0  0
   -4.4051   23.3070  -32.0516 H   0  0  0  0  0  0  0  0  0  0  0  0
  1  2  1  0
  2  3  1  0
  3  4  1  0
  4  5  1  0
  5  6  1  0
  6  7  2  0
  7  8  1  0
  8  9  1  0
  9 10  2  0
 10 11  1  0
 11 12  2  0
 12 13  1  0
 12 14  1  0
 14 15  2  0
 15 16  1  0
 16 17  1  0
 17 18  1  0
 18 19  1  0
 19 20  1  0
 20 21  1  0
 21 22  1  0
 14 23  1  0
  8 24  2  0
 24 25  1  0
 25 26  2  0
 25  5  1  0
 23  9  1  0
 22 17  1  0
  1 27  1  0
  1 28  1  0
  1 29  1  0
  2 30  1  0
  2 31  1  0
  4 32  1  0
  4 33  1  0
  6 34  1  0
  7 35  1  0
 11 36  1  0
 16 37  1  0
 16 38  1  0
 17 39  1  0
 18 40  1  0
 18 41  1  0
 19 42  1  0
 19 43  1  0
 20 44  1  0
 21 45  1  0
 21 46  1  0
 22 47  1  0
 22 48  1  0
 23 49  1  0
 24 50  1  0
M  END
>  <smiles>  (26) 
CCOCn1ccc(-c2ncc(F)c(=NCC3CCNCC3)[nH]2)cc1=O

>  <score_type>  (26) 
oracle

>  <origin>  (26) 
adg

>  <m_score__min__energy>  (26) 
-8.4900000000000002

>  <m_primary>  (26) 
energy

$$$$
26:0
     RDKit          3D

 43 44  0  0  0  0  0  0  0  0999 V2000
   -9.0520   20.0600  -31.6600 C   0  0  0  0  0  0  0  0  0  0  0  0
   -8.5480   21.1730  -31.1210 C   0  0  0  0  0  0  0  0  0  0  0  0
   -7.9780   22.2750  -31.9730 C   0  0  0  0  0  0  0  0  0  0  0  0
   -6.5000   22.2670  -31.9290 N   0  0  0  0  0  0  0  0  0  0  0  0
   -5.8900   23.2720  -31.2290 C   0  0  0  0  0  0  0  0  0  0  0  0
   -4.4990   23.3590  -31.1360 C   0  0  0  0  0  0  0  0  0  0  0  0
   -3.8800   24.4580  -30.3650 C   0  0  0  0  0  0  0  0  0  0  0  0
   -3.8760   25.6220  -30.8480 O   0  0  0  0  0  0  0  0  0  0  0  0
   -3.3040   24.2460  -29.0700 N   0  0  0  0  0  0  0  0  0  0  0  0
   -2.0120   23.6120  -28.8320 C   0  0  0  0  0  0  0  0  0  0  0  0
   -0.9620   24.6730  -28.5140 C   0  0  0  0  0  0  0  0  0  0  0  0
   -1.2380   25.8630  -29.2020 O   0  0  0  0  0  0  0  0  0  0  0  0
   -3.7120   22.3740  -31.7440 C   0  0  0  0  0  0  0  0  0  0  0  0
   -2.4550   22.4370  -31.6580 O   0  0  0  0  0  0  0  0  0  0  0  0
   -4.3280   21.3260  -32.4520 C   0  0  0  0  0  0  0  0  0  0  0  0
   -3.5540   20.3270  -33.0710 C   0  0  0  0  0  0  0  0  0  0  0  0
   -4.1610   19.2750  -33.7730 C   0  0  0  0  0  0  0  0  0  0  0  0
   -3.4130   18.2640  -34.4000 O   0  0  0  0  0  0  0  0  0  0  0  0
   -2.3630   17.5310  -33.7780 C   0  0  0  0  0  0  0  0  0  0  0  0
   -5.5550   19.2160  -33.8600 C   0  0  0  0  0  0  0  0  0  0  0  0
   -6.1290   18.1450  -34.5670 O   0  0  0  0  0  0  0  0  0  0  0  0
   -6.4040   16.8620  -34.0140 C   0  0  0  0  0  0  0  0  0  0  0  0
   -6.3380   20.2110  -33.2480 C   0  0  0  0  0  0  0  0  0  0  0  0
   -5.7440   21.2810  -32.5390 C   0  0  0  0  0  0  0  0  0  0  0  0
   -9.4618   19.2716  -31.0115 H   0  0  0  0  0  0  0  0  0  0  0  0
   -9.0574   19.9316  -32.7525 H   0  0  0  0  0  0  0  0  0  0  0  0
   -8.5495   21.2872  -30.0269 H   0  0  0  0  0  0  0  0  0  0  0  0
   -8.3079   22.1333  -33.0128 H   0  0  0  0  0  0  0  0  0  0  0  0
   -8.3354   23.2398  -31.5839 H   0  0  0  0  0  0  0  0  0  0  0  0
   -6.5099   24.0297  -30.7274 H   0  0  0  0  0  0  0  0  0  0  0  0
   -2.0975   22.9178  -27.9830 H   0  0  0  0  0  0  0  0  0  0  0  0
   -1.7078   23.0612  -29.7343 H   0  0  0  0  0  0  0  0  0  0  0  0
   -0.9654   24.8719  -27.4321 H   0  0  0  0  0  0  0  0  0  0  0  0
    0.0240   24.3016  -28.8299 H   0  0  0  0  0  0  0  0  0  0  0  0
   -2.0100   25.6750  -29.7960 H   0  0  0  0  0  0  0  0  0  0  0  0
   -2.4570   20.3716  -33.0034 H   0  0  0  0  0  0  0  0  0  0  0  0
   -2.4641   17.6016  -32.6849 H   0  0  0  0  0  0  0  0  0  0  0  0
   -2.4209   16.4761  -34.0842 H   0  0  0  0  0  0  0  0  0  0  0  0
   -1.3927   17.9490  -34.0842 H   0  0  0  0  0  0  0  0  0  0  0  0
   -6.3904   16.9254  -32.9159 H   0  0  0  0  0  0  0  0  0  0  0  0
   -7.3952   16.5229  -34.3494 H   0  0  0  0  0  0  0  0  0  0  0  0
   -5.6388   16.1465  -34.3494 H   0  0  0  0  0  0  0  0  0  0  0  0
   -7.4341   20.1560  -33.3222 H   0  0  0  0  0  0  0  0  0  0  0  0
  1  2  2  0
  2  3  1  0
  3  4  1  0
  4  5  1  0
  5  6  2  0
  6  7  1  0
  7  8  2  0
  7  9  1  0
  9 10  1  0
 10 11  1  0
 11 12  1  0
  6 13  1  0
 13 14  2  0
 13 15  1  0
 15 16  2  0
 16 17  1  0
 17 18  1  0
 18 19  1  0
 17 20  2  0
 20 21  1  0
 21 22  1  0
 20 23  1  0
 23 24  2  0
 24  4  1  0
 24 15  1  0
  1 25  1  0
  1 26  1  0
  2 27  1  0
  3 28  1  0
  3 29  1  0
  5 30  1  0
 10 31  1  0
 10 32  1  0
 11 33  1  0
 11 34  1  0
 12 35  1  0
 16 36  1  0
 19 37  1  0
 19 38  1  0
 19 39  1  0
 22 40  1  0
 22 41  1  0
 22 42  1  0
 23 43  1  0
M  CHG  1   9  -1
M  END
>  <UniqueID>  (27) 
26

>  <SMILES>  (27) 
C=CCn1cc(C(=O)[N-]CCO)c(=O)c2cc(OC)c(OC)cc21

>  <Energy>  (27) 
50.730364442350705

>  <Genealogy>  (27) 
C=CCn1cc(C(=O)[N-]CCO)c(=O)c2cc(OC)c(OC)cc21 (protonated)
C=CCn1cc(C(=O)[N-]CCO)c(=O)c2cc(OC)c(OC)cc21 (3D coordinates assigned)
C=CCn1cc(C(=O)[N-]CCO)c(=O)c2cc(OC)c(OC)cc21 (optimized conformer: 50.730364442350705 kcal/mol)

>  <smiles>  (27) 
C=CCn1cc(C(=O)NCCO)c(=O)c2cc(OC)c(OC)cc21

>  <score_type>  (27) 
oracle

>  <origin>  (27) 
adg

>  <m_score__min__energy>  (27) 
-8.9499999999999993

>  <m_primary>  (27) 
energy

$$$$
27:0
     RDKit          3D

 61 63  0  0  0  0  0  0  0  0999 V2000
   -3.4590   18.6460  -26.0790 C   0  0  0  0  0  0  0  0  0  0  0  0
   -2.0950   19.2520  -26.3930 C   0  0  0  0  0  0  0  0  0  0  0  0
   -2.0460   19.7030  -27.7480 O   0  0  0  0  0  0  0  0  0  0  0  0
   -1.5410   20.9550  -28.1280 C   0  0  0  0  0  0  0  0  0  0  0  0
   -0.3250   21.0740  -28.4460 O   0  0  0  0  0  0  0  0  0  0  0  0
   -2.4100   22.1050  -28.1670 N   0  0  0  0  0  0  0  0  0  0  0  0
   -3.8270   21.9880  -27.7850 C   0  0  0  0  0  0  0  0  0  0  0  0
   -4.7110   22.7820  -28.7610 C   0  0  0  0  0  0  0  0  0  0  0  0
   -4.1120   24.0790  -29.1200 N   0  0  0  0  0  0  0  0  0  0  0  0
   -4.6460   24.8580  -30.2130 C   0  0  0  0  0  0  0  0  0  0  0  0
   -3.8890   25.6360  -30.8570 O   0  0  0  0  0  0  0  0  0  0  0  0
   -6.0980   24.7790  -30.6170 C   0  0  0  0  0  0  0  0  0  0  0  0
   -6.3560   23.6670  -31.6510 C   0  0  0  0  0  0  0  0  0  0  0  0
   -6.9410   22.3680  -31.0400 C   0  0  0  0  0  0  0  0  0  0  0  0
   -8.4790   22.2730  -31.2320 C   0  0  0  0  0  0  0  0  0  0  0  0
   -8.9410   20.8160  -31.3380 C   0  0  0  0  0  0  0  0  0  0  0  0
   -8.3490   20.1650  -32.5300 N   0  0  0  0  0  0  0  0  0  0  0  0
   -8.6130   18.7090  -32.5990 C   0  0  0  0  0  0  0  0  0  0  0  0
   -7.3630   17.8570  -32.5010 C   0  0  0  0  0  0  0  0  0  0  0  0
   -6.6580   17.4890  -33.6580 C   0  0  0  0  0  0  0  0  0  0  0  0
   -5.5040   16.7110  -33.5560 C   0  0  0  0  0  0  0  0  0  0  0  0
   -5.0540   16.3150  -32.2960 C   0  0  0  0  0  0  0  0  0  0  0  0
   -5.7320   16.6910  -31.1790 N   0  0  0  0  0  0  0  0  0  0  0  0
   -6.8590   17.4520  -31.2540 C   0  0  0  0  0  0  0  0  0  0  0  0
   -6.9500   20.5570  -32.8350 C   0  0  0  0  0  0  0  0  0  0  0  0
   -6.2160   21.1180  -31.6100 C   0  0  0  0  0  0  0  0  0  0  0  0
   -2.9030   24.5260  -28.4170 C   0  0  0  0  0  0  0  0  0  0  0  0
   -1.8410   23.4280  -28.4820 C   0  0  0  0  0  0  0  0  0  0  0  0
   -3.5918   18.5870  -24.9886 H   0  0  0  0  0  0  0  0  0  0  0  0
   -4.2491   19.2778  -26.5110 H   0  0  0  0  0  0  0  0  0  0  0  0
   -3.5198   17.6362  -26.5110 H   0  0  0  0  0  0  0  0  0  0  0  0
   -1.9146   20.1043  -25.7214 H   0  0  0  0  0  0  0  0  0  0  0  0
   -1.3225   18.4827  -26.2467 H   0  0  0  0  0  0  0  0  0  0  0  0
   -4.1225   20.9287  -27.8077 H   0  0  0  0  0  0  0  0  0  0  0  0
   -3.9588   22.3948  -26.7715 H   0  0  0  0  0  0  0  0  0  0  0  0
   -4.8492   22.1892  -29.6772 H   0  0  0  0  0  0  0  0  0  0  0  0
   -5.6727   22.9784  -28.2645 H   0  0  0  0  0  0  0  0  0  0  0  0
   -6.7041   24.5772  -29.7215 H   0  0  0  0  0  0  0  0  0  0  0  0
   -6.3721   25.7390  -31.0789 H   0  0  0  0  0  0  0  0  0  0  0  0
   -7.0656   24.0480  -32.4003 H   0  0  0  0  0  0  0  0  0  0  0  0
   -5.3817   23.4045  -32.0890 H   0  0  0  0  0  0  0  0  0  0  0  0
   -6.7616   22.4022  -29.9553 H   0  0  0  0  0  0  0  0  0  0  0  0
   -8.9767   22.7444  -30.3717 H   0  0  0  0  0  0  0  0  0  0  0  0
   -8.7433   22.7885  -32.1671 H   0  0  0  0  0  0  0  0  0  0  0  0
   -8.6272   20.2710  -30.4355 H   0  0  0  0  0  0  0  0  0  0  0  0
  -10.0368   20.7981  -31.4325 H   0  0  0  0  0  0  0  0  0  0  0  0
   -9.2836   18.4381  -31.7702 H   0  0  0  0  0  0  0  0  0  0  0  0
   -9.0608   18.5101  -33.5838 H   0  0  0  0  0  0  0  0  0  0  0  0
   -7.0157   17.8143  -34.6460 H   0  0  0  0  0  0  0  0  0  0  0  0
   -4.9541   16.4126  -34.4607 H   0  0  0  0  0  0  0  0  0  0  0  0
   -4.1484   15.6971  -32.2061 H   0  0  0  0  0  0  0  0  0  0  0  0
   -5.3780   16.3930  -30.2420 H   0  0  0  0  0  0  0  0  0  0  0  0
   -7.3782   17.7516  -30.3316 H   0  0  0  0  0  0  0  0  0  0  0  0
   -6.4066   19.6717  -33.1968 H   0  0  0  0  0  0  0  0  0  0  0  0
   -6.9839   21.3503  -33.5963 H   0  0  0  0  0  0  0  0  0  0  0  0
   -6.1740   20.3422  -30.8313 H   0  0  0  0  0  0  0  0  0  0  0  0
   -5.2030   21.4154  -31.9188 H   0  0  0  0  0  0  0  0  0  0  0  0
   -2.5170   25.4384  -28.8950 H   0  0  0  0  0  0  0  0  0  0  0  0
   -3.1473   24.7384  -27.3657 H   0  0  0  0  0  0  0  0  0  0  0  0
   -1.4160   23.4017  -29.4962 H   0  0  0  0  0  0  0  0  0  0  0  0
   -1.0643   23.6553  -27.7370 H   0  0  0  0  0  0  0  0  0  0  0  0
  1  2  1  0
  2  3  1  0
  3  4  1  0
  4  5  2  0
  4  6  1  0
  6  7  1  0
  7  8  1  0
  8  9  1  0
  9 10  1  0
 10 11  2  0
 10 12  1  0
 12 13  1  0
 13 14  1  0
 14 15  1  0
 15 16  1  0
 16 17  1  0
 17 18  1  0
 18 19  1  0
 19 20  2  0
 20 21  1  0
 21 22  2  0
 22 23  1  0
 23 24  2  0
 17 25  1  0
 25 26  1  0
  9 27  1  0
 27 28  1  0
 28  6  1  0
 26 14  1  0
 24 19  1  0
  1 29  1  0
  1 30  1  0
  1 31  1  0
  2 32  1  0
  2 33  1  0
  7 34  1  0
  7 35  1  0
  8 36  1  0
  8 37  1  0
 12 38  1  0
 12 39  1  0
 13 40  1  0
 13 41  1  0
 14 42  1  0
 15 43  1  0
 15 44  1  0
 16 45  1  0
 16 46  1  0
 18 47  1  0
 18 48  1  0
 20 49  1  0
 21 50  1  0
 22 51  1  0
 23 52  1  0
 24 53  1  0
 25 54  1  0
 25 55  1  0
 26 56  1  0
 26 57  1  0
 27 58  1  0
 27 59  1  0
 28 60  1  0
 28 61  1  0
M  CHG  1  23   1
M  END
>  <UniqueID>  (28) 
27

>  <SMILES>  (28) 
CCOC(=O)N1CCN(C(=O)CCC2CCN(Cc3ccc[nH+]c3)CC2)CC1

>  <Energy>  (28) 
65.97167388618124

>  <Genealogy>  (28) 
CCOC(=O)N1CCN(C(=O)CCC2CCN(Cc3ccc[nH+]c3)CC2)CC1 (protonated)
CCOC(=O)N1CCN(C(=O)CCC2CCN(Cc3ccc[nH+]c3)CC2)CC1 (3D coordinates assigned)
CCOC(=O)N1CCN(C(=O)CCC2CCN(Cc3ccc[nH+]c3)CC2)CC1 (nonaromatic ring conformer: 65.97167388618124 kcal/mol)

>  <smiles>  (28) 
CCOC(=O)N1CCN(C(=O)CCC2CCN(Cc3cccnc3)CC2)CC1

>  <score_type>  (28) 
oracle

>  <origin>  (28) 
adg

>  <m_score__min__energy>  (28) 
-9.4700000000000006

>  <m_primary>  (28) 
energy

$$$$
28:0
     RDKit          3D

 55 56  0  0  0  0  0  0  0  0999 V2000
   -9.1470   22.6560  -31.9670 C   0  0  0  0  0  0  0  0  0  0  0  0
   -8.7260   21.9100  -30.7050 C   0  0  0  0  0  0  0  0  0  0  0  0
   -7.3580   22.3570  -30.1790 C   0  0  0  0  0  0  0  0  0  0  0  0
   -6.5520   23.1940  -31.2000 C   0  0  0  0  0  0  0  0  0  0  0  0
   -5.1680   22.7020  -31.3760 N   0  0  0  0  0  0  0  0  0  0  0  0
   -4.9230   21.7340  -32.4030 C   0  0  0  0  0  0  0  0  0  0  0  0
   -3.7380   21.4710  -32.7370 O   0  0  0  0  0  0  0  0  0  0  0  0
   -6.0520   20.9620  -32.9960 C   0  0  0  0  0  0  0  0  0  0  0  0
   -6.3180   19.3690  -32.1480 S   0  0  0  0  0  0  0  0  0  0  0  0
   -5.1640   18.4260  -33.1520 C   0  0  0  0  0  0  0  0  0  0  0  0
   -5.6030   17.2700  -33.8010 C   0  0  0  0  0  0  0  0  0  0  0  0
   -4.7050   16.5450  -34.5840 C   0  0  0  0  0  0  0  0  0  0  0  0
   -3.3830   16.9800  -34.7080 C   0  0  0  0  0  0  0  0  0  0  0  0
   -2.9740   18.1340  -34.0390 C   0  0  0  0  0  0  0  0  0  0  0  0
   -3.8610   18.8240  -33.2730 N   0  0  0  0  0  0  0  0  0  0  0  0
   -4.0850   23.1280  -30.5180 C   0  0  0  0  0  0  0  0  0  0  0  0
   -3.1880   22.2000  -29.9450 C   0  0  0  0  0  0  0  0  0  0  0  0
   -3.5010   20.8000  -30.0110 N   0  0  0  0  0  0  0  0  0  0  0  0
   -2.0480   22.6450  -29.3090 N   0  0  0  0  0  0  0  0  0  0  0  0
   -1.0280   21.7050  -28.7840 C   0  0  0  0  0  0  0  0  0  0  0  0
   -1.4360   21.1400  -27.4070 C   0  0  0  0  0  0  0  0  0  0  0  0
   -1.5170   19.6010  -27.3610 C   0  0  0  0  0  0  0  0  0  0  0  0
   -2.7010   19.1110  -26.5250 C   0  0  0  0  0  0  0  0  0  0  0  0
   -1.8360   23.9960  -29.1670 C   0  0  0  0  0  0  0  0  0  0  0  0
   -0.8190   24.4380  -28.5660 O   0  0  0  0  0  0  0  0  0  0  0  0
   -2.7140   24.8890  -29.6790 N   0  0  0  0  0  0  0  0  0  0  0  0
   -3.8150   24.4970  -30.3530 C   0  0  0  0  0  0  0  0  0  0  0  0
   -4.5660   25.3750  -30.8610 O   0  0  0  0  0  0  0  0  0  0  0  0
   -9.6699   23.5826  -31.6879 H   0  0  0  0  0  0  0  0  0  0  0  0
   -8.2552   22.9031  -32.5616 H   0  0  0  0  0  0  0  0  0  0  0  0
   -9.8195   22.0203  -32.5616 H   0  0  0  0  0  0  0  0  0  0  0  0
   -9.4788   22.0893  -29.9232 H   0  0  0  0  0  0  0  0  0  0  0  0
   -8.6496   20.8430  -30.9612 H   0  0  0  0  0  0  0  0  0  0  0  0
   -7.5132   22.9644  -29.2751 H   0  0  0  0  0  0  0  0  0  0  0  0
   -6.7757   21.4469  -29.9728 H   0  0  0  0  0  0  0  0  0  0  0  0
   -7.0660   23.1539  -32.1717 H   0  0  0  0  0  0  0  0  0  0  0  0
   -6.4924   24.2221  -30.8134 H   0  0  0  0  0  0  0  0  0  0  0  0
   -6.9706   21.5621  -32.9188 H   0  0  0  0  0  0  0  0  0  0  0  0
   -5.8005   20.7481  -34.0453 H   0  0  0  0  0  0  0  0  0  0  0  0
   -6.6455   16.9350  -33.6958 H   0  0  0  0  0  0  0  0  0  0  0  0
   -5.0366   15.6333  -35.1025 H   0  0  0  0  0  0  0  0  0  0  0  0
   -2.6702   16.4169  -35.3283 H   0  0  0  0  0  0  0  0  0  0  0  0
   -1.9356   18.4852  -34.1310 H   0  0  0  0  0  0  0  0  0  0  0  0
   -3.5350   19.6860  -32.7810 H   0  0  0  0  0  0  0  0  0  0  0  0
   -3.8940   20.3620  -30.8720 H   0  0  0  0  0  0  0  0  0  0  0  0
   -3.4300   20.1990  -29.1560 H   0  0  0  0  0  0  0  0  0  0  0  0
   -0.9117   20.8715  -29.4923 H   0  0  0  0  0  0  0  0  0  0  0  0
   -0.0816   22.2530  -28.6659 H   0  0  0  0  0  0  0  0  0  0  0  0
   -0.6949   21.4700  -26.6641 H   0  0  0  0  0  0  0  0  0  0  0  0
   -2.4464   21.5189  -27.1936 H   0  0  0  0  0  0  0  0  0  0  0  0
   -1.6263   19.2209  -28.3874 H   0  0  0  0  0  0  0  0  0  0  0  0
   -0.5944   19.2274  -26.8927 H   0  0  0  0  0  0  0  0  0  0  0  0
   -2.4611   19.2103  -25.4561 H   0  0  0  0  0  0  0  0  0  0  0  0
   -3.5900   19.7151  -26.7589 H   0  0  0  0  0  0  0  0  0  0  0  0
   -2.9031   18.0553  -26.7589 H   0  0  0  0  0  0  0  0  0  0  0  0
  1  2  1  0
  2  3  1  0
  3  4  1  0
  4  5  1  0
  5  6  1  0
  6  7  2  0
  6  8  1  0
  8  9  1  0
  9 10  1  0
 10 11  2  0
 11 12  1  0
 12 13  2  0
 13 14  1  0
 14 15  2  0
  5 16  1  0
 16 17  2  0
 17 18  1  0
 17 19  1  0
 19 20  1  0
 20 21  1  0
 21 22  1  0
 22 23  1  0
 19 24  1  0
 24 25  2  0
 24 26  1  0
 26 27  1  0
 27 28  2  0
 15 10  1  0
 27 16  1  0
  1 29  1  0
  1 30  1  0
  1 31  1  0
  2 32  1  0
  2 33  1  0
  3 34  1  0
  3 35  1  0
  4 36  1  0
  4 37  1  0
  8 38  1  0
  8 39  1  0
 11 40  1  0
 12 41  1  0
 13 42  1  0
 14 43  1  0
 15 44  1  0
 18 45  1  0
 18 46  1  0
 20 47  1  0
 20 48  1  0
 21 49  1  0
 21 50  1  0
 22 51  1  0
 22 52  1  0
 23 53  1  0
 23 54  1  0
 23 55  1  0
M  CHG  2  15   1  26  -1
M  END
>  <UniqueID>  (29) 
28

>  <SMILES>  (29) 
CCCCN(C(=O)CSc1cccc[nH+]1)c1c(N)n(CCCC)c(=O)[n-]c1=O

>  <Energy>  (29) 
62.22264361867

>  <Genealogy>  (29) 
CCCCN(C(=O)CSc1cccc[nH+]1)c1c(N)n(CCCC)c(=O)[n-]c1=O (protonated)
CCCCN(C(=O)CSc1cccc[nH+]1)c1c(N)n(CCCC)c(=O)[n-]c1=O (3D coordinates assigned)
CCCCN(C(=O)CSc1cccc[nH+]1)c1c(N)n(CCCC)c(=O)[n-]c1=O (optimized conformer: 62.22264361867 kcal/mol)

>  <smiles>  (29) 
CCCCN(C(=O)CSc1ccccn1)c1c(N)n(CCCC)c(=O)[nH]c1=O

>  <score_type>  (29) 
oracle

>  <origin>  (29) 
adg

>  <m_score__min__energy>  (29) 
-8.8000000000000007

>  <m_primary>  (29) 
energy

$$$$
29:0
     RDKit          3D

 39 42  0  0  0  0  0  0  0  0999 V2000
   -4.8280   12.2940  -34.6930 C   0  0  0  0  0  0  0  0  0  0  0  0
   -4.7970   13.8040  -34.8970 C   0  0  0  0  0  0  0  0  0  0  0  0
   -5.5030   14.4670  -33.8490 O   0  0  0  0  0  0  0  0  0  0  0  0
   -6.2340   15.6450  -34.0360 C   0  0  0  0  0  0  0  0  0  0  0  0
   -7.3730   15.6130  -34.5720 O   0  0  0  0  0  0  0  0  0  0  0  0
   -5.6760   16.9380  -33.6140 C   0  0  0  0  0  0  0  0  0  0  0  0
   -6.4210   17.9190  -33.1370 O   0  0  0  0  0  0  0  0  0  0  0  0
   -5.6320   18.9290  -32.8550 C   0  0  0  0  0  0  0  0  0  0  0  0
   -4.3340   18.6190  -33.1490 C   0  0  0  0  0  0  0  0  0  0  0  0
   -3.3010   19.5260  -32.9400 C   0  0  0  0  0  0  0  0  0  0  0  0
   -3.6200   20.7880  -32.4120 C   0  0  0  0  0  0  0  0  0  0  0  0
   -4.9680   21.1410  -32.0950 C   0  0  0  0  0  0  0  0  0  0  0  0
   -5.3360   22.4130  -31.5570 C   0  0  0  0  0  0  0  0  0  0  0  0
   -4.3960   23.4390  -31.2900 C   0  0  0  0  0  0  0  0  0  0  0  0
   -4.8050   24.6680  -30.7630 C   0  0  0  0  0  0  0  0  0  0  0  0
   -3.8650   25.6600  -30.5090 O   0  0  0  0  0  0  0  0  0  0  0  0
   -6.1500   24.9040  -30.4910 C   0  0  0  0  0  0  0  0  0  0  0  0
   -7.0980   23.9150  -30.7430 C   0  0  0  0  0  0  0  0  0  0  0  0
   -6.7090   22.6740  -31.2720 C   0  0  0  0  0  0  0  0  0  0  0  0
   -7.6820   21.6990  -31.5150 C   0  0  0  0  0  0  0  0  0  0  0  0
   -7.3300   20.4610  -32.0380 C   0  0  0  0  0  0  0  0  0  0  0  0
   -5.9940   20.1730  -32.3280 C   0  0  0  0  0  0  0  0  0  0  0  0
   -4.3340   17.3290  -33.6440 C   0  0  0  0  0  0  0  0  0  0  0  0
   -3.1580   16.5260  -34.1090 C   0  0  0  0  0  0  0  0  0  0  0  0
   -4.8326   12.0695  -33.6162 H   0  0  0  0  0  0  0  0  0  0  0  0
   -5.7348   11.8797  -35.1578 H   0  0  0  0  0  0  0  0  0  0  0  0
   -3.9389   11.8429  -35.1578 H   0  0  0  0  0  0  0  0  0  0  0  0
   -3.7518   14.1467  -34.9019 H   0  0  0  0  0  0  0  0  0  0  0  0
   -5.2801   14.0423  -35.8561 H   0  0  0  0  0  0  0  0  0  0  0  0
   -2.2609   19.2621  -33.1819 H   0  0  0  0  0  0  0  0  0  0  0  0
   -2.8164   21.5189  -32.2391 H   0  0  0  0  0  0  0  0  0  0  0  0
   -3.3301   23.2664  -31.5001 H   0  0  0  0  0  0  0  0  0  0  0  0
   -6.4645   25.8731  -30.0764 H   0  0  0  0  0  0  0  0  0  0  0  0
   -8.1590   24.1077  -30.5260 H   0  0  0  0  0  0  0  0  0  0  0  0
   -8.7368   21.9147  -31.2897 H   0  0  0  0  0  0  0  0  0  0  0  0
   -8.1064   19.7044  -32.2245 H   0  0  0  0  0  0  0  0  0  0  0  0
   -2.6043   16.1479  -33.2370 H   0  0  0  0  0  0  0  0  0  0  0  0
   -3.5095   15.6785  -34.7158 H   0  0  0  0  0  0  0  0  0  0  0  0
   -2.4966   17.1619  -34.7158 H   0  0  0  0  0  0  0  0  0  0  0  0
  1  2  1  0
  2  3  1  0
  3  4  1  0
  4  5  2  0
  4  6  1  0
  6  7  1  0
  7  8  1  0
  8  9  2  0
  9 10  1  0
 10 11  2  0
 11 12  1  0
 12 13  2  0
 13 14  1  0
 14 15  2  0
 15 16  1  0
 15 17  1  0
 17 18  2  0
 18 19  1  0
 19 20  2  0
 20 21  1  0
 21 22  2  0
  9 23  1  0
 23 24  1  0
 23  6  2  0
 22  8  1  0
 22 12  1  0
 19 13  1  0
  1 25  1  0
  1 26  1  0
  1 27  1  0
  2 28  1  0
  2 29  1  0
 10 30  1  0
 11 31  1  0
 14 32  1  0
 17 33  1  0
 18 34  1  0
 20 35  1  0
 21 36  1  0
 24 37  1  0
 24 38  1  0
 24 39  1  0
M  CHG  1  16  -1
M  END
>  <UniqueID>  (30) 
29

>  <SMILES>  (30) 
CCOC(=O)c1oc2c(ccc3c4cc([O-])ccc4ccc32)c1C

>  <Energy>  (30) 
83.30714819718948

>  <Genealogy>  (30) 
CCOC(=O)c1oc2c(ccc3c4cc([O-])ccc4ccc32)c1C (protonated)
CCOC(=O)c1oc2c(ccc3c4cc([O-])ccc4ccc32)c1C (3D coordinates assigned)
CCOC(=O)c1oc2c(ccc3c4cc([O-])ccc4ccc32)c1C (optimized conformer: 83.30714819718948 kcal/mol)

>  <smiles>  (30) 
CCOC(=O)c1oc2c(ccc3c4cc(O)ccc4ccc32)c1C

>  <score_type>  (30) 
oracle

>  <origin>  (30) 
adg

>  <m_score__min__energy>  (30) 
-11

>  <m_primary>  (30) 
energy

$$$$
30:0
     RDKit          3D

 48 51  0  0  1  0  0  0  0  0999 V2000
   -0.8820   26.4080  -28.0320 C   0  0  0  0  0  0  0  0  0  0  0  0
   -1.5430   25.6660  -29.0070 O   0  0  0  0  0  0  0  0  0  0  0  0
   -1.5160   24.3140  -29.0890 C   0  0  0  0  0  0  0  0  0  0  0  0
   -0.4060   23.5060  -28.9790 C   0  0  0  0  0  0  0  0  0  0  0  0
   -0.5300   22.1390  -29.0820 C   0  0  0  0  0  0  0  0  0  0  0  0
   -1.7190   21.4900  -29.2960 C   0  0  0  0  0  0  0  0  0  0  0  0
   -2.8530   22.3030  -29.4090 C   0  0  0  0  0  0  0  0  0  0  0  0
   -2.7480   23.6700  -29.3070 C   0  0  0  0  0  0  0  0  0  0  0  0
   -3.9550   24.5420  -29.4230 C   0  0  0  0  0  0  0  0  0  0  0  0
   -4.3440   24.5680  -30.8180 N   0  0  0  0  0  0  0  0  0  0  0  0
   -5.3880   23.8950  -31.2040 C   0  0  0  0  0  0  0  0  0  0  0  0
   -6.6390   24.2770  -30.8880 N   0  0  0  0  0  0  0  0  0  0  0  0
   -7.7260   23.5640  -31.2940 C   0  0  0  0  0  0  0  0  0  0  0  0
   -7.5930   22.4400  -32.0320 N   0  0  0  0  0  0  0  0  0  0  0  0
   -6.3790   22.0180  -32.3720 C   0  0  0  0  0  0  0  0  0  0  0  0
   -5.2630   22.7300  -31.9680 C   0  0  0  0  0  0  0  0  0  0  0  0
   -4.1830   22.0870  -32.4320 N   0  0  0  0  0  0  0  0  0  0  0  0
   -4.6180   21.0120  -33.1010 C   0  0  0  0  0  0  0  0  0  0  0  0
   -5.9590   20.9330  -33.0870 N   0  0  0  0  0  0  0  0  0  0  0  0
   -6.7720   19.9090  -33.7050 C   0  0  2  0  0  0  0  0  0  0  0  0
   -8.0270   19.8360  -33.1470 O   0  0  0  0  0  0  0  0  0  0  0  0
   -8.2920   18.5740  -32.7060 C   0  0  2  0  0  0  0  0  0  0  0  0
   -8.7350   18.6880  -31.2510 C   0  0  0  0  0  0  0  0  0  0  0  0
   -7.0810   17.7120  -32.8320 C   0  0  2  0  0  0  0  0  0  0  0  0
   -6.5530   17.2560  -31.6530 O   0  0  0  0  0  0  0  0  0  0  0  0
   -6.1490   18.5570  -33.6600 C   0  0  1  0  0  0  0  0  0  0  0  0
   -6.0420   17.9840  -34.9470 O   0  0  0  0  0  0  0  0  0  0  0  0
   -1.1910   26.0611  -27.0349 H   0  0  0  0  0  0  0  0  0  0  0  0
    0.2043   26.2772  -28.1453 H   0  0  0  0  0  0  0  0  0  0  0  0
   -1.1370   27.4720  -28.1453 H   0  0  0  0  0  0  0  0  0  0  0  0
    0.5836   23.9549  -28.8081 H   0  0  0  0  0  0  0  0  0  0  0  0
    0.3808   21.5296  -28.9868 H   0  0  0  0  0  0  0  0  0  0  0  0
   -1.7782   20.3944  -29.3743 H   0  0  0  0  0  0  0  0  0  0  0  0
   -3.8376   21.8437  -29.5811 H   0  0  0  0  0  0  0  0  0  0  0  0
   -4.7736   24.1325  -28.8129 H   0  0  0  0  0  0  0  0  0  0  0  0
   -3.7334   25.5581  -29.0647 H   0  0  0  0  0  0  0  0  0  0  0  0
   -6.7960   25.1380  -30.3190 H   0  0  0  0  0  0  0  0  0  0  0  0
   -8.7323   23.9101  -31.0156 H   0  0  0  0  0  0  0  0  0  0  0  0
   -3.9601   20.2849  -33.5995 H   0  0  0  0  0  0  0  0  0  0  0  0
   -6.8549   20.2173  -34.7577 H   0  0  0  0  0  0  0  0  0  0  0  0
   -9.0836   18.1063  -33.3098 H   0  0  0  0  0  0  0  0  0  0  0  0
   -7.8834   18.4688  -30.5902 H   0  0  0  0  0  0  0  0  0  0  0  0
   -9.0967   19.7085  -31.0567 H   0  0  0  0  0  0  0  0  0  0  0  0
   -9.5444   17.9689  -31.0567 H   0  0  0  0  0  0  0  0  0  0  0  0
   -7.3116   16.7463  -33.3056 H   0  0  0  0  0  0  0  0  0  0  0  0
   -5.6140   17.4220  -31.4860 H   0  0  0  0  0  0  0  0  0  0  0  0
   -5.1318   18.6192  -33.2459 H   0  0  0  0  0  0  0  0  0  0  0  0
   -6.6050   18.5210  -35.5840 H   0  0  0  0  0  0  0  0  0  0  0  0
  1  2  1  0
  2  3  1  0
  3  4  2  0
  4  5  1  0
  5  6  2  0
  6  7  1  0
  7  8  2  0
  8  9  1  0
  9 10  1  0
 10 11  2  0
 11 12  1  0
 12 13  1  0
 13 14  2  0
 14 15  1  0
 15 16  2  0
 16 17  1  0
 17 18  2  0
 18 19  1  0
 19 20  1  0
 20 21  1  0
 21 22  1  0
 22 23  1  0
 22 24  1  0
 24 25  1  0
 24 26  1  0
 26 27  1  0
  8  3  1  0
 16 11  1  0
 26 20  1  0
 19 15  1  0
  1 28  1  0
  1 29  1  0
  1 30  1  0
  4 31  1  0
  5 32  1  0
  6 33  1  0
  7 34  1  0
  9 35  1  0
  9 36  1  0
 12 37  1  0
 13 38  1  0
 18 39  1  0
 20 40  1  6
 22 41  1  6
 23 42  1  0
 23 43  1  0
 23 44  1  0
 24 45  1  6
 25 46  1  0
 26 47  1  1
 27 48  1  0
M  END
>  <smiles>  (31) 
COc1ccccc1CN=c1[nH]cnc2c1ncn2C1OC(C)C(O)C1O

>  <score_type>  (31) 
oracle

>  <origin>  (31) 
adg

>  <m_score__min__energy>  (31) 
-8.5700000000000003

>  <m_primary>  (31) 
energy

$$$$
31:0
     RDKit          3D

 41 44  0  0  1  0  0  0  0  0999 V2000
   -0.0440   22.2280  -23.3360 N   0  0  0  0  0  0  0  0  0  0  0  0
   -0.4280   22.8920  -24.3750 C   0  0  0  0  0  0  0  0  0  0  0  0
   -0.6470   22.3250  -25.5750 N   0  0  0  0  0  0  0  0  0  0  0  0
   -1.0450   23.0640  -26.6150 C   0  0  0  0  0  0  0  0  0  0  0  0
   -1.2480   24.4240  -26.5140 C   0  0  0  0  0  0  0  0  0  0  0  0
   -1.0200   24.9960  -25.2790 C   0  0  0  0  0  0  0  0  0  0  0  0
   -1.1680   26.2540  -25.0380 N   0  0  0  0  0  0  0  0  0  0  0  0
   -0.6200   24.2170  -24.2560 N   0  0  0  0  0  0  0  0  0  0  0  0
   -1.6810   25.2930  -27.6100 C   0  0  0  0  0  0  0  0  0  0  0  0
   -1.6570   24.6240  -28.9600 C   0  0  2  0  0  0  0  0  0  0  0  0
   -3.0780   24.3040  -29.2960 C   0  0  0  0  0  0  0  0  0  0  0  0
   -4.1810   24.6350  -29.1030 N   0  0  0  0  0  0  0  0  0  0  0  0
   -5.2970   24.1340  -29.5620 C   0  0  0  0  0  0  0  0  0  0  0  0
   -5.1530   23.0610  -30.3940 C   0  0  0  0  0  0  0  0  0  0  0  0
   -6.1910   22.2590  -31.0820 C   0  0  0  0  0  0  0  0  0  0  0  0
   -7.5200   22.5510  -30.8710 C   0  0  0  0  0  0  0  0  0  0  0  0
   -8.4770   21.7930  -31.5200 C   0  0  0  0  0  0  0  0  0  0  0  0
   -8.0600   20.7750  -32.3530 C   0  0  0  0  0  0  0  0  0  0  0  0
   -8.9770   19.9820  -33.0310 O   0  0  0  0  0  0  0  0  0  0  0  0
   -6.7080   20.4950  -32.5530 C   0  0  0  0  0  0  0  0  0  0  0  0
   -5.7350   21.2600  -31.8980 C   0  0  0  0  0  0  0  0  0  0  0  0
   -3.4140   22.8300  -30.4690 S   0  0  0  0  0  0  0  0  0  0  0  0
   -0.7800   23.3890  -28.9710 C   0  0  0  0  0  0  0  0  0  0  0  0
   -1.2800   22.4090  -27.9300 C   0  0  0  0  0  0  0  0  0  0  0  0
    0.3240   22.6700  -22.4770 H   0  0  0  0  0  0  0  0  0  0  0  0
   -0.4930   21.2810  -25.6560 H   0  0  0  0  0  0  0  0  0  0  0  0
   -2.0300   26.5510  -24.5430 H   0  0  0  0  0  0  0  0  0  0  0  0
   -0.4450   24.6590  -23.3080 H   0  0  0  0  0  0  0  0  0  0  0  0
   -2.7097   25.6241  -27.4049 H   0  0  0  0  0  0  0  0  0  0  0  0
   -0.9708   26.1318  -27.6546 H   0  0  0  0  0  0  0  0  0  0  0  0
   -1.2158   25.2905  -29.7158 H   0  0  0  0  0  0  0  0  0  0  0  0
   -6.2816   24.5469  -29.2972 H   0  0  0  0  0  0  0  0  0  0  0  0
   -7.8144   23.3710  -30.1995 H   0  0  0  0  0  0  0  0  0  0  0  0
   -9.5482   21.9971  -31.3754 H   0  0  0  0  0  0  0  0  0  0  0  0
   -8.8280   19.7080  -34.0140 H   0  0  0  0  0  0  0  0  0  0  0  0
   -6.4073   19.6760  -33.2230 H   0  0  0  0  0  0  0  0  0  0  0  0
   -4.6603   21.0678  -32.0325 H   0  0  0  0  0  0  0  0  0  0  0  0
   -0.8186   22.9201  -29.9653 H   0  0  0  0  0  0  0  0  0  0  0  0
    0.2576   23.6726  -28.7410 H   0  0  0  0  0  0  0  0  0  0  0  0
   -2.3524   22.2108  -28.0736 H   0  0  0  0  0  0  0  0  0  0  0  0
   -0.7609   21.4418  -28.0004 H   0  0  0  0  0  0  0  0  0  0  0  0
  1  2  2  3
  2  3  1  0
  3  4  1  0
  4  5  2  0
  5  6  1  0
  6  7  2  3
  6  8  1  0
  5  9  1  0
  9 10  1  0
 10 11  1  0
 11 12  2  0
 12 13  1  0
 13 14  2  0
 14 15  1  0
 15 16  2  0
 16 17  1  0
 17 18  2  0
 18 19  1  0
 18 20  1  0
 20 21  2  0
 14 22  1  0
 10 23  1  0
 23 24  1  0
  8  2  1  0
 22 11  1  0
 24  4  1  0
 21 15  1  0
  1 25  1  0
  3 26  1  0
  7 27  1  0
  8 28  1  0
  9 29  1  0
  9 30  1  0
 10 31  1  6
 13 32  1  0
 16 33  1  0
 17 34  1  0
 19 35  1  0
 20 36  1  0
 21 37  1  0
 23 38  1  0
 23 39  1  0
 24 40  1  0
 24 41  1  0
M  END
>  <smiles>  (32) 
N=c1[nH]c2c(c(=N)[nH]1)CC(c1ncc(-c3ccc(O)cc3)s1)CC2

>  <score_type>  (32) 
oracle

>  <origin>  (32) 
adg

>  <m_score__min__energy>  (32) 
-8.0299999999999994

>  <m_primary>  (32) 
energy

$$$$
32:0
     RDKit          3D

 29 32  0  0  0  0  0  0  0  0999 V2000
   -0.9356   26.5490  -25.9495 H   0  0  0  0  0  0  0  0  0  0  0  0
   -1.2440   26.0790  -26.8950 C   0  0  0  0  0  0  0  0  0  0  0  0
   -0.7060   26.3620  -28.1030 N   0  0  0  0  0  0  0  0  0  0  0  0
   -1.2430   25.6690  -29.1050 N   0  0  0  0  0  0  0  0  0  0  0  0
   -2.2210   24.8320  -28.7040 C   0  0  0  0  0  0  0  0  0  0  0  0
   -2.8440   24.0440  -29.5300 N   0  0  0  0  0  0  0  0  0  0  0  0
   -3.8580   24.4580  -30.4530 C   0  0  0  0  0  0  0  0  0  0  0  0
   -3.8780   25.6550  -30.8410 O   0  0  0  0  0  0  0  0  0  0  0  0
   -4.9200   23.5350  -30.8950 C   0  0  0  0  0  0  0  0  0  0  0  0
   -4.6750   21.8820  -31.3050 S   0  0  0  0  0  0  0  0  0  0  0  0
   -6.3040   21.6430  -31.6050 C   0  0  0  0  0  0  0  0  0  0  0  0
   -7.0140   22.7660  -31.3950 C   0  0  0  0  0  0  0  0  0  0  0  0
   -8.3290   22.5790  -31.6260 N   0  0  0  0  0  0  0  0  0  0  0  0
   -8.4250   21.3010  -31.9910 N   0  0  0  0  0  0  0  0  0  0  0  0
   -9.5670   20.6510  -32.3240 C   0  0  0  0  0  0  0  0  0  0  0  0
  -10.5351   21.1731  -32.3130 H   0  0  0  0  0  0  0  0  0  0  0  0
   -9.4860   19.2970  -32.6830 C   0  0  0  0  0  0  0  0  0  0  0  0
  -10.3958   18.7436  -32.9587 H   0  0  0  0  0  0  0  0  0  0  0  0
   -8.2350   18.6490  -32.6890 C   0  0  0  0  0  0  0  0  0  0  0  0
   -8.1725   17.5876  -32.9711 H   0  0  0  0  0  0  0  0  0  0  0  0
   -7.0630   19.3480  -32.3370 C   0  0  0  0  0  0  0  0  0  0  0  0
   -5.7200   18.6790  -32.3360 C   0  0  0  0  0  0  0  0  0  0  0  0
   -5.3924   18.5158  -31.2987 H   0  0  0  0  0  0  0  0  0  0  0  0
   -5.7920   17.7114  -32.8543 H   0  0  0  0  0  0  0  0  0  0  0  0
   -4.9910   19.3193  -32.8543 H   0  0  0  0  0  0  0  0  0  0  0  0
   -7.2130   20.6950  -31.9900 C   0  0  0  0  0  0  0  0  0  0  0  0
   -6.2850   23.8710  -30.9850 C   0  0  0  0  0  0  0  0  0  0  0  0
   -6.7086   24.8616  -30.7632 H   0  0  0  0  0  0  0  0  0  0  0  0
   -2.4500   24.9100  -27.0320 S   0  0  0  0  0  0  0  0  0  0  0  0
  1  2  1  0
  2  3  2  0
  3  4  1  0
  4  5  1  0
  5  6  2  0
  6  7  1  0
  7  8  2  0
  7  9  1  0
  9 10  1  0
 10 11  1  0
 11 12  1  0
 12 13  2  0
 13 14  1  0
 14 15  1  0
 15 16  1  0
 15 17  2  0
 17 18  1  0
 17 19  1  0
 19 20  1  0
 19 21  2  0
 21 22  1  0
 22 23  1  0
 22 24  1  0
 22 25  1  0
 21 26  1  0
 12 27  1  0
 27 28  1  0
  5 29  1  0
 29  2  1  0
 27  9  2  0
 26 11  2  0
 26 14  1  0
M  CHG  1   4  -1
M  END
>  <UniqueID>  (33) 
30

>  <SMILES>  (33) 
Cc1cccn2nc3cc(C(=O)/N=c4/[n-]ncs4)sc3c12

>  <Energy>  (33) 
160.40135124162057

>  <Genealogy>  (33) 
Cc1cccn2nc3cc(C(=O)N=c4[n-]ncs4)sc3c12 (protonated)
Cc1cccn2nc3cc(C(=O)/N=c4/[n-]ncs4)sc3c12 (cis-trans isomerization)
Cc1cccn2nc3cc(C(=O)/N=c4/[n-]ncs4)sc3c12 (3D coordinates assigned)
Cc1cccn2nc3cc(C(=O)/N=c4/[n-]ncs4)sc3c12 (optimized conformer: 160.40135124162057 kcal/mol)

>  <smiles>  (33) 
Cc1cccn2nc3cc(C(=O)N=c4[nH]ncs4)sc3c12

>  <score_type>  (33) 
oracle

>  <origin>  (33) 
adg

>  <m_score__min__energy>  (33) 
-10.210000000000001

>  <m_primary>  (33) 
energy

$$$$
33:0
     RDKit          3D

 38 40  0  0  0  0  0  0  0  0999 V2000
   -8.3740   18.4730  -31.2170 O   0  0  0  0  0  0  0  0  0  0  0  0
   -7.7210   19.0060  -32.1540 C   0  0  0  0  0  0  0  0  0  0  0  0
   -6.6860   18.2070  -32.8400 C   0  0  0  0  0  0  0  0  0  0  0  0
   -6.1230   17.0310  -32.3540 C   0  0  0  0  0  0  0  0  0  0  0  0
   -5.2020   16.4480  -33.2340 C   0  0  0  0  0  0  0  0  0  0  0  0
   -5.0430   17.1500  -34.4200 C   0  0  0  0  0  0  0  0  0  0  0  0
   -6.0500   18.4940  -34.3730 S   0  0  0  0  0  0  0  0  0  0  0  0
   -7.9990   20.3710  -32.5240 N   0  0  0  0  0  0  0  0  0  0  0  0
   -6.9080   21.3010  -32.8420 C   0  0  0  0  0  0  0  0  0  0  0  0
   -7.2720   22.7340  -32.4140 C   0  0  0  0  0  0  0  0  0  0  0  0
   -8.0320   22.7460  -31.1460 N   0  0  0  0  0  0  0  0  0  0  0  0
   -7.2100   22.2900  -30.0030 C   0  0  0  0  0  0  0  0  0  0  0  0
   -5.8050   22.8300  -30.1180 C   0  0  0  0  0  0  0  0  0  0  0  0
   -4.7370   21.9460  -30.3530 C   0  0  0  0  0  0  0  0  0  0  0  0
   -3.4280   22.4270  -30.4500 C   0  0  0  0  0  0  0  0  0  0  0  0
   -3.1720   23.7910  -30.3140 C   0  0  0  0  0  0  0  0  0  0  0  0
   -4.2220   24.6800  -30.0800 C   0  0  0  0  0  0  0  0  0  0  0  0
   -5.5370   24.2110  -29.9810 C   0  0  0  0  0  0  0  0  0  0  0  0
   -6.8240   25.3760  -29.6870 Cl  0  0  0  0  0  0  0  0  0  0  0  0
   -9.3250   22.0160  -31.2460 C   0  0  0  0  0  0  0  0  0  0  0  0
   -9.3420   20.9270  -32.3370 C   0  0  0  0  0  0  0  0  0  0  0  0
   -6.3765   16.6008  -31.3739 H   0  0  0  0  0  0  0  0  0  0  0  0
   -4.6561   15.5206  -33.0060 H   0  0  0  0  0  0  0  0  0  0  0  0
   -4.3734   16.8743  -35.2480 H   0  0  0  0  0  0  0  0  0  0  0  0
   -5.9982   20.9855  -32.3103 H   0  0  0  0  0  0  0  0  0  0  0  0
   -6.7387   21.2889  -33.9288 H   0  0  0  0  0  0  0  0  0  0  0  0
   -6.3462   23.3130  -32.2810 H   0  0  0  0  0  0  0  0  0  0  0  0
   -7.9032   23.1777  -33.1980 H   0  0  0  0  0  0  0  0  0  0  0  0
   -7.6609   22.6489  -29.0660 H   0  0  0  0  0  0  0  0  0  0  0  0
   -7.1716   21.1907  -30.0066 H   0  0  0  0  0  0  0  0  0  0  0  0
   -4.9328   20.8690  -30.4612 H   0  0  0  0  0  0  0  0  0  0  0  0
   -2.5985   21.7283  -30.6339 H   0  0  0  0  0  0  0  0  0  0  0  0
   -2.1411   24.1667  -30.3913 H   0  0  0  0  0  0  0  0  0  0  0  0
   -4.0150   25.7550  -29.9728 H   0  0  0  0  0  0  0  0  0  0  0  0
   -9.5296   21.5387  -30.2763 H   0  0  0  0  0  0  0  0  0  0  0  0
  -10.0906   22.7566  -31.5207 H   0  0  0  0  0  0  0  0  0  0  0  0
  -10.0288   20.1224  -32.0354 H   0  0  0  0  0  0  0  0  0  0  0  0
   -9.6779   21.3752  -33.2837 H   0  0  0  0  0  0  0  0  0  0  0  0
  1  2  2  0
  2  3  1  0
  3  4  2  0
  4  5  1  0
  5  6  2  0
  6  7  1  0
  2  8  1  0
  8  9  1  0
  9 10  1  0
 10 11  1  0
 11 12  1  0
 12 13  1  0
 13 14  2  0
 14 15  1  0
 15 16  2  0
 16 17  1  0
 17 18  2  0
 18 19  1  0
 11 20  1  0
 20 21  1  0
  7  3  1  0
 21  8  1  0
 18 13  1  0
  4 22  1  0
  5 23  1  0
  6 24  1  0
  9 25  1  0
  9 26  1  0
 10 27  1  0
 10 28  1  0
 12 29  1  0
 12 30  1  0
 14 31  1  0
 15 32  1  0
 16 33  1  0
 17 34  1  0
 20 35  1  0
 20 36  1  0
 21 37  1  0
 21 38  1  0
M  END
>  <UniqueID>  (34) 
31

>  <SMILES>  (34) 
O=C(c1cccs1)N1CCN(Cc2ccccc2Cl)CC1

>  <Energy>  (34) 
77.50603398450934

>  <Genealogy>  (34) 
O=C(c1cccs1)N1CCN(Cc2ccccc2Cl)CC1 (3D coordinates assigned)
O=C(c1cccs1)N1CCN(Cc2ccccc2Cl)CC1 (nonaromatic ring conformer: 77.50603398450934 kcal/mol)

>  <smiles>  (34) 
O=C(c1cccs1)N1CCN(Cc2ccccc2Cl)CC1

>  <score_type>  (34) 
oracle

>  <origin>  (34) 
adg

>  <m_score__min__energy>  (34) 
-8.0299999999999994

>  <m_primary>  (34) 
energy

$$$$
34:0
     RDKit          3D

 50 54  0  0  1  0  0  0  0  0999 V2000
   -4.9770   24.0170  -31.3130 O   0  0  0  0  0  0  0  0  0  0  0  0
   -5.8900   23.3350  -30.2990 S   0  0  0  0  0  0  0  0  0  0  0  0
   -6.6670   24.4710  -29.6620 O   0  0  0  0  0  0  0  0  0  0  0  0
   -4.8610   22.6080  -29.1510 N   0  0  0  0  0  0  0  0  0  0  0  0
   -4.0960   23.2160  -28.3430 C   0  0  0  0  0  0  0  0  0  0  0  0
   -4.5490   24.2970  -27.6910 N   0  0  0  0  0  0  0  0  0  0  0  0
   -3.7180   24.9060  -26.8660 N   0  0  0  0  0  0  0  0  0  0  0  0
   -2.4500   24.5270  -26.6260 C   0  0  0  0  0  0  0  0  0  0  0  0
   -1.6160   25.2750  -25.6940 C   0  0  0  0  0  0  0  0  0  0  0  0
   -0.3930   24.7410  -25.3420 C   0  0  0  0  0  0  0  0  0  0  0  0
    0.4330   25.4150  -24.4610 C   0  0  0  0  0  0  0  0  0  0  0  0
    0.0790   26.6320  -23.8990 C   0  0  0  0  0  0  0  0  0  0  0  0
   -1.1510   27.1520  -24.2620 C   0  0  0  0  0  0  0  0  0  0  0  0
   -1.9720   26.4680  -25.1480 C   0  0  0  0  0  0  0  0  0  0  0  0
   -1.9880   23.4130  -27.2980 C   0  0  0  0  0  0  0  0  0  0  0  0
   -2.8090   22.7210  -28.1830 C   0  0  0  0  0  0  0  0  0  0  0  0
   -2.3210   21.5150  -28.9130 C   0  0  0  0  0  0  0  0  0  0  0  0
   -2.1840   20.3450  -28.0060 C   0  0  0  0  0  0  0  0  0  0  0  0
   -3.0720   19.8320  -27.0870 C   0  0  0  0  0  0  0  0  0  0  0  0
   -2.4670   18.7260  -26.4920 C   0  0  0  0  0  0  0  0  0  0  0  0
   -1.2310   18.6440  -27.1030 C   0  0  0  0  0  0  0  0  0  0  0  0
   -1.1000   19.6010  -27.9780 O   0  0  0  0  0  0  0  0  0  0  0  0
   -6.8980   22.2600  -31.1850 C   0  0  0  0  0  0  0  0  0  0  0  0
   -8.2880   22.2930  -31.0910 C   0  0  0  0  0  0  0  0  0  0  0  0
   -9.0410   21.4010  -31.8310 C   0  0  0  0  0  0  0  0  0  0  0  0
   -8.4730   20.4650  -32.6720 C   0  0  0  0  0  0  0  0  0  0  0  0
   -7.0850   20.4400  -32.7600 C   0  0  0  0  0  0  0  0  0  0  0  0
   -6.4860   19.5050  -33.6000 C   0  0  0  0  0  0  0  0  0  0  0  0
   -5.1390   19.4490  -33.7100 N   0  0  0  0  0  0  0  0  0  0  0  0
   -4.3640   20.2900  -33.0160 C   0  0  0  0  0  0  0  0  0  0  0  0
   -4.9340   21.2270  -32.1750 C   0  0  0  0  0  0  0  0  0  0  0  0
   -6.3220   21.3290  -32.0230 C   0  0  0  0  0  0  0  0  0  0  0  0
   -5.5240   24.5970  -27.8660 H   0  0  0  0  0  0  0  0  0  0  0  0
   -0.0742   23.7763  -25.7635 H   0  0  0  0  0  0  0  0  0  0  0  0
    1.4039   24.9704  -24.1972 H   0  0  0  0  0  0  0  0  0  0  0  0
    0.7437   27.1587  -23.1985 H   0  0  0  0  0  0  0  0  0  0  0  0
   -1.4807   28.1151  -23.8451 H   0  0  0  0  0  0  0  0  0  0  0  0
   -2.9442   26.9064  -25.4176 H   0  0  0  0  0  0  0  0  0  0  0  0
   -0.9569   23.0678  -27.1315 H   0  0  0  0  0  0  0  0  0  0  0  0
   -3.0366   21.2666  -29.7106 H   0  0  0  0  0  0  0  0  0  0  0  0
   -1.3299   21.7438  -29.3319 H   0  0  0  0  0  0  0  0  0  0  0  0
   -4.0754   20.2234  -26.8633 H   0  0  0  0  0  0  0  0  0  0  0  0
   -2.8800   18.0682  -25.7131 H   0  0  0  0  0  0  0  0  0  0  0  0
   -0.4685   17.8822  -26.8832 H   0  0  0  0  0  0  0  0  0  0  0  0
   -8.7820   23.0232  -30.4331 H   0  0  0  0  0  0  0  0  0  0  0  0
  -10.1371   21.4384  -31.7465 H   0  0  0  0  0  0  0  0  0  0  0  0
   -9.0944   19.7656  -33.2505 H   0  0  0  0  0  0  0  0  0  0  0  0
   -7.1115   18.8082  -34.1772 H   0  0  0  0  0  0  0  0  0  0  0  0
   -3.2698   20.2356  -33.1150 H   0  0  0  0  0  0  0  0  0  0  0  0
   -4.2810   21.9094  -31.6112 H   0  0  0  0  0  0  0  0  0  0  0  0
  1  2  2  0
  2  3  2  0
  2  4  1  0
  4  5  2  0
  5  6  1  0
  6  7  1  0
  7  8  2  0
  8  9  1  0
  9 10  2  0
 10 11  1  0
 11 12  2  0
 12 13  1  0
 13 14  2  0
  8 15  1  0
 15 16  2  0
 16 17  1  0
 17 18  1  0
 18 19  2  0
 19 20  1  0
 20 21  2  0
 21 22  1  0
  2 23  1  0
 23 24  2  0
 24 25  1  0
 25 26  2  0
 26 27  1  0
 27 28  2  0
 28 29  1  0
 29 30  2  0
 30 31  1  0
 31 32  2  0
 16  5  1  0
 22 18  1  0
 32 23  1  0
 14  9  1  0
 32 27  1  0
  6 33  1  0
 10 34  1  0
 11 35  1  0
 12 36  1  0
 13 37  1  0
 14 38  1  0
 15 39  1  0
 17 40  1  0
 17 41  1  0
 19 42  1  0
 20 43  1  0
 21 44  1  0
 24 45  1  0
 25 46  1  0
 26 47  1  0
 28 48  1  0
 30 49  1  0
 31 50  1  0
M  END
>  <smiles>  (35) 
O=S(=O)(N=c1[nH]nc(-c2ccccc2)cc1Cc1ccco1)c1cccc2cnccc12

>  <score_type>  (35) 
oracle

>  <origin>  (35) 
adg

>  <m_score__min__energy>  (35) 
-10.73

>  <m_primary>  (35) 
energy

$$$$
35:0
     RDKit          3D

 48 50  0  0  0  0  0  0  0  0999 V2000
   -9.4840   20.8720  -31.9280 C   0  0  0  0  0  0  0  0  0  0  0  0
   -8.3320   19.9830  -32.2900 C   0  0  0  0  0  0  0  0  0  0  0  0
   -7.3740   20.4100  -33.2250 C   0  0  0  0  0  0  0  0  0  0  0  0
   -6.2740   19.6020  -33.5250 C   0  0  0  0  0  0  0  0  0  0  0  0
   -6.1070   18.3730  -32.8750 C   0  0  0  0  0  0  0  0  0  0  0  0
   -4.6810   17.3450  -33.2350 S   0  0  0  0  0  0  0  0  0  0  0  0
   -3.7760   18.6060  -34.2110 C   0  0  0  0  0  0  0  0  0  0  0  0
   -2.8440   19.4870  -33.3380 C   0  0  1  0  0  0  0  0  0  0  0  0
   -1.4280   19.5990  -33.9490 C   0  0  0  0  0  0  0  0  0  0  0  0
   -0.6370   20.8220  -33.4250 C   0  0  1  0  0  0  0  0  0  0  0  0
   -0.6940   21.8770  -34.3510 O   0  0  0  0  0  0  0  0  0  0  0  0
   -1.1980   21.3080  -32.0800 C   0  0  0  0  0  0  0  0  0  0  0  0
   -2.6220   21.7210  -32.1810 N   0  0  0  0  0  0  0  0  0  0  0  0
   -3.2590   21.7700  -30.8460 C   0  0  0  0  0  0  0  0  0  0  0  0
   -4.3910   22.7650  -30.8230 C   0  0  0  0  0  0  0  0  0  0  0  0
   -4.1530   24.0890  -30.4200 C   0  0  0  0  0  0  0  0  0  0  0  0
   -5.2040   25.0110  -30.3750 C   0  0  0  0  0  0  0  0  0  0  0  0
   -6.4980   24.6150  -30.7270 C   0  0  0  0  0  0  0  0  0  0  0  0
   -6.7420   23.2970  -31.1230 C   0  0  0  0  0  0  0  0  0  0  0  0
   -5.6950   22.3730  -31.1690 C   0  0  0  0  0  0  0  0  0  0  0  0
   -3.4220   20.9060  -33.1350 C   0  0  0  0  0  0  0  0  0  0  0  0
   -7.0610   17.9420  -31.9460 C   0  0  0  0  0  0  0  0  0  0  0  0
   -8.1640   18.7470  -31.6470 C   0  0  0  0  0  0  0  0  0  0  0  0
   -9.5675   20.9364  -30.8331 H   0  0  0  0  0  0  0  0  0  0  0  0
   -9.3161   21.8769  -32.3427 H   0  0  0  0  0  0  0  0  0  0  0  0
  -10.4135   20.4548  -32.3427 H   0  0  0  0  0  0  0  0  0  0  0  0
   -7.4903   21.3840  -33.7227 H   0  0  0  0  0  0  0  0  0  0  0  0
   -5.5381   19.9320  -34.2730 H   0  0  0  0  0  0  0  0  0  0  0  0
   -3.1659   18.0926  -34.9688 H   0  0  0  0  0  0  0  0  0  0  0  0
   -4.5241   19.2691  -34.6701 H   0  0  0  0  0  0  0  0  0  0  0  0
   -2.7743   18.9872  -32.3606 H   0  0  0  0  0  0  0  0  0  0  0  0
   -0.8664   18.6862  -33.7013 H   0  0  0  0  0  0  0  0  0  0  0  0
   -1.5479   19.7260  -35.0350 H   0  0  0  0  0  0  0  0  0  0  0  0
    0.4075   20.5062  -33.2859 H   0  0  0  0  0  0  0  0  0  0  0  0
   -1.5870   22.2990  -34.2510 H   0  0  0  0  0  0  0  0  0  0  0  0
   -1.1172   20.4918  -31.3470 H   0  0  0  0  0  0  0  0  0  0  0  0
   -0.6134   22.1861  -31.7682 H   0  0  0  0  0  0  0  0  0  0  0  0
   -3.6517   20.7728  -30.5981 H   0  0  0  0  0  0  0  0  0  0  0  0
   -2.5041   22.0814  -30.1091 H   0  0  0  0  0  0  0  0  0  0  0  0
   -3.1367   24.4021  -30.1388 H   0  0  0  0  0  0  0  0  0  0  0  0
   -5.0124   26.0481  -30.0625 H   0  0  0  0  0  0  0  0  0  0  0  0
   -7.3239   25.3407  -30.6923 H   0  0  0  0  0  0  0  0  0  0  0  0
   -7.7605   22.9865  -31.3990 H   0  0  0  0  0  0  0  0  0  0  0  0
   -5.8923   21.3356  -31.4770 H   0  0  0  0  0  0  0  0  0  0  0  0
   -4.4474   20.8161  -32.7472 H   0  0  0  0  0  0  0  0  0  0  0  0
   -3.3987   21.4167  -34.1090 H   0  0  0  0  0  0  0  0  0  0  0  0
   -6.9425   16.9674  -31.4499 H   0  0  0  0  0  0  0  0  0  0  0  0
   -8.9030   18.4104  -30.9050 H   0  0  0  0  0  0  0  0  0  0  0  0
  1  2  1  0
  2  3  2  0
  3  4  1  0
  4  5  2  0
  5  6  1  0
  6  7  1  0
  7  8  1  0
  8  9  1  0
  9 10  1  0
 10 11  1  0
 10 12  1  0
 12 13  1  0
 13 14  1  0
 14 15  1  0
 15 16  2  0
 16 17  1  0
 17 18  2  0
 18 19  1  0
 19 20  2  0
 13 21  1  0
  5 22  1  0
 22 23  2  0
 23  2  1  0
 21  8  1  0
 20 15  1  0
  1 24  1  0
  1 25  1  0
  1 26  1  0
  3 27  1  0
  4 28  1  0
  7 29  1  0
  7 30  1  0
  8 31  1  1
  9 32  1  0
  9 33  1  0
 10 34  1  1
 11 35  1  0
 12 36  1  0
 12 37  1  0
 14 38  1  0
 14 39  1  0
 16 40  1  0
 17 41  1  0
 18 42  1  0
 19 43  1  0
 20 44  1  0
 21 45  1  0
 21 46  1  0
 22 47  1  0
 23 48  1  0
M  END
>  <UniqueID>  (36) 
32

>  <SMILES>  (36) 
Cc1ccc(SC[C@H]2C[C@@H](O)CN(Cc3ccccc3)C2)cc1

>  <Energy>  (36) 
53.89385408999635

>  <Genealogy>  (36) 
Cc1ccc(SC[C@H]2C[C@@H](O)CN(Cc3ccccc3)C2)cc1 (chirality)
Cc1ccc(SC[C@H]2C[C@@H](O)CN(Cc3ccccc3)C2)cc1 (3D coordinates assigned)
Cc1ccc(SC[C@H]2C[C@@H](O)CN(Cc3ccccc3)C2)cc1 (nonaromatic ring conformer: 53.89385408999635 kcal/mol)

>  <smiles>  (36) 
Cc1ccc(SCC2CC(O)CN(Cc3ccccc3)C2)cc1

>  <score_type>  (36) 
oracle

>  <origin>  (36) 
adg

>  <m_score__min__energy>  (36) 
-9.25

>  <m_primary>  (36) 
energy

$$$$
36:0
     RDKit          3D

 21 21  0  0  0  0  0  0  0  0999 V2000
   -8.6950   20.8600  -31.4160 C   0  0  0  0  0  0  0  0  0  0  0  0
   -8.4050   22.1970  -31.8110 O   0  0  0  0  0  0  0  0  0  0  0  0
   -7.2140   22.8720  -31.5050 C   0  0  0  0  0  0  0  0  0  0  0  0
   -5.9520   22.3930  -31.9020 C   0  0  0  0  0  0  0  0  0  0  0  0
   -4.7910   23.1030  -31.5720 C   0  0  0  0  0  0  0  0  0  0  0  0
   -4.8770   24.3020  -30.8430 C   0  0  0  0  0  0  0  0  0  0  0  0
   -3.7160   25.0620  -30.4840 N   0  0  0  0  0  0  0  0  0  0  0  0
   -2.5130   24.5670  -29.3380 S   0  0  0  0  0  0  0  0  0  0  0  0
   -1.6010   25.9500  -28.8470 N   0  0  0  0  0  0  0  0  0  0  0  0
   -1.5880   23.5640  -29.9720 O   0  0  0  0  0  0  0  0  0  0  0  0
   -3.1760   23.9600  -28.1330 O   0  0  0  0  0  0  0  0  0  0  0  0
   -6.1360   24.7750  -30.4510 C   0  0  0  0  0  0  0  0  0  0  0  0
   -7.2940   24.0660  -30.7790 C   0  0  0  0  0  0  0  0  0  0  0  0
   -8.7087   20.7969  -30.3179 H   0  0  0  0  0  0  0  0  0  0  0  0
   -9.6779   20.5655  -31.8125 H   0  0  0  0  0  0  0  0  0  0  0  0
   -7.9224   20.1848  -31.8125 H   0  0  0  0  0  0  0  0  0  0  0  0
   -5.8770   21.4565  -32.4742 H   0  0  0  0  0  0  0  0  0  0  0  0
   -3.8079   22.7211  -31.8844 H   0  0  0  0  0  0  0  0  0  0  0  0
   -1.2370   26.4000  -29.7180 H   0  0  0  0  0  0  0  0  0  0  0  0
   -6.2133   25.7122  -29.8803 H   0  0  0  0  0  0  0  0  0  0  0  0
   -8.2761   24.4489  -30.4644 H   0  0  0  0  0  0  0  0  0  0  0  0
  1  2  1  0
  2  3  1  0
  3  4  2  0
  4  5  1  0
  5  6  2  0
  6  7  1  0
  7  8  1  0
  8  9  1  0
  8 10  2  0
  8 11  2  0
  6 12  1  0
 12 13  2  0
 13  3  1  0
  1 14  1  0
  1 15  1  0
  1 16  1  0
  4 17  1  0
  5 18  1  0
  9 19  1  0
 12 20  1  0
 13 21  1  0
M  CHG  2   7  -1   9  -1
M  END
>  <UniqueID>  (37) 
33

>  <SMILES>  (37) 
COc1ccc([N-]S([NH-])(=O)=O)cc1

>  <Energy>  (37) 
19.86602867031902

>  <Genealogy>  (37) 
COc1ccc([N-]S([NH-])(=O)=O)cc1 (protonated)
COc1ccc([N-]S([NH-])(=O)=O)cc1 (3D coordinates assigned)
COc1ccc([N-]S([NH-])(=O)=O)cc1 (optimized conformer: 19.86602867031902 kcal/mol)

>  <smiles>  (37) 
COc1ccc(NS(N)(=O)=O)cc1

>  <score_type>  (37) 
oracle

>  <origin>  (37) 
adg

>  <m_score__min__energy>  (37) 
-9.0899999999999999

>  <m_primary>  (37) 
energy

$$$$
37:0
     RDKit          3D

 47 51  0  0  0  0  0  0  0  0999 V2000
   -8.3750   22.5170  -31.9670 C   0  0  0  0  0  0  0  0  0  0  0  0
   -6.9620   22.9470  -31.6900 C   0  0  0  0  0  0  0  0  0  0  0  0
   -6.7660   24.1520  -30.9800 C   0  0  0  0  0  0  0  0  0  0  0  0
   -5.4620   24.6040  -30.7250 C   0  0  0  0  0  0  0  0  0  0  0  0
   -5.2800   25.6750  -30.0900 O   0  0  0  0  0  0  0  0  0  0  0  0
   -4.3930   23.8910  -31.1640 N   0  0  0  0  0  0  0  0  0  0  0  0
   -4.6030   22.7430  -31.8480 C   0  0  0  0  0  0  0  0  0  0  0  0
   -3.6560   21.8960  -32.3550 C   0  0  0  0  0  0  0  0  0  0  0  0
   -2.2650   21.9190  -32.3300 C   0  0  0  0  0  0  0  0  0  0  0  0
   -1.5890   20.8430  -32.9320 C   0  0  0  0  0  0  0  0  0  0  0  0
   -2.3120   19.7850  -33.5260 C   0  0  0  0  0  0  0  0  0  0  0  0
   -3.7200   19.7930  -33.5300 C   0  0  0  0  0  0  0  0  0  0  0  0
   -4.3740   20.8820  -32.9380 C   0  0  0  0  0  0  0  0  0  0  0  0
   -5.7100   21.1110  -32.7930 N   0  0  0  0  0  0  0  0  0  0  0  0
   -6.7680   20.1980  -33.2580 C   0  0  0  0  0  0  0  0  0  0  0  0
   -6.3790   18.7440  -33.1200 C   0  0  0  0  0  0  0  0  0  0  0  0
   -6.1320   17.9890  -34.2780 C   0  0  0  0  0  0  0  0  0  0  0  0
   -5.7340   16.6530  -34.1850 C   0  0  0  0  0  0  0  0  0  0  0  0
   -5.5520   16.0480  -32.9300 C   0  0  0  0  0  0  0  0  0  0  0  0
   -5.1310   14.6270  -32.8290 C   0  0  0  0  0  0  0  0  0  0  0  0
   -5.2900   13.7540  -33.9200 C   0  0  0  0  0  0  0  0  0  0  0  0
   -4.8910   12.4170  -33.8230 C   0  0  0  0  0  0  0  0  0  0  0  0
   -4.3330   11.9370  -32.6370 C   0  0  0  0  0  0  0  0  0  0  0  0
   -4.1700   12.7930  -31.5460 C   0  0  0  0  0  0  0  0  0  0  0  0
   -4.5650   14.1310  -31.6380 C   0  0  0  0  0  0  0  0  0  0  0  0
   -5.7710   16.8130  -31.7700 C   0  0  0  0  0  0  0  0  0  0  0  0
   -6.1700   18.1480  -31.8640 C   0  0  0  0  0  0  0  0  0  0  0  0
   -5.8420   22.2620  -32.1130 N   0  0  0  0  0  0  0  0  0  0  0  0
   -8.9027   22.3564  -31.0153 H   0  0  0  0  0  0  0  0  0  0  0  0
   -8.8898   23.2991  -32.5442 H   0  0  0  0  0  0  0  0  0  0  0  0
   -8.3668   21.5807  -32.5442 H   0  0  0  0  0  0  0  0  0  0  0  0
   -7.6311   24.7334  -30.6286 H   0  0  0  0  0  0  0  0  0  0  0  0
   -1.7156   22.7467  -31.8577 H   0  0  0  0  0  0  0  0  0  0  0  0
   -0.4892   20.8251  -32.9404 H   0  0  0  0  0  0  0  0  0  0  0  0
   -1.7703   18.9474  -33.9896 H   0  0  0  0  0  0  0  0  0  0  0  0
   -4.2897   18.9690  -33.9843 H   0  0  0  0  0  0  0  0  0  0  0  0
   -7.6759   20.3783  -32.6637 H   0  0  0  0  0  0  0  0  0  0  0  0
   -6.9375   20.3989  -34.3261 H   0  0  0  0  0  0  0  0  0  0  0  0
   -6.2530   18.4538  -35.2676 H   0  0  0  0  0  0  0  0  0  0  0  0
   -5.5617   16.0700  -35.1018 H   0  0  0  0  0  0  0  0  0  0  0  0
   -5.7314   14.1254  -34.8566 H   0  0  0  0  0  0  0  0  0  0  0  0
   -5.0171   11.7426  -34.6828 H   0  0  0  0  0  0  0  0  0  0  0  0
   -4.0218   10.8846  -32.5619 H   0  0  0  0  0  0  0  0  0  0  0  0
   -3.7298   12.4138  -30.6120 H   0  0  0  0  0  0  0  0  0  0  0  0
   -4.4331   14.8005  -30.7752 H   0  0  0  0  0  0  0  0  0  0  0  0
   -5.6267   16.3556  -30.7801 H   0  0  0  0  0  0  0  0  0  0  0  0
   -6.3220   18.7379  -30.9481 H   0  0  0  0  0  0  0  0  0  0  0  0
  1  2  1  0
  2  3  2  0
  3  4  1  0
  4  5  2  0
  4  6  1  0
  6  7  2  0
  7  8  1  0
  8  9  2  0
  9 10  1  0
 10 11  2  0
 11 12  1  0
 12 13  2  0
 13 14  1  0
 14 15  1  0
 15 16  1  0
 16 17  2  0
 17 18  1  0
 18 19  2  0
 19 20  1  0
 20 21  2  0
 21 22  1  0
 22 23  2  0
 23 24  1  0
 24 25  2  0
 19 26  1  0
 26 27  2  0
 14 28  1  0
 28  2  1  0
 28  7  1  0
 13  8  1  0
 27 16  1  0
 25 20  1  0
  1 29  1  0
  1 30  1  0
  1 31  1  0
  3 32  1  0
  9 33  1  0
 10 34  1  0
 11 35  1  0
 12 36  1  0
 15 37  1  0
 15 38  1  0
 17 39  1  0
 18 40  1  0
 21 41  1  0
 22 42  1  0
 23 43  1  0
 24 44  1  0
 25 45  1  0
 26 46  1  0
 27 47  1  0
M  END
>  <UniqueID>  (38) 
34

>  <SMILES>  (38) 
Cc1cc(=O)nc2c3ccccc3n(Cc3ccc(-c4ccccc4)cc3)n12

>  <Energy>  (38) 
114.05315091959902

>  <Genealogy>  (38) 
Cc1cc(=O)nc2c3ccccc3n(Cc3ccc(-c4ccccc4)cc3)n12 (3D coordinates assigned)
Cc1cc(=O)nc2c3ccccc3n(Cc3ccc(-c4ccccc4)cc3)n12 (optimized conformer: 114.05315091959902 kcal/mol)

>  <smiles>  (38) 
Cc1cc(=O)nc2c3ccccc3n(Cc3ccc(-c4ccccc4)cc3)n12

>  <score_type>  (38) 
oracle

>  <origin>  (38) 
adg

>  <m_score__min__energy>  (38) 
-9.7799999999999994

>  <m_primary>  (38) 
energy

$$$$
38:0
     RDKit          3D

 34 36  0  0  0  0  0  0  0  0999 V2000
   -4.7830   19.9470  -31.6040 C   0  0  0  0  0  0  0  0  0  0  0  0
   -5.6320   20.8560  -32.5130 C   0  0  1  0  0  0  0  0  0  0  0  0
   -6.6150   20.0640  -33.4390 C   0  0  1  0  0  0  0  0  0  0  0  0
   -6.2280   18.6320  -33.7420 C   0  0  0  0  0  0  0  0  0  0  0  0
   -6.9070   17.5480  -33.1510 C   0  0  0  0  0  0  0  0  0  0  0  0
   -6.5080   16.2360  -33.4200 C   0  0  0  0  0  0  0  0  0  0  0  0
   -5.4250   15.9910  -34.2700 C   0  0  0  0  0  0  0  0  0  0  0  0
   -4.7390   17.0600  -34.8500 C   0  0  0  0  0  0  0  0  0  0  0  0
   -5.1340   18.3740  -34.5840 C   0  0  0  0  0  0  0  0  0  0  0  0
   -7.8730   20.1480  -32.7840 O   0  0  0  0  0  0  0  0  0  0  0  0
   -7.8090   21.1150  -31.8060 C   0  0  0  0  0  0  0  0  0  0  0  0
   -8.7740   21.3730  -31.0410 O   0  0  0  0  0  0  0  0  0  0  0  0
   -6.5130   21.6880  -31.6830 N   0  0  0  0  0  0  0  0  0  0  0  0
   -6.1760   22.9870  -31.1300 C   0  0  0  0  0  0  0  0  0  0  0  0
   -7.1850   23.8340  -30.6250 C   0  0  0  0  0  0  0  0  0  0  0  0
   -6.8660   25.0860  -30.0880 C   0  0  0  0  0  0  0  0  0  0  0  0
   -5.5390   25.5080  -30.0350 C   0  0  0  0  0  0  0  0  0  0  0  0
   -4.5250   24.6750  -30.5070 C   0  0  0  0  0  0  0  0  0  0  0  0
   -4.8350   23.4240  -31.0440 C   0  0  0  0  0  0  0  0  0  0  0  0
   -4.9986   20.1779  -30.5503 H   0  0  0  0  0  0  0  0  0  0  0  0
   -5.0285   18.8940  -31.8063 H   0  0  0  0  0  0  0  0  0  0  0  0
   -3.7157   20.1201  -31.8063 H   0  0  0  0  0  0  0  0  0  0  0  0
   -4.9077   21.4228  -33.1164 H   0  0  0  0  0  0  0  0  0  0  0  0
   -6.6127   20.5127  -34.4433 H   0  0  0  0  0  0  0  0  0  0  0  0
   -7.7545   17.7352  -32.4752 H   0  0  0  0  0  0  0  0  0  0  0  0
   -7.0473   15.3938  -32.9619 H   0  0  0  0  0  0  0  0  0  0  0  0
   -5.1138   14.9573  -34.4815 H   0  0  0  0  0  0  0  0  0  0  0  0
   -3.8861   16.8676  -35.5175 H   0  0  0  0  0  0  0  0  0  0  0  0
   -4.5842   19.2120  -35.0373 H   0  0  0  0  0  0  0  0  0  0  0  0
   -8.2346   23.5063  -30.6538 H   0  0  0  0  0  0  0  0  0  0  0  0
   -7.6649   25.7390  -29.7066 H   0  0  0  0  0  0  0  0  0  0  0  0
   -5.2916   26.4968  -29.6214 H   0  0  0  0  0  0  0  0  0  0  0  0
   -3.4769   25.0048  -30.4560 H   0  0  0  0  0  0  0  0  0  0  0  0
   -4.0262   22.7713  -31.4042 H   0  0  0  0  0  0  0  0  0  0  0  0
  1  2  1  0
  2  3  1  0
  3  4  1  0
  4  5  2  0
  5  6  1  0
  6  7  2  0
  7  8  1  0
  8  9  2  0
  3 10  1  0
 10 11  1  0
 11 12  2  0
 11 13  1  0
 13 14  1  0
 14 15  2  0
 15 16  1  0
 16 17  2  0
 17 18  1  0
 18 19  2  0
 13  2  1  0
 19 14  1  0
  9  4  1  0
  1 20  1  0
  1 21  1  0
  1 22  1  0
  2 23  1  6
  3 24  1  6
  5 25  1  0
  6 26  1  0
  7 27  1  0
  8 28  1  0
  9 29  1  0
 15 30  1  0
 16 31  1  0
 17 32  1  0
 18 33  1  0
 19 34  1  0
M  END
>  <UniqueID>  (39) 
35

>  <SMILES>  (39) 
C[C@H]1[C@@H](c2ccccc2)OC(=O)N1c1ccccc1

>  <Energy>  (39) 
59.15403887081658

>  <Genealogy>  (39) 
C[C@H]1[C@@H](c2ccccc2)OC(=O)N1c1ccccc1 (chirality)
C[C@H]1[C@@H](c2ccccc2)OC(=O)N1c1ccccc1 (3D coordinates assigned)
C[C@H]1[C@@H](c2ccccc2)OC(=O)N1c1ccccc1 (nonaromatic ring conformer: 59.15403887081658 kcal/mol)

>  <smiles>  (39) 
CC1C(c2ccccc2)OC(=O)N1c1ccccc1

>  <score_type>  (39) 
oracle

>  <origin>  (39) 
adg

>  <m_score__min__energy>  (39) 
-7.0599999999999996

>  <m_primary>  (39) 
energy

$$$$
39:0
     RDKit          3D

 55 57  0  0  0  0  0  0  0  0999 V2000
   -9.4870   19.5770  -32.6580 C   0  0  0  0  0  0  0  0  0  0  0  0
   -8.4720   18.9210  -31.7220 C   0  0  0  0  0  0  0  0  0  0  0  0
   -7.0790   19.1480  -32.1770 N   0  0  0  0  0  0  0  0  0  0  0  0
   -6.5130   17.9250  -32.7910 C   0  0  0  0  0  0  0  0  0  0  0  0
   -5.9410   18.2040  -34.1820 C   0  0  0  0  0  0  0  0  0  0  0  0
   -6.9210   20.3650  -33.0190 C   0  0  0  0  0  0  0  0  0  0  0  0
   -6.5770   21.6250  -32.2490 C   0  0  0  0  0  0  0  0  0  0  0  0
   -7.5400   22.2510  -31.4390 C   0  0  0  0  0  0  0  0  0  0  0  0
   -7.2200   23.4050  -30.7190 C   0  0  0  0  0  0  0  0  0  0  0  0
   -5.9300   23.9510  -30.7940 C   0  0  0  0  0  0  0  0  0  0  0  0
   -5.5730   25.1730  -29.9860 C   0  0  0  0  0  0  0  0  0  0  0  0
   -5.3170   24.8060  -28.5820 N   0  0  0  0  0  0  0  0  0  0  0  0
   -4.0450   24.0680  -28.4110 C   0  0  1  0  0  0  0  0  0  0  0  0
   -3.3050   24.5830  -27.1620 C   0  0  0  0  0  0  0  0  0  0  0  0
   -1.9220   23.9400  -27.0480 C   0  0  0  0  0  0  0  0  0  0  0  0
   -1.9750   22.4380  -27.1720 C   0  0  0  0  0  0  0  0  0  0  0  0
   -0.8790   21.6810  -26.7270 C   0  0  0  0  0  0  0  0  0  0  0  0
   -0.8680   20.2930  -26.8790 C   0  0  0  0  0  0  0  0  0  0  0  0
   -1.9450   19.6480  -27.4870 C   0  0  0  0  0  0  0  0  0  0  0  0
   -3.0350   20.3900  -27.9480 C   0  0  0  0  0  0  0  0  0  0  0  0
   -3.0550   21.7880  -27.8140 C   0  0  0  0  0  0  0  0  0  0  0  0
   -4.2810   22.5440  -28.2720 C   0  0  0  0  0  0  0  0  0  0  0  0
   -4.9550   23.3070  -31.5710 C   0  0  0  0  0  0  0  0  0  0  0  0
   -5.2760   22.1540  -32.2910 C   0  0  0  0  0  0  0  0  0  0  0  0
  -10.2638   20.0791  -32.0626 H   0  0  0  0  0  0  0  0  0  0  0  0
   -8.9763   20.3163  -33.2925 H   0  0  0  0  0  0  0  0  0  0  0  0
   -9.9513   18.8077  -33.2925 H   0  0  0  0  0  0  0  0  0  0  0  0
   -8.5911   19.3446  -30.7139 H   0  0  0  0  0  0  0  0  0  0  0  0
   -8.6592   17.8371  -31.7190 H   0  0  0  0  0  0  0  0  0  0  0  0
   -5.7094   17.5409  -32.1454 H   0  0  0  0  0  0  0  0  0  0  0  0
   -7.3219   17.1868  -32.8942 H   0  0  0  0  0  0  0  0  0  0  0  0
   -4.9563   18.6843  -34.0839 H   0  0  0  0  0  0  0  0  0  0  0  0
   -5.8340   17.2569  -34.7312 H   0  0  0  0  0  0  0  0  0  0  0  0
   -6.6214   18.8714  -34.7312 H   0  0  0  0  0  0  0  0  0  0  0  0
   -6.1173   20.1771  -33.7462 H   0  0  0  0  0  0  0  0  0  0  0  0
   -7.8975   20.5456  -33.4922 H   0  0  0  0  0  0  0  0  0  0  0  0
   -8.5536   21.8291  -31.3713 H   0  0  0  0  0  0  0  0  0  0  0  0
   -7.9831   23.8875  -30.0906 H   0  0  0  0  0  0  0  0  0  0  0  0
   -4.6696   25.6361  -30.4097 H   0  0  0  0  0  0  0  0  0  0  0  0
   -6.4139   25.8812  -30.0212 H   0  0  0  0  0  0  0  0  0  0  0  0
   -5.2690   25.6900  -28.0200 H   0  0  0  0  0  0  0  0  0  0  0  0
   -6.1160   24.2330  -28.2200 H   0  0  0  0  0  0  0  0  0  0  0  0
   -3.4363   24.2415  -29.3107 H   0  0  0  0  0  0  0  0  0  0  0  0
   -3.1905   25.6746  -27.2349 H   0  0  0  0  0  0  0  0  0  0  0  0
   -3.8918   24.3189  -26.2699 H   0  0  0  0  0  0  0  0  0  0  0  0
   -1.2802   24.3382  -27.8477 H   0  0  0  0  0  0  0  0  0  0  0  0
   -1.5210   24.1806  -26.0524 H   0  0  0  0  0  0  0  0  0  0  0  0
   -0.0228   22.1853  -26.2552 H   0  0  0  0  0  0  0  0  0  0  0  0
   -0.0091   19.7076  -26.5189 H   0  0  0  0  0  0  0  0  0  0  0  0
   -1.9360   18.5542  -27.6035 H   0  0  0  0  0  0  0  0  0  0  0  0
   -3.8848   19.8751  -28.4199 H   0  0  0  0  0  0  0  0  0  0  0  0
   -4.5899   22.1479  -29.2506 H   0  0  0  0  0  0  0  0  0  0  0  0
   -5.0560   22.4033  -27.5042 H   0  0  0  0  0  0  0  0  0  0  0  0
   -3.9332   23.7121  -31.6132 H   0  0  0  0  0  0  0  0  0  0  0  0
   -4.5039   21.6560  -32.8959 H   0  0  0  0  0  0  0  0  0  0  0  0
  1  2  1  0
  2  3  1  0
  3  4  1  0
  4  5  1  0
  3  6  1  0
  6  7  1  0
  7  8  2  0
  8  9  1  0
  9 10  2  0
 10 11  1  0
 11 12  1  0
 12 13  1  0
 13 14  1  0
 14 15  1  0
 15 16  1  0
 16 17  2  0
 17 18  1  0
 18 19  2  0
 19 20  1  0
 20 21  2  0
 21 22  1  0
 10 23  1  0
 23 24  2  0
 24  7  1  0
 22 13  1  0
 21 16  1  0
  1 25  1  0
  1 26  1  0
  1 27  1  0
  2 28  1  0
  2 29  1  0
  4 30  1  0
  4 31  1  0
  5 32  1  0
  5 33  1  0
  5 34  1  0
  6 35  1  0
  6 36  1  0
  8 37  1  0
  9 38  1  0
 11 39  1  0
 11 40  1  0
 12 41  1  0
 12 42  1  0
 13 43  1  6
 14 44  1  0
 14 45  1  0
 15 46  1  0
 15 47  1  0
 17 48  1  0
 18 49  1  0
 19 50  1  0
 20 51  1  0
 22 52  1  0
 22 53  1  0
 23 54  1  0
 24 55  1  0
M  CHG  1  12   1
M  END
>  <UniqueID>  (40) 
36

>  <SMILES>  (40) 
CCN(CC)Cc1ccc(C[NH2+][C@H]2CCc3ccccc3C2)cc1

>  <Energy>  (40) 
58.948450774165316

>  <Genealogy>  (40) 
CCN(CC)Cc1ccc(C[NH2+]C2CCc3ccccc3C2)cc1 (protonated)
CCN(CC)Cc1ccc(C[NH2+][C@H]2CCc3ccccc3C2)cc1 (chirality)
CCN(CC)Cc1ccc(C[NH2+][C@H]2CCc3ccccc3C2)cc1 (3D coordinates assigned)
CCN(CC)Cc1ccc(C[NH2+][C@H]2CCc3ccccc3C2)cc1 (nonaromatic ring conformer: 58.948450774165316 kcal/mol)

>  <smiles>  (40) 
CCN(CC)Cc1ccc(CNC2CCc3ccccc3C2)cc1

>  <score_type>  (40) 
oracle

>  <origin>  (40) 
adg

>  <m_score__min__energy>  (40) 
-8.3100000000000005

>  <m_primary>  (40) 
energy

$$$$
40:0
     RDKit          3D

 48 51  0  0  0  0  0  0  0  0999 V2000
   -1.2290   20.8390  -33.0860 C   0  0  0  0  0  0  0  0  0  0  0  0
   -2.2050   19.9730  -32.5150 O   0  0  0  0  0  0  0  0  0  0  0  0
   -3.1240   19.2110  -33.2520 C   0  0  0  0  0  0  0  0  0  0  0  0
   -2.7660   17.9740  -33.8240 C   0  0  0  0  0  0  0  0  0  0  0  0
   -3.6840   17.2570  -34.5940 C   0  0  0  0  0  0  0  0  0  0  0  0
   -4.9640   17.7650  -34.8080 C   0  0  0  0  0  0  0  0  0  0  0  0
   -5.3370   18.9840  -34.2420 C   0  0  0  0  0  0  0  0  0  0  0  0
   -4.4340   19.7070  -33.4450 C   0  0  0  0  0  0  0  0  0  0  0  0
   -4.8770   20.9880  -32.8490 C   0  0  0  0  0  0  0  0  0  0  0  0
   -4.1670   22.1290  -32.9630 N   0  0  0  0  0  0  0  0  0  0  0  0
   -4.8810   23.0700  -32.3660 N   0  0  0  0  0  0  0  0  0  0  0  0
   -6.0050   22.5080  -31.8940 C   0  0  0  0  0  0  0  0  0  0  0  0
   -7.3420   23.4540  -31.1520 S   0  0  0  0  0  0  0  0  0  0  0  0
   -6.3930   24.0380  -29.7020 C   0  0  0  0  0  0  0  0  0  0  0  0
   -5.5700   25.2570  -30.0340 C   0  0  0  0  0  0  0  0  0  0  0  0
   -6.1400   26.3800  -29.9930 O   0  0  0  0  0  0  0  0  0  0  0  0
   -4.2150   25.2070  -30.5210 N   0  0  0  0  0  0  0  0  0  0  0  0
   -3.1980   24.5190  -30.0850 C   0  0  0  0  0  0  0  0  0  0  0  0
   -3.0910   23.2100  -30.4370 N   0  0  0  0  0  0  0  0  0  0  0  0
   -2.0590   22.4440  -29.9960 C   0  0  0  0  0  0  0  0  0  0  0  0
   -1.0800   23.0020  -29.1760 C   0  0  0  0  0  0  0  0  0  0  0  0
   -1.1900   24.3490  -28.8390 C   0  0  0  0  0  0  0  0  0  0  0  0
   -2.2410   25.0770  -29.2970 N   0  0  0  0  0  0  0  0  0  0  0  0
   -6.0450   21.1920  -32.1890 N   0  0  0  0  0  0  0  0  0  0  0  0
   -7.1880   20.3230  -32.1250 C   0  0  0  0  0  0  0  0  0  0  0  0
   -7.0660   19.0210  -31.6140 C   0  0  0  0  0  0  0  0  0  0  0  0
   -8.1750   18.1700  -31.5810 C   0  0  0  0  0  0  0  0  0  0  0  0
   -9.4120   18.6130  -32.0580 C   0  0  0  0  0  0  0  0  0  0  0  0
   -9.5410   19.9060  -32.5710 C   0  0  0  0  0  0  0  0  0  0  0  0
   -8.4340   20.7590  -32.6060 C   0  0  0  0  0  0  0  0  0  0  0  0
   -0.6667   21.3379  -32.2829 H   0  0  0  0  0  0  0  0  0  0  0  0
   -0.5371   20.2522  -33.7080 H   0  0  0  0  0  0  0  0  0  0  0  0
   -1.7293   21.5958  -33.7080 H   0  0  0  0  0  0  0  0  0  0  0  0
   -1.7556   17.5701  -33.6627 H   0  0  0  0  0  0  0  0  0  0  0  0
   -3.3965   16.2899  -35.0323 H   0  0  0  0  0  0  0  0  0  0  0  0
   -5.6815   17.2035  -35.4244 H   0  0  0  0  0  0  0  0  0  0  0  0
   -6.3465   19.3825  -34.4212 H   0  0  0  0  0  0  0  0  0  0  0  0
   -4.6120   24.0770  -32.3170 H   0  0  0  0  0  0  0  0  0  0  0  0
   -7.0949   24.2901  -28.8935 H   0  0  0  0  0  0  0  0  0  0  0  0
   -5.7092   23.2345  -29.3909 H   0  0  0  0  0  0  0  0  0  0  0  0
   -1.9963   21.3847  -30.2859 H   0  0  0  0  0  0  0  0  0  0  0  0
   -0.2418   22.3942  -28.8044 H   0  0  0  0  0  0  0  0  0  0  0  0
   -0.4272   24.8221  -28.2032 H   0  0  0  0  0  0  0  0  0  0  0  0
   -6.0940   18.6689  -31.2381 H   0  0  0  0  0  0  0  0  0  0  0  0
   -8.0739   17.1510  -31.1793 H   0  0  0  0  0  0  0  0  0  0  0  0
  -10.2842   17.9433  -32.0294 H   0  0  0  0  0  0  0  0  0  0  0  0
  -10.5144   20.2532  -32.9477 H   0  0  0  0  0  0  0  0  0  0  0  0
   -8.5389   21.7760  -33.0119 H   0  0  0  0  0  0  0  0  0  0  0  0
  1  2  1  0
  2  3  1  0
  3  4  2  0
  4  5  1  0
  5  6  2  0
  6  7  1  0
  7  8  2  0
  8  9  1  0
  9 10  2  0
 10 11  1  0
 11 12  2  0
 12 13  1  0
 13 14  1  0
 14 15  1  0
 15 16  2  0
 15 17  1  0
 17 18  2  3
 18 19  1  0
 19 20  2  0
 20 21  1  0
 21 22  2  0
 22 23  1  0
 12 24  1  0
 24 25  1  0
 25 26  2  0
 26 27  1  0
 27 28  2  0
 28 29  1  0
 29 30  2  0
  8  3  1  0
 24  9  1  0
 30 25  1  0
 23 18  1  0
  1 31  1  0
  1 32  1  0
  1 33  1  0
  4 34  1  0
  5 35  1  0
  6 36  1  0
  7 37  1  0
 11 38  1  0
 14 39  1  0
 14 40  1  0
 20 41  1  0
 21 42  1  0
 22 43  1  0
 26 44  1  0
 27 45  1  0
 28 46  1  0
 29 47  1  0
 30 48  1  0
M  CHG  2  11   1  23  -1
M  END
>  <UniqueID>  (41) 
37

>  <SMILES>  (41) 
COc1ccccc1-c1n[nH+]c(SCC(=O)N=c2nccc[n-]2)n1-c1ccccc1

>  <Energy>  (41) 
97.86778571568561

>  <Genealogy>  (41) 
COc1ccccc1-c1n[nH+]c(SCC(=O)N=c2nccc[n-]2)n1-c1ccccc1 (protonated)
COc1ccccc1-c1n[nH+]c(SCC(=O)N=c2nccc[n-]2)n1-c1ccccc1 (3D coordinates assigned)
COc1ccccc1-c1n[nH+]c(SCC(=O)N=c2nccc[n-]2)n1-c1ccccc1 (optimized conformer: 97.86778571568561 kcal/mol)

>  <smiles>  (41) 
COc1ccccc1-c1nnc(SCC(=O)N=c2nccc[nH]2)n1-c1ccccc1

>  <score_type>  (41) 
oracle

>  <origin>  (41) 
adg

>  <m_score__min__energy>  (41) 
-10.31

>  <m_primary>  (41) 
energy

$$$$
41:0
     RDKit          3D

 34 35  0  0  0  0  0  0  0  0999 V2000
   -8.8280   22.2080  -31.5880 C   0  0  0  0  0  0  0  0  0  0  0  0
   -7.6220   22.8400  -32.2780 C   0  0  0  0  0  0  0  0  0  0  0  0
   -6.4660   21.9280  -32.2520 N   0  0  0  0  0  0  0  0  0  0  0  0
   -6.5160   20.6830  -33.0370 C   0  0  0  0  0  0  0  0  0  0  0  0
   -7.0480   19.5300  -32.1900 C   0  0  0  0  0  0  0  0  0  0  0  0
   -5.2760   22.3020  -31.5160 C   0  0  0  0  0  0  0  0  0  0  0  0
   -4.9990   23.6060  -31.2670 N   0  0  0  0  0  0  0  0  0  0  0  0
   -3.9210   24.1160  -30.5970 C   0  0  0  0  0  0  0  0  0  0  0  0
   -3.8730   25.3690  -30.4820 O   0  0  0  0  0  0  0  0  0  0  0  0
   -2.8710   23.3120  -30.0340 C   0  0  0  0  0  0  0  0  0  0  0  0
   -1.7710   23.9070  -29.3430 C   0  0  0  0  0  0  0  0  0  0  0  0
   -1.7040   25.3050  -29.2050 O   0  0  0  0  0  0  0  0  0  0  0  0
   -1.1530   25.9910  -28.0840 C   0  0  0  0  0  0  0  0  0  0  0  0
   -0.7570   23.0860  -28.8030 C   0  0  0  0  0  0  0  0  0  0  0  0
   -0.8110   21.7010  -28.9360 C   0  0  0  0  0  0  0  0  0  0  0  0
   -1.8740   21.1060  -29.6040 C   0  0  0  0  0  0  0  0  0  0  0  0
   -2.8900   21.8960  -30.1440 C   0  0  0  0  0  0  0  0  0  0  0  0
   -4.1720   21.1610  -30.9490 S   0  0  0  0  0  0  0  0  0  0  0  0
   -8.7025   22.2738  -30.4972 H   0  0  0  0  0  0  0  0  0  0  0  0
   -9.7422   22.7429  -31.8848 H   0  0  0  0  0  0  0  0  0  0  0  0
   -8.9084   21.1519  -31.8848 H   0  0  0  0  0  0  0  0  0  0  0  0
   -7.8811   23.0637  -33.3234 H   0  0  0  0  0  0  0  0  0  0  0  0
   -7.3542   23.7633  -31.7433 H   0  0  0  0  0  0  0  0  0  0  0  0
   -7.1776   20.8292  -33.9036 H   0  0  0  0  0  0  0  0  0  0  0  0
   -5.4976   20.4351  -33.3707 H   0  0  0  0  0  0  0  0  0  0  0  0
   -6.9347   19.7756  -31.1238 H   0  0  0  0  0  0  0  0  0  0  0  0
   -8.1119   19.3680  -32.4179 H   0  0  0  0  0  0  0  0  0  0  0  0
   -6.4808   18.6155  -32.4179 H   0  0  0  0  0  0  0  0  0  0  0  0
   -1.5221   25.5315  -27.1552 H   0  0  0  0  0  0  0  0  0  0  0  0
   -0.0556   25.9231  -28.1157 H   0  0  0  0  0  0  0  0  0  0  0  0
   -1.4560   27.0480  -28.1157 H   0  0  0  0  0  0  0  0  0  0  0  0
    0.0875   23.5470  -28.2698 H   0  0  0  0  0  0  0  0  0  0  0  0
   -0.0108   21.0770  -28.5115 H   0  0  0  0  0  0  0  0  0  0  0  0
   -1.9149   20.0116  -29.7074 H   0  0  0  0  0  0  0  0  0  0  0  0
  1  2  1  0
  2  3  1  0
  3  4  1  0
  4  5  1  0
  3  6  1  0
  6  7  2  0
  7  8  1  0
  8  9  2  0
  8 10  1  0
 10 11  2  0
 11 12  1  0
 12 13  1  0
 11 14  1  0
 14 15  2  0
 15 16  1  0
 16 17  2  0
 17 18  1  0
 18  6  1  0
 17 10  1  0
  1 19  1  0
  1 20  1  0
  1 21  1  0
  2 22  1  0
  2 23  1  0
  4 24  1  0
  4 25  1  0
  5 26  1  0
  5 27  1  0
  5 28  1  0
 13 29  1  0
 13 30  1  0
 13 31  1  0
 14 32  1  0
 15 33  1  0
 16 34  1  0
M  END
>  <UniqueID>  (42) 
38

>  <SMILES>  (42) 
CCN(CC)c1nc(=O)c2c(OC)cccc2s1

>  <Energy>  (42) 
39.15462947922634

>  <Genealogy>  (42) 
CCN(CC)c1nc(=O)c2c(OC)cccc2s1 (3D coordinates assigned)
CCN(CC)c1nc(=O)c2c(OC)cccc2s1 (optimized conformer: 39.15462947922634 kcal/mol)

>  <smiles>  (42) 
CCN(CC)c1nc(=O)c2c(OC)cccc2s1

>  <score_type>  (42) 
oracle

>  <origin>  (42) 
adg

>  <m_score__min__energy>  (42) 
-6.8600000000000003

>  <m_primary>  (42) 
energy

$$$$
42:0
     RDKit          3D

 55 58  0  0  0  0  0  0  0  0999 V2000
   -1.0360   18.8920  -32.5480 C   0  0  0  0  0  0  0  0  0  0  0  0
   -1.9120   20.0060  -32.0590 C   0  0  0  0  0  0  0  0  0  0  0  0
   -1.4040   20.9650  -31.1760 C   0  0  0  0  0  0  0  0  0  0  0  0
   -2.2270   21.9830  -30.6940 C   0  0  0  0  0  0  0  0  0  0  0  0
   -3.5770   22.0480  -31.0690 C   0  0  0  0  0  0  0  0  0  0  0  0
   -4.3630   23.2090  -30.6120 C   0  0  0  0  0  0  0  0  0  0  0  0
   -4.9970   23.9740  -31.5430 N   0  0  0  0  0  0  0  0  0  0  0  0
   -5.7670   25.0390  -31.2020 C   0  0  0  0  0  0  0  0  0  0  0  0
   -5.9350   25.3770  -29.8610 C   0  0  0  0  0  0  0  0  0  0  0  0
   -5.3150   24.6040  -28.8780 C   0  0  0  0  0  0  0  0  0  0  0  0
   -4.5310   23.4980  -29.2390 C   0  0  0  0  0  0  0  0  0  0  0  0
   -3.8850   22.6560  -28.1710 C   0  0  0  0  0  0  0  0  0  0  0  0
   -4.1180   21.0470  -31.9140 C   0  0  0  0  0  0  0  0  0  0  0  0
   -5.5540   20.9910  -32.2740 C   0  0  0  0  0  0  0  0  0  0  0  0
   -5.8940   21.1590  -33.4750 O   0  0  0  0  0  0  0  0  0  0  0  0
   -6.5640   20.7000  -31.2920 N   0  0  0  0  0  0  0  0  0  0  0  0
   -7.4400   21.8100  -30.8710 C   0  0  0  0  0  0  0  0  0  0  0  0
   -8.9260   21.5070  -31.1590 C   0  0  0  0  0  0  0  0  0  0  0  0
   -9.0830   20.5960  -32.3840 C   0  0  0  0  0  0  0  0  0  0  0  0
   -8.3320   19.2550  -32.2190 C   0  0  0  0  0  0  0  0  0  0  0  0
   -7.1580   19.3500  -31.2180 C   0  0  1  0  0  0  0  0  0  0  0  0
   -6.1460   18.2000  -31.4340 C   0  0  0  0  0  0  0  0  0  0  0  0
   -6.1450   17.6990  -32.8100 N   0  0  0  0  0  0  0  0  0  0  0  0
   -5.6070   18.2760  -33.9050 C   0  0  0  0  0  0  0  0  0  0  0  0
   -5.6950   17.3860  -34.9530 C   0  0  0  0  0  0  0  0  0  0  0  0
   -6.2550   16.2490  -34.5030 N   0  0  0  0  0  0  0  0  0  0  0  0
   -6.4990   16.4560  -33.1960 C   0  0  0  0  0  0  0  0  0  0  0  0
   -3.2670   20.0450  -32.4150 C   0  0  0  0  0  0  0  0  0  0  0  0
   -0.6126   18.3536  -31.6872 H   0  0  0  0  0  0  0  0  0  0  0  0
   -1.6323   18.1973  -33.1578 H   0  0  0  0  0  0  0  0  0  0  0  0
   -0.2203   19.3077  -33.1578 H   0  0  0  0  0  0  0  0  0  0  0  0
   -0.3513   20.9161  -30.8606 H   0  0  0  0  0  0  0  0  0  0  0  0
   -1.8134   22.7418  -30.0135 H   0  0  0  0  0  0  0  0  0  0  0  0
   -6.2584   25.6352  -31.9850 H   0  0  0  0  0  0  0  0  0  0  0  0
   -6.5501   26.2444  -29.5796 H   0  0  0  0  0  0  0  0  0  0  0  0
   -5.4416   24.8629  -27.8164 H   0  0  0  0  0  0  0  0  0  0  0  0
   -4.1755   23.0346  -27.1799 H   0  0  0  0  0  0  0  0  0  0  0  0
   -4.2164   21.6124  -28.2764 H   0  0  0  0  0  0  0  0  0  0  0  0
   -2.7912   22.7058  -28.2764 H   0  0  0  0  0  0  0  0  0  0  0  0
   -7.3128   21.9742  -29.7908 H   0  0  0  0  0  0  0  0  0  0  0  0
   -7.1562   22.7059  -31.4427 H   0  0  0  0  0  0  0  0  0  0  0  0
   -9.3661   21.0082  -30.2829 H   0  0  0  0  0  0  0  0  0  0  0  0
   -9.4401   22.4573  -31.3654 H   0  0  0  0  0  0  0  0  0  0  0  0
  -10.1524   20.3863  -32.5339 H   0  0  0  0  0  0  0  0  0  0  0  0
   -8.6506   21.1192  -33.2496 H   0  0  0  0  0  0  0  0  0  0  0  0
   -9.0417   18.4959  -31.8585 H   0  0  0  0  0  0  0  0  0  0  0  0
   -7.9126   18.9854  -33.1995 H   0  0  0  0  0  0  0  0  0  0  0  0
   -7.5228   19.2156  -30.1890 H   0  0  0  0  0  0  0  0  0  0  0  0
   -5.1380   18.5684  -31.1929 H   0  0  0  0  0  0  0  0  0  0  0  0
   -6.4430   17.3685  -30.7779 H   0  0  0  0  0  0  0  0  0  0  0  0
   -5.1722   19.2853  -33.9527 H   0  0  0  0  0  0  0  0  0  0  0  0
   -5.3629   17.5738  -35.9847 H   0  0  0  0  0  0  0  0  0  0  0  0
   -6.4390   15.3770  -35.0480 H   0  0  0  0  0  0  0  0  0  0  0  0
   -6.9346   15.7024  -32.5234 H   0  0  0  0  0  0  0  0  0  0  0  0
   -3.6709   19.2812  -33.0959 H   0  0  0  0  0  0  0  0  0  0  0  0
  1  2  1  0
  2  3  2  0
  3  4  1  0
  4  5  2  0
  5  6  1  0
  6  7  2  0
  7  8  1  0
  8  9  2  0
  9 10  1  0
 10 11  2  0
 11 12  1  0
  5 13  1  0
 13 14  1  0
 14 15  2  0
 14 16  1  0
 16 17  1  0
 17 18  1  0
 18 19  1  0
 19 20  1  0
 20 21  1  0
 21 22  1  0
 22 23  1  0
 23 24  1  0
 24 25  2  0
 25 26  1  0
 26 27  2  0
 13 28  2  0
 28  2  1  0
 11  6  1  0
 21 16  1  0
 27 23  1  0
  1 29  1  0
  1 30  1  0
  1 31  1  0
  3 32  1  0
  4 33  1  0
  8 34  1  0
  9 35  1  0
 10 36  1  0
 12 37  1  0
 12 38  1  0
 12 39  1  0
 17 40  1  0
 17 41  1  0
 18 42  1  0
 18 43  1  0
 19 44  1  0
 19 45  1  0
 20 46  1  0
 20 47  1  0
 21 48  1  1
 22 49  1  0
 22 50  1  0
 24 51  1  0
 25 52  1  0
 26 53  1  0
 27 54  1  0
 28 55  1  0
M  CHG  1  26   1
M  END
>  <UniqueID>  (43) 
39

>  <SMILES>  (43) 
Cc1ccc(-c2ncccc2C)c(C(=O)N2CCCC[C@H]2Cn2cc[nH+]c2)c1

>  <Energy>  (43) 
104.78218608459076

>  <Genealogy>  (43) 
Cc1ccc(-c2ncccc2C)c(C(=O)N2CCCCC2Cn2cc[nH+]c2)c1 (protonated)
Cc1ccc(-c2ncccc2C)c(C(=O)N2CCCC[C@H]2Cn2cc[nH+]c2)c1 (chirality)
Cc1ccc(-c2ncccc2C)c(C(=O)N2CCCC[C@H]2Cn2cc[nH+]c2)c1 (3D coordinates assigned)
Cc1ccc(-c2ncccc2C)c(C(=O)N2CCCC[C@H]2Cn2cc[nH+]c2)c1 (nonaromatic ring conformer: 104.78218608459076 kcal/mol)

>  <smiles>  (43) 
Cc1ccc(-c2ncccc2C)c(C(=O)N2CCCCC2Cn2ccnc2)c1

>  <score_type>  (43) 
oracle

>  <origin>  (43) 
adg

>  <m_score__min__energy>  (43) 
-9.3399999999999999

>  <m_primary>  (43) 
energy

$$$$
43:0
     RDKit          3D

 39 41  0  0  0  0  0  0  0  0999 V2000
   -6.4880   23.7330  -32.6990 C   0  0  0  0  0  0  0  0  0  0  0  0
   -6.1080   22.4140  -32.2000 N   0  0  0  0  0  0  0  0  0  0  0  0
   -4.7330   22.0180  -32.2440 C   0  0  0  0  0  0  0  0  0  0  0  0
   -4.2170   21.4750  -33.4300 C   0  0  0  0  0  0  0  0  0  0  0  0
   -2.8880   21.0550  -33.4970 C   0  0  0  0  0  0  0  0  0  0  0  0
   -2.0610   21.1710  -32.3770 C   0  0  0  0  0  0  0  0  0  0  0  0
   -0.3940   20.6330  -32.4600 Cl  0  0  0  0  0  0  0  0  0  0  0  0
   -2.5630   21.7130  -31.1900 C   0  0  0  0  0  0  0  0  0  0  0  0
   -3.8960   22.1510  -31.1120 C   0  0  0  0  0  0  0  0  0  0  0  0
   -4.4180   22.6980  -29.8050 C   0  0  0  0  0  0  0  0  0  0  0  0
   -5.0570   23.9940  -30.0060 N   0  0  0  0  0  0  0  0  0  0  0  0
   -6.2970   24.3540  -29.6310 C   0  0  0  0  0  0  0  0  0  0  0  0
   -6.5420   25.6420  -29.9380 N   0  0  0  0  0  0  0  0  0  0  0  0
   -5.3790   26.0320  -30.5070 C   0  0  0  0  0  0  0  0  0  0  0  0
   -4.4670   25.0420  -30.5490 N   0  0  0  0  0  0  0  0  0  0  0  0
   -7.3260   21.2080  -31.9350 S   0  0  0  0  0  0  0  0  0  0  0  0
   -8.5770   21.5760  -32.6820 O   0  0  0  0  0  0  0  0  0  0  0  0
   -7.6570   21.1310  -30.4700 O   0  0  0  0  0  0  0  0  0  0  0  0
   -6.7300   19.6460  -32.4840 C   0  0  0  0  0  0  0  0  0  0  0  0
   -6.4660   19.4310  -33.8450 C   0  0  0  0  0  0  0  0  0  0  0  0
   -6.0130   18.1830  -34.2840 C   0  0  0  0  0  0  0  0  0  0  0  0
   -5.8260   17.1440  -33.3670 C   0  0  0  0  0  0  0  0  0  0  0  0
   -6.0940   17.3510  -32.0110 C   0  0  0  0  0  0  0  0  0  0  0  0
   -6.5470   18.5990  -31.5700 C   0  0  0  0  0  0  0  0  0  0  0  0
   -6.6815   24.4046  -31.8496 H   0  0  0  0  0  0  0  0  0  0  0  0
   -5.6713   24.1425  -33.3116 H   0  0  0  0  0  0  0  0  0  0  0  0
   -7.3974   23.6453  -33.3116 H   0  0  0  0  0  0  0  0  0  0  0  0
   -4.8649   21.3796  -34.3138 H   0  0  0  0  0  0  0  0  0  0  0  0
   -2.4914   20.6324  -34.4320 H   0  0  0  0  0  0  0  0  0  0  0  0
   -1.9089   21.7973  -30.3096 H   0  0  0  0  0  0  0  0  0  0  0  0
   -5.1528   21.9942  -29.3869 H   0  0  0  0  0  0  0  0  0  0  0  0
   -3.5730   22.8244  -29.1122 H   0  0  0  0  0  0  0  0  0  0  0  0
   -7.0169   23.6842  -29.1380 H   0  0  0  0  0  0  0  0  0  0  0  0
   -5.1978   27.0460  -30.8930 H   0  0  0  0  0  0  0  0  0  0  0  0
   -6.6157   20.2460  -34.5684 H   0  0  0  0  0  0  0  0  0  0  0  0
   -5.8036   18.0185  -35.3513 H   0  0  0  0  0  0  0  0  0  0  0  0
   -5.4678   16.1632  -33.7131 H   0  0  0  0  0  0  0  0  0  0  0  0
   -5.9487   16.5326  -31.2905 H   0  0  0  0  0  0  0  0  0  0  0  0
   -6.7602   18.7592  -30.5028 H   0  0  0  0  0  0  0  0  0  0  0  0
  1  2  1  0
  2  3  1  0
  3  4  2  0
  4  5  1  0
  5  6  2  0
  6  7  1  0
  6  8  1  0
  8  9  2  0
  9 10  1  0
 10 11  1  0
 11 12  1  0
 12 13  2  0
 13 14  1  0
 14 15  2  0
  2 16  1  0
 16 17  2  0
 16 18  2  0
 16 19  1  0
 19 20  2  0
 20 21  1  0
 21 22  2  0
 22 23  1  0
 23 24  2  0
  9  3  1  0
 15 11  1  0
 24 19  1  0
  1 25  1  0
  1 26  1  0
  1 27  1  0
  4 28  1  0
  5 29  1  0
  8 30  1  0
 10 31  1  0
 10 32  1  0
 12 33  1  0
 14 34  1  0
 20 35  1  0
 21 36  1  0
 22 37  1  0
 23 38  1  0
 24 39  1  0
M  END
>  <UniqueID>  (44) 
40

>  <SMILES>  (44) 
CN(c1ccc(Cl)cc1Cn1cncn1)S(=O)(=O)c1ccccc1

>  <Energy>  (44) 
77.75108764182414

>  <Genealogy>  (44) 
CN(c1ccc(Cl)cc1Cn1cncn1)S(=O)(=O)c1ccccc1 (3D coordinates assigned)
CN(c1ccc(Cl)cc1Cn1cncn1)S(=O)(=O)c1ccccc1 (optimized conformer: 77.75108764182414 kcal/mol)

>  <smiles>  (44) 
CN(c1ccc(Cl)cc1Cn1cncn1)S(=O)(=O)c1ccccc1

>  <score_type>  (44) 
oracle

>  <origin>  (44) 
adg

>  <m_score__min__energy>  (44) 
-7.9900000000000002

>  <m_primary>  (44) 
energy

$$$$
44:0
     RDKit          3D

 40 42  0  0  0  0  0  0  0  0999 V2000
   -3.9190   16.7440  -35.3340 C   0  0  0  0  0  0  0  0  0  0  0  0
   -4.8230   16.8850  -34.2010 N   0  0  0  0  0  0  0  0  0  0  0  0
   -6.1050   17.2930  -34.2590 C   0  0  0  0  0  0  0  0  0  0  0  0
   -6.5880   17.3710  -32.9650 C   0  0  0  0  0  0  0  0  0  0  0  0
   -7.9690   17.7900  -32.5320 C   0  0  0  0  0  0  0  0  0  0  0  0
   -8.2360   19.2320  -32.7290 N   0  0  0  0  0  0  0  0  0  0  0  0
   -9.1040   19.8120  -31.6810 C   0  0  0  0  0  0  0  0  0  0  0  0
   -9.0530   21.3410  -31.7250 C   0  0  0  0  0  0  0  0  0  0  0  0
   -7.6920   21.8430  -31.4200 N   0  0  0  0  0  0  0  0  0  0  0  0
   -7.5180   23.2170  -31.9300 C   0  0  0  0  0  0  0  0  0  0  0  0
   -6.5010   23.9560  -31.1080 C   0  0  0  0  0  0  0  0  0  0  0  0
   -6.8500   24.8550  -30.0880 C   0  0  0  0  0  0  0  0  0  0  0  0
   -5.7560   25.4180  -29.4480 C   0  0  0  0  0  0  0  0  0  0  0  0
   -4.3630   24.7940  -30.1510 S   0  0  0  0  0  0  0  0  0  0  0  0
   -5.1280   23.8070  -31.2740 C   0  0  0  0  0  0  0  0  0  0  0  0
   -6.6060   20.9330  -31.8730 C   0  0  0  0  0  0  0  0  0  0  0  0
   -7.0330   20.0370  -33.0480 C   0  0  0  0  0  0  0  0  0  0  0  0
   -5.5250   17.0150  -32.1530 C   0  0  0  0  0  0  0  0  0  0  0  0
   -4.4690   16.7300  -32.9360 N   0  0  0  0  0  0  0  0  0  0  0  0
   -2.8942   16.5842  -34.9677 H   0  0  0  0  0  0  0  0  0  0  0  0
   -4.2284   15.8833  -35.9451 H   0  0  0  0  0  0  0  0  0  0  0  0
   -3.9516   17.6581  -35.9451 H   0  0  0  0  0  0  0  0  0  0  0  0
   -6.6692   17.5238  -35.1747 H   0  0  0  0  0  0  0  0  0  0  0  0
   -8.7056   17.2166  -33.1140 H   0  0  0  0  0  0  0  0  0  0  0  0
   -8.0446   17.5909  -31.4528 H   0  0  0  0  0  0  0  0  0  0  0  0
  -10.1398   19.4799  -31.8448 H   0  0  0  0  0  0  0  0  0  0  0  0
   -8.7470   19.4733  -30.6972 H   0  0  0  0  0  0  0  0  0  0  0  0
   -9.3433   21.6805  -32.7302 H   0  0  0  0  0  0  0  0  0  0  0  0
   -9.7462   21.7337  -30.9665 H   0  0  0  0  0  0  0  0  0  0  0  0
   -7.1780   23.1752  -32.9753 H   0  0  0  0  0  0  0  0  0  0  0  0
   -8.4805   23.7457  -31.8663 H   0  0  0  0  0  0  0  0  0  0  0  0
   -7.8911   25.0903  -29.8219 H   0  0  0  0  0  0  0  0  0  0  0  0
   -5.7936   26.1459  -28.6241 H   0  0  0  0  0  0  0  0  0  0  0  0
   -4.6314   23.1579  -32.0102 H   0  0  0  0  0  0  0  0  0  0  0  0
   -5.7460   21.5417  -32.1892 H   0  0  0  0  0  0  0  0  0  0  0  0
   -6.3508   20.2749  -31.0293 H   0  0  0  0  0  0  0  0  0  0  0  0
   -7.2531   20.6738  -33.9175 H   0  0  0  0  0  0  0  0  0  0  0  0
   -6.2075   19.3416  -33.2602 H   0  0  0  0  0  0  0  0  0  0  0  0
   -5.5411   16.9724  -31.0539 H   0  0  0  0  0  0  0  0  0  0  0  0
   -3.5180   16.4480  -32.6090 H   0  0  0  0  0  0  0  0  0  0  0  0
  1  2  1  0
  2  3  1  0
  3  4  2  0
  4  5  1  0
  5  6  1  0
  6  7  1  0
  7  8  1  0
  8  9  1  0
  9 10  1  0
 10 11  1  0
 11 12  1  0
 12 13  2  0
 13 14  1  0
 14 15  1  0
  9 16  1  0
 16 17  1  0
  4 18  1  0
 18 19  2  0
 19  2  1  0
 17  6  1  0
 15 11  2  0
  1 20  1  0
  1 21  1  0
  1 22  1  0
  3 23  1  0
  5 24  1  0
  5 25  1  0
  7 26  1  0
  7 27  1  0
  8 28  1  0
  8 29  1  0
 10 30  1  0
 10 31  1  0
 12 32  1  0
 13 33  1  0
 15 34  1  0
 16 35  1  0
 16 36  1  0
 17 37  1  0
 17 38  1  0
 18 39  1  0
 19 40  1  0
M  CHG  1  19   1
M  END
>  <UniqueID>  (45) 
41

>  <SMILES>  (45) 
Cn1cc(CN2CCN(Cc3ccsc3)CC2)c[nH+]1

>  <Energy>  (45) 
108.94234529978164

>  <Genealogy>  (45) 
Cn1cc(CN2CCN(Cc3ccsc3)CC2)c[nH+]1 (protonated)
Cn1cc(CN2CCN(Cc3ccsc3)CC2)c[nH+]1 (3D coordinates assigned)
Cn1cc(CN2CCN(Cc3ccsc3)CC2)c[nH+]1 (nonaromatic ring conformer: 108.94234529978164 kcal/mol)

>  <smiles>  (45) 
Cn1cc(CN2CCN(Cc3ccsc3)CC2)cn1

>  <score_type>  (45) 
oracle

>  <origin>  (45) 
adg

>  <m_score__min__energy>  (45) 
-6.8799999999999999

>  <m_primary>  (45) 
energy

$$$$
45:0
     RDKit          3D

 82 86  0  0  0  0  0  0  0  0999 V2000
    0.2960   21.8700  -36.0330 C   0  0  0  0  0  0  0  0  0  0  0  0
    0.7310   22.2750  -34.7540 O   0  0  0  0  0  0  0  0  0  0  0  0
    0.8700   21.1600  -33.8940 C   0  0  0  0  0  0  0  0  0  0  0  0
   -0.3720   20.9880  -33.0200 C   0  0  0  0  0  0  0  0  0  0  0  0
   -1.4090   20.3930  -33.7830 O   0  0  0  0  0  0  0  0  0  0  0  0
   -2.6710   20.9650  -33.4990 C   0  0  0  0  0  0  0  0  0  0  0  0
   -2.7600   21.4160  -32.0380 C   0  0  0  0  0  0  0  0  0  0  0  0
   -3.4910   22.6230  -31.9690 O   0  0  0  0  0  0  0  0  0  0  0  0
   -4.6960   22.4890  -32.7000 C   0  0  0  0  0  0  0  0  0  0  0  0
   -5.6110   21.4680  -32.0170 C   0  0  0  0  0  0  0  0  0  0  0  0
   -6.8610   21.3600  -32.6760 O   0  0  0  0  0  0  0  0  0  0  0  0
   -7.9050   21.9680  -31.9360 C   0  0  0  0  0  0  0  0  0  0  0  0
   -7.3440   22.7480  -30.7500 C   0  0  0  0  0  0  0  0  0  0  0  0
   -6.9180   24.0200  -31.1860 O   0  0  0  0  0  0  0  0  0  0  0  0
   -6.7120   24.8840  -30.0840 C   0  0  0  0  0  0  0  0  0  0  0  0
   -5.4890   25.7760  -30.3050 C   0  0  0  0  0  0  0  0  0  0  0  0
   -4.3650   24.9680  -30.5920 O   0  0  0  0  0  0  0  0  0  0  0  0
   -3.8570   24.3670  -29.4130 C   0  0  1  0  0  0  0  0  0  0  0  0
   -4.4320   22.9640  -29.3040 C   0  0  0  0  0  0  0  0  0  0  0  0
   -3.9190   22.0900  -28.4220 C   0  0  0  0  0  0  0  0  0  0  0  0
   -2.7400   22.5300  -27.5980 C   0  0  1  0  0  0  0  0  0  0  0  0
   -1.9750   21.4410  -26.7970 C   0  0  2  0  0  0  0  0  0  0  0  0
   -0.7990   22.1170  -25.9440 C   0  0  0  0  0  0  0  0  0  0  0  0
   -0.4500   23.5440  -26.3490 C   0  0  0  0  0  0  0  0  0  0  0  0
    0.1670   24.4670  -25.4840 C   0  0  0  0  0  0  0  0  0  0  0  0
    0.2450   25.8310  -25.8470 C   0  0  0  0  0  0  0  0  0  0  0  0
   -0.3480   26.2880  -27.0540 C   0  0  0  0  0  0  0  0  0  0  0  0
   -0.3860   27.6400  -27.4240 O   0  0  0  0  0  0  0  0  0  0  0  0
   -0.5030   28.7180  -26.5010 C   0  0  0  0  0  0  0  0  0  0  0  0
   -0.9400   25.3350  -27.8830 C   0  0  0  0  0  0  0  0  0  0  0  0
   -0.8850   24.0130  -27.5820 C   0  0  0  0  0  0  0  0  0  0  0  0
   -1.6990   23.2150  -28.5110 C   0  0  1  0  0  0  0  0  0  0  0  0
   -0.7600   22.1940  -29.2430 C   0  0  0  0  0  0  0  0  0  0  0  0
   -1.2210   20.7350  -29.1090 C   0  0  0  0  0  0  0  0  0  0  0  0
   -1.5510   20.3260  -27.7100 N   0  0  1  0  0  0  0  0  0  0  0  0
   -0.5190   19.4330  -27.1460 C   0  0  0  0  0  0  0  0  0  0  0  0
   -2.3020   24.3180  -29.4610 C   0  0  2  0  0  0  0  0  0  0  0  0
   -1.7340   25.5530  -28.9950 O   0  0  0  0  0  0  0  0  0  0  0  0
   -0.5054   21.1238  -35.9285 H   0  0  0  0  0  0  0  0  0  0  0  0
   -0.0849   22.7425  -36.5840 H   0  0  0  0  0  0  0  0  0  0  0  0
    1.1391   21.4278  -36.5840 H   0  0  0  0  0  0  0  0  0  0  0  0
    1.0125   20.2531  -34.5000 H   0  0  0  0  0  0  0  0  0  0  0  0
    1.7395   21.3258  -33.2409 H   0  0  0  0  0  0  0  0  0  0  0  0
   -0.1306   20.3420  -32.1630 H   0  0  0  0  0  0  0  0  0  0  0  0
   -0.7031   21.9719  -32.6561 H   0  0  0  0  0  0  0  0  0  0  0  0
   -2.8254   21.8358  -34.1531 H   0  0  0  0  0  0  0  0  0  0  0  0
   -3.4454   20.2041  -33.6759 H   0  0  0  0  0  0  0  0  0  0  0  0
   -3.2695   20.6427  -31.4445 H   0  0  0  0  0  0  0  0  0  0  0  0
   -1.7478   21.5731  -31.6370 H   0  0  0  0  0  0  0  0  0  0  0  0
   -5.2056   23.4628  -32.7443 H   0  0  0  0  0  0  0  0  0  0  0  0
   -4.4646   22.1429  -33.7182 H   0  0  0  0  0  0  0  0  0  0  0  0
   -5.1174   20.4850  -32.0259 H   0  0  0  0  0  0  0  0  0  0  0  0
   -5.7949   21.8078  -30.9871 H   0  0  0  0  0  0  0  0  0  0  0  0
   -8.4583   22.6566  -32.5915 H   0  0  0  0  0  0  0  0  0  0  0  0
   -8.5736   21.1811  -31.5567 H   0  0  0  0  0  0  0  0  0  0  0  0
   -8.1255   22.8649  -29.9848 H   0  0  0  0  0  0  0  0  0  0  0  0
   -6.4911   22.2017  -30.3209 H   0  0  0  0  0  0  0  0  0  0  0  0
   -7.6009   25.5188  -29.9540 H   0  0  0  0  0  0  0  0  0  0  0  0
   -6.5401   24.2712  -29.1868 H   0  0  0  0  0  0  0  0  0  0  0  0
   -5.6779   26.4554  -31.1492 H   0  0  0  0  0  0  0  0  0  0  0  0
   -5.2954   26.3662  -29.3971 H   0  0  0  0  0  0  0  0  0  0  0  0
   -4.1492   24.9577  -28.5323 H   0  0  0  0  0  0  0  0  0  0  0  0
   -5.2707   22.6635  -29.9492 H   0  0  0  0  0  0  0  0  0  0  0  0
   -4.3479   21.0837  -28.3060 H   0  0  0  0  0  0  0  0  0  0  0  0
   -3.1999   23.1914  -26.8489 H   0  0  0  0  0  0  0  0  0  0  0  0
   -2.6321   20.9633  -26.0553 H   0  0  0  0  0  0  0  0  0  0  0  0
   -1.1057   22.1271  -24.8877 H   0  0  0  0  0  0  0  0  0  0  0  0
    0.1023   21.5146  -26.1305 H   0  0  0  0  0  0  0  0  0  0  0  0
    0.5882   24.1273  -24.5263 H   0  0  0  0  0  0  0  0  0  0  0  0
    0.7679   26.5425  -25.1910 H   0  0  0  0  0  0  0  0  0  0  0  0
   -0.4606   28.3273  -25.4736 H   0  0  0  0  0  0  0  0  0  0  0  0
    0.3235   29.4266  -26.6582 H   0  0  0  0  0  0  0  0  0  0  0  0
   -1.4623   29.2328  -26.6582 H   0  0  0  0  0  0  0  0  0  0  0  0
   -0.7294   22.4530  -30.3116 H   0  0  0  0  0  0  0  0  0  0  0  0
    0.2298   22.2661  -28.7685 H   0  0  0  0  0  0  0  0  0  0  0  0
   -2.1185   20.5978  -29.7300 H   0  0  0  0  0  0  0  0  0  0  0  0
   -0.3797   20.1052  -29.4338 H   0  0  0  0  0  0  0  0  0  0  0  0
   -2.3940   19.7090  -27.7990 H   0  0  0  0  0  0  0  0  0  0  0  0
   -0.5623   19.4705  -26.0475 H   0  0  0  0  0  0  0  0  0  0  0  0
   -0.7007   18.4025  -27.4852 H   0  0  0  0  0  0  0  0  0  0  0  0
    0.4747   19.7608  -27.4852 H   0  0  0  0  0  0  0  0  0  0  0  0
   -2.0592   24.1084  -30.5132 H   0  0  0  0  0  0  0  0  0  0  0  0
  1  2  1  0
  2  3  1  0
  3  4  1  0
  4  5  1  0
  5  6  1  0
  6  7  1  0
  7  8  1  0
  8  9  1  0
  9 10  1  0
 10 11  1  0
 11 12  1  0
 12 13  1  0
 13 14  1  0
 14 15  1  0
 15 16  1  0
 16 17  1  0
 17 18  1  0
 18 19  1  0
 19 20  2  0
 20 21  1  0
 21 22  1  0
 22 23  1  0
 23 24  1  0
 24 25  2  0
 25 26  1  0
 26 27  2  0
 27 28  1  0
 28 29  1  0
 27 30  1  0
 30 31  2  0
 31 32  1  0
 32 33  1  6
 33 34  1  0
 34 35  1  0
 35 36  1  0
 32 37  1  0
 37 38  1  0
 37 18  1  0
 32 21  1  0
 35 22  1  0
 31 24  1  0
 38 30  1  0
  1 39  1  0
  1 40  1  0
  1 41  1  0
  3 42  1  0
  3 43  1  0
  4 44  1  0
  4 45  1  0
  6 46  1  0
  6 47  1  0
  7 48  1  0
  7 49  1  0
  9 50  1  0
  9 51  1  0
 10 52  1  0
 10 53  1  0
 12 54  1  0
 12 55  1  0
 13 56  1  0
 13 57  1  0
 15 58  1  0
 15 59  1  0
 16 60  1  0
 16 61  1  0
 18 62  1  1
 19 63  1  0
 20 64  1  0
 21 65  1  1
 22 66  1  1
 23 67  1  0
 23 68  1  0
 25 69  1  0
 26 70  1  0
 29 71  1  0
 29 72  1  0
 29 73  1  0
 33 74  1  0
 33 75  1  0
 34 76  1  0
 34 77  1  0
 35 78  1  6
 36 79  1  0
 36 80  1  0
 36 81  1  0
 37 82  1  6
M  CHG  1  35   1
M  END
>  <UniqueID>  (46) 
42

>  <SMILES>  (46) 
COCCOCCOCCOCCOCCO[C@H]1C=C[C@H]2C3Cc4ccc(OC)c5c4C2(CC[NH+]3C)C1O5

>  <Energy>  (46) 
148.91734312660373

>  <Genealogy>  (46) 
COCCOCCOCCOCCOCCOC1C=CC2C3Cc4ccc(OC)c5c4C2(CC[NH+]3C)C1O5 (protonated)
COCCOCCOCCOCCOCCO[C@H]1C=C[C@H]2C3Cc4ccc(OC)c5c4C2(CC[NH+]3C)C1O5 (chirality)
COCCOCCOCCOCCOCCO[C@H]1C=C[C@H]2C3Cc4ccc(OC)c5c4C2(CC[NH+]3C)C1O5 (3D coordinates assigned)
COCCOCCOCCOCCOCCO[C@H]1C=C[C@H]2C3Cc4ccc(OC)c5c4C2(CC[NH+]3C)C1O5 (nonaromatic ring conformer: 148.91734312660373 kcal/mol)

>  <smiles>  (46) 
COCCOCCOCCOCCOCCOC1C=CC2C3Cc4ccc(OC)c5c4C2(CCN3C)C1O5

>  <score_type>  (46) 
oracle

>  <origin>  (46) 
adg

>  <m_score__min__energy>  (46) 
-8.5800000000000001

>  <m_primary>  (46) 
energy

$$$$
46:0
     RDKit          3D

 48 51  0  0  0  0  0  0  0  0999 V2000
   -2.0948   20.2285  -33.5105 H   0  0  0  0  0  0  0  0  0  0  0  0
   -3.1870   20.1070  -33.4620 C   0  0  0  0  0  0  0  0  0  0  0  0
   -3.9720   21.1040  -32.8780 C   0  0  0  0  0  0  0  0  0  0  0  0
   -3.4923   22.0034  -32.4646 H   0  0  0  0  0  0  0  0  0  0  0  0
   -5.3690   20.9680  -32.8140 C   0  0  0  0  0  0  0  0  0  0  0  0
   -6.2110   22.0220  -32.2000 C   0  0  0  0  0  0  0  0  0  0  0  0
   -7.5960   22.1500  -32.2990 C   0  0  0  0  0  0  0  0  0  0  0  0
   -8.2630   21.4598  -32.8363 H   0  0  0  0  0  0  0  0  0  0  0  0
   -7.9900   23.2600  -31.6280 N   0  0  0  0  0  0  0  0  0  0  0  0
   -8.9630   23.6270  -31.5260 H   0  0  0  0  0  0  0  0  0  0  0  0
   -6.8530   23.7890  -31.1430 C   0  0  0  0  0  0  0  0  0  0  0  0
   -6.7200   24.9640  -30.4120 C   0  0  0  0  0  0  0  0  0  0  0  0
   -7.5964   25.5659  -30.1299 H   0  0  0  0  0  0  0  0  0  0  0  0
   -5.4200   25.3500  -30.0490 C   0  0  0  0  0  0  0  0  0  0  0  0
   -5.2613   26.2681  -29.4643 H   0  0  0  0  0  0  0  0  0  0  0  0
   -4.3170   24.5590  -30.4350 C   0  0  0  0  0  0  0  0  0  0  0  0
   -3.1140   24.9230  -30.1000 N   0  0  0  0  0  0  0  0  0  0  0  0
   -2.4880   24.6720  -28.7980 C   0  0  0  0  0  0  0  0  0  0  0  0
   -2.6382   25.5473  -28.1489 H   0  0  0  0  0  0  0  0  0  0  0  0
   -0.9690   24.4520  -28.9870 C   0  0  0  0  0  0  0  0  0  0  0  0
   -0.6979   24.7538  -30.0095 H   0  0  0  0  0  0  0  0  0  0  0  0
   -0.4569   25.0568  -28.2241 H   0  0  0  0  0  0  0  0  0  0  0  0
   -0.5290   22.9890  -28.7770 C   0  0  0  0  0  0  0  0  0  0  0  0
    0.4570   22.8477  -29.2437 H   0  0  0  0  0  0  0  0  0  0  0  0
   -0.4965   22.8043  -27.6931 H   0  0  0  0  0  0  0  0  0  0  0  0
   -1.4750   22.0180  -29.3670 N   0  0  0  0  0  0  0  0  0  0  0  0
   -1.3850   21.9890  -30.8360 C   0  0  0  0  0  0  0  0  0  0  0  0
   -0.3775   21.6644  -31.1353 H   0  0  0  0  0  0  0  0  0  0  0  0
   -2.1306   21.2856  -31.2352 H   0  0  0  0  0  0  0  0  0  0  0  0
   -1.5797   22.9953  -31.2352 H   0  0  0  0  0  0  0  0  0  0  0  0
   -2.8760   22.1650  -28.8900 C   0  0  0  0  0  0  0  0  0  0  0  0
   -3.5423   22.1462  -29.7650 H   0  0  0  0  0  0  0  0  0  0  0  0
   -3.0628   21.3331  -28.1950 H   0  0  0  0  0  0  0  0  0  0  0  0
   -3.1420   23.4640  -28.1080 C   0  0  0  0  0  0  0  0  0  0  0  0
   -4.2277   23.6301  -28.0469 H   0  0  0  0  0  0  0  0  0  0  0  0
   -2.7083   23.3603  -27.1024 H   0  0  0  0  0  0  0  0  0  0  0  0
   -4.5320   23.4170  -31.1560 N   0  0  0  0  0  0  0  0  0  0  0  0
   -5.7760   23.0660  -31.4700 N   0  0  0  0  0  0  0  0  0  0  0  0
   -5.9630   19.8030  -33.3300 C   0  0  0  0  0  0  0  0  0  0  0  0
   -7.0540   19.6748  -33.2732 H   0  0  0  0  0  0  0  0  0  0  0  0
   -5.1760   18.8060  -33.9150 C   0  0  0  0  0  0  0  0  0  0  0  0
   -5.6543   17.9023  -34.3208 H   0  0  0  0  0  0  0  0  0  0  0  0
   -3.7870   18.9470  -33.9890 C   0  0  0  0  0  0  0  0  0  0  0  0
   -3.0430   17.9200  -34.5870 O   0  0  0  0  0  0  0  0  0  0  0  0
   -3.5920   16.6840  -35.0330 C   0  0  0  0  0  0  0  0  0  0  0  0
   -3.8652   16.0689  -34.1629 H   0  0  0  0  0  0  0  0  0  0  0  0
   -4.4882   16.8788  -35.6403 H   0  0  0  0  0  0  0  0  0  0  0  0
   -2.8466   16.1496  -35.6403 H   0  0  0  0  0  0  0  0  0  0  0  0
  1  2  1  0
  2  3  2  0
  3  4  1  0
  3  5  1  0
  5  6  1  0
  6  7  2  0
  7  8  1  0
  7  9  1  0
  9 10  1  0
  9 11  2  0
 11 12  1  0
 12 13  1  0
 12 14  2  0
 14 15  1  0
 14 16  1  0
 16 17  2  0
 17 18  1  0
 18 19  1  0
 18 20  1  0
 20 21  1  0
 20 22  1  0
 20 23  1  0
 23 24  1  0
 23 25  1  0
 23 26  1  0
 26 27  1  0
 27 28  1  0
 27 29  1  0
 27 30  1  0
 26 31  1  0
 31 32  1  0
 31 33  1  0
 31 34  1  0
 34 35  1  0
 34 36  1  0
 16 37  1  0
 37 38  1  0
  5 39  2  0
 39 40  1  0
 39 41  1  0
 41 42  1  0
 41 43  2  0
 43 44  1  0
 44 45  1  0
 45 46  1  0
 45 47  1  0
 45 48  1  0
 43  2  1  0
 38  6  1  0
 38 11  1  0
 34 18  1  0
M  CHG  2   9   1  37  -1
M  END
>  <UniqueID>  (47) 
43

>  <SMILES>  (47) 
COc1ccc(-c2c[nH+]c3cc/c(=N/C4CCN(C)CC4)[n-]n23)cc1

>  <Energy>  (47) 
100.12683332015628

>  <Genealogy>  (47) 
COc1ccc(-c2c[nH+]c3ccc(=NC4CCN(C)CC4)[n-]n23)cc1 (protonated)
COc1ccc(-c2c[nH+]c3cc/c(=N/C4CCN(C)CC4)[n-]n23)cc1 (cis-trans isomerization)
COc1ccc(-c2c[nH+]c3cc/c(=N/C4CCN(C)CC4)[n-]n23)cc1 (3D coordinates assigned)
COc1ccc(-c2c[nH+]c3cc/c(=N/C4CCN(C)CC4)[n-]n23)cc1 (nonaromatic ring conformer: 100.12683332015628 kcal/mol)

>  <smiles>  (47) 
COc1ccc(-c2cnc3ccc(=NC4CCN(C)CC4)[nH]n23)cc1

>  <score_type>  (47) 
oracle

>  <origin>  (47) 
adg

>  <m_score__min__energy>  (47) 
-8.9100000000000001

>  <m_primary>  (47) 
energy

$$$$
47:0
     RDKit          3D

 48 50  0  0  0  0  0  0  0  0999 V2000
   -0.0200   18.7600  -33.8770 C   0  0  0  0  0  0  0  0  0  0  0  0
   -0.5350   19.5990  -35.0540 C   0  0  0  0  0  0  0  0  0  0  0  0
   -0.5810   21.0550  -34.7420 N   0  0  0  0  0  0  0  0  0  0  0  0
    0.3360   21.8180  -35.6310 C   0  0  0  0  0  0  0  0  0  0  0  0
    1.8020   21.3610  -35.5750 C   0  0  0  0  0  0  0  0  0  0  0  0
   -0.3400   21.2940  -33.2920 C   0  0  0  0  0  0  0  0  0  0  0  0
   -1.6070   21.1930  -32.4220 C   0  0  0  0  0  0  0  0  0  0  0  0
   -2.7430   21.8600  -33.0640 N   0  0  0  0  0  0  0  0  0  0  0  0
   -4.0650   21.8960  -32.4890 C   0  0  0  0  0  0  0  0  0  0  0  0
   -5.0660   21.1580  -33.0270 C   0  0  0  0  0  0  0  0  0  0  0  0
   -6.4560   21.1040  -32.5130 C   0  0  0  0  0  0  0  0  0  0  0  0
   -7.0840   19.8560  -32.3870 C   0  0  0  0  0  0  0  0  0  0  0  0
   -8.3830   19.7640  -31.8770 C   0  0  0  0  0  0  0  0  0  0  0  0
   -9.1480   18.1950  -31.7030 Cl  0  0  0  0  0  0  0  0  0  0  0  0
   -9.0690   20.9220  -31.4980 C   0  0  0  0  0  0  0  0  0  0  0  0
   -8.4660   22.1730  -31.6460 C   0  0  0  0  0  0  0  0  0  0  0  0
   -7.1730   22.2720  -32.1720 C   0  0  0  0  0  0  0  0  0  0  0  0
   -6.4450   23.8920  -32.4100 S   0  0  0  0  0  0  0  0  0  0  0  0
   -5.3060   23.5840  -31.0660 C   0  0  0  0  0  0  0  0  0  0  0  0
   -5.4890   24.2480  -29.8470 C   0  0  0  0  0  0  0  0  0  0  0  0
   -4.6150   24.0120  -28.7830 C   0  0  0  0  0  0  0  0  0  0  0  0
   -3.5630   23.1070  -28.9300 C   0  0  0  0  0  0  0  0  0  0  0  0
   -3.3840   22.4300  -30.1400 C   0  0  0  0  0  0  0  0  0  0  0  0
   -4.2560   22.6550  -31.2200 C   0  0  0  0  0  0  0  0  0  0  0  0
   -0.3131   19.2375  -32.9304 H   0  0  0  0  0  0  0  0  0  0  0  0
   -0.4543   17.7507  -33.9284 H   0  0  0  0  0  0  0  0  0  0  0  0
    1.0766   18.6904  -33.9284 H   0  0  0  0  0  0  0  0  0  0  0  0
    0.1313   19.4440  -35.9154 H   0  0  0  0  0  0  0  0  0  0  0  0
   -1.5624   19.2721  -35.2722 H   0  0  0  0  0  0  0  0  0  0  0  0
   -1.5460   21.3950  -34.9680 H   0  0  0  0  0  0  0  0  0  0  0  0
   -0.0189   21.7086  -36.6664 H   0  0  0  0  0  0  0  0  0  0  0  0
    0.3188   22.8600  -35.2790 H   0  0  0  0  0  0  0  0  0  0  0  0
    2.1157   21.2632  -34.5252 H   0  0  0  0  0  0  0  0  0  0  0  0
    1.9026   20.3889  -36.0798 H   0  0  0  0  0  0  0  0  0  0  0  0
    2.4372   22.1038  -36.0798 H   0  0  0  0  0  0  0  0  0  0  0  0
    0.3856   20.5486  -32.9344 H   0  0  0  0  0  0  0  0  0  0  0  0
    0.0306   22.3253  -33.1964 H   0  0  0  0  0  0  0  0  0  0  0  0
   -1.8535   20.1321  -32.2683 H   0  0  0  0  0  0  0  0  0  0  0  0
   -1.4100   21.6878  -31.4595 H   0  0  0  0  0  0  0  0  0  0  0  0
   -2.6730   21.9690  -34.1010 H   0  0  0  0  0  0  0  0  0  0  0  0
   -4.8292   20.5519  -33.9139 H   0  0  0  0  0  0  0  0  0  0  0  0
   -6.5510   18.9432  -32.6915 H   0  0  0  0  0  0  0  0  0  0  0  0
  -10.0849   20.8476  -31.0828 H   0  0  0  0  0  0  0  0  0  0  0  0
   -9.0086   23.0824  -31.3485 H   0  0  0  0  0  0  0  0  0  0  0  0
   -6.3220   24.9563  -29.7269 H   0  0  0  0  0  0  0  0  0  0  0  0
   -4.7562   24.5401  -27.8284 H   0  0  0  0  0  0  0  0  0  0  0  0
   -2.8734   22.9260  -28.0924 H   0  0  0  0  0  0  0  0  0  0  0  0
   -2.5545   21.7157  -30.2481 H   0  0  0  0  0  0  0  0  0  0  0  0
  1  2  1  0
  2  3  1  0
  3  4  1  0
  4  5  1  0
  3  6  1  0
  6  7  1  0
  7  8  1  0
  8  9  1  0
  9 10  2  0
 10 11  1  0
 11 12  2  0
 12 13  1  0
 13 14  1  0
 13 15  2  0
 15 16  1  0
 16 17  2  0
 17 18  1  0
 18 19  1  0
 19 20  2  0
 20 21  1  0
 21 22  2  0
 22 23  1  0
 23 24  2  0
 24  9  1  0
 17 11  1  0
 24 19  1  0
  1 25  1  0
  1 26  1  0
  1 27  1  0
  2 28  1  0
  2 29  1  0
  3 30  1  0
  4 31  1  0
  4 32  1  0
  5 33  1  0
  5 34  1  0
  5 35  1  0
  6 36  1  0
  6 37  1  0
  7 38  1  0
  7 39  1  0
  8 40  1  0
 10 41  1  0
 12 42  1  0
 15 43  1  0
 16 44  1  0
 20 45  1  0
 21 46  1  0
 22 47  1  0
 23 48  1  0
M  CHG  1   3   1
M  END
>  <UniqueID>  (48) 
44

>  <SMILES>  (48) 
CC[NH+](CC)CCNC1=Cc2cc(Cl)ccc2Sc2ccccc21

>  <Energy>  (48) 
67.4721233408418

>  <Genealogy>  (48) 
CC[NH+](CC)CCNC1=Cc2cc(Cl)ccc2Sc2ccccc21 (protonated)
CC[NH+](CC)CCNC1=Cc2cc(Cl)ccc2Sc2ccccc21 (3D coordinates assigned)
CC[NH+](CC)CCNC1=Cc2cc(Cl)ccc2Sc2ccccc21 (nonaromatic ring conformer: 67.4721233408418 kcal/mol)

>  <smiles>  (48) 
CCN(CC)CCNC1=Cc2cc(Cl)ccc2Sc2ccccc21

>  <score_type>  (48) 
oracle

>  <origin>  (48) 
adg

>  <m_score__min__energy>  (48) 
-6.4100000000000001

>  <m_primary>  (48) 
energy

$$$$
