0:0
     RDKit          3D

 51 53  0  0  0  0  0  0  0  0999 V2000
   -4.1460   16.2360  -33.2880 C   0  0  0  0  0  0  0  0  0  0  0  0
   -5.0510   17.3820  -33.1010 N   0  0  0  0  0  0  0  0  0  0  0  0
   -5.6540   17.7740  -34.3850 C   0  0  0  0  0  0  0  0  0  0  0  0
   -6.3190   19.1410  -34.2160 C   0  0  0  0  0  0  0  0  0  0  0  0
   -6.9950   19.2410  -32.9150 N   0  0  0  0  0  0  0  0  0  0  0  0
   -7.4330   20.5270  -32.4390 C   0  0  0  0  0  0  0  0  0  0  0  0
   -8.7480   20.6790  -31.9700 C   0  0  0  0  0  0  0  0  0  0  0  0
   -9.2180   21.9320  -31.5720 C   0  0  0  0  0  0  0  0  0  0  0  0
   -8.3840   23.0490  -31.6470 C   0  0  0  0  0  0  0  0  0  0  0  0
   -7.0740   22.9130  -32.1110 C   0  0  0  0  0  0  0  0  0  0  0  0
   -6.5860   21.6560  -32.4960 C   0  0  0  0  0  0  0  0  0  0  0  0
   -5.2260   21.5440  -32.9300 N   0  0  0  0  0  0  0  0  0  0  0  0
   -4.2670   20.7600  -32.2050 C   0  0  0  0  0  0  0  0  0  0  0  0
   -4.6540   20.0260  -31.2550 O   0  0  0  0  0  0  0  0  0  0  0  0
   -2.8210   20.8260  -32.5360 C   0  0  0  0  0  0  0  0  0  0  0  0
   -2.3780   20.3990  -33.8030 C   0  0  0  0  0  0  0  0  0  0  0  0
   -1.0310   20.4990  -34.1590 C   0  0  0  0  0  0  0  0  0  0  0  0
   -0.1080   21.0340  -33.2620 C   0  0  0  0  0  0  0  0  0  0  0  0
   -0.5280   21.4690  -32.0040 C   0  0  0  0  0  0  0  0  0  0  0  0
   -1.8760   21.3670  -31.6300 C   0  0  0  0  0  0  0  0  0  0  0  0
   -2.2630   21.7870  -30.3120 N   0  0  0  0  0  0  0  0  0  0  0  0
   -2.9490   23.0670  -30.1510 C   0  0  0  0  0  0  0  0  0  0  0  0
   -2.2400   20.8280  -29.2090 C   0  0  0  0  0  0  0  0  0  0  0  0
   -7.2920   18.0310  -32.1360 C   0  0  0  0  0  0  0  0  0  0  0  0
   -6.0940   17.0540  -32.1050 C   0  0  0  0  0  0  0  0  0  0  0  0
   -3.8390   15.8472  -32.3059 H   0  0  0  0  0  0  0  0  0  0  0  0
   -4.6663   15.4456  -33.8489 H   0  0  0  0  0  0  0  0  0  0  0  0
   -3.2566   16.5589  -33.8489 H   0  0  0  0  0  0  0  0  0  0  0  0
   -4.8733   17.8349  -35.1576 H   0  0  0  0  0  0  0  0  0  0  0  0
   -6.4021   17.0281  -34.6916 H   0  0  0  0  0  0  0  0  0  0  0  0
   -5.5508   19.9254  -34.2834 H   0  0  0  0  0  0  0  0  0  0  0  0
   -7.0689   19.2664  -35.0109 H   0  0  0  0  0  0  0  0  0  0  0  0
   -9.4127   19.8042  -31.9158 H   0  0  0  0  0  0  0  0  0  0  0  0
  -10.2472   22.0392  -31.1987 H   0  0  0  0  0  0  0  0  0  0  0  0
   -8.7589   24.0367  -31.3405 H   0  0  0  0  0  0  0  0  0  0  0  0
   -6.4216   23.7963  -32.1748 H   0  0  0  0  0  0  0  0  0  0  0  0
   -4.9200   22.1480  -33.7240 H   0  0  0  0  0  0  0  0  0  0  0  0
   -3.1007   19.9822  -34.5200 H   0  0  0  0  0  0  0  0  0  0  0  0
   -0.6980   20.1548  -35.1493 H   0  0  0  0  0  0  0  0  0  0  0  0
    0.9518   21.1134  -33.5456 H   0  0  0  0  0  0  0  0  0  0  0  0
    0.2032   21.8947  -31.3011 H   0  0  0  0  0  0  0  0  0  0  0  0
   -3.0672   23.2875  -29.0798 H   0  0  0  0  0  0  0  0  0  0  0  0
   -2.3565   23.8628  -30.6260 H   0  0  0  0  0  0  0  0  0  0  0  0
   -3.9398   23.0143  -30.6260 H   0  0  0  0  0  0  0  0  0  0  0  0
   -2.2530   21.3698  -28.2518 H   0  0  0  0  0  0  0  0  0  0  0  0
   -3.1227   20.1748  -29.2726 H   0  0  0  0  0  0  0  0  0  0  0  0
   -1.3270   20.2178  -29.2726 H   0  0  0  0  0  0  0  0  0  0  0  0
   -7.5382   18.3240  -31.1047 H   0  0  0  0  0  0  0  0  0  0  0  0
   -8.1377   17.5168  -32.6160 H   0  0  0  0  0  0  0  0  0  0  0  0
   -5.6427   17.0854  -31.1024 H   0  0  0  0  0  0  0  0  0  0  0  0
   -6.4802   16.0541  -32.3521 H   0  0  0  0  0  0  0  0  0  0  0  0
  1  2  1  0
  2  3  1  0
  3  4  1  0
  4  5  1  0
  5  6  1  0
  6  7  2  0
  7  8  1  0
  8  9  2  0
  9 10  1  0
 10 11  2  0
 11 12  1  0
 12 13  1  0
 13 14  2  0
 13 15  1  0
 15 16  2  0
 16 17  1  0
 17 18  2  0
 18 19  1  0
 19 20  2  0
 20 21  1  0
 21 22  1  0
 21 23  1  0
  5 24  1  0
 24 25  1  0
 25  2  1  0
 11  6  1  0
 20 15  1  0
  1 26  1  0
  1 27  1  0
  1 28  1  0
  3 29  1  0
  3 30  1  0
  4 31  1  0
  4 32  1  0
  7 33  1  0
  8 34  1  0
  9 35  1  0
 10 36  1  0
 12 37  1  0
 16 38  1  0
 17 39  1  0
 18 40  1  0
 19 41  1  0
 22 42  1  0
 22 43  1  0
 22 44  1  0
 23 45  1  0
 23 46  1  0
 23 47  1  0
 24 48  1  0
 24 49  1  0
 25 50  1  0
 25 51  1  0
M  END
>  <UniqueID>  (1) 
1

>  <SMILES>  (1) 
CN1CCN(c2ccccc2NC(=O)c2ccccc2N(C)C)CC1

>  <Energy>  (1) 
73.43209072284048

>  <Genealogy>  (1) 
CN1CCN(c2ccccc2NC(=O)c2ccccc2N(C)C)CC1 (3D coordinates assigned)
CN1CCN(c2ccccc2NC(=O)c2ccccc2N(C)C)CC1 (nonaromatic ring conformer: 73.43209072284048 kcal/mol)

>  <smiles>  (1) 
CN1CCN(c2ccccc2NC(=O)c2ccccc2N(C)C)CC1

>  <score_type>  (1) 
oracle

>  <origin>  (1) 
adg

>  <m_score__min__energy>  (1) 
-7.7199999999999998

>  <m_primary>  (1) 
energy

$$$$
1:0
     RDKit          3D

 40 43  0  0  0  0  0  0  0  0999 V2000
   -1.3630   20.9520  -34.5900 N   0  0  0  0  0  0  0  0  0  0  0  0
   -1.2800   21.4160  -33.2040 C   0  0  0  0  0  0  0  0  0  0  0  0
   -2.6590   21.4430  -32.5110 C   0  0  0  0  0  0  0  0  0  0  0  0
   -3.8850   21.4320  -33.4510 C   0  0  0  0  0  0  0  0  0  0  0  0
   -4.6690   20.1870  -33.3640 N   0  0  0  0  0  0  0  0  0  0  0  0
   -5.9930   20.1640  -32.9750 C   0  0  0  0  0  0  0  0  0  0  0  0
   -6.7380   18.9880  -33.0350 C   0  0  0  0  0  0  0  0  0  0  0  0
   -6.1540   17.7750  -33.4160 C   0  0  0  0  0  0  0  0  0  0  0  0
   -6.8720   16.5620  -33.4560 C   0  0  0  0  0  0  0  0  0  0  0  0
   -6.2350   15.3800  -33.8350 C   0  0  0  0  0  0  0  0  0  0  0  0
   -4.8830   15.3870  -34.1770 C   0  0  0  0  0  0  0  0  0  0  0  0
   -4.1590   16.5800  -34.1450 C   0  0  0  0  0  0  0  0  0  0  0  0
   -4.7830   17.7860  -33.7640 C   0  0  0  0  0  0  0  0  0  0  0  0
   -4.0620   19.0060  -33.7420 C   0  0  0  0  0  0  0  0  0  0  0  0
   -2.8430   19.0020  -34.0760 O   0  0  0  0  0  0  0  0  0  0  0  0
   -8.1220   19.2980  -32.6720 C   0  0  0  0  0  0  0  0  0  0  0  0
   -9.1000   18.5060  -32.6320 O   0  0  0  0  0  0  0  0  0  0  0  0
   -8.1730   20.7120  -32.3640 C   0  0  0  0  0  0  0  0  0  0  0  0
   -9.2670   21.4570  -31.9240 C   0  0  0  0  0  0  0  0  0  0  0  0
   -9.0680   22.8060  -31.6080 C   0  0  0  0  0  0  0  0  0  0  0  0
   -7.7880   23.3740  -31.7090 C   0  0  0  0  0  0  0  0  0  0  0  0
   -6.6960   22.6050  -32.1450 C   0  0  0  0  0  0  0  0  0  0  0  0
   -6.9060   21.2610  -32.5120 C   0  0  0  0  0  0  0  0  0  0  0  0
   -0.7980   21.5700  -35.2170 H   0  0  0  0  0  0  0  0  0  0  0  0
   -0.9780   19.9820  -34.6460 H   0  0  0  0  0  0  0  0  0  0  0  0
   -2.3540   20.9280  -34.9140 H   0  0  0  0  0  0  0  0  0  0  0  0
   -0.6161   20.7408  -32.6442 H   0  0  0  0  0  0  0  0  0  0  0  0
   -0.8898   22.4444  -33.2165 H   0  0  0  0  0  0  0  0  0  0  0  0
   -2.7261   20.5598  -31.8587 H   0  0  0  0  0  0  0  0  0  0  0  0
   -2.7040   22.4015  -31.9731 H   0  0  0  0  0  0  0  0  0  0  0  0
   -4.5379   22.2762  -33.1847 H   0  0  0  0  0  0  0  0  0  0  0  0
   -3.5089   21.5114  -34.4816 H   0  0  0  0  0  0  0  0  0  0  0  0
   -7.9386   16.5476  -33.1873 H   0  0  0  0  0  0  0  0  0  0  0  0
   -6.8020   14.4378  -33.8642 H   0  0  0  0  0  0  0  0  0  0  0  0
   -4.3864   14.4510  -34.4724 H   0  0  0  0  0  0  0  0  0  0  0  0
   -3.0937   16.5795  -34.4190 H   0  0  0  0  0  0  0  0  0  0  0  0
  -10.2611   20.9960  -31.8278 H   0  0  0  0  0  0  0  0  0  0  0  0
   -9.9172   23.4231  -31.2795 H   0  0  0  0  0  0  0  0  0  0  0  0
   -7.6387   24.4312  -31.4442 H   0  0  0  0  0  0  0  0  0  0  0  0
   -5.6900   23.0466  -32.1991 H   0  0  0  0  0  0  0  0  0  0  0  0
  1  2  1  0
  2  3  1  0
  3  4  1  0
  4  5  1  0
  5  6  1  0
  6  7  2  0
  7  8  1  0
  8  9  2  0
  9 10  1  0
 10 11  2  0
 11 12  1  0
 12 13  2  0
 13 14  1  0
 14 15  2  0
  7 16  1  0
 16 17  2  0
 16 18  1  0
 18 19  2  0
 19 20  1  0
 20 21  2  0
 21 22  1  0
 22 23  2  0
 14  5  1  0
 23 18  1  0
 23  6  1  0
 13  8  1  0
  1 24  1  0
  1 25  1  0
  1 26  1  0
  2 27  1  0
  2 28  1  0
  3 29  1  0
  3 30  1  0
  4 31  1  0
  4 32  1  0
  9 33  1  0
 10 34  1  0
 11 35  1  0
 12 36  1  0
 19 37  1  0
 20 38  1  0
 21 39  1  0
 22 40  1  0
M  CHG  1   1   1
M  END
>  <UniqueID>  (2) 
2

>  <SMILES>  (2) 
[NH3+]CCCn1c2c(c3ccccc3c1=O)C(=O)c1ccccc1-2

>  <Energy>  (2) 
93.54470237298098

>  <Genealogy>  (2) 
[NH3+]CCCn1c2c(c3ccccc3c1=O)C(=O)c1ccccc1-2 (protonated)
[NH3+]CCCn1c2c(c3ccccc3c1=O)C(=O)c1ccccc1-2 (3D coordinates assigned)
[NH3+]CCCn1c2c(c3ccccc3c1=O)C(=O)c1ccccc1-2 (nonaromatic ring conformer: 93.54470237298098 kcal/mol)

>  <smiles>  (2) 
NCCCn1c2c(c3ccccc3c1=O)C(=O)c1ccccc1-2

>  <score_type>  (2) 
oracle

>  <origin>  (2) 
adg

>  <m_score__min__energy>  (2) 
-7.7400000000000002

>  <m_primary>  (2) 
energy

$$$$
2:0
     RDKit          3D

 58 60  0  0  0  0  0  0  0  0999 V2000
   -9.2530   21.3820  -31.7290 C   0  0  0  0  0  0  0  0  0  0  0  0
   -9.1300   19.9170  -32.1560 C   0  0  0  0  0  0  0  0  0  0  0  0
   -7.8570   19.6300  -32.8750 N   0  0  0  0  0  0  0  0  0  0  0  0
   -7.2030   18.3970  -32.3320 C   0  0  0  0  0  0  0  0  0  0  0  0
   -6.8720   17.3840  -33.4340 C   0  0  0  0  0  0  0  0  0  0  0  0
   -6.9390   20.7990  -32.7700 C   0  0  0  0  0  0  0  0  0  0  0  0
   -5.4660   20.3870  -32.5430 C   0  0  0  0  0  0  0  0  0  0  0  0
   -4.5040   21.1440  -33.4680 C   0  0  0  0  0  0  0  0  0  0  0  0
   -3.6460   22.0470  -32.7050 N   0  0  0  0  0  0  0  0  0  0  0  0
   -2.9220   21.6110  -31.5430 C   0  0  0  0  0  0  0  0  0  0  0  0
   -1.8920   20.6730  -31.6850 C   0  0  0  0  0  0  0  0  0  0  0  0
   -1.1520   20.2560  -30.5820 C   0  0  0  0  0  0  0  0  0  0  0  0
   -1.4250   20.7740  -29.3110 C   0  0  0  0  0  0  0  0  0  0  0  0
   -0.6700   20.3540  -28.2040 C   0  0  0  0  0  0  0  0  0  0  0  0
   -0.9350   20.8680  -26.9350 C   0  0  0  0  0  0  0  0  0  0  0  0
   -1.9520   21.8050  -26.7570 C   0  0  0  0  0  0  0  0  0  0  0  0
   -2.7140   22.2340  -27.8470 C   0  0  0  0  0  0  0  0  0  0  0  0
   -2.4660   21.7240  -29.1400 C   0  0  0  0  0  0  0  0  0  0  0  0
   -3.2210   22.1410  -30.2680 C   0  0  0  0  0  0  0  0  0  0  0  0
   -4.3730   23.0580  -30.1140 C   0  0  0  0  0  0  0  0  0  0  0  0
   -5.6740   22.5410  -30.1930 C   0  0  0  0  0  0  0  0  0  0  0  0
   -6.7770   23.3840  -30.0510 C   0  0  0  0  0  0  0  0  0  0  0  0
   -6.5900   24.7510  -29.8460 C   0  0  0  0  0  0  0  0  0  0  0  0
   -5.2980   25.2780  -29.7650 C   0  0  0  0  0  0  0  0  0  0  0  0
   -4.1760   24.4350  -29.8910 C   0  0  0  0  0  0  0  0  0  0  0  0
   -2.8630   24.9240  -29.8010 O   0  0  0  0  0  0  0  0  0  0  0  0
   -2.1260   25.0360  -28.5870 C   0  0  0  0  0  0  0  0  0  0  0  0
   -9.2583   21.4446  -30.6308 H   0  0  0  0  0  0  0  0  0  0  0  0
   -8.3996   21.9522  -32.1247 H   0  0  0  0  0  0  0  0  0  0  0  0
  -10.1896   21.8019  -32.1247 H   0  0  0  0  0  0  0  0  0  0  0  0
   -9.1766   19.2840  -31.2576 H   0  0  0  0  0  0  0  0  0  0  0  0
   -9.9571   19.7035  -32.8490 H   0  0  0  0  0  0  0  0  0  0  0  0
   -8.0760   19.4950  -33.8910 H   0  0  0  0  0  0  0  0  0  0  0  0
   -6.2709   18.6849  -31.8239 H   0  0  0  0  0  0  0  0  0  0  0  0
   -7.9078   17.9198  -31.6352 H   0  0  0  0  0  0  0  0  0  0  0  0
   -6.5613   16.4331  -32.9766 H   0  0  0  0  0  0  0  0  0  0  0  0
   -7.7623   17.2171  -34.0581 H   0  0  0  0  0  0  0  0  0  0  0  0
   -6.0549   17.7750  -34.0581 H   0  0  0  0  0  0  0  0  0  0  0  0
   -7.0017   21.3797  -33.7021 H   0  0  0  0  0  0  0  0  0  0  0  0
   -7.2551   21.3905  -31.8981 H   0  0  0  0  0  0  0  0  0  0  0  0
   -5.1952   20.6008  -31.4985 H   0  0  0  0  0  0  0  0  0  0  0  0
   -5.3767   19.3139  -32.7677 H   0  0  0  0  0  0  0  0  0  0  0  0
   -3.8753   20.4183  -34.0047 H   0  0  0  0  0  0  0  0  0  0  0  0
   -5.0965   21.7399  -34.1778 H   0  0  0  0  0  0  0  0  0  0  0  0
   -3.7190   23.0700  -32.8980 H   0  0  0  0  0  0  0  0  0  0  0  0
   -1.6650   20.2610  -32.6793 H   0  0  0  0  0  0  0  0  0  0  0  0
   -0.3486   19.5156  -30.7102 H   0  0  0  0  0  0  0  0  0  0  0  0
    0.1344   19.6159  -28.3385 H   0  0  0  0  0  0  0  0  0  0  0  0
   -0.3402   20.5334  -26.0723 H   0  0  0  0  0  0  0  0  0  0  0  0
   -2.1555   22.2084  -25.7541 H   0  0  0  0  0  0  0  0  0  0  0  0
   -3.5132   22.9747  -27.6965 H   0  0  0  0  0  0  0  0  0  0  0  0
   -5.8259   21.4657  -30.3678 H   0  0  0  0  0  0  0  0  0  0  0  0
   -7.7949   22.9701  -30.1008 H   0  0  0  0  0  0  0  0  0  0  0  0
   -7.4611   25.4156  -29.7479 H   0  0  0  0  0  0  0  0  0  0  0  0
   -5.1563   26.3566  -29.6020 H   0  0  0  0  0  0  0  0  0  0  0  0
   -2.8101   24.9320  -27.7319 H   0  0  0  0  0  0  0  0  0  0  0  0
   -1.3645   24.2433  -28.5459 H   0  0  0  0  0  0  0  0  0  0  0  0
   -1.6344   26.0192  -28.5459 H   0  0  0  0  0  0  0  0  0  0  0  0
  1  2  1  0
  2  3  1  0
  3  4  1  0
  4  5  1  0
  3  6  1  0
  6  7  1  0
  7  8  1  0
  8  9  1  0
  9 10  1  0
 10 11  2  0
 11 12  1  0
 12 13  2  0
 13 14  1  0
 14 15  2  0
 15 16  1  0
 16 17  2  0
 17 18  1  0
 18 19  2  0
 19 20  1  0
 20 21  2  0
 21 22  1  0
 22 23  2  0
 23 24  1  0
 24 25  2  0
 25 26  1  0
 26 27  1  0
 19 10  1  0
 25 20  1  0
 18 13  1  0
  1 28  1  0
  1 29  1  0
  1 30  1  0
  2 31  1  0
  2 32  1  0
  3 33  1  0
  4 34  1  0
  4 35  1  0
  5 36  1  0
  5 37  1  0
  5 38  1  0
  6 39  1  0
  6 40  1  0
  7 41  1  0
  7 42  1  0
  8 43  1  0
  8 44  1  0
  9 45  1  0
 11 46  1  0
 12 47  1  0
 14 48  1  0
 15 49  1  0
 16 50  1  0
 17 51  1  0
 21 52  1  0
 22 53  1  0
 23 54  1  0
 24 55  1  0
 27 56  1  0
 27 57  1  0
 27 58  1  0
M  CHG  1   3   1
M  END
>  <UniqueID>  (3) 
3

>  <SMILES>  (3) 
CC[NH+](CC)CCCNc1ccc2ccccc2c1-c1ccccc1OC

>  <Energy>  (3) 
73.18552995034332

>  <Genealogy>  (3) 
CC[NH+](CC)CCCNc1ccc2ccccc2c1-c1ccccc1OC (protonated)
CC[NH+](CC)CCCNc1ccc2ccccc2c1-c1ccccc1OC (3D coordinates assigned)
CC[NH+](CC)CCCNc1ccc2ccccc2c1-c1ccccc1OC (optimized conformer: 73.18552995034332 kcal/mol)

>  <smiles>  (3) 
CCN(CC)CCCNc1ccc2ccccc2c1-c1ccccc1OC

>  <score_type>  (3) 
oracle

>  <origin>  (3) 
adg

>  <m_score__min__energy>  (3) 
-7.6100000000000003

>  <m_primary>  (3) 
energy

$$$$
3:0
     RDKit          3D

 33 35  0  0  0  0  0  0  0  0999 V2000
   -5.3650   26.0310  -30.4670 C   0  0  0  0  0  0  0  0  0  0  0  0
   -4.1800   25.3030  -30.7500 O   0  0  0  0  0  0  0  0  0  0  0  0
   -4.0160   23.9260  -30.5430 C   0  0  0  0  0  0  0  0  0  0  0  0
   -4.7150   22.9410  -31.2320 C   0  0  0  0  0  0  0  0  0  0  0  0
   -5.7260   23.1740  -32.3100 C   0  0  0  0  0  0  0  0  0  0  0  0
   -7.4230   23.0610  -31.6420 S   0  0  0  0  0  0  0  0  0  0  0  0
   -7.6190   21.3090  -31.9910 C   0  0  0  0  0  0  0  0  0  0  0  0
   -8.7050   20.6060  -31.4540 C   0  0  0  0  0  0  0  0  0  0  0  0
   -8.8440   19.2360  -31.7000 C   0  0  0  0  0  0  0  0  0  0  0  0
   -7.9030   18.5700  -32.4920 C   0  0  0  0  0  0  0  0  0  0  0  0
   -6.8270   19.2740  -33.0420 C   0  0  0  0  0  0  0  0  0  0  0  0
   -6.6870   20.6430  -32.7960 C   0  0  0  0  0  0  0  0  0  0  0  0
   -4.3290   21.7440  -30.8370 O   0  0  0  0  0  0  0  0  0  0  0  0
   -3.4090   21.9050  -29.9160 C   0  0  0  0  0  0  0  0  0  0  0  0
   -2.7290   20.9030  -29.2290 C   0  0  0  0  0  0  0  0  0  0  0  0
   -1.7690   21.2900  -28.2790 C   0  0  0  0  0  0  0  0  0  0  0  0
   -1.5150   22.6570  -28.0370 C   0  0  0  0  0  0  0  0  0  0  0  0
   -2.2150   23.6510  -28.7440 C   0  0  0  0  0  0  0  0  0  0  0  0
   -3.1660   23.2410  -29.6860 C   0  0  0  0  0  0  0  0  0  0  0  0
   -5.4949   26.1108  -29.3776 H   0  0  0  0  0  0  0  0  0  0  0  0
   -5.2891   27.0385  -30.9020 H   0  0  0  0  0  0  0  0  0  0  0  0
   -6.2294   25.5079  -30.9020 H   0  0  0  0  0  0  0  0  0  0  0  0
   -5.5727   24.1756  -32.7380 H   0  0  0  0  0  0  0  0  0  0  0  0
   -5.5997   22.4035  -33.0849 H   0  0  0  0  0  0  0  0  0  0  0  0
   -9.4494   21.1319  -30.8381 H   0  0  0  0  0  0  0  0  0  0  0  0
   -9.6926   18.6830  -31.2710 H   0  0  0  0  0  0  0  0  0  0  0  0
   -8.0093   17.4918  -32.6824 H   0  0  0  0  0  0  0  0  0  0  0  0
   -6.0903   18.7501  -33.6687 H   0  0  0  0  0  0  0  0  0  0  0  0
   -5.8443   21.1972  -33.2351 H   0  0  0  0  0  0  0  0  0  0  0  0
   -2.9371   19.8406  -29.4241 H   0  0  0  0  0  0  0  0  0  0  0  0
   -1.2121   20.5231  -27.7206 H   0  0  0  0  0  0  0  0  0  0  0  0
   -0.7629   22.9476  -27.2888 H   0  0  0  0  0  0  0  0  0  0  0  0
   -2.0211   24.7184  -28.5623 H   0  0  0  0  0  0  0  0  0  0  0  0
  1  2  1  0
  2  3  1  0
  3  4  2  0
  4  5  1  0
  5  6  1  0
  6  7  1  0
  7  8  2  0
  8  9  1  0
  9 10  2  0
 10 11  1  0
 11 12  2  0
  4 13  1  0
 13 14  1  0
 14 15  2  0
 15 16  1  0
 16 17  2  0
 17 18  1  0
 18 19  2  0
 19  3  1  0
 12  7  1  0
 19 14  1  0
  1 20  1  0
  1 21  1  0
  1 22  1  0
  5 23  1  0
  5 24  1  0
  8 25  1  0
  9 26  1  0
 10 27  1  0
 11 28  1  0
 12 29  1  0
 15 30  1  0
 16 31  1  0
 17 32  1  0
 18 33  1  0
M  END
>  <UniqueID>  (4) 
4

>  <SMILES>  (4) 
COc1c(CSc2ccccc2)oc2ccccc12

>  <Energy>  (4) 
64.10839688364499

>  <Genealogy>  (4) 
COc1c(CSc2ccccc2)oc2ccccc12 (3D coordinates assigned)
COc1c(CSc2ccccc2)oc2ccccc12 (optimized conformer: 64.10839688364499 kcal/mol)

>  <smiles>  (4) 
COc1c(CSc2ccccc2)oc2ccccc12

>  <score_type>  (4) 
oracle

>  <origin>  (4) 
adg

>  <m_score__min__energy>  (4) 
-7.2400000000000002

>  <m_primary>  (4) 
energy

$$$$
4:0
     RDKit          3D

 44 44  0  0  0  0  0  0  0  0999 V2000
   -1.2740   20.9410  -26.9970 C   0  0  0  0  0  0  0  0  0  0  0  0
   -0.1340   21.9530  -27.0690 C   0  0  0  0  0  0  0  0  0  0  0  0
   -0.6610   23.3130  -27.1760 N   0  0  0  0  0  0  0  0  0  0  0  0
    0.0840   24.3840  -27.7740 C   0  0  0  0  0  0  0  0  0  0  0  0
    1.2420   24.1770  -28.2270 O   0  0  0  0  0  0  0  0  0  0  0  0
   -0.5460   25.7320  -27.9390 C   0  0  0  0  0  0  0  0  0  0  0  0
   -1.6100   25.6710  -28.9310 N   0  0  0  0  0  0  0  0  0  0  0  0
   -2.6720   24.7160  -28.8680 C   0  0  0  0  0  0  0  0  0  0  0  0
   -3.1040   24.3210  -27.7510 O   0  0  0  0  0  0  0  0  0  0  0  0
   -3.2260   24.1370  -30.1400 C   0  0  1  0  0  0  0  0  0  0  0  0
   -4.0920   22.9110  -29.8320 C   0  0  0  0  0  0  0  0  0  0  0  0
   -3.7870   21.5810  -31.0580 S   0  0  0  0  0  0  0  0  0  0  0  0
   -4.9230   22.1960  -32.3510 C   0  0  0  0  0  0  0  0  0  0  0  0
   -6.2660   21.5320  -32.2240 C   0  0  0  0  0  0  0  0  0  0  0  0
   -6.4830   20.2700  -32.8020 C   0  0  0  0  0  0  0  0  0  0  0  0
   -7.7290   19.6460  -32.6870 C   0  0  0  0  0  0  0  0  0  0  0  0
   -8.7640   20.2730  -31.9880 C   0  0  0  0  0  0  0  0  0  0  0  0
   -8.5520   21.5230  -31.3990 C   0  0  0  0  0  0  0  0  0  0  0  0
   -7.3090   22.1530  -31.5160 C   0  0  0  0  0  0  0  0  0  0  0  0
   -4.0340   25.1340  -30.8400 N   0  0  0  0  0  0  0  0  0  0  0  0
   -5.4670   25.1950  -30.8140 C   0  0  0  0  0  0  0  0  0  0  0  0
   -6.2150   25.6600  -29.6010 C   0  0  0  0  0  0  0  0  0  0  0  0
   -6.1100   24.8520  -31.8410 O   0  0  0  0  0  0  0  0  0  0  0  0
   -1.5113   20.7303  -25.9438 H   0  0  0  0  0  0  0  0  0  0  0  0
   -2.1625   21.3533  -27.4977 H   0  0  0  0  0  0  0  0  0  0  0  0
   -0.9699   20.0099  -27.4977 H   0  0  0  0  0  0  0  0  0  0  0  0
    0.4788   21.8730  -26.1590 H   0  0  0  0  0  0  0  0  0  0  0  0
    0.4767   21.7376  -27.9582 H   0  0  0  0  0  0  0  0  0  0  0  0
   -1.5980   23.5150  -26.7620 H   0  0  0  0  0  0  0  0  0  0  0  0
   -0.9655   26.0576  -26.9756 H   0  0  0  0  0  0  0  0  0  0  0  0
    0.2188   26.4471  -28.2761 H   0  0  0  0  0  0  0  0  0  0  0  0
   -2.3828   23.8365  -30.7793 H   0  0  0  0  0  0  0  0  0  0  0  0
   -3.8471   22.5388  -28.8263 H   0  0  0  0  0  0  0  0  0  0  0  0
   -5.1513   23.2033  -29.8819 H   0  0  0  0  0  0  0  0  0  0  0  0
   -5.0440   23.2837  -32.2404 H   0  0  0  0  0  0  0  0  0  0  0  0
   -4.5003   21.9626  -33.3394 H   0  0  0  0  0  0  0  0  0  0  0  0
   -5.6689   19.7705  -33.3476 H   0  0  0  0  0  0  0  0  0  0  0  0
   -7.8947   18.6607  -33.1471 H   0  0  0  0  0  0  0  0  0  0  0  0
   -9.7451   19.7832  -31.9013 H   0  0  0  0  0  0  0  0  0  0  0  0
   -9.3648   22.0122  -30.8422 H   0  0  0  0  0  0  0  0  0  0  0  0
   -7.1473   23.1374  -31.0525 H   0  0  0  0  0  0  0  0  0  0  0  0
   -5.6853   25.3307  -28.6950 H   0  0  0  0  0  0  0  0  0  0  0  0
   -6.2801   26.7580  -29.6090 H   0  0  0  0  0  0  0  0  0  0  0  0
   -7.2285   25.2325  -29.6090 H   0  0  0  0  0  0  0  0  0  0  0  0
  1  2  1  0
  2  3  1  0
  3  4  1  0
  4  5  2  0
  4  6  1  0
  6  7  1  0
  7  8  1  0
  8  9  2  0
  8 10  1  0
 10 11  1  0
 11 12  1  0
 12 13  1  0
 13 14  1  0
 14 15  2  0
 15 16  1  0
 16 17  2  0
 17 18  1  0
 18 19  2  0
 10 20  1  0
 20 21  1  0
 21 22  1  0
 21 23  2  0
 19 14  1  0
  1 24  1  0
  1 25  1  0
  1 26  1  0
  2 27  1  0
  2 28  1  0
  3 29  1  0
  6 30  1  0
  6 31  1  0
 10 32  1  6
 11 33  1  0
 11 34  1  0
 13 35  1  0
 13 36  1  0
 15 37  1  0
 16 38  1  0
 17 39  1  0
 18 40  1  0
 19 41  1  0
 22 42  1  0
 22 43  1  0
 22 44  1  0
M  CHG  2   7  -1  20  -1
M  END
>  <UniqueID>  (5) 
5

>  <SMILES>  (5) 
CCNC(=O)C[N-]C(=O)[C@@H](CSCc1ccccc1)[N-]C(C)=O

>  <Energy>  (5) 
22.10723760817258

>  <Genealogy>  (5) 
CCNC(=O)C[N-]C(=O)C(CSCc1ccccc1)[N-]C(C)=O (protonated)
CCNC(=O)C[N-]C(=O)[C@@H](CSCc1ccccc1)[N-]C(C)=O (chirality)
CCNC(=O)C[N-]C(=O)[C@@H](CSCc1ccccc1)[N-]C(C)=O (3D coordinates assigned)
CCNC(=O)C[N-]C(=O)[C@@H](CSCc1ccccc1)[N-]C(C)=O (optimized conformer: 22.10723760817258 kcal/mol)

>  <smiles>  (5) 
CCNC(=O)CNC(=O)C(CSCc1ccccc1)NC(C)=O

>  <score_type>  (5) 
oracle

>  <origin>  (5) 
adg

>  <m_score__min__energy>  (5) 
-10.25

>  <m_primary>  (5) 
energy

$$$$
5:0
     RDKit          3D

 60 63  0  0  0  0  0  0  0  0999 V2000
   -2.6340   20.3490  -33.3110 C   0  0  0  0  0  0  0  0  0  0  0  0
   -3.4900   21.5880  -33.1020 C   0  0  0  0  0  0  0  0  0  0  0  0
   -3.9020   21.6500  -31.7410 O   0  0  0  0  0  0  0  0  0  0  0  0
   -3.4750   22.6170  -30.8170 C   0  0  0  0  0  0  0  0  0  0  0  0
   -2.1340   22.7090  -30.3950 C   0  0  0  0  0  0  0  0  0  0  0  0
   -1.7580   23.6650  -29.4470 C   0  0  0  0  0  0  0  0  0  0  0  0
   -2.7100   24.5330  -28.9090 C   0  0  0  0  0  0  0  0  0  0  0  0
   -4.0410   24.4540  -29.3240 C   0  0  0  0  0  0  0  0  0  0  0  0
   -4.4270   23.5080  -30.2860 C   0  0  0  0  0  0  0  0  0  0  0  0
   -5.7950   23.4380  -30.7140 N   0  0  0  0  0  0  0  0  0  0  0  0
   -6.1440   23.8240  -32.0870 C   0  0  0  0  0  0  0  0  0  0  0  0
   -7.5580   23.3570  -32.4350 C   0  0  0  0  0  0  0  0  0  0  0  0
   -7.8080   22.0610  -31.7770 N   0  0  0  0  0  0  0  0  0  0  0  0
   -9.0100   21.4020  -32.3280 C   0  0  0  0  0  0  0  0  0  0  0  0
   -8.8170   19.9100  -32.3800 C   0  0  0  0  0  0  0  0  0  0  0  0
   -9.8180   19.1690  -32.5770 O   0  0  0  0  0  0  0  0  0  0  0  0
   -7.5080   19.3220  -32.2430 N   0  0  0  0  0  0  0  0  0  0  0  0
   -6.3170   19.9520  -32.8200 C   0  0  0  0  0  0  0  0  0  0  0  0
   -5.8240   19.1150  -34.0040 C   0  0  0  0  0  0  0  0  0  0  0  0
   -5.7370   17.6880  -33.6420 N   0  0  0  0  0  0  0  0  0  0  0  0
   -4.7360   16.8480  -34.2640 C   0  0  0  0  0  0  0  0  0  0  0  0
   -4.9300   15.5030  -34.3650 N   0  0  0  0  0  0  0  0  0  0  0  0
   -4.0040   14.6990  -34.9480 C   0  0  0  0  0  0  0  0  0  0  0  0
   -2.8290   15.2460  -35.4570 C   0  0  0  0  0  0  0  0  0  0  0  0
   -2.6380   16.6220  -35.3490 C   0  0  0  0  0  0  0  0  0  0  0  0
   -3.5880   17.3920  -34.7580 N   0  0  0  0  0  0  0  0  0  0  0  0
   -6.8920   17.0710  -32.9640 C   0  0  0  0  0  0  0  0  0  0  0  0
   -7.3540   17.9390  -31.7930 C   0  0  0  0  0  0  0  0  0  0  0  0
   -7.9380   22.2430  -30.3140 C   0  0  0  0  0  0  0  0  0  0  0  0
   -6.8550   23.1800  -29.7330 C   0  0  0  0  0  0  0  0  0  0  0  0
   -2.3465   19.9329  -32.3342 H   0  0  0  0  0  0  0  0  0  0  0  0
   -3.2070   19.5983  -33.8750 H   0  0  0  0  0  0  0  0  0  0  0  0
   -1.7291   20.6194  -33.8750 H   0  0  0  0  0  0  0  0  0  0  0  0
   -2.9044   22.4855  -33.3501 H   0  0  0  0  0  0  0  0  0  0  0  0
   -4.3750   21.5391  -33.7534 H   0  0  0  0  0  0  0  0  0  0  0  0
   -1.3800   22.0259  -30.8131 H   0  0  0  0  0  0  0  0  0  0  0  0
   -0.7088   23.7336  -29.1239 H   0  0  0  0  0  0  0  0  0  0  0  0
   -2.4115   25.2793  -28.1580 H   0  0  0  0  0  0  0  0  0  0  0  0
   -4.7899   25.1360  -28.8951 H   0  0  0  0  0  0  0  0  0  0  0  0
   -6.0921   24.9189  -32.1789 H   0  0  0  0  0  0  0  0  0  0  0  0
   -5.4335   23.3497  -32.7800 H   0  0  0  0  0  0  0  0  0  0  0  0
   -8.2895   24.0983  -32.0807 H   0  0  0  0  0  0  0  0  0  0  0  0
   -7.6567   23.2470  -33.5250 H   0  0  0  0  0  0  0  0  0  0  0  0
   -9.8746   21.6330  -31.6884 H   0  0  0  0  0  0  0  0  0  0  0  0
   -9.1829   21.7739  -33.3487 H   0  0  0  0  0  0  0  0  0  0  0  0
   -6.5687   20.9654  -33.1661 H   0  0  0  0  0  0  0  0  0  0  0  0
   -5.5265   20.0125  -32.0575 H   0  0  0  0  0  0  0  0  0  0  0  0
   -6.5253   19.2311  -34.8435 H   0  0  0  0  0  0  0  0  0  0  0  0
   -4.8212   19.4664  -34.2884 H   0  0  0  0  0  0  0  0  0  0  0  0
   -4.1820   13.6158  -35.0182 H   0  0  0  0  0  0  0  0  0  0  0  0
   -2.0701   14.6074  -35.9327 H   0  0  0  0  0  0  0  0  0  0  0  0
   -1.7199   17.0836  -35.7415 H   0  0  0  0  0  0  0  0  0  0  0  0
   -7.7180   16.9634  -33.6824 H   0  0  0  0  0  0  0  0  0  0  0  0
   -6.5926   16.0851  -32.5788 H   0  0  0  0  0  0  0  0  0  0  0  0
   -8.3184   17.5658  -31.4179 H   0  0  0  0  0  0  0  0  0  0  0  0
   -6.6063   17.8964  -30.9873 H   0  0  0  0  0  0  0  0  0  0  0  0
   -8.9276   22.6725  -30.0990 H   0  0  0  0  0  0  0  0  0  0  0  0
   -7.8127   21.2568  -29.8432 H   0  0  0  0  0  0  0  0  0  0  0  0
   -7.3214   24.1349  -29.4492 H   0  0  0  0  0  0  0  0  0  0  0  0
   -6.4062   22.6917  -28.8554 H   0  0  0  0  0  0  0  0  0  0  0  0
  1  2  1  0
  2  3  1  0
  3  4  1  0
  4  5  2  0
  5  6  1  0
  6  7  2  0
  7  8  1  0
  8  9  2  0
  9 10  1  0
 10 11  1  0
 11 12  1  0
 12 13  1  0
 13 14  1  0
 14 15  1  0
 15 16  2  0
 15 17  1  0
 17 18  1  0
 18 19  1  0
 19 20  1  0
 20 21  1  0
 21 22  2  0
 22 23  1  0
 23 24  2  0
 24 25  1  0
 25 26  2  0
 20 27  1  0
 27 28  1  0
 13 29  1  0
 29 30  1  0
  9  4  1  0
 30 10  1  0
 28 17  1  0
 26 21  1  0
  1 31  1  0
  1 32  1  0
  1 33  1  0
  2 34  1  0
  2 35  1  0
  5 36  1  0
  6 37  1  0
  7 38  1  0
  8 39  1  0
 11 40  1  0
 11 41  1  0
 12 42  1  0
 12 43  1  0
 14 44  1  0
 14 45  1  0
 18 46  1  0
 18 47  1  0
 19 48  1  0
 19 49  1  0
 23 50  1  0
 24 51  1  0
 25 52  1  0
 27 53  1  0
 27 54  1  0
 28 55  1  0
 28 56  1  0
 29 57  1  0
 29 58  1  0
 30 59  1  0
 30 60  1  0
M  END
>  <UniqueID>  (6) 
6

>  <SMILES>  (6) 
CCOc1ccccc1N1CCN(CC(=O)N2CCN(c3ncccn3)CC2)CC1

>  <Energy>  (6) 
72.14716954033004

>  <Genealogy>  (6) 
CCOc1ccccc1N1CCN(CC(=O)N2CCN(c3ncccn3)CC2)CC1 (3D coordinates assigned)
CCOc1ccccc1N1CCN(CC(=O)N2CCN(c3ncccn3)CC2)CC1 (nonaromatic ring conformer: 72.14716954033004 kcal/mol)

>  <smiles>  (6) 
CCOc1ccccc1N1CCN(CC(=O)N2CCN(c3ncccn3)CC2)CC1

>  <score_type>  (6) 
oracle

>  <origin>  (6) 
adg

>  <m_score__min__energy>  (6) 
-8.9700000000000006

>  <m_primary>  (6) 
energy

$$$$
6:0
     RDKit          3D

 32 34  0  0  0  0  0  0  0  0999 V2000
   -9.9032   21.4496  -31.0038 H   0  0  0  0  0  0  0  0  0  0  0  0
   -9.1030   20.8640  -31.4800 C   0  0  0  0  0  0  0  0  0  0  0  0
   -9.0690   19.5350  -31.5580 C   0  0  0  0  0  0  0  0  0  0  0  0
   -9.8183   18.8464  -31.1403 H   0  0  0  0  0  0  0  0  0  0  0  0
   -7.8700   19.1480  -32.2910 C   0  0  0  0  0  0  0  0  0  0  0  0
   -7.4620   17.8740  -32.6820 C   0  0  0  0  0  0  0  0  0  0  0  0
   -8.0260   16.9815  -32.3732 H   0  0  0  0  0  0  0  0  0  0  0  0
   -6.3130   17.7590  -33.4800 C   0  0  0  0  0  0  0  0  0  0  0  0
   -5.9548   16.7644  -33.7840 H   0  0  0  0  0  0  0  0  0  0  0  0
   -5.6170   18.9110  -33.8930 C   0  0  0  0  0  0  0  0  0  0  0  0
   -4.7251   18.8119  -34.5292 H   0  0  0  0  0  0  0  0  0  0  0  0
   -6.0540   20.1860  -33.4980 C   0  0  0  0  0  0  0  0  0  0  0  0
   -5.5322   21.0913  -33.8417 H   0  0  0  0  0  0  0  0  0  0  0  0
   -7.1700   20.2780  -32.6560 C   0  0  0  0  0  0  0  0  0  0  0  0
   -7.9120   21.4300  -32.1250 C   0  0  0  0  0  0  0  0  0  0  0  0
   -7.6240   22.7390  -32.1570 C   0  0  0  0  0  0  0  0  0  0  0  0
   -8.2922   23.3965  -32.7325 H   0  0  0  0  0  0  0  0  0  0  0  0
   -6.4750   23.3570  -31.4750 C   0  0  0  0  0  0  0  0  0  0  0  0
   -5.1940   22.8190  -31.6500 C   0  0  0  0  0  0  0  0  0  0  0  0
   -5.0576   21.9172  -32.2649 H   0  0  0  0  0  0  0  0  0  0  0  0
   -4.0880   23.4240  -31.0460 C   0  0  0  0  0  0  0  0  0  0  0  0
   -3.0884   22.9826  -31.1720 H   0  0  0  0  0  0  0  0  0  0  0  0
   -4.2420   24.5870  -30.2820 C   0  0  0  0  0  0  0  0  0  0  0  0
   -3.1010   25.1530  -29.6930 O   0  0  0  0  0  0  0  0  0  0  0  0
   -2.3690   24.5590  -28.6270 C   0  0  0  0  0  0  0  0  0  0  0  0
   -2.7836   24.8955  -27.6653 H   0  0  0  0  0  0  0  0  0  0  0  0
   -2.4447   23.4638  -28.6958 H   0  0  0  0  0  0  0  0  0  0  0  0
   -1.3128   24.8586  -28.6958 H   0  0  0  0  0  0  0  0  0  0  0  0
   -5.5250   25.1460  -30.1330 C   0  0  0  0  0  0  0  0  0  0  0  0
   -5.6579   26.0629  -29.5400 H   0  0  0  0  0  0  0  0  0  0  0  0
   -6.6310   24.5400  -30.7360 C   0  0  0  0  0  0  0  0  0  0  0  0
   -7.6282   24.9924  -30.6308 H   0  0  0  0  0  0  0  0  0  0  0  0
  1  2  1  0
  2  3  2  0
  3  4  1  0
  3  5  1  0
  5  6  2  0
  6  7  1  0
  6  8  1  0
  8  9  1  0
  8 10  2  0
 10 11  1  0
 10 12  1  0
 12 13  1  0
 12 14  2  0
 14 15  1  0
 15 16  2  0
 16 17  1  0
 16 18  1  0
 18 19  2  0
 19 20  1  0
 19 21  1  0
 21 22  1  0
 21 23  2  0
 23 24  1  0
 24 25  1  0
 25 26  1  0
 25 27  1  0
 25 28  1  0
 23 29  1  0
 29 30  1  0
 29 31  2  0
 31 32  1  0
 15  2  1  0
 31 18  1  0
 14  5  1  0
M  END
>  <UniqueID>  (7) 
7

>  <SMILES>  (7) 
COc1ccc(/C=C2/C=Cc3ccccc32)cc1

>  <Energy>  (7) 
68.66006243824398

>  <Genealogy>  (7) 
COc1ccc(/C=C2/C=Cc3ccccc32)cc1 (cis-trans isomerization)
COc1ccc(/C=C2/C=Cc3ccccc32)cc1 (3D coordinates assigned)
COc1ccc(/C=C2/C=Cc3ccccc32)cc1 (nonaromatic ring conformer: 68.66006243824398 kcal/mol)

>  <smiles>  (7) 
COc1ccc(C=C2C=Cc3ccccc32)cc1

>  <score_type>  (7) 
oracle

>  <origin>  (7) 
adg

>  <m_score__min__energy>  (7) 
-9.0299999999999994

>  <m_primary>  (7) 
energy

$$$$
7:0
     RDKit          3D

 54 58  0  0  0  0  0  0  0  0999 V2000
   -6.4504   15.1856  -34.7050 H   0  0  0  0  0  0  0  0  0  0  0  0
   -6.2150   16.1590  -34.2500 C   0  0  0  0  0  0  0  0  0  0  0  0
   -5.2570   16.9870  -34.8350 C   0  0  0  0  0  0  0  0  0  0  0  0
   -4.7402   16.6673  -35.7519 H   0  0  0  0  0  0  0  0  0  0  0  0
   -4.9540   18.2200  -34.2580 C   0  0  0  0  0  0  0  0  0  0  0  0
   -4.1949   18.8674  -34.7213 H   0  0  0  0  0  0  0  0  0  0  0  0
   -5.6110   18.6420  -33.0890 C   0  0  0  0  0  0  0  0  0  0  0  0
   -5.2600   19.9500  -32.4840 C   0  0  0  0  0  0  0  0  0  0  0  0
   -4.0900   20.0660  -31.7260 C   0  0  0  0  0  0  0  0  0  0  0  0
   -3.4502   19.1864  -31.5615 H   0  0  0  0  0  0  0  0  0  0  0  0
   -3.7370   21.2980  -31.1800 C   0  0  0  0  0  0  0  0  0  0  0  0
   -2.5630   21.4590  -30.4390 C   0  0  0  0  0  0  0  0  0  0  0  0
   -1.9005   20.5989  -30.2622 H   0  0  0  0  0  0  0  0  0  0  0  0
   -2.2420   22.6790  -29.9380 N   0  0  0  0  0  0  0  0  0  0  0  0
   -3.0490   23.7580  -30.1360 C   0  0  0  0  0  0  0  0  0  0  0  0
   -2.7310   24.9340  -29.6790 N   0  0  0  0  0  0  0  0  0  0  0  0
   -2.1290   25.2310  -28.4070 C   0  0  0  0  0  0  0  0  0  0  0  0
   -2.6860   24.7850  -27.1960 C   0  0  0  0  0  0  0  0  0  0  0  0
   -3.5930   24.1627  -27.2066 H   0  0  0  0  0  0  0  0  0  0  0  0
   -2.0920   25.1290  -25.9780 C   0  0  0  0  0  0  0  0  0  0  0  0
   -2.5293   24.7633  -25.0372 H   0  0  0  0  0  0  0  0  0  0  0  0
   -0.9420   25.9370  -25.9420 C   0  0  0  0  0  0  0  0  0  0  0  0
   -0.3430   26.2830  -24.6750 N   0  0  0  0  0  0  0  0  0  0  0  0
   -1.0280   26.6950  -23.6190 N   0  0  0  0  0  0  0  0  0  0  0  0
   -0.1250   26.9100  -22.6420 C   0  0  0  0  0  0  0  0  0  0  0  0
   -0.3779   27.2632  -21.6314 H   0  0  0  0  0  0  0  0  0  0  0  0
    1.1250   26.6380  -23.0590 N   0  0  0  0  0  0  0  0  0  0  0  0
    2.0140   26.7110  -22.5170 H   0  0  0  0  0  0  0  0  0  0  0  0
    0.9620   26.2470  -24.3350 C   0  0  0  0  0  0  0  0  0  0  0  0
    1.7775   25.9410  -25.0068 H   0  0  0  0  0  0  0  0  0  0  0  0
   -0.4100   26.4090  -27.1570 C   0  0  0  0  0  0  0  0  0  0  0  0
    0.4814   27.0534  -27.1485 H   0  0  0  0  0  0  0  0  0  0  0  0
   -1.0060   26.0650  -28.3750 C   0  0  0  0  0  0  0  0  0  0  0  0
   -0.5882   26.4535  -29.3155 H   0  0  0  0  0  0  0  0  0  0  0  0
   -4.1900   23.6180  -30.8610 N   0  0  0  0  0  0  0  0  0  0  0  0
   -4.5640   22.4170  -31.3850 C   0  0  0  0  0  0  0  0  0  0  0  0
   -5.7280   22.2950  -32.1060 N   0  0  0  0  0  0  0  0  0  0  0  0
   -6.5720   23.4820  -32.3320 C   0  0  0  0  0  0  0  0  0  0  0  0
   -6.8741   23.9069  -31.3634 H   0  0  0  0  0  0  0  0  0  0  0  0
   -6.0039   24.2330  -32.9006 H   0  0  0  0  0  0  0  0  0  0  0  0
   -7.4679   23.1920  -32.9006 H   0  0  0  0  0  0  0  0  0  0  0  0
   -6.0720   21.0880  -32.6710 C   0  0  0  0  0  0  0  0  0  0  0  0
   -7.1270   20.9860  -33.3580 O   0  0  0  0  0  0  0  0  0  0  0  0
   -6.5870   17.8100  -32.4970 C   0  0  0  0  0  0  0  0  0  0  0  0
   -7.2420   18.2570  -31.3360 O   0  0  0  0  0  0  0  0  0  0  0  0
   -8.4140   19.0710  -31.2970 C   0  0  0  0  0  0  0  0  0  0  0  0
   -8.1242   20.1110  -31.0861 H   0  0  0  0  0  0  0  0  0  0  0  0
   -9.0808   18.6926  -30.5082 H   0  0  0  0  0  0  0  0  0  0  0  0
   -9.1530   19.0180  -32.6300 C   0  0  0  0  0  0  0  0  0  0  0  0
  -10.2348   18.9404  -32.4467 H   0  0  0  0  0  0  0  0  0  0  0  0
   -8.9428   19.9335  -33.2024 H   0  0  0  0  0  0  0  0  0  0  0  0
   -8.8143   18.1418  -33.2024 H   0  0  0  0  0  0  0  0  0  0  0  0
   -6.8760   16.5630  -33.0880 C   0  0  0  0  0  0  0  0  0  0  0  0
   -7.6279   15.9033  -32.6304 H   0  0  0  0  0  0  0  0  0  0  0  0
  1  2  1  0
  2  3  2  0
  3  4  1  0
  3  5  1  0
  5  6  1  0
  5  7  2  0
  7  8  1  0
  8  9  2  0
  9 10  1  0
  9 11  1  0
 11 12  2  0
 12 13  1  0
 12 14  1  0
 14 15  1  0
 15 16  2  0
 16 17  1  0
 17 18  2  0
 18 19  1  0
 18 20  1  0
 20 21  1  0
 20 22  2  0
 22 23  1  0
 23 24  1  0
 24 25  2  0
 25 26  1  0
 25 27  1  0
 27 28  1  0
 27 29  2  0
 29 30  1  0
 22 31  1  0
 31 32  1  0
 31 33  2  0
 33 34  1  0
 15 35  1  0
 35 36  2  0
 36 37  1  0
 37 38  1  0
 38 39  1  0
 38 40  1  0
 38 41  1  0
 37 42  1  0
 42 43  2  0
  7 44  1  0
 44 45  1  0
 45 46  1  0
 46 47  1  0
 46 48  1  0
 46 49  1  0
 49 50  1  0
 49 51  1  0
 49 52  1  0
 44 53  2  0
 53 54  1  0
 53  2  1  0
 42  8  1  0
 36 11  1  0
 33 17  1  0
 29 23  1  0
M  CHG  2  14  -1  27   1
M  END
>  <UniqueID>  (8) 
8

>  <SMILES>  (8) 
CCOc1ccccc1-c1cc2c[n-]/c(=N\c3ccc(-n4c[nH+]cn4)cc3)nc2n(C)c1=O

>  <Energy>  (8) 
116.89360716454927

>  <Genealogy>  (8) 
CCOc1ccccc1-c1cc2c[n-]c(=Nc3ccc(-n4c[nH+]cn4)cc3)nc2n(C)c1=O (protonated)
CCOc1ccccc1-c1cc2c[n-]/c(=N\c3ccc(-n4c[nH+]cn4)cc3)nc2n(C)c1=O (cis-trans isomerization)
CCOc1ccccc1-c1cc2c[n-]/c(=N\c3ccc(-n4c[nH+]cn4)cc3)nc2n(C)c1=O (3D coordinates assigned)
CCOc1ccccc1-c1cc2c[n-]/c(=N\c3ccc(-n4c[nH+]cn4)cc3)nc2n(C)c1=O (optimized conformer: 116.89360716454927 kcal/mol)

>  <smiles>  (8) 
CCOc1ccccc1-c1cc2c[nH]c(=Nc3ccc(-n4cncn4)cc3)nc2n(C)c1=O

>  <score_type>  (8) 
oracle

>  <origin>  (8) 
adg

>  <m_score__min__energy>  (8) 
-10.970000000000001

>  <m_primary>  (8) 
energy

$$$$
8:0
     RDKit          3D

 34 35  0  0  0  0  0  0  0  0999 V2000
   -9.8310   20.8550  -32.1650 C   0  0  0  0  0  0  0  0  0  0  0  0
   -9.0440   19.6940  -31.5690 C   0  0  0  0  0  0  0  0  0  0  0  0
   -8.8930   18.6190  -32.5590 N   0  0  0  0  0  0  0  0  0  0  0  0
   -7.6530   17.8470  -32.3490 C   0  0  0  0  0  0  0  0  0  0  0  0
   -6.4600   18.3860  -33.1650 C   0  0  0  0  0  0  0  0  0  0  0  0
   -6.7910   19.6390  -33.8590 N   0  0  0  0  0  0  0  0  0  0  0  0
   -6.1490   20.7490  -33.2010 C   0  0  0  0  0  0  0  0  0  0  0  0
   -4.7300   20.8050  -33.1120 C   0  0  0  0  0  0  0  0  0  0  0  0
   -4.0930   21.8680  -32.4470 C   0  0  0  0  0  0  0  0  0  0  0  0
   -4.9000   22.8470  -31.8780 C   0  0  0  0  0  0  0  0  0  0  0  0
   -4.5500   23.9140  -31.2130 O   0  0  0  0  0  0  0  0  0  0  0  0
   -5.6820   24.5140  -30.8830 C   0  0  0  0  0  0  0  0  0  0  0  0
   -5.7380   25.7730  -30.0860 C   0  0  0  0  0  0  0  0  0  0  0  0
   -6.7920   23.8570  -31.3130 N   0  0  0  0  0  0  0  0  0  0  0  0
   -6.2580   22.8000  -31.9480 C   0  0  0  0  0  0  0  0  0  0  0  0
   -6.9270   21.7650  -32.5960 C   0  0  0  0  0  0  0  0  0  0  0  0
  -10.2479   21.4701  -31.3539 H   0  0  0  0  0  0  0  0  0  0  0  0
   -9.1631   21.4704  -32.7856 H   0  0  0  0  0  0  0  0  0  0  0  0
  -10.6500   20.4625  -32.7856 H   0  0  0  0  0  0  0  0  0  0  0  0
   -8.0485   20.0490  -31.2641 H   0  0  0  0  0  0  0  0  0  0  0  0
   -9.5882   19.3032  -30.6966 H   0  0  0  0  0  0  0  0  0  0  0  0
   -8.9210   19.0290  -33.5230 H   0  0  0  0  0  0  0  0  0  0  0  0
   -7.3929   17.8859  -31.2809 H   0  0  0  0  0  0  0  0  0  0  0  0
   -7.8451   16.8185  -32.6885 H   0  0  0  0  0  0  0  0  0  0  0  0
   -5.6167   18.5695  -32.4829 H   0  0  0  0  0  0  0  0  0  0  0  0
   -6.1997   17.6344  -33.9248 H   0  0  0  0  0  0  0  0  0  0  0  0
   -7.8290   19.7830  -33.8610 H   0  0  0  0  0  0  0  0  0  0  0  0
   -6.4650   19.5950  -34.8520 H   0  0  0  0  0  0  0  0  0  0  0  0
   -4.1245   20.0081  -33.5684 H   0  0  0  0  0  0  0  0  0  0  0  0
   -2.9964   21.9229  -32.3795 H   0  0  0  0  0  0  0  0  0  0  0  0
   -5.7271   25.5288  -29.0135 H   0  0  0  0  0  0  0  0  0  0  0  0
   -4.8668   26.3994  -30.3283 H   0  0  0  0  0  0  0  0  0  0  0  0
   -6.6613   26.3196  -30.3283 H   0  0  0  0  0  0  0  0  0  0  0  0
   -8.0259   21.7377  -32.6365 H   0  0  0  0  0  0  0  0  0  0  0  0
  1  2  1  0
  2  3  1  0
  3  4  1  0
  4  5  1  0
  5  6  1  0
  6  7  1  0
  7  8  2  0
  8  9  1  0
  9 10  2  0
 10 11  1  0
 11 12  1  0
 12 13  1  0
 12 14  2  0
 14 15  1  0
 15 16  2  0
 16  7  1  0
 15 10  1  0
  1 17  1  0
  1 18  1  0
  1 19  1  0
  2 20  1  0
  2 21  1  0
  3 22  1  0
  4 23  1  0
  4 24  1  0
  5 25  1  0
  5 26  1  0
  6 27  1  0
  6 28  1  0
  8 29  1  0
  9 30  1  0
 13 31  1  0
 13 32  1  0
 13 33  1  0
 16 34  1  0
M  CHG  1   6   1
M  END
>  <UniqueID>  (9) 
9

>  <SMILES>  (9) 
CCNCC[NH2+]c1ccc2oc(C)nc2c1

>  <Energy>  (9) 
67.43629973144088

>  <Genealogy>  (9) 
CCNCC[NH2+]c1ccc2oc(C)nc2c1 (protonated)
CCNCC[NH2+]c1ccc2oc(C)nc2c1 (3D coordinates assigned)
CCNCC[NH2+]c1ccc2oc(C)nc2c1 (optimized conformer: 67.43629973144088 kcal/mol)

>  <smiles>  (9) 
CCNCCNc1ccc2oc(C)nc2c1

>  <score_type>  (9) 
oracle

>  <origin>  (9) 
adg

>  <m_score__min__energy>  (9) 
-6.0499999999999998

>  <m_primary>  (9) 
energy

$$$$
9:0
     RDKit          3D

 33 34  0  0  0  0  0  0  0  0999 V2000
   -6.0420   19.6270  -33.8260 C   0  0  0  0  0  0  0  0  0  0  0  0
   -6.7180   19.0610  -33.0030 C   0  0  0  0  0  0  0  0  0  0  0  0
   -7.5430   18.3720  -32.0030 C   0  0  0  0  0  0  0  0  0  0  0  0
   -8.7360   19.2320  -31.5660 C   0  0  0  0  0  0  0  0  0  0  0  0
   -9.1450   20.3040  -32.5870 C   0  0  0  0  0  0  0  0  0  0  0  0
   -9.1410   21.6080  -31.9970 O   0  0  0  0  0  0  0  0  0  0  0  0
   -8.0150   22.3340  -31.5750 C   0  0  0  0  0  0  0  0  0  0  0  0
   -7.2190   23.1030  -32.4460 C   0  0  0  0  0  0  0  0  0  0  0  0
   -6.1060   23.7940  -31.9610 C   0  0  0  0  0  0  0  0  0  0  0  0
   -5.7630   23.7380  -30.5970 C   0  0  0  0  0  0  0  0  0  0  0  0
   -4.5790   24.4640  -30.0700 C   0  0  0  0  0  0  0  0  0  0  0  0
   -3.9630   25.2790  -30.8120 O   0  0  0  0  0  0  0  0  0  0  0  0
   -4.0560   24.2200  -28.6800 C   0  0  0  0  0  0  0  0  0  0  0  0
   -2.5380   24.1600  -28.5780 C   0  0  0  0  0  0  0  0  0  0  0  0
   -3.3530   22.8830  -28.4790 C   0  0  0  0  0  0  0  0  0  0  0  0
   -6.5700   22.9820  -29.7300 C   0  0  0  0  0  0  0  0  0  0  0  0
   -7.6820   22.2900  -30.2170 C   0  0  0  0  0  0  0  0  0  0  0  0
   -5.4255   20.1432  -34.5766 H   0  0  0  0  0  0  0  0  0  0  0  0
   -7.9191   17.4333  -32.4359 H   0  0  0  0  0  0  0  0  0  0  0  0
   -6.9189   18.1745  -31.1190 H   0  0  0  0  0  0  0  0  0  0  0  0
   -9.5971   18.5683  -31.3986 H   0  0  0  0  0  0  0  0  0  0  0  0
   -8.4257   19.7644  -30.6548 H   0  0  0  0  0  0  0  0  0  0  0  0
   -8.4357   20.2882  -33.4277 H   0  0  0  0  0  0  0  0  0  0  0  0
  -10.1644   20.0823  -32.9359 H   0  0  0  0  0  0  0  0  0  0  0  0
   -7.4752   23.1598  -33.5142 H   0  0  0  0  0  0  0  0  0  0  0  0
   -5.4909   24.3884  -32.6526 H   0  0  0  0  0  0  0  0  0  0  0  0
   -4.8567   24.7640  -28.1576 H   0  0  0  0  0  0  0  0  0  0  0  0
   -1.9195   24.3496  -29.4676 H   0  0  0  0  0  0  0  0  0  0  0  0
   -1.7818   24.6499  -27.9471 H   0  0  0  0  0  0  0  0  0  0  0  0
   -3.3250   22.1481  -29.2970 H   0  0  0  0  0  0  0  0  0  0  0  0
   -3.4316   22.0657  -27.7470 H   0  0  0  0  0  0  0  0  0  0  0  0
   -6.3243   22.9345  -28.6588 H   0  0  0  0  0  0  0  0  0  0  0  0
   -8.3031   21.7035  -29.5241 H   0  0  0  0  0  0  0  0  0  0  0  0
  1  2  3  0
  2  3  1  0
  3  4  1  0
  4  5  1  0
  5  6  1  0
  6  7  1  0
  7  8  2  0
  8  9  1  0
  9 10  2  0
 10 11  1  0
 11 12  2  0
 11 13  1  0
 13 14  1  0
 14 15  1  0
 10 16  1  0
 16 17  2  0
 17  7  1  0
 15 13  1  0
  1 18  1  0
  3 19  1  0
  3 20  1  0
  4 21  1  0
  4 22  1  0
  5 23  1  0
  5 24  1  0
  8 25  1  0
  9 26  1  0
 13 27  1  0
 14 28  1  0
 14 29  1  0
 15 30  1  0
 15 31  1  0
 16 32  1  0
 17 33  1  0
M  END
>  <UniqueID>  (10) 
10

>  <SMILES>  (10) 
C#CCCCOc1ccc(C(=O)C2CC2)cc1

>  <Energy>  (10) 
292.97468079012583

>  <Genealogy>  (10) 
C#CCCCOc1ccc(C(=O)C2CC2)cc1 (3D coordinates assigned)
C#CCCCOc1ccc(C(=O)C2CC2)cc1 (nonaromatic ring conformer: 292.97468079012583 kcal/mol)

>  <smiles>  (10) 
C#CCCCOc1ccc(C(=O)C2CC2)cc1

>  <score_type>  (10) 
oracle

>  <origin>  (10) 
adg

>  <m_score__min__energy>  (10) 
-6.8799999999999999

>  <m_primary>  (10) 
energy

$$$$
10:0
     RDKit          3D

 63 65  0  0  0  0  0  0  0  0999 V2000
   -4.9390   25.1410  -30.4310 C   0  0  0  0  0  0  0  0  0  0  0  0
   -3.5460   24.8570  -30.4990 O   0  0  0  0  0  0  0  0  0  0  0  0
   -2.9720   23.5970  -30.2660 C   0  0  0  0  0  0  0  0  0  0  0  0
   -2.7550   22.6730  -31.3080 C   0  0  0  0  0  0  0  0  0  0  0  0
   -2.1440   21.4250  -31.0560 C   0  0  0  0  0  0  0  0  0  0  0  0
   -1.7940   20.4540  -32.1880 C   0  0  2  0  0  0  0  0  0  0  0  0
   -1.2160   21.0800  -33.4590 C   0  0  0  0  0  0  0  0  0  0  0  0
   -1.4740   20.0470  -34.5430 C   0  0  0  0  0  0  0  0  0  0  0  0
   -2.4830   19.0640  -33.9450 C   0  0  0  0  0  0  0  0  0  0  0  0
   -2.9110   19.5920  -32.6350 N   0  0  2  0  0  0  0  0  0  0  0  0
   -4.1810   20.2930  -32.7730 C   0  0  0  0  0  0  0  0  0  0  0  0
   -4.5050   20.7910  -33.8440 O   0  0  0  0  0  0  0  0  0  0  0  0
   -5.1330   20.3870  -31.6070 C   0  0  0  0  0  0  0  0  0  0  0  0
   -5.6650   19.0580  -31.2880 N   0  0  0  0  0  0  0  0  0  0  0  0
   -7.0730   18.9130  -31.6940 C   0  0  0  0  0  0  0  0  0  0  0  0
   -7.2410   18.0460  -32.9740 C   0  0  0  0  0  0  0  0  0  0  0  0
   -5.9710   17.5820  -33.5810 N   0  0  0  0  0  0  0  0  0  0  0  0
   -5.7140   18.1680  -34.9070 C   0  0  0  0  0  0  0  0  0  0  0  0
   -5.8550   16.1150  -33.6110 C   0  0  0  0  0  0  0  0  0  0  0  0
   -1.6990   21.1500  -29.7510 C   0  0  0  0  0  0  0  0  0  0  0  0
   -1.9300   22.0510  -28.7120 C   0  0  0  0  0  0  0  0  0  0  0  0
   -2.5790   23.2660  -28.9580 C   0  0  0  0  0  0  0  0  0  0  0  0
   -2.7620   24.2000  -27.8810 N   0  0  0  0  0  0  0  0  0  0  0  0
   -4.0410   24.1670  -27.1580 C   0  0  0  0  0  0  0  0  0  0  0  0
   -4.1570   25.3020  -26.1350 C   0  0  0  0  0  0  0  0  0  0  0  0
   -2.9310   25.4960  -25.4600 O   0  0  0  0  0  0  0  0  0  0  0  0
   -1.9940   26.0320  -26.3710 C   0  0  0  0  0  0  0  0  0  0  0  0
   -1.6060   24.9920  -27.4300 C   0  0  0  0  0  0  0  0  0  0  0  0
   -5.2493   25.2043  -29.3776 H   0  0  0  0  0  0  0  0  0  0  0  0
   -5.1427   26.0992  -30.9314 H   0  0  0  0  0  0  0  0  0  0  0  0
   -5.5016   24.3391  -30.9314 H   0  0  0  0  0  0  0  0  0  0  0  0
   -3.0660   22.9276  -32.3320 H   0  0  0  0  0  0  0  0  0  0  0  0
   -1.0165   19.8626  -31.6824 H   0  0  0  0  0  0  0  0  0  0  0  0
   -1.7266   22.0256  -33.6936 H   0  0  0  0  0  0  0  0  0  0  0  0
   -0.1478   21.3221  -33.3576 H   0  0  0  0  0  0  0  0  0  0  0  0
   -1.8920   20.5279  -35.4397 H   0  0  0  0  0  0  0  0  0  0  0  0
   -0.5472   19.5410  -34.8511 H   0  0  0  0  0  0  0  0  0  0  0  0
   -3.3527   18.9696  -34.6119 H   0  0  0  0  0  0  0  0  0  0  0  0
   -2.0253   18.0708  -33.8262 H   0  0  0  0  0  0  0  0  0  0  0  0
   -3.0180   18.7930  -31.9660 H   0  0  0  0  0  0  0  0  0  0  0  0
   -4.5993   20.7859  -30.7317 H   0  0  0  0  0  0  0  0  0  0  0  0
   -5.9651   21.0559  -31.8721 H   0  0  0  0  0  0  0  0  0  0  0  0
   -5.0790   18.3210  -31.7500 H   0  0  0  0  0  0  0  0  0  0  0  0
   -7.6295   18.4389  -30.8720 H   0  0  0  0  0  0  0  0  0  0  0  0
   -7.4594   19.9179  -31.9196 H   0  0  0  0  0  0  0  0  0  0  0  0
   -7.8386   17.1605  -32.7116 H   0  0  0  0  0  0  0  0  0  0  0  0
   -7.7253   18.6898  -33.7229 H   0  0  0  0  0  0  0  0  0  0  0  0
   -5.2749   19.1693  -34.7865 H   0  0  0  0  0  0  0  0  0  0  0  0
   -5.0150   17.5255  -35.4626 H   0  0  0  0  0  0  0  0  0  0  0  0
   -6.6601   18.2470  -35.4626 H   0  0  0  0  0  0  0  0  0  0  0  0
   -5.8244   15.7285  -32.5816 H   0  0  0  0  0  0  0  0  0  0  0  0
   -6.7223   15.6893  -34.1369 H   0  0  0  0  0  0  0  0  0  0  0  0
   -4.9316   15.8309  -34.1369 H   0  0  0  0  0  0  0  0  0  0  0  0
   -1.1617   20.2121  -29.5469 H   0  0  0  0  0  0  0  0  0  0  0  0
   -1.5997   21.8049  -27.6920 H   0  0  0  0  0  0  0  0  0  0  0  0
   -4.8613   24.2600  -27.8849 H   0  0  0  0  0  0  0  0  0  0  0  0
   -4.0959   23.2135  -26.6122 H   0  0  0  0  0  0  0  0  0  0  0  0
   -4.4326   26.2306  -26.6563 H   0  0  0  0  0  0  0  0  0  0  0  0
   -4.9274   25.0342  -25.3969 H   0  0  0  0  0  0  0  0  0  0  0  0
   -2.4362   26.9069  -26.8700 H   0  0  0  0  0  0  0  0  0  0  0  0
   -1.0902   26.3235  -25.8159 H   0  0  0  0  0  0  0  0  0  0  0  0
   -1.1738   25.5133  -28.2969 H   0  0  0  0  0  0  0  0  0  0  0  0
   -0.8802   24.3016  -26.9754 H   0  0  0  0  0  0  0  0  0  0  0  0
  1  2  1  0
  2  3  1  0
  3  4  2  0
  4  5  1  0
  5  6  1  0
  6  7  1  0
  7  8  1  0
  8  9  1  0
  9 10  1  0
 10 11  1  0
 11 12  2  0
 11 13  1  0
 13 14  1  0
 14 15  1  0
 15 16  1  0
 16 17  1  0
 17 18  1  0
 17 19  1  0
  5 20  2  0
 20 21  1  0
 21 22  2  0
 22 23  1  0
 23 24  1  0
 24 25  1  0
 25 26  1  0
 26 27  1  0
 27 28  1  0
 22  3  1  0
 28 23  1  0
 10  6  1  0
  1 29  1  0
  1 30  1  0
  1 31  1  0
  4 32  1  0
  6 33  1  1
  7 34  1  0
  7 35  1  0
  8 36  1  0
  8 37  1  0
  9 38  1  0
  9 39  1  0
 10 40  1  1
 13 41  1  0
 13 42  1  0
 14 43  1  0
 15 44  1  0
 15 45  1  0
 16 46  1  0
 16 47  1  0
 18 48  1  0
 18 49  1  0
 18 50  1  0
 19 51  1  0
 19 52  1  0
 19 53  1  0
 20 54  1  0
 21 55  1  0
 24 56  1  0
 24 57  1  0
 25 58  1  0
 25 59  1  0
 27 60  1  0
 27 61  1  0
 28 62  1  0
 28 63  1  0
M  CHG  1  10   1
M  END
>  <UniqueID>  (11) 
11

>  <SMILES>  (11) 
COc1cc([C@@H]2CCC[N@@H+]2C(=O)CNCCN(C)C)ccc1N1CCOCC1

>  <Energy>  (11) 
85.25161842638717

>  <Genealogy>  (11) 
COc1cc(C2CCC[NH+]2C(=O)CNCCN(C)C)ccc1N1CCOCC1 (protonated)
COc1cc([C@@H]2CCC[N@@H+]2C(=O)CNCCN(C)C)ccc1N1CCOCC1 (chirality)
COc1cc([C@@H]2CCC[N@@H+]2C(=O)CNCCN(C)C)ccc1N1CCOCC1 (3D coordinates assigned)
COc1cc([C@@H]2CCC[N@@H+]2C(=O)CNCCN(C)C)ccc1N1CCOCC1 (nonaromatic ring conformer: 85.25161842638717 kcal/mol)

>  <smiles>  (11) 
COc1cc(C2CCCN2C(=O)CNCCN(C)C)ccc1N1CCOCC1

>  <score_type>  (11) 
oracle

>  <origin>  (11) 
adg

>  <m_score__min__energy>  (11) 
-7.21

>  <m_primary>  (11) 
energy

$$$$
11:0
     RDKit          3D

 65 67  0  0  0  0  0  0  0  0999 V2000
   -0.2618   27.1070  -28.6795 H   0  0  0  0  0  0  0  0  0  0  0  0
   -0.7500   26.6070  -27.8300 C   0  0  0  0  0  0  0  0  0  0  0  0
   -1.6200   25.5370  -28.0570 C   0  0  0  0  0  0  0  0  0  0  0  0
   -1.8117   25.1978  -29.0857 H   0  0  0  0  0  0  0  0  0  0  0  0
   -2.2500   24.8930  -26.9830 C   0  0  0  0  0  0  0  0  0  0  0  0
   -3.1260   23.7800  -27.2440 N   0  0  0  0  0  0  0  0  0  0  0  0
   -3.9940   23.6780  -26.6730 H   0  0  0  0  0  0  0  0  0  0  0  0
   -2.9660   22.8920  -28.3630 C   0  0  0  0  0  0  0  0  0  0  0  0
   -1.9530   22.0750  -28.4210 N   0  0  0  0  0  0  0  0  0  0  0  0
   -1.8440   20.9130  -27.6380 C   0  0  0  0  0  0  0  0  0  0  0  0
   -1.7560   19.9570  -26.9930 N   0  0  0  0  0  0  0  0  0  0  0  0
   -3.9510   22.8950  -29.4190 N   0  0  0  0  0  0  0  0  0  0  0  0
   -4.9390   23.9830  -29.4680 C   0  0  0  0  0  0  0  0  0  0  0  0
   -5.6534   23.8513  -28.6420 H   0  0  0  0  0  0  0  0  0  0  0  0
   -4.3984   24.9368  -29.3786 H   0  0  0  0  0  0  0  0  0  0  0  0
   -5.7110   23.9990  -30.7920 C   0  0  0  0  0  0  0  0  0  0  0  0
   -6.5714   24.6783  -30.7009 H   0  0  0  0  0  0  0  0  0  0  0  0
   -5.0382   24.3432  -31.5913 H   0  0  0  0  0  0  0  0  0  0  0  0
   -6.1930   22.6500  -31.1250 N   0  0  0  0  0  0  0  0  0  0  0  0
   -7.4630   22.4870  -31.7970 C   0  0  0  0  0  0  0  0  0  0  0  0
   -8.0430   23.4970  -32.2860 O   0  0  0  0  0  0  0  0  0  0  0  0
   -8.0740   21.1210  -31.9960 C   0  0  0  0  0  0  0  0  0  0  0  0
   -7.8647   20.5071  -31.1075 H   0  0  0  0  0  0  0  0  0  0  0  0
   -9.1554   21.2549  -32.1464 H   0  0  0  0  0  0  0  0  0  0  0  0
   -7.5090   20.4010  -33.2420 C   0  0  0  0  0  0  0  0  0  0  0  0
   -8.3563   20.0617  -33.8560 H   0  0  0  0  0  0  0  0  0  0  0  0
   -6.8665   21.1293  -33.7586 H   0  0  0  0  0  0  0  0  0  0  0  0
   -6.6570   19.2280  -32.9420 N   0  0  0  0  0  0  0  0  0  0  0  0
   -6.1340   18.5480  -34.1440 C   0  0  0  0  0  0  0  0  0  0  0  0
   -6.9732   18.2850  -34.8047 H   0  0  0  0  0  0  0  0  0  0  0  0
   -5.4404   19.2265  -34.6622 H   0  0  0  0  0  0  0  0  0  0  0  0
   -5.3750   17.2640  -33.7530 C   0  0  0  0  0  0  0  0  0  0  0  0
   -6.0147   16.3919  -33.9535 H   0  0  0  0  0  0  0  0  0  0  0  0
   -4.4510   17.2063  -34.3471 H   0  0  0  0  0  0  0  0  0  0  0  0
   -5.0310   17.2810  -32.3810 O   0  0  0  0  0  0  0  0  0  0  0  0
   -6.2040   17.2210  -31.5860 C   0  0  0  0  0  0  0  0  0  0  0  0
   -6.6437   16.2173  -31.6824 H   0  0  0  0  0  0  0  0  0  0  0  0
   -5.9137   17.4394  -30.5477 H   0  0  0  0  0  0  0  0  0  0  0  0
   -7.2610   18.2660  -32.0050 C   0  0  0  0  0  0  0  0  0  0  0  0
   -8.1047   17.7578  -32.4947 H   0  0  0  0  0  0  0  0  0  0  0  0
   -7.6215   18.8001  -31.1135 H   0  0  0  0  0  0  0  0  0  0  0  0
   -5.3070   21.4910  -30.9240 C   0  0  0  0  0  0  0  0  0  0  0  0
   -5.7307   20.8530  -30.1344 H   0  0  0  0  0  0  0  0  0  0  0  0
   -5.2355   20.9489  -31.8785 H   0  0  0  0  0  0  0  0  0  0  0  0
   -3.8930   21.9130  -30.5130 C   0  0  0  0  0  0  0  0  0  0  0  0
   -3.3334   21.0277  -30.1767 H   0  0  0  0  0  0  0  0  0  0  0  0
   -3.3904   22.3703  -31.3780 H   0  0  0  0  0  0  0  0  0  0  0  0
   -1.9890   25.3330  -25.6710 C   0  0  0  0  0  0  0  0  0  0  0  0
   -2.4710   24.8284  -24.8206 H   0  0  0  0  0  0  0  0  0  0  0  0
   -1.1190   26.4100  -25.4390 C   0  0  0  0  0  0  0  0  0  0  0  0
   -0.8510   26.8750  -24.0250 C   0  0  0  0  0  0  0  0  0  0  0  0
   -1.6303   26.4683  -23.3637 H   0  0  0  0  0  0  0  0  0  0  0  0
   -0.8604   27.9750  -24.0215 H   0  0  0  0  0  0  0  0  0  0  0  0
    0.4740   26.4270  -23.5350 N   0  0  0  0  0  0  0  0  0  0  0  0
    0.3640   25.9570  -22.6050 H   0  0  0  0  0  0  0  0  0  0  0  0
    1.1000   25.4750  -24.4720 C   0  0  0  0  0  0  0  0  0  0  0  0
    1.6175   24.6880  -23.9039 H   0  0  0  0  0  0  0  0  0  0  0  0
    0.3242   25.0201  -25.1054 H   0  0  0  0  0  0  0  0  0  0  0  0
    1.8251   26.0070  -25.1054 H   0  0  0  0  0  0  0  0  0  0  0  0
    1.3580   27.5910  -23.3460 C   0  0  0  0  0  0  0  0  0  0  0  0
    1.4975   27.7747  -22.2705 H   0  0  0  0  0  0  0  0  0  0  0  0
    2.3334   27.3903  -23.8132 H   0  0  0  0  0  0  0  0  0  0  0  0
    0.9029   28.4768  -23.8132 H   0  0  0  0  0  0  0  0  0  0  0  0
   -0.4990   27.0430  -26.5270 C   0  0  0  0  0  0  0  0  0  0  0  0
    0.1869   27.8852  -26.3532 H   0  0  0  0  0  0  0  0  0  0  0  0
  1  2  1  0
  2  3  2  0
  3  4  1  0
  3  5  1  0
  5  6  1  0
  6  7  1  0
  6  8  1  0
  8  9  2  0
  9 10  1  0
 10 11  3  0
  8 12  1  0
 12 13  1  0
 13 14  1  0
 13 15  1  0
 13 16  1  0
 16 17  1  0
 16 18  1  0
 16 19  1  0
 19 20  1  0
 20 21  2  0
 20 22  1  0
 22 23  1  0
 22 24  1  0
 22 25  1  0
 25 26  1  0
 25 27  1  0
 25 28  1  0
 28 29  1  0
 29 30  1  0
 29 31  1  0
 29 32  1  0
 32 33  1  0
 32 34  1  0
 32 35  1  0
 35 36  1  0
 36 37  1  0
 36 38  1  0
 36 39  1  0
 39 40  1  0
 39 41  1  0
 19 42  1  0
 42 43  1  0
 42 44  1  0
 42 45  1  0
 45 46  1  0
 45 47  1  0
  5 48  2  0
 48 49  1  0
 48 50  1  0
 50 51  1  0
 51 52  1  0
 51 53  1  0
 51 54  1  0
 54 55  1  0
 54 56  1  0
 56 57  1  0
 56 58  1  0
 56 59  1  0
 54 60  1  0
 60 61  1  0
 60 62  1  0
 60 63  1  0
 50 64  2  0
 64 65  1  0
 64  2  1  0
 45 12  1  0
 39 28  1  0
M  CHG  1  54   1
M  END
>  <UniqueID>  (12) 
12

>  <SMILES>  (12) 
C[NH+](C)Cc1cccc(N/C(=N\C#N)N2CCN(C(=O)CCN3CCOCC3)CC2)c1

>  <Energy>  (12) 
83.17108130995126

>  <Genealogy>  (12) 
C[NH+](C)Cc1cccc(NC(=NC#N)N2CCN(C(=O)CCN3CCOCC3)CC2)c1 (protonated)
C[NH+](C)Cc1cccc(N/C(=N\C#N)N2CCN(C(=O)CCN3CCOCC3)CC2)c1 (cis-trans isomerization)
C[NH+](C)Cc1cccc(N/C(=N\C#N)N2CCN(C(=O)CCN3CCOCC3)CC2)c1 (3D coordinates assigned)
C[NH+](C)Cc1cccc(N/C(=N\C#N)N2CCN(C(=O)CCN3CCOCC3)CC2)c1 (nonaromatic ring conformer: 83.17108130995126 kcal/mol)

>  <smiles>  (12) 
CN(C)Cc1cccc(NC(=NC#N)N2CCN(C(=O)CCN3CCOCC3)CC2)c1

>  <score_type>  (12) 
oracle

>  <origin>  (12) 
adg

>  <m_score__min__energy>  (12) 
-8.8800000000000008

>  <m_primary>  (12) 
energy

$$$$
12:0
     RDKit          3D

 44 46  0  0  0  0  0  0  0  0999 V2000
   -1.1910   20.7900  -33.9710 C   0  0  0  0  0  0  0  0  0  0  0  0
   -1.4510   21.2560  -32.5330 C   0  0  0  0  0  0  0  0  0  0  0  0
   -2.8460   21.0180  -32.0840 N   0  0  0  0  0  0  0  0  0  0  0  0
   -3.1350   21.5530  -30.7240 C   0  0  0  0  0  0  0  0  0  0  0  0
   -3.3890   23.0670  -30.6740 C   0  0  0  0  0  0  0  0  0  0  0  0
   -3.8260   21.5310  -33.0820 C   0  0  0  0  0  0  0  0  0  0  0  0
   -5.1680   20.7860  -33.0240 C   0  0  0  0  0  0  0  0  0  0  0  0
   -5.2300   19.4110  -33.4050 C   0  0  0  0  0  0  0  0  0  0  0  0
   -4.0900   18.7200  -33.8950 C   0  0  0  0  0  0  0  0  0  0  0  0
   -4.1650   17.3850  -34.2870 C   0  0  0  0  0  0  0  0  0  0  0  0
   -5.3700   16.7030  -34.2120 C   0  0  0  0  0  0  0  0  0  0  0  0
   -6.5060   17.3470  -33.7340 C   0  0  0  0  0  0  0  0  0  0  0  0
   -6.4560   18.6950  -33.3070 C   0  0  0  0  0  0  0  0  0  0  0  0
   -7.6150   19.3320  -32.8150 C   0  0  0  0  0  0  0  0  0  0  0  0
   -8.8440   18.5960  -32.6970 N   0  0  0  0  0  0  0  0  0  0  0  0
   -7.5710   20.6960  -32.4490 C   0  0  0  0  0  0  0  0  0  0  0  0
   -8.7220   21.3320  -31.9260 C   0  0  0  0  0  0  0  0  0  0  0  0
   -8.7040   22.6790  -31.5860 C   0  0  0  0  0  0  0  0  0  0  0  0
   -7.5460   23.4220  -31.7540 C   0  0  0  0  0  0  0  0  0  0  0  0
   -6.3890   22.8180  -32.2390 C   0  0  0  0  0  0  0  0  0  0  0  0
   -6.3600   21.4380  -32.5760 C   0  0  0  0  0  0  0  0  0  0  0  0
   -0.6551   19.8295  -33.9539 H   0  0  0  0  0  0  0  0  0  0  0  0
   -2.1500   20.6655  -34.4952 H   0  0  0  0  0  0  0  0  0  0  0  0
   -0.5814   21.5407  -34.4952 H   0  0  0  0  0  0  0  0  0  0  0  0
   -0.7701   20.7130  -31.8611 H   0  0  0  0  0  0  0  0  0  0  0  0
   -1.2797   22.3422  -32.5055 H   0  0  0  0  0  0  0  0  0  0  0  0
   -2.9660   19.9810  -32.0140 H   0  0  0  0  0  0  0  0  0  0  0  0
   -4.0289   21.0420  -30.3370 H   0  0  0  0  0  0  0  0  0  0  0  0
   -2.2360   21.3672  -30.1180 H   0  0  0  0  0  0  0  0  0  0  0  0
   -3.4440   23.3951  -29.6255 H   0  0  0  0  0  0  0  0  0  0  0  0
   -2.5667   23.5937  -31.1803 H   0  0  0  0  0  0  0  0  0  0  0  0
   -4.3382   23.2965  -31.1803 H   0  0  0  0  0  0  0  0  0  0  0  0
   -4.0058   22.5980  -32.8838 H   0  0  0  0  0  0  0  0  0  0  0  0
   -3.3983   21.3725  -34.0830 H   0  0  0  0  0  0  0  0  0  0  0  0
   -3.1284   19.2494  -33.9665 H   0  0  0  0  0  0  0  0  0  0  0  0
   -3.2658   16.8707  -34.6570 H   0  0  0  0  0  0  0  0  0  0  0  0
   -5.4273   15.6518  -34.5309 H   0  0  0  0  0  0  0  0  0  0  0  0
   -7.4589   16.7996  -33.6871 H   0  0  0  0  0  0  0  0  0  0  0  0
   -9.0760   18.0670  -31.8280 H   0  0  0  0  0  0  0  0  0  0  0  0
   -9.5370   18.5760  -33.4760 H   0  0  0  0  0  0  0  0  0  0  0  0
   -9.6454   20.7507  -31.7865 H   0  0  0  0  0  0  0  0  0  0  0  0
   -9.6095   23.1562  -31.1831 H   0  0  0  0  0  0  0  0  0  0  0  0
   -7.5410   24.4930  -31.5032 H   0  0  0  0  0  0  0  0  0  0  0  0
   -5.4782   23.4220  -32.3639 H   0  0  0  0  0  0  0  0  0  0  0  0
  1  2  1  0
  2  3  1  0
  3  4  1  0
  4  5  1  0
  3  6  1  0
  6  7  1  0
  7  8  2  0
  8  9  1  0
  9 10  2  0
 10 11  1  0
 11 12  2  0
 12 13  1  0
 13 14  2  0
 14 15  1  0
 14 16  1  0
 16 17  2  0
 17 18  1  0
 18 19  2  0
 19 20  1  0
 20 21  2  0
 21  7  1  0
 13  8  1  0
 21 16  1  0
  1 22  1  0
  1 23  1  0
  1 24  1  0
  2 25  1  0
  2 26  1  0
  3 27  1  0
  4 28  1  0
  4 29  1  0
  5 30  1  0
  5 31  1  0
  5 32  1  0
  6 33  1  0
  6 34  1  0
  9 35  1  0
 10 36  1  0
 11 37  1  0
 12 38  1  0
 15 39  1  0
 15 40  1  0
 17 41  1  0
 18 42  1  0
 19 43  1  0
 20 44  1  0
M  CHG  1   3   1
M  END
>  <UniqueID>  (13) 
13

>  <SMILES>  (13) 
CC[NH+](CC)Cc1c2ccccc2c(N)c2ccccc12

>  <Energy>  (13) 
72.7855645337797

>  <Genealogy>  (13) 
CC[NH+](CC)Cc1c2ccccc2c(N)c2ccccc12 (protonated)
CC[NH+](CC)Cc1c2ccccc2c(N)c2ccccc12 (3D coordinates assigned)
CC[NH+](CC)Cc1c2ccccc2c(N)c2ccccc12 (optimized conformer: 72.7855645337797 kcal/mol)

>  <smiles>  (13) 
CCN(CC)Cc1c2ccccc2c(N)c2ccccc12

>  <score_type>  (13) 
oracle

>  <origin>  (13) 
adg

>  <m_score__min__energy>  (13) 
-6.9199999999999999

>  <m_primary>  (13) 
energy

$$$$
13:0
     RDKit          3D

 52 54  0  0  0  0  0  0  0  0999 V2000
    1.8350   22.8620  -35.6950 C   0  0  0  0  0  0  0  0  0  0  0  0
    0.3310   22.6500  -35.7670 C   0  0  0  0  0  0  0  0  0  0  0  0
   -0.0890   21.9170  -34.6340 O   0  0  0  0  0  0  0  0  0  0  0  0
    0.9690   21.1180  -34.1390 C   0  0  0  0  0  0  0  0  0  0  0  0
    0.7020   19.6440  -34.4360 C   0  0  0  0  0  0  0  0  0  0  0  0
   -0.5930   19.5080  -34.9830 O   0  0  0  0  0  0  0  0  0  0  0  0
   -1.3890   18.6600  -34.1750 C   0  0  0  0  0  0  0  0  0  0  0  0
   -2.4980   19.4730  -33.4880 C   0  0  0  0  0  0  0  0  0  0  0  0
   -2.3140   20.9280  -33.6450 N   0  0  0  0  0  0  0  0  0  0  0  0
   -3.4580   21.6950  -33.1240 C   0  0  0  0  0  0  0  0  0  0  0  0
   -4.0820   20.9860  -31.9150 C   0  0  0  0  0  0  0  0  0  0  0  0
   -5.5530   21.2810  -31.8270 C   0  0  0  0  0  0  0  0  0  0  0  0
   -6.1950   22.4810  -31.4800 C   0  0  0  0  0  0  0  0  0  0  0  0
   -5.5690   23.7650  -31.0930 C   0  0  0  0  0  0  0  0  0  0  0  0
   -6.2450   24.9440  -30.8470 C   0  0  0  0  0  0  0  0  0  0  0  0
   -5.2830   25.8600  -30.4790 C   0  0  0  0  0  0  0  0  0  0  0  0
   -4.1010   25.2890  -30.4850 O   0  0  0  0  0  0  0  0  0  0  0  0
   -4.2340   24.0320  -30.8420 C   0  0  0  0  0  0  0  0  0  0  0  0
   -7.5400   22.3290  -31.5600 N   0  0  0  0  0  0  0  0  0  0  0  0
   -7.7550   21.0560  -31.9270 C   0  0  0  0  0  0  0  0  0  0  0  0
   -8.9870   20.4330  -32.1270 C   0  0  0  0  0  0  0  0  0  0  0  0
   -8.9860   19.0810  -32.5150 C   0  0  0  0  0  0  0  0  0  0  0  0
   -7.7670   18.3900  -32.6910 C   0  0  0  0  0  0  0  0  0  0  0  0
   -6.5400   19.0440  -32.4810 C   0  0  0  0  0  0  0  0  0  0  0  0
   -6.5730   20.3860  -32.0970 C   0  0  0  0  0  0  0  0  0  0  0  0
    2.1490   22.9063  -34.6417 H   0  0  0  0  0  0  0  0  0  0  0  0
    2.3473   22.0272  -36.1956 H   0  0  0  0  0  0  0  0  0  0  0  0
    2.0966   23.8059  -36.1956 H   0  0  0  0  0  0  0  0  0  0  0  0
   -0.1778   23.6251  -35.7838 H   0  0  0  0  0  0  0  0  0  0  0  0
    0.0793   22.0934  -36.6818 H   0  0  0  0  0  0  0  0  0  0  0  0
    1.9096   21.4211  -34.6220 H   0  0  0  0  0  0  0  0  0  0  0  0
    1.0435   21.2564  -33.0503 H   0  0  0  0  0  0  0  0  0  0  0  0
    1.4464   19.2730  -35.1559 H   0  0  0  0  0  0  0  0  0  0  0  0
    0.7737   19.0606  -33.5062 H   0  0  0  0  0  0  0  0  0  0  0  0
   -1.8452   17.8814  -34.8040 H   0  0  0  0  0  0  0  0  0  0  0  0
   -0.7541   18.1957  -33.4060 H   0  0  0  0  0  0  0  0  0  0  0  0
   -3.4659   19.1907  -33.9279 H   0  0  0  0  0  0  0  0  0  0  0  0
   -2.4600   19.2463  -32.4123 H   0  0  0  0  0  0  0  0  0  0  0  0
   -1.4550   21.1980  -33.1110 H   0  0  0  0  0  0  0  0  0  0  0  0
   -2.1570   21.1620  -34.6550 H   0  0  0  0  0  0  0  0  0  0  0  0
   -3.1136   22.6940  -32.8184 H   0  0  0  0  0  0  0  0  0  0  0  0
   -4.2174   21.7781  -33.9155 H   0  0  0  0  0  0  0  0  0  0  0  0
   -3.9370   19.9005  -32.0185 H   0  0  0  0  0  0  0  0  0  0  0  0
   -3.5928   21.3509  -30.9998 H   0  0  0  0  0  0  0  0  0  0  0  0
   -7.3284   25.1165  -30.9281 H   0  0  0  0  0  0  0  0  0  0  0  0
   -5.4766   26.9112  -30.2194 H   0  0  0  0  0  0  0  0  0  0  0  0
   -3.4129   23.3051  -30.9281 H   0  0  0  0  0  0  0  0  0  0  0  0
   -8.2700   23.0480  -31.3570 H   0  0  0  0  0  0  0  0  0  0  0  0
   -9.9297   20.9819  -31.9857 H   0  0  0  0  0  0  0  0  0  0  0  0
   -9.9398   18.5591  -32.6822 H   0  0  0  0  0  0  0  0  0  0  0  0
   -7.7774   17.3327  -32.9945 H   0  0  0  0  0  0  0  0  0  0  0  0
   -5.5848   18.5153  -32.6150 H   0  0  0  0  0  0  0  0  0  0  0  0
  1  2  1  0
  2  3  1  0
  3  4  1  0
  4  5  1  0
  5  6  1  0
  6  7  1  0
  7  8  1  0
  8  9  1  0
  9 10  1  0
 10 11  1  0
 11 12  1  0
 12 13  2  0
 13 14  1  0
 14 15  1  0
 15 16  2  0
 16 17  1  0
 17 18  1  0
 13 19  1  0
 19 20  1  0
 20 21  2  0
 21 22  1  0
 22 23  2  0
 23 24  1  0
 24 25  2  0
 25 12  1  0
 18 14  2  0
 25 20  1  0
  1 26  1  0
  1 27  1  0
  1 28  1  0
  2 29  1  0
  2 30  1  0
  4 31  1  0
  4 32  1  0
  5 33  1  0
  5 34  1  0
  7 35  1  0
  7 36  1  0
  8 37  1  0
  8 38  1  0
  9 39  1  0
  9 40  1  0
 10 41  1  0
 10 42  1  0
 11 43  1  0
 11 44  1  0
 15 45  1  0
 16 46  1  0
 18 47  1  0
 19 48  1  0
 21 49  1  0
 22 50  1  0
 23 51  1  0
 24 52  1  0
M  CHG  1   9   1
M  END
>  <UniqueID>  (14) 
14

>  <SMILES>  (14) 
CCOCCOCC[NH2+]CCc1c(-c2ccoc2)[nH]c2ccccc12

>  <Energy>  (14) 
110.17855778067073

>  <Genealogy>  (14) 
CCOCCOCC[NH2+]CCc1c(-c2ccoc2)[nH]c2ccccc12 (protonated)
CCOCCOCC[NH2+]CCc1c(-c2ccoc2)[nH]c2ccccc12 (3D coordinates assigned)
CCOCCOCC[NH2+]CCc1c(-c2ccoc2)[nH]c2ccccc12 (optimized conformer: 110.17855778067073 kcal/mol)

>  <smiles>  (14) 
CCOCCOCCNCCc1c(-c2ccoc2)[nH]c2ccccc12

>  <score_type>  (14) 
oracle

>  <origin>  (14) 
adg

>  <m_score__min__energy>  (14) 
-8.0999999999999996

>  <m_primary>  (14) 
energy

$$$$
14:0
     RDKit          3D

 51 53  0  0  0  0  0  0  0  0999 V2000
   -1.4260   25.9790  -26.4840 C   0  0  0  0  0  0  0  0  0  0  0  0
   -2.3170   24.7440  -26.3440 C   0  0  0  0  0  0  0  0  0  0  0  0
   -2.7490   24.2030  -27.6880 C   0  0  0  0  0  0  0  0  0  0  0  0
   -1.8510   23.6550  -28.5310 C   0  0  0  0  0  0  0  0  0  0  0  0
   -2.2180   23.2040  -29.9280 C   0  0  0  0  0  0  0  0  0  0  0  0
   -3.6250   23.6390  -30.4030 C   0  0  0  0  0  0  0  0  0  0  0  0
   -4.1550   24.7470  -29.5760 N   0  0  0  0  0  0  0  0  0  0  0  0
   -5.4550   25.2640  -30.0570 C   0  0  0  0  0  0  0  0  0  0  0  0
   -6.1810   24.3270  -31.0460 C   0  0  0  0  0  0  0  0  0  0  0  0
   -6.8990   23.1730  -30.3330 C   0  0  0  0  0  0  0  0  0  0  0  0
   -7.4080   22.1640  -31.2730 N   0  0  0  0  0  0  0  0  0  0  0  0
   -8.6480   22.4320  -31.9330 C   0  0  0  0  0  0  0  0  0  0  0  0
   -8.7440   23.4210  -32.7020 O   0  0  0  0  0  0  0  0  0  0  0  0
   -9.8170   21.5250  -31.7350 C   0  0  0  0  0  0  0  0  0  0  0  0
   -9.5440   20.1340  -32.3180 C   0  0  0  0  0  0  0  0  0  0  0  0
   -8.4220   19.3960  -31.5710 C   0  0  0  0  0  0  0  0  0  0  0  0
   -7.0440   19.8190  -32.0330 C   0  0  0  0  0  0  0  0  0  0  0  0
   -6.2060   18.8610  -32.6400 C   0  0  0  0  0  0  0  0  0  0  0  0
   -4.9140   19.2050  -33.0420 C   0  0  0  0  0  0  0  0  0  0  0  0
   -4.4370   20.5060  -32.8460 C   0  0  0  0  0  0  0  0  0  0  0  0
   -2.6680   20.9710  -33.4010 Br  0  0  0  0  0  0  0  0  0  0  0  0
   -5.2540   21.4670  -32.2490 C   0  0  0  0  0  0  0  0  0  0  0  0
   -6.5600   21.1400  -31.8330 C   0  0  0  0  0  0  0  0  0  0  0  0
   -4.1710   24.3640  -28.1510 C   0  0  0  0  0  0  0  0  0  0  0  0
   -1.1568   26.3521  -25.4848 H   0  0  0  0  0  0  0  0  0  0  0  0
   -0.5118   25.7111  -27.0339 H   0  0  0  0  0  0  0  0  0  0  0  0
   -1.9685   26.7621  -27.0339 H   0  0  0  0  0  0  0  0  0  0  0  0
   -1.7585   23.9618  -25.8090 H   0  0  0  0  0  0  0  0  0  0  0  0
   -3.2204   25.0375  -25.7892 H   0  0  0  0  0  0  0  0  0  0  0  0
   -0.8124   23.5310  -28.1905 H   0  0  0  0  0  0  0  0  0  0  0  0
   -1.4774   23.6196  -30.6271 H   0  0  0  0  0  0  0  0  0  0  0  0
   -2.2255   22.1043  -29.9058 H   0  0  0  0  0  0  0  0  0  0  0  0
   -3.5626   23.9716  -31.4497 H   0  0  0  0  0  0  0  0  0  0  0  0
   -4.3044   22.7792  -30.3069 H   0  0  0  0  0  0  0  0  0  0  0  0
   -6.1084   25.4192  -29.1858 H   0  0  0  0  0  0  0  0  0  0  0  0
   -5.2430   26.1959  -30.6016 H   0  0  0  0  0  0  0  0  0  0  0  0
   -6.9235   24.9124  -31.6081 H   0  0  0  0  0  0  0  0  0  0  0  0
   -5.4241   23.8911  -31.7147 H   0  0  0  0  0  0  0  0  0  0  0  0
   -6.1915   22.6888  -29.6438 H   0  0  0  0  0  0  0  0  0  0  0  0
   -7.7606   23.5952  -29.7950 H   0  0  0  0  0  0  0  0  0  0  0  0
  -10.0186   21.4294  -30.6579 H   0  0  0  0  0  0  0  0  0  0  0  0
  -10.6849   21.9566  -32.2551 H   0  0  0  0  0  0  0  0  0  0  0  0
  -10.4650   19.5362  -32.2520 H   0  0  0  0  0  0  0  0  0  0  0  0
   -9.2226   20.2648  -33.3618 H   0  0  0  0  0  0  0  0  0  0  0  0
   -8.5145   19.6087  -30.4957 H   0  0  0  0  0  0  0  0  0  0  0  0
   -8.5304   18.3217  -31.7809 H   0  0  0  0  0  0  0  0  0  0  0  0
   -6.5726   17.8360  -32.7978 H   0  0  0  0  0  0  0  0  0  0  0  0
   -4.2683   18.4503  -33.5148 H   0  0  0  0  0  0  0  0  0  0  0  0
   -4.8750   22.4891  -32.1018 H   0  0  0  0  0  0  0  0  0  0  0  0
   -4.6676   25.1483  -27.5608 H   0  0  0  0  0  0  0  0  0  0  0  0
   -4.7212   23.4207  -28.0188 H   0  0  0  0  0  0  0  0  0  0  0  0
  1  2  1  0
  2  3  1  0
  3  4  2  0
  4  5  1  0
  5  6  1  0
  6  7  1  0
  7  8  1  0
  8  9  1  0
  9 10  1  0
 10 11  1  0
 11 12  1  0
 12 13  2  0
 12 14  1  0
 14 15  1  0
 15 16  1  0
 16 17  1  0
 17 18  2  0
 18 19  1  0
 19 20  2  0
 20 21  1  0
 20 22  1  0
 22 23  2  0
  7 24  1  0
 24  3  1  0
 23 11  1  0
 23 17  1  0
  1 25  1  0
  1 26  1  0
  1 27  1  0
  2 28  1  0
  2 29  1  0
  4 30  1  0
  5 31  1  0
  5 32  1  0
  6 33  1  0
  6 34  1  0
  8 35  1  0
  8 36  1  0
  9 37  1  0
  9 38  1  0
 10 39  1  0
 10 40  1  0
 14 41  1  0
 14 42  1  0
 15 43  1  0
 15 44  1  0
 16 45  1  0
 16 46  1  0
 18 47  1  0
 19 48  1  0
 22 49  1  0
 24 50  1  0
 24 51  1  0
M  END
>  <UniqueID>  (15) 
15

>  <SMILES>  (15) 
CCC1=CCCN(CCCN2C(=O)CCCc3ccc(Br)cc32)C1

>  <Energy>  (15) 
62.25729524566226

>  <Genealogy>  (15) 
CCC1=CCCN(CCCN2C(=O)CCCc3ccc(Br)cc32)C1 (3D coordinates assigned)
CCC1=CCCN(CCCN2C(=O)CCCc3ccc(Br)cc32)C1 (nonaromatic ring conformer: 62.25729524566226 kcal/mol)

>  <smiles>  (15) 
CCC1=CCCN(CCCN2C(=O)CCCc3ccc(Br)cc32)C1

>  <score_type>  (15) 
oracle

>  <origin>  (15) 
adg

>  <m_score__min__energy>  (15) 
-7.3799999999999999

>  <m_primary>  (15) 
energy

$$$$
15:0
     RDKit          3D

 54 56  0  0  0  0  0  0  0  0999 V2000
   -6.0160   17.7220  -32.9520 C   0  0  0  0  0  0  0  0  0  0  0  0
   -5.8570   18.2190  -31.5190 C   0  0  0  0  0  0  0  0  0  0  0  0
   -5.9490   19.6420  -31.4640 O   0  0  0  0  0  0  0  0  0  0  0  0
   -7.1230   20.4020  -31.6200 C   0  0  0  0  0  0  0  0  0  0  0  0
   -8.2640   19.8780  -32.2630 C   0  0  0  0  0  0  0  0  0  0  0  0
   -9.4200   20.6470  -32.4000 C   0  0  0  0  0  0  0  0  0  0  0  0
   -9.4590   21.9440  -31.8960 C   0  0  0  0  0  0  0  0  0  0  0  0
   -8.3430   22.4800  -31.2540 C   0  0  0  0  0  0  0  0  0  0  0  0
   -7.1620   21.7240  -31.1080 C   0  0  0  0  0  0  0  0  0  0  0  0
   -5.9480   22.3330  -30.4090 C   0  0  2  0  0  0  0  0  0  0  0  0
   -5.5950   23.7050  -31.0180 C   0  0  0  0  0  0  0  0  0  0  0  0
   -4.3160   24.2250  -30.4260 C   0  0  0  0  0  0  0  0  0  0  0  0
   -3.8710   25.3000  -30.7990 O   0  0  0  0  0  0  0  0  0  0  0  0
   -3.6310   23.4270  -29.3410 C   0  0  2  0  0  0  0  0  0  0  0  0
   -2.2620   24.0060  -28.9370 C   0  0  0  0  0  0  0  0  0  0  0  0
   -3.5900   21.9010  -29.7070 C   0  0  2  0  0  0  0  0  0  0  0  0
   -2.3010   21.5030  -30.4330 C   0  0  0  0  0  0  0  0  0  0  0  0
   -1.2280   20.9570  -29.6990 C   0  0  0  0  0  0  0  0  0  0  0  0
   -0.0450   20.5860  -30.3350 C   0  0  0  0  0  0  0  0  0  0  0  0
    0.0900   20.7510  -31.7110 C   0  0  0  0  0  0  0  0  0  0  0  0
   -0.9590   21.2890  -32.4570 C   0  0  0  0  0  0  0  0  0  0  0  0
   -2.1630   21.6710  -31.8320 C   0  0  0  0  0  0  0  0  0  0  0  0
   -3.2300   22.2130  -32.5680 O   0  0  0  0  0  0  0  0  0  0  0  0
   -4.0020   21.4990  -33.5290 C   0  0  0  0  0  0  0  0  0  0  0  0
   -3.6640   20.0200  -33.4490 C   0  0  0  0  0  0  0  0  0  0  0  0
   -4.7820   21.4250  -30.4750 N   0  0  0  0  0  0  0  0  0  0  0  0
   -6.3512   16.6744  -32.9417 H   0  0  0  0  0  0  0  0  0  0  0  0
   -6.7612   18.3403  -33.4740 H   0  0  0  0  0  0  0  0  0  0  0  0
   -5.0503   17.7929  -33.4740 H   0  0  0  0  0  0  0  0  0  0  0  0
   -6.6506   17.7818  -30.8953 H   0  0  0  0  0  0  0  0  0  0  0  0
   -4.8674   17.9146  -31.1476 H   0  0  0  0  0  0  0  0  0  0  0  0
   -8.2421   18.8526  -32.6605 H   0  0  0  0  0  0  0  0  0  0  0  0
  -10.3017   20.2279  -32.9069 H   0  0  0  0  0  0  0  0  0  0  0  0
  -10.3722   22.5476  -32.0044 H   0  0  0  0  0  0  0  0  0  0  0  0
   -8.3847   23.5049  -30.8568 H   0  0  0  0  0  0  0  0  0  0  0  0
   -6.2103   22.4778  -29.3506 H   0  0  0  0  0  0  0  0  0  0  0  0
   -5.4743   23.5987  -32.1062 H   0  0  0  0  0  0  0  0  0  0  0  0
   -6.4061   24.4142  -30.7962 H   0  0  0  0  0  0  0  0  0  0  0  0
   -4.2412   23.5170  -28.4302 H   0  0  0  0  0  0  0  0  0  0  0  0
   -2.1866   24.0379  -27.8400 H   0  0  0  0  0  0  0  0  0  0  0  0
   -1.4610   23.3696  -29.3412 H   0  0  0  0  0  0  0  0  0  0  0  0
   -2.1607   25.0240  -29.3412 H   0  0  0  0  0  0  0  0  0  0  0  0
   -3.6137   21.3917  -28.7323 H   0  0  0  0  0  0  0  0  0  0  0  0
   -1.3260   20.8224  -28.6117 H   0  0  0  0  0  0  0  0  0  0  0  0
    0.7837   20.1620  -29.7490 H   0  0  0  0  0  0  0  0  0  0  0  0
    1.0249   20.4568  -32.2104 H   0  0  0  0  0  0  0  0  0  0  0  0
   -0.8452   21.4163  -33.5437 H   0  0  0  0  0  0  0  0  0  0  0  0
   -5.0724   21.6427  -33.3201 H   0  0  0  0  0  0  0  0  0  0  0  0
   -3.7727   21.8745  -34.5372 H   0  0  0  0  0  0  0  0  0  0  0  0
   -3.5946   19.7163  -32.3940 H   0  0  0  0  0  0  0  0  0  0  0  0
   -4.4519   19.4363  -33.9475 H   0  0  0  0  0  0  0  0  0  0  0  0
   -2.7008   19.8365  -33.9475 H   0  0  0  0  0  0  0  0  0  0  0  0
   -5.0670   20.4930  -30.0930 H   0  0  0  0  0  0  0  0  0  0  0  0
   -4.5360   21.2680  -31.4790 H   0  0  0  0  0  0  0  0  0  0  0  0
  1  2  1  0
  2  3  1  0
  3  4  1  0
  4  5  2  0
  5  6  1  0
  6  7  2  0
  7  8  1  0
  8  9  2  0
  9 10  1  0
 10 11  1  0
 11 12  1  0
 12 13  2  0
 12 14  1  0
 14 15  1  0
 14 16  1  0
 16 17  1  0
 17 18  2  0
 18 19  1  0
 19 20  2  0
 20 21  1  0
 21 22  2  0
 22 23  1  0
 23 24  1  0
 24 25  1  0
 16 26  1  0
  9  4  1  0
 26 10  1  0
 22 17  1  0
  1 27  1  0
  1 28  1  0
  1 29  1  0
  2 30  1  0
  2 31  1  0
  5 32  1  0
  6 33  1  0
  7 34  1  0
  8 35  1  0
 10 36  1  1
 11 37  1  0
 11 38  1  0
 14 39  1  1
 15 40  1  0
 15 41  1  0
 15 42  1  0
 16 43  1  1
 18 44  1  0
 19 45  1  0
 20 46  1  0
 21 47  1  0
 24 48  1  0
 24 49  1  0
 25 50  1  0
 25 51  1  0
 25 52  1  0
 26 53  1  0
 26 54  1  0
M  CHG  1  26   1
M  END
>  <UniqueID>  (16) 
16

>  <SMILES>  (16) 
CCOc1ccccc1C1[NH2+][C@H](c2ccccc2OCC)CC(=O)[C@@H]1C

>  <Energy>  (16) 
61.968867057716366

>  <Genealogy>  (16) 
CCOc1ccccc1C1CC(=O)C(C)C(c2ccccc2OCC)[NH2+]1 (protonated)
CCOc1ccccc1C1[NH2+][C@H](c2ccccc2OCC)CC(=O)[C@@H]1C (chirality)
CCOc1ccccc1C1[NH2+][C@H](c2ccccc2OCC)CC(=O)[C@@H]1C (3D coordinates assigned)
CCOc1ccccc1C1[NH2+][C@H](c2ccccc2OCC)CC(=O)[C@@H]1C (nonaromatic ring conformer: 61.968867057716366 kcal/mol)

>  <smiles>  (16) 
CCOc1ccccc1C1CC(=O)C(C)C(c2ccccc2OCC)N1

>  <score_type>  (16) 
oracle

>  <origin>  (16) 
adg

>  <m_score__min__energy>  (16) 
-7.5700000000000003

>  <m_primary>  (16) 
energy

$$$$
16:0
     RDKit          3D

 63 65  0  0  0  0  0  0  0  0999 V2000
   -3.0100   18.9960  -34.1740 C   0  0  0  0  0  0  0  0  0  0  0  0
   -4.1400   18.4070  -33.3340 C   0  0  0  0  0  0  0  0  0  0  0  0
   -5.0130   17.5520  -34.1710 N   0  0  0  0  0  0  0  0  0  0  0  0
   -4.1990   16.7060  -35.0670 C   0  0  0  0  0  0  0  0  0  0  0  0
   -5.9100   16.7250  -33.3310 C   0  0  0  0  0  0  0  0  0  0  0  0
   -7.0780   17.5420  -32.7530 C   0  0  0  0  0  0  0  0  0  0  0  0
   -7.1850   18.8560  -33.3930 N   0  0  0  0  0  0  0  0  0  0  0  0
   -7.8290   19.9770  -32.7570 C   0  0  0  0  0  0  0  0  0  0  0  0
   -9.2140   19.9480  -32.5220 C   0  0  0  0  0  0  0  0  0  0  0  0
   -9.8540   21.0580  -31.9740 C   0  0  0  0  0  0  0  0  0  0  0  0
   -9.1440   22.1710  -31.6610 N   0  0  0  0  0  0  0  0  0  0  0  0
   -7.8010   22.2430  -31.8550 C   0  0  0  0  0  0  0  0  0  0  0  0
   -7.1190   23.4080  -31.4950 C   0  0  0  0  0  0  0  0  0  0  0  0
   -5.7250   23.4920  -31.6490 C   0  0  0  0  0  0  0  0  0  0  0  0
   -5.0000   24.6270  -31.2650 O   0  0  0  0  0  0  0  0  0  0  0  0
   -5.1590   25.3260  -30.0320 C   0  0  0  0  0  0  0  0  0  0  0  0
   -4.6210   24.4690  -28.8860 C   0  0  0  0  0  0  0  0  0  0  0  0
   -3.2800   23.8040  -29.2380 C   0  0  0  0  0  0  0  0  0  0  0  0
   -2.5370   23.4330  -28.0110 N   0  0  0  0  0  0  0  0  0  0  0  0
   -2.3960   24.5650  -27.0750 C   0  0  0  0  0  0  0  0  0  0  0  0
   -1.3920   25.6140  -27.6050 C   0  0  0  0  0  0  0  0  0  0  0  0
   -0.5080   25.1040  -28.5910 O   0  0  0  0  0  0  0  0  0  0  0  0
   -0.0630   23.8150  -28.2280 C   0  0  0  0  0  0  0  0  0  0  0  0
   -1.2260   22.8040  -28.2970 C   0  0  0  0  0  0  0  0  0  0  0  0
   -5.0150   22.4070  -32.1800 C   0  0  0  0  0  0  0  0  0  0  0  0
   -3.6230   22.5310  -32.3090 O   0  0  0  0  0  0  0  0  0  0  0  0
   -2.6750   21.5750  -31.8440 C   0  0  0  0  0  0  0  0  0  0  0  0
   -5.7010   21.2340  -32.5480 C   0  0  0  0  0  0  0  0  0  0  0  0
   -7.1010   21.1420  -32.4030 C   0  0  0  0  0  0  0  0  0  0  0  0
   -2.2324   19.4013  -33.5099 H   0  0  0  0  0  0  0  0  0  0  0  0
   -2.5765   18.2091  -34.8087 H   0  0  0  0  0  0  0  0  0  0  0  0
   -3.4067   19.8020  -34.8087 H   0  0  0  0  0  0  0  0  0  0  0  0
   -3.7106   17.8018  -32.5220 H   0  0  0  0  0  0  0  0  0  0  0  0
   -4.7399   19.2288  -32.9159 H   0  0  0  0  0  0  0  0  0  0  0  0
   -3.5607   16.0426  -34.4650 H   0  0  0  0  0  0  0  0  0  0  0  0
   -4.8622   16.0999  -35.7017 H   0  0  0  0  0  0  0  0  0  0  0  0
   -3.5678   17.3454  -35.7017 H   0  0  0  0  0  0  0  0  0  0  0  0
   -6.3179   15.9086  -33.9450 H   0  0  0  0  0  0  0  0  0  0  0  0
   -5.3203   16.3346  -32.4885 H   0  0  0  0  0  0  0  0  0  0  0  0
   -8.0150   16.9888  -32.9143 H   0  0  0  0  0  0  0  0  0  0  0  0
   -6.8928   17.6958  -31.6797 H   0  0  0  0  0  0  0  0  0  0  0  0
   -6.8040   18.9770  -34.3540 H   0  0  0  0  0  0  0  0  0  0  0  0
   -9.7943   19.0473  -32.7711 H   0  0  0  0  0  0  0  0  0  0  0  0
  -10.9389   21.0317  -31.7945 H   0  0  0  0  0  0  0  0  0  0  0  0
   -7.6768   24.2646  -31.0886 H   0  0  0  0  0  0  0  0  0  0  0  0
   -4.6021   26.2737  -30.0736 H   0  0  0  0  0  0  0  0  0  0  0  0
   -6.2260   25.5341  -29.8640 H   0  0  0  0  0  0  0  0  0  0  0  0
   -4.4782   25.1083  -28.0023 H   0  0  0  0  0  0  0  0  0  0  0  0
   -5.3521   23.6711  -28.6889 H   0  0  0  0  0  0  0  0  0  0  0  0
   -3.4719   22.8976  -29.8310 H   0  0  0  0  0  0  0  0  0  0  0  0
   -2.6735   24.5182  -29.8143 H   0  0  0  0  0  0  0  0  0  0  0  0
   -3.3773   25.0440  -26.9424 H   0  0  0  0  0  0  0  0  0  0  0  0
   -2.0181   24.1772  -26.1175 H   0  0  0  0  0  0  0  0  0  0  0  0
   -1.9592   26.4481  -28.0439 H   0  0  0  0  0  0  0  0  0  0  0  0
   -0.7756   25.9321  -26.7513 H   0  0  0  0  0  0  0  0  0  0  0  0
    0.7331   23.4989  -28.9182 H   0  0  0  0  0  0  0  0  0  0  0  0
    0.3202   23.8475  -27.1974 H   0  0  0  0  0  0  0  0  0  0  0  0
   -1.2558   22.3678  -29.3064 H   0  0  0  0  0  0  0  0  0  0  0  0
   -1.0483   22.0345  -27.5313 H   0  0  0  0  0  0  0  0  0  0  0  0
   -2.6694   21.5693  -30.7440 H   0  0  0  0  0  0  0  0  0  0  0  0
   -2.9495   20.5763  -32.2144 H   0  0  0  0  0  0  0  0  0  0  0  0
   -1.6740   21.8411  -32.2144 H   0  0  0  0  0  0  0  0  0  0  0  0
   -5.1389   20.3797  -32.9532 H   0  0  0  0  0  0  0  0  0  0  0  0
  1  2  1  0
  2  3  1  0
  3  4  1  0
  3  5  1  0
  5  6  1  0
  6  7  1  0
  7  8  1  0
  8  9  2  0
  9 10  1  0
 10 11  2  0
 11 12  1  0
 12 13  2  0
 13 14  1  0
 14 15  1  0
 15 16  1  0
 16 17  1  0
 17 18  1  0
 18 19  1  0
 19 20  1  0
 20 21  1  0
 21 22  1  0
 22 23  1  0
 23 24  1  0
 14 25  2  0
 25 26  1  0
 26 27  1  0
 25 28  1  0
 28 29  2  0
 29  8  1  0
 29 12  1  0
 24 19  1  0
  1 30  1  0
  1 31  1  0
  1 32  1  0
  2 33  1  0
  2 34  1  0
  4 35  1  0
  4 36  1  0
  4 37  1  0
  5 38  1  0
  5 39  1  0
  6 40  1  0
  6 41  1  0
  7 42  1  0
  9 43  1  0
 10 44  1  0
 13 45  1  0
 16 46  1  0
 16 47  1  0
 17 48  1  0
 17 49  1  0
 18 50  1  0
 18 51  1  0
 20 52  1  0
 20 53  1  0
 21 54  1  0
 21 55  1  0
 23 56  1  0
 23 57  1  0
 24 58  1  0
 24 59  1  0
 27 60  1  0
 27 61  1  0
 27 62  1  0
 28 63  1  0
M  END
>  <UniqueID>  (17) 
17

>  <SMILES>  (17) 
CCN(C)CCNc1ccnc2cc(OCCCN3CCOCC3)c(OC)cc12

>  <Energy>  (17) 
76.83686915173341

>  <Genealogy>  (17) 
CCN(C)CCNc1ccnc2cc(OCCCN3CCOCC3)c(OC)cc12 (3D coordinates assigned)
CCN(C)CCNc1ccnc2cc(OCCCN3CCOCC3)c(OC)cc12 (nonaromatic ring conformer: 76.83686915173341 kcal/mol)

>  <smiles>  (17) 
CCN(C)CCNc1ccnc2cc(OCCCN3CCOCC3)c(OC)cc12

>  <score_type>  (17) 
oracle

>  <origin>  (17) 
adg

>  <m_score__min__energy>  (17) 
-8.6600000000000001

>  <m_primary>  (17) 
energy

$$$$
17:0
     RDKit          3D

 39 41  0  0  0  0  0  0  0  0999 V2000
   -1.6030   23.5170  -29.3830 O   0  0  0  0  0  0  0  0  0  0  0  0
   -2.0200   22.7760  -30.3120 C   0  0  0  0  0  0  0  0  0  0  0  0
   -1.1530   21.8040  -31.0730 C   0  0  0  0  0  0  0  0  0  0  0  0
   -2.1290   21.5010  -32.2000 C   0  0  1  0  0  0  0  0  0  0  0  0
   -2.2620   20.2600  -33.0450 C   0  0  0  0  0  0  0  0  0  0  0  0
   -3.6830   20.3010  -33.4960 N   0  0  0  0  0  0  0  0  0  0  0  0
   -4.3340   18.9740  -33.5610 C   0  0  0  0  0  0  0  0  0  0  0  0
   -5.6870   18.9380  -34.3080 C   0  0  0  0  0  0  0  0  0  0  0  0
   -6.8190   19.1460  -33.3380 C   0  0  0  0  0  0  0  0  0  0  0  0
   -7.3180   18.0670  -32.5870 C   0  0  0  0  0  0  0  0  0  0  0  0
   -8.3470   18.2690  -31.6620 C   0  0  0  0  0  0  0  0  0  0  0  0
   -8.8770   19.5480  -31.4720 C   0  0  0  0  0  0  0  0  0  0  0  0
   -8.3770   20.6290  -32.2040 C   0  0  0  0  0  0  0  0  0  0  0  0
   -7.3480   20.4310  -33.1290 C   0  0  0  0  0  0  0  0  0  0  0  0
   -4.3910   21.3080  -32.6560 C   0  0  0  0  0  0  0  0  0  0  0  0
   -3.4480   21.5110  -31.4980 C   0  0  2  0  0  0  0  0  0  0  0  0
   -3.3960   22.7230  -30.7100 N   0  0  0  0  0  0  0  0  0  0  0  0
   -4.4110   23.1350  -29.9100 O   0  0  0  0  0  0  0  0  0  0  0  0
   -5.0540   24.5050  -30.6570 S   0  0  0  0  0  0  0  0  0  0  0  0
   -6.1890   25.0580  -29.8410 O   0  0  0  0  0  0  0  0  0  0  0  0
   -5.5700   24.1200  -32.0150 O   0  0  0  0  0  0  0  0  0  0  0  0
   -3.8640   25.6750  -30.8350 O   0  0  0  0  0  0  0  0  0  0  0  0
   -0.2248   22.2684  -31.4374 H   0  0  0  0  0  0  0  0  0  0  0  0
   -0.7810   20.9378  -30.5062 H   0  0  0  0  0  0  0  0  0  0  0  0
   -1.7496   22.2121  -32.9486 H   0  0  0  0  0  0  0  0  0  0  0  0
   -1.5752   20.2927  -33.9036 H   0  0  0  0  0  0  0  0  0  0  0  0
   -2.0108   19.3389  -32.4986 H   0  0  0  0  0  0  0  0  0  0  0  0
   -3.6463   18.2826  -34.0699 H   0  0  0  0  0  0  0  0  0  0  0  0
   -4.5531   18.6913  -32.5208 H   0  0  0  0  0  0  0  0  0  0  0  0
   -5.7057   19.7354  -35.0654 H   0  0  0  0  0  0  0  0  0  0  0  0
   -5.8043   17.9579  -34.7934 H   0  0  0  0  0  0  0  0  0  0  0  0
   -6.8974   17.0604  -32.7277 H   0  0  0  0  0  0  0  0  0  0  0  0
   -8.7398   17.4201  -31.0832 H   0  0  0  0  0  0  0  0  0  0  0  0
   -9.6883   19.7043  -30.7458 H   0  0  0  0  0  0  0  0  0  0  0  0
   -8.7935   21.6357  -32.0520 H   0  0  0  0  0  0  0  0  0  0  0  0
   -6.9502   21.2854  -33.6963 H   0  0  0  0  0  0  0  0  0  0  0  0
   -4.5444   22.2462  -33.2094 H   0  0  0  0  0  0  0  0  0  0  0  0
   -5.3945   20.9825  -32.3445 H   0  0  0  0  0  0  0  0  0  0  0  0
   -3.7623   20.7640  -30.7542 H   0  0  0  0  0  0  0  0  0  0  0  0
  1  2  2  0
  2  3  1  0
  3  4  1  0
  4  5  1  0
  5  6  1  0
  6  7  1  0
  7  8  1  0
  8  9  1  0
  9 10  2  0
 10 11  1  0
 11 12  2  0
 12 13  1  0
 13 14  2  0
  6 15  1  0
 15 16  1  0
 16 17  1  0
 17 18  1  0
 18 19  1  0
 19 20  2  0
 19 21  2  0
 19 22  1  0
 17  2  1  0
 16  4  1  0
 14  9  1  0
  3 23  1  0
  3 24  1  0
  4 25  1  6
  5 26  1  0
  5 27  1  0
  7 28  1  0
  7 29  1  0
  8 30  1  0
  8 31  1  0
 10 32  1  0
 11 33  1  0
 12 34  1  0
 13 35  1  0
 14 36  1  0
 15 37  1  0
 15 38  1  0
 16 39  1  1
M  CHG  1  22  -1
M  END
>  <UniqueID>  (18) 
18

>  <SMILES>  (18) 
O=C1C[C@H]2CN(CCc3ccccc3)C[C@@H]2N1OS(=O)(=O)[O-]

>  <Energy>  (18) 
87.9526844813148

>  <Genealogy>  (18) 
O=C1CC2CN(CCc3ccccc3)CC2N1OS(=O)(=O)[O-] (protonated)
O=C1C[C@H]2CN(CCc3ccccc3)C[C@@H]2N1OS(=O)(=O)[O-] (chirality)
O=C1C[C@H]2CN(CCc3ccccc3)C[C@@H]2N1OS(=O)(=O)[O-] (3D coordinates assigned)
O=C1C[C@H]2CN(CCc3ccccc3)C[C@@H]2N1OS(=O)(=O)[O-] (nonaromatic ring conformer: 87.9526844813148 kcal/mol)

>  <smiles>  (18) 
O=C1CC2CN(CCc3ccccc3)CC2N1OS(=O)(=O)O

>  <score_type>  (18) 
oracle

>  <origin>  (18) 
adg

>  <m_score__min__energy>  (18) 
-10.970000000000001

>  <m_primary>  (18) 
energy

$$$$
18:0
     RDKit          3D

 63 66  0  0  0  0  0  0  0  0999 V2000
   -3.1480   19.3090  -26.7950 C   0  0  0  0  0  0  0  0  0  0  0  0
   -1.7320   19.7750  -27.1520 C   0  0  2  0  0  0  0  0  0  0  0  0
   -1.2850   20.9440  -26.2360 C   0  0  0  0  0  0  0  0  0  0  0  0
   -0.1400   21.7870  -26.8340 C   0  0  0  0  0  0  0  0  0  0  0  0
    0.7120   20.9820  -27.8200 C   0  0  0  0  0  0  0  0  0  0  0  0
   -0.1250   20.4650  -29.0080 C   0  0  0  0  0  0  0  0  0  0  0  0
   -1.5980   20.1440  -28.6490 C   0  0  2  0  0  0  0  0  0  0  0  0
   -2.4370   21.3040  -28.9660 N   0  0  0  0  0  0  0  0  0  0  0  0
   -2.7230   21.8180  -30.2720 C   0  0  0  0  0  0  0  0  0  0  0  0
   -1.7680   22.2630  -30.9640 O   0  0  0  0  0  0  0  0  0  0  0  0
   -4.1170   21.7860  -30.8480 C   0  0  0  0  0  0  0  0  0  0  0  0
   -4.7100   23.1330  -30.9290 N   0  0  0  0  0  0  0  0  0  0  0  0
   -5.7260   23.3950  -31.9610 C   0  0  0  0  0  0  0  0  0  0  0  0
   -6.7840   22.3220  -31.9400 C   0  0  0  0  0  0  0  0  0  0  0  0
   -7.9660   22.5220  -31.2070 C   0  0  0  0  0  0  0  0  0  0  0  0
   -8.9760   21.5550  -31.2180 C   0  0  0  0  0  0  0  0  0  0  0  0
   -8.8170   20.3850  -31.9630 C   0  0  0  0  0  0  0  0  0  0  0  0
   -7.6490   20.1780  -32.7000 C   0  0  0  0  0  0  0  0  0  0  0  0
   -6.6350   21.1420  -32.6950 C   0  0  0  0  0  0  0  0  0  0  0  0
   -5.5110   20.9210  -33.4250 F   0  0  0  0  0  0  0  0  0  0  0  0
   -4.2750   24.1980  -30.0470 C   0  0  0  0  0  0  0  0  0  0  0  0
   -3.8900   25.2960  -30.5370 O   0  0  0  0  0  0  0  0  0  0  0  0
   -4.2550   24.0230  -28.5490 C   0  0  0  0  0  0  0  0  0  0  0  0
   -2.9780   24.4470  -27.9830 N   0  0  0  0  0  0  0  0  0  0  0  0
   -2.8500   25.2790  -26.9640 N   0  0  0  0  0  0  0  0  0  0  0  0
   -1.5160   25.3210  -26.7460 C   0  0  0  0  0  0  0  0  0  0  0  0
   -0.8720   26.1260  -25.6880 C   0  0  0  0  0  0  0  0  0  0  0  0
   -0.8450   25.6670  -24.3590 C   0  0  0  0  0  0  0  0  0  0  0  0
   -0.2290   26.4290  -23.3610 C   0  0  0  0  0  0  0  0  0  0  0  0
    0.3660   27.6520  -23.6780 C   0  0  0  0  0  0  0  0  0  0  0  0
    0.9640   28.3880  -22.7090 F   0  0  0  0  0  0  0  0  0  0  0  0
    0.3420   28.1180  -24.9950 C   0  0  0  0  0  0  0  0  0  0  0  0
   -0.2720   27.3600  -25.9970 C   0  0  0  0  0  0  0  0  0  0  0  0
   -0.8490   24.5210  -27.6080 N   0  0  0  0  0  0  0  0  0  0  0  0
   -1.7980   23.9900  -28.3610 N   0  0  0  0  0  0  0  0  0  0  0  0
   -3.2573   19.2730  -25.7010 H   0  0  0  0  0  0  0  0  0  0  0  0
   -3.8822   20.0129  -27.2139 H   0  0  0  0  0  0  0  0  0  0  0  0
   -3.3207   18.3066  -27.2139 H   0  0  0  0  0  0  0  0  0  0  0  0
   -1.0550   18.9263  -26.9747 H   0  0  0  0  0  0  0  0  0  0  0  0
   -2.1494   21.6022  -26.0636 H   0  0  0  0  0  0  0  0  0  0  0  0
   -0.9083   20.4998  -25.3029 H   0  0  0  0  0  0  0  0  0  0  0  0
   -0.5726   22.6502  -27.3611 H   0  0  0  0  0  0  0  0  0  0  0  0
    0.5108   22.1099  -26.0081 H   0  0  0  0  0  0  0  0  0  0  0  0
    1.5165   21.6262  -28.2044 H   0  0  0  0  0  0  0  0  0  0  0  0
    1.1238   20.1125  -27.2867 H   0  0  0  0  0  0  0  0  0  0  0  0
   -0.1204   21.2337  -29.7948 H   0  0  0  0  0  0  0  0  0  0  0  0
    0.3358   19.5212  -29.3351 H   0  0  0  0  0  0  0  0  0  0  0  0
   -1.9303   19.2784  -29.2408 H   0  0  0  0  0  0  0  0  0  0  0  0
   -4.0740   21.3551  -31.8592 H   0  0  0  0  0  0  0  0  0  0  0  0
   -4.7464   21.1762  -30.1831 H   0  0  0  0  0  0  0  0  0  0  0  0
   -6.1955   24.3709  -31.7681 H   0  0  0  0  0  0  0  0  0  0  0  0
   -5.2401   23.3981  -32.9479 H   0  0  0  0  0  0  0  0  0  0  0  0
   -8.0975   23.4439  -30.6216 H   0  0  0  0  0  0  0  0  0  0  0  0
   -9.8972   21.7164  -30.6388 H   0  0  0  0  0  0  0  0  0  0  0  0
   -9.6126   19.6254  -31.9695 H   0  0  0  0  0  0  0  0  0  0  0  0
   -7.5259   19.2551  -33.2857 H   0  0  0  0  0  0  0  0  0  0  0  0
   -5.0612   24.6268  -28.1068 H   0  0  0  0  0  0  0  0  0  0  0  0
   -4.3987   22.9563  -28.3219 H   0  0  0  0  0  0  0  0  0  0  0  0
   -1.3107   24.7039  -24.1031 H   0  0  0  0  0  0  0  0  0  0  0  0
   -0.2131   26.0640  -22.3235 H   0  0  0  0  0  0  0  0  0  0  0  0
    0.8071   29.0832  -25.2442 H   0  0  0  0  0  0  0  0  0  0  0  0
   -0.2858   27.7309  -27.0325 H   0  0  0  0  0  0  0  0  0  0  0  0
   -1.6330   23.3030  -29.1310 H   0  0  0  0  0  0  0  0  0  0  0  0
  1  2  1  0
  2  3  1  0
  3  4  1  0
  4  5  1  0
  5  6  1  0
  6  7  1  0
  7  8  1  0
  8  9  1  0
  9 10  2  0
  9 11  1  0
 11 12  1  0
 12 13  1  0
 13 14  1  0
 14 15  2  0
 15 16  1  0
 16 17  2  0
 17 18  1  0
 18 19  2  0
 19 20  1  0
 12 21  1  0
 21 22  2  0
 21 23  1  0
 23 24  1  0
 24 25  1  0
 25 26  2  0
 26 27  1  0
 27 28  2  0
 28 29  1  0
 29 30  2  0
 30 31  1  0
 30 32  1  0
 32 33  2  0
 26 34  1  0
 34 35  2  0
  7  2  1  0
 19 14  1  0
 35 24  1  0
 33 27  1  0
  1 36  1  0
  1 37  1  0
  1 38  1  0
  2 39  1  6
  3 40  1  0
  3 41  1  0
  4 42  1  0
  4 43  1  0
  5 44  1  0
  5 45  1  0
  6 46  1  0
  6 47  1  0
  7 48  1  6
 11 49  1  0
 11 50  1  0
 13 51  1  0
 13 52  1  0
 15 53  1  0
 16 54  1  0
 17 55  1  0
 18 56  1  0
 23 57  1  0
 23 58  1  0
 28 59  1  0
 29 60  1  0
 32 61  1  0
 33 62  1  0
 35 63  1  0
M  CHG  2   8  -1  35   1
M  END
>  <UniqueID>  (19) 
19

>  <SMILES>  (19) 
C[C@@H]1CCCC[C@@H]1[N-]C(=O)CN(Cc1ccccc1F)C(=O)Cn1nc(-c2ccc(F)cc2)n[nH+]1

>  <Energy>  (19) 
103.86990816175442

>  <Genealogy>  (19) 
CC1CCCCC1[N-]C(=O)CN(Cc1ccccc1F)C(=O)Cn1nc(-c2ccc(F)cc2)n[nH+]1 (protonated)
C[C@@H]1CCCC[C@@H]1[N-]C(=O)CN(Cc1ccccc1F)C(=O)Cn1nc(-c2ccc(F)cc2)n[nH+]1 (chirality)
C[C@@H]1CCCC[C@@H]1[N-]C(=O)CN(Cc1ccccc1F)C(=O)Cn1nc(-c2ccc(F)cc2)n[nH+]1 (3D coordinates assigned)
C[C@@H]1CCCC[C@@H]1[N-]C(=O)CN(Cc1ccccc1F)C(=O)Cn1nc(-c2ccc(F)cc2)n[nH+]1 (nonaromatic ring conformer: 103.86990816175442 kcal/mol)

>  <smiles>  (19) 
CC1CCCCC1NC(=O)CN(Cc1ccccc1F)C(=O)Cn1nnc(-c2ccc(F)cc2)n1

>  <score_type>  (19) 
oracle

>  <origin>  (19) 
adg

>  <m_score__min__energy>  (19) 
-11.66

>  <m_primary>  (19) 
energy

$$$$
19:0
     RDKit          3D

 61 64  0  0  0  0  0  0  0  0999 V2000
   -2.5988   23.9302  -26.0044 H   0  0  0  0  0  0  0  0  0  0  0  0
   -2.8540   23.8750  -27.0730 C   0  0  0  0  0  0  0  0  0  0  0  0
   -1.8800   23.5080  -28.0060 C   0  0  0  0  0  0  0  0  0  0  0  0
   -0.8561   23.2836  -27.6725 H   0  0  0  0  0  0  0  0  0  0  0  0
   -2.2070   23.4260  -29.3640 C   0  0  0  0  0  0  0  0  0  0  0  0
   -1.4341   23.1583  -30.0996 H   0  0  0  0  0  0  0  0  0  0  0  0
   -3.5210   23.6850  -29.7900 C   0  0  0  0  0  0  0  0  0  0  0  0
   -3.8630   23.6560  -31.1830 N   0  0  0  0  0  0  0  0  0  0  0  0
   -4.4710   22.7330  -31.8900 C   0  0  0  0  0  0  0  0  0  0  0  0
   -3.6600   21.7760  -32.5480 C   0  0  0  0  0  0  0  0  0  0  0  0
   -2.2530   21.8990  -32.6050 C   0  0  0  0  0  0  0  0  0  0  0  0
   -1.7680   22.7804  -32.1602 H   0  0  0  0  0  0  0  0  0  0  0  0
   -1.4670   20.9160  -33.2190 C   0  0  0  0  0  0  0  0  0  0  0  0
   -0.0770   21.1010  -33.2520 O   0  0  0  0  0  0  0  0  0  0  0  0
    0.8780   20.0620  -33.0610 C   0  0  0  0  0  0  0  0  0  0  0  0
    1.0298   19.8969  -31.9841 H   0  0  0  0  0  0  0  0  0  0  0  0
    0.5097   19.1355  -33.5257 H   0  0  0  0  0  0  0  0  0  0  0  0
    1.8322   20.3511  -33.5257 H   0  0  0  0  0  0  0  0  0  0  0  0
   -2.0890   19.7840  -33.7750 C   0  0  0  0  0  0  0  0  0  0  0  0
   -1.4798   19.0054  -34.2574 H   0  0  0  0  0  0  0  0  0  0  0  0
   -3.4760   19.6450  -33.7170 C   0  0  0  0  0  0  0  0  0  0  0  0
   -3.9547   18.7547  -34.1509 H   0  0  0  0  0  0  0  0  0  0  0  0
   -4.2610   20.6300  -33.1110 C   0  0  0  0  0  0  0  0  0  0  0  0
   -5.6030   20.4710  -33.0610 N   0  0  0  0  0  0  0  0  0  0  0  0
   -6.4330   21.4090  -32.5380 C   0  0  0  0  0  0  0  0  0  0  0  0
   -7.8310   21.2100  -32.6050 C   0  0  0  0  0  0  0  0  0  0  0  0
   -8.3890   20.0000  -33.1680 N   0  0  0  0  0  0  0  0  0  0  0  0
   -9.1040   20.2570  -33.8880 H   0  0  0  0  0  0  0  0  0  0  0  0
   -7.6520   19.4500  -33.6700 H   0  0  0  0  0  0  0  0  0  0  0  0
   -9.0330   19.1510  -32.1480 C   0  0  0  0  0  0  0  0  0  0  0  0
  -10.0668   18.9478  -32.4642 H   0  0  0  0  0  0  0  0  0  0  0  0
   -8.9926   19.6978  -31.1944 H   0  0  0  0  0  0  0  0  0  0  0  0
   -8.3110   17.8030  -31.9350 C   0  0  0  0  0  0  0  0  0  0  0  0
   -8.8950   17.0046  -32.4161 H   0  0  0  0  0  0  0  0  0  0  0  0
   -8.2228   17.6255  -30.8530 H   0  0  0  0  0  0  0  0  0  0  0  0
   -6.9490   17.8200  -32.5160 N   0  0  0  0  0  0  0  0  0  0  0  0
   -5.8970   17.3810  -31.5690 C   0  0  0  0  0  0  0  0  0  0  0  0
   -6.3495   17.1821  -30.5863 H   0  0  0  0  0  0  0  0  0  0  0  0
   -5.1394   18.1728  -31.4733 H   0  0  0  0  0  0  0  0  0  0  0  0
   -5.2360   16.1100  -32.0890 C   0  0  0  0  0  0  0  0  0  0  0  0
   -4.9137   15.4903  -31.2392 H   0  0  0  0  0  0  0  0  0  0  0  0
   -5.9554   15.5468  -32.7015 H   0  0  0  0  0  0  0  0  0  0  0  0
   -4.3618   16.3756  -32.7015 H   0  0  0  0  0  0  0  0  0  0  0  0
   -6.8680   17.1220  -33.8210 C   0  0  0  0  0  0  0  0  0  0  0  0
   -6.4981   16.1011  -33.6449 H   0  0  0  0  0  0  0  0  0  0  0  0
   -7.8793   17.1373  -34.2535 H   0  0  0  0  0  0  0  0  0  0  0  0
   -5.9390   17.8040  -34.8380 C   0  0  0  0  0  0  0  0  0  0  0  0
   -5.1642   18.3728  -34.3030 H   0  0  0  0  0  0  0  0  0  0  0  0
   -5.4625   17.0397  -35.4694 H   0  0  0  0  0  0  0  0  0  0  0  0
   -6.5255   18.4877  -35.4694 H   0  0  0  0  0  0  0  0  0  0  0  0
   -8.6880   22.2260  -32.1590 C   0  0  0  0  0  0  0  0  0  0  0  0
   -9.7748   22.0571  -32.1436 H   0  0  0  0  0  0  0  0  0  0  0  0
   -8.1720   23.4460  -31.7360 C   0  0  0  0  0  0  0  0  0  0  0  0
   -8.8555   24.2566  -31.4430 H   0  0  0  0  0  0  0  0  0  0  0  0
   -6.7940   23.6480  -31.6810 C   0  0  0  0  0  0  0  0  0  0  0  0
   -6.4019   24.6345  -31.3926 H   0  0  0  0  0  0  0  0  0  0  0  0
   -5.8940   22.6050  -31.9900 C   0  0  0  0  0  0  0  0  0  0  0  0
   -4.4820   24.0900  -28.8550 C   0  0  0  0  0  0  0  0  0  0  0  0
   -5.4987   24.3444  -29.1890 H   0  0  0  0  0  0  0  0  0  0  0  0
   -4.1530   24.1720  -27.4980 C   0  0  0  0  0  0  0  0  0  0  0  0
   -4.9165   24.4703  -26.7645 H   0  0  0  0  0  0  0  0  0  0  0  0
  1  2  1  0
  2  3  2  0
  3  4  1  0
  3  5  1  0
  5  6  1  0
  5  7  2  0
  7  8  1  0
  8  9  2  0
  9 10  1  0
 10 11  2  0
 11 12  1  0
 11 13  1  0
 13 14  1  0
 14 15  1  0
 15 16  1  0
 15 17  1  0
 15 18  1  0
 13 19  2  0
 19 20  1  0
 19 21  1  0
 21 22  1  0
 21 23  2  0
 23 24  1  0
 24 25  1  0
 25 26  2  0
 26 27  1  0
 27 28  1  0
 27 29  1  0
 27 30  1  0
 30 31  1  0
 30 32  1  0
 30 33  1  0
 33 34  1  0
 33 35  1  0
 33 36  1  0
 36 37  1  0
 37 38  1  0
 37 39  1  0
 37 40  1  0
 40 41  1  0
 40 42  1  0
 40 43  1  0
 36 44  1  0
 44 45  1  0
 44 46  1  0
 44 47  1  0
 47 48  1  0
 47 49  1  0
 47 50  1  0
 26 51  1  0
 51 52  1  0
 51 53  2  0
 53 54  1  0
 53 55  1  0
 55 56  1  0
 55 57  2  0
  7 58  1  0
 58 59  1  0
 58 60  2  0
 60 61  1  0
 60  2  1  0
 57  9  1  0
 23 10  1  0
 57 25  1  0
M  CHG  2  24  -1  27   1
M  END
>  <UniqueID>  (20) 
20

>  <SMILES>  (20) 
CCN(CC)CC[NH2+]c1cccc2/c(=N\c3ccccc3)c3cc(OC)ccc3[n-]c12

>  <Energy>  (20) 
92.60389961075632

>  <Genealogy>  (20) 
CCN(CC)CC[NH2+]c1cccc2c(=Nc3ccccc3)c3cc(OC)ccc3[n-]c12 (protonated)
CCN(CC)CC[NH2+]c1cccc2/c(=N\c3ccccc3)c3cc(OC)ccc3[n-]c12 (cis-trans isomerization)
CCN(CC)CC[NH2+]c1cccc2/c(=N\c3ccccc3)c3cc(OC)ccc3[n-]c12 (3D coordinates assigned)
CCN(CC)CC[NH2+]c1cccc2/c(=N\c3ccccc3)c3cc(OC)ccc3[n-]c12 (optimized conformer: 92.60389961075632 kcal/mol)

>  <smiles>  (20) 
CCN(CC)CCNc1cccc2c(=Nc3ccccc3)c3cc(OC)ccc3[nH]c12

>  <score_type>  (20) 
oracle

>  <origin>  (20) 
adg

>  <m_score__min__energy>  (20) 
-8.4800000000000004

>  <m_primary>  (20) 
energy

$$$$
20:0
     RDKit          3D

 53 55  0  0  0  0  0  0  0  0999 V2000
   -4.6010   24.9870  -30.1570 C   0  0  0  0  0  0  0  0  0  0  0  0
   -3.1960   24.8130  -29.9970 O   0  0  0  0  0  0  0  0  0  0  0  0
   -2.5660   24.4580  -28.7940 C   0  0  0  0  0  0  0  0  0  0  0  0
   -3.0480   24.9020  -27.5480 C   0  0  0  0  0  0  0  0  0  0  0  0
   -2.3650   24.5900  -26.3700 C   0  0  0  0  0  0  0  0  0  0  0  0
   -1.1920   23.8270  -26.4140 C   0  0  0  0  0  0  0  0  0  0  0  0
   -0.4270   23.5440  -25.1550 C   0  0  0  0  0  0  0  0  0  0  0  0
   -0.7030   23.3860  -27.6520 C   0  0  0  0  0  0  0  0  0  0  0  0
   -1.3990   23.6630  -28.8360 C   0  0  0  0  0  0  0  0  0  0  0  0
   -0.8510   23.1860  -30.0730 N   0  0  0  0  0  0  0  0  0  0  0  0
   -0.7270   21.8110  -30.4490 C   0  0  0  0  0  0  0  0  0  0  0  0
    0.3260   21.1680  -30.1920 O   0  0  0  0  0  0  0  0  0  0  0  0
   -1.8530   21.1370  -31.1840 C   0  0  0  0  0  0  0  0  0  0  0  0
   -3.0460   22.0130  -31.2910 N   0  0  0  0  0  0  0  0  0  0  0  0
   -3.5820   21.9930  -32.6820 C   0  0  0  0  0  0  0  0  0  0  0  0
   -4.6930   20.9540  -32.8810 C   0  0  0  0  0  0  0  0  0  0  0  0
   -5.7690   21.1760  -31.9120 N   0  0  0  0  0  0  0  0  0  0  0  0
   -7.0480   20.5500  -32.1080 C   0  0  0  0  0  0  0  0  0  0  0  0
   -7.1100   19.1620  -32.3070 C   0  0  0  0  0  0  0  0  0  0  0  0
   -8.3410   18.5250  -32.4800 C   0  0  0  0  0  0  0  0  0  0  0  0
   -9.5210   19.2680  -32.4540 C   0  0  0  0  0  0  0  0  0  0  0  0
   -9.4750   20.6510  -32.2650 C   0  0  0  0  0  0  0  0  0  0  0  0
   -8.2420   21.3080  -32.1070 C   0  0  0  0  0  0  0  0  0  0  0  0
   -8.2220   22.8010  -31.9210 C   0  0  0  0  0  0  0  0  0  0  0  0
   -5.4960   21.9460  -30.6970 C   0  0  0  0  0  0  0  0  0  0  0  0
   -4.0580   21.6770  -30.2450 C   0  0  0  0  0  0  0  0  0  0  0  0
   -5.0782   25.0461  -29.1676 H   0  0  0  0  0  0  0  0  0  0  0  0
   -4.7944   25.9160  -30.7134 H   0  0  0  0  0  0  0  0  0  0  0  0
   -5.0152   24.1333  -30.7134 H   0  0  0  0  0  0  0  0  0  0  0  0
   -3.9703   25.4997  -27.5016 H   0  0  0  0  0  0  0  0  0  0  0  0
   -2.7507   24.9456  -25.4031 H   0  0  0  0  0  0  0  0  0  0  0  0
   -1.0563   23.7768  -24.2834 H   0  0  0  0  0  0  0  0  0  0  0  0
   -0.1435   22.4815  -25.1292 H   0  0  0  0  0  0  0  0  0  0  0  0
    0.4798   24.1662  -25.1292 H   0  0  0  0  0  0  0  0  0  0  0  0
    0.2371   22.8165  -27.6940 H   0  0  0  0  0  0  0  0  0  0  0  0
   -1.5112   20.8763  -32.1965 H   0  0  0  0  0  0  0  0  0  0  0  0
   -2.1395   20.2379  -30.6187 H   0  0  0  0  0  0  0  0  0  0  0  0
   -2.7240   22.9950  -31.1120 H   0  0  0  0  0  0  0  0  0  0  0  0
   -3.9870   22.9886  -32.9160 H   0  0  0  0  0  0  0  0  0  0  0  0
   -2.7523   21.7199  -33.3506 H   0  0  0  0  0  0  0  0  0  0  0  0
   -5.0969   21.0439  -33.9002 H   0  0  0  0  0  0  0  0  0  0  0  0
   -4.2756   19.9473  -32.7313 H   0  0  0  0  0  0  0  0  0  0  0  0
   -6.1822   18.5714  -32.3269 H   0  0  0  0  0  0  0  0  0  0  0  0
   -8.3798   17.4369  -32.6368 H   0  0  0  0  0  0  0  0  0  0  0  0
  -10.4900   18.7636  -32.5826 H   0  0  0  0  0  0  0  0  0  0  0  0
  -10.4098   21.2302  -32.2396 H   0  0  0  0  0  0  0  0  0  0  0  0
   -8.2188   23.0366  -30.8465 H   0  0  0  0  0  0  0  0  0  0  0  0
   -7.3182   23.2169  -32.3902 H   0  0  0  0  0  0  0  0  0  0  0  0
   -9.1143   23.2409  -32.3902 H   0  0  0  0  0  0  0  0  0  0  0  0
   -5.6221   23.0188  -30.9048 H   0  0  0  0  0  0  0  0  0  0  0  0
   -6.1959   21.6458  -29.9033 H   0  0  0  0  0  0  0  0  0  0  0  0
   -3.8523   22.2832  -29.3504 H   0  0  0  0  0  0  0  0  0  0  0  0
   -3.9735   20.5998  -30.0387 H   0  0  0  0  0  0  0  0  0  0  0  0
  1  2  1  0
  2  3  1  0
  3  4  2  0
  4  5  1  0
  5  6  2  0
  6  7  1  0
  6  8  1  0
  8  9  2  0
  9 10  1  0
 10 11  1  0
 11 12  2  0
 11 13  1  0
 13 14  1  0
 14 15  1  0
 15 16  1  0
 16 17  1  0
 17 18  1  0
 18 19  2  0
 19 20  1  0
 20 21  2  0
 21 22  1  0
 22 23  2  0
 23 24  1  0
 17 25  1  0
 25 26  1  0
  9  3  1  0
 26 14  1  0
 23 18  1  0
  1 27  1  0
  1 28  1  0
  1 29  1  0
  4 30  1  0
  5 31  1  0
  7 32  1  0
  7 33  1  0
  7 34  1  0
  8 35  1  0
 13 36  1  0
 13 37  1  0
 14 38  1  0
 15 39  1  0
 15 40  1  0
 16 41  1  0
 16 42  1  0
 19 43  1  0
 20 44  1  0
 21 45  1  0
 22 46  1  0
 24 47  1  0
 24 48  1  0
 24 49  1  0
 25 50  1  0
 25 51  1  0
 26 52  1  0
 26 53  1  0
M  CHG  2  10  -1  14   1
M  END
>  <UniqueID>  (21) 
21

>  <SMILES>  (21) 
COc1ccc(C)cc1[N-]C(=O)C[NH+]1CCN(c2ccccc2C)CC1

>  <Energy>  (21) 
69.89268919241178

>  <Genealogy>  (21) 
COc1ccc(C)cc1[N-]C(=O)C[NH+]1CCN(c2ccccc2C)CC1 (protonated)
COc1ccc(C)cc1[N-]C(=O)C[NH+]1CCN(c2ccccc2C)CC1 (3D coordinates assigned)
COc1ccc(C)cc1[N-]C(=O)C[NH+]1CCN(c2ccccc2C)CC1 (nonaromatic ring conformer: 69.89268919241178 kcal/mol)

>  <smiles>  (21) 
COc1ccc(C)cc1NC(=O)CN1CCN(c2ccccc2C)CC1

>  <score_type>  (21) 
oracle

>  <origin>  (21) 
adg

>  <m_score__min__energy>  (21) 
-10.710000000000001

>  <m_primary>  (21) 
energy

$$$$
21:0
     RDKit          3D

 38 40  0  0  0  0  0  0  0  0999 V2000
   -1.8590   24.2400  -28.9310 C   0  0  0  0  0  0  0  0  0  0  0  0
   -2.5850   22.8970  -28.9260 C   0  0  0  0  0  0  0  0  0  0  0  0
   -4.0430   23.0920  -29.0670 N   0  0  0  0  0  0  0  0  0  0  0  0
   -4.5160   24.1740  -28.1880 C   0  0  0  0  0  0  0  0  0  0  0  0
   -4.4260   23.5000  -30.7270 S   0  0  0  0  0  0  0  0  0  0  0  0
   -3.2930   23.0520  -31.6110 O   0  0  0  0  0  0  0  0  0  0  0  0
   -4.6030   24.9880  -30.8580 O   0  0  0  0  0  0  0  0  0  0  0  0
   -5.9350   22.7150  -31.2380 C   0  0  0  0  0  0  0  0  0  0  0  0
   -7.1530   23.3160  -30.8800 C   0  0  0  0  0  0  0  0  0  0  0  0
   -8.3690   22.7300  -31.2260 C   0  0  0  0  0  0  0  0  0  0  0  0
   -8.3960   21.5390  -31.9440 C   0  0  0  0  0  0  0  0  0  0  0  0
   -7.2000   20.9280  -32.3450 C   0  0  0  0  0  0  0  0  0  0  0  0
   -7.2450   19.7390  -33.0880 C   0  0  0  0  0  0  0  0  0  0  0  0
   -6.0630   19.1240  -33.5160 C   0  0  0  0  0  0  0  0  0  0  0  0
   -6.1060   17.9340  -34.2610 C   0  0  0  0  0  0  0  0  0  0  0  0
   -4.9210   17.3320  -34.6910 C   0  0  0  0  0  0  0  0  0  0  0  0
   -3.6870   17.9100  -34.3830 C   0  0  0  0  0  0  0  0  0  0  0  0
   -3.6320   19.0940  -33.6430 C   0  0  0  0  0  0  0  0  0  0  0  0
   -4.8160   19.7090  -33.2030 C   0  0  0  0  0  0  0  0  0  0  0  0
   -4.7670   20.8970  -32.4580 C   0  0  0  0  0  0  0  0  0  0  0  0
   -5.9510   21.5170  -32.0070 C   0  0  0  0  0  0  0  0  0  0  0  0
   -1.6830   24.5655  -27.8951 H   0  0  0  0  0  0  0  0  0  0  0  0
   -0.8954   24.1340  -29.4507 H   0  0  0  0  0  0  0  0  0  0  0  0
   -2.4755   24.9882  -29.4507 H   0  0  0  0  0  0  0  0  0  0  0  0
   -2.2195   22.2856  -29.7643 H   0  0  0  0  0  0  0  0  0  0  0  0
   -2.3863   22.3906  -27.9699 H   0  0  0  0  0  0  0  0  0  0  0  0
   -4.3858   23.8761  -27.1371 H   0  0  0  0  0  0  0  0  0  0  0  0
   -3.9349   25.0870  -28.3850 H   0  0  0  0  0  0  0  0  0  0  0  0
   -5.5808   24.3675  -28.3850 H   0  0  0  0  0  0  0  0  0  0  0  0
   -7.1469   24.2621  -30.3189 H   0  0  0  0  0  0  0  0  0  0  0  0
   -9.3125   23.2118  -30.9298 H   0  0  0  0  0  0  0  0  0  0  0  0
   -9.3602   21.0746  -32.1982 H   0  0  0  0  0  0  0  0  0  0  0  0
   -8.2165   19.2867  -33.3361 H   0  0  0  0  0  0  0  0  0  0  0  0
   -7.0751   17.4750  -34.5064 H   0  0  0  0  0  0  0  0  0  0  0  0
   -4.9597   16.4000  -35.2739 H   0  0  0  0  0  0  0  0  0  0  0  0
   -2.7567   17.4320  -34.7237 H   0  0  0  0  0  0  0  0  0  0  0  0
   -2.6581   19.5462  -33.4041 H   0  0  0  0  0  0  0  0  0  0  0  0
   -3.7929   21.3506  -32.2227 H   0  0  0  0  0  0  0  0  0  0  0  0
  1  2  1  0
  2  3  1  0
  3  4  1  0
  3  5  1  0
  5  6  2  0
  5  7  2  0
  5  8  1  0
  8  9  2  0
  9 10  1  0
 10 11  2  0
 11 12  1  0
 12 13  2  0
 13 14  1  0
 14 15  2  0
 15 16  1  0
 16 17  2  0
 17 18  1  0
 18 19  2  0
 19 20  1  0
 20 21  2  0
 21  8  1  0
 21 12  1  0
 19 14  1  0
  1 22  1  0
  1 23  1  0
  1 24  1  0
  2 25  1  0
  2 26  1  0
  4 27  1  0
  4 28  1  0
  4 29  1  0
  9 30  1  0
 10 31  1  0
 11 32  1  0
 13 33  1  0
 15 34  1  0
 16 35  1  0
 17 36  1  0
 18 37  1  0
 20 38  1  0
M  END
>  <UniqueID>  (22) 
22

>  <SMILES>  (22) 
CCN(C)S(=O)(=O)c1cccc2cc3ccccc3cc12

>  <Energy>  (22) 
47.22602096708405

>  <Genealogy>  (22) 
CCN(C)S(=O)(=O)c1cccc2cc3ccccc3cc12 (3D coordinates assigned)
CCN(C)S(=O)(=O)c1cccc2cc3ccccc3cc12 (optimized conformer: 47.22602096708405 kcal/mol)

>  <smiles>  (22) 
CCN(C)S(=O)(=O)c1cccc2cc3ccccc3cc12

>  <score_type>  (22) 
oracle

>  <origin>  (22) 
adg

>  <m_score__min__energy>  (22) 
-8.8000000000000007

>  <m_primary>  (22) 
energy

$$$$
22:0
     RDKit          3D

 44 44  0  0  0  0  0  0  0  0999 V2000
   -0.8890   27.6240  -25.9200 C   0  0  0  0  0  0  0  0  0  0  0  0
   -0.3210   26.4450  -26.7190 C   0  0  0  0  0  0  0  0  0  0  0  0
   -1.0760   25.1870  -26.4750 N   0  0  0  0  0  0  0  0  0  0  0  0
   -2.3270   25.3230  -25.6720 C   0  0  0  0  0  0  0  0  0  0  0  0
   -3.6340   24.9450  -26.3930 C   0  0  0  0  0  0  0  0  0  0  0  0
   -0.2130   24.0440  -26.0620 C   0  0  0  0  0  0  0  0  0  0  0  0
   -0.8880   22.6560  -25.9370 C   0  0  0  0  0  0  0  0  0  0  0  0
   -1.5360   22.1150  -27.2190 C   0  0  0  0  0  0  0  0  0  0  0  0
   -1.1200   22.8960  -28.3910 N   0  0  0  0  0  0  0  0  0  0  0  0
   -2.2240   23.0920  -29.3450 C   0  0  0  0  0  0  0  0  0  0  0  0
   -2.5910   24.5480  -29.5280 C   0  0  0  0  0  0  0  0  0  0  0  0
   -1.8940   25.4370  -28.9720 O   0  0  0  0  0  0  0  0  0  0  0  0
   -3.5980   24.9550  -30.4640 N   0  0  0  0  0  0  0  0  0  0  0  0
   -4.7990   24.2380  -30.7740 C   0  0  0  0  0  0  0  0  0  0  0  0
   -4.7580   23.0290  -31.4890 C   0  0  0  0  0  0  0  0  0  0  0  0
   -5.9380   22.3290  -31.7590 C   0  0  0  0  0  0  0  0  0  0  0  0
   -7.1640   22.8180  -31.2960 C   0  0  0  0  0  0  0  0  0  0  0  0
   -8.6430   21.9370  -31.6320 Cl  0  0  0  0  0  0  0  0  0  0  0  0
   -7.2060   24.0030  -30.5540 C   0  0  0  0  0  0  0  0  0  0  0  0
   -6.0270   24.7050  -30.2850 C   0  0  0  0  0  0  0  0  0  0  0  0
   -6.0790   25.8510  -29.5600 F   0  0  0  0  0  0  0  0  0  0  0  0
   -0.7903   27.4191  -24.8438 H   0  0  0  0  0  0  0  0  0  0  0  0
   -0.3330   28.5392  -26.1715 H   0  0  0  0  0  0  0  0  0  0  0  0
   -1.9512   27.7596  -26.1715 H   0  0  0  0  0  0  0  0  0  0  0  0
   -0.3712   26.6863  -27.7910 H   0  0  0  0  0  0  0  0  0  0  0  0
    0.7175   26.2848  -26.3936 H   0  0  0  0  0  0  0  0  0  0  0  0
   -1.4070   24.8850  -27.4240 H   0  0  0  0  0  0  0  0  0  0  0  0
   -2.2313   24.6767  -24.7871 H   0  0  0  0  0  0  0  0  0  0  0  0
   -2.4154   26.3942  -25.4382 H   0  0  0  0  0  0  0  0  0  0  0  0
   -4.4117   24.7201  -25.6483 H   0  0  0  0  0  0  0  0  0  0  0  0
   -3.9615   25.7852  -27.0229 H   0  0  0  0  0  0  0  0  0  0  0  0
   -3.4625   24.0597  -27.0229 H   0  0  0  0  0  0  0  0  0  0  0  0
    0.5940   23.9538  -26.8040 H   0  0  0  0  0  0  0  0  0  0  0  0
    0.1164   24.2917  -25.0421 H   0  0  0  0  0  0  0  0  0  0  0  0
   -0.1221   21.9351  -25.6149 H   0  0  0  0  0  0  0  0  0  0  0  0
   -1.7091   22.7848  -25.2164 H   0  0  0  0  0  0  0  0  0  0  0  0
   -1.2336   21.0668  -27.3598 H   0  0  0  0  0  0  0  0  0  0  0  0
   -2.6287   22.1915  -27.1177 H   0  0  0  0  0  0  0  0  0  0  0  0
   -0.7530   23.8240  -28.0770 H   0  0  0  0  0  0  0  0  0  0  0  0
   -1.9231   22.6805  -30.3197 H   0  0  0  0  0  0  0  0  0  0  0  0
   -3.1071   22.5770  -28.9389 H   0  0  0  0  0  0  0  0  0  0  0  0
   -3.7935   22.6315  -31.8378 H   0  0  0  0  0  0  0  0  0  0  0  0
   -5.9021   21.3931  -32.3359 H   0  0  0  0  0  0  0  0  0  0  0  0
   -8.1685   24.3834  -30.1813 H   0  0  0  0  0  0  0  0  0  0  0  0
  1  2  1  0
  2  3  1  0
  3  4  1  0
  4  5  1  0
  3  6  1  0
  6  7  1  0
  7  8  1  0
  8  9  1  0
  9 10  1  0
 10 11  1  0
 11 12  2  0
 11 13  1  0
 13 14  1  0
 14 15  2  0
 15 16  1  0
 16 17  2  0
 17 18  1  0
 17 19  1  0
 19 20  2  0
 20 21  1  0
 20 14  1  0
  1 22  1  0
  1 23  1  0
  1 24  1  0
  2 25  1  0
  2 26  1  0
  3 27  1  0
  4 28  1  0
  4 29  1  0
  5 30  1  0
  5 31  1  0
  5 32  1  0
  6 33  1  0
  6 34  1  0
  7 35  1  0
  7 36  1  0
  8 37  1  0
  8 38  1  0
  9 39  1  0
 10 40  1  0
 10 41  1  0
 15 42  1  0
 16 43  1  0
 19 44  1  0
M  CHG  2   3   1  13  -1
M  END
>  <UniqueID>  (23) 
23

>  <SMILES>  (23) 
CC[NH+](CC)CCCNCC(=O)[N-]c1ccc(Cl)cc1F

>  <Energy>  (23) 
55.818220931908144

>  <Genealogy>  (23) 
CC[NH+](CC)CCCNCC(=O)[N-]c1ccc(Cl)cc1F (protonated)
CC[NH+](CC)CCCNCC(=O)[N-]c1ccc(Cl)cc1F (3D coordinates assigned)
CC[NH+](CC)CCCNCC(=O)[N-]c1ccc(Cl)cc1F (optimized conformer: 55.818220931908144 kcal/mol)

>  <smiles>  (23) 
CCN(CC)CCCNCC(=O)Nc1ccc(Cl)cc1F

>  <score_type>  (23) 
oracle

>  <origin>  (23) 
adg

>  <m_score__min__energy>  (23) 
-8.3300000000000001

>  <m_primary>  (23) 
energy

$$$$
23:0
     RDKit          3D

 43 44  0  0  0  0  0  0  0  0999 V2000
   -9.0680   20.4380  -31.3200 C   0  0  0  0  0  0  0  0  0  0  0  0
   -9.1000   19.0760  -32.0030 C   0  0  0  0  0  0  0  0  0  0  0  0
   -7.9690   18.3100  -31.6300 O   0  0  0  0  0  0  0  0  0  0  0  0
   -7.5370   17.4780  -32.6910 C   0  0  0  0  0  0  0  0  0  0  0  0
   -6.0360   17.1990  -32.5690 C   0  0  0  0  0  0  0  0  0  0  0  0
   -5.4080   17.1930  -33.8980 N   0  0  0  0  0  0  0  0  0  0  0  0
   -5.6850   18.4360  -34.6280 C   0  0  0  0  0  0  0  0  0  0  0  0
   -5.4580   19.6130  -33.7200 C   0  0  0  0  0  0  0  0  0  0  0  0
   -4.2020   19.8140  -33.1260 C   0  0  0  0  0  0  0  0  0  0  0  0
   -3.9970   20.8870  -32.2550 C   0  0  0  0  0  0  0  0  0  0  0  0
   -5.0490   21.7660  -31.9490 C   0  0  0  0  0  0  0  0  0  0  0  0
   -4.8390   22.8790  -31.0590 N   0  0  0  0  0  0  0  0  0  0  0  0
   -3.6320   22.9310  -30.2240 C   0  0  0  0  0  0  0  0  0  0  0  0
   -3.4760   24.3180  -29.6000 C   0  0  0  0  0  0  0  0  0  0  0  0
   -3.8720   25.2990  -30.5330 O   0  0  0  0  0  0  0  0  0  0  0  0
   -5.2830   25.3000  -30.6710 C   0  0  0  0  0  0  0  0  0  0  0  0
   -5.8890   23.8900  -30.8730 C   0  0  0  0  0  0  0  0  0  0  0  0
   -6.3070   21.5570  -32.5380 C   0  0  0  0  0  0  0  0  0  0  0  0
   -6.5130   20.4850  -33.4100 C   0  0  0  0  0  0  0  0  0  0  0  0
   -9.0712   20.3010  -30.2286 H   0  0  0  0  0  0  0  0  0  0  0  0
   -8.1569   20.9769  -31.6192 H   0  0  0  0  0  0  0  0  0  0  0  0
   -9.9527   21.0191  -31.6192 H   0  0  0  0  0  0  0  0  0  0  0  0
  -10.0140   18.5420  -31.7040 H   0  0  0  0  0  0  0  0  0  0  0  0
   -9.0876   19.2231  -33.0930 H   0  0  0  0  0  0  0  0  0  0  0  0
   -8.0874   16.5264  -32.6533 H   0  0  0  0  0  0  0  0  0  0  0  0
   -7.7303   17.9869  -33.6468 H   0  0  0  0  0  0  0  0  0  0  0  0
   -5.5706   17.9813  -31.9514 H   0  0  0  0  0  0  0  0  0  0  0  0
   -5.8923   16.2139  -32.1012 H   0  0  0  0  0  0  0  0  0  0  0  0
   -4.3710   17.1320  -33.7610 H   0  0  0  0  0  0  0  0  0  0  0  0
   -5.0138   18.5083  -35.4965 H   0  0  0  0  0  0  0  0  0  0  0  0
   -6.7302   18.4342  -34.9709 H   0  0  0  0  0  0  0  0  0  0  0  0
   -3.3751   19.1232  -33.3474 H   0  0  0  0  0  0  0  0  0  0  0  0
   -3.0053   21.0445  -31.8059 H   0  0  0  0  0  0  0  0  0  0  0  0
   -3.7120   22.1804  -29.4239 H   0  0  0  0  0  0  0  0  0  0  0  0
   -2.7538   22.7211  -30.8522 H   0  0  0  0  0  0  0  0  0  0  0  0
   -4.1073   24.3895  -28.7021 H   0  0  0  0  0  0  0  0  0  0  0  0
   -2.4241   24.4793  -29.3215 H   0  0  0  0  0  0  0  0  0  0  0  0
   -5.7206   25.7392  -29.7624 H   0  0  0  0  0  0  0  0  0  0  0  0
   -5.5175   25.8832  -31.5737 H   0  0  0  0  0  0  0  0  0  0  0  0
   -6.4870   23.6269  -29.9880 H   0  0  0  0  0  0  0  0  0  0  0  0
   -6.5171   23.9082  -31.7758 H   0  0  0  0  0  0  0  0  0  0  0  0
   -7.1365   22.2428  -32.3109 H   0  0  0  0  0  0  0  0  0  0  0  0
   -7.5059   20.3239  -33.8552 H   0  0  0  0  0  0  0  0  0  0  0  0
  1  2  1  0
  2  3  1  0
  3  4  1  0
  4  5  1  0
  5  6  1  0
  6  7  1  0
  7  8  1  0
  8  9  2  0
  9 10  1  0
 10 11  2  0
 11 12  1  0
 12 13  1  0
 13 14  1  0
 14 15  1  0
 15 16  1  0
 16 17  1  0
 11 18  1  0
 18 19  2  0
 19  8  1  0
 17 12  1  0
  1 20  1  0
  1 21  1  0
  1 22  1  0
  2 23  1  0
  2 24  1  0
  4 25  1  0
  4 26  1  0
  5 27  1  0
  5 28  1  0
  6 29  1  0
  7 30  1  0
  7 31  1  0
  9 32  1  0
 10 33  1  0
 13 34  1  0
 13 35  1  0
 14 36  1  0
 14 37  1  0
 16 38  1  0
 16 39  1  0
 17 40  1  0
 17 41  1  0
 18 42  1  0
 19 43  1  0
M  END
>  <UniqueID>  (24) 
24

>  <SMILES>  (24) 
CCOCCNCc1ccc(N2CCOCC2)cc1

>  <Energy>  (24) 
50.029249615104874

>  <Genealogy>  (24) 
CCOCCNCc1ccc(N2CCOCC2)cc1 (3D coordinates assigned)
CCOCCNCc1ccc(N2CCOCC2)cc1 (nonaromatic ring conformer: 50.029249615104874 kcal/mol)

>  <smiles>  (24) 
CCOCCNCc1ccc(N2CCOCC2)cc1

>  <score_type>  (24) 
oracle

>  <origin>  (24) 
adg

>  <m_score__min__energy>  (24) 
-7.9400000000000004

>  <m_primary>  (24) 
energy

$$$$
24:0
     RDKit          3D

 42 45  0  0  0  0  0  0  0  0999 V2000
    1.7250   24.9760  -26.7440 C   0  0  0  0  0  0  0  0  0  0  0  0
    1.0070   24.7890  -27.9600 O   0  0  0  0  0  0  0  0  0  0  0  0
   -0.3360   24.3900  -28.0310 C   0  0  0  0  0  0  0  0  0  0  0  0
   -0.7890   23.4200  -27.1320 C   0  0  0  0  0  0  0  0  0  0  0  0
   -2.1180   22.9920  -27.1600 C   0  0  0  0  0  0  0  0  0  0  0  0
   -3.0080   23.5300  -28.0920 C   0  0  0  0  0  0  0  0  0  0  0  0
   -2.5690   24.5010  -29.0110 C   0  0  0  0  0  0  0  0  0  0  0  0
   -3.4270   25.0690  -29.9650 O   0  0  0  0  0  0  0  0  0  0  0  0
   -4.6880   24.5590  -30.2990 C   0  0  0  0  0  0  0  0  0  0  0  0
   -5.8220   25.2490  -29.8680 C   0  0  0  0  0  0  0  0  0  0  0  0
   -7.0910   24.7480  -30.1610 C   0  0  0  0  0  0  0  0  0  0  0  0
   -7.2300   23.5980  -30.8730 N   0  0  0  0  0  0  0  0  0  0  0  0
   -6.1460   22.9110  -31.3350 C   0  0  0  0  0  0  0  0  0  0  0  0
   -6.3160   21.7380  -32.0860 C   0  0  0  0  0  0  0  0  0  0  0  0
   -5.1920   21.0570  -32.5750 C   0  0  0  0  0  0  0  0  0  0  0  0
   -5.3220   19.8190  -33.3700 C   0  0  0  0  0  0  0  0  0  0  0  0
   -6.4760   19.2160  -33.8490 C   0  0  0  0  0  0  0  0  0  0  0  0
   -6.1470   18.0920  -34.5150 N   0  0  0  0  0  0  0  0  0  0  0  0
   -4.8290   17.9780  -34.4810 N   0  0  0  0  0  0  0  0  0  0  0  0
   -4.0970   16.8490  -35.0380 C   0  0  0  0  0  0  0  0  0  0  0  0
   -4.2940   18.9970  -33.7850 C   0  0  0  0  0  0  0  0  0  0  0  0
   -3.9490   21.5510  -32.3200 N   0  0  0  0  0  0  0  0  0  0  0  0
   -3.7480   22.6810  -31.5930 C   0  0  0  0  0  0  0  0  0  0  0  0
   -4.8420   23.3840  -31.0660 C   0  0  0  0  0  0  0  0  0  0  0  0
   -1.2360   24.9310  -28.9710 C   0  0  0  0  0  0  0  0  0  0  0  0
    1.0531   24.8010  -25.8908 H   0  0  0  0  0  0  0  0  0  0  0  0
    2.5645   24.2665  -26.7011 H   0  0  0  0  0  0  0  0  0  0  0  0
    2.1118   26.0049  -26.7011 H   0  0  0  0  0  0  0  0  0  0  0  0
   -0.0929   22.9904  -26.3965 H   0  0  0  0  0  0  0  0  0  0  0  0
   -2.4644   22.2297  -26.4466 H   0  0  0  0  0  0  0  0  0  0  0  0
   -4.0552   23.1938  -28.1078 H   0  0  0  0  0  0  0  0  0  0  0  0
   -5.7158   26.1846  -29.2993 H   0  0  0  0  0  0  0  0  0  0  0  0
   -7.9848   25.2870  -29.8137 H   0  0  0  0  0  0  0  0  0  0  0  0
   -8.1970   23.2510  -31.0700 H   0  0  0  0  0  0  0  0  0  0  0  0
   -7.3265   21.3544  -32.2902 H   0  0  0  0  0  0  0  0  0  0  0  0
   -7.4986   19.5958  -33.7073 H   0  0  0  0  0  0  0  0  0  0  0  0
   -3.6969   16.2319  -34.2200 H   0  0  0  0  0  0  0  0  0  0  0  0
   -4.7742   16.2425  -35.6574 H   0  0  0  0  0  0  0  0  0  0  0  0
   -3.2670   17.2198  -35.6574 H   0  0  0  0  0  0  0  0  0  0  0  0
   -3.2236   19.1488  -33.5819 H   0  0  0  0  0  0  0  0  0  0  0  0
   -2.7252   23.0456  -31.4171 H   0  0  0  0  0  0  0  0  0  0  0  0
   -0.8889   25.6975  -29.6795 H   0  0  0  0  0  0  0  0  0  0  0  0
  1  2  1  0
  2  3  1  0
  3  4  2  0
  4  5  1  0
  5  6  2  0
  6  7  1  0
  7  8  1  0
  8  9  1  0
  9 10  2  0
 10 11  1  0
 11 12  2  0
 12 13  1  0
 13 14  2  0
 14 15  1  0
 15 16  1  0
 16 17  1  0
 17 18  2  0
 18 19  1  0
 19 20  1  0
 19 21  1  0
 15 22  2  0
 22 23  1  0
 23 24  2  0
  7 25  2  0
 25  3  1  0
 24  9  1  0
 24 13  1  0
 21 16  2  0
  1 26  1  0
  1 27  1  0
  1 28  1  0
  4 29  1  0
  5 30  1  0
  6 31  1  0
 10 32  1  0
 11 33  1  0
 12 34  1  0
 14 35  1  0
 17 36  1  0
 20 37  1  0
 20 38  1  0
 20 39  1  0
 21 40  1  0
 23 41  1  0
 25 42  1  0
M  CHG  1  12   1
M  END
>  <UniqueID>  (25) 
25

>  <SMILES>  (25) 
COc1cccc(Oc2cc[nH+]c3cc(-c4cnn(C)c4)ncc23)c1

>  <Energy>  (25) 
88.26338384116856

>  <Genealogy>  (25) 
COc1cccc(Oc2cc[nH+]c3cc(-c4cnn(C)c4)ncc23)c1 (protonated)
COc1cccc(Oc2cc[nH+]c3cc(-c4cnn(C)c4)ncc23)c1 (3D coordinates assigned)
COc1cccc(Oc2cc[nH+]c3cc(-c4cnn(C)c4)ncc23)c1 (optimized conformer: 88.26338384116856 kcal/mol)

>  <smiles>  (25) 
COc1cccc(Oc2ccnc3cc(-c4cnn(C)c4)ncc23)c1

>  <score_type>  (25) 
oracle

>  <origin>  (25) 
adg

>  <m_score__min__energy>  (25) 
-7.7000000000000002

>  <m_primary>  (25) 
energy

$$$$
25:0
     RDKit          3D

 32 34  0  0  0  0  0  0  0  0999 V2000
   -2.6760   21.9450  -29.9230 C   0  0  0  0  0  0  0  0  0  0  0  0
   -2.9250   22.3510  -31.3700 C   0  0  0  0  0  0  0  0  0  0  0  0
   -4.3190   22.0970  -31.7320 N   0  0  0  0  0  0  0  0  0  0  0  0
   -5.4130   22.7730  -31.3100 C   0  0  0  0  0  0  0  0  0  0  0  0
   -6.5540   22.2290  -31.7640 C   0  0  0  0  0  0  0  0  0  0  0  0
   -6.2020   21.1480  -32.5350 C   0  0  0  0  0  0  0  0  0  0  0  0
   -6.9660   20.1690  -33.1620 C   0  0  0  0  0  0  0  0  0  0  0  0
   -6.2820   19.1440  -33.8390 C   0  0  0  0  0  0  0  0  0  0  0  0
   -4.8690   19.1090  -33.8490 C   0  0  0  0  0  0  0  0  0  0  0  0
   -4.1210   20.0930  -33.1760 C   0  0  0  0  0  0  0  0  0  0  0  0
   -4.8190   21.1110  -32.5200 C   0  0  0  0  0  0  0  0  0  0  0  0
   -7.7540   22.6610  -31.0270 C   0  0  0  0  0  0  0  0  0  0  0  0
   -7.1760   23.7140  -30.0400 C   0  0  0  0  0  0  0  0  0  0  0  0
   -5.6180   23.6910  -30.1690 C   0  0  2  0  0  0  0  0  0  0  0  0
   -5.0390   25.0480  -30.4510 C   0  0  0  0  0  0  0  0  0  0  0  0
   -3.6260   25.2350  -30.4170 N   0  0  0  0  0  0  0  0  0  0  0  0
   -5.7920   26.0230  -30.7160 O   0  0  0  0  0  0  0  0  0  0  0  0
   -3.1311   22.6870  -29.2505 H   0  0  0  0  0  0  0  0  0  0  0  0
   -3.1242   20.9578  -29.7368 H   0  0  0  0  0  0  0  0  0  0  0  0
   -1.5929   21.8970  -29.7368 H   0  0  0  0  0  0  0  0  0  0  0  0
   -2.7079   23.4227  -31.4894 H   0  0  0  0  0  0  0  0  0  0  0  0
   -2.2697   21.7602  -32.0269 H   0  0  0  0  0  0  0  0  0  0  0  0
   -8.0652   20.1958  -33.1293 H   0  0  0  0  0  0  0  0  0  0  0  0
   -6.8509   18.3632  -34.3650 H   0  0  0  0  0  0  0  0  0  0  0  0
   -4.3484   18.3041  -34.3886 H   0  0  0  0  0  0  0  0  0  0  0  0
   -3.0215   20.0620  -33.1665 H   0  0  0  0  0  0  0  0  0  0  0  0
   -8.4951   23.1130  -31.7026 H   0  0  0  0  0  0  0  0  0  0  0  0
   -8.2857   21.8365  -30.5295 H   0  0  0  0  0  0  0  0  0  0  0  0
   -7.5572   24.7138  -30.2951 H   0  0  0  0  0  0  0  0  0  0  0  0
   -7.4781   23.4784  -29.0089 H   0  0  0  0  0  0  0  0  0  0  0  0
   -5.1181   23.3763  -29.2411 H   0  0  0  0  0  0  0  0  0  0  0  0
   -3.1230   25.6710  -31.2220 H   0  0  0  0  0  0  0  0  0  0  0  0
  1  2  1  0
  2  3  1  0
  3  4  1  0
  4  5  2  0
  5  6  1  0
  6  7  2  0
  7  8  1  0
  8  9  2  0
  9 10  1  0
 10 11  2  0
  5 12  1  0
 12 13  1  0
 13 14  1  0
 14 15  1  0
 15 16  1  0
 15 17  2  0
 11  3  1  0
 14  4  1  0
 11  6  1  0
  1 18  1  0
  1 19  1  0
  1 20  1  0
  2 21  1  0
  2 22  1  0
  7 23  1  0
  8 24  1  0
  9 25  1  0
 10 26  1  0
 12 27  1  0
 12 28  1  0
 13 29  1  0
 13 30  1  0
 14 31  1  1
 16 32  1  0
M  CHG  1  16  -1
M  END
>  <UniqueID>  (26) 
26

>  <SMILES>  (26) 
CCn1c2c(c3ccccc31)CC[C@@H]2C([NH-])=O

>  <Energy>  (26) 
84.49204998963532

>  <Genealogy>  (26) 
CCn1c2c(c3ccccc31)CCC2C([NH-])=O (protonated)
CCn1c2c(c3ccccc31)CC[C@@H]2C([NH-])=O (chirality)
CCn1c2c(c3ccccc31)CC[C@@H]2C([NH-])=O (3D coordinates assigned)
CCn1c2c(c3ccccc31)CC[C@@H]2C([NH-])=O (nonaromatic ring conformer: 84.49204998963532 kcal/mol)

>  <smiles>  (26) 
CCn1c2c(c3ccccc31)CCC2C(N)=O

>  <score_type>  (26) 
oracle

>  <origin>  (26) 
adg

>  <m_score__min__energy>  (26) 
-9.8399999999999999

>  <m_primary>  (26) 
energy

$$$$
26:0
     RDKit          3D

 70 73  0  0  0  0  0  0  0  0999 V2000
   -3.9500   24.2500  -27.0640 C   0  0  0  0  0  0  0  0  0  0  0  0
   -3.3690   22.9120  -27.5110 C   0  0  0  0  0  0  0  0  0  0  0  0
   -3.1410   22.8490  -28.9700 N   0  0  0  0  0  0  0  0  0  0  0  0
   -3.3970   21.5880  -29.6950 C   0  0  0  0  0  0  0  0  0  0  0  0
   -2.4460   21.3650  -30.8860 C   0  0  0  0  0  0  0  0  0  0  0  0
   -2.9440   22.0150  -32.1780 C   0  0  0  0  0  0  0  0  0  0  0  0
   -2.2040   21.4610  -33.4020 C   0  0  0  0  0  0  0  0  0  0  0  0
   -0.8300   20.9140  -33.0010 C   0  0  0  0  0  0  0  0  0  0  0  0
   -0.1530   19.8480  -34.3210 S   0  0  0  0  0  0  0  0  0  0  0  0
   -1.3030   18.5010  -34.0520 C   0  0  0  0  0  0  0  0  0  0  0  0
   -0.8670   17.2190  -34.1070 N   0  0  0  0  0  0  0  0  0  0  0  0
   -1.7040   16.2050  -33.8890 N   0  0  0  0  0  0  0  0  0  0  0  0
   -3.0170   16.4140  -33.5950 C   0  0  0  0  0  0  0  0  0  0  0  0
   -3.8960   15.2350  -33.4240 C   0  0  0  0  0  0  0  0  0  0  0  0
   -4.9320   14.9650  -34.3390 C   0  0  0  0  0  0  0  0  0  0  0  0
   -5.7540   13.8460  -34.1620 C   0  0  0  0  0  0  0  0  0  0  0  0
   -5.5420   12.9830  -33.0820 C   0  0  0  0  0  0  0  0  0  0  0  0
   -6.3350   11.8970  -32.9180 F   0  0  0  0  0  0  0  0  0  0  0  0
   -4.5020   13.2330  -32.1830 C   0  0  0  0  0  0  0  0  0  0  0  0
   -3.6780   14.3490  -32.3550 C   0  0  0  0  0  0  0  0  0  0  0  0
   -3.4770   17.7480  -33.4980 C   0  0  0  0  0  0  0  0  0  0  0  0
   -4.8560   18.0980  -33.0810 C   0  0  0  0  0  0  0  0  0  0  0  0
   -5.5500   19.1200  -33.7450 C   0  0  0  0  0  0  0  0  0  0  0  0
   -6.8560   19.4490  -33.3680 C   0  0  0  0  0  0  0  0  0  0  0  0
   -7.4820   18.7660  -32.3080 C   0  0  0  0  0  0  0  0  0  0  0  0
   -8.7940   19.0490  -31.9020 O   0  0  0  0  0  0  0  0  0  0  0  0
   -9.7750   19.6720  -32.7220 C   0  0  0  0  0  0  0  0  0  0  0  0
   -6.7770   17.7640  -31.6300 C   0  0  0  0  0  0  0  0  0  0  0  0
   -5.4710   17.4390  -32.0030 C   0  0  0  0  0  0  0  0  0  0  0  0
   -2.5980   18.7570  -33.7430 N   0  0  0  0  0  0  0  0  0  0  0  0
   -3.1890   24.0820  -29.7190 C   0  0  0  0  0  0  0  0  0  0  0  0
   -2.3190   24.9760  -29.5100 O   0  0  0  0  0  0  0  0  0  0  0  0
   -4.2640   24.3170  -30.6400 N   0  0  0  0  0  0  0  0  0  0  0  0
   -5.5410   23.6620  -30.7230 C   0  0  0  0  0  0  0  0  0  0  0  0
   -6.2890   23.3020  -29.5830 C   0  0  0  0  0  0  0  0  0  0  0  0
   -7.5300   22.6690  -29.7240 C   0  0  0  0  0  0  0  0  0  0  0  0
   -8.0470   22.4120  -30.9950 C   0  0  0  0  0  0  0  0  0  0  0  0
   -9.2510   21.8000  -31.1260 F   0  0  0  0  0  0  0  0  0  0  0  0
   -7.3270   22.7950  -32.1300 C   0  0  0  0  0  0  0  0  0  0  0  0
   -6.0820   23.4190  -31.9940 C   0  0  0  0  0  0  0  0  0  0  0  0
   -5.3950   23.7830  -33.1050 F   0  0  0  0  0  0  0  0  0  0  0  0
   -3.9686   24.2928  -25.9650 H   0  0  0  0  0  0  0  0  0  0  0  0
   -3.3263   25.0687  -27.4524 H   0  0  0  0  0  0  0  0  0  0  0  0
   -4.9740   24.3532  -27.4524 H   0  0  0  0  0  0  0  0  0  0  0  0
   -2.4088   22.7560  -26.9975 H   0  0  0  0  0  0  0  0  0  0  0  0
   -4.0988   22.1300  -27.2543 H   0  0  0  0  0  0  0  0  0  0  0  0
   -3.2777   20.7507  -28.9917 H   0  0  0  0  0  0  0  0  0  0  0  0
   -4.4179   21.6472  -30.1004 H   0  0  0  0  0  0  0  0  0  0  0  0
   -1.4637   21.7917  -30.6349 H   0  0  0  0  0  0  0  0  0  0  0  0
   -2.3894   20.2809  -31.0635 H   0  0  0  0  0  0  0  0  0  0  0  0
   -4.0198   21.8142  -32.2885 H   0  0  0  0  0  0  0  0  0  0  0  0
   -2.7541   23.0968  -32.1179 H   0  0  0  0  0  0  0  0  0  0  0  0
   -2.7994   20.6507  -33.8479 H   0  0  0  0  0  0  0  0  0  0  0  0
   -2.0629   22.2746  -34.1288 H   0  0  0  0  0  0  0  0  0  0  0  0
   -0.1426   21.7550  -32.8272 H   0  0  0  0  0  0  0  0  0  0  0  0
   -0.9397   20.3168  -32.0838 H   0  0  0  0  0  0  0  0  0  0  0  0
   -5.0957   15.6356  -35.1954 H   0  0  0  0  0  0  0  0  0  0  0  0
   -6.5683   13.6450  -34.8737 H   0  0  0  0  0  0  0  0  0  0  0  0
   -4.3313   12.5500  -31.3378 H   0  0  0  0  0  0  0  0  0  0  0  0
   -2.8545   14.5348  -31.6498 H   0  0  0  0  0  0  0  0  0  0  0  0
   -5.0643   19.6660  -34.5671 H   0  0  0  0  0  0  0  0  0  0  0  0
   -7.3963   20.2447  -33.9019 H   0  0  0  0  0  0  0  0  0  0  0  0
  -10.5326   20.1532  -32.0860 H   0  0  0  0  0  0  0  0  0  0  0  0
   -9.2940   20.4305  -33.3571 H   0  0  0  0  0  0  0  0  0  0  0  0
  -10.2570   18.9142  -33.3571 H   0  0  0  0  0  0  0  0  0  0  0  0
   -7.2557   17.2285  -30.7969 H   0  0  0  0  0  0  0  0  0  0  0  0
   -4.9210   16.6632  -31.4501 H   0  0  0  0  0  0  0  0  0  0  0  0
   -5.8959   23.5194  -28.5789 H   0  0  0  0  0  0  0  0  0  0  0  0
   -8.0993   22.3733  -28.8304 H   0  0  0  0  0  0  0  0  0  0  0  0
   -7.7397   22.6056  -33.1319 H   0  0  0  0  0  0  0  0  0  0  0  0
  1  2  1  0
  2  3  1  0
  3  4  1  0
  4  5  1  0
  5  6  1  0
  6  7  1  0
  7  8  1  0
  8  9  1  0
  9 10  1  0
 10 11  2  0
 11 12  1  0
 12 13  2  0
 13 14  1  0
 14 15  2  0
 15 16  1  0
 16 17  2  0
 17 18  1  0
 17 19  1  0
 19 20  2  0
 13 21  1  0
 21 22  1  0
 22 23  2  0
 23 24  1  0
 24 25  2  0
 25 26  1  0
 26 27  1  0
 25 28  1  0
 28 29  2  0
 21 30  2  0
  3 31  1  0
 31 32  2  0
 31 33  1  0
 33 34  1  0
 34 35  2  0
 35 36  1  0
 36 37  2  0
 37 38  1  0
 37 39  1  0
 39 40  2  0
 40 41  1  0
 30 10  1  0
 40 34  1  0
 20 14  1  0
 29 22  1  0
  1 42  1  0
  1 43  1  0
  1 44  1  0
  2 45  1  0
  2 46  1  0
  4 47  1  0
  4 48  1  0
  5 49  1  0
  5 50  1  0
  6 51  1  0
  6 52  1  0
  7 53  1  0
  7 54  1  0
  8 55  1  0
  8 56  1  0
 15 57  1  0
 16 58  1  0
 19 59  1  0
 20 60  1  0
 23 61  1  0
 24 62  1  0
 27 63  1  0
 27 64  1  0
 27 65  1  0
 28 66  1  0
 29 67  1  0
 35 68  1  0
 36 69  1  0
 39 70  1  0
M  CHG  1  33  -1
M  END
>  <UniqueID>  (27) 
27

>  <SMILES>  (27) 
CCN(CCCCCSc1nnc(-c2ccc(F)cc2)c(-c2ccc(OC)cc2)n1)C(=O)[N-]c1ccc(F)cc1F

>  <Energy>  (27) 
80.16312532875595

>  <Genealogy>  (27) 
CCN(CCCCCSc1nnc(-c2ccc(F)cc2)c(-c2ccc(OC)cc2)n1)C(=O)[N-]c1ccc(F)cc1F (protonated)
CCN(CCCCCSc1nnc(-c2ccc(F)cc2)c(-c2ccc(OC)cc2)n1)C(=O)[N-]c1ccc(F)cc1F (3D coordinates assigned)
CCN(CCCCCSc1nnc(-c2ccc(F)cc2)c(-c2ccc(OC)cc2)n1)C(=O)[N-]c1ccc(F)cc1F (optimized conformer: 80.16312532875595 kcal/mol)

>  <smiles>  (27) 
CCN(CCCCCSc1nnc(-c2ccc(F)cc2)c(-c2ccc(OC)cc2)n1)C(=O)Nc1ccc(F)cc1F

>  <score_type>  (27) 
oracle

>  <origin>  (27) 
adg

>  <m_score__min__energy>  (27) 
-10.48

>  <m_primary>  (27) 
energy

$$$$
27:0
     RDKit          3D

 56 58  0  0  0  0  0  0  0  0999 V2000
   -1.9540   21.1200  -32.3860 C   0  0  0  0  0  0  0  0  0  0  0  0
   -2.6150   21.6020  -31.2210 O   0  0  0  0  0  0  0  0  0  0  0  0
   -2.2270   21.3100  -29.9030 C   0  0  0  0  0  0  0  0  0  0  0  0
   -1.0510   20.5860  -29.6240 C   0  0  0  0  0  0  0  0  0  0  0  0
   -0.6740   20.3260  -28.3060 C   0  0  0  0  0  0  0  0  0  0  0  0
   -1.4570   20.7890  -27.2500 C   0  0  0  0  0  0  0  0  0  0  0  0
   -2.6250   21.5080  -27.5090 C   0  0  0  0  0  0  0  0  0  0  0  0
   -3.0330   21.7600  -28.8330 C   0  0  0  0  0  0  0  0  0  0  0  0
   -4.3100   22.5460  -29.0820 C   0  0  0  0  0  0  0  0  0  0  0  0
   -4.3350   23.2890  -30.3700 N   0  0  1  0  0  0  0  0  0  0  0  0
   -5.6910   23.4440  -30.9550 C   0  0  0  0  0  0  0  0  0  0  0  0
   -5.8330   22.7520  -32.3340 C   0  0  0  0  0  0  0  0  0  0  0  0
   -7.0620   21.9310  -32.3900 N   0  0  0  0  0  0  0  0  0  0  0  0
   -8.1030   22.4990  -31.5020 C   0  0  0  0  0  0  0  0  0  0  0  0
   -9.2940   21.5380  -31.2860 C   0  0  0  0  0  0  0  0  0  0  0  0
   -9.3200   20.4280  -32.3360 C   0  0  0  0  0  0  0  0  0  0  0  0
   -8.0020   19.6360  -32.3300 C   0  0  0  0  0  0  0  0  0  0  0  0
   -6.7820   20.5270  -32.0280 C   0  0  0  0  0  0  0  0  0  0  0  0
   -3.6730   24.5700  -30.2390 C   0  0  0  0  0  0  0  0  0  0  0  0
   -4.2750   25.6360  -30.5470 O   0  0  0  0  0  0  0  0  0  0  0  0
   -2.3630   24.6270  -29.6570 N   0  0  0  0  0  0  0  0  0  0  0  0
   -2.0380   25.1030  -28.3440 C   0  0  0  0  0  0  0  0  0  0  0  0
   -0.9280   25.9430  -28.1870 C   0  0  0  0  0  0  0  0  0  0  0  0
   -0.5930   26.4460  -26.9260 C   0  0  0  0  0  0  0  0  0  0  0  0
   -1.3790   26.1290  -25.8140 C   0  0  0  0  0  0  0  0  0  0  0  0
   -2.5020   25.3120  -25.9640 C   0  0  0  0  0  0  0  0  0  0  0  0
   -2.8370   24.8020  -27.2230 C   0  0  0  0  0  0  0  0  0  0  0  0
   -1.0980   20.4958  -32.0901 H   0  0  0  0  0  0  0  0  0  0  0  0
   -2.6558   20.5202  -32.9841 H   0  0  0  0  0  0  0  0  0  0  0  0
   -1.5975   21.9716  -32.9841 H   0  0  0  0  0  0  0  0  0  0  0  0
   -0.4248   20.2227  -30.4522 H   0  0  0  0  0  0  0  0  0  0  0  0
    0.2430   19.7545  -28.0999 H   0  0  0  0  0  0  0  0  0  0  0  0
   -1.1543   20.5877  -26.2118 H   0  0  0  0  0  0  0  0  0  0  0  0
   -3.2323   21.8812  -26.6712 H   0  0  0  0  0  0  0  0  0  0  0  0
   -5.1543   21.8409  -29.0755 H   0  0  0  0  0  0  0  0  0  0  0  0
   -4.3739   23.3005  -28.2841 H   0  0  0  0  0  0  0  0  0  0  0  0
   -3.7610   22.7360  -31.0500 H   0  0  0  0  0  0  0  0  0  0  0  0
   -6.4244   23.0035  -30.2636 H   0  0  0  0  0  0  0  0  0  0  0  0
   -5.8660   24.5196  -31.1048 H   0  0  0  0  0  0  0  0  0  0  0  0
   -5.8776   23.5207  -33.1195 H   0  0  0  0  0  0  0  0  0  0  0  0
   -4.9646   22.0946  -32.4877 H   0  0  0  0  0  0  0  0  0  0  0  0
   -7.6488   22.7213  -30.5251 H   0  0  0  0  0  0  0  0  0  0  0  0
   -8.4928   23.4066  -31.9862 H   0  0  0  0  0  0  0  0  0  0  0  0
   -9.2090   21.0832  -30.2880 H   0  0  0  0  0  0  0  0  0  0  0  0
  -10.2243   22.1180  -31.3760 H   0  0  0  0  0  0  0  0  0  0  0  0
  -10.1525   19.7435  -32.1159 H   0  0  0  0  0  0  0  0  0  0  0  0
   -9.4506   20.8854  -33.3278 H   0  0  0  0  0  0  0  0  0  0  0  0
   -8.0650   18.8513  -31.5617 H   0  0  0  0  0  0  0  0  0  0  0  0
   -7.8639   19.2077  -33.3337 H   0  0  0  0  0  0  0  0  0  0  0  0
   -6.5494   20.4699  -30.9544 H   0  0  0  0  0  0  0  0  0  0  0  0
   -5.9271   20.1712  -32.6218 H   0  0  0  0  0  0  0  0  0  0  0  0
   -0.3159   26.2087  -29.0615 H   0  0  0  0  0  0  0  0  0  0  0  0
    0.2898   27.0917  -26.8088 H   0  0  0  0  0  0  0  0  0  0  0  0
   -1.1132   26.5227  -24.8218 H   0  0  0  0  0  0  0  0  0  0  0  0
   -3.1244   25.0690  -25.0902 H   0  0  0  0  0  0  0  0  0  0  0  0
   -3.7261   24.1646  -27.3380 H   0  0  0  0  0  0  0  0  0  0  0  0
  1  2  1  0
  2  3  1  0
  3  4  2  0
  4  5  1  0
  5  6  2  0
  6  7  1  0
  7  8  2  0
  8  9  1  0
  9 10  1  0
 10 11  1  0
 11 12  1  0
 12 13  1  0
 13 14  1  0
 14 15  1  0
 15 16  1  0
 16 17  1  0
 17 18  1  0
 10 19  1  0
 19 20  2  0
 19 21  1  0
 21 22  1  0
 22 23  2  0
 23 24  1  0
 24 25  2  0
 25 26  1  0
 26 27  2  0
  8  3  1  0
 18 13  1  0
 27 22  1  0
  1 28  1  0
  1 29  1  0
  1 30  1  0
  4 31  1  0
  5 32  1  0
  6 33  1  0
  7 34  1  0
  9 35  1  0
  9 36  1  0
 10 37  1  6
 11 38  1  0
 11 39  1  0
 12 40  1  0
 12 41  1  0
 14 42  1  0
 14 43  1  0
 15 44  1  0
 15 45  1  0
 16 46  1  0
 16 47  1  0
 17 48  1  0
 17 49  1  0
 18 50  1  0
 18 51  1  0
 23 52  1  0
 24 53  1  0
 25 54  1  0
 26 55  1  0
 27 56  1  0
M  CHG  2  10   1  21  -1
M  END
>  <UniqueID>  (28) 
28

>  <SMILES>  (28) 
COc1ccccc1C[N@@H+](CCN1CCCCC1)C(=O)[N-]c1ccccc1

>  <Energy>  (28) 
72.66343839950902

>  <Genealogy>  (28) 
COc1ccccc1C[NH+](CCN1CCCCC1)C(=O)[N-]c1ccccc1 (protonated)
COc1ccccc1C[N@@H+](CCN1CCCCC1)C(=O)[N-]c1ccccc1 (chirality)
COc1ccccc1C[N@@H+](CCN1CCCCC1)C(=O)[N-]c1ccccc1 (3D coordinates assigned)
COc1ccccc1C[N@@H+](CCN1CCCCC1)C(=O)[N-]c1ccccc1 (nonaromatic ring conformer: 72.66343839950902 kcal/mol)

>  <smiles>  (28) 
COc1ccccc1CN(CCN1CCCCC1)C(=O)Nc1ccccc1

>  <score_type>  (28) 
oracle

>  <origin>  (28) 
adg

>  <m_score__min__energy>  (28) 
-8.4499999999999993

>  <m_primary>  (28) 
energy

$$$$
28:0
     RDKit          3D

 44 45  0  0  0  0  0  0  0  0999 V2000
   -8.4890   18.6560  -31.9590 C   0  0  0  0  0  0  0  0  0  0  0  0
   -8.4790   20.1480  -32.0920 C   0  0  0  0  0  0  0  0  0  0  0  0
   -7.5870   20.6390  -33.0700 O   0  0  0  0  0  0  0  0  0  0  0  0
   -6.2250   20.6870  -32.8620 C   0  0  0  0  0  0  0  0  0  0  0  0
   -5.5970   21.5140  -31.9610 C   0  0  0  0  0  0  0  0  0  0  0  0
   -4.2200   21.5010  -31.8110 C   0  0  0  0  0  0  0  0  0  0  0  0
   -3.4130   22.5880  -30.6320 S   0  0  0  0  0  0  0  0  0  0  0  0
   -4.4830   24.0240  -30.4330 C   0  0  0  0  0  0  0  0  0  0  0  0
   -5.7040   24.0260  -29.8330 N   0  0  0  0  0  0  0  0  0  0  0  0
   -6.2050   25.2890  -29.8740 C   0  0  0  0  0  0  0  0  0  0  0  0
   -5.2850   26.0450  -30.5000 N   0  0  0  0  0  0  0  0  0  0  0  0
   -4.2350   25.2860  -30.8440 N   0  0  0  0  0  0  0  0  0  0  0  0
   -3.4220   20.6580  -32.5570 C   0  0  0  0  0  0  0  0  0  0  0  0
   -2.0440   20.6730  -32.3780 O   0  0  0  0  0  0  0  0  0  0  0  0
   -1.2410   20.8850  -33.5380 C   0  0  0  0  0  0  0  0  0  0  0  0
   -4.0500   19.8210  -33.4650 C   0  0  0  0  0  0  0  0  0  0  0  0
   -5.4290   19.8240  -33.6270 C   0  0  0  0  0  0  0  0  0  0  0  0
   -6.0990   18.9090  -34.6180 C   0  0  0  0  0  0  0  0  0  0  0  0
   -5.5150   17.5340  -34.4700 C   0  0  0  0  0  0  0  0  0  0  0  0
   -6.2830   16.6980  -33.5720 N   0  0  0  0  0  0  0  0  0  0  0  0
   -6.7540   15.4880  -34.2110 C   0  0  0  0  0  0  0  0  0  0  0  0
   -5.3730   16.2530  -32.5110 C   0  0  0  0  0  0  0  0  0  0  0  0
   -8.4908   18.3829  -30.8934 H   0  0  0  0  0  0  0  0  0  0  0  0
   -9.3899   18.2508  -32.4429 H   0  0  0  0  0  0  0  0  0  0  0  0
   -7.5936   18.2387  -32.4429 H   0  0  0  0  0  0  0  0  0  0  0  0
   -9.4948   20.4769  -32.3563 H   0  0  0  0  0  0  0  0  0  0  0  0
   -8.1375   20.5477  -31.1257 H   0  0  0  0  0  0  0  0  0  0  0  0
   -6.1998   22.1994  -31.3472 H   0  0  0  0  0  0  0  0  0  0  0  0
   -7.1725   25.6265  -29.4740 H   0  0  0  0  0  0  0  0  0  0  0  0
   -5.3440   27.0830  -30.7080 H   0  0  0  0  0  0  0  0  0  0  0  0
   -0.2193   21.1547  -33.2324 H   0  0  0  0  0  0  0  0  0  0  0  0
   -1.2130   19.9635  -34.1380 H   0  0  0  0  0  0  0  0  0  0  0  0
   -1.6715   21.7003  -34.1380 H   0  0  0  0  0  0  0  0  0  0  0  0
   -3.4405   19.1365  -34.0732 H   0  0  0  0  0  0  0  0  0  0  0  0
   -7.1804   18.8758  -34.4196 H   0  0  0  0  0  0  0  0  0  0  0  0
   -5.9360   19.2787  -35.6411 H   0  0  0  0  0  0  0  0  0  0  0  0
   -5.4862   17.0548  -35.4597 H   0  0  0  0  0  0  0  0  0  0  0  0
   -4.5070   17.6437  -34.0436 H   0  0  0  0  0  0  0  0  0  0  0  0
   -7.0394   14.7547  -33.4424 H   0  0  0  0  0  0  0  0  0  0  0  0
   -7.6273   15.7206  -34.8382 H   0  0  0  0  0  0  0  0  0  0  0  0
   -5.9533   15.0690  -34.8382 H   0  0  0  0  0  0  0  0  0  0  0  0
   -5.8194   16.4713  -31.5296 H   0  0  0  0  0  0  0  0  0  0  0  0
   -5.2032   15.1702  -32.6039 H   0  0  0  0  0  0  0  0  0  0  0  0
   -4.4141   16.7838  -32.6039 H   0  0  0  0  0  0  0  0  0  0  0  0
  1  2  1  0
  2  3  1  0
  3  4  1  0
  4  5  2  0
  5  6  1  0
  6  7  1  0
  7  8  1  0
  8  9  1  0
  9 10  2  0
 10 11  1  0
 11 12  1  0
  6 13  2  0
 13 14  1  0
 14 15  1  0
 13 16  1  0
 16 17  2  0
 17 18  1  0
 18 19  1  0
 19 20  1  0
 20 21  1  0
 20 22  1  0
 17  4  1  0
 12  8  2  0
  1 23  1  0
  1 24  1  0
  1 25  1  0
  2 26  1  0
  2 27  1  0
  5 28  1  0
 10 29  1  0
 11 30  1  0
 15 31  1  0
 15 32  1  0
 15 33  1  0
 16 34  1  0
 18 35  1  0
 18 36  1  0
 19 37  1  0
 19 38  1  0
 21 39  1  0
 21 40  1  0
 21 41  1  0
 22 42  1  0
 22 43  1  0
 22 44  1  0
M  END
>  <smiles>  (29) 
CCOc1cc(Sc2nc[nH]n2)c(OC)cc1CCN(C)C

>  <score_type>  (29) 
oracle

>  <origin>  (29) 
adg

>  <m_score__min__energy>  (29) 
-6.9900000000000002

>  <m_primary>  (29) 
energy

$$$$
29:0
     RDKit          3D

 40 42  0  0  0  0  0  0  0  0999 V2000
   -1.6760   24.0260  -28.9980 C   0  0  0  0  0  0  0  0  0  0  0  0
   -1.8000   22.5440  -29.3360 C   0  0  0  0  0  0  0  0  0  0  0  0
   -1.7730   22.3170  -30.8480 C   0  0  0  0  0  0  0  0  0  0  0  0
   -3.1000   21.9260  -31.3190 N   0  0  0  0  0  0  0  0  0  0  0  0
   -3.4170   20.7190  -31.7680 N   0  0  0  0  0  0  0  0  0  0  0  0
   -4.7430   20.6810  -32.0480 C   0  0  0  0  0  0  0  0  0  0  0  0
   -5.4130   19.5020  -32.6180 C   0  0  0  0  0  0  0  0  0  0  0  0
   -6.2250   18.6970  -31.8040 C   0  0  0  0  0  0  0  0  0  0  0  0
   -6.8440   17.5610  -32.3340 C   0  0  0  0  0  0  0  0  0  0  0  0
   -6.6410   17.2120  -33.6730 C   0  0  0  0  0  0  0  0  0  0  0  0
   -7.2400   16.1090  -34.1850 F   0  0  0  0  0  0  0  0  0  0  0  0
   -5.8120   17.9970  -34.4810 C   0  0  0  0  0  0  0  0  0  0  0  0
   -5.1930   19.1330  -33.9540 C   0  0  0  0  0  0  0  0  0  0  0  0
   -5.2920   21.9230  -31.7290 C   0  0  0  0  0  0  0  0  0  0  0  0
   -6.5900   22.4590  -31.6990 C   0  0  0  0  0  0  0  0  0  0  0  0
   -7.8090   21.6730  -32.0870 C   0  0  0  0  0  0  0  0  0  0  0  0
   -6.7170   23.7970  -31.2670 C   0  0  0  0  0  0  0  0  0  0  0  0
   -5.5780   24.5260  -30.8460 C   0  0  0  0  0  0  0  0  0  0  0  0
   -5.7250   25.9290  -30.3510 C   0  0  0  0  0  0  0  0  0  0  0  0
   -4.3460   23.9350  -30.8440 N   0  0  0  0  0  0  0  0  0  0  0  0
   -4.2240   22.6600  -31.2860 C   0  0  0  0  0  0  0  0  0  0  0  0
   -1.6654   24.1533  -27.9054 H   0  0  0  0  0  0  0  0  0  0  0  0
   -0.7416   24.4219  -29.4224 H   0  0  0  0  0  0  0  0  0  0  0  0
   -2.5316   24.5717  -29.4224 H   0  0  0  0  0  0  0  0  0  0  0  0
   -0.9616   21.9999  -28.8766 H   0  0  0  0  0  0  0  0  0  0  0  0
   -2.7609   22.1772  -28.9460 H   0  0  0  0  0  0  0  0  0  0  0  0
   -1.4675   23.2467  -31.3504 H   0  0  0  0  0  0  0  0  0  0  0  0
   -1.0570   21.5147  -31.0797 H   0  0  0  0  0  0  0  0  0  0  0  0
   -2.7380   19.9330  -31.8890 H   0  0  0  0  0  0  0  0  0  0  0  0
   -6.3747   18.9605  -30.7466 H   0  0  0  0  0  0  0  0  0  0  0  0
   -7.4916   16.9408  -31.6969 H   0  0  0  0  0  0  0  0  0  0  0  0
   -5.6473   17.7195  -35.5326 H   0  0  0  0  0  0  0  0  0  0  0  0
   -4.5308   19.7404  -34.5884 H   0  0  0  0  0  0  0  0  0  0  0  0
   -8.3319   21.3358  -31.1799 H   0  0  0  0  0  0  0  0  0  0  0  0
   -8.4808   22.3085  -32.6827 H   0  0  0  0  0  0  0  0  0  0  0  0
   -7.5074   20.7988  -32.6827 H   0  0  0  0  0  0  0  0  0  0  0  0
   -7.7070   24.2765  -31.2573 H   0  0  0  0  0  0  0  0  0  0  0  0
   -5.7253   25.9316  -29.2510 H   0  0  0  0  0  0  0  0  0  0  0  0
   -4.8857   26.5375  -30.7189 H   0  0  0  0  0  0  0  0  0  0  0  0
   -6.6722   26.3503  -30.7189 H   0  0  0  0  0  0  0  0  0  0  0  0
  1  2  1  0
  2  3  1  0
  3  4  1  0
  4  5  1  0
  5  6  2  0
  6  7  1  0
  7  8  2  0
  8  9  1  0
  9 10  2  0
 10 11  1  0
 10 12  1  0
 12 13  2  0
  6 14  1  0
 14 15  2  0
 15 16  1  0
 15 17  1  0
 17 18  2  0
 18 19  1  0
 18 20  1  0
 20 21  2  0
 21  4  1  0
 13  7  1  0
 21 14  1  0
  1 22  1  0
  1 23  1  0
  1 24  1  0
  2 25  1  0
  2 26  1  0
  3 27  1  0
  3 28  1  0
  5 29  1  0
  8 30  1  0
  9 31  1  0
 12 32  1  0
 13 33  1  0
 16 34  1  0
 16 35  1  0
 16 36  1  0
 17 37  1  0
 19 38  1  0
 19 39  1  0
 19 40  1  0
M  CHG  1   5   1
M  END
>  <UniqueID>  (30) 
29

>  <SMILES>  (30) 
CCCn1[nH+]c(-c2ccc(F)cc2)c2c(C)cc(C)nc21

>  <Energy>  (30) 
82.2381791658706

>  <Genealogy>  (30) 
CCCn1[nH+]c(-c2ccc(F)cc2)c2c(C)cc(C)nc21 (protonated)
CCCn1[nH+]c(-c2ccc(F)cc2)c2c(C)cc(C)nc21 (3D coordinates assigned)
CCCn1[nH+]c(-c2ccc(F)cc2)c2c(C)cc(C)nc21 (optimized conformer: 82.2381791658706 kcal/mol)

>  <smiles>  (30) 
CCCn1nc(-c2ccc(F)cc2)c2c(C)cc(C)nc21

>  <score_type>  (30) 
oracle

>  <origin>  (30) 
adg

>  <m_score__min__energy>  (30) 
-7.0899999999999999

>  <m_primary>  (30) 
energy

$$$$
30:0
     RDKit          3D

 51 53  0  0  0  0  0  0  0  0999 V2000
   -2.2140   19.6520  -27.0460 C   0  0  0  0  0  0  0  0  0  0  0  0
   -2.5210   20.2130  -28.2890 C   0  0  0  0  0  0  0  0  0  0  0  0
   -2.1710   21.5370  -28.5650 C   0  0  0  0  0  0  0  0  0  0  0  0
   -1.5070   22.3100  -27.5970 C   0  0  0  0  0  0  0  0  0  0  0  0
   -1.1470   23.7430  -27.8880 C   0  0  0  0  0  0  0  0  0  0  0  0
   -1.7170   24.2200  -29.2290 C   0  0  0  0  0  0  0  0  0  0  0  0
   -3.0830   24.7260  -29.0680 N   0  0  0  0  0  0  0  0  0  0  0  0
   -4.2030   24.4150  -29.9220 C   0  0  0  0  0  0  0  0  0  0  0  0
   -5.3520   25.2180  -29.8500 C   0  0  0  0  0  0  0  0  0  0  0  0
   -6.4610   24.9520  -30.6560 C   0  0  0  0  0  0  0  0  0  0  0  0
   -6.4390   23.8770  -31.5440 C   0  0  0  0  0  0  0  0  0  0  0  0
   -5.3030   23.0590  -31.6350 C   0  0  0  0  0  0  0  0  0  0  0  0
   -5.2890   21.8710  -32.5590 C   0  0  0  0  0  0  0  0  0  0  0  0
   -6.2630   20.8550  -32.1080 N   0  0  0  0  0  0  0  0  0  0  0  0
   -7.6720   21.3040  -32.2850 C   0  0  0  0  0  0  0  0  0  0  0  0
   -8.7510   20.3140  -31.7970 C   0  0  0  0  0  0  0  0  0  0  0  0
   -8.7720   18.9440  -32.5180 C   0  0  0  0  0  0  0  0  0  0  0  0
   -7.8370   17.8670  -31.9330 C   0  0  0  0  0  0  0  0  0  0  0  0
   -6.4020   18.3530  -31.6800 C   0  0  0  0  0  0  0  0  0  0  0  0
   -5.9240   19.4970  -32.5950 C   0  0  0  0  0  0  0  0  0  0  0  0
   -4.1910   23.3270  -30.8210 C   0  0  0  0  0  0  0  0  0  0  0  0
   -1.2180   21.7450  -26.3440 C   0  0  0  0  0  0  0  0  0  0  0  0
   -1.5710   20.4190  -26.0720 C   0  0  0  0  0  0  0  0  0  0  0  0
   -2.4791   18.6055  -26.8348 H   0  0  0  0  0  0  0  0  0  0  0  0
   -3.0387   19.6113  -29.0506 H   0  0  0  0  0  0  0  0  0  0  0  0
   -2.4159   21.9761  -29.5434 H   0  0  0  0  0  0  0  0  0  0  0  0
   -1.5482   24.3795  -27.0855 H   0  0  0  0  0  0  0  0  0  0  0  0
   -0.0505   23.8125  -27.9421 H   0  0  0  0  0  0  0  0  0  0  0  0
   -1.0797   25.0242  -29.6253 H   0  0  0  0  0  0  0  0  0  0  0  0
   -1.7383   23.3678  -29.9242 H   0  0  0  0  0  0  0  0  0  0  0  0
   -3.2530   25.3410  -28.2400 H   0  0  0  0  0  0  0  0  0  0  0  0
   -5.3792   26.0666  -29.1506 H   0  0  0  0  0  0  0  0  0  0  0  0
   -7.3535   25.5916  -30.5903 H   0  0  0  0  0  0  0  0  0  0  0  0
   -7.3156   23.6697  -32.1754 H   0  0  0  0  0  0  0  0  0  0  0  0
   -5.5523   22.1993  -33.5753 H   0  0  0  0  0  0  0  0  0  0  0  0
   -4.2826   21.4271  -32.5536 H   0  0  0  0  0  0  0  0  0  0  0  0
   -7.8000   22.2453  -31.7304 H   0  0  0  0  0  0  0  0  0  0  0  0
   -7.8229   21.4047  -33.3699 H   0  0  0  0  0  0  0  0  0  0  0  0
   -8.5833   20.1307  -30.7254 H   0  0  0  0  0  0  0  0  0  0  0  0
   -9.7187   20.7876  -32.0191 H   0  0  0  0  0  0  0  0  0  0  0  0
   -9.8007   18.5566  -32.4779 H   0  0  0  0  0  0  0  0  0  0  0  0
   -8.4075   19.1360  -33.5379 H   0  0  0  0  0  0  0  0  0  0  0  0
   -8.2596   17.5250  -30.9767 H   0  0  0  0  0  0  0  0  0  0  0  0
   -7.7725   17.0627  -32.6806 H   0  0  0  0  0  0  0  0  0  0  0  0
   -6.3399   18.7020  -30.6387 H   0  0  0  0  0  0  0  0  0  0  0  0
   -5.7475   17.4959  -31.8970 H   0  0  0  0  0  0  0  0  0  0  0  0
   -4.8301   19.4284  -32.6881 H   0  0  0  0  0  0  0  0  0  0  0  0
   -6.4459   19.3692  -33.5548 H   0  0  0  0  0  0  0  0  0  0  0  0
   -3.3017   22.6827  -30.8845 H   0  0  0  0  0  0  0  0  0  0  0  0
   -0.7126   22.3469  -25.5744 H   0  0  0  0  0  0  0  0  0  0  0  0
   -1.3419   19.9799  -25.0898 H   0  0  0  0  0  0  0  0  0  0  0  0
  1  2  2  0
  2  3  1  0
  3  4  2  0
  4  5  1  0
  5  6  1  0
  6  7  1  0
  7  8  1  0
  8  9  2  0
  9 10  1  0
 10 11  2  0
 11 12  1  0
 12 13  1  0
 13 14  1  0
 14 15  1  0
 15 16  1  0
 16 17  1  0
 17 18  1  0
 18 19  1  0
 19 20  1  0
 12 21  2  0
  4 22  1  0
 22 23  2  0
 23  1  1  0
 21  8  1  0
 20 14  1  0
  1 24  1  0
  2 25  1  0
  3 26  1  0
  5 27  1  0
  5 28  1  0
  6 29  1  0
  6 30  1  0
  7 31  1  0
  9 32  1  0
 10 33  1  0
 11 34  1  0
 13 35  1  0
 13 36  1  0
 15 37  1  0
 15 38  1  0
 16 39  1  0
 16 40  1  0
 17 41  1  0
 17 42  1  0
 18 43  1  0
 18 44  1  0
 19 45  1  0
 19 46  1  0
 20 47  1  0
 20 48  1  0
 21 49  1  0
 22 50  1  0
 23 51  1  0
M  END
>  <UniqueID>  (31) 
30

>  <SMILES>  (31) 
c1ccc(CCNc2cccc(CN3CCCCCC3)c2)cc1

>  <Energy>  (31) 
59.5286739661648

>  <Genealogy>  (31) 
c1ccc(CCNc2cccc(CN3CCCCCC3)c2)cc1 (3D coordinates assigned)
c1ccc(CCNc2cccc(CN3CCCCCC3)c2)cc1 (nonaromatic ring conformer: 59.5286739661648 kcal/mol)

>  <smiles>  (31) 
c1ccc(CCNc2cccc(CN3CCCCCC3)c2)cc1

>  <score_type>  (31) 
oracle

>  <origin>  (31) 
adg

>  <m_score__min__energy>  (31) 
-6.6299999999999999

>  <m_primary>  (31) 
energy

$$$$
31:0
     RDKit          3D

 43 45  0  0  0  0  0  0  0  0999 V2000
   -6.3610   24.9600  -29.6960 C   0  0  0  0  0  0  0  0  0  0  0  0
   -5.7910   24.9270  -31.1090 C   0  0  0  0  0  0  0  0  0  0  0  0
   -4.5420   24.2620  -31.1170 O   0  0  0  0  0  0  0  0  0  0  0  0
   -4.3030   23.6380  -29.8710 C   0  0  0  0  0  0  0  0  0  0  0  0
   -3.5070   22.3380  -30.0950 C   0  0  2  0  0  0  0  0  0  0  0  0
   -2.1030   22.6320  -30.6930 C   0  0  0  0  0  0  0  0  0  0  0  0
   -1.6660   21.5910  -31.6210 N   0  0  0  0  0  0  0  0  0  0  0  0
   -0.5690   20.8170  -31.5260 C   0  0  0  0  0  0  0  0  0  0  0  0
   -0.4980   19.9810  -32.6230 C   0  0  0  0  0  0  0  0  0  0  0  0
   -1.5970   20.2640  -33.4160 C   0  0  0  0  0  0  0  0  0  0  0  0
   -2.2920   21.2630  -32.7630 C   0  0  0  0  0  0  0  0  0  0  0  0
   -3.5900   21.8920  -33.1890 C   0  0  0  0  0  0  0  0  0  0  0  0
   -4.7230   21.6240  -32.2530 N   0  0  1  0  0  0  0  0  0  0  0  0
   -5.6840   20.6370  -32.8150 C   0  0  0  0  0  0  0  0  0  0  0  0
   -7.1220   20.8880  -32.4210 C   0  0  0  0  0  0  0  0  0  0  0  0
   -8.1650   19.9840  -32.6840 C   0  0  0  0  0  0  0  0  0  0  0  0
   -9.4010   20.4110  -32.2240 C   0  0  0  0  0  0  0  0  0  0  0  0
   -9.1920   21.9000  -31.4750 S   0  0  0  0  0  0  0  0  0  0  0  0
   -7.5360   22.0210  -31.7270 C   0  0  0  0  0  0  0  0  0  0  0  0
   -4.3460   21.2660  -30.8530 C   0  0  0  0  0  0  0  0  0  0  0  0
   -5.5382   24.9124  -28.9675 H   0  0  0  0  0  0  0  0  0  0  0  0
   -6.9262   25.8924  -29.5503 H   0  0  0  0  0  0  0  0  0  0  0  0
   -7.0300   24.0991  -29.5503 H   0  0  0  0  0  0  0  0  0  0  0  0
   -6.4903   24.3946  -31.7705 H   0  0  0  0  0  0  0  0  0  0  0  0
   -5.6504   25.9588  -31.4633 H   0  0  0  0  0  0  0  0  0  0  0  0
   -3.7249   24.3159  -29.2258 H   0  0  0  0  0  0  0  0  0  0  0  0
   -5.2626   23.4030  -29.3873 H   0  0  0  0  0  0  0  0  0  0  0  0
   -3.3030   21.8741  -29.1187 H   0  0  0  0  0  0  0  0  0  0  0  0
   -2.1411   23.5913  -31.2300 H   0  0  0  0  0  0  0  0  0  0  0  0
   -1.3835   22.6651  -29.8616 H   0  0  0  0  0  0  0  0  0  0  0  0
    0.1588   20.8458  -30.7017 H   0  0  0  0  0  0  0  0  0  0  0  0
    0.2825   19.2333  -32.8276 H   0  0  0  0  0  0  0  0  0  0  0  0
   -1.8627   19.7895  -34.3721 H   0  0  0  0  0  0  0  0  0  0  0  0
   -3.4436   22.9802  -33.2544 H   0  0  0  0  0  0  0  0  0  0  0  0
   -3.8607   21.4460  -34.1574 H   0  0  0  0  0  0  0  0  0  0  0  0
   -5.2740   22.5120  -32.1930 H   0  0  0  0  0  0  0  0  0  0  0  0
   -5.6145   20.6723  -33.9122 H   0  0  0  0  0  0  0  0  0  0  0  0
   -5.4080   19.6542  -32.4052 H   0  0  0  0  0  0  0  0  0  0  0  0
   -8.0149   19.0274  -33.2059 H   0  0  0  0  0  0  0  0  0  0  0  0
  -10.3525   19.8694  -32.3308 H   0  0  0  0  0  0  0  0  0  0  0  0
   -6.8915   22.8505  -31.4007 H   0  0  0  0  0  0  0  0  0  0  0  0
   -5.2722   21.0950  -30.2847 H   0  0  0  0  0  0  0  0  0  0  0  0
   -3.7049   20.3754  -30.9287 H   0  0  0  0  0  0  0  0  0  0  0  0
  1  2  1  0
  2  3  1  0
  3  4  1  0
  4  5  1  0
  5  6  1  0
  6  7  1  0
  7  8  1  0
  8  9  2  0
  9 10  1  0
 10 11  2  0
 11 12  1  0
 12 13  1  0
 13 14  1  0
 14 15  1  0
 15 16  1  0
 16 17  2  0
 17 18  1  0
 18 19  1  0
 13 20  1  0
 20  5  1  0
 11  7  1  0
 19 15  2  0
  1 21  1  0
  1 22  1  0
  1 23  1  0
  2 24  1  0
  2 25  1  0
  4 26  1  0
  4 27  1  0
  5 28  1  1
  6 29  1  0
  6 30  1  0
  8 31  1  0
  9 32  1  0
 10 33  1  0
 12 34  1  0
 12 35  1  0
 13 36  1  1
 14 37  1  0
 14 38  1  0
 16 39  1  0
 17 40  1  0
 19 41  1  0
 20 42  1  0
 20 43  1  0
M  CHG  1  13   1
M  END
>  <UniqueID>  (32) 
31

>  <SMILES>  (32) 
CCOC[C@@H]1Cn2cccc2C[N@@H+](Cc2ccsc2)C1

>  <Energy>  (32) 
109.10883627874367

>  <Genealogy>  (32) 
CCOCC1Cn2cccc2C[NH+](Cc2ccsc2)C1 (protonated)
CCOC[C@@H]1Cn2cccc2C[N@@H+](Cc2ccsc2)C1 (chirality)
CCOC[C@@H]1Cn2cccc2C[N@@H+](Cc2ccsc2)C1 (3D coordinates assigned)
CCOC[C@@H]1Cn2cccc2C[N@@H+](Cc2ccsc2)C1 (nonaromatic ring conformer: 109.10883627874367 kcal/mol)

>  <smiles>  (32) 
CCOCC1CN(Cc2ccsc2)Cc2cccn2C1

>  <score_type>  (32) 
oracle

>  <origin>  (32) 
adg

>  <m_score__min__energy>  (32) 
-4.9100000000000001

>  <m_primary>  (32) 
energy

$$$$
32:0
     RDKit          3D

 44 46  0  0  0  0  0  0  0  0999 V2000
   -5.6860   16.6860  -31.9260 C   0  0  0  0  0  0  0  0  0  0  0  0
   -6.6970   17.6490  -31.3130 C   0  0  0  0  0  0  0  0  0  0  0  0
   -7.8460   17.7500  -32.1330 O   0  0  0  0  0  0  0  0  0  0  0  0
   -8.8140   18.5780  -31.5220 C   0  0  0  0  0  0  0  0  0  0  0  0
   -9.4320   19.4890  -32.5750 C   0  0  0  0  0  0  0  0  0  0  0  0
   -9.0370   21.2470  -32.2580 S   0  0  0  0  0  0  0  0  0  0  0  0
   -7.2520   21.0470  -32.3380 C   0  0  0  0  0  0  0  0  0  0  0  0
   -6.7350   20.1050  -33.1730 N   0  0  0  0  0  0  0  0  0  0  0  0
   -5.3950   19.9190  -33.2900 C   0  0  0  0  0  0  0  0  0  0  0  0
   -4.8800   18.9340  -34.1400 C   0  0  0  0  0  0  0  0  0  0  0  0
   -3.4960   18.7590  -34.2450 C   0  0  0  0  0  0  0  0  0  0  0  0
   -2.6260   19.5690  -33.5050 C   0  0  0  0  0  0  0  0  0  0  0  0
   -3.1360   20.5580  -32.6570 C   0  0  0  0  0  0  0  0  0  0  0  0
   -4.5190   20.7330  -32.5470 C   0  0  0  0  0  0  0  0  0  0  0  0
   -5.0330   21.6910  -31.7340 N   0  0  0  0  0  0  0  0  0  0  0  0
   -6.3750   21.8680  -31.6010 C   0  0  0  0  0  0  0  0  0  0  0  0
   -6.9630   23.2150  -30.5640 S   0  0  0  0  0  0  0  0  0  0  0  0
   -6.0930   24.5410  -31.4670 C   0  0  0  0  0  0  0  0  0  0  0  0
   -5.2800   25.3560  -30.5060 C   0  0  0  0  0  0  0  0  0  0  0  0
   -5.8670   26.1280  -29.7030 O   0  0  0  0  0  0  0  0  0  0  0  0
   -3.8500   25.2970  -30.4920 N   0  0  0  0  0  0  0  0  0  0  0  0
   -3.0800   24.5480  -29.5060 C   0  0  0  0  0  0  0  0  0  0  0  0
   -3.1180   23.0450  -29.7070 C   0  0  0  0  0  0  0  0  0  0  0  0
   -3.9520   23.6900  -28.6100 C   0  0  0  0  0  0  0  0  0  0  0  0
   -5.1410   16.1669  -31.1238 H   0  0  0  0  0  0  0  0  0  0  0  0
   -6.2133   15.9479  -32.5482 H   0  0  0  0  0  0  0  0  0  0  0  0
   -4.9744   17.2485  -32.5482 H   0  0  0  0  0  0  0  0  0  0  0  0
   -6.9924   17.2797  -30.3198 H   0  0  0  0  0  0  0  0  0  0  0  0
   -6.2338   18.6429  -31.2258 H   0  0  0  0  0  0  0  0  0  0  0  0
   -9.5987   17.9540  -31.0693 H   0  0  0  0  0  0  0  0  0  0  0  0
   -8.3377   19.1877  -30.7401 H   0  0  0  0  0  0  0  0  0  0  0  0
   -9.0415   19.2079  -33.5642 H   0  0  0  0  0  0  0  0  0  0  0  0
  -10.5247   19.3689  -32.5361 H   0  0  0  0  0  0  0  0  0  0  0  0
   -5.5619   18.2987  -34.7243 H   0  0  0  0  0  0  0  0  0  0  0  0
   -3.0902   17.9830  -34.9107 H   0  0  0  0  0  0  0  0  0  0  0  0
   -1.5385   19.4273  -33.5906 H   0  0  0  0  0  0  0  0  0  0  0  0
   -2.4513   21.1958  -32.0787 H   0  0  0  0  0  0  0  0  0  0  0  0
   -5.4286   24.0947  -32.2216 H   0  0  0  0  0  0  0  0  0  0  0  0
   -6.8305   25.1896  -31.9624 H   0  0  0  0  0  0  0  0  0  0  0  0
   -2.2803   25.2873  -29.3516 H   0  0  0  0  0  0  0  0  0  0  0  0
   -3.6098   22.6207  -30.5948 H   0  0  0  0  0  0  0  0  0  0  0  0
   -2.3638   22.2450  -29.7431 H   0  0  0  0  0  0  0  0  0  0  0  0
   -5.0471   23.7322  -28.7042 H   0  0  0  0  0  0  0  0  0  0  0  0
   -4.0512   23.5499  -27.5235 H   0  0  0  0  0  0  0  0  0  0  0  0
  1  2  1  0
  2  3  1  0
  3  4  1  0
  4  5  1  0
  5  6  1  0
  6  7  1  0
  7  8  2  0
  8  9  1  0
  9 10  2  0
 10 11  1  0
 11 12  2  0
 12 13  1  0
 13 14  2  0
 14 15  1  0
 15 16  2  0
 16 17  1  0
 17 18  1  0
 18 19  1  0
 19 20  2  0
 19 21  1  0
 21 22  1  0
 22 23  1  0
 23 24  1  0
 16  7  1  0
 24 22  1  0
 14  9  1  0
  1 25  1  0
  1 26  1  0
  1 27  1  0
  2 28  1  0
  2 29  1  0
  4 30  1  0
  4 31  1  0
  5 32  1  0
  5 33  1  0
 10 34  1  0
 11 35  1  0
 12 36  1  0
 13 37  1  0
 18 38  1  0
 18 39  1  0
 22 40  1  0
 23 41  1  0
 23 42  1  0
 24 43  1  0
 24 44  1  0
M  CHG  1  21  -1
M  END
>  <UniqueID>  (33) 
32

>  <SMILES>  (33) 
CCOCCSc1nc2ccccc2nc1SCC(=O)[N-]C1CC1

>  <Energy>  (33) 
300.99769755320983

>  <Genealogy>  (33) 
CCOCCSc1nc2ccccc2nc1SCC(=O)[N-]C1CC1 (protonated)
CCOCCSc1nc2ccccc2nc1SCC(=O)[N-]C1CC1 (3D coordinates assigned)
CCOCCSc1nc2ccccc2nc1SCC(=O)[N-]C1CC1 (nonaromatic ring conformer: 300.99769755320983 kcal/mol)

>  <smiles>  (33) 
CCOCCSc1nc2ccccc2nc1SCC(=O)NC1CC1

>  <score_type>  (33) 
oracle

>  <origin>  (33) 
adg

>  <m_score__min__energy>  (33) 
-9.7699999999999996

>  <m_primary>  (33) 
energy

$$$$
33:0
     RDKit          3D

 80 81  0  0  0  0  0  0  0  0999 V2000
   -3.5520   18.5530  -25.9580 C   0  0  0  0  0  0  0  0  0  0  0  0
   -2.2940   19.1720  -26.5660 C   0  0  0  0  0  0  0  0  0  0  0  0
   -2.6010   20.3610  -27.4960 C   0  0  0  0  0  0  0  0  0  0  0  0
   -1.4410   20.7710  -28.4230 C   0  0  0  0  0  0  0  0  0  0  0  0
   -1.7790   20.7790  -29.9260 C   0  0  0  0  0  0  0  0  0  0  0  0
   -0.9800   21.8230  -30.7370 C   0  0  0  0  0  0  0  0  0  0  0  0
   -0.0990   21.1790  -31.8110 C   0  0  0  0  0  0  0  0  0  0  0  0
   -0.8120   21.1710  -33.0870 N   0  0  0  0  0  0  0  0  0  0  0  0
   -2.0000   20.6790  -33.2990 C   0  0  0  0  0  0  0  0  0  0  0  0
   -2.1150   19.3390  -33.6770 C   0  0  0  0  0  0  0  0  0  0  0  0
   -3.3770   18.7890  -33.9200 C   0  0  0  0  0  0  0  0  0  0  0  0
   -4.5060   19.5510  -33.7910 N   0  0  0  0  0  0  0  0  0  0  0  0
   -5.8190   18.9540  -34.0740 C   0  0  0  0  0  0  0  0  0  0  0  0
   -6.9420   19.6630  -33.2990 C   0  0  0  0  0  0  0  0  0  0  0  0
   -7.9020   18.7100  -32.5600 C   0  0  0  0  0  0  0  0  0  0  0  0
   -8.8010   19.3810  -31.5060 C   0  0  0  0  0  0  0  0  0  0  0  0
   -9.1930   20.8190  -31.8810 C   0  0  0  0  0  0  0  0  0  0  0  0
   -8.4690   21.8740  -31.0260 C   0  0  0  0  0  0  0  0  0  0  0  0
   -7.8320   23.0180  -31.8370 C   0  0  0  0  0  0  0  0  0  0  0  0
   -6.5760   23.4780  -31.2290 N   0  0  0  0  0  0  0  0  0  0  0  0
   -5.5400   22.6040  -31.0550 C   0  0  0  0  0  0  0  0  0  0  0  0
   -4.3290   23.0330  -30.5070 C   0  0  0  0  0  0  0  0  0  0  0  0
   -4.1730   24.3800  -30.1310 C   0  0  0  0  0  0  0  0  0  0  0  0
   -3.0670   24.8500  -29.6220 N   0  0  0  0  0  0  0  0  0  0  0  0
   -2.2850   24.2860  -28.5190 C   0  0  0  0  0  0  0  0  0  0  0  0
   -1.3170   25.3270  -27.9130 C   0  0  0  0  0  0  0  0  0  0  0  0
    0.1220   24.9980  -28.0480 N   0  0  0  0  0  0  0  0  0  0  0  0
    0.3900   23.5520  -28.0460 C   0  0  0  0  0  0  0  0  0  0  0  0
    0.9770   25.7040  -27.0830 C   0  0  0  0  0  0  0  0  0  0  0  0
   -5.2500   25.2550  -30.3080 C   0  0  0  0  0  0  0  0  0  0  0  0
   -6.4440   24.7880  -30.8620 C   0  0  0  0  0  0  0  0  0  0  0  0
   -4.4150   20.8610  -33.4140 C   0  0  0  0  0  0  0  0  0  0  0  0
   -3.1720   21.4470  -33.1650 C   0  0  0  0  0  0  0  0  0  0  0  0
   -3.4836   18.5866  -24.8606 H   0  0  0  0  0  0  0  0  0  0  0  0
   -4.4355   19.1193  -26.2879 H   0  0  0  0  0  0  0  0  0  0  0  0
   -3.6424   17.5075  -26.2879 H   0  0  0  0  0  0  0  0  0  0  0  0
   -1.6457   19.5231  -25.7496 H   0  0  0  0  0  0  0  0  0  0  0  0
   -1.8041   18.3961  -27.1726 H   0  0  0  0  0  0  0  0  0  0  0  0
   -3.4624   20.0906  -28.1245 H   0  0  0  0  0  0  0  0  0  0  0  0
   -2.7954   21.2240  -26.8422 H   0  0  0  0  0  0  0  0  0  0  0  0
   -1.1203   21.7845  -28.1402 H   0  0  0  0  0  0  0  0  0  0  0  0
   -0.6573   20.0109  -28.2886 H   0  0  0  0  0  0  0  0  0  0  0  0
   -1.5627   19.7814  -30.3358 H   0  0  0  0  0  0  0  0  0  0  0  0
   -2.8419   21.0481  -30.0149 H   0  0  0  0  0  0  0  0  0  0  0  0
   -1.6884   22.5082  -31.2255 H   0  0  0  0  0  0  0  0  0  0  0  0
   -0.3197   22.3567  -30.0376 H   0  0  0  0  0  0  0  0  0  0  0  0
    0.8322   21.7552  -31.9151 H   0  0  0  0  0  0  0  0  0  0  0  0
    0.1394   20.1458  -31.5181 H   0  0  0  0  0  0  0  0  0  0  0  0
   -1.2137   18.7175  -33.7833 H   0  0  0  0  0  0  0  0  0  0  0  0
   -3.4632   17.7336  -34.2177 H   0  0  0  0  0  0  0  0  0  0  0  0
   -6.0230   19.0348  -35.1519 H   0  0  0  0  0  0  0  0  0  0  0  0
   -5.7938   17.9010  -33.7568 H   0  0  0  0  0  0  0  0  0  0  0  0
   -6.4800   20.3305  -32.5567 H   0  0  0  0  0  0  0  0  0  0  0  0
   -7.5455   20.2036  -34.0430 H   0  0  0  0  0  0  0  0  0  0  0  0
   -8.5515   18.2322  -33.3082 H   0  0  0  0  0  0  0  0  0  0  0  0
   -7.2672   17.9969  -32.0136 H   0  0  0  0  0  0  0  0  0  0  0  0
   -9.7187   18.7844  -31.3966 H   0  0  0  0  0  0  0  0  0  0  0  0
   -8.2292   19.4292  -30.5675 H   0  0  0  0  0  0  0  0  0  0  0  0
   -8.9398   20.9885  -32.9380 H   0  0  0  0  0  0  0  0  0  0  0  0
  -10.2724   20.9274  -31.6988 H   0  0  0  0  0  0  0  0  0  0  0  0
   -9.1980   22.3110  -30.3277 H   0  0  0  0  0  0  0  0  0  0  0  0
   -7.6458   21.3541  -30.5142 H   0  0  0  0  0  0  0  0  0  0  0  0
   -7.6251   22.6606  -32.8566 H   0  0  0  0  0  0  0  0  0  0  0  0
   -8.5365   23.8627  -31.8521 H   0  0  0  0  0  0  0  0  0  0  0  0
   -5.6611   21.5512  -31.3497 H   0  0  0  0  0  0  0  0  0  0  0  0
   -3.5014   22.3215  -30.3700 H   0  0  0  0  0  0  0  0  0  0  0  0
   -2.9738   23.9405  -27.7340 H   0  0  0  0  0  0  0  0  0  0  0  0
   -1.6871   23.4516  -28.9144 H   0  0  0  0  0  0  0  0  0  0  0  0
   -1.4951   26.2903  -28.4133 H   0  0  0  0  0  0  0  0  0  0  0  0
   -1.5270   25.3499  -26.8335 H   0  0  0  0  0  0  0  0  0  0  0  0
    0.4566   23.1929  -27.0084 H   0  0  0  0  0  0  0  0  0  0  0  0
   -0.4262   23.0271  -28.5640 H   0  0  0  0  0  0  0  0  0  0  0  0
    1.3401   23.3545  -28.5640 H   0  0  0  0  0  0  0  0  0  0  0  0
    0.6653   25.4466  -26.0600 H   0  0  0  0  0  0  0  0  0  0  0  0
    2.0246   25.4043  -27.2334 H   0  0  0  0  0  0  0  0  0  0  0  0
    0.8809   26.7894  -27.2334 H   0  0  0  0  0  0  0  0  0  0  0  0
   -5.1566   26.3100  -30.0111 H   0  0  0  0  0  0  0  0  0  0  0  0
   -7.2862   25.4811  -31.0043 H   0  0  0  0  0  0  0  0  0  0  0  0
   -5.3307   21.4607  -33.3054 H   0  0  0  0  0  0  0  0  0  0  0  0
   -3.1092   22.5036  -32.8656 H   0  0  0  0  0  0  0  0  0  0  0  0
  1  2  1  0
  2  3  1  0
  3  4  1  0
  4  5  1  0
  5  6  1  0
  6  7  1  0
  7  8  1  0
  8  9  2  3
  9 10  1  0
 10 11  2  0
 11 12  1  0
 12 13  1  0
 13 14  1  0
 14 15  1  0
 15 16  1  0
 16 17  1  0
 17 18  1  0
 18 19  1  0
 19 20  1  0
 20 21  1  0
 21 22  2  0
 22 23  1  0
 23 24  2  3
 24 25  1  0
 25 26  1  0
 26 27  1  0
 27 28  1  0
 27 29  1  0
 23 30  1  0
 30 31  2  0
 12 32  1  0
 32 33  2  0
 33  9  1  0
 31 20  1  0
  1 34  1  0
  1 35  1  0
  1 36  1  0
  2 37  1  0
  2 38  1  0
  3 39  1  0
  3 40  1  0
  4 41  1  0
  4 42  1  0
  5 43  1  0
  5 44  1  0
  6 45  1  0
  6 46  1  0
  7 47  1  0
  7 48  1  0
 10 49  1  0
 11 50  1  0
 13 51  1  0
 13 52  1  0
 14 53  1  0
 14 54  1  0
 15 55  1  0
 15 56  1  0
 16 57  1  0
 16 58  1  0
 17 59  1  0
 17 60  1  0
 18 61  1  0
 18 62  1  0
 19 63  1  0
 19 64  1  0
 21 65  1  0
 22 66  1  0
 25 67  1  0
 25 68  1  0
 26 69  1  0
 26 70  1  0
 28 71  1  0
 28 72  1  0
 28 73  1  0
 29 74  1  0
 29 75  1  0
 29 76  1  0
 30 77  1  0
 31 78  1  0
 32 79  1  0
 33 80  1  0
M  END
>  <UniqueID>  (34) 
33

>  <SMILES>  (34) 
CCCCCCCN=c1ccn(CCCCCCCn2ccc(=NCCN(C)C)cc2)cc1

>  <Energy>  (34) 
68.43913166710249

>  <Genealogy>  (34) 
CCCCCCCN=c1ccn(CCCCCCCn2ccc(=NCCN(C)C)cc2)cc1 (3D coordinates assigned)
CCCCCCCN=c1ccn(CCCCCCCn2ccc(=NCCN(C)C)cc2)cc1 (optimized conformer: 68.43913166710249 kcal/mol)

>  <smiles>  (34) 
CCCCCCCN=c1ccn(CCCCCCCn2ccc(=NCCN(C)C)cc2)cc1

>  <score_type>  (34) 
oracle

>  <origin>  (34) 
adg

>  <m_score__min__energy>  (34) 
-8.6799999999999997

>  <m_primary>  (34) 
energy

$$$$
34:0
     RDKit          3D

 40 42  0  0  0  0  0  0  0  0999 V2000
   -7.9800   18.0510  -32.3160 C   0  0  0  0  0  0  0  0  0  0  0  0
   -9.1100   18.9520  -31.8300 C   0  0  0  0  0  0  0  0  0  0  0  0
   -9.3280   20.0070  -32.7490 O   0  0  0  0  0  0  0  0  0  0  0  0
   -8.8730   21.2410  -32.2280 C   0  0  0  0  0  0  0  0  0  0  0  0
   -7.3870   21.3500  -32.3760 C   0  0  0  0  0  0  0  0  0  0  0  0
   -6.6610   20.6430  -33.2680 N   0  0  0  0  0  0  0  0  0  0  0  0
   -5.3930   21.0480  -33.0820 C   0  0  0  0  0  0  0  0  0  0  0  0
   -5.4070   21.9900  -32.0790 C   0  0  0  0  0  0  0  0  0  0  0  0
   -4.2660   22.6870  -31.5670 N   0  0  0  0  0  0  0  0  0  0  0  0
   -3.5600   22.2220  -30.4090 C   0  0  0  0  0  0  0  0  0  0  0  0
   -3.5770   20.8510  -30.1260 C   0  0  0  0  0  0  0  0  0  0  0  0
   -2.8440   20.3320  -29.0590 C   0  0  0  0  0  0  0  0  0  0  0  0
   -2.0750   21.1820  -28.2390 C   0  0  0  0  0  0  0  0  0  0  0  0
   -1.2430   20.6940  -27.0650 C   0  0  0  0  0  0  0  0  0  0  0  0
   -0.7990   19.2380  -27.0810 C   0  0  0  0  0  0  0  0  0  0  0  0
   -1.8900   19.6920  -26.1190 C   0  0  0  0  0  0  0  0  0  0  0  0
   -2.0820   22.5600  -28.5050 C   0  0  0  0  0  0  0  0  0  0  0  0
   -2.8310   23.0990  -29.5670 C   0  0  0  0  0  0  0  0  0  0  0  0
   -2.8730   24.5730  -29.7300 C   0  0  0  0  0  0  0  0  0  0  0  0
   -1.9910   25.3060  -29.2090 O   0  0  0  0  0  0  0  0  0  0  0  0
   -3.8690   25.1640  -30.4970 O   0  0  0  0  0  0  0  0  0  0  0  0
   -6.6400   22.1620  -31.6630 O   0  0  0  0  0  0  0  0  0  0  0  0
   -7.4498   17.6283  -31.4499 H   0  0  0  0  0  0  0  0  0  0  0  0
   -8.3974   17.2351  -32.9244 H   0  0  0  0  0  0  0  0  0  0  0  0
   -7.2776   18.6396  -32.9244 H   0  0  0  0  0  0  0  0  0  0  0  0
  -10.0312   18.3586  -31.7337 H   0  0  0  0  0  0  0  0  0  0  0  0
   -8.8327   19.3789  -30.8549 H   0  0  0  0  0  0  0  0  0  0  0  0
   -9.3538   22.0654  -32.7749 H   0  0  0  0  0  0  0  0  0  0  0  0
   -9.1318   21.2964  -31.1603 H   0  0  0  0  0  0  0  0  0  0  0  0
   -7.0060   19.9370  -33.9560 H   0  0  0  0  0  0  0  0  0  0  0  0
   -4.5080   20.6923  -33.6300 H   0  0  0  0  0  0  0  0  0  0  0  0
   -4.0950   23.6640  -31.8970 H   0  0  0  0  0  0  0  0  0  0  0  0
   -4.1761   20.1745  -30.7532 H   0  0  0  0  0  0  0  0  0  0  0  0
   -2.8662   19.2511  -28.8559 H   0  0  0  0  0  0  0  0  0  0  0  0
   -0.7337   21.6615  -26.9440 H   0  0  0  0  0  0  0  0  0  0  0  0
   -1.0528   18.5949  -27.9366 H   0  0  0  0  0  0  0  0  0  0  0  0
    0.1641   18.7171  -26.9753 H   0  0  0  0  0  0  0  0  0  0  0  0
   -2.9315   19.3767  -26.2800 H   0  0  0  0  0  0  0  0  0  0  0  0
   -2.0410   19.6347  -25.0309 H   0  0  0  0  0  0  0  0  0  0  0  0
   -1.4887   23.2335  -27.8691 H   0  0  0  0  0  0  0  0  0  0  0  0
  1  2  1  0
  2  3  1  0
  3  4  1  0
  4  5  1  0
  5  6  2  0
  6  7  1  0
  7  8  2  0
  8  9  1  0
  9 10  1  0
 10 11  2  0
 11 12  1  0
 12 13  2  0
 13 14  1  0
 14 15  1  0
 15 16  1  0
 13 17  1  0
 17 18  2  0
 18 19  1  0
 19 20  2  0
 19 21  1  0
  8 22  1  0
 22  5  1  0
 18 10  1  0
 16 14  1  0
  1 23  1  0
  1 24  1  0
  1 25  1  0
  2 26  1  0
  2 27  1  0
  4 28  1  0
  4 29  1  0
  6 30  1  0
  7 31  1  0
  9 32  1  0
 11 33  1  0
 12 34  1  0
 14 35  1  0
 15 36  1  0
 15 37  1  0
 16 38  1  0
 16 39  1  0
 17 40  1  0
M  CHG  2   6   1  21  -1
M  END
>  <UniqueID>  (35) 
34

>  <SMILES>  (35) 
CCOCc1[nH+]cc(Nc2ccc(C3CC3)cc2C(=O)[O-])o1

>  <Energy>  (35) 
347.51461556296186

>  <Genealogy>  (35) 
CCOCc1[nH+]cc(Nc2ccc(C3CC3)cc2C(=O)[O-])o1 (protonated)
CCOCc1[nH+]cc(Nc2ccc(C3CC3)cc2C(=O)[O-])o1 (3D coordinates assigned)
CCOCc1[nH+]cc(Nc2ccc(C3CC3)cc2C(=O)[O-])o1 (nonaromatic ring conformer: 347.51461556296186 kcal/mol)

>  <smiles>  (35) 
CCOCc1ncc(Nc2ccc(C3CC3)cc2C(=O)O)o1

>  <score_type>  (35) 
oracle

>  <origin>  (35) 
adg

>  <m_score__min__energy>  (35) 
-8.8499999999999996

>  <m_primary>  (35) 
energy

$$$$
35:0
     RDKit          3D

 51 53  0  0  0  0  0  0  0  0999 V2000
   -0.6310   21.7420  -26.5020 C   0  0  0  0  0  0  0  0  0  0  0  0
   -0.6330   22.7030  -27.6900 C   0  0  0  0  0  0  0  0  0  0  0  0
   -1.9730   23.2580  -27.9030 N   0  0  0  0  0  0  0  0  0  0  0  0
   -3.0230   22.6650  -28.5200 C   0  0  0  0  0  0  0  0  0  0  0  0
   -3.0050   21.0230  -29.2450 S   0  0  0  0  0  0  0  0  0  0  0  0
   -1.8620   21.4410  -30.6110 C   0  0  0  0  0  0  0  0  0  0  0  0
   -2.6080   21.7760  -31.9070 C   0  0  0  0  0  0  0  0  0  0  0  0
   -3.5440   22.8390  -31.7220 O   0  0  0  0  0  0  0  0  0  0  0  0
   -4.9450   22.7250  -31.8010 C   0  0  0  0  0  0  0  0  0  0  0  0
   -5.5830   21.5650  -32.2880 C   0  0  0  0  0  0  0  0  0  0  0  0
   -6.9770   21.4870  -32.3230 C   0  0  0  0  0  0  0  0  0  0  0  0
   -7.7500   22.5640  -31.8870 C   0  0  0  0  0  0  0  0  0  0  0  0
   -7.1300   23.7260  -31.4210 C   0  0  0  0  0  0  0  0  0  0  0  0
   -5.7250   23.8170  -31.3790 C   0  0  0  0  0  0  0  0  0  0  0  0
   -5.0680   24.9730  -30.9270 O   0  0  0  0  0  0  0  0  0  0  0  0
   -5.6810   25.9970  -30.1510 C   0  0  0  0  0  0  0  0  0  0  0  0
   -4.1170   23.4510  -28.5140 N   0  0  0  0  0  0  0  0  0  0  0  0
   -3.7730   24.5540  -27.8720 N   0  0  0  0  0  0  0  0  0  0  0  0
   -2.4850   24.4450  -27.5000 C   0  0  0  0  0  0  0  0  0  0  0  0
   -1.7970   25.4580  -26.6720 C   0  0  0  0  0  0  0  0  0  0  0  0
   -0.9810   26.4190  -27.2910 C   0  0  0  0  0  0  0  0  0  0  0  0
   -0.3090   27.3770  -26.5270 C   0  0  0  0  0  0  0  0  0  0  0  0
   -0.4320   27.3790  -25.1250 C   0  0  0  0  0  0  0  0  0  0  0  0
    0.2210   28.3190  -24.3130 O   0  0  0  0  0  0  0  0  0  0  0  0
    1.0160   27.9860  -23.1800 C   0  0  0  0  0  0  0  0  0  0  0  0
   -1.2320   26.4090  -24.5090 C   0  0  0  0  0  0  0  0  0  0  0  0
   -1.9040   25.4520  -25.2740 C   0  0  0  0  0  0  0  0  0  0  0  0
   -0.6322   22.3177  -25.5647 H   0  0  0  0  0  0  0  0  0  0  0  0
   -1.5278   21.1064  -26.5430 H   0  0  0  0  0  0  0  0  0  0  0  0
    0.2685   21.1101  -26.5430 H   0  0  0  0  0  0  0  0  0  0  0  0
    0.0711   23.5245  -27.4915 H   0  0  0  0  0  0  0  0  0  0  0  0
   -0.3302   22.1516  -28.5924 H   0  0  0  0  0  0  0  0  0  0  0  0
   -1.2585   22.3115  -30.3143 H   0  0  0  0  0  0  0  0  0  0  0  0
   -1.2289   20.5621  -30.8029 H   0  0  0  0  0  0  0  0  0  0  0  0
   -1.8761   22.0754  -32.6717 H   0  0  0  0  0  0  0  0  0  0  0  0
   -3.1653   20.8812  -32.2212 H   0  0  0  0  0  0  0  0  0  0  0  0
   -4.9789   20.7167  -32.6423 H   0  0  0  0  0  0  0  0  0  0  0  0
   -7.4666   20.5749  -32.6950 H   0  0  0  0  0  0  0  0  0  0  0  0
   -8.8478   22.4980  -31.9103 H   0  0  0  0  0  0  0  0  0  0  0  0
   -7.7429   24.5753  -31.0847 H   0  0  0  0  0  0  0  0  0  0  0  0
   -5.5485   25.7757  -29.0817 H   0  0  0  0  0  0  0  0  0  0  0  0
   -5.2135   26.9646  -30.3859 H   0  0  0  0  0  0  0  0  0  0  0  0
   -6.7547   26.0420  -30.3859 H   0  0  0  0  0  0  0  0  0  0  0  0
   -4.4140   25.3590  -27.6930 H   0  0  0  0  0  0  0  0  0  0  0  0
   -0.8700   26.4176  -28.3854 H   0  0  0  0  0  0  0  0  0  0  0  0
    0.3183   28.1322  -27.0232 H   0  0  0  0  0  0  0  0  0  0  0  0
    0.4595   28.2191  -22.2603 H   0  0  0  0  0  0  0  0  0  0  0  0
    1.2544   26.9124  -23.2021 H   0  0  0  0  0  0  0  0  0  0  0  0
    1.9484   28.5692  -23.2021 H   0  0  0  0  0  0  0  0  0  0  0  0
   -1.3324   26.4002  -23.4136 H   0  0  0  0  0  0  0  0  0  0  0  0
   -2.5208   24.6892  -24.7763 H   0  0  0  0  0  0  0  0  0  0  0  0
  1  2  1  0
  2  3  1  0
  3  4  1  0
  4  5  1  0
  5  6  1  0
  6  7  1  0
  7  8  1  0
  8  9  1  0
  9 10  2  0
 10 11  1  0
 11 12  2  0
 12 13  1  0
 13 14  2  0
 14 15  1  0
 15 16  1  0
  4 17  2  0
 17 18  1  0
 18 19  2  0
 19 20  1  0
 20 21  2  0
 21 22  1  0
 22 23  2  0
 23 24  1  0
 24 25  1  0
 23 26  1  0
 26 27  2  0
 19  3  1  0
 27 20  1  0
 14  9  1  0
  1 28  1  0
  1 29  1  0
  1 30  1  0
  2 31  1  0
  2 32  1  0
  6 33  1  0
  6 34  1  0
  7 35  1  0
  7 36  1  0
 10 37  1  0
 11 38  1  0
 12 39  1  0
 13 40  1  0
 16 41  1  0
 16 42  1  0
 16 43  1  0
 18 44  1  0
 21 45  1  0
 22 46  1  0
 25 47  1  0
 25 48  1  0
 25 49  1  0
 26 50  1  0
 27 51  1  0
M  CHG  1  18   1
M  END
>  <UniqueID>  (36) 
35

>  <SMILES>  (36) 
CCn1c(SCCOc2ccccc2OC)n[nH+]c1-c1ccc(OC)cc1

>  <Energy>  (36) 
81.57232986617537

>  <Genealogy>  (36) 
CCn1c(SCCOc2ccccc2OC)n[nH+]c1-c1ccc(OC)cc1 (protonated)
CCn1c(SCCOc2ccccc2OC)n[nH+]c1-c1ccc(OC)cc1 (3D coordinates assigned)
CCn1c(SCCOc2ccccc2OC)n[nH+]c1-c1ccc(OC)cc1 (optimized conformer: 81.57232986617537 kcal/mol)

>  <smiles>  (36) 
CCn1c(SCCOc2ccccc2OC)nnc1-c1ccc(OC)cc1

>  <score_type>  (36) 
oracle

>  <origin>  (36) 
adg

>  <m_score__min__energy>  (36) 
-9.1199999999999992

>  <m_primary>  (36) 
energy

$$$$
36:0
     RDKit          3D

 44 46  0  0  0  0  0  0  0  0999 V2000
   -5.9060   16.8070  -32.4950 C   0  0  0  0  0  0  0  0  0  0  0  0
   -5.8330   16.8040  -34.0200 C   0  0  0  0  0  0  0  0  0  0  0  0
   -5.7300   18.1370  -34.5250 O   0  0  0  0  0  0  0  0  0  0  0  0
   -5.7780   19.3110  -33.7550 C   0  0  0  0  0  0  0  0  0  0  0  0
   -4.5700   19.9700  -33.4840 C   0  0  0  0  0  0  0  0  0  0  0  0
   -4.5500   21.1420  -32.7200 C   0  0  0  0  0  0  0  0  0  0  0  0
   -5.7420   21.6710  -32.2170 C   0  0  0  0  0  0  0  0  0  0  0  0
   -5.7240   22.8050  -31.4650 N   0  0  0  0  0  0  0  0  0  0  0  0
   -6.8650   23.3450  -30.9580 C   0  0  0  0  0  0  0  0  0  0  0  0
   -6.7790   24.8370  -29.9640 S   0  0  0  0  0  0  0  0  0  0  0  0
   -5.1950   24.4030  -29.1630 C   0  0  0  0  0  0  0  0  0  0  0  0
   -4.0450   24.8950  -29.9790 C   0  0  0  0  0  0  0  0  0  0  0  0
   -4.2310   25.2600  -31.1710 O   0  0  0  0  0  0  0  0  0  0  0  0
   -2.7380   24.9570  -29.3960 N   0  0  0  0  0  0  0  0  0  0  0  0
   -1.8150   23.8240  -29.3420 C   0  0  0  0  0  0  0  0  0  0  0  0
   -2.2640   22.7120  -30.2840 C   0  0  0  0  0  0  0  0  0  0  0  0
   -3.2500   21.8680  -29.4860 C   0  0  0  0  0  0  0  0  0  0  0  0
   -2.9520   22.1250  -28.0090 C   0  0  0  0  0  0  0  0  0  0  0  0
   -1.8610   23.1930  -27.9550 C   0  0  0  0  0  0  0  0  0  0  0  0
   -8.1010   22.7430  -31.2150 C   0  0  0  0  0  0  0  0  0  0  0  0
   -8.1520   21.5750  -31.9800 C   0  0  0  0  0  0  0  0  0  0  0  0
   -6.9680   21.0250  -32.4900 C   0  0  0  0  0  0  0  0  0  0  0  0
   -6.9840   19.8500  -33.2580 C   0  0  0  0  0  0  0  0  0  0  0  0
   -4.8885   16.7652  -32.0791 H   0  0  0  0  0  0  0  0  0  0  0  0
   -6.4042   17.7264  -32.1536 H   0  0  0  0  0  0  0  0  0  0  0  0
   -6.4779   15.9316  -32.1536 H   0  0  0  0  0  0  0  0  0  0  0  0
   -4.9510   16.2286  -34.3378 H   0  0  0  0  0  0  0  0  0  0  0  0
   -6.7514   16.3464  -34.4164 H   0  0  0  0  0  0  0  0  0  0  0  0
   -3.6275   19.5608  -33.8766 H   0  0  0  0  0  0  0  0  0  0  0  0
   -3.5949   21.6478  -32.5149 H   0  0  0  0  0  0  0  0  0  0  0  0
   -5.1551   24.8649  -28.1655 H   0  0  0  0  0  0  0  0  0  0  0  0
   -5.1278   23.3085  -29.0766 H   0  0  0  0  0  0  0  0  0  0  0  0
   -0.8190   24.2078  -29.6079 H   0  0  0  0  0  0  0  0  0  0  0  0
   -2.7541   23.1367  -31.1725 H   0  0  0  0  0  0  0  0  0  0  0  0
   -1.4126   22.1133  -30.6400 H   0  0  0  0  0  0  0  0  0  0  0  0
   -4.2822   22.1660  -29.7221 H   0  0  0  0  0  0  0  0  0  0  0  0
   -3.1465   20.8006  -29.7310 H   0  0  0  0  0  0  0  0  0  0  0  0
   -3.8575   22.4832  -27.4973 H   0  0  0  0  0  0  0  0  0  0  0  0
   -2.6246   21.2024  -27.5073 H   0  0  0  0  0  0  0  0  0  0  0  0
   -2.1079   23.9525  -27.1985 H   0  0  0  0  0  0  0  0  0  0  0  0
   -0.8885   22.7592  -27.6794 H   0  0  0  0  0  0  0  0  0  0  0  0
   -9.0262   23.1859  -30.8177 H   0  0  0  0  0  0  0  0  0  0  0  0
   -9.1180   21.0888  -32.1813 H   0  0  0  0  0  0  0  0  0  0  0  0
   -7.9389   19.3481  -33.4730 H   0  0  0  0  0  0  0  0  0  0  0  0
  1  2  1  0
  2  3  1  0
  3  4  1  0
  4  5  2  0
  5  6  1  0
  6  7  2  0
  7  8  1  0
  8  9  2  0
  9 10  1  0
 10 11  1  0
 11 12  1  0
 12 13  2  0
 12 14  1  0
 14 15  1  0
 15 16  1  0
 16 17  1  0
 17 18  1  0
 18 19  1  0
  9 20  1  0
 20 21  2  0
 21 22  1  0
 22 23  2  0
 23  4  1  0
 22  7  1  0
 19 15  1  0
  1 24  1  0
  1 25  1  0
  1 26  1  0
  2 27  1  0
  2 28  1  0
  5 29  1  0
  6 30  1  0
 11 31  1  0
 11 32  1  0
 15 33  1  0
 16 34  1  0
 16 35  1  0
 17 36  1  0
 17 37  1  0
 18 38  1  0
 18 39  1  0
 19 40  1  0
 19 41  1  0
 20 42  1  0
 21 43  1  0
 23 44  1  0
M  CHG  1  14  -1
M  END
>  <UniqueID>  (37) 
36

>  <SMILES>  (37) 
CCOc1ccc2nc(SCC(=O)[N-]C3CCCC3)ccc2c1

>  <Energy>  (37) 
39.696080277322324

>  <Genealogy>  (37) 
CCOc1ccc2nc(SCC(=O)[N-]C3CCCC3)ccc2c1 (protonated)
CCOc1ccc2nc(SCC(=O)[N-]C3CCCC3)ccc2c1 (3D coordinates assigned)
CCOc1ccc2nc(SCC(=O)[N-]C3CCCC3)ccc2c1 (nonaromatic ring conformer: 39.696080277322324 kcal/mol)

>  <smiles>  (37) 
CCOc1ccc2nc(SCC(=O)NC3CCCC3)ccc2c1

>  <score_type>  (37) 
oracle

>  <origin>  (37) 
adg

>  <m_score__min__energy>  (37) 
-10.35

>  <m_primary>  (37) 
energy

$$$$
37:0
     RDKit          3D

 56 58  0  0  0  0  0  0  0  0999 V2000
   -8.1730   23.4280  -31.9800 C   0  0  0  0  0  0  0  0  0  0  0  0
   -6.9920   23.3970  -31.0090 C   0  0  0  0  0  0  0  0  0  0  0  0
   -5.6280   23.3420  -31.7430 C   0  0  0  0  0  0  0  0  0  0  0  0
   -4.5560   24.1460  -31.1080 N   0  0  0  0  0  0  0  0  0  0  0  0
   -5.0010   24.8970  -29.9120 C   0  0  0  0  0  0  0  0  0  0  0  0
   -4.6090   24.1840  -28.6200 C   0  0  0  0  0  0  0  0  0  0  0  0
   -3.3370   23.3490  -30.8380 C   0  0  0  0  0  0  0  0  0  0  0  0
   -3.4510   21.9700  -31.5060 C   0  0  0  0  0  0  0  0  0  0  0  0
   -2.2790   21.6730  -32.4610 C   0  0  0  0  0  0  0  0  0  0  0  0
   -2.7090   21.2540  -33.8110 N   0  0  0  0  0  0  0  0  0  0  0  0
   -3.0520   19.8420  -33.8590 C   0  0  0  0  0  0  0  0  0  0  0  0
   -2.0360   18.9380  -34.2100 C   0  0  0  0  0  0  0  0  0  0  0  0
   -2.2640   17.5710  -34.2320 C   0  0  0  0  0  0  0  0  0  0  0  0
   -0.9510   16.4730  -34.6200 Cl  0  0  0  0  0  0  0  0  0  0  0  0
   -3.5250   17.0680  -33.9380 C   0  0  0  0  0  0  0  0  0  0  0  0
   -4.6060   17.9270  -33.6330 C   0  0  0  0  0  0  0  0  0  0  0  0
   -4.3560   19.3310  -33.5540 C   0  0  0  0  0  0  0  0  0  0  0  0
   -5.4140   20.1670  -33.1640 C   0  0  0  0  0  0  0  0  0  0  0  0
   -6.6390   19.6350  -32.7750 C   0  0  0  0  0  0  0  0  0  0  0  0
   -7.6520   20.4860  -32.2960 C   0  0  0  0  0  0  0  0  0  0  0  0
   -8.8550   19.9590  -31.8360 C   0  0  0  0  0  0  0  0  0  0  0  0
   -9.0610   18.5820  -31.8460 C   0  0  0  0  0  0  0  0  0  0  0  0
   -8.0740   17.7260  -32.3420 C   0  0  0  0  0  0  0  0  0  0  0  0
   -6.8520   18.2410  -32.8500 C   0  0  0  0  0  0  0  0  0  0  0  0
   -5.8770   17.4260  -33.3930 N   0  0  0  0  0  0  0  0  0  0  0  0
   -6.2010   16.0250  -33.7470 C   0  0  0  0  0  0  0  0  0  0  0  0
   -9.1144   23.4527  -31.4116 H   0  0  0  0  0  0  0  0  0  0  0  0
   -8.1035   24.3246  -32.6134 H   0  0  0  0  0  0  0  0  0  0  0  0
   -8.1506   22.5290  -32.6134 H   0  0  0  0  0  0  0  0  0  0  0  0
   -7.0222   24.3032  -30.3862 H   0  0  0  0  0  0  0  0  0  0  0  0
   -7.0824   22.4866  -30.3983 H   0  0  0  0  0  0  0  0  0  0  0  0
   -5.2974   22.2934  -31.7760 H   0  0  0  0  0  0  0  0  0  0  0  0
   -5.7923   23.7724  -32.7419 H   0  0  0  0  0  0  0  0  0  0  0  0
   -4.5368   25.8942  -29.9240 H   0  0  0  0  0  0  0  0  0  0  0  0
   -6.0980   24.9728  -29.9429 H   0  0  0  0  0  0  0  0  0  0  0  0
   -4.9377   24.7818  -27.7571 H   0  0  0  0  0  0  0  0  0  0  0  0
   -5.0905   23.1956  -28.5861 H   0  0  0  0  0  0  0  0  0  0  0  0
   -3.5164   24.0610  -28.5861 H   0  0  0  0  0  0  0  0  0  0  0  0
   -2.4601   23.8772  -31.2405 H   0  0  0  0  0  0  0  0  0  0  0  0
   -3.2265   23.2156  -29.7517 H   0  0  0  0  0  0  0  0  0  0  0  0
   -3.4695   21.1993  -30.7213 H   0  0  0  0  0  0  0  0  0  0  0  0
   -4.3751   21.9653  -32.1027 H   0  0  0  0  0  0  0  0  0  0  0  0
   -1.6691   22.5834  -32.5570 H   0  0  0  0  0  0  0  0  0  0  0  0
   -1.7134   20.8350  -32.0275 H   0  0  0  0  0  0  0  0  0  0  0  0
   -3.4490   21.8830  -34.1830 H   0  0  0  0  0  0  0  0  0  0  0  0
   -1.8980   21.4060  -34.4550 H   0  0  0  0  0  0  0  0  0  0  0  0
   -1.0394   19.3226  -34.4727 H   0  0  0  0  0  0  0  0  0  0  0  0
   -3.6858   15.9798  -33.9425 H   0  0  0  0  0  0  0  0  0  0  0  0
   -5.2724   21.2579  -33.1660 H   0  0  0  0  0  0  0  0  0  0  0  0
   -7.4921   21.5743  -32.2851 H   0  0  0  0  0  0  0  0  0  0  0  0
   -9.6432   20.6303  -31.4645 H   0  0  0  0  0  0  0  0  0  0  0  0
  -10.0043   18.1663  -31.4620 H   0  0  0  0  0  0  0  0  0  0  0  0
   -8.2459   16.6395  -32.3389 H   0  0  0  0  0  0  0  0  0  0  0  0
   -6.3371   15.4366  -32.8276 H   0  0  0  0  0  0  0  0  0  0  0  0
   -7.1283   16.0013  -34.3382 H   0  0  0  0  0  0  0  0  0  0  0  0
   -5.3782   15.5965  -34.3382 H   0  0  0  0  0  0  0  0  0  0  0  0
  1  2  1  0
  2  3  1  0
  3  4  1  0
  4  5  1  0
  5  6  1  0
  4  7  1  0
  7  8  1  0
  8  9  1  0
  9 10  1  0
 10 11  1  0
 11 12  2  0
 12 13  1  0
 13 14  1  0
 13 15  2  0
 15 16  1  0
 16 17  2  0
 17 18  1  0
 18 19  2  0
 19 20  1  0
 20 21  2  0
 21 22  1  0
 22 23  2  0
 23 24  1  0
 24 25  2  0
 25 26  1  0
 17 11  1  0
 24 19  1  0
 25 16  1  0
  1 27  1  0
  1 28  1  0
  1 29  1  0
  2 30  1  0
  2 31  1  0
  3 32  1  0
  3 33  1  0
  5 34  1  0
  5 35  1  0
  6 36  1  0
  6 37  1  0
  6 38  1  0
  7 39  1  0
  7 40  1  0
  8 41  1  0
  8 42  1  0
  9 43  1  0
  9 44  1  0
 10 45  1  0
 10 46  1  0
 12 47  1  0
 15 48  1  0
 18 49  1  0
 20 50  1  0
 21 51  1  0
 22 52  1  0
 23 53  1  0
 26 54  1  0
 26 55  1  0
 26 56  1  0
M  CHG  2  10   1  25   1
M  END
>  <UniqueID>  (38) 
37

>  <SMILES>  (38) 
CCCN(CC)CCC[NH2+]c1cc(Cl)cc2c1cc1ccccc1[n+]2C

>  <Energy>  (38) 
79.77559347640472

>  <Genealogy>  (38) 
CCCN(CC)CCC[NH2+]c1cc(Cl)cc2c1cc1ccccc1[n+]2C (protonated)
CCCN(CC)CCC[NH2+]c1cc(Cl)cc2c1cc1ccccc1[n+]2C (3D coordinates assigned)
CCCN(CC)CCC[NH2+]c1cc(Cl)cc2c1cc1ccccc1[n+]2C (optimized conformer: 79.77559347640472 kcal/mol)

>  <smiles>  (38) 
CCCN(CC)CCCNc1cc(Cl)cc2c1cc1ccccc1[n+]2C

>  <score_type>  (38) 
oracle

>  <origin>  (38) 
adg

>  <m_score__min__energy>  (38) 
-8.0899999999999999

>  <m_primary>  (38) 
energy

$$$$
38:0
     RDKit          3D

 36 37  0  0  0  0  0  0  0  0999 V2000
   -1.9770   25.3170  -26.8800 C   0  0  0  0  0  0  0  0  0  0  0  0
   -1.2890   25.6040  -28.2090 C   0  0  0  0  0  0  0  0  0  0  0  0
   -2.1550   25.2950  -29.3010 O   0  0  0  0  0  0  0  0  0  0  0  0
   -2.8840   24.1020  -29.3960 C   0  0  0  0  0  0  0  0  0  0  0  0
   -2.3590   23.0090  -29.0450 O   0  0  0  0  0  0  0  0  0  0  0  0
   -4.2700   24.1270  -29.9150 C   0  0  0  0  0  0  0  0  0  0  0  0
   -5.2590   24.8790  -29.2590 C   0  0  0  0  0  0  0  0  0  0  0  0
   -6.5700   24.8980  -29.7410 C   0  0  0  0  0  0  0  0  0  0  0  0
   -6.9090   24.1710  -30.8820 C   0  0  0  0  0  0  0  0  0  0  0  0
   -5.9350   23.4180  -31.5600 C   0  0  0  0  0  0  0  0  0  0  0  0
   -6.2930   22.6390  -32.7190 N   0  0  0  0  0  0  0  0  0  0  0  0
   -7.0640   21.4910  -32.3110 C   0  0  0  0  0  0  0  0  0  0  0  0
   -8.3800   21.6480  -31.8510 C   0  0  0  0  0  0  0  0  0  0  0  0
   -9.1360   20.5330  -31.4870 C   0  0  0  0  0  0  0  0  0  0  0  0
   -8.5950   19.2500  -31.5810 C   0  0  0  0  0  0  0  0  0  0  0  0
   -9.3670   18.1950  -31.2180 F   0  0  0  0  0  0  0  0  0  0  0  0
   -7.2760   19.0650  -32.0490 C   0  0  0  0  0  0  0  0  0  0  0  0
   -6.7020   17.7470  -32.1590 N   0  0  0  0  0  0  0  0  0  0  0  0
   -6.0940   17.2390  -31.1930 O   0  0  0  0  0  0  0  0  0  0  0  0
   -6.8050   17.0210  -33.3230 O   0  0  0  0  0  0  0  0  0  0  0  0
   -6.5220   20.1980  -32.4130 C   0  0  0  0  0  0  0  0  0  0  0  0
   -4.6180   23.3960  -31.0660 C   0  0  0  0  0  0  0  0  0  0  0  0
   -1.3078   25.5962  -26.0529 H   0  0  0  0  0  0  0  0  0  0  0  0
   -2.9057   25.9027  -26.8139 H   0  0  0  0  0  0  0  0  0  0  0  0
   -2.2142   24.2449  -26.8139 H   0  0  0  0  0  0  0  0  0  0  0  0
   -1.0179   26.6692  -28.2530 H   0  0  0  0  0  0  0  0  0  0  0  0
   -0.3875   24.9781  -28.2837 H   0  0  0  0  0  0  0  0  0  0  0  0
   -4.9992   25.4567  -28.3597 H   0  0  0  0  0  0  0  0  0  0  0  0
   -7.3375   25.4883  -29.2190 H   0  0  0  0  0  0  0  0  0  0  0  0
   -7.9443   24.1871  -31.2533 H   0  0  0  0  0  0  0  0  0  0  0  0
   -5.4290   22.3320  -33.2260 H   0  0  0  0  0  0  0  0  0  0  0  0
   -6.8440   23.2230  -33.3920 H   0  0  0  0  0  0  0  0  0  0  0  0
   -8.8178   22.6544  -31.7769 H   0  0  0  0  0  0  0  0  0  0  0  0
  -10.1656   20.6663  -31.1234 H   0  0  0  0  0  0  0  0  0  0  0  0
   -5.4940   20.0690  -32.7825 H   0  0  0  0  0  0  0  0  0  0  0  0
   -3.8520   22.8010  -31.5850 H   0  0  0  0  0  0  0  0  0  0  0  0
  1  2  1  0
  2  3  1  0
  3  4  1  0
  4  5  2  0
  4  6  1  0
  6  7  2  0
  7  8  1  0
  8  9  2  0
  9 10  1  0
 10 11  1  0
 11 12  1  0
 12 13  2  0
 13 14  1  0
 14 15  2  0
 15 16  1  0
 15 17  1  0
 17 18  1  0
 18 19  2  0
 18 20  1  0
 17 21  2  0
 10 22  2  0
 22  6  1  0
 21 12  1  0
  1 23  1  0
  1 24  1  0
  1 25  1  0
  2 26  1  0
  2 27  1  0
  7 28  1  0
  8 29  1  0
  9 30  1  0
 11 31  1  0
 11 32  1  0
 13 33  1  0
 14 34  1  0
 21 35  1  0
 22 36  1  0
M  CHG  3  11   1  18   1  20  -1
M  END
>  <UniqueID>  (39) 
38

>  <SMILES>  (39) 
CCOC(=O)c1cccc([NH2+]c2ccc(F)c([N+](=O)[O-])c2)c1

>  <Energy>  (39) 
37.04803603806555

>  <Genealogy>  (39) 
CCOC(=O)c1cccc([NH2+]c2ccc(F)c([N+](=O)[O-])c2)c1 (protonated)
CCOC(=O)c1cccc([NH2+]c2ccc(F)c([N+](=O)[O-])c2)c1 (3D coordinates assigned)
CCOC(=O)c1cccc([NH2+]c2ccc(F)c([N+](=O)[O-])c2)c1 (optimized conformer: 37.04803603806555 kcal/mol)

>  <smiles>  (39) 
CCOC(=O)c1cccc(Nc2ccc(F)c([N+](=O)[O-])c2)c1

>  <score_type>  (39) 
oracle

>  <origin>  (39) 
adg

>  <m_score__min__energy>  (39) 
-7.4500000000000002

>  <m_primary>  (39) 
energy

$$$$
39:0
     RDKit          3D

 37 37  0  0  0  0  0  0  0  0999 V2000
   -9.1620   19.2490  -32.2500 C   0  0  0  0  0  0  0  0  0  0  0  0
   -8.5110   20.4430  -31.5460 C   0  0  0  0  0  0  0  0  0  0  0  0
   -7.3060   20.9710  -32.2300 N   0  0  0  0  0  0  0  0  0  0  0  0
   -6.8170   20.1450  -33.3610 C   0  0  0  0  0  0  0  0  0  0  0  0
   -5.9390   18.9520  -32.9480 C   0  0  0  0  0  0  0  0  0  0  0  0
   -7.2790   22.4340  -32.4550 C   0  0  0  0  0  0  0  0  0  0  0  0
   -7.7340   23.2160  -31.2190 C   0  0  0  0  0  0  0  0  0  0  0  0
   -6.3850   23.4390  -30.0700 S   0  0  0  0  0  0  0  0  0  0  0  0
   -6.2440   24.9930  -29.4430 O   0  0  0  0  0  0  0  0  0  0  0  0
   -4.8470   22.6820  -30.4940 C   0  0  0  0  0  0  0  0  0  0  0  0
   -4.8640   21.3450  -30.7680 N   0  0  0  0  0  0  0  0  0  0  0  0
   -3.7300   20.6490  -31.0440 C   0  0  0  0  0  0  0  0  0  0  0  0
   -2.4980   21.2930  -31.0440 C   0  0  0  0  0  0  0  0  0  0  0  0
   -2.4400   22.6570  -30.7690 C   0  0  0  0  0  0  0  0  0  0  0  0
   -3.6130   23.3820  -30.5000 C   0  0  0  0  0  0  0  0  0  0  0  0
   -3.4860   24.8330  -30.2320 C   0  0  0  0  0  0  0  0  0  0  0  0
   -4.1950   25.6730  -30.8440 O   0  0  0  0  0  0  0  0  0  0  0  0
   -2.5320   25.2930  -29.3320 O   0  0  0  0  0  0  0  0  0  0  0  0
   -9.5461   18.5445  -31.4976 H   0  0  0  0  0  0  0  0  0  0  0  0
   -9.9923   19.6023  -32.8791 H   0  0  0  0  0  0  0  0  0  0  0  0
   -8.4152   18.7425  -32.8791 H   0  0  0  0  0  0  0  0  0  0  0  0
   -9.2534   21.2522  -31.4822 H   0  0  0  0  0  0  0  0  0  0  0  0
   -8.1823   20.0861  -30.5588 H   0  0  0  0  0  0  0  0  0  0  0  0
   -7.6904   19.7564  -33.9052 H   0  0  0  0  0  0  0  0  0  0  0  0
   -6.1833   20.8011  -33.9758 H   0  0  0  0  0  0  0  0  0  0  0  0
   -5.8947   18.8919  -31.8505 H   0  0  0  0  0  0  0  0  0  0  0  0
   -6.3705   18.0230  -33.3490 H   0  0  0  0  0  0  0  0  0  0  0  0
   -4.9237   19.0877  -33.3490 H   0  0  0  0  0  0  0  0  0  0  0  0
   -6.2514   22.7352  -32.7067 H   0  0  0  0  0  0  0  0  0  0  0  0
   -7.9747   22.6632  -33.2757 H   0  0  0  0  0  0  0  0  0  0  0  0
   -8.1050   24.2025  -31.5340 H   0  0  0  0  0  0  0  0  0  0  0  0
   -8.5306   22.6466  -30.7178 H   0  0  0  0  0  0  0  0  0  0  0  0
   -5.3120   25.0600  -29.1200 H   0  0  0  0  0  0  0  0  0  0  0  0
   -5.7720   20.8280  -30.7600 H   0  0  0  0  0  0  0  0  0  0  0  0
   -3.7870   19.5735  -31.2679 H   0  0  0  0  0  0  0  0  0  0  0  0
   -1.5775   20.7305  -31.2592 H   0  0  0  0  0  0  0  0  0  0  0  0
   -1.4675   23.1711  -30.7623 H   0  0  0  0  0  0  0  0  0  0  0  0
  1  2  1  0
  2  3  1  0
  3  4  1  0
  4  5  1  0
  3  6  1  0
  6  7  1  0
  7  8  1  0
  8  9  1  6
  8 10  1  0
 10 11  2  0
 11 12  1  0
 12 13  2  0
 13 14  1  0
 14 15  2  0
 15 16  1  0
 16 17  2  0
 16 18  1  0
 15 10  1  0
  1 19  1  0
  1 20  1  0
  1 21  1  0
  2 22  1  0
  2 23  1  0
  4 24  1  0
  4 25  1  0
  5 26  1  0
  5 27  1  0
  5 28  1  0
  6 29  1  0
  6 30  1  0
  7 31  1  0
  7 32  1  0
  9 33  1  0
 11 34  1  0
 12 35  1  0
 13 36  1  0
 14 37  1  0
M  CHG  3   8   1  11   1  18  -1
M  END
>  <UniqueID>  (40) 
39

>  <SMILES>  (40) 
CCN(CC)CC[S@+](O)c1[nH+]cccc1C(=O)[O-]

>  <Energy>  (40) 
42.696477446694

>  <Genealogy>  (40) 
CCN(CC)CC[S+](O)c1[nH+]cccc1C(=O)[O-] (protonated)
CCN(CC)CC[S@+](O)c1[nH+]cccc1C(=O)[O-] (chirality)
CCN(CC)CC[S@+](O)c1[nH+]cccc1C(=O)[O-] (3D coordinates assigned)
CCN(CC)CC[S@+](O)c1[nH+]cccc1C(=O)[O-] (optimized conformer: 42.696477446694 kcal/mol)

>  <smiles>  (40) 
CCN(CC)CC[S+]([O-])c1ncccc1C(=O)O

>  <score_type>  (40) 
oracle

>  <origin>  (40) 
adg

>  <m_score__min__energy>  (40) 
-6.7300000000000004

>  <m_primary>  (40) 
energy

$$$$
40:0
     RDKit          3D

 60 63  0  0  0  0  0  0  0  0999 V2000
   -3.4440   21.5520  -33.3300 O   0  0  0  0  0  0  0  0  0  0  0  0
   -4.5590   20.9750  -33.2000 C   0  0  0  0  0  0  0  0  0  0  0  0
   -5.7170   21.7160  -32.6490 C   0  0  0  0  0  0  0  0  0  0  0  0
   -5.5830   23.0600  -32.2610 C   0  0  0  0  0  0  0  0  0  0  0  0
   -6.6720   23.7580  -31.7350 C   0  0  0  0  0  0  0  0  0  0  0  0
   -7.9080   23.1280  -31.5880 C   0  0  0  0  0  0  0  0  0  0  0  0
   -8.0660   21.7870  -31.9670 C   0  0  0  0  0  0  0  0  0  0  0  0
   -9.3070   21.1530  -31.8150 C   0  0  0  0  0  0  0  0  0  0  0  0
   -9.4640   19.8200  -32.1920 C   0  0  0  0  0  0  0  0  0  0  0  0
   -8.3910   19.1070  -32.7290 C   0  0  0  0  0  0  0  0  0  0  0  0
   -7.1360   19.7220  -32.8930 C   0  0  0  0  0  0  0  0  0  0  0  0
   -6.9660   21.0700  -32.5060 C   0  0  0  0  0  0  0  0  0  0  0  0
   -5.9970   18.9670  -33.4630 C   0  0  0  0  0  0  0  0  0  0  0  0
   -6.1580   17.7760  -33.8450 O   0  0  0  0  0  0  0  0  0  0  0  0
   -4.7070   19.5930  -33.5810 N   0  0  0  0  0  0  0  0  0  0  0  0
   -3.5740   18.8580  -34.1620 C   0  0  0  0  0  0  0  0  0  0  0  0
   -3.0270   17.8410  -33.1540 C   0  0  0  0  0  0  0  0  0  0  0  0
   -1.6760   18.2830  -32.5500 C   0  0  0  0  0  0  0  0  0  0  0  0
   -1.5920   19.7290  -32.2910 N   0  0  0  0  0  0  0  0  0  0  0  0
   -0.6100   20.1010  -31.2560 C   0  0  0  0  0  0  0  0  0  0  0  0
   -0.2590   21.5990  -31.2770 C   0  0  0  0  0  0  0  0  0  0  0  0
   -1.1790   22.4480  -30.3930 C   0  0  0  0  0  0  0  0  0  0  0  0
   -2.5890   22.1310  -30.6630 N   0  0  0  0  0  0  0  0  0  0  0  0
   -3.3430   21.8450  -29.4340 C   0  0  0  0  0  0  0  0  0  0  0  0
   -4.7040   22.5770  -29.3900 C   0  0  0  0  0  0  0  0  0  0  0  0
   -4.5920   23.9510  -28.8520 N   0  0  1  0  0  0  0  0  0  0  0  0
   -3.7410   23.9800  -27.6400 C   0  0  0  0  0  0  0  0  0  0  0  0
   -2.3530   24.4880  -28.0630 C   0  0  0  0  0  0  0  0  0  0  0  0
   -2.5590   25.1340  -29.3400 N   0  0  0  0  0  0  0  0  0  0  0  0
   -3.8700   24.8050  -29.7460 C   0  0  0  0  0  0  0  0  0  0  0  0
   -4.3840   25.2920  -30.7880 O   0  0  0  0  0  0  0  0  0  0  0  0
   -4.6127   23.5661  -32.3725 H   0  0  0  0  0  0  0  0  0  0  0  0
   -6.5547   24.8098  -31.4351 H   0  0  0  0  0  0  0  0  0  0  0  0
   -8.7613   23.6848  -31.1735 H   0  0  0  0  0  0  0  0  0  0  0  0
  -10.1593   21.7088  -31.3971 H   0  0  0  0  0  0  0  0  0  0  0  0
  -10.4393   19.3273  -32.0655 H   0  0  0  0  0  0  0  0  0  0  0  0
   -8.5274   18.0567  -33.0262 H   0  0  0  0  0  0  0  0  0  0  0  0
   -3.9100   18.3285  -35.0658 H   0  0  0  0  0  0  0  0  0  0  0  0
   -2.7775   19.5722  -34.4180 H   0  0  0  0  0  0  0  0  0  0  0  0
   -3.7568   17.7226  -32.3395 H   0  0  0  0  0  0  0  0  0  0  0  0
   -2.8631   16.8931  -33.6875 H   0  0  0  0  0  0  0  0  0  0  0  0
   -1.5292   17.7502  -31.5989 H   0  0  0  0  0  0  0  0  0  0  0  0
   -0.8977   18.0417  -33.2889 H   0  0  0  0  0  0  0  0  0  0  0  0
   -2.5360   20.0760  -31.9950 H   0  0  0  0  0  0  0  0  0  0  0  0
   -1.0279   19.8519  -30.2695 H   0  0  0  0  0  0  0  0  0  0  0  0
    0.3147   19.5416  -31.4609 H   0  0  0  0  0  0  0  0  0  0  0  0
    0.7754   21.7205  -30.9230 H   0  0  0  0  0  0  0  0  0  0  0  0
   -0.3860   21.9496  -32.3119 H   0  0  0  0  0  0  0  0  0  0  0  0
   -0.9574   22.2406  -29.3357 H   0  0  0  0  0  0  0  0  0  0  0  0
   -1.0045   23.5110  -30.6157 H   0  0  0  0  0  0  0  0  0  0  0  0
   -2.6370   21.3010  -31.3030 H   0  0  0  0  0  0  0  0  0  0  0  0
   -3.5232   20.7615  -29.3749 H   0  0  0  0  0  0  0  0  0  0  0  0
   -2.7438   22.2025  -28.5836 H   0  0  0  0  0  0  0  0  0  0  0  0
   -5.1090   22.6301  -30.4113 H   0  0  0  0  0  0  0  0  0  0  0  0
   -5.3671   22.0093  -28.7206 H   0  0  0  0  0  0  0  0  0  0  0  0
   -5.5360   24.3530  -28.6430 H   0  0  0  0  0  0  0  0  0  0  0  0
   -4.1769   24.6575  -26.8910 H   0  0  0  0  0  0  0  0  0  0  0  0
   -3.6675   22.9773  -27.1937 H   0  0  0  0  0  0  0  0  0  0  0  0
   -1.9638   25.2058  -27.3259 H   0  0  0  0  0  0  0  0  0  0  0  0
   -1.6188   23.6716  -28.1289 H   0  0  0  0  0  0  0  0  0  0  0  0
  1  2  2  0
  2  3  1  0
  3  4  1  0
  4  5  2  0
  5  6  1  0
  6  7  2  0
  7  8  1  0
  8  9  2  0
  9 10  1  0
 10 11  2  0
 11 12  1  0
 11 13  1  0
 13 14  2  0
 13 15  1  0
 15 16  1  0
 16 17  1  0
 17 18  1  0
 18 19  1  0
 19 20  1  0
 20 21  1  0
 21 22  1  0
 22 23  1  0
 23 24  1  0
 24 25  1  0
 25 26  1  0
 26 27  1  0
 27 28  1  0
 28 29  1  0
 29 30  1  0
 30 31  2  0
 15  2  1  0
 30 26  1  0
 12  3  2  0
 12  7  1  0
  4 32  1  0
  5 33  1  0
  6 34  1  0
  8 35  1  0
  9 36  1  0
 10 37  1  0
 16 38  1  0
 16 39  1  0
 17 40  1  0
 17 41  1  0
 18 42  1  0
 18 43  1  0
 19 44  1  0
 20 45  1  0
 20 46  1  0
 21 47  1  0
 21 48  1  0
 22 49  1  0
 22 50  1  0
 23 51  1  0
 24 52  1  0
 24 53  1  0
 25 54  1  0
 25 55  1  0
 26 56  1  1
 27 57  1  0
 27 58  1  0
 28 59  1  0
 28 60  1  0
M  CHG  2  26   1  29  -1
M  END
>  <UniqueID>  (41) 
40

>  <SMILES>  (41) 
O=C1c2cccc3cccc(c23)C(=O)N1CCCNCCCNCC[N@H+]1CC[N-]C1=O

>  <Energy>  (41) 
76.62700707084565

>  <Genealogy>  (41) 
O=C1c2cccc3cccc(c23)C(=O)N1CCCNCCCNCC[NH+]1CC[N-]C1=O (protonated)
O=C1c2cccc3cccc(c23)C(=O)N1CCCNCCCNCC[N@H+]1CC[N-]C1=O (chirality)
O=C1c2cccc3cccc(c23)C(=O)N1CCCNCCCNCC[N@H+]1CC[N-]C1=O (3D coordinates assigned)
O=C1c2cccc3cccc(c23)C(=O)N1CCCNCCCNCC[N@H+]1CC[N-]C1=O (nonaromatic ring conformer: 76.62700707084565 kcal/mol)

>  <smiles>  (41) 
O=C1NCCN1CCNCCCNCCCN1C(=O)c2cccc3cccc(c23)C1=O

>  <score_type>  (41) 
oracle

>  <origin>  (41) 
adg

>  <m_score__min__energy>  (41) 
-9.9100000000000001

>  <m_primary>  (41) 
energy

$$$$
41:0
     RDKit          3D

 34 36  0  0  0  0  0  0  0  0999 V2000
   -4.0390   24.1480  -29.1010 C   0  0  0  0  0  0  0  0  0  0  0  0
   -4.2140   24.3240  -30.5520 N   0  0  0  0  0  0  0  0  0  0  0  0
   -5.5110   24.9790  -30.8540 C   0  0  0  0  0  0  0  0  0  0  0  0
   -6.6200   23.9760  -30.9980 C   0  0  0  0  0  0  0  0  0  0  0  0
   -6.4030   22.8770  -31.7250 C   0  0  0  0  0  0  0  0  0  0  0  0
   -7.4570   21.8500  -31.8960 C   0  0  0  0  0  0  0  0  0  0  0  0
   -8.8230   22.1960  -31.7920 C   0  0  0  0  0  0  0  0  0  0  0  0
   -9.8300   21.2220  -31.9690 C   0  0  0  0  0  0  0  0  0  0  0  0
   -9.4910   19.8880  -32.2470 C   0  0  0  0  0  0  0  0  0  0  0  0
   -8.1400   19.5640  -32.3370 C   0  0  0  0  0  0  0  0  0  0  0  0
   -7.6200   18.3850  -32.5710 O   0  0  0  0  0  0  0  0  0  0  0  0
   -6.3080   18.5220  -32.5510 C   0  0  0  0  0  0  0  0  0  0  0  0
   -5.3520   17.4040  -32.7990 C   0  0  0  0  0  0  0  0  0  0  0  0
   -4.7950   17.4270  -34.6520 Br  0  0  0  0  0  0  0  0  0  0  0  0
   -5.9530   19.8440  -32.3000 C   0  0  0  0  0  0  0  0  0  0  0  0
   -7.1570   20.5060  -32.1700 C   0  0  0  0  0  0  0  0  0  0  0  0
   -5.0370   22.7000  -32.3310 C   0  0  0  0  0  0  0  0  0  0  0  0
   -3.9610   23.0460  -31.2840 C   0  0  0  0  0  0  0  0  0  0  0  0
   -4.7162   24.8291  -28.5647 H   0  0  0  0  0  0  0  0  0  0  0  0
   -4.2719   23.1084  -28.8270 H   0  0  0  0  0  0  0  0  0  0  0  0
   -2.9981   24.3750  -28.8270 H   0  0  0  0  0  0  0  0  0  0  0  0
   -5.7600   25.6707  -30.0358 H   0  0  0  0  0  0  0  0  0  0  0  0
   -5.4094   25.5170  -31.8080 H   0  0  0  0  0  0  0  0  0  0  0  0
   -7.5932   24.1437  -30.5134 H   0  0  0  0  0  0  0  0  0  0  0  0
   -9.1052   23.2359  -31.5706 H   0  0  0  0  0  0  0  0  0  0  0  0
  -10.8884   21.5106  -31.8885 H   0  0  0  0  0  0  0  0  0  0  0  0
  -10.2685   19.1230  -32.3892 H   0  0  0  0  0  0  0  0  0  0  0  0
   -4.4717   17.5241  -32.1504 H   0  0  0  0  0  0  0  0  0  0  0  0
   -5.8443   16.4457  -32.5769 H   0  0  0  0  0  0  0  0  0  0  0  0
   -4.9403   20.2664  -32.2226 H   0  0  0  0  0  0  0  0  0  0  0  0
   -4.9118   21.6560  -32.6540 H   0  0  0  0  0  0  0  0  0  0  0  0
   -4.9319   23.3678  -33.1988 H   0  0  0  0  0  0  0  0  0  0  0  0
   -3.9183   22.2289  -30.5488 H   0  0  0  0  0  0  0  0  0  0  0  0
   -3.0149   23.1741  -31.8303 H   0  0  0  0  0  0  0  0  0  0  0  0
  1  2  1  0
  2  3  1  0
  3  4  1  0
  4  5  2  0
  5  6  1  0
  6  7  2  0
  7  8  1  0
  8  9  2  0
  9 10  1  0
 10 11  1  0
 11 12  1  0
 12 13  1  0
 13 14  1  0
 12 15  2  0
 15 16  1  0
  5 17  1  0
 17 18  1  0
 18  2  1  0
 16  6  1  0
 16 10  2  0
  1 19  1  0
  1 20  1  0
  1 21  1  0
  3 22  1  0
  3 23  1  0
  4 24  1  0
  7 25  1  0
  8 26  1  0
  9 27  1  0
 13 28  1  0
 13 29  1  0
 15 30  1  0
 17 31  1  0
 17 32  1  0
 18 33  1  0
 18 34  1  0
M  END
>  <UniqueID>  (42) 
41

>  <SMILES>  (42) 
CN1CC=C(c2cccc3oc(CBr)cc23)CC1

>  <Energy>  (42) 
80.55384950574636

>  <Genealogy>  (42) 
CN1CC=C(c2cccc3oc(CBr)cc23)CC1 (3D coordinates assigned)
CN1CC=C(c2cccc3oc(CBr)cc23)CC1 (nonaromatic ring conformer: 80.55384950574636 kcal/mol)

>  <smiles>  (42) 
CN1CC=C(c2cccc3oc(CBr)cc23)CC1

>  <score_type>  (42) 
oracle

>  <origin>  (42) 
adg

>  <m_score__min__energy>  (42) 
-8.3399999999999999

>  <m_primary>  (42) 
energy

$$$$
42:0
     RDKit          3D

 43 46  0  0  0  0  0  0  0  0999 V2000
   -0.8390   22.3580  -26.1110 C   0  0  0  0  0  0  0  0  0  0  0  0
   -0.5400   23.7990  -26.5050 C   0  0  0  0  0  0  0  0  0  0  0  0
   -1.3710   24.2050  -27.6800 C   0  0  0  0  0  0  0  0  0  0  0  0
   -1.0720   25.2440  -28.4820 N   0  0  0  0  0  0  0  0  0  0  0  0
   -2.0500   25.2970  -29.3330 O   0  0  0  0  0  0  0  0  0  0  0  0
   -2.9180   24.3510  -29.0720 C   0  0  0  0  0  0  0  0  0  0  0  0
   -4.1580   24.1230  -29.8420 C   0  0  0  0  0  0  0  0  0  0  0  0
   -4.1320   23.3390  -31.0050 C   0  0  0  0  0  0  0  0  0  0  0  0
   -5.3020   23.1220  -31.7380 C   0  0  0  0  0  0  0  0  0  0  0  0
   -6.5150   23.6860  -31.3260 C   0  0  0  0  0  0  0  0  0  0  0  0
   -7.6580   23.4410  -32.1040 O   0  0  0  0  0  0  0  0  0  0  0  0
   -8.7080   22.5360  -31.7640 C   0  0  0  0  0  0  0  0  0  0  0  0
   -8.3170   21.1190  -32.0940 C   0  0  0  0  0  0  0  0  0  0  0  0
   -9.0400   20.0440  -31.5580 C   0  0  0  0  0  0  0  0  0  0  0  0
   -8.6670   18.7360  -31.8660 C   0  0  0  0  0  0  0  0  0  0  0  0
   -7.5690   18.5040  -32.7010 C   0  0  0  0  0  0  0  0  0  0  0  0
   -7.1740   17.1980  -33.0300 C   0  0  0  0  0  0  0  0  0  0  0  0
   -6.0710   16.9920  -33.8650 C   0  0  0  0  0  0  0  0  0  0  0  0
   -5.3600   18.0820  -34.3740 C   0  0  0  0  0  0  0  0  0  0  0  0
   -5.7470   19.3870  -34.0520 C   0  0  0  0  0  0  0  0  0  0  0  0
   -6.8520   19.6090  -33.2150 C   0  0  0  0  0  0  0  0  0  0  0  0
   -7.2380   20.8790  -32.8960 N   0  0  0  0  0  0  0  0  0  0  0  0
   -6.5450   24.4690  -30.1570 C   0  0  0  0  0  0  0  0  0  0  0  0
   -5.3740   24.6850  -29.4220 C   0  0  0  0  0  0  0  0  0  0  0  0
   -2.5380   23.6130  -28.0090 N   0  0  0  0  0  0  0  0  0  0  0  0
   -0.8565   22.2738  -25.0144 H   0  0  0  0  0  0  0  0  0  0  0  0
   -1.8176   22.0624  -26.5171 H   0  0  0  0  0  0  0  0  0  0  0  0
   -0.0588   21.6974  -26.5171 H   0  0  0  0  0  0  0  0  0  0  0  0
   -0.7663   24.4606  -25.6559 H   0  0  0  0  0  0  0  0  0  0  0  0
    0.5229   23.8798  -26.7766 H   0  0  0  0  0  0  0  0  0  0  0  0
   -3.1850   22.8923  -31.3421 H   0  0  0  0  0  0  0  0  0  0  0  0
   -5.2693   22.5027  -32.6465 H   0  0  0  0  0  0  0  0  0  0  0  0
   -8.9153   22.6118  -30.6864 H   0  0  0  0  0  0  0  0  0  0  0  0
   -9.6043   22.8000  -32.3444 H   0  0  0  0  0  0  0  0  0  0  0  0
   -9.8987   20.2317  -30.8966 H   0  0  0  0  0  0  0  0  0  0  0  0
   -9.2347   17.8890  -31.4534 H   0  0  0  0  0  0  0  0  0  0  0  0
   -7.7313   16.3374  -32.6316 H   0  0  0  0  0  0  0  0  0  0  0  0
   -5.7620   15.9680  -34.1220 H   0  0  0  0  0  0  0  0  0  0  0  0
   -4.4933   17.9132  -35.0300 H   0  0  0  0  0  0  0  0  0  0  0  0
   -5.1841   20.2415  -34.4556 H   0  0  0  0  0  0  0  0  0  0  0  0
   -6.6990   21.6910  -33.2760 H   0  0  0  0  0  0  0  0  0  0  0  0
   -7.4931   24.9132  -29.8196 H   0  0  0  0  0  0  0  0  0  0  0  0
   -5.4065   25.2988  -28.5097 H   0  0  0  0  0  0  0  0  0  0  0  0
  1  2  1  0
  2  3  1  0
  3  4  2  0
  4  5  1  0
  5  6  1  0
  6  7  1  0
  7  8  2  0
  8  9  1  0
  9 10  2  0
 10 11  1  0
 11 12  1  0
 12 13  1  0
 13 14  2  0
 14 15  1  0
 15 16  2  0
 16 17  1  0
 17 18  2  0
 18 19  1  0
 19 20  2  0
 20 21  1  0
 21 22  2  0
 10 23  1  0
 23 24  2  0
  6 25  2  0
 25  3  1  0
 24  7  1  0
 22 13  1  0
 21 16  1  0
  1 26  1  0
  1 27  1  0
  1 28  1  0
  2 29  1  0
  2 30  1  0
  8 31  1  0
  9 32  1  0
 12 33  1  0
 12 34  1  0
 14 35  1  0
 15 36  1  0
 17 37  1  0
 18 38  1  0
 19 39  1  0
 20 40  1  0
 22 41  1  0
 23 42  1  0
 24 43  1  0
M  CHG  1  22   1
M  END
>  <UniqueID>  (43) 
42

>  <SMILES>  (43) 
CCc1noc(-c2ccc(OCc3ccc4ccccc4[nH+]3)cc2)n1

>  <Energy>  (43) 
79.04202347074013

>  <Genealogy>  (43) 
CCc1noc(-c2ccc(OCc3ccc4ccccc4[nH+]3)cc2)n1 (protonated)
CCc1noc(-c2ccc(OCc3ccc4ccccc4[nH+]3)cc2)n1 (3D coordinates assigned)
CCc1noc(-c2ccc(OCc3ccc4ccccc4[nH+]3)cc2)n1 (optimized conformer: 79.04202347074013 kcal/mol)

>  <smiles>  (43) 
CCc1noc(-c2ccc(OCc3ccc4ccccc4n3)cc2)n1

>  <score_type>  (43) 
oracle

>  <origin>  (43) 
adg

>  <m_score__min__energy>  (43) 
-9.2400000000000002

>  <m_primary>  (43) 
energy

$$$$
43:0
     RDKit          3D

 28 29  0  0  0  0  0  0  0  0999 V2000
   -2.2730   25.2950  -26.0860 C   0  0  0  0  0  0  0  0  0  0  0  0
   -3.0010   24.5470  -27.1930 C   0  0  0  0  0  0  0  0  0  0  0  0
   -2.0410   24.6380  -28.7400 S   0  0  0  0  0  0  0  0  0  0  0  0
   -3.4770   24.3560  -29.7790 C   0  0  0  0  0  0  0  0  0  0  0  0
   -3.9830   25.2910  -30.6010 N   0  0  0  0  0  0  0  0  0  0  0  0
   -5.0150   24.7390  -31.2190 N   0  0  0  0  0  0  0  0  0  0  0  0
   -5.1250   23.4700  -30.7720 C   0  0  0  0  0  0  0  0  0  0  0  0
   -6.1710   22.5520  -31.2810 C   0  0  0  0  0  0  0  0  0  0  0  0
   -7.5280   22.6720  -30.9930 C   0  0  0  0  0  0  0  0  0  0  0  0
   -8.3260   21.7050  -31.6170 C   0  0  0  0  0  0  0  0  0  0  0  0
   -7.6100   20.8180  -32.4080 C   0  0  0  0  0  0  0  0  0  0  0  0
   -5.9880   21.2450  -32.3280 S   0  0  0  0  0  0  0  0  0  0  0  0
   -4.1700   23.1990  -29.8470 N   0  0  0  0  0  0  0  0  0  0  0  0
   -3.8770   21.9620  -29.1170 C   0  0  0  0  0  0  0  0  0  0  0  0
   -2.6980   21.2340  -29.7510 C   0  0  0  0  0  0  0  0  0  0  0  0
   -2.6238   24.9345  -25.1078 H   0  0  0  0  0  0  0  0  0  0  0  0
   -1.1908   25.1192  -26.1750 H   0  0  0  0  0  0  0  0  0  0  0  0
   -2.4780   26.3721  -26.1750 H   0  0  0  0  0  0  0  0  0  0  0  0
   -3.1237   23.4934  -26.9015 H   0  0  0  0  0  0  0  0  0  0  0  0
   -3.9877   25.0066  -27.3519 H   0  0  0  0  0  0  0  0  0  0  0  0
   -7.9357   23.4543  -30.3359 H   0  0  0  0  0  0  0  0  0  0  0  0
   -9.4176   21.6535  -31.4918 H   0  0  0  0  0  0  0  0  0  0  0  0
   -8.0309   19.9820  -32.9859 H   0  0  0  0  0  0  0  0  0  0  0  0
   -3.6319   22.2073  -28.0731 H   0  0  0  0  0  0  0  0  0  0  0  0
   -4.7609   21.3084  -29.1558 H   0  0  0  0  0  0  0  0  0  0  0  0
   -2.0472   20.8321  -28.9605 H   0  0  0  0  0  0  0  0  0  0  0  0
   -3.0697   20.4080  -30.3751 H   0  0  0  0  0  0  0  0  0  0  0  0
   -2.1260   21.9364  -30.3751 H   0  0  0  0  0  0  0  0  0  0  0  0
  1  2  1  0
  2  3  1  0
  3  4  1  0
  4  5  2  0
  5  6  1  0
  6  7  2  0
  7  8  1  0
  8  9  2  0
  9 10  1  0
 10 11  2  0
 11 12  1  0
  7 13  1  0
 13 14  1  0
 14 15  1  0
 13  4  1  0
 12  8  1  0
  1 16  1  0
  1 17  1  0
  1 18  1  0
  2 19  1  0
  2 20  1  0
  9 21  1  0
 10 22  1  0
 11 23  1  0
 14 24  1  0
 14 25  1  0
 15 26  1  0
 15 27  1  0
 15 28  1  0
M  END
>  <UniqueID>  (44) 
43

>  <SMILES>  (44) 
CCSc1nnc(-c2cccs2)n1CC

>  <Energy>  (44) 
81.10629096274877

>  <Genealogy>  (44) 
CCSc1nnc(-c2cccs2)n1CC (3D coordinates assigned)
CCSc1nnc(-c2cccs2)n1CC (optimized conformer: 81.10629096274877 kcal/mol)

>  <smiles>  (44) 
CCSc1nnc(-c2cccs2)n1CC

>  <score_type>  (44) 
oracle

>  <origin>  (44) 
adg

>  <m_score__min__energy>  (44) 
-5.9500000000000002

>  <m_primary>  (44) 
energy

$$$$
44:0
     RDKit          3D

 48 51  0  0  0  0  0  0  0  0999 V2000
   -4.7620   18.5160  -34.2660 C   0  0  0  0  0  0  0  0  0  0  0  0
   -3.6920   19.4450  -34.1050 O   0  0  0  0  0  0  0  0  0  0  0  0
   -3.4350   20.1560  -32.9220 C   0  0  0  0  0  0  0  0  0  0  0  0
   -2.4680   21.1680  -32.9480 C   0  0  0  0  0  0  0  0  0  0  0  0
   -2.1780   21.9060  -31.7960 C   0  0  0  0  0  0  0  0  0  0  0  0
   -2.8410   21.6260  -30.5910 C   0  0  0  0  0  0  0  0  0  0  0  0
   -2.5600   22.4050  -29.3690 C   0  0  0  0  0  0  0  0  0  0  0  0
   -1.3170   22.4340  -28.7410 C   0  0  0  0  0  0  0  0  0  0  0  0
   -1.4410   23.3610  -27.7330 C   0  0  0  0  0  0  0  0  0  0  0  0
   -0.4960   23.8180  -26.8160 C   0  0  0  0  0  0  0  0  0  0  0  0
   -0.8850   24.8290  -25.9210 C   0  0  0  0  0  0  0  0  0  0  0  0
   -2.1920   25.3610  -25.9690 C   0  0  0  0  0  0  0  0  0  0  0  0
   -3.1230   24.8840  -26.9090 C   0  0  0  0  0  0  0  0  0  0  0  0
   -2.7180   23.8650  -27.7800 C   0  0  0  0  0  0  0  0  0  0  0  0
   -3.4240   23.2770  -28.7740 N   0  0  0  0  0  0  0  0  0  0  0  0
   -4.7660   23.6530  -29.2400 C   0  0  0  0  0  0  0  0  0  0  0  0
   -4.7000   24.5210  -30.4620 C   0  0  0  0  0  0  0  0  0  0  0  0
   -3.8630   25.4660  -30.4990 O   0  0  0  0  0  0  0  0  0  0  0  0
   -5.5410   24.2550  -31.5920 N   0  0  0  0  0  0  0  0  0  0  0  0
   -5.5390   22.9910  -32.3200 C   0  0  0  0  0  0  0  0  0  0  0  0
   -6.8660   22.2960  -32.1650 C   0  0  0  0  0  0  0  0  0  0  0  0
   -7.0190   20.9600  -32.5600 C   0  0  0  0  0  0  0  0  0  0  0  0
   -8.2480   20.3180  -32.3920 C   0  0  0  0  0  0  0  0  0  0  0  0
   -9.3110   21.0130  -31.8100 C   0  0  0  0  0  0  0  0  0  0  0  0
   -9.1460   22.3060  -31.4200 N   0  0  0  0  0  0  0  0  0  0  0  0
   -7.9610   22.9560  -31.5820 C   0  0  0  0  0  0  0  0  0  0  0  0
   -3.8240   20.6260  -30.5680 C   0  0  0  0  0  0  0  0  0  0  0  0
   -4.1180   19.8930  -31.7200 C   0  0  0  0  0  0  0  0  0  0  0  0
   -5.1255   18.2004  -33.2769 H   0  0  0  0  0  0  0  0  0  0  0  0
   -5.5817   18.9937  -34.8226 H   0  0  0  0  0  0  0  0  0  0  0  0
   -4.4041   17.6373  -34.8226 H   0  0  0  0  0  0  0  0  0  0  0  0
   -1.9312   21.3847  -33.8834 H   0  0  0  0  0  0  0  0  0  0  0  0
   -1.4273   22.7091  -31.8344 H   0  0  0  0  0  0  0  0  0  0  0  0
   -0.4261   21.8416  -28.9969 H   0  0  0  0  0  0  0  0  0  0  0  0
    0.5215   23.4007  -26.7937 H   0  0  0  0  0  0  0  0  0  0  0  0
   -0.1672   25.2081  -25.1787 H   0  0  0  0  0  0  0  0  0  0  0  0
   -2.4843   26.1547  -25.2657 H   0  0  0  0  0  0  0  0  0  0  0  0
   -4.1403   25.2995  -26.9586 H   0  0  0  0  0  0  0  0  0  0  0  0
   -5.3300   22.7397  -29.4802 H   0  0  0  0  0  0  0  0  0  0  0  0
   -5.2631   24.2207  -28.4396 H   0  0  0  0  0  0  0  0  0  0  0  0
   -5.3545   23.1869  -33.3866 H   0  0  0  0  0  0  0  0  0  0  0  0
   -4.7472   22.3450  -31.9128 H   0  0  0  0  0  0  0  0  0  0  0  0
   -6.1709   20.4169  -33.0025 H   0  0  0  0  0  0  0  0  0  0  0  0
   -8.3778   19.2745  -32.7150 H   0  0  0  0  0  0  0  0  0  0  0  0
  -10.2813   20.5149  -31.6671 H   0  0  0  0  0  0  0  0  0  0  0  0
   -7.8603   24.0016  -31.2554 H   0  0  0  0  0  0  0  0  0  0  0  0
   -4.3680   20.4172  -29.6350 H   0  0  0  0  0  0  0  0  0  0  0  0
   -4.8867   19.1068  -31.6876 H   0  0  0  0  0  0  0  0  0  0  0  0
  1  2  1  0
  2  3  1  0
  3  4  2  0
  4  5  1  0
  5  6  2  0
  6  7  1  0
  7  8  2  0
  8  9  1  0
  9 10  2  0
 10 11  1  0
 11 12  2  0
 12 13  1  0
 13 14  2  0
 14 15  1  0
 15 16  1  0
 16 17  1  0
 17 18  2  0
 17 19  1  0
 19 20  1  0
 20 21  1  0
 21 22  2  0
 22 23  1  0
 23 24  2  0
 24 25  1  0
 25 26  2  0
  6 27  1  0
 27 28  2  0
 28  3  1  0
 15  7  1  0
 26 21  1  0
 14  9  1  0
  1 29  1  0
  1 30  1  0
  1 31  1  0
  4 32  1  0
  5 33  1  0
  8 34  1  0
 10 35  1  0
 11 36  1  0
 12 37  1  0
 13 38  1  0
 16 39  1  0
 16 40  1  0
 20 41  1  0
 20 42  1  0
 22 43  1  0
 23 44  1  0
 24 45  1  0
 26 46  1  0
 27 47  1  0
 28 48  1  0
M  CHG  1  19  -1
M  END
>  <UniqueID>  (45) 
44

>  <SMILES>  (45) 
COc1ccc(-c2cc3ccccc3n2CC(=O)[N-]Cc2cccnc2)cc1

>  <Energy>  (45) 
85.70175799782201

>  <Genealogy>  (45) 
COc1ccc(-c2cc3ccccc3n2CC(=O)[N-]Cc2cccnc2)cc1 (protonated)
COc1ccc(-c2cc3ccccc3n2CC(=O)[N-]Cc2cccnc2)cc1 (3D coordinates assigned)
COc1ccc(-c2cc3ccccc3n2CC(=O)[N-]Cc2cccnc2)cc1 (optimized conformer: 85.70175799782201 kcal/mol)

>  <smiles>  (45) 
COc1ccc(-c2cc3ccccc3n2CC(=O)NCc2cccnc2)cc1

>  <score_type>  (45) 
oracle

>  <origin>  (45) 
adg

>  <m_score__min__energy>  (45) 
-10.26

>  <m_primary>  (45) 
energy

$$$$
45:0
     RDKit          3D

 33 34  0  0  0  0  0  0  0  0999 V2000
   -0.8960   27.5290  -25.7570 C   0  0  0  0  0  0  0  0  0  0  0  0
   -0.2770   27.8240  -27.1200 C   0  0  0  0  0  0  0  0  0  0  0  0
   -0.5980   26.7910  -28.0490 O   0  0  0  0  0  0  0  0  0  0  0  0
   -0.3940   25.4310  -27.7880 C   0  0  0  0  0  0  0  0  0  0  0  0
    0.7300   24.8950  -27.9980 O   0  0  0  0  0  0  0  0  0  0  0  0
   -1.5070   24.6190  -27.2150 C   0  0  0  0  0  0  0  0  0  0  0  0
   -2.6150   24.5090  -28.2090 C   0  0  0  0  0  0  0  0  0  0  0  0
   -2.4810   24.8240  -29.5170 N   0  0  0  0  0  0  0  0  0  0  0  0
   -3.6170   24.7090  -30.2000 N   0  0  0  0  0  0  0  0  0  0  0  0
   -4.6690   24.3180  -29.4490 C   0  0  0  0  0  0  0  0  0  0  0  0
   -5.8600   24.1570  -29.9500 N   0  0  0  0  0  0  0  0  0  0  0  0
   -6.2040   23.8590  -31.3130 C   0  0  0  0  0  0  0  0  0  0  0  0
   -5.3480   23.9190  -32.2360 O   0  0  0  0  0  0  0  0  0  0  0  0
   -7.6190   23.5150  -31.6480 C   0  0  0  0  0  0  0  0  0  0  0  0
   -7.7280   22.0580  -31.9670 C   0  0  0  0  0  0  0  0  0  0  0  0
   -6.7030   21.2520  -32.4470 C   0  0  0  0  0  0  0  0  0  0  0  0
   -7.0770   19.9100  -32.5810 C   0  0  0  0  0  0  0  0  0  0  0  0
   -8.3870   19.6550  -32.1970 C   0  0  0  0  0  0  0  0  0  0  0  0
   -9.0800   21.1000  -31.6850 S   0  0  0  0  0  0  0  0  0  0  0  0
   -4.2080   24.0890  -27.8380 S   0  0  0  0  0  0  0  0  0  0  0  0
   -0.2084   27.8567  -24.9634 H   0  0  0  0  0  0  0  0  0  0  0  0
   -1.8493   28.0696  -25.6625 H   0  0  0  0  0  0  0  0  0  0  0  0
   -1.0765   26.4480  -25.6625 H   0  0  0  0  0  0  0  0  0  0  0  0
   -0.6669   28.7818  -27.4949 H   0  0  0  0  0  0  0  0  0  0  0  0
    0.8163   27.8762  -27.0102 H   0  0  0  0  0  0  0  0  0  0  0  0
   -1.1361   23.6132  -26.9685 H   0  0  0  0  0  0  0  0  0  0  0  0
   -1.8827   25.1084  -26.3044 H   0  0  0  0  0  0  0  0  0  0  0  0
   -3.6760   24.9140  -31.2230 H   0  0  0  0  0  0  0  0  0  0  0  0
   -8.2644   23.7493  -30.7886 H   0  0  0  0  0  0  0  0  0  0  0  0
   -7.9364   24.1015  -32.5228 H   0  0  0  0  0  0  0  0  0  0  0  0
   -5.7004   21.6299  -32.6961 H   0  0  0  0  0  0  0  0  0  0  0  0
   -6.3972   19.1304  -32.9553 H   0  0  0  0  0  0  0  0  0  0  0  0
   -8.8864   18.6752  -32.2231 H   0  0  0  0  0  0  0  0  0  0  0  0
  1  2  1  0
  2  3  1  0
  3  4  1  0
  4  5  2  0
  4  6  1  0
  6  7  1  0
  7  8  2  0
  8  9  1  0
  9 10  1  0
 10 11  2  3
 11 12  1  0
 12 13  2  0
 12 14  1  0
 14 15  1  0
 15 16  2  0
 16 17  1  0
 17 18  2  0
 18 19  1  0
 10 20  1  0
 20  7  1  0
 19 15  1  0
  1 21  1  0
  1 22  1  0
  1 23  1  0
  2 24  1  0
  2 25  1  0
  6 26  1  0
  6 27  1  0
  9 28  1  0
 14 29  1  0
 14 30  1  0
 16 31  1  0
 17 32  1  0
 18 33  1  0
M  END
>  <UniqueID>  (46) 
45

>  <SMILES>  (46) 
CCOC(=O)Cc1n[nH]c(=NC(=O)Cc2cccs2)s1

>  <Energy>  (46) 
85.97080142892649

>  <Genealogy>  (46) 
CCOC(=O)Cc1n[nH]c(=NC(=O)Cc2cccs2)s1 (3D coordinates assigned)
CCOC(=O)Cc1n[nH]c(=NC(=O)Cc2cccs2)s1 (optimized conformer: 85.97080142892649 kcal/mol)

>  <smiles>  (46) 
CCOC(=O)Cc1n[nH]c(=NC(=O)Cc2cccs2)s1

>  <score_type>  (46) 
oracle

>  <origin>  (46) 
adg

>  <m_score__min__energy>  (46) 
-7.9900000000000002

>  <m_primary>  (46) 
energy

$$$$
