0:0
     RDKit          3D

 69 71  0  0  0  0  0  0  0  0999 V2000
   -3.2200   21.4750  -33.0580 C   0  0  0  0  0  0  0  0  0  0  0  0
   -2.7590   20.1520  -32.4520 C   0  0  0  0  0  0  0  0  0  0  0  0
   -2.6150   19.1720  -33.4630 O   0  0  0  0  0  0  0  0  0  0  0  0
   -1.2770   19.1150  -33.9140 C   0  0  0  0  0  0  0  0  0  0  0  0
   -0.8140   17.6600  -33.9410 C   0  0  0  0  0  0  0  0  0  0  0  0
   -1.9710   16.7500  -34.1060 N   0  0  0  0  0  0  0  0  0  0  0  0
   -2.0570   16.2540  -35.4960 C   0  0  0  0  0  0  0  0  0  0  0  0
   -3.0830   15.1040  -35.6350 C   0  0  0  0  0  0  0  0  0  0  0  0
   -3.9860   15.0420  -34.4640 N   0  0  0  0  0  0  0  0  0  0  0  0
   -5.0140   13.9920  -34.6690 C   0  0  0  0  0  0  0  0  0  0  0  0
   -6.3360   14.3250  -33.9490 C   0  0  0  0  0  0  0  0  0  0  0  0
   -6.7900   15.7740  -34.2150 C   0  0  0  0  0  0  0  0  0  0  0  0
   -5.7730   16.7990  -33.8770 N   0  0  0  0  0  0  0  0  0  0  0  0
   -5.5100   16.9830  -32.4330 C   0  0  0  0  0  0  0  0  0  0  0  0
   -6.3760   18.0830  -31.8040 C   0  0  0  0  0  0  0  0  0  0  0  0
   -6.5170   19.2400  -32.7010 N   0  0  0  0  0  0  0  0  0  0  0  0
   -7.2560   20.3940  -32.2550 C   0  0  0  0  0  0  0  0  0  0  0  0
   -6.5580   21.5310  -31.8160 C   0  0  0  0  0  0  0  0  0  0  0  0
   -7.2410   22.6660  -31.3490 C   0  0  0  0  0  0  0  0  0  0  0  0
   -6.4850   23.8930  -30.9070 C   0  0  0  0  0  0  0  0  0  0  0  0
   -5.8770   24.5030  -31.9920 F   0  0  0  0  0  0  0  0  0  0  0  0
   -5.5130   23.5260  -29.9950 F   0  0  0  0  0  0  0  0  0  0  0  0
   -7.3360   24.8110  -30.3160 F   0  0  0  0  0  0  0  0  0  0  0  0
   -8.6420   22.6780  -31.3790 C   0  0  0  0  0  0  0  0  0  0  0  0
   -9.3480   21.5590  -31.8220 C   0  0  0  0  0  0  0  0  0  0  0  0
   -8.6730   20.4040  -32.2450 C   0  0  0  0  0  0  0  0  0  0  0  0
   -9.4840   19.2310  -32.7230 C   0  0  0  0  0  0  0  0  0  0  0  0
   -5.6720   19.3270  -33.8950 C   0  0  0  0  0  0  0  0  0  0  0  0
   -5.7700   18.0280  -34.7120 C   0  0  0  0  0  0  0  0  0  0  0  0
   -3.2070   14.8000  -33.2220 C   0  0  0  0  0  0  0  0  0  0  0  0
   -1.8960   15.6130  -33.1750 C   0  0  0  0  0  0  0  0  0  0  0  0
   -3.4662   22.1816  -32.2517 H   0  0  0  0  0  0  0  0  0  0  0  0
   -2.4149   21.8939  -33.6795 H   0  0  0  0  0  0  0  0  0  0  0  0
   -4.1111   21.3029  -33.6795 H   0  0  0  0  0  0  0  0  0  0  0  0
   -1.7915   20.3004  -31.9501 H   0  0  0  0  0  0  0  0  0  0  0  0
   -3.5115   19.8095  -31.7264 H   0  0  0  0  0  0  0  0  0  0  0  0
   -1.2123   19.5398  -34.9266 H   0  0  0  0  0  0  0  0  0  0  0  0
   -0.6344   19.6932  -33.2338 H   0  0  0  0  0  0  0  0  0  0  0  0
   -0.1184   17.5171  -34.7811 H   0  0  0  0  0  0  0  0  0  0  0  0
   -0.3125   17.4287  -32.9897 H   0  0  0  0  0  0  0  0  0  0  0  0
   -2.3612   17.0833  -36.1515 H   0  0  0  0  0  0  0  0  0  0  0  0
   -1.0683   15.8656  -35.7815 H   0  0  0  0  0  0  0  0  0  0  0  0
   -3.6836   15.2678  -36.5419 H   0  0  0  0  0  0  0  0  0  0  0  0
   -2.5320   14.1540  -35.6982 H   0  0  0  0  0  0  0  0  0  0  0  0
   -4.4730   15.9680  -34.3860 H   0  0  0  0  0  0  0  0  0  0  0  0
   -5.2119   13.8952  -35.7467 H   0  0  0  0  0  0  0  0  0  0  0  0
   -4.6267   13.0525  -34.2479 H   0  0  0  0  0  0  0  0  0  0  0  0
   -7.1172   13.6372  -34.3049 H   0  0  0  0  0  0  0  0  0  0  0  0
   -6.1707   14.2142  -32.8672 H   0  0  0  0  0  0  0  0  0  0  0  0
   -7.0342   15.8688  -35.2833 H   0  0  0  0  0  0  0  0  0  0  0  0
   -7.6563   15.9597  -33.5630 H   0  0  0  0  0  0  0  0  0  0  0  0
   -5.7161   16.0347  -31.9150 H   0  0  0  0  0  0  0  0  0  0  0  0
   -4.4587   17.2881  -32.3250 H   0  0  0  0  0  0  0  0  0  0  0  0
   -7.3742   17.6731  -31.5904 H   0  0  0  0  0  0  0  0  0  0  0  0
   -5.8846   18.4217  -30.8800 H   0  0  0  0  0  0  0  0  0  0  0  0
   -5.4582   21.5326  -31.8383 H   0  0  0  0  0  0  0  0  0  0  0  0
   -9.1883   23.5748  -31.0514 H   0  0  0  0  0  0  0  0  0  0  0  0
  -10.4476   21.5826  -31.8398 H   0  0  0  0  0  0  0  0  0  0  0  0
   -9.8692   18.6739  -31.8562 H   0  0  0  0  0  0  0  0  0  0  0  0
  -10.3268   19.5914  -33.3312 H   0  0  0  0  0  0  0  0  0  0  0  0
   -8.8492   18.5698  -33.3312 H   0  0  0  0  0  0  0  0  0  0  0  0
   -6.0055   20.1721  -34.5151 H   0  0  0  0  0  0  0  0  0  0  0  0
   -4.6274   19.4774  -33.5847 H   0  0  0  0  0  0  0  0  0  0  0  0
   -6.7018   18.0539  -35.2960 H   0  0  0  0  0  0  0  0  0  0  0  0
   -4.8765   17.9811  -35.3518 H   0  0  0  0  0  0  0  0  0  0  0  0
   -3.8265   15.0805  -32.3574 H   0  0  0  0  0  0  0  0  0  0  0  0
   -2.9383   13.7335  -33.2001 H   0  0  0  0  0  0  0  0  0  0  0  0
   -1.7380   15.9893  -32.1535 H   0  0  0  0  0  0  0  0  0  0  0  0
   -1.0589   14.9626  -33.4686 H   0  0  0  0  0  0  0  0  0  0  0  0
  1  2  1  0
  2  3  1  0
  3  4  1  0
  4  5  1  0
  5  6  1  0
  6  7  1  0
  7  8  1  0
  8  9  1  0
  9 10  1  0
 10 11  1  0
 11 12  1  0
 12 13  1  0
 13 14  1  0
 14 15  1  0
 15 16  1  0
 16 17  1  0
 17 18  2  0
 18 19  1  0
 19 20  1  0
 20 21  1  0
 20 22  1  0
 20 23  1  0
 19 24  2  0
 24 25  1  0
 25 26  2  0
 26 27  1  0
 16 28  1  0
 28 29  1  0
  9 30  1  0
 30 31  1  0
 31  6  1  0
 29 13  1  0
 26 17  1  0
  1 32  1  0
  1 33  1  0
  1 34  1  0
  2 35  1  0
  2 36  1  0
  4 37  1  0
  4 38  1  0
  5 39  1  0
  5 40  1  0
  7 41  1  0
  7 42  1  0
  8 43  1  0
  8 44  1  0
  9 45  1  0
 10 46  1  0
 10 47  1  0
 11 48  1  0
 11 49  1  0
 12 50  1  0
 12 51  1  0
 14 52  1  0
 14 53  1  0
 15 54  1  0
 15 55  1  0
 18 56  1  0
 24 57  1  0
 25 58  1  0
 27 59  1  0
 27 60  1  0
 27 61  1  0
 28 62  1  0
 28 63  1  0
 29 64  1  0
 29 65  1  0
 30 66  1  0
 30 67  1  0
 31 68  1  0
 31 69  1  0
M  CHG  1   9   1
M  END
>  <UniqueID>  (1) 
1

>  <SMILES>  (1) 
CCOCCN1CC[NH+](CCCN2CCN(c3cc(C(F)(F)F)ccc3C)CC2)CC1

>  <Energy>  (1) 
92.92042345168028

>  <Genealogy>  (1) 
CCOCCN1CC[NH+](CCCN2CCN(c3cc(C(F)(F)F)ccc3C)CC2)CC1 (protonated)
CCOCCN1CC[NH+](CCCN2CCN(c3cc(C(F)(F)F)ccc3C)CC2)CC1 (3D coordinates assigned)
CCOCCN1CC[NH+](CCCN2CCN(c3cc(C(F)(F)F)ccc3C)CC2)CC1 (nonaromatic ring conformer: 92.92042345168028 kcal/mol)

>  <smiles>  (1) 
CCOCCN1CCN(CCCN2CCN(c3cc(C(F)(F)F)ccc3C)CC2)CC1

>  <score_type>  (1) 
oracle

>  <origin>  (1) 
adg

>  <m_score__min__energy>  (1) 
-7.6699999999999999

>  <m_primary>  (1) 
energy

$$$$
1:0
     RDKit          3D

 37 38  0  0  0  0  0  0  0  0999 V2000
   -9.0170   18.4300  -31.6360 C   0  0  0  0  0  0  0  0  0  0  0  0
   -7.6400   18.9460  -31.6610 N   0  0  0  0  0  0  0  0  0  0  0  0
   -6.6650   17.8480  -31.5950 C   0  0  0  0  0  0  0  0  0  0  0  0
   -7.3880   19.8720  -32.7910 C   0  0  0  0  0  0  0  0  0  0  0  0
   -6.9130   21.2550  -32.3700 C   0  0  0  0  0  0  0  0  0  0  0  0
   -5.6160   21.6720  -32.7140 C   0  0  0  0  0  0  0  0  0  0  0  0
   -5.1620   22.8960  -32.3400 N   0  0  0  0  0  0  0  0  0  0  0  0
   -5.9350   23.7680  -31.6400 C   0  0  0  0  0  0  0  0  0  0  0  0
   -5.3680   25.0920  -31.2180 C   0  0  0  0  0  0  0  0  0  0  0  0
   -4.3790   24.9060  -30.1390 N   0  0  0  0  0  0  0  0  0  0  0  0
   -3.4400   23.8260  -30.4520 C   0  0  0  0  0  0  0  0  0  0  0  0
   -2.9230   23.3000  -29.1230 C   0  0  0  0  0  0  0  0  0  0  0  0
   -3.9530   23.7320  -28.0900 C   0  0  0  0  0  0  0  0  0  0  0  0
   -4.9970   24.5200  -28.8660 C   0  0  0  0  0  0  0  0  0  0  0  0
   -7.2400   23.4060  -31.2870 C   0  0  0  0  0  0  0  0  0  0  0  0
   -7.7380   22.1550  -31.6570 C   0  0  0  0  0  0  0  0  0  0  0  0
   -9.4040   21.7750  -31.2330 Cl  0  0  0  0  0  0  0  0  0  0  0  0
   -9.3438   18.3075  -30.5928 H   0  0  0  0  0  0  0  0  0  0  0  0
   -9.6837   19.1393  -32.1482 H   0  0  0  0  0  0  0  0  0  0  0  0
   -9.0534   17.4572  -32.1482 H   0  0  0  0  0  0  0  0  0  0  0  0
   -6.4527   17.6089  -30.5425 H   0  0  0  0  0  0  0  0  0  0  0  0
   -7.0779   16.9603  -32.0966 H   0  0  0  0  0  0  0  0  0  0  0  0
   -5.7347   18.1530  -32.0966 H   0  0  0  0  0  0  0  0  0  0  0  0
   -6.6188   19.4253  -33.4382 H   0  0  0  0  0  0  0  0  0  0  0  0
   -8.3499   20.0113  -33.3061 H   0  0  0  0  0  0  0  0  0  0  0  0
   -4.9627   21.0012  -33.2913 H   0  0  0  0  0  0  0  0  0  0  0  0
   -4.8787   25.5685  -32.0803 H   0  0  0  0  0  0  0  0  0  0  0  0
   -6.1849   25.7291  -30.8482 H   0  0  0  0  0  0  0  0  0  0  0  0
   -3.9537   23.0246  -31.0033 H   0  0  0  0  0  0  0  0  0  0  0  0
   -2.6149   24.1886  -31.0827 H   0  0  0  0  0  0  0  0  0  0  0  0
   -2.8403   22.2034  -29.1489 H   0  0  0  0  0  0  0  0  0  0  0  0
   -1.9212   23.6902  -28.8901 H   0  0  0  0  0  0  0  0  0  0  0  0
   -4.4107   22.8533  -27.6121 H   0  0  0  0  0  0  0  0  0  0  0  0
   -3.5004   24.3326  -27.2872 H   0  0  0  0  0  0  0  0  0  0  0  0
   -5.8834   23.8950  -29.0498 H   0  0  0  0  0  0  0  0  0  0  0  0
   -5.3221   25.4061  -28.3011 H   0  0  0  0  0  0  0  0  0  0  0  0
   -7.8718   24.1052  -30.7195 H   0  0  0  0  0  0  0  0  0  0  0  0
  1  2  1  0
  2  3  1  0
  2  4  1  0
  4  5  1  0
  5  6  2  0
  6  7  1  0
  7  8  2  0
  8  9  1  0
  9 10  1  0
 10 11  1  0
 11 12  1  0
 12 13  1  0
 13 14  1  0
  8 15  1  0
 15 16  2  0
 16 17  1  0
 16  5  1  0
 14 10  1  0
  1 18  1  0
  1 19  1  0
  1 20  1  0
  3 21  1  0
  3 22  1  0
  3 23  1  0
  4 24  1  0
  4 25  1  0
  6 26  1  0
  9 27  1  0
  9 28  1  0
 11 29  1  0
 11 30  1  0
 12 31  1  0
 12 32  1  0
 13 33  1  0
 13 34  1  0
 14 35  1  0
 14 36  1  0
 15 37  1  0
M  END
>  <UniqueID>  (2) 
2

>  <SMILES>  (2) 
CN(C)Cc1cnc(CN2CCCC2)cc1Cl

>  <Energy>  (2) 
41.50456046521616

>  <Genealogy>  (2) 
CN(C)Cc1cnc(CN2CCCC2)cc1Cl (3D coordinates assigned)
CN(C)Cc1cnc(CN2CCCC2)cc1Cl (nonaromatic ring conformer: 41.50456046521616 kcal/mol)

>  <smiles>  (2) 
CN(C)Cc1cnc(CN2CCCC2)cc1Cl

>  <score_type>  (2) 
oracle

>  <origin>  (2) 
adg

>  <m_score__min__energy>  (2) 
-6.7400000000000002

>  <m_primary>  (2) 
energy

$$$$
2:0
     RDKit          3D

 34 36  0  0  0  0  0  0  0  0999 V2000
   -5.1990   21.7220  -30.6610 O   0  0  0  0  0  0  0  0  0  0  0  0
   -5.9340   22.6930  -30.7710 C   0  0  0  0  0  0  0  0  0  0  0  0
   -6.7230   22.8580  -32.0450 C   0  0  0  0  0  0  0  0  0  0  0  0
   -7.7900   21.8610  -32.1010 N   0  0  0  0  0  0  0  0  0  0  0  0
   -9.1190   22.0790  -31.9390 C   0  0  0  0  0  0  0  0  0  0  0  0
   -9.8550   20.9380  -31.9540 N   0  0  0  0  0  0  0  0  0  0  0  0
   -8.9260   19.9780  -32.1270 C   0  0  0  0  0  0  0  0  0  0  0  0
   -9.1280   18.6020  -32.1930 C   0  0  0  0  0  0  0  0  0  0  0  0
   -7.9950   17.7800  -32.3520 C   0  0  0  0  0  0  0  0  0  0  0  0
   -6.7040   18.3500  -32.4340 C   0  0  0  0  0  0  0  0  0  0  0  0
   -6.5340   19.7450  -32.3630 C   0  0  0  0  0  0  0  0  0  0  0  0
   -7.6800   20.5270  -32.2100 C   0  0  0  0  0  0  0  0  0  0  0  0
   -6.0200   23.6780  -29.7020 N   0  0  0  0  0  0  0  0  0  0  0  0
   -6.4890   24.9950  -30.2070 C   0  0  0  0  0  0  0  0  0  0  0  0
   -5.3360   25.9830  -30.4550 C   0  0  0  0  0  0  0  0  0  0  0  0
   -4.1720   25.2920  -30.8450 O   0  0  0  0  0  0  0  0  0  0  0  0
   -3.6580   24.5540  -29.7520 C   0  0  0  0  0  0  0  0  0  0  0  0
   -4.7440   23.7770  -28.9640 C   0  0  0  0  0  0  0  0  0  0  0  0
   -7.1633   23.8656  -32.0736 H   0  0  0  0  0  0  0  0  0  0  0  0
   -6.0531   22.7208  -32.9066 H   0  0  0  0  0  0  0  0  0  0  0  0
   -9.5566   23.0797  -31.8086 H   0  0  0  0  0  0  0  0  0  0  0  0
  -10.1378   18.1714  -32.1234 H   0  0  0  0  0  0  0  0  0  0  0  0
   -8.1156   16.6883  -32.4127 H   0  0  0  0  0  0  0  0  0  0  0  0
   -5.8260   17.6983  -32.5542 H   0  0  0  0  0  0  0  0  0  0  0  0
   -5.5354   20.2021  -32.4257 H   0  0  0  0  0  0  0  0  0  0  0  0
   -6.7340   23.3470  -29.0120 H   0  0  0  0  0  0  0  0  0  0  0  0
   -7.0266   24.8373  -31.1537 H   0  0  0  0  0  0  0  0  0  0  0  0
   -7.1403   25.4326  -29.4361 H   0  0  0  0  0  0  0  0  0  0  0  0
   -5.6249   26.6846  -31.2515 H   0  0  0  0  0  0  0  0  0  0  0  0
   -5.1300   26.5317  -29.5241 H   0  0  0  0  0  0  0  0  0  0  0  0
   -2.9222   23.8316  -30.1351 H   0  0  0  0  0  0  0  0  0  0  0  0
   -3.2092   25.2778  -29.0558 H   0  0  0  0  0  0  0  0  0  0  0  0
   -4.3738   22.7609  -28.7626 H   0  0  0  0  0  0  0  0  0  0  0  0
   -4.9396   24.3296  -28.0332 H   0  0  0  0  0  0  0  0  0  0  0  0
  1  2  2  0
  2  3  1  0
  3  4  1  0
  4  5  1  0
  5  6  2  0
  6  7  1  0
  7  8  2  0
  8  9  1  0
  9 10  2  0
 10 11  1  0
 11 12  2  0
  2 13  1  0
 13 14  1  0
 14 15  1  0
 15 16  1  0
 16 17  1  0
 17 18  1  0
 12  4  1  0
 18 13  1  0
 12  7  1  0
  3 19  1  0
  3 20  1  0
  5 21  1  0
  8 22  1  0
  9 23  1  0
 10 24  1  0
 11 25  1  0
 13 26  1  0
 14 27  1  0
 14 28  1  0
 15 29  1  0
 15 30  1  0
 17 31  1  0
 17 32  1  0
 18 33  1  0
 18 34  1  0
M  CHG  1  13   1
M  END
>  <UniqueID>  (3) 
3

>  <SMILES>  (3) 
O=C(Cn1cnc2ccccc21)[NH+]1CCOCC1

>  <Energy>  (3) 
82.55013468095125

>  <Genealogy>  (3) 
O=C(Cn1cnc2ccccc21)[NH+]1CCOCC1 (protonated)
O=C(Cn1cnc2ccccc21)[NH+]1CCOCC1 (3D coordinates assigned)
O=C(Cn1cnc2ccccc21)[NH+]1CCOCC1 (nonaromatic ring conformer: 82.55013468095125 kcal/mol)

>  <smiles>  (3) 
O=C(Cn1cnc2ccccc21)N1CCOCC1

>  <score_type>  (3) 
oracle

>  <origin>  (3) 
adg

>  <m_score__min__energy>  (3) 
-6.6799999999999997

>  <m_primary>  (3) 
energy

$$$$
3:0
     RDKit          3D

 37 37  0  0  0  0  0  0  0  0999 V2000
   -4.0270   17.3380  -34.6700 C   0  0  0  0  0  0  0  0  0  0  0  0
   -5.3520   17.8110  -35.2710 C   0  0  0  0  0  0  0  0  0  0  0  0
   -6.2330   18.3620  -34.2280 N   0  0  0  0  0  0  0  0  0  0  0  0
   -6.8310   17.3140  -33.3780 C   0  0  0  0  0  0  0  0  0  0  0  0
   -7.2770   17.8040  -31.9830 C   0  0  0  0  0  0  0  0  0  0  0  0
   -8.0410   19.1310  -32.0040 C   0  0  0  0  0  0  0  0  0  0  0  0
   -7.3670   20.0730  -32.8310 O   0  0  0  0  0  0  0  0  0  0  0  0
   -7.0130   21.3390  -32.3540 C   0  0  0  0  0  0  0  0  0  0  0  0
   -5.6570   21.7280  -32.3380 C   0  0  0  0  0  0  0  0  0  0  0  0
   -4.5870   20.7950  -32.8380 C   0  0  0  0  0  0  0  0  0  0  0  0
   -5.3050   22.9850  -31.8230 C   0  0  0  0  0  0  0  0  0  0  0  0
   -6.2880   23.8550  -31.3510 C   0  0  0  0  0  0  0  0  0  0  0  0
   -7.6340   23.4830  -31.3920 C   0  0  0  0  0  0  0  0  0  0  0  0
   -8.0090   22.2330  -31.9100 C   0  0  0  0  0  0  0  0  0  0  0  0
   -9.4630   21.8460  -31.9470 C   0  0  0  0  0  0  0  0  0  0  0  0
   -4.0931   17.3616  -33.5722 H   0  0  0  0  0  0  0  0  0  0  0  0
   -3.8195   16.3103  -35.0028 H   0  0  0  0  0  0  0  0  0  0  0  0
   -3.2156   18.0020  -35.0028 H   0  0  0  0  0  0  0  0  0  0  0  0
   -5.1500   18.5901  -36.0208 H   0  0  0  0  0  0  0  0  0  0  0  0
   -5.8540   16.9507  -35.7378 H   0  0  0  0  0  0  0  0  0  0  0  0
   -6.9770   18.9500  -34.6620 H   0  0  0  0  0  0  0  0  0  0  0  0
   -5.6660   18.9830  -33.6040 H   0  0  0  0  0  0  0  0  0  0  0  0
   -7.7114   16.9092  -33.8985 H   0  0  0  0  0  0  0  0  0  0  0  0
   -6.0482   16.5594  -33.2111 H   0  0  0  0  0  0  0  0  0  0  0  0
   -7.9283   17.0369  -31.5388 H   0  0  0  0  0  0  0  0  0  0  0  0
   -6.3614   17.9731  -31.3973 H   0  0  0  0  0  0  0  0  0  0  0  0
   -9.0539   18.9609  -32.3979 H   0  0  0  0  0  0  0  0  0  0  0  0
   -8.0982   19.5286  -30.9800 H   0  0  0  0  0  0  0  0  0  0  0  0
   -4.0667   20.3413  -31.9816 H   0  0  0  0  0  0  0  0  0  0  0  0
   -5.0464   20.0040  -33.4489 H   0  0  0  0  0  0  0  0  0  0  0  0
   -3.8659   21.3579  -33.4489 H   0  0  0  0  0  0  0  0  0  0  0  0
   -4.2475   23.2861  -31.7913 H   0  0  0  0  0  0  0  0  0  0  0  0
   -6.0025   24.8368  -30.9453 H   0  0  0  0  0  0  0  0  0  0  0  0
   -8.4040   24.1730  -31.0165 H   0  0  0  0  0  0  0  0  0  0  0  0
   -9.8419   21.7452  -30.9192 H   0  0  0  0  0  0  0  0  0  0  0  0
  -10.0359   22.6229  -32.4744 H   0  0  0  0  0  0  0  0  0  0  0  0
   -9.5739   20.8871  -32.4744 H   0  0  0  0  0  0  0  0  0  0  0  0
  1  2  1  0
  2  3  1  0
  3  4  1  0
  4  5  1  0
  5  6  1  0
  6  7  1  0
  7  8  1  0
  8  9  2  0
  9 10  1  0
  9 11  1  0
 11 12  2  0
 12 13  1  0
 13 14  2  0
 14 15  1  0
 14  8  1  0
  1 16  1  0
  1 17  1  0
  1 18  1  0
  2 19  1  0
  2 20  1  0
  3 21  1  0
  3 22  1  0
  4 23  1  0
  4 24  1  0
  5 25  1  0
  5 26  1  0
  6 27  1  0
  6 28  1  0
 10 29  1  0
 10 30  1  0
 10 31  1  0
 11 32  1  0
 12 33  1  0
 13 34  1  0
 15 35  1  0
 15 36  1  0
 15 37  1  0
M  CHG  1   3   1
M  END
>  <UniqueID>  (4) 
4

>  <SMILES>  (4) 
CC[NH2+]CCCOc1c(C)cccc1C

>  <Energy>  (4) 
34.22540377523345

>  <Genealogy>  (4) 
CC[NH2+]CCCOc1c(C)cccc1C (protonated)
CC[NH2+]CCCOc1c(C)cccc1C (3D coordinates assigned)
CC[NH2+]CCCOc1c(C)cccc1C (optimized conformer: 34.22540377523345 kcal/mol)

>  <smiles>  (4) 
CCNCCCOc1c(C)cccc1C

>  <score_type>  (4) 
oracle

>  <origin>  (4) 
adg

>  <m_score__min__energy>  (4) 
-4.4699999999999998

>  <m_primary>  (4) 
energy

$$$$
4:0
     RDKit          3D

 60 62  0  0  0  0  0  0  0  0999 V2000
   -3.4830   18.8850  -26.3350 C   0  0  0  0  0  0  0  0  0  0  0  0
   -2.3170   19.6770  -26.9160 C   0  0  0  0  0  0  0  0  0  0  0  0
   -2.7360   20.3580  -28.1470 N   0  0  0  0  0  0  0  0  0  0  0  0
   -1.5770   20.9390  -28.8370 C   0  0  0  0  0  0  0  0  0  0  0  0
   -2.0300   21.9650  -29.8830 C   0  0  0  0  0  0  0  0  0  0  0  0
   -2.5630   23.2990  -29.3000 C   0  0  0  0  0  0  0  0  0  0  0  0
   -3.7490   23.1900  -28.4200 N   0  0  0  0  0  0  0  0  0  0  0  0
   -3.8290   24.2410  -27.3930 C   0  0  0  0  0  0  0  0  0  0  0  0
   -5.0290   22.9820  -29.1310 C   0  0  0  0  0  0  0  0  0  0  0  0
   -5.0860   23.8440  -30.3970 C   0  0  0  0  0  0  0  0  0  0  0  0
   -6.3570   23.6130  -31.2270 C   0  0  0  0  0  0  0  0  0  0  0  0
   -6.0490   22.9920  -32.5170 N   0  0  0  0  0  0  0  0  0  0  0  0
   -5.8650   21.5700  -32.6480 C   0  0  0  0  0  0  0  0  0  0  0  0
   -4.5850   21.0400  -32.8990 C   0  0  0  0  0  0  0  0  0  0  0  0
   -3.4710   21.8880  -33.0800 C   0  0  0  0  0  0  0  0  0  0  0  0
   -2.1940   21.3610  -33.2530 C   0  0  0  0  0  0  0  0  0  0  0  0
   -2.0040   19.9850  -33.2460 C   0  0  0  0  0  0  0  0  0  0  0  0
   -3.0940   19.1260  -33.1140 C   0  0  0  0  0  0  0  0  0  0  0  0
   -4.4150   19.6320  -32.9880 C   0  0  0  0  0  0  0  0  0  0  0  0
   -5.5140   18.7950  -32.9480 N   0  0  0  0  0  0  0  0  0  0  0  0
   -5.3720   17.3700  -33.3270 C   0  0  0  0  0  0  0  0  0  0  0  0
   -6.7530   19.2930  -32.5920 C   0  0  0  0  0  0  0  0  0  0  0  0
   -7.8490   18.4370  -32.3080 C   0  0  0  0  0  0  0  0  0  0  0  0
   -9.1090   18.9540  -32.0080 C   0  0  0  0  0  0  0  0  0  0  0  0
   -9.3090   20.3270  -31.9640 C   0  0  0  0  0  0  0  0  0  0  0  0
   -8.2420   21.1930  -32.1880 C   0  0  0  0  0  0  0  0  0  0  0  0
   -6.9550   20.6970  -32.4830 C   0  0  0  0  0  0  0  0  0  0  0  0
   -3.4365   18.9166  -25.2364 H   0  0  0  0  0  0  0  0  0  0  0  0
   -4.4315   19.3264  -26.6747 H   0  0  0  0  0  0  0  0  0  0  0  0
   -3.4222   17.8405  -26.6747 H   0  0  0  0  0  0  0  0  0  0  0  0
   -1.9829   20.4248  -26.1817 H   0  0  0  0  0  0  0  0  0  0  0  0
   -1.4922   18.9872  -27.1480 H   0  0  0  0  0  0  0  0  0  0  0  0
   -3.3780   21.1430  -27.8830 H   0  0  0  0  0  0  0  0  0  0  0  0
   -0.9293   21.4361  -28.0999 H   0  0  0  0  0  0  0  0  0  0  0  0
   -1.0266   20.1336  -29.3454 H   0  0  0  0  0  0  0  0  0  0  0  0
   -1.1713   22.1942  -30.5312 H   0  0  0  0  0  0  0  0  0  0  0  0
   -2.8717   21.5054  -30.4219 H   0  0  0  0  0  0  0  0  0  0  0  0
   -1.7520   23.7606  -28.7176 H   0  0  0  0  0  0  0  0  0  0  0  0
   -2.8875   23.8948  -30.1659 H   0  0  0  0  0  0  0  0  0  0  0  0
   -3.7940   23.7812  -26.3943 H   0  0  0  0  0  0  0  0  0  0  0  0
   -2.9808   24.9319  -27.5085 H   0  0  0  0  0  0  0  0  0  0  0  0
   -4.7720   24.7955  -27.5085 H   0  0  0  0  0  0  0  0  0  0  0  0
   -5.1198   21.9220  -29.4104 H   0  0  0  0  0  0  0  0  0  0  0  0
   -5.8563   23.2711  -28.4662 H   0  0  0  0  0  0  0  0  0  0  0  0
   -5.0487   24.9029  -30.1014 H   0  0  0  0  0  0  0  0  0  0  0  0
   -4.2285   23.5609  -31.0251 H   0  0  0  0  0  0  0  0  0  0  0  0
   -7.0357   22.9539  -30.6658 H   0  0  0  0  0  0  0  0  0  0  0  0
   -6.8278   24.5889  -31.4169 H   0  0  0  0  0  0  0  0  0  0  0  0
   -6.1410   23.5640  -33.3870 H   0  0  0  0  0  0  0  0  0  0  0  0
   -3.6137   22.9787  -33.0844 H   0  0  0  0  0  0  0  0  0  0  0  0
   -1.3357   22.0341  -33.3952 H   0  0  0  0  0  0  0  0  0  0  0  0
   -0.9895   19.5715  -33.3450 H   0  0  0  0  0  0  0  0  0  0  0  0
   -2.9282   18.0386  -33.1073 H   0  0  0  0  0  0  0  0  0  0  0  0
   -5.3105   16.7533  -32.4182 H   0  0  0  0  0  0  0  0  0  0  0  0
   -6.2437   17.0602  -33.9221 H   0  0  0  0  0  0  0  0  0  0  0  0
   -4.4563   17.2384  -33.9221 H   0  0  0  0  0  0  0  0  0  0  0  0
   -7.7020   17.3470  -32.3248 H   0  0  0  0  0  0  0  0  0  0  0  0
   -9.9474   18.2713  -31.8055 H   0  0  0  0  0  0  0  0  0  0  0  0
  -10.3101   20.7307  -31.7522 H   0  0  0  0  0  0  0  0  0  0  0  0
   -8.4051   22.2795  -32.1341 H   0  0  0  0  0  0  0  0  0  0  0  0
  1  2  1  0
  2  3  1  0
  3  4  1  0
  4  5  1  0
  5  6  1  0
  6  7  1  0
  7  8  1  0
  7  9  1  0
  9 10  1  0
 10 11  1  0
 11 12  1  0
 12 13  1  0
 13 14  2  0
 14 15  1  0
 15 16  2  0
 16 17  1  0
 17 18  2  0
 18 19  1  0
 19 20  2  0
 20 21  1  0
 20 22  1  0
 22 23  2  0
 23 24  1  0
 24 25  2  0
 25 26  1  0
 26 27  2  0
 27 13  1  0
 19 14  1  0
 27 22  1  0
  1 28  1  0
  1 29  1  0
  1 30  1  0
  2 31  1  0
  2 32  1  0
  3 33  1  0
  4 34  1  0
  4 35  1  0
  5 36  1  0
  5 37  1  0
  6 38  1  0
  6 39  1  0
  8 40  1  0
  8 41  1  0
  8 42  1  0
  9 43  1  0
  9 44  1  0
 10 45  1  0
 10 46  1  0
 11 47  1  0
 11 48  1  0
 12 49  1  0
 15 50  1  0
 16 51  1  0
 17 52  1  0
 18 53  1  0
 21 54  1  0
 21 55  1  0
 21 56  1  0
 23 57  1  0
 24 58  1  0
 25 59  1  0
 26 60  1  0
M  CHG  1  20   1
M  END
>  <UniqueID>  (5) 
5

>  <SMILES>  (5) 
CCNCCCN(C)CCCNc1c2ccccc2[n+](C)c2ccccc12

>  <Energy>  (5) 
81.55266289141869

>  <Genealogy>  (5) 
CCNCCCN(C)CCCNc1c2ccccc2[n+](C)c2ccccc12 (3D coordinates assigned)
CCNCCCN(C)CCCNc1c2ccccc2[n+](C)c2ccccc12 (optimized conformer: 81.55266289141869 kcal/mol)

>  <smiles>  (5) 
CCNCCCN(C)CCCNc1c2ccccc2[n+](C)c2ccccc12

>  <score_type>  (5) 
oracle

>  <origin>  (5) 
adg

>  <m_score__min__energy>  (5) 
-9.1600000000000001

>  <m_primary>  (5) 
energy

$$$$
5:0
     RDKit          3D

 45 47  0  0  0  0  0  0  0  0999 V2000
   -5.3922   26.3491  -31.4400 H   0  0  0  0  0  0  0  0  0  0  0  0
   -5.0770   25.3980  -30.9860 C   0  0  0  0  0  0  0  0  0  0  0  0
   -3.8510   25.2910  -30.4260 N   0  0  0  0  0  0  0  0  0  0  0  0
   -3.4040   24.1280  -29.8870 C   0  0  0  0  0  0  0  0  0  0  0  0
   -2.1120   24.0940  -29.3510 C   0  0  0  0  0  0  0  0  0  0  0  0
   -1.5043   25.0107  -29.3311 H   0  0  0  0  0  0  0  0  0  0  0  0
   -1.5910   22.9080  -28.8430 C   0  0  0  0  0  0  0  0  0  0  0  0
    0.0330   22.8720  -28.1820 Cl  0  0  0  0  0  0  0  0  0  0  0  0
   -2.3490   21.7410  -28.8960 C   0  0  0  0  0  0  0  0  0  0  0  0
   -1.9265   20.7980  -28.5188 H   0  0  0  0  0  0  0  0  0  0  0  0
   -3.6430   21.7590  -29.4250 C   0  0  0  0  0  0  0  0  0  0  0  0
   -4.2171   20.8224  -29.4818 H   0  0  0  0  0  0  0  0  0  0  0  0
   -4.2270   22.9630  -29.8890 C   0  0  0  0  0  0  0  0  0  0  0  0
   -5.5620   23.0900  -30.4060 C   0  0  0  0  0  0  0  0  0  0  0  0
   -6.5140   22.1960  -30.3230 N   0  0  0  0  0  0  0  0  0  0  0  0
   -7.9680   22.2940  -30.3940 C   0  0  0  0  0  0  0  0  0  0  0  0
   -8.2739   23.3391  -30.2382 H   0  0  0  0  0  0  0  0  0  0  0  0
   -8.4185   21.6622  -29.6143 H   0  0  0  0  0  0  0  0  0  0  0  0
   -8.4390   21.8240  -31.7690 C   0  0  0  0  0  0  0  0  0  0  0  0
   -8.8874   22.6722  -32.3071 H   0  0  0  0  0  0  0  0  0  0  0  0
   -9.1813   21.0233  -31.6353 H   0  0  0  0  0  0  0  0  0  0  0  0
   -7.3090   21.2980  -32.5510 N   0  0  0  0  0  0  0  0  0  0  0  0
   -6.4910   21.1960  -31.9050 H   0  0  0  0  0  0  0  0  0  0  0  0
   -7.6080   19.9700  -33.1000 C   0  0  0  0  0  0  0  0  0  0  0  0
   -8.2231   20.0803  -34.0053 H   0  0  0  0  0  0  0  0  0  0  0  0
   -8.1538   19.3829  -32.3467 H   0  0  0  0  0  0  0  0  0  0  0  0
   -6.3230   19.2530  -33.4520 C   0  0  0  0  0  0  0  0  0  0  0  0
   -6.4020   17.9030  -33.8440 C   0  0  0  0  0  0  0  0  0  0  0  0
   -7.3818   17.4042  -33.8777 H   0  0  0  0  0  0  0  0  0  0  0  0
   -5.2550   17.1900  -34.1900 C   0  0  0  0  0  0  0  0  0  0  0  0
   -5.3346   16.1370  -34.4980 H   0  0  0  0  0  0  0  0  0  0  0  0
   -4.0080   17.8100  -34.1460 C   0  0  0  0  0  0  0  0  0  0  0  0
   -3.1050   17.2479  -34.4264 H   0  0  0  0  0  0  0  0  0  0  0  0
   -3.9030   19.1420  -33.7470 C   0  0  0  0  0  0  0  0  0  0  0  0
   -2.9133   19.6209  -33.7113 H   0  0  0  0  0  0  0  0  0  0  0  0
   -5.0460   19.8830  -33.3890 C   0  0  0  0  0  0  0  0  0  0  0  0
   -4.8720   21.2470  -32.9350 N   0  0  0  0  0  0  0  0  0  0  0  0
   -5.4410   21.8870  -33.5370 H   0  0  0  0  0  0  0  0  0  0  0  0
   -5.2010   21.3850  -31.9550 H   0  0  0  0  0  0  0  0  0  0  0  0
   -3.4650   21.6430  -33.0280 C   0  0  0  0  0  0  0  0  0  0  0  0
   -3.0494   21.7600  -32.0163 H   0  0  0  0  0  0  0  0  0  0  0  0
   -2.9011   20.8687  -33.5688 H   0  0  0  0  0  0  0  0  0  0  0  0
   -3.3878   22.5978  -33.5688 H   0  0  0  0  0  0  0  0  0  0  0  0
   -5.9390   24.3090  -30.9890 C   0  0  0  0  0  0  0  0  0  0  0  0
   -6.9309   24.4036  -31.4549 H   0  0  0  0  0  0  0  0  0  0  0  0
  1  2  1  0
  2  3  1  0
  3  4  1  0
  4  5  2  0
  5  6  1  0
  5  7  1  0
  7  8  1  0
  7  9  2  0
  9 10  1  0
  9 11  1  0
 11 12  1  0
 11 13  2  0
 13 14  1  0
 14 15  2  0
 15 16  1  0
 16 17  1  0
 16 18  1  0
 16 19  1  0
 19 20  1  0
 19 21  1  0
 19 22  1  0
 22 23  1  0
 22 24  1  0
 24 25  1  0
 24 26  1  0
 24 27  1  0
 27 28  2  0
 28 29  1  0
 28 30  1  0
 30 31  1  0
 30 32  2  0
 32 33  1  0
 32 34  1  0
 34 35  1  0
 34 36  2  0
 36 37  1  0
 37 38  1  0
 37 39  1  0
 37 40  1  0
 40 41  1  0
 40 42  1  0
 40 43  1  0
 14 44  1  0
 44 45  1  0
 44  2  2  0
 13  4  1  0
 36 27  1  0
M  CHG  2   3  -1  37   1
M  END
>  <UniqueID>  (6) 
6

>  <SMILES>  (6) 
C[NH2+]c1ccccc1CNCC/N=c1/cc[n-]c2cc(Cl)ccc12

>  <Energy>  (6) 
62.450844989542645

>  <Genealogy>  (6) 
C[NH2+]c1ccccc1CNCCN=c1cc[n-]c2cc(Cl)ccc12 (protonated)
C[NH2+]c1ccccc1CNCC/N=c1/cc[n-]c2cc(Cl)ccc12 (cis-trans isomerization)
C[NH2+]c1ccccc1CNCC/N=c1/cc[n-]c2cc(Cl)ccc12 (3D coordinates assigned)
C[NH2+]c1ccccc1CNCC/N=c1/cc[n-]c2cc(Cl)ccc12 (optimized conformer: 62.450844989542645 kcal/mol)

>  <smiles>  (6) 
CNc1ccccc1CNCCN=c1cc[nH]c2cc(Cl)ccc12

>  <score_type>  (6) 
oracle

>  <origin>  (6) 
adg

>  <m_score__min__energy>  (6) 
-8.5800000000000001

>  <m_primary>  (6) 
energy

$$$$
6:0
     RDKit          3D

 74 76  0  0  0  0  0  0  0  0999 V2000
   -6.5920   25.3020  -29.6870 C   0  0  0  0  0  0  0  0  0  0  0  0
   -5.3480   25.6890  -30.4790 C   0  0  0  0  0  0  0  0  0  0  0  0
   -4.1730   24.9950  -29.9370 N   0  0  0  0  0  0  0  0  0  0  0  0
   -4.5660   23.7170  -29.3340 C   0  0  0  0  0  0  0  0  0  0  0  0
   -3.8180   23.5130  -28.0560 C   0  0  0  0  0  0  0  0  0  0  0  0
   -2.9360   24.3870  -27.6790 N   0  0  0  0  0  0  0  0  0  0  0  0
   -1.7130   24.6860  -28.3680 C   0  0  0  0  0  0  0  0  0  0  0  0
   -1.6130   25.7880  -28.9690 O   0  0  0  0  0  0  0  0  0  0  0  0
   -0.5350   23.7440  -28.3790 C   0  0  0  0  0  0  0  0  0  0  0  0
   -0.4840   22.9570  -29.6200 N   0  0  0  0  0  0  0  0  0  0  0  0
   -0.8480   21.5390  -29.4430 C   0  0  0  0  0  0  0  0  0  0  0  0
   -1.3780   20.8640  -30.7190 C   0  0  0  0  0  0  0  0  0  0  0  0
   -1.1900   21.7410  -31.8870 N   0  0  0  0  0  0  0  0  0  0  0  0
   -0.2880   21.1450  -32.8840 C   0  0  0  0  0  0  0  0  0  0  0  0
   -1.0320   20.8810  -34.2010 C   0  0  0  0  0  0  0  0  0  0  0  0
   -2.4700   20.7250  -33.9780 N   0  0  0  0  0  0  0  0  0  0  0  0
   -3.0410   19.6430  -33.2270 C   0  0  0  0  0  0  0  0  0  0  0  0
   -2.3020   18.7460  -32.7380 O   0  0  0  0  0  0  0  0  0  0  0  0
   -4.5120   19.5480  -33.0530 C   0  0  0  0  0  0  0  0  0  0  0  0
   -5.2690   20.6910  -32.7060 C   0  0  0  0  0  0  0  0  0  0  0  0
   -4.6560   21.9520  -32.5190 C   0  0  0  0  0  0  0  0  0  0  0  0
   -5.4200   23.0870  -32.2550 C   0  0  0  0  0  0  0  0  0  0  0  0
   -6.8020   22.9900  -32.1680 C   0  0  0  0  0  0  0  0  0  0  0  0
   -7.4270   21.7530  -32.3050 C   0  0  0  0  0  0  0  0  0  0  0  0
   -6.6740   20.5700  -32.5310 C   0  0  0  0  0  0  0  0  0  0  0  0
   -7.2790   19.3290  -32.5880 N   0  0  0  0  0  0  0  0  0  0  0  0
   -8.6660   19.1610  -32.0980 C   0  0  0  0  0  0  0  0  0  0  0  0
   -6.5800   18.2400  -33.0740 C   0  0  0  0  0  0  0  0  0  0  0  0
   -7.2360   17.0270  -33.4010 C   0  0  0  0  0  0  0  0  0  0  0  0
   -6.5280   15.9170  -33.8540 C   0  0  0  0  0  0  0  0  0  0  0  0
   -5.1380   15.9730  -34.0270 C   0  0  0  0  0  0  0  0  0  0  0  0
   -4.4000   14.8140  -34.4940 N   0  0  0  0  0  0  0  0  0  0  0  0
   -4.9830   13.4700  -34.3950 C   0  0  0  0  0  0  0  0  0  0  0  0
   -3.0650   14.9660  -35.0810 C   0  0  0  0  0  0  0  0  0  0  0  0
   -4.4810   17.1850  -33.7560 C   0  0  0  0  0  0  0  0  0  0  0  0
   -5.1790   18.3230  -33.2850 C   0  0  0  0  0  0  0  0  0  0  0  0
   -6.3768   25.3690  -28.6103 H   0  0  0  0  0  0  0  0  0  0  0  0
   -7.4152   25.9865  -29.9396 H   0  0  0  0  0  0  0  0  0  0  0  0
   -6.8816   24.2713  -29.9396 H   0  0  0  0  0  0  0  0  0  0  0  0
   -5.4844   25.4060  -31.5332 H   0  0  0  0  0  0  0  0  0  0  0  0
   -5.1937   26.7754  -30.4020 H   0  0  0  0  0  0  0  0  0  0  0  0
   -3.7680   25.5940  -29.1780 H   0  0  0  0  0  0  0  0  0  0  0  0
   -5.6465   23.7266  -29.1280 H   0  0  0  0  0  0  0  0  0  0  0  0
   -4.3303   22.8978  -30.0293 H   0  0  0  0  0  0  0  0  0  0  0  0
   -4.0145   22.6250  -27.4372 H   0  0  0  0  0  0  0  0  0  0  0  0
    0.3917   24.3299  -28.2893 H   0  0  0  0  0  0  0  0  0  0  0  0
   -0.6426   23.0481  -27.5340 H   0  0  0  0  0  0  0  0  0  0  0  0
    0.4740   23.0310  -30.0310 H   0  0  0  0  0  0  0  0  0  0  0  0
    0.0457   20.9919  -29.1082 H   0  0  0  0  0  0  0  0  0  0  0  0
   -1.6640   21.5101  -28.7059 H   0  0  0  0  0  0  0  0  0  0  0  0
   -0.8332   19.9225  -30.8827 H   0  0  0  0  0  0  0  0  0  0  0  0
   -2.4528   20.6656  -30.5944 H   0  0  0  0  0  0  0  0  0  0  0  0
   -0.7640   22.6370  -31.5550 H   0  0  0  0  0  0  0  0  0  0  0  0
    0.5473   21.8353  -33.0734 H   0  0  0  0  0  0  0  0  0  0  0  0
    0.0883   20.1882  -32.4928 H   0  0  0  0  0  0  0  0  0  0  0  0
   -0.8650   21.7280  -34.8827 H   0  0  0  0  0  0  0  0  0  0  0  0
   -0.6453   19.9480  -34.6369 H   0  0  0  0  0  0  0  0  0  0  0  0
   -3.1160   21.4010  -34.4480 H   0  0  0  0  0  0  0  0  0  0  0  0
   -3.5612   22.0378  -32.5829 H   0  0  0  0  0  0  0  0  0  0  0  0
   -4.9276   24.0607  -32.1154 H   0  0  0  0  0  0  0  0  0  0  0  0
   -7.4051   23.8926  -31.9904 H   0  0  0  0  0  0  0  0  0  0  0  0
   -8.5231   21.6910  -32.2370 H   0  0  0  0  0  0  0  0  0  0  0  0
   -8.6688   19.1607  -30.9980 H   0  0  0  0  0  0  0  0  0  0  0  0
   -9.2879   19.9904  -32.4660 H   0  0  0  0  0  0  0  0  0  0  0  0
   -9.0719   18.2071  -32.4660 H   0  0  0  0  0  0  0  0  0  0  0  0
   -8.3288   16.9610  -33.2945 H   0  0  0  0  0  0  0  0  0  0  0  0
   -7.0661   14.9844  -34.0790 H   0  0  0  0  0  0  0  0  0  0  0  0
   -5.1008   13.1985  -33.3355 H   0  0  0  0  0  0  0  0  0  0  0  0
   -5.9665   13.4597  -34.8876 H   0  0  0  0  0  0  0  0  0  0  0  0
   -4.3185   12.7449  -34.8876 H   0  0  0  0  0  0  0  0  0  0  0  0
   -2.3186   15.0510  -34.2774 H   0  0  0  0  0  0  0  0  0  0  0  0
   -2.8358   14.0881  -35.7030 H   0  0  0  0  0  0  0  0  0  0  0  0
   -3.0390   15.8729  -35.7030 H   0  0  0  0  0  0  0  0  0  0  0  0
   -3.3945   17.2515  -33.9141 H   0  0  0  0  0  0  0  0  0  0  0  0
  1  2  1  0
  2  3  1  0
  3  4  1  0
  4  5  1  0
  5  6  2  3
  6  7  1  0
  7  8  2  0
  7  9  1  0
  9 10  1  0
 10 11  1  0
 11 12  1  0
 12 13  1  0
 13 14  1  0
 14 15  1  0
 15 16  1  0
 16 17  1  0
 17 18  2  0
 17 19  1  0
 19 20  2  0
 20 21  1  0
 21 22  2  0
 22 23  1  0
 23 24  2  0
 24 25  1  0
 25 26  2  0
 26 27  1  0
 26 28  1  0
 28 29  2  0
 29 30  1  0
 30 31  2  0
 31 32  1  0
 32 33  1  0
 32 34  1  0
 31 35  1  0
 35 36  2  0
 36 19  1  0
 25 20  1  0
 36 28  1  0
  1 37  1  0
  1 38  1  0
  1 39  1  0
  2 40  1  0
  2 41  1  0
  3 42  1  0
  4 43  1  0
  4 44  1  0
  5 45  1  0
  9 46  1  0
  9 47  1  0
 10 48  1  0
 11 49  1  0
 11 50  1  0
 12 51  1  0
 12 52  1  0
 13 53  1  0
 14 54  1  0
 14 55  1  0
 15 56  1  0
 15 57  1  0
 16 58  1  0
 21 59  1  0
 22 60  1  0
 23 61  1  0
 24 62  1  0
 27 63  1  0
 27 64  1  0
 27 65  1  0
 29 66  1  0
 30 67  1  0
 33 68  1  0
 33 69  1  0
 33 70  1  0
 34 71  1  0
 34 72  1  0
 34 73  1  0
 35 74  1  0
M  CHG  1  26   1
M  END
>  <UniqueID>  (7) 
7

>  <SMILES>  (7) 
CCNCC=NC(=O)CNCCNCCNC(=O)c1c2ccccc2[n+](C)c2ccc(N(C)C)cc12

>  <Energy>  (7) 
96.80533829585154

>  <Genealogy>  (7) 
CCNCC=NC(=O)CNCCNCCNC(=O)c1c2ccccc2[n+](C)c2ccc(N(C)C)cc12 (3D coordinates assigned)
CCNCC=NC(=O)CNCCNCCNC(=O)c1c2ccccc2[n+](C)c2ccc(N(C)C)cc12 (optimized conformer: 96.80533829585154 kcal/mol)

>  <smiles>  (7) 
CCNCC=NC(=O)CNCCNCCNC(=O)c1c2ccccc2[n+](C)c2ccc(N(C)C)cc12

>  <score_type>  (7) 
oracle

>  <origin>  (7) 
adg

>  <m_score__min__energy>  (7) 
-9.0399999999999991

>  <m_primary>  (7) 
energy

$$$$
7:0
     RDKit          3D

 71 76  0  0  0  0  0  0  0  0999 V2000
    4.8860   14.8460  -33.1740 C   0  0  0  0  0  0  0  0  0  0  0  0
    4.7920   16.2470  -33.4030 O   0  0  0  0  0  0  0  0  0  0  0  0
    3.6090   16.9940  -33.2810 C   0  0  0  0  0  0  0  0  0  0  0  0
    3.3650   17.6560  -32.0790 C   0  0  0  0  0  0  0  0  0  0  0  0
    2.2190   18.4470  -31.9200 C   0  0  0  0  0  0  0  0  0  0  0  0
    1.2520   18.5590  -32.9500 C   0  0  0  0  0  0  0  0  0  0  0  0
    1.5050   17.8610  -34.1530 C   0  0  0  0  0  0  0  0  0  0  0  0
    2.6750   17.1010  -34.3210 C   0  0  0  0  0  0  0  0  0  0  0  0
    0.5040   17.9280  -35.2580 C   0  0  0  0  0  0  0  0  0  0  0  0
   -0.8790   17.9990  -34.6180 C   0  0  0  0  0  0  0  0  0  0  0  0
   -1.0890   19.2630  -33.8470 N   0  0  1  0  0  0  0  0  0  0  0  0
   -1.2170   20.3930  -34.8370 C   0  0  0  0  0  0  0  0  0  0  0  0
   -2.4190   19.1030  -33.1700 C   0  0  0  0  0  0  0  0  0  0  0  0
   -2.7190   20.2520  -32.2030 C   0  0  0  0  0  0  0  0  0  0  0  0
   -1.6610   20.6670  -31.3750 C   0  0  0  0  0  0  0  0  0  0  0  0
   -1.7800   21.8700  -30.6090 C   0  0  0  0  0  0  0  0  0  0  0  0
   -0.7220   22.3730  -29.8120 C   0  0  0  0  0  0  0  0  0  0  0  0
   -0.7910   23.6360  -29.1960 C   0  0  0  0  0  0  0  0  0  0  0  0
    0.2640   24.1640  -28.4280 O   0  0  0  0  0  0  0  0  0  0  0  0
    0.9480   23.4770  -27.3820 C   0  0  0  0  0  0  0  0  0  0  0  0
   -1.9350   24.4110  -29.3550 C   0  0  0  0  0  0  0  0  0  0  0  0
   -1.9530   25.6860  -28.7620 O   0  0  0  0  0  0  0  0  0  0  0  0
   -1.6100   25.9630  -27.4080 C   0  0  0  0  0  0  0  0  0  0  0  0
   -3.0230   23.9070  -30.0910 C   0  0  0  0  0  0  0  0  0  0  0  0
   -2.9950   22.6160  -30.6760 C   0  0  0  0  0  0  0  0  0  0  0  0
   -4.1350   22.0560  -31.3250 C   0  0  0  0  0  0  0  0  0  0  0  0
   -5.4270   22.6360  -31.2120 C   0  0  0  0  0  0  0  0  0  0  0  0
   -6.5500   22.0680  -31.8370 C   0  0  0  0  0  0  0  0  0  0  0  0
   -7.8320   22.6490  -31.7580 O   0  0  0  0  0  0  0  0  0  0  0  0
   -8.9750   22.0240  -31.1850 C   0  0  0  0  0  0  0  0  0  0  0  0
   -6.4170   20.8760  -32.5520 C   0  0  0  0  0  0  0  0  0  0  0  0
   -7.5680   20.3320  -33.1440 O   0  0  0  0  0  0  0  0  0  0  0  0
   -8.2640   19.1710  -32.6860 C   0  0  0  0  0  0  0  0  0  0  0  0
   -5.1540   20.2670  -32.6510 C   0  0  0  0  0  0  0  0  0  0  0  0
   -3.9990   20.8500  -32.0720 C   0  0  0  0  0  0  0  0  0  0  0  0
   -0.4280   19.7760  -31.4090 C   0  0  0  0  0  0  0  0  0  0  0  0
    0.0520   19.5390  -32.8630 C   0  0  1  0  0  0  0  0  0  0  0  0
    4.8991   14.6515  -32.0914 H   0  0  0  0  0  0  0  0  0  0  0  0
    4.0197   14.3415  -33.6268 H   0  0  0  0  0  0  0  0  0  0  0  0
    5.8119   14.4618  -33.6268 H   0  0  0  0  0  0  0  0  0  0  0  0
    4.0784   17.5567  -31.2476 H   0  0  0  0  0  0  0  0  0  0  0  0
    2.0670   18.9919  -30.9766 H   0  0  0  0  0  0  0  0  0  0  0  0
    2.8594   16.5863  -35.2755 H   0  0  0  0  0  0  0  0  0  0  0  0
    0.6807   18.8238  -35.8714 H   0  0  0  0  0  0  0  0  0  0  0  0
    0.5853   17.0454  -35.9094 H   0  0  0  0  0  0  0  0  0  0  0  0
   -1.6384   17.9395  -35.4116 H   0  0  0  0  0  0  0  0  0  0  0  0
   -0.9644   17.1592  -33.9127 H   0  0  0  0  0  0  0  0  0  0  0  0
   -1.3248   21.3444  -34.2955 H   0  0  0  0  0  0  0  0  0  0  0  0
   -0.3174   20.4306  -35.4689 H   0  0  0  0  0  0  0  0  0  0  0  0
   -2.1022   20.2284  -35.4689 H   0  0  0  0  0  0  0  0  0  0  0  0
   -3.2058   19.0721  -33.9381 H   0  0  0  0  0  0  0  0  0  0  0  0
   -2.3908   18.1705  -32.5873 H   0  0  0  0  0  0  0  0  0  0  0  0
    0.1793   21.7583  -29.6708 H   0  0  0  0  0  0  0  0  0  0  0  0
    0.5872   23.8394  -26.4081 H   0  0  0  0  0  0  0  0  0  0  0  0
    0.7557   22.3972  -27.4656 H   0  0  0  0  0  0  0  0  0  0  0  0
    2.0287   23.6645  -27.4656 H   0  0  0  0  0  0  0  0  0  0  0  0
   -2.2889   25.4148  -26.7383 H   0  0  0  0  0  0  0  0  0  0  0  0
   -0.5738   25.6454  -27.2199 H   0  0  0  0  0  0  0  0  0  0  0  0
   -1.7024   27.0429  -27.2199 H   0  0  0  0  0  0  0  0  0  0  0  0
   -3.9198   24.5317  -30.2159 H   0  0  0  0  0  0  0  0  0  0  0  0
   -5.5515   23.5543  -30.6194 H   0  0  0  0  0  0  0  0  0  0  0  0
   -8.9031   22.0633  -30.0881 H   0  0  0  0  0  0  0  0  0  0  0  0
   -9.8836   22.5508  -31.5120 H   0  0  0  0  0  0  0  0  0  0  0  0
   -9.0218   20.9748  -31.5120 H   0  0  0  0  0  0  0  0  0  0  0  0
   -8.2717   19.1582  -31.5861 H   0  0  0  0  0  0  0  0  0  0  0  0
   -9.2984   19.1924  -33.0597 H   0  0  0  0  0  0  0  0  0  0  0  0
   -7.7577   18.2688  -33.0597 H   0  0  0  0  0  0  0  0  0  0  0  0
   -5.0596   19.3137  -33.1916 H   0  0  0  0  0  0  0  0  0  0  0  0
    0.3794   20.2587  -30.8388 H   0  0  0  0  0  0  0  0  0  0  0  0
   -0.6884   18.8037  -30.9653 H   0  0  0  0  0  0  0  0  0  0  0  0
    0.4617   20.4982  -33.2124 H   0  0  0  0  0  0  0  0  0  0  0  0
  1  2  1  0
  2  3  1  0
  3  4  2  0
  4  5  1  0
  5  6  2  0
  6  7  1  0
  7  8  2  0
  7  9  1  0
  9 10  1  0
 10 11  1  0
 11 12  1  6
 11 13  1  0
 13 14  1  0
 14 15  2  0
 15 16  1  0
 16 17  2  0
 17 18  1  0
 18 19  1  0
 19 20  1  0
 18 21  2  0
 21 22  1  0
 22 23  1  0
 21 24  1  0
 24 25  2  0
 25 26  1  0
 26 27  2  0
 27 28  1  0
 28 29  1  0
 29 30  1  0
 28 31  2  0
 31 32  1  0
 32 33  1  0
 31 34  1  0
 34 35  2  0
 15 36  1  0
 36 37  1  0
  8  3  1  0
 37 11  1  0
 37  6  1  0
 35 14  1  0
 25 16  1  0
 35 26  1  0
  1 38  1  0
  1 39  1  0
  1 40  1  0
  4 41  1  0
  5 42  1  0
  8 43  1  0
  9 44  1  0
  9 45  1  0
 10 46  1  0
 10 47  1  0
 12 48  1  0
 12 49  1  0
 12 50  1  0
 13 51  1  0
 13 52  1  0
 17 53  1  0
 20 54  1  0
 20 55  1  0
 20 56  1  0
 23 57  1  0
 23 58  1  0
 23 59  1  0
 24 60  1  0
 27 61  1  0
 30 62  1  0
 30 63  1  0
 30 64  1  0
 33 65  1  0
 33 66  1  0
 33 67  1  0
 34 68  1  0
 36 69  1  0
 36 70  1  0
 37 71  1  6
M  CHG  1  11   1
M  END
>  <UniqueID>  (8) 
8

>  <SMILES>  (8) 
COc1ccc2c(c1)CC[N@@+]1(C)Cc3c(c4cc(OC)c(OC)cc4c4cc(OC)c(OC)cc34)C[C@@H]21

>  <Energy>  (8) 
138.2123952377346

>  <Genealogy>  (8) 
COc1ccc2c(c1)CC[N@@+]1(C)Cc3c(c4cc(OC)c(OC)cc4c4cc(OC)c(OC)cc34)C[C@@H]21 (chirality)
COc1ccc2c(c1)CC[N@@+]1(C)Cc3c(c4cc(OC)c(OC)cc4c4cc(OC)c(OC)cc34)C[C@@H]21 (3D coordinates assigned)
COc1ccc2c(c1)CC[N@@+]1(C)Cc3c(c4cc(OC)c(OC)cc4c4cc(OC)c(OC)cc34)C[C@@H]21 (nonaromatic ring conformer: 138.2123952377346 kcal/mol)

>  <smiles>  (8) 
COc1ccc2c(c1)CC[N+]1(C)Cc3c(c4cc(OC)c(OC)cc4c4cc(OC)c(OC)cc34)CC21

>  <score_type>  (8) 
oracle

>  <origin>  (8) 
adg

>  <m_score__min__energy>  (8) 
-8.0299999999999994

>  <m_primary>  (8) 
energy

$$$$
8:0
     RDKit          3D

 78 80  0  0  0  0  0  0  0  0999 V2000
   -2.7010   20.1160  -27.4660 C   0  0  0  0  0  0  0  0  0  0  0  0
   -1.5300   21.1130  -27.3930 C   0  0  0  0  0  0  0  0  0  0  0  0
   -1.5730   22.2070  -28.3980 N   0  0  0  0  0  0  0  0  0  0  0  0
   -0.6870   22.0800  -29.5750 C   0  0  0  0  0  0  0  0  0  0  0  0
   -1.0400   20.8420  -30.3960 C   0  0  0  0  0  0  0  0  0  0  0  0
   -1.6460   23.5740  -27.8360 C   0  0  0  0  0  0  0  0  0  0  0  0
   -1.2830   24.6810  -28.8360 C   0  0  0  0  0  0  0  0  0  0  0  0
   -2.4640   25.2760  -29.3330 O   0  0  0  0  0  0  0  0  0  0  0  0
   -3.5860   24.5360  -28.9020 C   0  0  0  0  0  0  0  0  0  0  0  0
   -4.7310   24.7500  -29.8850 C   0  0  0  0  0  0  0  0  0  0  0  0
   -4.2880   24.4180  -31.1900 O   0  0  0  0  0  0  0  0  0  0  0  0
   -3.4800   23.2580  -31.1950 C   0  0  0  0  0  0  0  0  0  0  0  0
   -4.3440   21.9950  -31.2910 C   0  0  0  0  0  0  0  0  0  0  0  0
   -4.5870   21.6400  -32.6920 N   0  0  0  0  0  0  0  0  0  0  0  0
   -5.1320   20.3550  -33.0460 C   0  0  0  0  0  0  0  0  0  0  0  0
   -6.4960   20.0930  -32.8070 C   0  0  0  0  0  0  0  0  0  0  0  0
   -7.3530   21.1030  -32.3130 C   0  0  0  0  0  0  0  0  0  0  0  0
   -8.6850   20.8310  -32.0180 C   0  0  0  0  0  0  0  0  0  0  0  0
   -9.1880   19.5500  -32.1970 C   0  0  0  0  0  0  0  0  0  0  0  0
   -8.3650   18.5360  -32.6860 C   0  0  0  0  0  0  0  0  0  0  0  0
   -7.0130   18.7900  -33.0350 C   0  0  0  0  0  0  0  0  0  0  0  0
   -6.2000   17.8010  -33.5580 N   0  0  0  0  0  0  0  0  0  0  0  0
   -6.7960   16.5290  -34.0290 C   0  0  0  0  0  0  0  0  0  0  0  0
   -4.8380   18.0130  -33.6800 C   0  0  0  0  0  0  0  0  0  0  0  0
   -3.9520   16.9430  -33.9530 C   0  0  0  0  0  0  0  0  0  0  0  0
   -2.6010   17.1700  -34.1770 C   0  0  0  0  0  0  0  0  0  0  0  0
   -2.0940   18.4600  -34.1540 C   0  0  0  0  0  0  0  0  0  0  0  0
   -2.9240   19.5500  -33.8510 C   0  0  0  0  0  0  0  0  0  0  0  0
   -2.4230   20.8620  -33.9120 O   0  0  0  0  0  0  0  0  0  0  0  0
   -1.0690   21.2390  -33.6760 C   0  0  0  0  0  0  0  0  0  0  0  0
   -0.3120   21.2740  -35.0030 C   0  0  0  0  0  0  0  0  0  0  0  0
    0.7470   22.3070  -34.9700 N   0  0  0  0  0  0  0  0  0  0  0  0
    0.5850   23.2680  -36.0750 C   0  0  0  0  0  0  0  0  0  0  0  0
    2.0770   21.6840  -35.0550 C   0  0  0  0  0  0  0  0  0  0  0  0
   -4.2910   19.3200  -33.5190 C   0  0  0  0  0  0  0  0  0  0  0  0
   -3.0173   19.8467  -26.4475 H   0  0  0  0  0  0  0  0  0  0  0  0
   -3.5434   20.5784  -28.0013 H   0  0  0  0  0  0  0  0  0  0  0  0
   -2.3789   19.2106  -28.0013 H   0  0  0  0  0  0  0  0  0  0  0  0
   -1.5320   21.5690  -26.3920 H   0  0  0  0  0  0  0  0  0  0  0  0
   -0.6196   20.5341  -27.6075 H   0  0  0  0  0  0  0  0  0  0  0  0
   -0.7978   22.9738  -30.2065 H   0  0  0  0  0  0  0  0  0  0  0  0
    0.3506   21.9824  -29.2231 H   0  0  0  0  0  0  0  0  0  0  0  0
   -1.2777   20.0084  -29.7188 H   0  0  0  0  0  0  0  0  0  0  0  0
   -1.9120   21.0591  -31.0304 H   0  0  0  0  0  0  0  0  0  0  0  0
   -0.1846   20.5666  -31.0304 H   0  0  0  0  0  0  0  0  0  0  0  0
   -2.6735   23.7489  -27.4844 H   0  0  0  0  0  0  0  0  0  0  0  0
   -0.9059   23.6239  -27.0238 H   0  0  0  0  0  0  0  0  0  0  0  0
   -0.6727   25.4445  -28.3314 H   0  0  0  0  0  0  0  0  0  0  0  0
   -0.7132   24.2469  -29.6708 H   0  0  0  0  0  0  0  0  0  0  0  0
   -3.3293   23.4671  -28.8623 H   0  0  0  0  0  0  0  0  0  0  0  0
   -3.8897   24.8726  -27.8998 H   0  0  0  0  0  0  0  0  0  0  0  0
   -5.5792   24.1064  -29.6087 H   0  0  0  0  0  0  0  0  0  0  0  0
   -5.0517   25.8019  -29.8581 H   0  0  0  0  0  0  0  0  0  0  0  0
   -2.7992   23.2961  -32.0582 H   0  0  0  0  0  0  0  0  0  0  0  0
   -2.9063   23.2231  -30.2571 H   0  0  0  0  0  0  0  0  0  0  0  0
   -3.8247   21.1633  -30.7924 H   0  0  0  0  0  0  0  0  0  0  0  0
   -5.3101   22.1889  -30.8022 H   0  0  0  0  0  0  0  0  0  0  0  0
   -4.6130   22.4100  -33.3960 H   0  0  0  0  0  0  0  0  0  0  0  0
   -6.9607   22.1192  -32.1596 H   0  0  0  0  0  0  0  0  0  0  0  0
   -9.3397   21.6314  -31.6428 H   0  0  0  0  0  0  0  0  0  0  0  0
  -10.2385   19.3340  -31.9525 H   0  0  0  0  0  0  0  0  0  0  0  0
   -8.7712   17.5205  -32.8034 H   0  0  0  0  0  0  0  0  0  0  0  0
   -7.0834   15.9156  -33.1623 H   0  0  0  0  0  0  0  0  0  0  0  0
   -7.6869   16.7445  -34.6372 H   0  0  0  0  0  0  0  0  0  0  0  0
   -6.0603   15.9824  -34.6372 H   0  0  0  0  0  0  0  0  0  0  0  0
   -4.3407   15.9146  -33.9882 H   0  0  0  0  0  0  0  0  0  0  0  0
   -1.9291   16.3216  -34.3738 H   0  0  0  0  0  0  0  0  0  0  0  0
   -1.0302   18.6309  -34.3755 H   0  0  0  0  0  0  0  0  0  0  0  0
   -1.0414   22.2358  -33.2116 H   0  0  0  0  0  0  0  0  0  0  0  0
   -0.5965   20.5082  -33.0032 H   0  0  0  0  0  0  0  0  0  0  0  0
    0.1472   20.2909  -35.1836 H   0  0  0  0  0  0  0  0  0  0  0  0
   -1.0198   21.5166  -35.8094 H   0  0  0  0  0  0  0  0  0  0  0  0
    0.4154   24.2741  -35.6640 H   0  0  0  0  0  0  0  0  0  0  0  0
    1.4950   23.2730  -36.6930 H   0  0  0  0  0  0  0  0  0  0  0  0
   -0.2763   22.9744  -36.6930 H   0  0  0  0  0  0  0  0  0  0  0  0
    2.4627   21.5033  -34.0408 H   0  0  0  0  0  0  0  0  0  0  0  0
    2.0004   20.7281  -35.5939 H   0  0  0  0  0  0  0  0  0  0  0  0
    2.7623   22.3548  -35.5939 H   0  0  0  0  0  0  0  0  0  0  0  0
  1  2  1  0
  2  3  1  0
  3  4  1  0
  4  5  1  0
  3  6  1  0
  6  7  1  0
  7  8  1  0
  8  9  1  0
  9 10  1  0
 10 11  1  0
 11 12  1  0
 12 13  1  0
 13 14  1  0
 14 15  1  0
 15 16  2  0
 16 17  1  0
 17 18  2  0
 18 19  1  0
 19 20  2  0
 20 21  1  0
 21 22  2  0
 22 23  1  0
 22 24  1  0
 24 25  2  0
 25 26  1  0
 26 27  2  0
 27 28  1  0
 28 29  1  0
 29 30  1  0
 30 31  1  0
 31 32  1  0
 32 33  1  0
 32 34  1  0
 28 35  2  0
 35 15  1  0
 21 16  1  0
 35 24  1  0
  1 36  1  0
  1 37  1  0
  1 38  1  0
  2 39  1  0
  2 40  1  0
  4 41  1  0
  4 42  1  0
  5 43  1  0
  5 44  1  0
  5 45  1  0
  6 46  1  0
  6 47  1  0
  7 48  1  0
  7 49  1  0
  9 50  1  0
  9 51  1  0
 10 52  1  0
 10 53  1  0
 12 54  1  0
 12 55  1  0
 13 56  1  0
 13 57  1  0
 14 58  1  0
 17 59  1  0
 18 60  1  0
 19 61  1  0
 20 62  1  0
 23 63  1  0
 23 64  1  0
 23 65  1  0
 25 66  1  0
 26 67  1  0
 27 68  1  0
 30 69  1  0
 30 70  1  0
 31 71  1  0
 31 72  1  0
 33 73  1  0
 33 74  1  0
 33 75  1  0
 34 76  1  0
 34 77  1  0
 34 78  1  0
M  CHG  1  22   1
M  END
>  <UniqueID>  (9) 
9

>  <SMILES>  (9) 
CCN(CC)CCOCCOCCNc1c2ccccc2[n+](C)c2cccc(OCCN(C)C)c12

>  <Energy>  (9) 
108.3464244927868

>  <Genealogy>  (9) 
CCN(CC)CCOCCOCCNc1c2ccccc2[n+](C)c2cccc(OCCN(C)C)c12 (3D coordinates assigned)
CCN(CC)CCOCCOCCNc1c2ccccc2[n+](C)c2cccc(OCCN(C)C)c12 (optimized conformer: 108.3464244927868 kcal/mol)

>  <smiles>  (9) 
CCN(CC)CCOCCOCCNc1c2ccccc2[n+](C)c2cccc(OCCN(C)C)c12

>  <score_type>  (9) 
oracle

>  <origin>  (9) 
adg

>  <m_score__min__energy>  (9) 
-9.5600000000000005

>  <m_primary>  (9) 
energy

$$$$
9:0
     RDKit          3D

 72 75  0  0  0  0  0  0  0  0999 V2000
    0.1500   21.1570  -35.6900 C   0  0  0  0  0  0  0  0  0  0  0  0
   -0.0530   21.4400  -34.2070 C   0  0  0  0  0  0  0  0  0  0  0  0
   -1.4590   21.2400  -33.8420 N   0  0  0  0  0  0  0  0  0  0  0  0
   -1.6800   21.6110  -32.4410 C   0  0  0  0  0  0  0  0  0  0  0  0
   -3.1620   21.4650  -32.0900 C   0  0  0  0  0  0  0  0  0  0  0  0
   -3.9130   20.9180  -33.2200 N   0  0  0  0  0  0  0  0  0  0  0  0
   -5.2250   20.3570  -33.0510 C   0  0  0  0  0  0  0  0  0  0  0  0
   -6.2660   21.1770  -32.5840 C   0  0  0  0  0  0  0  0  0  0  0  0
   -6.0830   22.5700  -32.4410 C   0  0  0  0  0  0  0  0  0  0  0  0
   -7.1310   23.3870  -32.0270 C   0  0  0  0  0  0  0  0  0  0  0  0
   -8.3780   22.8350  -31.7590 C   0  0  0  0  0  0  0  0  0  0  0  0
   -8.5760   21.4590  -31.8730 C   0  0  0  0  0  0  0  0  0  0  0  0
   -7.5160   20.5960  -32.2540 C   0  0  0  0  0  0  0  0  0  0  0  0
   -7.6770   19.2260  -32.3100 N   0  0  0  0  0  0  0  0  0  0  0  0
   -8.8470   18.5950  -31.6590 C   0  0  0  0  0  0  0  0  0  0  0  0
   -6.7400   18.4460  -32.9650 C   0  0  0  0  0  0  0  0  0  0  0  0
   -7.0080   17.0940  -33.2850 C   0  0  0  0  0  0  0  0  0  0  0  0
   -6.0600   16.3030  -33.9200 C   0  0  0  0  0  0  0  0  0  0  0  0
   -4.8400   16.8390  -34.2990 C   0  0  0  0  0  0  0  0  0  0  0  0
   -4.5420   18.1910  -34.0540 C   0  0  0  0  0  0  0  0  0  0  0  0
   -3.3480   18.7590  -34.5360 O   0  0  0  0  0  0  0  0  0  0  0  0
   -2.0510   18.1650  -34.4870 C   0  0  0  0  0  0  0  0  0  0  0  0
   -1.5600   18.0800  -33.0210 C   0  0  0  0  0  0  0  0  0  0  0  0
   -0.1140   17.7230  -32.8250 N   0  0  0  0  0  0  0  0  0  0  0  0
    0.5320   17.5490  -34.1550 C   0  0  0  0  0  0  0  0  0  0  0  0
    0.0380   16.4400  -32.0640 C   0  0  0  0  0  0  0  0  0  0  0  0
    0.9250   16.4970  -30.7940 C   0  0  0  0  0  0  0  0  0  0  0  0
    0.2910   17.1370  -29.5400 C   0  0  0  0  0  0  0  0  0  0  0  0
    0.3410   18.6710  -29.5200 C   0  0  0  0  0  0  0  0  0  0  0  0
   -0.1260   19.3650  -30.8250 C   0  0  0  0  0  0  0  0  0  0  0  0
    0.5450   18.8830  -32.1380 C   0  0  0  0  0  0  0  0  0  0  0  0
   -5.4850   19.0000  -33.3530 C   0  0  0  0  0  0  0  0  0  0  0  0
    0.7873   20.2685  -35.8098 H   0  0  0  0  0  0  0  0  0  0  0  0
   -0.8252   20.9756  -36.1655 H   0  0  0  0  0  0  0  0  0  0  0  0
    0.6344   22.0226  -36.1655 H   0  0  0  0  0  0  0  0  0  0  0  0
    0.5763   20.7573  -33.6172 H   0  0  0  0  0  0  0  0  0  0  0  0
    0.2274   22.4830  -33.9986 H   0  0  0  0  0  0  0  0  0  0  0  0
   -2.0370   21.8790  -34.4380 H   0  0  0  0  0  0  0  0  0  0  0  0
   -1.0849   20.9524  -31.7913 H   0  0  0  0  0  0  0  0  0  0  0  0
   -1.3742   22.6570  -32.2913 H   0  0  0  0  0  0  0  0  0  0  0  0
   -3.2634   20.7886  -31.2285 H   0  0  0  0  0  0  0  0  0  0  0  0
   -3.5659   22.4588  -31.8468 H   0  0  0  0  0  0  0  0  0  0  0  0
   -3.4910   20.9410  -34.1750 H   0  0  0  0  0  0  0  0  0  0  0  0
   -5.1008   23.0145  -32.6594 H   0  0  0  0  0  0  0  0  0  0  0  0
   -6.9723   24.4694  -31.9119 H   0  0  0  0  0  0  0  0  0  0  0  0
   -9.2117   23.4855  -31.4559 H   0  0  0  0  0  0  0  0  0  0  0  0
   -9.5698   21.0361  -31.6642 H   0  0  0  0  0  0  0  0  0  0  0  0
   -8.7354   18.6552  -30.5663 H   0  0  0  0  0  0  0  0  0  0  0  0
   -9.7639   19.1209  -31.9634 H   0  0  0  0  0  0  0  0  0  0  0  0
   -8.9112   17.5399  -31.9634 H   0  0  0  0  0  0  0  0  0  0  0  0
   -7.9857   16.6616  -33.0258 H   0  0  0  0  0  0  0  0  0  0  0  0
   -6.2789   15.2444  -34.1234 H   0  0  0  0  0  0  0  0  0  0  0  0
   -4.0962   16.1997  -34.7971 H   0  0  0  0  0  0  0  0  0  0  0  0
   -2.0981   17.1525  -34.9142 H   0  0  0  0  0  0  0  0  0  0  0  0
   -1.3496   18.7833  -35.0664 H   0  0  0  0  0  0  0  0  0  0  0  0
   -1.7299   19.0608  -32.5529 H   0  0  0  0  0  0  0  0  0  0  0  0
   -2.1305   17.2563  -32.5670 H   0  0  0  0  0  0  0  0  0  0  0  0
    1.5857   17.2652  -34.0165 H   0  0  0  0  0  0  0  0  0  0  0  0
    0.0102   16.7594  -34.7156 H   0  0  0  0  0  0  0  0  0  0  0  0
    0.4774   18.4939  -34.7156 H   0  0  0  0  0  0  0  0  0  0  0  0
   -0.9659   16.1110  -31.7574 H   0  0  0  0  0  0  0  0  0  0  0  0
    0.5514   15.7504  -32.7502 H   0  0  0  0  0  0  0  0  0  0  0  0
    1.2071   15.4654  -30.5366 H   0  0  0  0  0  0  0  0  0  0  0  0
    1.7706   17.1490  -31.0581 H   0  0  0  0  0  0  0  0  0  0  0  0
   -0.7629   16.8260  -29.4899 H   0  0  0  0  0  0  0  0  0  0  0  0
    0.8802   16.7913  -28.6778 H   0  0  0  0  0  0  0  0  0  0  0  0
   -0.3023   19.0215  -28.6995 H   0  0  0  0  0  0  0  0  0  0  0  0
    1.4003   18.9397  -29.3943 H   0  0  0  0  0  0  0  0  0  0  0  0
   -1.2093   19.2011  -30.9225 H   0  0  0  0  0  0  0  0  0  0  0  0
    0.1659   20.4200  -30.7167 H   0  0  0  0  0  0  0  0  0  0  0  0
    0.5556   19.7290  -32.8410 H   0  0  0  0  0  0  0  0  0  0  0  0
    1.5446   18.5273  -31.8475 H   0  0  0  0  0  0  0  0  0  0  0  0
  1  2  1  0
  2  3  1  0
  3  4  1  0
  4  5  1  0
  5  6  1  0
  6  7  1  0
  7  8  2  0
  8  9  1  0
  9 10  2  0
 10 11  1  0
 11 12  2  0
 12 13  1  0
 13 14  2  0
 14 15  1  0
 14 16  1  0
 16 17  2  0
 17 18  1  0
 18 19  2  0
 19 20  1  0
 20 21  1  0
 21 22  1  0
 22 23  1  0
 23 24  1  0
 24 25  1  0
 24 26  1  0
 26 27  1  0
 27 28  1  0
 28 29  1  0
 29 30  1  0
 30 31  1  0
 20 32  2  0
 32  7  1  0
 13  8  1  0
 32 16  1  0
 31 24  1  0
  1 33  1  0
  1 34  1  0
  1 35  1  0
  2 36  1  0
  2 37  1  0
  3 38  1  0
  4 39  1  0
  4 40  1  0
  5 41  1  0
  5 42  1  0
  6 43  1  0
  9 44  1  0
 10 45  1  0
 11 46  1  0
 12 47  1  0
 15 48  1  0
 15 49  1  0
 15 50  1  0
 17 51  1  0
 18 52  1  0
 19 53  1  0
 22 54  1  0
 22 55  1  0
 23 56  1  0
 23 57  1  0
 25 58  1  0
 25 59  1  0
 25 60  1  0
 26 61  1  0
 26 62  1  0
 27 63  1  0
 27 64  1  0
 28 65  1  0
 28 66  1  0
 29 67  1  0
 29 68  1  0
 30 69  1  0
 30 70  1  0
 31 71  1  0
 31 72  1  0
M  CHG  2  14   1  24   1
M  END
>  <UniqueID>  (10) 
10

>  <SMILES>  (10) 
CCNCCNc1c2ccccc2[n+](C)c2cccc(OCC[N+]3(C)CCCCCC3)c12

>  <Energy>  (10) 
120.50269598050404

>  <Genealogy>  (10) 
CCNCCNc1c2ccccc2[n+](C)c2cccc(OCC[N+]3(C)CCCCCC3)c12 (3D coordinates assigned)
CCNCCNc1c2ccccc2[n+](C)c2cccc(OCC[N+]3(C)CCCCCC3)c12 (nonaromatic ring conformer: 120.50269598050404 kcal/mol)

>  <smiles>  (10) 
CCNCCNc1c2ccccc2[n+](C)c2cccc(OCC[N+]3(C)CCCCCC3)c12

>  <score_type>  (10) 
oracle

>  <origin>  (10) 
adg

>  <m_score__min__energy>  (10) 
-6.3399999999999999

>  <m_primary>  (10) 
energy

$$$$
10:0
     RDKit          3D

 61 64  0  0  0  0  0  0  0  0999 V2000
   -2.5570   20.4540  -27.7410 C   0  0  0  0  0  0  0  0  0  0  0  0
   -2.1170   20.9440  -29.1270 C   0  0  0  0  0  0  0  0  0  0  0  0
   -3.1620   21.6930  -29.8690 N   0  0  0  0  0  0  0  0  0  0  0  0
   -3.6190   21.0310  -31.1150 C   0  0  0  0  0  0  0  0  0  0  0  0
   -3.1880   21.8100  -32.3680 C   0  0  0  0  0  0  0  0  0  0  0  0
   -4.2950   21.9070  -33.3380 N   0  0  0  0  0  0  0  0  0  0  0  0
   -5.3980   21.0360  -32.9590 C   0  0  0  0  0  0  0  0  0  0  0  0
   -5.3480   19.6510  -33.2870 C   0  0  0  0  0  0  0  0  0  0  0  0
   -4.1800   19.0530  -33.8290 C   0  0  0  0  0  0  0  0  0  0  0  0
   -4.1650   17.7170  -34.2160 C   0  0  0  0  0  0  0  0  0  0  0  0
   -5.3050   16.9430  -34.0850 C   0  0  0  0  0  0  0  0  0  0  0  0
   -6.4570   17.4890  -33.5290 C   0  0  0  0  0  0  0  0  0  0  0  0
   -6.4920   18.8340  -33.0760 C   0  0  0  0  0  0  0  0  0  0  0  0
   -7.6140   19.3520  -32.4670 N   0  0  0  0  0  0  0  0  0  0  0  0
   -8.6790   18.4380  -31.9880 C   0  0  0  0  0  0  0  0  0  0  0  0
   -7.7280   20.7100  -32.2520 C   0  0  0  0  0  0  0  0  0  0  0  0
   -8.9810   21.2830  -31.9260 C   0  0  0  0  0  0  0  0  0  0  0  0
   -9.0960   22.6230  -31.5940 C   0  0  0  0  0  0  0  0  0  0  0  0
   -7.9700   23.4240  -31.5430 C   0  0  0  0  0  0  0  0  0  0  0  0
   -6.7080   22.9160  -31.8960 C   0  0  0  0  0  0  0  0  0  0  0  0
   -5.5700   23.7230  -31.7350 O   0  0  0  0  0  0  0  0  0  0  0  0
   -5.4630   24.8440  -30.8620 C   0  0  0  0  0  0  0  0  0  0  0  0
   -6.5920   21.5660  -32.3700 C   0  0  0  0  0  0  0  0  0  0  0  0
   -2.7670   23.0970  -30.1200 C   0  0  0  0  0  0  0  0  0  0  0  0
   -2.7530   23.8680  -28.8270 C   0  0  0  0  0  0  0  0  0  0  0  0
   -3.8690   23.8560  -27.9720 C   0  0  0  0  0  0  0  0  0  0  0  0
   -3.8410   24.5660  -26.7670 C   0  0  0  0  0  0  0  0  0  0  0  0
   -2.7000   25.2880  -26.4060 C   0  0  0  0  0  0  0  0  0  0  0  0
   -1.5850   25.3010  -27.2490 C   0  0  0  0  0  0  0  0  0  0  0  0
   -1.6090   24.5920  -28.4550 C   0  0  0  0  0  0  0  0  0  0  0  0
   -2.0363   21.0339  -26.9647 H   0  0  0  0  0  0  0  0  0  0  0  0
   -3.6433   20.5885  -27.6324 H   0  0  0  0  0  0  0  0  0  0  0  0
   -2.3068   19.3884  -27.6324 H   0  0  0  0  0  0  0  0  0  0  0  0
   -1.2457   21.6032  -28.9990 H   0  0  0  0  0  0  0  0  0  0  0  0
   -1.8898   20.0468  -29.7214 H   0  0  0  0  0  0  0  0  0  0  0  0
   -3.1884   20.0197  -31.1591 H   0  0  0  0  0  0  0  0  0  0  0  0
   -4.7182   20.9931  -31.0980 H   0  0  0  0  0  0  0  0  0  0  0  0
   -2.8789   22.8235  -32.0726 H   0  0  0  0  0  0  0  0  0  0  0  0
   -2.3524   21.2748  -32.8428 H   0  0  0  0  0  0  0  0  0  0  0  0
   -3.9470   21.6740  -34.2950 H   0  0  0  0  0  0  0  0  0  0  0  0
   -4.6220   22.8880  -33.4680 H   0  0  0  0  0  0  0  0  0  0  0  0
   -3.2688   19.6582  -33.9452 H   0  0  0  0  0  0  0  0  0  0  0  0
   -3.2454   17.2748  -34.6269 H   0  0  0  0  0  0  0  0  0  0  0  0
   -5.2999   15.8955  -34.4208 H   0  0  0  0  0  0  0  0  0  0  0  0
   -7.3591   16.8662  -33.4384 H   0  0  0  0  0  0  0  0  0  0  0  0
   -8.6881   18.4302  -30.8881 H   0  0  0  0  0  0  0  0  0  0  0  0
   -9.6544   18.7845  -32.3603 H   0  0  0  0  0  0  0  0  0  0  0  0
   -8.4845   17.4214  -32.3603 H   0  0  0  0  0  0  0  0  0  0  0  0
   -9.8815   20.6513  -31.9366 H   0  0  0  0  0  0  0  0  0  0  0  0
  -10.0846   23.0505  -31.3706 H   0  0  0  0  0  0  0  0  0  0  0  0
   -8.0632   24.4720  -31.2221 H   0  0  0  0  0  0  0  0  0  0  0  0
   -5.4958   24.4999  -29.8177 H   0  0  0  0  0  0  0  0  0  0  0  0
   -4.5112   25.3634  -31.0472 H   0  0  0  0  0  0  0  0  0  0  0  0
   -6.2994   25.5341  -31.0472 H   0  0  0  0  0  0  0  0  0  0  0  0
   -1.7623   23.1181  -30.5674 H   0  0  0  0  0  0  0  0  0  0  0  0
   -3.4917   23.5582  -30.8071 H   0  0  0  0  0  0  0  0  0  0  0  0
   -4.7674   23.2862  -28.2516 H   0  0  0  0  0  0  0  0  0  0  0  0
   -4.7179   24.5561  -26.1029 H   0  0  0  0  0  0  0  0  0  0  0  0
   -2.6794   25.8461  -25.4583 H   0  0  0  0  0  0  0  0  0  0  0  0
   -0.6875   25.8694  -26.9638 H   0  0  0  0  0  0  0  0  0  0  0  0
   -0.7284   24.6019  -29.1141 H   0  0  0  0  0  0  0  0  0  0  0  0
  1  2  1  0
  2  3  1  0
  3  4  1  0
  4  5  1  0
  5  6  1  0
  6  7  1  0
  7  8  1  0
  8  9  2  0
  9 10  1  0
 10 11  2  0
 11 12  1  0
 12 13  2  0
 13 14  1  0
 14 15  1  0
 14 16  2  0
 16 17  1  0
 17 18  2  0
 18 19  1  0
 19 20  2  0
 20 21  1  0
 21 22  1  0
 20 23  1  0
  3 24  1  0
 24 25  1  0
 25 26  2  0
 26 27  1  0
 27 28  2  0
 28 29  1  0
 29 30  2  0
 23  7  2  0
 30 25  1  0
 13  8  1  0
 23 16  1  0
  1 31  1  0
  1 32  1  0
  1 33  1  0
  2 34  1  0
  2 35  1  0
  4 36  1  0
  4 37  1  0
  5 38  1  0
  5 39  1  0
  6 40  1  0
  6 41  1  0
  9 42  1  0
 10 43  1  0
 11 44  1  0
 12 45  1  0
 15 46  1  0
 15 47  1  0
 15 48  1  0
 17 49  1  0
 18 50  1  0
 19 51  1  0
 22 52  1  0
 22 53  1  0
 22 54  1  0
 24 55  1  0
 24 56  1  0
 26 57  1  0
 27 58  1  0
 28 59  1  0
 29 60  1  0
 30 61  1  0
M  CHG  2   6   1  14   1
M  END
>  <UniqueID>  (11) 
11

>  <SMILES>  (11) 
CCN(CC[NH2+]c1c2ccccc2[n+](C)c2cccc(OC)c12)Cc1ccccc1

>  <Energy>  (11) 
99.2308542722259

>  <Genealogy>  (11) 
CCN(CC[NH2+]c1c2ccccc2[n+](C)c2cccc(OC)c12)Cc1ccccc1 (protonated)
CCN(CC[NH2+]c1c2ccccc2[n+](C)c2cccc(OC)c12)Cc1ccccc1 (3D coordinates assigned)
CCN(CC[NH2+]c1c2ccccc2[n+](C)c2cccc(OC)c12)Cc1ccccc1 (optimized conformer: 99.2308542722259 kcal/mol)

>  <smiles>  (11) 
CCN(CCNc1c2ccccc2[n+](C)c2cccc(OC)c12)Cc1ccccc1

>  <score_type>  (11) 
oracle

>  <origin>  (11) 
adg

>  <m_score__min__energy>  (11) 
-8.5800000000000001

>  <m_primary>  (11) 
energy

$$$$
11:0
     RDKit          3D

 69 72  0  0  0  0  0  0  0  0999 V2000
    2.1128   26.1010  -26.5622 H   0  0  0  0  0  0  0  0  0  0  0  0
    1.2010   25.8150  -27.1070 C   0  0  0  0  0  0  0  0  0  0  0  0
    1.0740   24.5460  -27.5950 N   0  0  0  0  0  0  0  0  0  0  0  0
   -0.0470   24.2010  -28.2720 C   0  0  0  0  0  0  0  0  0  0  0  0
   -0.4060   22.7000  -28.9370 S   0  0  0  0  0  0  0  0  0  0  0  0
   -1.9310   23.1670  -29.5320 C   0  0  0  0  0  0  0  0  0  0  0  0
   -2.9180   22.4360  -30.2350 C   0  0  0  0  0  0  0  0  0  0  0  0
   -2.7870   21.1820  -30.5850 N   0  0  0  0  0  0  0  0  0  0  0  0
   -1.6130   20.4830  -31.0980 C   0  0  0  0  0  0  0  0  0  0  0  0
   -0.8693   21.2206  -31.4339 H   0  0  0  0  0  0  0  0  0  0  0  0
   -1.1892   19.8591  -30.2973 H   0  0  0  0  0  0  0  0  0  0  0  0
   -2.0030   19.5850  -32.2770 C   0  0  0  0  0  0  0  0  0  0  0  0
   -1.2349   18.8081  -32.4051 H   0  0  0  0  0  0  0  0  0  0  0  0
   -2.9818   19.1325  -32.0599 H   0  0  0  0  0  0  0  0  0  0  0  0
   -2.1160   20.3640  -33.5330 N   0  0  0  0  0  0  0  0  0  0  0  0
   -3.2920   21.2470  -33.4800 C   0  0  0  0  0  0  0  0  0  0  0  0
   -3.5551   21.4446  -32.4304 H   0  0  0  0  0  0  0  0  0  0  0  0
   -3.0607   22.1965  -33.9850 H   0  0  0  0  0  0  0  0  0  0  0  0
   -4.1392   20.7600  -33.9850 H   0  0  0  0  0  0  0  0  0  0  0  0
   -0.9080   21.1720  -33.7730 C   0  0  0  0  0  0  0  0  0  0  0  0
   -0.4668   21.4671  -32.8095 H   0  0  0  0  0  0  0  0  0  0  0  0
   -0.1782   20.5796  -34.3444 H   0  0  0  0  0  0  0  0  0  0  0  0
   -1.1769   22.0727  -34.3444 H   0  0  0  0  0  0  0  0  0  0  0  0
   -4.1140   23.1250  -30.5740 C   0  0  0  0  0  0  0  0  0  0  0  0
   -5.1670   22.4860  -31.2640 C   0  0  0  0  0  0  0  0  0  0  0  0
   -5.0679   21.4279  -31.5479 H   0  0  0  0  0  0  0  0  0  0  0  0
   -6.3430   23.1880  -31.5930 C   0  0  0  0  0  0  0  0  0  0  0  0
   -7.4090   22.5870  -32.2790 O   0  0  0  0  0  0  0  0  0  0  0  0
   -8.5250   21.9650  -31.6510 C   0  0  0  0  0  0  0  0  0  0  0  0
   -8.4128   22.0275  -30.5585 H   0  0  0  0  0  0  0  0  0  0  0  0
   -9.4495   22.4780  -31.9546 H   0  0  0  0  0  0  0  0  0  0  0  0
   -8.5750   20.9089  -31.9546 H   0  0  0  0  0  0  0  0  0  0  0  0
   -6.4670   24.5310  -31.2260 C   0  0  0  0  0  0  0  0  0  0  0  0
   -7.3848   25.0819  -31.4792 H   0  0  0  0  0  0  0  0  0  0  0  0
   -5.4390   25.1800  -30.5420 C   0  0  0  0  0  0  0  0  0  0  0  0
   -5.5511   26.2378  -30.2617 H   0  0  0  0  0  0  0  0  0  0  0  0
   -4.2680   24.4940  -30.2110 C   0  0  0  0  0  0  0  0  0  0  0  0
   -3.2820   25.1470  -29.5380 N   0  0  0  0  0  0  0  0  0  0  0  0
   -2.1380   24.5070  -29.1990 C   0  0  0  0  0  0  0  0  0  0  0  0
   -1.0810   25.0880  -28.4930 C   0  0  0  0  0  0  0  0  0  0  0  0
   -0.9860   26.3950  -28.0130 C   0  0  0  0  0  0  0  0  0  0  0  0
   -1.7944   27.1197  -28.1900 H   0  0  0  0  0  0  0  0  0  0  0  0
    0.1700   26.7650  -27.2960 C   0  0  0  0  0  0  0  0  0  0  0  0
    0.3190   28.1680  -26.7640 C   0  0  0  0  0  0  0  0  0  0  0  0
    1.3891   28.4078  -26.6782 H   0  0  0  0  0  0  0  0  0  0  0  0
   -0.1780   28.8599  -27.4599 H   0  0  0  0  0  0  0  0  0  0  0  0
   -0.2870   28.2980  -25.4920 O   0  0  0  0  0  0  0  0  0  0  0  0
   -0.5450   27.0310  -24.9120 C   0  0  0  0  0  0  0  0  0  0  0  0
   -1.6025   26.7720  -25.0686 H   0  0  0  0  0  0  0  0  0  0  0  0
    0.1082   26.2863  -25.3902 H   0  0  0  0  0  0  0  0  0  0  0  0
   -0.2490   27.0470  -23.4040 C   0  0  0  0  0  0  0  0  0  0  0  0
   -0.8033   27.8782  -22.9437 H   0  0  0  0  0  0  0  0  0  0  0  0
   -0.5614   26.0770  -22.9898 H   0  0  0  0  0  0  0  0  0  0  0  0
    1.2100   27.2210  -23.1120 N   0  0  2  0  0  0  0  0  0  0  0  0
    1.4660   26.7140  -22.2300 H   0  0  0  0  0  0  0  0  0  0  0  0
    1.4860   28.6520  -22.8540 C   0  0  0  0  0  0  0  0  0  0  0  0
    1.5201   28.8290  -21.7689 H   0  0  0  0  0  0  0  0  0  0  0  0
    2.4534   28.9252  -23.3007 H   0  0  0  0  0  0  0  0  0  0  0  0
    0.6896   29.2654  -23.3007 H   0  0  0  0  0  0  0  0  0  0  0  0
    2.0600   26.6660  -24.2130 C   0  0  0  0  0  0  0  0  0  0  0  0
    1.4207   26.6695  -25.1081 H   0  0  0  0  0  0  0  0  0  0  0  0
    3.3170   27.5220  -24.4940 C   0  0  0  0  0  0  0  0  0  0  0  0
    3.7708   27.8310  -23.5408 H   0  0  0  0  0  0  0  0  0  0  0  0
    4.0427   26.9296  -25.0705 H   0  0  0  0  0  0  0  0  0  0  0  0
    3.0316   28.4143  -25.0705 H   0  0  0  0  0  0  0  0  0  0  0  0
    2.5320   25.2330  -23.8770 C   0  0  0  0  0  0  0  0  0  0  0  0
    2.5734   25.1072  -22.7850 H   0  0  0  0  0  0  0  0  0  0  0  0
    1.8262   24.5050  -24.3034 H   0  0  0  0  0  0  0  0  0  0  0  0
    3.5323   25.0670  -24.3034 H   0  0  0  0  0  0  0  0  0  0  0  0
  1  2  1  0
  2  3  2  0
  3  4  1  0
  4  5  1  0
  5  6  1  0
  6  7  1  0
  7  8  2  0
  8  9  1  0
  9 10  1  0
  9 11  1  0
  9 12  1  0
 12 13  1  0
 12 14  1  0
 12 15  1  0
 15 16  1  0
 16 17  1  0
 16 18  1  0
 16 19  1  0
 15 20  1  0
 20 21  1  0
 20 22  1  0
 20 23  1  0
  7 24  1  0
 24 25  2  0
 25 26  1  0
 25 27  1  0
 27 28  1  0
 28 29  1  0
 29 30  1  0
 29 31  1  0
 29 32  1  0
 27 33  2  0
 33 34  1  0
 33 35  1  0
 35 36  1  0
 35 37  2  0
 37 38  1  0
 38 39  1  0
 39 40  1  0
 40 41  1  0
 41 42  1  0
 41 43  2  0
 43 44  1  0
 44 45  1  0
 44 46  1  0
 44 47  1  0
 47 48  1  0
 48 49  1  0
 48 50  1  0
 48 51  1  0
 51 52  1  0
 51 53  1  0
 51 54  1  0
 54 55  1  1
 54 56  1  0
 56 57  1  0
 56 58  1  0
 56 59  1  0
 54 60  1  0
 60 61  1  0
 60 62  1  0
 62 63  1  0
 62 64  1  0
 62 65  1  0
 60 66  1  0
 66 67  1  0
 66 68  1  0
 66 69  1  0
 43  2  1  0
 40  4  2  0
 39  6  2  0
 37 24  1  0
M  CHG  2  38  -1  54   1
M  END
>  <UniqueID>  (12) 
12

>  <SMILES>  (12) 
COc1ccc2[n-]c3c(sc4ncc(COCC[N@H+](C)C(C)C)cc43)/c(=N\CCN(C)C)c2c1

>  <Energy>  (12) 
126.7974145759635

>  <Genealogy>  (12) 
COc1ccc2[n-]c3c(sc4ncc(COCC[NH+](C)C(C)C)cc43)c(=NCCN(C)C)c2c1 (protonated)
COc1ccc2[n-]c3c(sc4ncc(COCC[N@H+](C)C(C)C)cc43)c(=NCCN(C)C)c2c1 (chirality)
COc1ccc2[n-]c3c(sc4ncc(COCC[N@H+](C)C(C)C)cc43)/c(=N\CCN(C)C)c2c1 (cis-trans isomerization)
COc1ccc2[n-]c3c(sc4ncc(COCC[N@H+](C)C(C)C)cc43)/c(=N\CCN(C)C)c2c1 (3D coordinates assigned)
COc1ccc2[n-]c3c(sc4ncc(COCC[N@H+](C)C(C)C)cc43)/c(=N\CCN(C)C)c2c1 (optimized conformer: 126.7974145759635 kcal/mol)

>  <smiles>  (12) 
COc1ccc2[nH]c3c(sc4ncc(COCCN(C)C(C)C)cc43)c(=NCCN(C)C)c2c1

>  <score_type>  (12) 
oracle

>  <origin>  (12) 
adg

>  <m_score__min__energy>  (12) 
-10.029999999999999

>  <m_primary>  (12) 
energy

$$$$
12:0
     RDKit          3D

 50 53  0  0  0  0  0  0  0  0999 V2000
   -2.7990   17.0120  -34.1540 C   0  0  0  0  0  0  0  0  0  0  0  0
   -3.7570   18.1120  -34.1000 N   0  0  0  0  0  0  0  0  0  0  0  0
   -5.0480   18.0590  -34.4630 C   0  0  0  0  0  0  0  0  0  0  0  0
   -5.6100   19.2960  -34.2330 C   0  0  0  0  0  0  0  0  0  0  0  0
   -4.6700   20.1150  -33.7280 N   0  0  0  0  0  0  0  0  0  0  0  0
   -3.5510   19.3720  -33.6520 C   0  0  0  0  0  0  0  0  0  0  0  0
   -2.2360   19.9070  -33.1450 C   0  0  0  0  0  0  0  0  0  0  0  0
   -2.3600   21.2960  -32.6820 N   0  0  0  0  0  0  0  0  0  0  0  0
   -2.0670   21.4180  -31.2430 C   0  0  0  0  0  0  0  0  0  0  0  0
   -3.3750   21.5270  -30.4240 C   0  0  2  0  0  0  0  0  0  0  0  0
   -4.6150   20.9490  -31.1860 C   0  0  0  0  0  0  0  0  0  0  0  0
   -5.4910   22.0890  -31.5800 N   0  0  0  0  0  0  0  0  0  0  0  0
   -6.8700   22.1200  -31.0230 C   0  0  0  0  0  0  0  0  0  0  0  0
   -7.8190   21.0270  -31.4910 C   0  0  0  0  0  0  0  0  0  0  0  0
   -7.3860   19.6890  -31.5310 C   0  0  0  0  0  0  0  0  0  0  0  0
   -8.2380   18.6870  -32.0010 C   0  0  0  0  0  0  0  0  0  0  0  0
   -9.5130   19.0300  -32.4590 C   0  0  0  0  0  0  0  0  0  0  0  0
   -9.9100   20.3290  -32.4570 N   0  0  0  0  0  0  0  0  0  0  0  0
   -9.0990   21.3240  -31.9990 C   0  0  0  0  0  0  0  0  0  0  0  0
   -4.6260   23.2510  -31.3650 C   0  0  1  0  0  0  0  0  0  0  0  0
   -5.0670   24.6690  -31.0790 C   0  0  0  0  0  0  0  0  0  0  0  0
   -3.9560   25.2810  -30.4210 O   0  0  0  0  0  0  0  0  0  0  0  0
   -3.0480   24.2400  -30.0610 C   0  0  0  0  0  0  0  0  0  0  0  0
   -3.8390   22.9530  -30.1660 C   0  0  2  0  0  0  0  0  0  0  0  0
   -2.5332   16.7068  -33.1312 H   0  0  0  0  0  0  0  0  0  0  0  0
   -3.2482   16.1603  -34.6858 H   0  0  0  0  0  0  0  0  0  0  0  0
   -1.8937   17.3400  -34.6858 H   0  0  0  0  0  0  0  0  0  0  0  0
   -5.5675   17.1804  -34.8731 H   0  0  0  0  0  0  0  0  0  0  0  0
   -6.6571   19.5693  -34.4303 H   0  0  0  0  0  0  0  0  0  0  0  0
   -4.7880   21.1170  -33.4560 H   0  0  0  0  0  0  0  0  0  0  0  0
   -1.8947   19.2806  -32.3076 H   0  0  0  0  0  0  0  0  0  0  0  0
   -1.5125   19.8835  -33.9732 H   0  0  0  0  0  0  0  0  0  0  0  0
   -1.6690   21.8590  -33.2290 H   0  0  0  0  0  0  0  0  0  0  0  0
   -1.5072   20.5307  -30.9123 H   0  0  0  0  0  0  0  0  0  0  0  0
   -1.4717   22.3286  -31.0801 H   0  0  0  0  0  0  0  0  0  0  0  0
   -3.1022   20.9869  -29.5053 H   0  0  0  0  0  0  0  0  0  0  0  0
   -4.2816   20.4077  -32.0837 H   0  0  0  0  0  0  0  0  0  0  0  0
   -5.1670   20.2506  -30.5398 H   0  0  0  0  0  0  0  0  0  0  0  0
   -6.7894   22.0457  -29.9285 H   0  0  0  0  0  0  0  0  0  0  0  0
   -7.3088   23.0604  -31.3878 H   0  0  0  0  0  0  0  0  0  0  0  0
   -6.3723   19.4309  -31.1907 H   0  0  0  0  0  0  0  0  0  0  0  0
   -7.9085   17.6376  -32.0106 H   0  0  0  0  0  0  0  0  0  0  0  0
  -10.1957   18.2473  -32.8214 H   0  0  0  0  0  0  0  0  0  0  0  0
   -9.4467   22.3673  -32.0262 H   0  0  0  0  0  0  0  0  0  0  0  0
   -4.2176   23.3211  -32.3840 H   0  0  0  0  0  0  0  0  0  0  0  0
   -5.2994   25.1971  -32.0156 H   0  0  0  0  0  0  0  0  0  0  0  0
   -5.9779   24.7001  -30.4631 H   0  0  0  0  0  0  0  0  0  0  0  0
   -2.1920   24.2217  -30.7516 H   0  0  0  0  0  0  0  0  0  0  0  0
   -2.6426   24.3864  -29.0489 H   0  0  0  0  0  0  0  0  0  0  0  0
   -4.1678   22.8213  -29.1246 H   0  0  0  0  0  0  0  0  0  0  0  0
  1  2  1  0
  2  3  1  0
  3  4  2  0
  4  5  1  0
  5  6  2  0
  6  7  1  0
  7  8  1  0
  8  9  1  0
  9 10  1  0
 10 11  1  0
 11 12  1  0
 12 13  1  0
 13 14  1  0
 14 15  2  0
 15 16  1  0
 16 17  2  0
 17 18  1  0
 18 19  2  0
 12 20  1  0
 20 21  1  0
 21 22  1  0
 22 23  1  0
 23 24  1  0
  6  2  1  0
 24 10  1  0
 19 14  1  0
 24 20  1  0
  1 25  1  0
  1 26  1  0
  1 27  1  0
  3 28  1  0
  4 29  1  0
  5 30  1  0
  7 31  1  0
  7 32  1  0
  8 33  1  0
  9 34  1  0
  9 35  1  0
 10 36  1  1
 11 37  1  0
 11 38  1  0
 13 39  1  0
 13 40  1  0
 15 41  1  0
 16 42  1  0
 17 43  1  0
 19 44  1  0
 20 45  1  6
 21 46  1  0
 21 47  1  0
 23 48  1  0
 23 49  1  0
 24 50  1  1
M  CHG  1   5   1
M  END
>  <UniqueID>  (13) 
13

>  <SMILES>  (13) 
Cn1cc[nH+]c1CNC[C@@H]1CN(Cc2cccnc2)[C@H]2COCC12

>  <Energy>  (13) 
132.4798309258425

>  <Genealogy>  (13) 
Cn1cc[nH+]c1CNCC1CN(Cc2cccnc2)C2COCC12 (protonated)
Cn1cc[nH+]c1CNC[C@@H]1CN(Cc2cccnc2)[C@H]2COCC12 (chirality)
Cn1cc[nH+]c1CNC[C@@H]1CN(Cc2cccnc2)[C@H]2COCC12 (3D coordinates assigned)
Cn1cc[nH+]c1CNC[C@@H]1CN(Cc2cccnc2)[C@H]2COCC12 (nonaromatic ring conformer: 132.4798309258425 kcal/mol)

>  <smiles>  (13) 
Cn1ccnc1CNCC1CN(Cc2cccnc2)C2COCC12

>  <score_type>  (13) 
oracle

>  <origin>  (13) 
adg

>  <m_score__min__energy>  (13) 
-7.6600000000000001

>  <m_primary>  (13) 
energy

$$$$
13:0
     RDKit          3D

 47 50  0  0  0  0  0  0  0  0999 V2000
    0.1080   19.9690  -34.3730 C   0  0  0  0  0  0  0  0  0  0  0  0
   -1.1290   19.1470  -34.2380 C   0  0  0  0  0  0  0  0  0  0  0  0
   -1.2540   17.7560  -34.3400 C   0  0  0  0  0  0  0  0  0  0  0  0
   -2.4940   17.3810  -34.0500 O   0  0  0  0  0  0  0  0  0  0  0  0
   -3.1520   18.4740  -33.7600 C   0  0  0  0  0  0  0  0  0  0  0  0
   -2.3770   19.5620  -33.8500 C   0  0  0  0  0  0  0  0  0  0  0  0
   -3.1380   20.7350  -33.4670 C   0  0  0  0  0  0  0  0  0  0  0  0
   -2.7350   21.9270  -33.4310 O   0  0  0  0  0  0  0  0  0  0  0  0
   -4.4840   20.2220  -33.1380 C   0  0  0  0  0  0  0  0  0  0  0  0
   -5.6260   20.9000  -32.7350 C   0  0  0  0  0  0  0  0  0  0  0  0
   -5.5920   22.3260  -32.5860 N   0  0  0  0  0  0  0  0  0  0  0  0
   -5.9440   22.9360  -31.3040 C   0  0  0  0  0  0  0  0  0  0  0  0
   -5.3560   24.3570  -31.1520 C   0  0  0  0  0  0  0  0  0  0  0  0
   -4.0530   24.4330  -30.4510 N   0  0  0  0  0  0  0  0  0  0  0  0
   -4.1770   24.5150  -28.9870 C   0  0  0  0  0  0  0  0  0  0  0  0
   -3.1060   23.3850  -30.8540 C   0  0  0  0  0  0  0  0  0  0  0  0
   -6.7920   20.1390  -32.4810 C   0  0  0  0  0  0  0  0  0  0  0  0
   -7.9640   20.7570  -32.0040 C   0  0  0  0  0  0  0  0  0  0  0  0
   -9.1110   20.0070  -31.7520 C   0  0  0  0  0  0  0  0  0  0  0  0
   -9.1090   18.6320  -31.9600 C   0  0  0  0  0  0  0  0  0  0  0  0
   -7.9580   17.9890  -32.4160 C   0  0  0  0  0  0  0  0  0  0  0  0
   -6.7740   18.7160  -32.6860 C   0  0  0  0  0  0  0  0  0  0  0  0
   -5.6200   18.0830  -33.1250 N   0  0  0  0  0  0  0  0  0  0  0  0
   -5.5880   16.6300  -33.3640 C   0  0  0  0  0  0  0  0  0  0  0  0
   -4.5010   18.8430  -33.3230 C   0  0  0  0  0  0  0  0  0  0  0  0
    0.4903   20.2231  -33.3734 H   0  0  0  0  0  0  0  0  0  0  0  0
    0.8701   19.3971  -34.9226 H   0  0  0  0  0  0  0  0  0  0  0  0
   -0.1240   20.8932  -34.9226 H   0  0  0  0  0  0  0  0  0  0  0  0
   -0.4402   17.0712  -34.6206 H   0  0  0  0  0  0  0  0  0  0  0  0
   -5.6450   22.8980  -33.4590 H   0  0  0  0  0  0  0  0  0  0  0  0
   -7.0398   22.9964  -31.2295 H   0  0  0  0  0  0  0  0  0  0  0  0
   -5.5221   22.3089  -30.5048 H   0  0  0  0  0  0  0  0  0  0  0  0
   -5.2249   24.7797  -32.1590 H   0  0  0  0  0  0  0  0  0  0  0  0
   -6.0693   24.9155  -30.5280 H   0  0  0  0  0  0  0  0  0  0  0  0
   -3.3473   23.9663  -28.5174 H   0  0  0  0  0  0  0  0  0  0  0  0
   -4.1428   25.5691  -28.6746 H   0  0  0  0  0  0  0  0  0  0  0  0
   -5.1336   24.0708  -28.6746 H   0  0  0  0  0  0  0  0  0  0  0  0
   -2.6788   22.9123  -29.9573 H   0  0  0  0  0  0  0  0  0  0  0  0
   -3.6314   22.6268  -31.4532 H   0  0  0  0  0  0  0  0  0  0  0  0
   -2.2986   23.8311  -31.4532 H   0  0  0  0  0  0  0  0  0  0  0  0
   -7.9741   21.8429  -31.8286 H   0  0  0  0  0  0  0  0  0  0  0  0
  -10.0217   20.5045  -31.3871 H   0  0  0  0  0  0  0  0  0  0  0  0
  -10.0203   18.0480  -31.7638 H   0  0  0  0  0  0  0  0  0  0  0  0
   -7.9708   16.8996  -32.5681 H   0  0  0  0  0  0  0  0  0  0  0  0
   -5.5763   16.1000  -32.4001 H   0  0  0  0  0  0  0  0  0  0  0  0
   -6.4798   16.3326  -33.9352 H   0  0  0  0  0  0  0  0  0  0  0  0
   -4.6840   16.3722  -33.9352 H   0  0  0  0  0  0  0  0  0  0  0  0
  1  2  1  0
  2  3  2  0
  3  4  1  0
  4  5  1  0
  5  6  2  0
  6  7  1  0
  7  8  2  0
  7  9  1  0
  9 10  2  0
 10 11  1  0
 11 12  1  0
 12 13  1  0
 13 14  1  0
 14 15  1  0
 14 16  1  0
 10 17  1  0
 17 18  2  0
 18 19  1  0
 19 20  2  0
 20 21  1  0
 21 22  2  0
 22 23  1  0
 23 24  1  0
 23 25  2  0
  6  2  1  0
 25  9  1  0
 25  5  1  0
 22 17  1  0
  1 26  1  0
  1 27  1  0
  1 28  1  0
  3 29  1  0
 11 30  1  0
 12 31  1  0
 12 32  1  0
 13 33  1  0
 13 34  1  0
 15 35  1  0
 15 36  1  0
 15 37  1  0
 16 38  1  0
 16 39  1  0
 16 40  1  0
 18 41  1  0
 19 42  1  0
 20 43  1  0
 21 44  1  0
 24 45  1  0
 24 46  1  0
 24 47  1  0
M  CHG  1  23   1
M  END
>  <UniqueID>  (14) 
14

>  <SMILES>  (14) 
Cc1coc2c1C(=O)c1c(NCCN(C)C)c3ccccc3[n+](C)c1-2

>  <Energy>  (14) 
148.57778251275323

>  <Genealogy>  (14) 
Cc1coc2c1C(=O)c1c(NCCN(C)C)c3ccccc3[n+](C)c1-2 (3D coordinates assigned)
Cc1coc2c1C(=O)c1c(NCCN(C)C)c3ccccc3[n+](C)c1-2 (nonaromatic ring conformer: 148.57778251275323 kcal/mol)

>  <smiles>  (14) 
Cc1coc2c1C(=O)c1c(NCCN(C)C)c3ccccc3[n+](C)c1-2

>  <score_type>  (14) 
oracle

>  <origin>  (14) 
adg

>  <m_score__min__energy>  (14) 
-8.2400000000000002

>  <m_primary>  (14) 
energy

$$$$
14:0
     RDKit          3D

 27 29  0  0  0  0  0  0  0  0999 V2000
   -4.6900   24.8990  -30.8570 O   0  0  0  0  0  0  0  0  0  0  0  0
   -5.0260   23.7380  -31.2070 C   0  0  0  0  0  0  0  0  0  0  0  0
   -6.2250   23.2440  -30.7130 C   0  0  0  0  0  0  0  0  0  0  0  0
   -6.9650   22.1540  -31.1700 C   0  0  0  0  0  0  0  0  0  0  0  0
   -6.5910   21.2650  -32.2040 C   0  0  0  0  0  0  0  0  0  0  0  0
   -5.2570   20.9070  -32.5300 C   0  0  0  0  0  0  0  0  0  0  0  0
   -5.0140   19.5840  -32.9850 C   0  0  0  0  0  0  0  0  0  0  0  0
   -3.7700   19.1860  -33.4750 C   0  0  0  0  0  0  0  0  0  0  0  0
   -3.5590   17.5290  -34.0280 Cl  0  0  0  0  0  0  0  0  0  0  0  0
   -2.7200   20.1010  -33.5170 C   0  0  0  0  0  0  0  0  0  0  0  0
   -1.1400   19.6540  -34.1490 Cl  0  0  0  0  0  0  0  0  0  0  0  0
   -2.9130   21.3870  -33.0210 C   0  0  0  0  0  0  0  0  0  0  0  0
   -4.1450   21.7930  -32.4820 C   0  0  0  0  0  0  0  0  0  0  0  0
   -4.1560   23.0460  -31.9710 N   0  0  0  0  0  0  0  0  0  0  0  0
   -7.7650   20.5920  -32.9140 C   0  0  0  0  0  0  0  0  0  0  0  0
   -8.6880   19.9360  -31.8880 C   0  0  0  0  0  0  0  0  0  0  0  0
   -9.1120   20.9540  -30.8720 C   0  0  0  0  0  0  0  0  0  0  0  0
   -8.3090   21.9730  -30.5420 C   0  0  0  0  0  0  0  0  0  0  0  0
   -6.6457   23.7812  -29.8502 H   0  0  0  0  0  0  0  0  0  0  0  0
   -5.8324   18.8499  -32.9500 H   0  0  0  0  0  0  0  0  0  0  0  0
   -2.0793   22.1039  -33.0519 H   0  0  0  0  0  0  0  0  0  0  0  0
   -8.3290   21.3469  -33.4816 H   0  0  0  0  0  0  0  0  0  0  0  0
   -7.3802   19.8219  -33.5988 H   0  0  0  0  0  0  0  0  0  0  0  0
   -9.5764   19.5351  -32.3979 H   0  0  0  0  0  0  0  0  0  0  0  0
   -8.1527   19.1174  -31.3846 H   0  0  0  0  0  0  0  0  0  0  0  0
  -10.0970   20.8622  -30.3909 H   0  0  0  0  0  0  0  0  0  0  0  0
   -8.6481   22.6977  -29.7871 H   0  0  0  0  0  0  0  0  0  0  0  0
  1  2  2  0
  2  3  1  0
  3  4  2  0
  4  5  1  0
  5  6  2  0
  6  7  1  0
  7  8  2  0
  8  9  1  0
  8 10  1  0
 10 11  1  0
 10 12  2  0
 12 13  1  0
 13 14  2  0
  5 15  1  0
 15 16  1  0
 16 17  1  0
 17 18  2  0
 14  2  1  0
 18  4  1  0
 13  6  1  0
  3 19  1  0
  7 20  1  0
 12 21  1  0
 15 22  1  0
 15 23  1  0
 16 24  1  0
 16 25  1  0
 17 26  1  0
 18 27  1  0
M  END
>  <UniqueID>  (15) 
15

>  <SMILES>  (15) 
O=c1cc2c(c3cc(Cl)c(Cl)cc3n1)CCC=C2

>  <Energy>  (15) 
72.04557112287152

>  <Genealogy>  (15) 
O=c1cc2c(c3cc(Cl)c(Cl)cc3n1)CCC=C2 (3D coordinates assigned)
O=c1cc2c(c3cc(Cl)c(Cl)cc3n1)CCC=C2 (nonaromatic ring conformer: 72.04557112287152 kcal/mol)

>  <smiles>  (15) 
O=c1cc2c(c3cc(Cl)c(Cl)cc3n1)CCC=C2

>  <score_type>  (15) 
oracle

>  <origin>  (15) 
adg

>  <m_score__min__energy>  (15) 
-8.3599999999999994

>  <m_primary>  (15) 
energy

$$$$
15:0
     RDKit          3D

 58 60  0  0  0  0  0  0  0  0999 V2000
   -1.4330   16.6960  -33.3560 C   0  0  0  0  0  0  0  0  0  0  0  0
   -0.6190   17.0840  -34.5930 C   0  0  0  0  0  0  0  0  0  0  0  0
   -0.4840   18.5440  -34.7460 N   0  0  0  0  0  0  0  0  0  0  0  0
    0.6670   18.9150  -35.5860 C   0  0  0  0  0  0  0  0  0  0  0  0
    0.5220   20.3550  -36.1020 C   0  0  0  0  0  0  0  0  0  0  0  0
    0.1650   21.3330  -34.9770 C   0  0  0  0  0  0  0  0  0  0  0  0
   -1.0920   20.9400  -34.3290 N   0  0  0  0  0  0  0  0  0  0  0  0
   -1.0050   21.1460  -32.8800 C   0  0  0  0  0  0  0  0  0  0  0  0
   -2.4080   21.1560  -32.2680 C   0  0  0  0  0  0  0  0  0  0  0  0
   -3.4300   21.1380  -33.3150 N   0  0  0  0  0  0  0  0  0  0  0  0
   -4.7700   20.6900  -33.0560 C   0  0  0  0  0  0  0  0  0  0  0  0
   -5.1770   19.4000  -33.4360 C   0  0  0  0  0  0  0  0  0  0  0  0
   -4.3380   18.5710  -34.2100 C   0  0  0  0  0  0  0  0  0  0  0  0
   -4.7460   17.2880  -34.5710 C   0  0  0  0  0  0  0  0  0  0  0  0
   -5.9940   16.8170  -34.1780 C   0  0  0  0  0  0  0  0  0  0  0  0
   -6.8430   17.6250  -33.4210 C   0  0  0  0  0  0  0  0  0  0  0  0
   -6.4510   18.9290  -33.0320 C   0  0  0  0  0  0  0  0  0  0  0  0
   -7.2770   19.7330  -32.2760 N   0  0  0  0  0  0  0  0  0  0  0  0
   -8.3060   19.0970  -31.4280 C   0  0  0  0  0  0  0  0  0  0  0  0
   -7.0160   21.0890  -32.1710 C   0  0  0  0  0  0  0  0  0  0  0  0
   -8.0060   22.0510  -31.7860 C   0  0  0  0  0  0  0  0  0  0  0  0
   -9.4920   21.7890  -31.8510 C   0  0  0  0  0  0  0  0  0  0  0  0
   -7.6110   23.3580  -31.4650 C   0  0  0  0  0  0  0  0  0  0  0  0
   -6.2920   23.7640  -31.6260 C   0  0  0  0  0  0  0  0  0  0  0  0
   -5.3540   22.8890  -32.1570 C   0  0  0  0  0  0  0  0  0  0  0  0
   -5.7050   21.5600  -32.4640 C   0  0  0  0  0  0  0  0  0  0  0  0
   -0.8715   16.9637  -32.4488 H   0  0  0  0  0  0  0  0  0  0  0  0
   -2.3927   17.2335  -33.3652 H   0  0  0  0  0  0  0  0  0  0  0  0
   -1.6198   15.6120  -33.3652 H   0  0  0  0  0  0  0  0  0  0  0  0
    0.3855   16.6442  -34.5062 H   0  0  0  0  0  0  0  0  0  0  0  0
   -1.1526   16.7037  -35.4765 H   0  0  0  0  0  0  0  0  0  0  0  0
   -0.3510   18.9540  -33.7920 H   0  0  0  0  0  0  0  0  0  0  0  0
   -1.3650   18.9410  -35.1510 H   0  0  0  0  0  0  0  0  0  0  0  0
    1.5886   18.8360  -34.9907 H   0  0  0  0  0  0  0  0  0  0  0  0
    0.7095   18.2333  -36.4482 H   0  0  0  0  0  0  0  0  0  0  0  0
    1.4740   20.6675  -36.5559 H   0  0  0  0  0  0  0  0  0  0  0  0
   -0.2939   20.3719  -36.8396 H   0  0  0  0  0  0  0  0  0  0  0  0
    0.9720   21.3340  -34.2295 H   0  0  0  0  0  0  0  0  0  0  0  0
    0.0427   22.3381  -35.4070 H   0  0  0  0  0  0  0  0  0  0  0  0
   -1.8500   21.5620  -34.6980 H   0  0  0  0  0  0  0  0  0  0  0  0
   -0.4173   20.3318  -32.4309 H   0  0  0  0  0  0  0  0  0  0  0  0
   -0.5171   22.1116  -32.6810 H   0  0  0  0  0  0  0  0  0  0  0  0
   -2.5296   20.2685  -31.6296 H   0  0  0  0  0  0  0  0  0  0  0  0
   -2.5275   22.0737  -31.6734 H   0  0  0  0  0  0  0  0  0  0  0  0
   -3.2020   21.5380  -34.2540 H   0  0  0  0  0  0  0  0  0  0  0  0
   -3.3530   18.9404  -34.5315 H   0  0  0  0  0  0  0  0  0  0  0  0
   -4.0799   16.6473  -35.1675 H   0  0  0  0  0  0  0  0  0  0  0  0
   -6.3129   15.8041  -34.4649 H   0  0  0  0  0  0  0  0  0  0  0  0
   -7.8306   17.2438  -33.1222 H   0  0  0  0  0  0  0  0  0  0  0  0
   -8.0550   19.2521  -30.3683 H   0  0  0  0  0  0  0  0  0  0  0  0
   -9.2868   19.5466  -31.6421 H   0  0  0  0  0  0  0  0  0  0  0  0
   -8.3424   18.0187  -31.6421 H   0  0  0  0  0  0  0  0  0  0  0  0
   -9.8967   21.7176  -30.8306 H   0  0  0  0  0  0  0  0  0  0  0  0
   -9.9867   22.6138  -32.3848 H   0  0  0  0  0  0  0  0  0  0  0  0
   -9.6748   20.8448  -32.3848 H   0  0  0  0  0  0  0  0  0  0  0  0
   -8.3553   24.0710  -31.0807 H   0  0  0  0  0  0  0  0  0  0  0  0
   -5.9905   24.7803  -31.3323 H   0  0  0  0  0  0  0  0  0  0  0  0
   -4.3266   23.2371  -32.3397 H   0  0  0  0  0  0  0  0  0  0  0  0
  1  2  1  0
  2  3  1  0
  3  4  1  0
  4  5  1  0
  5  6  1  0
  6  7  1  0
  7  8  1  0
  8  9  1  0
  9 10  1  0
 10 11  1  0
 11 12  2  0
 12 13  1  0
 13 14  2  0
 14 15  1  0
 15 16  2  0
 16 17  1  0
 17 18  2  0
 18 19  1  0
 18 20  1  0
 20 21  2  0
 21 22  1  0
 21 23  1  0
 23 24  2  0
 24 25  1  0
 25 26  2  0
 26 11  1  0
 17 12  1  0
 26 20  1  0
  1 27  1  0
  1 28  1  0
  1 29  1  0
  2 30  1  0
  2 31  1  0
  3 32  1  0
  3 33  1  0
  4 34  1  0
  4 35  1  0
  5 36  1  0
  5 37  1  0
  6 38  1  0
  6 39  1  0
  7 40  1  0
  8 41  1  0
  8 42  1  0
  9 43  1  0
  9 44  1  0
 10 45  1  0
 13 46  1  0
 14 47  1  0
 15 48  1  0
 16 49  1  0
 19 50  1  0
 19 51  1  0
 19 52  1  0
 22 53  1  0
 22 54  1  0
 22 55  1  0
 23 56  1  0
 24 57  1  0
 25 58  1  0
M  CHG  2   3   1  18   1
M  END
>  <UniqueID>  (16) 
16

>  <SMILES>  (16) 
CC[NH2+]CCCNCCNc1c2ccccc2[n+](C)c2c(C)cccc12

>  <Energy>  (16) 
84.3876847334864

>  <Genealogy>  (16) 
CC[NH2+]CCCNCCNc1c2ccccc2[n+](C)c2c(C)cccc12 (protonated)
CC[NH2+]CCCNCCNc1c2ccccc2[n+](C)c2c(C)cccc12 (3D coordinates assigned)
CC[NH2+]CCCNCCNc1c2ccccc2[n+](C)c2c(C)cccc12 (optimized conformer: 84.3876847334864 kcal/mol)

>  <smiles>  (16) 
CCNCCCNCCNc1c2ccccc2[n+](C)c2c(C)cccc12

>  <score_type>  (16) 
oracle

>  <origin>  (16) 
adg

>  <m_score__min__energy>  (16) 
-9.0099999999999998

>  <m_primary>  (16) 
energy

$$$$
16:0
     RDKit          3D

 53 55  0  0  0  0  0  0  0  0999 V2000
   -3.3910   24.0610  -27.9420 C   0  0  0  0  0  0  0  0  0  0  0  0
   -2.9050   24.5660  -29.2970 C   0  0  0  0  0  0  0  0  0  0  0  0
   -3.8890   24.2260  -30.3500 N   0  0  0  0  0  0  0  0  0  0  0  0
   -4.8930   25.3000  -30.5400 C   0  0  0  0  0  0  0  0  0  0  0  0
   -6.1080   25.0900  -29.6410 C   0  0  0  0  0  0  0  0  0  0  0  0
   -4.4840   22.8820  -30.1560 C   0  0  0  0  0  0  0  0  0  0  0  0
   -3.7500   21.7440  -30.9130 C   0  0  0  0  0  0  0  0  0  0  0  0
   -3.3360   22.1750  -32.3420 C   0  0  0  0  0  0  0  0  0  0  0  0
   -4.2320   21.7220  -33.4430 N   0  0  0  0  0  0  0  0  0  0  0  0
   -5.3310   20.8490  -33.0530 C   0  0  0  0  0  0  0  0  0  0  0  0
   -6.5440   21.4290  -32.5860 C   0  0  0  0  0  0  0  0  0  0  0  0
   -6.6450   22.8180  -32.3150 C   0  0  0  0  0  0  0  0  0  0  0  0
   -7.8410   23.3880  -31.8910 C   0  0  0  0  0  0  0  0  0  0  0  0
   -8.9710   22.6010  -31.7410 C   0  0  0  0  0  0  0  0  0  0  0  0
   -8.9030   21.2330  -31.9850 C   0  0  0  0  0  0  0  0  0  0  0  0
   -7.6860   20.6120  -32.3750 C   0  0  0  0  0  0  0  0  0  0  0  0
   -7.6140   19.2530  -32.5830 N   0  0  0  0  0  0  0  0  0  0  0  0
   -8.7120   18.3760  -32.1130 C   0  0  0  0  0  0  0  0  0  0  0  0
   -6.5040   18.6980  -33.1840 C   0  0  0  0  0  0  0  0  0  0  0  0
   -6.5580   17.3890  -33.7210 C   0  0  0  0  0  0  0  0  0  0  0  0
   -5.4250   16.7680  -34.2190 C   0  0  0  0  0  0  0  0  0  0  0  0
   -4.2020   17.4080  -34.1550 C   0  0  0  0  0  0  0  0  0  0  0  0
   -4.1020   18.7160  -33.6750 C   0  0  0  0  0  0  0  0  0  0  0  0
   -2.2740   19.2580  -33.3900 Br  0  0  0  0  0  0  0  0  0  0  0  0
   -5.2850   19.4380  -33.2950 C   0  0  0  0  0  0  0  0  0  0  0  0
   -2.8691   24.6033  -27.1399 H   0  0  0  0  0  0  0  0  0  0  0  0
   -4.4743   24.2306  -27.8546 H   0  0  0  0  0  0  0  0  0  0  0  0
   -3.1800   22.9850  -27.8546 H   0  0  0  0  0  0  0  0  0  0  0  0
   -2.7802   25.6581  -29.2547 H   0  0  0  0  0  0  0  0  0  0  0  0
   -1.9433   24.0881  -29.5353 H   0  0  0  0  0  0  0  0  0  0  0  0
   -4.4314   26.2686  -30.2978 H   0  0  0  0  0  0  0  0  0  0  0  0
   -5.2289   25.2793  -31.5873 H   0  0  0  0  0  0  0  0  0  0  0  0
   -5.7979   25.1436  -28.5870 H   0  0  0  0  0  0  0  0  0  0  0  0
   -6.8540   25.8725  -29.8440 H   0  0  0  0  0  0  0  0  0  0  0  0
   -6.5480   24.1025  -29.8440 H   0  0  0  0  0  0  0  0  0  0  0  0
   -4.4654   22.6488  -29.0812 H   0  0  0  0  0  0  0  0  0  0  0  0
   -5.5038   22.9266  -30.5659 H   0  0  0  0  0  0  0  0  0  0  0  0
   -2.8470   21.4666  -30.3495 H   0  0  0  0  0  0  0  0  0  0  0  0
   -4.4401   20.8918  -31.0002 H   0  0  0  0  0  0  0  0  0  0  0  0
   -3.3016   23.2742  -32.3660 H   0  0  0  0  0  0  0  0  0  0  0  0
   -2.3658   21.6918  -32.5296 H   0  0  0  0  0  0  0  0  0  0  0  0
   -4.6240   22.5630  -33.9240 H   0  0  0  0  0  0  0  0  0  0  0  0
   -3.6820   21.3040  -34.2210 H   0  0  0  0  0  0  0  0  0  0  0  0
   -5.7591   23.4575  -32.4428 H   0  0  0  0  0  0  0  0  0  0  0  0
   -7.8895   24.4654  -31.6745 H   0  0  0  0  0  0  0  0  0  0  0  0
   -9.9219   23.0576  -31.4290 H   0  0  0  0  0  0  0  0  0  0  0  0
   -9.8095   20.6199  -31.8738 H   0  0  0  0  0  0  0  0  0  0  0  0
   -8.7267   18.3643  -31.0132 H   0  0  0  0  0  0  0  0  0  0  0  0
   -9.6727   18.7581  -32.4885 H   0  0  0  0  0  0  0  0  0  0  0  0
   -8.5517   17.3546  -32.4885 H   0  0  0  0  0  0  0  0  0  0  0  0
   -7.5193   16.8547  -33.7430 H   0  0  0  0  0  0  0  0  0  0  0  0
   -5.4985   15.7654  -34.6655 H   0  0  0  0  0  0  0  0  0  0  0  0
   -3.2953   16.8806  -34.4864 H   0  0  0  0  0  0  0  0  0  0  0  0
  1  2  1  0
  2  3  1  0
  3  4  1  0
  4  5  1  0
  3  6  1  0
  6  7  1  0
  7  8  1  0
  8  9  1  0
  9 10  1  0
 10 11  2  0
 11 12  1  0
 12 13  2  0
 13 14  1  0
 14 15  2  0
 15 16  1  0
 16 17  2  0
 17 18  1  0
 17 19  1  0
 19 20  2  0
 20 21  1  0
 21 22  2  0
 22 23  1  0
 23 24  1  0
 23 25  2  0
 25 10  1  0
 16 11  1  0
 25 19  1  0
  1 26  1  0
  1 27  1  0
  1 28  1  0
  2 29  1  0
  2 30  1  0
  4 31  1  0
  4 32  1  0
  5 33  1  0
  5 34  1  0
  5 35  1  0
  6 36  1  0
  6 37  1  0
  7 38  1  0
  7 39  1  0
  8 40  1  0
  8 41  1  0
  9 42  1  0
  9 43  1  0
 12 44  1  0
 13 45  1  0
 14 46  1  0
 15 47  1  0
 18 48  1  0
 18 49  1  0
 18 50  1  0
 20 51  1  0
 21 52  1  0
 22 53  1  0
M  CHG  2   9   1  17   1
M  END
>  <UniqueID>  (17) 
17

>  <SMILES>  (17) 
CCN(CC)CCC[NH2+]c1c2ccccc2[n+](C)c2cccc(Br)c12

>  <Energy>  (17) 
101.68701990562079

>  <Genealogy>  (17) 
CCN(CC)CCC[NH2+]c1c2ccccc2[n+](C)c2cccc(Br)c12 (protonated)
CCN(CC)CCC[NH2+]c1c2ccccc2[n+](C)c2cccc(Br)c12 (3D coordinates assigned)
CCN(CC)CCC[NH2+]c1c2ccccc2[n+](C)c2cccc(Br)c12 (optimized conformer: 101.68701990562079 kcal/mol)

>  <smiles>  (17) 
CCN(CC)CCCNc1c2ccccc2[n+](C)c2cccc(Br)c12

>  <score_type>  (17) 
oracle

>  <origin>  (17) 
adg

>  <m_score__min__energy>  (17) 
-8.5500000000000007

>  <m_primary>  (17) 
energy

$$$$
17:0
     RDKit          3D

 42 45  0  0  0  0  0  0  0  0999 V2000
   -2.9300   20.8330  -30.7080 C   0  0  0  0  0  0  0  0  0  0  0  0
   -1.8060   21.5530  -31.4410 C   0  0  0  0  0  0  0  0  0  0  0  0
   -1.6940   21.0440  -32.8130 N   0  0  0  0  0  0  0  0  0  0  0  0
   -2.1170   19.6380  -32.8990 C   0  0  0  0  0  0  0  0  0  0  0  0
   -2.8820   19.3900  -34.2020 C   0  0  0  0  0  0  0  0  0  0  0  0
   -4.2080   18.8340  -33.9120 N   0  0  0  0  0  0  0  0  0  0  0  0
   -5.3050   19.4840  -33.4350 C   0  0  0  0  0  0  0  0  0  0  0  0
   -6.3510   18.6050  -33.2400 C   0  0  0  0  0  0  0  0  0  0  0  0
   -5.8790   17.3560  -33.5890 C   0  0  0  0  0  0  0  0  0  0  0  0
   -6.4840   16.0990  -33.5620 C   0  0  0  0  0  0  0  0  0  0  0  0
   -5.7140   14.9920  -33.9550 C   0  0  0  0  0  0  0  0  0  0  0  0
   -4.3690   15.1580  -34.3530 C   0  0  0  0  0  0  0  0  0  0  0  0
   -3.4220   13.7600  -34.8260 Cl  0  0  0  0  0  0  0  0  0  0  0  0
   -3.7830   16.4360  -34.3670 C   0  0  0  0  0  0  0  0  0  0  0  0
   -4.5710   17.5290  -33.9840 C   0  0  0  0  0  0  0  0  0  0  0  0
   -7.6550   19.0340  -32.7160 C   0  0  0  0  0  0  0  0  0  0  0  0
   -8.5870   18.2040  -32.5490 O   0  0  0  0  0  0  0  0  0  0  0  0
   -7.8370   20.4740  -32.3910 C   0  0  0  0  0  0  0  0  0  0  0  0
   -9.0670   20.9430  -31.8990 C   0  0  0  0  0  0  0  0  0  0  0  0
   -9.2380   22.2940  -31.5910 C   0  0  0  0  0  0  0  0  0  0  0  0
   -8.1860   23.1930  -31.7710 C   0  0  0  0  0  0  0  0  0  0  0  0
   -6.9560   22.7460  -32.2600 C   0  0  0  0  0  0  0  0  0  0  0  0
   -6.7640   21.3900  -32.5760 C   0  0  0  0  0  0  0  0  0  0  0  0
   -5.4500   20.9150  -33.0950 C   0  0  0  0  0  0  0  0  0  0  0  0
   -4.4860   21.7160  -33.2250 O   0  0  0  0  0  0  0  0  0  0  0  0
   -2.7803   20.9289  -29.6225 H   0  0  0  0  0  0  0  0  0  0  0  0
   -3.8953   21.2813  -30.9860 H   0  0  0  0  0  0  0  0  0  0  0  0
   -2.9264   19.7687  -30.9860 H   0  0  0  0  0  0  0  0  0  0  0  0
   -2.0216   22.6313  -31.4691 H   0  0  0  0  0  0  0  0  0  0  0  0
   -0.8582   21.3755  -30.9117 H   0  0  0  0  0  0  0  0  0  0  0  0
   -2.3430   21.6070  -33.4130 H   0  0  0  0  0  0  0  0  0  0  0  0
   -1.2287   18.9898  -32.8711 H   0  0  0  0  0  0  0  0  0  0  0  0
   -2.7770   19.4111  -32.0488 H   0  0  0  0  0  0  0  0  0  0  0  0
   -2.9969   20.3410  -34.7427 H   0  0  0  0  0  0  0  0  0  0  0  0
   -2.3190   18.6737  -34.8184 H   0  0  0  0  0  0  0  0  0  0  0  0
   -7.5299   15.9789  -33.2433 H   0  0  0  0  0  0  0  0  0  0  0  0
   -6.1622   13.9874  -33.9528 H   0  0  0  0  0  0  0  0  0  0  0  0
   -2.7347   16.5738  -34.6703 H   0  0  0  0  0  0  0  0  0  0  0  0
   -9.9012   20.2405  -31.7555 H   0  0  0  0  0  0  0  0  0  0  0  0
  -10.2045   22.6507  -31.2054 H   0  0  0  0  0  0  0  0  0  0  0  0
   -8.3256   24.2565  -31.5272 H   0  0  0  0  0  0  0  0  0  0  0  0
   -6.1315   23.4608  -32.3988 H   0  0  0  0  0  0  0  0  0  0  0  0
  1  2  1  0
  2  3  1  0
  3  4  1  0
  4  5  1  0
  5  6  1  0
  6  7  1  0
  7  8  2  0
  8  9  1  0
  9 10  2  0
 10 11  1  0
 11 12  2  0
 12 13  1  0
 12 14  1  0
 14 15  2  0
  8 16  1  0
 16 17  2  0
 16 18  1  0
 18 19  2  0
 19 20  1  0
 20 21  2  0
 21 22  1  0
 22 23  2  0
 23 24  1  0
 24 25  2  0
 15  6  1  0
 23 18  1  0
 24  7  1  0
 15  9  1  0
  1 26  1  0
  1 27  1  0
  1 28  1  0
  2 29  1  0
  2 30  1  0
  3 31  1  0
  4 32  1  0
  4 33  1  0
  5 34  1  0
  5 35  1  0
 10 36  1  0
 11 37  1  0
 14 38  1  0
 19 39  1  0
 20 40  1  0
 21 41  1  0
 22 42  1  0
M  END
>  <UniqueID>  (18) 
18

>  <SMILES>  (18) 
CCNCCn1c2c(c3ccc(Cl)cc31)C(=O)c1ccccc1C2=O

>  <Energy>  (18) 
82.1819925313763

>  <Genealogy>  (18) 
CCNCCn1c2c(c3ccc(Cl)cc31)C(=O)c1ccccc1C2=O (3D coordinates assigned)
CCNCCn1c2c(c3ccc(Cl)cc31)C(=O)c1ccccc1C2=O (nonaromatic ring conformer: 82.1819925313763 kcal/mol)

>  <smiles>  (18) 
CCNCCn1c2c(c3ccc(Cl)cc31)C(=O)c1ccccc1C2=O

>  <score_type>  (18) 
oracle

>  <origin>  (18) 
adg

>  <m_score__min__energy>  (18) 
-8.8399999999999999

>  <m_primary>  (18) 
energy

$$$$
18:0
     RDKit          3D

 70 72  0  0  0  0  0  0  0  0999 V2000
   -1.8450   25.3840  -25.9600 C   0  0  0  0  0  0  0  0  0  0  0  0
   -1.7520   25.4490  -27.4830 C   0  0  0  0  0  0  0  0  0  0  0  0
   -2.1440   24.1460  -28.0720 N   0  0  0  0  0  0  0  0  0  0  0  0
   -1.0360   23.1660  -27.9950 C   0  0  0  0  0  0  0  0  0  0  0  0
   -0.5220   22.8230  -29.3940 C   0  0  0  0  0  0  0  0  0  0  0  0
   -3.3630   23.6250  -27.4090 C   0  0  0  0  0  0  0  0  0  0  0  0
   -4.5680   24.5450  -27.6650 C   0  0  0  0  0  0  0  0  0  0  0  0
   -5.2690   24.1670  -28.8340 O   0  0  0  0  0  0  0  0  0  0  0  0
   -5.9990   25.2540  -29.3780 C   0  0  0  0  0  0  0  0  0  0  0  0
   -5.5850   25.4910  -30.8300 C   0  0  0  0  0  0  0  0  0  0  0  0
   -5.0430   24.2950  -31.3760 O   0  0  0  0  0  0  0  0  0  0  0  0
   -3.7520   24.1230  -30.9400 N   0  0  0  0  0  0  0  0  0  0  0  0
   -3.4990   22.7210  -30.5680 C   0  0  0  0  0  0  0  0  0  0  0  0
   -3.4710   21.7960  -31.7980 C   0  0  0  0  0  0  0  0  0  0  0  0
   -4.5250   22.1480  -32.7760 N   0  0  0  0  0  0  0  0  0  0  0  0
   -5.5900   21.1550  -32.7830 C   0  0  0  0  0  0  0  0  0  0  0  0
   -6.9110   21.5450  -32.4190 C   0  0  0  0  0  0  0  0  0  0  0  0
   -7.2690   22.9080  -32.2370 C   0  0  0  0  0  0  0  0  0  0  0  0
   -8.5800   23.2800  -31.9530 C   0  0  0  0  0  0  0  0  0  0  0  0
   -9.5700   22.3160  -31.8550 C   0  0  0  0  0  0  0  0  0  0  0  0
   -9.2470   20.9680  -31.9940 C   0  0  0  0  0  0  0  0  0  0  0  0
   -7.9100   20.5550  -32.2350 C   0  0  0  0  0  0  0  0  0  0  0  0
   -7.5750   19.2210  -32.2910 N   0  0  0  0  0  0  0  0  0  0  0  0
   -8.4960   18.2100  -31.7230 C   0  0  0  0  0  0  0  0  0  0  0  0
   -6.3810   18.8280  -32.8640 C   0  0  0  0  0  0  0  0  0  0  0  0
   -6.1690   17.4710  -33.2110 C   0  0  0  0  0  0  0  0  0  0  0  0
   -4.9730   17.0430  -33.7570 C   0  0  0  0  0  0  0  0  0  0  0  0
   -3.9690   17.9510  -34.0280 C   0  0  0  0  0  0  0  0  0  0  0  0
   -4.1430   19.3230  -33.7730 C   0  0  0  0  0  0  0  0  0  0  0  0
   -3.1470   20.2210  -34.1880 O   0  0  0  0  0  0  0  0  0  0  0  0
   -1.7420   19.9750  -34.1390 C   0  0  0  0  0  0  0  0  0  0  0  0
   -5.3510   19.7860  -33.1410 C   0  0  0  0  0  0  0  0  0  0  0  0
   -1.0196   25.9609  -25.5173 H   0  0  0  0  0  0  0  0  0  0  0  0
   -2.8057   25.8083  -25.6329 H   0  0  0  0  0  0  0  0  0  0  0  0
   -1.7767   24.3360  -25.6329 H   0  0  0  0  0  0  0  0  0  0  0  0
   -2.4258   26.2345  -27.8557 H   0  0  0  0  0  0  0  0  0  0  0  0
   -0.7155   25.6781  -27.7716 H   0  0  0  0  0  0  0  0  0  0  0  0
   -0.2142   23.5954  -27.4032 H   0  0  0  0  0  0  0  0  0  0  0  0
   -1.4082   22.2469  -27.5189 H   0  0  0  0  0  0  0  0  0  0  0  0
    0.3903   22.2142  -29.3104 H   0  0  0  0  0  0  0  0  0  0  0  0
   -1.2919   22.2570  -29.9389 H   0  0  0  0  0  0  0  0  0  0  0  0
   -0.2948   23.7511  -29.9389 H   0  0  0  0  0  0  0  0  0  0  0  0
   -3.5860   22.6226  -27.8034 H   0  0  0  0  0  0  0  0  0  0  0  0
   -3.1801   23.5819  -26.3252 H   0  0  0  0  0  0  0  0  0  0  0  0
   -5.2507   24.4877  -26.8044 H   0  0  0  0  0  0  0  0  0  0  0  0
   -4.1962   25.5712  -27.8019 H   0  0  0  0  0  0  0  0  0  0  0  0
   -7.0744   25.0258  -29.3390 H   0  0  0  0  0  0  0  0  0  0  0  0
   -5.7868   26.1597  -28.7909 H   0  0  0  0  0  0  0  0  0  0  0  0
   -6.4650   25.7944  -31.4161 H   0  0  0  0  0  0  0  0  0  0  0  0
   -4.8246   26.2850  -30.8667 H   0  0  0  0  0  0  0  0  0  0  0  0
   -3.0390   24.5400  -31.5890 H   0  0  0  0  0  0  0  0  0  0  0  0
   -2.5282   22.6591  -30.0545 H   0  0  0  0  0  0  0  0  0  0  0  0
   -4.3171   22.3899  -29.9115 H   0  0  0  0  0  0  0  0  0  0  0  0
   -2.4891   21.8828  -32.2863 H   0  0  0  0  0  0  0  0  0  0  0  0
   -3.6531   20.7667  -31.4554 H   0  0  0  0  0  0  0  0  0  0  0  0
   -4.1160   22.2270  -33.7360 H   0  0  0  0  0  0  0  0  0  0  0  0
   -4.8960   23.1080  -32.6150 H   0  0  0  0  0  0  0  0  0  0  0  0
   -6.4947   23.6847  -32.3222 H   0  0  0  0  0  0  0  0  0  0  0  0
   -8.8302   24.3411  -31.8062 H   0  0  0  0  0  0  0  0  0  0  0  0
  -10.6118   22.6151  -31.6673 H   0  0  0  0  0  0  0  0  0  0  0  0
  -10.0411   20.2108  -31.9157 H   0  0  0  0  0  0  0  0  0  0  0  0
   -8.4562   18.2537  -30.6246 H   0  0  0  0  0  0  0  0  0  0  0  0
   -9.5219   18.4175  -32.0612 H   0  0  0  0  0  0  0  0  0  0  0  0
   -8.1940   17.2078  -32.0612 H   0  0  0  0  0  0  0  0  0  0  0  0
   -6.9744   16.7410  -33.0422 H   0  0  0  0  0  0  0  0  0  0  0  0
   -4.8210   15.9758  -33.9761 H   0  0  0  0  0  0  0  0  0  0  0  0
   -3.0175   17.5955  -34.4502 H   0  0  0  0  0  0  0  0  0  0  0  0
   -1.4161   19.9179  -33.0899 H   0  0  0  0  0  0  0  0  0  0  0  0
   -1.5184   19.0240  -34.6447 H   0  0  0  0  0  0  0  0  0  0  0  0
   -1.2086   20.7934  -34.6447 H   0  0  0  0  0  0  0  0  0  0  0  0
  1  2  1  0
  2  3  1  0
  3  4  1  0
  4  5  1  0
  3  6  1  0
  6  7  1  0
  7  8  1  0
  8  9  1  0
  9 10  1  0
 10 11  1  0
 11 12  1  0
 12 13  1  0
 13 14  1  0
 14 15  1  0
 15 16  1  0
 16 17  2  0
 17 18  1  0
 18 19  2  0
 19 20  1  0
 20 21  2  0
 21 22  1  0
 22 23  2  0
 23 24  1  0
 23 25  1  0
 25 26  2  0
 26 27  1  0
 27 28  2  0
 28 29  1  0
 29 30  1  0
 30 31  1  0
 29 32  2  0
 32 16  1  0
 22 17  1  0
 32 25  1  0
  1 33  1  0
  1 34  1  0
  1 35  1  0
  2 36  1  0
  2 37  1  0
  4 38  1  0
  4 39  1  0
  5 40  1  0
  5 41  1  0
  5 42  1  0
  6 43  1  0
  6 44  1  0
  7 45  1  0
  7 46  1  0
  9 47  1  0
  9 48  1  0
 10 49  1  0
 10 50  1  0
 12 51  1  0
 13 52  1  0
 13 53  1  0
 14 54  1  0
 14 55  1  0
 15 56  1  0
 15 57  1  0
 18 58  1  0
 19 59  1  0
 20 60  1  0
 21 61  1  0
 24 62  1  0
 24 63  1  0
 24 64  1  0
 26 65  1  0
 27 66  1  0
 28 67  1  0
 31 68  1  0
 31 69  1  0
 31 70  1  0
M  CHG  2  15   1  23   1
M  END
>  <UniqueID>  (19) 
19

>  <SMILES>  (19) 
CCN(CC)CCOCCONCC[NH2+]c1c2ccccc2[n+](C)c2cccc(OC)c12

>  <Energy>  (19) 
110.82462198825219

>  <Genealogy>  (19) 
CCN(CC)CCOCCONCC[NH2+]c1c2ccccc2[n+](C)c2cccc(OC)c12 (protonated)
CCN(CC)CCOCCONCC[NH2+]c1c2ccccc2[n+](C)c2cccc(OC)c12 (3D coordinates assigned)
CCN(CC)CCOCCONCC[NH2+]c1c2ccccc2[n+](C)c2cccc(OC)c12 (optimized conformer: 110.82462198825219 kcal/mol)

>  <smiles>  (19) 
CCN(CC)CCOCCONCCNc1c2ccccc2[n+](C)c2cccc(OC)c12

>  <score_type>  (19) 
oracle

>  <origin>  (19) 
adg

>  <m_score__min__energy>  (19) 
-8.9100000000000001

>  <m_primary>  (19) 
energy

$$$$
19:0
     RDKit          3D

 72 75  0  0  0  0  0  0  0  0999 V2000
   -9.0860   21.9390  -31.6540 C   0  0  0  0  0  0  0  0  0  0  0  0
   -9.4990   20.5190  -32.0140 C   0  0  0  0  0  0  0  0  0  0  0  0
   -8.5950   19.9810  -33.0400 N   0  0  0  0  0  0  0  0  0  0  0  0
   -7.4790   19.2250  -32.4430 C   0  0  0  0  0  0  0  0  0  0  0  0
   -6.1410   19.5550  -33.1580 C   0  0  1  0  0  0  0  0  0  0  0  0
   -6.4300   20.4020  -34.2190 F   0  0  0  0  0  0  0  0  0  0  0  0
   -5.1700   20.2540  -32.2060 C   0  0  0  0  0  0  0  0  0  0  0  0
   -5.5960   21.3120  -31.3770 C   0  0  0  0  0  0  0  0  0  0  0  0
   -4.7110   21.9230  -30.4850 C   0  0  0  0  0  0  0  0  0  0  0  0
   -3.3810   21.4830  -30.3830 C   0  0  0  0  0  0  0  0  0  0  0  0
   -2.4450   22.1240  -29.4260 C   0  0  0  0  0  0  0  0  0  0  0  0
   -1.0830   22.2620  -29.7430 C   0  0  0  0  0  0  0  0  0  0  0  0
   -0.2010   22.8650  -28.8410 C   0  0  0  0  0  0  0  0  0  0  0  0
   -0.6610   23.3450  -27.6030 C   0  0  0  0  0  0  0  0  0  0  0  0
    0.2760   23.9890  -26.6450 C   0  0  0  0  0  0  0  0  0  0  0  0
    1.3540   24.7630  -27.1020 C   0  0  0  0  0  0  0  0  0  0  0  0
    2.2270   25.3610  -26.1940 C   0  0  0  0  0  0  0  0  0  0  0  0
    2.0170   25.1920  -24.8140 C   0  0  0  0  0  0  0  0  0  0  0  0
    2.8560   25.7720  -23.8470 O   0  0  0  0  0  0  0  0  0  0  0  0
    2.8140   27.1330  -23.4170 C   0  0  0  0  0  0  0  0  0  0  0  0
    1.3690   27.5800  -23.1770 C   0  0  0  0  0  0  0  0  0  0  0  0
    1.0030   28.7690  -24.0820 C   0  0  0  0  0  0  0  0  0  0  0  0
   -0.3880   28.7270  -24.5880 N   0  0  0  0  0  0  0  0  0  0  0  0
   -0.6170   29.4710  -25.8440 C   0  0  0  0  0  0  0  0  0  0  0  0
   -0.4790   28.5880  -27.1080 C   0  0  0  0  0  0  0  0  0  0  0  0
   -0.3220   27.2130  -26.8160 O   0  0  0  0  0  0  0  0  0  0  0  0
   -1.3180   26.8070  -25.9070 C   0  0  0  0  0  0  0  0  0  0  0  0
   -1.0380   27.3990  -24.5180 C   0  0  0  0  0  0  0  0  0  0  0  0
    0.9680   24.4350  -24.3900 N   0  0  0  0  0  0  0  0  0  0  0  0
    0.1070   23.8390  -25.2590 C   0  0  0  0  0  0  0  0  0  0  0  0
   -2.0240   23.2070  -27.2870 C   0  0  0  0  0  0  0  0  0  0  0  0
   -2.9060   22.6010  -28.1870 C   0  0  0  0  0  0  0  0  0  0  0  0
   -2.9560   20.4170  -31.1920 C   0  0  0  0  0  0  0  0  0  0  0  0
   -3.8390   19.8070  -32.0870 C   0  0  0  0  0  0  0  0  0  0  0  0
   -5.4810   18.2870  -33.7450 C   0  0  0  0  0  0  0  0  0  0  0  0
   -4.3730   18.6110  -34.5090 F   0  0  0  0  0  0  0  0  0  0  0  0
   -6.3890   17.6120  -34.5440 F   0  0  0  0  0  0  0  0  0  0  0  0
   -5.0850   17.4360  -32.7280 F   0  0  0  0  0  0  0  0  0  0  0  0
   -9.0550   22.0455  -30.5596 H   0  0  0  0  0  0  0  0  0  0  0  0
   -8.0898   22.1480  -32.0711 H   0  0  0  0  0  0  0  0  0  0  0  0
   -9.8147   22.6497  -32.0711 H   0  0  0  0  0  0  0  0  0  0  0  0
   -9.4496   19.8858  -31.1159 H   0  0  0  0  0  0  0  0  0  0  0  0
  -10.5269   20.5287  -32.4055 H   0  0  0  0  0  0  0  0  0  0  0  0
   -9.1520   19.3270  -33.6400 H   0  0  0  0  0  0  0  0  0  0  0  0
   -7.3934   19.4895  -31.3787 H   0  0  0  0  0  0  0  0  0  0  0  0
   -7.6823   18.1499  -32.5566 H   0  0  0  0  0  0  0  0  0  0  0  0
   -6.6378   21.6606  -31.4332 H   0  0  0  0  0  0  0  0  0  0  0  0
   -5.0590   22.7563  -29.8569 H   0  0  0  0  0  0  0  0  0  0  0  0
   -0.7076   21.8926  -30.7087 H   0  0  0  0  0  0  0  0  0  0  0  0
    0.8627   22.9645  -29.1029 H   0  0  0  0  0  0  0  0  0  0  0  0
    1.5110   24.8986  -28.1823 H   0  0  0  0  0  0  0  0  0  0  0  0
    3.0750   25.9614  -26.5551 H   0  0  0  0  0  0  0  0  0  0  0  0
    3.3834   27.2339  -22.4813 H   0  0  0  0  0  0  0  0  0  0  0  0
    3.2545   27.7658  -24.2016 H   0  0  0  0  0  0  0  0  0  0  0  0
    0.6919   26.7407  -23.3941 H   0  0  0  0  0  0  0  0  0  0  0  0
    1.2687   27.8940  -22.1276 H   0  0  0  0  0  0  0  0  0  0  0  0
    1.1351   29.6970  -23.5063 H   0  0  0  0  0  0  0  0  0  0  0  0
    1.6653   28.7207  -24.9590 H   0  0  0  0  0  0  0  0  0  0  0  0
   -1.6328   29.8924  -25.8208 H   0  0  0  0  0  0  0  0  0  0  0  0
    0.1531   30.2541  -25.9059 H   0  0  0  0  0  0  0  0  0  0  0  0
   -1.3831   28.7135  -27.7219 H   0  0  0  0  0  0  0  0  0  0  0  0
    0.4292   28.9146  -27.6357 H   0  0  0  0  0  0  0  0  0  0  0  0
   -2.2986   27.1579  -26.2611 H   0  0  0  0  0  0  0  0  0  0  0  0
   -1.3160   25.7092  -25.8375 H   0  0  0  0  0  0  0  0  0  0  0  0
   -1.9916   27.5010  -23.9793 H   0  0  0  0  0  0  0  0  0  0  0  0
   -0.3498   26.7173  -23.9968 H   0  0  0  0  0  0  0  0  0  0  0  0
    0.8170   24.3040  -23.3640 H   0  0  0  0  0  0  0  0  0  0  0  0
   -0.7275   23.2353  -24.8730 H   0  0  0  0  0  0  0  0  0  0  0  0
   -2.4001   23.5793  -26.3227 H   0  0  0  0  0  0  0  0  0  0  0  0
   -3.9688   22.4968  -27.9232 H   0  0  0  0  0  0  0  0  0  0  0  0
   -1.9184   20.0587  -31.1206 H   0  0  0  0  0  0  0  0  0  0  0  0
   -3.4906   18.9673  -32.7064 H   0  0  0  0  0  0  0  0  0  0  0  0
  1  2  1  0
  2  3  1  0
  3  4  1  0
  4  5  1  0
  5  6  1  6
  5  7  1  0
  7  8  2  0
  8  9  1  0
  9 10  2  0
 10 11  1  0
 11 12  2  0
 12 13  1  0
 13 14  2  0
 14 15  1  0
 15 16  2  0
 16 17  1  0
 17 18  2  0
 18 19  1  0
 19 20  1  0
 20 21  1  0
 21 22  1  0
 22 23  1  0
 23 24  1  0
 24 25  1  0
 25 26  1  0
 26 27  1  0
 27 28  1  0
 18 29  1  0
 29 30  2  0
 14 31  1  0
 31 32  2  0
 10 33  1  0
 33 34  2  0
  5 35  1  0
 35 36  1  0
 35 37  1  0
 35 38  1  0
 34  7  1  0
 32 11  1  0
 30 15  1  0
 28 23  1  0
  1 39  1  0
  1 40  1  0
  1 41  1  0
  2 42  1  0
  2 43  1  0
  3 44  1  0
  4 45  1  0
  4 46  1  0
  8 47  1  0
  9 48  1  0
 12 49  1  0
 13 50  1  0
 16 51  1  0
 17 52  1  0
 20 53  1  0
 20 54  1  0
 21 55  1  0
 21 56  1  0
 22 57  1  0
 22 58  1  0
 24 59  1  0
 24 60  1  0
 25 61  1  0
 25 62  1  0
 27 63  1  0
 27 64  1  0
 28 65  1  0
 28 66  1  0
 29 67  1  0
 30 68  1  0
 31 69  1  0
 32 70  1  0
 33 71  1  0
 34 72  1  0
M  CHG  1  29   1
M  END
>  <UniqueID>  (20) 
20

>  <SMILES>  (20) 
CCNC[C@@](F)(c1ccc(-c2ccc(-c3ccc(OCCCN4CCOCC4)[nH+]c3)cc2)cc1)C(F)(F)F

>  <Energy>  (20) 
97.16080391807904

>  <Genealogy>  (20) 
CCNCC(F)(c1ccc(-c2ccc(-c3ccc(OCCCN4CCOCC4)[nH+]c3)cc2)cc1)C(F)(F)F (protonated)
CCNC[C@@](F)(c1ccc(-c2ccc(-c3ccc(OCCCN4CCOCC4)[nH+]c3)cc2)cc1)C(F)(F)F (chirality)
CCNC[C@@](F)(c1ccc(-c2ccc(-c3ccc(OCCCN4CCOCC4)[nH+]c3)cc2)cc1)C(F)(F)F (3D coordinates assigned)
CCNC[C@@](F)(c1ccc(-c2ccc(-c3ccc(OCCCN4CCOCC4)[nH+]c3)cc2)cc1)C(F)(F)F (nonaromatic ring conformer: 97.16080391807904 kcal/mol)

>  <smiles>  (20) 
CCNCC(F)(c1ccc(-c2ccc(-c3ccc(OCCCN4CCOCC4)nc3)cc2)cc1)C(F)(F)F

>  <score_type>  (20) 
oracle

>  <origin>  (20) 
adg

>  <m_score__min__energy>  (20) 
-8.3300000000000001

>  <m_primary>  (20) 
energy

$$$$
20:0
     RDKit          3D

 52 54  0  0  0  0  0  0  0  0999 V2000
   -3.5050   24.5410  -27.1090 C   0  0  0  0  0  0  0  0  0  0  0  0
   -2.9300   24.5480  -28.5350 C   0  0  0  0  0  0  0  0  0  0  0  0
   -3.8620   24.0280  -29.5620 N   0  0  0  0  0  0  0  0  0  0  0  0
   -4.5110   22.7580  -29.1550 C   0  0  0  0  0  0  0  0  0  0  0  0
   -3.4610   21.6600  -29.0360 C   0  0  0  0  0  0  0  0  0  0  0  0
   -4.8170   25.0510  -30.0440 C   0  0  0  0  0  0  0  0  0  0  0  0
   -6.0540   24.4070  -30.6810 C   0  0  0  0  0  0  0  0  0  0  0  0
   -5.7390   23.8610  -32.0010 N   0  0  0  0  0  0  0  0  0  0  0  0
   -5.8120   22.4480  -32.2630 C   0  0  0  0  0  0  0  0  0  0  0  0
   -4.6410   21.7140  -32.5190 C   0  0  0  0  0  0  0  0  0  0  0  0
   -3.3650   22.2920  -32.3480 C   0  0  0  0  0  0  0  0  0  0  0  0
   -2.2110   21.5610  -32.6230 C   0  0  0  0  0  0  0  0  0  0  0  0
   -2.3070   20.2430  -33.0620 C   0  0  0  0  0  0  0  0  0  0  0  0
   -0.7210   19.2400  -33.4180 Br  0  0  0  0  0  0  0  0  0  0  0  0
   -3.5610   19.6500  -33.2290 C   0  0  0  0  0  0  0  0  0  0  0  0
   -4.7490   20.3740  -32.9650 C   0  0  0  0  0  0  0  0  0  0  0  0
   -5.9910   19.8060  -33.1490 N   0  0  0  0  0  0  0  0  0  0  0  0
   -6.1270   18.6890  -34.1080 C   0  0  0  0  0  0  0  0  0  0  0  0
   -7.1110   20.4020  -32.5970 C   0  0  0  0  0  0  0  0  0  0  0  0
   -8.3380   19.6980  -32.3650 C   0  0  0  0  0  0  0  0  0  0  0  0
   -8.4330   18.1930  -32.3000 C   0  0  0  0  0  0  0  0  0  0  0  0
   -9.4980   20.4180  -32.0440 C   0  0  0  0  0  0  0  0  0  0  0  0
   -9.4490   21.7890  -31.8310 C   0  0  0  0  0  0  0  0  0  0  0  0
   -8.2340   22.4600  -31.8890 C   0  0  0  0  0  0  0  0  0  0  0  0
   -7.0520   21.7800  -32.2420 C   0  0  0  0  0  0  0  0  0  0  0  0
   -2.6804   24.5510  -26.3811 H   0  0  0  0  0  0  0  0  0  0  0  0
   -4.1339   25.4316  -26.9629 H   0  0  0  0  0  0  0  0  0  0  0  0
   -4.1121   23.6354  -26.9629 H   0  0  0  0  0  0  0  0  0  0  0  0
   -2.6685   25.5837  -28.7976 H   0  0  0  0  0  0  0  0  0  0  0  0
   -2.0565   23.8794  -28.5296 H   0  0  0  0  0  0  0  0  0  0  0  0
   -5.0075   22.8961  -28.1832 H   0  0  0  0  0  0  0  0  0  0  0  0
   -5.2551   22.4701  -29.9122 H   0  0  0  0  0  0  0  0  0  0  0  0
   -3.2643   21.4543  -27.9734 H   0  0  0  0  0  0  0  0  0  0  0  0
   -3.8295   20.7458  -29.5243 H   0  0  0  0  0  0  0  0  0  0  0  0
   -2.5313   21.9873  -29.5243 H   0  0  0  0  0  0  0  0  0  0  0  0
   -5.1349   25.6723  -29.1938 H   0  0  0  0  0  0  0  0  0  0  0  0
   -4.3132   25.6618  -30.8076 H   0  0  0  0  0  0  0  0  0  0  0  0
   -6.4114   23.5944  -30.0314 H   0  0  0  0  0  0  0  0  0  0  0  0
   -6.8305   25.1776  -30.7964 H   0  0  0  0  0  0  0  0  0  0  0  0
   -5.2470   24.4800  -32.6850 H   0  0  0  0  0  0  0  0  0  0  0  0
   -3.2805   23.3301  -31.9940 H   0  0  0  0  0  0  0  0  0  0  0  0
   -1.2226   22.0259  -32.4931 H   0  0  0  0  0  0  0  0  0  0  0  0
   -3.6263   18.6063  -33.5703 H   0  0  0  0  0  0  0  0  0  0  0  0
   -6.2420   17.7442  -33.5565 H   0  0  0  0  0  0  0  0  0  0  0  0
   -7.0116   18.8544  -34.7405 H   0  0  0  0  0  0  0  0  0  0  0  0
   -5.2285   18.6373  -34.7405 H   0  0  0  0  0  0  0  0  0  0  0  0
   -8.4533   17.8720  -31.2481 H   0  0  0  0  0  0  0  0  0  0  0  0
   -9.3538   17.8617  -32.8023 H   0  0  0  0  0  0  0  0  0  0  0  0
   -7.5611   17.7485  -32.8023 H   0  0  0  0  0  0  0  0  0  0  0  0
  -10.4591   19.8896  -31.9599 H   0  0  0  0  0  0  0  0  0  0  0  0
  -10.3736   22.3448  -31.6160 H   0  0  0  0  0  0  0  0  0  0  0  0
   -8.1945   23.5345  -31.6566 H   0  0  0  0  0  0  0  0  0  0  0  0
  1  2  1  0
  2  3  1  0
  3  4  1  0
  4  5  1  0
  3  6  1  0
  6  7  1  0
  7  8  1  0
  8  9  1  0
  9 10  2  0
 10 11  1  0
 11 12  2  0
 12 13  1  0
 13 14  1  0
 13 15  2  0
 15 16  1  0
 16 17  2  0
 17 18  1  0
 17 19  1  0
 19 20  2  0
 20 21  1  0
 20 22  1  0
 22 23  2  0
 23 24  1  0
 24 25  2  0
 25  9  1  0
 16 10  1  0
 25 19  1  0
  1 26  1  0
  1 27  1  0
  1 28  1  0
  2 29  1  0
  2 30  1  0
  4 31  1  0
  4 32  1  0
  5 33  1  0
  5 34  1  0
  5 35  1  0
  6 36  1  0
  6 37  1  0
  7 38  1  0
  7 39  1  0
  8 40  1  0
 11 41  1  0
 12 42  1  0
 15 43  1  0
 18 44  1  0
 18 45  1  0
 18 46  1  0
 21 47  1  0
 21 48  1  0
 21 49  1  0
 22 50  1  0
 23 51  1  0
 24 52  1  0
M  CHG  1  17   1
M  END
>  <UniqueID>  (21) 
21

>  <SMILES>  (21) 
CCN(CC)CCNc1c2ccc(Br)cc2[n+](C)c2c(C)cccc12

>  <Energy>  (21) 
84.55744221884724

>  <Genealogy>  (21) 
CCN(CC)CCNc1c2ccc(Br)cc2[n+](C)c2c(C)cccc12 (3D coordinates assigned)
CCN(CC)CCNc1c2ccc(Br)cc2[n+](C)c2c(C)cccc12 (optimized conformer: 84.55744221884724 kcal/mol)

>  <smiles>  (21) 
CCN(CC)CCNc1c2ccc(Br)cc2[n+](C)c2c(C)cccc12

>  <score_type>  (21) 
oracle

>  <origin>  (21) 
adg

>  <m_score__min__energy>  (21) 
-8.2100000000000009

>  <m_primary>  (21) 
energy

$$$$
21:0
     RDKit          3D

 48 50  0  0  0  0  0  0  0  0999 V2000
    0.3990   22.6600  -35.7590 C   0  0  0  0  0  0  0  0  0  0  0  0
    0.1690   21.3850  -34.9460 C   0  0  0  0  0  0  0  0  0  0  0  0
   -1.1960   21.3050  -34.3970 N   0  0  0  0  0  0  0  0  0  0  0  0
   -1.2780   20.5310  -33.1360 C   0  0  0  0  0  0  0  0  0  0  0  0
   -2.5440   20.8580  -32.3260 C   0  0  0  0  0  0  0  0  0  0  0  0
   -3.6360   21.2960  -33.1960 N   0  0  0  0  0  0  0  0  0  0  0  0
   -4.9890   21.2960  -32.7190 C   0  0  0  0  0  0  0  0  0  0  0  0
   -5.8170   20.1930  -32.9780 C   0  0  0  0  0  0  0  0  0  0  0  0
   -7.1490   20.1930  -32.4880 C   0  0  0  0  0  0  0  0  0  0  0  0
   -7.6560   21.3190  -31.8620 N   0  0  0  0  0  0  0  0  0  0  0  0
   -9.0990   21.4080  -31.5480 C   0  0  0  0  0  0  0  0  0  0  0  0
   -6.8130   22.3550  -31.5020 C   0  0  0  0  0  0  0  0  0  0  0  0
   -7.2500   23.4220  -30.6730 C   0  0  0  0  0  0  0  0  0  0  0  0
   -6.3920   24.4670  -30.3310 C   0  0  0  0  0  0  0  0  0  0  0  0
   -5.0800   24.4740  -30.7880 C   0  0  0  0  0  0  0  0  0  0  0  0
   -4.2480   25.4880  -30.4450 F   0  0  0  0  0  0  0  0  0  0  0  0
   -4.6130   23.4280  -31.5810 C   0  0  0  0  0  0  0  0  0  0  0  0
   -5.4650   22.3630  -31.9430 C   0  0  0  0  0  0  0  0  0  0  0  0
   -8.0320   18.9700  -32.7160 C   0  0  0  0  0  0  0  0  0  0  0  0
   -7.2490   17.6990  -33.0350 C   0  0  0  0  0  0  0  0  0  0  0  0
   -6.2630   17.9760  -34.1590 C   0  0  0  0  0  0  0  0  0  0  0  0
   -5.2230   18.9920  -33.6980 C   0  0  0  0  0  0  0  0  0  0  0  0
    0.5520   23.5081  -35.0754 H   0  0  0  0  0  0  0  0  0  0  0  0
    1.2891   22.5350  -36.3931 H   0  0  0  0  0  0  0  0  0  0  0  0
   -0.4787   22.8538  -36.3931 H   0  0  0  0  0  0  0  0  0  0  0  0
    0.3386   20.5154  -35.5979 H   0  0  0  0  0  0  0  0  0  0  0  0
    0.8701   21.3977  -34.0985 H   0  0  0  0  0  0  0  0  0  0  0  0
   -1.5860   22.2700  -34.2900 H   0  0  0  0  0  0  0  0  0  0  0  0
   -1.7900   20.8230  -35.1130 H   0  0  0  0  0  0  0  0  0  0  0  0
   -1.2825   19.4584  -33.3800 H   0  0  0  0  0  0  0  0  0  0  0  0
   -0.4077   20.8018  -32.5202 H   0  0  0  0  0  0  0  0  0  0  0  0
   -2.8613   19.9580  -31.7789 H   0  0  0  0  0  0  0  0  0  0  0  0
   -2.3075   21.6754  -31.6289 H   0  0  0  0  0  0  0  0  0  0  0  0
   -3.4420   21.6990  -34.1400 H   0  0  0  0  0  0  0  0  0  0  0  0
   -9.2369   21.4165  -30.4567 H   0  0  0  0  0  0  0  0  0  0  0  0
   -9.5112   22.3333  -31.9769 H   0  0  0  0  0  0  0  0  0  0  0  0
   -9.6218   20.5404  -31.9769 H   0  0  0  0  0  0  0  0  0  0  0  0
   -8.2827   23.4243  -30.2942 H   0  0  0  0  0  0  0  0  0  0  0  0
   -6.7555   25.2890  -29.6968 H   0  0  0  0  0  0  0  0  0  0  0  0
   -3.5693   23.4324  -31.9285 H   0  0  0  0  0  0  0  0  0  0  0  0
   -8.6236   18.7942  -31.8055 H   0  0  0  0  0  0  0  0  0  0  0  0
   -8.6626   19.1873  -33.5907 H   0  0  0  0  0  0  0  0  0  0  0  0
   -6.7006   17.3723  -32.1392 H   0  0  0  0  0  0  0  0  0  0  0  0
   -7.9471   16.9086  -33.3479 H   0  0  0  0  0  0  0  0  0  0  0  0
   -5.7587   17.0399  -34.4408 H   0  0  0  0  0  0  0  0  0  0  0  0
   -6.8060   18.3811  -35.0257 H   0  0  0  0  0  0  0  0  0  0  0  0
   -4.5246   18.4877  -33.0139 H   0  0  0  0  0  0  0  0  0  0  0  0
   -4.7246   19.3736  -34.6014 H   0  0  0  0  0  0  0  0  0  0  0  0
  1  2  1  0
  2  3  1  0
  3  4  1  0
  4  5  1  0
  5  6  1  0
  6  7  1  0
  7  8  2  0
  8  9  1  0
  9 10  2  0
 10 11  1  0
 10 12  1  0
 12 13  2  0
 13 14  1  0
 14 15  2  0
 15 16  1  0
 15 17  1  0
 17 18  2  0
  9 19  1  0
 19 20  1  0
 20 21  1  0
 21 22  1  0
 18  7  1  0
 22  8  1  0
 18 12  1  0
  1 23  1  0
  1 24  1  0
  1 25  1  0
  2 26  1  0
  2 27  1  0
  3 28  1  0
  3 29  1  0
  4 30  1  0
  4 31  1  0
  5 32  1  0
  5 33  1  0
  6 34  1  0
 11 35  1  0
 11 36  1  0
 11 37  1  0
 13 38  1  0
 14 39  1  0
 17 40  1  0
 19 41  1  0
 19 42  1  0
 20 43  1  0
 20 44  1  0
 21 45  1  0
 21 46  1  0
 22 47  1  0
 22 48  1  0
M  CHG  2   3   1  10   1
M  END
>  <UniqueID>  (22) 
22

>  <SMILES>  (22) 
CC[NH2+]CCNc1c2c([n+](C)c3ccc(F)cc13)CCCC2

>  <Energy>  (22) 
67.22469916459686

>  <Genealogy>  (22) 
CC[NH2+]CCNc1c2c([n+](C)c3ccc(F)cc13)CCCC2 (protonated)
CC[NH2+]CCNc1c2c([n+](C)c3ccc(F)cc13)CCCC2 (3D coordinates assigned)
CC[NH2+]CCNc1c2c([n+](C)c3ccc(F)cc13)CCCC2 (nonaromatic ring conformer: 67.22469916459686 kcal/mol)

>  <smiles>  (22) 
CCNCCNc1c2c([n+](C)c3ccc(F)cc13)CCCC2

>  <score_type>  (22) 
oracle

>  <origin>  (22) 
adg

>  <m_score__min__energy>  (22) 
-7.5899999999999999

>  <m_primary>  (22) 
energy

$$$$
22:0
     RDKit          3D

 32 32  0  0  0  0  0  0  0  0999 V2000
   -4.3600   25.7500  -29.6970 H   0  0  0  0  0  0  0  0  0  0  0  0
   -4.6190   25.4760  -30.6710 N   0  0  0  0  0  0  0  0  0  0  0  0
   -4.9970   24.2700  -30.9530 C   0  0  0  0  0  0  0  0  0  0  0  0
   -6.5380   23.8740  -31.4890 S   0  0  0  0  0  0  0  0  0  0  0  0
   -6.1620   22.2480  -31.6840 C   0  0  0  0  0  0  0  0  0  0  0  0
   -6.8530   21.4662  -32.0322 H   0  0  0  0  0  0  0  0  0  0  0  0
   -4.8260   22.0560  -31.3300 C   0  0  0  0  0  0  0  0  0  0  0  0
   -4.1600   20.7160  -31.4750 C   0  0  0  0  0  0  0  0  0  0  0  0
   -3.9530   20.2996  -30.4781 H   0  0  0  0  0  0  0  0  0  0  0  0
   -4.8241   20.0342  -32.0265 H   0  0  0  0  0  0  0  0  0  0  0  0
   -3.2155   20.8337  -32.0265 H   0  0  0  0  0  0  0  0  0  0  0  0
   -4.1810   23.1850  -30.8880 N   0  0  0  0  0  0  0  0  0  0  0  0
   -2.7560   23.2380  -30.5080 C   0  0  0  0  0  0  0  0  0  0  0  0
   -2.3910   22.2118  -30.3543 H   0  0  0  0  0  0  0  0  0  0  0  0
   -2.2064   23.7384  -31.3189 H   0  0  0  0  0  0  0  0  0  0  0  0
   -2.5380   24.0280  -29.2400 C   0  0  0  0  0  0  0  0  0  0  0  0
   -2.2660   25.2550  -29.3460 O   0  0  0  0  0  0  0  0  0  0  0  0
   -2.6550   23.4340  -27.9240 N   0  0  0  0  0  0  0  0  0  0  0  0
   -2.7820   24.3060  -26.7450 C   0  0  0  0  0  0  0  0  0  0  0  0
   -2.6074   23.7128  -25.8353 H   0  0  0  0  0  0  0  0  0  0  0  0
   -2.0396   25.1144  -26.8182 H   0  0  0  0  0  0  0  0  0  0  0  0
   -4.1760   24.9200  -26.6840 C   0  0  0  0  0  0  0  0  0  0  0  0
   -4.4733   25.0510  -25.6331 H   0  0  0  0  0  0  0  0  0  0  0  0
   -4.1682   25.8980  -27.1875 H   0  0  0  0  0  0  0  0  0  0  0  0
   -4.8923   24.2541  -27.1875 H   0  0  0  0  0  0  0  0  0  0  0  0
   -2.5690   21.9800  -27.7220 C   0  0  0  0  0  0  0  0  0  0  0  0
   -3.4765   21.6324  -27.2067 H   0  0  0  0  0  0  0  0  0  0  0  0
   -2.4771   21.4907  -28.7029 H   0  0  0  0  0  0  0  0  0  0  0  0
   -1.3480   21.6260  -26.8800 C   0  0  0  0  0  0  0  0  0  0  0  0
   -1.6044   21.7003  -25.8129 H   0  0  0  0  0  0  0  0  0  0  0  0
   -1.0295   20.5985  -27.1098 H   0  0  0  0  0  0  0  0  0  0  0  0
   -0.5293   22.3238  -27.1098 H   0  0  0  0  0  0  0  0  0  0  0  0
  1  2  1  0
  2  3  2  0
  3  4  1  0
  4  5  1  0
  5  6  1  0
  5  7  2  0
  7  8  1  0
  8  9  1  0
  8 10  1  0
  8 11  1  0
  7 12  1  0
 12 13  1  0
 13 14  1  0
 13 15  1  0
 13 16  1  0
 16 17  2  0
 16 18  1  0
 18 19  1  0
 19 20  1  0
 19 21  1  0
 19 22  1  0
 22 23  1  0
 22 24  1  0
 22 25  1  0
 18 26  1  0
 26 27  1  0
 26 28  1  0
 26 29  1  0
 29 30  1  0
 29 31  1  0
 29 32  1  0
 12  3  1  0
M  END
>  <UniqueID>  (23) 
23

>  <SMILES>  (23) 
[H]/N=c1\scc(C)n1CC(=O)N(CC)CC

>  <Energy>  (23) 
53.52276348016685

>  <Genealogy>  (23) 
[H]/N=c1\scc(C)n1CC(=O)N(CC)CC (cis-trans isomerization)
[H]/N=c1\scc(C)n1CC(=O)N(CC)CC (3D coordinates assigned)
[H]/N=c1\scc(C)n1CC(=O)N(CC)CC (optimized conformer: 53.52276348016685 kcal/mol)

>  <smiles>  (23) 
CCN(CC)C(=O)Cn1c(C)csc1=N

>  <score_type>  (23) 
oracle

>  <origin>  (23) 
adg

>  <m_score__min__energy>  (23) 
-5.3499999999999996

>  <m_primary>  (23) 
energy

$$$$
23:0
     RDKit          3D

 55 58  0  0  0  0  0  0  0  0999 V2000
    1.9120   22.4120  -35.6460 C   0  0  0  0  0  0  0  0  0  0  0  0
    0.3850   22.4920  -35.7190 C   0  0  0  0  0  0  0  0  0  0  0  0
   -0.2310   21.2660  -35.1430 N   0  0  0  0  0  0  0  0  0  0  0  0
    0.2600   20.0270  -35.7920 C   0  0  0  0  0  0  0  0  0  0  0  0
    0.9970   19.1050  -34.8230 C   0  0  0  0  0  0  0  0  0  0  0  0
   -0.0230   21.1900  -33.6730 C   0  0  0  0  0  0  0  0  0  0  0  0
   -1.2700   20.6470  -32.9650 C   0  0  0  0  0  0  0  0  0  0  0  0
   -2.4710   20.8050  -33.7840 N   0  0  0  0  0  0  0  0  0  0  0  0
   -3.6570   20.0470  -33.5020 C   0  0  0  0  0  0  0  0  0  0  0  0
   -3.7280   18.6910  -33.8600 C   0  0  0  0  0  0  0  0  0  0  0  0
   -2.6520   18.0560  -34.5130 C   0  0  0  0  0  0  0  0  0  0  0  0
   -2.7170   16.7040  -34.8420 C   0  0  0  0  0  0  0  0  0  0  0  0
   -3.8530   15.9630  -34.5270 C   0  0  0  0  0  0  0  0  0  0  0  0
   -3.9330   14.2630  -34.9500 Cl  0  0  0  0  0  0  0  0  0  0  0  0
   -4.9230   16.5700  -33.8660 C   0  0  0  0  0  0  0  0  0  0  0  0
   -4.8780   17.9400  -33.5110 C   0  0  0  0  0  0  0  0  0  0  0  0
   -5.9130   18.5390  -32.8220 N   0  0  0  0  0  0  0  0  0  0  0  0
   -6.7990   17.6820  -32.0030 C   0  0  0  0  0  0  0  0  0  0  0  0
   -5.9630   19.9180  -32.7110 C   0  0  0  0  0  0  0  0  0  0  0  0
   -4.7710   20.6650  -32.9060 C   0  0  0  0  0  0  0  0  0  0  0  0
   -4.7120   22.0110  -32.5000 C   0  0  0  0  0  0  0  0  0  0  0  0
   -5.8340   22.6480  -31.9890 C   0  0  0  0  0  0  0  0  0  0  0  0
   -7.0670   21.9940  -31.9700 C   0  0  0  0  0  0  0  0  0  0  0  0
   -8.2200   22.7020  -31.5940 C   0  0  0  0  0  0  0  0  0  0  0  0
   -9.4770   22.1100  -31.7050 C   0  0  0  0  0  0  0  0  0  0  0  0
   -9.5930   20.8200  -32.2210 C   0  0  0  0  0  0  0  0  0  0  0  0
   -8.4520   20.1000  -32.5800 C   0  0  0  0  0  0  0  0  0  0  0  0
   -7.1590   20.6390  -32.3870 C   0  0  0  0  0  0  0  0  0  0  0  0
    2.2284   22.3954  -34.5926 H   0  0  0  0  0  0  0  0  0  0  0  0
    2.2555   21.4946  -36.1465 H   0  0  0  0  0  0  0  0  0  0  0  0
    2.3494   23.2885  -36.1465 H   0  0  0  0  0  0  0  0  0  0  0  0
    0.0413   23.3699  -35.1523 H   0  0  0  0  0  0  0  0  0  0  0  0
    0.0841   22.5786  -36.7735 H   0  0  0  0  0  0  0  0  0  0  0  0
   -0.6007   19.4835  -36.2088 H   0  0  0  0  0  0  0  0  0  0  0  0
    0.9731   20.3231  -36.5755 H   0  0  0  0  0  0  0  0  0  0  0  0
    0.7631   19.3976  -33.7888 H   0  0  0  0  0  0  0  0  0  0  0  0
    0.6778   18.0658  -34.9911 H   0  0  0  0  0  0  0  0  0  0  0  0
    2.0809   19.1874  -34.9911 H   0  0  0  0  0  0  0  0  0  0  0  0
    0.8269   20.5235  -33.4647 H   0  0  0  0  0  0  0  0  0  0  0  0
    0.1783   22.2037  -33.2963 H   0  0  0  0  0  0  0  0  0  0  0  0
   -1.1218   19.5779  -32.7527 H   0  0  0  0  0  0  0  0  0  0  0  0
   -1.4119   21.2184  -32.0358 H   0  0  0  0  0  0  0  0  0  0  0  0
   -2.3760   21.1980  -34.7460 H   0  0  0  0  0  0  0  0  0  0  0  0
   -1.7512   18.6346  -34.7655 H   0  0  0  0  0  0  0  0  0  0  0  0
   -1.8699   16.2212  -35.3512 H   0  0  0  0  0  0  0  0  0  0  0  0
   -5.8141   15.9749  -33.6174 H   0  0  0  0  0  0  0  0  0  0  0  0
   -6.6060   17.8687  -30.9363 H   0  0  0  0  0  0  0  0  0  0  0  0
   -7.8492   17.9157  -32.2320 H   0  0  0  0  0  0  0  0  0  0  0  0
   -6.6003   16.6246  -32.2320 H   0  0  0  0  0  0  0  0  0  0  0  0
   -3.7656   22.5646  -32.5887 H   0  0  0  0  0  0  0  0  0  0  0  0
   -5.7514   23.6726  -31.5973 H   0  0  0  0  0  0  0  0  0  0  0  0
   -8.1307   23.7289  -31.2100 H   0  0  0  0  0  0  0  0  0  0  0  0
  -10.3752   22.6592  -31.3863 H   0  0  0  0  0  0  0  0  0  0  0  0
  -10.5878   20.3675  -32.3458 H   0  0  0  0  0  0  0  0  0  0  0  0
   -8.5605   19.0977  -33.0199 H   0  0  0  0  0  0  0  0  0  0  0  0
  1  2  1  0
  2  3  1  0
  3  4  1  0
  4  5  1  0
  3  6  1  0
  6  7  1  0
  7  8  1  0
  8  9  1  0
  9 10  2  0
 10 11  1  0
 11 12  2  0
 12 13  1  0
 13 14  1  0
 13 15  2  0
 15 16  1  0
 16 17  2  0
 17 18  1  0
 17 19  1  0
 19 20  2  0
 20 21  1  0
 21 22  2  0
 22 23  1  0
 23 24  2  0
 24 25  1  0
 25 26  2  0
 26 27  1  0
 27 28  2  0
 20  9  1  0
 28 23  1  0
 16 10  1  0
 28 19  1  0
  1 29  1  0
  1 30  1  0
  1 31  1  0
  2 32  1  0
  2 33  1  0
  4 34  1  0
  4 35  1  0
  5 36  1  0
  5 37  1  0
  5 38  1  0
  6 39  1  0
  6 40  1  0
  7 41  1  0
  7 42  1  0
  8 43  1  0
 11 44  1  0
 12 45  1  0
 15 46  1  0
 18 47  1  0
 18 48  1  0
 18 49  1  0
 21 50  1  0
 22 51  1  0
 24 52  1  0
 25 53  1  0
 26 54  1  0
 27 55  1  0
M  CHG  1  17   1
M  END
>  <UniqueID>  (24) 
24

>  <SMILES>  (24) 
CCN(CC)CCNc1c2ccc(Cl)cc2[n+](C)c2c1ccc1ccccc12

>  <Energy>  (24) 
102.18835140793497

>  <Genealogy>  (24) 
CCN(CC)CCNc1c2ccc(Cl)cc2[n+](C)c2c1ccc1ccccc12 (3D coordinates assigned)
CCN(CC)CCNc1c2ccc(Cl)cc2[n+](C)c2c1ccc1ccccc12 (optimized conformer: 102.18835140793497 kcal/mol)

>  <smiles>  (24) 
CCN(CC)CCNc1c2ccc(Cl)cc2[n+](C)c2c1ccc1ccccc12

>  <score_type>  (24) 
oracle

>  <origin>  (24) 
adg

>  <m_score__min__energy>  (24) 
-8.4499999999999993

>  <m_primary>  (24) 
energy

$$$$
24:0
     RDKit          3D

 62 64  0  0  0  0  0  0  0  0999 V2000
   -2.3800   24.5190  -27.9670 C   0  0  0  0  0  0  0  0  0  0  0  0
   -1.7450   24.1300  -29.2960 C   0  0  0  0  0  0  0  0  0  0  0  0
   -1.6160   22.6690  -29.3900 N   0  0  0  0  0  0  0  0  0  0  0  0
   -2.3510   21.9950  -28.3060 C   0  0  0  0  0  0  0  0  0  0  0  0
   -2.4350   20.4900  -28.5620 C   0  0  0  0  0  0  0  0  0  0  0  0
   -2.1050   20.2240  -29.9110 O   0  0  0  0  0  0  0  0  0  0  0  0
   -0.7430   19.8530  -30.0270 C   0  0  0  0  0  0  0  0  0  0  0  0
   -0.1360   20.3780  -31.3330 C   0  0  0  0  0  0  0  0  0  0  0  0
   -0.8860   21.4810  -31.8160 O   0  0  0  0  0  0  0  0  0  0  0  0
   -1.3620   21.2540  -33.1280 C   0  0  0  0  0  0  0  0  0  0  0  0
   -2.8980   21.2410  -33.1350 C   0  0  0  0  0  0  0  0  0  0  0  0
   -3.4730   21.1690  -31.7770 N   0  0  0  0  0  0  0  0  0  0  0  0
   -4.9050   21.4590  -31.7620 C   0  0  0  0  0  0  0  0  0  0  0  0
   -5.8480   20.5020  -32.2270 C   0  0  0  0  0  0  0  0  0  0  0  0
   -7.2390   20.7460  -32.0540 C   0  0  0  0  0  0  0  0  0  0  0  0
   -7.6820   21.9820  -31.6190 N   0  0  0  0  0  0  0  0  0  0  0  0
   -9.1300   22.3030  -31.6230 C   0  0  0  0  0  0  0  0  0  0  0  0
   -6.7850   22.9320  -31.1700 C   0  0  0  0  0  0  0  0  0  0  0  0
   -7.2300   24.1560  -30.5980 C   0  0  0  0  0  0  0  0  0  0  0  0
   -6.3300   25.1280  -30.1730 C   0  0  0  0  0  0  0  0  0  0  0  0
   -4.9660   24.9110  -30.2940 C   0  0  0  0  0  0  0  0  0  0  0  0
   -4.4930   23.7160  -30.8270 C   0  0  0  0  0  0  0  0  0  0  0  0
   -5.3820   22.6950  -31.2500 C   0  0  0  0  0  0  0  0  0  0  0  0
   -8.2450   19.6450  -32.3770 C   0  0  0  0  0  0  0  0  0  0  0  0
   -7.6260   18.2590  -32.5080 C   0  0  0  0  0  0  0  0  0  0  0  0
   -6.4620   18.3310  -33.4740 C   0  0  0  0  0  0  0  0  0  0  0  0
   -5.3600   19.2130  -32.8910 C   0  0  0  0  0  0  0  0  0  0  0  0
   -1.7613   24.1400  -27.1402 H   0  0  0  0  0  0  0  0  0  0  0  0
   -2.4494   25.6148  -27.9006 H   0  0  0  0  0  0  0  0  0  0  0  0
   -3.3877   24.0831  -27.9006 H   0  0  0  0  0  0  0  0  0  0  0  0
   -2.3768   24.4925  -30.1202 H   0  0  0  0  0  0  0  0  0  0  0  0
   -0.7448   24.5830  -29.3615 H   0  0  0  0  0  0  0  0  0  0  0  0
   -2.0520   22.3720  -30.2970 H   0  0  0  0  0  0  0  0  0  0  0  0
   -1.8298   22.1704  -27.3533 H   0  0  0  0  0  0  0  0  0  0  0  0
   -3.3715   22.4034  -28.2645 H   0  0  0  0  0  0  0  0  0  0  0  0
   -1.7292   19.9654  -27.9012 H   0  0  0  0  0  0  0  0  0  0  0  0
   -3.4573   20.1390  -28.3577 H   0  0  0  0  0  0  0  0  0  0  0  0
   -0.1834   20.2712  -29.1774 H   0  0  0  0  0  0  0  0  0  0  0  0
   -0.6796   18.7548  -30.0296 H   0  0  0  0  0  0  0  0  0  0  0  0
    0.9006   20.6967  -31.1490 H   0  0  0  0  0  0  0  0  0  0  0  0
   -0.1556   19.5752  -32.0848 H   0  0  0  0  0  0  0  0  0  0  0  0
   -1.0015   22.0552  -33.7899 H   0  0  0  0  0  0  0  0  0  0  0  0
   -0.9912   20.2812  -33.4833 H   0  0  0  0  0  0  0  0  0  0  0  0
   -3.2556   22.1611  -33.6203 H   0  0  0  0  0  0  0  0  0  0  0  0
   -3.2204   20.3419  -33.6806 H   0  0  0  0  0  0  0  0  0  0  0  0
   -3.3090   20.2170  -31.3780 H   0  0  0  0  0  0  0  0  0  0  0  0
   -2.9170   21.7860  -31.1500 H   0  0  0  0  0  0  0  0  0  0  0  0
   -9.4907   22.3830  -30.5869 H   0  0  0  0  0  0  0  0  0  0  0  0
   -9.2922   23.2589  -32.1425 H   0  0  0  0  0  0  0  0  0  0  0  0
   -9.6810   21.5052  -32.1425 H   0  0  0  0  0  0  0  0  0  0  0  0
   -8.3094   24.3380  -30.4893 H   0  0  0  0  0  0  0  0  0  0  0  0
   -6.7007   26.0691  -29.7408 H   0  0  0  0  0  0  0  0  0  0  0  0
   -4.2561   25.6854  -29.9679 H   0  0  0  0  0  0  0  0  0  0  0  0
   -3.4083   23.5600  -30.9222 H   0  0  0  0  0  0  0  0  0  0  0  0
   -8.9945   19.6144  -31.5725 H   0  0  0  0  0  0  0  0  0  0  0  0
   -8.6834   19.8915  -33.3553 H   0  0  0  0  0  0  0  0  0  0  0  0
   -7.2691   17.9195  -31.5244 H   0  0  0  0  0  0  0  0  0  0  0  0
   -8.3779   17.5489  -32.8827 H   0  0  0  0  0  0  0  0  0  0  0  0
   -6.0670   17.3189  -33.6460 H   0  0  0  0  0  0  0  0  0  0  0  0
   -6.8061   18.7613  -34.4261 H   0  0  0  0  0  0  0  0  0  0  0  0
   -4.8156   18.6255  -32.1370 H   0  0  0  0  0  0  0  0  0  0  0  0
   -4.7323   19.5225  -33.7396 H   0  0  0  0  0  0  0  0  0  0  0  0
  1  2  1  0
  2  3  1  0
  3  4  1  0
  4  5  1  0
  5  6  1  0
  6  7  1  0
  7  8  1  0
  8  9  1  0
  9 10  1  0
 10 11  1  0
 11 12  1  0
 12 13  1  0
 13 14  2  0
 14 15  1  0
 15 16  2  0
 16 17  1  0
 16 18  1  0
 18 19  2  0
 19 20  1  0
 20 21  2  0
 21 22  1  0
 22 23  2  0
 15 24  1  0
 24 25  1  0
 25 26  1  0
 26 27  1  0
 23 13  1  0
 27 14  1  0
 23 18  1  0
  1 28  1  0
  1 29  1  0
  1 30  1  0
  2 31  1  0
  2 32  1  0
  3 33  1  0
  4 34  1  0
  4 35  1  0
  5 36  1  0
  5 37  1  0
  7 38  1  0
  7 39  1  0
  8 40  1  0
  8 41  1  0
 10 42  1  0
 10 43  1  0
 11 44  1  0
 11 45  1  0
 12 46  1  0
 12 47  1  0
 17 48  1  0
 17 49  1  0
 17 50  1  0
 19 51  1  0
 20 52  1  0
 21 53  1  0
 22 54  1  0
 24 55  1  0
 24 56  1  0
 25 57  1  0
 25 58  1  0
 26 59  1  0
 26 60  1  0
 27 61  1  0
 27 62  1  0
M  CHG  2  12   1  16   1
M  END
>  <UniqueID>  (25) 
25

>  <SMILES>  (25) 
CCNCCOCCOCC[NH2+]c1c2c([n+](C)c3ccccc13)CCCC2

>  <Energy>  (25) 
83.27098246409868

>  <Genealogy>  (25) 
CCNCCOCCOCC[NH2+]c1c2c([n+](C)c3ccccc13)CCCC2 (protonated)
CCNCCOCCOCC[NH2+]c1c2c([n+](C)c3ccccc13)CCCC2 (3D coordinates assigned)
CCNCCOCCOCC[NH2+]c1c2c([n+](C)c3ccccc13)CCCC2 (nonaromatic ring conformer: 83.27098246409868 kcal/mol)

>  <smiles>  (25) 
CCNCCOCCOCCNc1c2c([n+](C)c3ccccc13)CCCC2

>  <score_type>  (25) 
oracle

>  <origin>  (25) 
adg

>  <m_score__min__energy>  (25) 
-8.3699999999999992

>  <m_primary>  (25) 
energy

$$$$
25:0
     RDKit          3D

 93 97  0  0  0  0  0  0  0  0999 V2000
   -8.7500   20.4520  -31.7370 C   0  0  0  0  0  0  0  0  0  0  0  0
   -8.0600   19.2120  -32.3410 C   0  0  0  0  0  0  0  0  0  0  0  0
   -7.0670   19.5860  -33.3760 N   0  0  0  0  0  0  0  0  0  0  0  0
   -6.2650   18.4210  -33.7940 C   0  0  0  0  0  0  0  0  0  0  0  0
   -4.8540   18.4470  -33.1670 C   0  0  0  0  0  0  0  0  0  0  0  0
   -4.7980   19.4760  -32.1070 N   0  0  0  0  0  0  0  0  0  0  0  0
   -3.7310   20.5260  -32.2130 C   0  0  2  0  0  0  0  0  0  0  0  0
   -2.3680   20.1590  -31.5690 C   0  0  0  0  0  0  0  0  0  0  0  0
   -1.5160   19.2340  -32.1530 C   0  0  0  0  0  0  0  0  0  0  0  0
   -1.8220   18.6170  -33.4990 C   0  0  0  0  0  0  0  0  0  0  0  0
   -0.8490   19.1390  -34.5710 C   0  0  0  0  0  0  0  0  0  0  0  0
    0.4940   19.6770  -33.9900 C   0  0  2  0  0  0  0  0  0  0  0  0
    1.5370   20.1420  -35.1350 C   0  0  2  0  0  0  0  0  0  0  0  0
    1.0080   21.5370  -35.6380 C   0  0  0  0  0  0  0  0  0  0  0  0
    1.5860   19.1940  -36.3750 C   0  0  0  0  0  0  0  0  0  0  0  0
    2.3900   19.7650  -37.5540 C   0  0  0  0  0  0  0  0  0  0  0  0
    3.5680   20.5940  -37.1350 C   0  0  0  0  0  0  0  0  0  0  0  0
    4.0650   21.3530  -37.9590 O   0  0  0  0  0  0  0  0  0  0  0  0
    4.1680   20.4250  -35.7340 C   0  0  0  0  0  0  0  0  0  0  0  0
    5.0710   19.1730  -35.8250 C   0  0  0  0  0  0  0  0  0  0  0  0
    5.0990   21.6290  -35.4320 C   0  0  0  0  0  0  0  0  0  0  0  0
    3.0260   20.3370  -34.6040 C   0  0  2  0  0  0  0  0  0  0  0  0
    3.4320   19.3620  -33.4700 C   0  0  0  0  0  0  0  0  0  0  0  0
    2.3920   19.3010  -32.3540 C   0  0  0  0  0  0  0  0  0  0  0  0
    0.9860   18.7690  -32.8070 C   0  0  2  0  0  0  0  0  0  0  0  0
    1.2050   17.3060  -33.3270 C   0  0  0  0  0  0  0  0  0  0  0  0
   -0.1220   18.8380  -31.5900 C   0  0  2  0  0  0  0  0  0  0  0  0
   -0.2730   17.4450  -30.8940 C   0  0  0  0  0  0  0  0  0  0  0  0
    0.2950   19.8220  -30.4470 C   0  0  0  0  0  0  0  0  0  0  0  0
   -0.8710   20.2220  -29.5380 C   0  0  0  0  0  0  0  0  0  0  0  0
   -1.9040   21.0130  -30.3660 C   0  0  1  0  0  0  0  0  0  0  0  0
   -1.2370   22.3550  -30.8530 C   0  0  0  0  0  0  0  0  0  0  0  0
   -3.1080   21.3560  -29.4440 C   0  0  0  0  0  0  0  0  0  0  0  0
   -4.3170   21.9880  -30.1780 C   0  0  0  0  0  0  0  0  0  0  0  0
   -4.2290   21.9190  -31.7180 C   0  0  2  0  0  0  0  0  0  0  0  0
   -5.5280   22.4050  -32.3940 C   0  0  0  0  0  0  0  0  0  0  0  0
   -8.7166   20.3919  -30.6392 H   0  0  0  0  0  0  0  0  0  0  0  0
   -8.2280   21.3610  -32.0705 H   0  0  0  0  0  0  0  0  0  0  0  0
   -9.7976   20.4876  -32.0705 H   0  0  0  0  0  0  0  0  0  0  0  0
   -7.5476   18.6626  -31.5375 H   0  0  0  0  0  0  0  0  0  0  0  0
   -8.8314   18.5880  -32.8159 H   0  0  0  0  0  0  0  0  0  0  0  0
   -7.6060   19.9070  -34.2170 H   0  0  0  0  0  0  0  0  0  0  0  0
   -6.7793   17.5016  -33.4775 H   0  0  0  0  0  0  0  0  0  0  0  0
   -6.1557   18.4535  -34.8881 H   0  0  0  0  0  0  0  0  0  0  0  0
   -4.6289   17.4619  -32.7324 H   0  0  0  0  0  0  0  0  0  0  0  0
   -4.1141   18.6855  -33.9453 H   0  0  0  0  0  0  0  0  0  0  0  0
   -5.7320   19.9400  -32.0830 H   0  0  0  0  0  0  0  0  0  0  0  0
   -4.7280   18.9570  -31.1930 H   0  0  0  0  0  0  0  0  0  0  0  0
   -3.5271   20.5841  -33.2924 H   0  0  0  0  0  0  0  0  0  0  0  0
   -1.7253   17.5237  -33.4254 H   0  0  0  0  0  0  0  0  0  0  0  0
   -2.8472   18.8911  -33.7886 H   0  0  0  0  0  0  0  0  0  0  0  0
   -0.6223   18.3159  -35.2646 H   0  0  0  0  0  0  0  0  0  0  0  0
   -1.3446   19.9844  -35.0706 H   0  0  0  0  0  0  0  0  0  0  0  0
    0.3464   20.6461  -33.4910 H   0  0  0  0  0  0  0  0  0  0  0  0
    0.7673   22.1717  -34.7724 H   0  0  0  0  0  0  0  0  0  0  0  0
    1.7833   22.0254  -36.2465 H   0  0  0  0  0  0  0  0  0  0  0  0
    0.1038   21.3885  -36.2465 H   0  0  0  0  0  0  0  0  0  0  0  0
    2.0463   18.2433  -36.0680 H   0  0  0  0  0  0  0  0  0  0  0  0
    0.5507   19.0640  -36.7231 H   0  0  0  0  0  0  0  0  0  0  0  0
    2.7553   18.9258  -38.1641 H   0  0  0  0  0  0  0  0  0  0  0  0
    1.7134   20.4274  -38.1138 H   0  0  0  0  0  0  0  0  0  0  0  0
    5.3208   18.8266  -34.8113 H   0  0  0  0  0  0  0  0  0  0  0  0
    4.5388   18.3755  -36.3642 H   0  0  0  0  0  0  0  0  0  0  0  0
    5.9957   19.4263  -36.3642 H   0  0  0  0  0  0  0  0  0  0  0  0
    5.1955   21.7538  -34.3434 H   0  0  0  0  0  0  0  0  0  0  0  0
    6.0912   21.4440  -35.8693 H   0  0  0  0  0  0  0  0  0  0  0  0
    4.6702   22.5428  -35.8693 H   0  0  0  0  0  0  0  0  0  0  0  0
    2.9726   21.3441  -34.1648 H   0  0  0  0  0  0  0  0  0  0  0  0
    3.5521   18.3551  -33.8962 H   0  0  0  0  0  0  0  0  0  0  0  0
    4.3719   19.7296  -33.0325 H   0  0  0  0  0  0  0  0  0  0  0  0
    2.7732   18.6369  -31.5643 H   0  0  0  0  0  0  0  0  0  0  0  0
    2.2406   20.3344  -32.0087 H   0  0  0  0  0  0  0  0  0  0  0  0
    1.3071   16.6238  -32.4702 H   0  0  0  0  0  0  0  0  0  0  0  0
    0.3425   17.0010  -33.9378 H   0  0  0  0  0  0  0  0  0  0  0  0
    2.1190   17.2669  -33.9378 H   0  0  0  0  0  0  0  0  0  0  0  0
   -0.2587   17.5772  -29.8021 H   0  0  0  0  0  0  0  0  0  0  0  0
   -1.2262   16.9860  -31.1953 H   0  0  0  0  0  0  0  0  0  0  0  0
    0.5597   16.7924  -31.1953 H   0  0  0  0  0  0  0  0  0  0  0  0
    1.0667   19.3360  -29.8319 H   0  0  0  0  0  0  0  0  0  0  0  0
    0.6652   20.7404  -30.9261 H   0  0  0  0  0  0  0  0  0  0  0  0
   -1.3433   19.3186  -29.1247 H   0  0  0  0  0  0  0  0  0  0  0  0
   -0.5008   20.8460  -28.7112 H   0  0  0  0  0  0  0  0  0  0  0  0
   -0.9391   22.9543  -29.9800 H   0  0  0  0  0  0  0  0  0  0  0  0
   -0.3488   22.1240  -31.4595 H   0  0  0  0  0  0  0  0  0  0  0  0
   -1.9574   22.9235  -31.4595 H   0  0  0  0  0  0  0  0  0  0  0  0
   -3.4462   20.4277  -28.9603 H   0  0  0  0  0  0  0  0  0  0  0  0
   -2.7490   22.1079  -28.7258 H   0  0  0  0  0  0  0  0  0  0  0  0
   -5.2280   21.4596  -29.8605 H   0  0  0  0  0  0  0  0  0  0  0  0
   -4.3275   23.0547  -29.9094 H   0  0  0  0  0  0  0  0  0  0  0  0
   -3.4552   22.6309  -32.0410 H   0  0  0  0  0  0  0  0  0  0  0  0
   -6.2623   22.6797  -31.6224 H   0  0  0  0  0  0  0  0  0  0  0  0
   -5.3092   23.2821  -33.0208 H   0  0  0  0  0  0  0  0  0  0  0  0
   -5.9386   21.5997  -33.0208 H   0  0  0  0  0  0  0  0  0  0  0  0
  1  2  1  0
  2  3  1  0
  3  4  1  0
  4  5  1  0
  5  6  1  0
  6  7  1  0
  7  8  1  0
  8  9  2  0
  9 10  1  0
 10 11  1  0
 11 12  1  0
 12 13  1  0
 13 14  1  6
 13 15  1  0
 15 16  1  0
 16 17  1  0
 17 18  2  0
 17 19  1  0
 19 20  1  0
 19 21  1  0
 19 22  1  0
 22 23  1  0
 23 24  1  0
 24 25  1  0
 25 26  1  6
 25 27  1  0
 27 28  1  1
 27 29  1  0
 29 30  1  0
 30 31  1  0
 31 32  1  6
 31 33  1  0
 33 34  1  0
 34 35  1  0
 35 36  1  0
 35  7  1  0
 31  8  1  0
 27  9  1  0
 25 12  1  0
 22 13  1  0
  1 37  1  0
  1 38  1  0
  1 39  1  0
  2 40  1  0
  2 41  1  0
  3 42  1  0
  4 43  1  0
  4 44  1  0
  5 45  1  0
  5 46  1  0
  6 47  1  0
  6 48  1  0
  7 49  1  6
 10 50  1  0
 10 51  1  0
 11 52  1  0
 11 53  1  0
 12 54  1  1
 14 55  1  0
 14 56  1  0
 14 57  1  0
 15 58  1  0
 15 59  1  0
 16 60  1  0
 16 61  1  0
 20 62  1  0
 20 63  1  0
 20 64  1  0
 21 65  1  0
 21 66  1  0
 21 67  1  0
 22 68  1  1
 23 69  1  0
 23 70  1  0
 24 71  1  0
 24 72  1  0
 26 73  1  0
 26 74  1  0
 26 75  1  0
 28 76  1  0
 28 77  1  0
 28 78  1  0
 29 79  1  0
 29 80  1  0
 30 81  1  0
 30 82  1  0
 32 83  1  0
 32 84  1  0
 32 85  1  0
 33 86  1  0
 33 87  1  0
 34 88  1  0
 34 89  1  0
 35 90  1  6
 36 91  1  0
 36 92  1  0
 36 93  1  0
M  CHG  1   6   1
M  END
>  <UniqueID>  (26) 
26

>  <SMILES>  (26) 
CCNCC[NH2+][C@@H]1C2=C3CC[C@@H]4C5(C)CCC(=O)C(C)(C)C5CCC4(C)C3(C)CCC2(C)CCC1C

>  <Energy>  (26) 
179.72449101451

>  <Genealogy>  (26) 
CCNCC[NH2+]C1C2=C3CCC4C5(C)CCC(=O)C(C)(C)C5CCC4(C)C3(C)CCC2(C)CCC1C (protonated)
CCNCC[NH2+][C@@H]1C2=C3CC[C@@H]4C5(C)CCC(=O)C(C)(C)C5CCC4(C)C3(C)CCC2(C)CCC1C (chirality)
CCNCC[NH2+][C@@H]1C2=C3CC[C@@H]4C5(C)CCC(=O)C(C)(C)C5CCC4(C)C3(C)CCC2(C)CCC1C (3D coordinates assigned)
CCNCC[NH2+][C@@H]1C2=C3CC[C@@H]4C5(C)CCC(=O)C(C)(C)C5CCC4(C)C3(C)CCC2(C)CCC1C (nonaromatic ring conformer: 179.72449101451 kcal/mol)

>  <smiles>  (26) 
CCNCCNC1C2=C3CCC4C5(C)CCC(=O)C(C)(C)C5CCC4(C)C3(C)CCC2(C)CCC1C

>  <score_type>  (26) 
oracle

>  <origin>  (26) 
adg

>  <m_score__min__energy>  (26) 
-10.26

>  <m_primary>  (26) 
energy

$$$$
26:0
     RDKit          3D

 44 46  0  0  0  0  0  0  0  0999 V2000
   -5.4090   25.3360  -30.8160 C   0  0  0  0  0  0  0  0  0  0  0  0
   -4.8150   24.0830  -30.1570 C   0  0  0  0  0  0  0  0  0  0  0  0
   -3.3340   24.0290  -30.1870 N   0  0  0  0  0  0  0  0  0  0  0  0
   -2.7380   24.6070  -28.9670 C   0  0  0  0  0  0  0  0  0  0  0  0
   -2.8230   22.6680  -30.4610 C   0  0  0  0  0  0  0  0  0  0  0  0
   -3.9060   21.8050  -31.1290 C   0  0  0  0  0  0  0  0  0  0  0  0
   -3.5070   21.3480  -32.5420 C   0  0  0  0  0  0  0  0  0  0  0  0
   -4.6610   21.3190  -33.4460 N   0  0  0  0  0  0  0  0  0  0  0  0
   -5.8050   20.4810  -33.2110 C   0  0  0  0  0  0  0  0  0  0  0  0
   -6.9550   20.9910  -32.5650 C   0  0  0  0  0  0  0  0  0  0  0  0
   -7.0990   22.3580  -32.2580 C   0  0  0  0  0  0  0  0  0  0  0  0
   -8.2450   22.8180  -31.6040 C   0  0  0  0  0  0  0  0  0  0  0  0
   -9.2650   21.9280  -31.2610 C   0  0  0  0  0  0  0  0  0  0  0  0
   -9.1500   20.5740  -31.5830 C   0  0  0  0  0  0  0  0  0  0  0  0
   -8.0080   20.1020  -32.2400 C   0  0  0  0  0  0  0  0  0  0  0  0
   -7.9220   18.7880  -32.5720 N   0  0  0  0  0  0  0  0  0  0  0  0
   -6.8490   18.2810  -33.2280 C   0  0  0  0  0  0  0  0  0  0  0  0
   -6.8180   16.9570  -33.5370 N   0  0  0  0  0  0  0  0  0  0  0  0
   -5.7630   16.3980  -34.1860 C   0  0  0  0  0  0  0  0  0  0  0  0
   -4.6740   17.1860  -34.5600 C   0  0  0  0  0  0  0  0  0  0  0  0
   -4.6760   18.5490  -34.2580 C   0  0  0  0  0  0  0  0  0  0  0  0
   -5.7690   19.1180  -33.5790 C   0  0  0  0  0  0  0  0  0  0  0  0
   -5.7415   26.0375  -30.0367 H   0  0  0  0  0  0  0  0  0  0  0  0
   -4.6439   25.8189  -31.4417 H   0  0  0  0  0  0  0  0  0  0  0  0
   -6.2671   25.0494  -31.4417 H   0  0  0  0  0  0  0  0  0  0  0  0
   -5.1406   24.0576  -29.1066 H   0  0  0  0  0  0  0  0  0  0  0  0
   -5.1761   23.2190  -30.7342 H   0  0  0  0  0  0  0  0  0  0  0  0
   -3.2054   24.1537  -28.0804 H   0  0  0  0  0  0  0  0  0  0  0  0
   -1.6569   24.4043  -28.9556 H   0  0  0  0  0  0  0  0  0  0  0  0
   -2.9074   25.6938  -28.9556 H   0  0  0  0  0  0  0  0  0  0  0  0
   -1.9527   22.7370  -31.1302 H   0  0  0  0  0  0  0  0  0  0  0  0
   -2.5356   22.1997  -29.5080 H   0  0  0  0  0  0  0  0  0  0  0  0
   -4.0812   20.9150  -30.5068 H   0  0  0  0  0  0  0  0  0  0  0  0
   -4.8136   22.4198  -31.2206 H   0  0  0  0  0  0  0  0  0  0  0  0
   -2.7563   22.0444  -32.9437 H   0  0  0  0  0  0  0  0  0  0  0  0
   -3.0995   20.3287  -32.4716 H   0  0  0  0  0  0  0  0  0  0  0  0
   -4.6010   21.8380  -34.3500 H   0  0  0  0  0  0  0  0  0  0  0  0
   -6.3051   23.0674  -32.5345 H   0  0  0  0  0  0  0  0  0  0  0  0
   -8.3441   23.8856  -31.3583 H   0  0  0  0  0  0  0  0  0  0  0  0
  -10.1601   22.2939  -30.7366 H   0  0  0  0  0  0  0  0  0  0  0  0
   -9.9590   19.8768  -31.3196 H   0  0  0  0  0  0  0  0  0  0  0  0
   -5.7676   15.3225  -34.4169 H   0  0  0  0  0  0  0  0  0  0  0  0
   -3.8204   16.7367  -35.0888 H   0  0  0  0  0  0  0  0  0  0  0  0
   -3.8227   19.1783  -34.5510 H   0  0  0  0  0  0  0  0  0  0  0  0
  1  2  1  0
  2  3  1  0
  3  4  1  0
  3  5  1  0
  5  6  1  0
  6  7  1  0
  7  8  1  0
  8  9  1  0
  9 10  2  0
 10 11  1  0
 11 12  2  0
 12 13  1  0
 13 14  2  0
 14 15  1  0
 15 16  2  0
 16 17  1  0
 17 18  2  0
 18 19  1  0
 19 20  2  0
 20 21  1  0
 21 22  2  0
 22  9  1  0
 15 10  1  0
 22 17  1  0
  1 23  1  0
  1 24  1  0
  1 25  1  0
  2 26  1  0
  2 27  1  0
  4 28  1  0
  4 29  1  0
  4 30  1  0
  5 31  1  0
  5 32  1  0
  6 33  1  0
  6 34  1  0
  7 35  1  0
  7 36  1  0
  8 37  1  0
 11 38  1  0
 12 39  1  0
 13 40  1  0
 14 41  1  0
 19 42  1  0
 20 43  1  0
 21 44  1  0
M  END
>  <UniqueID>  (27) 
27

>  <SMILES>  (27) 
CCN(C)CCCNc1c2ccccc2nc2ncccc12

>  <Energy>  (27) 
56.438325066045216

>  <Genealogy>  (27) 
CCN(C)CCCNc1c2ccccc2nc2ncccc12 (3D coordinates assigned)
CCN(C)CCCNc1c2ccccc2nc2ncccc12 (optimized conformer: 56.438325066045216 kcal/mol)

>  <smiles>  (27) 
CCN(C)CCCNc1c2ccccc2nc2ncccc12

>  <score_type>  (27) 
oracle

>  <origin>  (27) 
adg

>  <m_score__min__energy>  (27) 
-8.7599999999999998

>  <m_primary>  (27) 
energy

$$$$
27:0
     RDKit          3D

 54 57  0  0  0  0  0  0  0  0999 V2000
   -9.0730   20.7520  -30.9180 C   0  0  0  0  0  0  0  0  0  0  0  0
   -9.6770   20.7140  -32.3250 C   0  0  0  0  0  0  0  0  0  0  0  0
   -9.1120   19.6300  -33.1470 N   0  0  0  0  0  0  0  0  0  0  0  0
   -8.4970   18.5720  -32.3220 C   0  0  0  0  0  0  0  0  0  0  0  0
   -7.3400   17.8740  -33.0600 C   0  0  0  0  0  0  0  0  0  0  0  0
   -6.5150   18.8290  -33.8070 N   0  0  0  0  0  0  0  0  0  0  0  0
   -5.3730   19.4790  -33.2270 C   0  0  0  0  0  0  0  0  0  0  0  0
   -4.1460   18.7970  -33.1420 C   0  0  0  0  0  0  0  0  0  0  0  0
   -4.0530   17.4230  -33.4460 C   0  0  0  0  0  0  0  0  0  0  0  0
   -2.8200   16.7740  -33.4230 C   0  0  0  0  0  0  0  0  0  0  0  0
   -1.6640   17.4810  -33.1020 C   0  0  0  0  0  0  0  0  0  0  0  0
   -0.1150   16.6570  -33.0760 Cl  0  0  0  0  0  0  0  0  0  0  0  0
   -1.7370   18.8420  -32.7990 C   0  0  0  0  0  0  0  0  0  0  0  0
   -2.9770   19.5250  -32.8130 C   0  0  0  0  0  0  0  0  0  0  0  0
   -3.0570   20.8750  -32.5480 N   0  0  0  0  0  0  0  0  0  0  0  0
   -1.8640   21.7120  -32.8030 C   0  0  0  0  0  0  0  0  0  0  0  0
   -4.2880   21.4550  -32.2880 C   0  0  0  0  0  0  0  0  0  0  0  0
   -5.4610   20.8000  -32.7510 C   0  0  0  0  0  0  0  0  0  0  0  0
   -6.6970   21.4700  -32.7150 C   0  0  0  0  0  0  0  0  0  0  0  0
   -6.7920   22.7640  -32.2190 C   0  0  0  0  0  0  0  0  0  0  0  0
   -5.6850   23.3730  -31.6290 C   0  0  0  0  0  0  0  0  0  0  0  0
   -5.8320   24.6270  -31.0170 C   0  0  0  0  0  0  0  0  0  0  0  0
   -4.7780   25.1870  -30.2970 C   0  0  0  0  0  0  0  0  0  0  0  0
   -3.5820   24.4870  -30.1360 C   0  0  0  0  0  0  0  0  0  0  0  0
   -2.5780   25.0650  -29.3450 O   0  0  0  0  0  0  0  0  0  0  0  0
   -2.1950   24.5950  -28.0560 C   0  0  0  0  0  0  0  0  0  0  0  0
   -3.4260   23.2350  -30.7590 C   0  0  0  0  0  0  0  0  0  0  0  0
   -4.4360   22.6990  -31.5900 C   0  0  0  0  0  0  0  0  0  0  0  0
   -9.8792   20.7013  -30.1714 H   0  0  0  0  0  0  0  0  0  0  0  0
   -8.3966   19.8946  -30.7861 H   0  0  0  0  0  0  0  0  0  0  0  0
   -8.5094   21.6874  -30.7861 H   0  0  0  0  0  0  0  0  0  0  0  0
  -10.7633   20.5637  -32.2396 H   0  0  0  0  0  0  0  0  0  0  0  0
   -9.4409   21.6684  -32.8184 H   0  0  0  0  0  0  0  0  0  0  0  0
   -8.3680   20.0410  -33.7580 H   0  0  0  0  0  0  0  0  0  0  0  0
   -9.8520   19.2400  -33.7720 H   0  0  0  0  0  0  0  0  0  0  0  0
   -8.1092   19.0221  -31.3963 H   0  0  0  0  0  0  0  0  0  0  0  0
   -9.2672   17.8182  -32.1015 H   0  0  0  0  0  0  0  0  0  0  0  0
   -6.7076   17.3577  -32.3228 H   0  0  0  0  0  0  0  0  0  0  0  0
   -7.7729   17.1617  -33.7778 H   0  0  0  0  0  0  0  0  0  0  0  0
   -6.8060   19.0980  -34.7750 H   0  0  0  0  0  0  0  0  0  0  0  0
   -4.9615   16.8588  -33.7035 H   0  0  0  0  0  0  0  0  0  0  0  0
   -2.7598   15.7013  -33.6588 H   0  0  0  0  0  0  0  0  0  0  0  0
   -0.8182   19.3913  -32.5459 H   0  0  0  0  0  0  0  0  0  0  0  0
   -1.4220   22.0221  -31.8446 H   0  0  0  0  0  0  0  0  0  0  0  0
   -1.1257   21.1329  -33.3770 H   0  0  0  0  0  0  0  0  0  0  0  0
   -2.1573   22.6033  -33.3770 H   0  0  0  0  0  0  0  0  0  0  0  0
   -7.6004   20.9627  -33.0845 H   0  0  0  0  0  0  0  0  0  0  0  0
   -7.7440   23.3103  -32.2919 H   0  0  0  0  0  0  0  0  0  0  0  0
   -6.7839   25.1710  -31.1059 H   0  0  0  0  0  0  0  0  0  0  0  0
   -4.8899   26.1871  -29.8530 H   0  0  0  0  0  0  0  0  0  0  0  0
   -2.6892   25.2015  -27.2828 H   0  0  0  0  0  0  0  0  0  0  0  0
   -2.4962   23.5429  -27.9449 H   0  0  0  0  0  0  0  0  0  0  0  0
   -1.1037   24.6776  -27.9449 H   0  0  0  0  0  0  0  0  0  0  0  0
   -2.5008   22.6627  -30.5963 H   0  0  0  0  0  0  0  0  0  0  0  0
  1  2  1  0
  2  3  1  0
  3  4  1  0
  4  5  1  0
  5  6  1  0
  6  7  1  0
  7  8  2  0
  8  9  1  0
  9 10  2  0
 10 11  1  0
 11 12  1  0
 11 13  2  0
 13 14  1  0
 14 15  2  0
 15 16  1  0
 15 17  1  0
 17 18  2  0
 18 19  1  0
 19 20  2  0
 20 21  1  0
 21 22  2  0
 22 23  1  0
 23 24  2  0
 24 25  1  0
 25 26  1  0
 24 27  1  0
 27 28  2  0
 18  7  1  0
 28 21  1  0
 14  8  1  0
 28 17  1  0
  1 29  1  0
  1 30  1  0
  1 31  1  0
  2 32  1  0
  2 33  1  0
  3 34  1  0
  3 35  1  0
  4 36  1  0
  4 37  1  0
  5 38  1  0
  5 39  1  0
  6 40  1  0
  9 41  1  0
 10 42  1  0
 13 43  1  0
 16 44  1  0
 16 45  1  0
 16 46  1  0
 19 47  1  0
 20 48  1  0
 22 49  1  0
 23 50  1  0
 26 51  1  0
 26 52  1  0
 26 53  1  0
 27 54  1  0
M  CHG  2   3   1  15   1
M  END
>  <UniqueID>  (28) 
28

>  <SMILES>  (28) 
CC[NH2+]CCNc1c2ccc(Cl)cc2[n+](C)c2c1ccc1ccc(OC)cc12

>  <Energy>  (28) 
93.4225769478364

>  <Genealogy>  (28) 
CC[NH2+]CCNc1c2ccc(Cl)cc2[n+](C)c2c1ccc1ccc(OC)cc12 (protonated)
CC[NH2+]CCNc1c2ccc(Cl)cc2[n+](C)c2c1ccc1ccc(OC)cc12 (3D coordinates assigned)
CC[NH2+]CCNc1c2ccc(Cl)cc2[n+](C)c2c1ccc1ccc(OC)cc12 (optimized conformer: 93.4225769478364 kcal/mol)

>  <smiles>  (28) 
CCNCCNc1c2ccc(Cl)cc2[n+](C)c2c1ccc1ccc(OC)cc12

>  <score_type>  (28) 
oracle

>  <origin>  (28) 
adg

>  <m_score__min__energy>  (28) 
-8.4199999999999999

>  <m_primary>  (28) 
energy

$$$$
28:0
     RDKit          3D

 54 55  0  0  0  0  0  0  0  0999 V2000
    0.1340   27.1710  -23.2800 C   0  0  0  0  0  0  0  0  0  0  0  0
    0.8210   26.2740  -24.3190 C   0  0  0  0  0  0  0  0  0  0  0  0
   -0.1310   25.6030  -25.2400 N   0  0  0  0  0  0  0  0  0  0  0  0
   -0.8520   24.5290  -24.5060 C   0  0  0  0  0  0  0  0  0  0  0  0
   -0.1130   23.1860  -24.5110 C   0  0  0  0  0  0  0  0  0  0  0  0
   -1.0390   26.5470  -25.9550 C   0  0  0  0  0  0  0  0  0  0  0  0
   -0.7930   26.6650  -27.4720 C   0  0  0  0  0  0  0  0  0  0  0  0
   -0.3790   25.4120  -27.9850 O   0  0  0  0  0  0  0  0  0  0  0  0
   -1.4340   24.4740  -27.9250 C   0  0  0  0  0  0  0  0  0  0  0  0
   -1.8840   24.1390  -29.3440 C   0  0  0  0  0  0  0  0  0  0  0  0
   -3.0060   24.9250  -29.6980 O   0  0  0  0  0  0  0  0  0  0  0  0
   -4.2030   24.2660  -29.3470 C   0  0  0  0  0  0  0  0  0  0  0  0
   -5.2730   24.5810  -30.3820 C   0  0  0  0  0  0  0  0  0  0  0  0
   -4.9770   23.9010  -31.5960 O   0  0  0  0  0  0  0  0  0  0  0  0
   -5.3900   22.5840  -31.8160 C   0  0  0  0  0  0  0  0  0  0  0  0
   -4.4370   21.5620  -31.9280 C   0  0  0  0  0  0  0  0  0  0  0  0
   -2.7180   21.9200  -31.8350 Cl  0  0  0  0  0  0  0  0  0  0  0  0
   -4.8420   20.2430  -32.1410 C   0  0  0  0  0  0  0  0  0  0  0  0
   -6.1960   19.9210  -32.2560 C   0  0  0  0  0  0  0  0  0  0  0  0
   -6.6170   18.2290  -32.5210 Cl  0  0  0  0  0  0  0  0  0  0  0  0
   -7.1720   20.9380  -32.1630 C   0  0  0  0  0  0  0  0  0  0  0  0
   -8.5470   20.6520  -32.2840 C   0  0  0  0  0  0  0  0  0  0  0  0
   -9.4950   21.6730  -32.1850 C   0  0  0  0  0  0  0  0  0  0  0  0
   -9.0900   22.9880  -31.9640 C   0  0  0  0  0  0  0  0  0  0  0  0
   -7.7340   23.2950  -31.8440 C   0  0  0  0  0  0  0  0  0  0  0  0
   -6.7620   22.2810  -31.9410 C   0  0  0  0  0  0  0  0  0  0  0  0
    0.3967   26.8280  -22.2684 H   0  0  0  0  0  0  0  0  0  0  0  0
    0.4695   28.2100  -23.4135 H   0  0  0  0  0  0  0  0  0  0  0  0
   -0.9566   27.1178  -23.4135 H   0  0  0  0  0  0  0  0  0  0  0  0
    1.5060   26.8937  -24.9163 H   0  0  0  0  0  0  0  0  0  0  0  0
    1.3503   25.4836  -23.7666 H   0  0  0  0  0  0  0  0  0  0  0  0
    0.4470   25.1270  -25.9740 H   0  0  0  0  0  0  0  0  0  0  0  0
   -0.9858   24.8494  -23.4622 H   0  0  0  0  0  0  0  0  0  0  0  0
   -1.8122   24.3731  -25.0196 H   0  0  0  0  0  0  0  0  0  0  0  0
    0.0654   22.8618  -23.4751 H   0  0  0  0  0  0  0  0  0  0  0  0
   -0.7239   22.4332  -25.0307 H   0  0  0  0  0  0  0  0  0  0  0  0
    0.8498   23.2992  -25.0307 H   0  0  0  0  0  0  0  0  0  0  0  0
   -2.0738   26.2064  -25.8027 H   0  0  0  0  0  0  0  0  0  0  0  0
   -0.8403   27.5433  -25.5331 H   0  0  0  0  0  0  0  0  0  0  0  0
   -1.7231   26.9755  -27.9706 H   0  0  0  0  0  0  0  0  0  0  0  0
   -0.0082   27.4131  -27.6577 H   0  0  0  0  0  0  0  0  0  0  0  0
   -1.0857   23.5592  -27.4232 H   0  0  0  0  0  0  0  0  0  0  0  0
   -2.2763   24.8986  -27.3591 H   0  0  0  0  0  0  0  0  0  0  0  0
   -1.0609   24.3440  -30.0444 H   0  0  0  0  0  0  0  0  0  0  0  0
   -2.1608   23.0755  -29.3916 H   0  0  0  0  0  0  0  0  0  0  0  0
   -4.0294   23.1802  -29.3168 H   0  0  0  0  0  0  0  0  0  0  0  0
   -4.5360   24.6098  -28.3566 H   0  0  0  0  0  0  0  0  0  0  0  0
   -6.2532   24.2513  -30.0073 H   0  0  0  0  0  0  0  0  0  0  0  0
   -5.2952   25.6652  -30.5664 H   0  0  0  0  0  0  0  0  0  0  0  0
   -4.0857   19.4481  -32.2192 H   0  0  0  0  0  0  0  0  0  0  0  0
   -8.8759   19.6168  -32.4577 H   0  0  0  0  0  0  0  0  0  0  0  0
  -10.5653   21.4382  -32.2818 H   0  0  0  0  0  0  0  0  0  0  0  0
   -9.8419   23.7869  -31.8839 H   0  0  0  0  0  0  0  0  0  0  0  0
   -7.4225   24.3359  -31.6725 H   0  0  0  0  0  0  0  0  0  0  0  0
  1  2  1  0
  2  3  1  0
  3  4  1  0
  4  5  1  0
  3  6  1  0
  6  7  1  0
  7  8  1  0
  8  9  1  0
  9 10  1  0
 10 11  1  0
 11 12  1  0
 12 13  1  0
 13 14  1  0
 14 15  1  0
 15 16  2  0
 16 17  1  0
 16 18  1  0
 18 19  2  0
 19 20  1  0
 19 21  1  0
 21 22  2  0
 22 23  1  0
 23 24  2  0
 24 25  1  0
 25 26  2  0
 26 15  1  0
 26 21  1  0
  1 27  1  0
  1 28  1  0
  1 29  1  0
  2 30  1  0
  2 31  1  0
  3 32  1  0
  4 33  1  0
  4 34  1  0
  5 35  1  0
  5 36  1  0
  5 37  1  0
  6 38  1  0
  6 39  1  0
  7 40  1  0
  7 41  1  0
  9 42  1  0
  9 43  1  0
 10 44  1  0
 10 45  1  0
 12 46  1  0
 12 47  1  0
 13 48  1  0
 13 49  1  0
 18 50  1  0
 22 51  1  0
 23 52  1  0
 24 53  1  0
 25 54  1  0
M  CHG  1   3   1
M  END
>  <UniqueID>  (29) 
29

>  <SMILES>  (29) 
CC[NH+](CC)CCOCCOCCOc1c(Cl)cc(Cl)c2ccccc12

>  <Energy>  (29) 
67.57133933887881

>  <Genealogy>  (29) 
CC[NH+](CC)CCOCCOCCOc1c(Cl)cc(Cl)c2ccccc12 (protonated)
CC[NH+](CC)CCOCCOCCOc1c(Cl)cc(Cl)c2ccccc12 (3D coordinates assigned)
CC[NH+](CC)CCOCCOCCOc1c(Cl)cc(Cl)c2ccccc12 (optimized conformer: 67.57133933887881 kcal/mol)

>  <smiles>  (29) 
CCN(CC)CCOCCOCCOc1c(Cl)cc(Cl)c2ccccc12

>  <score_type>  (29) 
oracle

>  <origin>  (29) 
adg

>  <m_score__min__energy>  (29) 
-9.4499999999999993

>  <m_primary>  (29) 
energy

$$$$
29:0
     RDKit          3D

 69 72  0  0  0  0  0  0  0  0999 V2000
   -1.9530   23.2060  -29.6680 C   0  0  0  0  0  0  0  0  0  0  0  0
   -3.4120   23.3170  -29.2400 C   0  0  0  0  0  0  0  0  0  0  0  0
   -4.0620   24.4680  -29.8840 N   0  0  0  0  0  0  0  0  0  0  0  0
   -5.5270   24.3450  -29.8600 C   0  0  0  0  0  0  0  0  0  0  0  0
   -6.1360   24.8000  -31.1950 C   0  0  0  0  0  0  0  0  0  0  0  0
   -5.9810   23.7770  -32.3320 C   0  0  0  0  0  0  0  0  0  0  0  0
   -5.2330   22.5920  -31.9040 N   0  0  0  0  0  0  0  0  0  0  0  0
   -5.5580   21.2670  -32.3480 C   0  0  0  0  0  0  0  0  0  0  0  0
   -6.8730   20.7510  -32.2720 C   0  0  0  0  0  0  0  0  0  0  0  0
   -7.8930   21.4700  -31.6170 C   0  0  0  0  0  0  0  0  0  0  0  0
   -9.1860   20.9580  -31.5380 C   0  0  0  0  0  0  0  0  0  0  0  0
   -9.4830   19.7170  -32.0870 C   0  0  0  0  0  0  0  0  0  0  0  0
   -8.4900   18.9690  -32.7150 C   0  0  0  0  0  0  0  0  0  0  0  0
   -7.1660   19.4590  -32.8260 C   0  0  0  0  0  0  0  0  0  0  0  0
   -6.1650   18.7150  -33.4370 N   0  0  0  0  0  0  0  0  0  0  0  0
   -6.4670   17.4340  -34.1050 C   0  0  0  0  0  0  0  0  0  0  0  0
   -4.8790   19.1880  -33.3830 C   0  0  0  0  0  0  0  0  0  0  0  0
   -3.7660   18.5650  -33.8480 N   0  0  0  0  0  0  0  0  0  0  0  0
   -2.7570   19.4280  -33.6140 C   0  0  0  0  0  0  0  0  0  0  0  0
   -1.4140   19.2450  -33.9370 C   0  0  0  0  0  0  0  0  0  0  0  0
   -0.5010   20.2720  -33.6290 C   0  0  0  0  0  0  0  0  0  0  0  0
    0.8450   20.0860  -33.9870 O   0  0  0  0  0  0  0  0  0  0  0  0
    1.8840   19.6590  -33.1060 C   0  0  0  0  0  0  0  0  0  0  0  0
    1.6920   18.1700  -32.7350 C   0  0  0  0  0  0  0  0  0  0  0  0
    1.1130   17.9210  -31.3770 N   0  0  0  0  0  0  0  0  0  0  0  0
    0.7460   19.1930  -30.7080 C   0  0  0  0  0  0  0  0  0  0  0  0
    2.0560   17.1600  -30.5210 C   0  0  0  0  0  0  0  0  0  0  0  0
   -0.1180   17.1120  -31.5470 C   0  0  0  0  0  0  0  0  0  0  0  0
   -0.9650   21.4460  -32.9760 C   0  0  0  0  0  0  0  0  0  0  0  0
   -2.3250   21.6070  -32.6620 C   0  0  0  0  0  0  0  0  0  0  0  0
   -3.2030   20.5780  -33.0040 C   0  0  0  0  0  0  0  0  0  0  0  0
   -4.5710   20.4260  -32.8530 C   0  0  0  0  0  0  0  0  0  0  0  0
   -1.3118   23.1572  -28.7756 H   0  0  0  0  0  0  0  0  0  0  0  0
   -1.8154   22.2948  -30.2686 H   0  0  0  0  0  0  0  0  0  0  0  0
   -1.6791   24.0859  -30.2686 H   0  0  0  0  0  0  0  0  0  0  0  0
   -3.9424   22.3970  -29.5268 H   0  0  0  0  0  0  0  0  0  0  0  0
   -3.4485   23.4577  -28.1496 H   0  0  0  0  0  0  0  0  0  0  0  0
   -3.8080   25.3220  -29.3320 H   0  0  0  0  0  0  0  0  0  0  0  0
   -5.7975   23.2941  -29.6801 H   0  0  0  0  0  0  0  0  0  0  0  0
   -5.9209   24.9854  -29.0570 H   0  0  0  0  0  0  0  0  0  0  0  0
   -7.2091   24.9860  -31.0405 H   0  0  0  0  0  0  0  0  0  0  0  0
   -5.5903   25.7042  -31.5028 H   0  0  0  0  0  0  0  0  0  0  0  0
   -6.9808   23.4642  -32.6674 H   0  0  0  0  0  0  0  0  0  0  0  0
   -5.4206   24.2570  -33.1478 H   0  0  0  0  0  0  0  0  0  0  0  0
   -4.4860   22.7030  -31.1810 H   0  0  0  0  0  0  0  0  0  0  0  0
   -7.6656   22.4459  -31.1633 H   0  0  0  0  0  0  0  0  0  0  0  0
   -9.9754   21.5389  -31.0387 H   0  0  0  0  0  0  0  0  0  0  0  0
  -10.5081   19.3229  -32.0254 H   0  0  0  0  0  0  0  0  0  0  0  0
   -8.7382   17.9816  -33.1315 H   0  0  0  0  0  0  0  0  0  0  0  0
   -6.6497   16.6589  -33.3462 H   0  0  0  0  0  0  0  0  0  0  0  0
   -7.3624   17.5503  -34.7333 H   0  0  0  0  0  0  0  0  0  0  0  0
   -5.6140   17.1381  -34.7333 H   0  0  0  0  0  0  0  0  0  0  0  0
   -3.6650   17.6210  -34.2800 H   0  0  0  0  0  0  0  0  0  0  0  0
   -1.0742   18.3181  -34.4222 H   0  0  0  0  0  0  0  0  0  0  0  0
    2.8570   19.7870  -33.6028 H   0  0  0  0  0  0  0  0  0  0  0  0
    1.8479   20.2648  -32.1886 H   0  0  0  0  0  0  0  0  0  0  0  0
    1.0203   17.7177  -33.4795 H   0  0  0  0  0  0  0  0  0  0  0  0
    2.6983   17.7260  -32.7239 H   0  0  0  0  0  0  0  0  0  0  0  0
    0.7849   19.0580  -29.6170 H   0  0  0  0  0  0  0  0  0  0  0  0
    1.4534   19.9811  -31.0054 H   0  0  0  0  0  0  0  0  0  0  0  0
   -0.2725   19.4832  -31.0054 H   0  0  0  0  0  0  0  0  0  0  0  0
    1.8234   17.3477  -29.4624 H   0  0  0  0  0  0  0  0  0  0  0  0
    1.9578   16.0851  -30.7330 H   0  0  0  0  0  0  0  0  0  0  0  0
    3.0859   17.4830  -30.7330 H   0  0  0  0  0  0  0  0  0  0  0  0
   -0.5218   16.8467  -30.5588 H   0  0  0  0  0  0  0  0  0  0  0  0
   -0.8660   17.6952  -32.1042 H   0  0  0  0  0  0  0  0  0  0  0  0
    0.1205   16.1940  -32.1042 H   0  0  0  0  0  0  0  0  0  0  0  0
   -0.2498   22.2392  -32.7129 H   0  0  0  0  0  0  0  0  0  0  0  0
   -2.6868   22.5172  -32.1614 H   0  0  0  0  0  0  0  0  0  0  0  0
  1  2  1  0
  2  3  1  0
  3  4  1  0
  4  5  1  0
  5  6  1  0
  6  7  1  0
  7  8  1  0
  8  9  2  0
  9 10  1  0
 10 11  2  0
 11 12  1  0
 12 13  2  0
 13 14  1  0
 14 15  2  0
 15 16  1  0
 15 17  1  0
 17 18  1  0
 18 19  1  0
 19 20  2  0
 20 21  1  0
 21 22  1  0
 22 23  1  0
 23 24  1  0
 24 25  1  0
 25 26  1  0
 25 27  1  0
 25 28  1  0
 21 29  2  0
 29 30  1  0
 30 31  2  0
 31 32  1  0
 32  8  1  0
 14  9  1  0
 32 17  2  0
 31 19  1  0
  1 33  1  0
  1 34  1  0
  1 35  1  0
  2 36  1  0
  2 37  1  0
  3 38  1  0
  4 39  1  0
  4 40  1  0
  5 41  1  0
  5 42  1  0
  6 43  1  0
  6 44  1  0
  7 45  1  0
 10 46  1  0
 11 47  1  0
 12 48  1  0
 13 49  1  0
 16 50  1  0
 16 51  1  0
 16 52  1  0
 18 53  1  0
 20 54  1  0
 23 55  1  0
 23 56  1  0
 24 57  1  0
 24 58  1  0
 26 59  1  0
 26 60  1  0
 26 61  1  0
 27 62  1  0
 27 63  1  0
 27 64  1  0
 28 65  1  0
 28 66  1  0
 28 67  1  0
 29 68  1  0
 30 69  1  0
M  CHG  2  15   1  25   1
M  END
>  <UniqueID>  (30) 
30

>  <SMILES>  (30) 
CCNCCCNc1c2ccccc2[n+](C)c2[nH]c3cc(OCC[N+](C)(C)C)ccc3c12

>  <Energy>  (30) 
125.22202537762278

>  <Genealogy>  (30) 
CCNCCCNc1c2ccccc2[n+](C)c2[nH]c3cc(OCC[N+](C)(C)C)ccc3c12 (3D coordinates assigned)
CCNCCCNc1c2ccccc2[n+](C)c2[nH]c3cc(OCC[N+](C)(C)C)ccc3c12 (optimized conformer: 125.22202537762278 kcal/mol)

>  <smiles>  (30) 
CCNCCCNc1c2ccccc2[n+](C)c2[nH]c3cc(OCC[N+](C)(C)C)ccc3c12

>  <score_type>  (30) 
oracle

>  <origin>  (30) 
adg

>  <m_score__min__energy>  (30) 
-8.2799999999999994

>  <m_primary>  (30) 
energy

$$$$
