0:0
     RDKit          3D

 39 40  0  0  0  0  0  0  0  0999 V2000
   -0.8480   26.2300  -27.9410 C   0  0  0  0  0  0  0  0  0  0  0  0
   -1.6430   25.6820  -28.9670 O   0  0  0  0  0  0  0  0  0  0  0  0
   -2.4580   24.6610  -28.4330 C   0  0  0  0  0  0  0  0  0  0  0  0
   -3.2240   24.0180  -29.5480 C   0  0  0  0  0  0  0  0  0  0  0  0
   -4.2610   24.5920  -30.2510 C   0  0  0  0  0  0  0  0  0  0  0  0
   -4.6340   23.7690  -31.2510 N   0  0  0  0  0  0  0  0  0  0  0  0
   -3.8110   22.7060  -31.1310 C   0  0  0  0  0  0  0  0  0  0  0  0
   -3.8220   21.3830  -32.2850 S   0  0  0  0  0  0  0  0  0  0  0  0
   -4.2160   21.9130  -33.8290 O   0  0  0  0  0  0  0  0  0  0  0  0
   -4.8580   20.0280  -31.7580 C   0  0  0  0  0  0  0  0  0  0  0  0
   -6.3110   20.3270  -32.0400 C   0  0  0  0  0  0  0  0  0  0  0  0
   -6.9650   21.2730  -31.2320 C   0  0  0  0  0  0  0  0  0  0  0  0
   -8.3320   21.4960  -31.3680 C   0  0  0  0  0  0  0  0  0  0  0  0
   -9.0510   20.7650  -32.3080 C   0  0  0  0  0  0  0  0  0  0  0  0
   -8.4200   19.8560  -33.0940 N   0  0  0  0  0  0  0  0  0  0  0  0
   -7.0780   19.6260  -33.0110 C   0  0  0  0  0  0  0  0  0  0  0  0
   -6.5320   18.6690  -33.8800 O   0  0  0  0  0  0  0  0  0  0  0  0
   -6.4770   17.2710  -33.6150 C   0  0  0  0  0  0  0  0  0  0  0  0
   -2.9460   22.8200  -30.0980 N   0  0  0  0  0  0  0  0  0  0  0  0
   -1.8430   21.9240  -29.7530 C   0  0  0  0  0  0  0  0  0  0  0  0
   -1.2629   25.9440  -26.9632 H   0  0  0  0  0  0  0  0  0  0  0  0
    0.1795   25.8474  -28.0294 H   0  0  0  0  0  0  0  0  0  0  0  0
   -0.8399   27.3264  -28.0294 H   0  0  0  0  0  0  0  0  0  0  0  0
   -1.8286   23.9084  -27.9355 H   0  0  0  0  0  0  0  0  0  0  0  0
   -3.1569   25.0880  -27.6987 H   0  0  0  0  0  0  0  0  0  0  0  0
   -4.7139   25.5698  -30.0303 H   0  0  0  0  0  0  0  0  0  0  0  0
   -4.6440   22.7950  -33.6850 H   0  0  0  0  0  0  0  0  0  0  0  0
   -4.5648   19.1170  -32.3003 H   0  0  0  0  0  0  0  0  0  0  0  0
   -4.7298   19.8849  -30.6749 H   0  0  0  0  0  0  0  0  0  0  0  0
   -6.3914   21.8421  -30.4856 H   0  0  0  0  0  0  0  0  0  0  0  0
   -8.8386   22.2426  -30.7387 H   0  0  0  0  0  0  0  0  0  0  0  0
  -10.1342   20.9241  -32.4147 H   0  0  0  0  0  0  0  0  0  0  0  0
   -8.9840   19.3240  -33.7950 H   0  0  0  0  0  0  0  0  0  0  0  0
   -6.4704   17.1039  -32.5278 H   0  0  0  0  0  0  0  0  0  0  0  0
   -7.3565   16.7793  -34.0563 H   0  0  0  0  0  0  0  0  0  0  0  0
   -5.5616   16.8499  -34.0563 H   0  0  0  0  0  0  0  0  0  0  0  0
   -1.7563   21.8536  -28.6587 H   0  0  0  0  0  0  0  0  0  0  0  0
   -2.0378   20.9251  -30.1704 H   0  0  0  0  0  0  0  0  0  0  0  0
   -0.9052   22.3193  -30.1704 H   0  0  0  0  0  0  0  0  0  0  0  0
  1  2  1  0
  2  3  1  0
  3  4  1  0
  4  5  2  0
  5  6  1  0
  6  7  2  0
  7  8  1  0
  8  9  1  6
  8 10  1  0
 10 11  1  0
 11 12  2  0
 12 13  1  0
 13 14  2  0
 14 15  1  0
 15 16  2  0
 16 17  1  0
 17 18  1  0
  7 19  1  0
 19 20  1  0
 19  4  1  0
 16 11  1  0
  1 21  1  0
  1 22  1  0
  1 23  1  0
  3 24  1  0
  3 25  1  0
  5 26  1  0
  9 27  1  0
 10 28  1  0
 10 29  1  0
 12 30  1  0
 13 31  1  0
 14 32  1  0
 15 33  1  0
 18 34  1  0
 18 35  1  0
 18 36  1  0
 20 37  1  0
 20 38  1  0
 20 39  1  0
M  CHG  2   8   1  15   1
M  END
>  <UniqueID>  (1) 
1

>  <SMILES>  (1) 
COCc1cnc([S@+](O)Cc2ccc[nH+]c2OC)n1C

>  <Energy>  (1) 
69.68614001315007

>  <Genealogy>  (1) 
COCc1cnc([S+](O)Cc2ccc[nH+]c2OC)n1C (protonated)
COCc1cnc([S@+](O)Cc2ccc[nH+]c2OC)n1C (chirality)
COCc1cnc([S@+](O)Cc2ccc[nH+]c2OC)n1C (3D coordinates assigned)
COCc1cnc([S@+](O)Cc2ccc[nH+]c2OC)n1C (optimized conformer: 69.68614001315007 kcal/mol)

>  <smiles>  (1) 
COCc1cnc([S+]([O-])Cc2cccnc2OC)n1C

>  <score_type>  (1) 
oracle

>  <origin>  (1) 
adg

>  <m_score__min__energy>  (1) 
-5.5999999999999996

>  <m_primary>  (1) 
energy

$$$$
1:0
     RDKit          3D

 51 53  0  0  0  0  0  0  0  0999 V2000
    0.1220   21.1760  -35.6100 C   0  0  0  0  0  0  0  0  0  0  0  0
   -0.4280   21.5430  -34.2300 C   0  0  0  0  0  0  0  0  0  0  0  0
   -1.6800   20.8310  -33.9150 N   0  0  0  0  0  0  0  0  0  0  0  0
   -2.0550   20.9120  -32.4860 C   0  0  0  0  0  0  0  0  0  0  0  0
   -3.3560   21.7000  -32.2770 C   0  0  0  0  0  0  0  0  0  0  0  0
   -4.3060   21.4130  -33.3520 N   0  0  0  0  0  0  0  0  0  0  0  0
   -5.4840   20.6290  -33.1040 C   0  0  0  0  0  0  0  0  0  0  0  0
   -6.6500   21.2500  -32.6270 C   0  0  0  0  0  0  0  0  0  0  0  0
   -7.7680   20.4660  -32.2970 C   0  0  0  0  0  0  0  0  0  0  0  0
   -7.6970   19.0900  -32.3440 N   0  0  0  0  0  0  0  0  0  0  0  0
   -8.7870   18.2890  -31.7510 C   0  0  0  0  0  0  0  0  0  0  0  0
   -6.6220   18.4730  -32.9550 C   0  0  0  0  0  0  0  0  0  0  0  0
   -5.4850   19.2370  -33.3350 C   0  0  0  0  0  0  0  0  0  0  0  0
   -4.3430   18.5590  -34.0180 C   0  0  0  0  0  0  0  0  0  0  0  0
   -3.4420   19.2200  -34.6020 O   0  0  0  0  0  0  0  0  0  0  0  0
   -4.2690   17.0670  -34.0500 C   0  0  0  0  0  0  0  0  0  0  0  0
   -5.6630   16.5050  -34.2830 C   0  0  0  0  0  0  0  0  0  0  0  0
   -6.6190   16.9610  -33.1790 C   0  0  0  0  0  0  0  0  0  0  0  0
   -9.0400   21.2240  -31.9460 C   0  0  0  0  0  0  0  0  0  0  0  0
   -8.7590   22.3000  -30.8860 C   0  0  0  0  0  0  0  0  0  0  0  0
   -7.4530   23.0940  -31.1300 C   0  0  0  0  0  0  0  0  0  0  0  0
   -6.7600   22.7520  -32.4580 C   0  0  0  0  0  0  0  0  0  0  0  0
    1.0318   20.5689  -35.4925 H   0  0  0  0  0  0  0  0  0  0  0  0
   -0.6337   20.6005  -36.1647 H   0  0  0  0  0  0  0  0  0  0  0  0
    0.3633   22.0947  -36.1647 H   0  0  0  0  0  0  0  0  0  0  0  0
    0.3249   21.2862  -33.4702 H   0  0  0  0  0  0  0  0  0  0  0  0
   -0.6474   22.6209  -34.2329 H   0  0  0  0  0  0  0  0  0  0  0  0
   -2.4480   21.1760  -34.5400 H   0  0  0  0  0  0  0  0  0  0  0  0
   -1.5300   19.8240  -34.1570 H   0  0  0  0  0  0  0  0  0  0  0  0
   -2.1907   19.8924  -32.0960 H   0  0  0  0  0  0  0  0  0  0  0  0
   -1.2496   21.4379  -31.9525 H   0  0  0  0  0  0  0  0  0  0  0  0
   -3.8022   21.4134  -31.3133 H   0  0  0  0  0  0  0  0  0  0  0  0
   -3.1258   22.7756  -32.2828 H   0  0  0  0  0  0  0  0  0  0  0  0
   -4.2660   22.0050  -34.2130 H   0  0  0  0  0  0  0  0  0  0  0  0
   -8.7221   18.3367  -30.6540 H   0  0  0  0  0  0  0  0  0  0  0  0
   -9.7572   18.6906  -32.0787 H   0  0  0  0  0  0  0  0  0  0  0  0
   -8.6935   17.2431  -32.0787 H   0  0  0  0  0  0  0  0  0  0  0  0
   -3.6024   16.7486  -34.8650 H   0  0  0  0  0  0  0  0  0  0  0  0
   -3.8742   16.6947  -33.0931 H   0  0  0  0  0  0  0  0  0  0  0  0
   -6.0377   16.8591  -35.2547 H   0  0  0  0  0  0  0  0  0  0  0  0
   -5.6086   15.4064  -34.2735 H   0  0  0  0  0  0  0  0  0  0  0  0
   -7.6379   16.6481  -33.4508 H   0  0  0  0  0  0  0  0  0  0  0  0
   -6.2735   16.4979  -32.2429 H   0  0  0  0  0  0  0  0  0  0  0  0
   -9.4347   21.7055  -32.8528 H   0  0  0  0  0  0  0  0  0  0  0  0
   -9.7739   20.5123  -31.5400 H   0  0  0  0  0  0  0  0  0  0  0  0
   -9.5998   23.0092  -30.8809 H   0  0  0  0  0  0  0  0  0  0  0  0
   -8.6410   21.7784  -29.9247 H   0  0  0  0  0  0  0  0  0  0  0  0
   -7.6943   24.1672  -31.1307 H   0  0  0  0  0  0  0  0  0  0  0  0
   -6.7558   22.8205  -30.3243 H   0  0  0  0  0  0  0  0  0  0  0  0
   -7.3467   23.1681  -33.2903 H   0  0  0  0  0  0  0  0  0  0  0  0
   -5.7488   23.1849  -32.4538 H   0  0  0  0  0  0  0  0  0  0  0  0
  1  2  1  0
  2  3  1  0
  3  4  1  0
  4  5  1  0
  5  6  1  0
  6  7  1  0
  7  8  2  0
  8  9  1  0
  9 10  2  0
 10 11  1  0
 10 12  1  0
 12 13  2  0
 13 14  1  0
 14 15  2  0
 14 16  1  0
 16 17  1  0
 17 18  1  0
  9 19  1  0
 19 20  1  0
 20 21  1  0
 21 22  1  0
 13  7  1  0
 22  8  1  0
 18 12  1  0
  1 23  1  0
  1 24  1  0
  1 25  1  0
  2 26  1  0
  2 27  1  0
  3 28  1  0
  3 29  1  0
  4 30  1  0
  4 31  1  0
  5 32  1  0
  5 33  1  0
  6 34  1  0
 11 35  1  0
 11 36  1  0
 11 37  1  0
 16 38  1  0
 16 39  1  0
 17 40  1  0
 17 41  1  0
 18 42  1  0
 18 43  1  0
 19 44  1  0
 19 45  1  0
 20 46  1  0
 20 47  1  0
 21 48  1  0
 21 49  1  0
 22 50  1  0
 22 51  1  0
M  CHG  2   3   1  10   1
M  END
>  <UniqueID>  (2) 
2

>  <SMILES>  (2) 
CC[NH2+]CCNc1c2c([n+](C)c3c1C(=O)CCC3)CCCC2

>  <Energy>  (2) 
71.9895553986646

>  <Genealogy>  (2) 
CC[NH2+]CCNc1c2c([n+](C)c3c1C(=O)CCC3)CCCC2 (protonated)
CC[NH2+]CCNc1c2c([n+](C)c3c1C(=O)CCC3)CCCC2 (3D coordinates assigned)
CC[NH2+]CCNc1c2c([n+](C)c3c1C(=O)CCC3)CCCC2 (nonaromatic ring conformer: 71.9895553986646 kcal/mol)

>  <smiles>  (2) 
CCNCCNc1c2c([n+](C)c3c1C(=O)CCC3)CCCC2

>  <score_type>  (2) 
oracle

>  <origin>  (2) 
adg

>  <m_score__min__energy>  (2) 
-7.4000000000000004

>  <m_primary>  (2) 
energy

$$$$
2:0
     RDKit          3D

 60 62  0  0  0  0  0  0  0  0999 V2000
   -1.3990   25.6380  -26.2450 C   0  0  0  0  0  0  0  0  0  0  0  0
   -0.3860   26.1740  -27.2540 C   0  0  0  0  0  0  0  0  0  0  0  0
    0.2830   25.0610  -27.9600 N   0  0  0  0  0  0  0  0  0  0  0  0
    1.5450   24.7160  -27.2850 C   0  0  0  0  0  0  0  0  0  0  0  0
   -0.5960   23.8700  -28.0550 C   0  0  0  0  0  0  0  0  0  0  0  0
   -1.4210   23.9020  -29.3510 C   0  0  0  0  0  0  0  0  0  0  0  0
   -2.3560   24.9610  -29.3400 O   0  0  0  0  0  0  0  0  0  0  0  0
   -3.5850   24.5390  -28.7880 C   0  0  0  0  0  0  0  0  0  0  0  0
   -4.5920   24.3540  -29.9190 C   0  0  0  0  0  0  0  0  0  0  0  0
   -3.9660   23.7810  -31.0530 O   0  0  0  0  0  0  0  0  0  0  0  0
   -3.9540   22.3640  -30.9860 C   0  0  0  0  0  0  0  0  0  0  0  0
   -3.5540   21.7670  -32.3400 C   0  0  0  0  0  0  0  0  0  0  0  0
   -4.6860   21.7120  -33.2640 N   0  0  0  0  0  0  0  0  0  0  0  0
   -5.7690   20.8090  -33.0180 C   0  0  0  0  0  0  0  0  0  0  0  0
   -5.7940   19.4570  -33.3390 C   0  0  0  0  0  0  0  0  0  0  0  0
   -4.6810   18.6180  -33.8220 C   0  0  0  0  0  0  0  0  0  0  0  0
   -4.8880   17.5790  -34.7420 C   0  0  0  0  0  0  0  0  0  0  0  0
   -3.7990   16.8260  -35.1850 C   0  0  0  0  0  0  0  0  0  0  0  0
   -2.5150   17.1220  -34.7230 C   0  0  0  0  0  0  0  0  0  0  0  0
   -2.3400   18.1760  -33.8250 C   0  0  0  0  0  0  0  0  0  0  0  0
   -3.4140   18.8950  -33.4020 N   0  0  0  0  0  0  0  0  0  0  0  0
   -7.0380   18.9670  -33.1300 N   0  0  0  0  0  0  0  0  0  0  0  0
   -7.7330   20.0330  -32.6820 C   0  0  0  0  0  0  0  0  0  0  0  0
   -9.0850   20.0150  -32.3460 C   0  0  0  0  0  0  0  0  0  0  0  0
   -9.6700   21.2130  -31.9230 C   0  0  0  0  0  0  0  0  0  0  0  0
   -8.9060   22.3900  -31.8550 C   0  0  0  0  0  0  0  0  0  0  0  0
   -7.5410   22.3650  -32.2120 C   0  0  0  0  0  0  0  0  0  0  0  0
   -6.7300   23.6280  -32.1360 C   0  0  0  0  0  0  0  0  0  0  0  0
   -7.0040   21.1670  -32.6030 N   0  0  0  0  0  0  0  0  0  0  0  0
   -1.0365   25.8298  -25.2243 H   0  0  0  0  0  0  0  0  0  0  0  0
   -2.3652   26.1429  -26.3919 H   0  0  0  0  0  0  0  0  0  0  0  0
   -1.5251   24.5552  -26.3919 H   0  0  0  0  0  0  0  0  0  0  0  0
   -0.9067   26.8068  -27.9878 H   0  0  0  0  0  0  0  0  0  0  0  0
    0.3735   26.7610  -26.7167 H   0  0  0  0  0  0  0  0  0  0  0  0
    1.4006   24.7555  -26.1952 H   0  0  0  0  0  0  0  0  0  0  0  0
    1.8518   23.7010  -27.5777 H   0  0  0  0  0  0  0  0  0  0  0  0
    2.3255   25.4337  -27.5777 H   0  0  0  0  0  0  0  0  0  0  0  0
    0.0248   22.9620  -28.0452 H   0  0  0  0  0  0  0  0  0  0  0  0
   -1.2857   23.8719  -27.1981 H   0  0  0  0  0  0  0  0  0  0  0  0
   -0.7407   24.0339  -30.2053 H   0  0  0  0  0  0  0  0  0  0  0  0
   -1.9724   22.9538  -29.4343 H   0  0  0  0  0  0  0  0  0  0  0  0
   -3.4446   23.5854  -28.2579 H   0  0  0  0  0  0  0  0  0  0  0  0
   -3.9546   25.2925  -28.0769 H   0  0  0  0  0  0  0  0  0  0  0  0
   -5.4008   23.6908  -29.5784 H   0  0  0  0  0  0  0  0  0  0  0  0
   -4.9990   25.3375  -30.1968 H   0  0  0  0  0  0  0  0  0  0  0  0
   -3.2312   22.0437  -30.2212 H   0  0  0  0  0  0  0  0  0  0  0  0
   -4.9627   22.0112  -30.7251 H   0  0  0  0  0  0  0  0  0  0  0  0
   -2.7621   22.3886  -32.7834 H   0  0  0  0  0  0  0  0  0  0  0  0
   -3.2007   20.7393  -32.1700 H   0  0  0  0  0  0  0  0  0  0  0  0
   -4.5980   22.1320  -34.2130 H   0  0  0  0  0  0  0  0  0  0  0  0
   -5.9006   17.3594  -35.1114 H   0  0  0  0  0  0  0  0  0  0  0  0
   -3.9522   16.0012  -35.8965 H   0  0  0  0  0  0  0  0  0  0  0  0
   -1.6515   16.5314  -35.0628 H   0  0  0  0  0  0  0  0  0  0  0  0
   -1.3330   18.4252  -33.4593 H   0  0  0  0  0  0  0  0  0  0  0  0
   -9.6737   19.0881  -32.4113 H   0  0  0  0  0  0  0  0  0  0  0  0
  -10.7334   21.2337  -31.6422 H   0  0  0  0  0  0  0  0  0  0  0  0
   -9.3713   23.3301  -31.5238 H   0  0  0  0  0  0  0  0  0  0  0  0
   -6.5605   23.8920  -31.0817 H   0  0  0  0  0  0  0  0  0  0  0  0
   -5.7622   23.4729  -32.6353 H   0  0  0  0  0  0  0  0  0  0  0  0
   -7.2737   24.4435  -32.6353 H   0  0  0  0  0  0  0  0  0  0  0  0
  1  2  1  0
  2  3  1  0
  3  4  1  0
  3  5  1  0
  5  6  1  0
  6  7  1  0
  7  8  1  0
  8  9  1  0
  9 10  1  0
 10 11  1  0
 11 12  1  0
 12 13  1  0
 13 14  1  0
 14 15  2  0
 15 16  1  0
 16 17  2  0
 17 18  1  0
 18 19  2  0
 19 20  1  0
 20 21  2  0
 15 22  1  0
 22 23  2  0
 23 24  1  0
 24 25  2  0
 25 26  1  0
 26 27  2  0
 27 28  1  0
 27 29  1  0
 29 14  1  0
 21 16  1  0
 29 23  1  0
  1 30  1  0
  1 31  1  0
  1 32  1  0
  2 33  1  0
  2 34  1  0
  4 35  1  0
  4 36  1  0
  4 37  1  0
  5 38  1  0
  5 39  1  0
  6 40  1  0
  6 41  1  0
  8 42  1  0
  8 43  1  0
  9 44  1  0
  9 45  1  0
 11 46  1  0
 11 47  1  0
 12 48  1  0
 12 49  1  0
 13 50  1  0
 17 51  1  0
 18 52  1  0
 19 53  1  0
 20 54  1  0
 24 55  1  0
 25 56  1  0
 26 57  1  0
 28 58  1  0
 28 59  1  0
 28 60  1  0
M  END
>  <UniqueID>  (3) 
3

>  <SMILES>  (3) 
CCN(C)CCOCCOCCNc1c(-c2ccccn2)nc2cccc(C)n12

>  <Energy>  (3) 
104.92866603495503

>  <Genealogy>  (3) 
CCN(C)CCOCCOCCNc1c(-c2ccccn2)nc2cccc(C)n12 (3D coordinates assigned)
CCN(C)CCOCCOCCNc1c(-c2ccccn2)nc2cccc(C)n12 (optimized conformer: 104.92866603495503 kcal/mol)

>  <smiles>  (3) 
CCN(C)CCOCCOCCNc1c(-c2ccccn2)nc2cccc(C)n12

>  <score_type>  (3) 
oracle

>  <origin>  (3) 
adg

>  <m_score__min__energy>  (3) 
-9.2200000000000006

>  <m_primary>  (3) 
energy

$$$$
3:0
     RDKit          3D

 89 93  0  0  0  0  0  0  0  0999 V2000
   -1.3290   18.9160  -34.2590 C   0  0  0  0  0  0  0  0  0  0  0  0
   -1.8690   17.4980  -34.4290 C   0  0  0  0  0  0  0  0  0  0  0  0
   -3.1860   17.3500  -33.7670 N   0  0  0  0  0  0  0  0  0  0  0  0
   -3.2790   16.0310  -33.0860 C   0  0  0  0  0  0  0  0  0  0  0  0
   -4.7270   15.7080  -32.7010 C   0  0  0  0  0  0  0  0  0  0  0  0
   -4.2820   17.4950  -34.7590 C   0  0  0  0  0  0  0  0  0  0  0  0
   -5.0260   18.8390  -34.6040 C   0  0  0  0  0  0  0  0  0  0  0  0
   -4.4100   19.7560  -33.6150 N   0  0  0  0  0  0  0  0  0  0  0  0
   -5.3440   20.3570  -32.6650 C   0  0  0  0  0  0  0  0  0  0  0  0
   -6.5860   19.7540  -32.3700 C   0  0  0  0  0  0  0  0  0  0  0  0
   -6.7800   18.3620  -32.4810 C   0  0  0  0  0  0  0  0  0  0  0  0
   -8.0410   17.8000  -32.2610 C   0  0  0  0  0  0  0  0  0  0  0  0
   -9.1090   18.6060  -31.8830 C   0  0  0  0  0  0  0  0  0  0  0  0
   -8.9190   19.9750  -31.6940 C   0  0  0  0  0  0  0  0  0  0  0  0
   -7.6530   20.5760  -31.9250 C   0  0  0  0  0  0  0  0  0  0  0  0
   -7.4390   21.9210  -31.7130 N   0  0  0  0  0  0  0  0  0  0  0  0
   -8.5870   22.8410  -31.5780 C   0  0  0  0  0  0  0  0  0  0  0  0
   -6.1480   22.3860  -31.5720 C   0  0  0  0  0  0  0  0  0  0  0  0
   -5.8710   23.6390  -30.9740 C   0  0  0  0  0  0  0  0  0  0  0  0
   -4.5650   24.0790  -30.8030 C   0  0  0  0  0  0  0  0  0  0  0  0
   -3.4990   23.2610  -31.1540 C   0  0  0  0  0  0  0  0  0  0  0  0
   -3.7250   21.9960  -31.7190 C   0  0  0  0  0  0  0  0  0  0  0  0
   -2.6520   21.1170  -31.9430 O   0  0  0  0  0  0  0  0  0  0  0  0
   -2.4700   19.8550  -31.3100 C   0  0  0  0  0  0  0  0  0  0  0  0
   -1.0880   19.6580  -30.6280 C   0  0  0  0  0  0  0  0  0  0  0  0
   -0.8000   20.4260  -29.3650 N   0  0  2  0  0  0  0  0  0  0  0  0
   -0.5210   21.8560  -29.6720 C   0  0  0  0  0  0  0  0  0  0  0  0
    0.3070   19.8370  -28.5750 C   0  0  0  0  0  0  0  0  0  0  0  0
   -0.3420   19.0070  -27.4990 C   0  0  0  0  0  0  0  0  0  0  0  0
   -1.5990   19.7020  -27.1670 N   0  0  1  0  0  0  0  0  0  0  0  0
   -2.6290   18.7230  -26.7360 C   0  0  0  0  0  0  0  0  0  0  0  0
   -1.4080   20.7700  -26.1270 C   0  0  0  0  0  0  0  0  0  0  0  0
   -1.2640   22.1800  -26.6690 C   0  0  0  0  0  0  0  0  0  0  0  0
   -2.3940   22.8900  -27.1130 C   0  0  0  0  0  0  0  0  0  0  0  0
   -2.2670   24.1990  -27.5860 C   0  0  0  0  0  0  0  0  0  0  0  0
   -1.0130   24.8170  -27.6010 C   0  0  0  0  0  0  0  0  0  0  0  0
   -0.8530   26.4610  -28.1900 Cl  0  0  0  0  0  0  0  0  0  0  0  0
    0.1110   24.1300  -27.1320 C   0  0  0  0  0  0  0  0  0  0  0  0
   -0.0120   22.8220  -26.6600 C   0  0  0  0  0  0  0  0  0  0  0  0
   -1.9950   20.3430  -28.4560 C   0  0  0  0  0  0  0  0  0  0  0  0
   -5.0530   21.5860  -32.0160 C   0  0  0  0  0  0  0  0  0  0  0  0
   -1.2404   19.1486  -33.1875 H   0  0  0  0  0  0  0  0  0  0  0  0
   -0.3394   18.9909  -34.7335 H   0  0  0  0  0  0  0  0  0  0  0  0
   -2.0181   19.6301  -34.7335 H   0  0  0  0  0  0  0  0  0  0  0  0
   -1.9789   17.2809  -35.5017 H   0  0  0  0  0  0  0  0  0  0  0  0
   -1.1617   16.7950  -33.9647 H   0  0  0  0  0  0  0  0  0  0  0  0
   -2.9050   15.2497  -33.7641 H   0  0  0  0  0  0  0  0  0  0  0  0
   -2.6742   16.0691  -32.1679 H   0  0  0  0  0  0  0  0  0  0  0  0
   -4.8191   15.6874  -31.6051 H   0  0  0  0  0  0  0  0  0  0  0  0
   -5.3961   16.4790  -33.1108 H   0  0  0  0  0  0  0  0  0  0  0  0
   -5.0050   14.7258  -33.1108 H   0  0  0  0  0  0  0  0  0  0  0  0
   -3.8549   17.4398  -35.7712 H   0  0  0  0  0  0  0  0  0  0  0  0
   -5.0051   16.6838  -34.5885 H   0  0  0  0  0  0  0  0  0  0  0  0
   -5.0391   19.3425  -35.5819 H   0  0  0  0  0  0  0  0  0  0  0  0
   -6.0358   18.6044  -34.2363 H   0  0  0  0  0  0  0  0  0  0  0  0
   -3.9480   20.4900  -34.1940 H   0  0  0  0  0  0  0  0  0  0  0  0
   -3.6700   19.2450  -33.0790 H   0  0  0  0  0  0  0  0  0  0  0  0
   -5.9318   17.7125  -32.7430 H   0  0  0  0  0  0  0  0  0  0  0  0
   -8.1886   16.7173  -32.3873 H   0  0  0  0  0  0  0  0  0  0  0  0
  -10.1049   18.1637  -31.7328 H   0  0  0  0  0  0  0  0  0  0  0  0
   -9.7621   20.5982  -31.3612 H   0  0  0  0  0  0  0  0  0  0  0  0
   -8.7980   23.0101  -30.5117 H   0  0  0  0  0  0  0  0  0  0  0  0
   -8.3472   23.7998  -32.0609 H   0  0  0  0  0  0  0  0  0  0  0  0
   -9.4706   22.3981  -32.0609 H   0  0  0  0  0  0  0  0  0  0  0  0
   -6.7041   24.2746  -30.6393 H   0  0  0  0  0  0  0  0  0  0  0  0
   -4.3741   25.0796  -30.3878 H   0  0  0  0  0  0  0  0  0  0  0  0
   -2.4683   23.6075  -30.9878 H   0  0  0  0  0  0  0  0  0  0  0  0
   -3.2492   19.7426  -30.5417 H   0  0  0  0  0  0  0  0  0  0  0  0
   -2.5313   19.0989  -32.1065 H   0  0  0  0  0  0  0  0  0  0  0  0
   -0.9925   18.5887  -30.3881 H   0  0  0  0  0  0  0  0  0  0  0  0
   -0.3660   20.0539  -31.3574 H   0  0  0  0  0  0  0  0  0  0  0  0
   -0.4113   22.4180  -28.7328 H   0  0  0  0  0  0  0  0  0  0  0  0
    0.4088   21.9312  -30.2550 H   0  0  0  0  0  0  0  0  0  0  0  0
   -1.3543   22.2752  -30.2550 H   0  0  0  0  0  0  0  0  0  0  0  0
    0.9387   19.2045  -29.2160 H   0  0  0  0  0  0  0  0  0  0  0  0
    0.9530   20.6169  -28.1456 H   0  0  0  0  0  0  0  0  0  0  0  0
   -0.5504   17.9925  -27.8697 H   0  0  0  0  0  0  0  0  0  0  0  0
    0.3090   18.9001  -26.6188 H   0  0  0  0  0  0  0  0  0  0  0  0
   -2.6651   18.6886  -25.6371 H   0  0  0  0  0  0  0  0  0  0  0  0
   -3.6112   19.0286  -27.1258 H   0  0  0  0  0  0  0  0  0  0  0  0
   -2.3737   17.7266  -27.1258 H   0  0  0  0  0  0  0  0  0  0  0  0
   -2.2789   20.7507  -25.4553 H   0  0  0  0  0  0  0  0  0  0  0  0
   -0.4588   20.5383  -25.6218 H   0  0  0  0  0  0  0  0  0  0  0  0
   -3.3843   22.4119  -27.0878 H   0  0  0  0  0  0  0  0  0  0  0  0
   -3.1529   24.7425  -27.9462 H   0  0  0  0  0  0  0  0  0  0  0  0
    1.0950   24.6217  -27.1350 H   0  0  0  0  0  0  0  0  0  0  0  0
    0.8732   22.2912  -26.2796 H   0  0  0  0  0  0  0  0  0  0  0  0
   -2.7805   19.7422  -28.9377 H   0  0  0  0  0  0  0  0  0  0  0  0
   -2.3756   21.3560  -28.2589 H   0  0  0  0  0  0  0  0  0  0  0  0
  1  2  1  0
  2  3  1  0
  3  4  1  0
  4  5  1  0
  3  6  1  0
  6  7  1  0
  7  8  1  0
  8  9  1  0
  9 10  2  0
 10 11  1  0
 11 12  2  0
 12 13  1  0
 13 14  2  0
 14 15  1  0
 15 16  2  0
 16 17  1  0
 16 18  1  0
 18 19  2  0
 19 20  1  0
 20 21  2  0
 21 22  1  0
 22 23  1  0
 23 24  1  0
 24 25  1  0
 26 25  1  6
 26 27  1  0
 26 28  1  0
 28 29  1  0
 29 30  1  0
 30 31  1  1
 30 32  1  0
 32 33  1  0
 33 34  2  0
 34 35  1  0
 35 36  2  0
 36 37  1  0
 36 38  1  0
 38 39  2  0
 30 40  1  0
 22 41  2  0
 41  9  1  0
 15 10  1  0
 41 18  1  0
 40 26  1  0
 39 33  1  0
  1 42  1  0
  1 43  1  0
  1 44  1  0
  2 45  1  0
  2 46  1  0
  4 47  1  0
  4 48  1  0
  5 49  1  0
  5 50  1  0
  5 51  1  0
  6 52  1  0
  6 53  1  0
  7 54  1  0
  7 55  1  0
  8 56  1  0
  8 57  1  0
 11 58  1  0
 12 59  1  0
 13 60  1  0
 14 61  1  0
 17 62  1  0
 17 63  1  0
 17 64  1  0
 19 65  1  0
 20 66  1  0
 21 67  1  0
 24 68  1  0
 24 69  1  0
 25 70  1  0
 25 71  1  0
 27 72  1  0
 27 73  1  0
 27 74  1  0
 28 75  1  0
 28 76  1  0
 29 77  1  0
 29 78  1  0
 31 79  1  0
 31 80  1  0
 31 81  1  0
 32 82  1  0
 32 83  1  0
 34 84  1  0
 35 85  1  0
 38 86  1  0
 39 87  1  0
 40 88  1  0
 40 89  1  0
M  CHG  4   8   1  16   1  26   1  30   1
M  END
>  <UniqueID>  (4) 
4

>  <SMILES>  (4) 
CCN(CC)CC[NH2+]c1c2ccccc2[n+](C)c2cccc(OCC[N@+]3(C)CC[N@@+](C)(Cc4ccc(Cl)cc4)C3)c12

>  <Energy>  (4) 
156.9612458811296

>  <Genealogy>  (4) 
CCN(CC)CC[NH2+]c1c2ccccc2[n+](C)c2cccc(OCC[N+]3(C)CC[N+](C)(Cc4ccc(Cl)cc4)C3)c12 (protonated)
CCN(CC)CC[NH2+]c1c2ccccc2[n+](C)c2cccc(OCC[N@+]3(C)CC[N@@+](C)(Cc4ccc(Cl)cc4)C3)c12 (chirality)
CCN(CC)CC[NH2+]c1c2ccccc2[n+](C)c2cccc(OCC[N@+]3(C)CC[N@@+](C)(Cc4ccc(Cl)cc4)C3)c12 (3D coordinates assigned)
CCN(CC)CC[NH2+]c1c2ccccc2[n+](C)c2cccc(OCC[N@+]3(C)CC[N@@+](C)(Cc4ccc(Cl)cc4)C3)c12 (nonaromatic ring conformer: 156.9612458811296 kcal/mol)

>  <smiles>  (4) 
CCN(CC)CCNc1c2ccccc2[n+](C)c2cccc(OCC[N+]3(C)CC[N+](C)(Cc4ccc(Cl)cc4)C3)c12

>  <score_type>  (4) 
oracle

>  <origin>  (4) 
adg

>  <m_score__min__energy>  (4) 
-7.8300000000000001

>  <m_primary>  (4) 
energy

$$$$
4:0
     RDKit          3D

 57 59  0  0  0  0  0  0  0  0999 V2000
    0.7730   19.7860  -28.3490 C   0  0  0  0  0  0  0  0  0  0  0  0
   -0.5010   18.9460  -28.4610 C   0  0  0  0  0  0  0  0  0  0  0  0
   -1.0320   18.4800  -27.0970 C   0  0  0  0  0  0  0  0  0  0  0  0
   -2.3000   19.2410  -26.6650 C   0  0  0  0  0  0  0  0  0  0  0  0
   -2.7990   20.1390  -27.7170 N   0  0  0  0  0  0  0  0  0  0  0  0
   -2.3960   21.5350  -27.5020 C   0  0  0  0  0  0  0  0  0  0  0  0
   -1.9370   22.1390  -28.8010 C   0  0  0  0  0  0  0  0  0  0  0  0
   -1.0630   23.0490  -28.7550 O   0  0  0  0  0  0  0  0  0  0  0  0
   -2.4710   21.7190  -30.0830 N   0  0  0  0  0  0  0  0  0  0  0  0
   -1.5570   21.2340  -31.1390 C   0  0  0  0  0  0  0  0  0  0  0  0
   -2.1900   21.2630  -32.5300 C   0  0  0  0  0  0  0  0  0  0  0  0
   -3.5370   20.6140  -32.5130 C   0  0  0  0  0  0  0  0  0  0  0  0
   -3.9760   19.8600  -33.6120 C   0  0  0  0  0  0  0  0  0  0  0  0
   -5.2540   19.2730  -33.6130 C   0  0  0  0  0  0  0  0  0  0  0  0
   -5.7190   18.5010  -34.6890 O   0  0  0  0  0  0  0  0  0  0  0  0
   -6.0830   17.1270  -34.5980 C   0  0  0  0  0  0  0  0  0  0  0  0
   -6.1010   19.4580  -32.5110 C   0  0  0  0  0  0  0  0  0  0  0  0
   -7.3730   18.8640  -32.5420 O   0  0  0  0  0  0  0  0  0  0  0  0
   -8.5540   19.4580  -32.0130 C   0  0  0  0  0  0  0  0  0  0  0  0
   -5.6620   20.2270  -31.4170 C   0  0  0  0  0  0  0  0  0  0  0  0
   -4.3840   20.8080  -31.4120 C   0  0  0  0  0  0  0  0  0  0  0  0
   -3.9450   21.6600  -30.2390 C   0  0  2  0  0  0  0  0  0  0  0  0
   -4.5470   23.0500  -30.3460 C   0  0  0  0  0  0  0  0  0  0  0  0
   -5.9350   23.2650  -30.2880 C   0  0  0  0  0  0  0  0  0  0  0  0
   -6.4480   24.5610  -30.3580 C   0  0  0  0  0  0  0  0  0  0  0  0
   -5.5710   25.6380  -30.4850 C   0  0  0  0  0  0  0  0  0  0  0  0
   -4.2320   25.4220  -30.5370 N   0  0  0  0  0  0  0  0  0  0  0  0
   -3.7050   24.1700  -30.4700 C   0  0  0  0  0  0  0  0  0  0  0  0
    1.0149   19.9455  -27.2879 H   0  0  0  0  0  0  0  0  0  0  0  0
    1.6044   19.2584  -28.8393 H   0  0  0  0  0  0  0  0  0  0  0  0
    0.6156   20.7580  -28.8393 H   0  0  0  0  0  0  0  0  0  0  0  0
   -1.2778   19.5504  -28.9521 H   0  0  0  0  0  0  0  0  0  0  0  0
   -0.2529   18.0464  -29.0433 H   0  0  0  0  0  0  0  0  0  0  0  0
   -1.2683   17.4074  -27.1584 H   0  0  0  0  0  0  0  0  0  0  0  0
   -0.2512   18.6805  -26.3486 H   0  0  0  0  0  0  0  0  0  0  0  0
   -3.0854   18.5101  -26.4222 H   0  0  0  0  0  0  0  0  0  0  0  0
   -2.0406   19.8578  -25.7920 H   0  0  0  0  0  0  0  0  0  0  0  0
   -3.8440   20.0840  -27.7640 H   0  0  0  0  0  0  0  0  0  0  0  0
   -3.2526   22.1070  -27.1159 H   0  0  0  0  0  0  0  0  0  0  0  0
   -1.5709   21.5669  -26.7752 H   0  0  0  0  0  0  0  0  0  0  0  0
   -0.6604   21.8712  -31.1476 H   0  0  0  0  0  0  0  0  0  0  0  0
   -1.3114   20.1868  -30.9089 H   0  0  0  0  0  0  0  0  0  0  0  0
   -2.2971   22.3081  -32.8559 H   0  0  0  0  0  0  0  0  0  0  0  0
   -1.5406   20.7104  -33.2249 H   0  0  0  0  0  0  0  0  0  0  0  0
   -3.3145   19.7268  -34.4807 H   0  0  0  0  0  0  0  0  0  0  0  0
   -6.1597   16.8373  -33.5396 H   0  0  0  0  0  0  0  0  0  0  0  0
   -7.0534   16.9713  -35.0921 H   0  0  0  0  0  0  0  0  0  0  0  0
   -5.3170   16.5113  -35.0921 H   0  0  0  0  0  0  0  0  0  0  0  0
   -8.5139   19.4378  -30.9139 H   0  0  0  0  0  0  0  0  0  0  0  0
   -8.6267   20.4999  -32.3582 H   0  0  0  0  0  0  0  0  0  0  0  0
   -9.4338   18.8952  -32.3582 H   0  0  0  0  0  0  0  0  0  0  0  0
   -6.3289   20.3747  -30.5548 H   0  0  0  0  0  0  0  0  0  0  0  0
   -4.3241   21.1758  -29.3269 H   0  0  0  0  0  0  0  0  0  0  0  0
   -6.6188   22.4092  -30.1871 H   0  0  0  0  0  0  0  0  0  0  0  0
   -7.5338   24.7315  -30.3134 H   0  0  0  0  0  0  0  0  0  0  0  0
   -5.9648   26.6634  -30.5431 H   0  0  0  0  0  0  0  0  0  0  0  0
   -2.6145   24.0325  -30.5130 H   0  0  0  0  0  0  0  0  0  0  0  0
  1  2  1  0
  2  3  1  0
  3  4  1  0
  4  5  1  0
  5  6  1  0
  6  7  1  0
  7  8  2  0
  7  9  1  0
  9 10  1  0
 10 11  1  0
 11 12  1  0
 12 13  2  0
 13 14  1  0
 14 15  1  0
 15 16  1  0
 14 17  2  0
 17 18  1  0
 18 19  1  0
 17 20  1  0
 20 21  2  0
 21 22  1  0
 22 23  1  0
 23 24  2  0
 24 25  1  0
 25 26  2  0
 26 27  1  0
 27 28  2  0
 22  9  1  0
 28 23  1  0
 21 12  1  0
  1 29  1  0
  1 30  1  0
  1 31  1  0
  2 32  1  0
  2 33  1  0
  3 34  1  0
  3 35  1  0
  4 36  1  0
  4 37  1  0
  5 38  1  0
  6 39  1  0
  6 40  1  0
 10 41  1  0
 10 42  1  0
 11 43  1  0
 11 44  1  0
 13 45  1  0
 16 46  1  0
 16 47  1  0
 16 48  1  0
 19 49  1  0
 19 50  1  0
 19 51  1  0
 20 52  1  0
 22 53  1  1
 24 54  1  0
 25 55  1  0
 26 56  1  0
 28 57  1  0
M  END
>  <UniqueID>  (5) 
5

>  <SMILES>  (5) 
CCCCNCC(=O)N1CCc2cc(OC)c(OC)cc2[C@@H]1c1cccnc1

>  <Energy>  (5) 
55.72765968953944

>  <Genealogy>  (5) 
CCCCNCC(=O)N1CCc2cc(OC)c(OC)cc2[C@@H]1c1cccnc1 (chirality)
CCCCNCC(=O)N1CCc2cc(OC)c(OC)cc2[C@@H]1c1cccnc1 (3D coordinates assigned)
CCCCNCC(=O)N1CCc2cc(OC)c(OC)cc2[C@@H]1c1cccnc1 (nonaromatic ring conformer: 55.72765968953944 kcal/mol)

>  <smiles>  (5) 
CCCCNCC(=O)N1CCc2cc(OC)c(OC)cc2C1c1cccnc1

>  <score_type>  (5) 
oracle

>  <origin>  (5) 
adg

>  <m_score__min__energy>  (5) 
-7.3899999999999997

>  <m_primary>  (5) 
energy

$$$$
5:0
     RDKit          3D

 45 47  0  0  0  0  0  0  0  0999 V2000
   -3.8810   23.4560  -28.5710 C   0  0  0  0  0  0  0  0  0  0  0  0
   -2.9910   24.1530  -29.6050 C   0  0  0  0  0  0  0  0  0  0  0  0
   -1.8380   24.9160  -28.9480 C   0  0  0  0  0  0  0  0  0  0  0  0
   -3.7650   25.0140  -30.5050 N   0  0  0  0  0  0  0  0  0  0  0  0
   -5.1880   25.1720  -30.6100 C   0  0  0  0  0  0  0  0  0  0  0  0
   -5.6850   26.3120  -30.4180 O   0  0  0  0  0  0  0  0  0  0  0  0
   -6.0900   24.0620  -30.9420 C   0  0  0  0  0  0  0  0  0  0  0  0
   -6.1530   23.5780  -32.2550 C   0  0  0  0  0  0  0  0  0  0  0  0
   -6.9730   22.4880  -32.5640 C   0  0  0  0  0  0  0  0  0  0  0  0
   -7.7220   21.8590  -31.5560 C   0  0  0  0  0  0  0  0  0  0  0  0
   -8.5680   20.6490  -31.8770 C   0  0  0  0  0  0  0  0  0  0  0  0
   -8.1840   20.0370  -33.1590 N   0  0  0  0  0  0  0  0  0  0  0  0
   -6.9520   19.2920  -33.0390 C   0  0  0  0  0  0  0  0  0  0  0  0
   -6.9640   17.9760  -32.5470 C   0  0  0  0  0  0  0  0  0  0  0  0
   -5.7700   17.2710  -32.3950 C   0  0  0  0  0  0  0  0  0  0  0  0
   -4.5530   17.8680  -32.7290 C   0  0  0  0  0  0  0  0  0  0  0  0
   -4.5140   19.1870  -33.2190 C   0  0  0  0  0  0  0  0  0  0  0  0
   -3.2470   19.7920  -33.5540 N   0  0  0  0  0  0  0  0  0  0  0  0
   -2.7880   21.0210  -33.2510 C   0  0  0  0  0  0  0  0  0  0  0  0
   -1.5500   21.1810  -33.7560 N   0  0  0  0  0  0  0  0  0  0  0  0
   -1.2690   20.0360  -34.3640 N   0  0  0  0  0  0  0  0  0  0  0  0
   -2.2880   19.2000  -34.2440 N   0  0  0  0  0  0  0  0  0  0  0  0
   -5.7230   19.8910  -33.3700 C   0  0  0  0  0  0  0  0  0  0  0  0
   -7.6260   22.3220  -30.2350 C   0  0  0  0  0  0  0  0  0  0  0  0
   -6.8060   23.4120  -29.9280 C   0  0  0  0  0  0  0  0  0  0  0  0
   -3.5429   23.7208  -27.5583 H   0  0  0  0  0  0  0  0  0  0  0  0
   -4.9233   23.7805  -28.7061 H   0  0  0  0  0  0  0  0  0  0  0  0
   -3.8158   22.3663  -28.7061 H   0  0  0  0  0  0  0  0  0  0  0  0
   -2.5437   23.3597  -30.2219 H   0  0  0  0  0  0  0  0  0  0  0  0
   -1.9330   24.8531  -27.8539 H   0  0  0  0  0  0  0  0  0  0  0  0
   -0.8806   24.4726  -29.2590 H   0  0  0  0  0  0  0  0  0  0  0  0
   -1.8719   25.9706  -29.2590 H   0  0  0  0  0  0  0  0  0  0  0  0
   -5.5559   24.0566  -33.0452 H   0  0  0  0  0  0  0  0  0  0  0  0
   -7.0315   22.1222  -33.5997 H   0  0  0  0  0  0  0  0  0  0  0  0
   -8.4436   19.9052  -31.0762 H   0  0  0  0  0  0  0  0  0  0  0  0
   -9.6155   20.9756  -31.9547 H   0  0  0  0  0  0  0  0  0  0  0  0
   -8.0550   20.7970  -33.8690 H   0  0  0  0  0  0  0  0  0  0  0  0
   -8.9560   19.4210  -33.5070 H   0  0  0  0  0  0  0  0  0  0  0  0
   -7.9190   17.4996  -32.2805 H   0  0  0  0  0  0  0  0  0  0  0  0
   -5.7874   16.2406  -32.0104 H   0  0  0  0  0  0  0  0  0  0  0  0
   -3.6169   17.3030  -32.6083 H   0  0  0  0  0  0  0  0  0  0  0  0
   -3.3408   21.7797  -32.6776 H   0  0  0  0  0  0  0  0  0  0  0  0
   -5.7069   20.9226  -33.7516 H   0  0  0  0  0  0  0  0  0  0  0  0
   -8.1983   21.8254  -29.4376 H   0  0  0  0  0  0  0  0  0  0  0  0
   -6.7227   23.7602  -28.8879 H   0  0  0  0  0  0  0  0  0  0  0  0
  1  2  1  0
  2  3  1  0
  2  4  1  0
  4  5  1  0
  5  6  2  0
  5  7  1  0
  7  8  2  0
  8  9  1  0
  9 10  2  0
 10 11  1  0
 11 12  1  0
 12 13  1  0
 13 14  2  0
 14 15  1  0
 15 16  2  0
 16 17  1  0
 17 18  1  0
 18 19  1  0
 19 20  2  0
 20 21  1  0
 21 22  2  0
 17 23  2  0
 10 24  1  0
 24 25  2  0
 25  7  1  0
 23 13  1  0
 22 18  1  0
  1 26  1  0
  1 27  1  0
  1 28  1  0
  2 29  1  0
  3 30  1  0
  3 31  1  0
  3 32  1  0
  8 33  1  0
  9 34  1  0
 11 35  1  0
 11 36  1  0
 12 37  1  0
 12 38  1  0
 14 39  1  0
 15 40  1  0
 16 41  1  0
 19 42  1  0
 23 43  1  0
 24 44  1  0
 25 45  1  0
M  CHG  2   4  -1  12   1
M  END
>  <UniqueID>  (6) 
6

>  <SMILES>  (6) 
CC(C)[N-]C(=O)c1ccc(C[NH2+]c2cccc(-n3cnnn3)c2)cc1

>  <Energy>  (6) 
92.95553039713766

>  <Genealogy>  (6) 
CC(C)[N-]C(=O)c1ccc(C[NH2+]c2cccc(-n3cnnn3)c2)cc1 (protonated)
CC(C)[N-]C(=O)c1ccc(C[NH2+]c2cccc(-n3cnnn3)c2)cc1 (3D coordinates assigned)
CC(C)[N-]C(=O)c1ccc(C[NH2+]c2cccc(-n3cnnn3)c2)cc1 (optimized conformer: 92.95553039713766 kcal/mol)

>  <smiles>  (6) 
CC(C)NC(=O)c1ccc(CNc2cccc(-n3cnnn3)c2)cc1

>  <score_type>  (6) 
oracle

>  <origin>  (6) 
adg

>  <m_score__min__energy>  (6) 
-10.08

>  <m_primary>  (6) 
energy

$$$$
6:0
     RDKit          3D

 58 61  0  0  0  0  0  0  0  0999 V2000
   -1.2870   21.1960  -33.6040 C   0  0  0  0  0  0  0  0  0  0  0  0
   -0.5110   20.3590  -34.5790 C   0  0  0  0  0  0  0  0  0  0  0  0
   -0.6780   19.0050  -34.8460 C   0  0  0  0  0  0  0  0  0  0  0  0
   -1.6480   18.0420  -34.2880 C   0  0  0  0  0  0  0  0  0  0  0  0
   -1.3060   16.7090  -34.0180 C   0  0  0  0  0  0  0  0  0  0  0  0
   -2.2330   15.8750  -33.4770 N   0  0  0  0  0  0  0  0  0  0  0  0
   -3.4880   16.3080  -33.1850 C   0  0  0  0  0  0  0  0  0  0  0  0
   -3.8410   17.6430  -33.4420 C   0  0  0  0  0  0  0  0  0  0  0  0
   -5.1900   18.1790  -33.1260 C   0  0  0  0  0  0  0  0  0  0  0  0
   -6.0440   17.5280  -32.2160 C   0  0  0  0  0  0  0  0  0  0  0  0
   -7.3110   18.0470  -31.9370 C   0  0  0  0  0  0  0  0  0  0  0  0
   -7.7530   19.2200  -32.5670 C   0  0  0  0  0  0  0  0  0  0  0  0
   -9.1150   19.7920  -32.2500 C   0  0  0  0  0  0  0  0  0  0  0  0
   -9.1120   21.2650  -32.2130 N   0  0  0  0  0  0  0  0  0  0  0  0
   -8.9590   21.8210  -30.8590 C   0  0  0  0  0  0  0  0  0  0  0  0
   -7.4830   21.9850  -30.4660 C   0  0  0  0  0  0  0  0  0  0  0  0
   -6.6680   22.3820  -31.6390 N   0  0  0  0  0  0  0  0  0  0  0  0
   -6.7970   23.8170  -31.9600 C   0  0  0  0  0  0  0  0  0  0  0  0
   -5.9710   24.6800  -30.9970 C   0  0  0  0  0  0  0  0  0  0  0  0
   -4.6090   24.3090  -31.0490 O   0  0  0  0  0  0  0  0  0  0  0  0
   -4.4640   22.9740  -30.6050 C   0  0  0  0  0  0  0  0  0  0  0  0
   -5.2460   22.0000  -31.5070 C   0  0  0  0  0  0  0  0  0  0  0  0
   -6.9110   19.8650  -33.4820 C   0  0  0  0  0  0  0  0  0  0  0  0
   -5.6430   19.3470  -33.7630 C   0  0  0  0  0  0  0  0  0  0  0  0
   -2.8990   18.4700  -33.9760 N   0  0  0  0  0  0  0  0  0  0  0  0
    0.3210   18.7020  -35.7550 C   0  0  0  0  0  0  0  0  0  0  0  0
    1.0240   19.8140  -36.0420 N   0  0  0  0  0  0  0  0  0  0  0  0
    0.5110   20.8120  -35.3390 N   0  0  0  0  0  0  0  0  0  0  0  0
    1.0430   22.1690  -35.3690 C   0  0  0  0  0  0  0  0  0  0  0  0
   -1.0186   20.9065  -32.5773 H   0  0  0  0  0  0  0  0  0  0  0  0
   -1.0469   22.2581  -33.7601 H   0  0  0  0  0  0  0  0  0  0  0  0
   -2.3642   21.0368  -33.7601 H   0  0  0  0  0  0  0  0  0  0  0  0
   -0.2941   16.3408  -34.2426 H   0  0  0  0  0  0  0  0  0  0  0  0
   -1.9700   14.8860  -33.2670 H   0  0  0  0  0  0  0  0  0  0  0  0
   -4.2238   15.6160  -32.7494 H   0  0  0  0  0  0  0  0  0  0  0  0
   -5.7115   16.6038  -31.7208 H   0  0  0  0  0  0  0  0  0  0  0  0
   -7.9662   17.5325  -31.2187 H   0  0  0  0  0  0  0  0  0  0  0  0
   -9.8257   19.4596  -33.0210 H   0  0  0  0  0  0  0  0  0  0  0  0
   -9.4052   19.4325  -31.2517 H   0  0  0  0  0  0  0  0  0  0  0  0
   -8.3210   21.6160  -32.8050 H   0  0  0  0  0  0  0  0  0  0  0  0
   -9.4475   22.8059  -30.8225 H   0  0  0  0  0  0  0  0  0  0  0  0
   -9.4228   21.1195  -30.1499 H   0  0  0  0  0  0  0  0  0  0  0  0
   -7.4002   22.7603  -29.6900 H   0  0  0  0  0  0  0  0  0  0  0  0
   -7.1097   21.0225  -30.0862 H   0  0  0  0  0  0  0  0  0  0  0  0
   -6.4431   23.9876  -32.9874 H   0  0  0  0  0  0  0  0  0  0  0  0
   -7.8550   24.1013  -31.8607 H   0  0  0  0  0  0  0  0  0  0  0  0
   -6.0698   25.7377  -31.2825 H   0  0  0  0  0  0  0  0  0  0  0  0
   -6.3434   24.5287  -29.9731 H   0  0  0  0  0  0  0  0  0  0  0  0
   -3.3980   22.7033  -30.6236 H   0  0  0  0  0  0  0  0  0  0  0  0
   -4.8644   22.9009  -29.5831 H   0  0  0  0  0  0  0  0  0  0  0  0
   -4.7860   21.9954  -32.5062 H   0  0  0  0  0  0  0  0  0  0  0  0
   -5.2053   21.0033  -31.0435 H   0  0  0  0  0  0  0  0  0  0  0  0
   -7.2493   20.7843  -33.9824 H   0  0  0  0  0  0  0  0  0  0  0  0
   -4.9941   19.8583  -34.4893 H   0  0  0  0  0  0  0  0  0  0  0  0
    0.5115   17.7048  -36.1784 H   0  0  0  0  0  0  0  0  0  0  0  0
    1.1846   22.5302  -34.3397 H   0  0  0  0  0  0  0  0  0  0  0  0
    2.0091   22.1725  -35.8950 H   0  0  0  0  0  0  0  0  0  0  0  0
    0.3367   22.8282  -35.8950 H   0  0  0  0  0  0  0  0  0  0  0  0
  1  2  1  0
  2  3  2  0
  3  4  1  0
  4  5  2  0
  5  6  1  0
  6  7  2  0
  7  8  1  0
  8  9  1  0
  9 10  2  0
 10 11  1  0
 11 12  2  0
 12 13  1  0
 13 14  1  0
 14 15  1  0
 15 16  1  0
 16 17  1  0
 17 18  1  0
 18 19  1  0
 19 20  1  0
 20 21  1  0
 21 22  1  0
 12 23  1  0
 23 24  2  0
  8 25  2  0
  3 26  1  0
 26 27  2  0
 27 28  1  0
 28 29  1  0
 28  2  1  0
 25  4  1  0
 24  9  1  0
 22 17  1  0
  1 30  1  0
  1 31  1  0
  1 32  1  0
  5 33  1  0
  6 34  1  0
  7 35  1  0
 10 36  1  0
 11 37  1  0
 13 38  1  0
 13 39  1  0
 14 40  1  0
 15 41  1  0
 15 42  1  0
 16 43  1  0
 16 44  1  0
 18 45  1  0
 18 46  1  0
 19 47  1  0
 19 48  1  0
 21 49  1  0
 21 50  1  0
 22 51  1  0
 22 52  1  0
 23 53  1  0
 24 54  1  0
 26 55  1  0
 29 56  1  0
 29 57  1  0
 29 58  1  0
M  CHG  1   6   1
M  END
>  <UniqueID>  (7) 
7

>  <SMILES>  (7) 
Cc1c(-c2c[nH+]cc(-c3ccc(CNCCN4CCOCC4)cc3)n2)cnn1C

>  <Energy>  (7) 
103.11436603382221

>  <Genealogy>  (7) 
Cc1c(-c2c[nH+]cc(-c3ccc(CNCCN4CCOCC4)cc3)n2)cnn1C (protonated)
Cc1c(-c2c[nH+]cc(-c3ccc(CNCCN4CCOCC4)cc3)n2)cnn1C (3D coordinates assigned)
Cc1c(-c2c[nH+]cc(-c3ccc(CNCCN4CCOCC4)cc3)n2)cnn1C (nonaromatic ring conformer: 103.11436603382221 kcal/mol)

>  <smiles>  (7) 
Cc1c(-c2cncc(-c3ccc(CNCCN4CCOCC4)cc3)n2)cnn1C

>  <score_type>  (7) 
oracle

>  <origin>  (7) 
adg

>  <m_score__min__energy>  (7) 
-8.5500000000000007

>  <m_primary>  (7) 
energy

$$$$
7:0
     RDKit          3D

 41 41  0  0  0  0  0  0  0  0999 V2000
   -6.2950   16.3010  -33.8430 C   0  0  0  0  0  0  0  0  0  0  0  0
   -5.7610   17.5910  -34.4750 C   0  0  0  0  0  0  0  0  0  0  0  0
   -6.4390   18.8120  -33.9680 N   0  0  2  0  0  0  0  0  0  0  0  0
   -5.4180   19.7580  -33.4800 C   0  0  0  0  0  0  0  0  0  0  0  0
   -7.4010   18.5160  -32.8740 C   0  0  0  0  0  0  0  0  0  0  0  0
   -8.0800   19.7340  -32.4020 C   0  0  0  0  0  0  0  0  0  0  0  0
   -8.6410   20.7290  -32.0190 C   0  0  0  0  0  0  0  0  0  0  0  0
   -9.3200   21.9450  -31.5590 C   0  0  0  0  0  0  0  0  0  0  0  0
   -8.4950   23.1870  -31.9330 C   0  0  0  0  0  0  0  0  0  0  0  0
   -7.0910   23.2470  -31.2860 C   0  0  0  0  0  0  0  0  0  0  0  0
   -5.9490   23.0150  -32.2960 C   0  0  0  0  0  0  0  0  0  0  0  0
   -4.5900   22.8580  -31.5830 C   0  0  0  0  0  0  0  0  0  0  0  0
   -4.4840   23.6720  -30.2760 C   0  0  0  0  0  0  0  0  0  0  0  0
   -5.3790   24.9160  -30.3020 C   0  0  0  0  0  0  0  0  0  0  0  0
   -6.8680   24.5460  -30.4650 C   0  0  0  0  0  0  0  0  0  0  0  0
   -6.2592   16.3875  -32.7470 H   0  0  0  0  0  0  0  0  0  0  0  0
   -7.3344   16.1383  -34.1642 H   0  0  0  0  0  0  0  0  0  0  0  0
   -5.6747   15.4513  -34.1642 H   0  0  0  0  0  0  0  0  0  0  0  0
   -4.6862   17.6701  -34.2545 H   0  0  0  0  0  0  0  0  0  0  0  0
   -5.9562   17.5321  -35.5559 H   0  0  0  0  0  0  0  0  0  0  0  0
   -6.9320   19.2860  -34.7630 H   0  0  0  0  0  0  0  0  0  0  0  0
   -5.4159   19.7600  -32.3800 H   0  0  0  0  0  0  0  0  0  0  0  0
   -4.4279   19.4510  -33.8480 H   0  0  0  0  0  0  0  0  0  0  0  0
   -5.6488   20.7686  -33.8480 H   0  0  0  0  0  0  0  0  0  0  0  0
   -8.1564   17.8079  -33.2454 H   0  0  0  0  0  0  0  0  0  0  0  0
   -6.8400   18.0873  -32.0305 H   0  0  0  0  0  0  0  0  0  0  0  0
  -10.3102   22.0100  -32.0336 H   0  0  0  0  0  0  0  0  0  0  0  0
   -9.4300   21.9030  -30.4653 H   0  0  0  0  0  0  0  0  0  0  0  0
   -8.3699   23.1994  -33.0258 H   0  0  0  0  0  0  0  0  0  0  0  0
   -9.0509   24.0565  -31.5522 H   0  0  0  0  0  0  0  0  0  0  0  0
   -7.0606   22.4055  -30.5782 H   0  0  0  0  0  0  0  0  0  0  0  0
   -6.1595   22.1008  -32.8704 H   0  0  0  0  0  0  0  0  0  0  0  0
   -5.8920   23.8894  -32.9609 H   0  0  0  0  0  0  0  0  0  0  0  0
   -4.4428   21.7944  -31.3439 H   0  0  0  0  0  0  0  0  0  0  0  0
   -3.8189   23.2418  -32.2672 H   0  0  0  0  0  0  0  0  0  0  0  0
   -4.7879   23.0331  -29.4337 H   0  0  0  0  0  0  0  0  0  0  0  0
   -3.4414   24.0050  -30.1659 H   0  0  0  0  0  0  0  0  0  0  0  0
   -5.2501   25.4674  -29.3589 H   0  0  0  0  0  0  0  0  0  0  0  0
   -5.0832   25.5327  -31.1635 H   0  0  0  0  0  0  0  0  0  0  0  0
   -7.3047   24.4065  -29.4651 H   0  0  0  0  0  0  0  0  0  0  0  0
   -7.3496   25.3670  -31.0164 H   0  0  0  0  0  0  0  0  0  0  0  0
  1  2  1  0
  2  3  1  0
  3  4  1  0
  3  5  1  0
  5  6  1  0
  6  7  3  0
  7  8  1  0
  8  9  1  0
  9 10  1  0
 10 11  1  0
 11 12  1  0
 12 13  1  0
 13 14  1  0
 14 15  1  0
 15 10  1  0
  1 16  1  0
  1 17  1  0
  1 18  1  0
  2 19  1  0
  2 20  1  0
  3 21  1  6
  4 22  1  0
  4 23  1  0
  4 24  1  0
  5 25  1  0
  5 26  1  0
  8 27  1  0
  8 28  1  0
  9 29  1  0
  9 30  1  0
 10 31  1  0
 11 32  1  0
 11 33  1  0
 12 34  1  0
 12 35  1  0
 13 36  1  0
 13 37  1  0
 14 38  1  0
 14 39  1  0
 15 40  1  0
 15 41  1  0
M  CHG  1   3   1
M  END
>  <UniqueID>  (8) 
8

>  <SMILES>  (8) 
CC[N@H+](C)CC#CCCC1CCCCC1

>  <Energy>  (8) 
34.327075092482204

>  <Genealogy>  (8) 
CC[NH+](C)CC#CCCC1CCCCC1 (protonated)
CC[N@H+](C)CC#CCCC1CCCCC1 (chirality)
CC[N@H+](C)CC#CCCC1CCCCC1 (3D coordinates assigned)
CC[N@H+](C)CC#CCCC1CCCCC1 (nonaromatic ring conformer: 34.327075092482204 kcal/mol)

>  <smiles>  (8) 
CCN(C)CC#CCCC1CCCCC1

>  <score_type>  (8) 
oracle

>  <origin>  (8) 
adg

>  <m_score__min__energy>  (8) 
-5.6500000000000004

>  <m_primary>  (8) 
energy

$$$$
8:0
     RDKit          3D

 56 58  0  0  0  0  0  0  0  0999 V2000
   -3.1350   21.5030  -28.7820 C   0  0  0  0  0  0  0  0  0  0  0  0
   -3.7200   22.5700  -27.8580 C   0  0  0  0  0  0  0  0  0  0  0  0
   -3.7500   23.9730  -28.4970 C   0  0  0  0  0  0  0  0  0  0  0  0
   -4.9760   24.7480  -28.2190 N   0  0  0  0  0  0  0  0  0  0  0  0
   -5.8390   25.0050  -29.3890 C   0  0  0  0  0  0  0  0  0  0  0  0
   -6.1050   23.7370  -30.2240 C   0  0  0  0  0  0  0  0  0  0  0  0
   -5.4200   23.7880  -31.6000 C   0  0  0  0  0  0  0  0  0  0  0  0
   -4.4590   22.6170  -31.8520 C   0  0  0  0  0  0  0  0  0  0  0  0
   -4.8130   21.8960  -33.0740 N   0  0  0  0  0  0  0  0  0  0  0  0
   -5.2140   20.5150  -33.0330 C   0  0  0  0  0  0  0  0  0  0  0  0
   -6.5150   20.1670  -32.6320 C   0  0  0  0  0  0  0  0  0  0  0  0
   -7.4280   21.1410  -32.1750 C   0  0  0  0  0  0  0  0  0  0  0  0
   -8.7200   20.7840  -31.7960 C   0  0  0  0  0  0  0  0  0  0  0  0
   -9.1250   19.4550  -31.8640 C   0  0  0  0  0  0  0  0  0  0  0  0
   -8.2440   18.4770  -32.3240 C   0  0  0  0  0  0  0  0  0  0  0  0
   -6.9290   18.8130  -32.7300 C   0  0  0  0  0  0  0  0  0  0  0  0
   -6.0650   17.8600  -33.2260 N   0  0  0  0  0  0  0  0  0  0  0  0
   -6.6310   16.6380  -33.8340 C   0  0  0  0  0  0  0  0  0  0  0  0
   -4.7130   18.1380  -33.3260 C   0  0  0  0  0  0  0  0  0  0  0  0
   -3.7080   17.1180  -33.4040 C   0  0  0  0  0  0  0  0  0  0  0  0
   -3.9440   15.6820  -33.0030 C   0  0  0  0  0  0  0  0  0  0  0  0
   -2.3880   17.4700  -33.7260 C   0  0  0  0  0  0  0  0  0  0  0  0
   -2.0160   18.8020  -33.8460 C   0  0  0  0  0  0  0  0  0  0  0  0
   -2.9430   19.8080  -33.6110 C   0  0  0  0  0  0  0  0  0  0  0  0
   -4.2890   19.4960  -33.3360 C   0  0  0  0  0  0  0  0  0  0  0  0
   -2.6931   20.6970  -28.1778 H   0  0  0  0  0  0  0  0  0  0  0  0
   -3.9329   21.0901  -29.4167 H   0  0  0  0  0  0  0  0  0  0  0  0
   -2.3578   21.9537  -29.4167 H   0  0  0  0  0  0  0  0  0  0  0  0
   -4.7492   22.2817  -27.5978 H   0  0  0  0  0  0  0  0  0  0  0  0
   -3.0717   22.6272  -26.9712 H   0  0  0  0  0  0  0  0  0  0  0  0
   -2.8899   24.5426  -28.1152 H   0  0  0  0  0  0  0  0  0  0  0  0
   -3.7170   23.8209  -29.5859 H   0  0  0  0  0  0  0  0  0  0  0  0
   -5.5390   24.2550  -27.4880 H   0  0  0  0  0  0  0  0  0  0  0  0
   -4.6930   25.6670  -27.8070 H   0  0  0  0  0  0  0  0  0  0  0  0
   -6.8021   25.4015  -29.0352 H   0  0  0  0  0  0  0  0  0  0  0  0
   -5.3151   25.7241  -30.0359 H   0  0  0  0  0  0  0  0  0  0  0  0
   -5.7253   22.8644  -29.6723 H   0  0  0  0  0  0  0  0  0  0  0  0
   -7.1899   23.6666  -30.3914 H   0  0  0  0  0  0  0  0  0  0  0  0
   -6.1986   23.7723  -32.3769 H   0  0  0  0  0  0  0  0  0  0  0  0
   -4.8199   24.7095  -31.6277 H   0  0  0  0  0  0  0  0  0  0  0  0
   -3.4353   23.0076  -31.9496 H   0  0  0  0  0  0  0  0  0  0  0  0
   -4.5290   21.9202  -31.0037 H   0  0  0  0  0  0  0  0  0  0  0  0
   -4.5830   22.3270  -33.9980 H   0  0  0  0  0  0  0  0  0  0  0  0
   -7.1159   22.1942  -32.1174 H   0  0  0  0  0  0  0  0  0  0  0  0
   -9.4211   21.5543  -31.4424 H   0  0  0  0  0  0  0  0  0  0  0  0
  -10.1426   19.1749  -31.5542 H   0  0  0  0  0  0  0  0  0  0  0  0
   -8.5749   17.4291  -32.3724 H   0  0  0  0  0  0  0  0  0  0  0  0
   -6.9508   15.9475  -33.0396 H   0  0  0  0  0  0  0  0  0  0  0  0
   -7.4967   16.9058  -34.4575 H   0  0  0  0  0  0  0  0  0  0  0  0
   -5.8668   16.1509  -34.4575 H   0  0  0  0  0  0  0  0  0  0  0  0
   -3.9566   15.6050  -31.9058 H   0  0  0  0  0  0  0  0  0  0  0  0
   -4.9099   15.3429  -33.4055 H   0  0  0  0  0  0  0  0  0  0  0  0
   -3.1374   15.0516  -33.4055 H   0  0  0  0  0  0  0  0  0  0  0  0
   -1.6388   16.6804  -33.8853 H   0  0  0  0  0  0  0  0  0  0  0  0
   -0.9847   19.0607  -34.1278 H   0  0  0  0  0  0  0  0  0  0  0  0
   -2.6233   20.8601  -33.6398 H   0  0  0  0  0  0  0  0  0  0  0  0
  1  2  1  0
  2  3  1  0
  3  4  1  0
  4  5  1  0
  5  6  1  0
  6  7  1  0
  7  8  1  0
  8  9  1  0
  9 10  1  0
 10 11  2  0
 11 12  1  0
 12 13  2  0
 13 14  1  0
 14 15  2  0
 15 16  1  0
 16 17  2  0
 17 18  1  0
 17 19  1  0
 19 20  2  0
 20 21  1  0
 20 22  1  0
 22 23  2  0
 23 24  1  0
 24 25  2  0
 25 10  1  0
 16 11  1  0
 25 19  1  0
  1 26  1  0
  1 27  1  0
  1 28  1  0
  2 29  1  0
  2 30  1  0
  3 31  1  0
  3 32  1  0
  4 33  1  0
  4 34  1  0
  5 35  1  0
  5 36  1  0
  6 37  1  0
  6 38  1  0
  7 39  1  0
  7 40  1  0
  8 41  1  0
  8 42  1  0
  9 43  1  0
 12 44  1  0
 13 45  1  0
 14 46  1  0
 15 47  1  0
 18 48  1  0
 18 49  1  0
 18 50  1  0
 21 51  1  0
 21 52  1  0
 21 53  1  0
 22 54  1  0
 23 55  1  0
 24 56  1  0
M  CHG  2   4   1  17   1
M  END
>  <UniqueID>  (9) 
9

>  <SMILES>  (9) 
CCC[NH2+]CCCCNc1c2ccccc2[n+](C)c2c(C)cccc12

>  <Energy>  (9) 
87.42563651048842

>  <Genealogy>  (9) 
CCC[NH2+]CCCCNc1c2ccccc2[n+](C)c2c(C)cccc12 (protonated)
CCC[NH2+]CCCCNc1c2ccccc2[n+](C)c2c(C)cccc12 (3D coordinates assigned)
CCC[NH2+]CCCCNc1c2ccccc2[n+](C)c2c(C)cccc12 (optimized conformer: 87.42563651048842 kcal/mol)

>  <smiles>  (9) 
CCCNCCCCNc1c2ccccc2[n+](C)c2c(C)cccc12

>  <score_type>  (9) 
oracle

>  <origin>  (9) 
adg

>  <m_score__min__energy>  (9) 
-7.8300000000000001

>  <m_primary>  (9) 
energy

$$$$
9:0
     RDKit          3D

 61 64  0  0  0  0  0  0  0  0999 V2000
   -5.7440   25.5700  -30.1310 C   0  0  0  0  0  0  0  0  0  0  0  0
   -5.4720   24.9430  -28.8360 N   0  0  0  0  0  0  0  0  0  0  0  0
   -4.6270   23.7510  -28.9990 C   0  0  0  0  0  0  0  0  0  0  0  0
   -3.9700   23.7300  -30.3900 C   0  0  0  0  0  0  0  0  0  0  0  0
   -2.7390   22.8140  -30.4250 C   0  0  0  0  0  0  0  0  0  0  0  0
   -2.3380   22.4270  -29.0630 N   0  0  0  0  0  0  0  0  0  0  0  0
   -0.9700   21.8880  -28.9980 C   0  0  0  0  0  0  0  0  0  0  0  0
   -0.4050   21.5890  -30.4050 C   0  0  0  0  0  0  0  0  0  0  0  0
   -0.7120   20.1590  -30.8710 C   0  0  0  0  0  0  0  0  0  0  0  0
   -1.0220   20.1110  -32.3010 N   0  0  0  0  0  0  0  0  0  0  0  0
   -2.3660   19.9790  -32.8020 C   0  0  0  0  0  0  0  0  0  0  0  0
   -2.9410   18.7760  -32.7290 C   0  0  0  0  0  0  0  0  0  0  0  0
   -4.2850   18.4080  -33.2250 C   0  0  0  0  0  0  0  0  0  0  0  0
   -4.4320   17.0880  -33.6760 C   0  0  0  0  0  0  0  0  0  0  0  0
   -5.6910   16.5370  -33.8550 C   0  0  0  0  0  0  0  0  0  0  0  0
   -6.8200   17.2480  -33.4690 C   0  0  0  0  0  0  0  0  0  0  0  0
   -6.7130   18.5610  -32.9480 C   0  0  0  0  0  0  0  0  0  0  0  0
   -5.4410   19.2000  -32.9920 C   0  0  0  0  0  0  0  0  0  0  0  0
   -5.3810   20.5980  -32.8140 C   0  0  0  0  0  0  0  0  0  0  0  0
   -6.5300   21.2810  -32.3540 C   0  0  0  0  0  0  0  0  0  0  0  0
   -6.4840   22.6620  -32.0480 C   0  0  0  0  0  0  0  0  0  0  0  0
   -7.6260   23.3490  -31.6520 C   0  0  0  0  0  0  0  0  0  0  0  0
   -8.8380   22.6810  -31.5520 C   0  0  0  0  0  0  0  0  0  0  0  0
   -8.9100   21.3140  -31.8210 C   0  0  0  0  0  0  0  0  0  0  0  0
   -7.7540   20.5770  -32.1880 C   0  0  0  0  0  0  0  0  0  0  0  0
   -7.8120   19.2180  -32.4270 N   0  0  0  0  0  0  0  0  0  0  0  0
   -9.0300   18.4570  -32.0640 C   0  0  0  0  0  0  0  0  0  0  0  0
   -4.3060   21.3950  -33.4650 C   0  0  0  0  0  0  0  0  0  0  0  0
   -3.0040   21.1240  -33.4710 C   0  0  0  0  0  0  0  0  0  0  0  0
   -6.1771   26.5684  -29.9712 H   0  0  0  0  0  0  0  0  0  0  0  0
   -4.8056   25.6637  -30.6973 H   0  0  0  0  0  0  0  0  0  0  0  0
   -6.4536   24.9488  -30.6973 H   0  0  0  0  0  0  0  0  0  0  0  0
   -4.9880   25.6370  -28.2240 H   0  0  0  0  0  0  0  0  0  0  0  0
   -6.3850   24.6770  -28.4030 H   0  0  0  0  0  0  0  0  0  0  0  0
   -3.8410   23.7587  -28.2295 H   0  0  0  0  0  0  0  0  0  0  0  0
   -5.2579   22.8560  -28.8947 H   0  0  0  0  0  0  0  0  0  0  0  0
   -4.7040   23.3683  -31.1251 H   0  0  0  0  0  0  0  0  0  0  0  0
   -3.6423   24.7525  -30.6289 H   0  0  0  0  0  0  0  0  0  0  0  0
   -2.9793   21.9085  -31.0014 H   0  0  0  0  0  0  0  0  0  0  0  0
   -1.9074   23.3580  -30.8967 H   0  0  0  0  0  0  0  0  0  0  0  0
   -3.0170   21.7240  -28.6870 H   0  0  0  0  0  0  0  0  0  0  0  0
   -0.3202   22.6241  -28.5021 H   0  0  0  0  0  0  0  0  0  0  0  0
   -1.0001   20.9444  -28.4334 H   0  0  0  0  0  0  0  0  0  0  0  0
   -0.8492   22.2962  -31.1209 H   0  0  0  0  0  0  0  0  0  0  0  0
    0.6886   21.6964  -30.3554 H   0  0  0  0  0  0  0  0  0  0  0  0
    0.1645   19.5240  -30.6746 H   0  0  0  0  0  0  0  0  0  0  0  0
   -1.5914   19.7988  -30.3169 H   0  0  0  0  0  0  0  0  0  0  0  0
   -0.2540   20.2620  -32.9970 H   0  0  0  0  0  0  0  0  0  0  0  0
   -2.3552   17.9770  -32.2511 H   0  0  0  0  0  0  0  0  0  0  0  0
   -3.5382   16.4835  -33.8900 H   0  0  0  0  0  0  0  0  0  0  0  0
   -5.7960   15.5376  -34.3023 H   0  0  0  0  0  0  0  0  0  0  0  0
   -7.8125   16.7844  -33.5694 H   0  0  0  0  0  0  0  0  0  0  0  0
   -5.5283   23.2011  -32.1248 H   0  0  0  0  0  0  0  0  0  0  0  0
   -7.5687   24.4223  -31.4179 H   0  0  0  0  0  0  0  0  0  0  0  0
   -9.7448   23.2309  -31.2598 H   0  0  0  0  0  0  0  0  0  0  0  0
   -9.8790   20.7987  -31.7474 H   0  0  0  0  0  0  0  0  0  0  0  0
   -9.1160   18.4033  -30.9687 H   0  0  0  0  0  0  0  0  0  0  0  0
   -9.9151   18.9630  -32.4769 H   0  0  0  0  0  0  0  0  0  0  0  0
   -8.9633   17.4396  -32.4769 H   0  0  0  0  0  0  0  0  0  0  0  0
   -4.6216   22.3043  -33.9975 H   0  0  0  0  0  0  0  0  0  0  0  0
   -2.3486   21.8140  -34.0226 H   0  0  0  0  0  0  0  0  0  0  0  0
  1  2  1  0
  2  3  1  0
  3  4  1  0
  4  5  1  0
  5  6  1  0
  6  7  1  0
  7  8  1  0
  8  9  1  0
  9 10  1  0
 10 11  1  0
 11 12  2  0
 12 13  1  0
 13 14  2  0
 14 15  1  0
 15 16  2  0
 16 17  1  0
 17 18  2  0
 18 19  1  0
 19 20  2  0
 20 21  1  0
 21 22  2  0
 22 23  1  0
 23 24  2  0
 24 25  1  0
 25 26  2  0
 26 27  1  0
 19 28  1  0
 28 29  2  0
 29 11  1  0
 18 13  1  0
 25 20  1  0
 26 17  1  0
  1 30  1  0
  1 31  1  0
  1 32  1  0
  2 33  1  0
  2 34  1  0
  3 35  1  0
  3 36  1  0
  4 37  1  0
  4 38  1  0
  5 39  1  0
  5 40  1  0
  6 41  1  0
  7 42  1  0
  7 43  1  0
  8 44  1  0
  8 45  1  0
  9 46  1  0
  9 47  1  0
 10 48  1  0
 12 49  1  0
 14 50  1  0
 15 51  1  0
 16 52  1  0
 21 53  1  0
 22 54  1  0
 23 55  1  0
 24 56  1  0
 27 57  1  0
 27 58  1  0
 27 59  1  0
 28 60  1  0
 29 61  1  0
M  CHG  2   2   1  26   1
M  END
>  <UniqueID>  (10) 
10

>  <SMILES>  (10) 
C[NH2+]CCCNCCCNC1=Cc2cccc3c2c(c2ccccc2[n+]3C)C=C1

>  <Energy>  (10) 
109.01339529295447

>  <Genealogy>  (10) 
C[NH2+]CCCNCCCNC1=Cc2cccc3c2c(c2ccccc2[n+]3C)C=C1 (protonated)
C[NH2+]CCCNCCCNC1=Cc2cccc3c2c(c2ccccc2[n+]3C)C=C1 (3D coordinates assigned)
C[NH2+]CCCNCCCNC1=Cc2cccc3c2c(c2ccccc2[n+]3C)C=C1 (nonaromatic ring conformer: 109.01339529295447 kcal/mol)

>  <smiles>  (10) 
CNCCCNCCCNC1=Cc2cccc3c2c(c2ccccc2[n+]3C)C=C1

>  <score_type>  (10) 
oracle

>  <origin>  (10) 
adg

>  <m_score__min__energy>  (10) 
-9.4100000000000001

>  <m_primary>  (10) 
energy

$$$$
10:0
     RDKit          3D

 62 64  0  0  0  0  0  0  0  0999 V2000
   -3.8490   24.1280  -27.3490 C   0  0  0  0  0  0  0  0  0  0  0  0
   -3.8870   22.7450  -27.9890 C   0  0  0  0  0  0  0  0  0  0  0  0
   -2.7040   21.9550  -27.5810 N   0  0  0  0  0  0  0  0  0  0  0  0
   -2.9320   20.5030  -27.7630 C   0  0  0  0  0  0  0  0  0  0  0  0
   -2.2990   19.6800  -26.6410 C   0  0  0  0  0  0  0  0  0  0  0  0
   -1.4560   22.4550  -28.2090 C   0  0  0  0  0  0  0  0  0  0  0  0
   -1.3760   22.2130  -29.7250 C   0  0  0  0  0  0  0  0  0  0  0  0
   -0.9760   20.8780  -29.9570 O   0  0  0  0  0  0  0  0  0  0  0  0
   -1.4480   20.4430  -31.2150 C   0  0  0  0  0  0  0  0  0  0  0  0
   -2.3330   21.5400  -31.8250 C   0  0  0  0  0  0  0  0  0  0  0  0
   -2.9630   21.1250  -33.1650 C   0  0  0  0  0  0  0  0  0  0  0  0
   -4.2300   21.8250  -33.4010 N   0  0  0  0  0  0  0  0  0  0  0  0
   -5.3680   21.6550  -32.5380 C   0  0  0  0  0  0  0  0  0  0  0  0
   -5.7320   22.6680  -31.6350 C   0  0  0  0  0  0  0  0  0  0  0  0
   -4.8920   23.7790  -31.4180 C   0  0  0  0  0  0  0  0  0  0  0  0
   -5.2390   24.7640  -30.4980 C   0  0  0  0  0  0  0  0  0  0  0  0
   -6.4140   24.6500  -29.7660 C   0  0  0  0  0  0  0  0  0  0  0  0
   -7.2580   23.5570  -29.9600 C   0  0  0  0  0  0  0  0  0  0  0  0
   -6.9510   22.5550  -30.9140 C   0  0  0  0  0  0  0  0  0  0  0  0
   -7.7940   21.4840  -31.1430 N   0  0  0  0  0  0  0  0  0  0  0  0
   -9.1780   21.5110  -30.6230 C   0  0  0  0  0  0  0  0  0  0  0  0
   -7.3460   20.3960  -31.8700 C   0  0  0  0  0  0  0  0  0  0  0  0
   -8.0630   19.1740  -31.9030 C   0  0  0  0  0  0  0  0  0  0  0  0
   -7.6360   18.1080  -32.6930 C   0  0  0  0  0  0  0  0  0  0  0  0
   -6.4840   18.2200  -33.4700 C   0  0  0  0  0  0  0  0  0  0  0  0
   -6.0180   17.0600  -34.2990 C   0  0  0  0  0  0  0  0  0  0  0  0
   -5.7200   19.3900  -33.3990 C   0  0  0  0  0  0  0  0  0  0  0  0
   -6.1340   20.4790  -32.6030 C   0  0  0  0  0  0  0  0  0  0  0  0
   -3.8518   24.0254  -26.2538 H   0  0  0  0  0  0  0  0  0  0  0  0
   -2.9361   24.6536  -27.6657 H   0  0  0  0  0  0  0  0  0  0  0  0
   -4.7317   24.7030  -27.6657 H   0  0  0  0  0  0  0  0  0  0  0  0
   -4.8001   22.2222  -27.6683 H   0  0  0  0  0  0  0  0  0  0  0  0
   -3.8806   22.8579  -29.0832 H   0  0  0  0  0  0  0  0  0  0  0  0
   -4.0153   20.3123  -27.7759 H   0  0  0  0  0  0  0  0  0  0  0  0
   -2.4641   20.2014  -28.7118 H   0  0  0  0  0  0  0  0  0  0  0  0
   -2.6112   20.0860  -25.6675 H   0  0  0  0  0  0  0  0  0  0  0  0
   -2.6271   18.6334  -26.7241 H   0  0  0  0  0  0  0  0  0  0  0  0
   -1.2032   19.7285  -26.7241 H   0  0  0  0  0  0  0  0  0  0  0  0
   -1.3879   23.5379  -28.0279 H   0  0  0  0  0  0  0  0  0  0  0  0
   -0.6255   21.8953  -27.7540 H   0  0  0  0  0  0  0  0  0  0  0  0
   -2.3629   22.3865  -30.1788 H   0  0  0  0  0  0  0  0  0  0  0  0
   -0.6462   22.9030  -30.1736 H   0  0  0  0  0  0  0  0  0  0  0  0
   -0.5948   20.2452  -31.8805 H   0  0  0  0  0  0  0  0  0  0  0  0
   -2.0329   19.5195  -31.0928 H   0  0  0  0  0  0  0  0  0  0  0  0
   -3.1402   21.7746  -31.1155 H   0  0  0  0  0  0  0  0  0  0  0  0
   -1.6912   22.4122  -32.0183 H   0  0  0  0  0  0  0  0  0  0  0  0
   -2.2638   21.3665  -33.9791 H   0  0  0  0  0  0  0  0  0  0  0  0
   -3.1658   20.0444  -33.1319 H   0  0  0  0  0  0  0  0  0  0  0  0
   -4.2910   22.5110  -34.1850 H   0  0  0  0  0  0  0  0  0  0  0  0
   -3.9519   23.8685  -31.9820 H   0  0  0  0  0  0  0  0  0  0  0  0
   -4.5820   25.6338  -30.3504 H   0  0  0  0  0  0  0  0  0  0  0  0
   -6.6795   25.4242  -29.0311 H   0  0  0  0  0  0  0  0  0  0  0  0
   -8.1776   23.4711  -29.3625 H   0  0  0  0  0  0  0  0  0  0  0  0
   -9.1565   21.5106  -29.5232 H   0  0  0  0  0  0  0  0  0  0  0  0
   -9.6860   22.4192  -30.9795 H   0  0  0  0  0  0  0  0  0  0  0  0
   -9.7210   20.6233  -30.9795 H   0  0  0  0  0  0  0  0  0  0  0  0
   -8.9727   19.0648  -31.2943 H   0  0  0  0  0  0  0  0  0  0  0  0
   -8.2124   17.1712  -32.7034 H   0  0  0  0  0  0  0  0  0  0  0  0
   -5.6904   16.2446  -33.6373 H   0  0  0  0  0  0  0  0  0  0  0  0
   -6.8443   16.7076  -34.9338 H   0  0  0  0  0  0  0  0  0  0  0  0
   -5.1775   17.3772  -34.9338 H   0  0  0  0  0  0  0  0  0  0  0  0
   -4.7836   19.4619  -33.9717 H   0  0  0  0  0  0  0  0  0  0  0  0
  1  2  1  0
  2  3  1  0
  3  4  1  0
  4  5  1  0
  3  6  1  0
  6  7  1  0
  7  8  1  0
  8  9  1  0
  9 10  1  0
 10 11  1  0
 11 12  1  0
 12 13  1  0
 13 14  2  0
 14 15  1  0
 15 16  2  0
 16 17  1  0
 17 18  2  0
 18 19  1  0
 19 20  2  0
 20 21  1  0
 20 22  1  0
 22 23  2  0
 23 24  1  0
 24 25  2  0
 25 26  1  0
 25 27  1  0
 27 28  2  0
 28 13  1  0
 19 14  1  0
 28 22  1  0
  1 29  1  0
  1 30  1  0
  1 31  1  0
  2 32  1  0
  2 33  1  0
  4 34  1  0
  4 35  1  0
  5 36  1  0
  5 37  1  0
  5 38  1  0
  6 39  1  0
  6 40  1  0
  7 41  1  0
  7 42  1  0
  9 43  1  0
  9 44  1  0
 10 45  1  0
 10 46  1  0
 11 47  1  0
 11 48  1  0
 12 49  1  0
 15 50  1  0
 16 51  1  0
 17 52  1  0
 18 53  1  0
 21 54  1  0
 21 55  1  0
 21 56  1  0
 23 57  1  0
 24 58  1  0
 26 59  1  0
 26 60  1  0
 26 61  1  0
 27 62  1  0
M  CHG  1  20   1
M  END
>  <UniqueID>  (11) 
11

>  <SMILES>  (11) 
CCN(CC)CCOCCCNc1c2ccccc2[n+](C)c2ccc(C)cc12

>  <Energy>  (11) 
83.34023959872826

>  <Genealogy>  (11) 
CCN(CC)CCOCCCNc1c2ccccc2[n+](C)c2ccc(C)cc12 (3D coordinates assigned)
CCN(CC)CCOCCCNc1c2ccccc2[n+](C)c2ccc(C)cc12 (optimized conformer: 83.34023959872826 kcal/mol)

>  <smiles>  (11) 
CCN(CC)CCOCCCNc1c2ccccc2[n+](C)c2ccc(C)cc12

>  <score_type>  (11) 
oracle

>  <origin>  (11) 
adg

>  <m_score__min__energy>  (11) 
-8.3599999999999994

>  <m_primary>  (11) 
energy

$$$$
11:0
     RDKit          3D

 75 78  0  0  0  0  0  0  0  0999 V2000
   -3.8280   24.2190  -29.7190 C   0  0  0  0  0  0  0  0  0  0  0  0
   -4.6390   24.7000  -30.8530 N   0  0  0  0  0  0  0  0  0  0  0  0
   -5.6090   25.7000  -30.3710 C   0  0  0  0  0  0  0  0  0  0  0  0
   -5.3610   23.5940  -31.5280 C   0  0  0  0  0  0  0  0  0  0  0  0
   -4.4220   22.3970  -31.8060 C   0  0  0  0  0  0  0  0  0  0  0  0
   -4.5600   21.7340  -33.1330 N   0  0  0  0  0  0  0  0  0  0  0  0
   -5.0800   20.3740  -33.1420 C   0  0  0  0  0  0  0  0  0  0  0  0
   -6.4490   20.1330  -32.8410 C   0  0  0  0  0  0  0  0  0  0  0  0
   -7.2910   21.1560  -32.3440 C   0  0  0  0  0  0  0  0  0  0  0  0
   -8.5820   20.8680  -31.9060 C   0  0  0  0  0  0  0  0  0  0  0  0
   -9.0480   19.5620  -31.9290 C   0  0  0  0  0  0  0  0  0  0  0  0
   -8.2590   18.5470  -32.4610 C   0  0  0  0  0  0  0  0  0  0  0  0
   -6.9800   18.8240  -32.9960 C   0  0  0  0  0  0  0  0  0  0  0  0
   -6.2440   17.8550  -33.6400 N   0  0  0  0  0  0  0  0  0  0  0  0
   -6.8500   16.5750  -34.0630 C   0  0  0  0  0  0  0  0  0  0  0  0
   -4.9020   18.0410  -33.8570 C   0  0  0  0  0  0  0  0  0  0  0  0
   -4.1660   17.0260  -34.3890 N   0  0  0  0  0  0  0  0  0  0  0  0
   -2.8230   17.0990  -34.5470 C   0  0  0  0  0  0  0  0  0  0  0  0
   -2.1350   18.2200  -34.1090 C   0  0  0  0  0  0  0  0  0  0  0  0
   -2.8350   19.3000  -33.5560 C   0  0  0  0  0  0  0  0  0  0  0  0
   -2.1240   20.3820  -33.0170 O   0  0  0  0  0  0  0  0  0  0  0  0
   -0.8690   20.2620  -32.3460 C   0  0  0  0  0  0  0  0  0  0  0  0
   -0.8510   19.2450  -31.1780 C   0  0  0  0  0  0  0  0  0  0  0  0
   -0.1060   19.6130  -29.9220 N   0  0  0  0  0  0  0  0  0  0  0  0
    1.3600   19.6370  -30.1900 C   0  0  0  0  0  0  0  0  0  0  0  0
   -0.3730   18.5240  -28.9110 C   0  0  0  0  0  0  0  0  0  0  0  0
   -0.4880   19.0470  -27.4670 C   0  0  0  0  0  0  0  0  0  0  0  0
   -1.5920   20.0450  -27.3060 N   0  0  0  0  0  0  0  0  0  0  0  0
   -2.8580   19.3430  -26.9820 C   0  0  0  0  0  0  0  0  0  0  0  0
   -1.2620   20.9360  -26.1660 C   0  0  0  0  0  0  0  0  0  0  0  0
   -1.7920   20.8730  -28.5440 C   0  0  0  0  0  0  0  0  0  0  0  0
   -0.5100   20.9530  -29.3870 C   0  0  0  0  0  0  0  0  0  0  0  0
   -4.2630   19.2650  -33.5170 C   0  0  0  0  0  0  0  0  0  0  0  0
   -4.3122   24.5062  -28.7740 H   0  0  0  0  0  0  0  0  0  0  0  0
   -3.7416   23.1235  -29.7686 H   0  0  0  0  0  0  0  0  0  0  0  0
   -2.8253   24.6685  -29.7686 H   0  0  0  0  0  0  0  0  0  0  0  0
   -5.6142   25.7053  -29.2710 H   0  0  0  0  0  0  0  0  0  0  0  0
   -5.3236   26.6958  -30.7412 H   0  0  0  0  0  0  0  0  0  0  0  0
   -6.6130   25.4451  -30.7412 H   0  0  0  0  0  0  0  0  0  0  0  0
   -6.1870   23.2592  -30.8833 H   0  0  0  0  0  0  0  0  0  0  0  0
   -5.7440   23.9655  -32.4899 H   0  0  0  0  0  0  0  0  0  0  0  0
   -3.3866   22.7582  -31.7197 H   0  0  0  0  0  0  0  0  0  0  0  0
   -4.7035   21.6307  -31.0687 H   0  0  0  0  0  0  0  0  0  0  0  0
   -5.1720   22.3270  -33.7410 H   0  0  0  0  0  0  0  0  0  0  0  0
   -3.6560   21.7950  -33.6550 H   0  0  0  0  0  0  0  0  0  0  0  0
   -6.9218   22.1914  -32.3029 H   0  0  0  0  0  0  0  0  0  0  0  0
   -9.2321   21.6771  -31.5417 H   0  0  0  0  0  0  0  0  0  0  0  0
  -10.0442   19.3279  -31.5255 H   0  0  0  0  0  0  0  0  0  0  0  0
   -8.6359   17.5136  -32.4654 H   0  0  0  0  0  0  0  0  0  0  0  0
   -7.1273   15.9892  -33.1742 H   0  0  0  0  0  0  0  0  0  0  0  0
   -7.7486   16.7759  -34.6648 H   0  0  0  0  0  0  0  0  0  0  0  0
   -6.1251   16.0073  -34.6648 H   0  0  0  0  0  0  0  0  0  0  0  0
   -2.2786   16.2697  -35.0224 H   0  0  0  0  0  0  0  0  0  0  0  0
   -1.0392   18.2614  -34.1957 H   0  0  0  0  0  0  0  0  0  0  0  0
   -0.1153   19.9492  -33.0836 H   0  0  0  0  0  0  0  0  0  0  0  0
   -0.6600   21.2466  -31.9022 H   0  0  0  0  0  0  0  0  0  0  0  0
   -1.8968   19.0577  -30.8932 H   0  0  0  0  0  0  0  0  0  0  0  0
   -0.2986   18.3820  -31.5781 H   0  0  0  0  0  0  0  0  0  0  0  0
    1.9071   19.6460  -29.2357 H   0  0  0  0  0  0  0  0  0  0  0  0
    1.6421   18.7434  -30.7660 H   0  0  0  0  0  0  0  0  0  0  0  0
    1.6127   20.5394  -30.7660 H   0  0  0  0  0  0  0  0  0  0  0  0
   -1.3160   18.0242  -29.1773 H   0  0  0  0  0  0  0  0  0  0  0  0
    0.4843   17.8354  -28.9404 H   0  0  0  0  0  0  0  0  0  0  0  0
   -0.6813   18.1958  -26.7977 H   0  0  0  0  0  0  0  0  0  0  0  0
    0.4575   19.5507  -27.2172 H   0  0  0  0  0  0  0  0  0  0  0  0
   -2.9728   19.2793  -25.8899 H   0  0  0  0  0  0  0  0  0  0  0  0
   -3.7055   19.9000  -27.4079 H   0  0  0  0  0  0  0  0  0  0  0  0
   -2.8344   18.3291  -27.4079 H   0  0  0  0  0  0  0  0  0  0  0  0
   -1.4572   20.4091  -25.2203 H   0  0  0  0  0  0  0  0  0  0  0  0
   -0.1999   21.2177  -26.2163 H   0  0  0  0  0  0  0  0  0  0  0  0
   -1.8844   21.8416  -26.2163 H   0  0  0  0  0  0  0  0  0  0  0  0
   -2.5900   20.4202  -29.1507 H   0  0  0  0  0  0  0  0  0  0  0  0
   -2.0631   21.8931  -28.2343 H   0  0  0  0  0  0  0  0  0  0  0  0
   -0.6826   21.6356  -30.2322 H   0  0  0  0  0  0  0  0  0  0  0  0
    0.3004   21.3189  -28.7394 H   0  0  0  0  0  0  0  0  0  0  0  0
  1  2  1  0
  2  3  1  0
  2  4  1  0
  4  5  1  0
  5  6  1  0
  6  7  1  0
  7  8  2  0
  8  9  1  0
  9 10  2  0
 10 11  1  0
 11 12  2  0
 12 13  1  0
 13 14  2  0
 14 15  1  0
 14 16  1  0
 16 17  2  0
 17 18  1  0
 18 19  2  0
 19 20  1  0
 20 21  1  0
 21 22  1  0
 22 23  1  0
 23 24  1  0
 24 25  1  0
 24 26  1  0
 26 27  1  0
 27 28  1  0
 28 29  1  0
 28 30  1  0
 28 31  1  0
 31 32  1  0
 20 33  2  0
 33  7  1  0
 13  8  1  0
 33 16  1  0
 32 24  1  0
  1 34  1  0
  1 35  1  0
  1 36  1  0
  3 37  1  0
  3 38  1  0
  3 39  1  0
  4 40  1  0
  4 41  1  0
  5 42  1  0
  5 43  1  0
  6 44  1  0
  6 45  1  0
  9 46  1  0
 10 47  1  0
 11 48  1  0
 12 49  1  0
 15 50  1  0
 15 51  1  0
 15 52  1  0
 18 53  1  0
 19 54  1  0
 22 55  1  0
 22 56  1  0
 23 57  1  0
 23 58  1  0
 25 59  1  0
 25 60  1  0
 25 61  1  0
 26 62  1  0
 26 63  1  0
 27 64  1  0
 27 65  1  0
 29 66  1  0
 29 67  1  0
 29 68  1  0
 30 69  1  0
 30 70  1  0
 30 71  1  0
 31 72  1  0
 31 73  1  0
 32 74  1  0
 32 75  1  0
M  CHG  4   6   1  14   1  24   1  28   1
M  END
>  <UniqueID>  (12) 
12

>  <SMILES>  (12) 
CN(C)CC[NH2+]c1c2ccccc2[n+](C)c2nccc(OCC[N+]3(C)CC[N+](C)(C)CC3)c12

>  <Energy>  (12) 
147.72711242925647

>  <Genealogy>  (12) 
CN(C)CC[NH2+]c1c2ccccc2[n+](C)c2nccc(OCC[N+]3(C)CC[N+](C)(C)CC3)c12 (protonated)
CN(C)CC[NH2+]c1c2ccccc2[n+](C)c2nccc(OCC[N+]3(C)CC[N+](C)(C)CC3)c12 (3D coordinates assigned)
CN(C)CC[NH2+]c1c2ccccc2[n+](C)c2nccc(OCC[N+]3(C)CC[N+](C)(C)CC3)c12 (nonaromatic ring conformer: 147.72711242925647 kcal/mol)

>  <smiles>  (12) 
CN(C)CCNc1c2ccccc2[n+](C)c2nccc(OCC[N+]3(C)CC[N+](C)(C)CC3)c12

>  <score_type>  (12) 
oracle

>  <origin>  (12) 
adg

>  <m_score__min__energy>  (12) 
-7.6500000000000004

>  <m_primary>  (12) 
energy

$$$$
12:0
     RDKit          3D

 47 50  0  0  0  0  0  0  0  0999 V2000
   -1.4350   18.8290  -34.1630 C   0  0  0  0  0  0  0  0  0  0  0  0
   -1.5110   20.2980  -34.2430 N   0  0  0  0  0  0  0  0  0  0  0  0
   -0.3590   20.8040  -35.0110 C   0  0  0  0  0  0  0  0  0  0  0  0
   -1.5450   20.8810  -32.8830 C   0  0  0  0  0  0  0  0  0  0  0  0
   -2.9010   21.5490  -32.6100 C   0  0  0  0  0  0  0  0  0  0  0  0
   -3.9130   21.2330  -33.6400 N   0  0  0  0  0  0  0  0  0  0  0  0
   -5.1130   20.6500  -33.0720 C   0  0  0  0  0  0  0  0  0  0  0  0
   -5.5440   19.3400  -33.4530 C   0  0  0  0  0  0  0  0  0  0  0  0
   -4.8280   18.5470  -34.3800 C   0  0  0  0  0  0  0  0  0  0  0  0
   -5.2800   17.2770  -34.7290 C   0  0  0  0  0  0  0  0  0  0  0  0
   -6.4480   16.7850  -34.1610 C   0  0  0  0  0  0  0  0  0  0  0  0
   -7.1390   17.5400  -33.2730 N   0  0  0  0  0  0  0  0  0  0  0  0
   -6.7410   18.7900  -32.8960 C   0  0  0  0  0  0  0  0  0  0  0  0
   -7.4900   19.5040  -31.9910 N   0  0  0  0  0  0  0  0  0  0  0  0
   -8.7270   18.9580  -31.4040 C   0  0  0  0  0  0  0  0  0  0  0  0
   -7.0720   20.7500  -31.6260 C   0  0  0  0  0  0  0  0  0  0  0  0
   -7.7100   21.5530  -30.7470 N   0  0  0  0  0  0  0  0  0  0  0  0
   -6.9650   22.6660  -30.6770 C   0  0  0  0  0  0  0  0  0  0  0  0
   -7.2350   23.7780  -29.8820 C   0  0  0  0  0  0  0  0  0  0  0  0
   -6.3390   24.8550  -29.9210 C   0  0  0  0  0  0  0  0  0  0  0  0
   -5.2010   24.7990  -30.7450 C   0  0  0  0  0  0  0  0  0  0  0  0
   -4.9440   23.6690  -31.5410 C   0  0  0  0  0  0  0  0  0  0  0  0
   -5.8520   22.5940  -31.5010 C   0  0  0  0  0  0  0  0  0  0  0  0
   -5.9170   21.3380  -32.1290 C   0  0  0  0  0  0  0  0  0  0  0  0
   -1.4190   18.5196  -33.1075 H   0  0  0  0  0  0  0  0  0  0  0  0
   -2.3116   18.3888  -34.6609 H   0  0  0  0  0  0  0  0  0  0  0  0
   -0.5177   18.4816  -34.6609 H   0  0  0  0  0  0  0  0  0  0  0  0
    0.4222   21.1472  -34.3168 H   0  0  0  0  0  0  0  0  0  0  0  0
    0.0414   19.9989  -35.6446 H   0  0  0  0  0  0  0  0  0  0  0  0
   -0.6810   21.6435  -35.6446 H   0  0  0  0  0  0  0  0  0  0  0  0
   -1.3809   20.0828  -32.1442 H   0  0  0  0  0  0  0  0  0  0  0  0
   -0.7548   21.6423  -32.8057 H   0  0  0  0  0  0  0  0  0  0  0  0
   -3.2729   21.2033  -31.6342 H   0  0  0  0  0  0  0  0  0  0  0  0
   -2.7428   22.6375  -32.6242 H   0  0  0  0  0  0  0  0  0  0  0  0
   -3.5000   20.5630  -34.3270 H   0  0  0  0  0  0  0  0  0  0  0  0
   -4.1230   22.0600  -34.2270 H   0  0  0  0  0  0  0  0  0  0  0  0
   -3.9037   18.9380  -34.8303 H   0  0  0  0  0  0  0  0  0  0  0  0
   -4.7156   16.6673  -35.4499 H   0  0  0  0  0  0  0  0  0  0  0  0
   -6.8119   15.7829  -34.4319 H   0  0  0  0  0  0  0  0  0  0  0  0
   -8.6569   18.9890  -30.3067 H   0  0  0  0  0  0  0  0  0  0  0  0
   -9.5863   19.5605  -31.7336 H   0  0  0  0  0  0  0  0  0  0  0  0
   -8.8609   17.9171  -31.7336 H   0  0  0  0  0  0  0  0  0  0  0  0
   -8.5920   21.3640  -30.2210 H   0  0  0  0  0  0  0  0  0  0  0  0
   -8.1280   23.8097  -29.2405 H   0  0  0  0  0  0  0  0  0  0  0  0
   -6.5266   25.7469  -29.3051 H   0  0  0  0  0  0  0  0  0  0  0  0
   -4.5036   25.6494  -30.7671 H   0  0  0  0  0  0  0  0  0  0  0  0
   -4.0513   23.6257  -32.1822 H   0  0  0  0  0  0  0  0  0  0  0  0
  1  2  1  0
  2  3  1  0
  2  4  1  0
  4  5  1  0
  5  6  1  0
  6  7  1  0
  7  8  2  0
  8  9  1  0
  9 10  2  0
 10 11  1  0
 11 12  2  0
 12 13  1  0
 13 14  2  0
 14 15  1  0
 14 16  1  0
 16 17  1  0
 17 18  1  0
 18 19  2  0
 19 20  1  0
 20 21  2  0
 21 22  1  0
 22 23  2  0
 23 24  1  0
 24  7  1  0
 13  8  1  0
 24 16  2  0
 23 18  1  0
  1 25  1  0
  1 26  1  0
  1 27  1  0
  3 28  1  0
  3 29  1  0
  3 30  1  0
  4 31  1  0
  4 32  1  0
  5 33  1  0
  5 34  1  0
  6 35  1  0
  6 36  1  0
  9 37  1  0
 10 38  1  0
 11 39  1  0
 15 40  1  0
 15 41  1  0
 15 42  1  0
 17 43  1  0
 19 44  1  0
 20 45  1  0
 21 46  1  0
 22 47  1  0
M  CHG  2   6   1  14   1
M  END
>  <UniqueID>  (13) 
13

>  <SMILES>  (13) 
CN(C)CC[NH2+]c1c2cccnc2[n+](C)c2[nH]c3ccccc3c12

>  <Energy>  (13) 
107.17765966616344

>  <Genealogy>  (13) 
CN(C)CC[NH2+]c1c2cccnc2[n+](C)c2[nH]c3ccccc3c12 (protonated)
CN(C)CC[NH2+]c1c2cccnc2[n+](C)c2[nH]c3ccccc3c12 (3D coordinates assigned)
CN(C)CC[NH2+]c1c2cccnc2[n+](C)c2[nH]c3ccccc3c12 (optimized conformer: 107.17765966616344 kcal/mol)

>  <smiles>  (13) 
CN(C)CCNc1c2cccnc2[n+](C)c2[nH]c3ccccc3c12

>  <score_type>  (13) 
oracle

>  <origin>  (13) 
adg

>  <m_score__min__energy>  (13) 
-8.0199999999999996

>  <m_primary>  (13) 
energy

$$$$
13:0
     RDKit          3D

 48 50  0  0  0  0  0  0  0  0999 V2000
   -8.9830   18.7540  -31.6020 C   0  0  0  0  0  0  0  0  0  0  0  0
   -7.9190   18.3830  -32.6380 C   0  0  0  0  0  0  0  0  0  0  0  0
   -7.5210   19.5330  -33.4680 N   0  0  0  0  0  0  0  0  0  0  0  0
   -6.6630   20.4410  -32.7420 C   0  0  0  0  0  0  0  0  0  0  0  0
   -5.5510   19.9550  -32.0380 C   0  0  0  0  0  0  0  0  0  0  0  0
   -4.7250   20.8270  -31.3270 C   0  0  0  0  0  0  0  0  0  0  0  0
   -4.9730   22.2130  -31.3280 C   0  0  0  0  0  0  0  0  0  0  0  0
   -6.1360   22.6930  -31.9700 C   0  0  0  0  0  0  0  0  0  0  0  0
   -6.9520   21.8130  -32.6970 C   0  0  0  0  0  0  0  0  0  0  0  0
   -6.5020   24.1460  -31.8910 C   0  0  0  0  0  0  0  0  0  0  0  0
   -5.7660   24.8070  -30.7300 C   0  0  0  0  0  0  0  0  0  0  0  0
   -4.3850   24.5400  -30.8410 O   0  0  0  0  0  0  0  0  0  0  0  0
   -4.1010   23.1830  -30.5230 C   0  0  2  0  0  0  0  0  0  0  0  0
   -2.5970   22.9450  -30.7830 C   0  0  0  0  0  0  0  0  0  0  0  0
   -1.9060   22.2490  -29.5940 C   0  0  0  0  0  0  0  0  0  0  0  0
   -1.7170   23.1810  -28.4570 N   0  0  0  0  0  0  0  0  0  0  0  0
   -0.4890   22.8580  -27.6910 C   0  0  0  0  0  0  0  0  0  0  0  0
    0.6870   23.7720  -28.0810 C   0  0  0  0  0  0  0  0  0  0  0  0
    0.4320   25.1550  -27.8710 O   0  0  0  0  0  0  0  0  0  0  0  0
   -0.9450   25.4990  -27.9440 C   0  0  0  0  0  0  0  0  0  0  0  0
   -1.7510   24.5980  -28.8940 C   0  0  0  0  0  0  0  0  0  0  0  0
   -8.5751   18.6118  -30.5904 H   0  0  0  0  0  0  0  0  0  0  0  0
   -9.2736   19.8065  -31.7356 H   0  0  0  0  0  0  0  0  0  0  0  0
   -9.8650   18.1104  -31.7356 H   0  0  0  0  0  0  0  0  0  0  0  0
   -7.0310   18.0023  -32.1121 H   0  0  0  0  0  0  0  0  0  0  0  0
   -8.3495   17.6207  -33.3040 H   0  0  0  0  0  0  0  0  0  0  0  0
   -8.3710   20.0310  -33.8220 H   0  0  0  0  0  0  0  0  0  0  0  0
   -7.0050   19.1770  -34.3060 H   0  0  0  0  0  0  0  0  0  0  0  0
   -5.3283   18.8778  -32.0464 H   0  0  0  0  0  0  0  0  0  0  0  0
   -3.8714   20.4272  -30.7600 H   0  0  0  0  0  0  0  0  0  0  0  0
   -7.8273   22.2029  -33.2372 H   0  0  0  0  0  0  0  0  0  0  0  0
   -6.2215   24.6439  -32.8309 H   0  0  0  0  0  0  0  0  0  0  0  0
   -7.5863   24.2370  -31.7298 H   0  0  0  0  0  0  0  0  0  0  0  0
   -5.9337   25.8937  -30.7596 H   0  0  0  0  0  0  0  0  0  0  0  0
   -6.1436   24.4057  -29.7780 H   0  0  0  0  0  0  0  0  0  0  0  0
   -4.3373   22.9904  -29.4661 H   0  0  0  0  0  0  0  0  0  0  0  0
   -2.4872   22.3129  -31.6766 H   0  0  0  0  0  0  0  0  0  0  0  0
   -2.1188   23.9252  -30.9262 H   0  0  0  0  0  0  0  0  0  0  0  0
   -2.5273   21.4033  -29.2641 H   0  0  0  0  0  0  0  0  0  0  0  0
   -0.9162   21.9008  -29.9243 H   0  0  0  0  0  0  0  0  0  0  0  0
   -0.6959   22.9828  -26.6179 H   0  0  0  0  0  0  0  0  0  0  0  0
   -0.2059   21.8204  -27.9218 H   0  0  0  0  0  0  0  0  0  0  0  0
    1.5630   23.4856  -27.4805 H   0  0  0  0  0  0  0  0  0  0  0  0
    0.8542   23.6368  -29.1598 H   0  0  0  0  0  0  0  0  0  0  0  0
   -1.3782   25.4185  -26.9361 H   0  0  0  0  0  0  0  0  0  0  0  0
   -1.0028   26.5231  -28.3414 H   0  0  0  0  0  0  0  0  0  0  0  0
   -2.7958   24.9416  -28.9123 H   0  0  0  0  0  0  0  0  0  0  0  0
   -1.3008   24.6616  -29.8956 H   0  0  0  0  0  0  0  0  0  0  0  0
  1  2  1  0
  2  3  1  0
  3  4  1  0
  4  5  2  0
  5  6  1  0
  6  7  2  0
  7  8  1  0
  8  9  2  0
  8 10  1  0
 10 11  1  0
 11 12  1  0
 12 13  1  0
 13 14  1  0
 14 15  1  0
 15 16  1  0
 16 17  1  0
 17 18  1  0
 18 19  1  0
 19 20  1  0
 20 21  1  0
  9  4  1  0
 21 16  1  0
 13  7  1  0
  1 22  1  0
  1 23  1  0
  1 24  1  0
  2 25  1  0
  2 26  1  0
  3 27  1  0
  3 28  1  0
  5 29  1  0
  6 30  1  0
  9 31  1  0
 10 32  1  0
 10 33  1  0
 11 34  1  0
 11 35  1  0
 13 36  1  1
 14 37  1  0
 14 38  1  0
 15 39  1  0
 15 40  1  0
 17 41  1  0
 17 42  1  0
 18 43  1  0
 18 44  1  0
 20 45  1  0
 20 46  1  0
 21 47  1  0
 21 48  1  0
M  CHG  1   3   1
M  END
>  <UniqueID>  (14) 
14

>  <SMILES>  (14) 
CC[NH2+]c1ccc2c(c1)CCO[C@@H]2CCN1CCOCC1

>  <Energy>  (14) 
65.90134169587245

>  <Genealogy>  (14) 
CC[NH2+]c1ccc2c(c1)CCOC2CCN1CCOCC1 (protonated)
CC[NH2+]c1ccc2c(c1)CCO[C@@H]2CCN1CCOCC1 (chirality)
CC[NH2+]c1ccc2c(c1)CCO[C@@H]2CCN1CCOCC1 (3D coordinates assigned)
CC[NH2+]c1ccc2c(c1)CCO[C@@H]2CCN1CCOCC1 (nonaromatic ring conformer: 65.90134169587245 kcal/mol)

>  <smiles>  (14) 
CCNc1ccc2c(c1)CCOC2CCN1CCOCC1

>  <score_type>  (14) 
oracle

>  <origin>  (14) 
adg

>  <m_score__min__energy>  (14) 
-7.4500000000000002

>  <m_primary>  (14) 
energy

$$$$
14:0
     RDKit          3D

 64 67  0  0  0  0  0  0  0  0999 V2000
   -6.7850   24.6350  -29.8380 C   0  0  0  0  0  0  0  0  0  0  0  0
   -5.6850   25.6120  -30.2490 C   0  0  0  0  0  0  0  0  0  0  0  0
   -4.7690   24.9550  -31.1990 N   0  0  0  0  0  0  0  0  0  0  0  0
   -4.0010   23.8690  -30.5740 C   0  0  0  0  0  0  0  0  0  0  0  0
   -3.8980   22.6860  -31.5460 C   0  0  0  0  0  0  0  0  0  0  0  0
   -4.9420   22.7050  -32.5890 N   0  0  0  0  0  0  0  0  0  0  0  0
   -5.6460   21.4390  -32.6760 C   0  0  0  0  0  0  0  0  0  0  0  0
   -7.0470   21.3180  -32.4140 C   0  0  0  0  0  0  0  0  0  0  0  0
   -7.8550   22.4470  -32.1250 C   0  0  0  0  0  0  0  0  0  0  0  0
   -9.2230   22.3180  -31.9010 C   0  0  0  0  0  0  0  0  0  0  0  0
   -9.8290   21.0730  -31.9690 C   0  0  0  0  0  0  0  0  0  0  0  0
   -9.0730   19.9380  -32.2490 C   0  0  0  0  0  0  0  0  0  0  0  0
   -7.6720   20.0210  -32.4560 C   0  0  0  0  0  0  0  0  0  0  0  0
   -6.9200   18.8860  -32.7080 N   0  0  0  0  0  0  0  0  0  0  0  0
   -7.5020   17.5320  -32.6080 C   0  0  0  0  0  0  0  0  0  0  0  0
   -5.6080   19.0370  -33.0630 C   0  0  0  0  0  0  0  0  0  0  0  0
   -4.7830   18.0470  -33.4800 N   0  0  0  0  0  0  0  0  0  0  0  0
   -3.6010   18.6420  -33.7120 C   0  0  0  0  0  0  0  0  0  0  0  0
   -2.4500   18.0190  -34.1880 C   0  0  0  0  0  0  0  0  0  0  0  0
   -1.3120   18.8060  -34.4050 C   0  0  0  0  0  0  0  0  0  0  0  0
   -1.3280   20.1970  -34.1460 C   0  0  0  0  0  0  0  0  0  0  0  0
   -0.1320   20.9610  -34.3930 N   0  0  0  0  0  0  0  0  0  0  0  0
    1.0650   20.4600  -35.0740 C   0  0  0  0  0  0  0  0  0  0  0  0
    1.7310   21.5750  -35.8910 C   0  0  0  0  0  0  0  0  0  0  0  0
    1.3750   22.9040  -35.3470 N   0  0  0  0  0  0  0  0  0  0  0  0
    0.2300   23.4660  -36.0810 C   0  0  0  0  0  0  0  0  0  0  0  0
    2.5120   23.8390  -35.4380 C   0  0  0  0  0  0  0  0  0  0  0  0
   -2.5090   20.7970  -33.6460 C   0  0  0  0  0  0  0  0  0  0  0  0
   -3.6480   19.9950  -33.4500 C   0  0  0  0  0  0  0  0  0  0  0  0
   -4.9620   20.2600  -33.0390 C   0  0  0  0  0  0  0  0  0  0  0  0
   -6.8404   24.5858  -28.7405 H   0  0  0  0  0  0  0  0  0  0  0  0
   -7.7498   24.9794  -30.2388 H   0  0  0  0  0  0  0  0  0  0  0  0
   -6.5569   23.6363  -30.2388 H   0  0  0  0  0  0  0  0  0  0  0  0
   -6.1379   26.4931  -30.7271 H   0  0  0  0  0  0  0  0  0  0  0  0
   -5.1228   25.9251  -29.3569 H   0  0  0  0  0  0  0  0  0  0  0  0
   -4.0940   25.6740  -31.5570 H   0  0  0  0  0  0  0  0  0  0  0  0
   -2.9913   24.2294  -30.3276 H   0  0  0  0  0  0  0  0  0  0  0  0
   -4.5102   23.5434  -29.6549 H   0  0  0  0  0  0  0  0  0  0  0  0
   -2.9132   22.7186  -32.0350 H   0  0  0  0  0  0  0  0  0  0  0  0
   -4.0347   21.7653  -30.9599 H   0  0  0  0  0  0  0  0  0  0  0  0
   -4.5470   23.0190  -33.5000 H   0  0  0  0  0  0  0  0  0  0  0  0
   -5.6400   23.4530  -32.3790 H   0  0  0  0  0  0  0  0  0  0  0  0
   -7.3920   23.4437  -32.0769 H   0  0  0  0  0  0  0  0  0  0  0  0
   -9.8260   23.2083  -31.6689 H   0  0  0  0  0  0  0  0  0  0  0  0
  -10.9122   20.9815  -31.8009 H   0  0  0  0  0  0  0  0  0  0  0  0
   -9.5710   18.9591  -32.3108 H   0  0  0  0  0  0  0  0  0  0  0  0
   -7.6187   17.2604  -31.5485 H   0  0  0  0  0  0  0  0  0  0  0  0
   -8.4855   17.5183  -33.1005 H   0  0  0  0  0  0  0  0  0  0  0  0
   -6.8352   16.8090  -33.1005 H   0  0  0  0  0  0  0  0  0  0  0  0
   -4.9950   17.0380  -33.6420 H   0  0  0  0  0  0  0  0  0  0  0  0
   -2.4351   16.9375  -34.3882 H   0  0  0  0  0  0  0  0  0  0  0  0
   -0.3920   18.3357  -34.7824 H   0  0  0  0  0  0  0  0  0  0  0  0
   -0.1140   21.9620  -34.0880 H   0  0  0  0  0  0  0  0  0  0  0  0
    1.7778   20.0871  -34.3238 H   0  0  0  0  0  0  0  0  0  0  0  0
    0.7703   19.6493  -35.7566 H   0  0  0  0  0  0  0  0  0  0  0  0
    2.8230   21.4490  -35.8513 H   0  0  0  0  0  0  0  0  0  0  0  0
    1.3777   21.5116  -36.9308 H   0  0  0  0  0  0  0  0  0  0  0  0
   -0.5196   23.8339  -35.3650 H   0  0  0  0  0  0  0  0  0  0  0  0
    0.5726   24.2983  -36.7133 H   0  0  0  0  0  0  0  0  0  0  0  0
   -0.2188   22.6858  -36.7133 H   0  0  0  0  0  0  0  0  0  0  0  0
    2.8441   24.1121  -34.4255 H   0  0  0  0  0  0  0  0  0  0  0  0
    3.3404   23.3574  -35.9782 H   0  0  0  0  0  0  0  0  0  0  0  0
    2.1995   24.7448  -35.9782 H   0  0  0  0  0  0  0  0  0  0  0  0
   -2.5354   21.8721  -33.4147 H   0  0  0  0  0  0  0  0  0  0  0  0
  1  2  1  0
  2  3  1  0
  3  4  1  0
  4  5  1  0
  5  6  1  0
  6  7  1  0
  7  8  2  0
  8  9  1  0
  9 10  2  0
 10 11  1  0
 11 12  2  0
 12 13  1  0
 13 14  2  0
 14 15  1  0
 14 16  1  0
 16 17  1  0
 17 18  1  0
 18 19  2  0
 19 20  1  0
 20 21  2  0
 21 22  1  0
 22 23  1  0
 23 24  1  0
 24 25  1  0
 25 26  1  0
 25 27  1  0
 21 28  1  0
 28 29  2  0
 29 30  1  0
 30  7  1  0
 13  8  1  0
 30 16  2  0
 29 18  1  0
  1 31  1  0
  1 32  1  0
  1 33  1  0
  2 34  1  0
  2 35  1  0
  3 36  1  0
  4 37  1  0
  4 38  1  0
  5 39  1  0
  5 40  1  0
  6 41  1  0
  6 42  1  0
  9 43  1  0
 10 44  1  0
 11 45  1  0
 12 46  1  0
 15 47  1  0
 15 48  1  0
 15 49  1  0
 17 50  1  0
 19 51  1  0
 20 52  1  0
 22 53  1  0
 23 54  1  0
 23 55  1  0
 24 56  1  0
 24 57  1  0
 26 58  1  0
 26 59  1  0
 26 60  1  0
 27 61  1  0
 27 62  1  0
 27 63  1  0
 28 64  1  0
M  CHG  2   6   1  14   1
M  END
>  <UniqueID>  (15) 
15

>  <SMILES>  (15) 
CCNCC[NH2+]c1c2ccccc2[n+](C)c2[nH]c3ccc(NCCN(C)C)cc3c12

>  <Energy>  (15) 
119.88259054385011

>  <Genealogy>  (15) 
CCNCC[NH2+]c1c2ccccc2[n+](C)c2[nH]c3ccc(NCCN(C)C)cc3c12 (protonated)
CCNCC[NH2+]c1c2ccccc2[n+](C)c2[nH]c3ccc(NCCN(C)C)cc3c12 (3D coordinates assigned)
CCNCC[NH2+]c1c2ccccc2[n+](C)c2[nH]c3ccc(NCCN(C)C)cc3c12 (optimized conformer: 119.88259054385011 kcal/mol)

>  <smiles>  (15) 
CCNCCNc1c2ccccc2[n+](C)c2[nH]c3ccc(NCCN(C)C)cc3c12

>  <score_type>  (15) 
oracle

>  <origin>  (15) 
adg

>  <m_score__min__energy>  (15) 
-8.7699999999999996

>  <m_primary>  (15) 
energy

$$$$
15:0
     RDKit          3D

 51 52  0  0  0  0  0  0  0  0999 V2000
   -7.0570   17.9030  -31.6740 C   0  0  0  0  0  0  0  0  0  0  0  0
   -8.4070   18.6230  -31.6650 C   0  0  0  0  0  0  0  0  0  0  0  0
   -8.3620   19.8790  -32.4450 N   0  0  0  0  0  0  0  0  0  0  0  0
   -9.4100   20.8300  -31.9890 C   0  0  0  0  0  0  0  0  0  0  0  0
   -8.8560   21.8800  -31.0170 C   0  0  0  0  0  0  0  0  0  0  0  0
   -7.8070   22.6950  -31.6660 N   0  0  0  0  0  0  0  0  0  0  0  0
   -7.0060   23.4880  -30.7080 C   0  0  0  0  0  0  0  0  0  0  0  0
   -6.0040   24.4610  -31.3700 C   0  0  0  0  0  0  0  0  0  0  0  0
   -5.3000   25.3120  -30.3070 C   0  0  0  0  0  0  0  0  0  0  0  0
   -3.8550   25.3010  -30.5120 N   0  0  0  0  0  0  0  0  0  0  0  0
   -2.9010   24.5750  -29.7270 C   0  0  0  0  0  0  0  0  0  0  0  0
   -2.0060   25.2240  -29.1200 O   0  0  0  0  0  0  0  0  0  0  0  0
   -2.9970   23.0810  -29.5320 C   0  0  0  0  0  0  0  0  0  0  0  0
   -2.7510   22.3270  -30.8190 C   0  0  0  0  0  0  0  0  0  0  0  0
   -3.8100   22.1250  -31.7210 C   0  0  0  0  0  0  0  0  0  0  0  0
   -3.6010   21.4280  -32.9120 C   0  0  0  0  0  0  0  0  0  0  0  0
   -2.3350   20.9240  -33.2140 C   0  0  0  0  0  0  0  0  0  0  0  0
   -1.2750   21.1110  -32.3240 C   0  0  0  0  0  0  0  0  0  0  0  0
   -1.4720   21.8120  -31.1180 C   0  0  0  0  0  0  0  0  0  0  0  0
   -0.4290   22.0030  -30.1950 O   0  0  0  0  0  0  0  0  0  0  0  0
   -0.1640   21.1460  -29.0890 C   0  0  0  0  0  0  0  0  0  0  0  0
   -7.0210   21.9850  -32.7000 C   0  0  0  0  0  0  0  0  0  0  0  0
   -6.9960   20.4670  -32.4570 C   0  0  0  0  0  0  0  0  0  0  0  0
   -6.7281   17.7276  -30.6391 H   0  0  0  0  0  0  0  0  0  0  0  0
   -7.1588   16.9394  -32.1947 H   0  0  0  0  0  0  0  0  0  0  0  0
   -6.3135   18.5244  -32.1947 H   0  0  0  0  0  0  0  0  0  0  0  0
   -9.1680   17.9593  -32.1014 H   0  0  0  0  0  0  0  0  0  0  0  0
   -8.6545   18.8748  -30.6232 H   0  0  0  0  0  0  0  0  0  0  0  0
   -9.8273   21.3450  -32.8668 H   0  0  0  0  0  0  0  0  0  0  0  0
  -10.1822   20.2531  -31.4590 H   0  0  0  0  0  0  0  0  0  0  0  0
   -9.6751   22.5386  -30.6925 H   0  0  0  0  0  0  0  0  0  0  0  0
   -8.4154   21.3621  -30.1523 H   0  0  0  0  0  0  0  0  0  0  0  0
   -7.6964   24.0755  -30.0849 H   0  0  0  0  0  0  0  0  0  0  0  0
   -6.4102   22.7702  -30.1252 H   0  0  0  0  0  0  0  0  0  0  0  0
   -5.2521   23.8828  -31.9271 H   0  0  0  0  0  0  0  0  0  0  0  0
   -6.5526   25.1266  -32.0526 H   0  0  0  0  0  0  0  0  0  0  0  0
   -5.6662   26.3472  -30.3724 H   0  0  0  0  0  0  0  0  0  0  0  0
   -5.5198   24.8916  -29.3146 H   0  0  0  0  0  0  0  0  0  0  0  0
   -2.2474   22.7705  -28.7892 H   0  0  0  0  0  0  0  0  0  0  0  0
   -4.0158   22.8469  -29.1894 H   0  0  0  0  0  0  0  0  0  0  0  0
   -4.8100   22.5188  -31.4867 H   0  0  0  0  0  0  0  0  0  0  0  0
   -4.4347   21.2758  -33.6132 H   0  0  0  0  0  0  0  0  0  0  0  0
   -2.1717   20.3783  -34.1550 H   0  0  0  0  0  0  0  0  0  0  0  0
   -0.2803   20.7085  -32.5662 H   0  0  0  0  0  0  0  0  0  0  0  0
   -0.3337   21.6949  -28.1509 H   0  0  0  0  0  0  0  0  0  0  0  0
   -0.8349   20.2753  -29.1309 H   0  0  0  0  0  0  0  0  0  0  0  0
    0.8813   20.8059  -29.1309 H   0  0  0  0  0  0  0  0  0  0  0  0
   -7.4700   22.1804  -33.6850 H   0  0  0  0  0  0  0  0  0  0  0  0
   -5.9860   22.3550  -32.6564 H   0  0  0  0  0  0  0  0  0  0  0  0
   -6.4114   19.9894  -33.2571 H   0  0  0  0  0  0  0  0  0  0  0  0
   -6.5426   20.2896  -31.4706 H   0  0  0  0  0  0  0  0  0  0  0  0
  1  2  1  0
  2  3  1  0
  3  4  1  0
  4  5  1  0
  5  6  1  0
  6  7  1  0
  7  8  1  0
  8  9  1  0
  9 10  1  0
 10 11  1  0
 11 12  2  0
 11 13  1  0
 13 14  1  0
 14 15  2  0
 15 16  1  0
 16 17  2  0
 17 18  1  0
 18 19  2  0
 19 20  1  0
 20 21  1  0
  6 22  1  0
 22 23  1  0
 23  3  1  0
 19 14  1  0
  1 24  1  0
  1 25  1  0
  1 26  1  0
  2 27  1  0
  2 28  1  0
  4 29  1  0
  4 30  1  0
  5 31  1  0
  5 32  1  0
  7 33  1  0
  7 34  1  0
  8 35  1  0
  8 36  1  0
  9 37  1  0
  9 38  1  0
 13 39  1  0
 13 40  1  0
 15 41  1  0
 16 42  1  0
 17 43  1  0
 18 44  1  0
 21 45  1  0
 21 46  1  0
 21 47  1  0
 22 48  1  0
 22 49  1  0
 23 50  1  0
 23 51  1  0
M  CHG  1  10  -1
M  END
>  <UniqueID>  (16) 
16

>  <SMILES>  (16) 
CCN1CCN(CCC[N-]C(=O)Cc2ccccc2OC)CC1

>  <Energy>  (16) 
56.55696643582351

>  <Genealogy>  (16) 
CCN1CCN(CCC[N-]C(=O)Cc2ccccc2OC)CC1 (protonated)
CCN1CCN(CCC[N-]C(=O)Cc2ccccc2OC)CC1 (3D coordinates assigned)
CCN1CCN(CCC[N-]C(=O)Cc2ccccc2OC)CC1 (nonaromatic ring conformer: 56.55696643582351 kcal/mol)

>  <smiles>  (16) 
CCN1CCN(CCCNC(=O)Cc2ccccc2OC)CC1

>  <score_type>  (16) 
oracle

>  <origin>  (16) 
adg

>  <m_score__min__energy>  (16) 
-9.5500000000000007

>  <m_primary>  (16) 
energy

$$$$
16:0
     RDKit          3D

 69 71  0  0  0  0  0  0  0  0999 V2000
   -5.9820   25.2710  -29.4870 C   0  0  0  0  0  0  0  0  0  0  0  0
   -5.3480   25.3010  -30.8740 C   0  0  0  0  0  0  0  0  0  0  0  0
   -3.8940   25.3120  -30.7690 N   0  0  0  0  0  0  0  0  0  0  0  0
   -3.1540   24.4520  -29.8960 C   0  0  0  0  0  0  0  0  0  0  0  0
   -2.1550   24.8960  -29.2630 O   0  0  0  0  0  0  0  0  0  0  0  0
   -3.5490   23.0090  -29.7780 C   0  0  0  0  0  0  0  0  0  0  0  0
   -3.7290   22.5780  -28.3130 C   0  0  0  0  0  0  0  0  0  0  0  0
   -2.8240   21.3940  -27.9320 C   0  0  0  0  0  0  0  0  0  0  0  0
   -1.8090   21.7550  -26.8440 C   0  0  0  0  0  0  0  0  0  0  0  0
   -1.0600   20.5640  -26.4660 N   0  0  0  0  0  0  0  0  0  0  0  0
   -1.4890   19.2190  -26.7150 C   0  0  0  0  0  0  0  0  0  0  0  0
   -2.6610   18.8850  -26.3960 O   0  0  0  0  0  0  0  0  0  0  0  0
   -0.5750   18.1920  -27.3280 C   0  0  0  0  0  0  0  0  0  0  0  0
    0.3500   18.7970  -28.2310 O   0  0  0  0  0  0  0  0  0  0  0  0
    0.0160   19.4360  -29.4360 C   0  0  0  0  0  0  0  0  0  0  0  0
   -0.1200   18.6480  -30.5860 C   0  0  0  0  0  0  0  0  0  0  0  0
   -0.4220   19.2350  -31.8170 C   0  0  0  0  0  0  0  0  0  0  0  0
   -0.6000   20.6210  -31.9150 C   0  0  0  0  0  0  0  0  0  0  0  0
   -0.8550   21.2550  -33.2570 C   0  0  0  0  0  0  0  0  0  0  0  0
   -2.2320   20.9850  -33.6960 N   0  0  0  0  0  0  0  0  0  0  0  0
   -2.4200   19.5990  -34.1680 C   0  0  0  0  0  0  0  0  0  0  0  0
   -3.7200   18.9650  -33.6500 C   0  0  0  0  0  0  0  0  0  0  0  0
   -4.6570   19.9970  -33.2120 N   0  0  0  0  0  0  0  0  0  0  0  0
   -5.9870   19.6740  -32.7720 C   0  0  0  0  0  0  0  0  0  0  0  0
   -6.3970   18.3300  -32.7590 C   0  0  0  0  0  0  0  0  0  0  0  0
   -7.6930   17.9840  -32.3800 C   0  0  0  0  0  0  0  0  0  0  0  0
   -8.6050   18.9710  -32.0120 C   0  0  0  0  0  0  0  0  0  0  0  0
   -8.2270   20.3210  -32.0170 C   0  0  0  0  0  0  0  0  0  0  0  0
   -9.1480   21.3130  -31.6440 C   0  0  0  0  0  0  0  0  0  0  0  0
   -8.7690   22.6570  -31.6270 C   0  0  0  0  0  0  0  0  0  0  0  0
   -7.4670   23.0210  -31.9700 C   0  0  0  0  0  0  0  0  0  0  0  0
   -6.5370   22.0470  -32.3450 C   0  0  0  0  0  0  0  0  0  0  0  0
   -6.9060   20.6860  -32.3910 C   0  0  0  0  0  0  0  0  0  0  0  0
   -0.4830   21.4150  -30.7610 C   0  0  0  0  0  0  0  0  0  0  0  0
   -0.1770   20.8280  -29.5310 C   0  0  0  0  0  0  0  0  0  0  0  0
   -5.1924   25.3084  -28.7220 H   0  0  0  0  0  0  0  0  0  0  0  0
   -6.6479   26.1386  -29.3694 H   0  0  0  0  0  0  0  0  0  0  0  0
   -6.5629   24.3444  -29.3694 H   0  0  0  0  0  0  0  0  0  0  0  0
   -5.6639   24.4098  -31.4361 H   0  0  0  0  0  0  0  0  0  0  0  0
   -5.6746   26.2128  -31.3955 H   0  0  0  0  0  0  0  0  0  0  0  0
   -4.4983   22.8560  -30.3122 H   0  0  0  0  0  0  0  0  0  0  0  0
   -2.7437   22.3999  -30.2144 H   0  0  0  0  0  0  0  0  0  0  0  0
   -3.4868   23.4310  -27.6620 H   0  0  0  0  0  0  0  0  0  0  0  0
   -4.7729   22.2555  -28.1853 H   0  0  0  0  0  0  0  0  0  0  0  0
   -3.4557   20.5714  -27.5655 H   0  0  0  0  0  0  0  0  0  0  0  0
   -2.2600   21.1031  -28.8305 H   0  0  0  0  0  0  0  0  0  0  0  0
   -1.1157   22.5180  -27.2276 H   0  0  0  0  0  0  0  0  0  0  0  0
   -2.3384   22.1504  -25.9646 H   0  0  0  0  0  0  0  0  0  0  0  0
   -0.0158   17.6860  -26.5272 H   0  0  0  0  0  0  0  0  0  0  0  0
   -1.1879   17.4710  -27.8888 H   0  0  0  0  0  0  0  0  0  0  0  0
    0.0121   17.5580  -30.5192 H   0  0  0  0  0  0  0  0  0  0  0  0
   -0.5205   18.6058  -32.7139 H   0  0  0  0  0  0  0  0  0  0  0  0
   -0.7056   22.3420  -33.1790 H   0  0  0  0  0  0  0  0  0  0  0  0
   -0.1555   20.8301  -33.9920 H   0  0  0  0  0  0  0  0  0  0  0  0
   -2.4860   21.6630  -34.4510 H   0  0  0  0  0  0  0  0  0  0  0  0
   -2.4445   19.6025  -35.2677 H   0  0  0  0  0  0  0  0  0  0  0  0
   -1.5823   19.0006  -33.7805 H   0  0  0  0  0  0  0  0  0  0  0  0
   -4.1816   18.3766  -34.4567 H   0  0  0  0  0  0  0  0  0  0  0  0
   -3.4815   18.3164  -32.7941 H   0  0  0  0  0  0  0  0  0  0  0  0
   -4.2630   20.9370  -32.9800 H   0  0  0  0  0  0  0  0  0  0  0  0
   -5.6872   17.5421  -33.0512 H   0  0  0  0  0  0  0  0  0  0  0  0
   -7.9971   16.9269  -32.3714 H   0  0  0  0  0  0  0  0  0  0  0  0
   -9.6264   18.6896  -31.7162 H   0  0  0  0  0  0  0  0  0  0  0  0
  -10.1734   21.0301  -31.3637 H   0  0  0  0  0  0  0  0  0  0  0  0
   -9.4984   23.4297  -31.3427 H   0  0  0  0  0  0  0  0  0  0  0  0
   -7.1704   24.0800  -31.9453 H   0  0  0  0  0  0  0  0  0  0  0  0
   -5.5104   22.3437  -32.6060 H   0  0  0  0  0  0  0  0  0  0  0  0
   -0.6330   22.5027  -30.8268 H   0  0  0  0  0  0  0  0  0  0  0  0
   -0.0863   21.4558  -28.6323 H   0  0  0  0  0  0  0  0  0  0  0  0
  1  2  1  0
  2  3  1  0
  3  4  1  0
  4  5  2  0
  4  6  1  0
  6  7  1  0
  7  8  1  0
  8  9  1  0
  9 10  1  0
 10 11  1  0
 11 12  2  0
 11 13  1  0
 13 14  1  0
 14 15  1  0
 15 16  2  0
 16 17  1  0
 17 18  2  0
 18 19  1  0
 19 20  1  0
 20 21  1  0
 21 22  1  0
 22 23  1  0
 23 24  1  0
 24 25  2  0
 25 26  1  0
 26 27  2  0
 27 28  1  0
 28 29  2  0
 29 30  1  0
 30 31  2  0
 31 32  1  0
 32 33  2  0
 18 34  1  0
 34 35  2  0
 35 15  1  0
 33 24  1  0
 33 28  1  0
  1 36  1  0
  1 37  1  0
  1 38  1  0
  2 39  1  0
  2 40  1  0
  6 41  1  0
  6 42  1  0
  7 43  1  0
  7 44  1  0
  8 45  1  0
  8 46  1  0
  9 47  1  0
  9 48  1  0
 13 49  1  0
 13 50  1  0
 16 51  1  0
 17 52  1  0
 19 53  1  0
 19 54  1  0
 20 55  1  0
 21 56  1  0
 21 57  1  0
 22 58  1  0
 22 59  1  0
 23 60  1  0
 25 61  1  0
 26 62  1  0
 27 63  1  0
 29 64  1  0
 30 65  1  0
 31 66  1  0
 32 67  1  0
 34 68  1  0
 35 69  1  0
M  CHG  2   3  -1  10  -1
M  END
>  <UniqueID>  (17) 
17

>  <SMILES>  (17) 
CC[N-]C(=O)CCCC[N-]C(=O)COc1ccc(CNCCNc2cccc3ccccc23)cc1

>  <Energy>  (17) 
64.75310147204203

>  <Genealogy>  (17) 
CC[N-]C(=O)CCCC[N-]C(=O)COc1ccc(CNCCNc2cccc3ccccc23)cc1 (protonated)
CC[N-]C(=O)CCCC[N-]C(=O)COc1ccc(CNCCNc2cccc3ccccc23)cc1 (3D coordinates assigned)
CC[N-]C(=O)CCCC[N-]C(=O)COc1ccc(CNCCNc2cccc3ccccc23)cc1 (optimized conformer: 64.75310147204203 kcal/mol)

>  <smiles>  (17) 
CCNC(=O)CCCCNC(=O)COc1ccc(CNCCNc2cccc3ccccc23)cc1

>  <score_type>  (17) 
oracle

>  <origin>  (17) 
adg

>  <m_score__min__energy>  (17) 
-12.039999999999999

>  <m_primary>  (17) 
energy

$$$$
17:0
     RDKit          3D

 95100  0  0  0  0  0  0  0  0999 V2000
   -8.7580   18.1620  -32.3020 C   0  0  0  0  0  0  0  0  0  0  0  0
   -7.6400   19.1340  -32.2840 N   0  0  0  0  0  0  0  0  0  0  0  0
   -6.3440   18.6980  -32.4870 C   0  0  0  0  0  0  0  0  0  0  0  0
   -6.0020   17.3220  -32.4350 C   0  0  0  0  0  0  0  0  0  0  0  0
   -4.7120   16.8880  -32.7380 C   0  0  0  0  0  0  0  0  0  0  0  0
   -3.7280   17.8080  -33.0790 C   0  0  0  0  0  0  0  0  0  0  0  0
   -4.0180   19.1710  -33.0860 C   0  0  0  0  0  0  0  0  0  0  0  0
   -5.3130   19.6340  -32.7700 C   0  0  0  0  0  0  0  0  0  0  0  0
   -5.6020   21.0100  -32.7460 C   0  0  0  0  0  0  0  0  0  0  0  0
   -4.5820   21.9730  -33.0580 N   0  0  0  0  0  0  0  0  0  0  0  0
   -3.8400   22.6560  -31.9980 C   0  0  0  0  0  0  0  0  0  0  0  0
   -4.4010   22.2720  -30.6270 C   0  0  0  0  0  0  0  0  0  0  0  0
   -3.5120   21.2400  -29.9070 C   0  0  0  0  0  0  0  0  0  0  0  0
   -3.3800   21.5440  -28.4720 N   0  0  0  0  0  0  0  0  0  0  0  0
   -4.0310   22.8080  -28.0790 C   0  0  0  0  0  0  0  0  0  0  0  0
   -3.0670   24.0000  -28.2020 C   0  0  0  0  0  0  0  0  0  0  0  0
   -2.6290   24.5450  -26.8150 C   0  0  0  0  0  0  0  0  0  0  0  0
   -1.1480   24.5910  -26.5510 N   0  0  0  0  0  0  0  0  0  0  0  0
   -0.8070   24.3030  -25.1360 C   0  0  0  0  0  0  0  0  0  0  0  0
   -0.6920   25.9840  -26.8200 C   0  0  0  0  0  0  0  0  0  0  0  0
   -0.3760   23.7030  -27.4830 C   0  0  0  0  0  0  0  0  0  0  0  0
    0.0030   22.3110  -26.9230 C   0  0  0  0  0  0  0  0  0  0  0  0
    0.3520   21.3040  -28.0390 C   0  0  0  0  0  0  0  0  0  0  0  0
   -0.8390   20.7540  -28.7230 N   0  0  0  0  0  0  0  0  0  0  0  0
   -0.4830   19.7250  -29.6950 C   0  0  0  0  0  0  0  0  0  0  0  0
   -0.5520   19.9610  -31.1020 C   0  0  0  0  0  0  0  0  0  0  0  0
   -0.8800   21.2330  -31.6430 C   0  0  0  0  0  0  0  0  0  0  0  0
   -0.9200   21.4490  -33.0180 C   0  0  0  0  0  0  0  0  0  0  0  0
   -0.6230   20.4180  -33.8950 C   0  0  0  0  0  0  0  0  0  0  0  0
   -0.2990   19.1590  -33.4030 C   0  0  0  0  0  0  0  0  0  0  0  0
   -0.2880   18.8920  -32.0070 C   0  0  0  0  0  0  0  0  0  0  0  0
   -0.0100   17.6260  -31.5330 N   0  0  0  0  0  0  0  0  0  0  0  0
   -0.0450   16.4660  -32.4550 C   0  0  0  0  0  0  0  0  0  0  0  0
    0.2690   17.4340  -30.1980 C   0  0  0  0  0  0  0  0  0  0  0  0
    0.8640   16.2290  -29.7390 C   0  0  0  0  0  0  0  0  0  0  0  0
    1.0620   15.9920  -28.3830 C   0  0  0  0  0  0  0  0  0  0  0  0
    0.6800   16.9440  -27.4500 C   0  0  0  0  0  0  0  0  0  0  0  0
    0.1420   18.1570  -27.8690 C   0  0  0  0  0  0  0  0  0  0  0  0
   -0.0300   18.4500  -29.2480 C   0  0  0  0  0  0  0  0  0  0  0  0
   -6.8820   21.4410  -32.3450 C   0  0  0  0  0  0  0  0  0  0  0  0
   -7.1590   22.8120  -32.1620 C   0  0  0  0  0  0  0  0  0  0  0  0
   -8.4120   23.2330  -31.7230 C   0  0  0  0  0  0  0  0  0  0  0  0
   -9.4000   22.2970  -31.4380 C   0  0  0  0  0  0  0  0  0  0  0  0
   -9.1470   20.9370  -31.6060 C   0  0  0  0  0  0  0  0  0  0  0  0
   -7.8950   20.4780  -32.0890 C   0  0  0  0  0  0  0  0  0  0  0  0
   -9.0442   17.9132  -31.2694 H   0  0  0  0  0  0  0  0  0  0  0  0
   -9.6192   18.6034  -32.8250 H   0  0  0  0  0  0  0  0  0  0  0  0
   -8.4407   17.2478  -32.8250 H   0  0  0  0  0  0  0  0  0  0  0  0
   -6.7676   16.5850  -32.1508 H   0  0  0  0  0  0  0  0  0  0  0  0
   -4.4727   15.8148  -32.7070 H   0  0  0  0  0  0  0  0  0  0  0  0
   -2.7187   17.4599  -33.3438 H   0  0  0  0  0  0  0  0  0  0  0  0
   -3.2289   19.8938  -33.3406 H   0  0  0  0  0  0  0  0  0  0  0  0
   -4.5220   22.3520  -34.0300 H   0  0  0  0  0  0  0  0  0  0  0  0
   -2.7804   22.3654  -32.0512 H   0  0  0  0  0  0  0  0  0  0  0  0
   -3.9391   23.7430  -32.1342 H   0  0  0  0  0  0  0  0  0  0  0  0
   -4.4693   23.1769  -30.0053 H   0  0  0  0  0  0  0  0  0  0  0  0
   -5.3913   21.8185  -30.7805 H   0  0  0  0  0  0  0  0  0  0  0  0
   -3.9603   20.2419  -30.0205 H   0  0  0  0  0  0  0  0  0  0  0  0
   -2.5099   21.2748  -30.3592 H   0  0  0  0  0  0  0  0  0  0  0  0
   -3.8530   20.7690  -27.9500 H   0  0  0  0  0  0  0  0  0  0  0  0
   -4.8990   22.9813  -28.7322 H   0  0  0  0  0  0  0  0  0  0  0  0
   -4.3431   22.7234  -27.0276 H   0  0  0  0  0  0  0  0  0  0  0  0
   -2.1724   23.6767  -28.7543 H   0  0  0  0  0  0  0  0  0  0  0  0
   -3.5939   24.8075  -28.7314 H   0  0  0  0  0  0  0  0  0  0  0  0
   -3.0178   25.5696  -26.7201 H   0  0  0  0  0  0  0  0  0  0  0  0
   -3.0347   23.8338  -26.0804 H   0  0  0  0  0  0  0  0  0  0  0  0
   -1.4783   24.8700  -24.4743 H   0  0  0  0  0  0  0  0  0  0  0  0
   -0.9244   23.2266  -24.9423 H   0  0  0  0  0  0  0  0  0  0  0  0
    0.2346   24.5989  -24.9423 H   0  0  0  0  0  0  0  0  0  0  0  0
   -0.5216   26.5047  -25.8661 H   0  0  0  0  0  0  0  0  0  0  0  0
    0.2447   25.9584  -27.3962 H   0  0  0  0  0  0  0  0  0  0  0  0
   -1.4625   26.5172  -27.3962 H   0  0  0  0  0  0  0  0  0  0  0  0
   -0.9852   23.5497  -28.3860 H   0  0  0  0  0  0  0  0  0  0  0  0
    0.5764   24.2205  -27.6703 H   0  0  0  0  0  0  0  0  0  0  0  0
    0.8749   22.4216  -26.2615 H   0  0  0  0  0  0  0  0  0  0  0  0
   -0.8687   21.9196  -26.3782 H   0  0  0  0  0  0  0  0  0  0  0  0
    0.9794   21.8132  -28.7853 H   0  0  0  0  0  0  0  0  0  0  0  0
    0.8748   20.4601  -27.5652 H   0  0  0  0  0  0  0  0  0  0  0  0
   -1.3460   21.5290  -29.2030 H   0  0  0  0  0  0  0  0  0  0  0  0
   -1.5500   20.4500  -28.0310 H   0  0  0  0  0  0  0  0  0  0  0  0
   -1.1073   22.0654  -30.9608 H   0  0  0  0  0  0  0  0  0  0  0  0
   -1.1883   22.4414  -33.4094 H   0  0  0  0  0  0  0  0  0  0  0  0
   -0.6436   20.5959  -34.9803 H   0  0  0  0  0  0  0  0  0  0  0  0
   -0.0461   18.3534  -34.1080 H   0  0  0  0  0  0  0  0  0  0  0  0
   -0.0731   15.5342  -31.8711 H   0  0  0  0  0  0  0  0  0  0  0  0
   -0.9417   16.5285  -33.0891 H   0  0  0  0  0  0  0  0  0  0  0  0
    0.8538   16.4744  -33.0891 H   0  0  0  0  0  0  0  0  0  0  0  0
    1.1743   15.4682  -30.4703 H   0  0  0  0  0  0  0  0  0  0  0  0
    1.5216   15.0495  -28.0507 H   0  0  0  0  0  0  0  0  0  0  0  0
    0.8025   16.7399  -26.3761 H   0  0  0  0  0  0  0  0  0  0  0  0
   -0.1558   18.9033  -27.1177 H   0  0  0  0  0  0  0  0  0  0  0  0
   -6.3765   23.5571  -32.3683 H   0  0  0  0  0  0  0  0  0  0  0  0
   -8.6200   24.3063  -31.6017 H   0  0  0  0  0  0  0  0  0  0  0  0
  -10.3845   22.6312  -31.0788 H   0  0  0  0  0  0  0  0  0  0  0  0
   -9.9319   20.2068  -31.3597 H   0  0  0  0  0  0  0  0  0  0  0  0
  1  2  1  0
  2  3  2  0
  3  4  1  0
  4  5  2  0
  5  6  1  0
  6  7  2  0
  7  8  1  0
  8  9  2  0
  9 10  1  0
 10 11  1  0
 11 12  1  0
 12 13  1  0
 13 14  1  0
 14 15  1  0
 15 16  1  0
 16 17  1  0
 17 18  1  0
 18 19  1  0
 18 20  1  0
 18 21  1  0
 21 22  1  0
 22 23  1  0
 23 24  1  0
 24 25  1  0
 25 26  1  0
 26 27  2  0
 27 28  1  0
 28 29  2  0
 29 30  1  0
 30 31  2  0
 31 32  1  0
 32 33  1  0
 32 34  2  0
 34 35  1  0
 35 36  2  0
 36 37  1  0
 37 38  2  0
 38 39  1  0
  9 40  1  0
 40 41  2  0
 41 42  1  0
 42 43  2  0
 43 44  1  0
 44 45  2  0
 45  2  1  0
  8  3  1  0
 39 25  2  0
 45 40  1  0
 31 26  1  0
 39 34  1  0
  1 46  1  0
  1 47  1  0
  1 48  1  0
  4 49  1  0
  5 50  1  0
  6 51  1  0
  7 52  1  0
 10 53  1  0
 11 54  1  0
 11 55  1  0
 12 56  1  0
 12 57  1  0
 13 58  1  0
 13 59  1  0
 14 60  1  0
 15 61  1  0
 15 62  1  0
 16 63  1  0
 16 64  1  0
 17 65  1  0
 17 66  1  0
 19 67  1  0
 19 68  1  0
 19 69  1  0
 20 70  1  0
 20 71  1  0
 20 72  1  0
 21 73  1  0
 21 74  1  0
 22 75  1  0
 22 76  1  0
 23 77  1  0
 23 78  1  0
 24 79  1  0
 24 80  1  0
 27 81  1  0
 28 82  1  0
 29 83  1  0
 30 84  1  0
 33 85  1  0
 33 86  1  0
 33 87  1  0
 35 88  1  0
 36 89  1  0
 37 90  1  0
 38 91  1  0
 41 92  1  0
 42 93  1  0
 43 94  1  0
 44 95  1  0
M  CHG  4   2   1  18   1  24   1  32   1
M  END
>  <UniqueID>  (18) 
18

>  <SMILES>  (18) 
C[n+]1c2ccccc2c(NCCCNCCC[N+](C)(C)CCC[NH2+]c2c3ccccc3[n+](C)c3ccccc23)c2ccccc21

>  <Energy>  (18) 
161.763481717857

>  <Genealogy>  (18) 
C[n+]1c2ccccc2c(NCCCNCCC[N+](C)(C)CCC[NH2+]c2c3ccccc3[n+](C)c3ccccc23)c2ccccc21 (protonated)
C[n+]1c2ccccc2c(NCCCNCCC[N+](C)(C)CCC[NH2+]c2c3ccccc3[n+](C)c3ccccc23)c2ccccc21 (3D coordinates assigned)
C[n+]1c2ccccc2c(NCCCNCCC[N+](C)(C)CCC[NH2+]c2c3ccccc3[n+](C)c3ccccc23)c2ccccc21 (optimized conformer: 161.763481717857 kcal/mol)

>  <smiles>  (18) 
C[n+]1c2ccccc2c(NCCCNCCC[N+](C)(C)CCCNc2c3ccccc3[n+](C)c3ccccc23)c2ccccc21

>  <score_type>  (18) 
oracle

>  <origin>  (18) 
adg

>  <m_score__min__energy>  (18) 
-8.7300000000000004

>  <m_primary>  (18) 
energy

$$$$
18:0
     RDKit          3D

 30 31  0  0  0  0  0  0  0  0999 V2000
   -0.8740   28.6130  -25.5690 C   0  0  0  0  0  0  0  0  0  0  0  0
   -0.5290   27.4090  -24.8200 N   0  0  0  0  0  0  0  0  0  0  0  0
    0.3900   27.3000  -23.8460 C   0  0  0  0  0  0  0  0  0  0  0  0
    0.4070   26.0470  -23.3580 N   0  0  0  0  0  0  0  0  0  0  0  0
   -0.5090   25.3360  -23.9990 N   0  0  0  0  0  0  0  0  0  0  0  0
   -1.0810   26.1780  -24.8800 C   0  0  0  0  0  0  0  0  0  0  0  0
   -2.3950   25.6910  -26.0030 S   0  0  0  0  0  0  0  0  0  0  0  0
   -1.3370   25.6370  -27.4960 C   0  0  0  0  0  0  0  0  0  0  0  0
   -1.8160   24.5970  -28.5050 C   0  0  0  0  0  0  0  0  0  0  0  0
   -2.7320   25.1930  -29.4220 O   0  0  0  0  0  0  0  0  0  0  0  0
   -3.8710   24.5550  -29.9320 C   0  0  0  0  0  0  0  0  0  0  0  0
   -3.8760   23.1930  -30.2910 C   0  0  0  0  0  0  0  0  0  0  0  0
   -5.0430   22.6010  -30.7880 C   0  0  0  0  0  0  0  0  0  0  0  0
   -6.2080   23.3600  -30.9320 C   0  0  0  0  0  0  0  0  0  0  0  0
   -7.8000   22.5510  -31.6090 Br  0  0  0  0  0  0  0  0  0  0  0  0
   -6.2060   24.7140  -30.5790 C   0  0  0  0  0  0  0  0  0  0  0  0
   -5.0420   25.3060  -30.0810 C   0  0  0  0  0  0  0  0  0  0  0  0
   -1.1073   29.4272  -24.8671 H   0  0  0  0  0  0  0  0  0  0  0  0
   -0.0240   28.9071  -26.2022 H   0  0  0  0  0  0  0  0  0  0  0  0
   -1.7508   28.4123  -26.2022 H   0  0  0  0  0  0  0  0  0  0  0  0
    1.0364   28.1190  -23.4974 H   0  0  0  0  0  0  0  0  0  0  0  0
    1.0240   25.6790  -22.6010 H   0  0  0  0  0  0  0  0  0  0  0  0
   -1.3495   26.6272  -27.9749 H   0  0  0  0  0  0  0  0  0  0  0  0
   -0.3211   25.3578  -27.1799 H   0  0  0  0  0  0  0  0  0  0  0  0
   -0.9517   24.2014  -29.0586 H   0  0  0  0  0  0  0  0  0  0  0  0
   -2.3214   23.7799  -27.9693 H   0  0  0  0  0  0  0  0  0  0  0  0
   -2.9606   22.5931  -30.1805 H   0  0  0  0  0  0  0  0  0  0  0  0
   -5.0433   21.5366  -31.0657 H   0  0  0  0  0  0  0  0  0  0  0  0
   -7.1214   25.3131  -30.6936 H   0  0  0  0  0  0  0  0  0  0  0  0
   -5.0466   26.3706  -29.8041 H   0  0  0  0  0  0  0  0  0  0  0  0
  1  2  1  0
  2  3  1  0
  3  4  2  0
  4  5  1  0
  5  6  2  0
  6  7  1  0
  7  8  1  0
  8  9  1  0
  9 10  1  0
 10 11  1  0
 11 12  2  0
 12 13  1  0
 13 14  2  0
 14 15  1  0
 14 16  1  0
 16 17  2  0
  6  2  1  0
 17 11  1  0
  1 18  1  0
  1 19  1  0
  1 20  1  0
  3 21  1  0
  4 22  1  0
  8 23  1  0
  8 24  1  0
  9 25  1  0
  9 26  1  0
 12 27  1  0
 13 28  1  0
 16 29  1  0
 17 30  1  0
M  CHG  1   4   1
M  END
>  <UniqueID>  (19) 
19

>  <SMILES>  (19) 
Cn1c[nH+]nc1SCCOc1ccc(Br)cc1

>  <Energy>  (19) 
57.52461706268853

>  <Genealogy>  (19) 
Cn1c[nH+]nc1SCCOc1ccc(Br)cc1 (protonated)
Cn1c[nH+]nc1SCCOc1ccc(Br)cc1 (3D coordinates assigned)
Cn1c[nH+]nc1SCCOc1ccc(Br)cc1 (optimized conformer: 57.52461706268853 kcal/mol)

>  <smiles>  (19) 
Cn1cnnc1SCCOc1ccc(Br)cc1

>  <score_type>  (19) 
oracle

>  <origin>  (19) 
adg

>  <m_score__min__energy>  (19) 
-7.3300000000000001

>  <m_primary>  (19) 
energy

$$$$
19:0
     RDKit          3D

 63 65  0  0  0  0  0  0  0  0999 V2000
   -1.8640   27.5440  -38.7280 C   0  0  0  0  0  0  0  0  0  0  0  0
   -1.2630   27.0110  -37.4280 C   0  0  0  0  0  0  0  0  0  0  0  0
   -0.0100   26.2730  -37.6510 N   0  0  0  0  0  0  0  0  0  0  0  0
    1.0520   26.6690  -36.7150 C   0  0  0  0  0  0  0  0  0  0  0  0
    2.2140   25.6730  -36.7920 C   0  0  0  0  0  0  0  0  0  0  0  0
    1.7590   24.3880  -37.1690 O   0  0  0  0  0  0  0  0  0  0  0  0
    1.6610   23.5160  -36.0550 C   0  0  0  0  0  0  0  0  0  0  0  0
    0.2920   22.8410  -36.0830 C   0  0  0  0  0  0  0  0  0  0  0  0
    0.2760   21.5620  -35.2470 C   0  0  0  0  0  0  0  0  0  0  0  0
   -0.2090   21.8680  -33.9560 O   0  0  0  0  0  0  0  0  0  0  0  0
    0.0270   20.8010  -33.0630 C   0  0  0  0  0  0  0  0  0  0  0  0
   -1.3000   20.1540  -32.6600 C   0  0  0  0  0  0  0  0  0  0  0  0
   -2.3830   21.1910  -32.3600 C   0  0  0  0  0  0  0  0  0  0  0  0
   -3.4320   21.1620  -33.3790 N   0  0  0  0  0  0  0  0  0  0  0  0
   -4.7600   20.6840  -33.1010 C   0  0  0  0  0  0  0  0  0  0  0  0
   -5.1340   19.3710  -33.4450 C   0  0  0  0  0  0  0  0  0  0  0  0
   -4.2570   18.5320  -34.1680 C   0  0  0  0  0  0  0  0  0  0  0  0
   -4.6500   17.2500  -34.5480 C   0  0  0  0  0  0  0  0  0  0  0  0
   -5.9230   16.7910  -34.2370 C   0  0  0  0  0  0  0  0  0  0  0  0
   -6.8090   17.6040  -33.5330 C   0  0  0  0  0  0  0  0  0  0  0  0
   -6.4310   18.9010  -33.1040 C   0  0  0  0  0  0  0  0  0  0  0  0
   -7.3000   19.7120  -32.4000 N   0  0  0  0  0  0  0  0  0  0  0  0
   -8.5220   19.1390  -31.7960 C   0  0  0  0  0  0  0  0  0  0  0  0
   -7.0190   21.0570  -32.2490 C   0  0  0  0  0  0  0  0  0  0  0  0
   -7.9980   21.9760  -31.7910 C   0  0  0  0  0  0  0  0  0  0  0  0
   -7.6850   23.3180  -31.5890 C   0  0  0  0  0  0  0  0  0  0  0  0
   -6.4030   23.7850  -31.8460 C   0  0  0  0  0  0  0  0  0  0  0  0
   -5.4320   22.9180  -32.3390 C   0  0  0  0  0  0  0  0  0  0  0  0
   -5.7280   21.5560  -32.5680 C   0  0  0  0  0  0  0  0  0  0  0  0
   -2.6683   28.2573  -38.4948 H   0  0  0  0  0  0  0  0  0  0  0  0
   -1.0822   28.0512  -39.3125 H   0  0  0  0  0  0  0  0  0  0  0  0
   -2.2741   26.7072  -39.3125 H   0  0  0  0  0  0  0  0  0  0  0  0
   -1.0588   27.8600  -36.7590 H   0  0  0  0  0  0  0  0  0  0  0  0
   -1.9887   26.3137  -36.9840 H   0  0  0  0  0  0  0  0  0  0  0  0
   -0.1850   25.2460  -37.5590 H   0  0  0  0  0  0  0  0  0  0  0  0
    1.4146   27.6734  -36.9788 H   0  0  0  0  0  0  0  0  0  0  0  0
    0.6485   26.6759  -35.6917 H   0  0  0  0  0  0  0  0  0  0  0  0
    2.9431   26.0283  -37.5351 H   0  0  0  0  0  0  0  0  0  0  0  0
    2.6791   25.6012  -35.7978 H   0  0  0  0  0  0  0  0  0  0  0  0
    2.4514   22.7531  -36.1111 H   0  0  0  0  0  0  0  0  0  0  0  0
    1.7801   24.0849  -35.1211 H   0  0  0  0  0  0  0  0  0  0  0  0
   -0.4579   23.5387  -35.6818 H   0  0  0  0  0  0  0  0  0  0  0  0
    0.0628   22.5728  -37.1249 H   0  0  0  0  0  0  0  0  0  0  0  0
   -0.3806   20.8181  -35.7219 H   0  0  0  0  0  0  0  0  0  0  0  0
    1.2931   21.1492  -35.1760 H   0  0  0  0  0  0  0  0  0  0  0  0
    0.6647   20.0502  -33.5526 H   0  0  0  0  0  0  0  0  0  0  0  0
    0.5291   21.1867  -32.1635 H   0  0  0  0  0  0  0  0  0  0  0  0
   -1.6444   19.5107  -33.4831 H   0  0  0  0  0  0  0  0  0  0  0  0
   -1.1264   19.5731  -31.7422 H   0  0  0  0  0  0  0  0  0  0  0  0
   -2.8287   20.9723  -31.3784 H   0  0  0  0  0  0  0  0  0  0  0  0
   -1.9219   22.1897  -32.3595 H   0  0  0  0  0  0  0  0  0  0  0  0
   -3.2410   21.6150  -34.3010 H   0  0  0  0  0  0  0  0  0  0  0  0
   -3.2531   18.8945  -34.4339 H   0  0  0  0  0  0  0  0  0  0  0  0
   -3.9506   16.6008  -35.0951 H   0  0  0  0  0  0  0  0  0  0  0  0
   -6.2331   15.7823  -34.5474 H   0  0  0  0  0  0  0  0  0  0  0  0
   -7.8193   17.2328  -33.3062 H   0  0  0  0  0  0  0  0  0  0  0  0
   -8.4415   19.1768  -30.6996 H   0  0  0  0  0  0  0  0  0  0  0  0
   -9.3981   19.7202  -32.1195 H   0  0  0  0  0  0  0  0  0  0  0  0
   -8.6355   18.0938  -32.1195 H   0  0  0  0  0  0  0  0  0  0  0  0
   -9.0207   21.6230  -31.5922 H   0  0  0  0  0  0  0  0  0  0  0  0
   -8.4572   24.0112  -31.2241 H   0  0  0  0  0  0  0  0  0  0  0  0
   -6.1546   24.8403  -31.6600 H   0  0  0  0  0  0  0  0  0  0  0  0
   -4.4221   23.2981  -32.5528 H   0  0  0  0  0  0  0  0  0  0  0  0
  1  2  1  0
  2  3  1  0
  3  4  1  0
  4  5  1  0
  5  6  1  0
  6  7  1  0
  7  8  1  0
  8  9  1  0
  9 10  1  0
 10 11  1  0
 11 12  1  0
 12 13  1  0
 13 14  1  0
 14 15  1  0
 15 16  2  0
 16 17  1  0
 17 18  2  0
 18 19  1  0
 19 20  2  0
 20 21  1  0
 21 22  2  0
 22 23  1  0
 22 24  1  0
 24 25  2  0
 25 26  1  0
 26 27  2  0
 27 28  1  0
 28 29  2  0
 29 15  1  0
 21 16  1  0
 29 24  1  0
  1 30  1  0
  1 31  1  0
  1 32  1  0
  2 33  1  0
  2 34  1  0
  3 35  1  0
  4 36  1  0
  4 37  1  0
  5 38  1  0
  5 39  1  0
  7 40  1  0
  7 41  1  0
  8 42  1  0
  8 43  1  0
  9 44  1  0
  9 45  1  0
 11 46  1  0
 11 47  1  0
 12 48  1  0
 12 49  1  0
 13 50  1  0
 13 51  1  0
 14 52  1  0
 17 53  1  0
 18 54  1  0
 19 55  1  0
 20 56  1  0
 23 57  1  0
 23 58  1  0
 23 59  1  0
 25 60  1  0
 26 61  1  0
 27 62  1  0
 28 63  1  0
M  CHG  1  22   1
M  END
>  <UniqueID>  (20) 
20

>  <SMILES>  (20) 
CCNCCOCCCOCCCNc1c2ccccc2[n+](C)c2ccccc12

>  <Energy>  (20) 
85.83052894111295

>  <Genealogy>  (20) 
CCNCCOCCCOCCCNc1c2ccccc2[n+](C)c2ccccc12 (3D coordinates assigned)
CCNCCOCCCOCCCNc1c2ccccc2[n+](C)c2ccccc12 (optimized conformer: 85.83052894111295 kcal/mol)

>  <smiles>  (20) 
CCNCCOCCCOCCCNc1c2ccccc2[n+](C)c2ccccc12

>  <score_type>  (20) 
oracle

>  <origin>  (20) 
adg

>  <m_score__min__energy>  (20) 
-9.5800000000000001

>  <m_primary>  (20) 
energy

$$$$
20:0
     RDKit          3D

 51 52  0  0  0  0  0  0  0  0999 V2000
   -6.1530   23.6300  -30.8660 C   0  0  0  0  0  0  0  0  0  0  0  0
   -5.7470   23.6000  -32.3350 C   0  0  0  0  0  0  0  0  0  0  0  0
   -5.2460   22.2690  -32.6980 N   0  0  0  0  0  0  0  0  0  0  0  0
   -4.5350   21.6660  -31.5640 C   0  0  0  0  0  0  0  0  0  0  0  0
   -3.1130   22.2340  -31.4440 C   0  0  0  0  0  0  0  0  0  0  0  0
   -2.1250   21.5470  -32.3950 C   0  0  0  0  0  0  0  0  0  0  0  0
   -2.8330   21.0270  -33.5740 N   0  0  0  0  0  0  0  0  0  0  0  0
   -1.9910   20.1200  -34.3640 C   0  0  0  0  0  0  0  0  0  0  0  0
   -2.2230   18.6750  -33.9150 C   0  0  0  0  0  0  0  0  0  0  0  0
   -3.3920   18.0940  -34.5770 N   0  0  0  0  0  0  0  0  0  0  0  0
   -4.7150   18.1380  -34.0110 C   0  0  0  0  0  0  0  0  0  0  0  0
   -5.4100   16.9510  -33.6520 C   0  0  0  0  0  0  0  0  0  0  0  0
   -6.6960   17.0370  -33.1000 C   0  0  0  0  0  0  0  0  0  0  0  0
   -7.2410   18.2650  -32.9280 N   0  0  0  0  0  0  0  0  0  0  0  0
   -8.4350   18.6180  -32.4210 C   0  0  0  0  0  0  0  0  0  0  0  0
   -8.4990   20.0040  -32.4620 C   0  0  0  0  0  0  0  0  0  0  0  0
   -9.6300   20.8520  -31.9540 C   0  0  0  0  0  0  0  0  0  0  0  0
   -9.1510   22.1030  -31.3450 N   0  0  0  0  0  0  0  0  0  0  0  0
   -9.1930   23.2190  -32.2940 C   0  0  0  0  0  0  0  0  0  0  0  0
   -7.3510   20.4970  -32.9820 N   0  0  0  0  0  0  0  0  0  0  0  0
   -6.6120   19.4060  -33.2550 C   0  0  0  0  0  0  0  0  0  0  0  0
   -5.3330   19.3880  -33.8050 C   0  0  0  0  0  0  0  0  0  0  0  0
   -5.2540   23.5636  -30.2357 H   0  0  0  0  0  0  0  0  0  0  0  0
   -6.6828   24.5697  -30.6511 H   0  0  0  0  0  0  0  0  0  0  0  0
   -6.8152   22.7783  -30.6511 H   0  0  0  0  0  0  0  0  0  0  0  0
   -6.6209   23.8411  -32.9580 H   0  0  0  0  0  0  0  0  0  0  0  0
   -4.9501   24.3398  -32.5011 H   0  0  0  0  0  0  0  0  0  0  0  0
   -4.5590   22.3830  -33.4800 H   0  0  0  0  0  0  0  0  0  0  0  0
   -5.0877   21.8801  -30.6374 H   0  0  0  0  0  0  0  0  0  0  0  0
   -4.4671   20.5805  -31.7288 H   0  0  0  0  0  0  0  0  0  0  0  0
   -3.1409   23.3081  -31.6797 H   0  0  0  0  0  0  0  0  0  0  0  0
   -2.7668   22.0550  -30.4153 H   0  0  0  0  0  0  0  0  0  0  0  0
   -1.3663   22.2748  -32.7185 H   0  0  0  0  0  0  0  0  0  0  0  0
   -1.6425   20.7105  -31.8683 H   0  0  0  0  0  0  0  0  0  0  0  0
   -3.0970   21.8430  -34.1770 H   0  0  0  0  0  0  0  0  0  0  0  0
   -2.2484   20.2174  -35.4290 H   0  0  0  0  0  0  0  0  0  0  0  0
   -0.9334   20.3821  -34.2131 H   0  0  0  0  0  0  0  0  0  0  0  0
   -1.3351   18.0753  -34.1642 H   0  0  0  0  0  0  0  0  0  0  0  0
   -2.4017   18.6729  -32.8296 H   0  0  0  0  0  0  0  0  0  0  0  0
   -3.2680   17.6300  -35.5060 H   0  0  0  0  0  0  0  0  0  0  0  0
   -4.9405   15.9684  -33.8068 H   0  0  0  0  0  0  0  0  0  0  0  0
   -7.2485   16.1299  -32.8138 H   0  0  0  0  0  0  0  0  0  0  0  0
   -9.2134   17.9377  -32.0451 H   0  0  0  0  0  0  0  0  0  0  0  0
  -10.2947   21.0983  -32.7951 H   0  0  0  0  0  0  0  0  0  0  0  0
  -10.1626   20.2797  -31.1802 H   0  0  0  0  0  0  0  0  0  0  0  0
   -9.7500   22.3420  -30.5200 H   0  0  0  0  0  0  0  0  0  0  0  0
   -9.2288   24.1693  -31.7411 H   0  0  0  0  0  0  0  0  0  0  0  0
   -8.2934   23.1965  -32.9266 H   0  0  0  0  0  0  0  0  0  0  0  0
  -10.0884   23.1289  -32.9266 H   0  0  0  0  0  0  0  0  0  0  0  0
   -7.0930   21.4990  -33.1280 H   0  0  0  0  0  0  0  0  0  0  0  0
   -4.8191   20.3234  -34.0714 H   0  0  0  0  0  0  0  0  0  0  0  0
  1  2  1  0
  2  3  1  0
  3  4  1  0
  4  5  1  0
  5  6  1  0
  6  7  1  0
  7  8  1  0
  8  9  1  0
  9 10  1  0
 10 11  1  0
 11 12  1  0
 12 13  2  0
 13 14  1  0
 14 15  1  0
 15 16  2  0
 16 17  1  0
 17 18  1  0
 18 19  1  0
 16 20  1  0
 20 21  2  0
 21 22  1  0
 22 11  2  0
 21 14  1  0
  1 23  1  0
  1 24  1  0
  1 25  1  0
  2 26  1  0
  2 27  1  0
  3 28  1  0
  4 29  1  0
  4 30  1  0
  5 31  1  0
  5 32  1  0
  6 33  1  0
  6 34  1  0
  7 35  1  0
  8 36  1  0
  8 37  1  0
  9 38  1  0
  9 39  1  0
 10 40  1  0
 12 41  1  0
 13 42  1  0
 15 43  1  0
 17 44  1  0
 17 45  1  0
 18 46  1  0
 19 47  1  0
 19 48  1  0
 19 49  1  0
 20 50  1  0
 22 51  1  0
M  CHG  1  20   1
M  END
>  <UniqueID>  (21) 
21

>  <SMILES>  (21) 
CCNCCCNCCNc1ccn2cc(CNC)[nH+]c2c1

>  <Energy>  (21) 
71.98586426823522

>  <Genealogy>  (21) 
CCNCCCNCCNc1ccn2cc(CNC)[nH+]c2c1 (protonated)
CCNCCCNCCNc1ccn2cc(CNC)[nH+]c2c1 (3D coordinates assigned)
CCNCCCNCCNc1ccn2cc(CNC)[nH+]c2c1 (optimized conformer: 71.98586426823522 kcal/mol)

>  <smiles>  (21) 
CCNCCCNCCNc1ccn2cc(CNC)nc2c1

>  <score_type>  (21) 
oracle

>  <origin>  (21) 
adg

>  <m_score__min__energy>  (21) 
-7.0899999999999999

>  <m_primary>  (21) 
energy

$$$$
21:0
     RDKit          3D

 50 52  0  0  0  0  0  0  0  0999 V2000
   -6.1400   14.4770  -34.2050 C   0  0  0  0  0  0  0  0  0  0  0  0
   -6.8690   15.8260  -34.0170 C   0  0  0  0  0  0  0  0  0  0  0  0
   -6.1040   16.9120  -33.3090 N   0  0  2  0  0  0  0  0  0  0  0  0
   -6.9120   17.4220  -32.1410 C   0  0  0  0  0  0  0  0  0  0  0  0
   -7.9080   18.5200  -32.5270 C   0  0  0  0  0  0  0  0  0  0  0  0
   -7.1210   19.6720  -33.0560 C   0  0  0  0  0  0  0  0  0  0  0  0
   -6.0770   19.4230  -33.8460 C   0  0  0  0  0  0  0  0  0  0  0  0
   -5.8200   18.0080  -34.3410 C   0  0  1  0  0  0  0  0  0  0  0  0
   -4.4210   17.9000  -35.0300 C   0  0  0  0  0  0  0  0  0  0  0  0
   -3.2790   17.6860  -34.0960 N   0  0  1  0  0  0  0  0  0  0  0  0
   -2.2210   18.7270  -34.1520 C   0  0  0  0  0  0  0  0  0  0  0  0
   -2.6950   20.1680  -33.8740 C   0  0  0  0  0  0  0  0  0  0  0  0
   -2.9470   20.3510  -32.4430 N   0  0  0  0  0  0  0  0  0  0  0  0
   -3.5950   21.4990  -31.8620 C   0  0  0  0  0  0  0  0  0  0  0  0
   -4.7380   22.0260  -32.4860 C   0  0  0  0  0  0  0  0  0  0  0  0
   -5.3890   23.1430  -31.9530 C   0  0  0  0  0  0  0  0  0  0  0  0
   -4.9040   23.7500  -30.7920 C   0  0  0  0  0  0  0  0  0  0  0  0
   -5.7950   25.2740  -30.0650 Br  0  0  0  0  0  0  0  0  0  0  0  0
   -3.7630   23.2410  -30.1660 C   0  0  0  0  0  0  0  0  0  0  0  0
   -3.1080   22.1250  -30.6960 C   0  0  0  0  0  0  0  0  0  0  0  0
   -3.6990   17.3670  -32.7190 C   0  0  0  0  0  0  0  0  0  0  0  0
   -4.8290   16.3340  -32.7660 C   0  0  0  0  0  0  0  0  0  0  0  0
   -5.9070   14.0458  -33.2202 H   0  0  0  0  0  0  0  0  0  0  0  0
   -6.7871   13.7853  -34.7643 H   0  0  0  0  0  0  0  0  0  0  0  0
   -5.2068   14.6393  -34.7643 H   0  0  0  0  0  0  0  0  0  0  0  0
   -7.1368   16.2027  -35.0152 H   0  0  0  0  0  0  0  0  0  0  0  0
   -7.7273   15.6038  -33.3659 H   0  0  0  0  0  0  0  0  0  0  0  0
   -7.4715   16.5792  -31.7089 H   0  0  0  0  0  0  0  0  0  0  0  0
   -6.2046   17.8616  -31.4225 H   0  0  0  0  0  0  0  0  0  0  0  0
   -8.5961   18.1482  -33.3005 H   0  0  0  0  0  0  0  0  0  0  0  0
   -8.5053   18.8258  -31.6554 H   0  0  0  0  0  0  0  0  0  0  0  0
   -7.3968   20.7054  -32.7992 H   0  0  0  0  0  0  0  0  0  0  0  0
   -5.4017   20.2401  -34.1398 H   0  0  0  0  0  0  0  0  0  0  0  0
   -6.5720   17.8051  -35.1177 H   0  0  0  0  0  0  0  0  0  0  0  0
   -4.4505   17.0551  -35.7337 H   0  0  0  0  0  0  0  0  0  0  0  0
   -4.2422   18.8679  -35.5211 H   0  0  0  0  0  0  0  0  0  0  0  0
   -2.7920   16.8190  -34.4360 H   0  0  0  0  0  0  0  0  0  0  0  0
   -1.4543   18.4721  -33.4056 H   0  0  0  0  0  0  0  0  0  0  0  0
   -1.8485   18.7250  -35.1870 H   0  0  0  0  0  0  0  0  0  0  0  0
   -1.9178   20.8752  -34.1993 H   0  0  0  0  0  0  0  0  0  0  0  0
   -3.6268   20.3523  -34.4287 H   0  0  0  0  0  0  0  0  0  0  0  0
   -2.6250   19.5870  -31.8050 H   0  0  0  0  0  0  0  0  0  0  0  0
   -5.1244   21.5557  -33.4022 H   0  0  0  0  0  0  0  0  0  0  0  0
   -6.2849   23.5446  -32.4490 H   0  0  0  0  0  0  0  0  0  0  0  0
   -3.3788   23.7198  -29.2533 H   0  0  0  0  0  0  0  0  0  0  0  0
   -2.2075   21.7331  -30.2005 H   0  0  0  0  0  0  0  0  0  0  0  0
   -2.8461   16.9547  -32.1600 H   0  0  0  0  0  0  0  0  0  0  0  0
   -4.0527   18.2805  -32.2185 H   0  0  0  0  0  0  0  0  0  0  0  0
   -4.5175   15.4973  -33.4086 H   0  0  0  0  0  0  0  0  0  0  0  0
   -5.0222   15.9980  -31.7366 H   0  0  0  0  0  0  0  0  0  0  0  0
  1  2  1  0
  3  2  1  6
  3  4  1  0
  4  5  1  0
  5  6  1  0
  6  7  2  0
  7  8  1  0
  8  9  1  0
  9 10  1  0
 10 11  1  0
 11 12  1  0
 12 13  1  0
 13 14  1  0
 14 15  2  0
 15 16  1  0
 16 17  2  0
 17 18  1  0
 17 19  1  0
 19 20  2  0
 10 21  1  0
 21 22  1  0
  8  3  1  0
 20 14  1  0
 22  3  1  0
  1 23  1  0
  1 24  1  0
  1 25  1  0
  2 26  1  0
  2 27  1  0
  4 28  1  0
  4 29  1  0
  5 30  1  0
  5 31  1  0
  6 32  1  0
  7 33  1  0
  8 34  1  6
  9 35  1  0
  9 36  1  0
 10 37  1  6
 11 38  1  0
 11 39  1  0
 12 40  1  0
 12 41  1  0
 13 42  1  0
 15 43  1  0
 16 44  1  0
 19 45  1  0
 20 46  1  0
 21 47  1  0
 21 48  1  0
 22 49  1  0
 22 50  1  0
M  CHG  2   3   1  10   1
M  END
>  <UniqueID>  (22) 
22

>  <SMILES>  (22) 
CC[N@+]12CCC=C[C@H]1C[NH+](CCNc1ccc(Br)cc1)CC2

>  <Energy>  (22) 
87.5845020274381

>  <Genealogy>  (22) 
CC[N+]12CCC=CC1C[NH+](CCNc1ccc(Br)cc1)CC2 (protonated)
CC[N@+]12CCC=C[C@H]1C[NH+](CCNc1ccc(Br)cc1)CC2 (chirality)
CC[N@+]12CCC=C[C@H]1C[NH+](CCNc1ccc(Br)cc1)CC2 (3D coordinates assigned)
CC[N@+]12CCC=C[C@H]1C[NH+](CCNc1ccc(Br)cc1)CC2 (nonaromatic ring conformer: 87.5845020274381 kcal/mol)

>  <smiles>  (22) 
CC[N+]12CCC=CC1CN(CCNc1ccc(Br)cc1)CC2

>  <score_type>  (22) 
oracle

>  <origin>  (22) 
adg

>  <m_score__min__energy>  (22) 
-6.9500000000000002

>  <m_primary>  (22) 
energy

$$$$
22:0
     RDKit          3D

 69 71  0  0  0  0  0  0  0  0999 V2000
   -0.8640   26.7040  -23.8430 C   0  0  0  0  0  0  0  0  0  0  0  0
   -1.6050   26.4530  -25.1540 C   0  0  0  0  0  0  0  0  0  0  0  0
   -1.2410   25.1240  -25.7040 N   0  0  0  0  0  0  0  0  0  0  0  0
   -0.5590   24.3060  -24.6700 C   0  0  0  0  0  0  0  0  0  0  0  0
   -0.3970   22.8590  -25.1280 C   0  0  0  0  0  0  0  0  0  0  0  0
   -0.3770   25.2500  -26.9050 C   0  0  0  0  0  0  0  0  0  0  0  0
   -0.8630   26.3250  -27.8940 C   0  0  0  0  0  0  0  0  0  0  0  0
   -1.5740   25.7430  -28.9690 O   0  0  0  0  0  0  0  0  0  0  0  0
   -1.8220   24.3720  -28.7060 C   0  0  0  0  0  0  0  0  0  0  0  0
   -3.2410   24.1810  -28.1540 C   0  0  0  0  0  0  0  0  0  0  0  0
   -4.2660   23.7000  -29.1930 C   0  0  0  0  0  0  0  0  0  0  0  0
   -5.3280   24.7610  -29.5180 C   0  0  0  0  0  0  0  0  0  0  0  0
   -5.7920   24.7350  -30.9850 C   0  0  0  0  0  0  0  0  0  0  0  0
   -6.6560   23.5180  -31.3890 C   0  0  0  0  0  0  0  0  0  0  0  0
   -6.3340   22.9630  -32.7200 N   0  0  0  0  0  0  0  0  0  0  0  0
   -5.9940   21.5440  -32.6680 C   0  0  0  0  0  0  0  0  0  0  0  0
   -4.6490   21.0880  -32.7920 C   0  0  0  0  0  0  0  0  0  0  0  0
   -3.5340   21.9430  -32.5990 C   0  0  0  0  0  0  0  0  0  0  0  0
   -2.2310   21.4710  -32.7300 C   0  0  0  0  0  0  0  0  0  0  0  0
   -1.9980   20.1370  -33.0240 C   0  0  0  0  0  0  0  0  0  0  0  0
   -3.0680   19.2620  -33.1850 C   0  0  0  0  0  0  0  0  0  0  0  0
   -4.4090   19.7140  -33.0840 C   0  0  0  0  0  0  0  0  0  0  0  0
   -5.4670   18.8410  -33.2380 N   0  0  0  0  0  0  0  0  0  0  0  0
   -5.2510   17.5160  -33.8610 C   0  0  0  0  0  0  0  0  0  0  0  0
   -6.7220   19.2040  -32.7990 C   0  0  0  0  0  0  0  0  0  0  0  0
   -7.7410   18.2370  -32.6060 C   0  0  0  0  0  0  0  0  0  0  0  0
   -9.0180   18.6090  -32.1950 C   0  0  0  0  0  0  0  0  0  0  0  0
   -9.3080   19.9430  -31.9470 C   0  0  0  0  0  0  0  0  0  0  0  0
   -8.3200   20.9130  -32.0960 C   0  0  0  0  0  0  0  0  0  0  0  0
   -7.0140   20.5660  -32.5220 C   0  0  0  0  0  0  0  0  0  0  0  0
   -1.5295   26.4786  -22.9967 H   0  0  0  0  0  0  0  0  0  0  0  0
    0.0239   26.0565  -23.7939 H   0  0  0  0  0  0  0  0  0  0  0  0
   -0.5524   27.7578  -23.7939 H   0  0  0  0  0  0  0  0  0  0  0  0
   -2.6891   26.4853  -24.9702 H   0  0  0  0  0  0  0  0  0  0  0  0
   -1.3229   27.2303  -25.8794 H   0  0  0  0  0  0  0  0  0  0  0  0
    0.4353   24.7333  -24.4729 H   0  0  0  0  0  0  0  0  0  0  0  0
   -1.1735   24.3155  -23.7577 H   0  0  0  0  0  0  0  0  0  0  0  0
   -0.3235   22.2021  -24.2487 H   0  0  0  0  0  0  0  0  0  0  0  0
   -1.2680   22.5661  -25.7327 H   0  0  0  0  0  0  0  0  0  0  0  0
    0.5172   22.7660  -25.7327 H   0  0  0  0  0  0  0  0  0  0  0  0
    0.6402   25.5109  -26.5776 H   0  0  0  0  0  0  0  0  0  0  0  0
   -0.4078   24.2847  -27.4316 H   0  0  0  0  0  0  0  0  0  0  0  0
   -1.5235   27.0278  -27.3649 H   0  0  0  0  0  0  0  0  0  0  0  0
    0.0148   26.8500  -28.2989 H   0  0  0  0  0  0  0  0  0  0  0  0
   -1.7159   23.7991  -29.6390 H   0  0  0  0  0  0  0  0  0  0  0  0
   -1.0977   24.0154  -27.9589 H   0  0  0  0  0  0  0  0  0  0  0  0
   -3.1980   23.4385  -27.3436 H   0  0  0  0  0  0  0  0  0  0  0  0
   -3.5808   25.1696  -27.8116 H   0  0  0  0  0  0  0  0  0  0  0  0
   -3.7323   23.4418  -30.1196 H   0  0  0  0  0  0  0  0  0  0  0  0
   -4.7870   22.8305  -28.7658 H   0  0  0  0  0  0  0  0  0  0  0  0
   -6.2021   24.5878  -28.8731 H   0  0  0  0  0  0  0  0  0  0  0  0
   -4.8679   25.7444  -29.3413 H   0  0  0  0  0  0  0  0  0  0  0  0
   -6.3812   25.6452  -31.1701 H   0  0  0  0  0  0  0  0  0  0  0  0
   -4.8758   24.6688  -31.5901 H   0  0  0  0  0  0  0  0  0  0  0  0
   -6.5085   22.7261  -30.6399 H   0  0  0  0  0  0  0  0  0  0  0  0
   -7.6969   23.8705  -31.4364 H   0  0  0  0  0  0  0  0  0  0  0  0
   -7.1290   23.1820  -33.3460 H   0  0  0  0  0  0  0  0  0  0  0  0
   -5.5390   23.4970  -33.1350 H   0  0  0  0  0  0  0  0  0  0  0  0
   -3.7020   22.9990  -32.3409 H   0  0  0  0  0  0  0  0  0  0  0  0
   -1.3831   22.1595  -32.5997 H   0  0  0  0  0  0  0  0  0  0  0  0
   -0.9666   19.7695  -33.1302 H   0  0  0  0  0  0  0  0  0  0  0  0
   -2.8704   18.2003  -33.3944 H   0  0  0  0  0  0  0  0  0  0  0  0
   -5.1272   16.7569  -33.0746 H   0  0  0  0  0  0  0  0  0  0  0  0
   -6.1190   17.2587  -34.4857 H   0  0  0  0  0  0  0  0  0  0  0  0
   -4.3462   17.5477  -34.4857 H   0  0  0  0  0  0  0  0  0  0  0  0
   -7.5186   17.1745  -32.7841 H   0  0  0  0  0  0  0  0  0  0  0  0
   -9.7982   17.8443  -32.0667 H   0  0  0  0  0  0  0  0  0  0  0  0
  -10.3207   20.2350  -31.6320 H   0  0  0  0  0  0  0  0  0  0  0  0
   -8.5572   21.9651  -31.8796 H   0  0  0  0  0  0  0  0  0  0  0  0
  1  2  1  0
  2  3  1  0
  3  4  1  0
  4  5  1  0
  3  6  1  0
  6  7  1  0
  7  8  1  0
  8  9  1  0
  9 10  1  0
 10 11  1  0
 11 12  1  0
 12 13  1  0
 13 14  1  0
 14 15  1  0
 15 16  1  0
 16 17  2  0
 17 18  1  0
 18 19  2  0
 19 20  1  0
 20 21  2  0
 21 22  1  0
 22 23  2  0
 23 24  1  0
 23 25  1  0
 25 26  2  0
 26 27  1  0
 27 28  2  0
 28 29  1  0
 29 30  2  0
 30 16  1  0
 22 17  1  0
 30 25  1  0
  1 31  1  0
  1 32  1  0
  1 33  1  0
  2 34  1  0
  2 35  1  0
  4 36  1  0
  4 37  1  0
  5 38  1  0
  5 39  1  0
  5 40  1  0
  6 41  1  0
  6 42  1  0
  7 43  1  0
  7 44  1  0
  9 45  1  0
  9 46  1  0
 10 47  1  0
 10 48  1  0
 11 49  1  0
 11 50  1  0
 12 51  1  0
 12 52  1  0
 13 53  1  0
 13 54  1  0
 14 55  1  0
 14 56  1  0
 15 57  1  0
 15 58  1  0
 18 59  1  0
 19 60  1  0
 20 61  1  0
 21 62  1  0
 24 63  1  0
 24 64  1  0
 24 65  1  0
 26 66  1  0
 27 67  1  0
 28 68  1  0
 29 69  1  0
M  CHG  2  15   1  23   1
M  END
>  <UniqueID>  (23) 
23

>  <SMILES>  (23) 
CCN(CC)CCOCCCCCC[NH2+]c1c2ccccc2[n+](C)c2ccccc12

>  <Energy>  (23) 
91.21058507929827

>  <Genealogy>  (23) 
CCN(CC)CCOCCCCCC[NH2+]c1c2ccccc2[n+](C)c2ccccc12 (protonated)
CCN(CC)CCOCCCCCC[NH2+]c1c2ccccc2[n+](C)c2ccccc12 (3D coordinates assigned)
CCN(CC)CCOCCCCCC[NH2+]c1c2ccccc2[n+](C)c2ccccc12 (optimized conformer: 91.21058507929827 kcal/mol)

>  <smiles>  (23) 
CCN(CC)CCOCCCCCCNc1c2ccccc2[n+](C)c2ccccc12

>  <score_type>  (23) 
oracle

>  <origin>  (23) 
adg

>  <m_score__min__energy>  (23) 
-8.5899999999999999

>  <m_primary>  (23) 
energy

$$$$
23:0
     RDKit          3D

 40 41  0  0  0  0  0  0  0  0999 V2000
   -9.0750   19.7000  -32.2940 C   0  0  0  0  0  0  0  0  0  0  0  0
   -7.8510   20.3280  -31.6340 C   0  0  0  0  0  0  0  0  0  0  0  0
   -7.1140   21.3230  -32.5490 C   0  0  0  0  0  0  0  0  0  0  0  0
   -5.6350   20.9750  -32.7180 C   0  0  0  0  0  0  0  0  0  0  0  0
   -4.6340   21.8390  -32.1860 C   0  0  0  0  0  0  0  0  0  0  0  0
   -4.9600   23.1860  -31.5510 C   0  0  0  0  0  0  0  0  0  0  0  0
   -4.2360   23.3820  -30.2090 C   0  0  0  0  0  0  0  0  0  0  0  0
   -3.5320   24.7020  -30.1440 C   0  0  0  0  0  0  0  0  0  0  0  0
   -3.9360   25.6710  -30.8390 O   0  0  0  0  0  0  0  0  0  0  0  0
   -2.4050   24.8490  -29.3450 O   0  0  0  0  0  0  0  0  0  0  0  0
   -3.2850   21.4530  -32.3060 C   0  0  0  0  0  0  0  0  0  0  0  0
   -2.3650   22.1830  -31.8470 O   0  0  0  0  0  0  0  0  0  0  0  0
   -2.9530   20.3210  -32.9010 O   0  0  0  0  0  0  0  0  0  0  0  0
   -3.8330   19.4780  -33.4230 C   0  0  0  0  0  0  0  0  0  0  0  0
   -3.3690   18.2940  -34.0380 C   0  0  0  0  0  0  0  0  0  0  0  0
   -1.8840   18.0070  -34.1050 C   0  0  0  0  0  0  0  0  0  0  0  0
   -4.2950   17.4110  -34.6390 C   0  0  0  0  0  0  0  0  0  0  0  0
   -3.8490   16.1500  -35.3340 C   0  0  0  0  0  0  0  0  0  0  0  0
   -5.6630   17.6940  -34.5620 C   0  0  0  0  0  0  0  0  0  0  0  0
   -6.1210   18.8490  -33.9340 C   0  0  0  0  0  0  0  0  0  0  0  0
   -5.2190   19.7700  -33.3570 C   0  0  0  0  0  0  0  0  0  0  0  0
   -9.7683   19.3443  -31.5175 H   0  0  0  0  0  0  0  0  0  0  0  0
   -9.5796   20.4506  -32.9201 H   0  0  0  0  0  0  0  0  0  0  0  0
   -8.7596   18.8524  -32.9201 H   0  0  0  0  0  0  0  0  0  0  0  0
   -8.1765   20.8606  -30.7282 H   0  0  0  0  0  0  0  0  0  0  0  0
   -7.1489   19.5132  -31.4034 H   0  0  0  0  0  0  0  0  0  0  0  0
   -7.5940   21.3148  -33.5387 H   0  0  0  0  0  0  0  0  0  0  0  0
   -7.1730   22.3163  -32.0802 H   0  0  0  0  0  0  0  0  0  0  0  0
   -4.6532   23.9867  -32.2400 H   0  0  0  0  0  0  0  0  0  0  0  0
   -6.0428   23.2177  -31.3600 H   0  0  0  0  0  0  0  0  0  0  0  0
   -4.9746   23.3321  -29.3954 H   0  0  0  0  0  0  0  0  0  0  0  0
   -3.4821   22.5873  -30.1082 H   0  0  0  0  0  0  0  0  0  0  0  0
   -1.4793   17.9288  -33.0852 H   0  0  0  0  0  0  0  0  0  0  0  0
   -1.7173   17.0600  -34.6393 H   0  0  0  0  0  0  0  0  0  0  0  0
   -1.3764   18.8237  -34.6393 H   0  0  0  0  0  0  0  0  0  0  0  0
   -3.5811   15.3924  -34.5828 H   0  0  0  0  0  0  0  0  0  0  0  0
   -4.6670   15.7692  -35.9632 H   0  0  0  0  0  0  0  0  0  0  0  0
   -2.9735   16.3681  -35.9632 H   0  0  0  0  0  0  0  0  0  0  0  0
   -6.3871   16.9938  -35.0040 H   0  0  0  0  0  0  0  0  0  0  0  0
   -7.2019   19.0473  -33.8865 H   0  0  0  0  0  0  0  0  0  0  0  0
  1  2  1  0
  2  3  1  0
  3  4  1  0
  4  5  2  0
  5  6  1  0
  6  7  1  0
  7  8  1  0
  8  9  2  0
  8 10  1  0
  5 11  1  0
 11 12  2  0
 11 13  1  0
 13 14  1  0
 14 15  2  0
 15 16  1  0
 15 17  1  0
 17 18  1  0
 17 19  2  0
 19 20  1  0
 20 21  2  0
 21  4  1  0
 21 14  1  0
  1 22  1  0
  1 23  1  0
  1 24  1  0
  2 25  1  0
  2 26  1  0
  3 27  1  0
  3 28  1  0
  6 29  1  0
  6 30  1  0
  7 31  1  0
  7 32  1  0
 16 33  1  0
 16 34  1  0
 16 35  1  0
 18 36  1  0
 18 37  1  0
 18 38  1  0
 19 39  1  0
 20 40  1  0
M  CHG  1  10  -1
M  END
>  <UniqueID>  (24) 
24

>  <SMILES>  (24) 
CCCc1c(CCC(=O)[O-])c(=O)oc2c(C)c(C)ccc12

>  <Energy>  (24) 
46.0360615234602

>  <Genealogy>  (24) 
CCCc1c(CCC(=O)[O-])c(=O)oc2c(C)c(C)ccc12 (protonated)
CCCc1c(CCC(=O)[O-])c(=O)oc2c(C)c(C)ccc12 (3D coordinates assigned)
CCCc1c(CCC(=O)[O-])c(=O)oc2c(C)c(C)ccc12 (optimized conformer: 46.0360615234602 kcal/mol)

>  <smiles>  (24) 
CCCc1c(CCC(=O)O)c(=O)oc2c(C)c(C)ccc12

>  <score_type>  (24) 
oracle

>  <origin>  (24) 
adg

>  <m_score__min__energy>  (24) 
-10.84

>  <m_primary>  (24) 
energy

$$$$
24:0
     RDKit          3D

 53 56  0  0  0  0  0  0  0  0999 V2000
   -8.4170   20.9880  -30.8420 C   0  0  0  0  0  0  0  0  0  0  0  0
   -7.2020   20.7430  -31.6200 N   0  0  0  0  0  0  0  0  0  0  0  0
   -6.1150   21.5550  -31.7380 C   0  0  0  0  0  0  0  0  0  0  0  0
   -5.9500   22.8530  -31.0470 C   0  0  0  0  0  0  0  0  0  0  0  0
   -7.0320   23.7400  -30.9280 C   0  0  0  0  0  0  0  0  0  0  0  0
   -6.8750   24.9600  -30.2620 C   0  0  0  0  0  0  0  0  0  0  0  0
   -5.6390   25.2990  -29.7050 C   0  0  0  0  0  0  0  0  0  0  0  0
   -4.5590   24.4190  -29.8110 C   0  0  0  0  0  0  0  0  0  0  0  0
   -4.7120   23.1990  -30.4760 C   0  0  0  0  0  0  0  0  0  0  0  0
   -5.1670   20.9660  -32.5730 C   0  0  0  0  0  0  0  0  0  0  0  0
   -3.8570   21.4710  -32.9020 C   0  0  0  0  0  0  0  0  0  0  0  0
   -2.8070   21.8770  -33.1660 N   0  0  0  0  0  0  0  0  0  0  0  0
   -5.6920   19.7470  -32.9430 C   0  0  0  0  0  0  0  0  0  0  0  0
   -5.1580   18.7290  -33.7310 C   0  0  0  0  0  0  0  0  0  0  0  0
   -5.9170   17.5450  -33.8990 C   0  0  0  0  0  0  0  0  0  0  0  0
   -5.4510   16.4500  -34.6470 O   0  0  0  0  0  0  0  0  0  0  0  0
   -5.1630   15.1560  -34.1160 C   0  0  0  0  0  0  0  0  0  0  0  0
   -3.7590   15.1270  -33.4960 C   0  0  0  0  0  0  0  0  0  0  0  0
   -2.9510   16.2660  -33.9650 N   0  0  0  0  0  0  0  0  0  0  0  0
   -1.7900   16.5120  -33.0910 C   0  0  0  0  0  0  0  0  0  0  0  0
   -1.2670   17.9230  -33.2380 C   0  0  0  0  0  0  0  0  0  0  0  0
   -1.0400   18.4710  -34.5120 C   0  0  0  0  0  0  0  0  0  0  0  0
   -0.5020   19.7560  -34.6420 C   0  0  0  0  0  0  0  0  0  0  0  0
   -0.1900   20.5030  -33.5020 C   0  0  0  0  0  0  0  0  0  0  0  0
   -0.4160   19.9660  -32.2310 C   0  0  0  0  0  0  0  0  0  0  0  0
   -0.9500   18.6810  -32.0980 C   0  0  0  0  0  0  0  0  0  0  0  0
   -7.1890   17.4420  -33.2900 C   0  0  0  0  0  0  0  0  0  0  0  0
   -7.7010   18.4890  -32.5030 C   0  0  0  0  0  0  0  0  0  0  0  0
   -6.9220   19.6370  -32.3460 C   0  0  0  0  0  0  0  0  0  0  0  0
   -8.1809   20.9404  -29.7687 H   0  0  0  0  0  0  0  0  0  0  0  0
   -8.8141   21.9843  -31.0863 H   0  0  0  0  0  0  0  0  0  0  0  0
   -9.1692   20.2235  -31.0863 H   0  0  0  0  0  0  0  0  0  0  0  0
   -8.0078   23.4742  -31.3606 H   0  0  0  0  0  0  0  0  0  0  0  0
   -7.7250   25.6530  -30.1766 H   0  0  0  0  0  0  0  0  0  0  0  0
   -5.5163   26.2593  -29.1828 H   0  0  0  0  0  0  0  0  0  0  0  0
   -3.5871   24.6865  -29.3706 H   0  0  0  0  0  0  0  0  0  0  0  0
   -3.8607   22.5067  -30.5531 H   0  0  0  0  0  0  0  0  0  0  0  0
   -4.1739   18.8420  -34.2094 H   0  0  0  0  0  0  0  0  0  0  0  0
   -5.9050   14.9093  -33.3424 H   0  0  0  0  0  0  0  0  0  0  0  0
   -5.2056   14.4200  -34.9324 H   0  0  0  0  0  0  0  0  0  0  0  0
   -3.8484   15.1762  -32.4007 H   0  0  0  0  0  0  0  0  0  0  0  0
   -3.2606   14.1949  -33.8006 H   0  0  0  0  0  0  0  0  0  0  0  0
   -2.6010   16.0540  -34.9280 H   0  0  0  0  0  0  0  0  0  0  0  0
   -3.5400   17.1320  -34.0150 H   0  0  0  0  0  0  0  0  0  0  0  0
   -2.0907   16.3506  -32.0453 H   0  0  0  0  0  0  0  0  0  0  0  0
   -0.9884   15.8175  -33.3829 H   0  0  0  0  0  0  0  0  0  0  0  0
   -1.2864   17.8871  -35.4110 H   0  0  0  0  0  0  0  0  0  0  0  0
   -0.3244   20.1789  -35.6418 H   0  0  0  0  0  0  0  0  0  0  0  0
    0.2332   21.5131  -33.6051 H   0  0  0  0  0  0  0  0  0  0  0  0
   -0.1733   20.5555  -31.3345 H   0  0  0  0  0  0  0  0  0  0  0  0
   -1.1229   18.2611  -31.0961 H   0  0  0  0  0  0  0  0  0  0  0  0
   -7.7866   16.5298  -33.4339 H   0  0  0  0  0  0  0  0  0  0  0  0
   -8.6879   18.4058  -32.0244 H   0  0  0  0  0  0  0  0  0  0  0  0
  1  2  1  0
  2  3  1  0
  3  4  1  0
  4  5  2  0
  5  6  1  0
  6  7  2  0
  7  8  1  0
  8  9  2  0
  3 10  2  0
 10 11  1  0
 11 12  3  0
 10 13  1  0
 13 14  2  0
 14 15  1  0
 15 16  1  0
 16 17  1  0
 17 18  1  0
 18 19  1  0
 19 20  1  0
 20 21  1  0
 21 22  2  0
 22 23  1  0
 23 24  2  0
 24 25  1  0
 25 26  2  0
 15 27  2  0
 27 28  1  0
 28 29  2  0
 29  2  1  0
  9  4  1  0
 29 13  1  0
 26 21  1  0
  1 30  1  0
  1 31  1  0
  1 32  1  0
  5 33  1  0
  6 34  1  0
  7 35  1  0
  8 36  1  0
  9 37  1  0
 14 38  1  0
 17 39  1  0
 17 40  1  0
 18 41  1  0
 18 42  1  0
 19 43  1  0
 19 44  1  0
 20 45  1  0
 20 46  1  0
 22 47  1  0
 23 48  1  0
 24 49  1  0
 25 50  1  0
 26 51  1  0
 27 52  1  0
 28 53  1  0
M  CHG  1  19   1
M  END
>  <UniqueID>  (25) 
25

>  <SMILES>  (25) 
Cn1c(-c2ccccc2)c(C#N)c2cc(OCC[NH2+]Cc3ccccc3)ccc21

>  <Energy>  (25) 
93.35287423574806

>  <Genealogy>  (25) 
Cn1c(-c2ccccc2)c(C#N)c2cc(OCC[NH2+]Cc3ccccc3)ccc21 (protonated)
Cn1c(-c2ccccc2)c(C#N)c2cc(OCC[NH2+]Cc3ccccc3)ccc21 (3D coordinates assigned)
Cn1c(-c2ccccc2)c(C#N)c2cc(OCC[NH2+]Cc3ccccc3)ccc21 (optimized conformer: 93.35287423574806 kcal/mol)

>  <smiles>  (25) 
Cn1c(-c2ccccc2)c(C#N)c2cc(OCCNCc3ccccc3)ccc21

>  <score_type>  (25) 
oracle

>  <origin>  (25) 
adg

>  <m_score__min__energy>  (25) 
-8.3000000000000007

>  <m_primary>  (25) 
energy

$$$$
25:0
     RDKit          3D

 62 64  0  0  0  0  0  0  0  0999 V2000
    1.1540   17.9440  -30.6170 C   0  0  0  0  0  0  0  0  0  0  0  0
   -0.1230   17.6090  -31.3940 C   0  0  0  0  0  0  0  0  0  0  0  0
   -0.9870   18.7920  -31.5600 N   0  0  0  0  0  0  0  0  0  0  0  0
   -0.8410   19.7630  -30.4480 C   0  0  0  0  0  0  0  0  0  0  0  0
   -2.1470   20.5430  -30.2000 C   0  0  0  0  0  0  0  0  0  0  0  0
   -2.4380   21.5800  -31.3000 C   0  0  0  0  0  0  0  0  0  0  0  0
   -2.9320   20.9550  -32.5320 N   0  0  0  0  0  0  0  0  0  0  0  0
   -4.3090   20.5830  -32.7070 C   0  0  0  0  0  0  0  0  0  0  0  0
   -5.3190   21.5140  -32.4090 C   0  0  0  0  0  0  0  0  0  0  0  0
   -5.0110   22.8740  -32.1940 C   0  0  0  0  0  0  0  0  0  0  0  0
   -6.0160   23.8010  -31.9260 C   0  0  0  0  0  0  0  0  0  0  0  0
   -7.3440   23.3920  -31.8860 C   0  0  0  0  0  0  0  0  0  0  0  0
   -7.6720   22.0540  -32.1010 C   0  0  0  0  0  0  0  0  0  0  0  0
   -6.6670   21.0830  -32.3430 C   0  0  0  0  0  0  0  0  0  0  0  0
   -6.9730   19.7490  -32.5250 N   0  0  0  0  0  0  0  0  0  0  0  0
   -8.3070   19.2380  -32.1360 C   0  0  0  0  0  0  0  0  0  0  0  0
   -6.0310   18.8910  -33.0610 C   0  0  0  0  0  0  0  0  0  0  0  0
   -6.3970   17.6100  -33.5370 C   0  0  0  0  0  0  0  0  0  0  0  0
   -5.4470   16.7270  -34.0290 C   0  0  0  0  0  0  0  0  0  0  0  0
   -4.1130   17.0950  -34.0900 C   0  0  0  0  0  0  0  0  0  0  0  0
   -3.6960   18.3700  -33.6700 C   0  0  0  0  0  0  0  0  0  0  0  0
   -2.3500   18.7640  -33.7900 O   0  0  0  0  0  0  0  0  0  0  0  0
   -1.3500   18.1950  -34.6400 C   0  0  0  0  0  0  0  0  0  0  0  0
   -0.2390   19.2080  -34.9420 C   0  0  0  0  0  0  0  0  0  0  0  0
   -0.2210   20.3010  -33.9450 N   0  0  0  0  0  0  0  0  0  0  0  0
    1.0780   20.3600  -33.2530 C   0  0  0  0  0  0  0  0  0  0  0  0
   -0.4870   21.5940  -34.5940 C   0  0  0  0  0  0  0  0  0  0  0  0
   -4.6620   19.2850  -33.1490 C   0  0  0  0  0  0  0  0  0  0  0  0
    0.9508   17.8907  -29.5372 H   0  0  0  0  0  0  0  0  0  0  0  0
    1.9420   17.2222  -30.8779 H   0  0  0  0  0  0  0  0  0  0  0  0
    1.4862   18.9597  -30.8779 H   0  0  0  0  0  0  0  0  0  0  0  0
    0.1542   17.2278  -32.3879 H   0  0  0  0  0  0  0  0  0  0  0  0
   -0.6828   16.8531  -30.8237 H   0  0  0  0  0  0  0  0  0  0  0  0
   -1.9800   18.4830  -31.6810 H   0  0  0  0  0  0  0  0  0  0  0  0
   -0.7090   19.2680  -32.4540 H   0  0  0  0  0  0  0  0  0  0  0  0
   -0.5713   19.2180  -29.5314 H   0  0  0  0  0  0  0  0  0  0  0  0
   -0.0566   20.4840  -30.7219 H   0  0  0  0  0  0  0  0  0  0  0  0
   -2.9819   19.8279  -30.1608 H   0  0  0  0  0  0  0  0  0  0  0  0
   -2.0333   21.0881  -29.2514 H   0  0  0  0  0  0  0  0  0  0  0  0
   -3.1975   22.2848  -30.9308 H   0  0  0  0  0  0  0  0  0  0  0  0
   -1.4957   22.0958  -31.5366 H   0  0  0  0  0  0  0  0  0  0  0  0
   -2.2810   20.8550  -33.3420 H   0  0  0  0  0  0  0  0  0  0  0  0
   -3.9635   23.2068  -32.2386 H   0  0  0  0  0  0  0  0  0  0  0  0
   -5.7589   24.8553  -31.7463 H   0  0  0  0  0  0  0  0  0  0  0  0
   -8.1382   24.1259  -31.6842 H   0  0  0  0  0  0  0  0  0  0  0  0
   -8.7279   21.7464  -32.0826 H   0  0  0  0  0  0  0  0  0  0  0  0
   -8.3829   19.2089  -31.0390 H   0  0  0  0  0  0  0  0  0  0  0  0
   -9.0859   19.9014  -32.5400 H   0  0  0  0  0  0  0  0  0  0  0  0
   -8.4433   18.2240  -32.5400 H   0  0  0  0  0  0  0  0  0  0  0  0
   -7.4547   17.3085  -33.5166 H   0  0  0  0  0  0  0  0  0  0  0  0
   -5.7549   15.7285  -34.3728 H   0  0  0  0  0  0  0  0  0  0  0  0
   -3.3698   16.3798  -34.4723 H   0  0  0  0  0  0  0  0  0  0  0  0
   -0.9109   17.3186  -34.1409 H   0  0  0  0  0  0  0  0  0  0  0  0
   -1.8236   17.9032  -35.5890 H   0  0  0  0  0  0  0  0  0  0  0  0
    0.7317   18.6909  -34.9240 H   0  0  0  0  0  0  0  0  0  0  0  0
   -0.4291   19.6458  -35.9330 H   0  0  0  0  0  0  0  0  0  0  0  0
    0.9146   20.3526  -32.1652 H   0  0  0  0  0  0  0  0  0  0  0  0
    1.6855   19.4885  -33.5385 H   0  0  0  0  0  0  0  0  0  0  0  0
    1.6040   21.2830  -33.5385 H   0  0  0  0  0  0  0  0  0  0  0  0
   -0.6455   22.3645  -33.8251 H   0  0  0  0  0  0  0  0  0  0  0  0
    0.3725   21.8732  -35.2211 H   0  0  0  0  0  0  0  0  0  0  0  0
   -1.3869   21.5112  -35.2211 H   0  0  0  0  0  0  0  0  0  0  0  0
  1  2  1  0
  2  3  1  0
  3  4  1  0
  4  5  1  0
  5  6  1  0
  6  7  1  0
  7  8  1  0
  8  9  2  0
  9 10  1  0
 10 11  2  0
 11 12  1  0
 12 13  2  0
 13 14  1  0
 14 15  2  0
 15 16  1  0
 15 17  1  0
 17 18  2  0
 18 19  1  0
 19 20  2  0
 20 21  1  0
 21 22  1  0
 22 23  1  0
 23 24  1  0
 24 25  1  0
 25 26  1  0
 25 27  1  0
 21 28  2  0
 28  8  1  0
 14  9  1  0
 28 17  1  0
  1 29  1  0
  1 30  1  0
  1 31  1  0
  2 32  1  0
  2 33  1  0
  3 34  1  0
  3 35  1  0
  4 36  1  0
  4 37  1  0
  5 38  1  0
  5 39  1  0
  6 40  1  0
  6 41  1  0
  7 42  1  0
 10 43  1  0
 11 44  1  0
 12 45  1  0
 13 46  1  0
 16 47  1  0
 16 48  1  0
 16 49  1  0
 18 50  1  0
 19 51  1  0
 20 52  1  0
 23 53  1  0
 23 54  1  0
 24 55  1  0
 24 56  1  0
 26 57  1  0
 26 58  1  0
 26 59  1  0
 27 60  1  0
 27 61  1  0
 27 62  1  0
M  CHG  2   3   1  15   1
M  END
>  <UniqueID>  (26) 
26

>  <SMILES>  (26) 
CC[NH2+]CCCNc1c2ccccc2[n+](C)c2cccc(OCCN(C)C)c12

>  <Energy>  (26) 
86.74393270018983

>  <Genealogy>  (26) 
CC[NH2+]CCCNc1c2ccccc2[n+](C)c2cccc(OCCN(C)C)c12 (protonated)
CC[NH2+]CCCNc1c2ccccc2[n+](C)c2cccc(OCCN(C)C)c12 (3D coordinates assigned)
CC[NH2+]CCCNc1c2ccccc2[n+](C)c2cccc(OCCN(C)C)c12 (optimized conformer: 86.74393270018983 kcal/mol)

>  <smiles>  (26) 
CCNCCCNc1c2ccccc2[n+](C)c2cccc(OCCN(C)C)c12

>  <score_type>  (26) 
oracle

>  <origin>  (26) 
adg

>  <m_score__min__energy>  (26) 
-5.96

>  <m_primary>  (26) 
energy

$$$$
26:0
     RDKit          3D

 48 50  0  0  0  0  0  0  0  0999 V2000
   -6.3900   25.2480  -29.7000 C   0  0  0  0  0  0  0  0  0  0  0  0
   -5.4050   25.6130  -30.8130 C   0  0  0  0  0  0  0  0  0  0  0  0
   -4.4440   24.5310  -31.0880 N   0  0  0  0  0  0  0  0  0  0  0  0
   -4.3800   23.5390  -30.0040 C   0  0  0  0  0  0  0  0  0  0  0  0
   -3.9750   22.1700  -30.5690 C   0  0  0  0  0  0  0  0  0  0  0  0
   -3.5240   22.2410  -32.0400 C   0  0  0  0  0  0  0  0  0  0  0  0
   -4.6420   22.4050  -32.9930 N   0  0  0  0  0  0  0  0  0  0  0  0
   -5.6970   21.4270  -32.7830 C   0  0  0  0  0  0  0  0  0  0  0  0
   -6.9840   21.8400  -32.4020 C   0  0  0  0  0  0  0  0  0  0  0  0
   -7.9770   20.9300  -32.1430 C   0  0  0  0  0  0  0  0  0  0  0  0
   -7.7730   19.5780  -32.2420 N   0  0  0  0  0  0  0  0  0  0  0  0
   -8.8640   18.6390  -31.9130 C   0  0  0  0  0  0  0  0  0  0  0  0
   -6.5450   19.1120  -32.6760 C   0  0  0  0  0  0  0  0  0  0  0  0
   -6.3080   17.7270  -32.8630 C   0  0  0  0  0  0  0  0  0  0  0  0
   -5.0750   17.2620  -33.3140 C   0  0  0  0  0  0  0  0  0  0  0  0
   -4.0510   18.1550  -33.5990 C   0  0  0  0  0  0  0  0  0  0  0  0
   -4.2480   19.5230  -33.4310 C   0  0  0  0  0  0  0  0  0  0  0  0
   -5.4820   20.0300  -32.9620 C   0  0  0  0  0  0  0  0  0  0  0  0
   -9.2520   21.6050  -31.7630 C   0  0  0  0  0  0  0  0  0  0  0  0
   -8.9630   23.1020  -31.9200 C   0  0  0  0  0  0  0  0  0  0  0  0
   -7.4720   23.2400  -32.2520 C   0  0  0  0  0  0  0  0  0  0  0  0
   -5.9188   25.4226  -28.7215 H   0  0  0  0  0  0  0  0  0  0  0  0
   -7.2917   25.8717  -29.7893 H   0  0  0  0  0  0  0  0  0  0  0  0
   -6.6675   24.1873  -29.7893 H   0  0  0  0  0  0  0  0  0  0  0  0
   -5.9720   25.8241  -31.7316 H   0  0  0  0  0  0  0  0  0  0  0  0
   -4.8343   26.4929  -30.4812 H   0  0  0  0  0  0  0  0  0  0  0  0
   -3.4900   24.9370  -31.2420 H   0  0  0  0  0  0  0  0  0  0  0  0
   -3.6367   23.8603  -29.2595 H   0  0  0  0  0  0  0  0  0  0  0  0
   -5.3697   23.4563  -29.5310 H   0  0  0  0  0  0  0  0  0  0  0  0
   -3.1455   21.7724  -29.9659 H   0  0  0  0  0  0  0  0  0  0  0  0
   -4.8603   21.5186  -30.5252 H   0  0  0  0  0  0  0  0  0  0  0  0
   -2.8414   23.0960  -32.1539 H   0  0  0  0  0  0  0  0  0  0  0  0
   -3.0366   21.2833  -32.2752 H   0  0  0  0  0  0  0  0  0  0  0  0
   -5.0080   23.3800  -32.9400 H   0  0  0  0  0  0  0  0  0  0  0  0
   -4.2800   22.3180  -33.9700 H   0  0  0  0  0  0  0  0  0  0  0  0
   -8.9598   18.5566  -30.8203 H   0  0  0  0  0  0  0  0  0  0  0  0
   -9.8084   19.0112  -32.3368 H   0  0  0  0  0  0  0  0  0  0  0  0
   -8.6366   17.6497  -32.3368 H   0  0  0  0  0  0  0  0  0  0  0  0
   -7.1116   17.0072  -32.6483 H   0  0  0  0  0  0  0  0  0  0  0  0
   -4.9118   16.1821  -33.4450 H   0  0  0  0  0  0  0  0  0  0  0  0
   -3.0812   17.7807  -33.9586 H   0  0  0  0  0  0  0  0  0  0  0  0
   -3.4308   20.2205  -33.6668 H   0  0  0  0  0  0  0  0  0  0  0  0
  -10.0687   21.2956  -32.4317 H   0  0  0  0  0  0  0  0  0  0  0  0
   -9.5702   21.3479  -30.7419 H   0  0  0  0  0  0  0  0  0  0  0  0
   -9.5716   23.5205  -32.7352 H   0  0  0  0  0  0  0  0  0  0  0  0
   -9.2114   23.6479  -30.9979 H   0  0  0  0  0  0  0  0  0  0  0  0
   -7.3338   23.8009  -33.1881 H   0  0  0  0  0  0  0  0  0  0  0  0
   -6.9226   23.7900  -31.4737 H   0  0  0  0  0  0  0  0  0  0  0  0
  1  2  1  0
  2  3  1  0
  3  4  1  0
  4  5  1  0
  5  6  1  0
  6  7  1  0
  7  8  1  0
  8  9  2  0
  9 10  1  0
 10 11  2  0
 11 12  1  0
 11 13  1  0
 13 14  2  0
 14 15  1  0
 15 16  2  0
 16 17  1  0
 17 18  2  0
 10 19  1  0
 19 20  1  0
 20 21  1  0
 18  8  1  0
 21  9  1  0
 18 13  1  0
  1 22  1  0
  1 23  1  0
  1 24  1  0
  2 25  1  0
  2 26  1  0
  3 27  1  0
  4 28  1  0
  4 29  1  0
  5 30  1  0
  5 31  1  0
  6 32  1  0
  6 33  1  0
  7 34  1  0
  7 35  1  0
 12 36  1  0
 12 37  1  0
 12 38  1  0
 14 39  1  0
 15 40  1  0
 16 41  1  0
 17 42  1  0
 19 43  1  0
 19 44  1  0
 20 45  1  0
 20 46  1  0
 21 47  1  0
 21 48  1  0
M  CHG  2   7   1  11   1
M  END
>  <UniqueID>  (27) 
27

>  <SMILES>  (27) 
CCNCCC[NH2+]c1c2c([n+](C)c3ccccc13)CCC2

>  <Energy>  (27) 
67.05540104400546

>  <Genealogy>  (27) 
CCNCCC[NH2+]c1c2c([n+](C)c3ccccc13)CCC2 (protonated)
CCNCCC[NH2+]c1c2c([n+](C)c3ccccc13)CCC2 (3D coordinates assigned)
CCNCCC[NH2+]c1c2c([n+](C)c3ccccc13)CCC2 (nonaromatic ring conformer: 67.05540104400546 kcal/mol)

>  <smiles>  (27) 
CCNCCCNc1c2c([n+](C)c3ccccc13)CCC2

>  <score_type>  (27) 
oracle

>  <origin>  (27) 
adg

>  <m_score__min__energy>  (27) 
-8.2899999999999991

>  <m_primary>  (27) 
energy

$$$$
27:0
     RDKit          3D

 55 57  0  0  0  0  0  0  0  0999 V2000
   -0.0830   25.5870  -36.4920 C   0  0  0  0  0  0  0  0  0  0  0  0
    0.8220   24.4930  -35.9170 C   0  0  0  0  0  0  0  0  0  0  0  0
    0.2550   23.1460  -36.0840 N   0  0  0  0  0  0  0  0  0  0  0  0
    1.2320   22.0860  -35.7960 C   0  0  0  0  0  0  0  0  0  0  0  0
    0.5870   20.7080  -35.9720 C   0  0  0  0  0  0  0  0  0  0  0  0
   -0.5150   20.4570  -34.9340 C   0  0  0  0  0  0  0  0  0  0  0  0
   -0.7180   21.6570  -34.1080 N   0  0  0  0  0  0  0  0  0  0  0  0
   -0.8790   21.3410  -32.6770 C   0  0  0  0  0  0  0  0  0  0  0  0
   -2.3260   21.5330  -32.1770 C   0  0  0  0  0  0  0  0  0  0  0  0
   -3.3010   21.3760  -33.2570 N   0  0  0  0  0  0  0  0  0  0  0  0
   -4.6200   20.8320  -33.0700 C   0  0  0  0  0  0  0  0  0  0  0  0
   -5.6480   21.6120  -32.5390 C   0  0  0  0  0  0  0  0  0  0  0  0
   -6.9270   21.1230  -32.4380 C   0  0  0  0  0  0  0  0  0  0  0  0
   -7.2510   19.8440  -32.8150 N   0  0  0  0  0  0  0  0  0  0  0  0
   -8.6320   19.3510  -32.6470 C   0  0  0  0  0  0  0  0  0  0  0  0
   -6.2700   19.0380  -33.3680 C   0  0  0  0  0  0  0  0  0  0  0  0
   -6.5560   17.7270  -33.8240 C   0  0  0  0  0  0  0  0  0  0  0  0
   -5.5570   16.9260  -34.3770 C   0  0  0  0  0  0  0  0  0  0  0  0
   -4.2560   17.4050  -34.4920 C   0  0  0  0  0  0  0  0  0  0  0  0
   -3.9420   18.6910  -34.0600 C   0  0  0  0  0  0  0  0  0  0  0  0
   -4.9320   19.5260  -33.5040 C   0  0  0  0  0  0  0  0  0  0  0  0
   -7.8610   22.1580  -31.9070 C   0  0  0  0  0  0  0  0  0  0  0  0
   -7.0190   23.4410  -31.8670 C   0  0  0  0  0  0  0  0  0  0  0  0
   -5.5580   23.0190  -32.0640 C   0  0  0  0  0  0  0  0  0  0  0  0
   -0.5478   26.1488  -35.6684 H   0  0  0  0  0  0  0  0  0  0  0  0
    0.5165   26.2714  -37.1103 H   0  0  0  0  0  0  0  0  0  0  0  0
   -0.8676   25.1264  -37.1103 H   0  0  0  0  0  0  0  0  0  0  0  0
    1.7936   24.5328  -36.4312 H   0  0  0  0  0  0  0  0  0  0  0  0
    0.9269   24.6796  -34.8380 H   0  0  0  0  0  0  0  0  0  0  0  0
   -0.5680   23.0350  -35.4460 H   0  0  0  0  0  0  0  0  0  0  0  0
    2.0831   22.1794  -36.4865 H   0  0  0  0  0  0  0  0  0  0  0  0
    1.5774   22.1898  -34.7568 H   0  0  0  0  0  0  0  0  0  0  0  0
    0.1483   20.6463  -36.9788 H   0  0  0  0  0  0  0  0  0  0  0  0
    1.3674   19.9453  -35.8330 H   0  0  0  0  0  0  0  0  0  0  0  0
   -1.4531   20.2100  -35.4526 H   0  0  0  0  0  0  0  0  0  0  0  0
   -0.2132   19.6216  -34.2851 H   0  0  0  0  0  0  0  0  0  0  0  0
   -1.5570   22.1720  -34.4560 H   0  0  0  0  0  0  0  0  0  0  0  0
   -0.5880   20.2927  -32.5145 H   0  0  0  0  0  0  0  0  0  0  0  0
   -0.2405   22.0363  -32.1123 H   0  0  0  0  0  0  0  0  0  0  0  0
   -2.5352   20.7857  -31.3974 H   0  0  0  0  0  0  0  0  0  0  0  0
   -2.4173   22.5550  -31.7806 H   0  0  0  0  0  0  0  0  0  0  0  0
   -2.9800   21.5580  -34.2340 H   0  0  0  0  0  0  0  0  0  0  0  0
   -8.8639   19.2682  -31.5749 H   0  0  0  0  0  0  0  0  0  0  0  0
   -9.3326   20.0545  -33.1204 H   0  0  0  0  0  0  0  0  0  0  0  0
   -8.7287   18.3628  -33.1204 H   0  0  0  0  0  0  0  0  0  0  0  0
   -7.5806   17.3355  -33.7406 H   0  0  0  0  0  0  0  0  0  0  0  0
   -5.7990   15.9106  -34.7239 H   0  0  0  0  0  0  0  0  0  0  0  0
   -3.4728   16.7658  -34.9256 H   0  0  0  0  0  0  0  0  0  0  0  0
   -2.9097   19.0593  -34.1537 H   0  0  0  0  0  0  0  0  0  0  0  0
   -8.7272   22.2806  -32.5738 H   0  0  0  0  0  0  0  0  0  0  0  0
   -8.2688   21.8910  -30.9209 H   0  0  0  0  0  0  0  0  0  0  0  0
   -7.3284   24.1222  -32.6734 H   0  0  0  0  0  0  0  0  0  0  0  0
   -7.1514   23.9702  -30.9118 H   0  0  0  0  0  0  0  0  0  0  0  0
   -5.0659   23.6541  -32.8153 H   0  0  0  0  0  0  0  0  0  0  0  0
   -4.9624   23.1170  -31.1444 H   0  0  0  0  0  0  0  0  0  0  0  0
  1  2  1  0
  2  3  1  0
  3  4  1  0
  4  5  1  0
  5  6  1  0
  6  7  1  0
  7  8  1  0
  8  9  1  0
  9 10  1  0
 10 11  1  0
 11 12  2  0
 12 13  1  0
 13 14  2  0
 14 15  1  0
 14 16  1  0
 16 17  2  0
 17 18  1  0
 18 19  2  0
 19 20  1  0
 20 21  2  0
 13 22  1  0
 22 23  1  0
 23 24  1  0
 21 11  1  0
 24 12  1  0
 21 16  1  0
  1 25  1  0
  1 26  1  0
  1 27  1  0
  2 28  1  0
  2 29  1  0
  3 30  1  0
  4 31  1  0
  4 32  1  0
  5 33  1  0
  5 34  1  0
  6 35  1  0
  6 36  1  0
  7 37  1  0
  8 38  1  0
  8 39  1  0
  9 40  1  0
  9 41  1  0
 10 42  1  0
 15 43  1  0
 15 44  1  0
 15 45  1  0
 17 46  1  0
 18 47  1  0
 19 48  1  0
 20 49  1  0
 22 50  1  0
 22 51  1  0
 23 52  1  0
 23 53  1  0
 24 54  1  0
 24 55  1  0
M  CHG  1  14   1
M  END
>  <UniqueID>  (28) 
28

>  <SMILES>  (28) 
CCNCCCNCCNc1c2c([n+](C)c3ccccc13)CCC2

>  <Energy>  (28) 
71.99416305638545

>  <Genealogy>  (28) 
CCNCCCNCCNc1c2c([n+](C)c3ccccc13)CCC2 (3D coordinates assigned)
CCNCCCNCCNc1c2c([n+](C)c3ccccc13)CCC2 (nonaromatic ring conformer: 71.99416305638545 kcal/mol)

>  <smiles>  (28) 
CCNCCCNCCNc1c2c([n+](C)c3ccccc13)CCC2

>  <score_type>  (28) 
oracle

>  <origin>  (28) 
adg

>  <m_score__min__energy>  (28) 
-9.1500000000000004

>  <m_primary>  (28) 
energy

$$$$
28:0
     RDKit          3D

 59 62  0  0  0  0  0  0  0  0999 V2000
   -0.4750   20.8110  -34.7160 C   0  0  0  0  0  0  0  0  0  0  0  0
    0.2260   19.4490  -34.7800 C   0  0  0  0  0  0  0  0  0  0  0  0
   -0.4240   18.4440  -33.9080 N   0  0  0  0  0  0  0  0  0  0  0  0
    0.2370   18.2910  -32.5990 C   0  0  0  0  0  0  0  0  0  0  0  0
   -0.5930   18.8750  -31.4500 C   0  0  0  0  0  0  0  0  0  0  0  0
   -1.8080   19.3730  -31.9720 O   0  0  0  0  0  0  0  0  0  0  0  0
   -2.3110   20.4160  -31.1600 C   0  0  0  0  0  0  0  0  0  0  0  0
   -2.2360   21.7630  -31.8890 C   0  0  0  0  0  0  0  0  0  0  0  0
   -3.2860   21.8950  -32.9040 N   0  0  0  0  0  0  0  0  0  0  0  0
   -4.6760   21.7190  -32.5940 C   0  0  0  0  0  0  0  0  0  0  0  0
   -5.4040   22.6790  -31.8530 C   0  0  0  0  0  0  0  0  0  0  0  0
   -4.7460   23.7510  -31.2200 C   0  0  0  0  0  0  0  0  0  0  0  0
   -5.4610   24.6880  -30.4790 C   0  0  0  0  0  0  0  0  0  0  0  0
   -6.8380   24.5610  -30.3320 C   0  0  0  0  0  0  0  0  0  0  0  0
   -7.5160   23.4940  -30.9210 C   0  0  0  0  0  0  0  0  0  0  0  0
   -6.8250   22.5310  -31.6980 C   0  0  0  0  0  0  0  0  0  0  0  0
   -7.4880   21.4610  -32.2820 N   0  0  0  0  0  0  0  0  0  0  0  0
   -8.9580   21.3470  -32.2280 C   0  0  0  0  0  0  0  0  0  0  0  0
   -6.7370   20.4850  -32.8870 C   0  0  0  0  0  0  0  0  0  0  0  0
   -7.1980   19.3160  -33.4010 N   0  0  0  0  0  0  0  0  0  0  0  0
   -6.1070   18.6950  -33.8910 C   0  0  0  0  0  0  0  0  0  0  0  0
   -6.0690   17.4490  -34.5110 C   0  0  0  0  0  0  0  0  0  0  0  0
   -4.8240   16.9590  -34.9400 C   0  0  0  0  0  0  0  0  0  0  0  0
   -3.6370   17.7130  -34.7320 C   0  0  0  0  0  0  0  0  0  0  0  0
   -2.3770   17.2520  -35.1390 O   0  0  0  0  0  0  0  0  0  0  0  0
   -2.1110   15.9290  -35.5930 C   0  0  0  0  0  0  0  0  0  0  0  0
   -3.7100   18.9680  -34.0950 C   0  0  0  0  0  0  0  0  0  0  0  0
   -4.9640   19.4410  -33.6960 C   0  0  0  0  0  0  0  0  0  0  0  0
   -5.3700   20.5960  -33.0450 C   0  0  0  0  0  0  0  0  0  0  0  0
   -0.6228   21.0982  -33.6645 H   0  0  0  0  0  0  0  0  0  0  0  0
    0.1460   21.5670  -35.2188 H   0  0  0  0  0  0  0  0  0  0  0  0
   -1.4511   20.7450  -35.2188 H   0  0  0  0  0  0  0  0  0  0  0  0
    0.2012   19.0862  -35.8182 H   0  0  0  0  0  0  0  0  0  0  0  0
    1.2593   19.5841  -34.4277 H   0  0  0  0  0  0  0  0  0  0  0  0
   -1.4440   18.6480  -33.7690 H   0  0  0  0  0  0  0  0  0  0  0  0
   -0.3710   17.5140  -34.3870 H   0  0  0  0  0  0  0  0  0  0  0  0
    0.3984   17.2197  -32.4085 H   0  0  0  0  0  0  0  0  0  0  0  0
    1.1878   18.8427  -32.6383 H   0  0  0  0  0  0  0  0  0  0  0  0
   -0.8034   18.0892  -30.7096 H   0  0  0  0  0  0  0  0  0  0  0  0
   -0.0352   19.6879  -30.9622 H   0  0  0  0  0  0  0  0  0  0  0  0
   -3.3598   20.2014  -30.9071 H   0  0  0  0  0  0  0  0  0  0  0  0
   -1.6998   20.4762  -30.2474 H   0  0  0  0  0  0  0  0  0  0  0  0
   -2.3493   22.5725  -31.1529 H   0  0  0  0  0  0  0  0  0  0  0  0
   -1.2620   21.8219  -32.3967 H   0  0  0  0  0  0  0  0  0  0  0  0
   -3.0180   22.1590  -33.8790 H   0  0  0  0  0  0  0  0  0  0  0  0
   -3.6543   23.8492  -31.3121 H   0  0  0  0  0  0  0  0  0  0  0  0
   -4.9350   25.5316  -30.0082 H   0  0  0  0  0  0  0  0  0  0  0  0
   -7.3962   25.3070  -29.7473 H   0  0  0  0  0  0  0  0  0  0  0  0
   -8.6028   23.3985  -30.7804 H   0  0  0  0  0  0  0  0  0  0  0  0
   -9.2855   21.3216  -31.1782 H   0  0  0  0  0  0  0  0  0  0  0  0
   -9.4117   22.2127  -32.7328 H   0  0  0  0  0  0  0  0  0  0  0  0
   -9.2728   20.4217  -32.7328 H   0  0  0  0  0  0  0  0  0  0  0  0
   -8.1660   18.9290  -33.4020 H   0  0  0  0  0  0  0  0  0  0  0  0
   -6.9885   16.8642  -34.6609 H   0  0  0  0  0  0  0  0  0  0  0  0
   -4.7672   15.9819  -35.4420 H   0  0  0  0  0  0  0  0  0  0  0  0
   -1.9773   15.2641  -34.7270 H   0  0  0  0  0  0  0  0  0  0  0  0
   -2.9556   15.5734  -36.2014 H   0  0  0  0  0  0  0  0  0  0  0  0
   -1.1946   15.9274  -36.2014 H   0  0  0  0  0  0  0  0  0  0  0  0
   -2.8015   19.5618  -33.9158 H   0  0  0  0  0  0  0  0  0  0  0  0
  1  2  1  0
  2  3  1  0
  3  4  1  0
  4  5  1  0
  5  6  1  0
  6  7  1  0
  7  8  1  0
  8  9  1  0
  9 10  1  0
 10 11  2  0
 11 12  1  0
 12 13  2  0
 13 14  1  0
 14 15  2  0
 15 16  1  0
 16 17  2  0
 17 18  1  0
 17 19  1  0
 19 20  1  0
 20 21  1  0
 21 22  2  0
 22 23  1  0
 23 24  2  0
 24 25  1  0
 25 26  1  0
 24 27  1  0
 27 28  2  0
 28 29  1  0
 29 10  1  0
 16 11  1  0
 29 19  2  0
 28 21  1  0
  1 30  1  0
  1 31  1  0
  1 32  1  0
  2 33  1  0
  2 34  1  0
  3 35  1  0
  3 36  1  0
  4 37  1  0
  4 38  1  0
  5 39  1  0
  5 40  1  0
  7 41  1  0
  7 42  1  0
  8 43  1  0
  8 44  1  0
  9 45  1  0
 12 46  1  0
 13 47  1  0
 14 48  1  0
 15 49  1  0
 18 50  1  0
 18 51  1  0
 18 52  1  0
 20 53  1  0
 22 54  1  0
 23 55  1  0
 26 56  1  0
 26 57  1  0
 26 58  1  0
 27 59  1  0
M  CHG  2   3   1  17   1
M  END
>  <UniqueID>  (29) 
29

>  <SMILES>  (29) 
CC[NH2+]CCOCCNc1c2ccccc2[n+](C)c2[nH]c3ccc(OC)cc3c12

>  <Energy>  (29) 
116.21355338120057

>  <Genealogy>  (29) 
CC[NH2+]CCOCCNc1c2ccccc2[n+](C)c2[nH]c3ccc(OC)cc3c12 (protonated)
CC[NH2+]CCOCCNc1c2ccccc2[n+](C)c2[nH]c3ccc(OC)cc3c12 (3D coordinates assigned)
CC[NH2+]CCOCCNc1c2ccccc2[n+](C)c2[nH]c3ccc(OC)cc3c12 (optimized conformer: 116.21355338120057 kcal/mol)

>  <smiles>  (29) 
CCNCCOCCNc1c2ccccc2[n+](C)c2[nH]c3ccc(OC)cc3c12

>  <score_type>  (29) 
oracle

>  <origin>  (29) 
adg

>  <m_score__min__energy>  (29) 
-7.0300000000000002

>  <m_primary>  (29) 
energy

$$$$
