0:0
     RDKit          3D

 32 33  0  0  0  0  0  0  0  0999 V2000
   -7.4640   17.1080  -32.4278 H   0  0  0  0  0  0  0  0  0  0  0  0
   -7.7550   18.1660  -32.3510 C   0  0  0  0  0  0  0  0  0  0  0  0
   -6.9400   19.1870  -32.4940 O   0  0  0  0  0  0  0  0  0  0  0  0
   -7.6260   20.2940  -32.3320 C   0  0  0  0  0  0  0  0  0  0  0  0
   -7.0320   21.6660  -32.4030 C   0  0  0  0  0  0  0  0  0  0  0  0
   -7.4448   22.2808  -31.5896 H   0  0  0  0  0  0  0  0  0  0  0  0
   -7.2795   22.1087  -33.3791 H   0  0  0  0  0  0  0  0  0  0  0  0
   -5.5680   21.6060  -32.2680 N   0  0  0  0  0  0  0  0  0  0  0  0
   -5.2530   20.7000  -32.6860 H   0  0  0  0  0  0  0  0  0  0  0  0
   -5.1270   21.6060  -30.8630 C   0  0  0  0  0  0  0  0  0  0  0  0
   -4.4820   20.7320  -30.6896 H   0  0  0  0  0  0  0  0  0  0  0  0
   -6.0177   21.5653  -30.2188 H   0  0  0  0  0  0  0  0  0  0  0  0
   -4.3600   22.8530  -30.5340 C   0  0  0  0  0  0  0  0  0  0  0  0
   -2.8920   22.8840  -29.7080 S   0  0  0  0  0  0  0  0  0  0  0  0
   -2.8170   24.5620  -29.7210 C   0  0  0  0  0  0  0  0  0  0  0  0
   -1.8490   25.2390  -29.1790 N   0  0  0  0  0  0  0  0  0  0  0  0
   -0.9370   24.7600  -28.1800 C   0  0  0  0  0  0  0  0  0  0  0  0
    0.2740   24.5370  -28.4530 O   0  0  0  0  0  0  0  0  0  0  0  0
   -1.4450   24.4690  -26.8080 C   0  0  0  0  0  0  0  0  0  0  0  0
   -0.7422   24.8716  -26.0637 H   0  0  0  0  0  0  0  0  0  0  0  0
   -2.4302   24.9397  -26.6743 H   0  0  0  0  0  0  0  0  0  0  0  0
   -1.5373   23.3811  -26.6743 H   0  0  0  0  0  0  0  0  0  0  0  0
   -3.8810   25.1170  -30.3440 N   0  0  0  0  0  0  0  0  0  0  0  0
   -4.7410   24.1710  -30.8070 C   0  0  0  0  0  0  0  0  0  0  0  0
   -6.0050   24.5440  -31.5140 C   0  0  0  0  0  0  0  0  0  0  0  0
   -6.7851   24.7742  -30.7734 H   0  0  0  0  0  0  0  0  0  0  0  0
   -5.8256   25.4275  -32.1443 H   0  0  0  0  0  0  0  0  0  0  0  0
   -6.3340   23.7046  -32.1443 H   0  0  0  0  0  0  0  0  0  0  0  0
   -8.9510   19.9980  -32.0820 C   0  0  0  0  0  0  0  0  0  0  0  0
   -9.7712   20.7110  -31.9120 H   0  0  0  0  0  0  0  0  0  0  0  0
   -9.0310   18.6220  -32.0900 C   0  0  0  0  0  0  0  0  0  0  0  0
   -9.9302   18.0109  -31.9223 H   0  0  0  0  0  0  0  0  0  0  0  0
  1  2  1  0
  2  3  1  0
  3  4  1  0
  4  5  1  0
  5  6  1  0
  5  7  1  0
  5  8  1  0
  8  9  1  0
  8 10  1  0
 10 11  1  0
 10 12  1  0
 10 13  1  0
 13 14  1  0
 14 15  1  0
 15 16  2  0
 16 17  1  0
 17 18  2  0
 17 19  1  0
 19 20  1  0
 19 21  1  0
 19 22  1  0
 15 23  1  0
 23 24  1  0
 24 25  1  0
 25 26  1  0
 25 27  1  0
 25 28  1  0
  4 29  2  0
 29 30  1  0
 29 31  1  0
 31 32  1  0
 31  2  2  0
 24 13  2  0
M  CHG  1  23  -1
M  END
>  <UniqueID>  (1) 
1

>  <SMILES>  (1) 
CC(=O)/N=c1\[n-]c(C)c(CNCc2ccco2)s1

>  <Energy>  (1) 
82.58666942138616

>  <Genealogy>  (1) 
CC(=O)N=c1[n-]c(C)c(CNCc2ccco2)s1 (protonated)
CC(=O)/N=c1\[n-]c(C)c(CNCc2ccco2)s1 (cis-trans isomerization)
CC(=O)/N=c1\[n-]c(C)c(CNCc2ccco2)s1 (3D coordinates assigned)
CC(=O)/N=c1\[n-]c(C)c(CNCc2ccco2)s1 (optimized conformer: 82.58666942138616 kcal/mol)

>  <smiles>  (1) 
CC(=O)N=c1[nH]c(C)c(CNCc2ccco2)s1

>  <score_type>  (1) 
oracle

>  <origin>  (1) 
adg

>  <m_score__min__energy>  (1) 
-7.7999999999999998

>  <m_primary>  (1) 
energy

$$$$
1:0
     RDKit          3D

 32 33  0  0  0  0  0  0  0  0999 V2000
    1.4850   29.1070  -23.2210 C   0  0  0  0  0  0  0  0  0  0  0  0
    0.7380   27.9150  -23.7130 C   0  0  0  0  0  0  0  0  0  0  0  0
    0.4090   26.8530  -22.9580 N   0  0  0  0  0  0  0  0  0  0  0  0
   -0.2640   26.0130  -23.7260 N   0  0  0  0  0  0  0  0  0  0  0  0
   -0.3250   26.6020  -24.9390 C   0  0  0  0  0  0  0  0  0  0  0  0
   -0.9910   26.0160  -26.1190 C   0  0  0  0  0  0  0  0  0  0  0  0
   -0.3830   26.0730  -27.3820 C   0  0  0  0  0  0  0  0  0  0  0  0
   -1.0120   25.5090  -28.4940 C   0  0  0  0  0  0  0  0  0  0  0  0
   -2.2570   24.8790  -28.3650 C   0  0  0  0  0  0  0  0  0  0  0  0
   -2.8680   24.2890  -29.5230 N   0  0  0  0  0  0  0  0  0  0  0  0
   -2.3000   23.0860  -30.1300 C   0  0  0  0  0  0  0  0  0  0  0  0
   -4.0730   24.8950  -30.0880 C   0  0  0  0  0  0  0  0  0  0  0  0
   -2.8910   24.8400  -27.1040 C   0  0  0  0  0  0  0  0  0  0  0  0
   -4.2360   24.1890  -26.9270 C   0  0  0  0  0  0  0  0  0  0  0  0
   -2.2430   25.3950  -25.9880 C   0  0  0  0  0  0  0  0  0  0  0  0
    0.2850   27.7690  -24.9360 O   0  0  0  0  0  0  0  0  0  0  0  0
    1.4870   29.1102  -22.1210 H   0  0  0  0  0  0  0  0  0  0  0  0
    2.5207   29.0684  -23.5894 H   0  0  0  0  0  0  0  0  0  0  0  0
    0.9986   30.0223  -23.5894 H   0  0  0  0  0  0  0  0  0  0  0  0
    0.6310   26.6980  -21.9500 H   0  0  0  0  0  0  0  0  0  0  0  0
    0.5943   26.5645  -27.4970 H   0  0  0  0  0  0  0  0  0  0  0  0
   -0.5260   25.5597  -29.4795 H   0  0  0  0  0  0  0  0  0  0  0  0
   -1.9738   22.3951  -29.3387 H   0  0  0  0  0  0  0  0  0  0  0  0
   -3.0616   22.5955  -30.7540 H   0  0  0  0  0  0  0  0  0  0  0  0
   -1.4373   23.3625  -30.7540 H   0  0  0  0  0  0  0  0  0  0  0  0
   -4.7331   25.2270  -29.2731 H   0  0  0  0  0  0  0  0  0  0  0  0
   -3.7926   25.7593  -30.7079 H   0  0  0  0  0  0  0  0  0  0  0  0
   -4.5997   24.1545  -30.7079 H   0  0  0  0  0  0  0  0  0  0  0  0
   -4.4539   24.0835  -25.8540 H   0  0  0  0  0  0  0  0  0  0  0  0
   -5.0099   24.8122  -27.3988 H   0  0  0  0  0  0  0  0  0  0  0  0
   -4.2274   23.1954  -27.3988 H   0  0  0  0  0  0  0  0  0  0  0  0
   -2.7226   25.3423  -24.9994 H   0  0  0  0  0  0  0  0  0  0  0  0
  1  2  1  0
  2  3  2  0
  3  4  1  0
  4  5  2  0
  5  6  1  0
  6  7  2  0
  7  8  1  0
  8  9  2  0
  9 10  1  0
 10 11  1  0
 10 12  1  0
  9 13  1  0
 13 14  1  0
 13 15  2  0
  5 16  1  0
 16  2  1  0
 15  6  1  0
  1 17  1  0
  1 18  1  0
  1 19  1  0
  3 20  1  0
  7 21  1  0
  8 22  1  0
 11 23  1  0
 11 24  1  0
 11 25  1  0
 12 26  1  0
 12 27  1  0
 12 28  1  0
 14 29  1  0
 14 30  1  0
 14 31  1  0
 15 32  1  0
M  CHG  1   3   1
M  END
>  <UniqueID>  (2) 
2

>  <SMILES>  (2) 
Cc1[nH+]nc(-c2ccc(N(C)C)c(C)c2)o1

>  <Energy>  (2) 
69.08291721127286

>  <Genealogy>  (2) 
Cc1[nH+]nc(-c2ccc(N(C)C)c(C)c2)o1 (protonated)
Cc1[nH+]nc(-c2ccc(N(C)C)c(C)c2)o1 (3D coordinates assigned)
Cc1[nH+]nc(-c2ccc(N(C)C)c(C)c2)o1 (optimized conformer: 69.08291721127286 kcal/mol)

>  <smiles>  (2) 
Cc1nnc(-c2ccc(N(C)C)c(C)c2)o1

>  <score_type>  (2) 
oracle

>  <origin>  (2) 
adg

>  <m_score__min__energy>  (2) 
-5.9000000000000004

>  <m_primary>  (2) 
energy

$$$$
2:0
     RDKit          3D

 46 48  0  0  0  0  0  0  0  0999 V2000
   -2.4840   22.7310  -31.2400 O   0  0  0  0  0  0  0  0  0  0  0  0
   -3.6660   23.1670  -31.2210 C   0  0  0  0  0  0  0  0  0  0  0  0
   -3.8970   24.5090  -30.7750 N   0  0  0  0  0  0  0  0  0  0  0  0
   -4.9010   24.9070  -29.7960 C   0  0  0  0  0  0  0  0  0  0  0  0
   -4.6150   24.2800  -28.4150 C   0  0  0  0  0  0  0  0  0  0  0  0
   -3.3340   23.5250  -28.3100 N   0  0  0  0  0  0  0  0  0  0  0  0
   -3.5530   22.0800  -27.9700 C   0  0  0  0  0  0  0  0  0  0  0  0
   -2.2790   21.2140  -27.8360 C   0  0  0  0  0  0  0  0  0  0  0  0
   -1.2480   21.7000  -26.7950 C   0  0  0  0  0  0  0  0  0  0  0  0
   -0.2340   22.7430  -27.2910 C   0  0  0  0  0  0  0  0  0  0  0  0
   -0.8760   23.9940  -27.9030 C   0  0  0  0  0  0  0  0  0  0  0  0
   -2.3350   24.2560  -27.4840 C   0  0  0  0  0  0  0  0  0  0  0  0
   -4.7680   22.2650  -31.6110 C   0  0  0  0  0  0  0  0  0  0  0  0
   -4.4760   21.0240  -32.1970 C   0  0  0  0  0  0  0  0  0  0  0  0
   -5.5050   20.1580  -32.5760 C   0  0  0  0  0  0  0  0  0  0  0  0
   -6.8430   20.5280  -32.3850 C   0  0  0  0  0  0  0  0  0  0  0  0
   -7.8860   19.6660  -32.7620 C   0  0  0  0  0  0  0  0  0  0  0  0
   -9.2160   20.0510  -32.5730 C   0  0  0  0  0  0  0  0  0  0  0  0
   -9.5170   21.2940  -32.0110 C   0  0  0  0  0  0  0  0  0  0  0  0
   -8.4890   22.1620  -31.6330 C   0  0  0  0  0  0  0  0  0  0  0  0
   -7.1480   21.7870  -31.8140 C   0  0  0  0  0  0  0  0  0  0  0  0
   -6.1070   22.6500  -31.4370 C   0  0  0  0  0  0  0  0  0  0  0  0
   -4.8942   26.0028  -29.7006 H   0  0  0  0  0  0  0  0  0  0  0  0
   -5.8835   24.5532  -30.1419 H   0  0  0  0  0  0  0  0  0  0  0  0
   -4.5933   25.0907  -27.6718 H   0  0  0  0  0  0  0  0  0  0  0  0
   -5.4155   23.5453  -28.2434 H   0  0  0  0  0  0  0  0  0  0  0  0
   -2.9530   23.5340  -29.2880 H   0  0  0  0  0  0  0  0  0  0  0  0
   -4.0909   22.0377  -27.0114 H   0  0  0  0  0  0  0  0  0  0  0  0
   -4.1108   21.6572  -28.8186 H   0  0  0  0  0  0  0  0  0  0  0  0
   -2.5894   20.1967  -27.5553 H   0  0  0  0  0  0  0  0  0  0  0  0
   -1.7723   21.2717  -28.8106 H   0  0  0  0  0  0  0  0  0  0  0  0
   -1.8015   22.1417  -25.9533 H   0  0  0  0  0  0  0  0  0  0  0  0
   -0.6555   20.8130  -26.5263 H   0  0  0  0  0  0  0  0  0  0  0  0
    0.3870   23.0547  -26.4383 H   0  0  0  0  0  0  0  0  0  0  0  0
    0.3523   22.2632  -28.0885 H   0  0  0  0  0  0  0  0  0  0  0  0
   -0.2748   24.8654  -27.6044 H   0  0  0  0  0  0  0  0  0  0  0  0
   -0.8968   23.8251  -28.9897 H   0  0  0  0  0  0  0  0  0  0  0  0
   -2.4567   23.9453  -26.4358 H   0  0  0  0  0  0  0  0  0  0  0  0
   -2.5231   25.3303  -27.6272 H   0  0  0  0  0  0  0  0  0  0  0  0
   -3.4284   20.7304  -32.3594 H   0  0  0  0  0  0  0  0  0  0  0  0
   -5.2641   19.1833  -33.0254 H   0  0  0  0  0  0  0  0  0  0  0  0
   -7.6556   18.6866  -33.2066 H   0  0  0  0  0  0  0  0  0  0  0  0
  -10.0297   19.3721  -32.8681 H   0  0  0  0  0  0  0  0  0  0  0  0
  -10.5663   21.5904  -31.8656 H   0  0  0  0  0  0  0  0  0  0  0  0
   -8.7308   23.1407  -31.1929 H   0  0  0  0  0  0  0  0  0  0  0  0
   -6.3415   23.6331  -31.0029 H   0  0  0  0  0  0  0  0  0  0  0  0
  1  2  2  0
  2  3  1  0
  3  4  1  0
  4  5  1  0
  5  6  1  0
  6  7  1  0
  7  8  1  0
  8  9  1  0
  9 10  1  0
 10 11  1  0
 11 12  1  0
  2 13  1  0
 13 14  2  0
 14 15  1  0
 15 16  2  0
 16 17  1  0
 17 18  2  0
 18 19  1  0
 19 20  2  0
 20 21  1  0
 21 22  2  0
 12  6  1  0
 22 13  1  0
 21 16  1  0
  4 23  1  0
  4 24  1  0
  5 25  1  0
  5 26  1  0
  6 27  1  0
  7 28  1  0
  7 29  1  0
  8 30  1  0
  8 31  1  0
  9 32  1  0
  9 33  1  0
 10 34  1  0
 10 35  1  0
 11 36  1  0
 11 37  1  0
 12 38  1  0
 12 39  1  0
 14 40  1  0
 15 41  1  0
 17 42  1  0
 18 43  1  0
 19 44  1  0
 20 45  1  0
 22 46  1  0
M  CHG  2   3  -1   6   1
M  END
>  <UniqueID>  (3) 
3

>  <SMILES>  (3) 
O=C([N-]CC[NH+]1CCCCCC1)c1ccc2ccccc2c1

>  <Energy>  (3) 
70.90873915141952

>  <Genealogy>  (3) 
O=C([N-]CC[NH+]1CCCCCC1)c1ccc2ccccc2c1 (protonated)
O=C([N-]CC[NH+]1CCCCCC1)c1ccc2ccccc2c1 (3D coordinates assigned)
O=C([N-]CC[NH+]1CCCCCC1)c1ccc2ccccc2c1 (nonaromatic ring conformer: 70.90873915141952 kcal/mol)

>  <smiles>  (3) 
O=C(NCCN1CCCCCC1)c1ccc2ccccc2c1

>  <score_type>  (3) 
oracle

>  <origin>  (3) 
adg

>  <m_score__min__energy>  (3) 
-7.2199999999999998

>  <m_primary>  (3) 
energy

$$$$
3:0
     RDKit          3D

 50 54  0  0  0  0  0  0  0  0999 V2000
   -4.7700   18.9270  -34.2990 C   0  0  0  0  0  0  0  0  0  0  0  0
   -4.3490   19.8790  -33.2070 C   0  0  0  0  0  0  0  0  0  0  0  0
   -5.2620   20.3840  -32.2390 C   0  0  0  0  0  0  0  0  0  0  0  0
   -6.6780   19.9640  -32.1720 C   0  0  0  0  0  0  0  0  0  0  0  0
   -7.7150   20.8930  -32.3610 C   0  0  0  0  0  0  0  0  0  0  0  0
   -9.0500   20.4760  -32.3260 C   0  0  0  0  0  0  0  0  0  0  0  0
   -9.3570   19.1290  -32.1180 C   0  0  0  0  0  0  0  0  0  0  0  0
   -8.3310   18.1960  -31.9510 C   0  0  0  0  0  0  0  0  0  0  0  0
   -6.9950   18.6090  -31.9850 C   0  0  0  0  0  0  0  0  0  0  0  0
   -4.8200   21.3010  -31.3250 N   0  0  0  0  0  0  0  0  0  0  0  0
   -3.5260   21.7230  -31.2710 C   0  0  0  0  0  0  0  0  0  0  0  0
   -3.1210   22.6950  -30.2940 N   0  0  0  0  0  0  0  0  0  0  0  0
   -1.7610   22.6740  -29.7410 C   0  0  0  0  0  0  0  0  0  0  0  0
   -1.3070   24.0920  -29.3180 C   0  0  0  0  0  0  0  0  0  0  0  0
   -2.3450   25.0580  -29.3440 O   0  0  0  0  0  0  0  0  0  0  0  0
   -3.5050   24.5460  -28.7210 C   0  0  0  0  0  0  0  0  0  0  0  0
   -4.1510   23.5040  -29.6350 C   0  0  0  0  0  0  0  0  0  0  0  0
   -2.6340   21.1980  -32.2070 C   0  0  0  0  0  0  0  0  0  0  0  0
   -1.3270   21.5100  -32.3250 N   0  0  0  0  0  0  0  0  0  0  0  0
   -0.9220   20.7580  -33.3760 C   0  0  0  0  0  0  0  0  0  0  0  0
    0.4430   20.7190  -33.8450 N   0  0  0  0  0  0  0  0  0  0  0  0
    1.2780   19.7600  -33.3360 C   0  0  0  0  0  0  0  0  0  0  0  0
    2.6050   19.6690  -33.7600 C   0  0  0  0  0  0  0  0  0  0  0  0
    3.0840   20.5690  -34.7070 C   0  0  0  0  0  0  0  0  0  0  0  0
    2.2400   21.5540  -35.2120 C   0  0  0  0  0  0  0  0  0  0  0  0
    0.9160   21.6270  -34.7640 C   0  0  0  0  0  0  0  0  0  0  0  0
    0.1790   22.5520  -35.2030 O   0  0  0  0  0  0  0  0  0  0  0  0
   -1.9800   20.0050  -33.8660 C   0  0  0  0  0  0  0  0  0  0  0  0
   -3.0570   20.3090  -33.1210 N   0  0  0  0  0  0  0  0  0  0  0  0
   -5.1759   18.0091  -33.8488 H   0  0  0  0  0  0  0  0  0  0  0  0
   -5.5419   19.4021  -34.9222 H   0  0  0  0  0  0  0  0  0  0  0  0
   -3.8991   18.6756  -34.9222 H   0  0  0  0  0  0  0  0  0  0  0  0
   -7.4763   21.9522  -32.5372 H   0  0  0  0  0  0  0  0  0  0  0  0
   -9.8586   21.2092  -32.4624 H   0  0  0  0  0  0  0  0  0  0  0  0
  -10.4071   18.8031  -32.0857 H   0  0  0  0  0  0  0  0  0  0  0  0
   -8.5740   17.1349  -31.7925 H   0  0  0  0  0  0  0  0  0  0  0  0
   -6.1897   17.8694  -31.8648 H   0  0  0  0  0  0  0  0  0  0  0  0
   -1.7414   22.0137  -28.8615 H   0  0  0  0  0  0  0  0  0  0  0  0
   -1.0747   22.3057  -30.5178 H   0  0  0  0  0  0  0  0  0  0  0  0
   -0.9098   24.0376  -28.2937 H   0  0  0  0  0  0  0  0  0  0  0  0
   -0.5499   24.4163  -30.0471 H   0  0  0  0  0  0  0  0  0  0  0  0
   -3.2317   24.0768  -27.7644 H   0  0  0  0  0  0  0  0  0  0  0  0
   -4.2157   25.3648  -28.5354 H   0  0  0  0  0  0  0  0  0  0  0  0
   -4.7991   22.8478  -29.0356 H   0  0  0  0  0  0  0  0  0  0  0  0
   -4.7446   24.0214  -30.4031 H   0  0  0  0  0  0  0  0  0  0  0  0
    0.8983   19.0528  -32.5839 H   0  0  0  0  0  0  0  0  0  0  0  0
    3.2665   18.8922  -33.3488 H   0  0  0  0  0  0  0  0  0  0  0  0
    4.1253   20.5023  -35.0551 H   0  0  0  0  0  0  0  0  0  0  0  0
    2.6115   22.2710  -35.9590 H   0  0  0  0  0  0  0  0  0  0  0  0
   -1.9441   19.2943  -34.7048 H   0  0  0  0  0  0  0  0  0  0  0  0
  1  2  1  0
  2  3  2  0
  3  4  1  0
  4  5  2  0
  5  6  1  0
  6  7  2  0
  7  8  1  0
  8  9  2  0
  3 10  1  0
 10 11  2  0
 11 12  1  0
 12 13  1  0
 13 14  1  0
 14 15  1  0
 15 16  1  0
 16 17  1  0
 11 18  1  0
 18 19  2  0
 19 20  1  0
 20 21  1  0
 21 22  1  0
 22 23  2  0
 23 24  1  0
 24 25  2  0
 25 26  1  0
 26 27  2  0
 20 28  2  0
 28 29  1  0
 29  2  1  0
  9  4  1  0
 17 12  1  0
 29 18  1  0
 26 21  1  0
  1 30  1  0
  1 31  1  0
  1 32  1  0
  5 33  1  0
  6 34  1  0
  7 35  1  0
  8 36  1  0
  9 37  1  0
 13 38  1  0
 13 39  1  0
 14 40  1  0
 14 41  1  0
 16 42  1  0
 16 43  1  0
 17 44  1  0
 17 45  1  0
 22 46  1  0
 23 47  1  0
 24 48  1  0
 25 49  1  0
 28 50  1  0
M  END
>  <UniqueID>  (4) 
4

>  <SMILES>  (4) 
Cc1c(-c2ccccc2)nc(N2CCOCC2)c2nc(-n3ccccc3=O)cn12

>  <Energy>  (4) 
116.13029353326178

>  <Genealogy>  (4) 
Cc1c(-c2ccccc2)nc(N2CCOCC2)c2nc(-n3ccccc3=O)cn12 (3D coordinates assigned)
Cc1c(-c2ccccc2)nc(N2CCOCC2)c2nc(-n3ccccc3=O)cn12 (nonaromatic ring conformer: 116.13029353326178 kcal/mol)

>  <smiles>  (4) 
Cc1c(-c2ccccc2)nc(N2CCOCC2)c2nc(-n3ccccc3=O)cn12

>  <score_type>  (4) 
oracle

>  <origin>  (4) 
adg

>  <m_score__min__energy>  (4) 
-9.3100000000000005

>  <m_primary>  (4) 
energy

$$$$
4:0
     RDKit          3D

 28 30  0  0  0  0  0  0  0  0999 V2000
   -9.8907   21.1543  -30.6189 H   0  0  0  0  0  0  0  0  0  0  0  0
   -9.1110   20.6800  -31.2330 C   0  0  0  0  0  0  0  0  0  0  0  0
   -8.9800   19.3700  -31.4270 C   0  0  0  0  0  0  0  0  0  0  0  0
   -9.6303   18.5897  -31.0048 H   0  0  0  0  0  0  0  0  0  0  0  0
   -7.8300   19.1430  -32.2930 C   0  0  0  0  0  0  0  0  0  0  0  0
   -7.3130   17.9380  -32.7650 C   0  0  0  0  0  0  0  0  0  0  0  0
   -7.7765   16.9788  -32.4911 H   0  0  0  0  0  0  0  0  0  0  0  0
   -6.1840   17.9810  -33.6000 C   0  0  0  0  0  0  0  0  0  0  0  0
   -5.7539   17.0458  -33.9878 H   0  0  0  0  0  0  0  0  0  0  0  0
   -5.6000   19.2170  -33.9430 C   0  0  0  0  0  0  0  0  0  0  0  0
   -4.7164   19.2407  -34.5978 H   0  0  0  0  0  0  0  0  0  0  0  0
   -6.1390   20.4200  -33.4540 C   0  0  0  0  0  0  0  0  0  0  0  0
   -5.6903   21.3884  -33.7201 H   0  0  0  0  0  0  0  0  0  0  0  0
   -7.2610   20.3540  -32.6200 C   0  0  0  0  0  0  0  0  0  0  0  0
   -8.0510   21.4010  -31.9670 C   0  0  0  0  0  0  0  0  0  0  0  0
   -7.8190   22.7250  -31.9710 C   0  0  0  0  0  0  0  0  0  0  0  0
   -8.6170   23.5460  -32.6980 F   0  0  0  0  0  0  0  0  0  0  0  0
   -6.6820   23.3420  -31.2550 C   0  0  0  0  0  0  0  0  0  0  0  0
   -6.8660   24.4580  -30.4180 C   0  0  0  0  0  0  0  0  0  0  0  0
   -7.8753   24.8680  -30.2657 H   0  0  0  0  0  0  0  0  0  0  0  0
   -5.7710   25.0480  -29.7790 C   0  0  0  0  0  0  0  0  0  0  0  0
   -5.9228   25.9109  -29.1139 H   0  0  0  0  0  0  0  0  0  0  0  0
   -4.4840   24.5430  -29.9840 C   0  0  0  0  0  0  0  0  0  0  0  0
   -3.6244   25.0041  -29.4756 H   0  0  0  0  0  0  0  0  0  0  0  0
   -4.2900   23.4510  -30.8360 C   0  0  0  0  0  0  0  0  0  0  0  0
   -3.2762   23.0581  -31.0028 H   0  0  0  0  0  0  0  0  0  0  0  0
   -5.3820   22.8580  -31.4760 C   0  0  0  0  0  0  0  0  0  0  0  0
   -5.2226   22.0082  -32.1560 H   0  0  0  0  0  0  0  0  0  0  0  0
  1  2  1  0
  2  3  2  0
  3  4  1  0
  3  5  1  0
  5  6  2  0
  6  7  1  0
  6  8  1  0
  8  9  1  0
  8 10  2  0
 10 11  1  0
 10 12  1  0
 12 13  1  0
 12 14  2  0
 14 15  1  0
 15 16  2  0
 16 17  1  0
 16 18  1  0
 18 19  2  0
 19 20  1  0
 19 21  1  0
 21 22  1  0
 21 23  2  0
 23 24  1  0
 23 25  1  0
 25 26  1  0
 25 27  2  0
 27 28  1  0
 15  2  1  0
 27 18  1  0
 14  5  1  0
M  END
>  <UniqueID>  (5) 
5

>  <SMILES>  (5) 
F/C(=C1/C=Cc2ccccc21)c1ccccc1

>  <Energy>  (5) 
64.24424872070445

>  <Genealogy>  (5) 
F/C(=C1/C=Cc2ccccc21)c1ccccc1 (cis-trans isomerization)
F/C(=C1/C=Cc2ccccc21)c1ccccc1 (3D coordinates assigned)
F/C(=C1/C=Cc2ccccc21)c1ccccc1 (nonaromatic ring conformer: 64.24424872070445 kcal/mol)

>  <smiles>  (5) 
FC(=C1C=Cc2ccccc21)c1ccccc1

>  <score_type>  (5) 
oracle

>  <origin>  (5) 
adg

>  <m_score__min__energy>  (5) 
-7.8899999999999997

>  <m_primary>  (5) 
energy

$$$$
5:0
     RDKit          3D

 30 33  0  0  0  0  0  0  0  0999 V2000
   -4.2980   25.9280  -30.4630 O   0  0  0  0  0  0  0  0  0  0  0  0
   -3.7070   24.8670  -30.1280 C   0  0  0  0  0  0  0  0  0  0  0  0
   -2.4980   24.9180  -29.5010 N   0  0  0  0  0  0  0  0  0  0  0  0
   -1.8470   23.7720  -29.1350 C   0  0  0  0  0  0  0  0  0  0  0  0
   -0.6060   23.8400  -28.4910 C   0  0  0  0  0  0  0  0  0  0  0  0
    0.0550   22.6640  -28.1170 C   0  0  0  0  0  0  0  0  0  0  0  0
   -0.5180   21.4150  -28.3840 C   0  0  0  0  0  0  0  0  0  0  0  0
   -1.7580   21.3300  -29.0270 C   0  0  0  0  0  0  0  0  0  0  0  0
   -2.4250   22.5040  -29.4030 C   0  0  0  0  0  0  0  0  0  0  0  0
   -3.6630   22.5060  -30.0470 C   0  0  0  0  0  0  0  0  0  0  0  0
   -4.4010   21.4380  -30.4040 N   0  0  0  0  0  0  0  0  0  0  0  0
   -5.4800   22.0340  -30.9800 C   0  0  0  0  0  0  0  0  0  0  0  0
   -6.6190   21.2840  -31.5520 C   0  0  0  0  0  0  0  0  0  0  0  0
   -7.8910   21.8770  -31.6380 C   0  0  0  0  0  0  0  0  0  0  0  0
   -8.9670   21.1670  -32.1790 C   0  0  0  0  0  0  0  0  0  0  0  0
   -8.7880   19.8590  -32.6400 C   0  0  0  0  0  0  0  0  0  0  0  0
   -9.8700   19.1650  -33.1760 O   0  0  0  0  0  0  0  0  0  0  0  0
   -7.5240   19.2610  -32.5570 C   0  0  0  0  0  0  0  0  0  0  0  0
   -6.4460   19.9690  -32.0170 C   0  0  0  0  0  0  0  0  0  0  0  0
   -5.4040   23.3890  -30.9740 N   0  0  0  0  0  0  0  0  0  0  0  0
   -4.2550   23.6530  -30.3830 N   0  0  0  0  0  0  0  0  0  0  0  0
   -0.1499   24.8182  -28.2786 H   0  0  0  0  0  0  0  0  0  0  0  0
    1.0298   22.7217  -27.6106 H   0  0  0  0  0  0  0  0  0  0  0  0
    0.0089   20.4962  -28.0870 H   0  0  0  0  0  0  0  0  0  0  0  0
   -2.2066   20.3476  -29.2361 H   0  0  0  0  0  0  0  0  0  0  0  0
   -8.0404   22.9055  -31.2775 H   0  0  0  0  0  0  0  0  0  0  0  0
   -9.9585   21.6392  -32.2423 H   0  0  0  0  0  0  0  0  0  0  0  0
  -10.1690   19.3110  -34.1340 H   0  0  0  0  0  0  0  0  0  0  0  0
   -7.3792   18.2319  -32.9175 H   0  0  0  0  0  0  0  0  0  0  0  0
   -5.4559   19.4936  -31.9557 H   0  0  0  0  0  0  0  0  0  0  0  0
  1  2  2  0
  2  3  1  0
  3  4  1  0
  4  5  2  0
  5  6  1  0
  6  7  2  0
  7  8  1  0
  8  9  2  0
  9 10  1  0
 10 11  2  0
 11 12  1  0
 12 13  1  0
 13 14  2  0
 14 15  1  0
 15 16  2  0
 16 17  1  0
 16 18  1  0
 18 19  2  0
 12 20  2  0
 20 21  1  0
 21  2  1  0
  9  4  1  0
 21 10  1  0
 19 13  1  0
  5 22  1  0
  6 23  1  0
  7 24  1  0
  8 25  1  0
 14 26  1  0
 15 27  1  0
 17 28  1  0
 18 29  1  0
 19 30  1  0
M  CHG  1   3  -1
M  END
>  <UniqueID>  (6) 
6

>  <SMILES>  (6) 
O=c1[n-]c2ccccc2c2nc(-c3ccc(O)cc3)nn12

>  <Energy>  (6) 
77.64526715667392

>  <Genealogy>  (6) 
O=c1[n-]c2ccccc2c2nc(-c3ccc(O)cc3)nn12 (protonated)
O=c1[n-]c2ccccc2c2nc(-c3ccc(O)cc3)nn12 (3D coordinates assigned)
O=c1[n-]c2ccccc2c2nc(-c3ccc(O)cc3)nn12 (optimized conformer: 77.64526715667392 kcal/mol)

>  <smiles>  (6) 
O=c1[nH]c2ccccc2c2nc(-c3ccc(O)cc3)nn12

>  <score_type>  (6) 
oracle

>  <origin>  (6) 
adg

>  <m_score__min__energy>  (6) 
-8.1400000000000006

>  <m_primary>  (6) 
energy

$$$$
6:0
     RDKit          3D

 37 40  0  0  0  0  0  0  0  0999 V2000
   -8.9380   18.9420  -32.3520 C   0  0  0  0  0  0  0  0  0  0  0  0
   -7.5460   18.9580  -32.7890 N   0  0  0  0  0  0  0  0  0  0  0  0
   -6.8730   17.9580  -33.4070 C   0  0  0  0  0  0  0  0  0  0  0  0
   -5.5690   18.2640  -33.6060 N   0  0  0  0  0  0  0  0  0  0  0  0
   -5.4250   19.4990  -33.0870 C   0  0  0  0  0  0  0  0  0  0  0  0
   -4.2670   20.2820  -32.9900 C   0  0  0  0  0  0  0  0  0  0  0  0
   -2.9700   19.8490  -33.5550 C   0  0  0  0  0  0  0  0  0  0  0  0
   -2.7100   18.4830  -33.7660 C   0  0  0  0  0  0  0  0  0  0  0  0
   -1.4780   18.0720  -34.2870 C   0  0  0  0  0  0  0  0  0  0  0  0
   -0.4960   19.0160  -34.5940 C   0  0  0  0  0  0  0  0  0  0  0  0
   -0.7420   20.3740  -34.3770 C   0  0  0  0  0  0  0  0  0  0  0  0
   -1.9710   20.7910  -33.8570 C   0  0  0  0  0  0  0  0  0  0  0  0
   -4.3840   21.5240  -32.3240 C   0  0  0  0  0  0  0  0  0  0  0  0
   -5.6250   21.9570  -31.7800 C   0  0  0  0  0  0  0  0  0  0  0  0
   -5.7070   23.2730  -31.0970 C   0  0  0  0  0  0  0  0  0  0  0  0
   -6.8670   23.6870  -30.4220 C   0  0  0  0  0  0  0  0  0  0  0  0
   -6.8720   24.9340  -29.7980 C   0  0  0  0  0  0  0  0  0  0  0  0
   -5.7690   25.7230  -29.8460 N   0  0  0  0  0  0  0  0  0  0  0  0
   -4.6490   25.3110  -30.4930 C   0  0  0  0  0  0  0  0  0  0  0  0
   -4.6230   24.1000  -31.1070 N   0  0  0  0  0  0  0  0  0  0  0  0
   -6.7670   21.1330  -31.9190 C   0  0  0  0  0  0  0  0  0  0  0  0
   -6.6220   19.9140  -32.5770 C   0  0  0  0  0  0  0  0  0  0  0  0
   -8.9772   18.9415  -31.2527 H   0  0  0  0  0  0  0  0  0  0  0  0
   -9.4534   19.8343  -32.7369 H   0  0  0  0  0  0  0  0  0  0  0  0
   -9.4328   18.0381  -32.7369 H   0  0  0  0  0  0  0  0  0  0  0  0
   -7.3330   17.0065  -33.7122 H   0  0  0  0  0  0  0  0  0  0  0  0
   -4.8390   17.6510  -34.0320 H   0  0  0  0  0  0  0  0  0  0  0  0
   -3.4781   17.7348  -33.5205 H   0  0  0  0  0  0  0  0  0  0  0  0
   -1.2827   17.0026  -34.4551 H   0  0  0  0  0  0  0  0  0  0  0  0
    0.4705   18.6907  -35.0064 H   0  0  0  0  0  0  0  0  0  0  0  0
    0.0332   21.1170  -34.6159 H   0  0  0  0  0  0  0  0  0  0  0  0
   -2.1572   21.8611  -33.6834 H   0  0  0  0  0  0  0  0  0  0  0  0
   -3.4978   22.1680  -32.2246 H   0  0  0  0  0  0  0  0  0  0  0  0
   -7.7554   23.0393  -30.3862 H   0  0  0  0  0  0  0  0  0  0  0  0
   -7.7711   25.2786  -29.2662 H   0  0  0  0  0  0  0  0  0  0  0  0
   -3.7608   25.9593  -30.5200 H   0  0  0  0  0  0  0  0  0  0  0  0
   -7.7423   21.4465  -31.5184 H   0  0  0  0  0  0  0  0  0  0  0  0
  1  2  1  0
  2  3  1  0
  3  4  2  0
  4  5  1  0
  5  6  2  0
  6  7  1  0
  7  8  2  0
  8  9  1  0
  9 10  2  0
 10 11  1  0
 11 12  2  0
  6 13  1  0
 13 14  2  0
 14 15  1  0
 15 16  2  0
 16 17  1  0
 17 18  2  0
 18 19  1  0
 19 20  2  0
 14 21  1  0
 21 22  2  0
 22  2  1  0
 22  5  1  0
 12  7  1  0
 20 15  1  0
  1 23  1  0
  1 24  1  0
  1 25  1  0
  3 26  1  0
  4 27  1  0
  8 28  1  0
  9 29  1  0
 10 30  1  0
 11 31  1  0
 12 32  1  0
 13 33  1  0
 16 34  1  0
 17 35  1  0
 19 36  1  0
 21 37  1  0
M  CHG  1   4   1
M  END
>  <UniqueID>  (7) 
7

>  <SMILES>  (7) 
Cn1c[nH+]c2c(-c3ccccc3)cc(-c3ccncn3)cc21

>  <Energy>  (7) 
90.47624920235695

>  <Genealogy>  (7) 
Cn1c[nH+]c2c(-c3ccccc3)cc(-c3ccncn3)cc21 (protonated)
Cn1c[nH+]c2c(-c3ccccc3)cc(-c3ccncn3)cc21 (3D coordinates assigned)
Cn1c[nH+]c2c(-c3ccccc3)cc(-c3ccncn3)cc21 (optimized conformer: 90.47624920235695 kcal/mol)

>  <smiles>  (7) 
Cn1cnc2c(-c3ccccc3)cc(-c3ccncn3)cc21

>  <score_type>  (7) 
oracle

>  <origin>  (7) 
adg

>  <m_score__min__energy>  (7) 
-7.1500000000000004

>  <m_primary>  (7) 
energy

$$$$
7:0
     RDKit          3D

 33 34  0  0  0  0  0  0  0  0999 V2000
   -4.6695   25.6427  -29.6516 H   0  0  0  0  0  0  0  0  0  0  0  0
   -4.3220   24.6870  -30.0710 C   0  0  0  0  0  0  0  0  0  0  0  0
   -4.7980   24.2850  -31.2100 N   0  0  0  0  0  0  0  0  0  0  0  0
   -6.2290   24.1440  -31.4700 C   0  0  0  0  0  0  0  0  0  0  0  0
   -6.4949   24.7518  -32.3474 H   0  0  0  0  0  0  0  0  0  0  0  0
   -6.7778   24.4835  -30.5792 H   0  0  0  0  0  0  0  0  0  0  0  0
   -6.6070   22.6830  -31.7420 C   0  0  0  0  0  0  0  0  0  0  0  0
   -5.8296   22.0297  -31.3190 H   0  0  0  0  0  0  0  0  0  0  0  0
   -6.6881   22.5486  -32.8307 H   0  0  0  0  0  0  0  0  0  0  0  0
   -7.9590   22.3160  -31.1150 C   0  0  0  0  0  0  0  0  0  0  0  0
   -8.5784   23.2220  -31.0409 H   0  0  0  0  0  0  0  0  0  0  0  0
   -7.7772   21.8893  -30.1176 H   0  0  0  0  0  0  0  0  0  0  0  0
   -8.6930   21.2780  -31.9600 C   0  0  0  0  0  0  0  0  0  0  0  0
   -9.2008   20.5599  -31.2993 H   0  0  0  0  0  0  0  0  0  0  0  0
   -9.4369   21.7816  -32.5948 H   0  0  0  0  0  0  0  0  0  0  0  0
   -7.9703   20.7445  -32.5948 H   0  0  0  0  0  0  0  0  0  0  0  0
   -3.3220   23.8900  -29.3220 C   0  0  0  0  0  0  0  0  0  0  0  0
   -2.0440   24.3920  -28.9820 C   0  0  0  0  0  0  0  0  0  0  0  0
   -1.6560   25.6780  -29.3390 O   0  0  0  0  0  0  0  0  0  0  0  0
   -1.1410   23.5950  -28.2710 C   0  0  0  0  0  0  0  0  0  0  0  0
   -0.1490   23.9935  -28.0117 H   0  0  0  0  0  0  0  0  0  0  0  0
   -1.4890   22.2930  -27.8860 C   0  0  0  0  0  0  0  0  0  0  0  0
   -0.5850   21.4920  -27.1720 C   0  0  0  0  0  0  0  0  0  0  0  0
    0.4081   21.8854  -26.9092 H   0  0  0  0  0  0  0  0  0  0  0  0
   -0.9440   20.1950  -26.7940 C   0  0  0  0  0  0  0  0  0  0  0  0
   -0.2321   19.5693  -26.2356 H   0  0  0  0  0  0  0  0  0  0  0  0
   -2.2060   19.6910  -27.1240 C   0  0  0  0  0  0  0  0  0  0  0  0
   -2.4841   18.6700  -26.8237 H   0  0  0  0  0  0  0  0  0  0  0  0
   -3.1150   20.4800  -27.8340 C   0  0  0  0  0  0  0  0  0  0  0  0
   -4.1063   20.0784  -28.0911 H   0  0  0  0  0  0  0  0  0  0  0  0
   -2.7660   21.7840  -28.2200 C   0  0  0  0  0  0  0  0  0  0  0  0
   -3.6690   22.5850  -28.9330 C   0  0  0  0  0  0  0  0  0  0  0  0
   -4.6615   22.1870  -29.1912 H   0  0  0  0  0  0  0  0  0  0  0  0
  1  2  1  0
  2  3  2  0
  3  4  1  0
  4  5  1  0
  4  6  1  0
  4  7  1  0
  7  8  1  0
  7  9  1  0
  7 10  1  0
 10 11  1  0
 10 12  1  0
 10 13  1  0
 13 14  1  0
 13 15  1  0
 13 16  1  0
  2 17  1  0
 17 18  2  0
 18 19  1  0
 18 20  1  0
 20 21  1  0
 20 22  2  0
 22 23  1  0
 23 24  1  0
 23 25  2  0
 25 26  1  0
 25 27  1  0
 27 28  1  0
 27 29  2  0
 29 30  1  0
 29 31  1  0
 31 32  2  0
 32 33  1  0
 32 17  1  0
 31 22  1  0
M  CHG  1  19  -1
M  END
>  <UniqueID>  (8) 
8

>  <SMILES>  (8) 
CCCC/N=C/c1cc2ccccc2cc1[O-]

>  <Energy>  (8) 
29.38377385072771

>  <Genealogy>  (8) 
CCCCN=Cc1cc2ccccc2cc1[O-] (protonated)
CCCC/N=C/c1cc2ccccc2cc1[O-] (cis-trans isomerization)
CCCC/N=C/c1cc2ccccc2cc1[O-] (3D coordinates assigned)
CCCC/N=C/c1cc2ccccc2cc1[O-] (optimized conformer: 29.38377385072771 kcal/mol)

>  <smiles>  (8) 
CCCCN=Cc1cc2ccccc2cc1O

>  <score_type>  (8) 
oracle

>  <origin>  (8) 
adg

>  <m_score__min__energy>  (8) 
-9.4600000000000009

>  <m_primary>  (8) 
energy

$$$$
8:0
     RDKit          3D

 48 51  0  0  0  0  0  0  0  0999 V2000
   -7.9980   18.6590  -32.3410 C   0  0  0  0  0  0  0  0  0  0  0  0
   -8.0890   20.1420  -32.1260 C   0  0  0  0  0  0  0  0  0  0  0  0
   -9.3310   20.7900  -32.1890 C   0  0  0  0  0  0  0  0  0  0  0  0
   -9.4170   22.1650  -31.9630 C   0  0  0  0  0  0  0  0  0  0  0  0
   -8.2700   22.9010  -31.6560 C   0  0  0  0  0  0  0  0  0  0  0  0
   -7.0220   22.2630  -31.5620 C   0  0  0  0  0  0  0  0  0  0  0  0
   -5.8380   23.0210  -31.2520 N   0  0  0  0  0  0  0  0  0  0  0  0
   -4.5140   22.4220  -31.4840 C   0  0  0  0  0  0  0  0  0  0  0  0
   -3.3960   23.2470  -30.8330 C   0  0  0  0  0  0  0  0  0  0  0  0
   -3.8210   23.7150  -29.5090 N   0  0  0  0  0  0  0  0  0  0  0  0
   -2.8990   23.6790  -28.4130 C   0  0  0  0  0  0  0  0  0  0  0  0
   -2.3690   24.8770  -27.9270 C   0  0  0  0  0  0  0  0  0  0  0  0
   -1.4650   24.8590  -26.8580 C   0  0  0  0  0  0  0  0  0  0  0  0
   -0.9270   26.1490  -26.3110 C   0  0  0  0  0  0  0  0  0  0  0  0
   -1.1260   23.6740  -26.2740 N   0  0  0  0  0  0  0  0  0  0  0  0
   -1.6200   22.4840  -26.7260 C   0  0  0  0  0  0  0  0  0  0  0  0
   -1.2380   21.2790  -26.1140 C   0  0  0  0  0  0  0  0  0  0  0  0
   -1.7380   20.0620  -26.5810 C   0  0  0  0  0  0  0  0  0  0  0  0
   -2.6210   20.0340  -27.6610 C   0  0  0  0  0  0  0  0  0  0  0  0
   -3.0140   21.2240  -28.2800 C   0  0  0  0  0  0  0  0  0  0  0  0
   -2.5220   22.4600  -27.8190 C   0  0  0  0  0  0  0  0  0  0  0  0
   -5.1320   24.3510  -29.3190 C   0  0  0  0  0  0  0  0  0  0  0  0
   -5.9400   24.3430  -30.6180 C   0  0  0  0  0  0  0  0  0  0  0  0
   -6.9400   20.8790  -31.7990 C   0  0  0  0  0  0  0  0  0  0  0  0
   -7.9667   18.1486  -31.3671 H   0  0  0  0  0  0  0  0  0  0  0  0
   -8.8768   18.3159  -32.9067 H   0  0  0  0  0  0  0  0  0  0  0  0
   -7.0839   18.4259  -32.9067 H   0  0  0  0  0  0  0  0  0  0  0  0
  -10.2397   20.2135  -32.4170 H   0  0  0  0  0  0  0  0  0  0  0  0
  -10.3917   22.6708  -32.0269 H   0  0  0  0  0  0  0  0  0  0  0  0
   -8.3444   23.9854  -31.4870 H   0  0  0  0  0  0  0  0  0  0  0  0
   -4.5022   21.4075  -31.0589 H   0  0  0  0  0  0  0  0  0  0  0  0
   -4.3343   22.3968  -32.5689 H   0  0  0  0  0  0  0  0  0  0  0  0
   -2.4971   22.6219  -30.7268 H   0  0  0  0  0  0  0  0  0  0  0  0
   -3.1736   24.1170  -31.4683 H   0  0  0  0  0  0  0  0  0  0  0  0
   -2.6618   25.8338  -28.3840 H   0  0  0  0  0  0  0  0  0  0  0  0
   -0.9411   26.1153  -25.2116 H   0  0  0  0  0  0  0  0  0  0  0  0
    0.1061   26.2928  -26.6603 H   0  0  0  0  0  0  0  0  0  0  0  0
   -1.5518   26.9843  -26.6603 H   0  0  0  0  0  0  0  0  0  0  0  0
   -0.4680   23.6810  -25.4600 H   0  0  0  0  0  0  0  0  0  0  0  0
   -0.5416   21.2942  -25.2627 H   0  0  0  0  0  0  0  0  0  0  0  0
   -1.4349   19.1223  -26.0960 H   0  0  0  0  0  0  0  0  0  0  0  0
   -3.0092   19.0719  -28.0266 H   0  0  0  0  0  0  0  0  0  0  0  0
   -3.7106   21.1947  -29.1308 H   0  0  0  0  0  0  0  0  0  0  0  0
   -5.6892   23.8020  -28.5456 H   0  0  0  0  0  0  0  0  0  0  0  0
   -4.9731   25.3953  -29.0121 H   0  0  0  0  0  0  0  0  0  0  0  0
   -6.9946   24.5619  -30.3948 H   0  0  0  0  0  0  0  0  0  0  0  0
   -5.5425   25.1082  -31.3010 H   0  0  0  0  0  0  0  0  0  0  0  0
   -5.9675   20.3700  -31.7275 H   0  0  0  0  0  0  0  0  0  0  0  0
  1  2  1  0
  2  3  2  0
  3  4  1  0
  4  5  2  0
  5  6  1  0
  6  7  1  0
  7  8  1  0
  8  9  1  0
  9 10  1  0
 10 11  1  0
 11 12  2  0
 12 13  1  0
 13 14  1  0
 13 15  2  0
 15 16  1  0
 16 17  2  0
 17 18  1  0
 18 19  2  0
 19 20  1  0
 20 21  2  0
 10 22  1  0
 22 23  1  0
  6 24  2  0
 24  2  1  0
 23  7  1  0
 21 11  1  0
 21 16  1  0
  1 25  1  0
  1 26  1  0
  1 27  1  0
  3 28  1  0
  4 29  1  0
  5 30  1  0
  8 31  1  0
  8 32  1  0
  9 33  1  0
  9 34  1  0
 12 35  1  0
 14 36  1  0
 14 37  1  0
 14 38  1  0
 15 39  1  0
 17 40  1  0
 18 41  1  0
 19 42  1  0
 20 43  1  0
 22 44  1  0
 22 45  1  0
 23 46  1  0
 23 47  1  0
 24 48  1  0
M  CHG  1  15   1
M  END
>  <UniqueID>  (9) 
9

>  <SMILES>  (9) 
Cc1cccc(N2CCN(c3cc(C)[nH+]c4ccccc34)CC2)c1

>  <Energy>  (9) 
62.87737310330234

>  <Genealogy>  (9) 
Cc1cccc(N2CCN(c3cc(C)[nH+]c4ccccc34)CC2)c1 (protonated)
Cc1cccc(N2CCN(c3cc(C)[nH+]c4ccccc34)CC2)c1 (3D coordinates assigned)
Cc1cccc(N2CCN(c3cc(C)[nH+]c4ccccc34)CC2)c1 (nonaromatic ring conformer: 62.87737310330234 kcal/mol)

>  <smiles>  (9) 
Cc1cccc(N2CCN(c3cc(C)nc4ccccc34)CC2)c1

>  <score_type>  (9) 
oracle

>  <origin>  (9) 
adg

>  <m_score__min__energy>  (9) 
-8.2200000000000006

>  <m_primary>  (9) 
energy

$$$$
9:0
     RDKit          3D

 53 56  0  0  0  0  0  0  0  0999 V2000
    0.2310   26.0340  -28.5570 H   0  0  0  0  0  0  0  0  0  0  0  0
   -0.6240   25.5270  -28.2340 N   0  0  0  0  0  0  0  0  0  0  0  0
   -1.2220   24.6640  -28.9890 C   0  0  0  0  0  0  0  0  0  0  0  0
   -0.5440   23.5910  -29.4740 N   0  0  0  0  0  0  0  0  0  0  0  0
   -1.1620   22.6770  -30.2630 C   0  0  0  0  0  0  0  0  0  0  0  0
   -2.5200   22.8360  -30.5940 C   0  0  0  0  0  0  0  0  0  0  0  0
   -3.1220   21.8920  -31.3630 N   0  0  0  0  0  0  0  0  0  0  0  0
   -2.4520   20.8040  -31.8320 C   0  0  0  0  0  0  0  0  0  0  0  0
   -3.1700   19.8130  -32.6730 C   0  0  0  0  0  0  0  0  0  0  0  0
   -2.4410   18.9580  -33.5190 C   0  0  0  0  0  0  0  0  0  0  0  0
   -1.3432   19.0229  -33.5456 H   0  0  0  0  0  0  0  0  0  0  0  0
   -3.0990   18.0280  -34.3250 C   0  0  0  0  0  0  0  0  0  0  0  0
   -2.5186   17.3606  -34.9790 H   0  0  0  0  0  0  0  0  0  0  0  0
   -4.4920   17.9430  -34.3030 C   0  0  0  0  0  0  0  0  0  0  0  0
   -5.0028   17.2048  -34.9386 H   0  0  0  0  0  0  0  0  0  0  0  0
   -5.2440   18.7870  -33.4810 C   0  0  0  0  0  0  0  0  0  0  0  0
   -6.6420   18.6620  -33.5080 O   0  0  0  0  0  0  0  0  0  0  0  0
   -7.4130   17.8210  -32.6530 C   0  0  0  0  0  0  0  0  0  0  0  0
   -7.3150   16.5170  -33.1010 F   0  0  0  0  0  0  0  0  0  0  0  0
   -6.9300   17.8830  -31.3590 F   0  0  0  0  0  0  0  0  0  0  0  0
   -8.7430   18.2020  -32.6790 F   0  0  0  0  0  0  0  0  0  0  0  0
   -4.5780   19.7270  -32.6670 C   0  0  0  0  0  0  0  0  0  0  0  0
   -5.1621   20.3993  -32.0214 H   0  0  0  0  0  0  0  0  0  0  0  0
   -1.0890   20.6670  -31.5150 C   0  0  0  0  0  0  0  0  0  0  0  0
   -0.5182   19.8069  -31.8950 H   0  0  0  0  0  0  0  0  0  0  0  0
   -0.4780   21.6010  -30.7370 N   0  0  0  0  0  0  0  0  0  0  0  0
    0.5340   21.4850  -30.5030 H   0  0  0  0  0  0  0  0  0  0  0  0
   -3.2110   23.9610  -30.0950 C   0  0  0  0  0  0  0  0  0  0  0  0
   -4.6030   24.2170  -30.3830 N   0  0  0  0  0  0  0  0  0  0  0  0
   -5.3920   25.3180  -29.8420 C   0  0  0  0  0  0  0  0  0  0  0  0
   -5.2129   25.4219  -28.7617 H   0  0  0  0  0  0  0  0  0  0  0  0
   -5.1220   26.2758  -30.3108 H   0  0  0  0  0  0  0  0  0  0  0  0
   -6.8490   24.9590  -30.1050 C   0  0  0  0  0  0  0  0  0  0  0  0
   -7.3058   24.5094  -29.2110 H   0  0  0  0  0  0  0  0  0  0  0  0
   -7.4578   25.8406  -30.3544 H   0  0  0  0  0  0  0  0  0  0  0  0
   -6.7950   23.9430  -31.2560 C   0  0  2  0  0  0  0  0  0  0  0  0
   -6.9136   24.4524  -32.2237 H   0  0  0  0  0  0  0  0  0  0  0  0
   -7.9490   23.0030  -31.3460 N   0  0  0  0  0  0  0  0  0  0  0  0
   -8.9560   23.4190  -32.3380 C   0  0  0  0  0  0  0  0  0  0  0  0
   -9.8519   23.7891  -31.8180 H   0  0  0  0  0  0  0  0  0  0  0  0
   -8.5410   24.2193  -32.9683 H   0  0  0  0  0  0  0  0  0  0  0  0
   -9.2269   22.5591  -32.9683 H   0  0  0  0  0  0  0  0  0  0  0  0
   -7.7150   21.5380  -31.3310 C   0  0  0  0  0  0  0  0  0  0  0  0
   -7.0929   21.2814  -32.2011 H   0  0  0  0  0  0  0  0  0  0  0  0
   -7.2300   21.3105  -30.3702 H   0  0  0  0  0  0  0  0  0  0  0  0
   -8.9860   20.6870  -31.3860 C   0  0  0  0  0  0  0  0  0  0  0  0
   -9.3214   20.4624  -30.3628 H   0  0  0  0  0  0  0  0  0  0  0  0
   -9.7747   21.2398  -31.9174 H   0  0  0  0  0  0  0  0  0  0  0  0
   -8.7753   19.7472  -31.9174 H   0  0  0  0  0  0  0  0  0  0  0  0
   -5.4130   23.2870  -31.1560 C   0  0  0  0  0  0  0  0  0  0  0  0
   -5.4829   22.3171  -30.6418 H   0  0  0  0  0  0  0  0  0  0  0  0
   -4.9790   23.0903  -32.1475 H   0  0  0  0  0  0  0  0  0  0  0  0
   -2.5340   24.8360  -29.2990 N   0  0  0  0  0  0  0  0  0  0  0  0
  1  2  1  0
  2  3  2  0
  3  4  1  0
  4  5  2  0
  5  6  1  0
  6  7  1  0
  7  8  2  0
  8  9  1  0
  9 10  2  0
 10 11  1  0
 10 12  1  0
 12 13  1  0
 12 14  2  0
 14 15  1  0
 14 16  1  0
 16 17  1  0
 17 18  1  0
 18 19  1  0
 18 20  1  0
 18 21  1  0
 16 22  2  0
 22 23  1  0
  8 24  1  0
 24 25  1  0
 24 26  2  0
 26 27  1  0
  6 28  2  0
 28 29  1  0
 29 30  1  0
 30 31  1  0
 30 32  1  0
 30 33  1  0
 33 34  1  0
 33 35  1  0
 33 36  1  0
 36 37  1  6
 36 38  1  0
 38 39  1  0
 39 40  1  0
 39 41  1  0
 39 42  1  0
 38 43  1  0
 43 44  1  0
 43 45  1  0
 43 46  1  0
 46 47  1  0
 46 48  1  0
 46 49  1  0
 36 50  1  0
 50 51  1  0
 50 52  1  0
 28 53  1  0
 53  3  1  0
 26  5  1  0
 50 29  1  0
 22  9  1  0
M  CHG  2  26   1  53  -1
M  END
>  <UniqueID>  (10) 
10

>  <SMILES>  (10) 
[H]/N=c1\nc2[nH+]cc(-c3cccc(OC(F)(F)F)c3)nc2c(N2CC[C@H](N(C)CC)C2)[n-]1

>  <Energy>  (10) 
78.87373651034613

>  <Genealogy>  (10) 
CCN(C)C1CCN(c2[n-]c(=N)nc3[nH+]cc(-c4cccc(OC(F)(F)F)c4)nc23)C1 (protonated)
CCN(C)[C@H]1CCN(c2[n-]c(=N)nc3[nH+]cc(-c4cccc(OC(F)(F)F)c4)nc23)C1 (chirality)
[H]/N=c1\nc2[nH+]cc(-c3cccc(OC(F)(F)F)c3)nc2c(N2CC[C@H](N(C)CC)C2)[n-]1 (cis-trans isomerization)
[H]/N=c1\nc2[nH+]cc(-c3cccc(OC(F)(F)F)c3)nc2c(N2CC[C@H](N(C)CC)C2)[n-]1 (3D coordinates assigned)
[H]/N=c1\nc2[nH+]cc(-c3cccc(OC(F)(F)F)c3)nc2c(N2CC[C@H](N(C)CC)C2)[n-]1 (nonaromatic ring conformer: 78.87373651034613 kcal/mol)

>  <smiles>  (10) 
CCN(C)C1CCN(c2[nH]c(=N)nc3ncc(-c4cccc(OC(F)(F)F)c4)nc23)C1

>  <score_type>  (10) 
oracle

>  <origin>  (10) 
adg

>  <m_score__min__energy>  (10) 
-8.6799999999999997

>  <m_primary>  (10) 
energy

$$$$
10:0
     RDKit          3D

 52 55  0  0  0  0  0  0  0  0999 V2000
   -2.5860   24.5520  -29.2960 C   0  0  0  0  0  0  0  0  0  0  0  0
   -3.4800   24.8380  -30.3670 O   0  0  0  0  0  0  0  0  0  0  0  0
   -4.4700   23.9580  -30.8290 C   0  0  0  0  0  0  0  0  0  0  0  0
   -4.0900   22.6540  -31.1700 C   0  0  0  0  0  0  0  0  0  0  0  0
   -5.0330   21.7340  -31.6380 C   0  0  0  0  0  0  0  0  0  0  0  0
   -6.3780   22.1130  -31.7820 C   0  0  0  0  0  0  0  0  0  0  0  0
   -7.3710   21.2320  -32.2510 C   0  0  0  0  0  0  0  0  0  0  0  0
   -7.0520   19.8960  -32.6660 N   0  0  0  0  0  0  0  0  0  0  0  0
   -6.3550   19.6800  -33.9360 C   0  0  0  0  0  0  0  0  0  0  0  0
   -5.3510   18.5200  -33.8270 C   0  0  0  0  0  0  0  0  0  0  0  0
   -5.7610   17.3770  -32.8450 C   0  0  0  0  0  0  0  0  0  0  0  0
   -5.3050   16.0570  -33.3760 N   0  0  0  0  0  0  0  0  0  0  0  0
   -4.8310   15.1720  -32.2900 C   0  0  0  0  0  0  0  0  0  0  0  0
   -4.1000   13.9510  -32.8820 C   0  0  0  0  0  0  0  0  0  0  0  0
   -4.6400   13.5210  -34.1920 N   0  0  0  0  0  0  0  0  0  0  0  0
   -3.8450   14.0380  -35.3210 C   0  0  0  0  0  0  0  0  0  0  0  0
   -6.0710   13.8440  -34.3340 C   0  0  0  0  0  0  0  0  0  0  0  0
   -6.3560   15.3540  -34.1560 C   0  0  0  0  0  0  0  0  0  0  0  0
   -7.2930   17.4250  -32.5970 C   0  0  0  0  0  0  0  0  0  0  0  0
   -7.7020   18.7730  -31.9860 C   0  0  0  0  0  0  0  0  0  0  0  0
   -8.6630   21.6550  -32.3200 N   0  0  0  0  0  0  0  0  0  0  0  0
   -9.0150   22.9160  -31.9620 C   0  0  0  0  0  0  0  0  0  0  0  0
   -8.0730   23.7890  -31.5230 N   0  0  0  0  0  0  0  0  0  0  0  0
   -6.7700   23.4220  -31.4240 C   0  0  0  0  0  0  0  0  0  0  0  0
   -5.8190   24.3370  -30.9560 C   0  0  0  0  0  0  0  0  0  0  0  0
   -3.0987   24.7160  -28.3367 H   0  0  0  0  0  0  0  0  0  0  0  0
   -2.2581   23.5041  -29.3620 H   0  0  0  0  0  0  0  0  0  0  0  0
   -1.7107   25.2150  -29.3620 H   0  0  0  0  0  0  0  0  0  0  0  0
   -3.0377   22.3501  -31.0685 H   0  0  0  0  0  0  0  0  0  0  0  0
   -4.7209   20.7108  -31.8941 H   0  0  0  0  0  0  0  0  0  0  0  0
   -7.0941   19.4432  -34.7156 H   0  0  0  0  0  0  0  0  0  0  0  0
   -5.8031   20.5965  -34.1916 H   0  0  0  0  0  0  0  0  0  0  0  0
   -5.2280   18.0810  -34.8281 H   0  0  0  0  0  0  0  0  0  0  0  0
   -4.4253   18.9541  -33.4213 H   0  0  0  0  0  0  0  0  0  0  0  0
   -5.2669   17.5193  -31.8726 H   0  0  0  0  0  0  0  0  0  0  0  0
   -4.1400   15.7303  -31.6413 H   0  0  0  0  0  0  0  0  0  0  0  0
   -5.6958   14.8250  -31.7054 H   0  0  0  0  0  0  0  0  0  0  0  0
   -3.0382   14.2085  -33.0100 H   0  0  0  0  0  0  0  0  0  0  0  0
   -4.2434   13.1153  -32.1813 H   0  0  0  0  0  0  0  0  0  0  0  0
   -2.9816   14.5995  -34.9347 H   0  0  0  0  0  0  0  0  0  0  0  0
   -3.4905   13.1972  -35.9353 H   0  0  0  0  0  0  0  0  0  0  0  0
   -4.4698   14.7030  -35.9353 H   0  0  0  0  0  0  0  0  0  0  0  0
   -6.4044   13.5375  -35.3364 H   0  0  0  0  0  0  0  0  0  0  0  0
   -6.6161   13.3049  -33.5452 H   0  0  0  0  0  0  0  0  0  0  0  0
   -6.4224   15.8175  -35.1513 H   0  0  0  0  0  0  0  0  0  0  0  0
   -7.2978   15.4464  -33.5953 H   0  0  0  0  0  0  0  0  0  0  0  0
   -7.8181   17.2881  -33.5538 H   0  0  0  0  0  0  0  0  0  0  0  0
   -7.5629   16.6222  -31.8951 H   0  0  0  0  0  0  0  0  0  0  0  0
   -8.7927   18.8871  -32.0722 H   0  0  0  0  0  0  0  0  0  0  0  0
   -7.3867   18.7815  -30.9322 H   0  0  0  0  0  0  0  0  0  0  0  0
  -10.0668   23.2314  -32.0278 H   0  0  0  0  0  0  0  0  0  0  0  0
   -6.1282   25.3576  -30.6862 H   0  0  0  0  0  0  0  0  0  0  0  0
  1  2  1  0
  2  3  1  0
  3  4  2  0
  4  5  1  0
  5  6  2  0
  6  7  1  0
  7  8  1  0
  8  9  1  0
  9 10  1  0
 10 11  1  0
 11 12  1  0
 12 13  1  0
 13 14  1  0
 14 15  1  0
 15 16  1  0
 15 17  1  0
 17 18  1  0
 11 19  1  0
 19 20  1  0
  7 21  2  0
 21 22  1  0
 22 23  2  0
 23 24  1  0
 24 25  2  0
 25  3  1  0
 24  6  1  0
 20  8  1  0
 18 12  1  0
  1 26  1  0
  1 27  1  0
  1 28  1  0
  4 29  1  0
  5 30  1  0
  9 31  1  0
  9 32  1  0
 10 33  1  0
 10 34  1  0
 11 35  1  0
 13 36  1  0
 13 37  1  0
 14 38  1  0
 14 39  1  0
 16 40  1  0
 16 41  1  0
 16 42  1  0
 17 43  1  0
 17 44  1  0
 18 45  1  0
 18 46  1  0
 19 47  1  0
 19 48  1  0
 20 49  1  0
 20 50  1  0
 22 51  1  0
 25 52  1  0
M  END
>  <UniqueID>  (11) 
11

>  <SMILES>  (11) 
COc1ccc2c(N3CCC(N4CCN(C)CC4)CC3)ncnc2c1

>  <Energy>  (11) 
80.88592474679005

>  <Genealogy>  (11) 
COc1ccc2c(N3CCC(N4CCN(C)CC4)CC3)ncnc2c1 (3D coordinates assigned)
COc1ccc2c(N3CCC(N4CCN(C)CC4)CC3)ncnc2c1 (nonaromatic ring conformer: 80.88592474679005 kcal/mol)

>  <smiles>  (11) 
COc1ccc2c(N3CCC(N4CCN(C)CC4)CC3)ncnc2c1

>  <score_type>  (11) 
oracle

>  <origin>  (11) 
adg

>  <m_score__min__energy>  (11) 
-8.4000000000000004

>  <m_primary>  (11) 
energy

$$$$
11:0
     RDKit          3D

 33 34  0  0  0  0  0  0  0  0999 V2000
   -6.1230   17.6130  -31.3110 C   0  0  0  0  0  0  0  0  0  0  0  0
   -5.4570   16.8170  -32.3920 C   0  0  0  0  0  0  0  0  0  0  0  0
   -5.3880   15.4640  -32.2630 N   0  0  0  0  0  0  0  0  0  0  0  0
   -4.7980   14.6970  -33.1800 N   0  0  0  0  0  0  0  0  0  0  0  0
   -4.2330   15.2360  -34.2910 C   0  0  0  0  0  0  0  0  0  0  0  0
   -4.2770   16.6130  -34.4850 C   0  0  0  0  0  0  0  0  0  0  0  0
   -4.9040   17.4250  -33.5360 C   0  0  0  0  0  0  0  0  0  0  0  0
   -4.9700   18.8460  -33.7450 N   0  0  0  0  0  0  0  0  0  0  0  0
   -3.7510   19.6630  -33.7540 C   0  0  0  0  0  0  0  0  0  0  0  0
   -3.9520   20.9660  -33.0250 C   0  0  0  0  0  0  0  0  0  0  0  0
   -5.1600   21.4050  -32.6350 C   0  0  0  0  0  0  0  0  0  0  0  0
   -5.2650   22.6730  -31.9590 C   0  0  0  0  0  0  0  0  0  0  0  0
   -5.3530   23.7340  -31.3930 C   0  0  0  0  0  0  0  0  0  0  0  0
   -5.4600   25.0260  -30.7070 C   0  0  0  0  0  0  0  0  0  0  0  0
   -4.2080   25.6510  -30.6620 O   0  0  0  0  0  0  0  0  0  0  0  0
   -6.4020   20.5580  -32.7700 C   0  0  0  0  0  0  0  0  0  0  0  0
   -6.2600   19.5200  -33.8820 C   0  0  0  0  0  0  0  0  0  0  0  0
   -5.8059   17.2340  -30.3282 H   0  0  0  0  0  0  0  0  0  0  0  0
   -5.8371   18.6710  -31.4056 H   0  0  0  0  0  0  0  0  0  0  0  0
   -7.2148   17.5183  -31.4056 H   0  0  0  0  0  0  0  0  0  0  0  0
   -4.7680   13.6630  -33.0380 H   0  0  0  0  0  0  0  0  0  0  0  0
   -3.7436   14.5879  -35.0330 H   0  0  0  0  0  0  0  0  0  0  0  0
   -3.8207   17.0601  -35.3805 H   0  0  0  0  0  0  0  0  0  0  0  0
   -2.9412   19.1015  -33.2651 H   0  0  0  0  0  0  0  0  0  0  0  0
   -3.4959   19.8894  -34.7998 H   0  0  0  0  0  0  0  0  0  0  0  0
   -3.0705   21.5852  -32.8023 H   0  0  0  0  0  0  0  0  0  0  0  0
   -6.1684   25.6689  -31.2500 H   0  0  0  0  0  0  0  0  0  0  0  0
   -5.8172   24.8602  -29.6799 H   0  0  0  0  0  0  0  0  0  0  0  0
   -3.8540   25.6450  -31.5910 H   0  0  0  0  0  0  0  0  0  0  0  0
   -6.5840   20.0379  -31.8180 H   0  0  0  0  0  0  0  0  0  0  0  0
   -7.2427   21.2202  -33.0244 H   0  0  0  0  0  0  0  0  0  0  0  0
   -7.0716   18.7818  -33.8027 H   0  0  0  0  0  0  0  0  0  0  0  0
   -6.3166   20.0165  -34.8620 H   0  0  0  0  0  0  0  0  0  0  0  0
  1  2  1  0
  2  3  2  0
  3  4  1  0
  4  5  2  0
  5  6  1  0
  6  7  2  0
  7  8  1  0
  8  9  1  0
  9 10  1  0
 10 11  2  0
 11 12  1  0
 12 13  3  0
 13 14  1  0
 14 15  1  0
 11 16  1  0
 16 17  1  0
  7  2  1  0
 17  8  1  0
  1 18  1  0
  1 19  1  0
  1 20  1  0
  4 21  1  0
  5 22  1  0
  6 23  1  0
  9 24  1  0
  9 25  1  0
 10 26  1  0
 14 27  1  0
 14 28  1  0
 15 29  1  0
 16 30  1  0
 16 31  1  0
 17 32  1  0
 17 33  1  0
M  CHG  1   4   1
M  END
>  <UniqueID>  (12) 
12

>  <SMILES>  (12) 
Cc1n[nH+]ccc1N1CC=C(C#CCO)CC1

>  <Energy>  (12) 
32.89589169775631

>  <Genealogy>  (12) 
Cc1n[nH+]ccc1N1CC=C(C#CCO)CC1 (protonated)
Cc1n[nH+]ccc1N1CC=C(C#CCO)CC1 (3D coordinates assigned)
Cc1n[nH+]ccc1N1CC=C(C#CCO)CC1 (nonaromatic ring conformer: 32.89589169775631 kcal/mol)

>  <smiles>  (12) 
Cc1nnccc1N1CC=C(C#CCO)CC1

>  <score_type>  (12) 
oracle

>  <origin>  (12) 
adg

>  <m_score__min__energy>  (12) 
-6.3399999999999999

>  <m_primary>  (12) 
energy

$$$$
12:0
     RDKit          3D

 47 50  0  0  0  0  0  0  0  0999 V2000
   -9.3850   23.4300  -32.3420 C   0  0  0  0  0  0  0  0  0  0  0  0
   -8.6100   22.6240  -31.5010 O   0  0  0  0  0  0  0  0  0  0  0  0
   -8.1130   21.3850  -31.7950 C   0  0  0  0  0  0  0  0  0  0  0  0
   -9.0010   20.3130  -31.7480 C   0  0  0  0  0  0  0  0  0  0  0  0
   -8.5660   19.0350  -32.0340 C   0  0  0  0  0  0  0  0  0  0  0  0
   -7.2390   18.8600  -32.3630 C   0  0  0  0  0  0  0  0  0  0  0  0
   -6.6550   17.2570  -32.7300 Cl  0  0  0  0  0  0  0  0  0  0  0  0
   -6.3760   19.9260  -32.4040 C   0  0  0  0  0  0  0  0  0  0  0  0
   -6.7840   21.2340  -32.1200 C   0  0  0  0  0  0  0  0  0  0  0  0
   -5.6500   22.5610  -32.1840 S   0  0  0  0  0  0  0  0  0  0  0  0
   -4.6020   22.2350  -33.2400 O   0  0  0  0  0  0  0  0  0  0  0  0
   -6.3990   23.7510  -32.7280 O   0  0  0  0  0  0  0  0  0  0  0  0
   -4.8680   22.8870  -30.7270 N   0  0  0  0  0  0  0  0  0  0  0  0
   -3.8280   22.0810  -30.3050 C   0  0  0  0  0  0  0  0  0  0  0  0
   -2.8620   22.8300  -29.3750 C   0  0  0  0  0  0  0  0  0  0  0  0
   -3.6900   23.4540  -28.2960 C   0  0  0  0  0  0  0  0  0  0  0  0
   -2.8670   24.1050  -27.2580 C   0  0  0  0  0  0  0  0  0  0  0  0
   -1.7000   23.6600  -26.7450 N   0  0  0  0  0  0  0  0  0  0  0  0
   -1.2600   24.5410  -25.8170 C   0  0  0  0  0  0  0  0  0  0  0  0
   -0.1470   24.5900  -24.9960 C   0  0  0  0  0  0  0  0  0  0  0  0
    0.0650   25.6300  -24.1170 C   0  0  0  0  0  0  0  0  0  0  0  0
   -0.8770   26.6390  -24.0760 C   0  0  0  0  0  0  0  0  0  0  0  0
   -1.9810   26.5850  -24.8950 C   0  0  0  0  0  0  0  0  0  0  0  0
   -2.2210   25.5590  -25.7830 C   0  0  0  0  0  0  0  0  0  0  0  0
   -3.1900   25.2690  -26.6710 N   0  0  0  0  0  0  0  0  0  0  0  0
   -4.5600   24.5240  -28.9290 C   0  0  0  0  0  0  0  0  0  0  0  0
   -5.4720   23.8570  -29.9460 C   0  0  0  0  0  0  0  0  0  0  0  0
  -10.0202   24.0906  -31.7336 H   0  0  0  0  0  0  0  0  0  0  0  0
   -8.7247   24.0391  -32.9768 H   0  0  0  0  0  0  0  0  0  0  0  0
  -10.0195   22.7940  -32.9768 H   0  0  0  0  0  0  0  0  0  0  0  0
  -10.0542   20.4859  -31.4816 H   0  0  0  0  0  0  0  0  0  0  0  0
   -9.2582   18.1807  -32.0004 H   0  0  0  0  0  0  0  0  0  0  0  0
   -5.3240   19.7456  -32.6701 H   0  0  0  0  0  0  0  0  0  0  0  0
   -4.2440   21.2179  -29.7646 H   0  0  0  0  0  0  0  0  0  0  0  0
   -3.2645   21.7596  -31.1934 H   0  0  0  0  0  0  0  0  0  0  0  0
   -2.1379   22.1272  -28.9370 H   0  0  0  0  0  0  0  0  0  0  0  0
   -2.2973   23.5946  -29.9286 H   0  0  0  0  0  0  0  0  0  0  0  0
   -4.2784   22.6558  -27.8199 H   0  0  0  0  0  0  0  0  0  0  0  0
    0.5900   23.7750  -25.0465 H   0  0  0  0  0  0  0  0  0  0  0  0
    0.9543   25.6556  -23.4701 H   0  0  0  0  0  0  0  0  0  0  0  0
   -0.7444   27.4868  -23.3877 H   0  0  0  0  0  0  0  0  0  0  0  0
   -2.7117   27.4052  -24.8379 H   0  0  0  0  0  0  0  0  0  0  0  0
   -4.0130   25.8900  -26.8180 H   0  0  0  0  0  0  0  0  0  0  0  0
   -5.1649   25.0180  -28.1544 H   0  0  0  0  0  0  0  0  0  0  0  0
   -3.9320   25.2809  -29.4217 H   0  0  0  0  0  0  0  0  0  0  0  0
   -6.3041   23.3870  -29.4013 H   0  0  0  0  0  0  0  0  0  0  0  0
   -5.7941   24.6504  -30.6364 H   0  0  0  0  0  0  0  0  0  0  0  0
  1  2  1  0
  2  3  1  0
  3  4  2  0
  4  5  1  0
  5  6  2  0
  6  7  1  0
  6  8  1  0
  8  9  2  0
  9 10  1  0
 10 11  2  0
 10 12  2  0
 10 13  1  0
 13 14  1  0
 14 15  1  0
 15 16  1  0
 16 17  1  0
 17 18  2  0
 18 19  1  0
 19 20  2  0
 20 21  1  0
 21 22  2  0
 22 23  1  0
 23 24  2  0
 24 25  1  0
 16 26  1  0
 26 27  1  0
  9  3  1  0
 27 13  1  0
 25 17  1  0
 24 19  1  0
  1 28  1  0
  1 29  1  0
  1 30  1  0
  4 31  1  0
  5 32  1  0
  8 33  1  0
 14 34  1  0
 14 35  1  0
 15 36  1  0
 15 37  1  0
 16 38  1  0
 20 39  1  0
 21 40  1  0
 22 41  1  0
 23 42  1  0
 25 43  1  0
 26 44  1  0
 26 45  1  0
 27 46  1  0
 27 47  1  0
M  END
>  <smiles>  (13) 
COc1ccc(Cl)cc1S(=O)(=O)N1CCC(c2nc3ccccc3[nH]2)CC1

>  <score_type>  (13) 
oracle

>  <origin>  (13) 
adg

>  <m_score__min__energy>  (13) 
-9.2100000000000009

>  <m_primary>  (13) 
energy

$$$$
13:0
     RDKit          3D

 47 49  0  0  0  0  0  0  0  0999 V2000
   -5.1990   18.1470  -34.5540 C   0  0  0  0  0  0  0  0  0  0  0  0
   -4.2250   19.1010  -34.1460 O   0  0  0  0  0  0  0  0  0  0  0  0
   -4.4330   20.0720  -33.1560 C   0  0  0  0  0  0  0  0  0  0  0  0
   -5.7200   20.4480  -32.7260 C   0  0  0  0  0  0  0  0  0  0  0  0
   -5.8760   21.4200  -31.7350 C   0  0  0  0  0  0  0  0  0  0  0  0
   -4.7540   22.0320  -31.1550 C   0  0  0  0  0  0  0  0  0  0  0  0
   -4.9170   23.0280  -30.1280 N   0  0  0  0  0  0  0  0  0  0  0  0
   -4.9820   22.6420  -28.7140 C   0  0  0  0  0  0  0  0  0  0  0  0
   -3.7810   23.1500  -27.9770 C   0  0  0  0  0  0  0  0  0  0  0  0
   -3.0870   22.3450  -27.2980 O   0  0  0  0  0  0  0  0  0  0  0  0
   -3.4690   24.5510  -28.0020 N   0  0  0  0  0  0  0  0  0  0  0  0
   -2.3250   25.1330  -27.3540 C   0  0  0  0  0  0  0  0  0  0  0  0
   -1.1000   25.1880  -28.0410 C   0  0  0  0  0  0  0  0  0  0  0  0
    0.0320   25.7380  -27.4320 C   0  0  0  0  0  0  0  0  0  0  0  0
   -0.0490   26.2260  -26.1270 C   0  0  0  0  0  0  0  0  0  0  0  0
   -1.2520   26.1300  -25.4150 C   0  0  0  0  0  0  0  0  0  0  0  0
   -2.3900   25.5950  -26.0270 C   0  0  0  0  0  0  0  0  0  0  0  0
   -1.2940   26.5700  -24.0880 O   0  0  0  0  0  0  0  0  0  0  0  0
   -0.0920   26.8560  -23.3670 C   0  0  0  0  0  0  0  0  0  0  0  0
    0.9280   27.5390  -24.2870 C   0  0  0  0  0  0  0  0  0  0  0  0
    1.0630   26.8070  -25.5070 O   0  0  0  0  0  0  0  0  0  0  0  0
   -5.1830   24.6920  -30.5730 S   0  0  0  0  0  0  0  0  0  0  0  0
   -6.3260   25.4660  -29.4470 C   0  0  0  0  0  0  0  0  0  0  0  0
   -3.8790   25.4380  -30.5460 O   0  0  0  0  0  0  0  0  0  0  0  0
   -5.7420   24.7550  -31.9680 O   0  0  0  0  0  0  0  0  0  0  0  0
   -3.4720   21.6540  -31.5840 C   0  0  0  0  0  0  0  0  0  0  0  0
   -3.3160   20.6850  -32.5780 C   0  0  0  0  0  0  0  0  0  0  0  0
   -5.6624   17.6932  -33.6656 H   0  0  0  0  0  0  0  0  0  0  0  0
   -5.9722   18.6469  -35.1559 H   0  0  0  0  0  0  0  0  0  0  0  0
   -4.7153   17.3636  -35.1559 H   0  0  0  0  0  0  0  0  0  0  0  0
   -6.6066   19.9741  -33.1725 H   0  0  0  0  0  0  0  0  0  0  0  0
   -6.8856   21.7079  -31.4068 H   0  0  0  0  0  0  0  0  0  0  0  0
   -5.8905   23.0683  -28.2636 H   0  0  0  0  0  0  0  0  0  0  0  0
   -5.0044   21.5444  -28.6450 H   0  0  0  0  0  0  0  0  0  0  0  0
   -4.1900   25.2010  -28.3920 H   0  0  0  0  0  0  0  0  0  0  0  0
   -1.0314   24.7951  -29.0662 H   0  0  0  0  0  0  0  0  0  0  0  0
    0.9844   25.7860  -27.9803 H   0  0  0  0  0  0  0  0  0  0  0  0
   -3.3368   25.5354  -25.4701 H   0  0  0  0  0  0  0  0  0  0  0  0
   -0.3242   27.5228  -22.5236 H   0  0  0  0  0  0  0  0  0  0  0  0
    0.3356   25.9136  -22.9941 H   0  0  0  0  0  0  0  0  0  0  0  0
    0.5869   28.5602  -24.5123 H   0  0  0  0  0  0  0  0  0  0  0  0
    1.9031   27.5712  -23.7790 H   0  0  0  0  0  0  0  0  0  0  0  0
   -6.0185   25.2578  -28.4116 H   0  0  0  0  0  0  0  0  0  0  0  0
   -6.3291   26.5528  -29.6171 H   0  0  0  0  0  0  0  0  0  0  0  0
   -7.3363   25.0654  -29.6171 H   0  0  0  0  0  0  0  0  0  0  0  0
   -2.5847   22.1238  -31.1346 H   0  0  0  0  0  0  0  0  0  0  0  0
   -2.3061   20.4014  -32.9092 H   0  0  0  0  0  0  0  0  0  0  0  0
  1  2  1  0
  2  3  1  0
  3  4  2  0
  4  5  1  0
  5  6  2  0
  6  7  1  0
  7  8  1  0
  8  9  1  0
  9 10  2  0
  9 11  1  0
 11 12  1  0
 12 13  2  0
 13 14  1  0
 14 15  2  0
 15 16  1  0
 16 17  2  0
 16 18  1  0
 18 19  1  0
 19 20  1  0
 20 21  1  0
  7 22  1  0
 22 23  1  0
 22 24  2  0
 22 25  2  0
  6 26  1  0
 26 27  2  0
 27  3  1  0
 17 12  1  0
 21 15  1  0
  1 28  1  0
  1 29  1  0
  1 30  1  0
  4 31  1  0
  5 32  1  0
  8 33  1  0
  8 34  1  0
 11 35  1  0
 13 36  1  0
 14 37  1  0
 17 38  1  0
 19 39  1  0
 19 40  1  0
 20 41  1  0
 20 42  1  0
 23 43  1  0
 23 44  1  0
 23 45  1  0
 26 46  1  0
 27 47  1  0
M  END
>  <UniqueID>  (14) 
13

>  <SMILES>  (14) 
COc1ccc(N(CC(=O)Nc2ccc3c(c2)OCCO3)S(C)(=O)=O)cc1

>  <Energy>  (14) 
50.954097454252505

>  <Genealogy>  (14) 
COc1ccc(N(CC(=O)Nc2ccc3c(c2)OCCO3)S(C)(=O)=O)cc1 (3D coordinates assigned)
COc1ccc(N(CC(=O)Nc2ccc3c(c2)OCCO3)S(C)(=O)=O)cc1 (nonaromatic ring conformer: 50.954097454252505 kcal/mol)

>  <smiles>  (14) 
COc1ccc(N(CC(=O)Nc2ccc3c(c2)OCCO3)S(C)(=O)=O)cc1

>  <score_type>  (14) 
oracle

>  <origin>  (14) 
adg

>  <m_score__min__energy>  (14) 
-8.1300000000000008

>  <m_primary>  (14) 
energy

$$$$
14:0
     RDKit          3D

 43 44  0  0  0  0  0  0  0  0999 V2000
   -6.4170   25.3610  -29.5470 C   0  0  0  0  0  0  0  0  0  0  0  0
   -5.8910   24.1590  -30.1930 N   0  0  0  0  0  0  0  0  0  0  0  0
   -6.7950   23.1810  -30.7400 C   0  0  0  0  0  0  0  0  0  0  0  0
   -7.8150   22.6320  -29.9450 C   0  0  0  0  0  0  0  0  0  0  0  0
   -8.6910   21.6800  -30.4750 C   0  0  0  0  0  0  0  0  0  0  0  0
   -8.5680   21.2690  -31.8110 C   0  0  0  0  0  0  0  0  0  0  0  0
   -9.4930   20.2200  -32.3770 C   0  0  0  0  0  0  0  0  0  0  0  0
   -8.7640   19.1570  -33.0960 N   0  0  0  0  0  0  0  0  0  0  0  0
   -7.9180   18.3050  -32.2360 C   0  0  0  0  0  0  0  0  0  0  0  0
   -6.4250   18.3410  -32.6230 C   0  0  2  0  0  0  0  0  0  0  0  0
   -5.6070   19.1310  -31.6140 C   0  0  0  0  0  0  0  0  0  0  0  0
   -4.4960   19.6750  -32.4550 C   0  0  0  0  0  0  0  0  0  0  0  0
   -5.1170   19.7560  -33.8360 C   0  0  0  0  0  0  0  0  0  0  0  0
   -6.2580   18.9280  -33.8940 O   0  0  0  0  0  0  0  0  0  0  0  0
   -7.5560   21.8230  -32.6090 C   0  0  0  0  0  0  0  0  0  0  0  0
   -6.6790   22.7740  -32.0790 C   0  0  0  0  0  0  0  0  0  0  0  0
   -4.1690   23.9440  -30.3350 S   0  0  0  0  0  0  0  0  0  0  0  0
   -3.5200   23.1590  -28.8740 C   0  0  0  0  0  0  0  0  0  0  0  0
   -3.8590   23.1080  -31.5450 O   0  0  0  0  0  0  0  0  0  0  0  0
   -3.5000   25.2840  -30.4750 O   0  0  0  0  0  0  0  0  0  0  0  0
   -6.3652   25.2427  -28.4546 H   0  0  0  0  0  0  0  0  0  0  0  0
   -5.8179   26.2323  -29.8503 H   0  0  0  0  0  0  0  0  0  0  0  0
   -7.4635   25.5121  -29.8503 H   0  0  0  0  0  0  0  0  0  0  0  0
   -7.9251   22.9533  -28.8987 H   0  0  0  0  0  0  0  0  0  0  0  0
   -9.4810   21.2508  -29.8412 H   0  0  0  0  0  0  0  0  0  0  0  0
  -10.0582   19.7642  -31.5507 H   0  0  0  0  0  0  0  0  0  0  0  0
  -10.1613   20.7149  -33.0971 H   0  0  0  0  0  0  0  0  0  0  0  0
   -8.1530   19.6000  -33.8220 H   0  0  0  0  0  0  0  0  0  0  0  0
   -9.4560   18.5600  -33.6060 H   0  0  0  0  0  0  0  0  0  0  0  0
   -8.0178   18.6499  -31.1962 H   0  0  0  0  0  0  0  0  0  0  0  0
   -8.2631   17.2683  -32.3632 H   0  0  0  0  0  0  0  0  0  0  0  0
   -6.0700   17.3000  -32.6379 H   0  0  0  0  0  0  0  0  0  0  0  0
   -6.2015   19.9417  -31.1675 H   0  0  0  0  0  0  0  0  0  0  0  0
   -5.2584   18.5278  -30.7627 H   0  0  0  0  0  0  0  0  0  0  0  0
   -4.1851   20.6697  -32.1030 H   0  0  0  0  0  0  0  0  0  0  0  0
   -3.5880   19.0548  -32.4252 H   0  0  0  0  0  0  0  0  0  0  0  0
   -5.4088   20.7957  -34.0452 H   0  0  0  0  0  0  0  0  0  0  0  0
   -4.3847   19.4199  -34.5848 H   0  0  0  0  0  0  0  0  0  0  0  0
   -7.4519   21.5074  -33.6576 H   0  0  0  0  0  0  0  0  0  0  0  0
   -5.8927   23.2064  -32.7152 H   0  0  0  0  0  0  0  0  0  0  0  0
   -3.9285   23.6531  -27.9801 H   0  0  0  0  0  0  0  0  0  0  0  0
   -3.8075   22.0973  -28.8698 H   0  0  0  0  0  0  0  0  0  0  0  0
   -2.4231   23.2418  -28.8698 H   0  0  0  0  0  0  0  0  0  0  0  0
  1  2  1  0
  2  3  1  0
  3  4  2  0
  4  5  1  0
  5  6  2  0
  6  7  1  0
  7  8  1  0
  8  9  1  0
  9 10  1  0
 10 11  1  0
 11 12  1  0
 12 13  1  0
 13 14  1  0
  6 15  1  0
 15 16  2  0
  2 17  1  0
 17 18  1  0
 17 19  2  0
 17 20  2  0
 16  3  1  0
 14 10  1  0
  1 21  1  0
  1 22  1  0
  1 23  1  0
  4 24  1  0
  5 25  1  0
  7 26  1  0
  7 27  1  0
  8 28  1  0
  8 29  1  0
  9 30  1  0
  9 31  1  0
 10 32  1  6
 11 33  1  0
 11 34  1  0
 12 35  1  0
 12 36  1  0
 13 37  1  0
 13 38  1  0
 15 39  1  0
 16 40  1  0
 18 41  1  0
 18 42  1  0
 18 43  1  0
M  CHG  1   8   1
M  END
>  <UniqueID>  (15) 
14

>  <SMILES>  (15) 
CN(c1ccc(C[NH2+]C[C@@H]2CCCO2)cc1)S(C)(=O)=O

>  <Energy>  (15) 
41.2881165497245

>  <Genealogy>  (15) 
CN(c1ccc(C[NH2+]CC2CCCO2)cc1)S(C)(=O)=O (protonated)
CN(c1ccc(C[NH2+]C[C@@H]2CCCO2)cc1)S(C)(=O)=O (chirality)
CN(c1ccc(C[NH2+]C[C@@H]2CCCO2)cc1)S(C)(=O)=O (3D coordinates assigned)
CN(c1ccc(C[NH2+]C[C@@H]2CCCO2)cc1)S(C)(=O)=O (nonaromatic ring conformer: 41.2881165497245 kcal/mol)

>  <smiles>  (15) 
CN(c1ccc(CNCC2CCCO2)cc1)S(C)(=O)=O

>  <score_type>  (15) 
oracle

>  <origin>  (15) 
adg

>  <m_score__min__energy>  (15) 
-7.4299999999999997

>  <m_primary>  (15) 
energy

$$$$
15:0
     RDKit          3D

 39 41  0  0  0  0  0  0  0  0999 V2000
   -1.9090   26.2720  -25.2380 C   0  0  0  0  0  0  0  0  0  0  0  0
   -1.6640   25.0310  -25.8930 O   0  0  0  0  0  0  0  0  0  0  0  0
   -2.3430   24.5930  -27.0400 C   0  0  0  0  0  0  0  0  0  0  0  0
   -1.5910   24.2480  -28.1670 C   0  0  0  0  0  0  0  0  0  0  0  0
   -2.2200   23.8050  -29.3340 C   0  0  0  0  0  0  0  0  0  0  0  0
   -3.6190   23.7020  -29.3910 C   0  0  0  0  0  0  0  0  0  0  0  0
   -4.2780   23.2330  -30.6250 C   0  0  0  0  0  0  0  0  0  0  0  0
   -5.0300   24.0120  -31.4310 N   0  0  0  0  0  0  0  0  0  0  0  0
   -5.4320   23.2210  -32.4110 N   0  0  0  0  0  0  0  0  0  0  0  0
   -4.9210   22.0010  -32.1810 C   0  0  0  0  0  0  0  0  0  0  0  0
   -5.1620   20.7980  -33.0350 C   0  0  0  0  0  0  0  0  0  0  0  0
   -6.4010   20.0780  -32.5690 C   0  0  0  0  0  0  0  0  0  0  0  0
   -6.3380   18.7010  -32.2970 C   0  0  0  0  0  0  0  0  0  0  0  0
   -7.4650   18.0200  -31.8310 C   0  0  0  0  0  0  0  0  0  0  0  0
   -8.6600   18.7070  -31.6250 C   0  0  0  0  0  0  0  0  0  0  0  0
   -8.7350   20.0790  -31.8760 C   0  0  0  0  0  0  0  0  0  0  0  0
   -7.6050   20.7800  -32.3450 C   0  0  0  0  0  0  0  0  0  0  0  0
   -7.6430   22.1630  -32.5920 O   0  0  0  0  0  0  0  0  0  0  0  0
   -8.5450   23.0710  -31.9670 C   0  0  0  0  0  0  0  0  0  0  0  0
   -4.2100   21.9990  -31.0790 O   0  0  0  0  0  0  0  0  0  0  0  0
   -4.3770   24.0480  -28.2600 C   0  0  0  0  0  0  0  0  0  0  0  0
   -3.7460   24.4900  -27.0930 C   0  0  0  0  0  0  0  0  0  0  0  0
   -1.8797   26.1236  -24.1485 H   0  0  0  0  0  0  0  0  0  0  0  0
   -1.1371   26.9993  -25.5299 H   0  0  0  0  0  0  0  0  0  0  0  0
   -2.8994   26.6514  -25.5299 H   0  0  0  0  0  0  0  0  0  0  0  0
   -0.4942   24.3259  -28.1350 H   0  0  0  0  0  0  0  0  0  0  0  0
   -1.6155   23.5356  -30.2126 H   0  0  0  0  0  0  0  0  0  0  0  0
   -6.0430   23.5150  -33.2060 H   0  0  0  0  0  0  0  0  0  0  0  0
   -5.2950   21.1135  -34.0804 H   0  0  0  0  0  0  0  0  0  0  0  0
   -4.2989   20.1204  -32.9580 H   0  0  0  0  0  0  0  0  0  0  0  0
   -5.3953   18.1558  -32.4520 H   0  0  0  0  0  0  0  0  0  0  0  0
   -7.4093   16.9406  -31.6264 H   0  0  0  0  0  0  0  0  0  0  0  0
   -9.5474   18.1668  -31.2634 H   0  0  0  0  0  0  0  0  0  0  0  0
   -9.6804   20.6153  -31.7069 H   0  0  0  0  0  0  0  0  0  0  0  0
   -8.4565   22.9819  -30.8742 H   0  0  0  0  0  0  0  0  0  0  0  0
   -8.3004   24.0992  -32.2721 H   0  0  0  0  0  0  0  0  0  0  0  0
   -9.5748   22.8332  -32.2721 H   0  0  0  0  0  0  0  0  0  0  0  0
   -5.4738   23.9708  -28.2926 H   0  0  0  0  0  0  0  0  0  0  0  0
   -4.3485   24.7584  -26.2127 H   0  0  0  0  0  0  0  0  0  0  0  0
  1  2  1  0
  2  3  1  0
  3  4  2  0
  4  5  1  0
  5  6  2  0
  6  7  1  0
  7  8  2  0
  8  9  1  0
  9 10  2  0
 10 11  1  0
 11 12  1  0
 12 13  2  0
 13 14  1  0
 14 15  2  0
 15 16  1  0
 16 17  2  0
 17 18  1  0
 18 19  1  0
 10 20  1  0
  6 21  1  0
 21 22  2  0
 22  3  1  0
 20  7  1  0
 17 12  1  0
  1 23  1  0
  1 24  1  0
  1 25  1  0
  4 26  1  0
  5 27  1  0
  9 28  1  0
 11 29  1  0
 11 30  1  0
 13 31  1  0
 14 32  1  0
 15 33  1  0
 16 34  1  0
 19 35  1  0
 19 36  1  0
 19 37  1  0
 21 38  1  0
 22 39  1  0
M  CHG  1   9   1
M  END
>  <UniqueID>  (16) 
15

>  <SMILES>  (16) 
COc1ccc(-c2n[nH+]c(Cc3ccccc3OC)o2)cc1

>  <Energy>  (16) 
73.83244423548538

>  <Genealogy>  (16) 
COc1ccc(-c2n[nH+]c(Cc3ccccc3OC)o2)cc1 (protonated)
COc1ccc(-c2n[nH+]c(Cc3ccccc3OC)o2)cc1 (3D coordinates assigned)
COc1ccc(-c2n[nH+]c(Cc3ccccc3OC)o2)cc1 (optimized conformer: 73.83244423548538 kcal/mol)

>  <smiles>  (16) 
COc1ccc(-c2nnc(Cc3ccccc3OC)o2)cc1

>  <score_type>  (16) 
oracle

>  <origin>  (16) 
adg

>  <m_score__min__energy>  (16) 
-6.7699999999999996

>  <m_primary>  (16) 
energy

$$$$
16:0
     RDKit          3D

 35 37  0  0  0  0  0  0  0  0999 V2000
    0.2280   23.9060  -28.9490 O   0  0  0  0  0  0  0  0  0  0  0  0
   -1.0110   23.7030  -29.0600 C   0  0  0  0  0  0  0  0  0  0  0  0
   -1.5100   22.8570  -30.1890 C   0  0  0  0  0  0  0  0  0  0  0  0
   -3.1750   22.1920  -29.8170 S   0  0  0  0  0  0  0  0  0  0  0  0
   -4.0610   23.6210  -30.4570 C   0  0  0  0  0  0  0  0  0  0  0  0
   -3.6020   24.8770  -30.3030 N   0  0  0  0  0  0  0  0  0  0  0  0
   -4.5250   25.6540  -30.8490 N   0  0  0  0  0  0  0  0  0  0  0  0
   -5.5210   24.9140  -31.3090 N   0  0  0  0  0  0  0  0  0  0  0  0
   -5.2630   23.6360  -31.0810 N   0  0  0  0  0  0  0  0  0  0  0  0
   -6.2010   22.5780  -31.3890 C   0  0  0  0  0  0  0  0  0  0  0  0
   -7.4720   22.5000  -30.7890 C   0  0  0  0  0  0  0  0  0  0  0  0
   -8.3280   21.4300  -31.0690 C   0  0  0  0  0  0  0  0  0  0  0  0
   -7.9300   20.4230  -31.9490 C   0  0  0  0  0  0  0  0  0  0  0  0
   -9.0990   18.9590  -32.3200 Br  0  0  0  0  0  0  0  0  0  0  0  0
   -6.6720   20.4840  -32.5490 C   0  0  0  0  0  0  0  0  0  0  0  0
   -5.8110   21.5500  -32.2690 C   0  0  0  0  0  0  0  0  0  0  0  0
   -1.9450   24.3550  -28.1820 N   0  0  0  0  0  0  0  0  0  0  0  0
   -1.5910   25.4390  -27.3070 C   0  0  0  0  0  0  0  0  0  0  0  0
   -0.8440   26.5140  -27.8150 C   0  0  0  0  0  0  0  0  0  0  0  0
   -0.4710   27.5720  -26.9810 C   0  0  0  0  0  0  0  0  0  0  0  0
   -0.8600   27.5770  -25.6400 C   0  0  0  0  0  0  0  0  0  0  0  0
   -1.6300   26.5270  -25.1320 C   0  0  0  0  0  0  0  0  0  0  0  0
   -2.0000   25.4630  -25.9620 C   0  0  0  0  0  0  0  0  0  0  0  0
   -1.5616   23.4682  -31.1021 H   0  0  0  0  0  0  0  0  0  0  0  0
   -0.8174   22.0142  -30.3308 H   0  0  0  0  0  0  0  0  0  0  0  0
   -7.7951   23.2883  -30.0931 H   0  0  0  0  0  0  0  0  0  0  0  0
   -9.3188   21.3821  -30.5936 H   0  0  0  0  0  0  0  0  0  0  0  0
   -6.3565   19.6918  -33.2439 H   0  0  0  0  0  0  0  0  0  0  0  0
   -4.8182   21.5858  -32.7414 H   0  0  0  0  0  0  0  0  0  0  0  0
   -2.9620   24.1800  -28.3430 H   0  0  0  0  0  0  0  0  0  0  0  0
   -0.5507   26.5236  -28.8751 H   0  0  0  0  0  0  0  0  0  0  0  0
    0.1298   28.4017  -27.3817 H   0  0  0  0  0  0  0  0  0  0  0  0
   -0.5605   28.4072  -24.9835 H   0  0  0  0  0  0  0  0  0  0  0  0
   -1.9456   26.5371  -24.0783 H   0  0  0  0  0  0  0  0  0  0  0  0
   -2.6130   24.6425  -25.5608 H   0  0  0  0  0  0  0  0  0  0  0  0
  1  2  2  0
  2  3  1  0
  3  4  1  0
  4  5  1  0
  5  6  2  0
  6  7  1  0
  7  8  2  0
  8  9  1  0
  9 10  1  0
 10 11  2  0
 11 12  1  0
 12 13  2  0
 13 14  1  0
 13 15  1  0
 15 16  2  0
  2 17  1  0
 17 18  1  0
 18 19  2  0
 19 20  1  0
 20 21  2  0
 21 22  1  0
 22 23  2  0
  9  5  1  0
 16 10  1  0
 23 18  1  0
  3 24  1  0
  3 25  1  0
 11 26  1  0
 12 27  1  0
 15 28  1  0
 16 29  1  0
 17 30  1  0
 19 31  1  0
 20 32  1  0
 21 33  1  0
 22 34  1  0
 23 35  1  0
M  END
>  <UniqueID>  (17) 
16

>  <SMILES>  (17) 
O=C(CSc1nnnn1-c1ccc(Br)cc1)Nc1ccccc1

>  <Energy>  (17) 
80.61798574012602

>  <Genealogy>  (17) 
O=C(CSc1nnnn1-c1ccc(Br)cc1)Nc1ccccc1 (3D coordinates assigned)
O=C(CSc1nnnn1-c1ccc(Br)cc1)Nc1ccccc1 (optimized conformer: 80.61798574012602 kcal/mol)

>  <smiles>  (17) 
O=C(CSc1nnnn1-c1ccc(Br)cc1)Nc1ccccc1

>  <score_type>  (17) 
oracle

>  <origin>  (17) 
adg

>  <m_score__min__energy>  (17) 
-9.9700000000000006

>  <m_primary>  (17) 
energy

$$$$
17:0
     RDKit          3D

 31 33  0  0  0  0  0  0  0  0999 V2000
   -7.0280   13.9110  -34.5940 C   0  0  0  0  0  0  0  0  0  0  0  0
   -6.2220   15.1170  -34.2100 C   0  0  0  0  0  0  0  0  0  0  0  0
   -4.8270   15.0900  -34.2960 C   0  0  0  0  0  0  0  0  0  0  0  0
   -4.0880   16.2280  -33.9490 C   0  0  0  0  0  0  0  0  0  0  0  0
   -2.5920   16.2140  -34.0600 C   0  0  0  0  0  0  0  0  0  0  0  0
   -4.7370   17.3680  -33.5740 N   0  0  0  0  0  0  0  0  0  0  0  0
   -6.1000   17.4360  -33.5110 C   0  0  0  0  0  0  0  0  0  0  0  0
   -6.7380   18.6590  -33.0990 N   0  0  0  0  0  0  0  0  0  0  0  0
   -8.3340   18.7980  -32.6280 S   0  0  0  0  0  0  0  0  0  0  0  0
   -8.3510   20.4320  -32.3020 C   0  0  0  0  0  0  0  0  0  0  0  0
   -9.3860   21.2470  -31.8520 C   0  0  0  0  0  0  0  0  0  0  0  0
   -9.1050   22.6080  -31.6520 C   0  0  0  0  0  0  0  0  0  0  0  0
   -7.8120   23.1140  -31.9020 C   0  0  0  0  0  0  0  0  0  0  0  0
   -6.7860   22.2650  -32.3540 C   0  0  0  0  0  0  0  0  0  0  0  0
   -7.0740   20.9110  -32.5540 C   0  0  0  0  0  0  0  0  0  0  0  0
   -6.1870   19.9050  -32.9920 C   0  0  0  0  0  0  0  0  0  0  0  0
   -4.9710   20.1320  -33.2360 O   0  0  0  0  0  0  0  0  0  0  0  0
   -6.8630   16.3000  -33.8250 C   0  0  0  0  0  0  0  0  0  0  0  0
   -7.3724   13.3956  -33.6853 H   0  0  0  0  0  0  0  0  0  0  0  0
   -7.8979   14.2257  -35.1891 H   0  0  0  0  0  0  0  0  0  0  0  0
   -6.4045   13.2276  -35.1891 H   0  0  0  0  0  0  0  0  0  0  0  0
   -4.3120   14.1790  -34.6347 H   0  0  0  0  0  0  0  0  0  0  0  0
   -2.1496   16.2099  -33.0529 H   0  0  0  0  0  0  0  0  0  0  0  0
   -2.2731   15.3128  -34.6043 H   0  0  0  0  0  0  0  0  0  0  0  0
   -2.2563   17.1090  -34.6043 H   0  0  0  0  0  0  0  0  0  0  0  0
   -4.1740   18.2190  -33.3500 H   0  0  0  0  0  0  0  0  0  0  0  0
  -10.3892   20.8388  -31.6598 H   0  0  0  0  0  0  0  0  0  0  0  0
   -9.8976   23.2837  -31.2983 H   0  0  0  0  0  0  0  0  0  0  0  0
   -7.6045   24.1823  -31.7419 H   0  0  0  0  0  0  0  0  0  0  0  0
   -5.7768   22.6581  -32.5465 H   0  0  0  0  0  0  0  0  0  0  0  0
   -7.9608   16.3397  -33.7686 H   0  0  0  0  0  0  0  0  0  0  0  0
  1  2  1  0
  2  3  2  0
  3  4  1  0
  4  5  1  0
  4  6  2  0
  6  7  1  0
  7  8  1  0
  8  9  1  0
  9 10  1  0
 10 11  2  0
 11 12  1  0
 12 13  2  0
 13 14  1  0
 14 15  2  0
 15 16  1  0
 16 17  2  0
  7 18  2  0
 18  2  1  0
 16  8  1  0
 15 10  1  0
  1 19  1  0
  1 20  1  0
  1 21  1  0
  3 22  1  0
  5 23  1  0
  5 24  1  0
  5 25  1  0
  6 26  1  0
 11 27  1  0
 12 28  1  0
 13 29  1  0
 14 30  1  0
 18 31  1  0
M  CHG  1   6   1
M  END
>  <UniqueID>  (18) 
17

>  <SMILES>  (18) 
Cc1cc(C)[nH+]c(-n2sc3ccccc3c2=O)c1

>  <Energy>  (18) 
76.31048814034648

>  <Genealogy>  (18) 
Cc1cc(C)[nH+]c(-n2sc3ccccc3c2=O)c1 (protonated)
Cc1cc(C)[nH+]c(-n2sc3ccccc3c2=O)c1 (3D coordinates assigned)
Cc1cc(C)[nH+]c(-n2sc3ccccc3c2=O)c1 (optimized conformer: 76.31048814034648 kcal/mol)

>  <smiles>  (18) 
Cc1cc(C)nc(-n2sc3ccccc3c2=O)c1

>  <score_type>  (18) 
oracle

>  <origin>  (18) 
adg

>  <m_score__min__energy>  (18) 
-6.4299999999999997

>  <m_primary>  (18) 
energy

$$$$
18:0
     RDKit          3D

 53 57  0  0  0  0  0  0  0  0999 V2000
   -3.8790   14.9120  -35.2420 C   0  0  0  0  0  0  0  0  0  0  0  0
   -4.5440   14.9830  -33.9320 N   0  0  0  0  0  0  0  0  0  0  0  0
   -5.8480   15.6870  -34.0290 C   0  0  0  0  0  0  0  0  0  0  0  0
   -6.1190   16.6920  -32.8890 C   0  0  0  0  0  0  0  0  0  0  0  0
   -5.2820   17.9890  -32.9920 C   0  0  0  0  0  0  0  0  0  0  0  0
   -4.0220   17.7690  -33.7360 N   0  0  0  0  0  0  0  0  0  0  0  0
   -3.3810   19.0260  -34.1850 C   0  0  0  0  0  0  0  0  0  0  0  0
   -3.5310   20.1700  -33.2030 C   0  0  0  0  0  0  0  0  0  0  0  0
   -2.8090   20.1660  -31.9800 C   0  0  0  0  0  0  0  0  0  0  0  0
   -2.9390   21.2250  -31.0620 C   0  0  0  0  0  0  0  0  0  0  0  0
   -3.7880   22.2780  -31.4020 C   0  0  0  0  0  0  0  0  0  0  0  0
   -4.1880   23.4360  -30.7500 C   0  0  0  0  0  0  0  0  0  0  0  0
   -3.7440   23.9710  -29.4520 C   0  0  0  0  0  0  0  0  0  0  0  0
   -4.4920   23.7810  -28.2800 C   0  0  0  0  0  0  0  0  0  0  0  0
   -4.0200   24.2900  -27.0670 C   0  0  0  0  0  0  0  0  0  0  0  0
   -2.8000   24.9720  -27.0260 C   0  0  0  0  0  0  0  0  0  0  0  0
   -2.2950   25.4950  -25.8260 C   0  0  0  0  0  0  0  0  0  0  0  0
   -1.0660   26.1640  -25.8180 C   0  0  0  0  0  0  0  0  0  0  0  0
   -0.3370   26.3120  -27.0030 C   0  0  0  0  0  0  0  0  0  0  0  0
   -0.8320   25.7930  -28.2030 C   0  0  0  0  0  0  0  0  0  0  0  0
   -2.0630   25.1240  -28.2210 C   0  0  0  0  0  0  0  0  0  0  0  0
   -2.5480   24.6190  -29.3870 N   0  0  0  0  0  0  0  0  0  0  0  0
   -5.0980   24.0240  -31.5070 O   0  0  0  0  0  0  0  0  0  0  0  0
   -5.3070   23.3480  -32.6040 N   0  0  0  0  0  0  0  0  0  0  0  0
   -4.5120   22.2690  -32.5620 C   0  0  0  0  0  0  0  0  0  0  0  0
   -4.4140   21.2360  -33.4900 C   0  0  0  0  0  0  0  0  0  0  0  0
   -3.0810   16.8710  -33.0370 C   0  0  0  0  0  0  0  0  0  0  0  0
   -3.6150   15.4330  -32.8670 C   0  0  0  0  0  0  0  0  0  0  0  0
   -2.7948   14.7962  -35.0970 H   0  0  0  0  0  0  0  0  0  0  0  0
   -4.2678   14.0503  -35.8044 H   0  0  0  0  0  0  0  0  0  0  0  0
   -4.0771   15.8364  -35.8044 H   0  0  0  0  0  0  0  0  0  0  0  0
   -5.8728   16.2344  -34.9828 H   0  0  0  0  0  0  0  0  0  0  0  0
   -6.6272   14.9139  -33.9565 H   0  0  0  0  0  0  0  0  0  0  0  0
   -7.1847   16.9636  -32.9114 H   0  0  0  0  0  0  0  0  0  0  0  0
   -5.8318   16.1976  -31.9493 H   0  0  0  0  0  0  0  0  0  0  0  0
   -5.8746   18.7554  -33.5130 H   0  0  0  0  0  0  0  0  0  0  0  0
   -5.0263   18.3142  -31.9728 H   0  0  0  0  0  0  0  0  0  0  0  0
   -2.3081   18.8348  -34.3343 H   0  0  0  0  0  0  0  0  0  0  0  0
   -3.8859   19.3308  -35.1136 H   0  0  0  0  0  0  0  0  0  0  0  0
   -2.1397   19.3246  -31.7472 H   0  0  0  0  0  0  0  0  0  0  0  0
   -2.3897   21.2222  -30.1089 H   0  0  0  0  0  0  0  0  0  0  0  0
   -5.4456   23.2339  -28.3159 H   0  0  0  0  0  0  0  0  0  0  0  0
   -4.6069   24.1544  -26.1466 H   0  0  0  0  0  0  0  0  0  0  0  0
   -2.8648   25.3792  -24.8922 H   0  0  0  0  0  0  0  0  0  0  0  0
   -0.6717   26.5749  -24.8769 H   0  0  0  0  0  0  0  0  0  0  0  0
    0.6288   26.8384  -26.9904 H   0  0  0  0  0  0  0  0  0  0  0  0
   -0.2554   25.9098  -29.1325 H   0  0  0  0  0  0  0  0  0  0  0  0
   -5.9850   23.6080  -33.3550 H   0  0  0  0  0  0  0  0  0  0  0  0
   -5.0051   21.2488  -34.4176 H   0  0  0  0  0  0  0  0  0  0  0  0
   -2.1455   16.8292  -33.6141 H   0  0  0  0  0  0  0  0  0  0  0  0
   -2.9301   17.2819  -32.0279 H   0  0  0  0  0  0  0  0  0  0  0  0
   -2.7543   14.7482  -32.8523 H   0  0  0  0  0  0  0  0  0  0  0  0
   -4.1920   15.4264  -31.9305 H   0  0  0  0  0  0  0  0  0  0  0  0
  1  2  1  0
  2  3  1  0
  3  4  1  0
  4  5  1  0
  5  6  1  0
  6  7  1  0
  7  8  1  0
  8  9  1  0
  9 10  2  0
 10 11  1  0
 11 12  2  0
 12 13  1  0
 13 14  2  0
 14 15  1  0
 15 16  2  0
 16 17  1  0
 17 18  2  0
 18 19  1  0
 19 20  2  0
 20 21  1  0
 21 22  2  0
 12 23  1  0
 23 24  1  0
 24 25  2  0
 25 26  1  0
  6 27  1  0
 27 28  1  0
 28  2  1  0
 26  8  2  0
 25 11  1  0
 22 13  1  0
 21 16  1  0
  1 29  1  0
  1 30  1  0
  1 31  1  0
  3 32  1  0
  3 33  1  0
  4 34  1  0
  4 35  1  0
  5 36  1  0
  5 37  1  0
  7 38  1  0
  7 39  1  0
  9 40  1  0
 10 41  1  0
 14 42  1  0
 15 43  1  0
 17 44  1  0
 18 45  1  0
 19 46  1  0
 20 47  1  0
 24 48  1  0
 26 49  1  0
 27 50  1  0
 27 51  1  0
 28 52  1  0
 28 53  1  0
M  CHG  1  24   1
M  END
>  <UniqueID>  (19) 
18

>  <SMILES>  (19) 
CN1CCCN(Cc2ccc3c(-c4ccc5ccccc5n4)o[nH+]c3c2)CC1

>  <Energy>  (19) 
123.12957487319007

>  <Genealogy>  (19) 
CN1CCCN(Cc2ccc3c(-c4ccc5ccccc5n4)o[nH+]c3c2)CC1 (protonated)
CN1CCCN(Cc2ccc3c(-c4ccc5ccccc5n4)o[nH+]c3c2)CC1 (3D coordinates assigned)
CN1CCCN(Cc2ccc3c(-c4ccc5ccccc5n4)o[nH+]c3c2)CC1 (nonaromatic ring conformer: 123.12957487319007 kcal/mol)

>  <smiles>  (19) 
CN1CCCN(Cc2ccc3c(-c4ccc5ccccc5n4)onc3c2)CC1

>  <score_type>  (19) 
oracle

>  <origin>  (19) 
adg

>  <m_score__min__energy>  (19) 
-6.5300000000000002

>  <m_primary>  (19) 
energy

$$$$
19:0
     RDKit          3D

 33 34  0  0  0  0  0  0  0  0999 V2000
   -6.2460   23.0570  -31.8440 O   0  0  0  0  0  0  0  0  0  0  0  0
   -6.6910   23.1370  -30.6670 C   0  0  0  0  0  0  0  0  0  0  0  0
   -7.8570   22.2910  -30.2600 C   0  0  0  0  0  0  0  0  0  0  0  0
   -8.9760   22.0070  -31.6740 S   0  0  0  0  0  0  0  0  0  0  0  0
   -8.1910   20.4780  -32.1930 C   0  0  0  0  0  0  0  0  0  0  0  0
   -7.1020   20.5110  -33.0710 C   0  0  0  0  0  0  0  0  0  0  0  0
   -6.4890   19.3210  -33.4740 C   0  0  0  0  0  0  0  0  0  0  0  0
   -6.9750   18.0800  -33.0230 C   0  0  0  0  0  0  0  0  0  0  0  0
   -6.2830   16.8000  -33.4160 C   0  0  0  0  0  0  0  0  0  0  0  0
   -7.2000   15.8690  -33.8720 F   0  0  0  0  0  0  0  0  0  0  0  0
   -5.6240   16.2830  -32.3160 F   0  0  0  0  0  0  0  0  0  0  0  0
   -5.3640   17.0320  -34.4250 F   0  0  0  0  0  0  0  0  0  0  0  0
   -8.0590   18.0580  -32.1270 C   0  0  0  0  0  0  0  0  0  0  0  0
   -8.6710   19.2500  -31.7250 C   0  0  0  0  0  0  0  0  0  0  0  0
   -6.1030   24.0500  -29.7300 N   0  0  0  0  0  0  0  0  0  0  0  0
   -5.0050   24.9420  -30.0910 C   0  0  0  0  0  0  0  0  0  0  0  0
   -3.7580   24.5450  -29.3660 C   0  0  0  0  0  0  0  0  0  0  0  0
   -3.5760   23.3780  -28.6530 C   0  0  0  0  0  0  0  0  0  0  0  0
   -2.2810   23.4300  -28.1840 C   0  0  0  0  0  0  0  0  0  0  0  0
   -1.7550   24.6220  -28.6420 C   0  0  0  0  0  0  0  0  0  0  0  0
   -2.6590   25.2640  -29.3450 O   0  0  0  0  0  0  0  0  0  0  0  0
   -7.4886   21.3223  -29.8913 H   0  0  0  0  0  0  0  0  0  0  0  0
   -8.4139   22.8148  -29.4691 H   0  0  0  0  0  0  0  0  0  0  0  0
   -6.7275   21.4753  -33.4449 H   0  0  0  0  0  0  0  0  0  0  0  0
   -5.6207   19.3551  -34.1484 H   0  0  0  0  0  0  0  0  0  0  0  0
   -8.4281   17.0969  -31.7397 H   0  0  0  0  0  0  0  0  0  0  0  0
   -9.5311   19.2217  -31.0398 H   0  0  0  0  0  0  0  0  0  0  0  0
   -6.4960   24.1080  -28.7630 H   0  0  0  0  0  0  0  0  0  0  0  0
   -4.8297   24.8823  -31.1753 H   0  0  0  0  0  0  0  0  0  0  0  0
   -5.2715   25.9716  -29.8101 H   0  0  0  0  0  0  0  0  0  0  0  0
   -4.3102   22.5748  -28.4925 H   0  0  0  0  0  0  0  0  0  0  0  0
   -1.7697   22.6747  -27.5691 H   0  0  0  0  0  0  0  0  0  0  0  0
   -0.7331   24.9795  -28.4472 H   0  0  0  0  0  0  0  0  0  0  0  0
  1  2  2  0
  2  3  1  0
  3  4  1  0
  4  5  1  0
  5  6  2  0
  6  7  1  0
  7  8  2  0
  8  9  1  0
  9 10  1  0
  9 11  1  0
  9 12  1  0
  8 13  1  0
 13 14  2  0
  2 15  1  0
 15 16  1  0
 16 17  1  0
 17 18  2  0
 18 19  1  0
 19 20  2  0
 20 21  1  0
 14  5  1  0
 21 17  1  0
  3 22  1  0
  3 23  1  0
  6 24  1  0
  7 25  1  0
 13 26  1  0
 14 27  1  0
 15 28  1  0
 16 29  1  0
 16 30  1  0
 18 31  1  0
 19 32  1  0
 20 33  1  0
M  END
>  <UniqueID>  (20) 
19

>  <SMILES>  (20) 
O=C(CSc1ccc(C(F)(F)F)cc1)NCc1ccco1

>  <Energy>  (20) 
50.669346189991295

>  <Genealogy>  (20) 
O=C(CSc1ccc(C(F)(F)F)cc1)NCc1ccco1 (3D coordinates assigned)
O=C(CSc1ccc(C(F)(F)F)cc1)NCc1ccco1 (optimized conformer: 50.669346189991295 kcal/mol)

>  <smiles>  (20) 
O=C(CSc1ccc(C(F)(F)F)cc1)NCc1ccco1

>  <score_type>  (20) 
oracle

>  <origin>  (20) 
adg

>  <m_score__min__energy>  (20) 
-7.8499999999999996

>  <m_primary>  (20) 
energy

$$$$
20:0
     RDKit          3D

 40 40  0  0  0  0  0  0  0  0999 V2000
   -1.6690   21.3710  -32.1440 C   0  0  0  0  0  0  0  0  0  0  0  0
   -1.4530   19.8680  -31.9980 C   0  0  0  0  0  0  0  0  0  0  0  0
   -0.7640   19.5610  -30.7210 N   0  0  0  0  0  0  0  0  0  0  0  0
    0.4760   18.7850  -30.9680 C   0  0  0  0  0  0  0  0  0  0  0  0
    0.5390   17.5490  -30.0690 C   0  0  0  0  0  0  0  0  0  0  0  0
   -0.4510   20.8140  -29.9950 C   0  0  0  0  0  0  0  0  0  0  0  0
   -0.5040   20.6180  -28.4930 C   0  0  0  0  0  0  0  0  0  0  0  0
    0.3140   19.8600  -27.9880 O   0  0  0  0  0  0  0  0  0  0  0  0
   -1.5650   21.2900  -27.6070 C   0  0  0  0  0  0  0  0  0  0  0  0
   -2.6670   20.2700  -27.2290 C   0  0  0  0  0  0  0  0  0  0  0  0
   -0.9080   21.7430  -26.2800 C   0  0  0  0  0  0  0  0  0  0  0  0
   -2.2230   22.4440  -28.3840 C   0  0  0  0  0  0  0  0  0  0  0  0
   -3.3570   22.2640  -29.2110 C   0  0  0  0  0  0  0  0  0  0  0  0
   -3.8960   23.3350  -29.9310 C   0  0  0  0  0  0  0  0  0  0  0  0
   -3.3160   24.6010  -29.8530 C   0  0  0  0  0  0  0  0  0  0  0  0
   -3.8600   25.6570  -30.5730 O   0  0  0  0  0  0  0  0  0  0  0  0
   -2.1910   24.8010  -29.0500 C   0  0  0  0  0  0  0  0  0  0  0  0
   -1.6070   26.0590  -28.9670 O   0  0  0  0  0  0  0  0  0  0  0  0
   -1.6490   23.7340  -28.3260 C   0  0  0  0  0  0  0  0  0  0  0  0
   -1.7350   21.8305  -31.1468 H   0  0  0  0  0  0  0  0  0  0  0  0
   -0.8248   21.8109  -32.6953 H   0  0  0  0  0  0  0  0  0  0  0  0
   -2.6029   21.5554  -32.6953 H   0  0  0  0  0  0  0  0  0  0  0  0
   -2.4283   19.3594  -32.0139 H   0  0  0  0  0  0  0  0  0  0  0  0
   -0.8271   19.5171  -32.8318 H   0  0  0  0  0  0  0  0  0  0  0  0
    0.4965   18.4655  -32.0204 H   0  0  0  0  0  0  0  0  0  0  0  0
    1.3408   19.4262  -30.7423 H   0  0  0  0  0  0  0  0  0  0  0  0
    0.5231   17.8614  -29.0144 H   0  0  0  0  0  0  0  0  0  0  0  0
   -0.3274   16.9026  -30.2730 H   0  0  0  0  0  0  0  0  0  0  0  0
    1.4666   16.9941  -30.2730 H   0  0  0  0  0  0  0  0  0  0  0  0
    0.5593   21.1463  -30.2760 H   0  0  0  0  0  0  0  0  0  0  0  0
   -1.2037   21.5676  -30.2699 H   0  0  0  0  0  0  0  0  0  0  0  0
   -2.7421   20.2004  -26.1338 H   0  0  0  0  0  0  0  0  0  0  0  0
   -3.6309   20.6016  -27.6423 H   0  0  0  0  0  0  0  0  0  0  0  0
   -2.4108   19.2833  -27.6423 H   0  0  0  0  0  0  0  0  0  0  0  0
   -1.4841   21.3458  -25.4313 H   0  0  0  0  0  0  0  0  0  0  0  0
    0.1232   21.3631  -26.2330 H   0  0  0  0  0  0  0  0  0  0  0  0
   -0.8964   22.8419  -26.2330 H   0  0  0  0  0  0  0  0  0  0  0  0
   -3.8204   21.2694  -29.2886 H   0  0  0  0  0  0  0  0  0  0  0  0
   -4.7828   23.1779  -30.5627 H   0  0  0  0  0  0  0  0  0  0  0  0
   -0.7600   23.9020  -27.7003 H   0  0  0  0  0  0  0  0  0  0  0  0
  1  2  1  0
  2  3  1  0
  3  4  1  0
  4  5  1  0
  3  6  1  0
  6  7  1  0
  7  8  2  0
  7  9  1  0
  9 10  1  0
  9 11  1  0
  9 12  1  0
 12 13  2  0
 13 14  1  0
 14 15  2  0
 15 16  1  0
 15 17  1  0
 17 18  1  0
 17 19  2  0
 19 12  1  0
  1 20  1  0
  1 21  1  0
  1 22  1  0
  2 23  1  0
  2 24  1  0
  4 25  1  0
  4 26  1  0
  5 27  1  0
  5 28  1  0
  5 29  1  0
  6 30  1  0
  6 31  1  0
 10 32  1  0
 10 33  1  0
 10 34  1  0
 11 35  1  0
 11 36  1  0
 11 37  1  0
 13 38  1  0
 14 39  1  0
 19 40  1  0
M  CHG  2  16  -1  18  -1
M  END
>  <UniqueID>  (21) 
20

>  <SMILES>  (21) 
CCN(CC)CC(=O)C(C)(C)c1ccc([O-])c([O-])c1

>  <Energy>  (21) 
38.12025978660212

>  <Genealogy>  (21) 
CCN(CC)CC(=O)C(C)(C)c1ccc([O-])c([O-])c1 (protonated)
CCN(CC)CC(=O)C(C)(C)c1ccc([O-])c([O-])c1 (3D coordinates assigned)
CCN(CC)CC(=O)C(C)(C)c1ccc([O-])c([O-])c1 (optimized conformer: 38.12025978660212 kcal/mol)

>  <smiles>  (21) 
CCN(CC)CC(=O)C(C)(C)c1ccc(O)c(O)c1

>  <score_type>  (21) 
oracle

>  <origin>  (21) 
adg

>  <m_score__min__energy>  (21) 
-11.06

>  <m_primary>  (21) 
energy

$$$$
21:0
     RDKit          3D

 49 52  0  0  0  0  0  0  0  0999 V2000
   -6.1370   25.6670  -29.6990 C   0  0  0  0  0  0  0  0  0  0  0  0
   -5.0630   24.6960  -30.0750 C   0  0  0  0  0  0  0  0  0  0  0  0
   -3.8160   24.7480  -29.5670 N   0  0  0  0  0  0  0  0  0  0  0  0
   -3.1270   23.7360  -30.0740 N   0  0  0  0  0  0  0  0  0  0  0  0
   -1.7450   23.4160  -29.6930 C   0  0  0  0  0  0  0  0  0  0  0  0
   -1.0810   24.5990  -28.9550 C   0  0  0  0  0  0  0  0  0  0  0  0
   -1.1220   24.3890  -27.4330 C   0  0  0  0  0  0  0  0  0  0  0  0
   -0.4420   23.2170  -26.9970 O   0  0  0  0  0  0  0  0  0  0  0  0
   -0.4940   22.1310  -27.9180 C   0  0  0  0  0  0  0  0  0  0  0  0
   -1.7250   22.1370  -28.8370 C   0  0  0  0  0  0  0  0  0  0  0  0
   -3.9250   23.0090  -30.8860 C   0  0  0  0  0  0  0  0  0  0  0  0
   -3.4400   21.5460  -31.7350 Cl  0  0  0  0  0  0  0  0  0  0  0  0
   -5.1720   23.6090  -30.9330 C   0  0  0  0  0  0  0  0  0  0  0  0
   -6.3560   23.1460  -31.6820 C   0  0  0  0  0  0  0  0  0  0  0  0
   -6.7580   23.8090  -32.6750 O   0  0  0  0  0  0  0  0  0  0  0  0
   -7.0620   21.9640  -31.2790 N   0  0  0  0  0  0  0  0  0  0  0  0
   -8.0300   21.3000  -32.1470 C   0  0  0  0  0  0  0  0  0  0  0  0
   -7.5270   19.9360  -32.5330 C   0  0  0  0  0  0  0  0  0  0  0  0
   -8.0610   18.7830  -31.9410 C   0  0  0  0  0  0  0  0  0  0  0  0
   -7.6060   17.5170  -32.3240 C   0  0  0  0  0  0  0  0  0  0  0  0
   -6.6160   17.3800  -33.3130 C   0  0  0  0  0  0  0  0  0  0  0  0
   -6.1540   16.0670  -33.6920 N   0  0  0  0  0  0  0  0  0  0  0  0
   -4.9080   15.5610  -33.5950 C   0  0  0  0  0  0  0  0  0  0  0  0
   -4.8550   14.2960  -34.0520 N   0  0  0  0  0  0  0  0  0  0  0  0
   -6.1310   14.0680  -34.4310 C   0  0  0  0  0  0  0  0  0  0  0  0
   -6.9260   15.1330  -34.2190 N   0  0  0  0  0  0  0  0  0  0  0  0
   -6.0870   18.5420  -33.9070 C   0  0  0  0  0  0  0  0  0  0  0  0
   -6.5410   19.8060  -33.5210 C   0  0  0  0  0  0  0  0  0  0  0  0
   -6.2069   25.7302  -28.6030 H   0  0  0  0  0  0  0  0  0  0  0  0
   -5.8946   26.6586  -30.1087 H   0  0  0  0  0  0  0  0  0  0  0  0
   -7.0993   25.3262  -30.1087 H   0  0  0  0  0  0  0  0  0  0  0  0
   -1.1582   23.2358  -30.6058 H   0  0  0  0  0  0  0  0  0  0  0  0
   -0.0331   24.6829  -29.2788 H   0  0  0  0  0  0  0  0  0  0  0  0
   -1.6332   25.5189  -29.1977 H   0  0  0  0  0  0  0  0  0  0  0  0
   -0.6561   25.2605  -26.9498 H   0  0  0  0  0  0  0  0  0  0  0  0
   -2.1793   24.2688  -27.1542 H   0  0  0  0  0  0  0  0  0  0  0  0
    0.4064   22.1712  -28.5486 H   0  0  0  0  0  0  0  0  0  0  0  0
   -0.5555   21.2120  -27.3167 H   0  0  0  0  0  0  0  0  0  0  0  0
   -1.6890   21.2584  -29.4978 H   0  0  0  0  0  0  0  0  0  0  0  0
   -2.6341   22.1056  -28.2184 H   0  0  0  0  0  0  0  0  0  0  0  0
   -6.9040   21.5710  -30.3250 H   0  0  0  0  0  0  0  0  0  0  0  0
   -8.9867   21.1976  -31.6139 H   0  0  0  0  0  0  0  0  0  0  0  0
   -8.1712   21.9026  -33.0564 H   0  0  0  0  0  0  0  0  0  0  0  0
   -8.8417   18.8743  -31.1715 H   0  0  0  0  0  0  0  0  0  0  0  0
   -8.0268   16.6197  -31.8468 H   0  0  0  0  0  0  0  0  0  0  0  0
   -4.0447   16.1118  -33.1935 H   0  0  0  0  0  0  0  0  0  0  0  0
   -6.4809   13.1193  -34.8640 H   0  0  0  0  0  0  0  0  0  0  0  0
   -5.3103   18.4540  -34.6809 H   0  0  0  0  0  0  0  0  0  0  0  0
   -6.1217   20.7053  -33.9958 H   0  0  0  0  0  0  0  0  0  0  0  0
  1  2  1  0
  2  3  2  0
  3  4  1  0
  4  5  1  0
  5  6  1  0
  6  7  1  0
  7  8  1  0
  8  9  1  0
  9 10  1  0
  4 11  1  0
 11 12  1  0
 11 13  2  0
 13 14  1  0
 14 15  2  0
 14 16  1  0
 16 17  1  0
 17 18  1  0
 18 19  2  0
 19 20  1  0
 20 21  2  0
 21 22  1  0
 22 23  1  0
 23 24  2  0
 24 25  1  0
 25 26  2  0
 21 27  1  0
 27 28  2  0
 13  2  1  0
 28 18  1  0
 10  5  1  0
 26 22  1  0
  1 29  1  0
  1 30  1  0
  1 31  1  0
  5 32  1  0
  6 33  1  0
  6 34  1  0
  7 35  1  0
  7 36  1  0
  9 37  1  0
  9 38  1  0
 10 39  1  0
 10 40  1  0
 16 41  1  0
 17 42  1  0
 17 43  1  0
 19 44  1  0
 20 45  1  0
 23 46  1  0
 25 47  1  0
 27 48  1  0
 28 49  1  0
M  END
>  <UniqueID>  (22) 
21

>  <SMILES>  (22) 
Cc1nn(C2CCOCC2)c(Cl)c1C(=O)NCc1ccc(-n2cncn2)cc1

>  <Energy>  (22) 
126.36916045987552

>  <Genealogy>  (22) 
Cc1nn(C2CCOCC2)c(Cl)c1C(=O)NCc1ccc(-n2cncn2)cc1 (3D coordinates assigned)
Cc1nn(C2CCOCC2)c(Cl)c1C(=O)NCc1ccc(-n2cncn2)cc1 (nonaromatic ring conformer: 126.36916045987552 kcal/mol)

>  <smiles>  (22) 
Cc1nn(C2CCOCC2)c(Cl)c1C(=O)NCc1ccc(-n2cncn2)cc1

>  <score_type>  (22) 
oracle

>  <origin>  (22) 
adg

>  <m_score__min__energy>  (22) 
-8.9700000000000006

>  <m_primary>  (22) 
energy

$$$$
22:0
     RDKit          3D

 33 35  0  0  0  0  0  0  0  0999 V2000
   -9.8140   21.1260  -31.9720 C   0  0  0  0  0  0  0  0  0  0  0  0
   -9.4900   19.6840  -32.2530 C   0  0  0  0  0  0  0  0  0  0  0  0
   -8.0470   19.4470  -32.4830 C   0  0  0  0  0  0  0  0  0  0  0  0
   -7.4950   18.1950  -32.6600 C   0  0  0  0  0  0  0  0  0  0  0  0
   -6.1710   17.9620  -32.8730 C   0  0  0  0  0  0  0  0  0  0  0  0
   -5.2520   19.0370  -32.9240 C   0  0  0  0  0  0  0  0  0  0  0  0
   -3.9200   18.9930  -33.1230 C   0  0  0  0  0  0  0  0  0  0  0  0
   -3.2200   20.1310  -33.1370 C   0  0  0  0  0  0  0  0  0  0  0  0
   -1.8020   20.3810  -33.3250 C   0  0  0  0  0  0  0  0  0  0  0  0
   -1.3900   21.3000  -34.2170 N   0  0  0  0  0  0  0  0  0  0  0  0
   -0.0810   21.5530  -34.4130 C   0  0  0  0  0  0  0  0  0  0  0  0
    0.3040   22.4310  -35.2660 N   0  0  0  0  0  0  0  0  0  0  0  0
    0.7920   20.8430  -33.6750 N   0  0  0  0  0  0  0  0  0  0  0  0
    0.3740   19.9220  -32.7810 C   0  0  0  0  0  0  0  0  0  0  0  0
    1.4190   19.1840  -32.0070 C   0  0  0  0  0  0  0  0  0  0  0  0
   -0.9460   19.6630  -32.5790 N   0  0  0  0  0  0  0  0  0  0  0  0
   -4.4250   21.4170  -32.8600 S   0  0  0  0  0  0  0  0  0  0  0  0
   -5.8130   20.2660  -32.7460 C   0  0  0  0  0  0  0  0  0  0  0  0
   -7.1610   20.5110  -32.5290 C   0  0  0  0  0  0  0  0  0  0  0  0
   -9.8505   21.2885  -30.8847 H   0  0  0  0  0  0  0  0  0  0  0  0
   -9.0379   21.7688  -32.4129 H   0  0  0  0  0  0  0  0  0  0  0  0
  -10.7905   21.3751  -32.4129 H   0  0  0  0  0  0  0  0  0  0  0  0
   -9.8113   19.0789  -31.3924 H   0  0  0  0  0  0  0  0  0  0  0  0
  -10.0196   19.4026  -33.1751 H   0  0  0  0  0  0  0  0  0  0  0  0
   -8.1700   17.3271  -32.6268 H   0  0  0  0  0  0  0  0  0  0  0  0
   -5.8127   16.9306  -33.0065 H   0  0  0  0  0  0  0  0  0  0  0  0
   -3.4132   18.0283  -33.2727 H   0  0  0  0  0  0  0  0  0  0  0  0
   -0.3690   22.9450  -35.8410 H   0  0  0  0  0  0  0  0  0  0  0  0
    1.2367   19.3127  -30.9299 H   0  0  0  0  0  0  0  0  0  0  0  0
    1.3764   18.1145  -32.2609 H   0  0  0  0  0  0  0  0  0  0  0  0
    2.4126   19.5818  -32.2609 H   0  0  0  0  0  0  0  0  0  0  0  0
   -1.2550   18.9610  -31.8990 H   0  0  0  0  0  0  0  0  0  0  0  0
   -7.5232   21.5409  -32.3946 H   0  0  0  0  0  0  0  0  0  0  0  0
  1  2  1  0
  2  3  1  0
  3  4  2  0
  4  5  1  0
  5  6  2  0
  6  7  1  0
  7  8  2  0
  8  9  1  0
  9 10  2  0
 10 11  1  0
 11 12  2  3
 11 13  1  0
 13 14  2  0
 14 15  1  0
 14 16  1  0
  8 17  1  0
 17 18  1  0
 18 19  2  0
 19  3  1  0
 18  6  1  0
 16  9  1  0
  1 20  1  0
  1 21  1  0
  1 22  1  0
  2 23  1  0
  2 24  1  0
  4 25  1  0
  5 26  1  0
  7 27  1  0
 12 28  1  0
 15 29  1  0
 15 30  1  0
 15 31  1  0
 16 32  1  0
 19 33  1  0
M  END
>  <smiles>  (23) 
CCc1ccc2cc(-c3nc(=N)nc(C)[nH]3)sc2c1

>  <score_type>  (23) 
oracle

>  <origin>  (23) 
adg

>  <m_score__min__energy>  (23) 
-6.8899999999999997

>  <m_primary>  (23) 
energy

$$$$
23:0
     RDKit          3D

 54 57  0  0  0  0  0  0  0  0999 V2000
   -2.0620   25.2790  -29.3280 O   0  0  0  0  0  0  0  0  0  0  0  0
   -2.8700   24.3270  -29.1480 C   0  0  0  0  0  0  0  0  0  0  0  0
   -2.8140   23.5280  -27.8550 C   0  0  0  0  0  0  0  0  0  0  0  0
   -2.1640   22.1650  -28.0270 C   0  0  0  0  0  0  0  0  0  0  0  0
   -1.0380   22.0290  -28.8600 C   0  0  0  0  0  0  0  0  0  0  0  0
   -0.4510   20.7750  -29.0580 C   0  0  0  0  0  0  0  0  0  0  0  0
   -0.9860   19.6440  -28.4370 C   0  0  0  0  0  0  0  0  0  0  0  0
   -2.1110   19.7640  -27.6190 C   0  0  0  0  0  0  0  0  0  0  0  0
   -2.7020   21.0140  -27.4180 C   0  0  0  0  0  0  0  0  0  0  0  0
   -2.1210   24.2800  -26.7320 C   0  0  0  0  0  0  0  0  0  0  0  0
   -0.9870   23.7520  -26.0840 C   0  0  0  0  0  0  0  0  0  0  0  0
   -0.3780   24.4550  -25.0390 C   0  0  0  0  0  0  0  0  0  0  0  0
   -0.9010   25.6800  -24.6210 C   0  0  0  0  0  0  0  0  0  0  0  0
   -2.0340   26.2050  -25.2450 C   0  0  0  0  0  0  0  0  0  0  0  0
   -2.6460   25.5080  -26.2910 C   0  0  0  0  0  0  0  0  0  0  0  0
   -3.7870   23.9790  -30.2050 N   0  0  0  0  0  0  0  0  0  0  0  0
   -5.0330   24.7470  -30.3470 C   0  0  0  0  0  0  0  0  0  0  0  0
   -5.9960   24.1190  -31.3630 C   0  0  0  0  0  0  0  0  0  0  0  0
   -6.5430   22.7540  -30.9070 C   0  0  0  0  0  0  0  0  0  0  0  0
   -5.6570   21.6180  -31.2370 N   0  0  0  0  0  0  0  0  0  0  0  0
   -6.2170   20.4680  -31.9120 C   0  0  0  0  0  0  0  0  0  0  0  0
   -7.5110   20.0160  -31.5870 C   0  0  0  0  0  0  0  0  0  0  0  0
   -8.0630   18.9100  -32.2380 C   0  0  0  0  0  0  0  0  0  0  0  0
   -7.3320   18.2400  -33.2220 C   0  0  0  0  0  0  0  0  0  0  0  0
   -6.0500   18.6780  -33.5570 C   0  0  0  0  0  0  0  0  0  0  0  0
   -5.4900   19.7840  -32.9100 C   0  0  0  0  0  0  0  0  0  0  0  0
   -4.2540   20.1940  -33.2780 F   0  0  0  0  0  0  0  0  0  0  0  0
   -4.2600   21.5880  -30.7670 C   0  0  0  0  0  0  0  0  0  0  0  0
   -3.4890   22.8750  -31.1320 C   0  0  0  0  0  0  0  0  0  0  0  0
   -3.8671   23.3743  -27.5767 H   0  0  0  0  0  0  0  0  0  0  0  0
   -0.6168   22.9145  -29.3586 H   0  0  0  0  0  0  0  0  0  0  0  0
    0.4340   20.6792  -29.7042 H   0  0  0  0  0  0  0  0  0  0  0  0
   -0.5212   18.6592  -28.5924 H   0  0  0  0  0  0  0  0  0  0  0  0
   -2.5330   18.8726  -27.1318 H   0  0  0  0  0  0  0  0  0  0  0  0
   -3.5937   21.1001  -26.7797 H   0  0  0  0  0  0  0  0  0  0  0  0
   -0.5781   22.7814  -26.4015 H   0  0  0  0  0  0  0  0  0  0  0  0
    0.5143   24.0419  -24.5459 H   0  0  0  0  0  0  0  0  0  0  0  0
   -0.4202   26.2317  -23.7997 H   0  0  0  0  0  0  0  0  0  0  0  0
   -2.4462   27.1693  -24.9129 H   0  0  0  0  0  0  0  0  0  0  0  0
   -3.5440   25.9227  -26.7722 H   0  0  0  0  0  0  0  0  0  0  0  0
   -5.5330   24.7928  -29.3683 H   0  0  0  0  0  0  0  0  0  0  0  0
   -4.7682   25.7502  -30.7124 H   0  0  0  0  0  0  0  0  0  0  0  0
   -6.8434   24.8041  -31.5131 H   0  0  0  0  0  0  0  0  0  0  0  0
   -5.4324   23.9543  -32.2932 H   0  0  0  0  0  0  0  0  0  0  0  0
   -6.6801   22.7818  -29.8159 H   0  0  0  0  0  0  0  0  0  0  0  0
   -7.4885   22.5908  -31.4450 H   0  0  0  0  0  0  0  0  0  0  0  0
   -8.0924   20.5389  -30.8133 H   0  0  0  0  0  0  0  0  0  0  0  0
   -9.0744   18.5663  -31.9755 H   0  0  0  0  0  0  0  0  0  0  0  0
   -7.7666   17.3678  -33.7324 H   0  0  0  0  0  0  0  0  0  0  0  0
   -5.4771   18.1506  -34.3339 H   0  0  0  0  0  0  0  0  0  0  0  0
   -4.2576   21.4729  -29.6730 H   0  0  0  0  0  0  0  0  0  0  0  0
   -3.7574   20.7439  -31.2619 H   0  0  0  0  0  0  0  0  0  0  0  0
   -2.4099   22.6642  -31.0977 H   0  0  0  0  0  0  0  0  0  0  0  0
   -3.8026   23.1842  -32.1400 H   0  0  0  0  0  0  0  0  0  0  0  0
  1  2  2  0
  2  3  1  0
  3  4  1  0
  4  5  2  0
  5  6  1  0
  6  7  2  0
  7  8  1  0
  8  9  2  0
  3 10  1  0
 10 11  2  0
 11 12  1  0
 12 13  2  0
 13 14  1  0
 14 15  2  0
  2 16  1  0
 16 17  1  0
 17 18  1  0
 18 19  1  0
 19 20  1  0
 20 21  1  0
 21 22  2  0
 22 23  1  0
 23 24  2  0
 24 25  1  0
 25 26  2  0
 26 27  1  0
 20 28  1  0
 28 29  1  0
  9  4  1  0
 15 10  1  0
 29 16  1  0
 26 21  1  0
  3 30  1  0
  5 31  1  0
  6 32  1  0
  7 33  1  0
  8 34  1  0
  9 35  1  0
 11 36  1  0
 12 37  1  0
 13 38  1  0
 14 39  1  0
 15 40  1  0
 17 41  1  0
 17 42  1  0
 18 43  1  0
 18 44  1  0
 19 45  1  0
 19 46  1  0
 22 47  1  0
 23 48  1  0
 24 49  1  0
 25 50  1  0
 28 51  1  0
 28 52  1  0
 29 53  1  0
 29 54  1  0
M  END
>  <UniqueID>  (24) 
22

>  <SMILES>  (24) 
O=C(C(c1ccccc1)c1ccccc1)N1CCCN(c2ccccc2F)CC1

>  <Energy>  (24) 
71.7988351575967

>  <Genealogy>  (24) 
O=C(C(c1ccccc1)c1ccccc1)N1CCCN(c2ccccc2F)CC1 (3D coordinates assigned)
O=C(C(c1ccccc1)c1ccccc1)N1CCCN(c2ccccc2F)CC1 (nonaromatic ring conformer: 71.7988351575967 kcal/mol)

>  <smiles>  (24) 
O=C(C(c1ccccc1)c1ccccc1)N1CCCN(c2ccccc2F)CC1

>  <score_type>  (24) 
oracle

>  <origin>  (24) 
adg

>  <m_score__min__energy>  (24) 
-7.5700000000000003

>  <m_primary>  (24) 
energy

$$$$
24:0
     RDKit          3D

 43 44  0  0  0  0  0  0  0  0999 V2000
   -4.1923   23.4317  -28.2328 H   0  0  0  0  0  0  0  0  0  0  0  0
   -3.1570   23.8030  -28.2170 C   0  0  0  0  0  0  0  0  0  0  0  0
   -2.7560   24.8330  -29.1900 C   0  0  0  0  0  0  0  0  0  0  0  0
   -1.7570   25.5710  -28.9710 O   0  0  0  0  0  0  0  0  0  0  0  0
   -3.4890   24.9450  -30.4160 N   0  0  0  0  0  0  0  0  0  0  0  0
   -4.8120   24.4450  -30.6660 C   0  0  0  0  0  0  0  0  0  0  0  0
   -5.9510   25.0960  -30.1530 C   0  0  0  0  0  0  0  0  0  0  0  0
   -5.8366   26.0229  -29.5718 H   0  0  0  0  0  0  0  0  0  0  0  0
   -7.2250   24.5700  -30.3790 C   0  0  0  0  0  0  0  0  0  0  0  0
   -8.1112   25.0903  -29.9866 H   0  0  0  0  0  0  0  0  0  0  0  0
   -7.3760   23.3850  -31.1020 C   0  0  0  0  0  0  0  0  0  0  0  0
   -8.3808   22.9750  -31.2818 H   0  0  0  0  0  0  0  0  0  0  0  0
   -6.2520   22.7200  -31.5970 C   0  0  0  0  0  0  0  0  0  0  0  0
   -6.3730   21.7796  -32.1546 H   0  0  0  0  0  0  0  0  0  0  0  0
   -4.9720   23.2460  -31.3860 C   0  0  0  0  0  0  0  0  0  0  0  0
   -3.5420   22.3600  -32.0290 S   0  0  0  0  0  0  0  0  0  0  0  0
   -3.3710   21.2380  -30.5940 C   0  0  0  0  0  0  0  0  0  0  0  0
   -4.1297   20.4448  -30.6669 H   0  0  0  0  0  0  0  0  0  0  0  0
   -3.5100   21.8261  -29.6749 H   0  0  0  0  0  0  0  0  0  0  0  0
   -1.9820   20.5970  -30.5520 C   0  0  0  0  0  0  0  0  0  0  0  0
   -1.9854   19.6918  -31.1769 H   0  0  0  0  0  0  0  0  0  0  0  0
   -1.7454   20.3459  -29.5075 H   0  0  0  0  0  0  0  0  0  0  0  0
   -0.9160   21.5570  -31.0720 C   0  0  0  0  0  0  0  0  0  0  0  0
   -0.3972   22.0242  -30.2219 H   0  0  0  0  0  0  0  0  0  0  0  0
   -0.1901   21.0020  -31.6845 H   0  0  0  0  0  0  0  0  0  0  0  0
   -1.3922   22.3368  -31.6845 H   0  0  0  0  0  0  0  0  0  0  0  0
   -2.3030   23.3020  -27.3120 C   0  0  0  0  0  0  0  0  0  0  0  0
   -1.9481   23.9659  -26.5100 H   0  0  0  0  0  0  0  0  0  0  0  0
   -1.8100   21.9020  -27.3320 C   0  0  0  0  0  0  0  0  0  0  0  0
   -2.7300   20.8620  -27.1230 C   0  0  0  0  0  0  0  0  0  0  0  0
   -3.7886   21.1002  -26.9424 H   0  0  0  0  0  0  0  0  0  0  0  0
   -2.3150   19.5270  -27.1420 C   0  0  0  0  0  0  0  0  0  0  0  0
   -3.0461   18.7236  -26.9686 H   0  0  0  0  0  0  0  0  0  0  0  0
   -0.9660   19.2070  -27.3820 C   0  0  0  0  0  0  0  0  0  0  0  0
   -0.5000   17.8850  -27.4090 O   0  0  0  0  0  0  0  0  0  0  0  0
    0.5910   17.4330  -28.2070 C   0  0  0  0  0  0  0  0  0  0  0  0
    1.4081   17.0945  -27.5530 H   0  0  0  0  0  0  0  0  0  0  0  0
    0.2597   16.5981  -28.8419 H   0  0  0  0  0  0  0  0  0  0  0  0
    0.9472   18.2576  -28.8419 H   0  0  0  0  0  0  0  0  0  0  0  0
   -0.0500   20.2400  -27.6060 C   0  0  0  0  0  0  0  0  0  0  0  0
    1.0060   19.9992  -27.7982 H   0  0  0  0  0  0  0  0  0  0  0  0
   -0.4630   21.5750  -27.5880 C   0  0  0  0  0  0  0  0  0  0  0  0
    0.2678   22.3757  -27.7748 H   0  0  0  0  0  0  0  0  0  0  0  0
  1  2  1  0
  2  3  1  0
  3  4  2  0
  3  5  1  0
  5  6  1  0
  6  7  2  0
  7  8  1  0
  7  9  1  0
  9 10  1  0
  9 11  2  0
 11 12  1  0
 11 13  1  0
 13 14  1  0
 13 15  2  0
 15 16  1  0
 16 17  1  0
 17 18  1  0
 17 19  1  0
 17 20  1  0
 20 21  1  0
 20 22  1  0
 20 23  1  0
 23 24  1  0
 23 25  1  0
 23 26  1  0
  2 27  2  0
 27 28  1  0
 27 29  1  0
 29 30  2  0
 30 31  1  0
 30 32  1  0
 32 33  1  0
 32 34  2  0
 34 35  1  0
 35 36  1  0
 36 37  1  0
 36 38  1  0
 36 39  1  0
 34 40  1  0
 40 41  1  0
 40 42  2  0
 42 43  1  0
 15  6  1  0
 42 29  1  0
M  CHG  1   5  -1
M  END
>  <UniqueID>  (25) 
23

>  <SMILES>  (25) 
CCCSc1ccccc1[N-]C(=O)/C=C/c1ccc(OC)cc1

>  <Energy>  (25) 
38.8335855457409

>  <Genealogy>  (25) 
CCCSc1ccccc1[N-]C(=O)C=Cc1ccc(OC)cc1 (protonated)
CCCSc1ccccc1[N-]C(=O)/C=C/c1ccc(OC)cc1 (cis-trans isomerization)
CCCSc1ccccc1[N-]C(=O)/C=C/c1ccc(OC)cc1 (3D coordinates assigned)
CCCSc1ccccc1[N-]C(=O)/C=C/c1ccc(OC)cc1 (optimized conformer: 38.8335855457409 kcal/mol)

>  <smiles>  (25) 
CCCSc1ccccc1NC(=O)C=Cc1ccc(OC)cc1

>  <score_type>  (25) 
oracle

>  <origin>  (25) 
adg

>  <m_score__min__energy>  (25) 
-9.4700000000000006

>  <m_primary>  (25) 
energy

$$$$
25:0
     RDKit          3D

 22 22  0  0  0  0  0  0  0  0999 V2000
   -3.0650   25.6970  -30.8450 H   0  0  0  0  0  0  0  0  0  0  0  0
   -4.0720   25.6040  -30.8520 O   0  0  0  0  0  0  0  0  0  0  0  0
   -4.6600   24.4430  -30.4040 N   0  0  0  0  0  0  0  0  0  0  0  0
   -4.0580   23.2930  -30.4590 C   0  0  0  0  0  0  0  0  0  0  0  0
   -2.9330   22.9670  -29.5490 C   0  0  0  0  0  0  0  0  0  0  0  0
   -2.7730   21.6500  -29.0990 C   0  0  0  0  0  0  0  0  0  0  0  0
   -3.4798   20.8721  -29.4233 H   0  0  0  0  0  0  0  0  0  0  0  0
   -1.7240   21.3190  -28.2430 C   0  0  0  0  0  0  0  0  0  0  0  0
   -1.6043   20.2800  -27.9022 H   0  0  0  0  0  0  0  0  0  0  0  0
   -0.8220   22.2990  -27.8140 C   0  0  0  0  0  0  0  0  0  0  0  0
    0.2250   21.9450  -26.9620 O   0  0  0  0  0  0  0  0  0  0  0  0
    0.9660   22.5970  -26.7310 H   0  0  0  0  0  0  0  0  0  0  0  0
   -0.9720   23.6360  -28.2410 C   0  0  0  0  0  0  0  0  0  0  0  0
   -0.0090   24.6600  -27.7680 C   0  0  0  0  0  0  0  0  0  0  0  0
   -0.3920   25.5979  -27.3395 H   0  0  0  0  0  0  0  0  0  0  0  0
    1.2350   24.4840  -27.8440 O   0  0  0  0  0  0  0  0  0  0  0  0
   -2.0430   23.9660  -29.1050 C   0  0  0  0  0  0  0  0  0  0  0  0
   -2.2440   25.2840  -29.5090 O   0  0  0  0  0  0  0  0  0  0  0  0
   -4.4340   22.3350  -31.5470 C   0  0  0  0  0  0  0  0  0  0  0  0
   -4.8013   21.3991  -31.1007 H   0  0  0  0  0  0  0  0  0  0  0  0
   -5.2245   22.7793  -32.1697 H   0  0  0  0  0  0  0  0  0  0  0  0
   -3.5524   22.1230  -32.1697 H   0  0  0  0  0  0  0  0  0  0  0  0
  1  2  1  0
  2  3  1  0
  3  4  2  0
  4  5  1  0
  5  6  2  0
  6  7  1  0
  6  8  1  0
  8  9  1  0
  8 10  2  0
 10 11  1  0
 11 12  1  0
 10 13  1  0
 13 14  1  0
 14 15  1  0
 14 16  2  0
 13 17  2  0
 17 18  1  0
  4 19  1  0
 19 20  1  0
 19 21  1  0
 19 22  1  0
 17  5  1  0
M  CHG  1  18  -1
M  END
>  <UniqueID>  (26) 
24

>  <SMILES>  (26) 
C/C(=N/O)c1ccc(O)c(C=O)c1[O-]

>  <Energy>  (26) 
27.325578254571823

>  <Genealogy>  (26) 
CC(=NO)c1ccc(O)c(C=O)c1[O-] (protonated)
C/C(=N/O)c1ccc(O)c(C=O)c1[O-] (cis-trans isomerization)
C/C(=N/O)c1ccc(O)c(C=O)c1[O-] (3D coordinates assigned)
C/C(=N/O)c1ccc(O)c(C=O)c1[O-] (optimized conformer: 27.325578254571823 kcal/mol)

>  <smiles>  (26) 
CC(=NO)c1ccc(O)c(C=O)c1O

>  <score_type>  (26) 
oracle

>  <origin>  (26) 
adg

>  <m_score__min__energy>  (26) 
-8.5299999999999994

>  <m_primary>  (26) 
energy

$$$$
26:0
     RDKit          3D

 39 40  0  0  0  0  0  0  0  0999 V2000
   -5.8000   18.9940  -34.1560 C   0  0  0  0  0  0  0  0  0  0  0  0
   -6.7210   19.1070  -33.0770 O   0  0  0  0  0  0  0  0  0  0  0  0
   -7.2440   20.3200  -32.6030 C   0  0  0  0  0  0  0  0  0  0  0  0
   -8.6150   20.3920  -32.3330 C   0  0  0  0  0  0  0  0  0  0  0  0
   -9.1810   21.5780  -31.8620 C   0  0  0  0  0  0  0  0  0  0  0  0
   -8.3800   22.7010  -31.6450 C   0  0  0  0  0  0  0  0  0  0  0  0
   -7.0030   22.6500  -31.8950 C   0  0  0  0  0  0  0  0  0  0  0  0
   -6.2390   23.8000  -31.6320 O   0  0  0  0  0  0  0  0  0  0  0  0
   -6.1350   24.4480  -30.3630 C   0  0  0  0  0  0  0  0  0  0  0  0
   -5.2530   25.6910  -30.4680 C   0  0  0  0  0  0  0  0  0  0  0  0
   -3.8630   25.3000  -30.6650 N   0  0  0  0  0  0  0  0  0  0  0  0
   -3.0680   24.6240  -29.6820 C   0  0  0  0  0  0  0  0  0  0  0  0
   -2.2550   25.2940  -28.9940 O   0  0  0  0  0  0  0  0  0  0  0  0
   -3.1550   23.1360  -29.4700 C   0  0  0  0  0  0  0  0  0  0  0  0
   -2.5790   22.3790  -30.6410 C   0  0  0  0  0  0  0  0  0  0  0  0
   -3.3570   22.1380  -31.7870 C   0  0  0  0  0  0  0  0  0  0  0  0
   -2.8180   21.4460  -32.8750 C   0  0  0  0  0  0  0  0  0  0  0  0
   -1.5040   20.9720  -32.8230 C   0  0  0  0  0  0  0  0  0  0  0  0
   -0.7670   20.0320  -34.3140 Br  0  0  0  0  0  0  0  0  0  0  0  0
   -0.7280   21.1920  -31.6800 C   0  0  0  0  0  0  0  0  0  0  0  0
   -1.2630   21.8890  -30.5940 C   0  0  0  0  0  0  0  0  0  0  0  0
   -6.4400   21.4570  -32.3910 C   0  0  0  0  0  0  0  0  0  0  0  0
   -4.7822   18.8691  -33.7578 H   0  0  0  0  0  0  0  0  0  0  0  0
   -6.0623   18.1213  -34.7721 H   0  0  0  0  0  0  0  0  0  0  0  0
   -5.8436   19.9042  -34.7721 H   0  0  0  0  0  0  0  0  0  0  0  0
   -9.2507   19.5087  -32.4928 H   0  0  0  0  0  0  0  0  0  0  0  0
  -10.2614   21.6280  -31.6612 H   0  0  0  0  0  0  0  0  0  0  0  0
   -8.8338   23.6323  -31.2751 H   0  0  0  0  0  0  0  0  0  0  0  0
   -7.1388   24.7439  -30.0242 H   0  0  0  0  0  0  0  0  0  0  0  0
   -5.6824   23.7502  -29.6431 H   0  0  0  0  0  0  0  0  0  0  0  0
   -5.5841   26.3017  -31.3209 H   0  0  0  0  0  0  0  0  0  0  0  0
   -5.3364   26.2728  -29.5382 H   0  0  0  0  0  0  0  0  0  0  0  0
   -2.5946   22.8705  -28.5615 H   0  0  0  0  0  0  0  0  0  0  0  0
   -4.2155   22.8620  -29.3682 H   0  0  0  0  0  0  0  0  0  0  0  0
   -4.3962   22.4963  -31.8275 H   0  0  0  0  0  0  0  0  0  0  0  0
   -3.4287   21.2741  -33.7736 H   0  0  0  0  0  0  0  0  0  0  0  0
    0.3047   20.8157  -31.6364 H   0  0  0  0  0  0  0  0  0  0  0  0
   -0.6499   22.0553  -29.6960 H   0  0  0  0  0  0  0  0  0  0  0  0
   -5.3638   21.4134  -32.6144 H   0  0  0  0  0  0  0  0  0  0  0  0
  1  2  1  0
  2  3  1  0
  3  4  2  0
  4  5  1  0
  5  6  2  0
  6  7  1  0
  7  8  1  0
  8  9  1  0
  9 10  1  0
 10 11  1  0
 11 12  1  0
 12 13  2  0
 12 14  1  0
 14 15  1  0
 15 16  2  0
 16 17  1  0
 17 18  2  0
 18 19  1  0
 18 20  1  0
 20 21  2  0
  7 22  2  0
 22  3  1  0
 21 15  1  0
  1 23  1  0
  1 24  1  0
  1 25  1  0
  4 26  1  0
  5 27  1  0
  6 28  1  0
  9 29  1  0
  9 30  1  0
 10 31  1  0
 10 32  1  0
 14 33  1  0
 14 34  1  0
 16 35  1  0
 17 36  1  0
 20 37  1  0
 21 38  1  0
 22 39  1  0
M  CHG  1  11  -1
M  END
>  <UniqueID>  (27) 
25

>  <SMILES>  (27) 
COc1cccc(OCC[N-]C(=O)Cc2ccc(Br)cc2)c1

>  <Energy>  (27) 
30.895033873440365

>  <Genealogy>  (27) 
COc1cccc(OCC[N-]C(=O)Cc2ccc(Br)cc2)c1 (protonated)
COc1cccc(OCC[N-]C(=O)Cc2ccc(Br)cc2)c1 (3D coordinates assigned)
COc1cccc(OCC[N-]C(=O)Cc2ccc(Br)cc2)c1 (optimized conformer: 30.895033873440365 kcal/mol)

>  <smiles>  (27) 
COc1cccc(OCCNC(=O)Cc2ccc(Br)cc2)c1

>  <score_type>  (27) 
oracle

>  <origin>  (27) 
adg

>  <m_score__min__energy>  (27) 
-9.4900000000000002

>  <m_primary>  (27) 
energy

$$$$
27:0
     RDKit          3D

 37 39  0  0  0  0  0  0  0  0999 V2000
   -2.3540   24.7020  -28.4930 C   0  0  0  0  0  0  0  0  0  0  0  0
   -3.0740   25.2840  -29.5750 O   0  0  0  0  0  0  0  0  0  0  0  0
   -4.0770   24.6270  -30.3030 C   0  0  0  0  0  0  0  0  0  0  0  0
   -3.7860   23.3760  -30.8590 C   0  0  0  0  0  0  0  0  0  0  0  0
   -4.7530   22.6810  -31.5900 C   0  0  0  0  0  0  0  0  0  0  0  0
   -6.0360   23.2290  -31.7700 C   0  0  0  0  0  0  0  0  0  0  0  0
   -7.0340   22.5690  -32.5020 O   0  0  0  0  0  0  0  0  0  0  0  0
   -7.3390   21.2060  -32.3820 C   0  0  0  0  0  0  0  0  0  0  0  0
   -8.4950   20.7670  -31.7240 C   0  0  0  0  0  0  0  0  0  0  0  0
   -9.6760   21.8960  -31.0730 Cl  0  0  0  0  0  0  0  0  0  0  0  0
   -8.7390   19.4010  -31.6290 C   0  0  0  0  0  0  0  0  0  0  0  0
   -7.8700   18.5170  -32.1860 N   0  0  0  0  0  0  0  0  0  0  0  0
   -6.7770   18.9210  -32.8480 N   0  0  0  0  0  0  0  0  0  0  0  0
   -5.9070   17.9280  -33.4280 C   0  0  0  0  0  0  0  0  0  0  0  0
   -5.4650   18.0660  -34.7530 C   0  0  0  0  0  0  0  0  0  0  0  0
   -4.6110   17.1130  -35.3150 C   0  0  0  0  0  0  0  0  0  0  0  0
   -4.1840   16.0180  -34.5560 C   0  0  0  0  0  0  0  0  0  0  0  0
   -3.1100   14.8240  -35.2620 Cl  0  0  0  0  0  0  0  0  0  0  0  0
   -4.6130   15.8780  -33.2320 C   0  0  0  0  0  0  0  0  0  0  0  0
   -5.4670   16.8290  -32.6670 C   0  0  0  0  0  0  0  0  0  0  0  0
   -6.4860   20.2570  -32.9560 C   0  0  0  0  0  0  0  0  0  0  0  0
   -5.4420   20.6450  -33.5480 O   0  0  0  0  0  0  0  0  0  0  0  0
   -6.3240   24.4840  -31.2250 C   0  0  0  0  0  0  0  0  0  0  0  0
   -5.3580   25.1810  -30.4930 C   0  0  0  0  0  0  0  0  0  0  0  0
   -2.7814   25.0475  -27.5402 H   0  0  0  0  0  0  0  0  0  0  0  0
   -2.4268   23.6060  -28.5515 H   0  0  0  0  0  0  0  0  0  0  0  0
   -1.2976   25.0029  -28.5515 H   0  0  0  0  0  0  0  0  0  0  0  0
   -2.7875   22.9361  -30.7193 H   0  0  0  0  0  0  0  0  0  0  0  0
   -4.5099   21.7011  -32.0266 H   0  0  0  0  0  0  0  0  0  0  0  0
   -9.6342   19.0367  -31.1037 H   0  0  0  0  0  0  0  0  0  0  0  0
   -8.0910   17.4980  -32.1080 H   0  0  0  0  0  0  0  0  0  0  0  0
   -5.7924   18.9285  -35.3521 H   0  0  0  0  0  0  0  0  0  0  0  0
   -4.2739   17.2241  -36.3562 H   0  0  0  0  0  0  0  0  0  0  0  0
   -4.2775   15.0176  -32.6344 H   0  0  0  0  0  0  0  0  0  0  0  0
   -5.7966   16.7181  -31.6234 H   0  0  0  0  0  0  0  0  0  0  0  0
   -7.3198   24.9271  -31.3735 H   0  0  0  0  0  0  0  0  0  0  0  0
   -5.5991   26.1649  -30.0642 H   0  0  0  0  0  0  0  0  0  0  0  0
  1  2  1  0
  2  3  1  0
  3  4  2  0
  4  5  1  0
  5  6  2  0
  6  7  1  0
  7  8  1  0
  8  9  2  0
  9 10  1  0
  9 11  1  0
 11 12  2  0
 12 13  1  0
 13 14  1  0
 14 15  2  0
 15 16  1  0
 16 17  2  0
 17 18  1  0
 17 19  1  0
 19 20  2  0
 13 21  1  0
 21 22  2  0
  6 23  1  0
 23 24  2  0
 24  3  1  0
 21  8  1  0
 20 14  1  0
  1 25  1  0
  1 26  1  0
  1 27  1  0
  4 28  1  0
  5 29  1  0
 11 30  1  0
 12 31  1  0
 15 32  1  0
 16 33  1  0
 19 34  1  0
 20 35  1  0
 23 36  1  0
 24 37  1  0
M  CHG  1  12   1
M  END
>  <UniqueID>  (28) 
26

>  <SMILES>  (28) 
COc1ccc(Oc2c(Cl)c[nH+]n(-c3ccc(Cl)cc3)c2=O)cc1

>  <Energy>  (28) 
56.08666430399762

>  <Genealogy>  (28) 
COc1ccc(Oc2c(Cl)c[nH+]n(-c3ccc(Cl)cc3)c2=O)cc1 (protonated)
COc1ccc(Oc2c(Cl)c[nH+]n(-c3ccc(Cl)cc3)c2=O)cc1 (3D coordinates assigned)
COc1ccc(Oc2c(Cl)c[nH+]n(-c3ccc(Cl)cc3)c2=O)cc1 (optimized conformer: 56.08666430399762 kcal/mol)

>  <smiles>  (28) 
COc1ccc(Oc2c(Cl)cnn(-c3ccc(Cl)cc3)c2=O)cc1

>  <score_type>  (28) 
oracle

>  <origin>  (28) 
adg

>  <m_score__min__energy>  (28) 
-8.0299999999999994

>  <m_primary>  (28) 
energy

$$$$
28:0
     RDKit          3D

 36 38  0  0  0  0  0  0  0  0999 V2000
   -9.0940   18.5890  -31.5690 C   0  0  0  0  0  0  0  0  0  0  0  0
   -9.4790   19.6250  -32.6200 C   0  0  0  0  0  0  0  0  0  0  0  0
   -8.7190   20.8070  -32.4530 O   0  0  0  0  0  0  0  0  0  0  0  0
   -7.7600   20.6390  -31.4300 C   0  0  0  0  0  0  0  0  0  0  0  0
   -6.4240   20.6010  -32.0240 N   0  0  0  0  0  0  0  0  0  0  0  0
   -5.4320   21.5330  -31.9500 C   0  0  0  0  0  0  0  0  0  0  0  0
   -5.5350   22.8380  -31.2640 C   0  0  0  0  0  0  0  0  0  0  0  0
   -6.7790   23.4740  -31.1200 C   0  0  0  0  0  0  0  0  0  0  0  0
   -6.8670   24.7130  -30.4760 C   0  0  0  0  0  0  0  0  0  0  0  0
   -5.7140   25.3300  -29.9850 C   0  0  0  0  0  0  0  0  0  0  0  0
   -4.4700   24.7140  -30.1440 C   0  0  0  0  0  0  0  0  0  0  0  0
   -4.3780   23.4750  -30.7860 C   0  0  0  0  0  0  0  0  0  0  0  0
   -4.2850   21.0850  -32.6110 C   0  0  0  0  0  0  0  0  0  0  0  0
   -4.6240   19.8510  -33.1160 C   0  0  0  0  0  0  0  0  0  0  0  0
   -3.9150   18.9250  -33.8660 C   0  0  0  0  0  0  0  0  0  0  0  0
   -4.5470   17.7640  -34.2140 N   0  0  0  0  0  0  0  0  0  0  0  0
   -5.8440   17.5200  -33.8340 C   0  0  0  0  0  0  0  0  0  0  0  0
   -6.4900   16.2910  -34.2100 C   0  0  0  0  0  0  0  0  0  0  0  0
   -7.0100   15.3020  -34.5120 N   0  0  0  0  0  0  0  0  0  0  0  0
   -6.5340   18.4390  -33.0930 N   0  0  0  0  0  0  0  0  0  0  0  0
   -5.9080   19.5920  -32.7510 C   0  0  0  0  0  0  0  0  0  0  0  0
   -9.2504   19.0098  -30.5648 H   0  0  0  0  0  0  0  0  0  0  0  0
   -9.7189   17.6921  -31.6921 H   0  0  0  0  0  0  0  0  0  0  0  0
   -8.0351   18.3178  -31.6921 H   0  0  0  0  0  0  0  0  0  0  0  0
   -9.2901   19.2118  -33.6218 H   0  0  0  0  0  0  0  0  0  0  0  0
  -10.5455   19.8688  -32.5051 H   0  0  0  0  0  0  0  0  0  0  0  0
   -7.8247   21.4797  -30.7236 H   0  0  0  0  0  0  0  0  0  0  0  0
   -7.9528   19.6980  -30.8940 H   0  0  0  0  0  0  0  0  0  0  0  0
   -7.6876   22.9961  -31.5151 H   0  0  0  0  0  0  0  0  0  0  0  0
   -7.8452   25.2017  -30.3562 H   0  0  0  0  0  0  0  0  0  0  0  0
   -5.7854   26.3010  -29.4731 H   0  0  0  0  0  0  0  0  0  0  0  0
   -3.5617   25.2043  -29.7637 H   0  0  0  0  0  0  0  0  0  0  0  0
   -3.3958   22.9975  -30.9171 H   0  0  0  0  0  0  0  0  0  0  0  0
   -3.3208   21.6058  -32.7067 H   0  0  0  0  0  0  0  0  0  0  0  0
   -2.8762   19.1187  -34.1715 H   0  0  0  0  0  0  0  0  0  0  0  0
   -4.0250   17.0570  -34.7790 H   0  0  0  0  0  0  0  0  0  0  0  0
  1  2  1  0
  2  3  1  0
  3  4  1  0
  4  5  1  0
  5  6  1  0
  6  7  1  0
  7  8  2  0
  8  9  1  0
  9 10  2  0
 10 11  1  0
 11 12  2  0
  6 13  2  0
 13 14  1  0
 14 15  2  0
 15 16  1  0
 16 17  2  0
 17 18  1  0
 18 19  3  0
 17 20  1  0
 20 21  2  0
 21  5  1  0
 12  7  1  0
 21 14  1  0
  1 22  1  0
  1 23  1  0
  1 24  1  0
  2 25  1  0
  2 26  1  0
  4 27  1  0
  4 28  1  0
  8 29  1  0
  9 30  1  0
 10 31  1  0
 11 32  1  0
 12 33  1  0
 13 34  1  0
 15 35  1  0
 16 36  1  0
M  CHG  1  16   1
M  END
>  <UniqueID>  (29) 
27

>  <SMILES>  (29) 
CCOCn1c(-c2ccccc2)cc2c[nH+]c(C#N)nc21

>  <Energy>  (29) 
76.93234890953441

>  <Genealogy>  (29) 
CCOCn1c(-c2ccccc2)cc2c[nH+]c(C#N)nc21 (protonated)
CCOCn1c(-c2ccccc2)cc2c[nH+]c(C#N)nc21 (3D coordinates assigned)
CCOCn1c(-c2ccccc2)cc2c[nH+]c(C#N)nc21 (optimized conformer: 76.93234890953441 kcal/mol)

>  <smiles>  (29) 
CCOCn1c(-c2ccccc2)cc2cnc(C#N)nc21

>  <score_type>  (29) 
oracle

>  <origin>  (29) 
adg

>  <m_score__min__energy>  (29) 
-6.5899999999999999

>  <m_primary>  (29) 
energy

$$$$
29:0
     RDKit          3D

 55 57  0  0  0  0  0  0  0  0999 V2000
   -5.2470   25.3830  -30.7670 C   0  0  0  0  0  0  0  0  0  0  0  0
   -3.8720   25.2840  -30.4670 O   0  0  0  0  0  0  0  0  0  0  0  0
   -3.6610   24.3820  -29.3960 C   0  0  0  0  0  0  0  0  0  0  0  0
   -3.8280   22.9400  -29.8870 C   0  0  0  0  0  0  0  0  0  0  0  0
   -2.8130   22.5400  -30.9870 C   0  0  1  0  0  0  0  0  0  0  0  0
   -1.3830   22.6670  -30.4150 C   0  0  0  0  0  0  0  0  0  0  0  0
   -1.1430   21.5410  -29.5000 N   0  0  0  0  0  0  0  0  0  0  0  0
    0.0280   21.7280  -28.6170 C   0  0  0  0  0  0  0  0  0  0  0  0
    0.0060   23.0310  -27.8530 C   0  0  0  0  0  0  0  0  0  0  0  0
    0.3040   24.2180  -28.4240 N   0  0  0  0  0  0  0  0  0  0  0  0
    0.1360   25.1180  -27.4350 C   0  0  0  0  0  0  0  0  0  0  0  0
   -0.2670   24.4730  -26.2870 C   0  0  0  0  0  0  0  0  0  0  0  0
   -0.3400   23.1590  -26.5510 N   0  0  0  0  0  0  0  0  0  0  0  0
   -0.8290   22.1260  -25.6400 C   0  0  0  0  0  0  0  0  0  0  0  0
   -1.1730   20.2290  -30.1810 C   0  0  0  0  0  0  0  0  0  0  0  0
   -1.9210   20.2740  -31.5270 C   0  0  0  0  0  0  0  0  0  0  0  0
   -3.1130   21.1540  -31.4680 N   0  0  0  0  0  0  0  0  0  0  0  0
   -3.7800   21.1810  -32.7920 C   0  0  0  0  0  0  0  0  0  0  0  0
   -5.2610   20.9220  -32.6660 C   0  0  0  0  0  0  0  0  0  0  0  0
   -6.0070   21.5220  -31.6420 C   0  0  0  0  0  0  0  0  0  0  0  0
   -7.3750   21.2720  -31.5360 C   0  0  0  0  0  0  0  0  0  0  0  0
   -7.9980   20.4280  -32.4660 C   0  0  0  0  0  0  0  0  0  0  0  0
   -9.4610   20.1230  -32.3410 C   0  0  0  0  0  0  0  0  0  0  0  0
   -7.2540   19.8380  -33.4450 N   0  0  0  0  0  0  0  0  0  0  0  0
   -5.9180   20.0690  -33.5650 C   0  0  0  0  0  0  0  0  0  0  0  0
   -5.8243   25.4246  -29.8316 H   0  0  0  0  0  0  0  0  0  0  0  0
   -5.4299   26.2966  -31.3517 H   0  0  0  0  0  0  0  0  0  0  0  0
   -5.5589   24.5050  -31.3517 H   0  0  0  0  0  0  0  0  0  0  0  0
   -2.6434   24.5170  -29.0007 H   0  0  0  0  0  0  0  0  0  0  0  0
   -4.3976   24.5821  -28.6039 H   0  0  0  0  0  0  0  0  0  0  0  0
   -3.6973   22.2631  -29.0299 H   0  0  0  0  0  0  0  0  0  0  0  0
   -4.8319   22.8634  -30.3300 H   0  0  0  0  0  0  0  0  0  0  0  0
   -2.8930   23.2099  -31.8558 H   0  0  0  0  0  0  0  0  0  0  0  0
   -0.6515   22.6399  -31.2361 H   0  0  0  0  0  0  0  0  0  0  0  0
   -1.2769   23.6196  -29.8752 H   0  0  0  0  0  0  0  0  0  0  0  0
    0.0534   20.9004  -27.8928 H   0  0  0  0  0  0  0  0  0  0  0  0
    0.9191   21.7465  -29.2617 H   0  0  0  0  0  0  0  0  0  0  0  0
    0.2963   26.2021  -27.5302 H   0  0  0  0  0  0  0  0  0  0  0  0
   -0.4902   24.9513  -25.3219 H   0  0  0  0  0  0  0  0  0  0  0  0
   -0.6751   22.4511  -24.6005 H   0  0  0  0  0  0  0  0  0  0  0  0
   -1.9018   21.9590  -25.8169 H   0  0  0  0  0  0  0  0  0  0  0  0
   -0.2782   21.1904  -25.8169 H   0  0  0  0  0  0  0  0  0  0  0  0
   -0.1382   19.9041  -30.3643 H   0  0  0  0  0  0  0  0  0  0  0  0
   -1.7102   19.5272  -29.5260 H   0  0  0  0  0  0  0  0  0  0  0  0
   -1.2374   20.6526  -32.3012 H   0  0  0  0  0  0  0  0  0  0  0  0
   -2.2611   19.2547  -31.7623 H   0  0  0  0  0  0  0  0  0  0  0  0
   -3.6269   22.1693  -33.2501 H   0  0  0  0  0  0  0  0  0  0  0  0
   -3.3415   20.3895  -33.4175 H   0  0  0  0  0  0  0  0  0  0  0  0
   -5.5130   22.1905  -30.9215 H   0  0  0  0  0  0  0  0  0  0  0  0
   -7.9613   21.7340  -30.7280 H   0  0  0  0  0  0  0  0  0  0  0  0
   -9.7341   20.0661  -31.2770 H   0  0  0  0  0  0  0  0  0  0  0  0
  -10.0443   20.9188  -32.8272 H   0  0  0  0  0  0  0  0  0  0  0  0
   -9.6777   19.1604  -32.8272 H   0  0  0  0  0  0  0  0  0  0  0  0
   -7.7110   19.1910  -34.1270 H   0  0  0  0  0  0  0  0  0  0  0  0
   -5.3499   19.5836  -34.3722 H   0  0  0  0  0  0  0  0  0  0  0  0
  1  2  1  0
  2  3  1  0
  3  4  1  0
  4  5  1  0
  5  6  1  0
  6  7  1  0
  7  8  1  0
  8  9  1  0
  9 10  2  0
 10 11  1  0
 11 12  2  0
 12 13  1  0
 13 14  1  0
  7 15  1  0
 15 16  1  0
 16 17  1  0
 17 18  1  0
 18 19  1  0
 19 20  2  0
 20 21  1  0
 21 22  2  0
 22 23  1  0
 22 24  1  0
 24 25  2  0
 17  5  1  0
 25 19  1  0
 13  9  1  0
  1 26  1  0
  1 27  1  0
  1 28  1  0
  3 29  1  0
  3 30  1  0
  4 31  1  0
  4 32  1  0
  5 33  1  6
  6 34  1  0
  6 35  1  0
  8 36  1  0
  8 37  1  0
 11 38  1  0
 12 39  1  0
 14 40  1  0
 14 41  1  0
 14 42  1  0
 15 43  1  0
 15 44  1  0
 16 45  1  0
 16 46  1  0
 18 47  1  0
 18 48  1  0
 20 49  1  0
 21 50  1  0
 23 51  1  0
 23 52  1  0
 23 53  1  0
 24 54  1  0
 25 55  1  0
M  CHG  1  24   1
M  END
>  <UniqueID>  (30) 
28

>  <SMILES>  (30) 
COCC[C@H]1CN(Cc2nccn2C)CCN1Cc1ccc(C)[nH+]c1

>  <Energy>  (30) 
97.08604584908645

>  <Genealogy>  (30) 
COCCC1CN(Cc2nccn2C)CCN1Cc1ccc(C)[nH+]c1 (protonated)
COCC[C@H]1CN(Cc2nccn2C)CCN1Cc1ccc(C)[nH+]c1 (chirality)
COCC[C@H]1CN(Cc2nccn2C)CCN1Cc1ccc(C)[nH+]c1 (3D coordinates assigned)
COCC[C@H]1CN(Cc2nccn2C)CCN1Cc1ccc(C)[nH+]c1 (nonaromatic ring conformer: 97.08604584908645 kcal/mol)

>  <smiles>  (30) 
COCCC1CN(Cc2nccn2C)CCN1Cc1ccc(C)nc1

>  <score_type>  (30) 
oracle

>  <origin>  (30) 
adg

>  <m_score__min__energy>  (30) 
-7.6500000000000004

>  <m_primary>  (30) 
energy

$$$$
30:0
     RDKit          3D

 59 60  0  0  0  0  0  0  0  0999 V2000
   -9.7100   21.1530  -31.9790 C   0  0  0  0  0  0  0  0  0  0  0  0
   -8.7240   20.0440  -31.5840 C   0  0  0  0  0  0  0  0  0  0  0  0
   -8.0790   19.3680  -32.7410 N   0  0  0  0  0  0  0  0  0  0  0  0
   -7.6170   18.0030  -32.3590 C   0  0  0  0  0  0  0  0  0  0  0  0
   -6.1890   17.6850  -32.8220 C   0  0  0  0  0  0  0  0  0  0  0  0
   -6.9260   20.1600  -33.2780 C   0  0  0  0  0  0  0  0  0  0  0  0
   -6.2730   21.2190  -32.3340 C   0  0  2  0  0  0  0  0  0  0  0  0
   -6.7580   22.5680  -32.7260 N   0  0  0  0  0  0  0  0  0  0  0  0
   -7.3450   23.3320  -31.6160 C   0  0  0  0  0  0  0  0  0  0  0  0
   -6.2720   23.6940  -30.6250 C   0  0  0  0  0  0  0  0  0  0  0  0
   -5.3830   24.7490  -30.8880 C   0  0  0  0  0  0  0  0  0  0  0  0
   -4.2960   24.9800  -30.0420 C   0  0  0  0  0  0  0  0  0  0  0  0
   -4.0810   24.1610  -28.9230 C   0  0  0  0  0  0  0  0  0  0  0  0
   -2.8510   24.3500  -28.0760 C   0  0  0  0  0  0  0  0  0  0  0  0
   -1.7220   24.8340  -28.8990 N   0  0  0  0  0  0  0  0  0  0  0  0
   -0.9200   25.7980  -28.1300 C   0  0  0  0  0  0  0  0  0  0  0  0
   -0.8660   23.7150  -29.3330 C   0  0  0  0  0  0  0  0  0  0  0  0
   -4.9840   23.1220  -28.6470 C   0  0  0  0  0  0  0  0  0  0  0  0
   -6.0720   22.8920  -29.4920 C   0  0  0  0  0  0  0  0  0  0  0  0
   -4.7480   21.1260  -32.1790 C   0  0  0  0  0  0  0  0  0  0  0  0
   -3.8950   21.5330  -33.2310 C   0  0  0  0  0  0  0  0  0  0  0  0
   -2.5060   21.5240  -33.0750 C   0  0  0  0  0  0  0  0  0  0  0  0
   -1.9410   21.1660  -31.8530 C   0  0  0  0  0  0  0  0  0  0  0  0
   -2.7640   20.8510  -30.7730 C   0  0  0  0  0  0  0  0  0  0  0  0
   -2.2160   20.5610  -29.5670 F   0  0  0  0  0  0  0  0  0  0  0  0
   -4.1540   20.8600  -30.9240 C   0  0  0  0  0  0  0  0  0  0  0  0
  -10.1227   21.6172  -31.0711 H   0  0  0  0  0  0  0  0  0  0  0  0
   -9.1856   21.9149  -32.5744 H   0  0  0  0  0  0  0  0  0  0  0  0
  -10.5280   20.7214  -32.5744 H   0  0  0  0  0  0  0  0  0  0  0  0
   -7.9352   20.4887  -30.9595 H   0  0  0  0  0  0  0  0  0  0  0  0
   -9.3046   19.2771  -31.0504 H   0  0  0  0  0  0  0  0  0  0  0  0
   -8.8020   19.2580  -33.4870 H   0  0  0  0  0  0  0  0  0  0  0  0
   -7.6542   17.9175  -31.2630 H   0  0  0  0  0  0  0  0  0  0  0  0
   -8.2849   17.2854  -32.8580 H   0  0  0  0  0  0  0  0  0  0  0  0
   -5.5423   17.5410  -31.9439 H   0  0  0  0  0  0  0  0  0  0  0  0
   -6.1957   16.7664  -33.4270 H   0  0  0  0  0  0  0  0  0  0  0  0
   -5.8053   18.5197  -33.4270 H   0  0  0  0  0  0  0  0  0  0  0  0
   -6.1404   19.4450  -33.5635 H   0  0  0  0  0  0  0  0  0  0  0  0
   -7.3522   20.7480  -34.1042 H   0  0  0  0  0  0  0  0  0  0  0  0
   -6.6048   20.9933  -31.3098 H   0  0  0  0  0  0  0  0  0  0  0  0
   -6.0430   23.1520  -33.2150 H   0  0  0  0  0  0  0  0  0  0  0  0
   -7.8055   24.2508  -32.0080 H   0  0  0  0  0  0  0  0  0  0  0  0
   -8.1098   22.7190  -31.1166 H   0  0  0  0  0  0  0  0  0  0  0  0
   -5.5434   25.3956  -31.7633 H   0  0  0  0  0  0  0  0  0  0  0  0
   -3.6044   25.8087  -30.2541 H   0  0  0  0  0  0  0  0  0  0  0  0
   -3.0649   25.0861  -27.2870 H   0  0  0  0  0  0  0  0  0  0  0  0
   -2.5757   23.3831  -27.6296 H   0  0  0  0  0  0  0  0  0  0  0  0
   -1.0668   25.6215  -27.0542 H   0  0  0  0  0  0  0  0  0  0  0  0
    0.1437   25.6723  -28.3804 H   0  0  0  0  0  0  0  0  0  0  0  0
   -1.2372   26.8211  -28.3804 H   0  0  0  0  0  0  0  0  0  0  0  0
   -0.4676   23.1942  -28.4498 H   0  0  0  0  0  0  0  0  0  0  0  0
   -1.4592   23.0122  -29.9365 H   0  0  0  0  0  0  0  0  0  0  0  0
   -0.0325   24.1036  -29.9365 H   0  0  0  0  0  0  0  0  0  0  0  0
   -4.8340   22.4866  -27.7617 H   0  0  0  0  0  0  0  0  0  0  0  0
   -6.7760   22.0772  -29.2676 H   0  0  0  0  0  0  0  0  0  0  0  0
   -4.3310   21.8615  -34.1860 H   0  0  0  0  0  0  0  0  0  0  0  0
   -1.8573   21.8003  -33.9193 H   0  0  0  0  0  0  0  0  0  0  0  0
   -0.8473   21.1320  -31.7406 H   0  0  0  0  0  0  0  0  0  0  0  0
   -4.7949   20.6571  -30.0533 H   0  0  0  0  0  0  0  0  0  0  0  0
  1  2  1  0
  2  3  1  0
  3  4  1  0
  4  5  1  0
  3  6  1  0
  6  7  1  0
  7  8  1  0
  8  9  1  0
  9 10  1  0
 10 11  2  0
 11 12  1  0
 12 13  2  0
 13 14  1  0
 14 15  1  0
 15 16  1  0
 15 17  1  0
 13 18  1  0
 18 19  2  0
  7 20  1  0
 20 21  2  0
 21 22  1  0
 22 23  2  0
 23 24  1  0
 24 25  1  0
 24 26  2  0
 19 10  1  0
 26 20  1  0
  1 27  1  0
  1 28  1  0
  1 29  1  0
  2 30  1  0
  2 31  1  0
  3 32  1  0
  4 33  1  0
  4 34  1  0
  5 35  1  0
  5 36  1  0
  5 37  1  0
  6 38  1  0
  6 39  1  0
  7 40  1  1
  8 41  1  0
  9 42  1  0
  9 43  1  0
 11 44  1  0
 12 45  1  0
 14 46  1  0
 14 47  1  0
 16 48  1  0
 16 49  1  0
 16 50  1  0
 17 51  1  0
 17 52  1  0
 17 53  1  0
 18 54  1  0
 19 55  1  0
 21 56  1  0
 22 57  1  0
 23 58  1  0
 26 59  1  0
M  CHG  1   3   1
M  END
>  <UniqueID>  (31) 
29

>  <SMILES>  (31) 
CC[NH+](CC)C[C@H](NCc1ccc(CN(C)C)cc1)c1cccc(F)c1

>  <Energy>  (31) 
72.60416558233919

>  <Genealogy>  (31) 
CC[NH+](CC)CC(NCc1ccc(CN(C)C)cc1)c1cccc(F)c1 (protonated)
CC[NH+](CC)C[C@H](NCc1ccc(CN(C)C)cc1)c1cccc(F)c1 (chirality)
CC[NH+](CC)C[C@H](NCc1ccc(CN(C)C)cc1)c1cccc(F)c1 (3D coordinates assigned)
CC[NH+](CC)C[C@H](NCc1ccc(CN(C)C)cc1)c1cccc(F)c1 (optimized conformer: 72.60416558233919 kcal/mol)

>  <smiles>  (31) 
CCN(CC)CC(NCc1ccc(CN(C)C)cc1)c1cccc(F)c1

>  <score_type>  (31) 
oracle

>  <origin>  (31) 
adg

>  <m_score__min__energy>  (31) 
-7.1100000000000003

>  <m_primary>  (31) 
energy

$$$$
31:0
     RDKit          3D

 40 42  0  0  0  0  0  0  0  0999 V2000
   -0.1580   30.6270  -24.7230 C   0  0  0  0  0  0  0  0  0  0  0  0
    0.0080   29.2370  -24.4640 O   0  0  0  0  0  0  0  0  0  0  0  0
   -0.3840   28.2150  -25.3420 C   0  0  0  0  0  0  0  0  0  0  0  0
    0.0490   28.1640  -26.6810 C   0  0  0  0  0  0  0  0  0  0  0  0
   -0.3680   27.1240  -27.5170 C   0  0  0  0  0  0  0  0  0  0  0  0
   -1.2180   26.1110  -27.0330 C   0  0  0  0  0  0  0  0  0  0  0  0
   -1.6790   25.0030  -27.9080 C   0  0  0  0  0  0  0  0  0  0  0  0
   -1.3350   23.6670  -27.6480 C   0  0  0  0  0  0  0  0  0  0  0  0
   -1.7990   22.6430  -28.4880 C   0  0  0  0  0  0  0  0  0  0  0  0
   -1.4660   21.2420  -28.1370 C   0  0  0  0  0  0  0  0  0  0  0  0
   -0.2660   20.6660  -28.5870 C   0  0  0  0  0  0  0  0  0  0  0  0
    0.0560   19.3490  -28.2450 C   0  0  0  0  0  0  0  0  0  0  0  0
   -0.8130   18.6000  -27.4460 C   0  0  0  0  0  0  0  0  0  0  0  0
   -0.4990   17.3230  -27.1150 F   0  0  0  0  0  0  0  0  0  0  0  0
   -2.0040   19.1690  -26.9850 C   0  0  0  0  0  0  0  0  0  0  0  0
   -2.3290   20.4860  -27.3240 C   0  0  0  0  0  0  0  0  0  0  0  0
   -2.6070   22.9720  -29.6060 C   0  0  0  0  0  0  0  0  0  0  0  0
   -3.0540   21.9270  -30.5640 C   0  0  0  0  0  0  0  0  0  0  0  0
   -4.5050   21.7070  -30.8610 C   0  0  0  0  0  0  0  0  0  0  0  0
   -2.1970   21.2230  -31.1640 O   0  0  0  0  0  0  0  0  0  0  0  0
   -2.9330   24.3270  -29.8220 C   0  0  0  0  0  0  0  0  0  0  0  0
   -3.6350   24.6750  -30.8080 O   0  0  0  0  0  0  0  0  0  0  0  0
   -2.4700   25.2840  -28.9760 N   0  0  0  0  0  0  0  0  0  0  0  0
   -1.6560   26.1770  -25.6980 C   0  0  0  0  0  0  0  0  0  0  0  0
   -1.2370   27.2170  -24.8630 C   0  0  0  0  0  0  0  0  0  0  0  0
   -0.2231   31.1723  -23.7699 H   0  0  0  0  0  0  0  0  0  0  0  0
    0.7022   30.9978  -25.2996 H   0  0  0  0  0  0  0  0  0  0  0  0
   -1.0814   30.7848  -25.2996 H   0  0  0  0  0  0  0  0  0  0  0  0
    0.7179   28.9455  -27.0706 H   0  0  0  0  0  0  0  0  0  0  0  0
   -0.0288   27.0967  -28.5631 H   0  0  0  0  0  0  0  0  0  0  0  0
   -0.7002   23.4222  -26.7837 H   0  0  0  0  0  0  0  0  0  0  0  0
    0.4232   21.2538  -29.2111 H   0  0  0  0  0  0  0  0  0  0  0  0
    0.9942   18.9017  -28.6051 H   0  0  0  0  0  0  0  0  0  0  0  0
   -2.6863   18.5798  -26.3547 H   0  0  0  0  0  0  0  0  0  0  0  0
   -3.2635   20.9325  -26.9532 H   0  0  0  0  0  0  0  0  0  0  0  0
   -5.0637   21.6223  -29.9172 H   0  0  0  0  0  0  0  0  0  0  0  0
   -4.8933   22.5565  -31.4420 H   0  0  0  0  0  0  0  0  0  0  0  0
   -4.6240   20.7805  -31.4420 H   0  0  0  0  0  0  0  0  0  0  0  0
   -2.3340   25.4037  -25.3077 H   0  0  0  0  0  0  0  0  0  0  0  0
   -1.5820   27.2501  -23.8190 H   0  0  0  0  0  0  0  0  0  0  0  0
  1  2  1  0
  2  3  1  0
  3  4  2  0
  4  5  1  0
  5  6  2  0
  6  7  1  0
  7  8  2  0
  8  9  1  0
  9 10  1  0
 10 11  2  0
 11 12  1  0
 12 13  2  0
 13 14  1  0
 13 15  1  0
 15 16  2  0
  9 17  2  0
 17 18  1  0
 18 19  1  0
 18 20  2  0
 17 21  1  0
 21 22  2  0
 21 23  1  0
  6 24  1  0
 24 25  2  0
 25  3  1  0
 23  7  1  0
 16 10  1  0
  1 26  1  0
  1 27  1  0
  1 28  1  0
  4 29  1  0
  5 30  1  0
  8 31  1  0
 11 32  1  0
 12 33  1  0
 15 34  1  0
 16 35  1  0
 19 36  1  0
 19 37  1  0
 19 38  1  0
 24 39  1  0
 25 40  1  0
M  CHG  1  23  -1
M  END
>  <UniqueID>  (32) 
30

>  <SMILES>  (32) 
COc1ccc(-c2cc(-c3ccc(F)cc3)c(C(C)=O)c(=O)[n-]2)cc1

>  <Energy>  (32) 
58.85867301152892

>  <Genealogy>  (32) 
COc1ccc(-c2cc(-c3ccc(F)cc3)c(C(C)=O)c(=O)[n-]2)cc1 (protonated)
COc1ccc(-c2cc(-c3ccc(F)cc3)c(C(C)=O)c(=O)[n-]2)cc1 (3D coordinates assigned)
COc1ccc(-c2cc(-c3ccc(F)cc3)c(C(C)=O)c(=O)[n-]2)cc1 (optimized conformer: 58.85867301152892 kcal/mol)

>  <smiles>  (32) 
COc1ccc(-c2cc(-c3ccc(F)cc3)c(C(C)=O)c(=O)[nH]2)cc1

>  <score_type>  (32) 
oracle

>  <origin>  (32) 
adg

>  <m_score__min__energy>  (32) 
-9.1600000000000001

>  <m_primary>  (32) 
energy

$$$$
32:0
     RDKit          3D

 57 58  0  0  0  0  0  0  0  0999 V2000
   -8.8460   22.5820  -31.9420 C   0  0  0  0  0  0  0  0  0  0  0  0
   -9.5030   21.2060  -31.9870 C   0  0  0  0  0  0  0  0  0  0  0  0
   -8.5540   20.1210  -31.4550 C   0  0  0  0  0  0  0  0  0  0  0  0
   -8.5130   18.8780  -32.3710 C   0  0  0  0  0  0  0  0  0  0  0  0
   -7.1390   18.1800  -32.4100 C   0  0  0  0  0  0  0  0  0  0  0  0
   -6.5500   17.9910  -33.8180 C   0  0  0  0  0  0  0  0  0  0  0  0
   -5.0950   17.5040  -33.7950 C   0  0  0  0  0  0  0  0  0  0  0  0
   -4.2010   18.5990  -34.1950 N   0  0  0  0  0  0  0  0  0  0  0  0
   -3.3690   19.0660  -33.0750 C   0  0  0  0  0  0  0  0  0  0  0  0
   -3.8010   20.4250  -32.5730 C   0  0  0  0  0  0  0  0  0  0  0  0
   -2.8520   21.3210  -32.0560 C   0  0  0  0  0  0  0  0  0  0  0  0
   -3.2450   22.5870  -31.6150 C   0  0  0  0  0  0  0  0  0  0  0  0
   -4.5890   22.9820  -31.7000 C   0  0  0  0  0  0  0  0  0  0  0  0
   -5.0140   24.3310  -31.1890 C   0  0  0  0  0  0  0  0  0  0  0  0
   -4.0100   24.8430  -30.2500 N   0  0  0  0  0  0  0  0  0  0  0  0
   -4.1930   24.2410  -28.9220 C   0  0  0  0  0  0  0  0  0  0  0  0
   -2.9230   23.5830  -28.4140 C   0  0  0  0  0  0  0  0  0  0  0  0
   -2.9640   22.3180  -27.7880 C   0  0  0  0  0  0  0  0  0  0  0  0
   -1.7950   21.7130  -27.3230 C   0  0  0  0  0  0  0  0  0  0  0  0
   -0.5650   22.3480  -27.4880 C   0  0  0  0  0  0  0  0  0  0  0  0
   -0.4990   23.5810  -28.1360 C   0  0  0  0  0  0  0  0  0  0  0  0
   -1.6600   24.1970  -28.6190 C   0  0  0  0  0  0  0  0  0  0  0  0
   -1.5200   25.4050  -29.3050 O   0  0  0  0  0  0  0  0  0  0  0  0
   -5.5390   22.0830  -32.2080 C   0  0  0  0  0  0  0  0  0  0  0  0
   -5.1470   20.8160  -32.6500 C   0  0  0  0  0  0  0  0  0  0  0  0
   -8.7013   22.8851  -30.8945 H   0  0  0  0  0  0  0  0  0  0  0  0
   -7.8710   22.5396  -32.4495 H   0  0  0  0  0  0  0  0  0  0  0  0
   -9.4920   23.3135  -32.4495 H   0  0  0  0  0  0  0  0  0  0  0  0
  -10.4126   21.2220  -31.3687 H   0  0  0  0  0  0  0  0  0  0  0  0
   -9.7499   20.9713  -33.0329 H   0  0  0  0  0  0  0  0  0  0  0  0
   -7.5401   20.5417  -31.3839 H   0  0  0  0  0  0  0  0  0  0  0  0
   -8.9262   19.8015  -30.4704 H   0  0  0  0  0  0  0  0  0  0  0  0
   -9.2591   18.1554  -32.0089 H   0  0  0  0  0  0  0  0  0  0  0  0
   -8.7254   19.2254  -33.3928 H   0  0  0  0  0  0  0  0  0  0  0  0
   -6.4320   18.7835  -31.8218 H   0  0  0  0  0  0  0  0  0  0  0  0
   -7.2935   17.1704  -32.0015 H   0  0  0  0  0  0  0  0  0  0  0  0
   -7.1596   17.2510  -34.3572 H   0  0  0  0  0  0  0  0  0  0  0  0
   -6.5625   18.9718  -34.3160 H   0  0  0  0  0  0  0  0  0  0  0  0
   -4.8360   17.1731  -32.7784 H   0  0  0  0  0  0  0  0  0  0  0  0
   -4.9802   16.6646  -34.4966 H   0  0  0  0  0  0  0  0  0  0  0  0
   -4.7780   19.3980  -34.5490 H   0  0  0  0  0  0  0  0  0  0  0  0
   -3.4461   18.3423  -32.2502 H   0  0  0  0  0  0  0  0  0  0  0  0
   -2.3333   19.1518  -33.4355 H   0  0  0  0  0  0  0  0  0  0  0  0
   -1.7942   21.0249  -31.9979 H   0  0  0  0  0  0  0  0  0  0  0  0
   -2.4970   23.2779  -31.1989 H   0  0  0  0  0  0  0  0  0  0  0  0
   -5.1128   25.0277  -32.0345 H   0  0  0  0  0  0  0  0  0  0  0  0
   -5.9808   24.2369  -30.6729 H   0  0  0  0  0  0  0  0  0  0  0  0
   -3.0660   24.5560  -30.6040 H   0  0  0  0  0  0  0  0  0  0  0  0
   -4.4926   25.0278  -28.2140 H   0  0  0  0  0  0  0  0  0  0  0  0
   -4.9671   23.4640  -29.0058 H   0  0  0  0  0  0  0  0  0  0  0  0
   -3.9283   21.8032  -27.6653 H   0  0  0  0  0  0  0  0  0  0  0  0
   -1.8445   20.7332  -26.8254 H   0  0  0  0  0  0  0  0  0  0  0  0
    0.3531   21.8767  -27.1072 H   0  0  0  0  0  0  0  0  0  0  0  0
    0.4749   24.0747  -28.2691 H   0  0  0  0  0  0  0  0  0  0  0  0
   -2.0940   25.6700  -30.0940 H   0  0  0  0  0  0  0  0  0  0  0  0
   -6.5978   22.3767  -32.2587 H   0  0  0  0  0  0  0  0  0  0  0  0
   -5.8963   20.1227  -33.0598 H   0  0  0  0  0  0  0  0  0  0  0  0
  1  2  1  0
  2  3  1  0
  3  4  1  0
  4  5  1  0
  5  6  1  0
  6  7  1  0
  7  8  1  0
  8  9  1  0
  9 10  1  0
 10 11  2  0
 11 12  1  0
 12 13  2  0
 13 14  1  0
 14 15  1  0
 15 16  1  0
 16 17  1  0
 17 18  2  0
 18 19  1  0
 19 20  2  0
 20 21  1  0
 21 22  2  0
 22 23  1  0
 13 24  1  0
 24 25  2  0
 25 10  1  0
 22 17  1  0
  1 26  1  0
  1 27  1  0
  1 28  1  0
  2 29  1  0
  2 30  1  0
  3 31  1  0
  3 32  1  0
  4 33  1  0
  4 34  1  0
  5 35  1  0
  5 36  1  0
  6 37  1  0
  6 38  1  0
  7 39  1  0
  7 40  1  0
  8 41  1  0
  9 42  1  0
  9 43  1  0
 11 44  1  0
 12 45  1  0
 14 46  1  0
 14 47  1  0
 15 48  1  0
 16 49  1  0
 16 50  1  0
 18 51  1  0
 19 52  1  0
 20 53  1  0
 21 54  1  0
 23 55  1  0
 24 56  1  0
 25 57  1  0
M  END
>  <UniqueID>  (33) 
31

>  <SMILES>  (33) 
CCCCCCCNCc1ccc(CNCc2ccccc2O)cc1

>  <Energy>  (33) 
48.35620780469869

>  <Genealogy>  (33) 
CCCCCCCNCc1ccc(CNCc2ccccc2O)cc1 (3D coordinates assigned)
CCCCCCCNCc1ccc(CNCc2ccccc2O)cc1 (optimized conformer: 48.35620780469869 kcal/mol)

>  <smiles>  (33) 
CCCCCCCNCc1ccc(CNCc2ccccc2O)cc1

>  <score_type>  (33) 
oracle

>  <origin>  (33) 
adg

>  <m_score__min__energy>  (33) 
-8.4900000000000002

>  <m_primary>  (33) 
energy

$$$$
33:0
     RDKit          3D

 29 30  0  0  0  0  0  0  0  0999 V2000
   -6.8190   17.7960  -32.0320 C   0  0  0  0  0  0  0  0  0  0  0  0
   -7.2380   18.8400  -33.0610 C   0  0  0  0  0  0  0  0  0  0  0  0
   -7.7150   20.0500  -32.3910 N   0  0  0  0  0  0  0  0  0  0  0  0
   -9.0100   20.3630  -32.1430 C   0  0  0  0  0  0  0  0  0  0  0  0
   -9.1040   21.6160  -31.5470 C   0  0  0  0  0  0  0  0  0  0  0  0
   -7.8070   22.0700  -31.4480 C   0  0  0  0  0  0  0  0  0  0  0  0
   -7.3080   23.2700  -30.9440 C   0  0  0  0  0  0  0  0  0  0  0  0
   -5.9140   23.4760  -30.9870 C   0  0  0  0  0  0  0  0  0  0  0  0
   -5.2160   24.9620  -30.3480 S   0  0  0  0  0  0  0  0  0  0  0  0
   -5.6160   25.1470  -28.9110 O   0  0  0  0  0  0  0  0  0  0  0  0
   -5.7350   26.1280  -31.1400 O   0  0  0  0  0  0  0  0  0  0  0  0
   -3.4830   24.9150  -30.4730 N   0  0  0  0  0  0  0  0  0  0  0  0
   -2.9060   24.5410  -29.1870 C   0  0  0  0  0  0  0  0  0  0  0  0
   -5.0670   22.4790  -31.5270 C   0  0  0  0  0  0  0  0  0  0  0  0
   -5.6020   21.2790  -32.0290 C   0  0  0  0  0  0  0  0  0  0  0  0
   -6.9860   21.1060  -31.9710 C   0  0  0  0  0  0  0  0  0  0  0  0
   -6.9789   18.1945  -31.0193 H   0  0  0  0  0  0  0  0  0  0  0  0
   -7.4214   16.8856  -32.1671 H   0  0  0  0  0  0  0  0  0  0  0  0
   -5.7543   17.5546  -32.1671 H   0  0  0  0  0  0  0  0  0  0  0  0
   -6.3747   19.0922  -33.6944 H   0  0  0  0  0  0  0  0  0  0  0  0
   -8.0504   18.4285  -33.6780 H   0  0  0  0  0  0  0  0  0  0  0  0
   -9.8675   19.7160  -32.3801 H   0  0  0  0  0  0  0  0  0  0  0  0
  -10.0188   22.1341  -31.2236 H   0  0  0  0  0  0  0  0  0  0  0  0
   -7.9812   24.0328  -30.5256 H   0  0  0  0  0  0  0  0  0  0  0  0
   -3.5284   24.9444  -28.3746 H   0  0  0  0  0  0  0  0  0  0  0  0
   -2.8657   23.4446  -29.1082 H   0  0  0  0  0  0  0  0  0  0  0  0
   -1.8887   24.9519  -29.1082 H   0  0  0  0  0  0  0  0  0  0  0  0
   -3.9798   22.6442  -31.5544 H   0  0  0  0  0  0  0  0  0  0  0  0
   -4.9504   20.5013  -32.4539 H   0  0  0  0  0  0  0  0  0  0  0  0
  1  2  1  0
  2  3  1  0
  3  4  1  0
  4  5  2  0
  5  6  1  0
  6  7  2  0
  7  8  1  0
  8  9  1  0
  9 10  2  0
  9 11  2  0
  9 12  1  0
 12 13  1  0
  8 14  2  0
 14 15  1  0
 15 16  2  0
 16  3  1  0
 16  6  1  0
  1 17  1  0
  1 18  1  0
  1 19  1  0
  2 20  1  0
  2 21  1  0
  4 22  1  0
  5 23  1  0
  7 24  1  0
 13 25  1  0
 13 26  1  0
 13 27  1  0
 14 28  1  0
 15 29  1  0
M  CHG  1  12  -1
M  END
>  <UniqueID>  (34) 
32

>  <SMILES>  (34) 
CCn1ccc2cc(S(=O)(=O)[N-]C)ccc21

>  <Energy>  (34) 
56.67791711053722

>  <Genealogy>  (34) 
CCn1ccc2cc(S(=O)(=O)[N-]C)ccc21 (protonated)
CCn1ccc2cc(S(=O)(=O)[N-]C)ccc21 (3D coordinates assigned)
CCn1ccc2cc(S(=O)(=O)[N-]C)ccc21 (optimized conformer: 56.67791711053722 kcal/mol)

>  <smiles>  (34) 
CCn1ccc2cc(S(=O)(=O)NC)ccc21

>  <score_type>  (34) 
oracle

>  <origin>  (34) 
adg

>  <m_score__min__energy>  (34) 
-8.5399999999999991

>  <m_primary>  (34) 
energy

$$$$
34:0
     RDKit          3D

 37 38  0  0  0  0  0  0  0  0999 V2000
   -3.9570   19.7270  -33.8360 C   0  0  0  0  0  0  0  0  0  0  0  0
   -4.2850   21.0490  -33.3170 N   0  0  0  0  0  0  0  0  0  0  0  0
   -4.2580   21.3340  -31.9100 C   0  0  0  0  0  0  0  0  0  0  0  0
   -3.9990   20.4120  -31.0890 O   0  0  0  0  0  0  0  0  0  0  0  0
   -4.5070   22.7080  -31.4160 C   0  0  0  0  0  0  0  0  0  0  0  0
   -3.5070   23.3520  -30.6660 C   0  0  0  0  0  0  0  0  0  0  0  0
   -3.7240   24.6300  -30.1190 C   0  0  0  0  0  0  0  0  0  0  0  0
   -2.7520   25.3010  -29.3630 O   0  0  0  0  0  0  0  0  0  0  0  0
   -2.2350   24.8380  -28.1210 C   0  0  0  0  0  0  0  0  0  0  0  0
   -4.9520   25.2600  -30.3290 C   0  0  0  0  0  0  0  0  0  0  0  0
   -5.9530   24.6370  -31.0740 C   0  0  0  0  0  0  0  0  0  0  0  0
   -5.7470   23.3620  -31.6280 C   0  0  0  0  0  0  0  0  0  0  0  0
   -6.7660   22.7580  -32.4480 N   0  0  0  0  0  0  0  0  0  0  0  0
   -8.0190   22.2220  -31.9110 C   0  0  0  0  0  0  0  0  0  0  0  0
   -8.0670   20.7290  -32.0910 C   0  0  0  0  0  0  0  0  0  0  0  0
   -8.9860   19.9510  -31.3740 C   0  0  0  0  0  0  0  0  0  0  0  0
   -8.9840   18.5630  -31.5350 C   0  0  0  0  0  0  0  0  0  0  0  0
   -8.0930   17.9750  -32.3770 N   0  0  0  0  0  0  0  0  0  0  0  0
   -7.1880   18.7050  -33.0810 C   0  0  0  0  0  0  0  0  0  0  0  0
   -7.1560   20.0960  -32.9490 C   0  0  0  0  0  0  0  0  0  0  0  0
   -3.7856   19.0360  -32.9974 H   0  0  0  0  0  0  0  0  0  0  0  0
   -4.7907   19.3574  -34.4511 H   0  0  0  0  0  0  0  0  0  0  0  0
   -3.0472   19.7899  -34.4511 H   0  0  0  0  0  0  0  0  0  0  0  0
   -4.5740   21.7920  -33.9910 H   0  0  0  0  0  0  0  0  0  0  0  0
   -2.5418   22.8497  -30.5047 H   0  0  0  0  0  0  0  0  0  0  0  0
   -2.7762   25.3227  -27.2950 H   0  0  0  0  0  0  0  0  0  0  0  0
   -2.3637   23.7476  -28.0539 H   0  0  0  0  0  0  0  0  0  0  0  0
   -1.1654   25.0857  -28.0539 H   0  0  0  0  0  0  0  0  0  0  0  0
   -5.1319   26.2579  -29.9026 H   0  0  0  0  0  0  0  0  0  0  0  0
   -6.9140   25.1491  -31.2296 H   0  0  0  0  0  0  0  0  0  0  0  0
   -6.5850   22.6250  -33.4680 H   0  0  0  0  0  0  0  0  0  0  0  0
   -8.0863   22.4608  -30.8393 H   0  0  0  0  0  0  0  0  0  0  0  0
   -8.8632   22.6752  -32.4514 H   0  0  0  0  0  0  0  0  0  0  0  0
   -9.7029   20.4290  -30.6902 H   0  0  0  0  0  0  0  0  0  0  0  0
   -9.7046   17.9449  -30.9795 H   0  0  0  0  0  0  0  0  0  0  0  0
   -6.4802   18.2005  -33.7552 H   0  0  0  0  0  0  0  0  0  0  0  0
   -6.4220   20.6896  -33.5137 H   0  0  0  0  0  0  0  0  0  0  0  0
  1  2  1  0
  2  3  1  0
  3  4  2  0
  3  5  1  0
  5  6  2  0
  6  7  1  0
  7  8  1  0
  8  9  1  0
  7 10  2  0
 10 11  1  0
 11 12  2  0
 12 13  1  0
 13 14  1  0
 14 15  1  0
 15 16  2  0
 16 17  1  0
 17 18  2  0
 18 19  1  0
 19 20  2  0
 12  5  1  0
 20 15  1  0
  1 21  1  0
  1 22  1  0
  1 23  1  0
  2 24  1  0
  6 25  1  0
  9 26  1  0
  9 27  1  0
  9 28  1  0
 10 29  1  0
 11 30  1  0
 13 31  1  0
 14 32  1  0
 14 33  1  0
 16 34  1  0
 17 35  1  0
 19 36  1  0
 20 37  1  0
M  END
>  <UniqueID>  (35) 
33

>  <SMILES>  (35) 
CNC(=O)c1cc(OC)ccc1NCc1ccncc1

>  <Energy>  (35) 
39.54622122247085

>  <Genealogy>  (35) 
CNC(=O)c1cc(OC)ccc1NCc1ccncc1 (3D coordinates assigned)
CNC(=O)c1cc(OC)ccc1NCc1ccncc1 (optimized conformer: 39.54622122247085 kcal/mol)

>  <smiles>  (35) 
CNC(=O)c1cc(OC)ccc1NCc1ccncc1

>  <score_type>  (35) 
oracle

>  <origin>  (35) 
adg

>  <m_score__min__energy>  (35) 
-7.5899999999999999

>  <m_primary>  (35) 
energy

$$$$
35:0
     RDKit          3D

 16 17  0  0  0  0  0  0  0  0999 V2000
    0.2170   24.5440  -28.6150 O   0  0  0  0  0  0  0  0  0  0  0  0
   -0.9460   24.3040  -29.0360 C   0  0  0  0  0  0  0  0  0  0  0  0
   -1.9980   25.2670  -28.9490 N   0  0  0  0  0  0  0  0  0  0  0  0
   -3.4170   24.5540  -29.6290 S   0  0  0  0  0  0  0  0  0  0  0  0
   -3.8770   25.2990  -30.8500 O   0  0  0  0  0  0  0  0  0  0  0  0
   -4.5060   24.4090  -28.6050 O   0  0  0  0  0  0  0  0  0  0  0  0
   -2.6730   23.0340  -30.0240 C   0  0  0  0  0  0  0  0  0  0  0  0
   -3.2650   21.9260  -30.6280 C   0  0  0  0  0  0  0  0  0  0  0  0
   -2.4730   20.7890  -30.8580 C   0  0  0  0  0  0  0  0  0  0  0  0
   -1.1160   20.7800  -30.4810 C   0  0  0  0  0  0  0  0  0  0  0  0
   -0.5410   21.9080  -29.8730 C   0  0  0  0  0  0  0  0  0  0  0  0
   -1.3410   23.0320  -29.6510 C   0  0  0  0  0  0  0  0  0  0  0  0
   -4.3261   21.9417  -30.9174 H   0  0  0  0  0  0  0  0  0  0  0  0
   -2.9146   19.9015  -31.3348 H   0  0  0  0  0  0  0  0  0  0  0  0
   -0.5033   19.8849  -30.6637 H   0  0  0  0  0  0  0  0  0  0  0  0
    0.5185   21.9067  -29.5773 H   0  0  0  0  0  0  0  0  0  0  0  0
  1  2  2  0
  2  3  1  0
  3  4  1  0
  4  5  2  0
  4  6  2  0
  4  7  1  0
  7  8  2  0
  8  9  1  0
  9 10  2  0
 10 11  1  0
 11 12  2  0
 12  2  1  0
 12  7  1  0
  8 13  1  0
  9 14  1  0
 10 15  1  0
 11 16  1  0
M  CHG  1   3  -1
M  END
>  <UniqueID>  (36) 
34

>  <SMILES>  (36) 
O=C1[N-]S(=O)(=O)c2ccccc21

>  <Energy>  (36) 
39.457694312480484

>  <Genealogy>  (36) 
O=C1[N-]S(=O)(=O)c2ccccc21 (protonated)
O=C1[N-]S(=O)(=O)c2ccccc21 (3D coordinates assigned)
O=C1[N-]S(=O)(=O)c2ccccc21 (nonaromatic ring conformer: 39.457694312480484 kcal/mol)

>  <smiles>  (36) 
O=C1NS(=O)(=O)c2ccccc21

>  <score_type>  (36) 
oracle

>  <origin>  (36) 
adg

>  <m_score__min__energy>  (36) 
-6.9699999999999998

>  <m_primary>  (36) 
energy

$$$$
36:0
     RDKit          3D

 51 55  0  0  0  0  0  0  0  0999 V2000
    1.1650   27.7460  -22.9390 N   0  0  0  0  0  0  0  0  0  0  0  0
    0.4340   27.1460  -24.0560 C   0  0  0  0  0  0  0  0  0  0  0  0
   -1.0310   26.9000  -23.6540 C   0  0  0  0  0  0  0  0  0  0  0  0
   -1.8190   26.3330  -24.8450 C   0  0  0  0  0  0  0  0  0  0  0  0
   -1.0440   25.3180  -25.5750 N   0  0  0  0  0  0  0  0  0  0  0  0
   -1.5490   24.8220  -26.8290 C   0  0  0  0  0  0  0  0  0  0  0  0
   -0.6770   24.2540  -27.8010 C   0  0  0  0  0  0  0  0  0  0  0  0
   -1.1750   23.8090  -28.9940 N   0  0  0  0  0  0  0  0  0  0  0  0
   -2.5040   23.9250  -29.2200 C   0  0  0  0  0  0  0  0  0  0  0  0
   -3.1670   23.5580  -30.3260 N   0  0  0  0  0  0  0  0  0  0  0  0
   -4.4640   23.8970  -30.0880 C   0  0  0  0  0  0  0  0  0  0  0  0
   -5.5710   23.6950  -31.0430 C   0  0  0  0  0  0  0  0  0  0  0  0
   -5.7480   24.5390  -31.9630 O   0  0  0  0  0  0  0  0  0  0  0  0
   -6.4480   22.5620  -30.9360 N   0  0  0  0  0  0  0  0  0  0  0  0
   -7.4590   22.2620  -31.9490 C   0  0  0  0  0  0  0  0  0  0  0  0
   -7.4520   20.7930  -32.2690 C   0  0  0  0  0  0  0  0  0  0  0  0
   -8.3880   19.9290  -31.6470 C   0  0  0  0  0  0  0  0  0  0  0  0
   -8.3790   18.5490  -31.9190 C   0  0  0  0  0  0  0  0  0  0  0  0
   -7.4230   18.0690  -32.8090 C   0  0  0  0  0  0  0  0  0  0  0  0
   -6.5200   18.8890  -33.4040 C   0  0  0  0  0  0  0  0  0  0  0  0
   -6.4960   20.2600  -33.1630 C   0  0  0  0  0  0  0  0  0  0  0  0
   -5.6960   18.1460  -34.2280 O   0  0  0  0  0  0  0  0  0  0  0  0
   -6.1090   16.7740  -34.1450 C   0  0  0  0  0  0  0  0  0  0  0  0
   -7.2130   16.7710  -33.2290 O   0  0  0  0  0  0  0  0  0  0  0  0
   -4.6070   24.4840  -28.8250 C   0  0  0  0  0  0  0  0  0  0  0  0
   -3.3360   24.4810  -28.3040 C   0  0  0  0  0  0  0  0  0  0  0  0
   -2.8840   24.9380  -27.1140 N   0  0  0  0  0  0  0  0  0  0  0  0
    0.1480   24.7350  -24.9420 C   0  0  0  0  0  0  0  0  0  0  0  0
    1.1300   25.8370  -24.5110 C   0  0  0  0  0  0  0  0  0  0  0  0
    1.4570   26.9820  -22.2860 H   0  0  0  0  0  0  0  0  0  0  0  0
    0.5010   28.3470  -22.3990 H   0  0  0  0  0  0  0  0  0  0  0  0
    0.4383   27.8397  -24.9097 H   0  0  0  0  0  0  0  0  0  0  0  0
   -1.0638   26.1819  -22.8214 H   0  0  0  0  0  0  0  0  0  0  0  0
   -1.4838   27.8536  -23.3449 H   0  0  0  0  0  0  0  0  0  0  0  0
   -2.7467   25.8739  -24.4728 H   0  0  0  0  0  0  0  0  0  0  0  0
   -2.0389   27.1599  -25.5362 H   0  0  0  0  0  0  0  0  0  0  0  0
    0.3998   24.1731  -27.5915 H   0  0  0  0  0  0  0  0  0  0  0  0
   -2.7540   23.1300  -31.1830 H   0  0  0  0  0  0  0  0  0  0  0  0
   -6.3970   21.9370  -30.1040 H   0  0  0  0  0  0  0  0  0  0  0  0
   -8.4510   22.5463  -31.5680 H   0  0  0  0  0  0  0  0  0  0  0  0
   -7.2314   22.8300  -32.8631 H   0  0  0  0  0  0  0  0  0  0  0  0
   -9.1280   20.3415  -30.9453 H   0  0  0  0  0  0  0  0  0  0  0  0
   -9.1038   17.8715  -31.4439 H   0  0  0  0  0  0  0  0  0  0  0  0
   -5.7554   20.9087  -33.6536 H   0  0  0  0  0  0  0  0  0  0  0  0
   -6.4251   16.4054  -35.1320 H   0  0  0  0  0  0  0  0  0  0  0  0
   -5.2929   16.1174  -33.8091 H   0  0  0  0  0  0  0  0  0  0  0  0
   -5.5278   24.8617  -28.3565 H   0  0  0  0  0  0  0  0  0  0  0  0
   -0.1589   24.1587  -24.0567 H   0  0  0  0  0  0  0  0  0  0  0  0
    0.6495   24.0799  -25.6696 H   0  0  0  0  0  0  0  0  0  0  0  0
    1.7349   25.4561  -23.6749 H   0  0  0  0  0  0  0  0  0  0  0  0
    1.7416   26.0860  -25.3907 H   0  0  0  0  0  0  0  0  0  0  0  0
  1  2  1  0
  2  3  1  0
  3  4  1  0
  4  5  1  0
  5  6  1  0
  6  7  2  0
  7  8  1  0
  8  9  2  0
  9 10  1  0
 10 11  1  0
 11 12  1  0
 12 13  2  0
 12 14  1  0
 14 15  1  0
 15 16  1  0
 16 17  2  0
 17 18  1  0
 18 19  2  0
 19 20  1  0
 20 21  2  0
 20 22  1  0
 22 23  1  0
 23 24  1  0
 11 25  2  0
 25 26  1  0
 26 27  2  0
  5 28  1  0
 28 29  1  0
 29  2  1  0
 27  6  1  0
 26  9  1  0
 21 16  1  0
 24 19  1  0
  1 30  1  0
  1 31  1  0
  2 32  1  0
  3 33  1  0
  3 34  1  0
  4 35  1  0
  4 36  1  0
  7 37  1  0
 10 38  1  0
 14 39  1  0
 15 40  1  0
 15 41  1  0
 17 42  1  0
 18 43  1  0
 21 44  1  0
 23 45  1  0
 23 46  1  0
 25 47  1  0
 28 48  1  0
 28 49  1  0
 29 50  1  0
 29 51  1  0
M  END
>  <UniqueID>  (37) 
35

>  <SMILES>  (37) 
NC1CCN(c2cnc3[nH]c(C(=O)NCc4ccc5c(c4)OCO5)cc3n2)CC1

>  <Energy>  (37) 
122.84646682188155

>  <Genealogy>  (37) 
NC1CCN(c2cnc3[nH]c(C(=O)NCc4ccc5c(c4)OCO5)cc3n2)CC1 (3D coordinates assigned)
NC1CCN(c2cnc3[nH]c(C(=O)NCc4ccc5c(c4)OCO5)cc3n2)CC1 (nonaromatic ring conformer: 122.84646682188155 kcal/mol)

>  <smiles>  (37) 
NC1CCN(c2cnc3[nH]c(C(=O)NCc4ccc5c(c4)OCO5)cc3n2)CC1

>  <score_type>  (37) 
oracle

>  <origin>  (37) 
adg

>  <m_score__min__energy>  (37) 
-9.3200000000000003

>  <m_primary>  (37) 
energy

$$$$
37:0
     RDKit          3D

 51 53  0  0  0  0  0  0  0  0999 V2000
   -8.3570   18.5020  -32.2700 C   0  0  0  0  0  0  0  0  0  0  0  0
   -7.8280   19.6790  -32.8720 O   0  0  0  0  0  0  0  0  0  0  0  0
   -7.4200   20.8190  -32.1650 C   0  0  0  0  0  0  0  0  0  0  0  0
   -8.2550   21.4510  -31.2210 C   0  0  0  0  0  0  0  0  0  0  0  0
   -7.8060   22.5680  -30.5190 C   0  0  0  0  0  0  0  0  0  0  0  0
   -6.5250   23.0860  -30.7530 C   0  0  0  0  0  0  0  0  0  0  0  0
   -6.0110   24.2380  -29.9310 C   0  0  0  0  0  0  0  0  0  0  0  0
   -5.2720   25.2600  -30.8010 C   0  0  0  0  0  0  0  0  0  0  0  0
   -3.8560   25.3080  -30.4520 N   0  0  0  0  0  0  0  0  0  0  0  0
   -3.0780   24.1590  -30.0940 C   0  0  0  0  0  0  0  0  0  0  0  0
   -3.0730   23.1520  -30.8510 O   0  0  0  0  0  0  0  0  0  0  0  0
   -2.3150   24.1600  -28.8170 C   0  0  0  0  0  0  0  0  0  0  0  0
   -1.5230   25.2880  -28.5150 C   0  0  0  0  0  0  0  0  0  0  0  0
   -0.8040   25.3620  -27.3230 C   0  0  0  0  0  0  0  0  0  0  0  0
   -0.8630   24.3150  -26.4070 C   0  0  0  0  0  0  0  0  0  0  0  0
   -1.6320   23.1860  -26.6870 C   0  0  0  0  0  0  0  0  0  0  0  0
   -2.3430   23.0810  -27.8920 C   0  0  0  0  0  0  0  0  0  0  0  0
   -3.2560   21.5450  -28.1640 S   0  0  0  0  0  0  0  0  0  0  0  0
   -1.7950   20.4830  -28.1880 C   0  0  0  0  0  0  0  0  0  0  0  0
   -0.6550   20.8950  -28.8950 C   0  0  0  0  0  0  0  0  0  0  0  0
    0.4840   20.0870  -28.9350 C   0  0  0  0  0  0  0  0  0  0  0  0
    0.5050   18.8710  -28.2470 C   0  0  0  0  0  0  0  0  0  0  0  0
   -0.6080   18.4700  -27.5030 C   0  0  0  0  0  0  0  0  0  0  0  0
   -1.7570   19.2750  -27.4630 C   0  0  0  0  0  0  0  0  0  0  0  0
   -2.8460   18.8840  -26.6030 C   0  0  0  0  0  0  0  0  0  0  0  0
   -3.7180   18.5630  -25.9110 N   0  0  0  0  0  0  0  0  0  0  0  0
   -5.6940   22.4670  -31.7000 C   0  0  0  0  0  0  0  0  0  0  0  0
   -6.1350   21.3310  -32.4080 C   0  0  0  0  0  0  0  0  0  0  0  0
   -5.3230   20.6780  -33.3520 O   0  0  0  0  0  0  0  0  0  0  0  0
   -3.9550   20.3510  -33.1450 C   0  0  0  0  0  0  0  0  0  0  0  0
   -8.3135   18.5988  -31.1751 H   0  0  0  0  0  0  0  0  0  0  0  0
   -9.4023   18.3671  -32.5849 H   0  0  0  0  0  0  0  0  0  0  0  0
   -7.7639   17.6308  -32.5849 H   0  0  0  0  0  0  0  0  0  0  0  0
   -9.2667   21.0602  -31.0375 H   0  0  0  0  0  0  0  0  0  0  0  0
   -8.4614   23.0463  -29.7763 H   0  0  0  0  0  0  0  0  0  0  0  0
   -6.8609   24.7343  -29.4397 H   0  0  0  0  0  0  0  0  0  0  0  0
   -5.3050   23.8434  -29.1854 H   0  0  0  0  0  0  0  0  0  0  0  0
   -5.3736   24.9744  -31.8584 H   0  0  0  0  0  0  0  0  0  0  0  0
   -5.7119   26.2535  -30.6295 H   0  0  0  0  0  0  0  0  0  0  0  0
   -1.4721   26.1216  -29.2309 H   0  0  0  0  0  0  0  0  0  0  0  0
   -0.1896   26.2482  -27.1059 H   0  0  0  0  0  0  0  0  0  0  0  0
   -0.3029   24.3785  -25.4624 H   0  0  0  0  0  0  0  0  0  0  0  0
   -1.6818   22.3674  -25.9539 H   0  0  0  0  0  0  0  0  0  0  0  0
   -0.6582   21.8609  -29.4214 H   0  0  0  0  0  0  0  0  0  0  0  0
    1.3656   20.4086  -29.5090 H   0  0  0  0  0  0  0  0  0  0  0  0
    1.3975   18.2294  -28.2910 H   0  0  0  0  0  0  0  0  0  0  0  0
   -0.5834   17.5210  -26.9473 H   0  0  0  0  0  0  0  0  0  0  0  0
   -4.6894   22.8723  -31.8912 H   0  0  0  0  0  0  0  0  0  0  0  0
   -3.7490   20.3018  -32.0656 H   0  0  0  0  0  0  0  0  0  0  0  0
   -3.7376   19.3756  -33.6046 H   0  0  0  0  0  0  0  0  0  0  0  0
   -3.3199   21.1226  -33.6046 H   0  0  0  0  0  0  0  0  0  0  0  0
  1  2  1  0
  2  3  1  0
  3  4  2  0
  4  5  1  0
  5  6  2  0
  6  7  1  0
  7  8  1  0
  8  9  1  0
  9 10  1  0
 10 11  2  0
 10 12  1  0
 12 13  2  0
 13 14  1  0
 14 15  2  0
 15 16  1  0
 16 17  2  0
 17 18  1  0
 18 19  1  0
 19 20  2  0
 20 21  1  0
 21 22  2  0
 22 23  1  0
 23 24  2  0
 24 25  1  0
 25 26  3  0
  6 27  1  0
 27 28  2  0
 28 29  1  0
 29 30  1  0
 28  3  1  0
 17 12  1  0
 24 19  1  0
  1 31  1  0
  1 32  1  0
  1 33  1  0
  4 34  1  0
  5 35  1  0
  7 36  1  0
  7 37  1  0
  8 38  1  0
  8 39  1  0
 13 40  1  0
 14 41  1  0
 15 42  1  0
 16 43  1  0
 20 44  1  0
 21 45  1  0
 22 46  1  0
 23 47  1  0
 27 48  1  0
 30 49  1  0
 30 50  1  0
 30 51  1  0
M  CHG  1   9  -1
M  END
>  <UniqueID>  (38) 
36

>  <SMILES>  (38) 
COc1ccc(CC[N-]C(=O)c2ccccc2Sc2ccccc2C#N)cc1OC

>  <Energy>  (38) 
48.000055396191165

>  <Genealogy>  (38) 
COc1ccc(CC[N-]C(=O)c2ccccc2Sc2ccccc2C#N)cc1OC (protonated)
COc1ccc(CC[N-]C(=O)c2ccccc2Sc2ccccc2C#N)cc1OC (3D coordinates assigned)
COc1ccc(CC[N-]C(=O)c2ccccc2Sc2ccccc2C#N)cc1OC (optimized conformer: 48.000055396191165 kcal/mol)

>  <smiles>  (38) 
COc1ccc(CCNC(=O)c2ccccc2Sc2ccccc2C#N)cc1OC

>  <score_type>  (38) 
oracle

>  <origin>  (38) 
adg

>  <m_score__min__energy>  (38) 
-10.17

>  <m_primary>  (38) 
energy

$$$$
38:0
     RDKit          3D

 45 46  0  0  0  0  0  0  0  0999 V2000
   -2.6100   24.5450  -29.0320 C   0  0  0  0  0  0  0  0  0  0  0  0
   -3.4960   25.1480  -29.9710 O   0  0  0  0  0  0  0  0  0  0  0  0
   -4.7160   24.5880  -30.3850 C   0  0  0  0  0  0  0  0  0  0  0  0
   -5.9560   25.1370  -30.0100 C   0  0  0  0  0  0  0  0  0  0  0  0
   -7.1480   24.5520  -30.4410 C   0  0  0  0  0  0  0  0  0  0  0  0
   -7.1220   23.4070  -31.2480 C   0  0  0  0  0  0  0  0  0  0  0  0
   -8.4110   22.7910  -31.7390 C   0  0  0  0  0  0  0  0  0  0  0  0
   -8.6690   21.4810  -31.1220 N   0  0  0  0  0  0  0  0  0  0  0  0
   -9.4670   20.6100  -31.9950 C   0  0  0  0  0  0  0  0  0  0  0  0
   -8.7440   19.2710  -32.2430 C   0  0  0  0  0  0  0  0  0  0  0  0
   -7.2570   19.3310  -32.2190 N   0  0  0  0  0  0  0  0  0  0  0  0
   -6.6620   19.8840  -33.4690 C   0  0  0  0  0  0  0  0  0  0  0  0
   -5.8900   18.8400  -34.2860 C   0  0  0  0  0  0  0  0  0  0  0  0
   -6.4770   17.5710  -34.1380 O   0  0  0  0  0  0  0  0  0  0  0  0
   -6.2160   17.0890  -32.8380 C   0  0  0  0  0  0  0  0  0  0  0  0
   -6.6110   18.0880  -31.7230 C   0  0  0  0  0  0  0  0  0  0  0  0
   -5.8890   22.8600  -31.6290 C   0  0  0  0  0  0  0  0  0  0  0  0
   -4.6820   23.4440  -31.1990 C   0  0  0  0  0  0  0  0  0  0  0  0
   -3.4310   22.9210  -31.5610 O   0  0  0  0  0  0  0  0  0  0  0  0
   -3.2420   21.7540  -32.3550 C   0  0  0  0  0  0  0  0  0  0  0  0
   -2.9470   24.7744  -28.0103 H   0  0  0  0  0  0  0  0  0  0  0  0
   -2.6048   23.4551  -29.1804 H   0  0  0  0  0  0  0  0  0  0  0  0
   -1.5942   24.9401  -29.1804 H   0  0  0  0  0  0  0  0  0  0  0  0
   -5.9864   26.0332  -29.3729 H   0  0  0  0  0  0  0  0  0  0  0  0
   -8.1120   24.9920  -30.1457 H   0  0  0  0  0  0  0  0  0  0  0  0
   -9.2430   23.4679  -31.4950 H   0  0  0  0  0  0  0  0  0  0  0  0
   -8.3227   22.6421  -32.8253 H   0  0  0  0  0  0  0  0  0  0  0  0
   -7.7560   21.0130  -30.9130 H   0  0  0  0  0  0  0  0  0  0  0  0
  -10.4377   20.4123  -31.5169 H   0  0  0  0  0  0  0  0  0  0  0  0
   -9.6113   21.1164  -32.9608 H   0  0  0  0  0  0  0  0  0  0  0  0
   -9.0671   18.5626  -31.4660 H   0  0  0  0  0  0  0  0  0  0  0  0
   -9.0172   18.9651  -33.2637 H   0  0  0  0  0  0  0  0  0  0  0  0
   -7.0560   20.0470  -31.4780 H   0  0  0  0  0  0  0  0  0  0  0  0
   -7.4731   20.2863  -34.0937 H   0  0  0  0  0  0  0  0  0  0  0  0
   -5.9435   20.6621  -33.1718 H   0  0  0  0  0  0  0  0  0  0  0  0
   -5.9070   19.1258  -35.3481 H   0  0  0  0  0  0  0  0  0  0  0  0
   -4.8525   18.7982  -33.9228 H   0  0  0  0  0  0  0  0  0  0  0  0
   -6.7838   16.1586  -32.6902 H   0  0  0  0  0  0  0  0  0  0  0  0
   -5.1304   16.9289  -32.7620 H   0  0  0  0  0  0  0  0  0  0  0  0
   -7.3113   17.5840  -31.0406 H   0  0  0  0  0  0  0  0  0  0  0  0
   -5.6777   18.3932  -31.2272 H   0  0  0  0  0  0  0  0  0  0  0  0
   -5.8640   21.9663  -32.2698 H   0  0  0  0  0  0  0  0  0  0  0  0
   -3.1009   20.8827  -31.6985 H   0  0  0  0  0  0  0  0  0  0  0  0
   -4.1262   21.5953  -32.9899 H   0  0  0  0  0  0  0  0  0  0  0  0
   -2.3530   21.8825  -32.9899 H   0  0  0  0  0  0  0  0  0  0  0  0
  1  2  1  0
  2  3  1  0
  3  4  2  0
  4  5  1  0
  5  6  2  0
  6  7  1  0
  7  8  1  0
  8  9  1  0
  9 10  1  0
 10 11  1  0
 11 12  1  0
 12 13  1  0
 13 14  1  0
 14 15  1  0
 15 16  1  0
  6 17  1  0
 17 18  2  0
 18 19  1  0
 19 20  1  0
 18  3  1  0
 16 11  1  0
  1 21  1  0
  1 22  1  0
  1 23  1  0
  4 24  1  0
  5 25  1  0
  7 26  1  0
  7 27  1  0
  8 28  1  0
  9 29  1  0
  9 30  1  0
 10 31  1  0
 10 32  1  0
 11 33  1  0
 12 34  1  0
 12 35  1  0
 13 36  1  0
 13 37  1  0
 15 38  1  0
 15 39  1  0
 16 40  1  0
 16 41  1  0
 17 42  1  0
 20 43  1  0
 20 44  1  0
 20 45  1  0
M  CHG  1  11   1
M  END
>  <UniqueID>  (39) 
37

>  <SMILES>  (39) 
COc1ccc(CNCC[NH+]2CCOCC2)cc1OC

>  <Energy>  (39) 
58.97611203837789

>  <Genealogy>  (39) 
COc1ccc(CNCC[NH+]2CCOCC2)cc1OC (protonated)
COc1ccc(CNCC[NH+]2CCOCC2)cc1OC (3D coordinates assigned)
COc1ccc(CNCC[NH+]2CCOCC2)cc1OC (nonaromatic ring conformer: 58.97611203837789 kcal/mol)

>  <smiles>  (39) 
COc1ccc(CNCCN2CCOCC2)cc1OC

>  <score_type>  (39) 
oracle

>  <origin>  (39) 
adg

>  <m_score__min__energy>  (39) 
-6.5599999999999996

>  <m_primary>  (39) 
energy

$$$$
39:0
     RDKit          3D

 42 45  0  0  0  0  0  0  0  0999 V2000
   -2.5180   22.0170  -31.3130 C   0  0  0  0  0  0  0  0  0  0  0  0
   -4.0020   22.2000  -31.2930 C   0  0  0  0  0  0  0  0  0  0  0  0
   -4.8460   21.2790  -31.6970 O   0  0  0  0  0  0  0  0  0  0  0  0
   -6.0670   21.7570  -31.6040 C   0  0  0  0  0  0  0  0  0  0  0  0
   -7.2710   21.0030  -31.9740 C   0  0  0  0  0  0  0  0  0  0  0  0
   -8.5720   21.4850  -31.9250 C   0  0  0  0  0  0  0  0  0  0  0  0
   -9.5250   20.5460  -32.3380 C   0  0  0  0  0  0  0  0  0  0  0  0
   -8.9780   19.3250  -32.7130 C   0  0  0  0  0  0  0  0  0  0  0  0
   -7.3080   19.4150  -32.5310 S   0  0  0  0  0  0  0  0  0  0  0  0
   -6.0370   23.0520  -31.1190 C   0  0  0  0  0  0  0  0  0  0  0  0
   -4.7040   23.3290  -30.8980 C   0  0  0  0  0  0  0  0  0  0  0  0
   -4.1630   24.6080  -30.4150 C   0  0  0  0  0  0  0  0  0  0  0  0
   -4.3590   25.6510  -31.0930 O   0  0  0  0  0  0  0  0  0  0  0  0
   -3.4500   24.7070  -29.1780 N   0  0  0  0  0  0  0  0  0  0  0  0
   -2.0750   24.2640  -28.9900 C   0  0  0  0  0  0  0  0  0  0  0  0
   -1.4750   24.9830  -27.8170 C   0  0  0  0  0  0  0  0  0  0  0  0
   -0.1120   25.3080  -27.8090 C   0  0  0  0  0  0  0  0  0  0  0  0
    0.4400   26.0090  -26.7340 C   0  0  0  0  0  0  0  0  0  0  0  0
   -0.3620   26.4110  -25.6500 C   0  0  0  0  0  0  0  0  0  0  0  0
    0.2270   27.1340  -24.5480 N   0  0  0  0  0  0  0  0  0  0  0  0
    0.6040   26.6560  -23.3430 C   0  0  0  0  0  0  0  0  0  0  0  0
    1.1080   27.6430  -22.5840 N   0  0  0  0  0  0  0  0  0  0  0  0
    1.0230   28.7320  -23.3690 C   0  0  0  0  0  0  0  0  0  0  0  0
    0.4870   28.4330  -24.5680 N   0  0  0  0  0  0  0  0  0  0  0  0
   -1.7350   26.0940  -25.6720 C   0  0  0  0  0  0  0  0  0  0  0  0
   -2.2850   25.3930  -26.7490 C   0  0  0  0  0  0  0  0  0  0  0  0
   -2.1404   21.9704  -30.2809 H   0  0  0  0  0  0  0  0  0  0  0  0
   -2.2709   21.0816  -31.8364 H   0  0  0  0  0  0  0  0  0  0  0  0
   -2.0511   22.8644  -31.8364 H   0  0  0  0  0  0  0  0  0  0  0  0
   -8.8284   22.5025  -31.5949 H   0  0  0  0  0  0  0  0  0  0  0  0
  -10.6046   20.7551  -32.3632 H   0  0  0  0  0  0  0  0  0  0  0  0
   -9.5408   18.4492  -33.0682 H   0  0  0  0  0  0  0  0  0  0  0  0
   -6.8942   23.7193  -30.9462 H   0  0  0  0  0  0  0  0  0  0  0  0
   -2.0611   23.1802  -28.8023 H   0  0  0  0  0  0  0  0  0  0  0  0
   -1.4906   24.4862  -29.8950 H   0  0  0  0  0  0  0  0  0  0  0  0
    0.5266   25.0097  -28.6535 H   0  0  0  0  0  0  0  0  0  0  0  0
    1.5134   26.2493  -26.7350 H   0  0  0  0  0  0  0  0  0  0  0  0
    0.5115   25.6063  -23.0273 H   0  0  0  0  0  0  0  0  0  0  0  0
    1.4770   27.5790  -21.6090 H   0  0  0  0  0  0  0  0  0  0  0  0
    1.3497   29.7388  -23.0698 H   0  0  0  0  0  0  0  0  0  0  0  0
   -2.3791   26.4007  -24.8347 H   0  0  0  0  0  0  0  0  0  0  0  0
   -3.3603   25.1616  -26.7585 H   0  0  0  0  0  0  0  0  0  0  0  0
  1  2  1  0
  2  3  1  0
  3  4  1  0
  4  5  1  0
  5  6  2  0
  6  7  1  0
  7  8  2  0
  8  9  1  0
  4 10  2  0
 10 11  1  0
 11 12  1  0
 12 13  2  0
 12 14  1  0
 14 15  1  0
 15 16  1  0
 16 17  2  0
 17 18  1  0
 18 19  2  0
 19 20  1  0
 20 21  1  0
 21 22  2  0
 22 23  1  0
 23 24  2  0
 19 25  1  0
 25 26  2  0
 11  2  2  0
 26 16  1  0
  9  5  1  0
 24 20  1  0
  1 27  1  0
  1 28  1  0
  1 29  1  0
  6 30  1  0
  7 31  1  0
  8 32  1  0
 10 33  1  0
 15 34  1  0
 15 35  1  0
 17 36  1  0
 18 37  1  0
 21 38  1  0
 22 39  1  0
 23 40  1  0
 25 41  1  0
 26 42  1  0
M  CHG  2  14  -1  22   1
M  END
>  <UniqueID>  (40) 
38

>  <SMILES>  (40) 
Cc1oc(-c2cccs2)cc1C(=O)[N-]Cc1ccc(-n2c[nH+]cn2)cc1

>  <Energy>  (40) 
137.35239903466083

>  <Genealogy>  (40) 
Cc1oc(-c2cccs2)cc1C(=O)[N-]Cc1ccc(-n2c[nH+]cn2)cc1 (protonated)
Cc1oc(-c2cccs2)cc1C(=O)[N-]Cc1ccc(-n2c[nH+]cn2)cc1 (3D coordinates assigned)
Cc1oc(-c2cccs2)cc1C(=O)[N-]Cc1ccc(-n2c[nH+]cn2)cc1 (optimized conformer: 137.35239903466083 kcal/mol)

>  <smiles>  (40) 
Cc1oc(-c2cccs2)cc1C(=O)NCc1ccc(-n2cncn2)cc1

>  <score_type>  (40) 
oracle

>  <origin>  (40) 
adg

>  <m_score__min__energy>  (40) 
-10.720000000000001

>  <m_primary>  (40) 
energy

$$$$
40:0
     RDKit          3D

 53 56  0  0  0  0  0  0  0  0999 V2000
    0.1212   27.0483  -28.0202 H   0  0  0  0  0  0  0  0  0  0  0  0
   -0.7150   26.3450  -27.8930 C   0  0  0  0  0  0  0  0  0  0  0  0
   -1.2420   25.7170  -28.9770 N   0  0  0  0  0  0  0  0  0  0  0  0
   -2.2630   24.8250  -28.8750 C   0  0  0  0  0  0  0  0  0  0  0  0
   -2.7890   24.2400  -30.0770 N   0  0  0  0  0  0  0  0  0  0  0  0
   -4.0320   24.2090  -30.4600 C   0  0  0  0  0  0  0  0  0  0  0  0
   -4.5140   23.0730  -31.0490 N   0  0  0  0  0  0  0  0  0  0  0  0
   -5.8160   23.0350  -31.4260 C   0  0  0  0  0  0  0  0  0  0  0  0
   -6.6530   24.0870  -31.2220 C   0  0  0  0  0  0  0  0  0  0  0  0
   -6.1840   25.2420  -30.6150 C   0  0  0  0  0  0  0  0  0  0  0  0
   -6.8464   26.1031  -30.4423 H   0  0  0  0  0  0  0  0  0  0  0  0
   -4.8720   25.2740  -30.2390 N   0  0  0  0  0  0  0  0  0  0  0  0
   -7.8970   23.7280  -31.6890 C   0  0  0  0  0  0  0  0  0  0  0  0
   -8.8139   24.3358  -31.6878 H   0  0  0  0  0  0  0  0  0  0  0  0
   -7.7420   22.4260  -32.1640 C   0  0  0  0  0  0  0  0  0  0  0  0
   -8.5480   21.8243  -32.6093 H   0  0  0  0  0  0  0  0  0  0  0  0
   -6.4630   22.0010  -32.0030 N   0  0  0  0  0  0  0  0  0  0  0  0
   -5.9440   20.6720  -32.3590 C   0  0  0  0  0  0  0  0  0  0  0  0
   -5.7694   20.0693  -31.4555 H   0  0  0  0  0  0  0  0  0  0  0  0
   -4.5710   20.8150  -33.0520 C   0  0  0  0  0  0  0  0  0  0  0  0
   -4.6616   21.5930  -33.8244 H   0  0  0  0  0  0  0  0  0  0  0  0
   -3.8559   21.0609  -32.2531 H   0  0  0  0  0  0  0  0  0  0  0  0
   -4.0270   19.5410  -33.7250 C   0  0  0  0  0  0  0  0  0  0  0  0
   -4.4097   19.5077  -34.7557 H   0  0  0  0  0  0  0  0  0  0  0  0
   -2.9302   19.6059  -33.6729 H   0  0  0  0  0  0  0  0  0  0  0  0
   -4.4190   18.2270  -33.0250 C   0  0  0  0  0  0  0  0  0  0  0  0
   -3.6324   17.4872  -33.2344 H   0  0  0  0  0  0  0  0  0  0  0  0
   -4.5286   18.4810  -31.9603 H   0  0  0  0  0  0  0  0  0  0  0  0
   -5.7770   17.6070  -33.4470 C   0  0  0  0  0  0  0  0  0  0  0  0
   -5.7990   17.5592  -34.5457 H   0  0  0  0  0  0  0  0  0  0  0  0
   -5.8220   16.6244  -32.9546 H   0  0  0  0  0  0  0  0  0  0  0  0
   -7.0350   18.3650  -32.9820 C   0  0  0  0  0  0  0  0  0  0  0  0
   -7.8964   17.9691  -33.5399 H   0  0  0  0  0  0  0  0  0  0  0  0
   -7.1034   18.2050  -31.8959 H   0  0  0  0  0  0  0  0  0  0  0  0
   -6.9950   19.8970  -33.1880 C   0  0  0  0  0  0  0  0  0  0  0  0
   -6.7894   20.0870  -34.2518 H   0  0  0  0  0  0  0  0  0  0  0  0
   -7.9719   20.2654  -32.8417 H   0  0  0  0  0  0  0  0  0  0  0  0
   -2.8210   24.5630  -27.6110 C   0  0  0  0  0  0  0  0  0  0  0  0
   -3.6695   23.8700  -27.5127 H   0  0  0  0  0  0  0  0  0  0  0  0
   -2.2900   25.1890  -26.4820 C   0  0  0  0  0  0  0  0  0  0  0  0
   -2.7023   24.9667  -25.4867 H   0  0  0  0  0  0  0  0  0  0  0  0
   -1.2330   26.1000  -26.6130 C   0  0  0  0  0  0  0  0  0  0  0  0
   -0.6580   26.7560  -25.4200 C   0  0  0  0  0  0  0  0  0  0  0  0
   -0.2670   27.9520  -25.5110 O   0  0  0  0  0  0  0  0  0  0  0  0
   -0.5200   26.0590  -24.1670 N   0  0  0  0  0  0  0  0  0  0  0  0
   -0.2230   24.6220  -24.1430 C   0  0  0  0  0  0  0  0  0  0  0  0
   -0.1522   24.2796  -23.1001 H   0  0  0  0  0  0  0  0  0  0  0  0
   -1.0266   24.0729  -24.6555 H   0  0  0  0  0  0  0  0  0  0  0  0
    0.7325   24.4365  -24.6555 H   0  0  0  0  0  0  0  0  0  0  0  0
   -0.5370   26.8260  -22.9200 C   0  0  0  0  0  0  0  0  0  0  0  0
   -0.5217   26.1350  -22.0643 H   0  0  0  0  0  0  0  0  0  0  0  0
    0.3469   27.4795  -22.8794 H   0  0  0  0  0  0  0  0  0  0  0  0
   -1.4490   27.4397  -22.8794 H   0  0  0  0  0  0  0  0  0  0  0  0
  1  2  1  0
  2  3  2  0
  3  4  1  0
  4  5  1  0
  5  6  2  0
  6  7  1  0
  7  8  2  0
  8  9  1  0
  9 10  2  0
 10 11  1  0
 10 12  1  0
  9 13  1  0
 13 14  1  0
 13 15  2  0
 15 16  1  0
 15 17  1  0
 17 18  1  0
 18 19  1  0
 18 20  1  0
 20 21  1  0
 20 22  1  0
 20 23  1  0
 23 24  1  0
 23 25  1  0
 23 26  1  0
 26 27  1  0
 26 28  1  0
 26 29  1  0
 29 30  1  0
 29 31  1  0
 29 32  1  0
 32 33  1  0
 32 34  1  0
 32 35  1  0
 35 36  1  0
 35 37  1  0
  4 38  2  0
 38 39  1  0
 38 40  1  0
 40 41  1  0
 40 42  2  0
 42 43  1  0
 43 44  2  0
 43 45  1  0
 45 46  1  0
 46 47  1  0
 46 48  1  0
 46 49  1  0
 45 50  1  0
 50 51  1  0
 50 52  1  0
 50 53  1  0
 42  2  1  0
 12  6  1  0
 35 18  1  0
 17  8  1  0
M  CHG  1  12  -1
M  END
>  <UniqueID>  (41) 
39

>  <SMILES>  (41) 
CN(C)C(=O)c1ccc(/N=c2\nc3c(ccn3C3CCCCCC3)c[n-]2)nc1

>  <Energy>  (41) 
110.9427863176129

>  <Genealogy>  (41) 
CN(C)C(=O)c1ccc(N=c2nc3c(ccn3C3CCCCCC3)c[n-]2)nc1 (protonated)
CN(C)C(=O)c1ccc(/N=c2\nc3c(ccn3C3CCCCCC3)c[n-]2)nc1 (cis-trans isomerization)
CN(C)C(=O)c1ccc(/N=c2\nc3c(ccn3C3CCCCCC3)c[n-]2)nc1 (3D coordinates assigned)
CN(C)C(=O)c1ccc(/N=c2\nc3c(ccn3C3CCCCCC3)c[n-]2)nc1 (nonaromatic ring conformer: 110.9427863176129 kcal/mol)

>  <smiles>  (41) 
CN(C)C(=O)c1ccc(N=c2nc3c(ccn3C3CCCCCC3)c[nH]2)nc1

>  <score_type>  (41) 
oracle

>  <origin>  (41) 
adg

>  <m_score__min__energy>  (41) 
-8.4600000000000009

>  <m_primary>  (41) 
energy

$$$$
41:0
     RDKit          3D

 46 48  0  0  0  0  0  0  0  0999 V2000
   -6.1870   17.4220  -30.5120 C   0  0  0  0  0  0  0  0  0  0  0  0
   -6.3640   16.7020  -31.7300 O   0  0  0  0  0  0  0  0  0  0  0  0
   -5.7570   17.0400  -32.9500 C   0  0  0  0  0  0  0  0  0  0  0  0
   -4.6360   16.3380  -33.4430 C   0  0  0  0  0  0  0  0  0  0  0  0
   -4.0780   16.6780  -34.6780 C   0  0  0  0  0  0  0  0  0  0  0  0
   -4.6260   17.7160  -35.4350 C   0  0  0  0  0  0  0  0  0  0  0  0
   -5.7320   18.4200  -34.9580 C   0  0  0  0  0  0  0  0  0  0  0  0
   -6.2910   18.1030  -33.7120 C   0  0  0  0  0  0  0  0  0  0  0  0
   -7.4420   18.8320  -33.2590 N   0  0  0  0  0  0  0  0  0  0  0  0
   -7.3960   20.1600  -32.6980 C   0  0  0  0  0  0  0  0  0  0  0  0
   -8.4970   20.7080  -31.9790 C   0  0  0  0  0  0  0  0  0  0  0  0
   -8.4000   21.9360  -31.3850 N   0  0  0  0  0  0  0  0  0  0  0  0
   -7.2430   22.6350  -31.4950 C   0  0  0  0  0  0  0  0  0  0  0  0
   -6.9670   23.8150  -30.9130 N   0  0  0  0  0  0  0  0  0  0  0  0
   -5.6770   24.0780  -31.2390 C   0  0  0  0  0  0  0  0  0  0  0  0
   -4.9160   25.2190  -30.7000 C   0  0  0  0  0  0  0  0  0  0  0  0
   -5.5060   26.3090  -30.4690 O   0  0  0  0  0  0  0  0  0  0  0  0
   -3.5080   25.0800  -30.4660 N   0  0  0  0  0  0  0  0  0  0  0  0
   -2.8480   24.2300  -29.4640 C   0  0  0  0  0  0  0  0  0  0  0  0
   -3.8450   24.0030  -28.3140 C   0  0  0  0  0  0  0  0  0  0  0  0
   -1.6050   24.9610  -28.9210 C   0  0  0  0  0  0  0  0  0  0  0  0
   -2.4490   22.8580  -30.0530 C   0  0  0  0  0  0  0  0  0  0  0  0
   -5.1420   23.0650  -32.0360 C   0  0  0  0  0  0  0  0  0  0  0  0
   -6.1630   22.1510  -32.1750 C   0  0  0  0  0  0  0  0  0  0  0  0
   -6.1990   20.9060  -32.7880 C   0  0  0  0  0  0  0  0  0  0  0  0
   -6.3530   16.7469  -29.6595 H   0  0  0  0  0  0  0  0  0  0  0  0
   -5.1636   17.8229  -30.4684 H   0  0  0  0  0  0  0  0  0  0  0  0
   -6.9079   18.2517  -30.4684 H   0  0  0  0  0  0  0  0  0  0  0  0
   -4.1996   15.5193  -32.8520 H   0  0  0  0  0  0  0  0  0  0  0  0
   -3.2043   16.1264  -35.0553 H   0  0  0  0  0  0  0  0  0  0  0  0
   -4.1852   17.9786  -36.4080 H   0  0  0  0  0  0  0  0  0  0  0  0
   -6.1680   19.2286  -35.5631 H   0  0  0  0  0  0  0  0  0  0  0  0
   -8.3820   18.4260  -33.4710 H   0  0  0  0  0  0  0  0  0  0  0  0
   -9.4344   20.1378  -31.9008 H   0  0  0  0  0  0  0  0  0  0  0  0
   -7.6020   24.3830  -30.3060 H   0  0  0  0  0  0  0  0  0  0  0  0
   -3.3269   24.1210  -27.3509 H   0  0  0  0  0  0  0  0  0  0  0  0
   -4.6598   24.7386  -28.3845 H   0  0  0  0  0  0  0  0  0  0  0  0
   -4.2610   22.9871  -28.3845 H   0  0  0  0  0  0  0  0  0  0  0  0
   -1.6242   24.9497  -27.8212 H   0  0  0  0  0  0  0  0  0  0  0  0
   -0.6964   24.4534  -29.2771 H   0  0  0  0  0  0  0  0  0  0  0  0
   -1.6070   26.0018  -29.2771 H   0  0  0  0  0  0  0  0  0  0  0  0
   -2.2440   22.1530  -29.2339 H   0  0  0  0  0  0  0  0  0  0  0  0
   -3.2719   22.4714  -30.6722 H   0  0  0  0  0  0  0  0  0  0  0  0
   -1.5471   22.9731  -30.6722 H   0  0  0  0  0  0  0  0  0  0  0  0
   -4.1284   23.0089  -32.4597 H   0  0  0  0  0  0  0  0  0  0  0  0
   -5.3241   20.5128  -33.3264 H   0  0  0  0  0  0  0  0  0  0  0  0
  1  2  1  0
  2  3  1  0
  3  4  2  0
  4  5  1  0
  5  6  2  0
  6  7  1  0
  7  8  2  0
  8  9  1  0
  9 10  1  0
 10 11  2  0
 11 12  1  0
 12 13  2  0
 13 14  1  0
 14 15  1  0
 15 16  1  0
 16 17  2  0
 16 18  1  0
 18 19  1  0
 19 20  1  0
 19 21  1  0
 19 22  1  0
 15 23  2  0
 23 24  1  0
 24 25  2  0
  8  3  1  0
 25 10  1  0
 24 13  1  0
  1 26  1  0
  1 27  1  0
  1 28  1  0
  4 29  1  0
  5 30  1  0
  6 31  1  0
  7 32  1  0
  9 33  1  0
 11 34  1  0
 14 35  1  0
 20 36  1  0
 20 37  1  0
 20 38  1  0
 21 39  1  0
 21 40  1  0
 21 41  1  0
 22 42  1  0
 22 43  1  0
 22 44  1  0
 23 45  1  0
 25 46  1  0
M  CHG  1  18  -1
M  END
>  <UniqueID>  (42) 
40

>  <SMILES>  (42) 
COc1ccccc1Nc1cnc2[nH]c(C(=O)[N-]C(C)(C)C)cc2c1

>  <Energy>  (42) 
84.56039826325916

>  <Genealogy>  (42) 
COc1ccccc1Nc1cnc2[nH]c(C(=O)[N-]C(C)(C)C)cc2c1 (protonated)
COc1ccccc1Nc1cnc2[nH]c(C(=O)[N-]C(C)(C)C)cc2c1 (3D coordinates assigned)
COc1ccccc1Nc1cnc2[nH]c(C(=O)[N-]C(C)(C)C)cc2c1 (optimized conformer: 84.56039826325916 kcal/mol)

>  <smiles>  (42) 
COc1ccccc1Nc1cnc2[nH]c(C(=O)NC(C)(C)C)cc2c1

>  <score_type>  (42) 
oracle

>  <origin>  (42) 
adg

>  <m_score__min__energy>  (42) 
-9.6699999999999999

>  <m_primary>  (42) 
energy

$$$$
42:0
     RDKit          3D

 39 41  0  0  0  0  0  0  0  0999 V2000
   -6.8570   16.6070  -33.6700 C   0  0  0  0  0  0  0  0  0  0  0  0
   -6.3840   17.9720  -33.3800 N   0  0  0  0  0  0  0  0  0  0  0  0
   -7.2540   18.8990  -32.8550 C   0  0  0  0  0  0  0  0  0  0  0  0
   -8.4540   18.6010  -32.6060 O   0  0  0  0  0  0  0  0  0  0  0  0
   -6.7820   20.1850  -32.6170 C   0  0  0  0  0  0  0  0  0  0  0  0
   -5.5040   20.5090  -32.9290 C   0  0  0  0  0  0  0  0  0  0  0  0
   -5.2860   21.8120  -32.6810 N   0  0  0  0  0  0  0  0  0  0  0  0
   -6.4710   22.2610  -32.1920 C   0  0  0  0  0  0  0  0  0  0  0  0
   -6.7320   23.6770  -31.8490 C   0  0  0  0  0  0  0  0  0  0  0  0
   -6.4100   24.2500  -30.6800 C   0  0  0  0  0  0  0  0  0  0  0  0
   -5.2230   23.9070  -29.8700 C   0  0  0  0  0  0  0  0  0  0  0  0
   -5.2810   22.7980  -29.0120 C   0  0  0  0  0  0  0  0  0  0  0  0
   -4.1760   22.4480  -28.2320 C   0  0  0  0  0  0  0  0  0  0  0  0
   -2.9960   23.1920  -28.3170 C   0  0  0  0  0  0  0  0  0  0  0  0
   -2.9160   24.2790  -29.1900 C   0  0  0  0  0  0  0  0  0  0  0  0
   -4.0190   24.6340  -29.9740 C   0  0  0  0  0  0  0  0  0  0  0  0
   -3.9010   25.6630  -30.8510 F   0  0  0  0  0  0  0  0  0  0  0  0
   -7.4140   21.2790  -32.1400 N   0  0  0  0  0  0  0  0  0  0  0  0
   -8.8120   21.3930  -31.7210 C   0  0  0  0  0  0  0  0  0  0  0  0
   -4.6310   19.6140  -33.4670 N   0  0  0  0  0  0  0  0  0  0  0  0
   -3.2650   20.0330  -33.8110 C   0  0  0  0  0  0  0  0  0  0  0  0
   -5.0890   18.3360  -33.7110 C   0  0  0  0  0  0  0  0  0  0  0  0
   -4.3210   17.4900  -34.2510 O   0  0  0  0  0  0  0  0  0  0  0  0
   -7.0415   16.0745  -32.7254 H   0  0  0  0  0  0  0  0  0  0  0  0
   -7.7899   16.6578  -34.2506 H   0  0  0  0  0  0  0  0  0  0  0  0
   -6.0927   16.0697  -34.2506 H   0  0  0  0  0  0  0  0  0  0  0  0
   -4.4260   22.3670  -32.8820 H   0  0  0  0  0  0  0  0  0  0  0  0
   -7.2250   24.3038  -32.6067 H   0  0  0  0  0  0  0  0  0  0  0  0
   -7.0795   25.0336  -30.2957 H   0  0  0  0  0  0  0  0  0  0  0  0
   -6.2026   22.2003  -28.9532 H   0  0  0  0  0  0  0  0  0  0  0  0
   -4.2348   21.5864  -27.5507 H   0  0  0  0  0  0  0  0  0  0  0  0
   -2.1296   22.9211  -27.6957 H   0  0  0  0  0  0  0  0  0  0  0  0
   -1.9832   24.8577  -29.2614 H   0  0  0  0  0  0  0  0  0  0  0  0
   -8.8663   21.3974  -30.6224 H   0  0  0  0  0  0  0  0  0  0  0  0
   -9.2371   22.3288  -32.1129 H   0  0  0  0  0  0  0  0  0  0  0  0
   -9.3831   20.5384  -32.1129 H   0  0  0  0  0  0  0  0  0  0  0  0
   -2.6921   20.2087  -32.8885 H   0  0  0  0  0  0  0  0  0  0  0  0
   -2.7768   19.2433  -34.4010 H   0  0  0  0  0  0  0  0  0  0  0  0
   -3.3036   20.9606  -34.4010 H   0  0  0  0  0  0  0  0  0  0  0  0
  1  2  1  0
  2  3  1  0
  3  4  2  0
  3  5  1  0
  5  6  2  0
  6  7  1  0
  7  8  2  0
  8  9  1  0
  9 10  2  3
 10 11  1  0
 11 12  2  0
 12 13  1  0
 13 14  2  0
 14 15  1  0
 15 16  2  0
 16 17  1  0
  8 18  1  0
 18 19  1  0
  6 20  1  0
 20 21  1  0
 20 22  1  0
 22 23  2  0
 22  2  1  0
 18  5  1  0
 16 11  1  0
  1 24  1  0
  1 25  1  0
  1 26  1  0
  7 27  1  0
  9 28  1  0
 10 29  1  0
 12 30  1  0
 13 31  1  0
 14 32  1  0
 15 33  1  0
 19 34  1  0
 19 35  1  0
 19 36  1  0
 21 37  1  0
 21 38  1  0
 21 39  1  0
M  CHG  1   7   1
M  END
>  <UniqueID>  (43) 
41

>  <SMILES>  (43) 
Cn1c(=O)c2c([nH+]c(C=Cc3ccccc3F)n2C)n(C)c1=O

>  <Energy>  (43) 
97.52437121134898

>  <Genealogy>  (43) 
Cn1c(=O)c2c([nH+]c(C=Cc3ccccc3F)n2C)n(C)c1=O (protonated)
Cn1c(=O)c2c([nH+]c(C=Cc3ccccc3F)n2C)n(C)c1=O (3D coordinates assigned)
Cn1c(=O)c2c([nH+]c(C=Cc3ccccc3F)n2C)n(C)c1=O (optimized conformer: 97.52437121134898 kcal/mol)

>  <smiles>  (43) 
Cn1c(=O)c2c(nc(C=Cc3ccccc3F)n2C)n(C)c1=O

>  <score_type>  (43) 
oracle

>  <origin>  (43) 
adg

>  <m_score__min__energy>  (43) 
-6.9299999999999997

>  <m_primary>  (43) 
energy

$$$$
43:0
     RDKit          3D

 37 39  0  0  0  0  0  0  0  0999 V2000
   -8.8470   19.2190  -31.6530 C   0  0  0  0  0  0  0  0  0  0  0  0
   -8.4940   20.5340  -32.3360 C   0  0  0  0  0  0  0  0  0  0  0  0
   -7.0390   20.6700  -32.4580 N   0  0  0  0  0  0  0  0  0  0  0  0
   -6.2200   21.5930  -31.8760 C   0  0  0  0  0  0  0  0  0  0  0  0
   -6.6790   22.7610  -31.0500 C   0  0  0  0  0  0  0  0  0  0  0  0
   -5.7590   24.2730  -31.5050 S   0  0  0  0  0  0  0  0  0  0  0  0
   -4.3760   23.9400  -30.4170 C   0  0  0  0  0  0  0  0  0  0  0  0
   -4.2360   22.7120  -29.8550 N   0  0  0  0  0  0  0  0  0  0  0  0
   -3.2080   22.4430  -29.0060 C   0  0  0  0  0  0  0  0  0  0  0  0
   -3.0960   21.0920  -28.3750 C   0  0  0  0  0  0  0  0  0  0  0  0
   -2.2890   23.4510  -28.6930 C   0  0  0  0  0  0  0  0  0  0  0  0
   -2.4480   24.7050  -29.2860 C   0  0  0  0  0  0  0  0  0  0  0  0
   -1.6370   25.6330  -29.0330 O   0  0  0  0  0  0  0  0  0  0  0  0
   -3.4840   24.9250  -30.1360 N   0  0  0  0  0  0  0  0  0  0  0  0
   -4.9110   21.3780  -32.1620 N   0  0  0  0  0  0  0  0  0  0  0  0
   -4.9130   20.2760  -32.9290 C   0  0  0  0  0  0  0  0  0  0  0  0
   -3.8210   19.6130  -33.4830 C   0  0  0  0  0  0  0  0  0  0  0  0
   -4.0760   18.4560  -34.2420 C   0  0  0  0  0  0  0  0  0  0  0  0
   -5.4010   17.9970  -34.4230 C   0  0  0  0  0  0  0  0  0  0  0  0
   -6.4830   18.6910  -33.8470 C   0  0  0  0  0  0  0  0  0  0  0  0
   -6.1950   19.8390  -33.1050 C   0  0  0  0  0  0  0  0  0  0  0  0
   -8.8114   19.3516  -30.5616 H   0  0  0  0  0  0  0  0  0  0  0  0
   -9.8597   18.9108  -31.9521 H   0  0  0  0  0  0  0  0  0  0  0  0
   -8.1248   18.4451  -31.9521 H   0  0  0  0  0  0  0  0  0  0  0  0
   -8.9457   20.5547  -33.3388 H   0  0  0  0  0  0  0  0  0  0  0  0
   -8.8815   21.3667  -31.7307 H   0  0  0  0  0  0  0  0  0  0  0  0
   -7.7528   22.9258  -31.2224 H   0  0  0  0  0  0  0  0  0  0  0  0
   -6.4932   22.5392  -29.9887 H   0  0  0  0  0  0  0  0  0  0  0  0
   -3.1047   21.1969  -27.2800 H   0  0  0  0  0  0  0  0  0  0  0  0
   -3.9455   20.4684  -28.6904 H   0  0  0  0  0  0  0  0  0  0  0  0
   -2.1554   20.6168  -28.6904 H   0  0  0  0  0  0  0  0  0  0  0  0
   -1.4602   23.2597  -27.9956 H   0  0  0  0  0  0  0  0  0  0  0  0
   -4.0870   21.9400  -31.8530 H   0  0  0  0  0  0  0  0  0  0  0  0
   -2.7953   19.9808  -33.3326 H   0  0  0  0  0  0  0  0  0  0  0  0
   -3.2396   17.9053  -34.6972 H   0  0  0  0  0  0  0  0  0  0  0  0
   -5.5883   17.0911  -35.0181 H   0  0  0  0  0  0  0  0  0  0  0  0
   -7.5179   18.3414  -33.9768 H   0  0  0  0  0  0  0  0  0  0  0  0
  1  2  1  0
  2  3  1  0
  3  4  1  0
  4  5  1  0
  5  6  1  0
  6  7  1  0
  7  8  2  0
  8  9  1  0
  9 10  1  0
  9 11  2  0
 11 12  1  0
 12 13  2  0
 12 14  1  0
  4 15  2  0
 15 16  1  0
 16 17  2  0
 17 18  1  0
 18 19  2  0
 19 20  1  0
 20 21  2  0
 21  3  1  0
 14  7  1  0
 21 16  1  0
  1 22  1  0
  1 23  1  0
  1 24  1  0
  2 25  1  0
  2 26  1  0
  5 27  1  0
  5 28  1  0
 10 29  1  0
 10 30  1  0
 10 31  1  0
 11 32  1  0
 15 33  1  0
 17 34  1  0
 18 35  1  0
 19 36  1  0
 20 37  1  0
M  CHG  2  14  -1  15   1
M  END
>  <UniqueID>  (44) 
42

>  <SMILES>  (44) 
CCn1c(CSc2nc(C)cc(=O)[n-]2)[nH+]c2ccccc21

>  <Energy>  (44) 
68.25536696514473

>  <Genealogy>  (44) 
CCn1c(CSc2nc(C)cc(=O)[n-]2)[nH+]c2ccccc21 (protonated)
CCn1c(CSc2nc(C)cc(=O)[n-]2)[nH+]c2ccccc21 (3D coordinates assigned)
CCn1c(CSc2nc(C)cc(=O)[n-]2)[nH+]c2ccccc21 (optimized conformer: 68.25536696514473 kcal/mol)

>  <smiles>  (44) 
CCn1c(CSc2nc(C)cc(=O)[nH]2)nc2ccccc21

>  <score_type>  (44) 
oracle

>  <origin>  (44) 
adg

>  <m_score__min__energy>  (44) 
-7.9800000000000004

>  <m_primary>  (44) 
energy

$$$$
44:0
     RDKit          3D

 59 61  0  0  0  0  0  0  0  0999 V2000
    0.6130   22.6850  -35.7260 C   0  0  0  0  0  0  0  0  0  0  0  0
   -0.1110   22.0820  -34.6580 O   0  0  0  0  0  0  0  0  0  0  0  0
   -0.3940   20.7110  -34.5640 C   0  0  0  0  0  0  0  0  0  0  0  0
    0.5070   19.7270  -35.0230 C   0  0  0  0  0  0  0  0  0  0  0  0
    0.1880   18.3710  -34.9110 C   0  0  0  0  0  0  0  0  0  0  0  0
   -1.0250   17.9810  -34.3420 C   0  0  0  0  0  0  0  0  0  0  0  0
   -1.9250   18.9460  -33.8830 C   0  0  0  0  0  0  0  0  0  0  0  0
   -1.6120   20.3070  -33.9910 C   0  0  0  0  0  0  0  0  0  0  0  0
   -2.7940   21.5270  -33.4030 S   0  0  0  0  0  0  0  0  0  0  0  0
   -2.4130   21.2330  -31.6440 C   0  0  0  0  0  0  0  0  0  0  0  0
   -3.5270   21.8080  -30.7700 C   0  0  0  0  0  0  0  0  0  0  0  0
   -4.1710   23.0430  -31.4420 C   0  0  0  0  0  0  0  0  0  0  0  0
   -5.4460   22.7710  -32.1570 N   0  0  0  0  0  0  0  0  0  0  0  0
   -6.4410   23.8560  -31.9600 C   0  0  0  0  0  0  0  0  0  0  0  0
   -7.8560   23.3690  -32.2940 C   0  0  0  0  0  0  0  0  0  0  0  0
   -8.2820   22.3050  -31.3590 N   0  0  0  0  0  0  0  0  0  0  0  0
   -9.4440   21.5630  -31.8930 C   0  0  0  0  0  0  0  0  0  0  0  0
   -9.1750   20.0540  -31.8510 C   0  0  0  0  0  0  0  0  0  0  0  0
   -8.4810   19.6180  -33.0640 N   0  0  0  0  0  0  0  0  0  0  0  0
   -7.2790   18.8200  -33.0810 C   0  0  0  0  0  0  0  0  0  0  0  0
   -6.2970   18.9640  -34.0820 C   0  0  0  0  0  0  0  0  0  0  0  0
   -5.1460   18.1680  -34.0640 C   0  0  0  0  0  0  0  0  0  0  0  0
   -4.9650   17.2190  -33.0560 C   0  0  0  0  0  0  0  0  0  0  0  0
   -5.9330   17.0640  -32.0630 C   0  0  0  0  0  0  0  0  0  0  0  0
   -7.0850   17.8570  -32.0750 C   0  0  0  0  0  0  0  0  0  0  0  0
   -7.1760   21.4050  -30.9330 C   0  0  0  0  0  0  0  0  0  0  0  0
   -5.9900   21.4060  -31.9170 C   0  0  0  0  0  0  0  0  0  0  0  0
    1.3970   23.3379  -35.3148 H   0  0  0  0  0  0  0  0  0  0  0  0
    1.0754   21.9013  -36.3440 H   0  0  0  0  0  0  0  0  0  0  0  0
   -0.0742   23.2815  -36.3440 H   0  0  0  0  0  0  0  0  0  0  0  0
    1.4652   20.0286  -35.4712 H   0  0  0  0  0  0  0  0  0  0  0  0
    0.8947   17.6094  -35.2722 H   0  0  0  0  0  0  0  0  0  0  0  0
   -1.2728   16.9128  -34.2548 H   0  0  0  0  0  0  0  0  0  0  0  0
   -2.8812   18.6364  -33.4360 H   0  0  0  0  0  0  0  0  0  0  0  0
   -2.3295   20.1510  -31.4643 H   0  0  0  0  0  0  0  0  0  0  0  0
   -1.4623   21.7251  -31.3911 H   0  0  0  0  0  0  0  0  0  0  0  0
   -4.2978   21.0385  -30.6158 H   0  0  0  0  0  0  0  0  0  0  0  0
   -3.0952   22.1163  -29.8064 H   0  0  0  0  0  0  0  0  0  0  0  0
   -4.3696   23.7923  -30.6616 H   0  0  0  0  0  0  0  0  0  0  0  0
   -3.4567   23.3881  -32.2040 H   0  0  0  0  0  0  0  0  0  0  0  0
   -5.1950   22.8010  -33.1760 H   0  0  0  0  0  0  0  0  0  0  0  0
   -6.4118   24.1851  -30.9108 H   0  0  0  0  0  0  0  0  0  0  0  0
   -6.1889   24.6898  -32.6317 H   0  0  0  0  0  0  0  0  0  0  0  0
   -8.5551   24.2150  -32.2196 H   0  0  0  0  0  0  0  0  0  0  0  0
   -7.8553   22.9601  -33.3152 H   0  0  0  0  0  0  0  0  0  0  0  0
  -10.3313   21.7908  -31.2841 H   0  0  0  0  0  0  0  0  0  0  0  0
   -9.6153   21.8677  -32.9360 H   0  0  0  0  0  0  0  0  0  0  0  0
   -8.5510   19.8227  -30.9751 H   0  0  0  0  0  0  0  0  0  0  0  0
  -10.1372   19.5250  -31.7846 H   0  0  0  0  0  0  0  0  0  0  0  0
   -8.8780   19.9350  -33.9770 H   0  0  0  0  0  0  0  0  0  0  0  0
   -6.4361   19.7062  -34.8818 H   0  0  0  0  0  0  0  0  0  0  0  0
   -4.3821   18.2903  -34.8459 H   0  0  0  0  0  0  0  0  0  0  0  0
   -4.0599   16.5939  -33.0447 H   0  0  0  0  0  0  0  0  0  0  0  0
   -5.7897   16.3164  -31.2689 H   0  0  0  0  0  0  0  0  0  0  0  0
   -7.8455   17.7263  -31.2910 H   0  0  0  0  0  0  0  0  0  0  0  0
   -6.8149   21.7346  -29.9476 H   0  0  0  0  0  0  0  0  0  0  0  0
   -7.5772   20.3813  -30.9002 H   0  0  0  0  0  0  0  0  0  0  0  0
   -5.1891   20.7752  -31.5040 H   0  0  0  0  0  0  0  0  0  0  0  0
   -6.3556   21.0192  -32.8796 H   0  0  0  0  0  0  0  0  0  0  0  0
  1  2  1  0
  2  3  1  0
  3  4  2  0
  4  5  1  0
  5  6  2  0
  6  7  1  0
  7  8  2  0
  8  9  1  0
  9 10  1  0
 10 11  1  0
 11 12  1  0
 12 13  1  0
 13 14  1  0
 14 15  1  0
 15 16  1  0
 16 17  1  0
 17 18  1  0
 18 19  1  0
 19 20  1  0
 20 21  2  0
 21 22  1  0
 22 23  2  0
 23 24  1  0
 24 25  2  0
 16 26  1  0
 26 27  1  0
  8  3  1  0
 27 13  1  0
 25 20  1  0
  1 28  1  0
  1 29  1  0
  1 30  1  0
  4 31  1  0
  5 32  1  0
  6 33  1  0
  7 34  1  0
 10 35  1  0
 10 36  1  0
 11 37  1  0
 11 38  1  0
 12 39  1  0
 12 40  1  0
 13 41  1  0
 14 42  1  0
 14 43  1  0
 15 44  1  0
 15 45  1  0
 17 46  1  0
 17 47  1  0
 18 48  1  0
 18 49  1  0
 19 50  1  0
 21 51  1  0
 22 52  1  0
 23 53  1  0
 24 54  1  0
 25 55  1  0
 26 56  1  0
 26 57  1  0
 27 58  1  0
 27 59  1  0
M  CHG  1  13   1
M  END
>  <UniqueID>  (45) 
43

>  <SMILES>  (45) 
COc1ccccc1SCCC[NH+]1CCN(CCNc2ccccc2)CC1

>  <Energy>  (45) 
67.32536878734639

>  <Genealogy>  (45) 
COc1ccccc1SCCC[NH+]1CCN(CCNc2ccccc2)CC1 (protonated)
COc1ccccc1SCCC[NH+]1CCN(CCNc2ccccc2)CC1 (3D coordinates assigned)
COc1ccccc1SCCC[NH+]1CCN(CCNc2ccccc2)CC1 (nonaromatic ring conformer: 67.32536878734639 kcal/mol)

>  <smiles>  (45) 
COc1ccccc1SCCCN1CCN(CCNc2ccccc2)CC1

>  <score_type>  (45) 
oracle

>  <origin>  (45) 
adg

>  <m_score__min__energy>  (45) 
-8.6999999999999993

>  <m_primary>  (45) 
energy

$$$$
45:0
     RDKit          3D

 35 37  0  0  0  0  0  0  0  0999 V2000
   -1.1370   26.4300  -28.9520 N   0  0  0  0  0  0  0  0  0  0  0  0
   -1.0780   24.7730  -28.4670 S   0  0  0  0  0  0  0  0  0  0  0  0
    0.1900   24.1490  -28.9770 O   0  0  0  0  0  0  0  0  0  0  0  0
   -1.0870   24.6870  -26.9660 O   0  0  0  0  0  0  0  0  0  0  0  0
   -2.4720   23.9190  -29.1220 C   0  0  0  0  0  0  0  0  0  0  0  0
   -2.3300   22.6170  -29.6200 C   0  0  0  0  0  0  0  0  0  0  0  0
   -3.4320   21.9400  -30.1510 C   0  0  0  0  0  0  0  0  0  0  0  0
   -4.6880   22.5620  -30.1950 C   0  0  0  0  0  0  0  0  0  0  0  0
   -5.8010   21.8920  -30.7260 C   0  0  0  0  0  0  0  0  0  0  0  0
   -7.0500   22.5230  -30.7720 C   0  0  0  0  0  0  0  0  0  0  0  0
   -8.4460   21.6660  -31.4140 S   0  0  0  0  0  0  0  0  0  0  0  0
   -9.1530   22.5240  -32.4260 O   0  0  0  0  0  0  0  0  0  0  0  0
   -9.4140   21.3560  -30.3070 O   0  0  0  0  0  0  0  0  0  0  0  0
   -7.9030   20.1720  -32.1680 C   0  0  0  0  0  0  0  0  0  0  0  0
   -6.9300   20.2110  -33.1750 C   0  0  0  0  0  0  0  0  0  0  0  0
   -6.4930   19.0180  -33.7520 C   0  0  0  0  0  0  0  0  0  0  0  0
   -7.0240   17.8020  -33.3190 C   0  0  0  0  0  0  0  0  0  0  0  0
   -6.4840   16.2940  -34.0320 Cl  0  0  0  0  0  0  0  0  0  0  0  0
   -7.9870   17.8000  -32.3050 C   0  0  0  0  0  0  0  0  0  0  0  0
   -8.4020   18.9720  -31.7530 N   0  0  0  0  0  0  0  0  0  0  0  0
   -7.1920   23.8250  -30.2730 C   0  0  0  0  0  0  0  0  0  0  0  0
   -6.0910   24.5020  -29.7430 C   0  0  0  0  0  0  0  0  0  0  0  0
   -4.8340   23.8800  -29.6990 C   0  0  0  0  0  0  0  0  0  0  0  0
   -3.7220   24.5510  -29.1680 C   0  0  0  0  0  0  0  0  0  0  0  0
   -0.8710   26.4620  -29.9620 H   0  0  0  0  0  0  0  0  0  0  0  0
   -1.3465   22.1250  -29.5930 H   0  0  0  0  0  0  0  0  0  0  0  0
   -3.3134   20.9162  -30.5355 H   0  0  0  0  0  0  0  0  0  0  0  0
   -5.6916   20.8662  -31.1079 H   0  0  0  0  0  0  0  0  0  0  0  0
   -6.5142   21.1734  -33.5079 H   0  0  0  0  0  0  0  0  0  0  0  0
   -5.7320   19.0358  -34.5461 H   0  0  0  0  0  0  0  0  0  0  0  0
   -8.4102   16.8478  -31.9527 H   0  0  0  0  0  0  0  0  0  0  0  0
   -9.1160   18.9420  -30.9920 H   0  0  0  0  0  0  0  0  0  0  0  0
   -8.1758   24.3164  -30.2988 H   0  0  0  0  0  0  0  0  0  0  0  0
   -6.2098   25.5259  -29.3590 H   0  0  0  0  0  0  0  0  0  0  0  0
   -3.8318   25.5768  -28.7864 H   0  0  0  0  0  0  0  0  0  0  0  0
  1  2  1  0
  2  3  2  0
  2  4  2  0
  2  5  1  0
  5  6  2  0
  6  7  1  0
  7  8  2  0
  8  9  1  0
  9 10  2  0
 10 11  1  0
 11 12  2  0
 11 13  2  0
 11 14  1  0
 14 15  2  0
 15 16  1  0
 16 17  2  0
 17 18  1  0
 17 19  1  0
 19 20  2  0
 10 21  1  0
 21 22  2  0
 22 23  1  0
 23 24  2  0
 24  5  1  0
 23  8  1  0
 20 14  1  0
  1 25  1  0
  6 26  1  0
  7 27  1  0
  9 28  1  0
 15 29  1  0
 16 30  1  0
 19 31  1  0
 20 32  1  0
 21 33  1  0
 22 34  1  0
 24 35  1  0
M  CHG  2   1  -1  20   1
M  END
>  <UniqueID>  (46) 
44

>  <SMILES>  (46) 
[NH-]S(=O)(=O)c1ccc2cc(S(=O)(=O)c3ccc(Cl)c[nH+]3)ccc2c1

>  <Energy>  (46) 
42.252519144536095

>  <Genealogy>  (46) 
[NH-]S(=O)(=O)c1ccc2cc(S(=O)(=O)c3ccc(Cl)c[nH+]3)ccc2c1 (protonated)
[NH-]S(=O)(=O)c1ccc2cc(S(=O)(=O)c3ccc(Cl)c[nH+]3)ccc2c1 (3D coordinates assigned)
[NH-]S(=O)(=O)c1ccc2cc(S(=O)(=O)c3ccc(Cl)c[nH+]3)ccc2c1 (optimized conformer: 42.252519144536095 kcal/mol)

>  <smiles>  (46) 
NS(=O)(=O)c1ccc2cc(S(=O)(=O)c3ccc(Cl)cn3)ccc2c1

>  <score_type>  (46) 
oracle

>  <origin>  (46) 
adg

>  <m_score__min__energy>  (46) 
-10.76

>  <m_primary>  (46) 
energy

$$$$
46:0
     RDKit          3D

 35 37  0  0  0  0  0  0  0  0999 V2000
   -3.9330   25.6750  -30.8770 O   0  0  0  0  0  0  0  0  0  0  0  0
   -4.5790   24.5990  -30.7700 C   0  0  0  0  0  0  0  0  0  0  0  0
   -6.0390   24.5880  -31.1240 C   0  0  0  0  0  0  0  0  0  0  0  0
   -6.8720   23.2560  -30.2830 S   0  0  0  0  0  0  0  0  0  0  0  0
   -5.9960   22.6800  -28.9700 O   0  0  0  0  0  0  0  0  0  0  0  0
   -7.3260   21.9560  -31.3630 C   0  0  0  0  0  0  0  0  0  0  0  0
   -8.5350   21.8460  -31.9420 N   0  0  0  0  0  0  0  0  0  0  0  0
   -8.4890   20.7470  -32.6800 N   0  0  0  0  0  0  0  0  0  0  0  0
   -7.2540   20.2340  -32.5190 C   0  0  0  0  0  0  0  0  0  0  0  0
   -6.7660   19.0060  -33.1640 C   0  0  0  0  0  0  0  0  0  0  0  0
   -6.9480   17.7490  -32.5660 C   0  0  0  0  0  0  0  0  0  0  0  0
   -6.4700   16.6070  -33.2140 C   0  0  0  0  0  0  0  0  0  0  0  0
   -5.8200   16.7250  -34.4430 C   0  0  0  0  0  0  0  0  0  0  0  0
   -5.6570   17.9910  -35.0100 C   0  0  0  0  0  0  0  0  0  0  0  0
   -6.1290   19.0920  -34.3650 N   0  0  0  0  0  0  0  0  0  0  0  0
   -6.5330   20.9730  -31.7100 O   0  0  0  0  0  0  0  0  0  0  0  0
   -3.8670   23.3970  -30.4490 N   0  0  0  0  0  0  0  0  0  0  0  0
   -3.6110   22.3070  -31.3420 C   0  0  0  0  0  0  0  0  0  0  0  0
   -2.9020   21.1930  -30.8750 C   0  0  0  0  0  0  0  0  0  0  0  0
   -2.6670   20.1020  -31.7170 C   0  0  0  0  0  0  0  0  0  0  0  0
   -3.1610   20.1080  -33.0250 C   0  0  0  0  0  0  0  0  0  0  0  0
   -2.9360   19.0490  -33.8400 F   0  0  0  0  0  0  0  0  0  0  0  0
   -3.8990   21.2020  -33.4870 C   0  0  0  0  0  0  0  0  0  0  0  0
   -4.1330   22.2940  -32.6470 C   0  0  0  0  0  0  0  0  0  0  0  0
   -6.4917   25.5449  -30.8249 H   0  0  0  0  0  0  0  0  0  0  0  0
   -6.1419   24.4442  -32.2097 H   0  0  0  0  0  0  0  0  0  0  0  0
   -5.0480   22.7280  -29.2530 H   0  0  0  0  0  0  0  0  0  0  0  0
   -7.4617   17.6639  -31.5971 H   0  0  0  0  0  0  0  0  0  0  0  0
   -6.6060   15.6163  -32.7558 H   0  0  0  0  0  0  0  0  0  0  0  0
   -5.4402   15.8311  -34.9595 H   0  0  0  0  0  0  0  0  0  0  0  0
   -5.1467   18.0979  -35.9786 H   0  0  0  0  0  0  0  0  0  0  0  0
   -2.5282   21.1765  -29.8406 H   0  0  0  0  0  0  0  0  0  0  0  0
   -2.0931   19.2383  -31.3502 H   0  0  0  0  0  0  0  0  0  0  0  0
   -4.2959   21.2031  -34.5129 H   0  0  0  0  0  0  0  0  0  0  0  0
   -4.7276   23.1461  -33.0082 H   0  0  0  0  0  0  0  0  0  0  0  0
  1  2  2  0
  2  3  1  0
  3  4  1  0
  4  5  1  1
  4  6  1  0
  6  7  2  0
  7  8  1  0
  8  9  2  0
  9 10  1  0
 10 11  2  0
 11 12  1  0
 12 13  2  0
 13 14  1  0
 14 15  2  0
  9 16  1  0
  2 17  1  0
 17 18  1  0
 18 19  2  0
 19 20  1  0
 20 21  2  0
 21 22  1  0
 21 23  1  0
 23 24  2  0
 16  6  1  0
 24 18  1  0
 15 10  1  0
  3 25  1  0
  3 26  1  0
  5 27  1  0
 11 28  1  0
 12 29  1  0
 13 30  1  0
 14 31  1  0
 19 32  1  0
 20 33  1  0
 23 34  1  0
 24 35  1  0
M  CHG  2   4   1  17  -1
M  END
>  <UniqueID>  (47) 
45

>  <SMILES>  (47) 
O=C(C[S@+](O)c1nnc(-c2ccccn2)o1)[N-]c1ccc(F)cc1

>  <Energy>  (47) 
72.84849549148113

>  <Genealogy>  (47) 
O=C(C[S+](O)c1nnc(-c2ccccn2)o1)[N-]c1ccc(F)cc1 (protonated)
O=C(C[S@+](O)c1nnc(-c2ccccn2)o1)[N-]c1ccc(F)cc1 (chirality)
O=C(C[S@+](O)c1nnc(-c2ccccn2)o1)[N-]c1ccc(F)cc1 (3D coordinates assigned)
O=C(C[S@+](O)c1nnc(-c2ccccn2)o1)[N-]c1ccc(F)cc1 (optimized conformer: 72.84849549148113 kcal/mol)

>  <smiles>  (47) 
O=C(C[S+]([O-])c1nnc(-c2ccccn2)o1)Nc1ccc(F)cc1

>  <score_type>  (47) 
oracle

>  <origin>  (47) 
adg

>  <m_score__min__energy>  (47) 
-8.8599999999999994

>  <m_primary>  (47) 
energy

$$$$
47:0
     RDKit          3D

 45 46  0  0  0  0  0  0  0  0999 V2000
   -7.1640   20.7780  -32.6920 C   0  0  0  0  0  0  0  0  0  0  0  0
   -6.1200   20.3920  -31.6500 C   0  0  0  0  0  0  0  0  0  0  0  0
   -5.1100   21.4930  -31.4690 C   0  0  0  0  0  0  0  0  0  0  0  0
   -5.2650   22.6370  -30.7030 C   0  0  0  0  0  0  0  0  0  0  0  0
   -6.4800   23.0700  -29.9400 C   0  0  0  0  0  0  0  0  0  0  0  0
   -4.0750   23.3330  -30.8680 C   0  0  0  0  0  0  0  0  0  0  0  0
   -3.7640   24.6820  -30.3630 C   0  0  0  0  0  0  0  0  0  0  0  0
   -4.3930   25.6720  -30.8190 O   0  0  0  0  0  0  0  0  0  0  0  0
   -2.7390   24.9090  -29.3870 N   0  0  0  0  0  0  0  0  0  0  0  0
   -1.4390   24.2450  -29.3630 C   0  0  0  0  0  0  0  0  0  0  0  0
   -1.5870   22.8350  -28.8440 C   0  0  0  0  0  0  0  0  0  0  0  0
   -2.2410   22.6340  -27.6180 C   0  0  0  0  0  0  0  0  0  0  0  0
   -2.4260   21.3470  -27.1130 C   0  0  0  0  0  0  0  0  0  0  0  0
   -1.9640   20.2350  -27.8200 C   0  0  0  0  0  0  0  0  0  0  0  0
   -2.1800   18.9620  -27.2700 O   0  0  0  0  0  0  0  0  0  0  0  0
   -3.0970   18.6850  -26.2140 C   0  0  0  0  0  0  0  0  0  0  0  0
   -1.3040   20.4250  -29.0490 C   0  0  0  0  0  0  0  0  0  0  0  0
   -1.1080   21.7220  -29.5690 C   0  0  0  0  0  0  0  0  0  0  0  0
   -0.4450   21.9330  -30.7880 O   0  0  0  0  0  0  0  0  0  0  0  0
   -0.1270   20.9080  -31.7240 C   0  0  0  0  0  0  0  0  0  0  0  0
   -3.2520   22.6300  -31.6720 N   0  0  0  0  0  0  0  0  0  0  0  0
   -3.8730   21.5120  -32.0120 N   0  0  0  0  0  0  0  0  0  0  0  0
   -3.3010   20.5300  -32.9270 C   0  0  0  0  0  0  0  0  0  0  0  0
   -8.0798   21.1166  -32.1855 H   0  0  0  0  0  0  0  0  0  0  0  0
   -6.7712   21.5903  -33.3211 H   0  0  0  0  0  0  0  0  0  0  0  0
   -7.3941   19.9055  -33.3211 H   0  0  0  0  0  0  0  0  0  0  0  0
   -6.6222   20.2025  -30.6899 H   0  0  0  0  0  0  0  0  0  0  0  0
   -5.5967   19.4879  -31.9946 H   0  0  0  0  0  0  0  0  0  0  0  0
   -6.2799   22.9987  -28.8607 H   0  0  0  0  0  0  0  0  0  0  0  0
   -6.7245   24.1106  -30.1996 H   0  0  0  0  0  0  0  0  0  0  0  0
   -7.3275   22.4185  -30.1996 H   0  0  0  0  0  0  0  0  0  0  0  0
   -1.0261   24.2162  -30.3822 H   0  0  0  0  0  0  0  0  0  0  0  0
   -0.7612   24.8035  -28.7007 H   0  0  0  0  0  0  0  0  0  0  0  0
   -2.6112   23.5002  -27.0500 H   0  0  0  0  0  0  0  0  0  0  0  0
   -2.9398   21.2070  -26.1505 H   0  0  0  0  0  0  0  0  0  0  0  0
   -2.5975   18.8359  -25.2456 H   0  0  0  0  0  0  0  0  0  0  0  0
   -3.9602   19.3625  -26.2908 H   0  0  0  0  0  0  0  0  0  0  0  0
   -3.4408   17.6429  -26.2908 H   0  0  0  0  0  0  0  0  0  0  0  0
   -0.9371   19.5528  -29.6100 H   0  0  0  0  0  0  0  0  0  0  0  0
    0.1569   19.9930  -31.1834 H   0  0  0  0  0  0  0  0  0  0  0  0
   -1.0039   20.7035  -32.3558 H   0  0  0  0  0  0  0  0  0  0  0  0
    0.7117   21.2357  -32.3558 H   0  0  0  0  0  0  0  0  0  0  0  0
   -2.8299   19.7212  -32.3491 H   0  0  0  0  0  0  0  0  0  0  0  0
   -4.0970   20.1122  -33.5608 H   0  0  0  0  0  0  0  0  0  0  0  0
   -2.5448   21.0163  -33.5608 H   0  0  0  0  0  0  0  0  0  0  0  0
  1  2  1  0
  2  3  1  0
  3  4  2  0
  4  5  1  0
  4  6  1  0
  6  7  1  0
  7  8  2  0
  7  9  1  0
  9 10  1  0
 10 11  1  0
 11 12  2  0
 12 13  1  0
 13 14  2  0
 14 15  1  0
 15 16  1  0
 14 17  1  0
 17 18  2  0
 18 19  1  0
 19 20  1  0
  6 21  2  0
 21 22  1  0
 22 23  1  0
 22  3  1  0
 18 11  1  0
  1 24  1  0
  1 25  1  0
  1 26  1  0
  2 27  1  0
  2 28  1  0
  5 29  1  0
  5 30  1  0
  5 31  1  0
 10 32  1  0
 10 33  1  0
 12 34  1  0
 13 35  1  0
 16 36  1  0
 16 37  1  0
 16 38  1  0
 17 39  1  0
 20 40  1  0
 20 41  1  0
 20 42  1  0
 23 43  1  0
 23 44  1  0
 23 45  1  0
M  CHG  1   9  -1
M  END
>  <UniqueID>  (48) 
46

>  <SMILES>  (48) 
CCc1c(C)c(C(=O)[N-]Cc2ccc(OC)cc2OC)nn1C

>  <Energy>  (48) 
68.1387660503337

>  <Genealogy>  (48) 
CCc1c(C)c(C(=O)[N-]Cc2ccc(OC)cc2OC)nn1C (protonated)
CCc1c(C)c(C(=O)[N-]Cc2ccc(OC)cc2OC)nn1C (3D coordinates assigned)
CCc1c(C)c(C(=O)[N-]Cc2ccc(OC)cc2OC)nn1C (optimized conformer: 68.1387660503337 kcal/mol)

>  <smiles>  (48) 
CCc1c(C)c(C(=O)NCc2ccc(OC)cc2OC)nn1C

>  <score_type>  (48) 
oracle

>  <origin>  (48) 
adg

>  <m_score__min__energy>  (48) 
-8.6899999999999995

>  <m_primary>  (48) 
energy

$$$$
