0:0
     RDKit          3D

 47 50  0  0  0  0  0  0  0  0999 V2000
   -0.4420   18.8650  -33.9800 C   0  0  0  0  0  0  0  0  0  0  0  0
   -0.4500   20.0320  -34.9730 C   0  0  0  0  0  0  0  0  0  0  0  0
   -1.2620   21.1660  -34.4960 N   0  0  0  0  0  0  0  0  0  0  0  0
   -1.1060   21.3860  -33.0460 C   0  0  0  0  0  0  0  0  0  0  0  0
   -2.4060   21.0840  -32.2790 C   0  0  0  0  0  0  0  0  0  0  0  0
   -3.5890   21.6100  -32.9710 N   0  0  0  0  0  0  0  0  0  0  0  0
   -4.9020   21.5370  -32.4000 C   0  0  0  0  0  0  0  0  0  0  0  0
   -5.4050   22.6110  -31.6300 C   0  0  0  0  0  0  0  0  0  0  0  0
   -4.5610   23.6690  -31.2330 C   0  0  0  0  0  0  0  0  0  0  0  0
   -5.0530   24.7310  -30.4800 C   0  0  0  0  0  0  0  0  0  0  0  0
   -6.3900   24.7570  -30.1000 C   0  0  0  0  0  0  0  0  0  0  0  0
   -7.2460   23.7170  -30.4630 C   0  0  0  0  0  0  0  0  0  0  0  0
   -6.7770   22.6220  -31.2310 C   0  0  0  0  0  0  0  0  0  0  0  0
   -7.6150   21.5830  -31.5930 N   0  0  0  0  0  0  0  0  0  0  0  0
   -9.0460   21.6050  -31.2360 C   0  0  0  0  0  0  0  0  0  0  0  0
   -7.0860   20.5130  -32.2680 C   0  0  0  0  0  0  0  0  0  0  0  0
   -7.9080   19.1200  -32.7680 S   0  0  0  0  0  0  0  0  0  0  0  0
   -6.5650   18.4010  -33.4630 C   0  0  0  0  0  0  0  0  0  0  0  0
   -6.5130   17.1600  -34.0910 C   0  0  0  0  0  0  0  0  0  0  0  0
   -5.2820   16.7140  -34.5840 C   0  0  0  0  0  0  0  0  0  0  0  0
   -4.1310   17.5030  -34.4260 C   0  0  0  0  0  0  0  0  0  0  0  0
   -4.2020   18.7510  -33.7870 C   0  0  0  0  0  0  0  0  0  0  0  0
   -5.4440   19.2200  -33.3190 C   0  0  0  0  0  0  0  0  0  0  0  0
   -5.7450   20.4400  -32.6560 C   0  0  0  0  0  0  0  0  0  0  0  0
   -0.4447   19.2578  -32.9525 H   0  0  0  0  0  0  0  0  0  0  0  0
   -1.3359   18.2436  -34.1373 H   0  0  0  0  0  0  0  0  0  0  0  0
    0.4603   18.2559  -34.1373 H   0  0  0  0  0  0  0  0  0  0  0  0
    0.5840   20.3757  -35.1234 H   0  0  0  0  0  0  0  0  0  0  0  0
   -0.8939   19.6716  -35.9127 H   0  0  0  0  0  0  0  0  0  0  0  0
   -0.9390   22.0280  -34.9950 H   0  0  0  0  0  0  0  0  0  0  0  0
   -2.2630   21.0120  -34.7490 H   0  0  0  0  0  0  0  0  0  0  0  0
   -0.3093   20.7275  -32.6696 H   0  0  0  0  0  0  0  0  0  0  0  0
   -0.8526   22.4444  -32.8860 H   0  0  0  0  0  0  0  0  0  0  0  0
   -2.5114   19.9941  -32.1744 H   0  0  0  0  0  0  0  0  0  0  0  0
   -2.3418   21.5742  -31.2964 H   0  0  0  0  0  0  0  0  0  0  0  0
   -3.5080   21.8580  -33.9820 H   0  0  0  0  0  0  0  0  0  0  0  0
   -3.4998   23.6546  -31.5224 H   0  0  0  0  0  0  0  0  0  0  0  0
   -4.3825   25.5516  -30.1849 H   0  0  0  0  0  0  0  0  0  0  0  0
   -6.7749   25.6019  -29.5101 H   0  0  0  0  0  0  0  0  0  0  0  0
   -8.2997   23.7472  -30.1488 H   0  0  0  0  0  0  0  0  0  0  0  0
   -9.1507   21.6066  -30.1410 H   0  0  0  0  0  0  0  0  0  0  0  0
   -9.5134   22.5104  -31.6504 H   0  0  0  0  0  0  0  0  0  0  0  0
   -9.5410   20.7144  -31.6504 H   0  0  0  0  0  0  0  0  0  0  0  0
   -7.4184   16.5444  -34.1972 H   0  0  0  0  0  0  0  0  0  0  0  0
   -5.2155   15.7430  -35.0966 H   0  0  0  0  0  0  0  0  0  0  0  0
   -3.1649   17.1398  -34.8064 H   0  0  0  0  0  0  0  0  0  0  0  0
   -3.2942   19.3576  -33.6531 H   0  0  0  0  0  0  0  0  0  0  0  0
  1  2  1  0
  2  3  1  0
  3  4  1  0
  4  5  1  0
  5  6  1  0
  6  7  1  0
  7  8  2  0
  8  9  1  0
  9 10  2  0
 10 11  1  0
 11 12  2  0
 12 13  1  0
 13 14  2  0
 14 15  1  0
 14 16  1  0
 16 17  1  0
 17 18  1  0
 18 19  2  0
 19 20  1  0
 20 21  2  0
 21 22  1  0
 22 23  2  0
 23 24  1  0
 24  7  1  0
 13  8  1  0
 24 16  2  0
 23 18  1  0
  1 25  1  0
  1 26  1  0
  1 27  1  0
  2 28  1  0
  2 29  1  0
  3 30  1  0
  3 31  1  0
  4 32  1  0
  4 33  1  0
  5 34  1  0
  5 35  1  0
  6 36  1  0
  9 37  1  0
 10 38  1  0
 11 39  1  0
 12 40  1  0
 15 41  1  0
 15 42  1  0
 15 43  1  0
 19 44  1  0
 20 45  1  0
 21 46  1  0
 22 47  1  0
M  CHG  2   3   1  14   1
M  END
>  <UniqueID>  (1) 
1

>  <SMILES>  (1) 
CC[NH2+]CCNc1c2ccccc2[n+](C)c2sc3ccccc3c12

>  <Energy>  (1) 
101.24423198570251

>  <Genealogy>  (1) 
CC[NH2+]CCNc1c2ccccc2[n+](C)c2sc3ccccc3c12 (protonated)
CC[NH2+]CCNc1c2ccccc2[n+](C)c2sc3ccccc3c12 (3D coordinates assigned)
CC[NH2+]CCNc1c2ccccc2[n+](C)c2sc3ccccc3c12 (optimized conformer: 101.24423198570251 kcal/mol)

>  <smiles>  (1) 
CCNCCNc1c2ccccc2[n+](C)c2sc3ccccc3c12

>  <score_type>  (1) 
oracle

>  <origin>  (1) 
adg

>  <m_score__min__energy>  (1) 
-7.9400000000000004

>  <m_primary>  (1) 
energy

$$$$
1:0
     RDKit          3D

 68 70  0  0  0  0  0  0  0  0999 V2000
   -6.7461   23.6595  -31.8635 H   0  0  0  0  0  0  0  0  0  0  0  0
   -6.1100   22.7630  -31.8220 C   0  0  0  0  0  0  0  0  0  0  0  0
   -6.3610   21.8000  -32.6600 N   0  0  0  0  0  0  0  0  0  0  0  0
   -7.0810   20.5880  -32.3880 C   0  0  0  0  0  0  0  0  0  0  0  0
   -8.3570   20.6890  -31.8200 C   0  0  0  0  0  0  0  0  0  0  0  0
   -8.7614   21.6784  -31.5600 H   0  0  0  0  0  0  0  0  0  0  0  0
   -9.1200   19.5450  -31.5810 C   0  0  0  0  0  0  0  0  0  0  0  0
  -10.1117   19.6338  -31.1134 H   0  0  0  0  0  0  0  0  0  0  0  0
   -8.6270   18.2910  -31.9340 C   0  0  0  0  0  0  0  0  0  0  0  0
   -9.2289   17.3907  -31.7414 H   0  0  0  0  0  0  0  0  0  0  0  0
   -7.3700   18.1740  -32.5320 C   0  0  0  0  0  0  0  0  0  0  0  0
   -6.9948   17.1809  -32.8201 H   0  0  0  0  0  0  0  0  0  0  0  0
   -6.5780   19.3140  -32.7700 C   0  0  0  0  0  0  0  0  0  0  0  0
   -5.3050   19.1660  -33.4410 N   0  0  0  0  0  0  0  0  0  0  0  0
   -4.8490   20.0980  -33.5510 H   0  0  0  0  0  0  0  0  0  0  0  0
   -4.6590   18.5790  -32.8630 H   0  0  0  0  0  0  0  0  0  0  0  0
   -5.4780   18.5330  -34.7550 C   0  0  0  0  0  0  0  0  0  0  0  0
   -5.3410   19.2904  -35.5408 H   0  0  0  0  0  0  0  0  0  0  0  0
   -6.4893   18.1035  -34.8086 H   0  0  0  0  0  0  0  0  0  0  0  0
   -4.4580   17.4110  -34.9570 C   0  0  0  0  0  0  0  0  0  0  0  0
   -3.5894   17.7978  -35.5101 H   0  0  0  0  0  0  0  0  0  0  0  0
   -4.9164   16.5917  -35.5303 H   0  0  0  0  0  0  0  0  0  0  0  0
   -4.0410   16.9340  -33.6950 O   0  0  0  0  0  0  0  0  0  0  0  0
   -2.6400   17.0760  -33.5720 C   0  0  0  0  0  0  0  0  0  0  0  0
   -2.1379   16.2847  -34.1480 H   0  0  0  0  0  0  0  0  0  0  0  0
   -2.3513   16.9935  -32.5138 H   0  0  0  0  0  0  0  0  0  0  0  0
   -2.2240   18.4470  -34.1140 C   0  0  0  0  0  0  0  0  0  0  0  0
   -2.6529   18.5812  -35.1180 H   0  0  0  0  0  0  0  0  0  0  0  0
   -1.1255   18.4877  -34.1532 H   0  0  0  0  0  0  0  0  0  0  0  0
   -2.7030   19.5380  -33.2340 N   0  0  0  0  0  0  0  0  0  0  0  0
   -2.4180   20.8580  -33.8420 C   0  0  0  0  0  0  0  0  0  0  0  0
   -2.4117   20.7548  -34.9371 H   0  0  0  0  0  0  0  0  0  0  0  0
   -1.4389   21.2045  -33.4795 H   0  0  0  0  0  0  0  0  0  0  0  0
   -3.4750   21.8900  -33.4440 C   0  0  0  0  0  0  0  0  0  0  0  0
   -3.5353   21.9489  -32.3472 H   0  0  0  0  0  0  0  0  0  0  0  0
   -3.1974   22.8742  -33.8493 H   0  0  0  0  0  0  0  0  0  0  0  0
   -4.4523   21.5889  -33.8493 H   0  0  0  0  0  0  0  0  0  0  0  0
   -2.1460   19.4270  -31.8600 C   0  0  0  0  0  0  0  0  0  0  0  0
   -2.9314   19.6613  -31.1263 H   0  0  0  0  0  0  0  0  0  0  0  0
   -1.7821   18.4022  -31.6945 H   0  0  0  0  0  0  0  0  0  0  0  0
   -0.9900   20.4080  -31.6970 C   0  0  0  0  0  0  0  0  0  0  0  0
   -0.7966   20.5722  -30.6267 H   0  0  0  0  0  0  0  0  0  0  0  0
   -0.0886   19.9950  -32.1734 H   0  0  0  0  0  0  0  0  0  0  0  0
   -1.2509   21.3646  -32.1734 H   0  0  0  0  0  0  0  0  0  0  0  0
   -5.0250   22.7310  -30.8170 C   0  0  0  0  0  0  0  0  0  0  0  0
   -4.3280   21.6210  -30.3700 C   0  0  0  0  0  0  0  0  0  0  0  0
   -4.4761   20.5777  -30.6856 H   0  0  0  0  0  0  0  0  0  0  0  0
   -3.4090   22.0860  -29.4480 C   0  0  0  0  0  0  0  0  0  0  0  0
   -2.4250   21.2220  -28.7190 C   0  0  0  0  0  0  0  0  0  0  0  0
   -2.5633   21.3435  -27.6345 H   0  0  0  0  0  0  0  0  0  0  0  0
   -2.5873   20.1693  -28.9937 H   0  0  0  0  0  0  0  0  0  0  0  0
   -1.4021   21.5191  -28.9937 H   0  0  0  0  0  0  0  0  0  0  0  0
   -3.5290   23.4250  -29.2960 N   0  0  0  0  0  0  0  0  0  0  0  0
   -2.7140   24.2640  -28.4610 C   0  0  0  0  0  0  0  0  0  0  0  0
   -1.4920   24.7680  -28.9300 C   0  0  0  0  0  0  0  0  0  0  0  0
   -1.1463   24.5147  -29.9431 H   0  0  0  0  0  0  0  0  0  0  0  0
   -0.7340   25.5690  -28.1350 N   0  0  0  0  0  0  0  0  0  0  0  0
   -1.1290   25.9080  -26.8780 C   0  0  0  0  0  0  0  0  0  0  0  0
   -0.4942   26.5599  -26.2598 H   0  0  0  0  0  0  0  0  0  0  0  0
   -2.3380   25.4300  -26.3720 C   0  0  0  0  0  0  0  0  0  0  0  0
   -2.6610   25.7011  -25.3560 H   0  0  0  0  0  0  0  0  0  0  0  0
   -3.1340   24.6040  -27.1680 C   0  0  0  0  0  0  0  0  0  0  0  0
   -4.0895   24.2206  -26.7807 H   0  0  0  0  0  0  0  0  0  0  0  0
   -4.5270   23.8240  -30.1200 C   0  0  0  0  0  0  0  0  0  0  0  0
   -4.9600   25.2510  -30.3090 C   0  0  0  0  0  0  0  0  0  0  0  0
   -5.1035   25.7239  -29.3262 H   0  0  0  0  0  0  0  0  0  0  0  0
   -4.1872   25.7975  -30.8695 H   0  0  0  0  0  0  0  0  0  0  0  0
   -5.9061   25.2759  -30.8695 H   0  0  0  0  0  0  0  0  0  0  0  0
  1  2  1  0
  2  3  2  0
  3  4  1  0
  4  5  2  0
  5  6  1  0
  5  7  1  0
  7  8  1  0
  7  9  2  0
  9 10  1  0
  9 11  1  0
 11 12  1  0
 11 13  2  0
 13 14  1  0
 14 15  1  0
 14 16  1  0
 14 17  1  0
 17 18  1  0
 17 19  1  0
 17 20  1  0
 20 21  1  0
 20 22  1  0
 20 23  1  0
 23 24  1  0
 24 25  1  0
 24 26  1  0
 24 27  1  0
 27 28  1  0
 27 29  1  0
 27 30  1  0
 30 31  1  0
 31 32  1  0
 31 33  1  0
 31 34  1  0
 34 35  1  0
 34 36  1  0
 34 37  1  0
 30 38  1  0
 38 39  1  0
 38 40  1  0
 38 41  1  0
 41 42  1  0
 41 43  1  0
 41 44  1  0
  2 45  1  0
 45 46  1  0
 46 47  1  0
 46 48  2  0
 48 49  1  0
 49 50  1  0
 49 51  1  0
 49 52  1  0
 48 53  1  0
 53 54  1  0
 54 55  2  0
 55 56  1  0
 55 57  1  0
 57 58  2  0
 58 59  1  0
 58 60  1  0
 60 61  1  0
 60 62  2  0
 62 63  1  0
 53 64  1  0
 64 65  1  0
 65 66  1  0
 65 67  1  0
 65 68  1  0
 13  4  1  0
 64 45  2  0
 62 54  1  0
M  CHG  1  14   1
M  END
>  <UniqueID>  (2) 
2

>  <SMILES>  (2) 
CCN(CC)CCOCC[NH2+]c1ccccc1/N=C\c1cc(C)n(-c2cccnc2)c1C

>  <Energy>  (2) 
109.91400684148452

>  <Genealogy>  (2) 
CCN(CC)CCOCC[NH2+]c1ccccc1N=Cc1cc(C)n(-c2cccnc2)c1C (protonated)
CCN(CC)CCOCC[NH2+]c1ccccc1/N=C\c1cc(C)n(-c2cccnc2)c1C (cis-trans isomerization)
CCN(CC)CCOCC[NH2+]c1ccccc1/N=C\c1cc(C)n(-c2cccnc2)c1C (3D coordinates assigned)
CCN(CC)CCOCC[NH2+]c1ccccc1/N=C\c1cc(C)n(-c2cccnc2)c1C (optimized conformer: 109.91400684148452 kcal/mol)

>  <smiles>  (2) 
CCN(CC)CCOCCNc1ccccc1N=Cc1cc(C)n(-c2cccnc2)c1C

>  <score_type>  (2) 
oracle

>  <origin>  (2) 
adg

>  <m_score__min__energy>  (2) 
-7.4299999999999997

>  <m_primary>  (2) 
energy

$$$$
2:0
     RDKit          3D

 55 56  0  0  0  0  0  0  0  0999 V2000
   -1.6610   21.1390  -32.8010 C   0  0  0  0  0  0  0  0  0  0  0  0
   -3.0470   21.4670  -33.3480 C   0  0  0  0  0  0  0  0  0  0  0  0
   -3.8950   20.3380  -33.2590 O   0  0  0  0  0  0  0  0  0  0  0  0
   -3.3260   19.2020  -33.8860 C   0  0  0  0  0  0  0  0  0  0  0  0
   -3.6910   17.9250  -33.1230 C   0  0  0  0  0  0  0  0  0  0  0  0
   -5.0220   17.4350  -33.5170 N   0  0  0  0  0  0  0  0  0  0  0  0
   -5.2010   15.9900  -33.7280 C   0  0  0  0  0  0  0  0  0  0  0  0
   -6.6200   15.6910  -34.2010 C   0  0  0  0  0  0  0  0  0  0  0  0
   -6.1690   18.3140  -33.5940 C   0  0  0  0  0  0  0  0  0  0  0  0
   -6.2660   19.1220  -34.5600 O   0  0  0  0  0  0  0  0  0  0  0  0
   -7.2450   18.2980  -32.5320 C   0  0  0  0  0  0  0  0  0  0  0  0
   -7.8740   19.6540  -32.3270 C   0  0  0  0  0  0  0  0  0  0  0  0
   -9.2520   19.7650  -32.0820 C   0  0  0  0  0  0  0  0  0  0  0  0
   -9.8380   21.0220  -31.9170 C   0  0  0  0  0  0  0  0  0  0  0  0
   -9.0580   22.1770  -32.0080 C   0  0  0  0  0  0  0  0  0  0  0  0
   -7.6850   22.0840  -32.2830 C   0  0  0  0  0  0  0  0  0  0  0  0
   -6.8400   23.3270  -32.3510 C   0  0  0  0  0  0  0  0  0  0  0  0
   -5.4230   22.9710  -32.1960 N   0  0  0  0  0  0  0  0  0  0  0  0
   -4.9810   23.0940  -30.7930 C   0  0  2  0  0  0  0  0  0  0  0  0
   -5.9100   23.9760  -29.9690 C   0  0  0  0  0  0  0  0  0  0  0  0
   -5.2870   25.3660  -30.0160 C   0  0  0  0  0  0  0  0  0  0  0  0
   -3.9510   25.2620  -30.6080 N   0  0  0  0  0  0  0  0  0  0  0  0
   -3.6570   23.8370  -30.7390 C   0  0  0  0  0  0  0  0  0  0  0  0
   -7.0960   20.8190  -32.4320 C   0  0  0  0  0  0  0  0  0  0  0  0
   -1.6897   21.1458  -31.7014 H   0  0  0  0  0  0  0  0  0  0  0  0
   -1.3538   20.1434  -33.1536 H   0  0  0  0  0  0  0  0  0  0  0  0
   -0.9402   21.8914  -33.1536 H   0  0  0  0  0  0  0  0  0  0  0  0
   -3.4806   22.2923  -32.7641 H   0  0  0  0  0  0  0  0  0  0  0  0
   -2.9526   21.7585  -34.4045 H   0  0  0  0  0  0  0  0  0  0  0  0
   -3.7063   19.1290  -34.9156 H   0  0  0  0  0  0  0  0  0  0  0  0
   -2.2314   19.3111  -33.8912 H   0  0  0  0  0  0  0  0  0  0  0  0
   -2.9429   17.1490  -33.3425 H   0  0  0  0  0  0  0  0  0  0  0  0
   -3.7068   18.1531  -32.0470 H   0  0  0  0  0  0  0  0  0  0  0  0
   -4.4855   15.6438  -34.4884 H   0  0  0  0  0  0  0  0  0  0  0  0
   -5.0256   15.4670  -32.7763 H   0  0  0  0  0  0  0  0  0  0  0  0
   -7.2758   15.5528  -33.3287 H   0  0  0  0  0  0  0  0  0  0  0  0
   -6.9889   16.5311  -34.8077 H   0  0  0  0  0  0  0  0  0  0  0  0
   -6.6186   14.7734  -34.8077 H   0  0  0  0  0  0  0  0  0  0  0  0
   -8.0286   17.5876  -32.8343 H   0  0  0  0  0  0  0  0  0  0  0  0
   -6.7742   18.0009  -31.5833 H   0  0  0  0  0  0  0  0  0  0  0  0
   -9.8723   18.8587  -32.0198 H   0  0  0  0  0  0  0  0  0  0  0  0
  -10.9163   21.1025  -31.7149 H   0  0  0  0  0  0  0  0  0  0  0  0
   -9.5219   23.1639  -31.8635 H   0  0  0  0  0  0  0  0  0  0  0  0
   -6.9894   23.8181  -33.3239 H   0  0  0  0  0  0  0  0  0  0  0  0
   -7.1342   24.0124  -31.5425 H   0  0  0  0  0  0  0  0  0  0  0  0
   -4.8440   23.5920  -32.8110 H   0  0  0  0  0  0  0  0  0  0  0  0
   -4.9415   22.0663  -30.4028 H   0  0  0  0  0  0  0  0  0  0  0  0
   -6.9184   23.9902  -30.4081 H   0  0  0  0  0  0  0  0  0  0  0  0
   -6.0183   23.6086  -28.9378 H   0  0  0  0  0  0  0  0  0  0  0  0
   -5.9127   26.0315  -30.6289 H   0  0  0  0  0  0  0  0  0  0  0  0
   -5.2153   25.7792  -28.9991 H   0  0  0  0  0  0  0  0  0  0  0  0
   -3.9870   25.6720  -31.5720 H   0  0  0  0  0  0  0  0  0  0  0  0
   -3.0879   23.6555  -31.6626 H   0  0  0  0  0  0  0  0  0  0  0  0
   -3.0547   23.4885  -29.8871 H   0  0  0  0  0  0  0  0  0  0  0  0
   -6.0174   20.7391  -32.6324 H   0  0  0  0  0  0  0  0  0  0  0  0
  1  2  1  0
  2  3  1  0
  3  4  1  0
  4  5  1  0
  5  6  1  0
  6  7  1  0
  7  8  1  0
  6  9  1  0
  9 10  2  0
  9 11  1  0
 11 12  1  0
 12 13  2  0
 13 14  1  0
 14 15  2  0
 15 16  1  0
 16 17  1  0
 17 18  1  0
 18 19  1  0
 19 20  1  0
 20 21  1  0
 21 22  1  0
 22 23  1  0
 16 24  2  0
 24 12  1  0
 23 19  1  0
  1 25  1  0
  1 26  1  0
  1 27  1  0
  2 28  1  0
  2 29  1  0
  4 30  1  0
  4 31  1  0
  5 32  1  0
  5 33  1  0
  7 34  1  0
  7 35  1  0
  8 36  1  0
  8 37  1  0
  8 38  1  0
 11 39  1  0
 11 40  1  0
 13 41  1  0
 14 42  1  0
 15 43  1  0
 17 44  1  0
 17 45  1  0
 18 46  1  0
 19 47  1  1
 20 48  1  0
 20 49  1  0
 21 50  1  0
 21 51  1  0
 22 52  1  0
 23 53  1  0
 23 54  1  0
 24 55  1  0
M  END
>  <UniqueID>  (3) 
3

>  <SMILES>  (3) 
CCOCCN(CC)C(=O)Cc1cccc(CN[C@@H]2CCNC2)c1

>  <Energy>  (3) 
48.21358209455562

>  <Genealogy>  (3) 
CCOCCN(CC)C(=O)Cc1cccc(CN[C@@H]2CCNC2)c1 (chirality)
CCOCCN(CC)C(=O)Cc1cccc(CN[C@@H]2CCNC2)c1 (3D coordinates assigned)
CCOCCN(CC)C(=O)Cc1cccc(CN[C@@H]2CCNC2)c1 (nonaromatic ring conformer: 48.21358209455562 kcal/mol)

>  <smiles>  (3) 
CCOCCN(CC)C(=O)Cc1cccc(CNC2CCNC2)c1

>  <score_type>  (3) 
oracle

>  <origin>  (3) 
adg

>  <m_score__min__energy>  (3) 
-8.25

>  <m_primary>  (3) 
energy

$$$$
3:0
     RDKit          3D

 44 46  0  0  0  0  0  0  0  0999 V2000
   -0.9570   21.1870  -32.3160 C   0  0  0  0  0  0  0  0  0  0  0  0
   -0.3650   20.7640  -30.9740 C   0  0  0  0  0  0  0  0  0  0  0  0
   -1.1990   21.2470  -29.8640 N   0  0  0  0  0  0  0  0  0  0  0  0
   -0.7960   21.0090  -28.4700 C   0  0  0  0  0  0  0  0  0  0  0  0
   -1.8000   20.0980  -27.7720 C   0  0  0  0  0  0  0  0  0  0  0  0
   -2.4230   21.9550  -30.1430 C   0  0  0  0  0  0  0  0  0  0  0  0
   -3.6230   21.2380  -30.3860 C   0  0  0  0  0  0  0  0  0  0  0  0
   -4.8260   21.9190  -30.6470 C   0  0  0  0  0  0  0  0  0  0  0  0
   -4.7980   23.3110  -30.6490 C   0  0  0  0  0  0  0  0  0  0  0  0
   -5.7900   24.2540  -30.8270 C   0  0  0  0  0  0  0  0  0  0  0  0
   -7.2620   24.0340  -31.0470 C   0  0  0  0  0  0  0  0  0  0  0  0
   -7.5460   23.1680  -32.2030 N   0  0  0  0  0  0  0  0  0  0  0  0
   -8.5940   22.1600  -31.9550 C   0  0  0  0  0  0  0  0  0  0  0  0
   -8.1030   20.7570  -32.1880 C   0  0  0  0  0  0  0  0  0  0  0  0
   -8.6730   19.5940  -31.6850 C   0  0  0  0  0  0  0  0  0  0  0  0
   -7.9920   18.4340  -32.0710 C   0  0  0  0  0  0  0  0  0  0  0  0
   -6.8770   18.6790  -32.8620 C   0  0  0  0  0  0  0  0  0  0  0  0
   -6.7380   20.3390  -33.0780 S   0  0  0  0  0  0  0  0  0  0  0  0
   -5.1490   25.4830  -30.7080 C   0  0  0  0  0  0  0  0  0  0  0  0
   -3.8640   25.3020  -30.4640 O   0  0  0  0  0  0  0  0  0  0  0  0
   -3.6420   24.0100  -30.4230 C   0  0  0  0  0  0  0  0  0  0  0  0
   -2.4340   23.3670  -30.1680 C   0  0  0  0  0  0  0  0  0  0  0  0
   -1.8410   21.8186  -32.1440 H   0  0  0  0  0  0  0  0  0  0  0  0
   -0.2061   21.7543  -32.8855 H   0  0  0  0  0  0  0  0  0  0  0  0
   -1.2504   20.2928  -32.8855 H   0  0  0  0  0  0  0  0  0  0  0  0
   -0.3099   19.6661  -30.9334 H   0  0  0  0  0  0  0  0  0  0  0  0
    0.6403   21.1999  -30.8773 H   0  0  0  0  0  0  0  0  0  0  0  0
    0.1955   20.5329  -28.4561 H   0  0  0  0  0  0  0  0  0  0  0  0
   -0.7615   21.9724  -27.9402 H   0  0  0  0  0  0  0  0  0  0  0  0
   -1.6898   20.1979  -26.6821 H   0  0  0  0  0  0  0  0  0  0  0  0
   -2.8207   20.3846  -28.0652 H   0  0  0  0  0  0  0  0  0  0  0  0
   -1.6137   19.0543  -28.0652 H   0  0  0  0  0  0  0  0  0  0  0  0
   -3.6126   20.1382  -30.3701 H   0  0  0  0  0  0  0  0  0  0  0  0
   -5.7585   21.3695  -30.8431 H   0  0  0  0  0  0  0  0  0  0  0  0
   -7.6854   23.5663  -30.1459 H   0  0  0  0  0  0  0  0  0  0  0  0
   -7.7153   25.0153  -31.2508 H   0  0  0  0  0  0  0  0  0  0  0  0
   -6.6650   22.7300  -32.5580 H   0  0  0  0  0  0  0  0  0  0  0  0
   -8.9301   22.2485  -30.9113 H   0  0  0  0  0  0  0  0  0  0  0  0
   -9.4172   22.3499  -32.6595 H   0  0  0  0  0  0  0  0  0  0  0  0
   -9.5694   19.5859  -31.0475 H   0  0  0  0  0  0  0  0  0  0  0  0
   -8.3099   17.4232  -31.7757 H   0  0  0  0  0  0  0  0  0  0  0  0
   -6.2008   17.9166  -33.2761 H   0  0  0  0  0  0  0  0  0  0  0  0
   -5.6408   26.4623  -30.8033 H   0  0  0  0  0  0  0  0  0  0  0  0
   -1.5136   23.9427  -29.9909 H   0  0  0  0  0  0  0  0  0  0  0  0
  1  2  1  0
  2  3  1  0
  3  4  1  0
  4  5  1  0
  3  6  1  0
  6  7  2  0
  7  8  1  0
  8  9  2  0
  9 10  1  0
 10 11  1  0
 11 12  1  0
 12 13  1  0
 13 14  1  0
 14 15  2  0
 15 16  1  0
 16 17  2  0
 17 18  1  0
 10 19  2  0
 19 20  1  0
 20 21  1  0
 21 22  2  0
 22  6  1  0
 21  9  1  0
 18 14  1  0
  1 23  1  0
  1 24  1  0
  1 25  1  0
  2 26  1  0
  2 27  1  0
  4 28  1  0
  4 29  1  0
  5 30  1  0
  5 31  1  0
  5 32  1  0
  7 33  1  0
  8 34  1  0
 11 35  1  0
 11 36  1  0
 12 37  1  0
 13 38  1  0
 13 39  1  0
 15 40  1  0
 16 41  1  0
 17 42  1  0
 19 43  1  0
 22 44  1  0
M  END
>  <UniqueID>  (4) 
4

>  <SMILES>  (4) 
CCN(CC)c1ccc2c(CNCc3cccs3)coc2c1

>  <Energy>  (4) 
100.13930423439838

>  <Genealogy>  (4) 
CCN(CC)c1ccc2c(CNCc3cccs3)coc2c1 (3D coordinates assigned)
CCN(CC)c1ccc2c(CNCc3cccs3)coc2c1 (optimized conformer: 100.13930423439838 kcal/mol)

>  <smiles>  (4) 
CCN(CC)c1ccc2c(CNCc3cccs3)coc2c1

>  <score_type>  (4) 
oracle

>  <origin>  (4) 
adg

>  <m_score__min__energy>  (4) 
-7.8099999999999996

>  <m_primary>  (4) 
energy

$$$$
4:0
     RDKit          3D

 67 70  0  0  0  0  0  0  0  0999 V2000
   -7.2240   24.5550  -30.4620 C   0  0  0  0  0  0  0  0  0  0  0  0
   -6.6020   23.3060  -30.9550 N   0  0  0  0  0  0  0  0  0  0  0  0
   -7.3920   22.3030  -31.4850 C   0  0  0  0  0  0  0  0  0  0  0  0
   -8.8020   22.2930  -31.3210 C   0  0  0  0  0  0  0  0  0  0  0  0
   -9.5900   21.3030  -31.9090 C   0  0  0  0  0  0  0  0  0  0  0  0
   -8.9990   20.2930  -32.6600 C   0  0  0  0  0  0  0  0  0  0  0  0
   -7.6150   20.2540  -32.8090 C   0  0  0  0  0  0  0  0  0  0  0  0
   -6.7970   21.2400  -32.2170 C   0  0  0  0  0  0  0  0  0  0  0  0
   -5.3990   21.1940  -32.3520 C   0  0  0  0  0  0  0  0  0  0  0  0
   -4.7900   20.2340  -33.2320 N   0  0  0  0  0  0  0  0  0  0  0  0
   -4.3820   18.9060  -32.7660 C   0  0  0  0  0  0  0  0  0  0  0  0
   -5.5730   17.9130  -32.7690 C   0  0  0  0  0  0  0  0  0  0  0  0
   -6.1090   17.6510  -34.1270 N   0  0  0  0  0  0  0  0  0  0  0  0
   -6.7550   16.3270  -34.2170 C   0  0  0  0  0  0  0  0  0  0  0  0
   -5.0180   17.7260  -35.1160 C   0  0  0  0  0  0  0  0  0  0  0  0
   -4.6070   22.0850  -31.6090 C   0  0  0  0  0  0  0  0  0  0  0  0
   -3.2070   21.9260  -31.5440 C   0  0  0  0  0  0  0  0  0  0  0  0
   -2.4230   22.8030  -30.8000 C   0  0  0  0  0  0  0  0  0  0  0  0
   -3.0160   23.8560  -30.0940 C   0  0  0  0  0  0  0  0  0  0  0  0
   -2.2740   24.7800  -29.3410 O   0  0  0  0  0  0  0  0  0  0  0  0
   -1.3540   24.4620  -28.2960 C   0  0  0  0  0  0  0  0  0  0  0  0
   -1.9410   24.8800  -26.9280 C   0  0  0  0  0  0  0  0  0  0  0  0
   -1.1010   25.7920  -26.0870 N   0  0  0  0  0  0  0  0  0  0  0  0
   -0.5270   26.8330  -26.9880 C   0  0  0  0  0  0  0  0  0  0  0  0
   -1.8890   26.4620  -25.0230 C   0  0  0  0  0  0  0  0  0  0  0  0
   -0.9520   26.7270  -23.8440 C   0  0  0  0  0  0  0  0  0  0  0  0
    0.3340   25.9790  -24.1540 C   0  0  0  0  0  0  0  0  0  0  0  0
    0.0060   25.1190  -25.3650 C   0  0  0  0  0  0  0  0  0  0  0  0
   -4.4050   24.0100  -30.1350 C   0  0  0  0  0  0  0  0  0  0  0  0
   -5.2280   23.1450  -30.8990 C   0  0  0  0  0  0  0  0  0  0  0  0
   -7.2241   24.5552  -29.3620 H   0  0  0  0  0  0  0  0  0  0  0  0
   -6.6512   25.4195  -30.8288 H   0  0  0  0  0  0  0  0  0  0  0  0
   -8.2591   24.6187  -30.8288 H   0  0  0  0  0  0  0  0  0  0  0  0
   -9.2817   23.0795  -30.7199 H   0  0  0  0  0  0  0  0  0  0  0  0
  -10.6820   21.3216  -31.7781 H   0  0  0  0  0  0  0  0  0  0  0  0
   -9.6251   19.5244  -33.1367 H   0  0  0  0  0  0  0  0  0  0  0  0
   -7.1539   19.4452  -33.3949 H   0  0  0  0  0  0  0  0  0  0  0  0
   -4.5800   20.5130  -34.2170 H   0  0  0  0  0  0  0  0  0  0  0  0
   -3.5936   18.5208  -33.4294 H   0  0  0  0  0  0  0  0  0  0  0  0
   -4.0133   19.0002  -31.7339 H   0  0  0  0  0  0  0  0  0  0  0  0
   -5.2351   16.9599  -32.3361 H   0  0  0  0  0  0  0  0  0  0  0  0
   -6.3819   18.3694  -32.1796 H   0  0  0  0  0  0  0  0  0  0  0  0
   -6.8120   18.3890  -34.3700 H   0  0  0  0  0  0  0  0  0  0  0  0
   -6.9432   15.9412  -33.2042 H   0  0  0  0  0  0  0  0  0  0  0  0
   -7.7088   16.4203  -34.7569 H   0  0  0  0  0  0  0  0  0  0  0  0
   -6.0944   15.6327  -34.7569 H   0  0  0  0  0  0  0  0  0  0  0  0
   -4.0527   17.7924  -34.5928 H   0  0  0  0  0  0  0  0  0  0  0  0
   -5.0321   16.8248  -35.7465 H   0  0  0  0  0  0  0  0  0  0  0  0
   -5.1553   18.6168  -35.7465 H   0  0  0  0  0  0  0  0  0  0  0  0
   -2.7287   21.0983  -32.0882 H   0  0  0  0  0  0  0  0  0  0  0  0
   -1.3318   22.6678  -30.7667 H   0  0  0  0  0  0  0  0  0  0  0  0
   -1.1644   23.3785  -28.2951 H   0  0  0  0  0  0  0  0  0  0  0  0
   -0.4130   25.0057  -28.4660 H   0  0  0  0  0  0  0  0  0  0  0  0
   -2.8982   25.3880  -27.1170 H   0  0  0  0  0  0  0  0  0  0  0  0
   -2.0227   23.9472  -26.3507 H   0  0  0  0  0  0  0  0  0  0  0  0
   -0.0834   27.6375  -26.3830 H   0  0  0  0  0  0  0  0  0  0  0  0
    0.2494   26.3809  -27.6227 H   0  0  0  0  0  0  0  0  0  0  0  0
   -1.3236   27.2483  -27.6227 H   0  0  0  0  0  0  0  0  0  0  0  0
   -2.2943   27.4126  -25.3999 H   0  0  0  0  0  0  0  0  0  0  0  0
   -2.7303   25.8262  -24.7098 H   0  0  0  0  0  0  0  0  0  0  0  0
   -0.7536   27.8047  -23.7483 H   0  0  0  0  0  0  0  0  0  0  0  0
   -1.3944   26.3910  -22.8946 H   0  0  0  0  0  0  0  0  0  0  0  0
    1.1448   26.6844  -24.3887 H   0  0  0  0  0  0  0  0  0  0  0  0
    0.6783   25.3769  -23.3002 H   0  0  0  0  0  0  0  0  0  0  0  0
    0.8870   25.0345  -26.0183 H   0  0  0  0  0  0  0  0  0  0  0  0
   -0.2851   24.1035  -25.0584 H   0  0  0  0  0  0  0  0  0  0  0  0
   -4.8712   24.8234  -29.5596 H   0  0  0  0  0  0  0  0  0  0  0  0
  1  2  1  0
  2  3  2  0
  3  4  1  0
  4  5  2  0
  5  6  1  0
  6  7  2  0
  7  8  1  0
  8  9  2  0
  9 10  1  0
 10 11  1  0
 11 12  1  0
 12 13  1  0
 13 14  1  0
 13 15  1  0
  9 16  1  0
 16 17  2  0
 17 18  1  0
 18 19  2  0
 19 20  1  0
 20 21  1  0
 21 22  1  0
 22 23  1  0
 23 24  1  0
 23 25  1  0
 25 26  1  0
 26 27  1  0
 27 28  1  0
 19 29  1  0
 29 30  2  0
 30  2  1  0
  8  3  1  0
 30 16  1  0
 28 23  1  0
  1 31  1  0
  1 32  1  0
  1 33  1  0
  4 34  1  0
  5 35  1  0
  6 36  1  0
  7 37  1  0
 10 38  1  0
 11 39  1  0
 11 40  1  0
 12 41  1  0
 12 42  1  0
 13 43  1  0
 14 44  1  0
 14 45  1  0
 14 46  1  0
 15 47  1  0
 15 48  1  0
 15 49  1  0
 17 50  1  0
 18 51  1  0
 21 52  1  0
 21 53  1  0
 22 54  1  0
 22 55  1  0
 24 56  1  0
 24 57  1  0
 24 58  1  0
 25 59  1  0
 25 60  1  0
 26 61  1  0
 26 62  1  0
 27 63  1  0
 27 64  1  0
 28 65  1  0
 28 66  1  0
 29 67  1  0
M  CHG  3   2   1  13   1  23   1
M  END
>  <UniqueID>  (5) 
5

>  <SMILES>  (5) 
C[n+]1c2ccccc2c(NCC[NH+](C)C)c2ccc(OCC[N+]3(C)CCCC3)cc21

>  <Energy>  (5) 
109.57942002578812

>  <Genealogy>  (5) 
C[n+]1c2ccccc2c(NCC[NH+](C)C)c2ccc(OCC[N+]3(C)CCCC3)cc21 (protonated)
C[n+]1c2ccccc2c(NCC[NH+](C)C)c2ccc(OCC[N+]3(C)CCCC3)cc21 (3D coordinates assigned)
C[n+]1c2ccccc2c(NCC[NH+](C)C)c2ccc(OCC[N+]3(C)CCCC3)cc21 (nonaromatic ring conformer: 109.57942002578812 kcal/mol)

>  <smiles>  (5) 
CN(C)CCNc1c2ccccc2[n+](C)c2cc(OCC[N+]3(C)CCCC3)ccc12

>  <score_type>  (5) 
oracle

>  <origin>  (5) 
adg

>  <m_score__min__energy>  (5) 
-7.2400000000000002

>  <m_primary>  (5) 
energy

$$$$
5:0
     RDKit          3D

 56 58  0  0  0  0  0  0  0  0999 V2000
   -0.2170   16.7340  -33.7630 C   0  0  0  0  0  0  0  0  0  0  0  0
    0.9650   17.6900  -33.5420 C   0  0  0  0  0  0  0  0  0  0  0  0
    0.8130   19.0220  -34.1910 N   0  0  0  0  0  0  0  0  0  0  0  0
    1.9060   19.3440  -35.1480 C   0  0  0  0  0  0  0  0  0  0  0  0
    2.1210   20.8500  -35.3350 C   0  0  0  0  0  0  0  0  0  0  0  0
   -0.5200   19.1490  -34.8390 C   0  0  0  0  0  0  0  0  0  0  0  0
   -1.2770   20.4240  -34.3960 C   0  0  0  0  0  0  0  0  0  0  0  0
   -1.8460   20.2730  -33.0460 N   0  0  0  0  0  0  0  0  0  0  0  0
   -0.9940   20.4460  -31.8920 C   0  0  0  0  0  0  0  0  0  0  0  0
    0.2550   20.5580  -32.0330 O   0  0  0  0  0  0  0  0  0  0  0  0
   -1.5810   20.5950  -30.5270 C   0  0  0  0  0  0  0  0  0  0  0  0
   -2.3780   21.8680  -30.5090 C   0  0  0  0  0  0  0  0  0  0  0  0
   -1.9130   22.9700  -29.7740 C   0  0  0  0  0  0  0  0  0  0  0  0
   -2.6090   24.1920  -29.7910 C   0  0  0  0  0  0  0  0  0  0  0  0
   -2.1730   25.3080  -29.0610 O   0  0  0  0  0  0  0  0  0  0  0  0
   -1.7640   25.2740  -27.6970 C   0  0  0  0  0  0  0  0  0  0  0  0
   -3.7740   24.3150  -30.5590 C   0  0  0  0  0  0  0  0  0  0  0  0
   -4.4470   25.5470  -30.5550 O   0  0  0  0  0  0  0  0  0  0  0  0
   -5.7730   25.7430  -30.0760 C   0  0  0  0  0  0  0  0  0  0  0  0
   -4.2340   23.2160  -31.3080 C   0  0  0  0  0  0  0  0  0  0  0  0
   -3.5470   21.9890  -31.2910 C   0  0  0  0  0  0  0  0  0  0  0  0
   -4.0870   20.8350  -32.0650 C   0  0  0  0  0  0  0  0  0  0  0  0
   -5.4620   20.5440  -31.9680 C   0  0  0  0  0  0  0  0  0  0  0  0
   -6.0190   19.4800  -32.6740 C   0  0  0  0  0  0  0  0  0  0  0  0
   -5.2150   18.6850  -33.4860 C   0  0  0  0  0  0  0  0  0  0  0  0
   -3.8500   18.9500  -33.5950 C   0  0  0  0  0  0  0  0  0  0  0  0
   -3.2640   20.0190  -32.8920 C   0  0  0  0  0  0  0  0  0  0  0  0
   -0.6151   16.4120  -32.7894 H   0  0  0  0  0  0  0  0  0  0  0  0
   -1.0059   17.2511  -34.3289 H   0  0  0  0  0  0  0  0  0  0  0  0
    0.1237   15.8544  -34.3289 H   0  0  0  0  0  0  0  0  0  0  0  0
    1.0821   17.8468  -32.4595 H   0  0  0  0  0  0  0  0  0  0  0  0
    1.8420   17.2148  -34.0057 H   0  0  0  0  0  0  0  0  0  0  0  0
    0.8590   19.7230  -33.4140 H   0  0  0  0  0  0  0  0  0  0  0  0
    2.8406   18.9014  -34.7730 H   0  0  0  0  0  0  0  0  0  0  0  0
    1.6164   18.9314  -36.1257 H   0  0  0  0  0  0  0  0  0  0  0  0
    2.1903   21.3355  -34.3504 H   0  0  0  0  0  0  0  0  0  0  0  0
    3.0526   21.0207  -35.8944 H   0  0  0  0  0  0  0  0  0  0  0  0
    1.2744   21.2746  -35.8944 H   0  0  0  0  0  0  0  0  0  0  0  0
   -0.3800   19.1832  -35.9295 H   0  0  0  0  0  0  0  0  0  0  0  0
   -1.1228   18.2806  -34.5349 H   0  0  0  0  0  0  0  0  0  0  0  0
   -0.5776   21.2730  -34.3960 H   0  0  0  0  0  0  0  0  0  0  0  0
   -2.1033   20.5969  -35.1012 H   0  0  0  0  0  0  0  0  0  0  0  0
   -2.2362   19.7396  -30.3056 H   0  0  0  0  0  0  0  0  0  0  0  0
   -0.7862   20.6274  -29.7673 H   0  0  0  0  0  0  0  0  0  0  0  0
   -0.9934   22.8766  -29.1777 H   0  0  0  0  0  0  0  0  0  0  0  0
   -2.6484   25.3475  -27.0471 H   0  0  0  0  0  0  0  0  0  0  0  0
   -1.2383   24.3291  -27.4953 H   0  0  0  0  0  0  0  0  0  0  0  0
   -1.0895   26.1192  -27.4953 H   0  0  0  0  0  0  0  0  0  0  0  0
   -5.7693   25.7425  -28.9760 H   0  0  0  0  0  0  0  0  0  0  0  0
   -6.1559   26.7075  -30.4409 H   0  0  0  0  0  0  0  0  0  0  0  0
   -6.4185   24.9305  -30.4409 H   0  0  0  0  0  0  0  0  0  0  0  0
   -5.1449   23.3183  -31.9161 H   0  0  0  0  0  0  0  0  0  0  0  0
   -6.1043   21.1651  -31.3264 H   0  0  0  0  0  0  0  0  0  0  0  0
   -7.0951   19.2679  -32.5897 H   0  0  0  0  0  0  0  0  0  0  0  0
   -5.6572   17.8458  -34.0430 H   0  0  0  0  0  0  0  0  0  0  0  0
   -3.2234   18.3152  -34.2388 H   0  0  0  0  0  0  0  0  0  0  0  0
  1  2  1  0
  2  3  1  0
  3  4  1  0
  4  5  1  0
  3  6  1  0
  6  7  1  0
  7  8  1  0
  8  9  1  0
  9 10  2  0
  9 11  1  0
 11 12  1  0
 12 13  2  0
 13 14  1  0
 14 15  1  0
 15 16  1  0
 14 17  2  0
 17 18  1  0
 18 19  1  0
 17 20  1  0
 20 21  2  0
 21 22  1  0
 22 23  2  0
 23 24  1  0
 24 25  2  0
 25 26  1  0
 26 27  2  0
 27  8  1  0
 21 12  1  0
 27 22  1  0
  1 28  1  0
  1 29  1  0
  1 30  1  0
  2 31  1  0
  2 32  1  0
  3 33  1  0
  4 34  1  0
  4 35  1  0
  5 36  1  0
  5 37  1  0
  5 38  1  0
  6 39  1  0
  6 40  1  0
  7 41  1  0
  7 42  1  0
 11 43  1  0
 11 44  1  0
 13 45  1  0
 16 46  1  0
 16 47  1  0
 16 48  1  0
 19 49  1  0
 19 50  1  0
 19 51  1  0
 20 52  1  0
 23 53  1  0
 24 54  1  0
 25 55  1  0
 26 56  1  0
M  CHG  1   3   1
M  END
>  <UniqueID>  (6) 
6

>  <SMILES>  (6) 
CC[NH+](CC)CCN1C(=O)Cc2cc(OC)c(OC)cc2-c2ccccc21

>  <Energy>  (6) 
74.1996567791369

>  <Genealogy>  (6) 
CC[NH+](CC)CCN1C(=O)Cc2cc(OC)c(OC)cc2-c2ccccc21 (protonated)
CC[NH+](CC)CCN1C(=O)Cc2cc(OC)c(OC)cc2-c2ccccc21 (3D coordinates assigned)
CC[NH+](CC)CCN1C(=O)Cc2cc(OC)c(OC)cc2-c2ccccc21 (nonaromatic ring conformer: 74.1996567791369 kcal/mol)

>  <smiles>  (6) 
CCN(CC)CCN1C(=O)Cc2cc(OC)c(OC)cc2-c2ccccc21

>  <score_type>  (6) 
oracle

>  <origin>  (6) 
adg

>  <m_score__min__energy>  (6) 
-5.3300000000000001

>  <m_primary>  (6) 
energy

$$$$
6:0
     RDKit          3D

 34 36  0  0  0  0  0  0  0  0999 V2000
   -3.0060   24.4760  -29.4210 C   0  0  0  0  0  0  0  0  0  0  0  0
   -3.6010   25.2600  -30.4490 O   0  0  0  0  0  0  0  0  0  0  0  0
   -4.9850   25.3450  -30.6300 C   0  0  0  0  0  0  0  0  0  0  0  0
   -5.5810   26.4410  -30.4380 O   0  0  0  0  0  0  0  0  0  0  0  0
   -5.7490   24.1490  -31.0470 C   0  0  0  0  0  0  0  0  0  0  0  0
   -7.1690   24.1330  -30.9670 C   0  0  0  0  0  0  0  0  0  0  0  0
   -7.9020   22.9990  -31.3620 C   0  0  0  0  0  0  0  0  0  0  0  0
   -7.1890   21.8950  -31.8320 C   0  0  0  0  0  0  0  0  0  0  0  0
   -5.8270   21.9050  -31.9130 C   0  0  0  0  0  0  0  0  0  0  0  0
   -5.0680   23.0080  -31.5340 C   0  0  0  0  0  0  0  0  0  0  0  0
   -5.3950   20.7330  -32.4050 N   0  0  0  0  0  0  0  0  0  0  0  0
   -6.5290   20.0210  -32.6300 C   0  0  0  0  0  0  0  0  0  0  0  0
   -6.5110   18.6610  -33.2120 C   0  0  0  0  0  0  0  0  0  0  0  0
   -5.7310   18.3620  -34.3410 C   0  0  0  0  0  0  0  0  0  0  0  0
   -5.7160   17.0640  -34.8540 C   0  0  0  0  0  0  0  0  0  0  0  0
   -6.4690   16.0700  -34.2290 C   0  0  0  0  0  0  0  0  0  0  0  0
   -7.2050   16.3680  -33.1250 N   0  0  0  0  0  0  0  0  0  0  0  0
   -7.2370   17.6250  -32.6050 C   0  0  0  0  0  0  0  0  0  0  0  0
   -7.6510   20.7050  -32.2660 N   0  0  0  0  0  0  0  0  0  0  0  0
   -9.0450   20.2670  -32.3170 C   0  0  0  0  0  0  0  0  0  0  0  0
   -3.3056   24.8707  -28.4389 H   0  0  0  0  0  0  0  0  0  0  0  0
   -3.3417   23.4327  -29.5148 H   0  0  0  0  0  0  0  0  0  0  0  0
   -1.9108   24.5186  -29.5148 H   0  0  0  0  0  0  0  0  0  0  0  0
   -7.7013   25.0193  -30.5912 H   0  0  0  0  0  0  0  0  0  0  0  0
   -9.0003   22.9830  -31.3024 H   0  0  0  0  0  0  0  0  0  0  0  0
   -3.9708   22.9935  -31.6107 H   0  0  0  0  0  0  0  0  0  0  0  0
   -4.4080   20.4500  -32.5990 H   0  0  0  0  0  0  0  0  0  0  0  0
   -5.1323   19.1503  -34.8207 H   0  0  0  0  0  0  0  0  0  0  0  0
   -5.1150   16.8268  -35.7443 H   0  0  0  0  0  0  0  0  0  0  0  0
   -6.4675   15.0453  -34.6290 H   0  0  0  0  0  0  0  0  0  0  0  0
   -7.8348   17.8299  -31.7046 H   0  0  0  0  0  0  0  0  0  0  0  0
   -9.4291   20.1463  -31.2933 H   0  0  0  0  0  0  0  0  0  0  0  0
   -9.6466   21.0194  -32.8480 H   0  0  0  0  0  0  0  0  0  0  0  0
   -9.1081   19.3057  -32.8480 H   0  0  0  0  0  0  0  0  0  0  0  0
  1  2  1  0
  2  3  1  0
  3  4  2  0
  3  5  1  0
  5  6  2  0
  6  7  1  0
  7  8  2  0
  8  9  1  0
  9 10  2  0
  9 11  1  0
 11 12  2  0
 12 13  1  0
 13 14  2  0
 14 15  1  0
 15 16  2  0
 16 17  1  0
 17 18  2  0
 12 19  1  0
 19 20  1  0
 10  5  1  0
 18 13  1  0
 19  8  1  0
  1 21  1  0
  1 22  1  0
  1 23  1  0
  6 24  1  0
  7 25  1  0
 10 26  1  0
 11 27  1  0
 14 28  1  0
 15 29  1  0
 16 30  1  0
 18 31  1  0
 20 32  1  0
 20 33  1  0
 20 34  1  0
M  CHG  1  11   1
M  END
>  <UniqueID>  (7) 
7

>  <SMILES>  (7) 
COC(=O)c1ccc2c(c1)[nH+]c(-c1cccnc1)n2C

>  <Energy>  (7) 
79.07830728639406

>  <Genealogy>  (7) 
COC(=O)c1ccc2c(c1)[nH+]c(-c1cccnc1)n2C (protonated)
COC(=O)c1ccc2c(c1)[nH+]c(-c1cccnc1)n2C (3D coordinates assigned)
COC(=O)c1ccc2c(c1)[nH+]c(-c1cccnc1)n2C (optimized conformer: 79.07830728639406 kcal/mol)

>  <smiles>  (7) 
COC(=O)c1ccc2c(c1)nc(-c1cccnc1)n2C

>  <score_type>  (7) 
oracle

>  <origin>  (7) 
adg

>  <m_score__min__energy>  (7) 
-7.3799999999999999

>  <m_primary>  (7) 
energy

$$$$
7:0
     RDKit          3D

 67 71  0  0  0  0  0  0  0  0999 V2000
   -0.4430   20.1930  -30.7720 C   0  0  0  0  0  0  0  0  0  0  0  0
   -0.7610   21.6860  -30.8570 C   0  0  0  0  0  0  0  0  0  0  0  0
   -2.1590   21.9480  -30.4610 N   0  0  0  0  0  0  0  0  0  0  0  0
   -2.8230   20.7610  -29.8780 C   0  0  0  0  0  0  0  0  0  0  0  0
   -2.7650   20.7110  -28.3430 C   0  0  0  0  0  0  0  0  0  0  0  0
   -2.3210   23.1650  -29.6280 C   0  0  0  0  0  0  0  0  0  0  0  0
   -3.6250   23.8670  -30.0010 C   0  0  0  0  0  0  0  0  0  0  0  0
   -4.6960   23.2550  -29.3080 O   0  0  0  0  0  0  0  0  0  0  0  0
   -5.8050   23.0500  -30.1640 C   0  0  0  0  0  0  0  0  0  0  0  0
   -5.7520   23.9620  -31.3930 C   0  0  0  0  0  0  0  0  0  0  0  0
   -6.0130   23.1920  -32.6100 N   0  0  0  0  0  0  0  0  0  0  0  0
   -5.8860   21.7680  -32.6430 C   0  0  0  0  0  0  0  0  0  0  0  0
   -4.6640   21.1830  -32.9620 C   0  0  0  0  0  0  0  0  0  0  0  0
   -4.5340   19.8150  -33.0500 C   0  0  0  0  0  0  0  0  0  0  0  0
   -5.6120   18.9730  -32.9160 N   0  0  0  0  0  0  0  0  0  0  0  0
   -5.5160   17.5710  -33.3590 C   0  0  0  0  0  0  0  0  0  0  0  0
   -6.8050   19.5000  -32.4490 C   0  0  0  0  0  0  0  0  0  0  0  0
   -7.8780   18.6700  -32.0460 C   0  0  0  0  0  0  0  0  0  0  0  0
   -9.0960   19.2170  -31.6410 C   0  0  0  0  0  0  0  0  0  0  0  0
   -9.2750   20.5960  -31.6190 C   0  0  0  0  0  0  0  0  0  0  0  0
   -8.2230   21.4450  -31.9670 C   0  0  0  0  0  0  0  0  0  0  0  0
   -6.9750   20.9190  -32.3550 C   0  0  0  0  0  0  0  0  0  0  0  0
   -3.1470   19.5550  -33.4570 C   0  0  0  0  0  0  0  0  0  0  0  0
   -2.4460   18.3450  -33.5270 C   0  0  0  0  0  0  0  0  0  0  0  0
   -1.1030   18.3730  -33.9350 C   0  0  0  0  0  0  0  0  0  0  0  0
   -0.3760   17.1780  -34.0620 C   0  0  0  0  0  0  0  0  0  0  0  0
    0.9550   17.2070  -34.4850 C   0  0  0  0  0  0  0  0  0  0  0  0
    1.5760   18.4260  -34.7740 C   0  0  0  0  0  0  0  0  0  0  0  0
    0.8720   19.6250  -34.6370 C   0  0  0  0  0  0  0  0  0  0  0  0
   -0.4720   19.6160  -34.2200 C   0  0  0  0  0  0  0  0  0  0  0  0
   -1.2080   20.8060  -34.0580 C   0  0  0  0  0  0  0  0  0  0  0  0
   -0.6750   21.9320  -34.2690 O   0  0  0  0  0  0  0  0  0  0  0  0
   -2.5100   20.7320  -33.6670 N   0  0  0  0  0  0  0  0  0  0  0  0
   -3.3930   21.8610  -33.3770 C   0  0  0  0  0  0  0  0  0  0  0  0
   -0.3787   19.8913  -29.7161 H   0  0  0  0  0  0  0  0  0  0  0  0
   -1.2392   19.6196  -31.2694 H   0  0  0  0  0  0  0  0  0  0  0  0
    0.5177   19.9938  -31.2694 H   0  0  0  0  0  0  0  0  0  0  0  0
   -0.0866   22.2371  -30.1851 H   0  0  0  0  0  0  0  0  0  0  0  0
   -0.6211   22.0175  -31.8965 H   0  0  0  0  0  0  0  0  0  0  0  0
   -3.8792   20.7681  -30.1854 H   0  0  0  0  0  0  0  0  0  0  0  0
   -2.2834   19.8770  -30.2486 H   0  0  0  0  0  0  0  0  0  0  0  0
   -3.5357   21.3754  -27.9251 H   0  0  0  0  0  0  0  0  0  0  0  0
   -2.9453   19.6806  -28.0026 H   0  0  0  0  0  0  0  0  0  0  0  0
   -1.7725   21.0412  -28.0026 H   0  0  0  0  0  0  0  0  0  0  0  0
   -2.3482   22.8813  -28.5656 H   0  0  0  0  0  0  0  0  0  0  0  0
   -1.4748   23.8454  -29.8042 H   0  0  0  0  0  0  0  0  0  0  0  0
   -3.5645   24.9291  -29.7212 H   0  0  0  0  0  0  0  0  0  0  0  0
   -3.7917   23.7866  -31.0853 H   0  0  0  0  0  0  0  0  0  0  0  0
   -5.8076   22.0020  -30.4983 H   0  0  0  0  0  0  0  0  0  0  0  0
   -6.7196   23.2881  -29.6011 H   0  0  0  0  0  0  0  0  0  0  0  0
   -6.5125   24.7504  -31.2926 H   0  0  0  0  0  0  0  0  0  0  0  0
   -4.7500   24.4107  -31.4621 H   0  0  0  0  0  0  0  0  0  0  0  0
   -6.3880   23.6880  -33.4580 H   0  0  0  0  0  0  0  0  0  0  0  0
   -5.4708   16.9110  -32.4801 H   0  0  0  0  0  0  0  0  0  0  0  0
   -6.3988   17.3163  -33.9638 H   0  0  0  0  0  0  0  0  0  0  0  0
   -4.6067   17.4390  -33.9638 H   0  0  0  0  0  0  0  0  0  0  0  0
   -7.7499   17.5775  -32.0521 H   0  0  0  0  0  0  0  0  0  0  0  0
   -9.9194   18.5538  -31.3374 H   0  0  0  0  0  0  0  0  0  0  0  0
  -10.2476   21.0186  -31.3268 H   0  0  0  0  0  0  0  0  0  0  0  0
   -8.3698   22.5348  -31.9380 H   0  0  0  0  0  0  0  0  0  0  0  0
   -2.9361   17.3948  -33.2684 H   0  0  0  0  0  0  0  0  0  0  0  0
   -0.8561   16.2165  -33.8277 H   0  0  0  0  0  0  0  0  0  0  0  0
    1.5167   16.2672  -34.5912 H   0  0  0  0  0  0  0  0  0  0  0  0
    2.6231   18.4410  -35.1106 H   0  0  0  0  0  0  0  0  0  0  0  0
    1.3707   20.5807  -34.8562 H   0  0  0  0  0  0  0  0  0  0  0  0
   -2.9899   22.4817  -32.5632 H   0  0  0  0  0  0  0  0  0  0  0  0
   -3.5203   22.5470  -34.2275 H   0  0  0  0  0  0  0  0  0  0  0  0
  1  2  1  0
  2  3  1  0
  3  4  1  0
  4  5  1  0
  3  6  1  0
  6  7  1  0
  7  8  1  0
  8  9  1  0
  9 10  1  0
 10 11  1  0
 11 12  1  0
 12 13  2  0
 13 14  1  0
 14 15  2  0
 15 16  1  0
 15 17  1  0
 17 18  2  0
 18 19  1  0
 19 20  2  0
 20 21  1  0
 21 22  2  0
 14 23  1  0
 23 24  2  0
 24 25  1  0
 25 26  2  0
 26 27  1  0
 27 28  2  0
 28 29  1  0
 29 30  2  0
 30 31  1  0
 31 32  2  0
 31 33  1  0
 33 34  1  0
 22 12  1  0
 33 23  1  0
 34 13  1  0
 22 17  1  0
 30 25  1  0
  1 35  1  0
  1 36  1  0
  1 37  1  0
  2 38  1  0
  2 39  1  0
  4 40  1  0
  4 41  1  0
  5 42  1  0
  5 43  1  0
  5 44  1  0
  6 45  1  0
  6 46  1  0
  7 47  1  0
  7 48  1  0
  9 49  1  0
  9 50  1  0
 10 51  1  0
 10 52  1  0
 11 53  1  0
 16 54  1  0
 16 55  1  0
 16 56  1  0
 18 57  1  0
 19 58  1  0
 20 59  1  0
 21 60  1  0
 24 61  1  0
 26 62  1  0
 27 63  1  0
 28 64  1  0
 29 65  1  0
 34 66  1  0
 34 67  1  0
M  CHG  1  15   1
M  END
>  <UniqueID>  (8) 
8

>  <SMILES>  (8) 
CCN(CC)CCOCCNc1c2c([n+](C)c3ccccc13)-c1cc3ccccc3c(=O)n1C2

>  <Energy>  (8) 
123.45535394199258

>  <Genealogy>  (8) 
CCN(CC)CCOCCNc1c2c([n+](C)c3ccccc13)-c1cc3ccccc3c(=O)n1C2 (3D coordinates assigned)
CCN(CC)CCOCCNc1c2c([n+](C)c3ccccc13)-c1cc3ccccc3c(=O)n1C2 (nonaromatic ring conformer: 123.45535394199258 kcal/mol)

>  <smiles>  (8) 
CCN(CC)CCOCCNc1c2c([n+](C)c3ccccc13)-c1cc3ccccc3c(=O)n1C2

>  <score_type>  (8) 
oracle

>  <origin>  (8) 
adg

>  <m_score__min__energy>  (8) 
-9.7699999999999996

>  <m_primary>  (8) 
energy

$$$$
8:0
     RDKit          3D

 58 61  0  0  0  0  0  0  0  0999 V2000
   -0.7730   26.4330  -23.4220 C   0  0  0  0  0  0  0  0  0  0  0  0
   -0.3650   26.4790  -24.7860 O   0  0  0  0  0  0  0  0  0  0  0  0
   -0.6210   25.4700  -25.7280 C   0  0  0  0  0  0  0  0  0  0  0  0
   -1.5660   25.6350  -26.7610 C   0  0  0  0  0  0  0  0  0  0  0  0
   -1.7930   24.6060  -27.6840 C   0  0  0  0  0  0  0  0  0  0  0  0
   -2.7270   24.7480  -28.7160 C   0  0  0  0  0  0  0  0  0  0  0  0
   -2.9360   23.6970  -29.6250 C   0  0  0  0  0  0  0  0  0  0  0  0
   -3.8660   23.7850  -30.6650 C   0  0  0  0  0  0  0  0  0  0  0  0
   -4.5490   24.8320  -30.8360 O   0  0  0  0  0  0  0  0  0  0  0  0
   -4.0460   22.7270  -31.4970 N   0  0  0  0  0  0  0  0  0  0  0  0
   -3.3370   21.5720  -31.3510 C   0  0  0  0  0  0  0  0  0  0  0  0
   -3.6460   20.4460  -32.2620 C   0  0  0  0  0  0  0  0  0  0  0  0
   -4.7470   19.6240  -31.9850 C   0  0  0  0  0  0  0  0  0  0  0  0
   -5.0660   18.5560  -32.8300 C   0  0  0  0  0  0  0  0  0  0  0  0
   -6.4810   17.5660  -32.4830 S   0  0  0  0  0  0  0  0  0  0  0  0
   -7.1200   17.0930  -33.7610 O   0  0  0  0  0  0  0  0  0  0  0  0
   -6.0530   16.3650  -31.6840 O   0  0  0  0  0  0  0  0  0  0  0  0
   -7.6330   18.4890  -31.5640 N   0  0  0  0  0  0  0  0  0  0  0  0
   -8.3870   19.4070  -32.4230 C   0  0  0  0  0  0  0  0  0  0  0  0
   -7.9440   20.8450  -32.1680 C   0  0  0  0  0  0  0  0  0  0  0  0
   -7.3690   20.9390  -30.9110 F   0  0  0  0  0  0  0  0  0  0  0  0
   -7.0130   21.2290  -33.1190 F   0  0  0  0  0  0  0  0  0  0  0  0
   -9.0360   21.6940  -32.2270 F   0  0  0  0  0  0  0  0  0  0  0  0
   -4.2720   18.3030  -33.9560 C   0  0  0  0  0  0  0  0  0  0  0  0
   -3.1630   19.1080  -34.2310 C   0  0  0  0  0  0  0  0  0  0  0  0
   -2.8350   20.1840  -33.3830 C   0  0  0  0  0  0  0  0  0  0  0  0
   -1.7170   21.0010  -33.6190 O   0  0  0  0  0  0  0  0  0  0  0  0
   -0.6190   20.6470  -34.4520 C   0  0  0  0  0  0  0  0  0  0  0  0
   -2.3680   21.4720  -30.3760 N   0  0  0  0  0  0  0  0  0  0  0  0
   -1.5440   20.2550  -30.2460 C   0  0  0  0  0  0  0  0  0  0  0  0
   -2.1880   22.5080  -29.4910 C   0  0  0  0  0  0  0  0  0  0  0  0
   -1.2850   22.4020  -28.4740 N   0  0  0  0  0  0  0  0  0  0  0  0
   -1.0710   23.4010  -27.5790 C   0  0  0  0  0  0  0  0  0  0  0  0
   -0.1320   23.2350  -26.5580 C   0  0  0  0  0  0  0  0  0  0  0  0
    0.0980   24.2680  -25.6280 C   0  0  0  0  0  0  0  0  0  0  0  0
    1.0350   24.1370  -24.5890 O   0  0  0  0  0  0  0  0  0  0  0  0
    2.2010   24.9420  -24.4480 C   0  0  0  0  0  0  0  0  0  0  0  0
    0.1088   26.5324  -22.7720 H   0  0  0  0  0  0  0  0  0  0  0  0
   -1.4721   27.2580  -23.2204 H   0  0  0  0  0  0  0  0  0  0  0  0
   -1.2708   25.4730  -23.2204 H   0  0  0  0  0  0  0  0  0  0  0  0
   -2.1282   26.5769  -26.8427 H   0  0  0  0  0  0  0  0  0  0  0  0
   -3.2980   25.6829  -28.8158 H   0  0  0  0  0  0  0  0  0  0  0  0
   -4.7640   22.7980  -32.2540 H   0  0  0  0  0  0  0  0  0  0  0  0
   -5.3649   19.8203  -31.0963 H   0  0  0  0  0  0  0  0  0  0  0  0
   -8.2048   19.1515  -33.4773 H   0  0  0  0  0  0  0  0  0  0  0  0
   -9.4593   19.3144  -32.1960 H   0  0  0  0  0  0  0  0  0  0  0  0
   -4.5223   17.4675  -34.6264 H   0  0  0  0  0  0  0  0  0  0  0  0
   -2.5424   18.9000  -35.1151 H   0  0  0  0  0  0  0  0  0  0  0  0
    0.2418   20.3695  -33.8258 H   0  0  0  0  0  0  0  0  0  0  0  0
   -0.9006   19.7941  -35.0871 H   0  0  0  0  0  0  0  0  0  0  0  0
   -0.3494   21.5037  -35.0871 H   0  0  0  0  0  0  0  0  0  0  0  0
   -1.3905   20.0282  -29.1806 H   0  0  0  0  0  0  0  0  0  0  0  0
   -2.0573   19.4112  -30.7302 H   0  0  0  0  0  0  0  0  0  0  0  0
   -0.5699   20.4183  -30.7302 H   0  0  0  0  0  0  0  0  0  0  0  0
    0.4306   22.2930  -26.4798 H   0  0  0  0  0  0  0  0  0  0  0  0
    2.4167   25.0909  -23.3797 H   0  0  0  0  0  0  0  0  0  0  0  0
    3.0538   24.4394  -24.9277 H   0  0  0  0  0  0  0  0  0  0  0  0
    2.0332   25.9176  -24.9277 H   0  0  0  0  0  0  0  0  0  0  0  0
  1  2  1  0
  2  3  1  0
  3  4  2  0
  4  5  1  0
  5  6  2  0
  6  7  1  0
  7  8  1  0
  8  9  2  0
  8 10  1  0
 10 11  2  0
 11 12  1  0
 12 13  2  0
 13 14  1  0
 14 15  1  0
 15 16  2  0
 15 17  2  0
 15 18  1  0
 18 19  1  0
 19 20  1  0
 20 21  1  0
 20 22  1  0
 20 23  1  0
 14 24  2  0
 24 25  1  0
 25 26  2  0
 26 27  1  0
 27 28  1  0
 11 29  1  0
 29 30  1  0
 29 31  1  0
 31 32  1  0
 32 33  2  0
 33 34  1  0
 34 35  2  0
 35 36  1  0
 36 37  1  0
 35  3  1  0
 33  5  1  0
 31  7  2  0
 26 12  1  0
  1 38  1  0
  1 39  1  0
  1 40  1  0
  4 41  1  0
  6 42  1  0
 10 43  1  0
 13 44  1  0
 19 45  1  0
 19 46  1  0
 24 47  1  0
 25 48  1  0
 28 49  1  0
 28 50  1  0
 28 51  1  0
 30 52  1  0
 30 53  1  0
 30 54  1  0
 34 55  1  0
 37 56  1  0
 37 57  1  0
 37 58  1  0
M  CHG  2  10   1  18  -1
M  END
>  <UniqueID>  (9) 
9

>  <SMILES>  (9) 
COc1cc2cc3c(=O)[nH+]c(-c4cc(S(=O)(=O)[N-]CC(F)(F)F)ccc4OC)n(C)c3nc2cc1OC

>  <Energy>  (9) 
76.65061054080275

>  <Genealogy>  (9) 
COc1cc2cc3c(=O)[nH+]c(-c4cc(S(=O)(=O)[N-]CC(F)(F)F)ccc4OC)n(C)c3nc2cc1OC (protonated)
COc1cc2cc3c(=O)[nH+]c(-c4cc(S(=O)(=O)[N-]CC(F)(F)F)ccc4OC)n(C)c3nc2cc1OC (3D coordinates assigned)
COc1cc2cc3c(=O)[nH+]c(-c4cc(S(=O)(=O)[N-]CC(F)(F)F)ccc4OC)n(C)c3nc2cc1OC (optimized conformer: 76.65061054080275 kcal/mol)

>  <smiles>  (9) 
COc1cc2cc3c(=O)nc(-c4cc(S(=O)(=O)NCC(F)(F)F)ccc4OC)n(C)c3nc2cc1OC

>  <score_type>  (9) 
oracle

>  <origin>  (9) 
adg

>  <m_score__min__energy>  (9) 
-8.6500000000000004

>  <m_primary>  (9) 
energy

$$$$
9:0
     RDKit          3D

 63 65  0  0  0  0  0  0  0  0999 V2000
   -9.6470   21.7920  -31.4890 C   0  0  0  0  0  0  0  0  0  0  0  0
   -8.7630   22.8920  -31.6740 O   0  0  0  0  0  0  0  0  0  0  0  0
   -7.3690   22.7800  -31.7800 C   0  0  0  0  0  0  0  0  0  0  0  0
   -6.8430   21.6770  -32.4550 C   0  0  0  0  0  0  0  0  0  0  0  0
   -5.4640   21.5120  -32.5810 C   0  0  0  0  0  0  0  0  0  0  0  0
   -4.5810   22.4540  -32.0300 C   0  0  0  0  0  0  0  0  0  0  0  0
   -3.0900   22.2540  -32.1570 C   0  0  0  0  0  0  0  0  0  0  0  0
   -2.6300   21.1120  -31.3300 N   0  0  0  0  0  0  0  0  0  0  0  0
   -1.2200   21.3420  -30.9610 C   0  0  0  0  0  0  0  0  0  0  0  0
   -2.7970   19.8150  -32.0460 C   0  0  0  0  0  0  0  0  0  0  0  0
   -1.4750   19.2720  -32.6550 C   0  0  1  0  0  0  0  0  0  0  0  0
   -1.1770   17.7950  -32.3450 C   0  0  0  0  0  0  0  0  0  0  0  0
   -0.9720   17.0830  -33.6240 N   0  0  1  0  0  0  0  0  0  0  0  0
   -2.1840   16.3430  -34.0690 C   0  0  0  0  0  0  0  0  0  0  0  0
   -3.1710   17.2070  -34.8820 C   0  0  0  0  0  0  0  0  0  0  0  0
   -4.4160   17.5450  -34.1030 C   0  0  0  0  0  0  0  0  0  0  0  0
   -4.7010   16.8820  -32.8970 C   0  0  0  0  0  0  0  0  0  0  0  0
   -5.8690   17.1800  -32.1910 C   0  0  0  0  0  0  0  0  0  0  0  0
   -6.7620   18.1380  -32.6820 C   0  0  0  0  0  0  0  0  0  0  0  0
   -8.2280   18.5080  -31.7930 Cl  0  0  0  0  0  0  0  0  0  0  0  0
   -6.4870   18.7970  -33.8830 C   0  0  0  0  0  0  0  0  0  0  0  0
   -5.3200   18.5010  -34.5940 C   0  0  0  0  0  0  0  0  0  0  0  0
   -0.6160   18.1340  -34.5900 C   0  0  0  0  0  0  0  0  0  0  0  0
   -1.3810   19.3830  -34.1790 C   0  0  2  0  0  0  0  0  0  0  0  0
   -0.7040   20.6730  -34.6530 C   0  0  0  0  0  0  0  0  0  0  0  0
   -5.0950   23.5790  -31.3550 C   0  0  0  0  0  0  0  0  0  0  0  0
   -4.1930   24.5030  -30.8020 O   0  0  0  0  0  0  0  0  0  0  0  0
   -3.7750   24.5120  -29.4410 C   0  0  0  0  0  0  0  0  0  0  0  0
   -6.4910   23.7340  -31.2310 C   0  0  0  0  0  0  0  0  0  0  0  0
   -9.7903   21.6137  -30.4130 H   0  0  0  0  0  0  0  0  0  0  0  0
  -10.6171   22.0187  -31.9555 H   0  0  0  0  0  0  0  0  0  0  0  0
   -9.2169   20.8935  -31.9555 H   0  0  0  0  0  0  0  0  0  0  0  0
   -7.5229   20.9307  -32.8918 H   0  0  0  0  0  0  0  0  0  0  0  0
   -5.0653   20.6374  -33.1160 H   0  0  0  0  0  0  0  0  0  0  0  0
   -2.8428   22.0567  -33.2106 H   0  0  0  0  0  0  0  0  0  0  0  0
   -2.5849   23.1653  -31.8044 H   0  0  0  0  0  0  0  0  0  0  0  0
   -1.1256   21.3574  -29.8652 H   0  0  0  0  0  0  0  0  0  0  0  0
   -0.5970   20.5336  -31.3714 H   0  0  0  0  0  0  0  0  0  0  0  0
   -0.8862   22.3065  -31.3714 H   0  0  0  0  0  0  0  0  0  0  0  0
   -3.1845   19.0711  -31.3343 H   0  0  0  0  0  0  0  0  0  0  0  0
   -3.4907   19.9920  -32.8811 H   0  0  0  0  0  0  0  0  0  0  0  0
   -0.7450   19.9312  -32.1626 H   0  0  0  0  0  0  0  0  0  0  0  0
   -0.2691   17.7205  -31.7285 H   0  0  0  0  0  0  0  0  0  0  0  0
   -2.0167   17.3474  -31.7931 H   0  0  0  0  0  0  0  0  0  0  0  0
   -0.1630   16.4240  -33.5450 H   0  0  0  0  0  0  0  0  0  0  0  0
   -1.8646   15.4971  -34.6954 H   0  0  0  0  0  0  0  0  0  0  0  0
   -2.7132   16.0153  -33.1621 H   0  0  0  0  0  0  0  0  0  0  0  0
   -2.6684   18.1428  -35.1680 H   0  0  0  0  0  0  0  0  0  0  0  0
   -3.4756   16.6265  -35.7653 H   0  0  0  0  0  0  0  0  0  0  0  0
   -4.0025   16.1265  -32.5080 H   0  0  0  0  0  0  0  0  0  0  0  0
   -6.0870   16.6599  -31.2465 H   0  0  0  0  0  0  0  0  0  0  0  0
   -7.1897   19.5498  -34.2697 H   0  0  0  0  0  0  0  0  0  0  0  0
   -5.1092   19.0188  -35.5413 H   0  0  0  0  0  0  0  0  0  0  0  0
    0.4668   18.3256  -34.5599 H   0  0  0  0  0  0  0  0  0  0  0  0
   -0.8735   17.8320  -35.6159 H   0  0  0  0  0  0  0  0  0  0  0  0
   -2.3748   19.4410  -34.6469 H   0  0  0  0  0  0  0  0  0  0  0  0
   -0.3929   21.2659  -33.7802 H   0  0  0  0  0  0  0  0  0  0  0  0
    0.1788   20.4223  -35.2595 H   0  0  0  0  0  0  0  0  0  0  0  0
   -1.4118   21.2571  -35.2595 H   0  0  0  0  0  0  0  0  0  0  0  0
   -4.6585   24.4930  -28.7860 H   0  0  0  0  0  0  0  0  0  0  0  0
   -3.1525   23.6270  -29.2428 H   0  0  0  0  0  0  0  0  0  0  0  0
   -3.1911   25.4229  -29.2428 H   0  0  0  0  0  0  0  0  0  0  0  0
   -6.8976   24.6078  -30.7008 H   0  0  0  0  0  0  0  0  0  0  0  0
  1  2  1  0
  2  3  1  0
  3  4  2  0
  4  5  1  0
  5  6  2  0
  6  7  1  0
  7  8  1  0
  8  9  1  0
  8 10  1  0
 10 11  1  0
 11 12  1  0
 12 13  1  0
 13 14  1  0
 14 15  1  0
 15 16  1  0
 16 17  2  0
 17 18  1  0
 18 19  2  0
 19 20  1  0
 19 21  1  0
 21 22  2  0
 13 23  1  0
 23 24  1  0
 24 25  1  0
  6 26  1  0
 26 27  1  0
 27 28  1  0
 26 29  2  0
 29  3  1  0
 24 11  1  0
 22 16  1  0
  1 30  1  0
  1 31  1  0
  1 32  1  0
  4 33  1  0
  5 34  1  0
  7 35  1  0
  7 36  1  0
  9 37  1  0
  9 38  1  0
  9 39  1  0
 10 40  1  0
 10 41  1  0
 11 42  1  1
 12 43  1  0
 12 44  1  0
 13 45  1  1
 14 46  1  0
 14 47  1  0
 15 48  1  0
 15 49  1  0
 17 50  1  0
 18 51  1  0
 21 52  1  0
 22 53  1  0
 23 54  1  0
 23 55  1  0
 24 56  1  6
 25 57  1  0
 25 58  1  0
 25 59  1  0
 28 60  1  0
 28 61  1  0
 28 62  1  0
 29 63  1  0
M  CHG  1  13   1
M  END
>  <UniqueID>  (10) 
10

>  <SMILES>  (10) 
COc1ccc(CN(C)C[C@H]2C[N@@H+](CCc3ccc(Cl)cc3)CC2C)c(OC)c1

>  <Energy>  (10) 
66.19500149234393

>  <Genealogy>  (10) 
COc1ccc(CN(C)CC2C[NH+](CCc3ccc(Cl)cc3)CC2C)c(OC)c1 (protonated)
COc1ccc(CN(C)C[C@H]2C[N@@H+](CCc3ccc(Cl)cc3)CC2C)c(OC)c1 (chirality)
COc1ccc(CN(C)C[C@H]2C[N@@H+](CCc3ccc(Cl)cc3)CC2C)c(OC)c1 (3D coordinates assigned)
COc1ccc(CN(C)C[C@H]2C[N@@H+](CCc3ccc(Cl)cc3)CC2C)c(OC)c1 (nonaromatic ring conformer: 66.19500149234393 kcal/mol)

>  <smiles>  (10) 
COc1ccc(CN(C)CC2CN(CCc3ccc(Cl)cc3)CC2C)c(OC)c1

>  <score_type>  (10) 
oracle

>  <origin>  (10) 
adg

>  <m_score__min__energy>  (10) 
-8.7400000000000002

>  <m_primary>  (10) 
energy

$$$$
10:0
     RDKit          3D

 54 57  0  0  0  0  0  0  0  0999 V2000
   -5.2430   25.3230  -30.7780 C   0  0  0  0  0  0  0  0  0  0  0  0
   -3.8540   25.2820  -30.5370 O   0  0  0  0  0  0  0  0  0  0  0  0
   -3.6040   24.5220  -29.3730 C   0  0  0  0  0  0  0  0  0  0  0  0
   -3.9660   23.0620  -29.6410 C   0  0  0  0  0  0  0  0  0  0  0  0
   -3.0100   22.4610  -30.6010 N   0  0  0  0  0  0  0  0  0  0  0  0
   -1.6860   22.2950  -29.9750 C   0  0  0  0  0  0  0  0  0  0  0  0
   -3.4960   21.1610  -31.1120 C   0  0  0  0  0  0  0  0  0  0  0  0
   -3.2690   21.0410  -32.6270 C   0  0  0  0  0  0  0  0  0  0  0  0
   -4.4980   21.2900  -33.3890 N   0  0  0  0  0  0  0  0  0  0  0  0
   -5.7310   20.6170  -33.0970 C   0  0  0  0  0  0  0  0  0  0  0  0
   -6.8550   21.3040  -32.5810 C   0  0  0  0  0  0  0  0  0  0  0  0
   -6.8780   22.7120  -32.5320 C   0  0  0  0  0  0  0  0  0  0  0  0
   -7.9910   23.3890  -32.0400 C   0  0  0  0  0  0  0  0  0  0  0  0
   -9.1100   22.6810  -31.6120 C   0  0  0  0  0  0  0  0  0  0  0  0
   -9.1280   21.2890  -31.6730 C   0  0  0  0  0  0  0  0  0  0  0  0
   -8.0080   20.5630  -32.1480 C   0  0  0  0  0  0  0  0  0  0  0  0
   -8.0180   19.1780  -32.2230 N   0  0  0  0  0  0  0  0  0  0  0  0
   -9.1360   18.3860  -31.6770 C   0  0  0  0  0  0  0  0  0  0  0  0
   -6.9700   18.5530  -32.8470 C   0  0  0  0  0  0  0  0  0  0  0  0
   -6.8650   17.2270  -33.1180 N   0  0  0  0  0  0  0  0  0  0  0  0
   -5.6700   17.0860  -33.7230 C   0  0  0  0  0  0  0  0  0  0  0  0
   -5.1120   15.8980  -34.1960 C   0  0  0  0  0  0  0  0  0  0  0  0
   -3.8510   15.9610  -34.8140 C   0  0  0  0  0  0  0  0  0  0  0  0
   -3.1870   17.1970  -34.9570 C   0  0  0  0  0  0  0  0  0  0  0  0
   -3.7730   18.3820  -34.4810 C   0  0  0  0  0  0  0  0  0  0  0  0
   -5.0170   18.2930  -33.8500 C   0  0  0  0  0  0  0  0  0  0  0  0
   -5.8540   19.2410  -33.2830 C   0  0  0  0  0  0  0  0  0  0  0  0
   -5.7813   25.3389  -29.8188 H   0  0  0  0  0  0  0  0  0  0  0  0
   -5.4890   26.2288  -31.3516 H   0  0  0  0  0  0  0  0  0  0  0  0
   -5.5420   24.4333  -31.3516 H   0  0  0  0  0  0  0  0  0  0  0  0
   -2.5390   24.5946  -29.1076 H   0  0  0  0  0  0  0  0  0  0  0  0
   -4.2120   24.9076  -28.5413 H   0  0  0  0  0  0  0  0  0  0  0  0
   -3.9317   22.5006  -28.6957 H   0  0  0  0  0  0  0  0  0  0  0  0
   -4.9779   23.0180  -30.0700 H   0  0  0  0  0  0  0  0  0  0  0  0
   -1.7937   22.3085  -28.8804 H   0  0  0  0  0  0  0  0  0  0  0  0
   -1.2498   21.3351  -30.2887 H   0  0  0  0  0  0  0  0  0  0  0  0
   -1.0264   23.1175  -30.2887 H   0  0  0  0  0  0  0  0  0  0  0  0
   -2.9550   20.3500  -30.6025 H   0  0  0  0  0  0  0  0  0  0  0  0
   -4.5758   21.0900  -30.9143 H   0  0  0  0  0  0  0  0  0  0  0  0
   -2.5079   21.7746  -32.9312 H   0  0  0  0  0  0  0  0  0  0  0  0
   -2.9394   20.0135  -32.8406 H   0  0  0  0  0  0  0  0  0  0  0  0
   -4.4700   21.9620  -34.1880 H   0  0  0  0  0  0  0  0  0  0  0  0
   -6.0070   23.2828  -32.8864 H   0  0  0  0  0  0  0  0  0  0  0  0
   -7.9857   24.4878  -31.9895 H   0  0  0  0  0  0  0  0  0  0  0  0
   -9.9848   23.2230  -31.2235 H   0  0  0  0  0  0  0  0  0  0  0  0
  -10.0267   20.7449  -31.3470 H   0  0  0  0  0  0  0  0  0  0  0  0
   -9.1007   18.4110  -30.5779 H   0  0  0  0  0  0  0  0  0  0  0  0
  -10.0898   18.8110  -32.0230 H   0  0  0  0  0  0  0  0  0  0  0  0
   -9.0514   17.3453  -32.0230 H   0  0  0  0  0  0  0  0  0  0  0  0
   -7.5530   16.4620  -32.9430 H   0  0  0  0  0  0  0  0  0  0  0  0
   -5.6429   14.9406  -34.0885 H   0  0  0  0  0  0  0  0  0  0  0  0
   -3.3792   15.0405  -35.1884 H   0  0  0  0  0  0  0  0  0  0  0  0
   -2.2020   17.2336  -35.4453 H   0  0  0  0  0  0  0  0  0  0  0  0
   -3.2675   19.3515  -34.6014 H   0  0  0  0  0  0  0  0  0  0  0  0
  1  2  1  0
  2  3  1  0
  3  4  1  0
  4  5  1  0
  5  6  1  0
  5  7  1  0
  7  8  1  0
  8  9  1  0
  9 10  1  0
 10 11  2  0
 11 12  1  0
 12 13  2  0
 13 14  1  0
 14 15  2  0
 15 16  1  0
 16 17  2  0
 17 18  1  0
 17 19  1  0
 19 20  1  0
 20 21  1  0
 21 22  2  0
 22 23  1  0
 23 24  2  0
 24 25  1  0
 25 26  2  0
 26 27  1  0
 27 10  1  0
 16 11  1  0
 27 19  2  0
 26 21  1  0
  1 28  1  0
  1 29  1  0
  1 30  1  0
  3 31  1  0
  3 32  1  0
  4 33  1  0
  4 34  1  0
  6 35  1  0
  6 36  1  0
  6 37  1  0
  7 38  1  0
  7 39  1  0
  8 40  1  0
  8 41  1  0
  9 42  1  0
 12 43  1  0
 13 44  1  0
 14 45  1  0
 15 46  1  0
 18 47  1  0
 18 48  1  0
 18 49  1  0
 20 50  1  0
 22 51  1  0
 23 52  1  0
 24 53  1  0
 25 54  1  0
M  CHG  1  17   1
M  END
>  <UniqueID>  (11) 
11

>  <SMILES>  (11) 
COCCN(C)CCNc1c2ccccc2[n+](C)c2[nH]c3ccccc3c12

>  <Energy>  (11) 
111.63731270848474

>  <Genealogy>  (11) 
COCCN(C)CCNc1c2ccccc2[n+](C)c2[nH]c3ccccc3c12 (3D coordinates assigned)
COCCN(C)CCNc1c2ccccc2[n+](C)c2[nH]c3ccccc3c12 (optimized conformer: 111.63731270848474 kcal/mol)

>  <smiles>  (11) 
COCCN(C)CCNc1c2ccccc2[n+](C)c2[nH]c3ccccc3c12

>  <score_type>  (11) 
oracle

>  <origin>  (11) 
adg

>  <m_score__min__energy>  (11) 
-8.9800000000000004

>  <m_primary>  (11) 
energy

$$$$
11:0
     RDKit          3D

 42 44  0  0  0  0  0  0  0  0999 V2000
   -3.8220   23.1070  -29.4980 C   0  0  0  0  0  0  0  0  0  0  0  0
   -3.5480   24.4830  -30.0920 C   0  0  0  0  0  0  0  0  0  0  0  0
   -4.4870   24.7470  -31.1900 N   0  0  0  0  0  0  0  0  0  0  0  0
   -5.8780   24.8120  -30.7180 C   0  0  0  0  0  0  0  0  0  0  0  0
   -6.7310   23.6650  -31.2810 C   0  0  0  0  0  0  0  0  0  0  0  0
   -6.1210   23.0830  -32.4770 N   0  0  0  0  0  0  0  0  0  0  0  0
   -5.9450   21.6640  -32.6400 C   0  0  0  0  0  0  0  0  0  0  0  0
   -7.0340   20.7870  -32.4990 C   0  0  0  0  0  0  0  0  0  0  0  0
   -8.3160   21.2720  -32.1620 C   0  0  0  0  0  0  0  0  0  0  0  0
   -9.3830   20.3950  -31.9860 C   0  0  0  0  0  0  0  0  0  0  0  0
   -9.1920   19.0260  -32.1330 C   0  0  0  0  0  0  0  0  0  0  0  0
   -7.9390   18.5260  -32.4900 C   0  0  0  0  0  0  0  0  0  0  0  0
   -6.8420   19.3950  -32.7190 C   0  0  0  0  0  0  0  0  0  0  0  0
   -5.6110   18.9200  -33.1380 N   0  0  0  0  0  0  0  0  0  0  0  0
   -5.4780   17.5330  -33.6340 C   0  0  0  0  0  0  0  0  0  0  0  0
   -4.5100   19.7550  -33.1160 C   0  0  0  0  0  0  0  0  0  0  0  0
   -3.1890   19.2750  -33.2900 C   0  0  0  0  0  0  0  0  0  0  0  0
   -2.1080   20.1550  -33.2930 C   0  0  0  0  0  0  0  0  0  0  0  0
   -2.3320   21.5140  -33.1030 C   0  0  0  0  0  0  0  0  0  0  0  0
   -3.5930   21.9690  -32.8980 N   0  0  0  0  0  0  0  0  0  0  0  0
   -4.6750   21.1430  -32.8940 C   0  0  0  0  0  0  0  0  0  0  0  0
   -3.8090   23.1724  -28.4000 H   0  0  0  0  0  0  0  0  0  0  0  0
   -4.8083   22.7530  -29.8326 H   0  0  0  0  0  0  0  0  0  0  0  0
   -3.0466   22.4022  -29.8326 H   0  0  0  0  0  0  0  0  0  0  0  0
   -3.6732   25.2488  -29.3124 H   0  0  0  0  0  0  0  0  0  0  0  0
   -2.5188   24.5130  -30.4792 H   0  0  0  0  0  0  0  0  0  0  0  0
   -4.2470   25.6820  -31.5960 H   0  0  0  0  0  0  0  0  0  0  0  0
   -5.8835   24.7526  -29.6196 H   0  0  0  0  0  0  0  0  0  0  0  0
   -6.3113   25.7608  -31.0673 H   0  0  0  0  0  0  0  0  0  0  0  0
   -6.8308   22.8832  -30.5136 H   0  0  0  0  0  0  0  0  0  0  0  0
   -7.7161   24.0694  -31.5568 H   0  0  0  0  0  0  0  0  0  0  0  0
   -5.7420   23.7250  -33.2090 H   0  0  0  0  0  0  0  0  0  0  0  0
   -8.4737   22.3535  -32.0372 H   0  0  0  0  0  0  0  0  0  0  0  0
  -10.3788   20.7861  -31.7302 H   0  0  0  0  0  0  0  0  0  0  0  0
  -10.0313   18.3345  -31.9674 H   0  0  0  0  0  0  0  0  0  0  0  0
   -7.8000   17.4399  -32.5955 H   0  0  0  0  0  0  0  0  0  0  0  0
   -5.4118   16.8429  -32.7799 H   0  0  0  0  0  0  0  0  0  0  0  0
   -6.3557   17.2765  -34.2455 H   0  0  0  0  0  0  0  0  0  0  0  0
   -4.5676   17.4480  -34.2455 H   0  0  0  0  0  0  0  0  0  0  0  0
   -3.0143   18.1973  -33.4241 H   0  0  0  0  0  0  0  0  0  0  0  0
   -1.0860   19.7774  -33.4445 H   0  0  0  0  0  0  0  0  0  0  0  0
   -1.4878   22.2190  -33.1189 H   0  0  0  0  0  0  0  0  0  0  0  0
  1  2  1  0
  2  3  1  0
  3  4  1  0
  4  5  1  0
  5  6  1  0
  6  7  1  0
  7  8  2  0
  8  9  1  0
  9 10  2  0
 10 11  1  0
 11 12  2  0
 12 13  1  0
 13 14  2  0
 14 15  1  0
 14 16  1  0
 16 17  2  0
 17 18  1  0
 18 19  2  0
 19 20  1  0
 20 21  2  0
 21  7  1  0
 13  8  1  0
 21 16  1  0
  1 22  1  0
  1 23  1  0
  1 24  1  0
  2 25  1  0
  2 26  1  0
  3 27  1  0
  4 28  1  0
  4 29  1  0
  5 30  1  0
  5 31  1  0
  6 32  1  0
  9 33  1  0
 10 34  1  0
 11 35  1  0
 12 36  1  0
 15 37  1  0
 15 38  1  0
 15 39  1  0
 17 40  1  0
 18 41  1  0
 19 42  1  0
M  CHG  1  14   1
M  END
>  <UniqueID>  (12) 
12

>  <SMILES>  (12) 
CCNCCNc1c2ccccc2[n+](C)c2cccnc12

>  <Energy>  (12) 
60.54079939340852

>  <Genealogy>  (12) 
CCNCCNc1c2ccccc2[n+](C)c2cccnc12 (3D coordinates assigned)
CCNCCNc1c2ccccc2[n+](C)c2cccnc12 (optimized conformer: 60.54079939340852 kcal/mol)

>  <smiles>  (12) 
CCNCCNc1c2ccccc2[n+](C)c2cccnc12

>  <score_type>  (12) 
oracle

>  <origin>  (12) 
adg

>  <m_score__min__energy>  (12) 
-8.3900000000000006

>  <m_primary>  (12) 
energy

$$$$
12:0
     RDKit          3D

 61 64  0  0  0  0  0  0  0  0999 V2000
   -4.6890   24.9350  -29.7890 C   0  0  0  0  0  0  0  0  0  0  0  0
   -4.8310   24.1970  -30.9980 O   0  0  0  0  0  0  0  0  0  0  0  0
   -5.9180   23.3610  -31.3000 C   0  0  0  0  0  0  0  0  0  0  0  0
   -7.1540   23.8820  -31.7300 C   0  0  0  0  0  0  0  0  0  0  0  0
   -8.2190   23.0310  -32.0250 C   0  0  0  0  0  0  0  0  0  0  0  0
   -8.0860   21.6470  -31.8630 C   0  0  0  0  0  0  0  0  0  0  0  0
   -9.2250   20.7260  -32.2390 C   0  0  0  0  0  0  0  0  0  0  0  0
   -8.7770   19.6510  -33.1450 N   0  0  0  0  0  0  0  0  0  0  0  0
   -8.1290   18.5510  -32.4110 C   0  0  0  0  0  0  0  0  0  0  0  0
   -6.9050   18.0690  -33.1460 C   0  0  0  0  0  0  0  0  0  0  0  0
   -6.0730   18.9790  -33.8140 C   0  0  0  0  0  0  0  0  0  0  0  0
   -4.9320   18.5110  -34.4720 C   0  0  0  0  0  0  0  0  0  0  0  0
   -4.6310   17.1860  -34.4560 N   0  0  0  0  0  0  0  0  0  0  0  0
   -5.4150   16.2840  -33.8070 C   0  0  0  0  0  0  0  0  0  0  0  0
   -6.5620   16.7090  -33.1340 C   0  0  0  0  0  0  0  0  0  0  0  0
   -6.8660   21.1230  -31.4180 C   0  0  0  0  0  0  0  0  0  0  0  0
   -5.7660   21.9640  -31.1710 C   0  0  0  0  0  0  0  0  0  0  0  0
   -4.4250   21.3460  -30.8080 C   0  0  0  0  0  0  0  0  0  0  0  0
   -3.3210   21.7350  -31.7190 N   0  0  0  0  0  0  0  0  0  0  0  0
   -3.6030   21.3690  -33.1190 C   0  0  0  0  0  0  0  0  0  0  0  0
   -2.0100   21.2180  -31.2750 C   0  0  0  0  0  0  0  0  0  0  0  0
   -1.4210   22.0920  -30.2000 C   0  0  0  0  0  0  0  0  0  0  0  0
   -0.4650   21.5680  -29.3120 C   0  0  0  0  0  0  0  0  0  0  0  0
    0.0800   22.3730  -28.3060 C   0  0  0  0  0  0  0  0  0  0  0  0
   -0.3290   23.7030  -28.1800 C   0  0  0  0  0  0  0  0  0  0  0  0
   -1.2620   24.2390  -29.0780 C   0  0  0  0  0  0  0  0  0  0  0  0
   -1.8210   23.4340  -30.0730 C   0  0  0  0  0  0  0  0  0  0  0  0
   -1.6220   25.5850  -28.9610 O   0  0  0  0  0  0  0  0  0  0  0  0
   -0.8680   26.4820  -28.1420 C   0  0  0  0  0  0  0  0  0  0  0  0
   -0.4190   25.7760  -26.8550 C   0  0  0  0  0  0  0  0  0  0  0  0
    0.1820   24.5160  -27.1640 O   0  0  0  0  0  0  0  0  0  0  0  0
   -4.8188   24.2602  -28.9301 H   0  0  0  0  0  0  0  0  0  0  0  0
   -3.6872   25.3878  -29.7513 H   0  0  0  0  0  0  0  0  0  0  0  0
   -5.4512   25.7273  -29.7513 H   0  0  0  0  0  0  0  0  0  0  0  0
   -7.2805   24.9697  -31.8341 H   0  0  0  0  0  0  0  0  0  0  0  0
   -9.1694   23.4501  -32.3872 H   0  0  0  0  0  0  0  0  0  0  0  0
   -9.6356   20.2739  -31.3241 H   0  0  0  0  0  0  0  0  0  0  0  0
   -9.9900   21.3197  -32.7609 H   0  0  0  0  0  0  0  0  0  0  0  0
   -9.6160   19.2690  -33.6410 H   0  0  0  0  0  0  0  0  0  0  0  0
   -8.1240   20.0410  -33.8650 H   0  0  0  0  0  0  0  0  0  0  0  0
   -7.8340   18.9072  -31.4130 H   0  0  0  0  0  0  0  0  0  0  0  0
   -8.8405   17.7167  -32.3234 H   0  0  0  0  0  0  0  0  0  0  0  0
   -6.3162   20.0518  -33.8201 H   0  0  0  0  0  0  0  0  0  0  0  0
   -4.2766   19.2165  -35.0037 H   0  0  0  0  0  0  0  0  0  0  0  0
   -5.1449   15.2177  -33.8123 H   0  0  0  0  0  0  0  0  0  0  0  0
   -7.1917   15.9831  -32.5986 H   0  0  0  0  0  0  0  0  0  0  0  0
   -6.7666   20.0390  -31.2595 H   0  0  0  0  0  0  0  0  0  0  0  0
   -4.1614   21.6633  -29.7883 H   0  0  0  0  0  0  0  0  0  0  0  0
   -4.5412   20.2554  -30.8924 H   0  0  0  0  0  0  0  0  0  0  0  0
   -4.2742   20.4978  -33.1422 H   0  0  0  0  0  0  0  0  0  0  0  0
   -4.0841   22.2162  -33.6297 H   0  0  0  0  0  0  0  0  0  0  0  0
   -2.6611   21.1199  -33.6297 H   0  0  0  0  0  0  0  0  0  0  0  0
   -2.1401   20.1998  -30.8796 H   0  0  0  0  0  0  0  0  0  0  0  0
   -1.3256   21.2126  -32.1362 H   0  0  0  0  0  0  0  0  0  0  0  0
   -0.1442   20.5203  -29.4088 H   0  0  0  0  0  0  0  0  0  0  0  0
    0.8295   21.9594  -27.6152 H   0  0  0  0  0  0  0  0  0  0  0  0
   -2.5747   23.8501  -30.7577 H   0  0  0  0  0  0  0  0  0  0  0  0
    0.0182   26.8229  -28.6973 H   0  0  0  0  0  0  0  0  0  0  0  0
   -1.4998   27.3426  -27.8771 H   0  0  0  0  0  0  0  0  0  0  0  0
    0.3127   26.4082  -26.3307 H   0  0  0  0  0  0  0  0  0  0  0  0
   -1.2974   25.6061  -26.2150 H   0  0  0  0  0  0  0  0  0  0  0  0
  1  2  1  0
  2  3  1  0
  3  4  2  0
  4  5  1  0
  5  6  2  0
  6  7  1  0
  7  8  1  0
  8  9  1  0
  9 10  1  0
 10 11  2  0
 11 12  1  0
 12 13  2  0
 13 14  1  0
 14 15  2  0
  6 16  1  0
 16 17  2  0
 17 18  1  0
 18 19  1  0
 19 20  1  0
 19 21  1  0
 21 22  1  0
 22 23  2  0
 23 24  1  0
 24 25  2  0
 25 26  1  0
 26 27  2  0
 26 28  1  0
 28 29  1  0
 29 30  1  0
 30 31  1  0
 17  3  1  0
 27 22  1  0
 15 10  1  0
 31 25  1  0
  1 32  1  0
  1 33  1  0
  1 34  1  0
  4 35  1  0
  5 36  1  0
  7 37  1  0
  7 38  1  0
  8 39  1  0
  8 40  1  0
  9 41  1  0
  9 42  1  0
 11 43  1  0
 12 44  1  0
 14 45  1  0
 15 46  1  0
 16 47  1  0
 18 48  1  0
 18 49  1  0
 20 50  1  0
 20 51  1  0
 20 52  1  0
 21 53  1  0
 21 54  1  0
 23 55  1  0
 24 56  1  0
 27 57  1  0
 29 58  1  0
 29 59  1  0
 30 60  1  0
 30 61  1  0
M  CHG  1   8   1
M  END
>  <UniqueID>  (13) 
13

>  <SMILES>  (13) 
COc1ccc(C[NH2+]Cc2ccncc2)cc1CN(C)Cc1ccc2c(c1)OCCO2

>  <Energy>  (13) 
65.89878976724113

>  <Genealogy>  (13) 
COc1ccc(C[NH2+]Cc2ccncc2)cc1CN(C)Cc1ccc2c(c1)OCCO2 (protonated)
COc1ccc(C[NH2+]Cc2ccncc2)cc1CN(C)Cc1ccc2c(c1)OCCO2 (3D coordinates assigned)
COc1ccc(C[NH2+]Cc2ccncc2)cc1CN(C)Cc1ccc2c(c1)OCCO2 (nonaromatic ring conformer: 65.89878976724113 kcal/mol)

>  <smiles>  (13) 
COc1ccc(CNCc2ccncc2)cc1CN(C)Cc1ccc2c(c1)OCCO2

>  <score_type>  (13) 
oracle

>  <origin>  (13) 
adg

>  <m_score__min__energy>  (13) 
-9.3100000000000005

>  <m_primary>  (13) 
energy

$$$$
13:0
     RDKit          3D

 40 43  0  0  0  0  0  0  0  0999 V2000
   -1.8880   25.0630  -28.1840 C   0  0  0  0  0  0  0  0  0  0  0  0
   -2.6340   25.3000  -29.3430 O   0  0  0  0  0  0  0  0  0  0  0  0
   -3.4740   24.3800  -29.9290 C   0  0  0  0  0  0  0  0  0  0  0  0
   -4.7440   24.7470  -30.3790 C   0  0  0  0  0  0  0  0  0  0  0  0
   -5.5860   23.8280  -30.9660 C   0  0  0  0  0  0  0  0  0  0  0  0
   -5.1780   22.5180  -31.1170 C   0  0  0  0  0  0  0  0  0  0  0  0
   -6.0300   21.5040  -31.7310 C   0  0  0  0  0  0  0  0  0  0  0  0
   -5.5200   20.3750  -32.2870 N   0  0  0  0  0  0  0  0  0  0  0  0
   -6.3120   19.4450  -32.8520 C   0  0  0  0  0  0  0  0  0  0  0  0
   -5.6780   18.2620  -33.4280 C   0  0  0  0  0  0  0  0  0  0  0  0
   -6.2100   17.0000  -33.2580 C   0  0  0  0  0  0  0  0  0  0  0  0
   -5.5940   15.8970  -33.8100 C   0  0  0  0  0  0  0  0  0  0  0  0
   -4.4470   16.1030  -34.5250 C   0  0  0  0  0  0  0  0  0  0  0  0
   -3.7510   14.9240  -35.1390 C   0  0  0  0  0  0  0  0  0  0  0  0
   -3.8920   17.3430  -34.7120 C   0  0  0  0  0  0  0  0  0  0  0  0
   -4.5150   18.4450  -34.1550 C   0  0  0  0  0  0  0  0  0  0  0  0
   -7.6470   19.6150  -32.8790 N   0  0  0  0  0  0  0  0  0  0  0  0
   -8.2200   20.7140  -32.3430 C   0  0  0  0  0  0  0  0  0  0  0  0
   -9.5100   21.1410  -32.2280 N   0  0  0  0  0  0  0  0  0  0  0  0
   -9.5020   22.3180  -31.6010 C   0  0  0  0  0  0  0  0  0  0  0  0
   -8.2320   22.6420  -31.3170 N   0  0  0  0  0  0  0  0  0  0  0  0
   -7.4110   21.6700  -31.7630 C   0  0  0  0  0  0  0  0  0  0  0  0
   -3.9210   22.1140  -30.6810 C   0  0  0  0  0  0  0  0  0  0  0  0
   -3.1080   23.0630  -30.0990 C   0  0  0  0  0  0  0  0  0  0  0  0
   -2.5115   25.2611  -27.2997 H   0  0  0  0  0  0  0  0  0  0  0  0
   -1.5548   24.0148  -28.1704 H   0  0  0  0  0  0  0  0  0  0  0  0
   -1.0109   25.7267  -28.1704 H   0  0  0  0  0  0  0  0  0  0  0  0
   -5.0781   25.7886  -30.2627 H   0  0  0  0  0  0  0  0  0  0  0  0
   -6.5824   24.1379  -31.3140 H   0  0  0  0  0  0  0  0  0  0  0  0
   -7.1349   16.8729  -32.6762 H   0  0  0  0  0  0  0  0  0  0  0  0
   -6.0105   14.8873  -33.6798 H   0  0  0  0  0  0  0  0  0  0  0  0
   -3.3652   14.2704  -34.3427 H   0  0  0  0  0  0  0  0  0  0  0  0
   -4.4622   14.3620  -35.7622 H   0  0  0  0  0  0  0  0  0  0  0  0
   -2.9154   15.2752  -35.7622 H   0  0  0  0  0  0  0  0  0  0  0  0
   -2.9667   17.4592  -35.2953 H   0  0  0  0  0  0  0  0  0  0  0  0
   -4.0923   19.4518  -34.2879 H   0  0  0  0  0  0  0  0  0  0  0  0
  -10.3010   20.6010  -32.5850 H   0  0  0  0  0  0  0  0  0  0  0  0
  -10.3886   22.9219  -31.3576 H   0  0  0  0  0  0  0  0  0  0  0  0
   -3.5867   21.0724  -30.7966 H   0  0  0  0  0  0  0  0  0  0  0  0
   -2.1121   22.7514  -29.7512 H   0  0  0  0  0  0  0  0  0  0  0  0
  1  2  1  0
  2  3  1  0
  3  4  2  0
  4  5  1  0
  5  6  2  0
  6  7  1  0
  7  8  2  0
  8  9  1  0
  9 10  1  0
 10 11  2  0
 11 12  1  0
 12 13  2  0
 13 14  1  0
 13 15  1  0
 15 16  2  0
  9 17  2  0
 17 18  1  0
 18 19  1  0
 19 20  1  0
 20 21  2  0
 21 22  1  0
  6 23  1  0
 23 24  2  0
 24  3  1  0
 22  7  1  0
 16 10  1  0
 22 18  2  0
  1 25  1  0
  1 26  1  0
  1 27  1  0
  4 28  1  0
  5 29  1  0
 11 30  1  0
 12 31  1  0
 14 32  1  0
 14 33  1  0
 14 34  1  0
 15 35  1  0
 16 36  1  0
 19 37  1  0
 20 38  1  0
 23 39  1  0
 24 40  1  0
M  END
>  <smiles>  (14) 
COc1ccc(-c2nc(-c3ccc(C)cc3)nc3[nH]cnc23)cc1

>  <score_type>  (14) 
oracle

>  <origin>  (14) 
adg

>  <m_score__min__energy>  (14) 
-8.3900000000000006

>  <m_primary>  (14) 
energy

$$$$
14:0
     RDKit          3D

 47 50  0  0  0  0  0  0  0  0999 V2000
   -1.5290   21.7040  -30.2410 C   0  0  0  0  0  0  0  0  0  0  0  0
   -2.8180   22.4580  -30.1530 C   0  0  0  0  0  0  0  0  0  0  0  0
   -2.9540   23.9990  -29.4770 S   0  0  0  0  0  0  0  0  0  0  0  0
   -4.6020   24.1210  -29.7490 C   0  0  0  0  0  0  0  0  0  0  0  0
   -5.3920   25.1740  -29.4290 N   0  0  0  0  0  0  0  0  0  0  0  0
   -6.7180   25.1160  -29.7240 C   0  0  0  0  0  0  0  0  0  0  0  0
   -7.2380   24.0150  -30.3380 N   0  0  0  0  0  0  0  0  0  0  0  0
   -6.4640   22.9410  -30.6730 C   0  0  0  0  0  0  0  0  0  0  0  0
   -7.0790   21.8270  -31.3330 N   0  0  0  0  0  0  0  0  0  0  0  0
   -6.7630   21.5970  -32.7440 C   0  0  0  0  0  0  0  0  0  0  0  0
   -7.0430   20.1340  -33.1300 C   0  0  0  0  0  0  0  0  0  0  0  0
   -8.3220   19.5860  -32.5960 N   0  0  0  0  0  0  0  0  0  0  0  0
   -8.1240   18.3450  -31.8160 C   0  0  0  0  0  0  0  0  0  0  0  0
   -7.0140   17.5160  -32.4120 C   0  0  0  0  0  0  0  0  0  0  0  0
   -5.7640   17.4330  -31.7770 C   0  0  0  0  0  0  0  0  0  0  0  0
   -4.7360   16.6730  -32.3450 C   0  0  0  0  0  0  0  0  0  0  0  0
   -4.9490   15.9940  -33.5480 C   0  0  0  0  0  0  0  0  0  0  0  0
   -6.1900   16.0740  -34.1850 C   0  0  0  0  0  0  0  0  0  0  0  0
   -7.2210   16.8320  -33.6210 C   0  0  0  0  0  0  0  0  0  0  0  0
   -9.1430   20.5700  -31.8590 C   0  0  0  0  0  0  0  0  0  0  0  0
   -8.3320   21.3020  -30.7810 C   0  0  0  0  0  0  0  0  0  0  0  0
   -5.0880   22.9800  -30.3670 C   0  0  0  0  0  0  0  0  0  0  0  0
   -4.0790   22.0110  -30.5870 C   0  0  0  0  0  0  0  0  0  0  0  0
   -4.2890   20.6790  -31.2470 C   0  0  0  0  0  0  0  0  0  0  0  0
   -1.1604   21.4884  -29.2273 H   0  0  0  0  0  0  0  0  0  0  0  0
   -1.6929   20.7593  -30.7802 H   0  0  0  0  0  0  0  0  0  0  0  0
   -0.7859   22.3098  -30.7802 H   0  0  0  0  0  0  0  0  0  0  0  0
   -4.9900   26.0180  -28.9630 H   0  0  0  0  0  0  0  0  0  0  0  0
   -7.3740   25.9606  -29.4663 H   0  0  0  0  0  0  0  0  0  0  0  0
   -7.3825   22.2599  -33.3659 H   0  0  0  0  0  0  0  0  0  0  0  0
   -5.6961   21.8091  -32.9077 H   0  0  0  0  0  0  0  0  0  0  0  0
   -7.0732   20.0684  -34.2276 H   0  0  0  0  0  0  0  0  0  0  0  0
   -6.2361   19.5338  -32.6843 H   0  0  0  0  0  0  0  0  0  0  0  0
   -7.8636   18.6067  -30.7798 H   0  0  0  0  0  0  0  0  0  0  0  0
   -9.0551   17.7597  -31.8376 H   0  0  0  0  0  0  0  0  0  0  0  0
   -5.5929   17.9670  -30.8306 H   0  0  0  0  0  0  0  0  0  0  0  0
   -3.7587   16.6097  -31.8442 H   0  0  0  0  0  0  0  0  0  0  0  0
   -4.1397   15.3967  -33.9932 H   0  0  0  0  0  0  0  0  0  0  0  0
   -6.3564   15.5397  -35.1320 H   0  0  0  0  0  0  0  0  0  0  0  0
   -8.1966   16.8927  -34.1256 H   0  0  0  0  0  0  0  0  0  0  0  0
   -9.5357   21.3100  -32.5719 H   0  0  0  0  0  0  0  0  0  0  0  0
   -9.9590   20.0265  -31.3602 H   0  0  0  0  0  0  0  0  0  0  0  0
   -8.9293   22.1372  -30.3864 H   0  0  0  0  0  0  0  0  0  0  0  0
   -8.0904   20.5889  -29.9791 H   0  0  0  0  0  0  0  0  0  0  0  0
   -4.4113   19.9033  -30.4767 H   0  0  0  0  0  0  0  0  0  0  0  0
   -5.1920   20.7187  -31.8739 H   0  0  0  0  0  0  0  0  0  0  0  0
   -3.4176   20.4390  -31.8739 H   0  0  0  0  0  0  0  0  0  0  0  0
  1  2  1  0
  2  3  1  0
  3  4  1  0
  4  5  2  0
  5  6  1  0
  6  7  2  0
  7  8  1  0
  8  9  1  0
  9 10  1  0
 10 11  1  0
 11 12  1  0
 12 13  1  0
 13 14  1  0
 14 15  2  0
 15 16  1  0
 16 17  2  0
 17 18  1  0
 18 19  2  0
 12 20  1  0
 20 21  1  0
  8 22  2  0
 22 23  1  0
 23 24  1  0
 23  2  2  0
 22  4  1  0
 21  9  1  0
 19 14  1  0
  1 25  1  0
  1 26  1  0
  1 27  1  0
  5 28  1  0
  6 29  1  0
 10 30  1  0
 10 31  1  0
 11 32  1  0
 11 33  1  0
 13 34  1  0
 13 35  1  0
 15 36  1  0
 16 37  1  0
 17 38  1  0
 18 39  1  0
 19 40  1  0
 20 41  1  0
 20 42  1  0
 21 43  1  0
 21 44  1  0
 24 45  1  0
 24 46  1  0
 24 47  1  0
M  CHG  1   5   1
M  END
>  <UniqueID>  (15) 
14

>  <SMILES>  (15) 
Cc1sc2[nH+]cnc(N3CCN(Cc4ccccc4)CC3)c2c1C

>  <Energy>  (15) 
96.08817970130775

>  <Genealogy>  (15) 
Cc1sc2[nH+]cnc(N3CCN(Cc4ccccc4)CC3)c2c1C (protonated)
Cc1sc2[nH+]cnc(N3CCN(Cc4ccccc4)CC3)c2c1C (3D coordinates assigned)
Cc1sc2[nH+]cnc(N3CCN(Cc4ccccc4)CC3)c2c1C (nonaromatic ring conformer: 96.08817970130775 kcal/mol)

>  <smiles>  (15) 
Cc1sc2ncnc(N3CCN(Cc4ccccc4)CC3)c2c1C

>  <score_type>  (15) 
oracle

>  <origin>  (15) 
adg

>  <m_score__min__energy>  (15) 
-8.1999999999999993

>  <m_primary>  (15) 
energy

$$$$
15:0
     RDKit          3D

 50 53  0  0  0  0  0  0  0  0999 V2000
   -5.6670   15.6130  -33.4670 C   0  0  0  0  0  0  0  0  0  0  0  0
   -6.8240   16.4590  -33.9900 C   0  0  0  0  0  0  0  0  0  0  0  0
   -6.9800   17.6920  -33.1900 N   0  0  0  0  0  0  0  0  0  0  0  0
   -8.0690   17.7640  -32.3630 C   0  0  0  0  0  0  0  0  0  0  0  0
   -8.3130   18.8920  -31.5920 C   0  0  0  0  0  0  0  0  0  0  0  0
   -7.4630   19.9830  -31.6840 C   0  0  0  0  0  0  0  0  0  0  0  0
   -6.3650   19.9540  -32.5580 C   0  0  0  0  0  0  0  0  0  0  0  0
   -6.1060   18.7630  -33.2820 C   0  0  0  0  0  0  0  0  0  0  0  0
   -4.8990   18.7480  -34.2010 C   0  0  0  0  0  0  0  0  0  0  0  0
   -3.7650   19.5690  -33.5970 C   0  0  0  0  0  0  0  0  0  0  0  0
   -4.2070   21.0180  -33.4060 C   0  0  0  0  0  0  0  0  0  0  0  0
   -5.5030   21.1180  -32.7170 N   0  0  0  0  0  0  0  0  0  0  0  0
   -5.9550   22.4690  -32.3380 C   0  0  0  0  0  0  0  0  0  0  0  0
   -5.0980   23.0450  -31.2350 C   0  0  0  0  0  0  0  0  0  0  0  0
   -5.2030   24.4010  -30.8880 C   0  0  0  0  0  0  0  0  0  0  0  0
   -4.4110   24.9330  -29.8680 C   0  0  0  0  0  0  0  0  0  0  0  0
   -3.4890   24.1230  -29.1820 C   0  0  0  0  0  0  0  0  0  0  0  0
   -2.6510   24.6880  -28.0930 C   0  0  0  0  0  0  0  0  0  0  0  0
   -3.1490   24.7770  -26.7800 C   0  0  0  0  0  0  0  0  0  0  0  0
   -2.3570   25.3080  -25.7560 C   0  0  0  0  0  0  0  0  0  0  0  0
   -1.0640   25.7570  -26.0320 C   0  0  0  0  0  0  0  0  0  0  0  0
   -0.5590   25.6750  -27.3310 C   0  0  0  0  0  0  0  0  0  0  0  0
   -1.3450   25.1430  -28.3580 C   0  0  0  0  0  0  0  0  0  0  0  0
   -3.3730   22.7700  -29.5450 C   0  0  0  0  0  0  0  0  0  0  0  0
   -4.1660   22.2370  -30.5660 C   0  0  0  0  0  0  0  0  0  0  0  0
   -5.6759   15.6195  -32.3671 H   0  0  0  0  0  0  0  0  0  0  0  0
   -5.7756   14.5798  -33.8284 H   0  0  0  0  0  0  0  0  0  0  0  0
   -4.7153   16.0298  -33.8284 H   0  0  0  0  0  0  0  0  0  0  0  0
   -6.6261   16.7318  -35.0371 H   0  0  0  0  0  0  0  0  0  0  0  0
   -7.7509   15.8716  -33.9145 H   0  0  0  0  0  0  0  0  0  0  0  0
   -8.7631   16.9123  -32.3087 H   0  0  0  0  0  0  0  0  0  0  0  0
   -9.1766   18.9200  -30.9113 H   0  0  0  0  0  0  0  0  0  0  0  0
   -7.6498   20.8758  -31.0692 H   0  0  0  0  0  0  0  0  0  0  0  0
   -4.5617   17.7103  -34.3403 H   0  0  0  0  0  0  0  0  0  0  0  0
   -5.1811   19.1854  -35.1701 H   0  0  0  0  0  0  0  0  0  0  0  0
   -3.4869   19.1424  -32.6220 H   0  0  0  0  0  0  0  0  0  0  0  0
   -2.9015   19.5439  -34.2779 H   0  0  0  0  0  0  0  0  0  0  0  0
   -3.4473   21.5443  -32.8095 H   0  0  0  0  0  0  0  0  0  0  0  0
   -4.3186   21.4709  -34.4022 H   0  0  0  0  0  0  0  0  0  0  0  0
   -5.8963   23.1265  -33.2179 H   0  0  0  0  0  0  0  0  0  0  0  0
   -6.9903   22.3992  -31.9729 H   0  0  0  0  0  0  0  0  0  0  0  0
   -5.9134   25.0486  -31.4227 H   0  0  0  0  0  0  0  0  0  0  0  0
   -4.5094   25.9951  -29.5990 H   0  0  0  0  0  0  0  0  0  0  0  0
   -4.1677   24.4268  -26.5571 H   0  0  0  0  0  0  0  0  0  0  0  0
   -2.7536   25.3718  -24.7320 H   0  0  0  0  0  0  0  0  0  0  0  0
   -0.4433   26.1753  -25.2260 H   0  0  0  0  0  0  0  0  0  0  0  0
    0.4596   26.0297  -27.5471 H   0  0  0  0  0  0  0  0  0  0  0  0
   -0.9406   25.0796  -29.3790 H   0  0  0  0  0  0  0  0  0  0  0  0
   -2.6522   22.1249  -29.0214 H   0  0  0  0  0  0  0  0  0  0  0  0
   -4.0586   21.1787  -30.8462 H   0  0  0  0  0  0  0  0  0  0  0  0
  1  2  1  0
  2  3  1  0
  3  4  2  0
  4  5  1  0
  5  6  2  0
  6  7  1  0
  7  8  2  0
  8  9  1  0
  9 10  1  0
 10 11  1  0
 11 12  1  0
 12 13  1  0
 13 14  1  0
 14 15  2  0
 15 16  1  0
 16 17  2  0
 17 18  1  0
 18 19  2  0
 19 20  1  0
 20 21  2  0
 21 22  1  0
 22 23  2  0
 17 24  1  0
 24 25  2  0
  8  3  1  0
 25 14  1  0
 12  7  1  0
 23 18  1  0
  1 26  1  0
  1 27  1  0
  1 28  1  0
  2 29  1  0
  2 30  1  0
  4 31  1  0
  5 32  1  0
  6 33  1  0
  9 34  1  0
  9 35  1  0
 10 36  1  0
 10 37  1  0
 11 38  1  0
 11 39  1  0
 13 40  1  0
 13 41  1  0
 15 42  1  0
 16 43  1  0
 19 44  1  0
 20 45  1  0
 21 46  1  0
 22 47  1  0
 23 48  1  0
 24 49  1  0
 25 50  1  0
M  CHG  1   3   1
M  END
>  <UniqueID>  (16) 
15

>  <SMILES>  (16) 
CC[n+]1cccc2c1CCCN2Cc1ccc(-c2ccccc2)cc1

>  <Energy>  (16) 
62.14016642655015

>  <Genealogy>  (16) 
CC[n+]1cccc2c1CCCN2Cc1ccc(-c2ccccc2)cc1 (3D coordinates assigned)
CC[n+]1cccc2c1CCCN2Cc1ccc(-c2ccccc2)cc1 (nonaromatic ring conformer: 62.14016642655015 kcal/mol)

>  <smiles>  (16) 
CC[n+]1cccc2c1CCCN2Cc1ccc(-c2ccccc2)cc1

>  <score_type>  (16) 
oracle

>  <origin>  (16) 
adg

>  <m_score__min__energy>  (16) 
-8.6400000000000006

>  <m_primary>  (16) 
energy

$$$$
16:0
     RDKit          3D

 50 51  0  0  0  0  0  0  0  0999 V2000
   -0.4960   30.2790  -36.9780 C   0  0  0  0  0  0  0  0  0  0  0  0
   -1.2250   29.0660  -36.4070 C   0  0  0  0  0  0  0  0  0  0  0  0
   -0.5090   27.8180  -36.7530 N   0  0  0  0  0  0  0  0  0  0  0  0
   -1.2640   26.8830  -37.6230 C   0  0  0  0  0  0  0  0  0  0  0  0
   -1.9920   27.5520  -38.7960 C   0  0  0  0  0  0  0  0  0  0  0  0
    0.1980   27.1800  -35.6210 C   0  0  0  0  0  0  0  0  0  0  0  0
    0.4560   25.7460  -35.8400 C   0  0  0  0  0  0  0  0  0  0  0  0
    0.6790   24.5750  -36.0160 C   0  0  0  0  0  0  0  0  0  0  0  0
    0.9680   23.1540  -36.2280 C   0  0  0  0  0  0  0  0  0  0  0  0
    0.8420   22.4290  -35.0070 O   0  0  0  0  0  0  0  0  0  0  0  0
    0.5650   21.0570  -34.9480 C   0  0  0  0  0  0  0  0  0  0  0  0
    1.2740   20.2420  -35.6010 O   0  0  0  0  0  0  0  0  0  0  0  0
   -0.5370   20.5850  -34.1510 N   0  0  0  0  0  0  0  0  0  0  0  0
   -0.8850   19.1590  -34.1000 C   0  0  0  0  0  0  0  0  0  0  0  0
   -2.4020   18.9890  -34.2200 C   0  0  0  0  0  0  0  0  0  0  0  0
   -3.1280   19.8810  -33.3000 N   0  0  0  0  0  0  0  0  0  0  0  0
   -4.5420   19.6880  -33.0670 C   0  0  0  0  0  0  0  0  0  0  0  0
   -4.9810   18.5350  -32.4860 N   0  0  0  0  0  0  0  0  0  0  0  0
   -6.3000   18.3160  -32.2490 C   0  0  0  0  0  0  0  0  0  0  0  0
   -7.2360   19.2820  -32.6050 C   0  0  0  0  0  0  0  0  0  0  0  0
   -9.0960   19.0070  -32.2730 Br  0  0  0  0  0  0  0  0  0  0  0  0
   -6.7820   20.4600  -33.1980 C   0  0  0  0  0  0  0  0  0  0  0  0
   -5.4540   20.6450  -33.4190 N   0  0  0  0  0  0  0  0  0  0  0  0
   -2.3820   20.8680  -32.5040 C   0  0  0  0  0  0  0  0  0  0  0  0
   -1.3090   21.5530  -33.3600 C   0  0  0  0  0  0  0  0  0  0  0  0
   -0.1210   30.9030  -36.1534 H   0  0  0  0  0  0  0  0  0  0  0  0
    0.3490   29.9415  -37.5961 H   0  0  0  0  0  0  0  0  0  0  0  0
   -1.1906   30.8668  -37.5961 H   0  0  0  0  0  0  0  0  0  0  0  0
   -1.2802   29.1596  -35.3124 H   0  0  0  0  0  0  0  0  0  0  0  0
   -2.2367   29.0254  -36.8368 H   0  0  0  0  0  0  0  0  0  0  0  0
   -0.5560   26.1475  -38.0327 H   0  0  0  0  0  0  0  0  0  0  0  0
   -2.0411   26.4272  -36.9918 H   0  0  0  0  0  0  0  0  0  0  0  0
   -2.7499   28.2485  -38.4080 H   0  0  0  0  0  0  0  0  0  0  0  0
   -1.2663   28.1049  -39.4106 H   0  0  0  0  0  0  0  0  0  0  0  0
   -2.4818   26.7823  -39.4106 H   0  0  0  0  0  0  0  0  0  0  0  0
    1.1609   27.6915  -35.4757 H   0  0  0  0  0  0  0  0  0  0  0  0
   -0.4499   27.2671  -34.7364 H   0  0  0  0  0  0  0  0  0  0  0  0
    0.2599   22.7470  -36.9649 H   0  0  0  0  0  0  0  0  0  0  0  0
    1.9997   23.0528  -36.5958 H   0  0  0  0  0  0  0  0  0  0  0  0
   -0.3920   18.6332  -34.9310 H   0  0  0  0  0  0  0  0  0  0  0  0
   -0.5477   18.7376  -33.1415 H   0  0  0  0  0  0  0  0  0  0  0  0
   -2.7053   19.2191  -35.2520 H   0  0  0  0  0  0  0  0  0  0  0  0
   -2.6511   17.9506  -33.9562 H   0  0  0  0  0  0  0  0  0  0  0  0
   -6.6275   17.3779  -31.7771 H   0  0  0  0  0  0  0  0  0  0  0  0
   -7.5005   21.2410  -33.4874 H   0  0  0  0  0  0  0  0  0  0  0  0
   -5.1510   21.5470  -33.8490 H   0  0  0  0  0  0  0  0  0  0  0  0
   -3.0805   21.6280  -32.1238 H   0  0  0  0  0  0  0  0  0  0  0  0
   -1.8905   20.3499  -31.6673 H   0  0  0  0  0  0  0  0  0  0  0  0
   -1.7990   22.2610  -34.0446 H   0  0  0  0  0  0  0  0  0  0  0  0
   -0.6136   22.0713  -32.6834 H   0  0  0  0  0  0  0  0  0  0  0  0
  1  2  1  0
  2  3  1  0
  3  4  1  0
  4  5  1  0
  3  6  1  0
  6  7  1  0
  7  8  3  0
  8  9  1  0
  9 10  1  0
 10 11  1  0
 11 12  2  0
 11 13  1  0
 13 14  1  0
 14 15  1  0
 15 16  1  0
 16 17  1  0
 17 18  2  0
 18 19  1  0
 19 20  2  0
 20 21  1  0
 20 22  1  0
 22 23  2  0
 16 24  1  0
 24 25  1  0
 25 13  1  0
 23 17  1  0
  1 26  1  0
  1 27  1  0
  1 28  1  0
  2 29  1  0
  2 30  1  0
  4 31  1  0
  4 32  1  0
  5 33  1  0
  5 34  1  0
  5 35  1  0
  6 36  1  0
  6 37  1  0
  9 38  1  0
  9 39  1  0
 14 40  1  0
 14 41  1  0
 15 42  1  0
 15 43  1  0
 19 44  1  0
 22 45  1  0
 23 46  1  0
 24 47  1  0
 24 48  1  0
 25 49  1  0
 25 50  1  0
M  CHG  1  23   1
M  END
>  <UniqueID>  (17) 
16

>  <SMILES>  (17) 
CCN(CC)CC#CCOC(=O)N1CCN(c2ncc(Br)c[nH+]2)CC1

>  <Energy>  (17) 
47.96230613719275

>  <Genealogy>  (17) 
CCN(CC)CC#CCOC(=O)N1CCN(c2ncc(Br)c[nH+]2)CC1 (protonated)
CCN(CC)CC#CCOC(=O)N1CCN(c2ncc(Br)c[nH+]2)CC1 (3D coordinates assigned)
CCN(CC)CC#CCOC(=O)N1CCN(c2ncc(Br)c[nH+]2)CC1 (nonaromatic ring conformer: 47.96230613719275 kcal/mol)

>  <smiles>  (17) 
CCN(CC)CC#CCOC(=O)N1CCN(c2ncc(Br)cn2)CC1

>  <score_type>  (17) 
oracle

>  <origin>  (17) 
adg

>  <m_score__min__energy>  (17) 
-6.9400000000000004

>  <m_primary>  (17) 
energy

$$$$
17:0
     RDKit          3D

 48 49  0  0  0  0  0  0  0  0999 V2000
   -8.2520   18.1530  -32.0230 C   0  0  0  0  0  0  0  0  0  0  0  0
   -6.9160   18.0080  -32.6380 N   0  0  0  0  0  0  0  0  0  0  0  0
   -6.8600   16.7660  -33.4320 C   0  0  0  0  0  0  0  0  0  0  0  0
   -6.5070   19.2430  -33.3800 C   0  0  0  0  0  0  0  0  0  0  0  0
   -7.0100   20.5470  -32.7010 C   0  0  0  0  0  0  0  0  0  0  0  0
   -6.0790   21.1140  -31.6040 C   0  0  0  0  0  0  0  0  0  0  0  0
   -4.7560   20.4590  -31.5820 N   0  0  0  0  0  0  0  0  0  0  0  0
   -3.8240   21.1420  -30.6560 C   0  0  0  0  0  0  0  0  0  0  0  0
   -2.8470   22.0100  -31.4500 C   0  0  0  0  0  0  0  0  0  0  0  0
   -3.0690   23.3990  -31.2110 O   0  0  0  0  0  0  0  0  0  0  0  0
   -4.2940   23.9300  -30.7850 C   0  0  0  0  0  0  0  0  0  0  0  0
   -5.3510   23.9870  -31.6430 N   0  0  0  0  0  0  0  0  0  0  0  0
   -6.5530   24.5010  -31.2780 C   0  0  0  0  0  0  0  0  0  0  0  0
   -6.7350   24.9940  -29.9880 C   0  0  0  0  0  0  0  0  0  0  0  0
   -5.6760   24.9490  -29.0810 C   0  0  0  0  0  0  0  0  0  0  0  0
   -4.4290   24.4090  -29.4630 C   0  0  0  0  0  0  0  0  0  0  0  0
   -3.2360   24.3270  -28.5190 C   0  0  0  0  0  0  0  0  0  0  0  0
   -3.5660   24.5480  -27.0400 C   0  0  0  0  0  0  0  0  0  0  0  0
   -2.6560   23.0760  -28.6440 F   0  0  0  0  0  0  0  0  0  0  0  0
   -2.3060   25.2800  -28.8960 F   0  0  0  0  0  0  0  0  0  0  0  0
   -4.2090   20.3620  -32.9450 C   0  0  0  0  0  0  0  0  0  0  0  0
   -4.9930   19.3150  -33.7500 C   0  0  0  0  0  0  0  0  0  0  0  0
   -8.1544   18.1424  -30.9274 H   0  0  0  0  0  0  0  0  0  0  0  0
   -8.7011   19.1052  -32.3419 H   0  0  0  0  0  0  0  0  0  0  0  0
   -8.8949   17.3194  -32.3419 H   0  0  0  0  0  0  0  0  0  0  0  0
   -6.2500   17.8850  -31.8380 H   0  0  0  0  0  0  0  0  0  0  0  0
   -6.8209   15.8997  -32.7553 H   0  0  0  0  0  0  0  0  0  0  0  0
   -7.7559   16.6957  -34.0664 H   0  0  0  0  0  0  0  0  0  0  0  0
   -5.9614   16.7766  -34.0664 H   0  0  0  0  0  0  0  0  0  0  0  0
   -7.0261   19.1586  -34.3461 H   0  0  0  0  0  0  0  0  0  0  0  0
   -7.1260   21.3146  -33.4803 H   0  0  0  0  0  0  0  0  0  0  0  0
   -7.9539   20.2878  -32.1992 H   0  0  0  0  0  0  0  0  0  0  0  0
   -5.9358   22.1894  -31.7858 H   0  0  0  0  0  0  0  0  0  0  0  0
   -6.5585   20.9248  -30.6323 H   0  0  0  0  0  0  0  0  0  0  0  0
   -4.3968   21.7767  -29.9639 H   0  0  0  0  0  0  0  0  0  0  0  0
   -3.2599   20.3880  -30.0873 H   0  0  0  0  0  0  0  0  0  0  0  0
   -1.8192   21.7557  -31.1518 H   0  0  0  0  0  0  0  0  0  0  0  0
   -3.0034   21.8146  -32.5211 H   0  0  0  0  0  0  0  0  0  0  0  0
   -7.3824   24.5282  -32.0000 H   0  0  0  0  0  0  0  0  0  0  0  0
   -7.7055   25.4152  -29.6870 H   0  0  0  0  0  0  0  0  0  0  0  0
   -5.8137   25.3371  -28.0610 H   0  0  0  0  0  0  0  0  0  0  0  0
   -2.8128   24.0436  -26.4169 H   0  0  0  0  0  0  0  0  0  0  0  0
   -3.5614   25.6258  -26.8204 H   0  0  0  0  0  0  0  0  0  0  0  0
   -4.5609   24.1333  -26.8204 H   0  0  0  0  0  0  0  0  0  0  0  0
   -4.2912   21.3402  -33.4414 H   0  0  0  0  0  0  0  0  0  0  0  0
   -3.1526   20.0601  -32.8905 H   0  0  0  0  0  0  0  0  0  0  0  0
   -4.9081   19.5635  -34.8182 H   0  0  0  0  0  0  0  0  0  0  0  0
   -4.5570   18.3338  -33.5110 H   0  0  0  0  0  0  0  0  0  0  0  0
  1  2  1  0
  2  3  1  0
  2  4  1  0
  4  5  1  0
  5  6  1  0
  6  7  1  0
  7  8  1  0
  8  9  1  0
  9 10  1  0
 10 11  1  0
 11 12  2  0
 12 13  1  0
 13 14  2  0
 14 15  1  0
 15 16  2  0
 16 17  1  0
 17 18  1  0
 17 19  1  0
 17 20  1  0
  7 21  1  0
 21 22  1  0
 22  4  1  0
 16 11  1  0
  1 23  1  0
  1 24  1  0
  1 25  1  0
  2 26  1  0
  3 27  1  0
  3 28  1  0
  3 29  1  0
  4 30  1  0
  5 31  1  0
  5 32  1  0
  6 33  1  0
  6 34  1  0
  8 35  1  0
  8 36  1  0
  9 37  1  0
  9 38  1  0
 13 39  1  0
 14 40  1  0
 15 41  1  0
 18 42  1  0
 18 43  1  0
 18 44  1  0
 21 45  1  0
 21 46  1  0
 22 47  1  0
 22 48  1  0
M  CHG  1   2   1
M  END
>  <UniqueID>  (18) 
17

>  <SMILES>  (18) 
C[NH+](C)C1CCN(CCOc2ncccc2C(C)(F)F)CC1

>  <Energy>  (18) 
61.238668345953954

>  <Genealogy>  (18) 
C[NH+](C)C1CCN(CCOc2ncccc2C(C)(F)F)CC1 (protonated)
C[NH+](C)C1CCN(CCOc2ncccc2C(C)(F)F)CC1 (3D coordinates assigned)
C[NH+](C)C1CCN(CCOc2ncccc2C(C)(F)F)CC1 (nonaromatic ring conformer: 61.238668345953954 kcal/mol)

>  <smiles>  (18) 
CN(C)C1CCN(CCOc2ncccc2C(C)(F)F)CC1

>  <score_type>  (18) 
oracle

>  <origin>  (18) 
adg

>  <m_score__min__energy>  (18) 
-7.0599999999999996

>  <m_primary>  (18) 
energy

$$$$
18:0
     RDKit          3D

 40 41  0  0  0  0  0  0  0  0999 V2000
   -0.0320   25.4350  -36.4880 C   0  0  0  0  0  0  0  0  0  0  0  0
    0.8370   24.4010  -35.7830 C   0  0  0  0  0  0  0  0  0  0  0  0
    0.2460   23.0650  -35.9410 N   0  0  0  0  0  0  0  0  0  0  0  0
    1.1980   21.9930  -35.6110 C   0  0  0  0  0  0  0  0  0  0  0  0
    0.9470   21.3830  -34.2170 C   0  0  0  0  0  0  0  0  0  0  0  0
   -0.5000   21.3080  -33.9230 N   0  0  0  0  0  0  0  0  0  0  0  0
   -1.1340   20.1320  -34.5760 C   0  0  0  0  0  0  0  0  0  0  0  0
   -2.3830   19.5970  -33.8410 C   0  0  0  0  0  0  0  0  0  0  0  0
   -3.0390   20.6450  -33.0450 N   0  0  0  0  0  0  0  0  0  0  0  0
   -4.4710   20.6300  -32.8700 C   0  0  0  0  0  0  0  0  0  0  0  0
   -5.1370   21.7410  -32.3210 C   0  0  0  0  0  0  0  0  0  0  0  0
   -6.5260   21.7260  -32.1590 C   0  0  0  0  0  0  0  0  0  0  0  0
   -7.2640   20.6030  -32.5420 C   0  0  0  0  0  0  0  0  0  0  0  0
   -9.0060   20.5860  -32.3370 Cl  0  0  0  0  0  0  0  0  0  0  0  0
   -6.6130   19.4940  -33.0890 C   0  0  0  0  0  0  0  0  0  0  0  0
   -5.2250   19.5060  -33.2540 C   0  0  0  0  0  0  0  0  0  0  0  0
   -2.2240   21.5370  -32.2110 C   0  0  0  0  0  0  0  0  0  0  0  0
   -0.7340   21.3200  -32.4690 C   0  0  0  0  0  0  0  0  0  0  0  0
   -0.5499   26.0512  -35.7383 H   0  0  0  0  0  0  0  0  0  0  0  0
    0.6008   26.0780  -37.1174 H   0  0  0  0  0  0  0  0  0  0  0  0
   -0.7743   24.9223  -37.1174 H   0  0  0  0  0  0  0  0  0  0  0  0
    1.8449   24.4092  -36.2236 H   0  0  0  0  0  0  0  0  0  0  0  0
    0.8991   24.6470  -34.7127 H   0  0  0  0  0  0  0  0  0  0  0  0
   -0.5950   22.9870  -35.3210 H   0  0  0  0  0  0  0  0  0  0  0  0
    1.1072   21.1972  -36.3650 H   0  0  0  0  0  0  0  0  0  0  0  0
    2.2058   22.4338  -35.6044 H   0  0  0  0  0  0  0  0  0  0  0  0
    1.3731   20.3694  -34.1861 H   0  0  0  0  0  0  0  0  0  0  0  0
    1.4245   22.0256  -33.4627 H   0  0  0  0  0  0  0  0  0  0  0  0
   -1.4308   20.4215  -35.5949 H   0  0  0  0  0  0  0  0  0  0  0  0
   -0.3887   19.3231  -34.5630 H   0  0  0  0  0  0  0  0  0  0  0  0
   -3.0976   19.2152  -34.5850 H   0  0  0  0  0  0  0  0  0  0  0  0
   -2.0609   18.7988  -33.1561 H   0  0  0  0  0  0  0  0  0  0  0  0
   -4.5612   22.6276  -32.0171 H   0  0  0  0  0  0  0  0  0  0  0  0
   -7.0383   22.5995  -31.7295 H   0  0  0  0  0  0  0  0  0  0  0  0
   -7.1940   18.6099  -33.3903 H   0  0  0  0  0  0  0  0  0  0  0  0
   -4.7188   18.6307  -33.6870 H   0  0  0  0  0  0  0  0  0  0  0  0
   -2.4808   22.5810  -32.4438 H   0  0  0  0  0  0  0  0  0  0  0  0
   -2.4321   21.3148  -31.1540 H   0  0  0  0  0  0  0  0  0  0  0  0
   -0.1567   22.1352  -32.0085 H   0  0  0  0  0  0  0  0  0  0  0  0
   -0.4149   20.3625  -32.0316 H   0  0  0  0  0  0  0  0  0  0  0  0
  1  2  1  0
  2  3  1  0
  3  4  1  0
  4  5  1  0
  5  6  1  0
  6  7  1  0
  7  8  1  0
  8  9  1  0
  9 10  1  0
 10 11  2  0
 11 12  1  0
 12 13  2  0
 13 14  1  0
 13 15  1  0
 15 16  2  0
  9 17  1  0
 17 18  1  0
 18  6  1  0
 16 10  1  0
  1 19  1  0
  1 20  1  0
  1 21  1  0
  2 22  1  0
  2 23  1  0
  3 24  1  0
  4 25  1  0
  4 26  1  0
  5 27  1  0
  5 28  1  0
  7 29  1  0
  7 30  1  0
  8 31  1  0
  8 32  1  0
 11 33  1  0
 12 34  1  0
 15 35  1  0
 16 36  1  0
 17 37  1  0
 17 38  1  0
 18 39  1  0
 18 40  1  0
M  END
>  <UniqueID>  (19) 
18

>  <SMILES>  (19) 
CCNCCN1CCN(c2ccc(Cl)cc2)CC1

>  <Energy>  (19) 
44.87291602695344

>  <Genealogy>  (19) 
CCNCCN1CCN(c2ccc(Cl)cc2)CC1 (3D coordinates assigned)
CCNCCN1CCN(c2ccc(Cl)cc2)CC1 (nonaromatic ring conformer: 44.87291602695344 kcal/mol)

>  <smiles>  (19) 
CCNCCN1CCN(c2ccc(Cl)cc2)CC1

>  <score_type>  (19) 
oracle

>  <origin>  (19) 
adg

>  <m_score__min__energy>  (19) 
-7.54

>  <m_primary>  (19) 
energy

$$$$
19:0
     RDKit          3D

 55 58  0  0  0  0  0  0  0  0999 V2000
   -2.8200   24.3680  -29.3310 C   0  0  0  0  0  0  0  0  0  0  0  0
   -3.8620   24.6140  -30.4160 C   0  0  0  0  0  0  0  0  0  0  0  0
   -4.9990   23.6720  -30.2770 N   0  0  0  0  0  0  0  0  0  0  0  0
   -6.1650   24.3940  -29.7310 C   0  0  0  0  0  0  0  0  0  0  0  0
   -4.6160   22.5370  -29.3990 C   0  0  0  0  0  0  0  0  0  0  0  0
   -4.1280   21.2990  -30.1770 C   0  0  0  0  0  0  0  0  0  0  0  0
   -4.3210   21.4110  -31.6270 N   0  0  0  0  0  0  0  0  0  0  0  0
   -3.7660   20.4910  -32.5810 C   0  0  0  0  0  0  0  0  0  0  0  0
   -2.3770   20.4710  -32.8500 C   0  0  0  0  0  0  0  0  0  0  0  0
   -1.5330   21.4910  -32.3710 C   0  0  0  0  0  0  0  0  0  0  0  0
   -0.1610   21.4520  -32.6080 C   0  0  0  0  0  0  0  0  0  0  0  0
    0.3910   20.4100  -33.3440 C   0  0  0  0  0  0  0  0  0  0  0  0
   -0.4250   19.4070  -33.8670 C   0  0  0  0  0  0  0  0  0  0  0  0
   -1.8250   19.4180  -33.6460 C   0  0  0  0  0  0  0  0  0  0  0  0
   -2.6480   18.4470  -34.1870 N   0  0  0  0  0  0  0  0  0  0  0  0
   -2.0920   17.3310  -34.9750 C   0  0  0  0  0  0  0  0  0  0  0  0
   -4.0010   18.5570  -34.0000 C   0  0  0  0  0  0  0  0  0  0  0  0
   -5.2040   17.5350  -34.5910 S   0  0  0  0  0  0  0  0  0  0  0  0
   -6.4940   18.3510  -33.8890 C   0  0  0  0  0  0  0  0  0  0  0  0
   -6.0020   19.4480  -33.1850 C   0  0  0  0  0  0  0  0  0  0  0  0
   -6.9270   20.4020  -32.5430 C   0  0  0  0  0  0  0  0  0  0  0  0
   -6.7150   21.7740  -32.7470 C   0  0  0  0  0  0  0  0  0  0  0  0
   -7.5820   22.7170  -32.1940 C   0  0  0  0  0  0  0  0  0  0  0  0
   -8.6610   22.2990  -31.4160 C   0  0  0  0  0  0  0  0  0  0  0  0
   -8.8670   20.9400  -31.1750 C   0  0  0  0  0  0  0  0  0  0  0  0
   -7.9970   19.9740  -31.7130 C   0  0  0  0  0  0  0  0  0  0  0  0
   -8.2300   18.5810  -31.4210 N   0  0  0  0  0  0  0  0  0  0  0  0
   -7.3370   17.8730  -30.9140 O   0  0  0  0  0  0  0  0  0  0  0  0
   -9.4870   18.0440  -31.5790 O   0  0  0  0  0  0  0  0  0  0  0  0
   -4.5870   19.5560  -33.2310 C   0  0  0  0  0  0  0  0  0  0  0  0
   -3.2878   24.4784  -28.3416 H   0  0  0  0  0  0  0  0  0  0  0  0
   -2.4165   23.3499  -29.4342 H   0  0  0  0  0  0  0  0  0  0  0  0
   -2.0038   25.0981  -29.4342 H   0  0  0  0  0  0  0  0  0  0  0  0
   -4.2354   25.6452  -30.3304 H   0  0  0  0  0  0  0  0  0  0  0  0
   -3.3922   24.4574  -31.3982 H   0  0  0  0  0  0  0  0  0  0  0  0
   -6.1285   24.3714  -28.6318 H   0  0  0  0  0  0  0  0  0  0  0  0
   -6.1449   25.4379  -30.0771 H   0  0  0  0  0  0  0  0  0  0  0  0
   -7.0905   23.9107  -30.0771 H   0  0  0  0  0  0  0  0  0  0  0  0
   -3.8079   22.8700  -28.7311 H   0  0  0  0  0  0  0  0  0  0  0  0
   -5.5171   22.2373  -28.8439 H   0  0  0  0  0  0  0  0  0  0  0  0
   -3.0550   21.1618  -29.9773 H   0  0  0  0  0  0  0  0  0  0  0  0
   -4.7266   20.4422  -29.8341 H   0  0  0  0  0  0  0  0  0  0  0  0
   -4.7860   22.2710  -31.9900 H   0  0  0  0  0  0  0  0  0  0  0  0
   -1.9624   22.3291  -31.8025 H   0  0  0  0  0  0  0  0  0  0  0  0
    0.4872   22.2476  -32.2118 H   0  0  0  0  0  0  0  0  0  0  0  0
    1.4771   20.3763  -33.5149 H   0  0  0  0  0  0  0  0  0  0  0  0
    0.0242   18.5962  -34.4592 H   0  0  0  0  0  0  0  0  0  0  0  0
   -1.7067   16.5576  -34.2942 H   0  0  0  0  0  0  0  0  0  0  0  0
   -2.8812   16.9010  -35.6092 H   0  0  0  0  0  0  0  0  0  0  0  0
   -1.2734   17.7020  -35.6092 H   0  0  0  0  0  0  0  0  0  0  0  0
   -7.5532   18.0659  -33.9717 H   0  0  0  0  0  0  0  0  0  0  0  0
   -5.8572   22.1092  -33.3485 H   0  0  0  0  0  0  0  0  0  0  0  0
   -7.4144   23.7895  -32.3717 H   0  0  0  0  0  0  0  0  0  0  0  0
   -9.3516   23.0424  -30.9911 H   0  0  0  0  0  0  0  0  0  0  0  0
   -9.7193   20.6204  -30.5574 H   0  0  0  0  0  0  0  0  0  0  0  0
  1  2  1  0
  2  3  1  0
  3  4  1  0
  3  5  1  0
  5  6  1  0
  6  7  1  0
  7  8  1  0
  8  9  2  0
  9 10  1  0
 10 11  2  0
 11 12  1  0
 12 13  2  0
 13 14  1  0
 14 15  2  0
 15 16  1  0
 15 17  1  0
 17 18  1  0
 18 19  1  0
 19 20  2  0
 20 21  1  0
 21 22  2  0
 22 23  1  0
 23 24  2  0
 24 25  1  0
 25 26  2  0
 26 27  1  0
 27 28  2  0
 27 29  1  0
 20 30  1  0
 30  8  1  0
 14  9  1  0
 30 17  2  0
 26 21  1  0
  1 31  1  0
  1 32  1  0
  1 33  1  0
  2 34  1  0
  2 35  1  0
  4 36  1  0
  4 37  1  0
  4 38  1  0
  5 39  1  0
  5 40  1  0
  6 41  1  0
  6 42  1  0
  7 43  1  0
 10 44  1  0
 11 45  1  0
 12 46  1  0
 13 47  1  0
 16 48  1  0
 16 49  1  0
 16 50  1  0
 19 51  1  0
 22 52  1  0
 23 53  1  0
 24 54  1  0
 25 55  1  0
M  CHG  3  15   1  27   1  29  -1
M  END
>  <UniqueID>  (20) 
19

>  <SMILES>  (20) 
CCN(C)CCNc1c2ccccc2[n+](C)c2scc(-c3ccccc3[N+](=O)[O-])c12

>  <Energy>  (20) 
114.37570801451862

>  <Genealogy>  (20) 
CCN(C)CCNc1c2ccccc2[n+](C)c2scc(-c3ccccc3[N+](=O)[O-])c12 (3D coordinates assigned)
CCN(C)CCNc1c2ccccc2[n+](C)c2scc(-c3ccccc3[N+](=O)[O-])c12 (optimized conformer: 114.37570801451862 kcal/mol)

>  <smiles>  (20) 
CCN(C)CCNc1c2ccccc2[n+](C)c2scc(-c3ccccc3[N+](=O)[O-])c12

>  <score_type>  (20) 
oracle

>  <origin>  (20) 
adg

>  <m_score__min__energy>  (20) 
-8.5299999999999994

>  <m_primary>  (20) 
energy

$$$$
20:0
     RDKit          3D

 60 62  0  0  0  0  0  0  0  0999 V2000
    1.0690   27.9570  -22.5900 N   0  0  0  0  0  0  0  0  0  0  0  0
    1.7970   27.8340  -23.8500 C   0  0  0  0  0  0  0  0  0  0  0  0
    1.4270   26.5300  -24.5690 C   0  0  0  0  0  0  0  0  0  0  0  0
    0.5090   25.7100  -23.7570 N   0  0  0  0  0  0  0  0  0  0  0  0
   -0.8860   25.8290  -24.2150 C   0  0  0  0  0  0  0  0  0  0  0  0
   -1.1230   25.0790  -25.5050 C   0  0  0  0  0  0  0  0  0  0  0  0
   -1.6360   25.7460  -26.6260 C   0  0  0  0  0  0  0  0  0  0  0  0
   -1.8330   25.0620  -27.8280 C   0  0  0  0  0  0  0  0  0  0  0  0
   -1.5160   23.6950  -27.9320 C   0  0  0  0  0  0  0  0  0  0  0  0
   -1.7240   22.9670  -29.2110 C   0  0  0  0  0  0  0  0  0  0  0  0
   -0.7410   22.0900  -29.7020 C   0  0  0  0  0  0  0  0  0  0  0  0
   -0.9400   21.4030  -30.9020 C   0  0  0  0  0  0  0  0  0  0  0  0
   -2.1150   21.5900  -31.6310 C   0  0  0  0  0  0  0  0  0  0  0  0
   -3.0990   22.4780  -31.1700 C   0  0  0  0  0  0  0  0  0  0  0  0
   -4.3620   22.6790  -31.9640 C   0  0  0  0  0  0  0  0  0  0  0  0
   -5.5520   22.1630  -31.2610 N   0  0  0  0  0  0  0  0  0  0  0  0
   -6.4450   21.2560  -32.0280 C   0  0  0  0  0  0  0  0  0  0  0  0
   -7.9290   21.4080  -31.5650 C   0  0  0  0  0  0  0  0  0  0  0  0
   -8.9660   20.5820  -32.3490 C   0  0  0  0  0  0  0  0  0  0  0  0
   -9.1240   19.1190  -31.8820 C   0  0  0  0  0  0  0  0  0  0  0  0
   -7.9550   18.1780  -32.2160 C   0  0  0  0  0  0  0  0  0  0  0  0
   -6.7890   18.8470  -32.9580 C   0  0  0  0  0  0  0  0  0  0  0  0
   -5.9120   19.7980  -32.1200 C   0  0  0  0  0  0  0  0  0  0  0  0
   -2.9080   23.1470  -29.9510 C   0  0  0  0  0  0  0  0  0  0  0  0
   -0.9960   23.0310  -26.8060 C   0  0  0  0  0  0  0  0  0  0  0  0
   -0.8010   23.7180  -25.6050 C   0  0  0  0  0  0  0  0  0  0  0  0
    1.7440   27.7720  -21.8130 H   0  0  0  0  0  0  0  0  0  0  0  0
    0.7610   28.9520  -22.4860 H   0  0  0  0  0  0  0  0  0  0  0  0
    1.5441   28.6868  -24.4972 H   0  0  0  0  0  0  0  0  0  0  0  0
    2.8755   27.8233  -23.6340 H   0  0  0  0  0  0  0  0  0  0  0  0
    0.9391   26.7739  -25.5242 H   0  0  0  0  0  0  0  0  0  0  0  0
    2.3488   25.9539  -24.7376 H   0  0  0  0  0  0  0  0  0  0  0  0
    0.5740   25.9890  -22.7490 H   0  0  0  0  0  0  0  0  0  0  0  0
    0.7900   24.7050  -23.8380 H   0  0  0  0  0  0  0  0  0  0  0  0
   -1.5507   25.4208  -23.4394 H   0  0  0  0  0  0  0  0  0  0  0  0
   -1.0947   26.8936  -24.3971 H   0  0  0  0  0  0  0  0  0  0  0  0
   -1.8852   26.8153  -26.5588 H   0  0  0  0  0  0  0  0  0  0  0  0
   -2.2390   25.5961  -28.6998 H   0  0  0  0  0  0  0  0  0  0  0  0
    0.1915   21.9437  -29.1372 H   0  0  0  0  0  0  0  0  0  0  0  0
   -0.1682   20.7127  -31.2733 H   0  0  0  0  0  0  0  0  0  0  0  0
   -2.2705   21.0394  -32.5705 H   0  0  0  0  0  0  0  0  0  0  0  0
   -4.4978   23.7552  -32.1467 H   0  0  0  0  0  0  0  0  0  0  0  0
   -4.2596   22.1219  -32.9069 H   0  0  0  0  0  0  0  0  0  0  0  0
   -6.1180   22.9940  -30.9660 H   0  0  0  0  0  0  0  0  0  0  0  0
   -6.4360   21.5771  -33.0801 H   0  0  0  0  0  0  0  0  0  0  0  0
   -7.9854   21.1050  -30.5090 H   0  0  0  0  0  0  0  0  0  0  0  0
   -8.1904   22.4614  -31.7441 H   0  0  0  0  0  0  0  0  0  0  0  0
   -9.9425   21.0787  -32.2508 H   0  0  0  0  0  0  0  0  0  0  0  0
   -8.6014   20.5357  -33.3858 H   0  0  0  0  0  0  0  0  0  0  0  0
   -9.2498   19.1257  -30.7892 H   0  0  0  0  0  0  0  0  0  0  0  0
   -9.9912   18.7231  -32.4309 H   0  0  0  0  0  0  0  0  0  0  0  0
   -7.5689   17.7624  -31.2736 H   0  0  0  0  0  0  0  0  0  0  0  0
   -8.3564   17.4098  -32.8934 H   0  0  0  0  0  0  0  0  0  0  0  0
   -6.1403   18.0512  -33.3528 H   0  0  0  0  0  0  0  0  0  0  0  0
   -7.2521   19.4758  -33.7327 H   0  0  0  0  0  0  0  0  0  0  0  0
   -5.8437   19.3924  -31.0998 H   0  0  0  0  0  0  0  0  0  0  0  0
   -4.9378   19.8532  -32.6279 H   0  0  0  0  0  0  0  0  0  0  0  0
   -3.6914   23.8187  -29.5700 H   0  0  0  0  0  0  0  0  0  0  0  0
   -0.7410   21.9630  -26.8716 H   0  0  0  0  0  0  0  0  0  0  0  0
   -0.3922   23.1877  -24.7323 H   0  0  0  0  0  0  0  0  0  0  0  0
  1  2  1  0
  2  3  1  0
  3  4  1  0
  4  5  1  0
  5  6  1  0
  6  7  2  0
  7  8  1  0
  8  9  2  0
  9 10  1  0
 10 11  2  0
 11 12  1  0
 12 13  2  0
 13 14  1  0
 14 15  1  0
 15 16  1  0
 16 17  1  0
 17 18  1  0
 18 19  1  0
 19 20  1  0
 20 21  1  0
 21 22  1  0
 22 23  1  0
 14 24  2  0
  9 25  1  0
 25 26  2  0
 26  6  1  0
 24 10  1  0
 23 17  1  0
  1 27  1  0
  1 28  1  0
  2 29  1  0
  2 30  1  0
  3 31  1  0
  3 32  1  0
  4 33  1  0
  4 34  1  0
  5 35  1  0
  5 36  1  0
  7 37  1  0
  8 38  1  0
 11 39  1  0
 12 40  1  0
 13 41  1  0
 15 42  1  0
 15 43  1  0
 16 44  1  0
 17 45  1  0
 18 46  1  0
 18 47  1  0
 19 48  1  0
 19 49  1  0
 20 50  1  0
 20 51  1  0
 21 52  1  0
 21 53  1  0
 22 54  1  0
 22 55  1  0
 23 56  1  0
 23 57  1  0
 24 58  1  0
 25 59  1  0
 26 60  1  0
M  CHG  1   4   1
M  END
>  <UniqueID>  (21) 
20

>  <SMILES>  (21) 
NCC[NH2+]Cc1ccc(-c2cccc(CNC3CCCCCC3)c2)cc1

>  <Energy>  (21) 
73.3374623761102

>  <Genealogy>  (21) 
NCC[NH2+]Cc1ccc(-c2cccc(CNC3CCCCCC3)c2)cc1 (protonated)
NCC[NH2+]Cc1ccc(-c2cccc(CNC3CCCCCC3)c2)cc1 (3D coordinates assigned)
NCC[NH2+]Cc1ccc(-c2cccc(CNC3CCCCCC3)c2)cc1 (nonaromatic ring conformer: 73.3374623761102 kcal/mol)

>  <smiles>  (21) 
NCCNCc1ccc(-c2cccc(CNC3CCCCCC3)c2)cc1

>  <score_type>  (21) 
oracle

>  <origin>  (21) 
adg

>  <m_score__min__energy>  (21) 
-7.6900000000000004

>  <m_primary>  (21) 
energy

$$$$
21:0
     RDKit          3D

 55 56  0  0  0  0  0  0  0  0999 V2000
   -9.2410   21.7980  -31.0250 C   0  0  0  0  0  0  0  0  0  0  0  0
   -8.4320   22.9240  -31.6640 C   0  0  0  0  0  0  0  0  0  0  0  0
   -6.9980   22.7940  -31.3400 N   0  0  0  0  0  0  0  0  0  0  0  0
   -6.4180   23.6660  -30.3020 C   0  0  0  0  0  0  0  0  0  0  0  0
   -5.9080   24.9690  -30.9100 C   0  0  0  0  0  0  0  0  0  0  0  0
   -6.1730   21.8040  -32.0120 C   0  0  0  0  0  0  0  0  0  0  0  0
   -4.7720   21.9420  -32.0500 C   0  0  0  0  0  0  0  0  0  0  0  0
   -3.9830   21.0070  -32.7190 C   0  0  0  0  0  0  0  0  0  0  0  0
   -4.5720   19.9110  -33.3640 C   0  0  0  0  0  0  0  0  0  0  0  0
   -5.9750   19.7600  -33.3550 C   0  0  0  0  0  0  0  0  0  0  0  0
   -6.7580   20.6970  -32.6560 C   0  0  0  0  0  0  0  0  0  0  0  0
   -6.6020   18.6280  -34.0110 N   0  0  0  0  0  0  0  0  0  0  0  0
   -6.1970   17.2790  -33.5260 C   0  0  0  0  0  0  0  0  0  0  0  0
   -4.8260   16.7550  -34.0240 C   0  0  0  0  0  0  0  0  0  0  0  0
   -3.6800   17.6110  -33.6120 N   0  0  0  0  0  0  0  0  0  0  0  0
   -2.3870   16.9530  -33.9190 C   0  0  0  0  0  0  0  0  0  0  0  0
   -1.1830   17.7810  -33.4190 C   0  0  0  0  0  0  0  0  0  0  0  0
   -0.4990   18.5580  -34.5540 C   0  0  0  0  0  0  0  0  0  0  0  0
    0.0600   19.8300  -34.0380 N   0  0  0  0  0  0  0  0  0  0  0  0
    0.0080   20.8830  -35.0690 C   0  0  0  0  0  0  0  0  0  0  0  0
   -0.6860   20.2730  -32.8480 C   0  0  0  0  0  0  0  0  0  0  0  0
   -3.7250   18.9760  -34.1900 C   0  0  0  0  0  0  0  0  0  0  0  0
   -9.1820   21.8801  -29.9297 H   0  0  0  0  0  0  0  0  0  0  0  0
  -10.2913   21.8754  -31.3425 H   0  0  0  0  0  0  0  0  0  0  0  0
   -8.8325   20.8272  -31.3425 H   0  0  0  0  0  0  0  0  0  0  0  0
   -8.5593   22.8837  -32.7559 H   0  0  0  0  0  0  0  0  0  0  0  0
   -8.7951   23.8844  -31.2692 H   0  0  0  0  0  0  0  0  0  0  0  0
   -7.1893   23.8958  -29.5522 H   0  0  0  0  0  0  0  0  0  0  0  0
   -5.5722   23.1413  -29.8338 H   0  0  0  0  0  0  0  0  0  0  0  0
   -5.6348   25.6670  -30.1049 H   0  0  0  0  0  0  0  0  0  0  0  0
   -5.0244   24.7624  -31.5317 H   0  0  0  0  0  0  0  0  0  0  0  0
   -6.6971   25.4171  -31.5317 H   0  0  0  0  0  0  0  0  0  0  0  0
   -4.2953   22.7961  -31.5468 H   0  0  0  0  0  0  0  0  0  0  0  0
   -2.8902   21.1305  -32.7407 H   0  0  0  0  0  0  0  0  0  0  0  0
   -7.8488   20.5620  -32.6118 H   0  0  0  0  0  0  0  0  0  0  0  0
   -6.4140   18.6690  -35.0420 H   0  0  0  0  0  0  0  0  0  0  0  0
   -7.6410   18.7350  -33.9160 H   0  0  0  0  0  0  0  0  0  0  0  0
   -6.1638   17.3137  -32.4270 H   0  0  0  0  0  0  0  0  0  0  0  0
   -6.9440   16.5830  -33.9352 H   0  0  0  0  0  0  0  0  0  0  0  0
   -4.6704   15.7448  -33.6174 H   0  0  0  0  0  0  0  0  0  0  0  0
   -4.8564   16.7609  -35.1236 H   0  0  0  0  0  0  0  0  0  0  0  0
   -2.3662   15.9667  -33.4325 H   0  0  0  0  0  0  0  0  0  0  0  0
   -2.3045   16.8596  -35.0119 H   0  0  0  0  0  0  0  0  0  0  0  0
   -1.5359   18.4973  -32.6624 H   0  0  0  0  0  0  0  0  0  0  0  0
   -0.4456   17.0822  -32.9972 H   0  0  0  0  0  0  0  0  0  0  0  0
    0.3140   17.9475  -34.9740 H   0  0  0  0  0  0  0  0  0  0  0  0
   -1.2413   18.7821  -35.3342 H   0  0  0  0  0  0  0  0  0  0  0  0
   -0.0407   21.8690  -34.5839 H   0  0  0  0  0  0  0  0  0  0  0  0
    0.9100   20.8270  -35.6961 H   0  0  0  0  0  0  0  0  0  0  0  0
   -0.8841   20.7384  -35.6961 H   0  0  0  0  0  0  0  0  0  0  0  0
   -0.1512   19.9554  -31.9407 H   0  0  0  0  0  0  0  0  0  0  0  0
   -0.7734   21.3695  -32.8572 H   0  0  0  0  0  0  0  0  0  0  0  0
   -1.6906   19.8250  -32.8572 H   0  0  0  0  0  0  0  0  0  0  0  0
   -2.7010   19.3747  -34.2397 H   0  0  0  0  0  0  0  0  0  0  0  0
   -4.1737   18.9063  -35.1919 H   0  0  0  0  0  0  0  0  0  0  0  0
  1  2  1  0
  2  3  1  0
  3  4  1  0
  4  5  1  0
  3  6  1  0
  6  7  2  0
  7  8  1  0
  8  9  2  0
  9 10  1  0
 10 11  2  0
 10 12  1  0
 12 13  1  0
 13 14  1  0
 14 15  1  0
 15 16  1  0
 16 17  1  0
 17 18  1  0
 18 19  1  0
 19 20  1  0
 19 21  1  0
 15 22  1  0
 11  6  1  0
 22  9  1  0
  1 23  1  0
  1 24  1  0
  1 25  1  0
  2 26  1  0
  2 27  1  0
  4 28  1  0
  4 29  1  0
  5 30  1  0
  5 31  1  0
  5 32  1  0
  7 33  1  0
  8 34  1  0
 11 35  1  0
 12 36  1  0
 12 37  1  0
 13 38  1  0
 13 39  1  0
 14 40  1  0
 14 41  1  0
 16 42  1  0
 16 43  1  0
 17 44  1  0
 17 45  1  0
 18 46  1  0
 18 47  1  0
 20 48  1  0
 20 49  1  0
 20 50  1  0
 21 51  1  0
 21 52  1  0
 21 53  1  0
 22 54  1  0
 22 55  1  0
M  CHG  1  12   1
M  END
>  <UniqueID>  (22) 
21

>  <SMILES>  (22) 
CCN(CC)c1ccc2c(c1)[NH2+]CCN(CCCN(C)C)C2

>  <Energy>  (22) 
70.76580923474171

>  <Genealogy>  (22) 
CCN(CC)c1ccc2c(c1)[NH2+]CCN(CCCN(C)C)C2 (protonated)
CCN(CC)c1ccc2c(c1)[NH2+]CCN(CCCN(C)C)C2 (3D coordinates assigned)
CCN(CC)c1ccc2c(c1)[NH2+]CCN(CCCN(C)C)C2 (nonaromatic ring conformer: 70.76580923474171 kcal/mol)

>  <smiles>  (22) 
CCN(CC)c1ccc2c(c1)NCCN(CCCN(C)C)C2

>  <score_type>  (22) 
oracle

>  <origin>  (22) 
adg

>  <m_score__min__energy>  (22) 
-4.5800000000000001

>  <m_primary>  (22) 
energy

$$$$
22:0
     RDKit          3D

 39 41  0  0  0  0  0  0  0  0999 V2000
   -5.2800   25.3690  -30.4730 C   0  0  0  0  0  0  0  0  0  0  0  0
   -3.8660   25.2050  -30.4730 O   0  0  0  0  0  0  0  0  0  0  0  0
   -3.1920   24.1480  -29.8430 C   0  0  0  0  0  0  0  0  0  0  0  0
   -2.9250   24.1490  -28.4620 C   0  0  0  0  0  0  0  0  0  0  0  0
   -2.2550   23.0670  -27.8930 C   0  0  0  0  0  0  0  0  0  0  0  0
   -1.8340   22.0100  -28.6950 C   0  0  0  0  0  0  0  0  0  0  0  0
   -2.0900   22.0430  -30.0720 C   0  0  0  0  0  0  0  0  0  0  0  0
   -1.6780   20.9500  -30.9070 N   0  0  0  0  0  0  0  0  0  0  0  0
   -0.5150   20.2840  -30.8060 C   0  0  0  0  0  0  0  0  0  0  0  0
   -0.4970   19.3020  -31.7680 C   0  0  0  0  0  0  0  0  0  0  0  0
   -1.6360   19.3520  -32.4870 N   0  0  0  0  0  0  0  0  0  0  0  0
   -2.3350   20.3660  -31.9350 C   0  0  0  0  0  0  0  0  0  0  0  0
   -3.8650   20.9050  -32.6200 S   0  0  0  0  0  0  0  0  0  0  0  0
   -3.8610   22.3290  -33.5130 O   0  0  0  0  0  0  0  0  0  0  0  0
   -5.1120   19.7020  -33.0410 C   0  0  0  0  0  0  0  0  0  0  0  0
   -6.4810   20.1770  -32.6430 C   0  0  0  0  0  0  0  0  0  0  0  0
   -6.6760   21.4970  -32.2050 C   0  0  0  0  0  0  0  0  0  0  0  0
   -7.9580   21.9450  -31.8680 C   0  0  0  0  0  0  0  0  0  0  0  0
   -9.0480   21.0740  -31.9490 C   0  0  0  0  0  0  0  0  0  0  0  0
  -10.2870   21.5070  -31.6060 F   0  0  0  0  0  0  0  0  0  0  0  0
   -8.8590   19.7550  -32.3700 C   0  0  0  0  0  0  0  0  0  0  0  0
   -7.5830   19.3080  -32.7200 C   0  0  0  0  0  0  0  0  0  0  0  0
   -2.7880   23.0890  -30.6010 N   0  0  0  0  0  0  0  0  0  0  0  0
   -5.6442   25.4112  -29.4359 H   0  0  0  0  0  0  0  0  0  0  0  0
   -5.5408   26.3034  -30.9915 H   0  0  0  0  0  0  0  0  0  0  0  0
   -5.7477   24.5191  -30.9915 H   0  0  0  0  0  0  0  0  0  0  0  0
   -3.2422   24.9963  -27.8363 H   0  0  0  0  0  0  0  0  0  0  0  0
   -2.0591   23.0485  -26.8107 H   0  0  0  0  0  0  0  0  0  0  0  0
   -1.3039   21.1547  -28.2506 H   0  0  0  0  0  0  0  0  0  0  0  0
    0.2846   20.4892  -30.0790 H   0  0  0  0  0  0  0  0  0  0  0  0
    0.3219   18.5849  -31.9267 H   0  0  0  0  0  0  0  0  0  0  0  0
   -3.1970   22.1830  -34.2310 H   0  0  0  0  0  0  0  0  0  0  0  0
   -5.0933   19.5309  -34.1274 H   0  0  0  0  0  0  0  0  0  0  0  0
   -4.8949   18.7703  -32.4980 H   0  0  0  0  0  0  0  0  0  0  0  0
   -5.8181   22.1810  -32.1266 H   0  0  0  0  0  0  0  0  0  0  0  0
   -8.1081   22.9838  -31.5390 H   0  0  0  0  0  0  0  0  0  0  0  0
   -9.7163   19.0680  -32.4258 H   0  0  0  0  0  0  0  0  0  0  0  0
   -7.4398   18.2709  -33.0575 H   0  0  0  0  0  0  0  0  0  0  0  0
   -3.0540   23.0650  -31.6090 H   0  0  0  0  0  0  0  0  0  0  0  0
  1  2  1  0
  2  3  1  0
  3  4  2  0
  4  5  1  0
  5  6  2  0
  6  7  1  0
  7  8  1  0
  8  9  1  0
  9 10  2  0
 10 11  1  0
 11 12  2  0
 12 13  1  0
 13 14  1  6
 13 15  1  0
 15 16  1  0
 16 17  2  0
 17 18  1  0
 18 19  2  0
 19 20  1  0
 19 21  1  0
 21 22  2  0
  7 23  2  0
 23  3  1  0
 12  8  1  0
 22 16  1  0
  1 24  1  0
  1 25  1  0
  1 26  1  0
  4 27  1  0
  5 28  1  0
  6 29  1  0
  9 30  1  0
 10 31  1  0
 14 32  1  0
 15 33  1  0
 15 34  1  0
 17 35  1  0
 18 36  1  0
 21 37  1  0
 22 38  1  0
 23 39  1  0
M  CHG  2  13   1  23   1
M  END
>  <UniqueID>  (23) 
22

>  <SMILES>  (23) 
COc1cccc(-n2ccnc2[S@@+](O)Cc2ccc(F)cc2)[nH+]1

>  <Energy>  (23) 
69.46910340951575

>  <Genealogy>  (23) 
COc1cccc(-n2ccnc2[S+](O)Cc2ccc(F)cc2)[nH+]1 (protonated)
COc1cccc(-n2ccnc2[S@@+](O)Cc2ccc(F)cc2)[nH+]1 (chirality)
COc1cccc(-n2ccnc2[S@@+](O)Cc2ccc(F)cc2)[nH+]1 (3D coordinates assigned)
COc1cccc(-n2ccnc2[S@@+](O)Cc2ccc(F)cc2)[nH+]1 (optimized conformer: 69.46910340951575 kcal/mol)

>  <smiles>  (23) 
COc1cccc(-n2ccnc2[S+]([O-])Cc2ccc(F)cc2)n1

>  <score_type>  (23) 
oracle

>  <origin>  (23) 
adg

>  <m_score__min__energy>  (23) 
-6.3099999999999996

>  <m_primary>  (23) 
energy

$$$$
23:0
     RDKit          3D

 61 63  0  0  0  0  0  0  0  0999 V2000
   -3.9060   20.7190  -33.0150 C   0  0  0  0  0  0  0  0  0  0  0  0
   -4.8450   21.7920  -32.5490 C   0  0  0  0  0  0  0  0  0  0  0  0
   -4.3730   22.9400  -32.3330 O   0  0  0  0  0  0  0  0  0  0  0  0
   -6.2900   21.5160  -32.3010 C   0  0  0  0  0  0  0  0  0  0  0  0
   -6.7940   20.2100  -32.4730 C   0  0  0  0  0  0  0  0  0  0  0  0
   -8.1430   19.9200  -32.2330 C   0  0  0  0  0  0  0  0  0  0  0  0
   -8.6460   18.5120  -32.3590 C   0  0  0  0  0  0  0  0  0  0  0  0
   -8.9990   20.9350  -31.7970 C   0  0  0  0  0  0  0  0  0  0  0  0
   -8.5190   22.2300  -31.6120 C   0  0  0  0  0  0  0  0  0  0  0  0
   -7.1650   22.5360  -31.8510 C   0  0  0  0  0  0  0  0  0  0  0  0
   -6.6730   23.8400  -31.6740 O   0  0  0  0  0  0  0  0  0  0  0  0
   -6.8900   24.6620  -30.5210 C   0  0  0  0  0  0  0  0  0  0  0  0
   -5.5980   25.3780  -30.0890 C   0  0  2  0  0  0  0  0  0  0  0  0
   -4.7430   25.5300  -31.1940 O   0  0  0  0  0  0  0  0  0  0  0  0
   -4.8590   24.6190  -28.9780 C   0  0  0  0  0  0  0  0  0  0  0  0
   -4.0360   23.5410  -29.5790 N   0  0  0  0  0  0  0  0  0  0  0  0
   -2.6940   23.9770  -30.0430 C   0  0  0  0  0  0  0  0  0  0  0  0
   -1.5280   23.5110  -29.1450 C   0  0  0  0  0  0  0  0  0  0  0  0
   -1.9660   23.2810  -27.7660 N   0  0  0  0  0  0  0  0  0  0  0  0
   -1.1280   23.6860  -26.6700 C   0  0  0  0  0  0  0  0  0  0  0  0
    0.0660   22.9800  -26.4060 C   0  0  0  0  0  0  0  0  0  0  0  0
    0.4710   21.8090  -27.2570 C   0  0  0  0  0  0  0  0  0  0  0  0
    0.9030   23.3960  -25.3590 C   0  0  0  0  0  0  0  0  0  0  0  0
    0.5570   24.4940  -24.5740 C   0  0  0  0  0  0  0  0  0  0  0  0
   -0.6250   25.1900  -24.8230 C   0  0  0  0  0  0  0  0  0  0  0  0
   -1.4840   24.7910  -25.8590 C   0  0  0  0  0  0  0  0  0  0  0  0
   -2.7260   25.5980  -26.1230 C   0  0  0  0  0  0  0  0  0  0  0  0
   -3.1690   22.4920  -27.4930 C   0  0  0  0  0  0  0  0  0  0  0  0
   -4.0050   22.3060  -28.7680 C   0  0  0  0  0  0  0  0  0  0  0  0
   -3.4643   20.2143  -32.1431 H   0  0  0  0  0  0  0  0  0  0  0  0
   -4.4584   19.9865  -33.6218 H   0  0  0  0  0  0  0  0  0  0  0  0
   -3.1067   21.1694  -33.6218 H   0  0  0  0  0  0  0  0  0  0  0  0
   -6.1173   19.4070  -32.8006 H   0  0  0  0  0  0  0  0  0  0  0  0
   -8.7982   18.0859  -31.3564 H   0  0  0  0  0  0  0  0  0  0  0  0
   -9.6001   18.5111  -32.9065 H   0  0  0  0  0  0  0  0  0  0  0  0
   -7.9085   17.9068  -32.9065 H   0  0  0  0  0  0  0  0  0  0  0  0
  -10.0574   20.7104  -31.5988 H   0  0  0  0  0  0  0  0  0  0  0  0
   -9.2047   23.0217  -31.2758 H   0  0  0  0  0  0  0  0  0  0  0  0
   -7.6547   25.4163  -30.7583 H   0  0  0  0  0  0  0  0  0  0  0  0
   -7.2207   24.0167  -29.6938 H   0  0  0  0  0  0  0  0  0  0  0  0
   -5.8873   26.3623  -29.6922 H   0  0  0  0  0  0  0  0  0  0  0  0
   -4.6000   24.6220  -31.5750 H   0  0  0  0  0  0  0  0  0  0  0  0
   -4.2076   25.3150  -28.4291 H   0  0  0  0  0  0  0  0  0  0  0  0
   -5.5911   24.1785  -28.2852 H   0  0  0  0  0  0  0  0  0  0  0  0
   -2.5319   23.5751  -31.0540 H   0  0  0  0  0  0  0  0  0  0  0  0
   -2.6931   25.0766  -30.0144 H   0  0  0  0  0  0  0  0  0  0  0  0
   -1.1183   22.5740  -29.5501 H   0  0  0  0  0  0  0  0  0  0  0  0
   -0.7644   24.3028  -29.1352 H   0  0  0  0  0  0  0  0  0  0  0  0
    0.7617   20.9685  -26.6097 H   0  0  0  0  0  0  0  0  0  0  0  0
   -0.3750   21.5072  -27.8920 H   0  0  0  0  0  0  0  0  0  0  0  0
    1.3226   22.0944  -27.8920 H   0  0  0  0  0  0  0  0  0  0  0  0
    1.8375   22.8521  -25.1570 H   0  0  0  0  0  0  0  0  0  0  0  0
    1.2187   24.8127  -23.7551 H   0  0  0  0  0  0  0  0  0  0  0  0
   -0.8868   26.0595  -24.2022 H   0  0  0  0  0  0  0  0  0  0  0  0
   -3.1813   25.8938  -25.1663 H   0  0  0  0  0  0  0  0  0  0  0  0
   -2.4630   26.4982  -26.6978 H   0  0  0  0  0  0  0  0  0  0  0  0
   -3.4417   24.9920  -26.6978 H   0  0  0  0  0  0  0  0  0  0  0  0
   -2.8725   21.5045  -27.1098 H   0  0  0  0  0  0  0  0  0  0  0  0
   -3.7779   23.0265  -26.7490 H   0  0  0  0  0  0  0  0  0  0  0  0
   -3.5665   21.4950  -29.3680 H   0  0  0  0  0  0  0  0  0  0  0  0
   -5.0358   22.0605  -28.4726 H   0  0  0  0  0  0  0  0  0  0  0  0
  1  2  1  0
  2  3  2  0
  2  4  1  0
  4  5  2  0
  5  6  1  0
  6  7  1  0
  6  8  2  0
  8  9  1  0
  9 10  2  0
 10 11  1  0
 11 12  1  0
 12 13  1  0
 13 14  1  0
 13 15  1  0
 15 16  1  0
 16 17  1  0
 17 18  1  0
 18 19  1  0
 19 20  1  0
 20 21  2  0
 21 22  1  0
 21 23  1  0
 23 24  2  0
 24 25  1  0
 25 26  2  0
 26 27  1  0
 19 28  1  0
 28 29  1  0
 10  4  1  0
 29 16  1  0
 26 20  1  0
  1 30  1  0
  1 31  1  0
  1 32  1  0
  5 33  1  0
  7 34  1  0
  7 35  1  0
  7 36  1  0
  8 37  1  0
  9 38  1  0
 12 39  1  0
 12 40  1  0
 13 41  1  1
 14 42  1  0
 15 43  1  0
 15 44  1  0
 17 45  1  0
 17 46  1  0
 18 47  1  0
 18 48  1  0
 22 49  1  0
 22 50  1  0
 22 51  1  0
 23 52  1  0
 24 53  1  0
 25 54  1  0
 27 55  1  0
 27 56  1  0
 27 57  1  0
 28 58  1  0
 28 59  1  0
 29 60  1  0
 29 61  1  0
M  END
>  <UniqueID>  (24) 
23

>  <SMILES>  (24) 
CC(=O)c1cc(C)ccc1OC[C@H](O)CN1CCN(c2c(C)cccc2C)CC1

>  <Energy>  (24) 
75.42434436315187

>  <Genealogy>  (24) 
CC(=O)c1cc(C)ccc1OC[C@H](O)CN1CCN(c2c(C)cccc2C)CC1 (chirality)
CC(=O)c1cc(C)ccc1OC[C@H](O)CN1CCN(c2c(C)cccc2C)CC1 (3D coordinates assigned)
CC(=O)c1cc(C)ccc1OC[C@H](O)CN1CCN(c2c(C)cccc2C)CC1 (nonaromatic ring conformer: 75.42434436315187 kcal/mol)

>  <smiles>  (24) 
CC(=O)c1cc(C)ccc1OCC(O)CN1CCN(c2c(C)cccc2C)CC1

>  <score_type>  (24) 
oracle

>  <origin>  (24) 
adg

>  <m_score__min__energy>  (24) 
-9.5899999999999999

>  <m_primary>  (24) 
energy

$$$$
24:0
     RDKit          3D

 42 43  0  0  0  0  0  0  0  0999 V2000
   -4.1720   24.1410  -28.3420 C   0  0  0  0  0  0  0  0  0  0  0  0
   -3.2880   24.3080  -29.5740 C   0  0  0  0  0  0  0  0  0  0  0  0
   -3.8550   25.2510  -30.4660 O   0  0  0  0  0  0  0  0  0  0  0  0
   -5.2470   25.0430  -30.5820 C   0  0  0  0  0  0  0  0  0  0  0  0
   -5.5020   23.7030  -31.2730 C   0  0  0  0  0  0  0  0  0  0  0  0
   -6.5070   23.8340  -32.3410 N   0  0  0  0  0  0  0  0  0  0  0  0
   -7.8450   23.3630  -31.9310 C   0  0  0  0  0  0  0  0  0  0  0  0
   -7.9240   21.8610  -31.9940 C   0  0  0  0  0  0  0  0  0  0  0  0
   -6.9090   21.1470  -32.5530 N   0  0  0  0  0  0  0  0  0  0  0  0
   -6.9420   19.7940  -32.6790 C   0  0  0  0  0  0  0  0  0  0  0  0
   -5.8090   19.0920  -33.3320 C   0  0  0  0  0  0  0  0  0  0  0  0
   -6.0810   18.0000  -34.1790 C   0  0  0  0  0  0  0  0  0  0  0  0
   -5.0500   17.3500  -34.8580 C   0  0  0  0  0  0  0  0  0  0  0  0
   -3.7340   17.7820  -34.7080 C   0  0  0  0  0  0  0  0  0  0  0  0
   -3.4420   18.8590  -33.8700 C   0  0  0  0  0  0  0  0  0  0  0  0
   -4.4650   19.5160  -33.1630 C   0  0  0  0  0  0  0  0  0  0  0  0
   -4.0960   20.6560  -32.2510 C   0  0  0  0  0  0  0  0  0  0  0  0
   -8.0690   19.0920  -32.2240 C   0  0  0  0  0  0  0  0  0  0  0  0
   -9.1310   19.7960  -31.6540 C   0  0  0  0  0  0  0  0  0  0  0  0
   -9.0680   21.1860  -31.5430 C   0  0  0  0  0  0  0  0  0  0  0  0
  -10.1120   21.8660  -31.0050 F   0  0  0  0  0  0  0  0  0  0  0  0
   -3.5615   24.2563  -27.4343 H   0  0  0  0  0  0  0  0  0  0  0  0
   -4.9627   24.9057  -28.3517 H   0  0  0  0  0  0  0  0  0  0  0  0
   -4.6293   23.1406  -28.3517 H   0  0  0  0  0  0  0  0  0  0  0  0
   -2.2932   24.6580  -29.2612 H   0  0  0  0  0  0  0  0  0  0  0  0
   -3.2044   23.3383  -30.0866 H   0  0  0  0  0  0  0  0  0  0  0  0
   -5.7016   25.0323  -29.5804 H   0  0  0  0  0  0  0  0  0  0  0  0
   -5.6926   25.8545  -31.1760 H   0  0  0  0  0  0  0  0  0  0  0  0
   -4.5600   23.3403  -31.7101 H   0  0  0  0  0  0  0  0  0  0  0  0
   -5.8824   22.9931  -30.5238 H   0  0  0  0  0  0  0  0  0  0  0  0
   -6.1840   23.2430  -33.1430 H   0  0  0  0  0  0  0  0  0  0  0  0
   -8.0432   23.6919  -30.9002 H   0  0  0  0  0  0  0  0  0  0  0  0
   -8.5937   23.7851  -32.6175 H   0  0  0  0  0  0  0  0  0  0  0  0
   -7.1179   17.6558  -34.3066 H   0  0  0  0  0  0  0  0  0  0  0  0
   -5.2764   16.4954  -35.5126 H   0  0  0  0  0  0  0  0  0  0  0  0
   -2.9238   17.2733  -35.2510 H   0  0  0  0  0  0  0  0  0  0  0  0
   -2.4011   19.1975  -33.7613 H   0  0  0  0  0  0  0  0  0  0  0  0
   -4.1996   20.3360  -31.2037 H   0  0  0  0  0  0  0  0  0  0  0  0
   -3.0549   20.9558  -32.4416 H   0  0  0  0  0  0  0  0  0  0  0  0
   -4.7639   21.5090  -32.4416 H   0  0  0  0  0  0  0  0  0  0  0  0
   -8.1149   17.9968  -32.3158 H   0  0  0  0  0  0  0  0  0  0  0  0
  -10.0179   19.2552  -31.2921 H   0  0  0  0  0  0  0  0  0  0  0  0
  1  2  1  0
  2  3  1  0
  3  4  1  0
  4  5  1  0
  5  6  1  0
  6  7  1  0
  7  8  1  0
  8  9  2  0
  9 10  1  0
 10 11  1  0
 11 12  2  0
 12 13  1  0
 13 14  2  0
 14 15  1  0
 15 16  2  0
 16 17  1  0
 10 18  2  0
 18 19  1  0
 19 20  2  0
 20 21  1  0
 20  8  1  0
 16 11  1  0
  1 22  1  0
  1 23  1  0
  1 24  1  0
  2 25  1  0
  2 26  1  0
  4 27  1  0
  4 28  1  0
  5 29  1  0
  5 30  1  0
  6 31  1  0
  7 32  1  0
  7 33  1  0
 12 34  1  0
 13 35  1  0
 14 36  1  0
 15 37  1  0
 17 38  1  0
 17 39  1  0
 17 40  1  0
 18 41  1  0
 19 42  1  0
M  END
>  <UniqueID>  (25) 
24

>  <SMILES>  (25) 
CCOCCNCc1nc(-c2ccccc2C)ccc1F

>  <Energy>  (25) 
45.97007352168755

>  <Genealogy>  (25) 
CCOCCNCc1nc(-c2ccccc2C)ccc1F (3D coordinates assigned)
CCOCCNCc1nc(-c2ccccc2C)ccc1F (optimized conformer: 45.97007352168755 kcal/mol)

>  <smiles>  (25) 
CCOCCNCc1nc(-c2ccccc2C)ccc1F

>  <score_type>  (25) 
oracle

>  <origin>  (25) 
adg

>  <m_score__min__energy>  (25) 
-8.2799999999999994

>  <m_primary>  (25) 
energy

$$$$
25:0
     RDKit          3D

 73 77  0  0  0  0  0  0  0  0999 V2000
   -4.1850   24.1090  -28.1390 C   0  0  0  0  0  0  0  0  0  0  0  0
   -3.3610   24.5560  -29.3450 C   0  0  0  0  0  0  0  0  0  0  0  0
   -4.1870   24.6350  -30.5710 N   0  0  0  0  0  0  0  0  0  0  0  0
   -5.1210   25.7690  -30.4590 C   0  0  0  0  0  0  0  0  0  0  0  0
   -4.9200   23.3720  -30.8470 C   0  0  0  0  0  0  0  0  0  0  0  0
   -6.2620   23.6680  -31.5300 C   0  0  0  0  0  0  0  0  0  0  0  0
   -6.4540   22.8360  -32.7210 N   0  0  0  0  0  0  0  0  0  0  0  0
   -6.1600   21.4260  -32.7690 C   0  0  0  0  0  0  0  0  0  0  0  0
   -7.1630   20.4480  -32.5530 C   0  0  0  0  0  0  0  0  0  0  0  0
   -8.4650   20.8240  -32.1630 C   0  0  0  0  0  0  0  0  0  0  0  0
   -9.4310   19.8600  -31.8880 C   0  0  0  0  0  0  0  0  0  0  0  0
   -9.1180   18.5090  -31.9780 C   0  0  0  0  0  0  0  0  0  0  0  0
   -7.8380   18.1030  -32.3570 C   0  0  0  0  0  0  0  0  0  0  0  0
   -6.8370   19.0520  -32.6790 C   0  0  0  0  0  0  0  0  0  0  0  0
   -5.5630   18.6630  -33.0720 N   0  0  0  0  0  0  0  0  0  0  0  0
   -5.2580   17.2780  -33.4710 C   0  0  0  0  0  0  0  0  0  0  0  0
   -4.5910   19.6270  -33.1400 C   0  0  0  0  0  0  0  0  0  0  0  0
   -4.8720   20.9700  -33.0250 C   0  0  0  0  0  0  0  0  0  0  0  0
   -3.7890   21.6980  -33.1920 O   0  0  0  0  0  0  0  0  0  0  0  0
   -2.7910   20.8660  -33.3890 C   0  0  0  0  0  0  0  0  0  0  0  0
   -1.4560   21.2060  -33.5760 C   0  0  0  0  0  0  0  0  0  0  0  0
   -0.5150   20.1670  -33.7390 C   0  0  0  0  0  0  0  0  0  0  0  0
    0.8820   20.4750  -33.9320 N   0  0  0  0  0  0  0  0  0  0  0  0
    1.2690   20.2410  -35.3340 C   0  0  0  0  0  0  0  0  0  0  0  0
    0.9650   21.4640  -36.2180 C   0  0  0  0  0  0  0  0  0  0  0  0
    1.1710   22.7420  -35.5010 N   0  0  0  0  0  0  0  0  0  0  0  0
    2.6200   23.0490  -35.3410 C   0  0  0  0  0  0  0  0  0  0  0  0
    3.1280   24.0660  -36.3730 C   0  0  0  0  0  0  0  0  0  0  0  0
    2.3770   25.4010  -36.2520 C   0  0  0  0  0  0  0  0  0  0  0  0
    0.9400   25.2250  -35.7320 C   0  0  0  0  0  0  0  0  0  0  0  0
    0.3840   23.8480  -36.1120 C   0  0  0  0  0  0  0  0  0  0  0  0
   -0.9480   18.8170  -33.6790 C   0  0  0  0  0  0  0  0  0  0  0  0
   -2.3020   18.4990  -33.4740 C   0  0  0  0  0  0  0  0  0  0  0  0
   -3.2170   19.5530  -33.3620 C   0  0  0  0  0  0  0  0  0  0  0  0
   -3.6631   24.3921  -27.2130 H   0  0  0  0  0  0  0  0  0  0  0  0
   -5.1709   24.5959  -28.1677 H   0  0  0  0  0  0  0  0  0  0  0  0
   -4.3144   23.0170  -28.1677 H   0  0  0  0  0  0  0  0  0  0  0  0
   -2.9343   25.5484  -29.1376 H   0  0  0  0  0  0  0  0  0  0  0  0
   -2.5667   23.8138  -29.5128 H   0  0  0  0  0  0  0  0  0  0  0  0
   -5.3033   25.9904  -29.3970 H   0  0  0  0  0  0  0  0  0  0  0  0
   -4.6852   26.6526  -30.9482 H   0  0  0  0  0  0  0  0  0  0  0  0
   -6.0718   25.5106  -30.9482 H   0  0  0  0  0  0  0  0  0  0  0  0
   -4.3106   22.7364  -31.5063 H   0  0  0  0  0  0  0  0  0  0  0  0
   -5.1116   22.8563  -29.8945 H   0  0  0  0  0  0  0  0  0  0  0  0
   -7.0768   23.4674  -30.8188 H   0  0  0  0  0  0  0  0  0  0  0  0
   -6.2650   24.7228  -31.8420 H   0  0  0  0  0  0  0  0  0  0  0  0
   -6.8830   23.2900  -33.5570 H   0  0  0  0  0  0  0  0  0  0  0  0
   -8.7200   21.8904  -32.0751 H   0  0  0  0  0  0  0  0  0  0  0  0
  -10.4462   20.1689  -31.5983 H   0  0  0  0  0  0  0  0  0  0  0  0
   -9.8848   17.7543  -31.7488 H   0  0  0  0  0  0  0  0  0  0  0  0
   -7.6027   17.0296  -32.4065 H   0  0  0  0  0  0  0  0  0  0  0  0
   -5.1217   16.6590  -32.5720 H   0  0  0  0  0  0  0  0  0  0  0  0
   -6.0894   16.8773  -34.0695 H   0  0  0  0  0  0  0  0  0  0  0  0
   -4.3352   17.2636  -34.0695 H   0  0  0  0  0  0  0  0  0  0  0  0
   -1.1407   22.2597  -33.5964 H   0  0  0  0  0  0  0  0  0  0  0  0
    1.0410   21.4780  -33.6770 H   0  0  0  0  0  0  0  0  0  0  0  0
    1.4710   19.8840  -33.2990 H   0  0  0  0  0  0  0  0  0  0  0  0
    2.3477   20.0296  -35.3760 H   0  0  0  0  0  0  0  0  0  0  0  0
    0.6863   19.3888  -35.7139 H   0  0  0  0  0  0  0  0  0  0  0  0
    1.6284   21.4398  -37.0951 H   0  0  0  0  0  0  0  0  0  0  0  0
   -0.0935   21.4109  -36.5125 H   0  0  0  0  0  0  0  0  0  0  0  0
    2.7837   23.4586  -34.3333 H   0  0  0  0  0  0  0  0  0  0  0  0
    3.1768   22.1130  -35.4952 H   0  0  0  0  0  0  0  0  0  0  0  0
    4.2010   24.2413  -36.2062 H   0  0  0  0  0  0  0  0  0  0  0  0
    2.9542   23.6580  -37.3796 H   0  0  0  0  0  0  0  0  0  0  0  0
    2.9262   26.0527  -35.5565 H   0  0  0  0  0  0  0  0  0  0  0  0
    2.3162   25.8420  -37.2579 H   0  0  0  0  0  0  0  0  0  0  0  0
    0.9391   25.3236  -34.6364 H   0  0  0  0  0  0  0  0  0  0  0  0
    0.3045   25.9981  -36.1886 H   0  0  0  0  0  0  0  0  0  0  0  0
   -0.6573   23.7771  -35.7648 H   0  0  0  0  0  0  0  0  0  0  0  0
    0.4460   23.7460  -37.2055 H   0  0  0  0  0  0  0  0  0  0  0  0
   -0.2129   18.0069  -33.7947 H   0  0  0  0  0  0  0  0  0  0  0  0
   -2.6331   17.4524  -33.4036 H   0  0  0  0  0  0  0  0  0  0  0  0
  1  2  1  0
  2  3  1  0
  3  4  1  0
  3  5  1  0
  5  6  1  0
  6  7  1  0
  7  8  1  0
  8  9  2  0
  9 10  1  0
 10 11  2  0
 11 12  1  0
 12 13  2  0
 13 14  1  0
 14 15  2  0
 15 16  1  0
 15 17  1  0
 17 18  2  0
 18 19  1  0
 19 20  1  0
 20 21  2  0
 21 22  1  0
 22 23  1  0
 23 24  1  0
 24 25  1  0
 25 26  1  0
 26 27  1  0
 27 28  1  0
 28 29  1  0
 29 30  1  0
 30 31  1  0
 22 32  2  0
 32 33  1  0
 33 34  2  0
 18  8  1  0
 34 20  1  0
 14  9  1  0
 34 17  1  0
 31 26  1  0
  1 35  1  0
  1 36  1  0
  1 37  1  0
  2 38  1  0
  2 39  1  0
  4 40  1  0
  4 41  1  0
  4 42  1  0
  5 43  1  0
  5 44  1  0
  6 45  1  0
  6 46  1  0
  7 47  1  0
 10 48  1  0
 11 49  1  0
 12 50  1  0
 13 51  1  0
 16 52  1  0
 16 53  1  0
 16 54  1  0
 21 55  1  0
 23 56  1  0
 23 57  1  0
 24 58  1  0
 24 59  1  0
 25 60  1  0
 25 61  1  0
 27 62  1  0
 27 63  1  0
 28 64  1  0
 28 65  1  0
 29 66  1  0
 29 67  1  0
 30 68  1  0
 30 69  1  0
 31 70  1  0
 31 71  1  0
 32 72  1  0
 33 73  1  0
M  CHG  2  15   1  23   1
M  END
>  <UniqueID>  (26) 
25

>  <SMILES>  (26) 
CCN(C)CCNc1c2ccccc2[n+](C)c2c1oc1cc([NH2+]CCN3CCCCC3)ccc12

>  <Energy>  (26) 
141.89907062698296

>  <Genealogy>  (26) 
CCN(C)CCNc1c2ccccc2[n+](C)c2c1oc1cc([NH2+]CCN3CCCCC3)ccc12 (protonated)
CCN(C)CCNc1c2ccccc2[n+](C)c2c1oc1cc([NH2+]CCN3CCCCC3)ccc12 (3D coordinates assigned)
CCN(C)CCNc1c2ccccc2[n+](C)c2c1oc1cc([NH2+]CCN3CCCCC3)ccc12 (nonaromatic ring conformer: 141.89907062698296 kcal/mol)

>  <smiles>  (26) 
CCN(C)CCNc1c2ccccc2[n+](C)c2c1oc1cc(NCCN3CCCCC3)ccc12

>  <score_type>  (26) 
oracle

>  <origin>  (26) 
adg

>  <m_score__min__energy>  (26) 
-9.2200000000000006

>  <m_primary>  (26) 
energy

$$$$
26:0
     RDKit          3D

 15 15  0  0  0  0  0  0  0  0999 V2000
   -6.2170   25.6720  -29.5160 C   0  0  0  0  0  0  0  0  0  0  0  0
   -5.3140   25.0830  -30.5540 C   0  0  0  0  0  0  0  0  0  0  0  0
   -4.2330   25.6680  -30.8320 O   0  0  0  0  0  0  0  0  0  0  0  0
   -5.6810   23.8300  -31.2480 C   0  0  0  0  0  0  0  0  0  0  0  0
   -7.0130   23.3900  -31.3060 C   0  0  0  0  0  0  0  0  0  0  0  0
   -7.3100   22.2310  -31.9530 N   0  0  0  0  0  0  0  0  0  0  0  0
   -6.3410   21.4880  -32.5470 C   0  0  0  0  0  0  0  0  0  0  0  0
   -5.0160   21.9210  -32.4950 C   0  0  0  0  0  0  0  0  0  0  0  0
   -4.7170   23.0770  -31.8470 N   0  0  0  0  0  0  0  0  0  0  0  0
   -5.8358   25.4233  -28.5146 H   0  0  0  0  0  0  0  0  0  0  0  0
   -6.2488   26.7651  -29.6352 H   0  0  0  0  0  0  0  0  0  0  0  0
   -7.2302   25.2605  -29.6352 H   0  0  0  0  0  0  0  0  0  0  0  0
   -7.8115   23.9790  -30.8311 H   0  0  0  0  0  0  0  0  0  0  0  0
   -6.5988   20.5524  -33.0649 H   0  0  0  0  0  0  0  0  0  0  0  0
   -4.2204   21.3317  -32.9744 H   0  0  0  0  0  0  0  0  0  0  0  0
  1  2  1  0
  2  3  2  0
  2  4  1  0
  4  5  2  0
  5  6  1  0
  6  7  2  0
  7  8  1  0
  8  9  2  0
  9  4  1  0
  1 10  1  0
  1 11  1  0
  1 12  1  0
  5 13  1  0
  7 14  1  0
  8 15  1  0
M  END
>  <UniqueID>  (27) 
26

>  <SMILES>  (27) 
CC(=O)c1cnccn1

>  <Energy>  (27) 
14.18546008926341

>  <Genealogy>  (27) 
CC(=O)c1cnccn1 (3D coordinates assigned)
CC(=O)c1cnccn1 (optimized conformer: 14.18546008926341 kcal/mol)

>  <smiles>  (27) 
CC(=O)c1cnccn1

>  <score_type>  (27) 
oracle

>  <origin>  (27) 
adg

>  <m_score__min__energy>  (27) 
-4.6399999999999997

>  <m_primary>  (27) 
energy

$$$$
27:0
     RDKit          3D

 65 67  0  0  0  0  0  0  0  0999 V2000
   -2.7510   24.9800  -26.6940 C   0  0  0  0  0  0  0  0  0  0  0  0
   -1.6740   25.3850  -27.6970 C   0  0  0  0  0  0  0  0  0  0  0  0
   -1.9410   24.7680  -29.0170 N   0  0  0  0  0  0  0  0  0  0  0  0
   -0.8830   23.8010  -29.3880 C   0  0  0  0  0  0  0  0  0  0  0  0
   -1.1040   22.4710  -28.6640 C   0  0  0  0  0  0  0  0  0  0  0  0
   -3.2840   24.1430  -29.0590 C   0  0  0  0  0  0  0  0  0  0  0  0
   -3.6320   23.6810  -30.4830 C   0  0  0  0  0  0  0  0  0  0  0  0
   -4.3840   24.6580  -31.1800 O   0  0  0  0  0  0  0  0  0  0  0  0
   -5.7580   24.5940  -30.8440 C   0  0  0  0  0  0  0  0  0  0  0  0
   -6.3480   23.2410  -31.2580 C   0  0  0  0  0  0  0  0  0  0  0  0
   -5.8850   22.8570  -32.6050 N   0  0  0  0  0  0  0  0  0  0  0  0
   -5.7750   21.4110  -32.7250 C   0  0  0  0  0  0  0  0  0  0  0  0
   -6.9040   20.5740  -32.5280 C   0  0  0  0  0  0  0  0  0  0  0  0
   -8.2080   21.1070  -32.3740 C   0  0  0  0  0  0  0  0  0  0  0  0
   -9.2890   20.2820  -32.0710 C   0  0  0  0  0  0  0  0  0  0  0  0
   -9.0980   18.9180  -31.9080 C   0  0  0  0  0  0  0  0  0  0  0  0
   -7.8390   18.3610  -32.1080 C   0  0  0  0  0  0  0  0  0  0  0  0
   -6.7300   19.1630  -32.4830 C   0  0  0  0  0  0  0  0  0  0  0  0
   -5.5060   18.6000  -32.7850 N   0  0  0  0  0  0  0  0  0  0  0  0
   -5.4090   17.1420  -33.0410 C   0  0  0  0  0  0  0  0  0  0  0  0
   -4.3840   19.3960  -32.9180 C   0  0  0  0  0  0  0  0  0  0  0  0
   -3.0840   18.8350  -32.9910 C   0  0  0  0  0  0  0  0  0  0  0  0
   -1.9520   19.6300  -33.2350 C   0  0  0  0  0  0  0  0  0  0  0  0
   -0.6590   19.0870  -33.3180 O   0  0  0  0  0  0  0  0  0  0  0  0
    0.3220   19.1600  -32.2870 C   0  0  0  0  0  0  0  0  0  0  0  0
   -2.1000   21.0050  -33.4060 C   0  0  0  0  0  0  0  0  0  0  0  0
   -0.9560   21.7660  -33.7000 O   0  0  0  0  0  0  0  0  0  0  0  0
   -0.1060   21.5530  -34.8250 C   0  0  0  0  0  0  0  0  0  0  0  0
   -3.3670   21.5870  -33.2690 C   0  0  0  0  0  0  0  0  0  0  0  0
   -4.5100   20.8080  -32.9670 C   0  0  0  0  0  0  0  0  0  0  0  0
   -2.3719   25.1226  -25.6713 H   0  0  0  0  0  0  0  0  0  0  0  0
   -3.6448   25.6035  -26.8439 H   0  0  0  0  0  0  0  0  0  0  0  0
   -3.0125   23.9221  -26.8439 H   0  0  0  0  0  0  0  0  0  0  0  0
   -1.6701   26.4799  -27.8026 H   0  0  0  0  0  0  0  0  0  0  0  0
   -0.6964   25.0376  -27.3314 H   0  0  0  0  0  0  0  0  0  0  0  0
   -0.9103   23.6319  -30.4746 H   0  0  0  0  0  0  0  0  0  0  0  0
    0.0953   24.2102  -29.0956 H   0  0  0  0  0  0  0  0  0  0  0  0
   -1.0765   22.6363  -27.5768 H   0  0  0  0  0  0  0  0  0  0  0  0
   -2.0832   22.0575  -28.9474 H   0  0  0  0  0  0  0  0  0  0  0  0
   -0.3112   21.7631  -28.9474 H   0  0  0  0  0  0  0  0  0  0  0  0
   -3.2974   23.2735  -28.3853 H   0  0  0  0  0  0  0  0  0  0  0  0
   -4.0277   24.8884  -28.7408 H   0  0  0  0  0  0  0  0  0  0  0  0
   -2.6993   23.4888  -31.0337 H   0  0  0  0  0  0  0  0  0  0  0  0
   -4.2404   22.7676  -30.4088 H   0  0  0  0  0  0  0  0  0  0  0  0
   -5.8715   24.7214  -29.7573 H   0  0  0  0  0  0  0  0  0  0  0  0
   -6.2928   25.3940  -31.3768 H   0  0  0  0  0  0  0  0  0  0  0  0
   -6.0320   22.4738  -30.5358 H   0  0  0  0  0  0  0  0  0  0  0  0
   -7.4447   23.3247  -31.2730 H   0  0  0  0  0  0  0  0  0  0  0  0
   -4.9810   23.3330  -32.8200 H   0  0  0  0  0  0  0  0  0  0  0  0
   -6.5170   23.2310  -33.3500 H   0  0  0  0  0  0  0  0  0  0  0  0
   -8.3691   22.1883  -32.4955 H   0  0  0  0  0  0  0  0  0  0  0  0
  -10.2951   20.7129  -31.9609 H   0  0  0  0  0  0  0  0  0  0  0  0
   -9.9433   18.2756  -31.6201 H   0  0  0  0  0  0  0  0  0  0  0  0
   -7.7005   17.2782  -31.9729 H   0  0  0  0  0  0  0  0  0  0  0  0
   -5.3731   16.6031  -32.0827 H   0  0  0  0  0  0  0  0  0  0  0  0
   -6.2871   16.8113  -33.6150 H   0  0  0  0  0  0  0  0  0  0  0  0
   -4.4948   16.9305  -33.6150 H   0  0  0  0  0  0  0  0  0  0  0  0
   -2.9588   17.7509  -32.8532 H   0  0  0  0  0  0  0  0  0  0  0  0
   -0.1739   19.1231  -31.3058 H   0  0  0  0  0  0  0  0  0  0  0  0
    1.0152   18.3110  -32.3797 H   0  0  0  0  0  0  0  0  0  0  0  0
    0.8819   20.1023  -32.3797 H   0  0  0  0  0  0  0  0  0  0  0  0
    0.9062   21.2994  -34.4770 H   0  0  0  0  0  0  0  0  0  0  0  0
   -0.5026   20.7265  -35.4329 H   0  0  0  0  0  0  0  0  0  0  0  0
   -0.0659   22.4689  -35.4329 H   0  0  0  0  0  0  0  0  0  0  0  0
   -3.4762   22.6738  -33.3990 H   0  0  0  0  0  0  0  0  0  0  0  0
  1  2  1  0
  2  3  1  0
  3  4  1  0
  4  5  1  0
  3  6  1  0
  6  7  1  0
  7  8  1  0
  8  9  1  0
  9 10  1  0
 10 11  1  0
 11 12  1  0
 12 13  2  0
 13 14  1  0
 14 15  2  0
 15 16  1  0
 16 17  2  0
 17 18  1  0
 18 19  2  0
 19 20  1  0
 19 21  1  0
 21 22  2  0
 22 23  1  0
 23 24  1  0
 24 25  1  0
 23 26  2  0
 26 27  1  0
 27 28  1  0
 26 29  1  0
 29 30  2  0
 30 12  1  0
 18 13  1  0
 30 21  1  0
  1 31  1  0
  1 32  1  0
  1 33  1  0
  2 34  1  0
  2 35  1  0
  4 36  1  0
  4 37  1  0
  5 38  1  0
  5 39  1  0
  5 40  1  0
  6 41  1  0
  6 42  1  0
  7 43  1  0
  7 44  1  0
  9 45  1  0
  9 46  1  0
 10 47  1  0
 10 48  1  0
 11 49  1  0
 11 50  1  0
 14 51  1  0
 15 52  1  0
 16 53  1  0
 17 54  1  0
 20 55  1  0
 20 56  1  0
 20 57  1  0
 22 58  1  0
 25 59  1  0
 25 60  1  0
 25 61  1  0
 28 62  1  0
 28 63  1  0
 28 64  1  0
 29 65  1  0
M  CHG  2  11   1  19   1
M  END
>  <UniqueID>  (28) 
27

>  <SMILES>  (28) 
CCN(CC)CCOCC[NH2+]c1c2ccccc2[n+](C)c2cc(OC)c(OC)cc12

>  <Energy>  (28) 
92.86473368509746

>  <Genealogy>  (28) 
CCN(CC)CCOCC[NH2+]c1c2ccccc2[n+](C)c2cc(OC)c(OC)cc12 (protonated)
CCN(CC)CCOCC[NH2+]c1c2ccccc2[n+](C)c2cc(OC)c(OC)cc12 (3D coordinates assigned)
CCN(CC)CCOCC[NH2+]c1c2ccccc2[n+](C)c2cc(OC)c(OC)cc12 (optimized conformer: 92.86473368509746 kcal/mol)

>  <smiles>  (28) 
CCN(CC)CCOCCNc1c2ccccc2[n+](C)c2cc(OC)c(OC)cc12

>  <score_type>  (28) 
oracle

>  <origin>  (28) 
adg

>  <m_score__min__energy>  (28) 
-7.5199999999999996

>  <m_primary>  (28) 
energy

$$$$
28:0
     RDKit          3D

 48 50  0  0  0  0  0  0  0  0999 V2000
   -0.7970   24.8510  -27.8000 C   0  0  0  0  0  0  0  0  0  0  0  0
   -2.3090   24.8660  -27.5420 C   0  0  0  0  0  0  0  0  0  0  0  0
   -2.5810   25.2820  -26.0890 C   0  0  0  0  0  0  0  0  0  0  0  0
   -2.9210   23.4800  -27.8620 C   0  0  0  0  0  0  0  0  0  0  0  0
   -4.2410   23.5540  -28.6480 C   0  0  0  0  0  0  0  0  0  0  0  0
   -3.9960   23.7920  -30.1190 C   0  0  0  0  0  0  0  0  0  0  0  0
   -3.5800   24.9290  -30.4730 O   0  0  0  0  0  0  0  0  0  0  0  0
   -4.2660   22.7860  -31.1200 N   0  0  0  0  0  0  0  0  0  0  0  0
   -3.1940   22.3390  -32.0190 C   0  0  0  0  0  0  0  0  0  0  0  0
   -3.2050   20.8050  -32.2010 C   0  0  0  0  0  0  0  0  0  0  0  0
   -4.4970   20.1760  -31.8290 N   0  0  2  0  0  0  0  0  0  0  0  0
   -4.5870   18.8310  -32.4290 C   0  0  0  0  0  0  0  0  0  0  0  0
   -5.7920   18.0780  -31.8690 C   0  0  0  0  0  0  0  0  0  0  0  0
   -7.0440   18.8980  -31.9940 C   0  0  0  0  0  0  0  0  0  0  0  0
   -8.2900   18.2530  -31.9250 C   0  0  0  0  0  0  0  0  0  0  0  0
   -9.4720   18.9830  -32.0440 C   0  0  0  0  0  0  0  0  0  0  0  0
   -9.4230   20.3630  -32.2360 C   0  0  0  0  0  0  0  0  0  0  0  0
  -10.5720   21.0680  -32.3750 F   0  0  0  0  0  0  0  0  0  0  0  0
   -8.1910   21.0190  -32.2910 C   0  0  0  0  0  0  0  0  0  0  0  0
   -6.9870   20.3050  -32.1300 C   0  0  0  0  0  0  0  0  0  0  0  0
   -5.6440   21.0300  -32.2310 C   0  0  1  0  0  0  0  0  0  0  0  0
   -5.6360   22.3080  -31.3580 C   0  0  0  0  0  0  0  0  0  0  0  0
   -0.2612   24.8457  -26.8394 H   0  0  0  0  0  0  0  0  0  0  0  0
   -0.5317   23.9502  -28.3728 H   0  0  0  0  0  0  0  0  0  0  0  0
   -0.5139   25.7464  -28.3728 H   0  0  0  0  0  0  0  0  0  0  0  0
   -2.7885   25.6014  -28.2048 H   0  0  0  0  0  0  0  0  0  0  0  0
   -2.1089   24.5600  -25.4064 H   0  0  0  0  0  0  0  0  0  0  0  0
   -2.1627   26.2835  -25.9099 H   0  0  0  0  0  0  0  0  0  0  0  0
   -3.6662   25.3005  -25.9099 H   0  0  0  0  0  0  0  0  0  0  0  0
   -2.1938   22.9083  -28.4573 H   0  0  0  0  0  0  0  0  0  0  0  0
   -3.1465   22.9979  -26.8993 H   0  0  0  0  0  0  0  0  0  0  0  0
   -4.7841   22.6054  -28.5249 H   0  0  0  0  0  0  0  0  0  0  0  0
   -4.8300   24.3959  -28.2553 H   0  0  0  0  0  0  0  0  0  0  0  0
   -3.3300   22.8157  -33.0010 H   0  0  0  0  0  0  0  0  0  0  0  0
   -2.2301   22.6250  -31.5728 H   0  0  0  0  0  0  0  0  0  0  0  0
   -2.9980   20.5778  -33.2572 H   0  0  0  0  0  0  0  0  0  0  0  0
   -2.4380   20.3929  -31.5287 H   0  0  0  0  0  0  0  0  0  0  0  0
   -4.5050   20.0630  -30.7840 H   0  0  0  0  0  0  0  0  0  0  0  0
   -4.6944   18.9270  -33.5195 H   0  0  0  0  0  0  0  0  0  0  0  0
   -3.6720   18.2704  -32.1873 H   0  0  0  0  0  0  0  0  0  0  0  0
   -5.9201   17.1385  -32.4266 H   0  0  0  0  0  0  0  0  0  0  0  0
   -5.6126   17.8721  -30.8034 H   0  0  0  0  0  0  0  0  0  0  0  0
   -8.3335   17.1640  -31.7760 H   0  0  0  0  0  0  0  0  0  0  0  0
  -10.4433   18.4700  -31.9864 H   0  0  0  0  0  0  0  0  0  0  0  0
   -8.1604   22.1052  -32.4619 H   0  0  0  0  0  0  0  0  0  0  0  0
   -5.5253   21.2930  -33.2925 H   0  0  0  0  0  0  0  0  0  0  0  0
   -6.2059   23.0961  -31.8719 H   0  0  0  0  0  0  0  0  0  0  0  0
   -6.0924   22.0668  -30.3866 H   0  0  0  0  0  0  0  0  0  0  0  0
  1  2  1  0
  2  3  1  0
  2  4  1  0
  4  5  1  0
  5  6  1  0
  6  7  2  0
  6  8  1  0
  8  9  1  0
  9 10  1  0
 10 11  1  0
 11 12  1  0
 12 13  1  0
 13 14  1  0
 14 15  2  0
 15 16  1  0
 16 17  2  0
 17 18  1  0
 17 19  1  0
 19 20  2  0
 20 21  1  0
 21 22  1  0
 22  8  1  0
 21 11  1  0
 20 14  1  0
  1 23  1  0
  1 24  1  0
  1 25  1  0
  2 26  1  0
  3 27  1  0
  3 28  1  0
  3 29  1  0
  4 30  1  0
  4 31  1  0
  5 32  1  0
  5 33  1  0
  9 34  1  0
  9 35  1  0
 10 36  1  0
 10 37  1  0
 11 38  1  1
 12 39  1  0
 12 40  1  0
 13 41  1  0
 13 42  1  0
 15 43  1  0
 16 44  1  0
 19 45  1  0
 21 46  1  6
 22 47  1  0
 22 48  1  0
M  CHG  1  11   1
M  END
>  <UniqueID>  (29) 
28

>  <SMILES>  (29) 
CC(C)CCC(=O)N1CC[N@@H+]2CCc3ccc(F)cc3[C@H]2C1

>  <Energy>  (29) 
53.41138271949552

>  <Genealogy>  (29) 
CC(C)CCC(=O)N1CC[NH+]2CCc3ccc(F)cc3C2C1 (protonated)
CC(C)CCC(=O)N1CC[N@@H+]2CCc3ccc(F)cc3[C@H]2C1 (chirality)
CC(C)CCC(=O)N1CC[N@@H+]2CCc3ccc(F)cc3[C@H]2C1 (3D coordinates assigned)
CC(C)CCC(=O)N1CC[N@@H+]2CCc3ccc(F)cc3[C@H]2C1 (nonaromatic ring conformer: 53.41138271949552 kcal/mol)

>  <smiles>  (29) 
CC(C)CCC(=O)N1CCN2CCc3ccc(F)cc3C2C1

>  <score_type>  (29) 
oracle

>  <origin>  (29) 
adg

>  <m_score__min__energy>  (29) 
-7.4199999999999999

>  <m_primary>  (29) 
energy

$$$$
29:0
     RDKit          3D

 42 46  0  0  0  0  0  0  0  0999 V2000
   -6.8790   25.1530  -29.7180 C   0  0  0  0  0  0  0  0  0  0  0  0
   -5.4920   24.7780  -30.1160 C   0  0  0  0  0  0  0  0  0  0  0  0
   -4.5580   25.6700  -30.4940 N   0  0  0  0  0  0  0  0  0  0  0  0
   -3.5260   24.9510  -30.8140 O   0  0  0  0  0  0  0  0  0  0  0  0
   -3.8020   23.6800  -30.6550 C   0  0  0  0  0  0  0  0  0  0  0  0
   -2.8400   22.5990  -30.9320 C   0  0  0  0  0  0  0  0  0  0  0  0
   -1.8810   22.2340  -30.0560 N   0  0  0  0  0  0  0  0  0  0  0  0
   -1.2100   21.2240  -30.6390 C   0  0  0  0  0  0  0  0  0  0  0  0
   -1.7130   20.9220  -31.8540 N   0  0  0  0  0  0  0  0  0  0  0  0
   -2.7280   21.7860  -32.0580 C   0  0  0  0  0  0  0  0  0  0  0  0
   -3.5500   21.7660  -33.3080 C   0  0  0  0  0  0  0  0  0  0  0  0
   -4.1980   20.4680  -33.4190 N   0  0  0  0  0  0  0  0  0  0  0  0
   -3.5900   19.3190  -33.5440 C   0  0  0  0  0  0  0  0  0  0  0  0
   -4.4290   18.0950  -33.6170 C   0  0  0  0  0  0  0  0  0  0  0  0
   -5.7140   18.1440  -34.1910 C   0  0  0  0  0  0  0  0  0  0  0  0
   -6.5080   16.9950  -34.2500 C   0  0  0  0  0  0  0  0  0  0  0  0
   -6.0340   15.7880  -33.7300 C   0  0  0  0  0  0  0  0  0  0  0  0
   -4.7680   15.7290  -33.1470 C   0  0  0  0  0  0  0  0  0  0  0  0
   -3.9690   16.8750  -33.0850 C   0  0  0  0  0  0  0  0  0  0  0  0
   -2.0980   19.2140  -33.6360 C   0  0  0  0  0  0  0  0  0  0  0  0
   -1.5490   18.3190  -34.5750 C   0  0  0  0  0  0  0  0  0  0  0  0
   -0.1700   18.1190  -34.6540 C   0  0  0  0  0  0  0  0  0  0  0  0
    0.4870   16.9910  -35.8250 Cl  0  0  0  0  0  0  0  0  0  0  0  0
    0.6850   18.8110  -33.7980 C   0  0  0  0  0  0  0  0  0  0  0  0
    0.1660   19.7150  -32.8730 C   0  0  0  0  0  0  0  0  0  0  0  0
   -1.2200   19.9390  -32.7840 C   0  0  0  0  0  0  0  0  0  0  0  0
   -5.0630   23.5030  -30.2140 N   0  0  0  0  0  0  0  0  0  0  0  0
   -6.9529   25.1730  -28.6207 H   0  0  0  0  0  0  0  0  0  0  0  0
   -7.1193   26.1484  -30.1198 H   0  0  0  0  0  0  0  0  0  0  0  0
   -7.5882   24.4143  -30.1198 H   0  0  0  0  0  0  0  0  0  0  0  0
   -1.6930   22.6470  -29.1150 H   0  0  0  0  0  0  0  0  0  0  0  0
   -0.3544   20.7068  -30.1803 H   0  0  0  0  0  0  0  0  0  0  0  0
   -4.3123   22.5577  -33.2625 H   0  0  0  0  0  0  0  0  0  0  0  0
   -2.9063   21.9398  -34.1829 H   0  0  0  0  0  0  0  0  0  0  0  0
   -6.0956   19.0930  -34.5957 H   0  0  0  0  0  0  0  0  0  0  0  0
   -7.5077   17.0413  -34.7066 H   0  0  0  0  0  0  0  0  0  0  0  0
   -6.6590   14.8842  -33.7803 H   0  0  0  0  0  0  0  0  0  0  0  0
   -4.3974   14.7788  -32.7351 H   0  0  0  0  0  0  0  0  0  0  0  0
   -2.9746   16.8231  -32.6176 H   0  0  0  0  0  0  0  0  0  0  0  0
   -2.2165   17.7700  -35.2555 H   0  0  0  0  0  0  0  0  0  0  0  0
    1.7708   18.6434  -33.8526 H   0  0  0  0  0  0  0  0  0  0  0  0
    0.8484   20.2601  -32.2043 H   0  0  0  0  0  0  0  0  0  0  0  0
  1  2  1  0
  2  3  2  0
  3  4  1  0
  4  5  1  0
  5  6  1  0
  6  7  1  0
  7  8  2  0
  8  9  1  0
  9 10  1  0
 10 11  1  0
 11 12  1  0
 12 13  2  0
 13 14  1  0
 14 15  2  0
 15 16  1  0
 16 17  2  0
 17 18  1  0
 18 19  2  0
 13 20  1  0
 20 21  2  0
 21 22  1  0
 22 23  1  0
 22 24  2  0
 24 25  1  0
 25 26  2  0
  5 27  2  0
 27  2  1  0
 10  6  2  0
 19 14  1  0
 26 20  1  0
 26  9  1  0
  1 28  1  0
  1 29  1  0
  1 30  1  0
  7 31  1  0
  8 32  1  0
 11 33  1  0
 11 34  1  0
 15 35  1  0
 16 36  1  0
 17 37  1  0
 18 38  1  0
 19 39  1  0
 21 40  1  0
 24 41  1  0
 25 42  1  0
M  CHG  1   7   1
M  END
>  <UniqueID>  (30) 
29

>  <SMILES>  (30) 
Cc1noc(-c2[nH+]cn3c2CN=C(c2ccccc2)c2cc(Cl)ccc2-3)n1

>  <Energy>  (30) 
127.5005929763172

>  <Genealogy>  (30) 
Cc1noc(-c2[nH+]cn3c2CN=C(c2ccccc2)c2cc(Cl)ccc2-3)n1 (protonated)
Cc1noc(-c2[nH+]cn3c2CN=C(c2ccccc2)c2cc(Cl)ccc2-3)n1 (3D coordinates assigned)
Cc1noc(-c2[nH+]cn3c2CN=C(c2ccccc2)c2cc(Cl)ccc2-3)n1 (nonaromatic ring conformer: 127.5005929763172 kcal/mol)

>  <smiles>  (30) 
Cc1noc(-c2ncn3c2CN=C(c2ccccc2)c2cc(Cl)ccc2-3)n1

>  <score_type>  (30) 
oracle

>  <origin>  (30) 
adg

>  <m_score__min__energy>  (30) 
-8.6199999999999992

>  <m_primary>  (30) 
energy

$$$$
30:0
     RDKit          3D

 49 51  0  0  0  0  0  0  0  0999 V2000
   -4.5520   24.1520  -30.4730 C   0  0  0  0  0  0  0  0  0  0  0  0
   -3.8390   22.8980  -29.9770 C   0  0  0  0  0  0  0  0  0  0  0  0
   -2.5290   22.7470  -30.6530 N   0  0  0  0  0  0  0  0  0  0  0  0
   -1.4140   22.9840  -29.7060 C   0  0  0  0  0  0  0  0  0  0  0  0
   -1.6360   24.2910  -28.9490 C   0  0  0  0  0  0  0  0  0  0  0  0
   -2.4110   21.4170  -31.2940 C   0  0  0  0  0  0  0  0  0  0  0  0
   -1.7390   21.5420  -32.6660 C   0  0  0  0  0  0  0  0  0  0  0  0
   -2.5570   20.9080  -33.6990 N   0  0  0  0  0  0  0  0  0  0  0  0
   -3.4490   19.8290  -33.3840 C   0  0  0  0  0  0  0  0  0  0  0  0
   -2.9690   18.5560  -33.4140 N   0  0  0  0  0  0  0  0  0  0  0  0
   -3.7660   17.4880  -33.1670 C   0  0  0  0  0  0  0  0  0  0  0  0
   -5.1220   17.6640  -32.8960 C   0  0  0  0  0  0  0  0  0  0  0  0
   -5.6800   18.9630  -32.8640 C   0  0  0  0  0  0  0  0  0  0  0  0
   -4.8060   20.0630  -33.0540 C   0  0  0  0  0  0  0  0  0  0  0  0
   -5.2940   21.3580  -32.8620 C   0  0  0  0  0  0  0  0  0  0  0  0
   -6.6160   21.5610  -32.4740 C   0  0  0  0  0  0  0  0  0  0  0  0
   -7.0750   22.8630  -32.2160 C   0  0  0  0  0  0  0  0  0  0  0  0
   -8.3830   23.0760  -31.7890 C   0  0  0  0  0  0  0  0  0  0  0  0
   -9.2400   21.9940  -31.6040 C   0  0  0  0  0  0  0  0  0  0  0  0
   -8.8000   20.6930  -31.8610 C   0  0  0  0  0  0  0  0  0  0  0  0
   -7.4840   20.4490  -32.3320 C   0  0  0  0  0  0  0  0  0  0  0  0
   -7.0280   19.1760  -32.6270 N   0  0  0  0  0  0  0  0  0  0  0  0
   -7.9820   18.0480  -32.7110 C   0  0  0  0  0  0  0  0  0  0  0  0
   -4.8901   24.7466  -29.6115 H   0  0  0  0  0  0  0  0  0  0  0  0
   -3.8593   24.7508  -31.0826 H   0  0  0  0  0  0  0  0  0  0  0  0
   -5.4208   23.8629  -31.0826 H   0  0  0  0  0  0  0  0  0  0  0  0
   -3.6797   22.9771  -28.8915 H   0  0  0  0  0  0  0  0  0  0  0  0
   -4.4613   22.0200  -30.2048 H   0  0  0  0  0  0  0  0  0  0  0  0
   -1.3636   22.1521  -28.9881 H   0  0  0  0  0  0  0  0  0  0  0  0
   -0.4716   23.0505  -30.2695 H   0  0  0  0  0  0  0  0  0  0  0  0
   -1.6032   24.0979  -27.8666 H   0  0  0  0  0  0  0  0  0  0  0  0
   -0.8469   25.0088  -29.2175 H   0  0  0  0  0  0  0  0  0  0  0  0
   -2.6178   24.7080  -29.2175 H   0  0  0  0  0  0  0  0  0  0  0  0
   -1.8065   20.7583  -30.6531 H   0  0  0  0  0  0  0  0  0  0  0  0
   -3.4180   20.9949  -31.4274 H   0  0  0  0  0  0  0  0  0  0  0  0
   -1.6101   22.6069  -32.9098 H   0  0  0  0  0  0  0  0  0  0  0  0
   -0.7613   21.0392  -32.6293 H   0  0  0  0  0  0  0  0  0  0  0  0
   -2.7320   21.4460  -34.5790 H   0  0  0  0  0  0  0  0  0  0  0  0
   -1.9630   18.3900  -33.6400 H   0  0  0  0  0  0  0  0  0  0  0  0
   -3.3394   16.4742  -33.1805 H   0  0  0  0  0  0  0  0  0  0  0  0
   -5.7607   16.7887  -32.7062 H   0  0  0  0  0  0  0  0  0  0  0  0
   -4.6307   22.2215  -33.0181 H   0  0  0  0  0  0  0  0  0  0  0  0
   -6.3976   23.7189  -32.3520 H   0  0  0  0  0  0  0  0  0  0  0  0
   -8.7395   24.0989  -31.5978 H   0  0  0  0  0  0  0  0  0  0  0  0
  -10.2687   22.1645  -31.2537 H   0  0  0  0  0  0  0  0  0  0  0  0
   -9.4830   19.8466  -31.6960 H   0  0  0  0  0  0  0  0  0  0  0  0
   -8.2564   17.7235  -31.6964 H   0  0  0  0  0  0  0  0  0  0  0  0
   -8.8852   18.3709  -33.2495 H   0  0  0  0  0  0  0  0  0  0  0  0
   -7.5136   17.2110  -33.2495 H   0  0  0  0  0  0  0  0  0  0  0  0
  1  2  1  0
  2  3  1  0
  3  4  1  0
  4  5  1  0
  3  6  1  0
  6  7  1  0
  7  8  1  0
  8  9  1  0
  9 10  2  0
 10 11  1  0
 11 12  2  0
 12 13  1  0
 13 14  2  0
 14 15  1  0
 15 16  2  0
 16 17  1  0
 17 18  2  0
 18 19  1  0
 19 20  2  0
 20 21  1  0
 21 22  2  0
 22 23  1  0
 14  9  1  0
 21 16  1  0
 22 13  1  0
  1 24  1  0
  1 25  1  0
  1 26  1  0
  2 27  1  0
  2 28  1  0
  4 29  1  0
  4 30  1  0
  5 31  1  0
  5 32  1  0
  5 33  1  0
  6 34  1  0
  6 35  1  0
  7 36  1  0
  7 37  1  0
  8 38  1  0
 10 39  1  0
 11 40  1  0
 12 41  1  0
 15 42  1  0
 17 43  1  0
 18 44  1  0
 19 45  1  0
 20 46  1  0
 23 47  1  0
 23 48  1  0
 23 49  1  0
M  CHG  2  10   1  22   1
M  END
>  <UniqueID>  (31) 
30

>  <SMILES>  (31) 
CCN(CC)CCNc1[nH+]ccc2c1cc1ccccc1[n+]2C

>  <Energy>  (31) 
71.40767814821606

>  <Genealogy>  (31) 
CCN(CC)CCNc1[nH+]ccc2c1cc1ccccc1[n+]2C (protonated)
CCN(CC)CCNc1[nH+]ccc2c1cc1ccccc1[n+]2C (3D coordinates assigned)
CCN(CC)CCNc1[nH+]ccc2c1cc1ccccc1[n+]2C (optimized conformer: 71.40767814821606 kcal/mol)

>  <smiles>  (31) 
CCN(CC)CCNc1nccc2c1cc1ccccc1[n+]2C

>  <score_type>  (31) 
oracle

>  <origin>  (31) 
adg

>  <m_score__min__energy>  (31) 
-7.0599999999999996

>  <m_primary>  (31) 
energy

$$$$
31:0
     RDKit          3D

 47 47  0  0  0  0  0  0  0  0999 V2000
   -9.6769   23.4162  -31.6091 H   0  0  0  0  0  0  0  0  0  0  0  0
   -8.7630   23.2890  -32.2080 C   0  0  0  0  0  0  0  0  0  0  0  0
   -8.6142   24.1751  -32.8426 H   0  0  0  0  0  0  0  0  0  0  0  0
   -8.8618   22.3960  -32.8426 H   0  0  0  0  0  0  0  0  0  0  0  0
   -7.5490   23.1200  -31.2660 C   0  0  0  0  0  0  0  0  0  0  0  0
   -7.8950   22.0250  -30.2170 C   0  0  0  0  0  0  0  0  0  0  0  0
   -7.7658   22.4338  -29.2040 H   0  0  0  0  0  0  0  0  0  0  0  0
   -8.9383   21.7040  -30.3526 H   0  0  0  0  0  0  0  0  0  0  0  0
   -7.2255   21.1628  -30.3526 H   0  0  0  0  0  0  0  0  0  0  0  0
   -6.3230   22.6910  -32.1050 C   0  0  0  0  0  0  0  0  0  0  0  0
   -6.2714   23.3329  -32.9968 H   0  0  0  0  0  0  0  0  0  0  0  0
   -6.4634   21.6296  -32.3575 H   0  0  0  0  0  0  0  0  0  0  0  0
   -4.9990   22.7980  -31.3590 C   0  0  0  0  0  0  0  0  0  0  0  0
   -3.9250   22.2410  -31.8270 N   0  0  0  0  0  0  0  0  0  0  0  0
   -3.8660   21.3740  -32.9820 C   0  0  0  0  0  0  0  0  0  0  0  0
   -2.8205   21.0865  -33.1674 H   0  0  0  0  0  0  0  0  0  0  0  0
   -4.2686   21.9103  -33.8539 H   0  0  0  0  0  0  0  0  0  0  0  0
   -4.7030   20.1120  -32.7410 C   0  0  0  0  0  0  0  0  0  0  0  0
   -5.1955   20.1946  -31.7609 H   0  0  0  0  0  0  0  0  0  0  0  0
   -4.0269   19.2450  -32.7756 H   0  0  0  0  0  0  0  0  0  0  0  0
   -5.7820   19.9170  -33.8250 C   0  0  0  0  0  0  0  0  0  0  0  0
   -5.2973   19.5546  -34.7435 H   0  0  0  0  0  0  0  0  0  0  0  0
   -6.2754   20.8874  -33.9826 H   0  0  0  0  0  0  0  0  0  0  0  0
   -6.8280   18.9400  -33.4210 N   0  0  1  0  0  0  0  0  0  0  0  0
   -7.5720   18.9510  -34.1590 H   0  0  0  0  0  0  0  0  0  0  0  0
   -6.2690   17.5750  -33.4200 C   0  0  0  0  0  0  0  0  0  0  0  0
   -6.1303   17.2363  -32.3827 H   0  0  0  0  0  0  0  0  0  0  0  0
   -6.9611   16.8950  -33.9383 H   0  0  0  0  0  0  0  0  0  0  0  0
   -5.2988   17.5757  -33.9383 H   0  0  0  0  0  0  0  0  0  0  0  0
   -7.4930   19.2480  -32.1230 C   0  0  0  0  0  0  0  0  0  0  0  0
   -7.1112   20.2144  -31.7622 H   0  0  0  0  0  0  0  0  0  0  0  0
   -7.2592   18.4132  -31.4459 H   0  0  0  0  0  0  0  0  0  0  0  0
   -9.0300   19.3350  -32.1970 C   0  0  0  0  0  0  0  0  0  0  0  0
   -9.4454   19.3585  -31.1787 H   0  0  0  0  0  0  0  0  0  0  0  0
   -9.3200   20.2510  -32.7326 H   0  0  0  0  0  0  0  0  0  0  0  0
   -9.4216   18.4576  -32.7326 H   0  0  0  0  0  0  0  0  0  0  0  0
   -4.8430   23.6120  -30.0800 C   0  0  1  0  0  0  0  0  0  0  0  0
   -4.6610   22.8678  -29.2907 H   0  0  0  0  0  0  0  0  0  0  0  0
   -3.7090   24.5460  -30.2390 N   0  0  0  0  0  0  0  0  0  0  0  0
   -3.8740   25.6360  -30.8420 O   0  0  0  0  0  0  0  0  0  0  0  0
   -2.4640   24.2450  -29.7220 O   0  0  0  0  0  0  0  0  0  0  0  0
   -6.1070   24.3800  -29.5780 C   0  0  0  0  0  0  0  0  0  0  0  0
   -5.8014   25.4014  -29.3071 H   0  0  0  0  0  0  0  0  0  0  0  0
   -6.5011   23.8043  -28.7275 H   0  0  0  0  0  0  0  0  0  0  0  0
   -7.2440   24.4780  -30.5940 C   0  0  0  0  0  0  0  0  0  0  0  0
   -6.9615   25.2022  -31.3723 H   0  0  0  0  0  0  0  0  0  0  0  0
   -8.1488   24.7982  -30.0566 H   0  0  0  0  0  0  0  0  0  0  0  0
  1  2  1  0
  2  3  1  0
  2  4  1  0
  2  5  1  0
  5  6  1  0
  6  7  1  0
  6  8  1  0
  6  9  1  0
  5 10  1  0
 10 11  1  0
 10 12  1  0
 10 13  1  0
 13 14  2  0
 14 15  1  0
 15 16  1  0
 15 17  1  0
 15 18  1  0
 18 19  1  0
 18 20  1  0
 18 21  1  0
 21 22  1  0
 21 23  1  0
 21 24  1  0
 24 25  1  6
 24 26  1  0
 26 27  1  0
 26 28  1  0
 26 29  1  0
 24 30  1  0
 30 31  1  0
 30 32  1  0
 30 33  1  0
 33 34  1  0
 33 35  1  0
 33 36  1  0
 13 37  1  0
 37 38  1  1
 37 39  1  0
 39 40  2  0
 39 41  1  0
 37 42  1  0
 42 43  1  0
 42 44  1  0
 42 45  1  0
 45 46  1  0
 45 47  1  0
 45  5  1  0
M  CHG  3  24   1  39   1  41  -1
M  END
>  <UniqueID>  (32) 
31

>  <SMILES>  (32) 
CC[N@H+](C)CCC/N=C1\CC(C)(C)CC[C@@H]1[N+](=O)[O-]

>  <Energy>  (32) 
44.60036533801898

>  <Genealogy>  (32) 
CC[NH+](C)CCCN=C1CC(C)(C)CCC1[N+](=O)[O-] (protonated)
CC[N@H+](C)CCCN=C1CC(C)(C)CC[C@@H]1[N+](=O)[O-] (chirality)
CC[N@H+](C)CCC/N=C1\CC(C)(C)CC[C@@H]1[N+](=O)[O-] (cis-trans isomerization)
CC[N@H+](C)CCC/N=C1\CC(C)(C)CC[C@@H]1[N+](=O)[O-] (3D coordinates assigned)
CC[N@H+](C)CCC/N=C1\CC(C)(C)CC[C@@H]1[N+](=O)[O-] (nonaromatic ring conformer: 44.60036533801898 kcal/mol)

>  <smiles>  (32) 
CCN(C)CCCN=C1CC(C)(C)CCC1[N+](=O)[O-]

>  <score_type>  (32) 
oracle

>  <origin>  (32) 
adg

>  <m_score__min__energy>  (32) 
-7.3700000000000001

>  <m_primary>  (32) 
energy

$$$$
32:0
     RDKit          3D

 42 44  0  0  0  0  0  0  0  0999 V2000
   -3.0710   20.8170  -33.5060 C   0  0  0  0  0  0  0  0  0  0  0  0
   -3.7110   21.4290  -32.2600 C   0  0  0  0  0  0  0  0  0  0  0  0
   -5.1440   21.0750  -32.1550 N   0  0  0  0  0  0  0  0  0  0  0  0
   -6.1440   22.0390  -32.2020 C   0  0  0  0  0  0  0  0  0  0  0  0
   -5.7910   23.8000  -32.3810 S   0  0  0  0  0  0  0  0  0  0  0  0
   -6.1700   24.2590  -30.6510 C   0  0  0  0  0  0  0  0  0  0  0  0
   -5.3460   25.4550  -30.1670 C   0  0  0  0  0  0  0  0  0  0  0  0
   -3.9440   25.2310  -30.3310 O   0  0  0  0  0  0  0  0  0  0  0  0
   -3.1360   24.3300  -29.6140 C   0  0  0  0  0  0  0  0  0  0  0  0
   -3.5820   23.0030  -29.5470 C   0  0  0  0  0  0  0  0  0  0  0  0
   -2.8400   22.0310  -28.8770 C   0  0  0  0  0  0  0  0  0  0  0  0
   -1.6420   22.3750  -28.2560 C   0  0  0  0  0  0  0  0  0  0  0  0
   -1.1880   23.6950  -28.2920 C   0  0  0  0  0  0  0  0  0  0  0  0
   -1.9310   24.6920  -28.9580 C   0  0  0  0  0  0  0  0  0  0  0  0
   -1.5060   26.0290  -28.9610 O   0  0  0  0  0  0  0  0  0  0  0  0
   -0.8610   26.6820  -27.8730 C   0  0  0  0  0  0  0  0  0  0  0  0
   -7.4590   21.6730  -32.1760 N   0  0  0  0  0  0  0  0  0  0  0  0
   -7.8030   20.3700  -32.0740 C   0  0  0  0  0  0  0  0  0  0  0  0
   -9.1090   19.8820  -32.0300 C   0  0  0  0  0  0  0  0  0  0  0  0
   -9.1510   18.4910  -31.9340 C   0  0  0  0  0  0  0  0  0  0  0  0
   -7.5680   17.8920  -31.9110 S   0  0  0  0  0  0  0  0  0  0  0  0
   -6.8380   19.4000  -32.0170 C   0  0  0  0  0  0  0  0  0  0  0  0
   -5.4950   19.7430  -32.0700 C   0  0  0  0  0  0  0  0  0  0  0  0
   -4.6200   18.8340  -32.0570 O   0  0  0  0  0  0  0  0  0  0  0  0
   -2.3065   20.0860  -33.2041 H   0  0  0  0  0  0  0  0  0  0  0  0
   -3.8437   20.3132  -34.1053 H   0  0  0  0  0  0  0  0  0  0  0  0
   -2.6022   21.6114  -34.1053 H   0  0  0  0  0  0  0  0  0  0  0  0
   -3.1849   21.0566  -31.3687 H   0  0  0  0  0  0  0  0  0  0  0  0
   -3.6311   22.5236  -32.3340 H   0  0  0  0  0  0  0  0  0  0  0  0
   -7.2376   24.5143  -30.5797 H   0  0  0  0  0  0  0  0  0  0  0  0
   -5.9160   23.3989  -30.0141 H   0  0  0  0  0  0  0  0  0  0  0  0
   -5.6351   26.3448  -30.7455 H   0  0  0  0  0  0  0  0  0  0  0  0
   -5.5475   25.5996  -29.0953 H   0  0  0  0  0  0  0  0  0  0  0  0
   -4.5304   22.7245  -30.0296 H   0  0  0  0  0  0  0  0  0  0  0  0
   -3.2009   20.9926  -28.8390 H   0  0  0  0  0  0  0  0  0  0  0  0
   -1.0523   21.6055  -27.7362 H   0  0  0  0  0  0  0  0  0  0  0  0
   -0.2423   23.9598  -27.7965 H   0  0  0  0  0  0  0  0  0  0  0  0
   -1.2519   26.2862  -26.9240 H   0  0  0  0  0  0  0  0  0  0  0  0
    0.2227   26.5010  -27.9271 H   0  0  0  0  0  0  0  0  0  0  0  0
   -1.0553   27.7633  -27.9271 H   0  0  0  0  0  0  0  0  0  0  0  0
  -10.0036   20.5210  -32.0668 H   0  0  0  0  0  0  0  0  0  0  0  0
  -10.0653   17.8817  -31.8817 H   0  0  0  0  0  0  0  0  0  0  0  0
  1  2  1  0
  2  3  1  0
  3  4  1  0
  4  5  1  0
  5  6  1  0
  6  7  1  0
  7  8  1  0
  8  9  1  0
  9 10  2  0
 10 11  1  0
 11 12  2  0
 12 13  1  0
 13 14  2  0
 14 15  1  0
 15 16  1  0
  4 17  2  0
 17 18  1  0
 18 19  1  0
 19 20  2  0
 20 21  1  0
 21 22  1  0
 22 23  1  0
 23 24  2  0
 23  3  1  0
 14  9  1  0
 22 18  2  0
  1 25  1  0
  1 26  1  0
  1 27  1  0
  2 28  1  0
  2 29  1  0
  6 30  1  0
  6 31  1  0
  7 32  1  0
  7 33  1  0
 10 34  1  0
 11 35  1  0
 12 36  1  0
 13 37  1  0
 16 38  1  0
 16 39  1  0
 16 40  1  0
 19 41  1  0
 20 42  1  0
M  END
>  <UniqueID>  (33) 
32

>  <SMILES>  (33) 
CCn1c(SCCOc2ccccc2OC)nc2ccsc2c1=O

>  <Energy>  (33) 
78.9528000756663

>  <Genealogy>  (33) 
CCn1c(SCCOc2ccccc2OC)nc2ccsc2c1=O (3D coordinates assigned)
CCn1c(SCCOc2ccccc2OC)nc2ccsc2c1=O (optimized conformer: 78.9528000756663 kcal/mol)

>  <smiles>  (33) 
CCn1c(SCCOc2ccccc2OC)nc2ccsc2c1=O

>  <score_type>  (33) 
oracle

>  <origin>  (33) 
adg

>  <m_score__min__energy>  (33) 
-9.0800000000000001

>  <m_primary>  (33) 
energy

$$$$
33:0
     RDKit          3D

 28 29  0  0  0  0  0  0  0  0999 V2000
   -1.9870   25.6610  -29.7260 H   0  0  0  0  0  0  0  0  0  0  0  0
   -1.5130   26.0380  -28.9390 O   0  0  0  0  0  0  0  0  0  0  0  0
   -1.4390   25.0120  -27.9870 C   0  0  0  0  0  0  0  0  0  0  0  0
   -2.3238   25.0597  -27.3352 H   0  0  0  0  0  0  0  0  0  0  0  0
   -0.5213   25.1444  -27.3951 H   0  0  0  0  0  0  0  0  0  0  0  0
   -1.3910   23.6420  -28.6700 C   0  0  0  0  0  0  0  0  0  0  0  0
   -2.0382   22.9428  -28.1202 H   0  0  0  0  0  0  0  0  0  0  0  0
   -0.3504   23.2853  -28.6684 H   0  0  0  0  0  0  0  0  0  0  0  0
   -1.8520   23.7320  -30.0570 N   0  0  0  0  0  0  0  0  0  0  0  0
   -3.0970   23.7580  -30.4290 C   0  0  0  0  0  0  0  0  0  0  0  0
   -3.7050   22.6020  -30.7990 N   0  0  0  0  0  0  0  0  0  0  0  0
   -5.0030   22.5760  -31.2010 C   0  0  0  0  0  0  0  0  0  0  0  0
   -5.7550   23.7710  -31.2020 C   0  0  0  0  0  0  0  0  0  0  0  0
   -5.1020   24.9560  -30.8280 C   0  0  0  0  0  0  0  0  0  0  0  0
   -5.7110   26.0590  -30.8430 O   0  0  0  0  0  0  0  0  0  0  0  0
   -3.7990   24.9230  -30.4470 N   0  0  0  0  0  0  0  0  0  0  0  0
   -7.1860   23.8030  -31.6970 C   0  0  0  0  0  0  0  0  0  0  0  0
   -7.7713   24.4616  -31.0385 H   0  0  0  0  0  0  0  0  0  0  0  0
   -7.1705   24.1723  -32.7330 H   0  0  0  0  0  0  0  0  0  0  0  0
   -7.8390   22.4180  -31.7100 C   0  0  0  0  0  0  0  0  0  0  0  0
   -8.0534   22.1096  -30.6761 H   0  0  0  0  0  0  0  0  0  0  0  0
   -8.7709   22.4705  -32.2921 H   0  0  0  0  0  0  0  0  0  0  0  0
   -6.9100   21.3920  -32.3580 C   0  0  0  0  0  0  0  0  0  0  0  0
   -7.4212   20.4192  -32.4068 H   0  0  0  0  0  0  0  0  0  0  0  0
   -6.6515   21.7327  -33.3715 H   0  0  0  0  0  0  0  0  0  0  0  0
   -5.6250   21.2470  -31.5380 C   0  0  0  0  0  0  0  0  0  0  0  0
   -5.8616   20.7207  -30.6015 H   0  0  0  0  0  0  0  0  0  0  0  0
   -4.9019   20.6843  -32.1466 H   0  0  0  0  0  0  0  0  0  0  0  0
  1  2  1  0
  2  3  1  0
  3  4  1  0
  3  5  1  0
  3  6  1  0
  6  7  1  0
  6  8  1  0
  6  9  1  0
  9 10  2  0
 10 11  1  0
 11 12  1  0
 12 13  2  0
 13 14  1  0
 14 15  2  0
 14 16  1  0
 13 17  1  0
 17 18  1  0
 17 19  1  0
 17 20  1  0
 20 21  1  0
 20 22  1  0
 20 23  1  0
 23 24  1  0
 23 25  1  0
 23 26  1  0
 26 27  1  0
 26 28  1  0
 16 10  1  0
 26 12  1  0
M  CHG  2  11  -1  16  -1
M  END
>  <UniqueID>  (34) 
33

>  <SMILES>  (34) 
O=c1[n-]/c(=N\CCO)[n-]c2c1CCCC2

>  <Energy>  (34) 
25.466976883068412

>  <Genealogy>  (34) 
O=c1[n-]c(=NCCO)[n-]c2c1CCCC2 (protonated)
O=c1[n-]/c(=N\CCO)[n-]c2c1CCCC2 (cis-trans isomerization)
O=c1[n-]/c(=N\CCO)[n-]c2c1CCCC2 (3D coordinates assigned)
O=c1[n-]/c(=N\CCO)[n-]c2c1CCCC2 (nonaromatic ring conformer: 25.466976883068412 kcal/mol)

>  <smiles>  (34) 
O=c1[nH]c(=NCCO)[nH]c2c1CCCC2

>  <score_type>  (34) 
oracle

>  <origin>  (34) 
adg

>  <m_score__min__energy>  (34) 
-8.4399999999999995

>  <m_primary>  (34) 
energy

$$$$
34:0
     RDKit          3D

 69 70  0  0  0  0  0  0  0  0999 V2000
   -2.9690   16.6570  -35.3110 C   0  0  0  0  0  0  0  0  0  0  0  0
   -2.9320   17.7540  -34.2480 C   0  0  0  0  0  0  0  0  0  0  0  0
   -3.8980   17.4810  -33.0850 C   0  0  0  0  0  0  0  0  0  0  0  0
   -4.9250   18.5900  -32.9330 C   0  0  0  0  0  0  0  0  0  0  0  0
   -4.4470   19.9060  -32.9570 C   0  0  0  0  0  0  0  0  0  0  0  0
   -5.2710   20.9880  -32.6440 C   0  0  0  0  0  0  0  0  0  0  0  0
   -4.7000   22.3740  -32.7730 C   0  0  0  0  0  0  0  0  0  0  0  0
   -6.5920   20.7480  -32.2080 C   0  0  0  0  0  0  0  0  0  0  0  0
   -7.1490   19.4540  -32.3660 C   0  0  0  0  0  0  0  0  0  0  0  0
   -6.3100   18.3510  -32.6940 C   0  0  0  0  0  0  0  0  0  0  0  0
   -6.8830   16.9390  -32.8010 C   0  0  0  0  0  0  0  0  0  0  0  0
   -6.5160   16.1940  -34.1080 C   0  0  0  0  0  0  0  0  0  0  0  0
   -5.5570   15.0930  -33.9070 N   0  0  0  0  0  0  0  0  0  0  0  0
   -6.1580   13.7790  -34.2060 C   0  0  0  0  0  0  0  0  0  0  0  0
   -5.4470   12.6370  -33.4640 C   0  0  0  0  0  0  0  0  0  0  0  0
   -4.0870   13.2600  -32.4880 S   0  0  0  0  0  0  0  0  0  0  0  0
   -3.0670   11.8970  -31.9750 C   0  0  0  0  0  0  0  0  0  0  0  0
   -4.6100   13.9710  -31.2720 O   0  0  0  0  0  0  0  0  0  0  0  0
   -3.2650   14.2140  -33.3090 O   0  0  0  0  0  0  0  0  0  0  0  0
   -8.6320   19.2860  -32.0680 C   0  0  0  0  0  0  0  0  0  0  0  0
   -9.4300   20.5300  -32.4740 C   0  0  0  0  0  0  0  0  0  0  0  0
   -8.8250   21.7480  -31.8530 C   0  0  0  0  0  0  0  0  0  0  0  0
   -9.5540   22.7430  -31.5930 O   0  0  0  0  0  0  0  0  0  0  0  0
   -7.4060   21.7880  -31.6020 N   0  0  0  0  0  0  0  0  0  0  0  0
   -6.8950   22.6600  -30.5230 C   0  0  0  0  0  0  0  0  0  0  0  0
   -7.0450   24.1580  -30.8480 C   0  0  0  0  0  0  0  0  0  0  0  0
   -5.8900   24.9900  -30.2740 C   0  0  0  0  0  0  0  0  0  0  0  0
   -4.6350   24.1440  -30.0590 C   0  0  0  0  0  0  0  0  0  0  0  0
   -3.4860   24.9560  -30.2100 O   0  0  0  0  0  0  0  0  0  0  0  0
   -2.4800   24.5060  -29.3330 C   0  0  0  0  0  0  0  0  0  0  0  0
   -3.0022   15.6727  -34.8211 H   0  0  0  0  0  0  0  0  0  0  0  0
   -3.8634   16.7846  -35.9386 H   0  0  0  0  0  0  0  0  0  0  0  0
   -2.0681   16.7240  -35.9386 H   0  0  0  0  0  0  0  0  0  0  0  0
   -1.9096   17.8231  -33.8482 H   0  0  0  0  0  0  0  0  0  0  0  0
   -3.2440   18.6937  -34.7273 H   0  0  0  0  0  0  0  0  0  0  0  0
   -4.4229   16.5328  -33.2732 H   0  0  0  0  0  0  0  0  0  0  0  0
   -3.3100   17.4297  -32.1568 H   0  0  0  0  0  0  0  0  0  0  0  0
   -3.3974   20.0913  -33.2290 H   0  0  0  0  0  0  0  0  0  0  0  0
   -4.5270   22.7940  -31.7712 H   0  0  0  0  0  0  0  0  0  0  0  0
   -3.7473   22.3286  -33.3211 H   0  0  0  0  0  0  0  0  0  0  0  0
   -5.4082   23.0128  -33.3211 H   0  0  0  0  0  0  0  0  0  0  0  0
   -6.5055   16.3499  -31.9522 H   0  0  0  0  0  0  0  0  0  0  0  0
   -7.9779   17.0448  -32.7983 H   0  0  0  0  0  0  0  0  0  0  0  0
   -7.4372   15.7785  -34.5425 H   0  0  0  0  0  0  0  0  0  0  0  0
   -6.0343   16.9256  -34.7734 H   0  0  0  0  0  0  0  0  0  0  0  0
   -4.7500   15.2290  -34.5620 H   0  0  0  0  0  0  0  0  0  0  0  0
   -5.1920   15.0970  -32.9290 H   0  0  0  0  0  0  0  0  0  0  0  0
   -7.2153   13.7951  -33.9028 H   0  0  0  0  0  0  0  0  0  0  0  0
   -6.0557   13.5972  -35.2860 H   0  0  0  0  0  0  0  0  0  0  0  0
   -6.1668   12.1358  -32.8001 H   0  0  0  0  0  0  0  0  0  0  0  0
   -5.0510   11.9285  -34.2064 H   0  0  0  0  0  0  0  0  0  0  0  0
   -3.0359   11.8555  -30.8762 H   0  0  0  0  0  0  0  0  0  0  0  0
   -3.4861   10.9580  -32.3657 H   0  0  0  0  0  0  0  0  0  0  0  0
   -2.0479   12.0343  -32.3657 H   0  0  0  0  0  0  0  0  0  0  0  0
   -9.0130   18.4186  -32.6269 H   0  0  0  0  0  0  0  0  0  0  0  0
   -8.7520   19.1368  -30.9848 H   0  0  0  0  0  0  0  0  0  0  0  0
   -9.4135   20.6325  -33.5691 H   0  0  0  0  0  0  0  0  0  0  0  0
  -10.4681   20.4238  -32.1259 H   0  0  0  0  0  0  0  0  0  0  0  0
   -7.4534   22.4424  -29.6006 H   0  0  0  0  0  0  0  0  0  0  0  0
   -5.8212   22.4510  -30.4075 H   0  0  0  0  0  0  0  0  0  0  0  0
   -7.0646   24.2840  -31.9406 H   0  0  0  0  0  0  0  0  0  0  0  0
   -7.9797   24.5129  -30.3894 H   0  0  0  0  0  0  0  0  0  0  0  0
   -5.6549   25.8045  -30.9749 H   0  0  0  0  0  0  0  0  0  0  0  0
   -6.2062   25.3878  -29.2984 H   0  0  0  0  0  0  0  0  0  0  0  0
   -4.6507   23.7160  -29.0458 H   0  0  0  0  0  0  0  0  0  0  0  0
   -4.6094   23.3318  -30.8004 H   0  0  0  0  0  0  0  0  0  0  0  0
   -2.8076   24.6525  -28.2932 H   0  0  0  0  0  0  0  0  0  0  0  0
   -2.2901   23.4371  -29.5104 H   0  0  0  0  0  0  0  0  0  0  0  0
   -1.5566   25.0769  -29.5104 H   0  0  0  0  0  0  0  0  0  0  0  0
  1  2  1  0
  2  3  1  0
  3  4  1  0
  4  5  2  0
  5  6  1  0
  6  7  1  0
  6  8  2  0
  8  9  1  0
  9 10  2  0
 10 11  1  0
 11 12  1  0
 12 13  1  0
 13 14  1  0
 14 15  1  0
 15 16  1  0
 16 17  1  0
 16 18  2  0
 16 19  2  0
  9 20  1  0
 20 21  1  0
 21 22  1  0
 22 23  2  0
 22 24  1  0
 24 25  1  0
 25 26  1  0
 26 27  1  0
 27 28  1  0
 28 29  1  0
 29 30  1  0
 10  4  1  0
 24  8  1  0
  1 31  1  0
  1 32  1  0
  1 33  1  0
  2 34  1  0
  2 35  1  0
  3 36  1  0
  3 37  1  0
  5 38  1  0
  7 39  1  0
  7 40  1  0
  7 41  1  0
 11 42  1  0
 11 43  1  0
 12 44  1  0
 12 45  1  0
 13 46  1  0
 13 47  1  0
 14 48  1  0
 14 49  1  0
 15 50  1  0
 15 51  1  0
 17 52  1  0
 17 53  1  0
 17 54  1  0
 20 55  1  0
 20 56  1  0
 21 57  1  0
 21 58  1  0
 25 59  1  0
 25 60  1  0
 26 61  1  0
 26 62  1  0
 27 63  1  0
 27 64  1  0
 28 65  1  0
 28 66  1  0
 30 67  1  0
 30 68  1  0
 30 69  1  0
M  CHG  1  13   1
M  END
>  <UniqueID>  (35) 
34

>  <SMILES>  (35) 
CCCc1cc(C)c2c(c1CC[NH2+]CCS(C)(=O)=O)CCC(=O)N2CCCCOC

>  <Energy>  (35) 
63.899688207997464

>  <Genealogy>  (35) 
CCCc1cc(C)c2c(c1CC[NH2+]CCS(C)(=O)=O)CCC(=O)N2CCCCOC (protonated)
CCCc1cc(C)c2c(c1CC[NH2+]CCS(C)(=O)=O)CCC(=O)N2CCCCOC (3D coordinates assigned)
CCCc1cc(C)c2c(c1CC[NH2+]CCS(C)(=O)=O)CCC(=O)N2CCCCOC (nonaromatic ring conformer: 63.899688207997464 kcal/mol)

>  <smiles>  (35) 
CCCc1cc(C)c2c(c1CCNCCS(C)(=O)=O)CCC(=O)N2CCCCOC

>  <score_type>  (35) 
oracle

>  <origin>  (35) 
adg

>  <m_score__min__energy>  (35) 
-7.8099999999999996

>  <m_primary>  (35) 
energy

$$$$
35:0
     RDKit          3D

 38 39  0  0  0  0  0  0  0  0999 V2000
   -2.9620   22.2470  -29.7470 C   0  0  0  0  0  0  0  0  0  0  0  0
   -4.2500   22.3950  -28.9300 C   0  0  0  0  0  0  0  0  0  0  0  0
   -4.6090   23.8190  -28.7130 N   0  0  0  0  0  0  0  0  0  0  0  0
   -3.6640   24.5320  -27.8190 C   0  0  0  0  0  0  0  0  0  0  0  0
   -4.2280   24.9040  -26.4420 C   0  0  0  0  0  0  0  0  0  0  0  0
   -4.8680   24.5590  -29.9420 C   0  0  0  0  0  0  0  0  0  0  0  0
   -3.9320   25.1010  -30.5130 O   0  0  0  0  0  0  0  0  0  0  0  0
   -6.2360   24.6460  -30.5910 C   0  0  0  0  0  0  0  0  0  0  0  0
   -6.6450   23.3180  -31.1720 C   0  0  0  0  0  0  0  0  0  0  0  0
   -7.9390   22.8210  -30.9510 C   0  0  0  0  0  0  0  0  0  0  0  0
   -8.3200   21.5770  -31.4630 C   0  0  0  0  0  0  0  0  0  0  0  0
   -7.4090   20.8100  -32.2020 C   0  0  0  0  0  0  0  0  0  0  0  0
   -7.7790   19.5580  -32.7170 C   0  0  0  0  0  0  0  0  0  0  0  0
   -6.8600   18.8030  -33.4520 C   0  0  0  0  0  0  0  0  0  0  0  0
   -5.5690   19.2890  -33.6770 C   0  0  0  0  0  0  0  0  0  0  0  0
   -5.1890   20.5350  -33.1700 C   0  0  0  0  0  0  0  0  0  0  0  0
   -6.1020   21.3040  -32.4310 C   0  0  0  0  0  0  0  0  0  0  0  0
   -5.7300   22.5550  -31.9170 C   0  0  0  0  0  0  0  0  0  0  0  0
   -2.1045   22.1485  -29.0651 H   0  0  0  0  0  0  0  0  0  0  0  0
   -3.0310   21.3509  -30.3812 H   0  0  0  0  0  0  0  0  0  0  0  0
   -2.8259   23.1354  -30.3812 H   0  0  0  0  0  0  0  0  0  0  0  0
   -5.0713   21.8996  -29.4685 H   0  0  0  0  0  0  0  0  0  0  0  0
   -4.0839   21.9322  -27.9460 H   0  0  0  0  0  0  0  0  0  0  0  0
   -5.5110   23.8060  -28.1760 H   0  0  0  0  0  0  0  0  0  0  0  0
   -2.7869   23.8862  -27.6651 H   0  0  0  0  0  0  0  0  0  0  0  0
   -3.4252   25.4819  -28.3197 H   0  0  0  0  0  0  0  0  0  0  0  0
   -3.5856   24.4803  -25.6560 H   0  0  0  0  0  0  0  0  0  0  0  0
   -4.2569   25.9990  -26.3412 H   0  0  0  0  0  0  0  0  0  0  0  0
   -5.2460   24.4995  -26.3412 H   0  0  0  0  0  0  0  0  0  0  0  0
   -6.9742   24.9499  -29.8342 H   0  0  0  0  0  0  0  0  0  0  0  0
   -6.1907   25.3847  -31.4048 H   0  0  0  0  0  0  0  0  0  0  0  0
   -8.6595   23.4154  -30.3700 H   0  0  0  0  0  0  0  0  0  0  0  0
   -9.3377   21.1992  -31.2853 H   0  0  0  0  0  0  0  0  0  0  0  0
   -8.7934   19.1702  -32.5421 H   0  0  0  0  0  0  0  0  0  0  0  0
   -7.1542   17.8226  -33.8548 H   0  0  0  0  0  0  0  0  0  0  0  0
   -4.8501   18.6894  -34.2546 H   0  0  0  0  0  0  0  0  0  0  0  0
   -4.1722   20.9139  -33.3505 H   0  0  0  0  0  0  0  0  0  0  0  0
   -4.7160   22.9410  -32.0982 H   0  0  0  0  0  0  0  0  0  0  0  0
  1  2  1  0
  2  3  1  0
  3  4  1  0
  4  5  1  0
  3  6  1  0
  6  7  2  0
  6  8  1  0
  8  9  1  0
  9 10  2  0
 10 11  1  0
 11 12  2  0
 12 13  1  0
 13 14  2  0
 14 15  1  0
 15 16  2  0
 16 17  1  0
 17 18  2  0
 18  9  1  0
 17 12  1  0
  1 19  1  0
  1 20  1  0
  1 21  1  0
  2 22  1  0
  2 23  1  0
  3 24  1  0
  4 25  1  0
  4 26  1  0
  5 27  1  0
  5 28  1  0
  5 29  1  0
  8 30  1  0
  8 31  1  0
 10 32  1  0
 11 33  1  0
 13 34  1  0
 14 35  1  0
 15 36  1  0
 16 37  1  0
 18 38  1  0
M  CHG  1   3   1
M  END
>  <UniqueID>  (36) 
35

>  <SMILES>  (36) 
CC[NH+](CC)C(=O)Cc1ccc2ccccc2c1

>  <Energy>  (36) 
42.85556505318082

>  <Genealogy>  (36) 
CC[NH+](CC)C(=O)Cc1ccc2ccccc2c1 (protonated)
CC[NH+](CC)C(=O)Cc1ccc2ccccc2c1 (3D coordinates assigned)
CC[NH+](CC)C(=O)Cc1ccc2ccccc2c1 (optimized conformer: 42.85556505318082 kcal/mol)

>  <smiles>  (36) 
CCN(CC)C(=O)Cc1ccc2ccccc2c1

>  <score_type>  (36) 
oracle

>  <origin>  (36) 
adg

>  <m_score__min__energy>  (36) 
-7.2599999999999998

>  <m_primary>  (36) 
energy

$$$$
36:0
     RDKit          3D

 46 48  0  0  0  0  0  0  0  0999 V2000
   -5.4780   17.0980  -33.0240 C   0  0  0  0  0  0  0  0  0  0  0  0
   -6.5810   17.4240  -32.0210 C   0  0  0  0  0  0  0  0  0  0  0  0
   -7.6870   18.0910  -32.6700 N   0  0  0  0  0  0  0  0  0  0  0  0
   -8.4230   19.3200  -32.0450 S   0  0  0  0  0  5  0  0  0  0  0  0
   -9.6350   19.8310  -33.0910 O   0  0  0  0  0  0  0  0  0  0  0  0
   -9.1110   18.8860  -30.5700 O   0  0  0  0  0  0  0  0  0  0  0  0
   -7.2750   20.6290  -31.7920 C   0  0  0  0  0  0  0  0  0  0  0  0
   -5.9860   20.5680  -32.3580 C   0  0  0  0  0  0  0  0  0  0  0  0
   -5.0630   21.6090  -32.1570 C   0  0  0  0  0  0  0  0  0  0  0  0
   -3.4060   21.5340  -33.1130 Br  0  0  0  0  0  0  0  0  0  0  0  0
   -5.4480   22.6960  -31.3460 C   0  0  0  0  0  0  0  0  0  0  0  0
   -6.7220   22.7720  -30.8440 C   0  0  0  0  0  0  0  0  0  0  0  0
   -7.6490   21.7500  -31.0340 C   0  0  0  0  0  0  0  0  0  0  0  0
   -6.9280   24.0510  -30.1250 C   0  0  0  0  0  0  0  0  0  0  0  0
   -5.6300   24.8240  -30.4270 C   0  0  0  0  0  0  0  0  0  0  0  0
   -4.6850   23.8500  -30.9920 N   0  0  0  0  0  0  0  0  0  0  0  0
   -3.3000   23.7940  -30.5040 C   0  0  0  0  0  0  0  0  0  0  0  0
   -3.1020   22.6180  -29.5800 C   0  0  0  0  0  0  0  0  0  0  0  0
   -2.2130   21.5860  -29.9230 C   0  0  0  0  0  0  0  0  0  0  0  0
   -1.9930   20.5210  -29.0460 C   0  0  0  0  0  0  0  0  0  0  0  0
   -2.6710   20.4580  -27.8160 C   0  0  0  0  0  0  0  0  0  0  0  0
   -2.3910   19.3400  -26.8440 C   0  0  0  0  0  0  0  0  0  0  0  0
   -1.3990   18.5060  -27.3330 F   0  0  0  0  0  0  0  0  0  0  0  0
   -3.5440   18.6040  -26.6530 F   0  0  0  0  0  0  0  0  0  0  0  0
   -1.9700   19.8440  -25.6250 F   0  0  0  0  0  0  0  0  0  0  0  0
   -3.5410   21.5040  -27.4640 C   0  0  0  0  0  0  0  0  0  0  0  0
   -3.7600   22.5700  -28.3420 C   0  0  0  0  0  0  0  0  0  0  0  0
   -4.5593   16.8265  -32.4834 H   0  0  0  0  0  0  0  0  0  0  0  0
   -5.7944   16.2550  -33.6558 H   0  0  0  0  0  0  0  0  0  0  0  0
   -5.2852   17.9776  -33.6558 H   0  0  0  0  0  0  0  0  0  0  0  0
   -6.9410   16.4899  -31.5652 H   0  0  0  0  0  0  0  0  0  0  0  0
   -6.1696   18.0933  -31.2510 H   0  0  0  0  0  0  0  0  0  0  0  0
   -9.4750   19.3320  -33.9320 H   0  0  0  0  0  0  0  0  0  0  0  0
   -9.4690   17.9730  -30.7110 H   0  0  0  0  0  0  0  0  0  0  0  0
   -5.6988   19.6960  -32.9639 H   0  0  0  0  0  0  0  0  0  0  0  0
   -8.6564   21.8199  -30.5978 H   0  0  0  0  0  0  0  0  0  0  0  0
   -7.8074   24.5863  -30.5124 H   0  0  0  0  0  0  0  0  0  0  0  0
   -7.1175   23.9207  -29.0493 H   0  0  0  0  0  0  0  0  0  0  0  0
   -5.8264   25.6275  -31.1522 H   0  0  0  0  0  0  0  0  0  0  0  0
   -5.2240   25.2899  -29.5170 H   0  0  0  0  0  0  0  0  0  0  0  0
   -2.6193   23.6961  -31.3625 H   0  0  0  0  0  0  0  0  0  0  0  0
   -3.0858   24.7183  -29.9474 H   0  0  0  0  0  0  0  0  0  0  0  0
   -1.6866   21.6166  -30.8884 H   0  0  0  0  0  0  0  0  0  0  0  0
   -1.2840   19.7258  -29.3199 H   0  0  0  0  0  0  0  0  0  0  0  0
   -4.0534   21.4840  -26.4908 H   0  0  0  0  0  0  0  0  0  0  0  0
   -4.4529   23.3764  -28.0600 H   0  0  0  0  0  0  0  0  0  0  0  0
  1  2  1  0
  2  3  1  0
  3  4  2  0
  4  5  1  0
  4  6  1  0
  4  7  1  0
  7  8  2  0
  8  9  1  0
  9 10  1  0
  9 11  2  0
 11 12  1  0
 12 13  2  0
 12 14  1  0
 14 15  1  0
 15 16  1  0
 16 17  1  0
 17 18  1  0
 18 19  2  0
 19 20  1  0
 20 21  2  0
 21 22  1  0
 22 23  1  0
 22 24  1  0
 22 25  1  0
 21 26  1  0
 26 27  2  0
 13  7  1  0
 27 18  1  0
 16 11  1  0
  1 28  1  0
  1 29  1  0
  1 30  1  0
  2 31  1  0
  2 32  1  0
  5 33  1  0
  6 34  1  0
  8 35  1  0
 13 36  1  0
 14 37  1  0
 14 38  1  0
 15 39  1  0
 15 40  1  0
 17 41  1  0
 17 42  1  0
 19 43  1  0
 20 44  1  0
 26 45  1  0
 27 46  1  0
M  CHG  1   4   1
M  END
>  <UniqueID>  (37) 
36

>  <SMILES>  (37) 
CCN=[S+](O)(O)c1cc(Br)c2c(c1)CCN2Cc1ccc(C(F)(F)F)cc1

>  <Energy>  (37) 
62.73860400936337

>  <Genealogy>  (37) 
CCN=[S+](O)(O)c1cc(Br)c2c(c1)CCN2Cc1ccc(C(F)(F)F)cc1 (protonated)
CCN=[S+](O)(O)c1cc(Br)c2c(c1)CCN2Cc1ccc(C(F)(F)F)cc1 (3D coordinates assigned)
CCN=[S+](O)(O)c1cc(Br)c2c(c1)CCN2Cc1ccc(C(F)(F)F)cc1 (nonaromatic ring conformer: 62.73860400936337 kcal/mol)

>  <smiles>  (37) 
CCN=[S+]([O-])([O-])c1cc(Br)c2c(c1)CCN2Cc1ccc(C(F)(F)F)cc1

>  <score_type>  (37) 
oracle

>  <origin>  (37) 
adg

>  <m_score__min__energy>  (37) 
-8.8000000000000007

>  <m_primary>  (37) 
energy

$$$$
37:0
     RDKit          3D

 70 74  0  0  0  0  0  0  0  0999 V2000
   -9.3720   20.3890  -32.3440 C   0  0  0  0  0  0  0  0  0  0  0  0
   -8.1180   19.5980  -31.9460 C   0  0  0  0  0  0  0  0  0  0  0  0
   -7.3420   19.0550  -33.0940 N   0  0  0  0  0  0  0  0  0  0  0  0
   -7.2490   17.5690  -33.0920 C   0  0  0  0  0  0  0  0  0  0  0  0
   -6.1150   17.0390  -33.9780 C   0  0  0  0  0  0  0  0  0  0  0  0
   -5.9890   19.6710  -33.1660 C   0  0  0  0  0  0  0  0  0  0  0  0
   -5.9940   21.1470  -32.7240 C   0  0  0  0  0  0  0  0  0  0  0  0
   -4.6920   21.7650  -32.9620 N   0  0  0  0  0  0  0  0  0  0  0  0
   -3.5510   21.3650  -32.1890 C   0  0  0  0  0  0  0  0  0  0  0  0
   -2.6690   20.3950  -32.6900 C   0  0  0  0  0  0  0  0  0  0  0  0
   -2.8690   19.8170  -33.9600 C   0  0  0  0  0  0  0  0  0  0  0  0
   -1.9960   18.8430  -34.4420 C   0  0  0  0  0  0  0  0  0  0  0  0
   -0.9160   18.4310  -33.6680 C   0  0  0  0  0  0  0  0  0  0  0  0
   -0.7030   18.9850  -32.4070 C   0  0  0  0  0  0  0  0  0  0  0  0
   -1.5740   19.9760  -31.8910 C   0  0  0  0  0  0  0  0  0  0  0  0
   -1.3820   20.5240  -30.6390 N   0  0  0  0  0  0  0  0  0  0  0  0
   -0.6110   19.7490  -29.6420 C   0  0  0  0  0  0  0  0  0  0  0  0
   -2.0850   21.6570  -30.2620 C   0  0  0  0  0  0  0  0  0  0  0  0
   -3.2730   21.9850  -30.9570 C   0  0  0  0  0  0  0  0  0  0  0  0
   -4.1660   22.9130  -30.4040 C   0  0  0  0  0  0  0  0  0  0  0  0
   -3.8670   23.5710  -29.2180 C   0  0  0  0  0  0  0  0  0  0  0  0
   -2.6120   23.4100  -28.5950 C   0  0  0  0  0  0  0  0  0  0  0  0
   -2.2330   24.1700  -27.4440 C   0  0  0  0  0  0  0  0  0  0  0  0
   -3.1520   24.9460  -26.7030 C   0  0  0  0  0  0  0  0  0  0  0  0
   -2.7420   25.6890  -25.5970 C   0  0  0  0  0  0  0  0  0  0  0  0
   -1.4010   25.6870  -25.1890 C   0  0  0  0  0  0  0  0  0  0  0  0
   -0.9720   26.3990  -24.0570 O   0  0  0  0  0  0  0  0  0  0  0  0
   -0.2170   27.6050  -24.0980 C   0  0  0  0  0  0  0  0  0  0  0  0
   -0.4650   24.9300  -25.9100 C   0  0  0  0  0  0  0  0  0  0  0  0
    0.8810   24.9210  -25.5200 O   0  0  0  0  0  0  0  0  0  0  0  0
    1.8440   25.8030  -26.0850 C   0  0  0  0  0  0  0  0  0  0  0  0
   -0.8780   24.1520  -27.0150 C   0  0  0  0  0  0  0  0  0  0  0  0
    0.0580   23.3840  -27.7170 C   0  0  0  0  0  0  0  0  0  0  0  0
   -0.3340   22.5860  -28.7820 C   0  0  0  0  0  0  0  0  0  0  0  0
   -1.6790   22.5100  -29.1870 C   0  0  0  0  0  0  0  0  0  0  0  0
   -9.8989   20.7214  -31.4374 H   0  0  0  0  0  0  0  0  0  0  0  0
   -9.0786   21.2659  -32.9399 H   0  0  0  0  0  0  0  0  0  0  0  0
  -10.0370   19.7466  -32.9399 H   0  0  0  0  0  0  0  0  0  0  0  0
   -7.4592   20.2648  -31.3704 H   0  0  0  0  0  0  0  0  0  0  0  0
   -8.4656   18.7312  -31.3648 H   0  0  0  0  0  0  0  0  0  0  0  0
   -7.8710   19.3360  -33.9540 H   0  0  0  0  0  0  0  0  0  0  0  0
   -7.0754   17.2299  -32.0601 H   0  0  0  0  0  0  0  0  0  0  0  0
   -8.1940   17.1794  -33.4984 H   0  0  0  0  0  0  0  0  0  0  0  0
   -5.3011   16.6586  -33.3433 H   0  0  0  0  0  0  0  0  0  0  0  0
   -6.4956   16.2255  -34.6131 H   0  0  0  0  0  0  0  0  0  0  0  0
   -5.7350   17.8528  -34.6131 H   0  0  0  0  0  0  0  0  0  0  0  0
   -5.3086   19.1078  -32.5104 H   0  0  0  0  0  0  0  0  0  0  0  0
   -5.6583   19.6349  -34.2145 H   0  0  0  0  0  0  0  0  0  0  0  0
   -6.7611   21.6915  -33.2942 H   0  0  0  0  0  0  0  0  0  0  0  0
   -6.2134   21.1914  -31.6470 H   0  0  0  0  0  0  0  0  0  0  0  0
   -4.6060   22.6100  -33.5710 H   0  0  0  0  0  0  0  0  0  0  0  0
   -3.7218   20.1375  -34.5764 H   0  0  0  0  0  0  0  0  0  0  0  0
   -2.1612   18.3998  -35.4351 H   0  0  0  0  0  0  0  0  0  0  0  0
   -0.2271   17.6646  -34.0529 H   0  0  0  0  0  0  0  0  0  0  0  0
    0.1532   18.6481  -31.8041 H   0  0  0  0  0  0  0  0  0  0  0  0
   -0.9128   20.0524  -28.6287 H   0  0  0  0  0  0  0  0  0  0  0  0
   -0.8102   18.6758  -29.7781 H   0  0  0  0  0  0  0  0  0  0  0  0
    0.4632   19.9427  -29.7781 H   0  0  0  0  0  0  0  0  0  0  0  0
   -5.1165   23.1230  -30.9162 H   0  0  0  0  0  0  0  0  0  0  0  0
   -4.6202   24.2274  -28.7578 H   0  0  0  0  0  0  0  0  0  0  0  0
   -4.2098   24.9643  -27.0041 H   0  0  0  0  0  0  0  0  0  0  0  0
   -3.4794   26.2837  -25.0380 H   0  0  0  0  0  0  0  0  0  0  0  0
   -0.0067   27.9410  -23.0719 H   0  0  0  0  0  0  0  0  0  0  0  0
    0.7308   27.4264  -24.6269 H   0  0  0  0  0  0  0  0  0  0  0  0
   -0.7917   28.3796  -24.6269 H   0  0  0  0  0  0  0  0  0  0  0  0
    2.3959   26.3084  -25.2788 H   0  0  0  0  0  0  0  0  0  0  0  0
    2.5469   25.2289  -26.7065 H   0  0  0  0  0  0  0  0  0  0  0  0
    1.3337   26.5535  -26.7065 H   0  0  0  0  0  0  0  0  0  0  0  0
    1.1170   23.4134  -27.4208 H   0  0  0  0  0  0  0  0  0  0  0  0
    0.4240   21.9995  -29.3219 H   0  0  0  0  0  0  0  0  0  0  0  0
  1  2  1  0
  2  3  1  0
  3  4  1  0
  4  5  1  0
  3  6  1  0
  6  7  1  0
  7  8  1  0
  8  9  1  0
  9 10  2  0
 10 11  1  0
 11 12  2  0
 12 13  1  0
 13 14  2  0
 14 15  1  0
 15 16  2  0
 16 17  1  0
 16 18  1  0
 18 19  2  0
 19 20  1  0
 20 21  2  0
 21 22  1  0
 22 23  2  0
 23 24  1  0
 24 25  2  0
 25 26  1  0
 26 27  1  0
 27 28  1  0
 26 29  2  0
 29 30  1  0
 30 31  1  0
 29 32  1  0
 32 33  2  0
 33 34  1  0
 34 35  2  0
 19  9  1  0
 35 22  1  0
 15 10  1  0
 35 18  1  0
 32 23  1  0
  1 36  1  0
  1 37  1  0
  1 38  1  0
  2 39  1  0
  2 40  1  0
  3 41  1  0
  4 42  1  0
  4 43  1  0
  5 44  1  0
  5 45  1  0
  5 46  1  0
  6 47  1  0
  6 48  1  0
  7 49  1  0
  7 50  1  0
  8 51  1  0
 11 52  1  0
 12 53  1  0
 13 54  1  0
 14 55  1  0
 17 56  1  0
 17 57  1  0
 17 58  1  0
 20 59  1  0
 21 60  1  0
 24 61  1  0
 25 62  1  0
 28 63  1  0
 28 64  1  0
 28 65  1  0
 31 66  1  0
 31 67  1  0
 31 68  1  0
 33 69  1  0
 34 70  1  0
M  CHG  2   3   1  16   1
M  END
>  <UniqueID>  (38) 
37

>  <SMILES>  (38) 
CC[NH+](CC)CCNc1c2ccccc2[n+](C)c2c1ccc1c3ccc(OC)c(OC)c3ccc12

>  <Energy>  (38) 
133.18927018617455

>  <Genealogy>  (38) 
CC[NH+](CC)CCNc1c2ccccc2[n+](C)c2c1ccc1c3ccc(OC)c(OC)c3ccc12 (protonated)
CC[NH+](CC)CCNc1c2ccccc2[n+](C)c2c1ccc1c3ccc(OC)c(OC)c3ccc12 (3D coordinates assigned)
CC[NH+](CC)CCNc1c2ccccc2[n+](C)c2c1ccc1c3ccc(OC)c(OC)c3ccc12 (optimized conformer: 133.18927018617455 kcal/mol)

>  <smiles>  (38) 
CCN(CC)CCNc1c2ccccc2[n+](C)c2c1ccc1c3ccc(OC)c(OC)c3ccc12

>  <score_type>  (38) 
oracle

>  <origin>  (38) 
adg

>  <m_score__min__energy>  (38) 
-7.9100000000000001

>  <m_primary>  (38) 
energy

$$$$
38:0
     RDKit          3D

 55 57  0  0  0  0  0  0  0  0999 V2000
   -6.1190   25.6680  -29.3310 C   0  0  0  0  0  0  0  0  0  0  0  0
   -5.6500   24.7370  -30.4090 C   0  0  0  0  0  0  0  0  0  0  0  0
   -4.5140   24.9370  -30.9220 O   0  0  0  0  0  0  0  0  0  0  0  0
   -6.4840   23.5990  -30.8840 C   0  0  0  0  0  0  0  0  0  0  0  0
   -7.3790   22.9370  -30.0220 C   0  0  0  0  0  0  0  0  0  0  0  0
   -8.1540   21.8710  -30.4850 C   0  0  0  0  0  0  0  0  0  0  0  0
   -8.0580   21.4400  -31.8120 C   0  0  0  0  0  0  0  0  0  0  0  0
   -8.8610   20.3620  -32.2180 O   0  0  0  0  0  0  0  0  0  0  0  0
   -8.6810   18.9990  -31.8330 C   0  0  0  0  0  0  0  0  0  0  0  0
   -7.1870   18.6520  -31.7460 C   0  0  0  0  0  0  0  0  0  0  0  0
   -6.7550   17.8310  -32.8990 N   0  0  0  0  0  0  0  0  0  0  0  0
   -5.7780   16.7890  -32.4860 C   0  0  0  0  0  0  0  0  0  0  0  0
   -4.3300   17.2150  -32.7700 C   0  0  0  0  0  0  0  0  0  0  0  0
   -4.0940   17.4300  -34.2240 N   0  0  0  0  0  0  0  0  0  0  0  0
   -2.9610   18.3600  -34.4500 C   0  0  0  0  0  0  0  0  0  0  0  0
   -2.8940   19.4410  -33.3930 C   0  0  0  0  0  0  0  0  0  0  0  0
   -3.7720   20.5350  -33.4350 C   0  0  0  0  0  0  0  0  0  0  0  0
   -3.7240   21.5170  -32.4410 C   0  0  0  0  0  0  0  0  0  0  0  0
   -2.7900   21.4240  -31.3990 C   0  0  0  0  0  0  0  0  0  0  0  0
   -2.7670   22.4570  -30.3110 C   0  0  0  0  0  0  0  0  0  0  0  0
   -1.9270   20.3200  -31.3440 C   0  0  0  0  0  0  0  0  0  0  0  0
   -1.9750   19.3370  -32.3370 C   0  0  0  0  0  0  0  0  0  0  0  0
   -5.3130   17.8980  -34.9410 C   0  0  0  0  0  0  0  0  0  0  0  0
   -6.2660   18.6750  -34.0180 C   0  0  0  0  0  0  0  0  0  0  0  0
   -7.1620   22.0950  -32.6780 C   0  0  0  0  0  0  0  0  0  0  0  0
   -6.3860   23.1610  -32.2170 C   0  0  0  0  0  0  0  0  0  0  0  0
   -5.8983   25.2298  -28.3465 H   0  0  0  0  0  0  0  0  0  0  0  0
   -5.5993   26.6326  -29.4279 H   0  0  0  0  0  0  0  0  0  0  0  0
   -7.2035   25.8245  -29.4279 H   0  0  0  0  0  0  0  0  0  0  0  0
   -7.4687   23.2620  -28.9749 H   0  0  0  0  0  0  0  0  0  0  0  0
   -8.8479   21.3647  -29.7979 H   0  0  0  0  0  0  0  0  0  0  0  0
   -9.1472   18.8369  -30.8499 H   0  0  0  0  0  0  0  0  0  0  0  0
   -9.1506   18.3529  -32.5893 H   0  0  0  0  0  0  0  0  0  0  0  0
   -6.6033   19.5843  -31.7319 H   0  0  0  0  0  0  0  0  0  0  0  0
   -7.0194   18.0723  -30.8263 H   0  0  0  0  0  0  0  0  0  0  0  0
   -5.8893   16.6051  -31.4072 H   0  0  0  0  0  0  0  0  0  0  0  0
   -5.9852   15.8786  -33.0676 H   0  0  0  0  0  0  0  0  0  0  0  0
   -4.1223   18.1522  -32.2328 H   0  0  0  0  0  0  0  0  0  0  0  0
   -3.6628   16.4093  -32.4300 H   0  0  0  0  0  0  0  0  0  0  0  0
   -3.8330   16.5050  -34.6440 H   0  0  0  0  0  0  0  0  0  0  0  0
   -2.0223   17.7869  -34.4316 H   0  0  0  0  0  0  0  0  0  0  0  0
   -3.1112   18.8473  -35.4247 H   0  0  0  0  0  0  0  0  0  0  0  0
   -4.5015   20.6203  -34.2539 H   0  0  0  0  0  0  0  0  0  0  0  0
   -4.4220   22.3664  -32.4764 H   0  0  0  0  0  0  0  0  0  0  0  0
   -2.7781   21.9576  -29.3310 H   0  0  0  0  0  0  0  0  0  0  0  0
   -1.8551   23.0654  -30.4022 H   0  0  0  0  0  0  0  0  0  0  0  0
   -3.6509   23.1053  -30.4022 H   0  0  0  0  0  0  0  0  0  0  0  0
   -1.2090   20.2270  -30.5158 H   0  0  0  0  0  0  0  0  0  0  0  0
   -1.2894   18.4780  -32.2906 H   0  0  0  0  0  0  0  0  0  0  0  0
   -5.0072   18.5549  -35.7686 H   0  0  0  0  0  0  0  0  0  0  0  0
   -5.8488   17.0115  -35.3112 H   0  0  0  0  0  0  0  0  0  0  0  0
   -5.7322   19.5428  -33.6033 H   0  0  0  0  0  0  0  0  0  0  0  0
   -7.1349   18.9943  -34.6122 H   0  0  0  0  0  0  0  0  0  0  0  0
   -7.0725   21.7654  -33.7237 H   0  0  0  0  0  0  0  0  0  0  0  0
   -5.6900   23.6639  -32.9046 H   0  0  0  0  0  0  0  0  0  0  0  0
  1  2  1  0
  2  3  2  0
  2  4  1  0
  4  5  2  0
  5  6  1  0
  6  7  2  0
  7  8  1  0
  8  9  1  0
  9 10  1  0
 10 11  1  0
 11 12  1  0
 12 13  1  0
 13 14  1  0
 14 15  1  0
 15 16  1  0
 16 17  2  0
 17 18  1  0
 18 19  2  0
 19 20  1  0
 19 21  1  0
 21 22  2  0
 14 23  1  0
 23 24  1  0
  7 25  1  0
 25 26  2  0
 26  4  1  0
 24 11  1  0
 22 16  1  0
  1 27  1  0
  1 28  1  0
  1 29  1  0
  5 30  1  0
  6 31  1  0
  9 32  1  0
  9 33  1  0
 10 34  1  0
 10 35  1  0
 12 36  1  0
 12 37  1  0
 13 38  1  0
 13 39  1  0
 14 40  1  0
 15 41  1  0
 15 42  1  0
 17 43  1  0
 18 44  1  0
 20 45  1  0
 20 46  1  0
 20 47  1  0
 21 48  1  0
 22 49  1  0
 23 50  1  0
 23 51  1  0
 24 52  1  0
 24 53  1  0
 25 54  1  0
 26 55  1  0
M  CHG  1  14   1
M  END
>  <UniqueID>  (39) 
38

>  <SMILES>  (39) 
CC(=O)c1ccc(OCCN2CC[NH+](Cc3ccc(C)cc3)CC2)cc1

>  <Energy>  (39) 
69.03538152396487

>  <Genealogy>  (39) 
CC(=O)c1ccc(OCCN2CC[NH+](Cc3ccc(C)cc3)CC2)cc1 (protonated)
CC(=O)c1ccc(OCCN2CC[NH+](Cc3ccc(C)cc3)CC2)cc1 (3D coordinates assigned)
CC(=O)c1ccc(OCCN2CC[NH+](Cc3ccc(C)cc3)CC2)cc1 (nonaromatic ring conformer: 69.03538152396487 kcal/mol)

>  <smiles>  (39) 
CC(=O)c1ccc(OCCN2CCN(Cc3ccc(C)cc3)CC2)cc1

>  <score_type>  (39) 
oracle

>  <origin>  (39) 
adg

>  <m_score__min__energy>  (39) 
-8.6999999999999993

>  <m_primary>  (39) 
energy

$$$$
39:0
     RDKit          3D

 47 47  0  0  0  0  0  0  0  0999 V2000
   -1.8360   21.1850  -31.3350 C   0  0  0  0  0  0  0  0  0  0  0  0
   -2.2440   21.5450  -32.7540 C   0  0  0  0  0  0  0  0  0  0  0  0
   -3.5250   22.1680  -32.7340 O   0  0  0  0  0  0  0  0  0  0  0  0
   -4.7480   21.4860  -32.6720 C   0  0  0  0  0  0  0  0  0  0  0  0
   -4.8540   20.1340  -33.0600 C   0  0  0  0  0  0  0  0  0  0  0  0
   -6.0870   19.4800  -33.0210 C   0  0  0  0  0  0  0  0  0  0  0  0
   -6.2070   17.6390  -33.5160 Br  0  0  0  0  0  0  0  0  0  0  0  0
   -7.2290   20.1680  -32.6140 C   0  0  0  0  0  0  0  0  0  0  0  0
   -7.1420   21.5070  -32.2270 C   0  0  0  0  0  0  0  0  0  0  0  0
   -8.7240   22.4010  -31.6270 Br  0  0  0  0  0  0  0  0  0  0  0  0
   -5.9030   22.1690  -32.2240 C   0  0  0  0  0  0  0  0  0  0  0  0
   -5.8700   23.5010  -31.7770 O   0  0  0  0  0  0  0  0  0  0  0  0
   -5.8760   23.9290  -30.4110 C   0  0  0  0  0  0  0  0  0  0  0  0
   -5.2570   25.3200  -30.2620 C   0  0  0  0  0  0  0  0  0  0  0  0
   -3.8680   25.2520  -30.5240 O   0  0  0  0  0  0  0  0  0  0  0  0
   -3.3480   23.9850  -30.1710 C   0  0  0  0  0  0  0  0  0  0  0  0
   -2.4160   24.1200  -28.9650 C   0  0  0  0  0  0  0  0  0  0  0  0
   -3.0420   23.5120  -27.7700 N   0  0  0  0  0  0  0  0  0  0  0  0
   -3.8260   22.2970  -28.0810 C   0  0  0  0  0  0  0  0  0  0  0  0
   -2.9780   21.0440  -27.8810 C   0  0  0  0  0  0  0  0  0  0  0  0
   -3.7950   24.4960  -26.9570 C   0  0  0  0  0  0  0  0  0  0  0  0
   -2.9240   25.3000  -25.9750 C   0  0  0  0  0  0  0  0  0  0  0  0
   -2.4637   21.7388  -30.6213 H   0  0  0  0  0  0  0  0  0  0  0  0
   -1.9687   20.1043  -31.1783 H   0  0  0  0  0  0  0  0  0  0  0  0
   -0.7803   21.4513  -31.1783 H   0  0  0  0  0  0  0  0  0  0  0  0
   -1.5055   22.2379  -33.1837 H   0  0  0  0  0  0  0  0  0  0  0  0
   -2.2886   20.6323  -33.3664 H   0  0  0  0  0  0  0  0  0  0  0  0
   -3.9584   19.5907  -33.3959 H   0  0  0  0  0  0  0  0  0  0  0  0
   -8.2017   19.6546  -32.5976 H   0  0  0  0  0  0  0  0  0  0  0  0
   -6.9144   23.9582  -30.0491 H   0  0  0  0  0  0  0  0  0  0  0  0
   -5.2785   23.2180  -29.8216 H   0  0  0  0  0  0  0  0  0  0  0  0
   -5.7308   26.0099  -30.9758 H   0  0  0  0  0  0  0  0  0  0  0  0
   -5.4179   25.6835  -29.2363 H   0  0  0  0  0  0  0  0  0  0  0  0
   -4.1774   23.3087  -29.9166 H   0  0  0  0  0  0  0  0  0  0  0  0
   -2.7818   23.5771  -31.0213 H   0  0  0  0  0  0  0  0  0  0  0  0
   -1.4666   23.6074  -29.1793 H   0  0  0  0  0  0  0  0  0  0  0  0
   -2.2291   25.1865  -28.7711 H   0  0  0  0  0  0  0  0  0  0  0  0
   -4.7008   22.2513  -27.4158 H   0  0  0  0  0  0  0  0  0  0  0  0
   -4.1485   22.3427  -29.1317 H   0  0  0  0  0  0  0  0  0  0  0  0
   -2.8504   20.8555  -26.8048 H   0  0  0  0  0  0  0  0  0  0  0  0
   -3.4800   20.1833  -28.3470 H   0  0  0  0  0  0  0  0  0  0  0  0
   -1.9924   21.1901  -28.3470 H   0  0  0  0  0  0  0  0  0  0  0  0
   -4.2876   25.2034  -27.6403 H   0  0  0  0  0  0  0  0  0  0  0  0
   -4.5106   23.9229  -26.3492 H   0  0  0  0  0  0  0  0  0  0  0  0
   -3.2027   25.0427  -24.9425 H   0  0  0  0  0  0  0  0  0  0  0  0
   -1.8642   25.0559  -26.1404 H   0  0  0  0  0  0  0  0  0  0  0  0
   -3.0826   26.3759  -26.1404 H   0  0  0  0  0  0  0  0  0  0  0  0
  1  2  1  0
  2  3  1  0
  3  4  1  0
  4  5  2  0
  5  6  1  0
  6  7  1  0
  6  8  2  0
  8  9  1  0
  9 10  1  0
  9 11  2  0
 11 12  1  0
 12 13  1  0
 13 14  1  0
 14 15  1  0
 15 16  1  0
 16 17  1  0
 17 18  1  0
 18 19  1  0
 19 20  1  0
 18 21  1  0
 21 22  1  0
 11  4  1  0
  1 23  1  0
  1 24  1  0
  1 25  1  0
  2 26  1  0
  2 27  1  0
  5 28  1  0
  8 29  1  0
 13 30  1  0
 13 31  1  0
 14 32  1  0
 14 33  1  0
 16 34  1  0
 16 35  1  0
 17 36  1  0
 17 37  1  0
 19 38  1  0
 19 39  1  0
 20 40  1  0
 20 41  1  0
 20 42  1  0
 21 43  1  0
 21 44  1  0
 22 45  1  0
 22 46  1  0
 22 47  1  0
M  END
>  <UniqueID>  (40) 
39

>  <SMILES>  (40) 
CCOc1cc(Br)cc(Br)c1OCCOCCN(CC)CC

>  <Energy>  (40) 
41.502696197017414

>  <Genealogy>  (40) 
CCOc1cc(Br)cc(Br)c1OCCOCCN(CC)CC (3D coordinates assigned)
CCOc1cc(Br)cc(Br)c1OCCOCCN(CC)CC (optimized conformer: 41.502696197017414 kcal/mol)

>  <smiles>  (40) 
CCOc1cc(Br)cc(Br)c1OCCOCCN(CC)CC

>  <score_type>  (40) 
oracle

>  <origin>  (40) 
adg

>  <m_score__min__energy>  (40) 
-7.3600000000000003

>  <m_primary>  (40) 
energy

$$$$
40:0
     RDKit          3D

 56 59  0  0  0  0  0  0  0  0999 V2000
   -2.1670   22.2180  -31.6020 C   0  0  0  0  0  0  0  0  0  0  0  0
   -3.4690   22.6510  -31.9850 O   0  0  0  0  0  0  0  0  0  0  0  0
   -4.5630   21.7990  -32.1990 C   0  0  0  0  0  0  0  0  0  0  0  0
   -4.3950   20.4750  -32.6500 C   0  0  0  0  0  0  0  0  0  0  0  0
   -5.5050   19.6340  -32.8400 C   0  0  0  0  0  0  0  0  0  0  0  0
   -5.3300   18.2740  -33.2790 N   0  0  0  0  0  0  0  0  0  0  0  0
   -4.3110   17.7860  -34.1640 C   0  0  0  0  0  0  0  0  0  0  0  0
   -3.5640   18.5430  -34.8400 O   0  0  0  0  0  0  0  0  0  0  0  0
   -4.2640   16.3210  -34.2500 C   0  0  0  0  0  0  0  0  0  0  0  0
   -3.3990   15.5440  -35.0260 C   0  0  0  0  0  0  0  0  0  0  0  0
   -3.5250   14.1460  -34.9830 C   0  0  0  0  0  0  0  0  0  0  0  0
   -4.5100   13.5450  -34.1750 C   0  0  0  0  0  0  0  0  0  0  0  0
   -5.3760   14.3380  -33.4050 C   0  0  0  0  0  0  0  0  0  0  0  0
   -5.2300   15.7220  -33.4570 C   0  0  0  0  0  0  0  0  0  0  0  0
   -6.1890   16.9190  -32.6360 S   0  0  0  0  0  0  0  0  0  0  0  0
   -7.6220   16.8970  -33.0860 O   0  0  0  0  0  0  0  0  0  0  0  0
   -6.0540   16.8340  -31.1420 O   0  0  0  0  0  0  0  0  0  0  0  0
   -6.7870   20.1200  -32.5560 C   0  0  0  0  0  0  0  0  0  0  0  0
   -6.9660   21.4300  -32.1130 C   0  0  0  0  0  0  0  0  0  0  0  0
   -5.8650   22.2820  -31.9460 C   0  0  0  0  0  0  0  0  0  0  0  0
   -6.0830   23.6820  -31.4260 C   0  0  0  0  0  0  0  0  0  0  0  0
   -5.6250   23.7900  -29.9630 C   0  0  0  0  0  0  0  0  0  0  0  0
   -4.2110   24.3020  -29.8340 C   0  0  0  0  0  0  0  0  0  0  0  0
   -3.8510   25.3010  -30.5180 O   0  0  0  0  0  0  0  0  0  0  0  0
   -3.2470   23.6260  -28.9920 N   0  0  0  0  0  0  0  0  0  0  0  0
   -1.9440   24.2520  -28.7320 C   0  0  0  0  0  0  0  0  0  0  0  0
   -1.4250   23.9230  -27.3140 C   0  0  0  0  0  0  0  0  0  0  0  0
   -1.8890   22.6130  -26.7860 N   0  0  0  0  0  0  0  0  0  0  0  0
   -0.8820   22.0180  -25.8960 C   0  0  0  0  0  0  0  0  0  0  0  0
   -2.2540   21.6700  -27.8540 C   0  0  0  0  0  0  0  0  0  0  0  0
   -3.4650   22.2250  -28.6020 C   0  0  0  0  0  0  0  0  0  0  0  0
   -2.0965   22.1945  -30.5045 H   0  0  0  0  0  0  0  0  0  0  0  0
   -1.9830   21.2103  -32.0029 H   0  0  0  0  0  0  0  0  0  0  0  0
   -1.4162   22.9148  -32.0029 H   0  0  0  0  0  0  0  0  0  0  0  0
   -3.3835   20.0950  -32.8558 H   0  0  0  0  0  0  0  0  0  0  0  0
   -2.6342   16.0186  -35.6583 H   0  0  0  0  0  0  0  0  0  0  0  0
   -2.8511   13.5171  -35.5833 H   0  0  0  0  0  0  0  0  0  0  0  0
   -4.6012   12.4491  -34.1471 H   0  0  0  0  0  0  0  0  0  0  0  0
   -6.1514   13.8769  -32.7756 H   0  0  0  0  0  0  0  0  0  0  0  0
   -7.6601   19.4631  -32.6834 H   0  0  0  0  0  0  0  0  0  0  0  0
   -7.9790   21.7979  -31.8928 H   0  0  0  0  0  0  0  0  0  0  0  0
   -5.5060   24.3899  -32.0392 H   0  0  0  0  0  0  0  0  0  0  0  0
   -7.1557   23.9192  -31.4815 H   0  0  0  0  0  0  0  0  0  0  0  0
   -6.2989   24.4789  -29.4328 H   0  0  0  0  0  0  0  0  0  0  0  0
   -5.6545   22.7796  -29.5291 H   0  0  0  0  0  0  0  0  0  0  0  0
   -1.2177   23.8841  -29.4718 H   0  0  0  0  0  0  0  0  0  0  0  0
   -2.0660   25.3426  -28.8082 H   0  0  0  0  0  0  0  0  0  0  0  0
   -0.3254   23.9141  -27.3422 H   0  0  0  0  0  0  0  0  0  0  0  0
   -1.8268   24.6958  -26.6422 H   0  0  0  0  0  0  0  0  0  0  0  0
   -1.1715   22.1890  -24.8486 H   0  0  0  0  0  0  0  0  0  0  0  0
   -0.8173   20.9366  -26.0866 H   0  0  0  0  0  0  0  0  0  0  0  0
    0.0964   22.4831  -26.0866 H   0  0  0  0  0  0  0  0  0  0  0  0
   -1.4101   21.5536  -28.5499 H   0  0  0  0  0  0  0  0  0  0  0  0
   -2.4973   20.6884  -27.4214 H   0  0  0  0  0  0  0  0  0  0  0  0
   -3.6365   21.6224  -29.5062 H   0  0  0  0  0  0  0  0  0  0  0  0
   -4.3395   22.1786  -27.9363 H   0  0  0  0  0  0  0  0  0  0  0  0
  1  2  1  0
  2  3  1  0
  3  4  2  0
  4  5  1  0
  5  6  1  0
  6  7  1  0
  7  8  2  0
  7  9  1  0
  9 10  2  0
 10 11  1  0
 11 12  2  0
 12 13  1  0
 13 14  2  0
 14 15  1  0
 15 16  2  0
 15 17  2  0
  5 18  2  0
 18 19  1  0
 19 20  2  0
 20 21  1  0
 21 22  1  0
 22 23  1  0
 23 24  2  0
 23 25  1  0
 25 26  1  0
 26 27  1  0
 27 28  1  0
 28 29  1  0
 28 30  1  0
 30 31  1  0
 20  3  1  0
 31 25  1  0
 15  6  1  0
 14  9  1  0
  1 32  1  0
  1 33  1  0
  1 34  1  0
  4 35  1  0
 10 36  1  0
 11 37  1  0
 12 38  1  0
 13 39  1  0
 18 40  1  0
 19 41  1  0
 21 42  1  0
 21 43  1  0
 22 44  1  0
 22 45  1  0
 26 46  1  0
 26 47  1  0
 27 48  1  0
 27 49  1  0
 29 50  1  0
 29 51  1  0
 29 52  1  0
 30 53  1  0
 30 54  1  0
 31 55  1  0
 31 56  1  0
M  END
>  <UniqueID>  (41) 
40

>  <SMILES>  (41) 
COc1cc(N2C(=O)c3ccccc3S2(=O)=O)ccc1CCC(=O)N1CCN(C)CC1

>  <Energy>  (41) 
89.50004501987756

>  <Genealogy>  (41) 
COc1cc(N2C(=O)c3ccccc3S2(=O)=O)ccc1CCC(=O)N1CCN(C)CC1 (3D coordinates assigned)
COc1cc(N2C(=O)c3ccccc3S2(=O)=O)ccc1CCC(=O)N1CCN(C)CC1 (nonaromatic ring conformer: 89.50004501987756 kcal/mol)

>  <smiles>  (41) 
COc1cc(N2C(=O)c3ccccc3S2(=O)=O)ccc1CCC(=O)N1CCN(C)CC1

>  <score_type>  (41) 
oracle

>  <origin>  (41) 
adg

>  <m_score__min__energy>  (41) 
-9.6400000000000006

>  <m_primary>  (41) 
energy

$$$$
