0:0
     RDKit          3D

 47 49  0  0  0  0  0  0  0  0999 V2000
   -4.5490   17.2170  -33.2750 C   0  0  0  0  0  0  0  0  0  0  0  0
   -5.7870   18.0000  -33.2530 N   0  0  0  0  0  0  0  0  0  0  0  0
   -6.1100   18.9260  -34.3410 C   0  0  0  0  0  0  0  0  0  0  0  0
   -6.6970   17.8690  -32.1470 C   0  0  0  0  0  0  0  0  0  0  0  0
   -6.4410   17.0580  -31.2140 O   0  0  0  0  0  0  0  0  0  0  0  0
   -7.8920   18.6040  -32.1420 O   0  0  0  0  0  0  0  0  0  0  0  0
   -7.9940   19.9840  -31.9080 C   0  0  0  0  0  0  0  0  0  0  0  0
   -9.2160   20.6140  -32.1720 C   0  0  0  0  0  0  0  0  0  0  0  0
   -9.3630   21.9880  -31.9650 C   0  0  0  0  0  0  0  0  0  0  0  0
   -8.2860   22.7470  -31.5010 C   0  0  0  0  0  0  0  0  0  0  0  0
   -7.0480   22.1350  -31.2470 C   0  0  0  0  0  0  0  0  0  0  0  0
   -5.9250   22.9220  -30.7950 N   0  0  0  0  0  0  0  0  0  0  0  0
   -6.1350   23.8970  -29.8610 C   0  0  0  0  0  0  0  0  0  0  0  0
   -5.0770   24.6730  -29.3890 C   0  0  0  0  0  0  0  0  0  0  0  0
   -3.7870   24.4570  -29.8710 C   0  0  0  0  0  0  0  0  0  0  0  0
   -2.7450   25.2520  -29.3660 O   0  0  0  0  0  0  0  0  0  0  0  0
   -1.6500   24.7770  -28.5820 C   0  0  0  0  0  0  0  0  0  0  0  0
   -1.4250   25.6610  -27.3830 C   0  0  0  0  0  0  0  0  0  0  0  0
   -2.0280   25.3600  -26.1500 C   0  0  0  0  0  0  0  0  0  0  0  0
   -1.8070   26.1810  -25.0400 C   0  0  0  0  0  0  0  0  0  0  0  0
   -0.9780   27.3010  -25.1490 C   0  0  0  0  0  0  0  0  0  0  0  0
   -0.3660   27.5990  -26.3700 C   0  0  0  0  0  0  0  0  0  0  0  0
   -0.5840   26.7810  -27.4830 C   0  0  0  0  0  0  0  0  0  0  0  0
   -3.5830   23.4610  -30.8380 C   0  0  0  0  0  0  0  0  0  0  0  0
   -4.6660   22.7010  -31.2940 C   0  0  0  0  0  0  0  0  0  0  0  0
   -4.4670   21.8230  -32.1780 O   0  0  0  0  0  0  0  0  0  0  0  0
   -6.9040   20.7540  -31.4610 C   0  0  0  0  0  0  0  0  0  0  0  0
   -4.2260   17.0127  -32.2435 H   0  0  0  0  0  0  0  0  0  0  0  0
   -4.7258   16.2661  -33.7990 H   0  0  0  0  0  0  0  0  0  0  0  0
   -3.7656   17.7843  -33.7990 H   0  0  0  0  0  0  0  0  0  0  0  0
   -6.4446   19.8851  -33.9190 H   0  0  0  0  0  0  0  0  0  0  0  0
   -5.2160   19.0899  -34.9605 H   0  0  0  0  0  0  0  0  0  0  0  0
   -6.9120   18.4983  -34.9605 H   0  0  0  0  0  0  0  0  0  0  0  0
  -10.0659   20.0235  -32.5448 H   0  0  0  0  0  0  0  0  0  0  0  0
  -10.3291   22.4732  -32.1679 H   0  0  0  0  0  0  0  0  0  0  0  0
   -8.4081   23.8274  -31.3341 H   0  0  0  0  0  0  0  0  0  0  0  0
   -7.1508   24.0718  -29.4769 H   0  0  0  0  0  0  0  0  0  0  0  0
   -5.2601   25.4548  -28.6371 H   0  0  0  0  0  0  0  0  0  0  0  0
   -1.8685   23.7546  -28.2399 H   0  0  0  0  0  0  0  0  0  0  0  0
   -0.7419   24.7882  -29.2027 H   0  0  0  0  0  0  0  0  0  0  0  0
   -2.6759   24.4758  -26.0578 H   0  0  0  0  0  0  0  0  0  0  0  0
   -2.2867   25.9449  -24.0787 H   0  0  0  0  0  0  0  0  0  0  0  0
   -0.8074   27.9471  -24.2752 H   0  0  0  0  0  0  0  0  0  0  0  0
    0.2885   28.4789  -26.4555 H   0  0  0  0  0  0  0  0  0  0  0  0
   -0.0951   27.0157  -28.4400 H   0  0  0  0  0  0  0  0  0  0  0  0
   -2.5743   23.2780  -31.2367 H   0  0  0  0  0  0  0  0  0  0  0  0
   -5.9327   20.2712  -31.2779 H   0  0  0  0  0  0  0  0  0  0  0  0
  1  2  1  0
  2  3  1  0
  2  4  1  0
  4  5  2  0
  4  6  1  0
  6  7  1  0
  7  8  2  0
  8  9  1  0
  9 10  2  0
 10 11  1  0
 11 12  1  0
 12 13  1  0
 13 14  2  0
 14 15  1  0
 15 16  1  0
 16 17  1  0
 17 18  1  0
 18 19  2  0
 19 20  1  0
 20 21  2  0
 21 22  1  0
 22 23  2  0
 15 24  2  0
 24 25  1  0
 25 26  2  0
 11 27  2  0
 27  7  1  0
 25 12  1  0
 23 18  1  0
  1 28  1  0
  1 29  1  0
  1 30  1  0
  3 31  1  0
  3 32  1  0
  3 33  1  0
  8 34  1  0
  9 35  1  0
 10 36  1  0
 13 37  1  0
 14 38  1  0
 17 39  1  0
 17 40  1  0
 19 41  1  0
 20 42  1  0
 21 43  1  0
 22 44  1  0
 23 45  1  0
 24 46  1  0
 27 47  1  0
M  END
>  <UniqueID>  (1) 
1

>  <SMILES>  (1) 
CN(C)C(=O)Oc1cccc(-n2ccc(OCc3ccccc3)cc2=O)c1

>  <Energy>  (1) 
58.74276408369068

>  <Genealogy>  (1) 
CN(C)C(=O)Oc1cccc(-n2ccc(OCc3ccccc3)cc2=O)c1 (3D coordinates assigned)
CN(C)C(=O)Oc1cccc(-n2ccc(OCc3ccccc3)cc2=O)c1 (optimized conformer: 58.74276408369068 kcal/mol)

>  <smiles>  (1) 
CN(C)C(=O)Oc1cccc(-n2ccc(OCc3ccccc3)cc2=O)c1

>  <score_type>  (1) 
oracle

>  <origin>  (1) 
adg

>  <m_score__min__energy>  (1) 
-8.7699999999999996

>  <m_primary>  (1) 
energy

$$$$
1:0
     RDKit          3D

 57 58  0  0  0  0  0  0  0  0999 V2000
   -8.1780   23.0840  -31.9440 C   0  0  0  0  0  0  0  0  0  0  0  0
   -7.4410   22.8190  -30.6380 C   0  0  0  0  0  0  0  0  0  0  0  0
   -6.2420   22.1010  -30.9020 O   0  0  0  0  0  0  0  0  0  0  0  0
   -5.0880   22.7180  -31.3930 C   0  0  0  0  0  0  0  0  0  0  0  0
   -5.1580   23.8010  -32.0370 O   0  0  0  0  0  0  0  0  0  0  0  0
   -3.7720   22.1340  -31.0990 C   0  0  0  0  0  0  0  0  0  0  0  0
   -3.4220   20.8300  -31.4700 C   0  0  0  0  0  0  0  0  0  0  0  0
   -4.1940   19.9490  -32.3060 N   0  0  0  0  0  0  0  0  0  0  0  0
   -3.7320   19.6810  -33.6740 C   0  0  0  0  0  0  0  0  0  0  0  0
   -3.9910   18.2240  -34.0430 C   0  0  0  0  0  0  0  0  0  0  0  0
   -5.5160   19.4730  -31.8650 C   0  0  0  0  0  0  0  0  0  0  0  0
   -6.6120   19.8900  -32.8560 C   0  0  0  0  0  0  0  0  0  0  0  0
   -7.8230   19.0540  -32.6930 N   0  0  0  0  0  0  0  0  0  0  0  0
   -8.8800   19.7810  -31.9690 C   0  0  0  0  0  0  0  0  0  0  0  0
   -7.5020   17.8070  -31.9800 C   0  0  0  0  0  0  0  0  0  0  0  0
   -1.8680   20.4720  -30.9180 S   0  0  0  0  0  0  0  0  0  0  0  0
   -1.6240   21.9680  -30.2020 C   0  0  0  0  0  0  0  0  0  0  0  0
   -0.4930   22.3860  -29.5100 C   0  0  0  0  0  0  0  0  0  0  0  0
   -0.4830   23.6790  -28.9520 C   0  0  0  0  0  0  0  0  0  0  0  0
    0.6170   24.1800  -28.2400 O   0  0  0  0  0  0  0  0  0  0  0  0
    0.5620   24.6300  -26.8890 C   0  0  0  0  0  0  0  0  0  0  0  0
   -1.6110   24.5070  -29.1020 C   0  0  0  0  0  0  0  0  0  0  0  0
   -2.7610   24.0670  -29.8050 C   0  0  0  0  0  0  0  0  0  0  0  0
   -3.8990   24.8780  -29.9340 O   0  0  0  0  0  0  0  0  0  0  0  0
   -5.0480   24.7900  -29.0960 C   0  0  0  0  0  0  0  0  0  0  0  0
   -6.1560   25.6720  -29.6500 C   0  0  0  0  0  0  0  0  0  0  0  0
   -2.7430   22.7780  -30.3720 C   0  0  0  0  0  0  0  0  0  0  0  0
   -9.1924   23.4487  -31.7251 H   0  0  0  0  0  0  0  0  0  0  0  0
   -7.6331   23.8425  -32.5251 H   0  0  0  0  0  0  0  0  0  0  0  0
   -8.2409   22.1522  -32.5251 H   0  0  0  0  0  0  0  0  0  0  0  0
   -7.1952   23.7767  -30.1559 H   0  0  0  0  0  0  0  0  0  0  0  0
   -8.0828   22.2242  -29.9714 H   0  0  0  0  0  0  0  0  0  0  0  0
   -4.2726   20.3346  -34.3744 H   0  0  0  0  0  0  0  0  0  0  0  0
   -2.6515   19.8788  -33.7325 H   0  0  0  0  0  0  0  0  0  0  0  0
   -4.0972   17.6267  -33.1254 H   0  0  0  0  0  0  0  0  0  0  0  0
   -4.9156   18.1544  -34.6349 H   0  0  0  0  0  0  0  0  0  0  0  0
   -3.1470   17.8400  -34.6349 H   0  0  0  0  0  0  0  0  0  0  0  0
   -5.4966   18.3756  -31.7915 H   0  0  0  0  0  0  0  0  0  0  0  0
   -5.7405   19.9220  -30.8862 H   0  0  0  0  0  0  0  0  0  0  0  0
   -6.8756   20.9430  -32.6782 H   0  0  0  0  0  0  0  0  0  0  0  0
   -6.2289   19.7551  -33.8783 H   0  0  0  0  0  0  0  0  0  0  0  0
   -8.7231   19.6731  -30.8856 H   0  0  0  0  0  0  0  0  0  0  0  0
   -8.8441   20.8464  -32.2404 H   0  0  0  0  0  0  0  0  0  0  0  0
   -9.8621   19.3664  -32.2404 H   0  0  0  0  0  0  0  0  0  0  0  0
   -7.5473   17.9829  -30.8951 H   0  0  0  0  0  0  0  0  0  0  0  0
   -8.2292   17.0292  -32.2560 H   0  0  0  0  0  0  0  0  0  0  0  0
   -6.4896   17.4770  -32.2560 H   0  0  0  0  0  0  0  0  0  0  0  0
    0.3761   21.7206  -29.4006 H   0  0  0  0  0  0  0  0  0  0  0  0
    0.6671   23.7698  -26.2115 H   0  0  0  0  0  0  0  0  0  0  0  0
    1.3797   25.3427  -26.7063 H   0  0  0  0  0  0  0  0  0  0  0  0
   -0.4033   25.1248  -26.7063 H   0  0  0  0  0  0  0  0  0  0  0  0
   -1.6003   25.5163  -28.6648 H   0  0  0  0  0  0  0  0  0  0  0  0
   -5.3949   23.7468  -29.0597 H   0  0  0  0  0  0  0  0  0  0  0  0
   -4.7861   25.1280  -28.0825 H   0  0  0  0  0  0  0  0  0  0  0  0
   -6.7188   26.1200  -28.8178 H   0  0  0  0  0  0  0  0  0  0  0  0
   -5.7160   26.4697  -30.2665 H   0  0  0  0  0  0  0  0  0  0  0  0
   -6.8347   25.0643  -30.2665 H   0  0  0  0  0  0  0  0  0  0  0  0
  1  2  1  0
  2  3  1  0
  3  4  1  0
  4  5  2  0
  4  6  1  0
  6  7  2  0
  7  8  1  0
  8  9  1  0
  9 10  1  0
  8 11  1  0
 11 12  1  0
 12 13  1  0
 13 14  1  0
 13 15  1  0
  7 16  1  0
 16 17  1  0
 17 18  2  0
 18 19  1  0
 19 20  1  0
 20 21  1  0
 19 22  2  0
 22 23  1  0
 23 24  1  0
 24 25  1  0
 25 26  1  0
 23 27  2  0
 27  6  1  0
 27 17  1  0
  1 28  1  0
  1 29  1  0
  1 30  1  0
  2 31  1  0
  2 32  1  0
  9 33  1  0
  9 34  1  0
 10 35  1  0
 10 36  1  0
 10 37  1  0
 11 38  1  0
 11 39  1  0
 12 40  1  0
 12 41  1  0
 14 42  1  0
 14 43  1  0
 14 44  1  0
 15 45  1  0
 15 46  1  0
 15 47  1  0
 18 48  1  0
 21 49  1  0
 21 50  1  0
 21 51  1  0
 22 52  1  0
 25 53  1  0
 25 54  1  0
 26 55  1  0
 26 56  1  0
 26 57  1  0
M  END
>  <UniqueID>  (2) 
2

>  <SMILES>  (2) 
CCOC(=O)c1c(N(CC)CCN(C)C)sc2cc(OC)cc(OCC)c12

>  <Energy>  (2) 
79.8052825086767

>  <Genealogy>  (2) 
CCOC(=O)c1c(N(CC)CCN(C)C)sc2cc(OC)cc(OCC)c12 (3D coordinates assigned)
CCOC(=O)c1c(N(CC)CCN(C)C)sc2cc(OC)cc(OCC)c12 (optimized conformer: 79.8052825086767 kcal/mol)

>  <smiles>  (2) 
CCOC(=O)c1c(N(CC)CCN(C)C)sc2cc(OC)cc(OCC)c12

>  <score_type>  (2) 
oracle

>  <origin>  (2) 
adg

>  <m_score__min__energy>  (2) 
-6.6399999999999997

>  <m_primary>  (2) 
energy

$$$$
2:0
     RDKit          3D

 68 70  0  0  0  0  0  0  0  0999 V2000
   -2.8130   18.9460  -26.5060 C   0  0  0  0  0  0  0  0  0  0  0  0
   -2.6380   19.8890  -27.6950 C   0  0  0  0  0  0  0  0  0  0  0  0
   -1.2060   20.1980  -27.9090 N   0  0  0  0  0  0  0  0  0  0  0  0
   -0.7460   21.1600  -26.8890 C   0  0  0  0  0  0  0  0  0  0  0  0
   -0.9700   20.7350  -29.2700 C   0  0  0  0  0  0  0  0  0  0  0  0
   -2.2860   20.8780  -30.0370 C   0  0  0  0  0  0  0  0  0  0  0  0
   -2.4510   22.2310  -30.4210 O   0  0  0  0  0  0  0  0  0  0  0  0
   -2.0600   23.1020  -29.3790 C   0  0  0  0  0  0  0  0  0  0  0  0
   -3.1400   23.1110  -28.3040 C   0  0  0  0  0  0  0  0  0  0  0  0
   -4.2470   22.3570  -28.7480 O   0  0  0  0  0  0  0  0  0  0  0  0
   -5.3580   23.2090  -28.9450 C   0  0  0  0  0  0  0  0  0  0  0  0
   -4.8710   24.6000  -29.3520 C   0  0  0  0  0  0  0  0  0  0  0  0
   -4.5370   24.6260  -30.7810 N   0  0  0  0  0  0  0  0  0  0  0  0
   -5.7340   24.5430  -31.6320 C   0  0  0  0  0  0  0  0  0  0  0  0
   -5.7780   23.2510  -32.4600 C   0  0  0  0  0  0  0  0  0  0  0  0
   -5.0250   22.1700  -31.8190 N   0  0  0  0  0  0  0  0  0  0  0  0
   -5.2290   20.8100  -32.2340 C   0  0  0  0  0  0  0  0  0  0  0  0
   -4.1930   20.0910  -32.8550 C   0  0  0  0  0  0  0  0  0  0  0  0
   -2.9140   20.6640  -33.0190 C   0  0  0  0  0  0  0  0  0  0  0  0
   -1.9080   19.9790  -33.6980 C   0  0  0  0  0  0  0  0  0  0  0  0
   -2.1630   18.7220  -34.2320 C   0  0  0  0  0  0  0  0  0  0  0  0
   -3.4100   18.1220  -34.0540 C   0  0  0  0  0  0  0  0  0  0  0  0
   -4.4370   18.7710  -33.3200 C   0  0  0  0  0  0  0  0  0  0  0  0
   -5.6520   18.1560  -33.0660 N   0  0  0  0  0  0  0  0  0  0  0  0
   -5.8120   16.7050  -33.3120 C   0  0  0  0  0  0  0  0  0  0  0  0
   -6.7080   18.8930  -32.5580 C   0  0  0  0  0  0  0  0  0  0  0  0
   -8.0270   18.3710  -32.5020 C   0  0  0  0  0  0  0  0  0  0  0  0
   -9.0730   19.1100  -31.9480 C   0  0  0  0  0  0  0  0  0  0  0  0
   -8.8410   20.3870  -31.4530 C   0  0  0  0  0  0  0  0  0  0  0  0
   -7.5690   20.9460  -31.5340 C   0  0  0  0  0  0  0  0  0  0  0  0
   -6.4970   20.2210  -32.0980 C   0  0  0  0  0  0  0  0  0  0  0  0
   -2.7077   19.5133  -25.5695 H   0  0  0  0  0  0  0  0  0  0  0  0
   -3.8117   18.4867  -26.5462 H   0  0  0  0  0  0  0  0  0  0  0  0
   -2.0456   18.1589  -26.5462 H   0  0  0  0  0  0  0  0  0  0  0  0
   -3.0435   19.4104  -28.5986 H   0  0  0  0  0  0  0  0  0  0  0  0
   -3.1755   20.8258  -27.4866 H   0  0  0  0  0  0  0  0  0  0  0  0
   -0.9410   20.7523  -25.8861 H   0  0  0  0  0  0  0  0  0  0  0  0
    0.3332   21.3350  -27.0103 H   0  0  0  0  0  0  0  0  0  0  0  0
   -1.2873   22.1099  -27.0103 H   0  0  0  0  0  0  0  0  0  0  0  0
   -0.4911   21.7220  -29.1896 H   0  0  0  0  0  0  0  0  0  0  0  0
   -0.3198   20.0354  -29.8157 H   0  0  0  0  0  0  0  0  0  0  0  0
   -2.2617   20.2406  -30.9332 H   0  0  0  0  0  0  0  0  0  0  0  0
   -3.1250   20.5684  -29.3965 H   0  0  0  0  0  0  0  0  0  0  0  0
   -1.1111   22.7540  -28.9448 H   0  0  0  0  0  0  0  0  0  0  0  0
   -1.9253   24.1186  -29.7771 H   0  0  0  0  0  0  0  0  0  0  0  0
   -2.7414   22.6686  -27.3791 H   0  0  0  0  0  0  0  0  0  0  0  0
   -3.4549   24.1464  -28.1070 H   0  0  0  0  0  0  0  0  0  0  0  0
   -5.9982   22.7981  -29.7396 H   0  0  0  0  0  0  0  0  0  0  0  0
   -5.9330   23.2820  -28.0101 H   0  0  0  0  0  0  0  0  0  0  0  0
   -5.6644   25.3351  -29.1516 H   0  0  0  0  0  0  0  0  0  0  0  0
   -3.9711   24.8480  -28.7701 H   0  0  0  0  0  0  0  0  0  0  0  0
   -3.9600   23.7800  -30.9940 H   0  0  0  0  0  0  0  0  0  0  0  0
   -6.6265   24.5813  -30.9902 H   0  0  0  0  0  0  0  0  0  0  0  0
   -5.7043   25.3892  -32.3342 H   0  0  0  0  0  0  0  0  0  0  0  0
   -6.8259   22.9364  -32.5741 H   0  0  0  0  0  0  0  0  0  0  0  0
   -5.3186   23.4552  -33.4384 H   0  0  0  0  0  0  0  0  0  0  0  0
   -4.5320   22.3340  -30.9100 H   0  0  0  0  0  0  0  0  0  0  0  0
   -2.7086   21.6627  -32.6062 H   0  0  0  0  0  0  0  0  0  0  0  0
   -0.9126   20.4333  -33.8111 H   0  0  0  0  0  0  0  0  0  0  0  0
   -1.3786   18.1977  -34.7974 H   0  0  0  0  0  0  0  0  0  0  0  0
   -3.6003   17.1300  -34.4895 H   0  0  0  0  0  0  0  0  0  0  0  0
   -5.8705   16.1743  -32.3503 H   0  0  0  0  0  0  0  0  0  0  0  0
   -6.7349   16.5297  -33.8843 H   0  0  0  0  0  0  0  0  0  0  0  0
   -4.9495   16.3328  -33.8843 H   0  0  0  0  0  0  0  0  0  0  0  0
   -8.2280   17.3663  -32.9024 H   0  0  0  0  0  0  0  0  0  0  0  0
  -10.0845   18.6800  -31.9031 H   0  0  0  0  0  0  0  0  0  0  0  0
   -9.6636   20.9571  -30.9965 H   0  0  0  0  0  0  0  0  0  0  0  0
   -7.3971   21.9640  -31.1544 H   0  0  0  0  0  0  0  0  0  0  0  0
  1  2  1  0
  2  3  1  0
  3  4  1  0
  3  5  1  0
  5  6  1  0
  6  7  1  0
  7  8  1  0
  8  9  1  0
  9 10  1  0
 10 11  1  0
 11 12  1  0
 12 13  1  0
 13 14  1  0
 14 15  1  0
 15 16  1  0
 16 17  1  0
 17 18  2  0
 18 19  1  0
 19 20  2  0
 20 21  1  0
 21 22  2  0
 22 23  1  0
 23 24  2  0
 24 25  1  0
 24 26  1  0
 26 27  2  0
 27 28  1  0
 28 29  2  0
 29 30  1  0
 30 31  2  0
 31 17  1  0
 23 18  1  0
 31 26  1  0
  1 32  1  0
  1 33  1  0
  1 34  1  0
  2 35  1  0
  2 36  1  0
  4 37  1  0
  4 38  1  0
  4 39  1  0
  5 40  1  0
  5 41  1  0
  6 42  1  0
  6 43  1  0
  8 44  1  0
  8 45  1  0
  9 46  1  0
  9 47  1  0
 11 48  1  0
 11 49  1  0
 12 50  1  0
 12 51  1  0
 13 52  1  0
 14 53  1  0
 14 54  1  0
 15 55  1  0
 15 56  1  0
 16 57  1  0
 19 58  1  0
 20 59  1  0
 21 60  1  0
 22 61  1  0
 25 62  1  0
 25 63  1  0
 25 64  1  0
 27 65  1  0
 28 66  1  0
 29 67  1  0
 30 68  1  0
M  CHG  1  24   1
M  END
>  <UniqueID>  (3) 
3

>  <SMILES>  (3) 
CCN(C)CCOCCOCCNCCNc1c2ccccc2[n+](C)c2ccccc12

>  <Energy>  (3) 
91.35597284884592

>  <Genealogy>  (3) 
CCN(C)CCOCCOCCNCCNc1c2ccccc2[n+](C)c2ccccc12 (3D coordinates assigned)
CCN(C)CCOCCOCCNCCNc1c2ccccc2[n+](C)c2ccccc12 (optimized conformer: 91.35597284884592 kcal/mol)

>  <smiles>  (3) 
CCN(C)CCOCCOCCNCCNc1c2ccccc2[n+](C)c2ccccc12

>  <score_type>  (3) 
oracle

>  <origin>  (3) 
adg

>  <m_score__min__energy>  (3) 
-8.6999999999999993

>  <m_primary>  (3) 
energy

$$$$
3:0
     RDKit          3D

 43 45  0  0  0  0  0  0  0  0999 V2000
   -2.3410   25.0360  -26.4990 C   0  0  0  0  0  0  0  0  0  0  0  0
   -3.0410   23.8460  -27.1490 C   0  0  0  0  0  0  0  0  0  0  0  0
   -2.0770   23.0240  -27.8970 N   0  0  0  0  0  0  0  0  0  0  0  0
   -1.3170   23.5600  -29.0030 C   0  0  0  0  0  0  0  0  0  0  0  0
   -0.5220   24.5190  -28.7990 O   0  0  0  0  0  0  0  0  0  0  0  0
   -1.4830   23.0470  -30.4110 C   0  0  0  0  0  0  0  0  0  0  0  0
   -2.9010   22.9600  -30.7630 N   0  0  0  0  0  0  0  0  0  0  0  0
   -3.7930   23.9740  -30.7630 C   0  0  0  0  0  0  0  0  0  0  0  0
   -3.4790   25.2930  -30.4540 O   0  0  0  0  0  0  0  0  0  0  0  0
   -5.0500   23.5090  -31.0930 C   0  0  0  0  0  0  0  0  0  0  0  0
   -4.9310   22.1460  -31.2550 C   0  0  0  0  0  0  0  0  0  0  0  0
   -3.5980   21.8430  -31.0610 C   0  0  0  0  0  0  0  0  0  0  0  0
   -3.0420   20.5710  -31.1470 O   0  0  0  0  0  0  0  0  0  0  0  0
   -6.0610   21.2490  -31.6600 C   0  0  0  0  0  0  0  0  0  0  0  0
   -7.4140   21.9340  -31.3850 C   0  0  0  0  0  0  0  0  0  0  0  0
   -7.4220   23.4030  -31.8600 C   0  0  0  0  0  0  0  0  0  0  0  0
   -6.3530   24.2460  -31.1340 C   0  0  0  0  0  0  0  0  0  0  0  0
   -1.9460   21.6260  -27.5720 C   0  0  0  0  0  0  0  0  0  0  0  0
   -3.0840   20.8160  -27.4180 C   0  0  0  0  0  0  0  0  0  0  0  0
   -2.9460   19.4590  -27.1080 C   0  0  0  0  0  0  0  0  0  0  0  0
   -1.6740   18.9020  -26.9500 C   0  0  0  0  0  0  0  0  0  0  0  0
   -0.5380   19.7010  -27.0980 C   0  0  0  0  0  0  0  0  0  0  0  0
   -0.6710   21.0580  -27.4070 C   0  0  0  0  0  0  0  0  0  0  0  0
   -2.3968   24.9412  -25.4045 H   0  0  0  0  0  0  0  0  0  0  0  0
   -1.2867   25.0569  -26.8120 H   0  0  0  0  0  0  0  0  0  0  0  0
   -2.8350   25.9677  -26.8120 H   0  0  0  0  0  0  0  0  0  0  0  0
   -3.5102   23.2311  -26.3669 H   0  0  0  0  0  0  0  0  0  0  0  0
   -3.8041   24.2211  -27.8468 H   0  0  0  0  0  0  0  0  0  0  0  0
   -0.9789   23.7330  -31.1076 H   0  0  0  0  0  0  0  0  0  0  0  0
   -1.0385   22.0430  -30.4777 H   0  0  0  0  0  0  0  0  0  0  0  0
   -5.9794   21.0252  -32.7339 H   0  0  0  0  0  0  0  0  0  0  0  0
   -6.0060   20.3188  -31.0755 H   0  0  0  0  0  0  0  0  0  0  0  0
   -8.2054   21.3843  -31.9156 H   0  0  0  0  0  0  0  0  0  0  0  0
   -7.5859   21.9258  -30.2985 H   0  0  0  0  0  0  0  0  0  0  0  0
   -7.2217   23.4286  -32.9413 H   0  0  0  0  0  0  0  0  0  0  0  0
   -8.4089   23.8311  -31.6304 H   0  0  0  0  0  0  0  0  0  0  0  0
   -6.2154   25.1969  -31.6695 H   0  0  0  0  0  0  0  0  0  0  0  0
   -6.6878   24.4387  -30.1041 H   0  0  0  0  0  0  0  0  0  0  0  0
   -4.0869   21.2507  -27.5417 H   0  0  0  0  0  0  0  0  0  0  0  0
   -3.8400   18.8293  -26.9884 H   0  0  0  0  0  0  0  0  0  0  0  0
   -1.5675   17.8340  -26.7090 H   0  0  0  0  0  0  0  0  0  0  0  0
    0.4626   19.2620  -26.9713 H   0  0  0  0  0  0  0  0  0  0  0  0
    0.2262   21.6840  -27.5215 H   0  0  0  0  0  0  0  0  0  0  0  0
  1  2  1  0
  2  3  1  0
  3  4  1  0
  4  5  2  0
  4  6  1  0
  6  7  1  0
  7  8  1  0
  8  9  1  0
  8 10  2  0
 10 11  1  0
 11 12  2  0
 12 13  1  0
 11 14  1  0
 14 15  1  0
 15 16  1  0
 16 17  1  0
  3 18  1  0
 18 19  2  0
 19 20  1  0
 20 21  2  0
 21 22  1  0
 22 23  2  0
 12  7  1  0
 23 18  1  0
 17 10  1  0
  1 24  1  0
  1 25  1  0
  1 26  1  0
  2 27  1  0
  2 28  1  0
  6 29  1  0
  6 30  1  0
 14 31  1  0
 14 32  1  0
 15 33  1  0
 15 34  1  0
 16 35  1  0
 16 36  1  0
 17 37  1  0
 17 38  1  0
 19 39  1  0
 20 40  1  0
 21 41  1  0
 22 42  1  0
 23 43  1  0
M  CHG  2   9  -1  13  -1
M  END
>  <UniqueID>  (4) 
4

>  <SMILES>  (4) 
CCN(C(=O)Cn1c([O-])c2c(c1[O-])CCCC2)c1ccccc1

>  <Energy>  (4) 
75.92306239015124

>  <Genealogy>  (4) 
CCN(C(=O)Cn1c([O-])c2c(c1[O-])CCCC2)c1ccccc1 (protonated)
CCN(C(=O)Cn1c([O-])c2c(c1[O-])CCCC2)c1ccccc1 (3D coordinates assigned)
CCN(C(=O)Cn1c([O-])c2c(c1[O-])CCCC2)c1ccccc1 (nonaromatic ring conformer: 75.92306239015124 kcal/mol)

>  <smiles>  (4) 
CCN(C(=O)Cn1c(O)c2c(c1O)CCCC2)c1ccccc1

>  <score_type>  (4) 
oracle

>  <origin>  (4) 
adg

>  <m_score__min__energy>  (4) 
-10.699999999999999

>  <m_primary>  (4) 
energy

$$$$
4:0
     RDKit          3D

 38 40  0  0  0  0  0  0  0  0999 V2000
   -5.2780   16.7960  -33.3200 C   0  0  0  0  0  0  0  0  0  0  0  0
   -4.2930   17.6600  -33.9970 N   0  0  0  0  0  0  0  0  0  0  0  0
   -3.8270   16.9950  -35.2270 C   0  0  0  0  0  0  0  0  0  0  0  0
   -3.1440   17.9780  -33.1030 C   0  0  0  0  0  0  0  0  0  0  0  0
   -2.1780   19.0060  -33.7180 C   0  0  0  0  0  0  0  0  0  0  0  0
   -2.8830   20.2150  -34.1360 N   0  0  0  0  0  0  0  0  0  0  0  0
   -4.0690   20.6840  -33.4770 C   0  0  0  0  0  0  0  0  0  0  0  0
   -4.0340   21.8140  -32.7530 C   0  0  0  0  0  0  0  0  0  0  0  0
   -5.2540   22.2840  -32.0610 C   0  0  0  0  0  0  0  0  0  0  0  0
   -5.2440   23.4590  -31.2980 C   0  0  0  0  0  0  0  0  0  0  0  0
   -6.4090   23.8860  -30.6480 C   0  0  0  0  0  0  0  0  0  0  0  0
   -6.3870   25.3580  -29.6930 Cl  0  0  0  0  0  0  0  0  0  0  0  0
   -7.5910   23.1410  -30.7550 C   0  0  0  0  0  0  0  0  0  0  0  0
   -7.6150   21.9630  -31.5160 C   0  0  0  0  0  0  0  0  0  0  0  0
   -8.7860   21.1990  -31.6380 C   0  0  0  0  0  0  0  0  0  0  0  0
   -8.7810   20.0260  -32.4030 C   0  0  0  0  0  0  0  0  0  0  0  0
   -7.6120   19.6080  -33.0500 C   0  0  0  0  0  0  0  0  0  0  0  0
   -6.4410   20.3620  -32.9360 C   0  0  0  0  0  0  0  0  0  0  0  0
   -6.4380   21.5370  -32.1690 C   0  0  0  0  0  0  0  0  0  0  0  0
   -5.2660   19.9530  -33.5780 O   0  0  0  0  0  0  0  0  0  0  0  0
   -5.1650   16.8951  -32.2303 H   0  0  0  0  0  0  0  0  0  0  0  0
   -6.2941   17.0994  -33.6124 H   0  0  0  0  0  0  0  0  0  0  0  0
   -5.1096   15.7490  -33.6124 H   0  0  0  0  0  0  0  0  0  0  0  0
   -4.7800   18.5400  -34.2910 H   0  0  0  0  0  0  0  0  0  0  0  0
   -3.2144   16.1208  -34.9616 H   0  0  0  0  0  0  0  0  0  0  0  0
   -4.6949   16.6685  -35.8187 H   0  0  0  0  0  0  0  0  0  0  0  0
   -3.2239   17.6994  -35.8187 H   0  0  0  0  0  0  0  0  0  0  0  0
   -3.5352   18.3842  -32.1586 H   0  0  0  0  0  0  0  0  0  0  0  0
   -2.5802   17.0470  -32.9437 H   0  0  0  0  0  0  0  0  0  0  0  0
   -1.4179   19.2753  -32.9698 H   0  0  0  0  0  0  0  0  0  0  0  0
   -1.7094   18.5540  -34.6046 H   0  0  0  0  0  0  0  0  0  0  0  0
   -2.4500   20.7930  -34.8920 H   0  0  0  0  0  0  0  0  0  0  0  0
   -3.0998   22.3894  -32.6745 H   0  0  0  0  0  0  0  0  0  0  0  0
   -4.3190   24.0476  -31.2092 H   0  0  0  0  0  0  0  0  0  0  0  0
   -8.5022   23.4808  -30.2410 H   0  0  0  0  0  0  0  0  0  0  0  0
   -9.7081   21.5217  -31.1325 H   0  0  0  0  0  0  0  0  0  0  0  0
   -9.7007   19.4298  -32.4960 H   0  0  0  0  0  0  0  0  0  0  0  0
   -7.6153   18.6852  -33.6487 H   0  0  0  0  0  0  0  0  0  0  0  0
  1  2  1  0
  2  3  1  0
  2  4  1  0
  4  5  1  0
  5  6  1  0
  6  7  1  0
  7  8  2  0
  8  9  1  0
  9 10  1  0
 10 11  2  0
 11 12  1  0
 11 13  1  0
 13 14  2  0
 14 15  1  0
 15 16  2  0
 16 17  1  0
 17 18  2  0
 18 19  1  0
 18 20  1  0
 20  7  1  0
 19  9  2  0
 19 14  1  0
  1 21  1  0
  1 22  1  0
  1 23  1  0
  2 24  1  0
  3 25  1  0
  3 26  1  0
  3 27  1  0
  4 28  1  0
  4 29  1  0
  5 30  1  0
  5 31  1  0
  6 32  1  0
  8 33  1  0
 10 34  1  0
 13 35  1  0
 15 36  1  0
 16 37  1  0
 17 38  1  0
M  CHG  1   2   1
M  END
>  <UniqueID>  (5) 
5

>  <SMILES>  (5) 
C[NH+](C)CCNC1=Cc2cc(Cl)cc3cccc(c23)O1

>  <Energy>  (5) 
43.12900596234391

>  <Genealogy>  (5) 
C[NH+](C)CCNC1=Cc2cc(Cl)cc3cccc(c23)O1 (protonated)
C[NH+](C)CCNC1=Cc2cc(Cl)cc3cccc(c23)O1 (3D coordinates assigned)
C[NH+](C)CCNC1=Cc2cc(Cl)cc3cccc(c23)O1 (nonaromatic ring conformer: 43.12900596234391 kcal/mol)

>  <smiles>  (5) 
CN(C)CCNC1=Cc2cc(Cl)cc3cccc(c23)O1

>  <score_type>  (5) 
oracle

>  <origin>  (5) 
adg

>  <m_score__min__energy>  (5) 
-6.5899999999999999

>  <m_primary>  (5) 
energy

$$$$
5:0
     RDKit          3D

 50 52  0  0  0  0  0  0  0  0999 V2000
   -3.1577   25.8089  -24.9051 H   0  0  0  0  0  0  0  0  0  0  0  0
   -2.3210   25.6580  -25.6030 C   0  0  0  0  0  0  0  0  0  0  0  0
   -2.5750   25.3300  -26.9420 C   0  0  0  0  0  0  0  0  0  0  0  0
   -3.6138   25.2167  -27.2855 H   0  0  0  0  0  0  0  0  0  0  0  0
   -1.5140   25.1430  -27.8560 C   0  0  0  0  0  0  0  0  0  0  0  0
   -1.7630   24.9220  -29.2600 N   0  0  0  0  0  0  0  0  0  0  0  0
   -2.7460   24.2730  -29.8010 C   0  0  0  0  0  0  0  0  0  0  0  0
   -2.6220   22.9270  -29.9860 N   0  0  0  0  0  0  0  0  0  0  0  0
   -3.6290   22.2530  -30.5760 C   0  0  0  0  0  0  0  0  0  0  0  0
   -3.6620   20.6330  -30.9600 S   0  0  0  0  0  0  0  0  0  0  0  0
   -5.1980   20.6840  -31.6810 C   0  0  0  0  0  0  0  0  0  0  0  0
   -5.8600   19.5230  -32.3820 C   0  0  0  0  0  0  0  0  0  0  0  0
   -5.3532   18.5931  -32.0846 H   0  0  0  0  0  0  0  0  0  0  0  0
   -6.9203   19.5100  -32.0896 H   0  0  0  0  0  0  0  0  0  0  0  0
   -5.7920   19.6570  -33.9040 C   0  0  0  0  0  0  0  0  0  0  0  0
   -5.3086   20.6095  -34.1670 H   0  0  0  0  0  0  0  0  0  0  0  0
   -5.2083   18.8225  -34.3198 H   0  0  0  0  0  0  0  0  0  0  0  0
   -6.8101   19.6354  -34.3198 H   0  0  0  0  0  0  0  0  0  0  0  0
   -5.6800   21.9980  -31.6360 C   0  0  0  0  0  0  0  0  0  0  0  0
   -6.8990   22.4160  -32.2560 N   0  0  0  0  0  0  0  0  0  0  0  0
   -7.0510   22.1610  -33.2760 H   0  0  0  0  0  0  0  0  0  0  0  0
   -8.0880   22.7360  -31.4680 C   0  0  0  0  0  0  0  0  0  0  0  0
   -8.5260   23.6761  -31.8346 H   0  0  0  0  0  0  0  0  0  0  0  0
   -7.8027   22.8449  -30.4113 H   0  0  0  0  0  0  0  0  0  0  0  0
   -9.1170   21.6140  -31.5970 C   0  0  0  0  0  0  0  0  0  0  0  0
  -10.1147   22.0536  -31.7432 H   0  0  0  0  0  0  0  0  0  0  0  0
   -9.0984   21.0088  -30.6787 H   0  0  0  0  0  0  0  0  0  0  0  0
   -8.7990   20.7500  -32.7390 N   0  0  0  0  0  0  0  0  0  0  0  0
   -7.7520   20.7050  -32.8790 H   0  0  0  0  0  0  0  0  0  0  0  0
   -9.3350   19.3890  -32.5870 C   0  0  0  0  0  0  0  0  0  0  0  0
   -9.0698   18.8021  -33.4787 H   0  0  0  0  0  0  0  0  0  0  0  0
  -10.4259   19.4667  -32.4691 H   0  0  0  0  0  0  0  0  0  0  0  0
   -8.7730   18.6780  -31.3390 C   0  0  0  0  0  0  0  0  0  0  0  0
   -9.1598   19.1673  -30.4329 H   0  0  0  0  0  0  0  0  0  0  0  0
   -9.0838   17.6229  -31.3470 H   0  0  0  0  0  0  0  0  0  0  0  0
   -7.6746   18.7368  -31.3470 H   0  0  0  0  0  0  0  0  0  0  0  0
   -4.7830   22.8740  -31.0070 C   0  0  0  0  0  0  0  0  0  0  0  0
   -4.8840   24.2560  -30.8480 C   0  0  0  0  0  0  0  0  0  0  0  0
   -5.7766   24.7952  -31.1979 H   0  0  0  0  0  0  0  0  0  0  0  0
   -3.8620   24.9250  -30.2540 N   0  0  0  0  0  0  0  0  0  0  0  0
   -0.1820   25.2030  -27.3730 C   0  0  0  0  0  0  0  0  0  0  0  0
    0.9350   24.9280  -28.1840 O   0  0  0  0  0  0  0  0  0  0  0  0
    2.2460   24.6140  -27.7390 C   0  0  0  0  0  0  0  0  0  0  0  0
    2.2685   24.6086  -26.6392 H   0  0  0  0  0  0  0  0  0  0  0  0
    2.5335   23.6216  -28.1165 H   0  0  0  0  0  0  0  0  0  0  0  0
    2.9519   25.3685  -28.1165 H   0  0  0  0  0  0  0  0  0  0  0  0
    0.0550   25.5780  -26.0380 C   0  0  0  0  0  0  0  0  0  0  0  0
    1.0891   25.7034  -25.6845 H   0  0  0  0  0  0  0  0  0  0  0  0
   -1.0060   25.7930  -25.1560 C   0  0  0  0  0  0  0  0  0  0  0  0
   -0.6740   26.2050  -23.4930 Cl  0  0  0  0  0  0  0  0  0  0  0  0
  1  2  1  0
  2  3  2  0
  3  4  1  0
  3  5  1  0
  5  6  1  0
  6  7  2  0
  7  8  1  0
  8  9  2  0
  9 10  1  0
 10 11  1  0
 11 12  1  0
 12 13  1  0
 12 14  1  0
 12 15  1  0
 15 16  1  0
 15 17  1  0
 15 18  1  0
 11 19  2  0
 19 20  1  0
 20 21  1  0
 20 22  1  0
 22 23  1  0
 22 24  1  0
 22 25  1  0
 25 26  1  0
 25 27  1  0
 25 28  1  0
 28 29  1  0
 28 30  1  0
 30 31  1  0
 30 32  1  0
 30 33  1  0
 33 34  1  0
 33 35  1  0
 33 36  1  0
 19 37  1  0
 37 38  2  0
 38 39  1  0
 38 40  1  0
  5 41  2  0
 41 42  1  0
 42 43  1  0
 43 44  1  0
 43 45  1  0
 43 46  1  0
 41 47  1  0
 47 48  1  0
 47 49  2  0
 49 50  1  0
 49  2  1  0
 40  7  1  0
 37  9  1  0
M  CHG  1  40  -1
M  END
>  <UniqueID>  (6) 
6

>  <SMILES>  (6) 
CCNCCNc1c(CC)sc2n/c(=N/c3ccc(Cl)cc3OC)[n-]cc12

>  <Energy>  (6) 
97.80715033641755

>  <Genealogy>  (6) 
CCNCCNc1c(CC)sc2nc(=Nc3ccc(Cl)cc3OC)[n-]cc12 (protonated)
CCNCCNc1c(CC)sc2n/c(=N/c3ccc(Cl)cc3OC)[n-]cc12 (cis-trans isomerization)
CCNCCNc1c(CC)sc2n/c(=N/c3ccc(Cl)cc3OC)[n-]cc12 (3D coordinates assigned)
CCNCCNc1c(CC)sc2n/c(=N/c3ccc(Cl)cc3OC)[n-]cc12 (optimized conformer: 97.80715033641755 kcal/mol)

>  <smiles>  (6) 
CCNCCNc1c(CC)sc2nc(=Nc3ccc(Cl)cc3OC)[nH]cc12

>  <score_type>  (6) 
oracle

>  <origin>  (6) 
adg

>  <m_score__min__energy>  (6) 
-10

>  <m_primary>  (6) 
energy

$$$$
6:0
     RDKit          3D

 49 51  0  0  0  0  0  0  0  0999 V2000
   -1.7300   25.4350  -26.7690 C   0  0  0  0  0  0  0  0  0  0  0  0
   -3.0380   25.4190  -25.9730 C   0  0  0  0  0  0  0  0  0  0  0  0
   -4.1740   24.9130  -26.7670 N   0  0  0  0  0  0  0  0  0  0  0  0
   -3.8590   23.6430  -27.4450 C   0  0  0  0  0  0  0  0  0  0  0  0
   -4.3470   23.6470  -28.9020 C   0  0  0  0  0  0  0  0  0  0  0  0
   -5.3290   24.7190  -29.1330 N   0  0  0  0  0  0  0  0  0  0  0  0
   -5.7650   24.7550  -30.5350 C   0  0  0  0  0  0  0  0  0  0  0  0
   -5.0080   23.7000  -31.3420 C   0  0  0  0  0  0  0  0  0  0  0  0
   -5.8460   23.2000  -32.4320 N   0  0  0  0  0  0  0  0  0  0  0  0
   -6.1250   21.7980  -32.5630 C   0  0  0  0  0  0  0  0  0  0  0  0
   -5.1390   20.8670  -32.9510 C   0  0  0  0  0  0  0  0  0  0  0  0
   -3.8050   21.2720  -33.1580 C   0  0  0  0  0  0  0  0  0  0  0  0
   -2.8450   20.3610  -33.5920 C   0  0  0  0  0  0  0  0  0  0  0  0
   -3.1960   19.0370  -33.8290 C   0  0  0  0  0  0  0  0  0  0  0  0
   -4.5020   18.6010  -33.6030 C   0  0  0  0  0  0  0  0  0  0  0  0
   -5.4970   19.4890  -33.1240 C   0  0  0  0  0  0  0  0  0  0  0  0
   -6.7850   19.0570  -32.8350 N   0  0  0  0  0  0  0  0  0  0  0  0
   -7.1290   17.6220  -32.8850 C   0  0  0  0  0  0  0  0  0  0  0  0
   -7.7400   19.9890  -32.5000 C   0  0  0  0  0  0  0  0  0  0  0  0
   -9.1180   19.7500  -32.3000 C   0  0  0  0  0  0  0  0  0  0  0  0
   -9.8330   20.8980  -31.9710 C   0  0  0  0  0  0  0  0  0  0  0  0
   -8.7810   22.2110  -31.9440 S   0  0  0  0  0  0  0  0  0  0  0  0
   -7.4100   21.3250  -32.3450 C   0  0  0  0  0  0  0  0  0  0  0  0
   -0.8777   25.4454  -26.0737 H   0  0  0  0  0  0  0  0  0  0  0  0
   -1.6753   24.5375  -27.4026 H   0  0  0  0  0  0  0  0  0  0  0  0
   -1.6973   26.3336  -27.4026 H   0  0  0  0  0  0  0  0  0  0  0  0
   -2.9074   24.7733  -25.0921 H   0  0  0  0  0  0  0  0  0  0  0  0
   -3.2667   26.4552  -25.6832 H   0  0  0  0  0  0  0  0  0  0  0  0
   -4.4610   25.6350  -27.4690 H   0  0  0  0  0  0  0  0  0  0  0  0
   -4.9760   24.7560  -26.1120 H   0  0  0  0  0  0  0  0  0  0  0  0
   -2.7695   23.4921  -27.4333 H   0  0  0  0  0  0  0  0  0  0  0  0
   -4.3724   22.8298  -26.9110 H   0  0  0  0  0  0  0  0  0  0  0  0
   -3.4853   23.8004  -29.5683 H   0  0  0  0  0  0  0  0  0  0  0  0
   -4.8313   22.6813  -29.1091 H   0  0  0  0  0  0  0  0  0  0  0  0
   -6.1700   24.5100  -28.5460 H   0  0  0  0  0  0  0  0  0  0  0  0
   -6.8443   24.5489  -30.5868 H   0  0  0  0  0  0  0  0  0  0  0  0
   -5.5562   25.7504  -30.9540 H   0  0  0  0  0  0  0  0  0  0  0  0
   -4.0958   24.1491  -31.7617 H   0  0  0  0  0  0  0  0  0  0  0  0
   -4.7439   22.8627  -30.6794 H   0  0  0  0  0  0  0  0  0  0  0  0
   -5.9040   23.7890  -33.2920 H   0  0  0  0  0  0  0  0  0  0  0  0
   -3.5191   22.3183  -32.9749 H   0  0  0  0  0  0  0  0  0  0  0  0
   -1.8069   20.6899  -33.7475 H   0  0  0  0  0  0  0  0  0  0  0  0
   -2.4393   18.3285  -34.1971 H   0  0  0  0  0  0  0  0  0  0  0  0
   -4.7635   17.5508  -33.7999 H   0  0  0  0  0  0  0  0  0  0  0  0
   -7.2226   17.2315  -31.8609 H   0  0  0  0  0  0  0  0  0  0  0  0
   -8.0837   17.4921  -33.4157 H   0  0  0  0  0  0  0  0  0  0  0  0
   -6.3369   17.0733  -33.4157 H   0  0  0  0  0  0  0  0  0  0  0  0
   -9.5797   18.7561  -32.3948 H   0  0  0  0  0  0  0  0  0  0  0  0
  -10.9122   20.9401  -31.7622 H   0  0  0  0  0  0  0  0  0  0  0  0
  1  2  1  0
  2  3  1  0
  3  4  1  0
  4  5  1  0
  5  6  1  0
  6  7  1  0
  7  8  1  0
  8  9  1  0
  9 10  1  0
 10 11  2  0
 11 12  1  0
 12 13  2  0
 13 14  1  0
 14 15  2  0
 15 16  1  0
 16 17  2  0
 17 18  1  0
 17 19  1  0
 19 20  1  0
 20 21  2  0
 21 22  1  0
 22 23  1  0
 23 10  1  0
 16 11  1  0
 23 19  2  0
  1 24  1  0
  1 25  1  0
  1 26  1  0
  2 27  1  0
  2 28  1  0
  3 29  1  0
  3 30  1  0
  4 31  1  0
  4 32  1  0
  5 33  1  0
  5 34  1  0
  6 35  1  0
  7 36  1  0
  7 37  1  0
  8 38  1  0
  8 39  1  0
  9 40  1  0
 12 41  1  0
 13 42  1  0
 14 43  1  0
 15 44  1  0
 18 45  1  0
 18 46  1  0
 18 47  1  0
 20 48  1  0
 21 49  1  0
M  CHG  2   3   1  17   1
M  END
>  <UniqueID>  (7) 
7

>  <SMILES>  (7) 
CC[NH2+]CCNCCNc1c2ccccc2[n+](C)c2ccsc12

>  <Energy>  (7) 
91.48069402188277

>  <Genealogy>  (7) 
CC[NH2+]CCNCCNc1c2ccccc2[n+](C)c2ccsc12 (protonated)
CC[NH2+]CCNCCNc1c2ccccc2[n+](C)c2ccsc12 (3D coordinates assigned)
CC[NH2+]CCNCCNc1c2ccccc2[n+](C)c2ccsc12 (optimized conformer: 91.48069402188277 kcal/mol)

>  <smiles>  (7) 
CCNCCNCCNc1c2ccccc2[n+](C)c2ccsc12

>  <score_type>  (7) 
oracle

>  <origin>  (7) 
adg

>  <m_score__min__energy>  (7) 
-8.2300000000000004

>  <m_primary>  (7) 
energy

$$$$
7:0
     RDKit          3D

 46 48  0  0  0  0  0  0  0  0999 V2000
   -6.0280   17.1010  -34.2020 C   0  0  0  0  0  0  0  0  0  0  0  0
   -7.2360   17.3100  -33.2900 C   0  0  0  0  0  0  0  0  0  0  0  0
   -6.9120   18.2500  -32.1970 N   0  0  0  0  0  0  0  0  0  0  0  0
   -6.4440   17.5120  -31.0120 C   0  0  0  0  0  0  0  0  0  0  0  0
   -8.0530   19.1370  -31.8550 C   0  0  0  0  0  0  0  0  0  0  0  0
   -8.0020   20.4090  -32.7050 C   0  0  0  0  0  0  0  0  0  0  0  0
   -6.8330   21.2700  -32.3290 C   0  0  0  0  0  0  0  0  0  0  0  0
   -6.8680   22.3860  -31.4990 C   0  0  0  0  0  0  0  0  0  0  0  0
   -5.6140   22.8530  -31.2980 N   0  0  0  0  0  0  0  0  0  0  0  0
   -5.1800   24.2280  -30.3340 S   0  0  0  0  0  0  0  0  0  0  0  0
   -4.6590   25.3260  -31.2180 O   0  0  0  0  0  0  0  0  0  0  0  0
   -6.4020   24.7170  -29.6090 O   0  0  0  0  0  0  0  0  0  0  0  0
   -3.9240   23.7720  -29.1890 C   0  0  0  0  0  0  0  0  0  0  0  0
   -4.0690   22.6240  -28.3960 C   0  0  0  0  0  0  0  0  0  0  0  0
   -3.0650   22.2630  -27.4940 C   0  0  0  0  0  0  0  0  0  0  0  0
   -1.9130   23.0480  -27.3780 C   0  0  0  0  0  0  0  0  0  0  0  0
   -1.7660   24.1950  -28.1620 C   0  0  0  0  0  0  0  0  0  0  0  0
   -2.7700   24.5580  -29.0650 C   0  0  0  0  0  0  0  0  0  0  0  0
   -4.7840   22.0400  -31.9810 C   0  0  0  0  0  0  0  0  0  0  0  0
   -3.3900   22.1010  -32.0620 C   0  0  0  0  0  0  0  0  0  0  0  0
   -2.7310   21.1190  -32.8220 C   0  0  0  0  0  0  0  0  0  0  0  0
   -3.4660   20.1060  -33.4750 C   0  0  0  0  0  0  0  0  0  0  0  0
   -4.8680   20.0660  -33.3750 C   0  0  0  0  0  0  0  0  0  0  0  0
   -5.4970   21.0570  -32.6200 C   0  0  0  0  0  0  0  0  0  0  0  0
   -5.1282   16.9453  -33.5888 H   0  0  0  0  0  0  0  0  0  0  0  0
   -6.1962   16.2186  -34.8369 H   0  0  0  0  0  0  0  0  0  0  0  0
   -5.8900   17.9886  -34.8369 H   0  0  0  0  0  0  0  0  0  0  0  0
   -8.0684   17.7184  -33.8819 H   0  0  0  0  0  0  0  0  0  0  0  0
   -7.5176   16.3418  -32.8504 H   0  0  0  0  0  0  0  0  0  0  0  0
   -6.7745   18.0331  -30.1014 H   0  0  0  0  0  0  0  0  0  0  0  0
   -6.8624   16.4948  -31.0247 H   0  0  0  0  0  0  0  0  0  0  0  0
   -5.3455   17.4568  -31.0247 H   0  0  0  0  0  0  0  0  0  0  0  0
   -8.9971   18.6070  -32.0492 H   0  0  0  0  0  0  0  0  0  0  0  0
   -7.9904   19.4112  -30.7916 H   0  0  0  0  0  0  0  0  0  0  0  0
   -7.9138   20.1282  -33.7649 H   0  0  0  0  0  0  0  0  0  0  0  0
   -8.9249   20.9810  -32.5290 H   0  0  0  0  0  0  0  0  0  0  0  0
   -7.7808   22.8243  -31.0693 H   0  0  0  0  0  0  0  0  0  0  0  0
   -4.9751   22.0067  -28.4845 H   0  0  0  0  0  0  0  0  0  0  0  0
   -3.1804   21.3612  -26.8748 H   0  0  0  0  0  0  0  0  0  0  0  0
   -1.1222   22.7620  -26.6689 H   0  0  0  0  0  0  0  0  0  0  0  0
   -0.8605   24.8125  -28.0689 H   0  0  0  0  0  0  0  0  0  0  0  0
   -2.6539   25.4628  -29.6797 H   0  0  0  0  0  0  0  0  0  0  0  0
   -2.8261   22.8928  -31.5471 H   0  0  0  0  0  0  0  0  0  0  0  0
   -1.6346   21.1401  -32.9085 H   0  0  0  0  0  0  0  0  0  0  0  0
   -2.9384   19.3429  -34.0660 H   0  0  0  0  0  0  0  0  0  0  0  0
   -5.4505   19.2787  -33.8759 H   0  0  0  0  0  0  0  0  0  0  0  0
  1  2  1  0
  2  3  1  0
  3  4  1  0
  3  5  1  0
  5  6  1  0
  6  7  1  0
  7  8  2  0
  8  9  1  0
  9 10  1  0
 10 11  2  0
 10 12  2  0
 10 13  1  0
 13 14  2  0
 14 15  1  0
 15 16  2  0
 16 17  1  0
 17 18  2  0
  9 19  1  0
 19 20  2  0
 20 21  1  0
 21 22  2  0
 22 23  1  0
 23 24  2  0
 24  7  1  0
 18 13  1  0
 24 19  1  0
  1 25  1  0
  1 26  1  0
  1 27  1  0
  2 28  1  0
  2 29  1  0
  4 30  1  0
  4 31  1  0
  4 32  1  0
  5 33  1  0
  5 34  1  0
  6 35  1  0
  6 36  1  0
  8 37  1  0
 14 38  1  0
 15 39  1  0
 16 40  1  0
 17 41  1  0
 18 42  1  0
 20 43  1  0
 21 44  1  0
 22 45  1  0
 23 46  1  0
M  END
>  <UniqueID>  (8) 
8

>  <SMILES>  (8) 
CCN(C)CCc1cn(S(=O)(=O)c2ccccc2)c2ccccc12

>  <Energy>  (8) 
79.3891794375641

>  <Genealogy>  (8) 
CCN(C)CCc1cn(S(=O)(=O)c2ccccc2)c2ccccc12 (3D coordinates assigned)
CCN(C)CCc1cn(S(=O)(=O)c2ccccc2)c2ccccc12 (optimized conformer: 79.3891794375641 kcal/mol)

>  <smiles>  (8) 
CCN(C)CCc1cn(S(=O)(=O)c2ccccc2)c2ccccc12

>  <score_type>  (8) 
oracle

>  <origin>  (8) 
adg

>  <m_score__min__energy>  (8) 
-8.7699999999999996

>  <m_primary>  (8) 
energy

$$$$
8:0
     RDKit          3D

 46 48  0  0  0  0  0  0  0  0999 V2000
   -2.7062   20.6630  -34.2643 H   0  0  0  0  0  0  0  0  0  0  0  0
   -3.1830   20.7060  -33.2740 C   0  0  0  0  0  0  0  0  0  0  0  0
   -3.6178   19.7969  -32.8330 H   0  0  0  0  0  0  0  0  0  0  0  0
   -3.2340   21.8620  -32.6070 C   0  0  0  0  0  0  0  0  0  0  0  0
   -2.7952   22.7633  -33.0599 H   0  0  0  0  0  0  0  0  0  0  0  0
   -3.8770   21.9600  -31.2520 C   0  0  0  0  0  0  0  0  0  0  0  0
   -4.9312   22.2502  -31.3719 H   0  0  0  0  0  0  0  0  0  0  0  0
   -3.8068   20.9818  -30.7537 H   0  0  0  0  0  0  0  0  0  0  0  0
   -3.1920   22.9610  -30.4290 N   0  0  0  0  0  0  0  0  0  0  0  0
   -3.5320   24.2660  -30.2590 C   0  0  0  0  0  0  0  0  0  0  0  0
   -4.5420   24.8170  -30.8640 N   0  0  0  0  0  0  0  0  0  0  0  0
   -5.9460   24.6200  -30.5020 C   0  0  0  0  0  0  0  0  0  0  0  0
   -6.0000   24.1373  -29.5150 H   0  0  0  0  0  0  0  0  0  0  0  0
   -6.4450   25.6000  -30.4759 H   0  0  0  0  0  0  0  0  0  0  0  0
   -6.6540   23.7340  -31.5350 C   0  0  0  0  0  0  0  0  0  0  0  0
   -7.2890   24.3737  -32.1655 H   0  0  0  0  0  0  0  0  0  0  0  0
   -5.8707   23.2232  -32.1142 H   0  0  0  0  0  0  0  0  0  0  0  0
   -7.5350   22.6430  -30.9060 C   0  0  0  0  0  0  0  0  0  0  0  0
   -7.1098   22.3617  -29.9313 H   0  0  0  0  0  0  0  0  0  0  0  0
   -8.5511   23.0495  -30.7953 H   0  0  0  0  0  0  0  0  0  0  0  0
   -7.6160   21.4490  -31.7480 N   0  0  0  0  0  0  0  0  0  0  0  0
   -6.5990   20.8070  -32.3590 C   0  0  0  0  0  0  0  0  0  0  0  0
   -5.5301   21.0447  -32.2547 H   0  0  0  0  0  0  0  0  0  0  0  0
   -7.1320   19.8010  -33.1370 C   0  0  0  0  0  0  0  0  0  0  0  0
   -6.5571   19.0892  -33.7476 H   0  0  0  0  0  0  0  0  0  0  0  0
   -8.4720   19.8350  -33.0250 N   0  0  0  0  0  0  0  0  0  0  0  0
   -9.1610   19.2150  -33.5050 H   0  0  0  0  0  0  0  0  0  0  0  0
   -8.7430   20.8520  -32.1860 C   0  0  0  0  0  0  0  0  0  0  0  0
   -9.7583   21.1583  -31.8938 H   0  0  0  0  0  0  0  0  0  0  0  0
   -2.7240   24.9350  -29.3940 N   0  0  0  0  0  0  0  0  0  0  0  0
   -1.8480   23.9830  -29.0170 C   0  0  0  0  0  0  0  0  0  0  0  0
   -2.1220   22.8040  -29.6250 C   0  0  0  0  0  0  0  0  0  0  0  0
   -1.3340   21.6870  -29.3720 C   0  0  0  0  0  0  0  0  0  0  0  0
   -1.5750   20.5880  -29.9440 O   0  0  0  0  0  0  0  0  0  0  0  0
   -0.2850   21.8130  -28.4900 N   0  0  0  0  0  0  0  0  0  0  0  0
    0.5960   20.6620  -28.2290 C   0  0  0  0  0  0  0  0  0  0  0  0
    0.7036   20.5214  -27.1433 H   0  0  0  0  0  0  0  0  0  0  0  0
    0.1580   19.7566  -28.6744 H   0  0  0  0  0  0  0  0  0  0  0  0
    1.5844   20.8484  -28.6744 H   0  0  0  0  0  0  0  0  0  0  0  0
   -0.0070   23.0390  -27.9090 C   0  0  0  0  0  0  0  0  0  0  0  0
    0.9980   23.1630  -27.1520 O   0  0  0  0  0  0  0  0  0  0  0  0
   -0.8110   24.1320  -28.1490 N   0  0  0  0  0  0  0  0  0  0  0  0
   -0.5130   25.4370  -27.5430 C   0  0  0  0  0  0  0  0  0  0  0  0
   -0.5339   25.3457  -26.4470 H   0  0  0  0  0  0  0  0  0  0  0  0
    0.4846   25.7712  -27.8642 H   0  0  0  0  0  0  0  0  0  0  0  0
   -1.2666   26.1711  -27.8642 H   0  0  0  0  0  0  0  0  0  0  0  0
  1  2  1  0
  2  3  1  0
  2  4  2  0
  4  5  1  0
  4  6  1  0
  6  7  1  0
  6  8  1  0
  6  9  1  0
  9 10  1  0
 10 11  2  0
 11 12  1  0
 12 13  1  0
 12 14  1  0
 12 15  1  0
 15 16  1  0
 15 17  1  0
 15 18  1  0
 18 19  1  0
 18 20  1  0
 18 21  1  0
 21 22  1  0
 22 23  1  0
 22 24  2  0
 24 25  1  0
 24 26  1  0
 26 27  1  0
 26 28  2  0
 28 29  1  0
 10 30  1  0
 30 31  1  0
 31 32  2  0
 32 33  1  0
 33 34  2  0
 33 35  1  0
 35 36  1  0
 36 37  1  0
 36 38  1  0
 36 39  1  0
 35 40  1  0
 40 41  2  0
 40 42  1  0
 42 43  1  0
 43 44  1  0
 43 45  1  0
 43 46  1  0
 32  9  1  0
 28 21  1  0
 42 31  1  0
M  CHG  2  26   1  30  -1
M  END
>  <UniqueID>  (9) 
9

>  <SMILES>  (9) 
C=CCn1/c(=N/CCCn2cc[nH+]c2)[n-]c2c1c(=O)n(C)c(=O)n2C

>  <Energy>  (9) 
115.47931831544378

>  <Genealogy>  (9) 
C=CCn1c(=NCCCn2cc[nH+]c2)[n-]c2c1c(=O)n(C)c(=O)n2C (protonated)
C=CCn1/c(=N/CCCn2cc[nH+]c2)[n-]c2c1c(=O)n(C)c(=O)n2C (cis-trans isomerization)
C=CCn1/c(=N/CCCn2cc[nH+]c2)[n-]c2c1c(=O)n(C)c(=O)n2C (3D coordinates assigned)
C=CCn1/c(=N/CCCn2cc[nH+]c2)[n-]c2c1c(=O)n(C)c(=O)n2C (optimized conformer: 115.47931831544378 kcal/mol)

>  <smiles>  (9) 
C=CCn1c(=NCCCn2ccnc2)[nH]c2c1c(=O)n(C)c(=O)n2C

>  <score_type>  (9) 
oracle

>  <origin>  (9) 
adg

>  <m_score__min__energy>  (9) 
-7.6299999999999999

>  <m_primary>  (9) 
energy

$$$$
9:0
     RDKit          3D

 52 54  0  0  0  0  0  0  0  0999 V2000
   -1.1840   20.7800  -33.9440 C   0  0  0  0  0  0  0  0  0  0  0  0
   -2.4750   20.2880  -33.6010 O   0  0  0  0  0  0  0  0  0  0  0  0
   -3.3610   20.9210  -32.7130 C   0  0  0  0  0  0  0  0  0  0  0  0
   -3.2620   22.2970  -32.4210 C   0  0  0  0  0  0  0  0  0  0  0  0
   -4.1560   22.8910  -31.5290 C   0  0  0  0  0  0  0  0  0  0  0  0
   -5.1760   22.1330  -30.9440 C   0  0  0  0  0  0  0  0  0  0  0  0
   -5.2760   20.7680  -31.2130 C   0  0  0  0  0  0  0  0  0  0  0  0
   -4.3730   20.1530  -32.0980 C   0  0  0  0  0  0  0  0  0  0  0  0
   -4.5040   18.6790  -32.3990 C   0  0  0  0  0  0  0  0  0  0  0  0
   -5.7850   18.4050  -33.0810 N   0  0  0  0  0  0  0  0  0  0  0  0
   -6.8460   18.1020  -32.0940 C   0  0  0  0  0  0  0  0  0  0  0  0
   -8.2420   18.2990  -32.7020 C   0  0  0  0  0  0  0  0  0  0  0  0
   -8.4810   19.7130  -33.1110 N   0  0  0  0  0  0  0  0  0  0  0  0
   -9.2510   20.4310  -32.0620 C   0  0  0  0  0  0  0  0  0  0  0  0
   -8.6200   21.7780  -31.6120 C   0  0  0  0  0  0  0  0  0  0  0  0
   -8.7440   21.9250  -30.0890 C   0  0  0  0  0  0  0  0  0  0  0  0
   -9.2700   22.9860  -32.3050 C   0  0  0  0  0  0  0  0  0  0  0  0
   -7.2220   20.4310  -33.4520 C   0  0  0  0  0  0  0  0  0  0  0  0
   -6.1590   19.4840  -34.0320 C   0  0  0  0  0  0  0  0  0  0  0  0
   -6.0880   22.7630  -30.0900 O   0  0  0  0  0  0  0  0  0  0  0  0
   -6.1710   24.1880  -30.0200 C   0  0  0  0  0  0  0  0  0  0  0  0
   -4.7700   24.8070  -30.1060 C   0  0  0  0  0  0  0  0  0  0  0  0
   -4.0490   24.2480  -31.2080 O   0  0  0  0  0  0  0  0  0  0  0  0
   -0.6180   20.9957  -33.0258 H   0  0  0  0  0  0  0  0  0  0  0  0
   -0.6484   20.0230  -34.5356 H   0  0  0  0  0  0  0  0  0  0  0  0
   -1.2881   21.7015  -34.5356 H   0  0  0  0  0  0  0  0  0  0  0  0
   -2.4780   22.9038  -32.8976 H   0  0  0  0  0  0  0  0  0  0  0  0
   -6.0640   20.1707  -30.7311 H   0  0  0  0  0  0  0  0  0  0  0  0
   -3.6733   18.3665  -33.0488 H   0  0  0  0  0  0  0  0  0  0  0  0
   -4.4758   18.1177  -31.4534 H   0  0  0  0  0  0  0  0  0  0  0  0
   -6.7421   17.0576  -31.7647 H   0  0  0  0  0  0  0  0  0  0  0  0
   -6.7365   18.7897  -31.2425 H   0  0  0  0  0  0  0  0  0  0  0  0
   -8.3379   17.6527  -33.5869 H   0  0  0  0  0  0  0  0  0  0  0  0
   -8.9857   18.0379  -31.9347 H   0  0  0  0  0  0  0  0  0  0  0  0
   -9.0720   19.6720  -33.9740 H   0  0  0  0  0  0  0  0  0  0  0  0
  -10.2579   20.6367  -32.4543 H   0  0  0  0  0  0  0  0  0  0  0  0
   -9.2611   19.7777  -31.1771 H   0  0  0  0  0  0  0  0  0  0  0  0
   -7.5599   21.7605  -31.9052 H   0  0  0  0  0  0  0  0  0  0  0  0
   -8.1102   21.1736  -29.5953 H   0  0  0  0  0  0  0  0  0  0  0  0
   -8.4188   22.9325  -29.7902 H   0  0  0  0  0  0  0  0  0  0  0  0
   -9.7918   21.7742  -29.7902 H   0  0  0  0  0  0  0  0  0  0  0  0
   -9.6467   23.6860  -31.5447 H   0  0  0  0  0  0  0  0  0  0  0  0
   -8.5234   23.4939  -32.9332 H   0  0  0  0  0  0  0  0  0  0  0  0
  -10.1052   22.6427  -32.9332 H   0  0  0  0  0  0  0  0  0  0  0  0
   -7.4474   21.2100  -34.1952 H   0  0  0  0  0  0  0  0  0  0  0  0
   -6.8190   20.8690  -32.5269 H   0  0  0  0  0  0  0  0  0  0  0  0
   -6.5569   19.0249  -34.9490 H   0  0  0  0  0  0  0  0  0  0  0  0
   -5.2564   20.0778  -34.2387 H   0  0  0  0  0  0  0  0  0  0  0  0
   -6.7831   24.5575  -30.8560 H   0  0  0  0  0  0  0  0  0  0  0  0
   -6.6304   24.4734  -29.0622 H   0  0  0  0  0  0  0  0  0  0  0  0
   -4.8612   25.8943  -30.2457 H   0  0  0  0  0  0  0  0  0  0  0  0
   -4.2252   24.5920  -29.1749 H   0  0  0  0  0  0  0  0  0  0  0  0
  1  2  1  0
  2  3  1  0
  3  4  2  0
  4  5  1  0
  5  6  2  0
  6  7  1  0
  7  8  2  0
  8  9  1  0
  9 10  1  0
 10 11  1  0
 11 12  1  0
 12 13  1  0
 13 14  1  0
 14 15  1  0
 15 16  1  0
 15 17  1  0
 13 18  1  0
 18 19  1  0
  6 20  1  0
 20 21  1  0
 21 22  1  0
 22 23  1  0
  8  3  1  0
 19 10  1  0
 23  5  1  0
  1 24  1  0
  1 25  1  0
  1 26  1  0
  4 27  1  0
  7 28  1  0
  9 29  1  0
  9 30  1  0
 11 31  1  0
 11 32  1  0
 12 33  1  0
 12 34  1  0
 13 35  1  0
 14 36  1  0
 14 37  1  0
 15 38  1  0
 16 39  1  0
 16 40  1  0
 16 41  1  0
 17 42  1  0
 17 43  1  0
 17 44  1  0
 18 45  1  0
 18 46  1  0
 19 47  1  0
 19 48  1  0
 21 49  1  0
 21 50  1  0
 22 51  1  0
 22 52  1  0
M  CHG  1  13   1
M  END
>  <UniqueID>  (10) 
10

>  <SMILES>  (10) 
COc1cc2c(cc1CN1CC[NH+](CC(C)C)CC1)OCCO2

>  <Energy>  (10) 
62.30468794736978

>  <Genealogy>  (10) 
COc1cc2c(cc1CN1CC[NH+](CC(C)C)CC1)OCCO2 (protonated)
COc1cc2c(cc1CN1CC[NH+](CC(C)C)CC1)OCCO2 (3D coordinates assigned)
COc1cc2c(cc1CN1CC[NH+](CC(C)C)CC1)OCCO2 (nonaromatic ring conformer: 62.30468794736978 kcal/mol)

>  <smiles>  (10) 
COc1cc2c(cc1CN1CCN(CC(C)C)CC1)OCCO2

>  <score_type>  (10) 
oracle

>  <origin>  (10) 
adg

>  <m_score__min__energy>  (10) 
-7.4800000000000004

>  <m_primary>  (10) 
energy

$$$$
10:0
     RDKit          3D

 65 68  0  0  0  0  0  0  0  0999 V2000
   -9.0040   21.8480  -31.7610 C   0  0  0  0  0  0  0  0  0  0  0  0
   -9.1160   20.3280  -31.7390 C   0  0  0  0  0  0  0  0  0  0  0  0
   -8.6010   19.7450  -32.9810 N   0  0  0  0  0  0  0  0  0  0  0  0
   -7.2670   19.2150  -33.1120 C   0  0  0  0  0  0  0  0  0  0  0  0
   -7.0250   17.8370  -33.1680 C   0  0  0  0  0  0  0  0  0  0  0  0
   -5.7280   17.3500  -33.3070 C   0  0  0  0  0  0  0  0  0  0  0  0
   -4.6200   18.2230  -33.3870 C   0  0  0  0  0  0  0  0  0  0  0  0
   -4.8600   19.6340  -33.3510 C   0  0  0  0  0  0  0  0  0  0  0  0
   -6.1860   20.1000  -33.2040 C   0  0  0  0  0  0  0  0  0  0  0  0
   -3.7650   20.5300  -33.4710 C   0  0  0  0  0  0  0  0  0  0  0  0
   -3.9180   21.9690  -33.3920 N   0  0  0  0  0  0  0  0  0  0  0  0
   -3.7850   22.4240  -32.0000 C   0  0  0  0  0  0  0  0  0  0  0  0
   -4.9760   23.3020  -31.5950 C   0  0  0  0  0  0  0  0  0  0  0  0
   -4.4990   24.5180  -30.8970 N   0  0  0  0  0  0  0  0  0  0  0  0
   -5.6320   25.2980  -30.3470 C   0  0  0  0  0  0  0  0  0  0  0  0
   -6.9120   24.4660  -30.3840 C   0  0  0  0  0  0  0  0  0  0  0  0
   -3.5190   24.1780  -29.8410 C   0  0  0  0  0  0  0  0  0  0  0  0
   -4.1940   24.1810  -28.4710 C   0  0  0  0  0  0  0  0  0  0  0  0
   -2.5160   19.9740  -33.7590 C   0  0  0  0  0  0  0  0  0  0  0  0
   -1.0870   20.7930  -34.1150 S   0  0  0  0  0  0  0  0  0  0  0  0
   -0.1920   19.4030  -34.3980 C   0  0  0  0  0  0  0  0  0  0  0  0
   -0.9930   18.2760  -34.2660 C   0  0  0  0  0  0  0  0  0  0  0  0
   -2.3150   18.5990  -33.8440 C   0  0  0  0  0  0  0  0  0  0  0  0
   -3.3300   17.7320  -33.5090 N   0  0  0  0  0  0  0  0  0  0  0  0
   -3.0310   16.3420  -33.1210 C   0  0  0  0  0  0  0  0  0  0  0  0
   -0.4800   17.0120  -34.9180 C   0  0  0  0  0  0  0  0  0  0  0  0
    1.0030   16.7750  -34.5590 C   0  0  0  0  0  0  0  0  0  0  0  0
    1.8860   18.0560  -34.5080 C   0  0  0  0  0  0  0  0  0  0  0  0
    1.1830   19.3430  -34.9770 C   0  0  0  0  0  0  0  0  0  0  0  0
   -8.9760   22.2286  -30.7293 H   0  0  0  0  0  0  0  0  0  0  0  0
   -8.0819   22.1402  -32.2848 H   0  0  0  0  0  0  0  0  0  0  0  0
   -9.8733   22.2722  -32.2848 H   0  0  0  0  0  0  0  0  0  0  0  0
   -8.5356   19.9369  -30.8904 H   0  0  0  0  0  0  0  0  0  0  0  0
  -10.1772   20.0564  -31.6382 H   0  0  0  0  0  0  0  0  0  0  0  0
   -9.2390   19.6850  -33.8080 H   0  0  0  0  0  0  0  0  0  0  0  0
   -7.8673   17.1327  -33.1016 H   0  0  0  0  0  0  0  0  0  0  0  0
   -5.5626   16.2636  -33.3555 H   0  0  0  0  0  0  0  0  0  0  0  0
   -6.3732   21.1831  -33.1609 H   0  0  0  0  0  0  0  0  0  0  0  0
   -3.2270   22.4460  -34.0140 H   0  0  0  0  0  0  0  0  0  0  0  0
   -4.8580   22.2500  -33.7550 H   0  0  0  0  0  0  0  0  0  0  0  0
   -3.7420   21.5473  -31.3371 H   0  0  0  0  0  0  0  0  0  0  0  0
   -2.8638   23.0185  -31.9110 H   0  0  0  0  0  0  0  0  0  0  0  0
   -5.5345   23.5954  -32.4961 H   0  0  0  0  0  0  0  0  0  0  0  0
   -5.6294   22.7318  -30.9182 H   0  0  0  0  0  0  0  0  0  0  0  0
   -5.4099   25.5770  -29.3064 H   0  0  0  0  0  0  0  0  0  0  0  0
   -5.7742   26.2028  -30.9562 H   0  0  0  0  0  0  0  0  0  0  0  0
   -7.2404   24.2525  -29.3561 H   0  0  0  0  0  0  0  0  0  0  0  0
   -7.6983   25.0261  -30.9113 H   0  0  0  0  0  0  0  0  0  0  0  0
   -6.7193   23.5200  -30.9113 H   0  0  0  0  0  0  0  0  0  0  0  0
   -3.1042   23.1786  -30.0390 H   0  0  0  0  0  0  0  0  0  0  0  0
   -2.7140   24.9276  -29.8450 H   0  0  0  0  0  0  0  0  0  0  0  0
   -3.4258   24.1776  -27.6837 H   0  0  0  0  0  0  0  0  0  0  0  0
   -4.8172   25.0819  -28.3713 H   0  0  0  0  0  0  0  0  0  0  0  0
   -4.8252   23.2857  -28.3713 H   0  0  0  0  0  0  0  0  0  0  0  0
   -3.0140   16.2631  -32.0240 H   0  0  0  0  0  0  0  0  0  0  0  0
   -3.8060   15.6738  -33.5247 H   0  0  0  0  0  0  0  0  0  0  0  0
   -2.0498   16.0516  -33.5247 H   0  0  0  0  0  0  0  0  0  0  0  0
   -1.0772   16.1572  -34.5678 H   0  0  0  0  0  0  0  0  0  0  0  0
   -0.5669   17.1171  -36.0095 H   0  0  0  0  0  0  0  0  0  0  0  0
    1.0411   16.2959  -33.5695 H   0  0  0  0  0  0  0  0  0  0  0  0
    1.4162   16.1516  -35.3656 H   0  0  0  0  0  0  0  0  0  0  0  0
    2.2141   18.2045  -33.4686 H   0  0  0  0  0  0  0  0  0  0  0  0
    2.7193   17.8861  -35.2057 H   0  0  0  0  0  0  0  0  0  0  0  0
    1.7596   20.2178  -34.6420 H   0  0  0  0  0  0  0  0  0  0  0  0
    1.1170   19.3435  -36.0750 H   0  0  0  0  0  0  0  0  0  0  0  0
  1  2  1  0
  2  3  1  0
  3  4  1  0
  4  5  2  0
  5  6  1  0
  6  7  2  0
  7  8  1  0
  8  9  2  0
  8 10  1  0
 10 11  1  0
 11 12  1  0
 12 13  1  0
 13 14  1  0
 14 15  1  0
 15 16  1  0
 14 17  1  0
 17 18  1  0
 10 19  2  0
 19 20  1  0
 20 21  1  0
 21 22  2  0
 22 23  1  0
 23 24  2  0
 24 25  1  0
 22 26  1  0
 26 27  1  0
 27 28  1  0
 28 29  1  0
  9  4  1  0
 23 19  1  0
 24  7  1  0
 29 21  1  0
  1 30  1  0
  1 31  1  0
  1 32  1  0
  2 33  1  0
  2 34  1  0
  3 35  1  0
  5 36  1  0
  6 37  1  0
  9 38  1  0
 11 39  1  0
 11 40  1  0
 12 41  1  0
 12 42  1  0
 13 43  1  0
 13 44  1  0
 15 45  1  0
 15 46  1  0
 16 47  1  0
 16 48  1  0
 16 49  1  0
 17 50  1  0
 17 51  1  0
 18 52  1  0
 18 53  1  0
 18 54  1  0
 25 55  1  0
 25 56  1  0
 25 57  1  0
 26 58  1  0
 26 59  1  0
 27 60  1  0
 27 61  1  0
 28 62  1  0
 28 63  1  0
 29 64  1  0
 29 65  1  0
M  CHG  2  11   1  24   1
M  END
>  <UniqueID>  (11) 
11

>  <SMILES>  (11) 
CCNc1ccc2c(c1)c([NH2+]CCN(CC)CC)c1sc3c(c1[n+]2C)CCCC3

>  <Energy>  (11) 
121.52643684791244

>  <Genealogy>  (11) 
CCNc1ccc2c(c1)c([NH2+]CCN(CC)CC)c1sc3c(c1[n+]2C)CCCC3 (protonated)
CCNc1ccc2c(c1)c([NH2+]CCN(CC)CC)c1sc3c(c1[n+]2C)CCCC3 (3D coordinates assigned)
CCNc1ccc2c(c1)c([NH2+]CCN(CC)CC)c1sc3c(c1[n+]2C)CCCC3 (nonaromatic ring conformer: 121.52643684791244 kcal/mol)

>  <smiles>  (11) 
CCNc1ccc2c(c1)c(NCCN(CC)CC)c1sc3c(c1[n+]2C)CCCC3

>  <score_type>  (11) 
oracle

>  <origin>  (11) 
adg

>  <m_score__min__energy>  (11) 
-8.3900000000000006

>  <m_primary>  (11) 
energy

$$$$
11:0
     RDKit          3D

 46 48  0  0  0  0  0  0  0  0999 V2000
   -5.7070   16.6720  -31.9610 C   0  0  0  0  0  0  0  0  0  0  0  0
   -6.0000   17.4130  -33.2620 C   0  0  0  0  0  0  0  0  0  0  0  0
   -6.3070   18.8330  -32.9910 N   0  0  0  0  0  0  0  0  0  0  0  0
   -5.3770   19.8180  -33.2430 C   0  0  0  0  0  0  0  0  0  0  0  0
   -3.7090   19.4340  -33.8250 S   0  0  0  0  0  0  0  0  0  0  0  0
   -2.8570   20.2850  -32.4450 C   0  0  0  0  0  0  0  0  0  0  0  0
   -2.7160   21.7840  -32.7150 C   0  0  0  0  0  0  0  0  0  0  0  0
   -3.5970   22.5590  -31.9010 O   0  0  0  0  0  0  0  0  0  0  0  0
   -3.5250   22.6950  -30.5030 C   0  0  0  0  0  0  0  0  0  0  0  0
   -3.1300   21.6390  -29.6580 C   0  0  0  0  0  0  0  0  0  0  0  0
   -3.1090   21.8140  -28.2730 C   0  0  0  0  0  0  0  0  0  0  0  0
   -3.4640   23.0430  -27.7170 C   0  0  0  0  0  0  0  0  0  0  0  0
   -3.8300   24.1050  -28.5450 C   0  0  0  0  0  0  0  0  0  0  0  0
   -3.8590   23.9400  -29.9430 C   0  0  0  0  0  0  0  0  0  0  0  0
   -4.2140   24.9860  -30.8090 O   0  0  0  0  0  0  0  0  0  0  0  0
   -5.4710   25.6560  -30.7930 C   0  0  0  0  0  0  0  0  0  0  0  0
   -5.6930   21.1270  -33.0520 N   0  0  0  0  0  0  0  0  0  0  0  0
   -6.9100   21.5030  -32.5800 C   0  0  0  0  0  0  0  0  0  0  0  0
   -7.2070   22.8590  -32.3780 C   0  0  0  0  0  0  0  0  0  0  0  0
   -8.4550   23.2400  -31.8800 C   0  0  0  0  0  0  0  0  0  0  0  0
   -9.4180   22.2710  -31.5910 C   0  0  0  0  0  0  0  0  0  0  0  0
   -9.1390   20.9180  -31.8010 C   0  0  0  0  0  0  0  0  0  0  0  0
   -7.8790   20.5250  -32.2980 C   0  0  0  0  0  0  0  0  0  0  0  0
   -7.5560   19.1790  -32.5310 C   0  0  0  0  0  0  0  0  0  0  0  0
   -8.4250   18.2860  -32.3200 O   0  0  0  0  0  0  0  0  0  0  0  0
   -5.9618   17.3163  -31.1067 H   0  0  0  0  0  0  0  0  0  0  0  0
   -6.3092   15.7524  -31.9192 H   0  0  0  0  0  0  0  0  0  0  0  0
   -4.6388   16.4129  -31.9192 H   0  0  0  0  0  0  0  0  0  0  0  0
   -5.1202   17.3519  -33.9194 H   0  0  0  0  0  0  0  0  0  0  0  0
   -6.8699   16.9475  -33.7484 H   0  0  0  0  0  0  0  0  0  0  0  0
   -3.4383   20.1408  -31.5223 H   0  0  0  0  0  0  0  0  0  0  0  0
   -1.8494   19.8556  -32.3431 H   0  0  0  0  0  0  0  0  0  0  0  0
   -1.6796   22.0868  -32.5048 H   0  0  0  0  0  0  0  0  0  0  0  0
   -2.9777   21.9659  -33.7678 H   0  0  0  0  0  0  0  0  0  0  0  0
   -2.8366   20.6716  -30.0918 H   0  0  0  0  0  0  0  0  0  0  0  0
   -2.8119   20.9810  -27.6189 H   0  0  0  0  0  0  0  0  0  0  0  0
   -3.4555   23.1752  -26.6250 H   0  0  0  0  0  0  0  0  0  0  0  0
   -4.0973   25.0762  -28.1031 H   0  0  0  0  0  0  0  0  0  0  0  0
   -5.7843   25.8230  -29.7519 H   0  0  0  0  0  0  0  0  0  0  0  0
   -5.3772   26.6238  -31.3074 H   0  0  0  0  0  0  0  0  0  0  0  0
   -6.2222   25.0386  -31.3074 H   0  0  0  0  0  0  0  0  0  0  0  0
   -4.9760   21.8550  -33.2740 H   0  0  0  0  0  0  0  0  0  0  0  0
   -6.4538   23.6255  -32.6128 H   0  0  0  0  0  0  0  0  0  0  0  0
   -8.6795   24.3042  -31.7153 H   0  0  0  0  0  0  0  0  0  0  0  0
  -10.3993   22.5737  -31.1968 H   0  0  0  0  0  0  0  0  0  0  0  0
   -9.9030   20.1585  -31.5784 H   0  0  0  0  0  0  0  0  0  0  0  0
  1  2  1  0
  2  3  1  0
  3  4  1  0
  4  5  1  0
  5  6  1  0
  6  7  1  0
  7  8  1  0
  8  9  1  0
  9 10  2  0
 10 11  1  0
 11 12  2  0
 12 13  1  0
 13 14  2  0
 14 15  1  0
 15 16  1  0
  4 17  2  0
 17 18  1  0
 18 19  2  0
 19 20  1  0
 20 21  2  0
 21 22  1  0
 22 23  2  0
 23 24  1  0
 24 25  2  0
 24  3  1  0
 14  9  1  0
 23 18  1  0
  1 26  1  0
  1 27  1  0
  1 28  1  0
  2 29  1  0
  2 30  1  0
  6 31  1  0
  6 32  1  0
  7 33  1  0
  7 34  1  0
 10 35  1  0
 11 36  1  0
 12 37  1  0
 13 38  1  0
 16 39  1  0
 16 40  1  0
 16 41  1  0
 17 42  1  0
 19 43  1  0
 20 44  1  0
 21 45  1  0
 22 46  1  0
M  CHG  1  17   1
M  END
>  <UniqueID>  (12) 
12

>  <SMILES>  (12) 
CCn1c(SCCOc2ccccc2OC)[nH+]c2ccccc2c1=O

>  <Energy>  (12) 
45.99672678439461

>  <Genealogy>  (12) 
CCn1c(SCCOc2ccccc2OC)[nH+]c2ccccc2c1=O (protonated)
CCn1c(SCCOc2ccccc2OC)[nH+]c2ccccc2c1=O (3D coordinates assigned)
CCn1c(SCCOc2ccccc2OC)[nH+]c2ccccc2c1=O (optimized conformer: 45.99672678439461 kcal/mol)

>  <smiles>  (12) 
CCn1c(SCCOc2ccccc2OC)nc2ccccc2c1=O

>  <score_type>  (12) 
oracle

>  <origin>  (12) 
adg

>  <m_score__min__energy>  (12) 
-8.9800000000000004

>  <m_primary>  (12) 
energy

$$$$
12:0
     RDKit          3D

 34 36  0  0  0  0  0  0  0  0999 V2000
   -9.8660   21.4950  -31.9930 C   0  0  0  0  0  0  0  0  0  0  0  0
   -8.5760   20.8140  -32.0600 N   0  0  0  0  0  0  0  0  0  0  0  0
   -8.3120   19.7880  -32.8470 N   0  0  0  0  0  0  0  0  0  0  0  0
   -7.0100   19.4920  -32.6770 C   0  0  0  0  0  0  0  0  0  0  0  0
   -6.3130   18.3990  -33.3670 C   0  0  0  0  0  0  0  0  0  0  0  0
   -6.7390   17.0780  -33.4310 C   0  0  0  0  0  0  0  0  0  0  0  0
   -5.8740   16.2560  -34.1630 C   0  0  0  0  0  0  0  0  0  0  0  0
   -4.7700   16.9230  -34.6750 C   0  0  0  0  0  0  0  0  0  0  0  0
   -4.8690   18.5390  -34.2180 S   0  0  0  0  0  0  0  0  0  0  0  0
   -6.4140   20.3210  -31.7930 N   0  0  0  0  0  0  0  0  0  0  0  0
   -7.4280   21.1350  -31.4220 C   0  0  0  0  0  0  0  0  0  0  0  0
   -7.2670   22.2640  -30.4280 C   0  0  0  0  0  0  0  0  0  0  0  0
   -6.6970   23.5020  -31.0120 N   0  0  0  0  0  0  0  0  0  0  0  0
   -6.8040   24.6720  -30.1300 C   0  0  0  0  0  0  0  0  0  0  0  0
   -5.4380   24.9140  -29.5170 C   0  0  0  0  0  0  0  0  0  0  0  0
   -4.4540   24.2720  -30.4730 C   0  0  0  0  0  0  0  0  0  0  0  0
   -5.2800   23.3780  -31.3930 C   0  0  0  0  0  0  0  0  0  0  0  0
  -10.1478   21.6438  -30.9402 H   0  0  0  0  0  0  0  0  0  0  0  0
   -9.7917   22.4714  -32.4942 H   0  0  0  0  0  0  0  0  0  0  0  0
  -10.6303   20.8828  -32.4942 H   0  0  0  0  0  0  0  0  0  0  0  0
   -8.9960   19.3170  -33.4810 H   0  0  0  0  0  0  0  0  0  0  0  0
   -7.6619   16.7151  -32.9550 H   0  0  0  0  0  0  0  0  0  0  0  0
   -6.0527   15.1817  -34.3179 H   0  0  0  0  0  0  0  0  0  0  0  0
   -3.9673   16.4721  -35.2769 H   0  0  0  0  0  0  0  0  0  0  0  0
   -8.2566   22.5017  -30.0106 H   0  0  0  0  0  0  0  0  0  0  0  0
   -6.5580   21.9164  -29.6622 H   0  0  0  0  0  0  0  0  0  0  0  0
   -7.1149   25.5524  -30.7116 H   0  0  0  0  0  0  0  0  0  0  0  0
   -7.5530   24.4947  -29.3441 H   0  0  0  0  0  0  0  0  0  0  0  0
   -5.2410   25.9925  -29.4274 H   0  0  0  0  0  0  0  0  0  0  0  0
   -5.3616   24.4923  -28.5039 H   0  0  0  0  0  0  0  0  0  0  0  0
   -3.9317   25.0432  -31.0582 H   0  0  0  0  0  0  0  0  0  0  0  0
   -3.6878   23.6954  -29.9340 H   0  0  0  0  0  0  0  0  0  0  0  0
   -5.1470   23.6960  -32.4376 H   0  0  0  0  0  0  0  0  0  0  0  0
   -4.9530   22.3321  -31.2971 H   0  0  0  0  0  0  0  0  0  0  0  0
  1  2  1  0
  2  3  1  0
  3  4  2  0
  4  5  1  0
  5  6  2  0
  6  7  1  0
  7  8  2  0
  8  9  1  0
  4 10  1  0
 10 11  2  0
 11 12  1  0
 12 13  1  0
 13 14  1  0
 14 15  1  0
 15 16  1  0
 16 17  1  0
 11  2  1  0
 17 13  1  0
  9  5  1  0
  1 18  1  0
  1 19  1  0
  1 20  1  0
  3 21  1  0
  6 22  1  0
  7 23  1  0
  8 24  1  0
 12 25  1  0
 12 26  1  0
 14 27  1  0
 14 28  1  0
 15 29  1  0
 15 30  1  0
 16 31  1  0
 16 32  1  0
 17 33  1  0
 17 34  1  0
M  CHG  1   3   1
M  END
>  <UniqueID>  (13) 
13

>  <SMILES>  (13) 
Cn1[nH+]c(-c2cccs2)nc1CN1CCCC1

>  <Energy>  (13) 
97.82149856436057

>  <Genealogy>  (13) 
Cn1[nH+]c(-c2cccs2)nc1CN1CCCC1 (protonated)
Cn1[nH+]c(-c2cccs2)nc1CN1CCCC1 (3D coordinates assigned)
Cn1[nH+]c(-c2cccs2)nc1CN1CCCC1 (nonaromatic ring conformer: 97.82149856436057 kcal/mol)

>  <smiles>  (13) 
Cn1nc(-c2cccs2)nc1CN1CCCC1

>  <score_type>  (13) 
oracle

>  <origin>  (13) 
adg

>  <m_score__min__energy>  (13) 
-6.4500000000000002

>  <m_primary>  (13) 
energy

$$$$
13:0
     RDKit          3D

 38 40  0  0  0  0  0  0  0  0999 V2000
   -6.4680   25.2000  -29.6990 C   0  0  0  0  0  0  0  0  0  0  0  0
   -5.3590   25.5780  -30.6730 C   0  0  0  0  0  0  0  0  0  0  0  0
   -4.2390   24.6360  -30.5440 N   0  0  0  0  0  0  0  0  0  0  0  0
   -4.6510   23.2560  -30.8490 C   0  0  0  0  0  0  0  0  0  0  0  0
   -5.3980   23.2050  -32.1900 C   0  0  0  0  0  0  0  0  0  0  0  0
   -5.8470   21.8270  -32.5130 N   0  0  0  0  0  0  0  0  0  0  0  0
   -4.9070   20.9290  -32.9640 C   0  0  0  0  0  0  0  0  0  0  0  0
   -3.7020   21.2890  -33.0940 O   0  0  0  0  0  0  0  0  0  0  0  0
   -5.2560   19.6060  -33.2790 C   0  0  0  0  0  0  0  0  0  0  0  0
   -4.2740   18.7030  -33.7400 C   0  0  0  0  0  0  0  0  0  0  0  0
   -4.6060   17.3900  -34.0590 C   0  0  0  0  0  0  0  0  0  0  0  0
   -5.9180   16.9550  -33.9230 C   0  0  0  0  0  0  0  0  0  0  0  0
   -6.9050   17.8290  -33.4660 C   0  0  0  0  0  0  0  0  0  0  0  0
   -6.5960   19.1750  -33.1310 C   0  0  0  0  0  0  0  0  0  0  0  0
   -7.5660   20.0960  -32.6490 C   0  0  0  0  0  0  0  0  0  0  0  0
   -8.9250   19.7330  -32.4630 C   0  0  0  0  0  0  0  0  0  0  0  0
   -9.8540   20.6440  -31.9710 C   0  0  0  0  0  0  0  0  0  0  0  0
   -9.4630   21.9320  -31.6490 C   0  0  0  0  0  0  0  0  0  0  0  0
   -8.1400   22.3260  -31.8220 C   0  0  0  0  0  0  0  0  0  0  0  0
   -7.1620   21.4310  -32.3320 C   0  0  0  0  0  0  0  0  0  0  0  0
   -6.1074   25.3229  -28.6671 H   0  0  0  0  0  0  0  0  0  0  0  0
   -7.3384   25.8522  -29.8634 H   0  0  0  0  0  0  0  0  0  0  0  0
   -6.7589   24.1520  -29.8634 H   0  0  0  0  0  0  0  0  0  0  0  0
   -5.7487   25.5430  -31.7011 H   0  0  0  0  0  0  0  0  0  0  0  0
   -5.0061   26.5944  -30.4440 H   0  0  0  0  0  0  0  0  0  0  0  0
   -3.5040   24.9210  -31.2340 H   0  0  0  0  0  0  0  0  0  0  0  0
   -3.7586   22.6155  -30.9065 H   0  0  0  0  0  0  0  0  0  0  0  0
   -5.3212   22.8992  -30.0531 H   0  0  0  0  0  0  0  0  0  0  0  0
   -6.2776   23.8632  -32.1340 H   0  0  0  0  0  0  0  0  0  0  0  0
   -4.7090   23.5368  -32.9807 H   0  0  0  0  0  0  0  0  0  0  0  0
   -3.2330   19.0416  -33.8485 H   0  0  0  0  0  0  0  0  0  0  0  0
   -3.8305   16.6975  -34.4184 H   0  0  0  0  0  0  0  0  0  0  0  0
   -6.1801   15.9172  -34.1766 H   0  0  0  0  0  0  0  0  0  0  0  0
   -7.9397   17.4701  -33.3633 H   0  0  0  0  0  0  0  0  0  0  0  0
   -9.2500   18.7122  -32.7125 H   0  0  0  0  0  0  0  0  0  0  0  0
  -10.9026   20.3398  -31.8375 H   0  0  0  0  0  0  0  0  0  0  0  0
  -10.2007   22.6465  -31.2550 H   0  0  0  0  0  0  0  0  0  0  0  0
   -7.8451   23.3524  -31.5582 H   0  0  0  0  0  0  0  0  0  0  0  0
  1  2  1  0
  2  3  1  0
  3  4  1  0
  4  5  1  0
  5  6  1  0
  6  7  1  0
  7  8  2  0
  7  9  1  0
  9 10  2  0
 10 11  1  0
 11 12  2  0
 12 13  1  0
 13 14  2  0
 14 15  1  0
 15 16  2  0
 16 17  1  0
 17 18  2  0
 18 19  1  0
 19 20  2  0
 20  6  1  0
 14  9  1  0
 20 15  1  0
  1 21  1  0
  1 22  1  0
  1 23  1  0
  2 24  1  0
  2 25  1  0
  3 26  1  0
  4 27  1  0
  4 28  1  0
  5 29  1  0
  5 30  1  0
 10 31  1  0
 11 32  1  0
 12 33  1  0
 13 34  1  0
 16 35  1  0
 17 36  1  0
 18 37  1  0
 19 38  1  0
M  END
>  <UniqueID>  (14) 
14

>  <SMILES>  (14) 
CCNCCn1c(=O)c2ccccc2c2ccccc21

>  <Energy>  (14) 
56.108260995550744

>  <Genealogy>  (14) 
CCNCCn1c(=O)c2ccccc2c2ccccc21 (3D coordinates assigned)
CCNCCn1c(=O)c2ccccc2c2ccccc21 (optimized conformer: 56.108260995550744 kcal/mol)

>  <smiles>  (14) 
CCNCCn1c(=O)c2ccccc2c2ccccc21

>  <score_type>  (14) 
oracle

>  <origin>  (14) 
adg

>  <m_score__min__energy>  (14) 
-8.8200000000000003

>  <m_primary>  (14) 
energy

$$$$
14:0
     RDKit          3D

 31 32  0  0  0  0  0  0  0  0999 V2000
   -3.0430   22.0150  -27.8500 C   0  0  0  0  0  0  0  0  0  0  0  0
   -3.4350   23.3980  -28.3800 C   0  0  0  0  0  0  0  0  0  0  0  0
   -4.0170   24.2570  -27.2530 C   0  0  0  0  0  0  0  0  0  0  0  0
   -4.4120   23.2670  -29.4650 N   0  0  0  0  0  0  0  0  0  0  0  0
   -4.6340   24.3120  -30.4230 C   0  0  0  0  0  0  0  0  0  0  0  0
   -3.8590   25.3050  -30.4740 O   0  0  0  0  0  0  0  0  0  0  0  0
   -5.7930   24.2270  -31.3700 C   0  0  0  0  0  0  0  0  0  0  0  0
   -5.9070   22.8670  -31.9120 N   0  0  0  0  0  0  0  0  0  0  0  0
   -4.8500   22.1320  -32.3530 C   0  0  0  0  0  0  0  0  0  0  0  0
   -3.6650   22.5570  -32.3730 O   0  0  0  0  0  0  0  0  0  0  0  0
   -5.2960   20.5860  -32.8640 S   0  0  0  0  0  0  0  0  0  0  0  0
   -6.9130   20.8610  -32.5010 C   0  0  0  0  0  0  0  0  0  0  0  0
   -7.9860   19.9850  -32.6470 C   0  0  0  0  0  0  0  0  0  0  0  0
   -9.2610   20.4280  -32.2640 C   0  0  0  0  0  0  0  0  0  0  0  0
   -9.4370   21.7240  -31.7450 C   0  0  0  0  0  0  0  0  0  0  0  0
   -8.3410   22.5920  -31.6060 C   0  0  0  0  0  0  0  0  0  0  0  0
   -7.0670   22.1470  -31.9920 C   0  0  0  0  0  0  0  0  0  0  0  0
   -3.0470   22.0292  -26.7501 H   0  0  0  0  0  0  0  0  0  0  0  0
   -3.7644   21.2665  -28.2097 H   0  0  0  0  0  0  0  0  0  0  0  0
   -2.0362   21.7563  -28.2097 H   0  0  0  0  0  0  0  0  0  0  0  0
   -2.5321   23.8906  -28.7700 H   0  0  0  0  0  0  0  0  0  0  0  0
   -3.7283   23.8310  -26.2808 H   0  0  0  0  0  0  0  0  0  0  0  0
   -3.6267   25.2822  -27.3345 H   0  0  0  0  0  0  0  0  0  0  0  0
   -5.1138   24.2746  -27.3345 H   0  0  0  0  0  0  0  0  0  0  0  0
   -4.9860   22.3970  -29.5390 H   0  0  0  0  0  0  0  0  0  0  0  0
   -6.7191   24.4835  -30.8347 H   0  0  0  0  0  0  0  0  0  0  0  0
   -5.6310   24.9312  -32.1993 H   0  0  0  0  0  0  0  0  0  0  0  0
   -7.8378   18.9730  -33.0517 H   0  0  0  0  0  0  0  0  0  0  0  0
  -10.1275   19.7587  -32.3700 H   0  0  0  0  0  0  0  0  0  0  0  0
  -10.4407   22.0602  -31.4457 H   0  0  0  0  0  0  0  0  0  0  0  0
   -8.4793   23.6052  -31.2007 H   0  0  0  0  0  0  0  0  0  0  0  0
  1  2  1  0
  2  3  1  0
  2  4  1  0
  4  5  1  0
  5  6  2  0
  5  7  1  0
  7  8  1  0
  8  9  1  0
  9 10  2  0
  9 11  1  0
 11 12  1  0
 12 13  2  0
 13 14  1  0
 14 15  2  0
 15 16  1  0
 16 17  2  0
 17  8  1  0
 17 12  1  0
  1 18  1  0
  1 19  1  0
  1 20  1  0
  2 21  1  0
  3 22  1  0
  3 23  1  0
  3 24  1  0
  4 25  1  0
  7 26  1  0
  7 27  1  0
 13 28  1  0
 14 29  1  0
 15 30  1  0
 16 31  1  0
M  END
>  <UniqueID>  (15) 
15

>  <SMILES>  (15) 
CC(C)NC(=O)Cn1c(=O)sc2ccccc21

>  <Energy>  (15) 
59.457611353423545

>  <Genealogy>  (15) 
CC(C)NC(=O)Cn1c(=O)sc2ccccc21 (3D coordinates assigned)
CC(C)NC(=O)Cn1c(=O)sc2ccccc21 (optimized conformer: 59.457611353423545 kcal/mol)

>  <smiles>  (15) 
CC(C)NC(=O)Cn1c(=O)sc2ccccc21

>  <score_type>  (15) 
oracle

>  <origin>  (15) 
adg

>  <m_score__min__energy>  (15) 
-7.8200000000000003

>  <m_primary>  (15) 
energy

$$$$
15:0
     RDKit          3D

 43 45  0  0  0  0  0  0  0  0999 V2000
   -2.8680   18.7500  -25.9430 C   0  0  0  0  0  0  0  0  0  0  0  0
   -3.1070   19.6980  -27.1080 C   0  0  0  0  0  0  0  0  0  0  0  0
   -1.8890   20.3600  -27.4380 O   0  0  0  0  0  0  0  0  0  0  0  0
   -1.4680   20.6480  -28.7470 C   0  0  0  0  0  0  0  0  0  0  0  0
   -0.4480   19.9140  -29.3830 C   0  0  0  0  0  0  0  0  0  0  0  0
   -0.0610   20.2270  -30.6890 C   0  0  0  0  0  0  0  0  0  0  0  0
   -0.6860   21.2720  -31.3700 C   0  0  0  0  0  0  0  0  0  0  0  0
   -1.6980   22.0080  -30.7500 C   0  0  0  0  0  0  0  0  0  0  0  0
   -2.0950   21.7020  -29.4320 C   0  0  0  0  0  0  0  0  0  0  0  0
   -3.1090   22.4160  -28.7680 O   0  0  0  0  0  0  0  0  0  0  0  0
   -2.9720   23.7320  -28.2290 C   0  0  0  0  0  0  0  0  0  0  0  0
   -2.6330   24.7130  -29.3180 C   0  0  0  0  0  0  0  0  0  0  0  0
   -1.5270   25.3150  -29.2730 O   0  0  0  0  0  0  0  0  0  0  0  0
   -3.5020   24.9450  -30.4340 N   0  0  0  0  0  0  0  0  0  0  0  0
   -4.7300   24.2590  -30.7130 C   0  0  0  0  0  0  0  0  0  0  0  0
   -5.9410   24.8130  -30.2460 C   0  0  0  0  0  0  0  0  0  0  0  0
   -7.1650   24.1640  -30.4760 C   0  0  0  0  0  0  0  0  0  0  0  0
   -7.1620   22.9480  -31.1610 C   0  0  0  0  0  0  0  0  0  0  0  0
   -8.2680   22.2150  -31.4490 N   0  0  0  0  0  0  0  0  0  0  0  0
   -7.9500   21.0760  -32.1080 C   0  0  0  0  0  0  0  0  0  0  0  0
   -9.1620   19.8740  -32.6480 S   0  0  0  0  0  0  0  0  0  0  0  0
   -8.4400   18.5320  -31.6550 C   0  0  0  0  0  0  0  0  0  0  0  0
   -6.2840   20.9320  -32.3650 S   0  0  0  0  0  0  0  0  0  0  0  0
   -5.9680   22.3940  -31.5960 C   0  0  0  0  0  0  0  0  0  0  0  0
   -4.7420   23.0150  -31.3810 C   0  0  0  0  0  0  0  0  0  0  0  0
   -3.0046   19.2918  -24.9955 H   0  0  0  0  0  0  0  0  0  0  0  0
   -3.5842   17.9167  -25.9955 H   0  0  0  0  0  0  0  0  0  0  0  0
   -1.8424   18.3558  -25.9955 H   0  0  0  0  0  0  0  0  0  0  0  0
   -3.4618   19.1271  -27.9787 H   0  0  0  0  0  0  0  0  0  0  0  0
   -3.8650   20.4433  -26.8253 H   0  0  0  0  0  0  0  0  0  0  0  0
    0.0469   19.0896  -28.8487 H   0  0  0  0  0  0  0  0  0  0  0  0
    0.7362   19.6495  -31.1799 H   0  0  0  0  0  0  0  0  0  0  0  0
   -0.3808   21.5169  -32.3981 H   0  0  0  0  0  0  0  0  0  0  0  0
   -2.1877   22.8302  -31.2923 H   0  0  0  0  0  0  0  0  0  0  0  0
   -3.9189   24.0298  -27.7551 H   0  0  0  0  0  0  0  0  0  0  0  0
   -2.1610   23.7302  -27.4858 H   0  0  0  0  0  0  0  0  0  0  0  0
   -5.9260   25.7649  -29.6950 H   0  0  0  0  0  0  0  0  0  0  0  0
   -8.1085   24.6058  -30.1229 H   0  0  0  0  0  0  0  0  0  0  0  0
   -9.2420   22.4900  -31.1930 H   0  0  0  0  0  0  0  0  0  0  0  0
   -8.5627   18.7601  -30.5859 H   0  0  0  0  0  0  0  0  0  0  0  0
   -8.9513   17.5866  -31.8893 H   0  0  0  0  0  0  0  0  0  0  0  0
   -7.3694   18.4377  -31.8893 H   0  0  0  0  0  0  0  0  0  0  0  0
   -3.8060   22.5490  -31.7226 H   0  0  0  0  0  0  0  0  0  0  0  0
  1  2  1  0
  2  3  1  0
  3  4  1  0
  4  5  2  0
  5  6  1  0
  6  7  2  0
  7  8  1  0
  8  9  2  0
  9 10  1  0
 10 11  1  0
 11 12  1  0
 12 13  2  0
 12 14  1  0
 14 15  1  0
 15 16  2  0
 16 17  1  0
 17 18  2  0
 18 19  1  0
 19 20  2  0
 20 21  1  0
 21 22  1  0
 20 23  1  0
 23 24  1  0
 24 25  2  0
  9  4  1  0
 25 15  1  0
 24 18  1  0
  1 26  1  0
  1 27  1  0
  1 28  1  0
  2 29  1  0
  2 30  1  0
  5 31  1  0
  6 32  1  0
  7 33  1  0
  8 34  1  0
 11 35  1  0
 11 36  1  0
 16 37  1  0
 17 38  1  0
 19 39  1  0
 22 40  1  0
 22 41  1  0
 22 42  1  0
 25 43  1  0
M  CHG  2  14  -1  19   1
M  END
>  <UniqueID>  (16) 
16

>  <SMILES>  (16) 
CCOc1ccccc1OCC(=O)[N-]c1ccc2[nH+]c(SC)sc2c1

>  <Energy>  (16) 
75.76648028103857

>  <Genealogy>  (16) 
CCOc1ccccc1OCC(=O)[N-]c1ccc2[nH+]c(SC)sc2c1 (protonated)
CCOc1ccccc1OCC(=O)[N-]c1ccc2[nH+]c(SC)sc2c1 (3D coordinates assigned)
CCOc1ccccc1OCC(=O)[N-]c1ccc2[nH+]c(SC)sc2c1 (optimized conformer: 75.76648028103857 kcal/mol)

>  <smiles>  (16) 
CCOc1ccccc1OCC(=O)Nc1ccc2nc(SC)sc2c1

>  <score_type>  (16) 
oracle

>  <origin>  (16) 
adg

>  <m_score__min__energy>  (16) 
-8.9700000000000006

>  <m_primary>  (16) 
energy

$$$$
16:0
     RDKit          3D

 52 55  0  0  0  0  0  0  0  0999 V2000
    0.6970   19.6160  -35.6580 C   0  0  0  0  0  0  0  0  0  0  0  0
    0.2780   21.0250  -36.0840 C   0  0  0  0  0  0  0  0  0  0  0  0
   -0.0110   21.8940  -34.9310 N   0  0  0  0  0  0  0  0  0  0  0  0
    0.1090   21.2010  -33.6390 C   0  0  0  0  0  0  0  0  0  0  0  0
   -1.2510   21.0860  -32.9280 C   0  0  0  0  0  0  0  0  0  0  0  0
   -2.4090   21.1820  -33.8440 N   0  0  0  0  0  0  0  0  0  0  0  0
   -3.4880   20.2700  -33.4840 C   0  0  0  0  0  0  0  0  0  0  0  0
   -4.6710   20.7490  -32.8580 C   0  0  0  0  0  0  0  0  0  0  0  0
   -5.7230   19.8500  -32.5890 C   0  0  0  0  0  0  0  0  0  0  0  0
   -5.5000   18.4920  -32.6330 N   0  0  0  0  0  0  0  0  0  0  0  0
   -6.3610   17.5730  -31.8600 C   0  0  0  0  0  0  0  0  0  0  0  0
   -4.4130   17.9990  -33.3200 C   0  0  0  0  0  0  0  0  0  0  0  0
   -4.2910   16.6140  -33.5970 C   0  0  0  0  0  0  0  0  0  0  0  0
   -3.2050   16.1150  -34.3120 C   0  0  0  0  0  0  0  0  0  0  0  0
   -2.2230   16.9770  -34.7760 C   0  0  0  0  0  0  0  0  0  0  0  0
   -2.3140   18.3440  -34.5240 C   0  0  0  0  0  0  0  0  0  0  0  0
   -3.3980   18.8820  -33.7870 C   0  0  0  0  0  0  0  0  0  0  0  0
   -7.0580   20.4380  -32.2420 C   0  0  0  0  0  0  0  0  0  0  0  0
   -8.2540   19.8200  -32.6530 C   0  0  0  0  0  0  0  0  0  0  0  0
   -9.4790   20.4040  -32.3380 C   0  0  0  0  0  0  0  0  0  0  0  0
   -9.5120   21.6130  -31.6490 C   0  0  0  0  0  0  0  0  0  0  0  0
   -8.3130   22.2430  -31.3170 C   0  0  0  0  0  0  0  0  0  0  0  0
   -7.1150   21.6750  -31.6510 N   0  0  0  0  0  0  0  0  0  0  0  0
   -5.8670   22.3860  -31.3590 C   0  0  0  0  0  0  0  0  0  0  0  0
   -4.8820   22.2190  -32.5220 C   0  0  0  0  0  0  0  0  0  0  0  0
    0.7151   19.5551  -34.5598 H   0  0  0  0  0  0  0  0  0  0  0  0
   -0.0224   18.8841  -36.0540 H   0  0  0  0  0  0  0  0  0  0  0  0
    1.6994   19.3961  -36.0540 H   0  0  0  0  0  0  0  0  0  0  0  0
    1.0930   21.4744  -36.6703 H   0  0  0  0  0  0  0  0  0  0  0  0
   -0.6432   20.9371  -36.6787 H   0  0  0  0  0  0  0  0  0  0  0  0
   -0.9750   22.2890  -35.0190 H   0  0  0  0  0  0  0  0  0  0  0  0
    0.5078   20.1905  -33.8119 H   0  0  0  0  0  0  0  0  0  0  0  0
    0.7840   21.7858  -32.9969 H   0  0  0  0  0  0  0  0  0  0  0  0
   -1.2937   20.1142  -32.4144 H   0  0  0  0  0  0  0  0  0  0  0  0
   -1.3219   21.9325  -32.2291 H   0  0  0  0  0  0  0  0  0  0  0  0
   -2.0940   20.9680  -34.8160 H   0  0  0  0  0  0  0  0  0  0  0  0
   -2.7190   22.1750  -33.9130 H   0  0  0  0  0  0  0  0  0  0  0  0
   -6.2037   17.7409  -30.7843 H   0  0  0  0  0  0  0  0  0  0  0  0
   -7.4156   17.7611  -32.1101 H   0  0  0  0  0  0  0  0  0  0  0  0
   -6.1047   16.5329  -32.1101 H   0  0  0  0  0  0  0  0  0  0  0  0
   -5.0678   15.9213  -33.2409 H   0  0  0  0  0  0  0  0  0  0  0  0
   -3.1262   15.0356  -34.5089 H   0  0  0  0  0  0  0  0  0  0  0  0
   -1.3693   16.5801  -35.3449 H   0  0  0  0  0  0  0  0  0  0  0  0
   -1.5311   19.0171  -34.9035 H   0  0  0  0  0  0  0  0  0  0  0  0
   -8.2215   18.8787  -33.2212 H   0  0  0  0  0  0  0  0  0  0  0  0
  -10.4172   19.9112  -32.6329 H   0  0  0  0  0  0  0  0  0  0  0  0
  -10.4741   22.0669  -31.3692 H   0  0  0  0  0  0  0  0  0  0  0  0
   -8.3312   23.2042  -30.7824 H   0  0  0  0  0  0  0  0  0  0  0  0
   -6.0823   23.4551  -31.2150 H   0  0  0  0  0  0  0  0  0  0  0  0
   -5.4196   21.9683  -30.4450 H   0  0  0  0  0  0  0  0  0  0  0  0
   -5.2811   22.7357  -33.4073 H   0  0  0  0  0  0  0  0  0  0  0  0
   -3.9150   22.6505  -32.2242 H   0  0  0  0  0  0  0  0  0  0  0  0
  1  2  1  0
  2  3  1  0
  3  4  1  0
  4  5  1  0
  5  6  1  0
  6  7  1  0
  7  8  2  0
  8  9  1  0
  9 10  2  0
 10 11  1  0
 10 12  1  0
 12 13  2  0
 13 14  1  0
 14 15  2  0
 15 16  1  0
 16 17  2  0
  9 18  1  0
 18 19  2  0
 19 20  1  0
 20 21  2  0
 21 22  1  0
 22 23  2  0
 23 24  1  0
 24 25  1  0
 17  7  1  0
 23 18  1  0
 25  8  1  0
 17 12  1  0
  1 26  1  0
  1 27  1  0
  1 28  1  0
  2 29  1  0
  2 30  1  0
  3 31  1  0
  4 32  1  0
  4 33  1  0
  5 34  1  0
  5 35  1  0
  6 36  1  0
  6 37  1  0
 11 38  1  0
 11 39  1  0
 11 40  1  0
 13 41  1  0
 14 42  1  0
 15 43  1  0
 16 44  1  0
 19 45  1  0
 20 46  1  0
 21 47  1  0
 22 48  1  0
 24 49  1  0
 24 50  1  0
 25 51  1  0
 25 52  1  0
M  CHG  3   6   1  10   1  23   1
M  END
>  <UniqueID>  (17) 
17

>  <SMILES>  (17) 
CCNCC[NH2+]c1c2c([n+](C)c3ccccc13)-c1cccc[n+]1CC2

>  <Energy>  (17) 
85.0949803193535

>  <Genealogy>  (17) 
CCNCC[NH2+]c1c2c([n+](C)c3ccccc13)-c1cccc[n+]1CC2 (protonated)
CCNCC[NH2+]c1c2c([n+](C)c3ccccc13)-c1cccc[n+]1CC2 (3D coordinates assigned)
CCNCC[NH2+]c1c2c([n+](C)c3ccccc13)-c1cccc[n+]1CC2 (nonaromatic ring conformer: 85.0949803193535 kcal/mol)

>  <smiles>  (17) 
CCNCCNc1c2c([n+](C)c3ccccc13)-c1cccc[n+]1CC2

>  <score_type>  (17) 
oracle

>  <origin>  (17) 
adg

>  <m_score__min__energy>  (17) 
-7.4800000000000004

>  <m_primary>  (17) 
energy

$$$$
17:0
     RDKit          3D

 56 58  0  0  0  0  0  0  0  0999 V2000
   -0.6390   20.8090  -31.4230 C   0  0  0  0  0  0  0  0  0  0  0  0
   -0.6600   21.1070  -32.9250 C   0  0  0  0  0  0  0  0  0  0  0  0
   -2.0040   20.9340  -33.5130 N   0  0  0  0  0  0  0  0  0  0  0  0
   -3.0950   21.2630  -32.5750 C   0  0  0  0  0  0  0  0  0  0  0  0
   -4.2690   21.9720  -33.2750 C   0  0  0  0  0  0  0  0  0  0  0  0
   -5.5910   21.5770  -32.6380 C   0  0  0  0  0  0  0  0  0  0  0  0
   -6.3230   22.5580  -31.9290 C   0  0  0  0  0  0  0  0  0  0  0  0
   -5.8120   23.8680  -31.8590 O   0  0  0  0  0  0  0  0  0  0  0  0
   -6.2370   24.8910  -30.9580 C   0  0  0  0  0  0  0  0  0  0  0  0
   -5.1770   25.1370  -29.8800 C   0  0  0  0  0  0  0  0  0  0  0  0
   -3.8680   24.6370  -30.3070 N   0  0  0  0  0  0  0  0  0  0  0  0
   -3.0520   23.7640  -29.4970 C   0  0  0  0  0  0  0  0  0  0  0  0
   -3.3900   22.4060  -29.3230 C   0  0  0  0  0  0  0  0  0  0  0  0
   -2.5950   21.5710  -28.5370 C   0  0  0  0  0  0  0  0  0  0  0  0
   -1.4550   22.0720  -27.9140 C   0  0  0  0  0  0  0  0  0  0  0  0
   -1.1030   23.4130  -28.0730 C   0  0  0  0  0  0  0  0  0  0  0  0
   -1.8940   24.2710  -28.8640 C   0  0  0  0  0  0  0  0  0  0  0  0
   -1.5590   25.6240  -29.0410 O   0  0  0  0  0  0  0  0  0  0  0  0
   -0.8810   26.4240  -28.0770 C   0  0  0  0  0  0  0  0  0  0  0  0
   -7.5430   22.2130  -31.3230 C   0  0  0  0  0  0  0  0  0  0  0  0
   -8.0480   20.9210  -31.4210 C   0  0  0  0  0  0  0  0  0  0  0  0
   -7.3590   19.9410  -32.1450 C   0  0  0  0  0  0  0  0  0  0  0  0
   -7.8930   18.6430  -32.2560 C   0  0  0  0  0  0  0  0  0  0  0  0
   -9.0670   18.3160  -31.6560 F   0  0  0  0  0  0  0  0  0  0  0  0
   -7.2210   17.6690  -32.9950 C   0  0  0  0  0  0  0  0  0  0  0  0
   -6.0210   17.9760  -33.6300 C   0  0  0  0  0  0  0  0  0  0  0  0
   -5.4760   19.2560  -33.5270 C   0  0  0  0  0  0  0  0  0  0  0  0
   -6.1260   20.2620  -32.7750 C   0  0  0  0  0  0  0  0  0  0  0  0
   -0.7055   21.7523  -30.8611 H   0  0  0  0  0  0  0  0  0  0  0  0
   -1.4941   20.1672  -31.1645 H   0  0  0  0  0  0  0  0  0  0  0  0
    0.2977   20.2935  -31.1645 H   0  0  0  0  0  0  0  0  0  0  0  0
   -0.3356   22.1460  -33.0839 H   0  0  0  0  0  0  0  0  0  0  0  0
    0.0171   20.3943  -33.4186 H   0  0  0  0  0  0  0  0  0  0  0  0
   -2.1200   19.9440  -33.8340 H   0  0  0  0  0  0  0  0  0  0  0  0
   -2.0810   21.5370  -34.3660 H   0  0  0  0  0  0  0  0  0  0  0  0
   -3.4639   20.3320  -32.1199 H   0  0  0  0  0  0  0  0  0  0  0  0
   -2.6918   21.9477  -31.8143 H   0  0  0  0  0  0  0  0  0  0  0  0
   -4.1372   23.0606  -33.1881 H   0  0  0  0  0  0  0  0  0  0  0  0
   -4.2828   21.6729  -34.3335 H   0  0  0  0  0  0  0  0  0  0  0  0
   -6.4028   25.8216  -31.5205 H   0  0  0  0  0  0  0  0  0  0  0  0
   -7.1690   24.5686  -30.4708 H   0  0  0  0  0  0  0  0  0  0  0  0
   -5.1039   26.2175  -29.6873 H   0  0  0  0  0  0  0  0  0  0  0  0
   -5.4755   24.6019  -28.9665 H   0  0  0  0  0  0  0  0  0  0  0  0
   -3.5130   24.9260  -31.2470 H   0  0  0  0  0  0  0  0  0  0  0  0
   -4.2887   22.0012  -29.8114 H   0  0  0  0  0  0  0  0  0  0  0  0
   -2.8698   20.5136  -28.4091 H   0  0  0  0  0  0  0  0  0  0  0  0
   -0.8310   21.4099  -27.2957 H   0  0  0  0  0  0  0  0  0  0  0  0
   -0.2018   23.8034  -27.5776 H   0  0  0  0  0  0  0  0  0  0  0  0
   -1.1603   26.0945  -27.0653 H   0  0  0  0  0  0  0  0  0  0  0  0
    0.2056   26.3170  -28.2106 H   0  0  0  0  0  0  0  0  0  0  0  0
   -1.1648   27.4783  -28.2106 H   0  0  0  0  0  0  0  0  0  0  0  0
   -8.1059   22.9749  -30.7638 H   0  0  0  0  0  0  0  0  0  0  0  0
   -8.9967   20.6671  -30.9255 H   0  0  0  0  0  0  0  0  0  0  0  0
   -7.6407   16.6555  -33.0761 H   0  0  0  0  0  0  0  0  0  0  0  0
   -5.4996   17.2050  -34.2163 H   0  0  0  0  0  0  0  0  0  0  0  0
   -4.5289   19.4857  -34.0371 H   0  0  0  0  0  0  0  0  0  0  0  0
  1  2  1  0
  2  3  1  0
  3  4  1  0
  4  5  1  0
  5  6  1  0
  6  7  2  0
  7  8  1  0
  8  9  1  0
  9 10  1  0
 10 11  1  0
 11 12  1  0
 12 13  2  0
 13 14  1  0
 14 15  2  0
 15 16  1  0
 16 17  2  0
 17 18  1  0
 18 19  1  0
  7 20  1  0
 20 21  2  0
 21 22  1  0
 22 23  2  0
 23 24  1  0
 23 25  1  0
 25 26  2  0
 26 27  1  0
 27 28  2  0
 28  6  1  0
 17 12  1  0
 28 22  1  0
  1 29  1  0
  1 30  1  0
  1 31  1  0
  2 32  1  0
  2 33  1  0
  3 34  1  0
  3 35  1  0
  4 36  1  0
  4 37  1  0
  5 38  1  0
  5 39  1  0
  9 40  1  0
  9 41  1  0
 10 42  1  0
 10 43  1  0
 11 44  1  0
 13 45  1  0
 14 46  1  0
 15 47  1  0
 16 48  1  0
 19 49  1  0
 19 50  1  0
 19 51  1  0
 20 52  1  0
 21 53  1  0
 25 54  1  0
 26 55  1  0
 27 56  1  0
M  CHG  1   3   1
M  END
>  <UniqueID>  (18) 
18

>  <SMILES>  (18) 
CC[NH2+]CCc1c(OCCNc2ccccc2OC)ccc2c(F)cccc12

>  <Energy>  (18) 
61.102053112879005

>  <Genealogy>  (18) 
CC[NH2+]CCc1c(OCCNc2ccccc2OC)ccc2c(F)cccc12 (protonated)
CC[NH2+]CCc1c(OCCNc2ccccc2OC)ccc2c(F)cccc12 (3D coordinates assigned)
CC[NH2+]CCc1c(OCCNc2ccccc2OC)ccc2c(F)cccc12 (optimized conformer: 61.102053112879005 kcal/mol)

>  <smiles>  (18) 
CCNCCc1c(OCCNc2ccccc2OC)ccc2c(F)cccc12

>  <score_type>  (18) 
oracle

>  <origin>  (18) 
adg

>  <m_score__min__energy>  (18) 
-9.1400000000000006

>  <m_primary>  (18) 
energy

$$$$
18:0
     RDKit          3D

 69 72  0  0  0  0  0  0  0  0999 V2000
    3.9090   26.3780  -36.1730 C   0  0  0  0  0  0  0  0  0  0  0  0
    2.8180   26.0450  -37.1870 C   0  0  0  0  0  0  0  0  0  0  0  0
    1.5280   25.8130  -36.5120 N   0  0  0  0  0  0  0  0  0  0  0  0
    1.4930   24.7630  -35.4680 C   0  0  0  0  0  0  0  0  0  0  0  0
    1.1960   23.3850  -36.0740 C   0  0  0  0  0  0  0  0  0  0  0  0
    0.6090   22.5580  -35.0910 O   0  0  0  0  0  0  0  0  0  0  0  0
    0.2680   21.3010  -35.6410 C   0  0  0  0  0  0  0  0  0  0  0  0
   -0.5340   20.5120  -34.6090 C   0  0  0  0  0  0  0  0  0  0  0  0
   -1.6880   21.2850  -34.1340 N   0  0  0  0  0  0  0  0  0  0  0  0
   -1.9000   21.0930  -32.6910 C   0  0  0  0  0  0  0  0  0  0  0  0
   -3.2760   21.6420  -32.2730 C   0  0  0  0  0  0  0  0  0  0  0  0
   -4.2660   21.6540  -33.3690 N   0  0  0  0  0  0  0  0  0  0  0  0
   -5.4160   20.7910  -33.1050 C   0  0  0  0  0  0  0  0  0  0  0  0
   -6.6090   21.3400  -32.5520 C   0  0  0  0  0  0  0  0  0  0  0  0
   -6.7500   22.7320  -32.3160 C   0  0  0  0  0  0  0  0  0  0  0  0
   -7.9300   23.2620  -31.8080 C   0  0  0  0  0  0  0  0  0  0  0  0
   -9.0080   22.4360  -31.5460 C   0  0  0  0  0  0  0  0  0  0  0  0
   -8.9040   21.0650  -31.7610 C   0  0  0  0  0  0  0  0  0  0  0  0
   -7.6990   20.4820  -32.2300 C   0  0  0  0  0  0  0  0  0  0  0  0
   -7.5830   19.1190  -32.3950 N   0  0  0  0  0  0  0  0  0  0  0  0
   -8.5830   18.2100  -31.7820 C   0  0  0  0  0  0  0  0  0  0  0  0
   -6.5240   18.5930  -33.1050 C   0  0  0  0  0  0  0  0  0  0  0  0
   -6.5400   17.2420  -33.5400 C   0  0  0  0  0  0  0  0  0  0  0  0
   -5.4390   16.6690  -34.1660 C   0  0  0  0  0  0  0  0  0  0  0  0
   -4.2990   17.4270  -34.3860 C   0  0  0  0  0  0  0  0  0  0  0  0
   -4.2680   18.7700  -34.0220 C   0  0  0  0  0  0  0  0  0  0  0  0
   -5.3900   19.3990  -33.4180 C   0  0  0  0  0  0  0  0  0  0  0  0
    0.3090   26.5020  -36.9370 C   0  0  0  0  0  0  0  0  0  0  0  0
   -0.1250   26.4680  -38.2850 C   0  0  0  0  0  0  0  0  0  0  0  0
   -1.2690   27.1620  -38.6950 C   0  0  0  0  0  0  0  0  0  0  0  0
   -2.0140   27.8910  -37.7710 C   0  0  0  0  0  0  0  0  0  0  0  0
   -1.6190   27.9300  -36.4360 C   0  0  0  0  0  0  0  0  0  0  0  0
   -0.4750   27.2430  -36.0180 C   0  0  0  0  0  0  0  0  0  0  0  0
    3.5121   26.2569  -35.1543 H   0  0  0  0  0  0  0  0  0  0  0  0
    4.7628   25.6996  -36.3169 H   0  0  0  0  0  0  0  0  0  0  0  0
    4.2384   27.4176  -36.3169 H   0  0  0  0  0  0  0  0  0  0  0  0
    2.7111   26.8841  -37.8902 H   0  0  0  0  0  0  0  0  0  0  0  0
    3.1042   25.1288  -37.7242 H   0  0  0  0  0  0  0  0  0  0  0  0
    2.4686   24.7289  -34.9610 H   0  0  0  0  0  0  0  0  0  0  0  0
    0.6925   25.0088  -34.7547 H   0  0  0  0  0  0  0  0  0  0  0  0
    0.5028   23.4979  -36.9206 H   0  0  0  0  0  0  0  0  0  0  0  0
    2.1326   22.9288  -36.4271 H   0  0  0  0  0  0  0  0  0  0  0  0
   -0.3381   21.4465  -36.5473 H   0  0  0  0  0  0  0  0  0  0  0  0
    1.1820   20.7488  -35.9048 H   0  0  0  0  0  0  0  0  0  0  0  0
   -0.8912   19.5786  -35.0686 H   0  0  0  0  0  0  0  0  0  0  0  0
    0.1186   20.2948  -33.7506 H   0  0  0  0  0  0  0  0  0  0  0  0
   -1.4910   22.2970  -34.2980 H   0  0  0  0  0  0  0  0  0  0  0  0
   -1.8520   20.0192  -32.4573 H   0  0  0  0  0  0  0  0  0  0  0  0
   -1.1172   21.6351  -32.1401 H   0  0  0  0  0  0  0  0  0  0  0  0
   -3.6673   21.0155  -31.4579 H   0  0  0  0  0  0  0  0  0  0  0  0
   -3.1257   22.6866  -31.9628 H   0  0  0  0  0  0  0  0  0  0  0  0
   -4.5960   22.6340  -33.5150 H   0  0  0  0  0  0  0  0  0  0  0  0
   -3.7890   21.4640  -34.2710 H   0  0  0  0  0  0  0  0  0  0  0  0
   -5.9089   23.4048  -32.5395 H   0  0  0  0  0  0  0  0  0  0  0  0
   -8.0069   24.3420  -31.6136 H   0  0  0  0  0  0  0  0  0  0  0  0
   -9.9483   22.8631  -31.1674 H   0  0  0  0  0  0  0  0  0  0  0  0
   -9.7734   20.4208  -31.5633 H   0  0  0  0  0  0  0  0  0  0  0  0
   -8.5131   18.2736  -30.6861 H   0  0  0  0  0  0  0  0  0  0  0  0
   -9.5927   18.5059  -32.1028 H   0  0  0  0  0  0  0  0  0  0  0  0
   -8.3845   17.1767  -32.1028 H   0  0  0  0  0  0  0  0  0  0  0  0
   -7.4432   16.6353  -33.3783 H   0  0  0  0  0  0  0  0  0  0  0  0
   -5.4721   15.6171  -34.4860 H   0  0  0  0  0  0  0  0  0  0  0  0
   -3.4153   16.9649  -34.8502 H   0  0  0  0  0  0  0  0  0  0  0  0
   -3.3559   19.3568  -34.2057 H   0  0  0  0  0  0  0  0  0  0  0  0
    0.4472   25.8859  -39.0224 H   0  0  0  0  0  0  0  0  0  0  0  0
   -1.5806   27.1317  -39.7495 H   0  0  0  0  0  0  0  0  0  0  0  0
   -2.9132   28.4352  -38.0953 H   0  0  0  0  0  0  0  0  0  0  0  0
   -2.2098   28.5040  -35.7069 H   0  0  0  0  0  0  0  0  0  0  0  0
   -0.1790   27.2783  -34.9592 H   0  0  0  0  0  0  0  0  0  0  0  0
  1  2  1  0
  2  3  1  0
  3  4  1  0
  4  5  1  0
  5  6  1  0
  6  7  1  0
  7  8  1  0
  8  9  1  0
  9 10  1  0
 10 11  1  0
 11 12  1  0
 12 13  1  0
 13 14  1  0
 14 15  2  0
 15 16  1  0
 16 17  2  0
 17 18  1  0
 18 19  2  0
 19 20  1  0
 20 21  1  0
 20 22  2  0
 22 23  1  0
 23 24  2  0
 24 25  1  0
 25 26  2  0
 26 27  1  0
  3 28  1  0
 28 29  2  0
 29 30  1  0
 30 31  2  0
 31 32  1  0
 32 33  2  0
 27 13  2  0
 33 28  1  0
 19 14  1  0
 27 22  1  0
  1 34  1  0
  1 35  1  0
  1 36  1  0
  2 37  1  0
  2 38  1  0
  4 39  1  0
  4 40  1  0
  5 41  1  0
  5 42  1  0
  7 43  1  0
  7 44  1  0
  8 45  1  0
  8 46  1  0
  9 47  1  0
 10 48  1  0
 10 49  1  0
 11 50  1  0
 11 51  1  0
 12 52  1  0
 12 53  1  0
 15 54  1  0
 16 55  1  0
 17 56  1  0
 18 57  1  0
 21 58  1  0
 21 59  1  0
 21 60  1  0
 23 61  1  0
 24 62  1  0
 25 63  1  0
 26 64  1  0
 29 65  1  0
 30 66  1  0
 31 67  1  0
 32 68  1  0
 33 69  1  0
M  CHG  2  12   1  20   1
M  END
>  <UniqueID>  (19) 
19

>  <SMILES>  (19) 
CCN(CCOCCNCC[NH2+]c1c2ccccc2[n+](C)c2ccccc12)c1ccccc1

>  <Energy>  (19) 
99.83326859378829

>  <Genealogy>  (19) 
CCN(CCOCCNCC[NH2+]c1c2ccccc2[n+](C)c2ccccc12)c1ccccc1 (protonated)
CCN(CCOCCNCC[NH2+]c1c2ccccc2[n+](C)c2ccccc12)c1ccccc1 (3D coordinates assigned)
CCN(CCOCCNCC[NH2+]c1c2ccccc2[n+](C)c2ccccc12)c1ccccc1 (optimized conformer: 99.83326859378829 kcal/mol)

>  <smiles>  (19) 
CCN(CCOCCNCCNc1c2ccccc2[n+](C)c2ccccc12)c1ccccc1

>  <score_type>  (19) 
oracle

>  <origin>  (19) 
adg

>  <m_score__min__energy>  (19) 
-9.6799999999999997

>  <m_primary>  (19) 
energy

$$$$
19:0
     RDKit          3D

 44 46  0  0  0  0  0  0  0  0999 V2000
   -4.3620   24.1450  -28.2970 C   0  0  0  0  0  0  0  0  0  0  0  0
   -3.3090   24.5150  -29.3460 C   0  0  0  0  0  0  0  0  0  0  0  0
   -3.8790   25.2810  -30.4670 N   0  0  0  0  0  0  0  0  0  0  0  0
   -5.3470   25.2150  -30.4850 C   0  0  0  0  0  0  0  0  0  0  0  0
   -5.8290   24.1010  -31.4210 C   0  0  0  0  0  0  0  0  0  0  0  0
   -4.9060   22.9640  -31.4000 N   0  0  0  0  0  0  0  0  0  0  0  0
   -5.1900   21.7220  -32.0700 C   0  0  0  0  0  0  0  0  0  0  0  0
   -6.4910   21.1870  -32.0710 C   0  0  0  0  0  0  0  0  0  0  0  0
   -7.5350   21.8100  -31.3540 C   0  0  0  0  0  0  0  0  0  0  0  0
   -8.8020   21.2370  -31.2990 C   0  0  0  0  0  0  0  0  0  0  0  0
   -9.0500   20.0310  -31.9440 C   0  0  0  0  0  0  0  0  0  0  0  0
   -8.0390   19.4010  -32.6690 C   0  0  0  0  0  0  0  0  0  0  0  0
   -6.7470   19.9780  -32.7760 C   0  0  0  0  0  0  0  0  0  0  0  0
   -5.7470   19.3850  -33.5270 N   0  0  0  0  0  0  0  0  0  0  0  0
   -6.1020   18.3700  -34.5410 C   0  0  0  0  0  0  0  0  0  0  0  0
   -4.4370   19.8110  -33.3860 C   0  0  0  0  0  0  0  0  0  0  0  0
   -3.3120   19.0950  -33.8850 C   0  0  0  0  0  0  0  0  0  0  0  0
   -3.4210   17.9310  -34.3540 O   0  0  0  0  0  0  0  0  0  0  0  0
   -2.0720   19.6420  -33.8180 N   0  0  0  0  0  0  0  0  0  0  0  0
   -1.8600   20.8480  -33.2400 C   0  0  0  0  0  0  0  0  0  0  0  0
   -0.4920   21.4430  -33.2270 C   0  0  0  0  0  0  0  0  0  0  0  0
   -2.8970   21.5200  -32.6900 N   0  0  0  0  0  0  0  0  0  0  0  0
   -4.1620   21.0230  -32.7090 C   0  0  0  0  0  0  0  0  0  0  0  0
   -3.9440   24.2919  -27.2902 H   0  0  0  0  0  0  0  0  0  0  0  0
   -5.2469   24.7861  -28.4237 H   0  0  0  0  0  0  0  0  0  0  0  0
   -4.6514   23.0913  -28.4237 H   0  0  0  0  0  0  0  0  0  0  0  0
   -2.5283   25.1219  -28.8642 H   0  0  0  0  0  0  0  0  0  0  0  0
   -2.8980   23.5795  -29.7534 H   0  0  0  0  0  0  0  0  0  0  0  0
   -3.4920   24.9180  -31.3670 H   0  0  0  0  0  0  0  0  0  0  0  0
   -5.7117   25.0139  -29.4669 H   0  0  0  0  0  0  0  0  0  0  0  0
   -5.7393   26.1762  -30.8487 H   0  0  0  0  0  0  0  0  0  0  0  0
   -6.8240   23.7630  -31.0959 H   0  0  0  0  0  0  0  0  0  0  0  0
   -5.8736   24.4982  -32.4458 H   0  0  0  0  0  0  0  0  0  0  0  0
   -3.9270   23.1440  -31.0800 H   0  0  0  0  0  0  0  0  0  0  0  0
   -7.3449   22.7597  -30.8325 H   0  0  0  0  0  0  0  0  0  0  0  0
   -9.6083   21.7392  -30.7443 H   0  0  0  0  0  0  0  0  0  0  0  0
  -10.0476   19.5717  -31.8823 H   0  0  0  0  0  0  0  0  0  0  0  0
   -8.2463   18.4417  -33.1657 H   0  0  0  0  0  0  0  0  0  0  0  0
   -6.4250   17.4466  -34.0380 H   0  0  0  0  0  0  0  0  0  0  0  0
   -6.9204   18.7505  -35.1698 H   0  0  0  0  0  0  0  0  0  0  0  0
   -5.2248   18.1575  -35.1698 H   0  0  0  0  0  0  0  0  0  0  0  0
   -0.1641   21.5856  -32.1868 H   0  0  0  0  0  0  0  0  0  0  0  0
    0.2066   20.7674  -33.7423 H   0  0  0  0  0  0  0  0  0  0  0  0
   -0.5099   22.4147  -33.7423 H   0  0  0  0  0  0  0  0  0  0  0  0
  1  2  1  0
  2  3  1  0
  3  4  1  0
  4  5  1  0
  5  6  1  0
  6  7  1  0
  7  8  2  0
  8  9  1  0
  9 10  2  0
 10 11  1  0
 11 12  2  0
 12 13  1  0
 13 14  2  0
 14 15  1  0
 14 16  1  0
 16 17  1  0
 17 18  2  0
 17 19  1  0
 19 20  2  0
 20 21  1  0
 20 22  1  0
 22 23  1  0
 23  7  1  0
 13  8  1  0
 23 16  2  0
  1 24  1  0
  1 25  1  0
  1 26  1  0
  2 27  1  0
  2 28  1  0
  3 29  1  0
  4 30  1  0
  4 31  1  0
  5 32  1  0
  5 33  1  0
  6 34  1  0
  9 35  1  0
 10 36  1  0
 11 37  1  0
 12 38  1  0
 15 39  1  0
 15 40  1  0
 15 41  1  0
 21 42  1  0
 21 43  1  0
 21 44  1  0
M  CHG  2  14   1  22  -1
M  END
>  <UniqueID>  (20) 
20

>  <SMILES>  (20) 
CCNCCNc1c2ccccc2[n+](C)c2c(=O)nc(C)[n-]c12

>  <Energy>  (20) 
68.5240771884705

>  <Genealogy>  (20) 
CCNCCNc1c2ccccc2[n+](C)c2c(=O)nc(C)[n-]c12 (protonated)
CCNCCNc1c2ccccc2[n+](C)c2c(=O)nc(C)[n-]c12 (3D coordinates assigned)
CCNCCNc1c2ccccc2[n+](C)c2c(=O)nc(C)[n-]c12 (optimized conformer: 68.5240771884705 kcal/mol)

>  <smiles>  (20) 
CCNCCNc1c2ccccc2[n+](C)c2c(=O)nc(C)[nH]c12

>  <score_type>  (20) 
oracle

>  <origin>  (20) 
adg

>  <m_score__min__energy>  (20) 
-8.5700000000000003

>  <m_primary>  (20) 
energy

$$$$
20:0
     RDKit          3D

 82 84  0  0  0  0  0  0  0  0999 V2000
   -3.4830   18.5670  -25.9960 C   0  0  0  0  0  0  0  0  0  0  0  0
   -3.0770   19.4620  -26.9060 C   0  0  0  0  0  0  0  0  0  0  0  0
   -1.7070   20.1040  -26.8720 C   0  0  0  0  0  0  0  0  0  0  0  0
   -1.1300   20.5170  -28.1990 N   0  0  0  0  0  0  0  0  0  0  0  0
   -2.1830   21.1390  -29.0820 C   0  0  0  0  0  0  0  0  0  0  0  0
   -1.7100   22.2330  -30.0670 C   0  0  0  0  0  0  0  0  0  0  0  0
   -0.4740   19.3200  -28.8350 C   0  0  0  0  0  0  0  0  0  0  0  0
    0.0250   18.2210  -27.8710 C   0  0  0  0  0  0  0  0  0  0  0  0
   -0.0440   21.5280  -27.9190 C   0  0  0  0  0  0  0  0  0  0  0  0
   -0.2220   22.4920  -26.7030 C   0  0  0  0  0  0  0  0  0  0  0  0
   -0.8120   23.9020  -26.9480 C   0  0  0  0  0  0  0  0  0  0  0  0
   -1.6750   24.4040  -25.8520 N   0  0  0  0  0  0  0  0  0  0  0  0
   -0.8690   25.1580  -24.8700 C   0  0  0  0  0  0  0  0  0  0  0  0
   -2.7190   25.3060  -26.4040 C   0  0  0  0  0  0  0  0  0  0  0  0
   -3.9790   24.5420  -26.8280 C   0  0  0  0  0  0  0  0  0  0  0  0
   -3.7520   23.8020  -28.0740 N   0  0  0  0  0  0  0  0  0  0  0  0
   -4.5960   24.3500  -29.1400 C   0  0  0  0  0  0  0  0  0  0  0  0
   -5.1660   23.2200  -30.0000 C   0  0  0  0  0  0  0  0  0  0  0  0
   -6.0740   23.7730  -31.1030 C   0  0  0  0  0  0  0  0  0  0  0  0
   -5.8120   23.0960  -32.3720 N   0  0  0  0  0  0  0  0  0  0  0  0
   -5.8200   21.6590  -32.4690 C   0  0  0  0  0  0  0  0  0  0  0  0
   -7.0260   20.9470  -32.3320 C   0  0  0  0  0  0  0  0  0  0  0  0
   -8.2280   21.6160  -32.0120 C   0  0  0  0  0  0  0  0  0  0  0  0
   -9.4350   20.9230  -31.9610 C   0  0  0  0  0  0  0  0  0  0  0  0
   -9.4640   19.5600  -32.2210 C   0  0  0  0  0  0  0  0  0  0  0  0
   -8.2830   18.8690  -32.4880 C   0  0  0  0  0  0  0  0  0  0  0  0
   -7.0300   19.5380  -32.4980 C   0  0  0  0  0  0  0  0  0  0  0  0
   -5.8420   18.8520  -32.6740 N   0  0  0  0  0  0  0  0  0  0  0  0
   -5.8160   17.3760  -32.5520 C   0  0  0  0  0  0  0  0  0  0  0  0
   -4.6700   19.5470  -32.9120 C   0  0  0  0  0  0  0  0  0  0  0  0
   -3.4820   18.8880  -33.3200 C   0  0  0  0  0  0  0  0  0  0  0  0
   -2.2920   19.5920  -33.5050 C   0  0  0  0  0  0  0  0  0  0  0  0
   -2.2570   20.9660  -33.3110 C   0  0  0  0  0  0  0  0  0  0  0  0
   -3.4160   21.6500  -32.9560 C   0  0  0  0  0  0  0  0  0  0  0  0
   -4.6360   20.9610  -32.7700 C   0  0  0  0  0  0  0  0  0  0  0  0
   -4.4899   18.1296  -26.0659 H   0  0  0  0  0  0  0  0  0  0  0  0
   -2.8096   18.2694  -25.1787 H   0  0  0  0  0  0  0  0  0  0  0  0
   -3.7695   19.7426  -27.7132 H   0  0  0  0  0  0  0  0  0  0  0  0
   -1.7739   21.0029  -26.2415 H   0  0  0  0  0  0  0  0  0  0  0  0
   -1.0294   19.3278  -26.4869 H   0  0  0  0  0  0  0  0  0  0  0  0
   -2.6391   20.3323  -29.6747 H   0  0  0  0  0  0  0  0  0  0  0  0
   -2.8710   21.6505  -28.3927 H   0  0  0  0  0  0  0  0  0  0  0  0
   -1.3356   23.0988  -29.5012 H   0  0  0  0  0  0  0  0  0  0  0  0
   -0.9045   21.8328  -30.7003 H   0  0  0  0  0  0  0  0  0  0  0  0
   -2.5533   22.5457  -30.7003 H   0  0  0  0  0  0  0  0  0  0  0  0
   -1.2041   18.8608  -29.5177 H   0  0  0  0  0  0  0  0  0  0  0  0
    0.4284   19.7082  -29.3299 H   0  0  0  0  0  0  0  0  0  0  0  0
   -0.1241   18.5494  -26.8318 H   0  0  0  0  0  0  0  0  0  0  0  0
   -0.5406   17.2942  -28.0473 H   0  0  0  0  0  0  0  0  0  0  0  0
    1.0950   18.0368  -28.0473 H   0  0  0  0  0  0  0  0  0  0  0  0
    0.8881   20.9672  -27.7557 H   0  0  0  0  0  0  0  0  0  0  0  0
   -0.0607   22.1925  -28.7955 H   0  0  0  0  0  0  0  0  0  0  0  0
   -0.8825   21.9859  -25.9835 H   0  0  0  0  0  0  0  0  0  0  0  0
    0.8069   22.6893  -26.3677 H   0  0  0  0  0  0  0  0  0  0  0  0
    0.0228   24.6063  -27.0785 H   0  0  0  0  0  0  0  0  0  0  0  0
   -1.4510   23.8241  -27.8400 H   0  0  0  0  0  0  0  0  0  0  0  0
   -1.1724   24.8742  -23.8515 H   0  0  0  0  0  0  0  0  0  0  0  0
    0.1963   24.9247  -25.0137 H   0  0  0  0  0  0  0  0  0  0  0  0
   -1.0308   26.2365  -25.0137 H   0  0  0  0  0  0  0  0  0  0  0  0
   -2.9935   26.0428  -25.6347 H   0  0  0  0  0  0  0  0  0  0  0  0
   -2.3043   25.7958  -27.2974 H   0  0  0  0  0  0  0  0  0  0  0  0
   -4.2537   23.8326  -26.0335 H   0  0  0  0  0  0  0  0  0  0  0  0
   -4.7888   25.2676  -26.9944 H   0  0  0  0  0  0  0  0  0  0  0  0
   -4.0430   22.8100  -27.9160 H   0  0  0  0  0  0  0  0  0  0  0  0
   -5.4244   24.9177  -28.6912 H   0  0  0  0  0  0  0  0  0  0  0  0
   -3.9869   25.0104  -29.7748 H   0  0  0  0  0  0  0  0  0  0  0  0
   -4.3357   22.6658  -30.4620 H   0  0  0  0  0  0  0  0  0  0  0  0
   -5.7617   22.5563  -29.3561 H   0  0  0  0  0  0  0  0  0  0  0  0
   -7.1250   23.6152  -30.8192 H   0  0  0  0  0  0  0  0  0  0  0  0
   -5.8703   24.8471  -31.2251 H   0  0  0  0  0  0  0  0  0  0  0  0
   -5.9090   23.6520  -33.2480 H   0  0  0  0  0  0  0  0  0  0  0  0
   -8.2107   22.6954  -31.8009 H   0  0  0  0  0  0  0  0  0  0  0  0
  -10.3652   21.4559  -31.7147 H   0  0  0  0  0  0  0  0  0  0  0  0
  -10.4236   19.0223  -32.2164 H   0  0  0  0  0  0  0  0  0  0  0  0
   -8.3221   17.7892  -32.6941 H   0  0  0  0  0  0  0  0  0  0  0  0
   -5.8111   17.0960  -31.4882 H   0  0  0  0  0  0  0  0  0  0  0  0
   -6.7068   16.9521  -33.0386 H   0  0  0  0  0  0  0  0  0  0  0  0
   -4.9108   16.9837  -33.0386 H   0  0  0  0  0  0  0  0  0  0  0  0
   -3.4994   17.8019  -33.4937 H   0  0  0  0  0  0  0  0  0  0  0  0
   -1.3791   19.0569  -33.8054 H   0  0  0  0  0  0  0  0  0  0  0  0
   -1.3122   21.5149  -33.4380 H   0  0  0  0  0  0  0  0  0  0  0  0
   -3.3821   22.7408  -32.8184 H   0  0  0  0  0  0  0  0  0  0  0  0
  1  2  2  0
  2  3  1  0
  3  4  1  0
  4  5  1  0
  5  6  1  0
  4  7  1  0
  7  8  1  0
  4  9  1  0
  9 10  1  0
 10 11  1  0
 11 12  1  0
 12 13  1  0
 12 14  1  0
 14 15  1  0
 15 16  1  0
 16 17  1  0
 17 18  1  0
 18 19  1  0
 19 20  1  0
 20 21  1  0
 21 22  2  0
 22 23  1  0
 23 24  2  0
 24 25  1  0
 25 26  2  0
 26 27  1  0
 27 28  2  0
 28 29  1  0
 28 30  1  0
 30 31  2  0
 31 32  1  0
 32 33  2  0
 33 34  1  0
 34 35  2  0
 35 21  1  0
 27 22  1  0
 35 30  1  0
  1 36  1  0
  1 37  1  0
  2 38  1  0
  3 39  1  0
  3 40  1  0
  5 41  1  0
  5 42  1  0
  6 43  1  0
  6 44  1  0
  6 45  1  0
  7 46  1  0
  7 47  1  0
  8 48  1  0
  8 49  1  0
  8 50  1  0
  9 51  1  0
  9 52  1  0
 10 53  1  0
 10 54  1  0
 11 55  1  0
 11 56  1  0
 13 57  1  0
 13 58  1  0
 13 59  1  0
 14 60  1  0
 14 61  1  0
 15 62  1  0
 15 63  1  0
 16 64  1  0
 17 65  1  0
 17 66  1  0
 18 67  1  0
 18 68  1  0
 19 69  1  0
 19 70  1  0
 20 71  1  0
 23 72  1  0
 24 73  1  0
 25 74  1  0
 26 75  1  0
 29 76  1  0
 29 77  1  0
 29 78  1  0
 31 79  1  0
 32 80  1  0
 33 81  1  0
 34 82  1  0
M  CHG  2   4   1  28   1
M  END
>  <UniqueID>  (21) 
21

>  <SMILES>  (21) 
C=CC[N+](CC)(CC)CCCN(C)CCNCCCNc1c2ccccc2[n+](C)c2ccccc12

>  <Energy>  (21) 
122.47137512132262

>  <Genealogy>  (21) 
C=CC[N+](CC)(CC)CCCN(C)CCNCCCNc1c2ccccc2[n+](C)c2ccccc12 (3D coordinates assigned)
C=CC[N+](CC)(CC)CCCN(C)CCNCCCNc1c2ccccc2[n+](C)c2ccccc12 (optimized conformer: 122.47137512132262 kcal/mol)

>  <smiles>  (21) 
C=CC[N+](CC)(CC)CCCN(C)CCNCCCNc1c2ccccc2[n+](C)c2ccccc12

>  <score_type>  (21) 
oracle

>  <origin>  (21) 
adg

>  <m_score__min__energy>  (21) 
-9.0500000000000007

>  <m_primary>  (21) 
energy

$$$$
21:0
     RDKit          3D

 63 67  0  0  0  0  0  0  0  0999 V2000
   -4.0910   23.7990  -28.2230 C   0  0  0  0  0  0  0  0  0  0  0  0
   -3.3620   24.5110  -29.3670 C   0  0  0  0  0  0  0  0  0  0  0  0
   -4.2380   24.6110  -30.5630 N   0  0  0  0  0  0  0  0  0  0  0  0
   -5.3420   25.5770  -30.3240 C   0  0  0  0  0  0  0  0  0  0  0  0
   -6.6650   24.8370  -30.1460 C   0  0  0  0  0  0  0  0  0  0  0  0
   -4.7670   23.2750  -30.9420 C   0  0  0  0  0  0  0  0  0  0  0  0
   -3.8340   22.5780  -31.9440 C   0  0  0  0  0  0  0  0  0  0  0  0
   -4.5820   22.0600  -33.0950 N   0  0  0  0  0  0  0  0  0  0  0  0
   -5.1230   20.7320  -33.0490 C   0  0  0  0  0  0  0  0  0  0  0  0
   -4.3520   19.6540  -33.4540 C   0  0  0  0  0  0  0  0  0  0  0  0
   -4.9010   18.3860  -33.6130 C   0  0  0  0  0  0  0  0  0  0  0  0
   -6.2370   18.1490  -33.4190 N   0  0  0  0  0  0  0  0  0  0  0  0
   -6.8230   16.8730  -33.8610 C   0  0  0  0  0  0  0  0  0  0  0  0
   -7.0040   19.1510  -32.8410 C   0  0  0  0  0  0  0  0  0  0  0  0
   -8.3240   18.9090  -32.3910 C   0  0  0  0  0  0  0  0  0  0  0  0
   -9.0880   19.9300  -31.8220 C   0  0  0  0  0  0  0  0  0  0  0  0
   -8.5540   21.2060  -31.6710 C   0  0  0  0  0  0  0  0  0  0  0  0
   -7.2490   21.4740  -32.0770 C   0  0  0  0  0  0  0  0  0  0  0  0
   -6.4590   20.4700  -32.6660 C   0  0  0  0  0  0  0  0  0  0  0  0
   -3.8160   17.4850  -34.0800 C   0  0  0  0  0  0  0  0  0  0  0  0
   -3.6860   16.0990  -34.2560 C   0  0  0  0  0  0  0  0  0  0  0  0
   -2.4170   15.5860  -34.6170 C   0  0  0  0  0  0  0  0  0  0  0  0
   -1.2950   16.4420  -34.7450 C   0  0  0  0  0  0  0  0  0  0  0  0
   -1.4400   17.8230  -34.5030 C   0  0  0  0  0  0  0  0  0  0  0  0
   -0.4040   18.7820  -34.4830 C   0  0  0  0  0  0  0  0  0  0  0  0
    0.9450   18.4190  -34.7880 N   0  0  0  0  0  0  0  0  0  0  0  0
    1.3560   18.3340  -36.1870 C   0  0  0  0  0  0  0  0  0  0  0  0
    1.8740   18.1490  -33.6900 C   0  0  0  0  0  0  0  0  0  0  0  0
   -0.6960   20.0780  -34.1210 N   0  0  0  0  0  0  0  0  0  0  0  0
   -1.9400   20.4670  -33.7930 N   0  0  0  0  0  0  0  0  0  0  0  0
   -2.9500   19.5650  -33.8480 C   0  0  0  0  0  0  0  0  0  0  0  0
   -2.7040   18.2800  -34.1950 C   0  0  0  0  0  0  0  0  0  0  0  0
   -3.7115   24.1697  -27.2594 H   0  0  0  0  0  0  0  0  0  0  0  0
   -5.1700   24.0006  -28.2941 H   0  0  0  0  0  0  0  0  0  0  0  0
   -3.9149   22.7155  -28.2941 H   0  0  0  0  0  0  0  0  0  0  0  0
   -3.0784   25.5226  -29.0409 H   0  0  0  0  0  0  0  0  0  0  0  0
   -2.4654   23.9313  -29.6315 H   0  0  0  0  0  0  0  0  0  0  0  0
   -5.1258   26.1573  -29.4149 H   0  0  0  0  0  0  0  0  0  0  0  0
   -5.4224   26.2497  -31.1906 H   0  0  0  0  0  0  0  0  0  0  0  0
   -6.8773   24.7183  -29.0732 H   0  0  0  0  0  0  0  0  0  0  0  0
   -7.4740   25.4136  -30.6182 H   0  0  0  0  0  0  0  0  0  0  0  0
   -6.5972   23.8458  -30.6182 H   0  0  0  0  0  0  0  0  0  0  0  0
   -4.8542   22.6531  -30.0389 H   0  0  0  0  0  0  0  0  0  0  0  0
   -5.7515   23.4087  -31.4140 H   0  0  0  0  0  0  0  0  0  0  0  0
   -3.0848   23.3009  -32.2991 H   0  0  0  0  0  0  0  0  0  0  0  0
   -3.3474   21.7323  -31.4361 H   0  0  0  0  0  0  0  0  0  0  0  0
   -4.9900   22.7310  -33.7850 H   0  0  0  0  0  0  0  0  0  0  0  0
   -7.0989   16.2722  -32.9819 H   0  0  0  0  0  0  0  0  0  0  0  0
   -7.7202   17.0715  -34.4657 H   0  0  0  0  0  0  0  0  0  0  0  0
   -6.0878   16.3218  -34.4657 H   0  0  0  0  0  0  0  0  0  0  0  0
   -8.7544   17.9016  -32.4910 H   0  0  0  0  0  0  0  0  0  0  0  0
  -10.1169   19.7246  -31.4916 H   0  0  0  0  0  0  0  0  0  0  0  0
   -9.1653   22.0066  -31.2290 H   0  0  0  0  0  0  0  0  0  0  0  0
   -6.8314   22.4818  -31.9356 H   0  0  0  0  0  0  0  0  0  0  0  0
   -4.5472   15.4289  -34.1172 H   0  0  0  0  0  0  0  0  0  0  0  0
   -2.3002   14.5078  -34.8007 H   0  0  0  0  0  0  0  0  0  0  0  0
   -0.3159   16.0308  -35.0318 H   0  0  0  0  0  0  0  0  0  0  0  0
    2.4319   18.1115  -36.2402 H   0  0  0  0  0  0  0  0  0  0  0  0
    0.7909   17.5337  -36.6872 H   0  0  0  0  0  0  0  0  0  0  0  0
    1.1547   19.2928  -36.6872 H   0  0  0  0  0  0  0  0  0  0  0  0
    1.3595   18.2985  -32.7293 H   0  0  0  0  0  0  0  0  0  0  0  0
    2.2297   17.1103  -33.7577 H   0  0  0  0  0  0  0  0  0  0  0  0
    2.7310   18.8352  -33.7577 H   0  0  0  0  0  0  0  0  0  0  0  0
  1  2  1  0
  2  3  1  0
  3  4  1  0
  4  5  1  0
  3  6  1  0
  6  7  1  0
  7  8  1  0
  8  9  1  0
  9 10  2  0
 10 11  1  0
 11 12  2  0
 12 13  1  0
 12 14  1  0
 14 15  2  0
 15 16  1  0
 16 17  2  0
 17 18  1  0
 18 19  2  0
 11 20  1  0
 20 21  1  0
 21 22  2  0
 22 23  1  0
 23 24  2  0
 24 25  1  0
 25 26  1  0
 26 27  1  0
 26 28  1  0
 25 29  2  0
 29 30  1  0
 30 31  2  0
 31 32  1  0
 19  9  1  0
 32 20  2  0
 31 10  1  0
 19 14  1  0
 32 24  1  0
  1 33  1  0
  1 34  1  0
  1 35  1  0
  2 36  1  0
  2 37  1  0
  4 38  1  0
  4 39  1  0
  5 40  1  0
  5 41  1  0
  5 42  1  0
  6 43  1  0
  6 44  1  0
  7 45  1  0
  7 46  1  0
  8 47  1  0
 13 48  1  0
 13 49  1  0
 13 50  1  0
 15 51  1  0
 16 52  1  0
 17 53  1  0
 18 54  1  0
 21 55  1  0
 22 56  1  0
 23 57  1  0
 27 58  1  0
 27 59  1  0
 27 60  1  0
 28 61  1  0
 28 62  1  0
 28 63  1  0
M  CHG  1  12   1
M  END
>  <UniqueID>  (22) 
22

>  <SMILES>  (22) 
CCN(CC)CCNc1c2c([n+](C)c3ccccc13)-c1cccc3c(N(C)C)nnc-2c13

>  <Energy>  (22) 
135.35069766772605

>  <Genealogy>  (22) 
CCN(CC)CCNc1c2c([n+](C)c3ccccc13)-c1cccc3c(N(C)C)nnc-2c13 (3D coordinates assigned)
CCN(CC)CCNc1c2c([n+](C)c3ccccc13)-c1cccc3c(N(C)C)nnc-2c13 (optimized conformer: 135.35069766772605 kcal/mol)

>  <smiles>  (22) 
CCN(CC)CCNc1c2c([n+](C)c3ccccc13)-c1cccc3c(N(C)C)nnc-2c13

>  <score_type>  (22) 
oracle

>  <origin>  (22) 
adg

>  <m_score__min__energy>  (22) 
-9.5500000000000007

>  <m_primary>  (22) 
energy

$$$$
22:0
     RDKit          3D

 85 89  0  0  0  0  0  0  0  0999 V2000
   -8.1643   17.4950  -32.9215 H   0  0  0  0  0  0  0  0  0  0  0  0
   -7.3010   17.9400  -32.4050 C   0  0  0  0  0  0  0  0  0  0  0  0
   -6.3810   17.1370  -31.9560 N   0  0  0  0  0  0  0  0  0  0  0  0
   -5.5040   16.4550  -32.7720 O   0  0  0  0  0  0  0  0  0  0  0  0
   -4.8880   15.2420  -32.3520 C   0  0  0  0  0  0  0  0  0  0  0  0
   -5.6094   14.4195  -32.4662 H   0  0  0  0  0  0  0  0  0  0  0  0
   -4.5836   15.3619  -31.3018 H   0  0  0  0  0  0  0  0  0  0  0  0
   -3.6360   14.9190  -33.1730 C   0  0  0  0  0  0  0  0  0  0  0  0
   -3.5080   15.6860  -33.9510 H   0  0  0  0  0  0  0  0  0  0  0  0
   -3.7618   13.9258  -33.6288 H   0  0  0  0  0  0  0  0  0  0  0  0
   -2.4820   14.8960  -32.3500 O   0  0  0  0  0  0  0  0  0  0  0  0
   -1.3880   15.5020  -33.0040 C   0  0  0  0  0  0  0  0  0  0  0  0
   -1.5803   15.5384  -34.0865 H   0  0  0  0  0  0  0  0  0  0  0  0
   -0.4750   14.9175  -32.8173 H   0  0  0  0  0  0  0  0  0  0  0  0
   -1.2080   16.9230  -32.4680 C   0  0  0  0  0  0  0  0  0  0  0  0
   -0.1378   17.1128  -32.2985 H   0  0  0  0  0  0  0  0  0  0  0  0
   -1.7652   17.0199  -31.5245 H   0  0  0  0  0  0  0  0  0  0  0  0
   -1.7320   17.9160  -33.4380 N   0  0  0  0  0  0  0  0  0  0  0  0
   -3.0710   18.4240  -33.0690 C   0  0  0  0  0  0  0  0  0  0  0  0
   -2.9655   19.4162  -32.6059 H   0  0  0  0  0  0  0  0  0  0  0  0
   -3.5335   17.7194  -32.3622 H   0  0  0  0  0  0  0  0  0  0  0  0
   -3.9640   18.5390  -34.3010 C   0  0  0  0  0  0  0  0  0  0  0  0
   -5.0090   18.6736  -33.9851 H   0  0  0  0  0  0  0  0  0  0  0  0
   -3.6486   19.4039  -34.9030 H   0  0  0  0  0  0  0  0  0  0  0  0
   -3.8781   17.6224  -34.9030 H   0  0  0  0  0  0  0  0  0  0  0  0
   -1.6590   17.4480  -34.8450 C   0  0  0  0  0  0  0  0  0  0  0  0
   -2.0157   16.4080  -34.8803 H   0  0  0  0  0  0  0  0  0  0  0  0
   -2.2810   18.1357  -35.4367 H   0  0  0  0  0  0  0  0  0  0  0  0
   -0.2470   17.4940  -35.4600 C   0  0  0  0  0  0  0  0  0  0  0  0
    0.5027   17.5184  -34.6555 H   0  0  0  0  0  0  0  0  0  0  0  0
   -0.0886   16.6005  -36.0818 H   0  0  0  0  0  0  0  0  0  0  0  0
   -0.1471   18.3959  -36.0818 H   0  0  0  0  0  0  0  0  0  0  0  0
   -7.2620   19.4170  -32.2660 C   0  0  0  0  0  0  0  0  0  0  0  0
   -6.0920   20.1750  -32.4640 C   0  0  0  0  0  0  0  0  0  0  0  0
   -5.1612   19.6759  -32.7714 H   0  0  0  0  0  0  0  0  0  0  0  0
   -6.1090   21.5620  -32.2710 C   0  0  0  0  0  0  0  0  0  0  0  0
   -5.1832   22.1413  -32.4023 H   0  0  0  0  0  0  0  0  0  0  0  0
   -7.2910   22.2180  -31.9130 C   0  0  0  0  0  0  0  0  0  0  0  0
   -7.2410   23.6060  -31.6950 O   0  0  0  0  0  0  0  0  0  0  0  0
   -7.0260   24.2360  -30.4320 C   0  0  0  0  0  0  0  0  0  0  0  0
   -7.5192   25.2193  -30.4314 H   0  0  0  0  0  0  0  0  0  0  0  0
   -7.4465   23.5948  -29.6433 H   0  0  0  0  0  0  0  0  0  0  0  0
   -5.5630   24.4210  -30.1690 C   0  0  0  0  0  0  0  0  0  0  0  0
   -4.6720   24.8600  -31.0830 N   0  0  0  0  0  0  0  0  0  0  0  0
   -3.4960   24.9150  -30.4710 N   0  0  0  0  0  0  0  0  0  0  0  0
   -3.6150   24.5240  -29.2120 N   0  0  0  0  0  0  0  0  0  0  0  0
   -2.5160   24.4880  -28.2520 C   0  0  0  0  0  0  0  0  0  0  0  0
   -1.8305   25.3231  -28.4584 H   0  0  0  0  0  0  0  0  0  0  0  0
   -2.9334   24.5739  -27.2379 H   0  0  0  0  0  0  0  0  0  0  0  0
   -1.7420   23.1670  -28.3520 C   0  0  0  0  0  0  0  0  0  0  0  0
   -1.4602   22.9985  -29.4018 H   0  0  0  0  0  0  0  0  0  0  0  0
   -0.8520   23.2437  -27.7101 H   0  0  0  0  0  0  0  0  0  0  0  0
   -2.5790   21.9750  -27.8650 C   0  0  0  0  0  0  0  0  0  0  0  0
   -1.9377   21.3000  -27.2792 H   0  0  0  0  0  0  0  0  0  0  0  0
   -3.4044   22.3551  -27.2451 H   0  0  0  0  0  0  0  0  0  0  0  0
   -3.1710   21.2030  -29.0480 C   0  0  0  0  0  0  0  0  0  0  0  0
   -3.6162   20.2656  -28.6833 H   0  0  0  0  0  0  0  0  0  0  0  0
   -3.9408   21.8231  -29.5306 H   0  0  0  0  0  0  0  0  0  0  0  0
   -2.1230   20.8920  -30.0300 N   0  0  0  0  0  0  0  0  0  0  0  0
   -0.9640   20.1240  -29.6500 C   0  0  0  0  0  0  0  0  0  0  0  0
   -0.8310   19.7270  -28.4590 O   0  0  0  0  0  0  0  0  0  0  0  0
    0.0760   19.8040  -30.6580 C   0  0  0  0  0  0  0  0  0  0  0  0
    1.1920   19.0260  -30.3090 C   0  0  0  0  0  0  0  0  0  0  0  0
    1.2994   18.6548  -29.2791 H   0  0  0  0  0  0  0  0  0  0  0  0
    2.1660   18.7210  -31.2620 C   0  0  0  0  0  0  0  0  0  0  0  0
    3.0354   18.1101  -30.9775 H   0  0  0  0  0  0  0  0  0  0  0  0
    2.0450   19.1850  -32.5720 C   0  0  0  0  0  0  0  0  0  0  0  0
    2.8155   18.9355  -33.3163 H   0  0  0  0  0  0  0  0  0  0  0  0
    0.9440   19.9680  -32.9410 C   0  0  0  0  0  0  0  0  0  0  0  0
    0.8250   20.4380  -34.2560 C   0  0  0  0  0  0  0  0  0  0  0  0
    1.5957   20.1888  -35.0003 H   0  0  0  0  0  0  0  0  0  0  0  0
   -0.2690   21.2210  -34.6220 C   0  0  0  0  0  0  0  0  0  0  0  0
   -0.3572   21.5875  -35.6554 H   0  0  0  0  0  0  0  0  0  0  0  0
   -1.2530   21.5430  -33.6860 C   0  0  0  0  0  0  0  0  0  0  0  0
   -2.1098   22.1640  -33.9863 H   0  0  0  0  0  0  0  0  0  0  0  0
   -1.1570   21.0790  -32.3610 C   0  0  0  0  0  0  0  0  0  0  0  0
   -0.0540   20.2830  -31.9820 C   0  0  0  0  0  0  0  0  0  0  0  0
   -2.2010   21.4180  -31.3690 C   0  0  0  0  0  0  0  0  0  0  0  0
   -3.1600   22.1710  -31.6970 O   0  0  0  0  0  0  0  0  0  0  0  0
   -4.9010   24.2030  -28.9810 C   0  0  0  0  0  0  0  0  0  0  0  0
   -5.3347   23.8408  -28.0372 H   0  0  0  0  0  0  0  0  0  0  0  0
   -8.4770   21.4720  -31.7870 C   0  0  0  0  0  0  0  0  0  0  0  0
   -9.4228   21.9820  -31.5515 H   0  0  0  0  0  0  0  0  0  0  0  0
   -8.4580   20.0850  -31.9600 C   0  0  0  0  0  0  0  0  0  0  0  0
   -9.3904   19.5108  -31.8552 H   0  0  0  0  0  0  0  0  0  0  0  0
  1  2  1  0
  2  3  2  0
  3  4  1  0
  4  5  1  0
  5  6  1  0
  5  7  1  0
  5  8  1  0
  8  9  1  0
  8 10  1  0
  8 11  1  0
 11 12  1  0
 12 13  1  0
 12 14  1  0
 12 15  1  0
 15 16  1  0
 15 17  1  0
 15 18  1  0
 18 19  1  0
 19 20  1  0
 19 21  1  0
 19 22  1  0
 22 23  1  0
 22 24  1  0
 22 25  1  0
 18 26  1  0
 26 27  1  0
 26 28  1  0
 26 29  1  0
 29 30  1  0
 29 31  1  0
 29 32  1  0
  2 33  1  0
 33 34  2  0
 34 35  1  0
 34 36  1  0
 36 37  1  0
 36 38  2  0
 38 39  1  0
 39 40  1  0
 40 41  1  0
 40 42  1  0
 40 43  1  0
 43 44  1  0
 44 45  2  0
 45 46  1  0
 46 47  1  0
 47 48  1  0
 47 49  1  0
 47 50  1  0
 50 51  1  0
 50 52  1  0
 50 53  1  0
 53 54  1  0
 53 55  1  0
 53 56  1  0
 56 57  1  0
 56 58  1  0
 56 59  1  0
 59 60  1  0
 60 61  2  0
 60 62  1  0
 62 63  2  0
 63 64  1  0
 63 65  1  0
 65 66  1  0
 65 67  2  0
 67 68  1  0
 67 69  1  0
 69 70  2  0
 70 71  1  0
 70 72  1  0
 72 73  1  0
 72 74  2  0
 74 75  1  0
 74 76  1  0
 76 77  2  0
 76 78  1  0
 78 79  2  0
 46 80  1  0
 80 81  1  0
 38 82  1  0
 82 83  1  0
 82 84  2  0
 84 85  1  0
 84 33  1  0
 80 43  2  0
 78 59  1  0
 77 62  1  0
 77 69  1  0
M  END
>  <UniqueID>  (23) 
23

>  <SMILES>  (23) 
CCN(CC)CCOCCO/N=C\c1ccc(OCc2cn(CCCCN3C(=O)c4cccc5cccc(c45)C3=O)nn2)cc1

>  <Energy>  (23) 
126.92012141106932

>  <Genealogy>  (23) 
CCN(CC)CCOCCO/N=C\c1ccc(OCc2cn(CCCCN3C(=O)c4cccc5cccc(c45)C3=O)nn2)cc1 (cis-trans isomerization)
CCN(CC)CCOCCO/N=C\c1ccc(OCc2cn(CCCCN3C(=O)c4cccc5cccc(c45)C3=O)nn2)cc1 (3D coordinates assigned)
CCN(CC)CCOCCO/N=C\c1ccc(OCc2cn(CCCCN3C(=O)c4cccc5cccc(c45)C3=O)nn2)cc1 (nonaromatic ring conformer: 126.92012141106932 kcal/mol)

>  <smiles>  (23) 
CCN(CC)CCOCCON=Cc1ccc(OCc2cn(CCCCN3C(=O)c4cccc5cccc(c45)C3=O)nn2)cc1

>  <score_type>  (23) 
oracle

>  <origin>  (23) 
adg

>  <m_score__min__energy>  (23) 
-11.130000000000001

>  <m_primary>  (23) 
energy

$$$$
23:0
     RDKit          3D

 79 82  0  0  0  0  0  0  0  0999 V2000
    1.3400   21.4580  -35.2340 C   0  0  0  0  0  0  0  0  0  0  0  0
   -0.1000   21.8840  -34.9420 C   0  0  0  0  0  0  0  0  0  0  0  0
   -0.8840   20.7900  -34.3220 N   0  0  0  0  0  0  0  0  0  0  0  0
   -0.5560   19.4440  -34.8550 C   0  0  0  0  0  0  0  0  0  0  0  0
   -0.6370   18.3170  -33.8160 C   0  0  0  0  0  0  0  0  0  0  0  0
   -0.8310   20.8400  -32.8420 C   0  0  0  0  0  0  0  0  0  0  0  0
   -2.2200   21.0970  -32.2260 C   0  0  0  0  0  0  0  0  0  0  0  0
   -3.2530   21.5400  -33.1940 N   0  0  0  0  0  0  0  0  0  0  0  0
   -4.5700   20.9580  -32.9640 C   0  0  0  0  0  0  0  0  0  0  0  0
   -4.8480   19.6490  -33.4690 C   0  0  0  0  0  0  0  0  0  0  0  0
   -3.9160   18.9380  -34.2720 C   0  0  0  0  0  0  0  0  0  0  0  0
   -4.1880   17.6540  -34.7360 C   0  0  0  0  0  0  0  0  0  0  0  0
   -5.3990   17.0500  -34.4400 C   0  0  0  0  0  0  0  0  0  0  0  0
   -6.3450   17.7250  -33.6790 C   0  0  0  0  0  0  0  0  0  0  0  0
   -6.0890   19.0260  -33.1700 C   0  0  0  0  0  0  0  0  0  0  0  0
   -7.0330   19.6910  -32.4270 N   0  0  0  0  0  0  0  0  0  0  0  0
   -8.1830   18.9510  -31.8590 C   0  0  0  0  0  0  0  0  0  0  0  0
   -6.9080   21.0430  -32.2020 C   0  0  0  0  0  0  0  0  0  0  0  0
   -8.0450   21.8120  -31.8670 C   0  0  0  0  0  0  0  0  0  0  0  0
   -7.9400   23.1590  -31.5700 C   0  0  0  0  0  0  0  0  0  0  0  0
   -6.6960   23.7590  -31.5240 C   0  0  0  0  0  0  0  0  0  0  0  0
   -5.5320   23.0370  -31.8270 C   0  0  0  0  0  0  0  0  0  0  0  0
   -4.2950   23.6350  -31.5490 O   0  0  0  0  0  0  0  0  0  0  0  0
   -3.8670   24.0800  -30.2590 C   0  0  0  0  0  0  0  0  0  0  0  0
   -2.5030   23.5050  -29.7860 C   0  0  0  0  0  0  0  0  0  0  0  0
   -2.4860   22.7130  -28.5080 N   0  0  0  0  0  0  0  0  0  0  0  0
   -3.2030   23.4900  -27.4550 C   0  0  0  0  0  0  0  0  0  0  0  0
   -1.0850   22.5420  -27.9810 C   0  0  0  0  0  0  0  0  0  0  0  0
   -0.2980   21.2700  -28.3830 C   0  0  0  0  0  0  0  0  0  0  0  0
   -0.5080   19.9890  -27.5540 C   0  0  0  0  0  0  0  0  0  0  0  0
   -1.9070   19.3790  -27.6330 C   0  0  0  0  0  0  0  0  0  0  0  0
   -2.9930   20.4370  -27.4160 C   0  0  0  0  0  0  0  0  0  0  0  0
   -3.1750   21.3880  -28.6120 C   0  0  0  0  0  0  0  0  0  0  0  0
   -5.6370   21.6870  -32.3230 C   0  0  0  0  0  0  0  0  0  0  0  0
    1.8750   21.2997  -34.2860 H   0  0  0  0  0  0  0  0  0  0  0  0
    1.3354   20.5227  -35.8130 H   0  0  0  0  0  0  0  0  0  0  0  0
    1.8450   22.2452  -35.8130 H   0  0  0  0  0  0  0  0  0  0  0  0
   -0.0845   22.7437  -34.2559 H   0  0  0  0  0  0  0  0  0  0  0  0
   -0.5782   22.1478  -35.8969 H   0  0  0  0  0  0  0  0  0  0  0  0
   -1.2603   19.2143  -35.6682 H   0  0  0  0  0  0  0  0  0  0  0  0
    0.4895   19.4854  -35.1944 H   0  0  0  0  0  0  0  0  0  0  0  0
   -0.6060   18.7480  -32.8044 H   0  0  0  0  0  0  0  0  0  0  0  0
   -1.5773   17.7621  -33.9495 H   0  0  0  0  0  0  0  0  0  0  0  0
    0.2143   17.6333  -33.9495 H   0  0  0  0  0  0  0  0  0  0  0  0
   -0.4479   19.8794  -32.4671 H   0  0  0  0  0  0  0  0  0  0  0  0
   -0.1704   21.6705  -32.5522 H   0  0  0  0  0  0  0  0  0  0  0  0
   -2.5660   20.1633  -31.7585 H   0  0  0  0  0  0  0  0  0  0  0  0
   -2.0943   21.9194  -31.5064 H   0  0  0  0  0  0  0  0  0  0  0  0
   -2.9350   21.2870  -34.1550 H   0  0  0  0  0  0  0  0  0  0  0  0
   -3.2480   22.5710  -33.2680 H   0  0  0  0  0  0  0  0  0  0  0  0
   -2.9585   19.4126  -34.5327 H   0  0  0  0  0  0  0  0  0  0  0  0
   -3.4400   17.1181  -35.3387 H   0  0  0  0  0  0  0  0  0  0  0  0
   -5.6116   16.0353  -34.8078 H   0  0  0  0  0  0  0  0  0  0  0  0
   -7.3106   17.2428  -33.4666 H   0  0  0  0  0  0  0  0  0  0  0  0
   -8.1332   18.9830  -30.7606 H   0  0  0  0  0  0  0  0  0  0  0  0
   -9.1210   19.4154  -32.1972 H   0  0  0  0  0  0  0  0  0  0  0  0
   -8.1490   17.9048  -32.1972 H   0  0  0  0  0  0  0  0  0  0  0  0
   -9.0334   21.3300  -31.8419 H   0  0  0  0  0  0  0  0  0  0  0  0
   -8.8452   23.7515  -31.3708 H   0  0  0  0  0  0  0  0  0  0  0  0
   -6.6172   24.8202  -31.2452 H   0  0  0  0  0  0  0  0  0  0  0  0
   -3.7842   25.1765  -30.2863 H   0  0  0  0  0  0  0  0  0  0  0  0
   -4.6190   23.7169  -29.5430 H   0  0  0  0  0  0  0  0  0  0  0  0
   -2.1280   22.8484  -30.5849 H   0  0  0  0  0  0  0  0  0  0  0  0
   -1.8856   24.3903  -29.5737 H   0  0  0  0  0  0  0  0  0  0  0  0
   -2.8829   23.1431  -26.4614 H   0  0  0  0  0  0  0  0  0  0  0  0
   -2.9673   24.5589  -27.5637 H   0  0  0  0  0  0  0  0  0  0  0  0
   -4.2874   23.3408  -27.5637 H   0  0  0  0  0  0  0  0  0  0  0  0
   -0.5003   23.4083  -28.3239 H   0  0  0  0  0  0  0  0  0  0  0  0
   -1.2146   22.4477  -26.8927 H   0  0  0  0  0  0  0  0  0  0  0  0
   -0.5700   21.0336  -29.4223 H   0  0  0  0  0  0  0  0  0  0  0  0
    0.7551   21.5361  -28.2094 H   0  0  0  0  0  0  0  0  0  0  0  0
    0.2113   19.2351  -27.9063 H   0  0  0  0  0  0  0  0  0  0  0  0
   -0.3635   20.2809  -26.5033 H   0  0  0  0  0  0  0  0  0  0  0  0
   -2.0435   18.9248  -28.6255 H   0  0  0  0  0  0  0  0  0  0  0  0
   -1.9990   18.6219  -26.8403 H   0  0  0  0  0  0  0  0  0  0  0  0
   -3.9478   19.9226  -27.2324 H   0  0  0  0  0  0  0  0  0  0  0  0
   -2.6775   21.0520  -26.5603 H   0  0  0  0  0  0  0  0  0  0  0  0
   -2.7913   20.8787  -29.5083 H   0  0  0  0  0  0  0  0  0  0  0  0
   -4.2506   21.6153  -28.6490 H   0  0  0  0  0  0  0  0  0  0  0  0
  1  2  1  0
  2  3  1  0
  3  4  1  0
  4  5  1  0
  3  6  1  0
  6  7  1  0
  7  8  1  0
  8  9  1  0
  9 10  2  0
 10 11  1  0
 11 12  2  0
 12 13  1  0
 13 14  2  0
 14 15  1  0
 15 16  2  0
 16 17  1  0
 16 18  1  0
 18 19  2  0
 19 20  1  0
 20 21  2  0
 21 22  1  0
 22 23  1  0
 23 24  1  0
 24 25  1  0
 25 26  1  0
 26 27  1  0
 26 28  1  0
 28 29  1  0
 29 30  1  0
 30 31  1  0
 31 32  1  0
 32 33  1  0
 22 34  2  0
 34  9  1  0
 15 10  1  0
 34 18  1  0
 33 26  1  0
  1 35  1  0
  1 36  1  0
  1 37  1  0
  2 38  1  0
  2 39  1  0
  4 40  1  0
  4 41  1  0
  5 42  1  0
  5 43  1  0
  5 44  1  0
  6 45  1  0
  6 46  1  0
  7 47  1  0
  7 48  1  0
  8 49  1  0
  8 50  1  0
 11 51  1  0
 12 52  1  0
 13 53  1  0
 14 54  1  0
 17 55  1  0
 17 56  1  0
 17 57  1  0
 19 58  1  0
 20 59  1  0
 21 60  1  0
 24 61  1  0
 24 62  1  0
 25 63  1  0
 25 64  1  0
 27 65  1  0
 27 66  1  0
 27 67  1  0
 28 68  1  0
 28 69  1  0
 29 70  1  0
 29 71  1  0
 30 72  1  0
 30 73  1  0
 31 74  1  0
 31 75  1  0
 32 76  1  0
 32 77  1  0
 33 78  1  0
 33 79  1  0
M  CHG  3   8   1  16   1  26   1
M  END
>  <UniqueID>  (24) 
24

>  <SMILES>  (24) 
CCN(CC)CC[NH2+]c1c2ccccc2[n+](C)c2cccc(OCC[N+]3(C)CCCCCC3)c12

>  <Energy>  (24) 
145.78945194510263

>  <Genealogy>  (24) 
CCN(CC)CC[NH2+]c1c2ccccc2[n+](C)c2cccc(OCC[N+]3(C)CCCCCC3)c12 (protonated)
CCN(CC)CC[NH2+]c1c2ccccc2[n+](C)c2cccc(OCC[N+]3(C)CCCCCC3)c12 (3D coordinates assigned)
CCN(CC)CC[NH2+]c1c2ccccc2[n+](C)c2cccc(OCC[N+]3(C)CCCCCC3)c12 (nonaromatic ring conformer: 145.78945194510263 kcal/mol)

>  <smiles>  (24) 
CCN(CC)CCNc1c2ccccc2[n+](C)c2cccc(OCC[N+]3(C)CCCCCC3)c12

>  <score_type>  (24) 
oracle

>  <origin>  (24) 
adg

>  <m_score__min__energy>  (24) 
-5.9900000000000002

>  <m_primary>  (24) 
energy

$$$$
24:0
     RDKit          3D

 54 56  0  0  0  0  0  0  0  0999 V2000
   -2.7400   20.9250  -28.2010 C   0  0  0  0  0  0  0  0  0  0  0  0
   -3.2310   21.6830  -29.4430 C   0  0  0  0  0  0  0  0  0  0  0  0
   -2.3090   22.7450  -29.9260 N   0  0  0  0  0  0  0  0  0  0  0  0
   -0.8860   22.3510  -29.8130 C   0  0  0  0  0  0  0  0  0  0  0  0
   -0.5060   21.4200  -30.9610 C   0  0  0  0  0  0  0  0  0  0  0  0
   -2.5590   24.0920  -29.3550 C   0  0  0  0  0  0  0  0  0  0  0  0
   -4.0380   24.4910  -29.4370 C   0  0  0  0  0  0  0  0  0  0  0  0
   -4.2300   25.5320  -30.4570 N   0  0  0  0  0  0  0  0  0  0  0  0
   -5.6530   25.7060  -30.7860 C   0  0  0  0  0  0  0  0  0  0  0  0
   -6.4660   24.4680  -30.3670 C   0  0  0  0  0  0  0  0  0  0  0  0
   -6.9440   23.7280  -31.5360 N   0  0  0  0  0  0  0  0  0  0  0  0
   -6.3330   22.4940  -31.9450 C   0  0  0  0  0  0  0  0  0  0  0  0
   -4.9800   22.4970  -32.2510 C   0  0  0  0  0  0  0  0  0  0  0  0
   -4.3700   21.3540  -32.7700 C   0  0  0  0  0  0  0  0  0  0  0  0
   -3.0090   21.4270  -33.1070 C   0  0  0  0  0  0  0  0  0  0  0  0
   -2.3750   20.3290  -33.6700 C   0  0  0  0  0  0  0  0  0  0  0  0
   -3.0980   19.1720  -33.9040 C   0  0  0  0  0  0  0  0  0  0  0  0
   -4.4480   19.1150  -33.5560 C   0  0  0  0  0  0  0  0  0  0  0  0
   -5.0910   20.1890  -32.9690 N   0  0  0  0  0  0  0  0  0  0  0  0
   -6.4270   20.1320  -32.5810 C   0  0  0  0  0  0  0  0  0  0  0  0
   -7.2060   18.9430  -32.6650 C   0  0  0  0  0  0  0  0  0  0  0  0
   -8.5350   18.9170  -32.2490 C   0  0  0  0  0  0  0  0  0  0  0  0
   -9.1290   20.0540  -31.7170 C   0  0  0  0  0  0  0  0  0  0  0  0
   -8.3980   21.2310  -31.6070 C   0  0  0  0  0  0  0  0  0  0  0  0
   -7.0620   21.2960  -32.0510 C   0  0  0  0  0  0  0  0  0  0  0  0
   -3.0788   21.4480  -27.2945 H   0  0  0  0  0  0  0  0  0  0  0  0
   -3.1486   19.9037  -28.2094 H   0  0  0  0  0  0  0  0  0  0  0  0
   -1.6409   20.8803  -28.2094 H   0  0  0  0  0  0  0  0  0  0  0  0
   -3.3714   20.9551  -30.2557 H   0  0  0  0  0  0  0  0  0  0  0  0
   -4.1628   22.1891  -29.1506 H   0  0  0  0  0  0  0  0  0  0  0  0
   -0.2552   23.2514  -29.8509 H   0  0  0  0  0  0  0  0  0  0  0  0
   -0.7328   21.8261  -28.8585 H   0  0  0  0  0  0  0  0  0  0  0  0
   -0.1199   20.4740  -30.5535 H   0  0  0  0  0  0  0  0  0  0  0  0
   -1.3937   21.2181  -31.5785 H   0  0  0  0  0  0  0  0  0  0  0  0
    0.2694   21.8969  -31.5785 H   0  0  0  0  0  0  0  0  0  0  0  0
   -2.2501   24.0921  -28.2993 H   0  0  0  0  0  0  0  0  0  0  0  0
   -1.9798   24.8202  -29.9417 H   0  0  0  0  0  0  0  0  0  0  0  0
   -4.6379   23.6080  -29.7024 H   0  0  0  0  0  0  0  0  0  0  0  0
   -4.3572   24.8839  -28.4604 H   0  0  0  0  0  0  0  0  0  0  0  0
   -3.8800   26.4330  -30.0550 H   0  0  0  0  0  0  0  0  0  0  0  0
   -6.0405   26.5884  -30.2557 H   0  0  0  0  0  0  0  0  0  0  0  0
   -5.7497   25.8399  -31.8735 H   0  0  0  0  0  0  0  0  0  0  0  0
   -5.8280   23.8081  -29.7609 H   0  0  0  0  0  0  0  0  0  0  0  0
   -7.3382   24.8040  -29.7870 H   0  0  0  0  0  0  0  0  0  0  0  0
   -7.9250   23.9120  -31.8470 H   0  0  0  0  0  0  0  0  0  0  0  0
   -4.3840   23.4062  -32.0835 H   0  0  0  0  0  0  0  0  0  0  0  0
   -2.4458   22.3541  -32.9247 H   0  0  0  0  0  0  0  0  0  0  0  0
   -1.3068   20.3774  -33.9283 H   0  0  0  0  0  0  0  0  0  0  0  0
   -2.6095   18.2998  -34.3631 H   0  0  0  0  0  0  0  0  0  0  0  0
   -5.0145   18.1930  -33.7535 H   0  0  0  0  0  0  0  0  0  0  0  0
   -6.7490   18.0265  -33.0665 H   0  0  0  0  0  0  0  0  0  0  0  0
   -9.1183   17.9891  -32.3425 H   0  0  0  0  0  0  0  0  0  0  0  0
  -10.1766   20.0231  -31.3831 H   0  0  0  0  0  0  0  0  0  0  0  0
   -8.8682   22.1232  -31.1678 H   0  0  0  0  0  0  0  0  0  0  0  0
  1  2  1  0
  2  3  1  0
  3  4  1  0
  4  5  1  0
  3  6  1  0
  6  7  1  0
  7  8  1  0
  8  9  1  0
  9 10  1  0
 10 11  1  0
 11 12  1  0
 12 13  2  0
 13 14  1  0
 14 15  2  0
 15 16  1  0
 16 17  2  0
 17 18  1  0
 18 19  2  0
 19 20  1  0
 20 21  2  0
 21 22  1  0
 22 23  2  0
 23 24  1  0
 24 25  2  0
 25 12  1  0
 19 14  1  0
 25 20  1  0
  1 26  1  0
  1 27  1  0
  1 28  1  0
  2 29  1  0
  2 30  1  0
  4 31  1  0
  4 32  1  0
  5 33  1  0
  5 34  1  0
  5 35  1  0
  6 36  1  0
  6 37  1  0
  7 38  1  0
  7 39  1  0
  8 40  1  0
  9 41  1  0
  9 42  1  0
 10 43  1  0
 10 44  1  0
 11 45  1  0
 13 46  1  0
 15 47  1  0
 16 48  1  0
 17 49  1  0
 18 50  1  0
 21 51  1  0
 22 52  1  0
 23 53  1  0
 24 54  1  0
M  CHG  1  19   1
M  END
>  <UniqueID>  (25) 
25

>  <SMILES>  (25) 
CCN(CC)CCNCCNc1cc2cccc[n+]2c2ccccc12

>  <Energy>  (25) 
72.64950652790012

>  <Genealogy>  (25) 
CCN(CC)CCNCCNc1cc2cccc[n+]2c2ccccc12 (3D coordinates assigned)
CCN(CC)CCNCCNc1cc2cccc[n+]2c2ccccc12 (optimized conformer: 72.64950652790012 kcal/mol)

>  <smiles>  (25) 
CCN(CC)CCNCCNc1cc2cccc[n+]2c2ccccc12

>  <score_type>  (25) 
oracle

>  <origin>  (25) 
adg

>  <m_score__min__energy>  (25) 
-8.5600000000000005

>  <m_primary>  (25) 
energy

$$$$
25:0
     RDKit          3D

 49 50  0  0  0  0  0  0  0  0999 V2000
   -6.7957   24.3208  -32.7172 H   0  0  0  0  0  0  0  0  0  0  0  0
   -6.1590   23.5450  -32.2670 C   0  0  0  0  0  0  0  0  0  0  0  0
   -5.0400   23.8830  -31.6980 N   0  0  0  0  0  0  0  0  0  0  0  0
   -4.8860   24.9550  -30.8330 O   0  0  0  0  0  0  0  0  0  0  0  0
   -5.2790   24.9300  -29.4620 C   0  0  0  0  0  0  0  0  0  0  0  0
   -6.2696   24.4594  -29.3768 H   0  0  0  0  0  0  0  0  0  0  0  0
   -5.3185   25.9614  -29.0817 H   0  0  0  0  0  0  0  0  0  0  0  0
   -4.2650   24.1300  -28.6330 C   0  0  0  0  0  0  0  0  0  0  0  0
   -4.7702   23.2426  -28.2239 H   0  0  0  0  0  0  0  0  0  0  0  0
   -3.8930   24.7955  -27.8401 H   0  0  0  0  0  0  0  0  0  0  0  0
   -3.0990   23.6860  -29.4150 N   0  0  0  0  0  0  0  0  0  0  0  0
   -3.2640   23.8730  -30.4320 H   0  0  0  0  0  0  0  0  0  0  0  0
   -1.8570   24.3490  -28.9970 C   0  0  0  0  0  0  0  0  0  0  0  0
   -1.6397   25.1822  -29.6815 H   0  0  0  0  0  0  0  0  0  0  0  0
   -1.0313   23.6227  -29.0230 H   0  0  0  0  0  0  0  0  0  0  0  0
   -2.0100   24.8860  -27.5790 C   0  0  0  0  0  0  0  0  0  0  0  0
   -1.7824   24.0872  -26.8579 H   0  0  0  0  0  0  0  0  0  0  0  0
   -1.3152   25.7253  -27.4278 H   0  0  0  0  0  0  0  0  0  0  0  0
   -3.0428   25.2331  -27.4278 H   0  0  0  0  0  0  0  0  0  0  0  0
   -6.5840   22.1370  -32.3160 C   0  0  0  0  0  0  0  0  0  0  0  0
   -5.8070   21.0650  -32.7110 C   0  0  0  0  0  0  0  0  0  0  0  0
   -4.4670   21.1460  -33.1060 O   0  0  0  0  0  0  0  0  0  0  0  0
   -3.3800   21.1560  -32.2220 C   0  0  0  0  0  0  0  0  0  0  0  0
   -2.1130   21.4820  -32.7180 C   0  0  0  0  0  0  0  0  0  0  0  0
   -1.9903   21.7305  -33.7825 H   0  0  0  0  0  0  0  0  0  0  0  0
   -1.0010   21.4940  -31.8690 C   0  0  0  0  0  0  0  0  0  0  0  0
   -0.0107   21.7607  -32.2667 H   0  0  0  0  0  0  0  0  0  0  0  0
   -1.1450   21.1660  -30.5080 C   0  0  0  0  0  0  0  0  0  0  0  0
   -0.0620   21.1650  -29.6150 O   0  0  0  0  0  0  0  0  0  0  0  0
   -0.1890   21.0710  -28.2000 C   0  0  0  0  0  0  0  0  0  0  0  0
    0.6067   21.6600  -27.7205 H   0  0  0  0  0  0  0  0  0  0  0  0
   -1.1703   21.4621  -27.8931 H   0  0  0  0  0  0  0  0  0  0  0  0
   -0.1016   20.0183  -27.8931 H   0  0  0  0  0  0  0  0  0  0  0  0
   -2.4110   20.8240  -30.0170 C   0  0  0  0  0  0  0  0  0  0  0  0
   -2.5327   20.5629  -28.9554 H   0  0  0  0  0  0  0  0  0  0  0  0
   -3.5210   20.8120  -30.8660 C   0  0  0  0  0  0  0  0  0  0  0  0
   -4.5091   20.5323  -30.4718 H   0  0  0  0  0  0  0  0  0  0  0  0
   -6.5330   19.9280  -32.6120 N   0  0  0  0  0  0  0  0  0  0  0  0
   -6.0870   18.5610  -32.8610 C   0  0  0  0  0  0  0  0  0  0  0  0
   -5.9201   18.0493  -31.9017 H   0  0  0  0  0  0  0  0  0  0  0  0
   -6.8562   18.0231  -33.4345 H   0  0  0  0  0  0  0  0  0  0  0  0
   -5.1485   18.5802  -33.4345 H   0  0  0  0  0  0  0  0  0  0  0  0
   -7.7520   20.2420  -32.2000 N   0  0  0  0  0  0  0  0  0  0  0  0
   -8.5210   19.5520  -32.0360 H   0  0  0  0  0  0  0  0  0  0  0  0
   -7.8190   21.5750  -32.0090 C   0  0  0  0  0  0  0  0  0  0  0  0
   -9.0440   22.2880  -31.5290 C   0  0  0  0  0  0  0  0  0  0  0  0
   -9.0566   22.2954  -30.4291 H   0  0  0  0  0  0  0  0  0  0  0  0
   -9.0361   23.3226  -31.9025 H   0  0  0  0  0  0  0  0  0  0  0  0
   -9.9397   21.7701  -31.9025 H   0  0  0  0  0  0  0  0  0  0  0  0
  1  2  1  0
  2  3  2  0
  3  4  1  0
  4  5  1  0
  5  6  1  0
  5  7  1  0
  5  8  1  0
  8  9  1  0
  8 10  1  0
  8 11  1  0
 11 12  1  0
 11 13  1  0
 13 14  1  0
 13 15  1  0
 13 16  1  0
 16 17  1  0
 16 18  1  0
 16 19  1  0
  2 20  1  0
 20 21  2  0
 21 22  1  0
 22 23  1  0
 23 24  2  0
 24 25  1  0
 24 26  1  0
 26 27  1  0
 26 28  2  0
 28 29  1  0
 29 30  1  0
 30 31  1  0
 30 32  1  0
 30 33  1  0
 28 34  1  0
 34 35  1  0
 34 36  2  0
 36 37  1  0
 21 38  1  0
 38 39  1  0
 39 40  1  0
 39 41  1  0
 39 42  1  0
 38 43  1  0
 43 44  1  0
 43 45  2  0
 45 46  1  0
 46 47  1  0
 46 48  1  0
 46 49  1  0
 45 20  1  0
 36 23  1  0
M  CHG  1  43   1
M  END
>  <UniqueID>  (26) 
26

>  <SMILES>  (26) 
CCNCCO/N=C/c1c(C)[nH+]n(C)c1Oc1ccc(OC)cc1

>  <Energy>  (26) 
80.33951586928671

>  <Genealogy>  (26) 
CCNCCON=Cc1c(C)[nH+]n(C)c1Oc1ccc(OC)cc1 (protonated)
CCNCCO/N=C/c1c(C)[nH+]n(C)c1Oc1ccc(OC)cc1 (cis-trans isomerization)
CCNCCO/N=C/c1c(C)[nH+]n(C)c1Oc1ccc(OC)cc1 (3D coordinates assigned)
CCNCCO/N=C/c1c(C)[nH+]n(C)c1Oc1ccc(OC)cc1 (optimized conformer: 80.33951586928671 kcal/mol)

>  <smiles>  (26) 
CCNCCON=Cc1c(C)nn(C)c1Oc1ccc(OC)cc1

>  <score_type>  (26) 
oracle

>  <origin>  (26) 
adg

>  <m_score__min__energy>  (26) 
-7.5999999999999996

>  <m_primary>  (26) 
energy

$$$$
26:0
     RDKit          3D

 62 64  0  0  0  0  0  0  0  0999 V2000
   -3.1990   18.5480  -25.9520 C   0  0  0  0  0  0  0  0  0  0  0  0
   -3.0760   19.5680  -27.0970 C   0  0  0  0  0  0  0  0  0  0  0  0
   -1.6850   20.0200  -27.3680 N   0  0  0  0  0  0  0  0  0  0  0  0
   -0.7420   18.8740  -27.4570 C   0  0  0  0  0  0  0  0  0  0  0  0
    0.1610   18.9650  -28.6930 C   0  0  0  0  0  0  0  0  0  0  0  0
   -1.2330   21.0510  -26.3850 C   0  0  0  0  0  0  0  0  0  0  0  0
   -1.2220   22.4610  -26.9880 C   0  0  0  0  0  0  0  0  0  0  0  0
   -1.3360   22.3680  -28.3920 O   0  0  0  0  0  0  0  0  0  0  0  0
   -2.6030   22.8390  -28.7960 C   0  0  0  0  0  0  0  0  0  0  0  0
   -3.1900   21.8910  -29.8470 C   0  0  0  0  0  0  0  0  0  0  0  0
   -2.2620   20.8040  -30.1890 N   0  0  0  0  0  0  0  0  0  0  0  0
   -2.5260   20.1750  -31.4960 C   0  0  0  0  0  0  0  0  0  0  0  0
   -2.2940   21.1190  -32.6990 C   0  0  0  0  0  0  0  0  0  0  0  0
   -3.5200   21.3890  -33.4640 N   0  0  0  0  0  0  0  0  0  0  0  0
   -4.8500   20.9550  -33.0970 C   0  0  0  0  0  0  0  0  0  0  0  0
   -5.7330   21.8140  -32.3950 C   0  0  0  0  0  0  0  0  0  0  0  0
   -5.3440   23.1210  -32.0250 C   0  0  0  0  0  0  0  0  0  0  0  0
   -6.1760   23.9270  -31.2550 C   0  0  0  0  0  0  0  0  0  0  0  0
   -7.4140   23.4560  -30.8370 C   0  0  0  0  0  0  0  0  0  0  0  0
   -7.8380   22.1800  -31.2010 C   0  0  0  0  0  0  0  0  0  0  0  0
   -7.0300   21.3380  -32.0090 C   0  0  0  0  0  0  0  0  0  0  0  0
   -7.4640   20.0820  -32.4020 N   0  0  0  0  0  0  0  0  0  0  0  0
   -8.8540   19.6490  -32.1420 C   0  0  0  0  0  0  0  0  0  0  0  0
   -6.5820   19.2390  -33.0370 C   0  0  0  0  0  0  0  0  0  0  0  0
   -6.8290   17.8960  -33.4050 C   0  0  0  0  0  0  0  0  0  0  0  0
   -5.7700   17.3020  -34.0810 C   0  0  0  0  0  0  0  0  0  0  0  0
   -4.5260   18.4230  -34.2100 S   0  0  0  0  0  0  0  0  0  0  0  0
   -5.3100   19.6690  -33.3930 C   0  0  0  0  0  0  0  0  0  0  0  0
   -3.1359   19.0712  -24.9865 H   0  0  0  0  0  0  0  0  0  0  0  0
   -4.1662   18.0292  -26.0254 H   0  0  0  0  0  0  0  0  0  0  0  0
   -2.3828   17.8142  -26.0254 H   0  0  0  0  0  0  0  0  0  0  0  0
   -3.4729   19.1067  -28.0133 H   0  0  0  0  0  0  0  0  0  0  0  0
   -3.6417   20.4590  -26.7870 H   0  0  0  0  0  0  0  0  0  0  0  0
   -1.7260   20.4460  -28.3260 H   0  0  0  0  0  0  0  0  0  0  0  0
   -0.1106   18.8634  -26.5564 H   0  0  0  0  0  0  0  0  0  0  0  0
   -1.3361   17.9519  -27.5386 H   0  0  0  0  0  0  0  0  0  0  0  0
    1.2086   19.0706  -28.3747 H   0  0  0  0  0  0  0  0  0  0  0  0
    0.0511   18.0512  -29.2955 H   0  0  0  0  0  0  0  0  0  0  0  0
   -0.1290   19.8385  -29.2955 H   0  0  0  0  0  0  0  0  0  0  0  0
   -1.9147   21.0402  -25.5217 H   0  0  0  0  0  0  0  0  0  0  0  0
   -0.2038   20.8038  -26.0856 H   0  0  0  0  0  0  0  0  0  0  0  0
   -2.0684   23.0385  -26.5879 H   0  0  0  0  0  0  0  0  0  0  0  0
   -0.2805   22.9664  -26.7270 H   0  0  0  0  0  0  0  0  0  0  0  0
   -3.2734   22.8807  -27.9249 H   0  0  0  0  0  0  0  0  0  0  0  0
   -2.4991   23.8454  -29.2278 H   0  0  0  0  0  0  0  0  0  0  0  0
   -4.1185   21.4537  -29.4514 H   0  0  0  0  0  0  0  0  0  0  0  0
   -3.3815   22.4736  -30.7602 H   0  0  0  0  0  0  0  0  0  0  0  0
   -1.2860   21.1850  -30.1840 H   0  0  0  0  0  0  0  0  0  0  0  0
   -1.8608   19.3056  -31.6036 H   0  0  0  0  0  0  0  0  0  0  0  0
   -3.5895   19.8942  -31.5084 H   0  0  0  0  0  0  0  0  0  0  0  0
   -1.8980   22.0741  -32.3235 H   0  0  0  0  0  0  0  0  0  0  0  0
   -1.5872   20.6188  -33.3774 H   0  0  0  0  0  0  0  0  0  0  0  0
   -3.4080   21.9820  -34.3180 H   0  0  0  0  0  0  0  0  0  0  0  0
   -4.3672   23.5074  -32.3512 H   0  0  0  0  0  0  0  0  0  0  0  0
   -5.8525   24.9407  -30.9762 H   0  0  0  0  0  0  0  0  0  0  0  0
   -8.0618   24.0927  -30.2165 H   0  0  0  0  0  0  0  0  0  0  0  0
   -8.8177   21.8180  -30.8557 H   0  0  0  0  0  0  0  0  0  0  0  0
   -9.0245   19.5959  -31.0566 H   0  0  0  0  0  0  0  0  0  0  0  0
   -9.5528   20.3720  -32.5880 H   0  0  0  0  0  0  0  0  0  0  0  0
   -9.0185   18.6570  -32.5880 H   0  0  0  0  0  0  0  0  0  0  0  0
   -7.7691   17.3719  -33.1780 H   0  0  0  0  0  0  0  0  0  0  0  0
   -5.7499   16.2719  -34.4664 H   0  0  0  0  0  0  0  0  0  0  0  0
  1  2  1  0
  2  3  1  0
  3  4  1  0
  4  5  1  0
  3  6  1  0
  6  7  1  0
  7  8  1  0
  8  9  1  0
  9 10  1  0
 10 11  1  0
 11 12  1  0
 12 13  1  0
 13 14  1  0
 14 15  1  0
 15 16  2  0
 16 17  1  0
 17 18  2  0
 18 19  1  0
 19 20  2  0
 20 21  1  0
 21 22  2  0
 22 23  1  0
 22 24  1  0
 24 25  1  0
 25 26  2  0
 26 27  1  0
 27 28  1  0
 28 15  1  0
 21 16  1  0
 28 24  2  0
  1 29  1  0
  1 30  1  0
  1 31  1  0
  2 32  1  0
  2 33  1  0
  3 34  1  0
  4 35  1  0
  4 36  1  0
  5 37  1  0
  5 38  1  0
  5 39  1  0
  6 40  1  0
  6 41  1  0
  7 42  1  0
  7 43  1  0
  9 44  1  0
  9 45  1  0
 10 46  1  0
 10 47  1  0
 11 48  1  0
 12 49  1  0
 12 50  1  0
 13 51  1  0
 13 52  1  0
 14 53  1  0
 17 54  1  0
 18 55  1  0
 19 56  1  0
 20 57  1  0
 23 58  1  0
 23 59  1  0
 23 60  1  0
 25 61  1  0
 26 62  1  0
M  CHG  2   3   1  22   1
M  END
>  <UniqueID>  (27) 
27

>  <SMILES>  (27) 
CC[NH+](CC)CCOCCNCCNc1c2ccccc2[n+](C)c2ccsc12

>  <Energy>  (27) 
113.7243816365219

>  <Genealogy>  (27) 
CC[NH+](CC)CCOCCNCCNc1c2ccccc2[n+](C)c2ccsc12 (protonated)
CC[NH+](CC)CCOCCNCCNc1c2ccccc2[n+](C)c2ccsc12 (3D coordinates assigned)
CC[NH+](CC)CCOCCNCCNc1c2ccccc2[n+](C)c2ccsc12 (optimized conformer: 113.7243816365219 kcal/mol)

>  <smiles>  (27) 
CCN(CC)CCOCCNCCNc1c2ccccc2[n+](C)c2ccsc12

>  <score_type>  (27) 
oracle

>  <origin>  (27) 
adg

>  <m_score__min__energy>  (27) 
-9.1999999999999993

>  <m_primary>  (27) 
energy

$$$$
27:0
     RDKit          3D

 43 45  0  0  0  0  0  0  0  0999 V2000
   -0.8800   24.9350  -28.9030 C   0  0  0  0  0  0  0  0  0  0  0  0
   -1.4070   23.5950  -29.3480 C   0  0  0  0  0  0  0  0  0  0  0  0
   -0.4910   22.5510  -29.5740 C   0  0  0  0  0  0  0  0  0  0  0  0
   -0.9350   21.2940  -29.9870 C   0  0  0  0  0  0  0  0  0  0  0  0
   -2.2950   21.0610  -30.1800 C   0  0  0  0  0  0  0  0  0  0  0  0
   -3.2190   22.0800  -29.9450 C   0  0  0  0  0  0  0  0  0  0  0  0
   -2.7970   23.3460  -29.5020 C   0  0  0  0  0  0  0  0  0  0  0  0
   -3.8410   24.4140  -29.2490 C   0  0  0  0  0  0  0  0  0  0  0  0
   -4.0020   25.3080  -30.4040 N   0  0  0  0  0  0  0  0  0  0  0  0
   -5.4060   25.6140  -30.7330 C   0  0  0  0  0  0  0  0  0  0  0  0
   -6.0880   24.5130  -31.5760 C   0  0  0  0  0  0  0  0  0  0  0  0
   -5.1430   23.4640  -31.9690 N   0  0  0  0  0  0  0  0  0  0  0  0
   -5.5510   22.1340  -32.3540 C   0  0  0  0  0  0  0  0  0  0  0  0
   -6.8850   21.7080  -32.1930 C   0  0  0  0  0  0  0  0  0  0  0  0
   -7.2720   20.4170  -32.5670 C   0  0  0  0  0  0  0  0  0  0  0  0
   -9.0860   19.8650  -32.3360 Br  0  0  0  0  0  0  0  0  0  0  0  0
   -6.3400   19.5310  -33.1070 C   0  0  0  0  0  0  0  0  0  0  0  0
   -5.0090   19.9300  -33.2750 C   0  0  0  0  0  0  0  0  0  0  0  0
   -4.0570   19.0550  -33.8160 C   0  0  0  0  0  0  0  0  0  0  0  0
   -2.7360   19.4780  -33.9770 C   0  0  0  0  0  0  0  0  0  0  0  0
   -2.3790   20.7720  -33.5950 C   0  0  0  0  0  0  0  0  0  0  0  0
   -3.3110   21.6100  -33.0710 N   0  0  0  0  0  0  0  0  0  0  0  0
   -4.6090   21.2340  -32.8970 C   0  0  0  0  0  0  0  0  0  0  0  0
   -0.8639   24.9760  -27.8039 H   0  0  0  0  0  0  0  0  0  0  0  0
    0.1401   25.0748  -29.2902 H   0  0  0  0  0  0  0  0  0  0  0  0
   -1.5316   25.7322  -29.2902 H   0  0  0  0  0  0  0  0  0  0  0  0
    0.5844   22.7272  -29.4238 H   0  0  0  0  0  0  0  0  0  0  0  0
   -0.2096   20.4855  -30.1605 H   0  0  0  0  0  0  0  0  0  0  0  0
   -2.6407   20.0729  -30.5179 H   0  0  0  0  0  0  0  0  0  0  0  0
   -4.2902   21.8906  -30.1083 H   0  0  0  0  0  0  0  0  0  0  0  0
   -4.8047   23.9267  -29.0396 H   0  0  0  0  0  0  0  0  0  0  0  0
   -3.5084   25.0197  -28.3931 H   0  0  0  0  0  0  0  0  0  0  0  0
   -3.5370   24.8740  -31.2350 H   0  0  0  0  0  0  0  0  0  0  0  0
   -5.9669   25.7333  -29.7943 H   0  0  0  0  0  0  0  0  0  0  0  0
   -5.4073   26.5345  -31.3353 H   0  0  0  0  0  0  0  0  0  0  0  0
   -6.8963   24.0601  -30.9831 H   0  0  0  0  0  0  0  0  0  0  0  0
   -6.4820   24.9784  -32.4915 H   0  0  0  0  0  0  0  0  0  0  0  0
   -4.1240   23.6910  -31.9710 H   0  0  0  0  0  0  0  0  0  0  0  0
   -7.6293   22.3980  -31.7689 H   0  0  0  0  0  0  0  0  0  0  0  0
   -6.6513   18.5178  -33.4011 H   0  0  0  0  0  0  0  0  0  0  0  0
   -4.3499   18.0372  -34.1131 H   0  0  0  0  0  0  0  0  0  0  0  0
   -1.9833   18.7972  -34.4012 H   0  0  0  0  0  0  0  0  0  0  0  0
   -1.3408   21.1140  -33.7185 H   0  0  0  0  0  0  0  0  0  0  0  0
  1  2  1  0
  2  3  2  0
  3  4  1  0
  4  5  2  0
  5  6  1  0
  6  7  2  0
  7  8  1  0
  8  9  1  0
  9 10  1  0
 10 11  1  0
 11 12  1  0
 12 13  1  0
 13 14  2  0
 14 15  1  0
 15 16  1  0
 15 17  2  0
 17 18  1  0
 18 19  2  0
 19 20  1  0
 20 21  2  0
 21 22  1  0
 22 23  2  0
  7  2  1  0
 23 13  1  0
 23 18  1  0
  1 24  1  0
  1 25  1  0
  1 26  1  0
  3 27  1  0
  4 28  1  0
  5 29  1  0
  6 30  1  0
  8 31  1  0
  8 32  1  0
  9 33  1  0
 10 34  1  0
 10 35  1  0
 11 36  1  0
 11 37  1  0
 12 38  1  0
 14 39  1  0
 17 40  1  0
 19 41  1  0
 20 42  1  0
 21 43  1  0
M  END
>  <UniqueID>  (28) 
28

>  <SMILES>  (28) 
Cc1ccccc1CNCCNc1cc(Br)cc2cccnc12

>  <Energy>  (28) 
50.27947699237735

>  <Genealogy>  (28) 
Cc1ccccc1CNCCNc1cc(Br)cc2cccnc12 (3D coordinates assigned)
Cc1ccccc1CNCCNc1cc(Br)cc2cccnc12 (optimized conformer: 50.27947699237735 kcal/mol)

>  <smiles>  (28) 
Cc1ccccc1CNCCNc1cc(Br)cc2cccnc12

>  <score_type>  (28) 
oracle

>  <origin>  (28) 
adg

>  <m_score__min__energy>  (28) 
-8.8900000000000006

>  <m_primary>  (28) 
energy

$$$$
