0:0
     RDKit          3D

 28 29  0  0  0  0  0  0  0  0999 V2000
   -3.5320   24.7230  -30.7710 O   0  0  0  0  0  0  0  0  0  0  0  0
   -4.7470   24.6190  -30.4550 C   0  0  0  0  0  0  0  0  0  0  0  0
   -5.5110   25.6850  -29.9430 N   0  0  0  0  0  0  0  0  0  0  0  0
   -6.8660   25.1990  -29.7170 C   0  0  0  0  0  0  0  0  0  0  0  0
   -6.8660   23.7160  -30.1710 C   0  0  0  0  0  0  0  0  0  0  0  0
   -5.4980   23.4310  -30.5860 N   0  0  0  0  0  0  0  0  0  0  0  0
   -5.0280   22.1680  -31.1500 C   0  0  0  0  0  0  0  0  0  0  0  0
   -5.6940   21.9120  -32.5040 C   0  0  0  0  0  0  0  0  0  0  0  0
   -6.7810   20.8790  -32.3720 C   0  0  0  0  0  0  0  0  0  0  0  0
   -6.5240   19.5350  -32.6880 C   0  0  0  0  0  0  0  0  0  0  0  0
   -7.5420   18.5820  -32.5960 C   0  0  0  0  0  0  0  0  0  0  0  0
   -8.8260   18.9660  -32.1990 C   0  0  0  0  0  0  0  0  0  0  0  0
   -9.0940   20.3030  -31.8960 C   0  0  0  0  0  0  0  0  0  0  0  0
   -8.0770   21.2590  -31.9860 C   0  0  0  0  0  0  0  0  0  0  0  0
   -5.1660   26.6520  -29.7540 H   0  0  0  0  0  0  0  0  0  0  0  0
   -7.1263   25.2729  -28.6508 H   0  0  0  0  0  0  0  0  0  0  0  0
   -7.6063   25.7922  -30.2738 H   0  0  0  0  0  0  0  0  0  0  0  0
   -7.1588   23.0598  -29.3381 H   0  0  0  0  0  0  0  0  0  0  0  0
   -7.5828   23.5410  -30.9868 H   0  0  0  0  0  0  0  0  0  0  0  0
   -3.9373   22.2141  -31.2848 H   0  0  0  0  0  0  0  0  0  0  0  0
   -5.2878   21.3497  -30.4624 H   0  0  0  0  0  0  0  0  0  0  0  0
   -6.1305   22.8508  -32.8756 H   0  0  0  0  0  0  0  0  0  0  0  0
   -4.9351   21.5407  -33.2084 H   0  0  0  0  0  0  0  0  0  0  0  0
   -5.5169   19.2310  -33.0094 H   0  0  0  0  0  0  0  0  0  0  0  0
   -7.3327   17.5291  -32.8361 H   0  0  0  0  0  0  0  0  0  0  0  0
   -9.6261   18.2147  -32.1251 H   0  0  0  0  0  0  0  0  0  0  0  0
  -10.1056   20.6042  -31.5864 H   0  0  0  0  0  0  0  0  0  0  0  0
   -8.2929   22.3123  -31.7536 H   0  0  0  0  0  0  0  0  0  0  0  0
  1  2  2  0
  2  3  1  0
  3  4  1  0
  4  5  1  0
  5  6  1  0
  6  7  1  0
  7  8  1  0
  8  9  1  0
  9 10  2  0
 10 11  1  0
 11 12  2  0
 12 13  1  0
 13 14  2  0
  6  2  1  0
 14  9  1  0
  3 15  1  0
  4 16  1  0
  4 17  1  0
  5 18  1  0
  5 19  1  0
  7 20  1  0
  7 21  1  0
  8 22  1  0
  8 23  1  0
 10 24  1  0
 11 25  1  0
 12 26  1  0
 13 27  1  0
 14 28  1  0
M  END
>  <UniqueID>  (1) 
1

>  <SMILES>  (1) 
O=C1NCCN1CCc1ccccc1

>  <Energy>  (1) 
35.326642720114585

>  <Genealogy>  (1) 
O=C1NCCN1CCc1ccccc1 (3D coordinates assigned)
O=C1NCCN1CCc1ccccc1 (nonaromatic ring conformer: 35.326642720114585 kcal/mol)

>  <smiles>  (1) 
O=C1NCCN1CCc1ccccc1

>  <score_type>  (1) 
oracle

>  <origin>  (1) 
adg

>  <m_score__min__energy>  (1) 
-6.79

>  <m_primary>  (1) 
energy

$$$$
1:0
     RDKit          3D

 42 44  0  0  0  0  0  0  0  0999 V2000
   -5.1614   16.7004  -33.0823 H   0  0  0  0  0  0  0  0  0  0  0  0
   -5.9690   17.4210  -32.8860 C   0  0  0  0  0  0  0  0  0  0  0  0
   -6.7560   17.6470  -31.4130 S   0  0  0  0  0  0  0  0  0  0  0  0
   -7.7560   18.8540  -32.0150 C   0  0  0  0  0  0  0  0  0  0  0  0
   -8.6460   19.4700  -31.2990 N   0  0  0  0  0  0  0  0  0  0  0  0
   -8.8850   21.1890  -31.2870 S   0  0  0  0  0  0  0  0  0  0  0  0
   -9.7580   21.5560  -30.1210 O   0  0  0  0  0  0  0  0  0  0  0  0
   -9.5720   21.5980  -32.5600 O   0  0  0  0  0  0  0  0  0  0  0  0
   -7.3390   22.0150  -31.1230 C   0  0  0  0  0  0  0  0  0  0  0  0
   -7.2890   23.3500  -30.7040 C   0  0  0  0  0  0  0  0  0  0  0  0
   -8.2204   23.8864  -30.4701 H   0  0  0  0  0  0  0  0  0  0  0  0
   -6.0600   24.0030  -30.5820 C   0  0  0  0  0  0  0  0  0  0  0  0
   -6.0316   25.0530  -30.2553 H   0  0  0  0  0  0  0  0  0  0  0  0
   -4.8610   23.3330  -30.8720 C   0  0  0  0  0  0  0  0  0  0  0  0
   -3.6110   24.0350  -30.7330 N   0  0  0  0  0  0  0  0  0  0  0  0
   -3.4820   24.9310  -31.2560 H   0  0  0  0  0  0  0  0  0  0  0  0
   -2.5140   23.6090  -29.8620 C   0  0  0  0  0  0  0  0  0  0  0  0
   -1.5592   23.9387  -30.2974 H   0  0  0  0  0  0  0  0  0  0  0  0
   -2.5379   22.5126  -29.7761 H   0  0  0  0  0  0  0  0  0  0  0  0
   -2.6610   24.2060  -28.4810 C   0  0  0  0  0  0  0  0  0  0  0  0
   -3.9310   24.2210  -27.8750 C   0  0  0  0  0  0  0  0  0  0  0  0
   -4.7951   23.7981  -28.4084 H   0  0  0  0  0  0  0  0  0  0  0  0
   -4.1030   24.7680  -26.6030 C   0  0  0  0  0  0  0  0  0  0  0  0
   -5.0983   24.7669  -26.1345 H   0  0  0  0  0  0  0  0  0  0  0  0
   -3.0150   25.3160  -25.9250 C   0  0  0  0  0  0  0  0  0  0  0  0
   -3.1527   25.7423  -24.9204 H   0  0  0  0  0  0  0  0  0  0  0  0
   -1.7510   25.3250  -26.5180 C   0  0  0  0  0  0  0  0  0  0  0  0
   -0.8979   25.7619  -25.9783 H   0  0  0  0  0  0  0  0  0  0  0  0
   -1.5600   24.7780  -27.8040 C   0  0  0  0  0  0  0  0  0  0  0  0
   -0.3020   24.7880  -28.4280 O   0  0  0  0  0  0  0  0  0  0  0  0
    0.8710   24.1810  -27.8950 C   0  0  0  0  0  0  0  0  0  0  0  0
    0.8283   24.2031  -26.7961 H   0  0  0  0  0  0  0  0  0  0  0  0
    0.9326   23.1379  -28.2386 H   0  0  0  0  0  0  0  0  0  0  0  0
    1.7581   24.7332  -28.2386 H   0  0  0  0  0  0  0  0  0  0  0  0
   -4.9190   21.9910  -31.2970 C   0  0  0  0  0  0  0  0  0  0  0  0
   -3.9899   21.4535  -31.5376 H   0  0  0  0  0  0  0  0  0  0  0  0
   -6.1490   21.3380  -31.4150 C   0  0  0  0  0  0  0  0  0  0  0  0
   -6.1822   20.2873  -31.7388 H   0  0  0  0  0  0  0  0  0  0  0  0
   -7.5090   19.0970  -33.3240 N   0  0  0  0  0  0  0  0  0  0  0  0
   -8.0050   19.8010  -33.9140 H   0  0  0  0  0  0  0  0  0  0  0  0
   -6.5180   18.3040  -33.8110 C   0  0  0  0  0  0  0  0  0  0  0  0
   -6.1765   18.3562  -34.8553 H   0  0  0  0  0  0  0  0  0  0  0  0
  1  2  1  0
  2  3  1  0
  3  4  1  0
  4  5  2  0
  5  6  1  0
  6  7  2  0
  6  8  2  0
  6  9  1  0
  9 10  2  0
 10 11  1  0
 10 12  1  0
 12 13  1  0
 12 14  2  0
 14 15  1  0
 15 16  1  0
 15 17  1  0
 17 18  1  0
 17 19  1  0
 17 20  1  0
 20 21  2  0
 21 22  1  0
 21 23  1  0
 23 24  1  0
 23 25  2  0
 25 26  1  0
 25 27  1  0
 27 28  1  0
 27 29  2  0
 29 30  1  0
 30 31  1  0
 31 32  1  0
 31 33  1  0
 31 34  1  0
 14 35  1  0
 35 36  1  0
 35 37  2  0
 37 38  1  0
  4 39  1  0
 39 40  1  0
 39 41  1  0
 41 42  1  0
 41  2  2  0
 37  9  1  0
 29 20  1  0
M  END
>  <UniqueID>  (2) 
2

>  <SMILES>  (2) 
COc1ccccc1CNc1ccc(S(=O)(=O)/N=c2\[nH]ccs2)cc1

>  <Energy>  (2) 
76.8483913296838

>  <Genealogy>  (2) 
COc1ccccc1CNc1ccc(S(=O)(=O)/N=c2\[nH]ccs2)cc1 (cis-trans isomerization)
COc1ccccc1CNc1ccc(S(=O)(=O)/N=c2\[nH]ccs2)cc1 (3D coordinates assigned)
COc1ccccc1CNc1ccc(S(=O)(=O)/N=c2\[nH]ccs2)cc1 (optimized conformer: 76.8483913296838 kcal/mol)

>  <smiles>  (2) 
COc1ccccc1CNc1ccc(S(=O)(=O)N=c2[nH]ccs2)cc1

>  <score_type>  (2) 
oracle

>  <origin>  (2) 
adg

>  <m_score__min__energy>  (2) 
-8.6899999999999995

>  <m_primary>  (2) 
energy

$$$$
2:0
     RDKit          3D

 57 59  0  0  0  0  0  0  0  0999 V2000
   -2.3940   25.0450  -26.7490 C   0  0  0  0  0  0  0  0  0  0  0  0
   -1.6910   25.2830  -28.0840 C   0  0  0  0  0  0  0  0  0  0  0  0
   -2.4100   24.6090  -29.1870 N   0  0  0  0  0  0  0  0  0  0  0  0
   -1.7420   23.3870  -29.6870 C   0  0  0  0  0  0  0  0  0  0  0  0
   -0.4830   23.0090  -28.9040 C   0  0  0  0  0  0  0  0  0  0  0  0
   -3.8870   24.5070  -29.0650 C   0  0  0  0  0  0  0  0  0  0  0  0
   -4.6830   25.1590  -30.2130 C   0  0  0  0  0  0  0  0  0  0  0  0
   -5.6160   24.1930  -30.7840 N   0  0  0  0  0  0  0  0  0  0  0  0
   -6.9330   24.2060  -30.5580 N   0  0  0  0  0  0  0  0  0  0  0  0
   -7.4410   23.1280  -31.1970 C   0  0  0  0  0  0  0  0  0  0  0  0
   -8.7500   22.6720  -31.2690 C   0  0  0  0  0  0  0  0  0  0  0  0
   -8.9830   21.4760  -31.9880 C   0  0  0  0  0  0  0  0  0  0  0  0
   -7.9130   20.7510  -32.6110 C   0  0  0  0  0  0  0  0  0  0  0  0
   -8.2190   19.4980  -33.2700 N   0  0  0  0  0  0  0  0  0  0  0  0
   -8.3930   18.3940  -32.3080 C   0  0  0  0  0  0  0  0  0  0  0  0
   -7.1980   17.4230  -32.2720 C   0  0  0  0  0  0  0  0  0  0  0  0
   -6.4840   17.4060  -33.5570 N   0  0  0  0  0  0  0  0  0  0  0  0
   -5.8830   16.0940  -33.8290 C   0  0  0  0  0  0  0  0  0  0  0  0
   -4.5560   16.2630  -34.5720 C   0  0  0  0  0  0  0  0  0  0  0  0
   -4.4530   17.5510  -35.1160 O   0  0  0  0  0  0  0  0  0  0  0  0
   -6.5820   21.2780  -32.5190 C   0  0  0  0  0  0  0  0  0  0  0  0
   -6.4460   22.4490  -31.8040 C   0  0  0  0  0  0  0  0  0  0  0  0
   -5.3040   23.1150  -31.5420 C   0  0  0  0  0  0  0  0  0  0  0  0
   -4.0100   22.6110  -32.0260 C   0  0  0  0  0  0  0  0  0  0  0  0
   -4.0100   21.4790  -32.7620 C   0  0  0  0  0  0  0  0  0  0  0  0
   -5.2890   20.7550  -33.0790 C   0  0  0  0  0  0  0  0  0  0  0  0
   -5.2440   19.7470  -33.8300 O   0  0  0  0  0  0  0  0  0  0  0  0
   -1.7042   25.2785  -25.9246 H   0  0  0  0  0  0  0  0  0  0  0  0
   -3.2800   25.6932  -26.6805 H   0  0  0  0  0  0  0  0  0  0  0  0
   -2.7040   23.9918  -26.6805 H   0  0  0  0  0  0  0  0  0  0  0  0
   -1.6557   26.3640  -28.2847 H   0  0  0  0  0  0  0  0  0  0  0  0
   -0.6733   24.8698  -28.0237 H   0  0  0  0  0  0  0  0  0  0  0  0
   -2.4544   22.5512  -29.6233 H   0  0  0  0  0  0  0  0  0  0  0  0
   -1.4274   23.5931  -30.7207 H   0  0  0  0  0  0  0  0  0  0  0  0
   -0.6896   23.0710  -27.8254 H   0  0  0  0  0  0  0  0  0  0  0  0
   -0.1854   21.9819  -29.1619 H   0  0  0  0  0  0  0  0  0  0  0  0
    0.3311   23.7023  -29.1619 H   0  0  0  0  0  0  0  0  0  0  0  0
   -4.1533   23.4404  -29.0281 H   0  0  0  0  0  0  0  0  0  0  0  0
   -4.1584   25.0572  -28.1520 H   0  0  0  0  0  0  0  0  0  0  0  0
   -5.2441   26.0213  -29.8236 H   0  0  0  0  0  0  0  0  0  0  0  0
   -3.9837   25.4914  -30.9944 H   0  0  0  0  0  0  0  0  0  0  0  0
   -9.5734   23.2187  -30.7863 H   0  0  0  0  0  0  0  0  0  0  0  0
  -10.0105   21.0922  -32.0715 H   0  0  0  0  0  0  0  0  0  0  0  0
   -9.1230   19.6200  -33.7830 H   0  0  0  0  0  0  0  0  0  0  0  0
   -7.5210   19.2390  -33.9960 H   0  0  0  0  0  0  0  0  0  0  0  0
   -8.5243   18.8234  -31.3038 H   0  0  0  0  0  0  0  0  0  0  0  0
   -9.2722   17.8167  -32.6302 H   0  0  0  0  0  0  0  0  0  0  0  0
   -6.5031   17.7394  -31.4802 H   0  0  0  0  0  0  0  0  0  0  0  0
   -7.5795   16.4105  -32.0736 H   0  0  0  0  0  0  0  0  0  0  0  0
   -5.7040   18.1040  -33.4900 H   0  0  0  0  0  0  0  0  0  0  0  0
   -5.7025   15.5729  -32.8772 H   0  0  0  0  0  0  0  0  0  0  0  0
   -6.5717   15.5070  -34.4544 H   0  0  0  0  0  0  0  0  0  0  0  0
   -3.7255   16.1004  -33.8693 H   0  0  0  0  0  0  0  0  0  0  0  0
   -4.5130   15.5291  -35.3903 H   0  0  0  0  0  0  0  0  0  0  0  0
   -5.3520   17.9680  -35.0450 H   0  0  0  0  0  0  0  0  0  0  0  0
   -3.0728   23.1389  -31.7960 H   0  0  0  0  0  0  0  0  0  0  0  0
   -3.0563   21.0790  -33.1367 H   0  0  0  0  0  0  0  0  0  0  0  0
  1  2  1  0
  2  3  1  0
  3  4  1  0
  4  5  1  0
  3  6  1  0
  6  7  1  0
  7  8  1  0
  8  9  1  0
  9 10  2  0
 10 11  1  0
 11 12  2  0
 12 13  1  0
 13 14  1  0
 14 15  1  0
 15 16  1  0
 16 17  1  0
 17 18  1  0
 18 19  1  0
 19 20  1  0
 13 21  2  0
 21 22  1  0
 22 23  2  0
 23 24  1  0
 24 25  2  0
 25 26  1  0
 26 27  2  0
 23  8  1  0
 22 10  1  0
 26 21  1  0
  1 28  1  0
  1 29  1  0
  1 30  1  0
  2 31  1  0
  2 32  1  0
  4 33  1  0
  4 34  1  0
  5 35  1  0
  5 36  1  0
  5 37  1  0
  6 38  1  0
  6 39  1  0
  7 40  1  0
  7 41  1  0
 11 42  1  0
 12 43  1  0
 14 44  1  0
 14 45  1  0
 15 46  1  0
 15 47  1  0
 16 48  1  0
 16 49  1  0
 17 50  1  0
 18 51  1  0
 18 52  1  0
 19 53  1  0
 19 54  1  0
 20 55  1  0
 24 56  1  0
 25 57  1  0
M  CHG  1  14   1
M  END
>  <UniqueID>  (3) 
3

>  <SMILES>  (3) 
CCN(CC)CCn1nc2ccc([NH2+]CCNCCO)c3c2c1C=CC3=O

>  <Energy>  (3) 
112.5788848185389

>  <Genealogy>  (3) 
CCN(CC)CCn1nc2ccc([NH2+]CCNCCO)c3c2c1C=CC3=O (protonated)
CCN(CC)CCn1nc2ccc([NH2+]CCNCCO)c3c2c1C=CC3=O (3D coordinates assigned)
CCN(CC)CCn1nc2ccc([NH2+]CCNCCO)c3c2c1C=CC3=O (nonaromatic ring conformer: 112.5788848185389 kcal/mol)

>  <smiles>  (3) 
CCN(CC)CCn1nc2ccc(NCCNCCO)c3c2c1C=CC3=O

>  <score_type>  (3) 
oracle

>  <origin>  (3) 
adg

>  <m_score__min__energy>  (3) 
-6.6900000000000004

>  <m_primary>  (3) 
energy

$$$$
3:0
     RDKit          3D

 45 47  0  0  0  0  0  0  0  0999 V2000
   -2.7670   20.5950  -28.0200 C   0  0  0  0  0  0  0  0  0  0  0  0
   -2.9160   20.8170  -29.4170 O   0  0  0  0  0  0  0  0  0  0  0  0
   -2.3590   21.9210  -30.0690 C   0  0  0  0  0  0  0  0  0  0  0  0
   -2.1650   21.8870  -31.3120 O   0  0  0  0  0  0  0  0  0  0  0  0
   -2.0530   23.1310  -29.2860 C   0  0  0  0  0  0  0  0  0  0  0  0
   -0.5810   23.3450  -28.5000 S   0  0  0  0  0  0  0  0  0  0  0  0
   -0.9130   24.8470  -27.8360 C   0  0  0  0  0  0  0  0  0  0  0  0
   -2.1890   25.2160  -28.2280 C   0  0  0  0  0  0  0  0  0  0  0  0
   -2.8400   24.2720  -29.0430 C   0  0  0  0  0  0  0  0  0  0  0  0
   -4.4320   24.6330  -29.7370 S   0  0  0  0  0  0  0  0  0  0  0  0
   -5.3430   25.2330  -28.7050 O   0  0  0  0  0  0  0  0  0  0  0  0
   -4.2510   25.6580  -30.8220 O   0  0  0  0  0  0  0  0  0  0  0  0
   -5.1760   23.2140  -30.4410 N   0  0  0  0  0  0  0  0  0  0  0  0
   -5.4450   23.4170  -31.8690 C   0  0  0  0  0  0  0  0  0  0  0  0
   -5.7800   22.0680  -32.5000 C   0  0  0  0  0  0  0  0  0  0  0  0
   -6.6410   21.2760  -31.6180 N   0  0  0  0  0  0  0  0  0  0  0  0
   -6.9570   19.9280  -31.9910 C   0  0  0  0  0  0  0  0  0  0  0  0
   -8.2930   19.5110  -31.9760 C   0  0  0  0  0  0  0  0  0  0  0  0
   -8.6270   18.2070  -32.3360 C   0  0  0  0  0  0  0  0  0  0  0  0
   -7.6280   17.3060  -32.7120 C   0  0  0  0  0  0  0  0  0  0  0  0
   -6.2810   17.7030  -32.7310 C   0  0  0  0  0  0  0  0  0  0  0  0
   -5.2180   16.7140  -33.1210 C   0  0  0  0  0  0  0  0  0  0  0  0
   -5.9420   19.0250  -32.3650 C   0  0  0  0  0  0  0  0  0  0  0  0
   -4.2560   19.5470  -32.3530 Cl  0  0  0  0  0  0  0  0  0  0  0  0
   -7.3230   21.8860  -30.4710 C   0  0  0  0  0  0  0  0  0  0  0  0
   -6.4100   22.8700  -29.7050 C   0  0  0  0  0  0  0  0  0  0  0  0
   -3.2962   21.3835  -27.4649 H   0  0  0  0  0  0  0  0  0  0  0  0
   -3.1905   19.6144  -27.7573 H   0  0  0  0  0  0  0  0  0  0  0  0
   -1.6990   20.6154  -27.7573 H   0  0  0  0  0  0  0  0  0  0  0  0
   -0.2362   25.4366  -27.2002 H   0  0  0  0  0  0  0  0  0  0  0  0
   -2.6540   26.1665  -27.9276 H   0  0  0  0  0  0  0  0  0  0  0  0
   -6.2950   24.1044  -31.9916 H   0  0  0  0  0  0  0  0  0  0  0  0
   -4.5610   23.8511  -32.3591 H   0  0  0  0  0  0  0  0  0  0  0  0
   -6.3003   22.2364  -33.4544 H   0  0  0  0  0  0  0  0  0  0  0  0
   -4.8432   21.5154  -32.6645 H   0  0  0  0  0  0  0  0  0  0  0  0
   -9.0831   20.2161  -31.6786 H   0  0  0  0  0  0  0  0  0  0  0  0
   -9.6792   17.8865  -32.3241 H   0  0  0  0  0  0  0  0  0  0  0  0
   -7.8983   16.2780  -32.9953 H   0  0  0  0  0  0  0  0  0  0  0  0
   -4.7618   16.2895  -32.2145 H   0  0  0  0  0  0  0  0  0  0  0  0
   -5.6690   15.9069  -33.7169 H   0  0  0  0  0  0  0  0  0  0  0  0
   -4.4454   17.2220  -33.7169 H   0  0  0  0  0  0  0  0  0  0  0  0
   -8.2067   22.4316  -30.8334 H   0  0  0  0  0  0  0  0  0  0  0  0
   -7.6066   21.0796  -29.7787 H   0  0  0  0  0  0  0  0  0  0  0  0
   -6.9740   23.7955  -29.5167 H   0  0  0  0  0  0  0  0  0  0  0  0
   -6.1057   22.3737  -28.7717 H   0  0  0  0  0  0  0  0  0  0  0  0
  1  2  1  0
  2  3  1  0
  3  4  2  0
  3  5  1  0
  5  6  1  0
  6  7  1  0
  7  8  2  0
  8  9  1  0
  9 10  1  0
 10 11  2  0
 10 12  2  0
 10 13  1  0
 13 14  1  0
 14 15  1  0
 15 16  1  0
 16 17  1  0
 17 18  2  0
 18 19  1  0
 19 20  2  0
 20 21  1  0
 21 22  1  0
 21 23  2  0
 23 24  1  0
 16 25  1  0
 25 26  1  0
  9  5  2  0
 26 13  1  0
 23 17  1  0
  1 27  1  0
  1 28  1  0
  1 29  1  0
  7 30  1  0
  8 31  1  0
 14 32  1  0
 14 33  1  0
 15 34  1  0
 15 35  1  0
 18 36  1  0
 19 37  1  0
 20 38  1  0
 22 39  1  0
 22 40  1  0
 22 41  1  0
 25 42  1  0
 25 43  1  0
 26 44  1  0
 26 45  1  0
M  END
>  <UniqueID>  (4) 
4

>  <SMILES>  (4) 
COC(=O)c1sccc1S(=O)(=O)N1CCN(c2cccc(C)c2Cl)CC1

>  <Energy>  (4) 
83.32378117371157

>  <Genealogy>  (4) 
COC(=O)c1sccc1S(=O)(=O)N1CCN(c2cccc(C)c2Cl)CC1 (3D coordinates assigned)
COC(=O)c1sccc1S(=O)(=O)N1CCN(c2cccc(C)c2Cl)CC1 (nonaromatic ring conformer: 83.32378117371157 kcal/mol)

>  <smiles>  (4) 
COC(=O)c1sccc1S(=O)(=O)N1CCN(c2cccc(C)c2Cl)CC1

>  <score_type>  (4) 
oracle

>  <origin>  (4) 
adg

>  <m_score__min__energy>  (4) 
-8.1899999999999995

>  <m_primary>  (4) 
energy

$$$$
4:0
     RDKit          3D

 35 38  0  0  0  0  0  0  0  0999 V2000
   -7.6110   17.8090  -32.7140 C   0  0  0  0  0  0  0  0  0  0  0  0
   -6.4310   18.2370  -33.3280 C   0  0  0  0  0  0  0  0  0  0  0  0
   -6.0360   19.5750  -33.2350 C   0  0  0  0  0  0  0  0  0  0  0  0
   -6.8190   20.4970  -32.5150 C   0  0  0  0  0  0  0  0  0  0  0  0
   -8.0030   20.0520  -31.8940 C   0  0  0  0  0  0  0  0  0  0  0  0
   -8.3980   18.7150  -32.0020 C   0  0  0  0  0  0  0  0  0  0  0  0
   -8.7910   20.9550  -31.1720 O   0  0  0  0  0  0  0  0  0  0  0  0
   -8.3230   22.2630  -30.8430 C   0  0  0  0  0  0  0  0  0  0  0  0
   -7.5180   22.8430  -32.0060 C   0  0  0  0  0  0  0  0  0  0  0  0
   -6.4630   21.8960  -32.4000 N   0  0  0  0  0  0  0  0  0  0  0  0
   -5.0750   22.3620  -32.5390 C   0  0  0  0  0  0  0  0  0  0  0  0
   -4.6490   23.0850  -31.3010 C   0  0  0  0  0  0  0  0  0  0  0  0
   -4.6300   24.4280  -31.1870 N   0  0  0  0  0  0  0  0  0  0  0  0
   -4.2700   24.6580  -29.9570 O   0  0  0  0  0  0  0  0  0  0  0  0
   -4.0810   23.5250  -29.3250 C   0  0  0  0  0  0  0  0  0  0  0  0
   -3.6720   23.4440  -27.8780 C   0  0  0  0  0  0  0  0  0  0  0  0
   -4.1900   24.5490  -26.9700 C   0  0  0  0  0  0  0  0  0  0  0  0
   -2.7300   24.5380  -27.4000 C   0  0  0  0  0  0  0  0  0  0  0  0
   -4.3120   22.4820  -30.1470 N   0  0  0  0  0  0  0  0  0  0  0  0
   -7.9200   16.7562  -32.7921 H   0  0  0  0  0  0  0  0  0  0  0  0
   -5.8113   17.5195  -33.8859 H   0  0  0  0  0  0  0  0  0  0  0  0
   -5.1100   19.9084  -33.7263 H   0  0  0  0  0  0  0  0  0  0  0  0
   -9.3300   18.3771  -31.5253 H   0  0  0  0  0  0  0  0  0  0  0  0
   -9.1839   22.9156  -30.6357 H   0  0  0  0  0  0  0  0  0  0  0  0
   -7.6770   22.2005  -29.9549 H   0  0  0  0  0  0  0  0  0  0  0  0
   -8.1870   23.0214  -32.8607 H   0  0  0  0  0  0  0  0  0  0  0  0
   -7.0576   23.7917  -31.6930 H   0  0  0  0  0  0  0  0  0  0  0  0
   -4.4152   21.4968  -32.7002 H   0  0  0  0  0  0  0  0  0  0  0  0
   -5.0097   23.0476  -33.3967 H   0  0  0  0  0  0  0  0  0  0  0  0
   -3.6773   22.3446  -27.8416 H   0  0  0  0  0  0  0  0  0  0  0  0
   -4.8749   25.3122  -27.3680 H   0  0  0  0  0  0  0  0  0  0  0  0
   -4.7166   24.5800  -26.0047 H   0  0  0  0  0  0  0  0  0  0  0  0
   -2.3596   25.2933  -28.1087 H   0  0  0  0  0  0  0  0  0  0  0  0
   -1.7640   24.5578  -26.8742 H   0  0  0  0  0  0  0  0  0  0  0  0
   -4.2610   21.4580  -29.9480 H   0  0  0  0  0  0  0  0  0  0  0  0
  1  2  2  0
  2  3  1  0
  3  4  2  0
  4  5  1  0
  5  6  2  0
  5  7  1  0
  7  8  1  0
  8  9  1  0
  9 10  1  0
 10 11  1  0
 11 12  1  0
 12 13  2  0
 13 14  1  0
 14 15  1  0
 15 16  1  0
 16 17  1  0
 17 18  1  0
 15 19  2  0
  6  1  1  0
 19 12  1  0
 10  4  1  0
 18 16  1  0
  1 20  1  0
  2 21  1  0
  3 22  1  0
  6 23  1  0
  8 24  1  0
  8 25  1  0
  9 26  1  0
  9 27  1  0
 11 28  1  0
 11 29  1  0
 16 30  1  0
 17 31  1  0
 17 32  1  0
 18 33  1  0
 18 34  1  0
 19 35  1  0
M  CHG  1  19   1
M  END
>  <UniqueID>  (5) 
5

>  <SMILES>  (5) 
c1ccc2c(c1)OCCN2Cc1noc(C2CC2)[nH+]1

>  <Energy>  (5) 
336.722544477079

>  <Genealogy>  (5) 
c1ccc2c(c1)OCCN2Cc1noc(C2CC2)[nH+]1 (protonated)
c1ccc2c(c1)OCCN2Cc1noc(C2CC2)[nH+]1 (3D coordinates assigned)
c1ccc2c(c1)OCCN2Cc1noc(C2CC2)[nH+]1 (nonaromatic ring conformer: 336.722544477079 kcal/mol)

>  <smiles>  (5) 
c1ccc2c(c1)OCCN2Cc1noc(C2CC2)n1

>  <score_type>  (5) 
oracle

>  <origin>  (5) 
adg

>  <m_score__min__energy>  (5) 
-6.8600000000000003

>  <m_primary>  (5) 
energy

$$$$
5:0
     RDKit          3D

 52 55  0  0  0  0  0  0  0  0999 V2000
   -6.3440   25.3490  -29.4720 C   0  0  0  0  0  0  0  0  0  0  0  0
   -5.6480   25.4320  -30.8260 C   0  0  0  0  0  0  0  0  0  0  0  0
   -4.1990   25.5160  -30.6600 N   0  0  0  0  0  0  0  0  0  0  0  0
   -3.3380   24.5190  -30.0890 C   0  0  0  0  0  0  0  0  0  0  0  0
   -2.3940   24.9010  -29.3470 O   0  0  0  0  0  0  0  0  0  0  0  0
   -3.5310   23.0340  -30.3240 C   0  0  0  0  0  0  0  0  0  0  0  0
   -2.4310   22.2330  -29.6150 C   0  0  0  0  0  0  0  0  0  0  0  0
   -2.6490   20.7170  -29.7970 C   0  0  0  0  0  0  0  0  0  0  0  0
   -3.1820   20.3330  -31.1310 N   0  0  0  0  0  0  0  0  0  0  0  0
   -4.5980   19.9030  -31.1090 C   0  0  0  0  0  0  0  0  0  0  0  0
   -5.0570   19.4810  -32.4820 C   0  0  0  0  0  0  0  0  0  0  0  0
   -6.2250   19.8720  -33.1370 C   0  0  0  0  0  0  0  0  0  0  0  0
   -7.2600   20.7960  -32.6360 C   0  0  0  0  0  0  0  0  0  0  0  0
   -8.5750   20.3580  -32.4090 C   0  0  0  0  0  0  0  0  0  0  0  0
   -9.5420   21.2490  -31.9330 C   0  0  0  0  0  0  0  0  0  0  0  0
   -9.2000   22.5780  -31.6660 C   0  0  0  0  0  0  0  0  0  0  0  0
   -7.8870   23.0150  -31.8660 C   0  0  0  0  0  0  0  0  0  0  0  0
   -6.9180   22.1260  -32.3430 C   0  0  0  0  0  0  0  0  0  0  0  0
   -6.3580   19.1860  -34.2970 N   0  0  0  0  0  0  0  0  0  0  0  0
   -5.2600   18.4060  -34.3330 C   0  0  0  0  0  0  0  0  0  0  0  0
   -4.9480   17.4970  -35.3420 C   0  0  0  0  0  0  0  0  0  0  0  0
   -3.7780   16.7360  -35.1970 C   0  0  0  0  0  0  0  0  0  0  0  0
   -2.9650   16.8950  -34.0600 C   0  0  0  0  0  0  0  0  0  0  0  0
   -3.3290   17.8210  -33.0730 C   0  0  0  0  0  0  0  0  0  0  0  0
   -4.4630   18.5520  -33.2580 N   0  0  0  0  0  0  0  0  0  0  0  0
   -2.9270   21.3490  -32.1720 C   0  0  0  0  0  0  0  0  0  0  0  0
   -3.5710   22.7090  -31.8370 C   0  0  0  0  0  0  0  0  0  0  0  0
   -5.5969   25.4381  -28.6696 H   0  0  0  0  0  0  0  0  0  0  0  0
   -7.0750   26.1663  -29.3848 H   0  0  0  0  0  0  0  0  0  0  0  0
   -6.8623   24.3827  -29.3848 H   0  0  0  0  0  0  0  0  0  0  0  0
   -5.8924   24.5342  -31.4128 H   0  0  0  0  0  0  0  0  0  0  0  0
   -5.9963   26.3362  -31.3467 H   0  0  0  0  0  0  0  0  0  0  0  0
   -4.5012   22.7404  -29.8969 H   0  0  0  0  0  0  0  0  0  0  0  0
   -1.4543   22.5097  -30.0386 H   0  0  0  0  0  0  0  0  0  0  0  0
   -2.4640   22.4660  -28.5405 H   0  0  0  0  0  0  0  0  0  0  0  0
   -1.6836   20.2100  -29.6524 H   0  0  0  0  0  0  0  0  0  0  0  0
   -3.4043   20.4154  -29.0564 H   0  0  0  0  0  0  0  0  0  0  0  0
   -4.7053   19.0544  -30.4174 H   0  0  0  0  0  0  0  0  0  0  0  0
   -5.2162   20.7507  -30.7785 H   0  0  0  0  0  0  0  0  0  0  0  0
   -8.8453   19.3101  -32.6064 H   0  0  0  0  0  0  0  0  0  0  0  0
  -10.5733   20.9037  -31.7684 H   0  0  0  0  0  0  0  0  0  0  0  0
   -9.9635   23.2795  -31.2987 H   0  0  0  0  0  0  0  0  0  0  0  0
   -7.6158   24.0585  -31.6481 H   0  0  0  0  0  0  0  0  0  0  0  0
   -5.8836   22.4703  -32.4892 H   0  0  0  0  0  0  0  0  0  0  0  0
   -5.5970   17.3799  -36.2224 H   0  0  0  0  0  0  0  0  0  0  0  0
   -3.4954   16.0122  -35.9756 H   0  0  0  0  0  0  0  0  0  0  0  0
   -2.0493   16.2962  -33.9463 H   0  0  0  0  0  0  0  0  0  0  0  0
   -2.7137   17.9541  -32.1709 H   0  0  0  0  0  0  0  0  0  0  0  0
   -1.8403   21.4878  -32.2714 H   0  0  0  0  0  0  0  0  0  0  0  0
   -3.3750   20.9879  -33.1095 H   0  0  0  0  0  0  0  0  0  0  0  0
   -3.0300   23.4977  -32.3805 H   0  0  0  0  0  0  0  0  0  0  0  0
   -4.6279   22.6585  -32.1375 H   0  0  0  0  0  0  0  0  0  0  0  0
  1  2  1  0
  2  3  1  0
  3  4  1  0
  4  5  2  0
  4  6  1  0
  6  7  1  0
  7  8  1  0
  8  9  1  0
  9 10  1  0
 10 11  1  0
 11 12  2  0
 12 13  1  0
 13 14  2  0
 14 15  1  0
 15 16  2  0
 16 17  1  0
 17 18  2  0
 12 19  1  0
 19 20  2  0
 20 21  1  0
 21 22  2  0
 22 23  1  0
 23 24  2  0
 24 25  1  0
  9 26  1  0
 26 27  1  0
 27  6  1  0
 25 11  1  0
 18 13  1  0
 25 20  1  0
  1 28  1  0
  1 29  1  0
  1 30  1  0
  2 31  1  0
  2 32  1  0
  6 33  1  0
  7 34  1  0
  7 35  1  0
  8 36  1  0
  8 37  1  0
 10 38  1  0
 10 39  1  0
 14 40  1  0
 15 41  1  0
 16 42  1  0
 17 43  1  0
 18 44  1  0
 21 45  1  0
 22 46  1  0
 23 47  1  0
 24 48  1  0
 26 49  1  0
 26 50  1  0
 27 51  1  0
 27 52  1  0
M  CHG  1   3  -1
M  END
>  <UniqueID>  (6) 
6

>  <SMILES>  (6) 
CC[N-]C(=O)C1CCN(Cc2c(-c3ccccc3)nc3ccccn23)CC1

>  <Energy>  (6) 
100.50198045295123

>  <Genealogy>  (6) 
CC[N-]C(=O)C1CCN(Cc2c(-c3ccccc3)nc3ccccn23)CC1 (protonated)
CC[N-]C(=O)C1CCN(Cc2c(-c3ccccc3)nc3ccccn23)CC1 (3D coordinates assigned)
CC[N-]C(=O)C1CCN(Cc2c(-c3ccccc3)nc3ccccn23)CC1 (nonaromatic ring conformer: 100.50198045295123 kcal/mol)

>  <smiles>  (6) 
CCNC(=O)C1CCN(Cc2c(-c3ccccc3)nc3ccccn23)CC1

>  <score_type>  (6) 
oracle

>  <origin>  (6) 
adg

>  <m_score__min__energy>  (6) 
-10.859999999999999

>  <m_primary>  (6) 
energy

$$$$
6:0
     RDKit          3D

 37 40  0  0  0  0  0  0  0  0999 V2000
   -3.8710   25.2800  -30.5080 O   0  0  0  0  0  0  0  0  0  0  0  0
   -4.0240   24.0300  -30.4630 C   0  0  0  0  0  0  0  0  0  0  0  0
   -3.1280   23.1990  -29.7580 C   0  0  0  0  0  0  0  0  0  0  0  0
   -1.9650   23.7260  -29.0040 C   0  0  0  0  0  0  0  0  0  0  0  0
   -2.0400   24.9430  -28.3000 C   0  0  0  0  0  0  0  0  0  0  0  0
   -0.9370   25.4120  -27.5800 C   0  0  0  0  0  0  0  0  0  0  0  0
    0.2460   24.6700  -27.5460 C   0  0  0  0  0  0  0  0  0  0  0  0
    0.3250   23.4520  -28.2270 C   0  0  0  0  0  0  0  0  0  0  0  0
   -0.7750   22.9780  -28.9470 C   0  0  0  0  0  0  0  0  0  0  0  0
   -3.3430   21.8490  -29.7860 N   0  0  0  0  0  0  0  0  0  0  0  0
   -4.3700   21.3110  -30.4500 N   0  0  0  0  0  0  0  0  0  0  0  0
   -5.2180   22.1190  -31.1360 C   0  0  0  0  0  0  0  0  0  0  0  0
   -5.0590   23.4440  -31.1190 N   0  0  0  0  0  0  0  0  0  0  0  0
   -6.1330   24.0850  -31.8630 C   0  0  0  0  0  0  0  0  0  0  0  0
   -7.0330   22.9120  -32.3300 C   0  0  0  0  0  0  0  0  0  0  0  0
   -6.3680   21.7000  -31.8510 N   0  0  0  0  0  0  0  0  0  0  0  0
   -6.6780   20.3730  -32.3060 C   0  0  0  0  0  0  0  0  0  0  0  0
   -5.8560   19.7490  -33.2580 C   0  0  0  0  0  0  0  0  0  0  0  0
   -6.1370   18.4490  -33.6910 C   0  0  0  0  0  0  0  0  0  0  0  0
   -7.2330   17.7580  -33.1670 C   0  0  0  0  0  0  0  0  0  0  0  0
   -8.0450   18.3640  -32.2040 C   0  0  0  0  0  0  0  0  0  0  0  0
   -7.7670   19.6640  -31.7690 C   0  0  0  0  0  0  0  0  0  0  0  0
   -2.9714   25.5280  -28.3165 H   0  0  0  0  0  0  0  0  0  0  0  0
   -1.0010   26.3676  -27.0390 H   0  0  0  0  0  0  0  0  0  0  0  0
    1.1145   25.0439  -26.9839 H   0  0  0  0  0  0  0  0  0  0  0  0
    1.2549   22.8653  -28.1962 H   0  0  0  0  0  0  0  0  0  0  0  0
   -0.7099   22.0138  -29.4725 H   0  0  0  0  0  0  0  0  0  0  0  0
   -4.5180   20.2790  -30.4130 H   0  0  0  0  0  0  0  0  0  0  0  0
   -6.6964   24.7744  -31.2170 H   0  0  0  0  0  0  0  0  0  0  0  0
   -5.7588   24.6867  -32.7044 H   0  0  0  0  0  0  0  0  0  0  0  0
   -8.0379   22.9991  -31.8911 H   0  0  0  0  0  0  0  0  0  0  0  0
   -7.1621   22.9042  -33.4224 H   0  0  0  0  0  0  0  0  0  0  0  0
   -4.9864   20.2854  -33.6655 H   0  0  0  0  0  0  0  0  0  0  0  0
   -5.4947   17.9700  -34.4447 H   0  0  0  0  0  0  0  0  0  0  0  0
   -7.4565   16.7378  -33.5122 H   0  0  0  0  0  0  0  0  0  0  0  0
   -8.9041   17.8176  -31.7876 H   0  0  0  0  0  0  0  0  0  0  0  0
   -8.4028   20.1335  -31.0039 H   0  0  0  0  0  0  0  0  0  0  0  0
  1  2  2  0
  2  3  1  0
  3  4  1  0
  4  5  2  0
  5  6  1  0
  6  7  2  0
  7  8  1  0
  8  9  2  0
  3 10  2  0
 10 11  1  0
 11 12  2  0
 12 13  1  0
 13 14  1  0
 14 15  1  0
 15 16  1  0
 16 17  1  0
 17 18  2  0
 18 19  1  0
 19 20  2  0
 20 21  1  0
 21 22  2  0
 13  2  1  0
 22 17  1  0
  9  4  1  0
 16 12  1  0
  5 23  1  0
  6 24  1  0
  7 25  1  0
  8 26  1  0
  9 27  1  0
 11 28  1  0
 14 29  1  0
 14 30  1  0
 15 31  1  0
 15 32  1  0
 18 33  1  0
 19 34  1  0
 20 35  1  0
 21 36  1  0
 22 37  1  0
M  CHG  1  11   1
M  END
>  <UniqueID>  (7) 
7

>  <SMILES>  (7) 
O=c1c(-c2ccccc2)n[nH+]c2n1CCN2c1ccccc1

>  <Energy>  (7) 
69.19532285134879

>  <Genealogy>  (7) 
O=c1c(-c2ccccc2)n[nH+]c2n1CCN2c1ccccc1 (protonated)
O=c1c(-c2ccccc2)n[nH+]c2n1CCN2c1ccccc1 (3D coordinates assigned)
O=c1c(-c2ccccc2)n[nH+]c2n1CCN2c1ccccc1 (nonaromatic ring conformer: 69.19532285134879 kcal/mol)

>  <smiles>  (7) 
O=c1c(-c2ccccc2)nnc2n1CCN2c1ccccc1

>  <score_type>  (7) 
oracle

>  <origin>  (7) 
adg

>  <m_score__min__energy>  (7) 
-7.3600000000000003

>  <m_primary>  (7) 
energy

$$$$
7:0
     RDKit          3D

 44 46  0  0  0  0  0  0  0  0999 V2000
   -4.0040   22.6960  -28.3220 C   0  0  0  0  0  0  0  0  0  0  0  0
   -4.5950   24.1010  -28.3300 C   0  0  0  0  0  0  0  0  0  0  0  0
   -5.3170   24.4860  -29.9170 S   0  0  0  0  0  0  0  0  0  0  0  0
   -4.2270   24.7590  -30.9160 O   0  0  0  0  0  0  0  0  0  0  0  0
   -6.1740   25.7140  -29.7930 O   0  0  0  0  0  0  0  0  0  0  0  0
   -6.2920   23.1390  -30.4780 C   0  0  0  0  0  0  0  0  0  0  0  0
   -7.6240   23.0000  -30.0670 C   0  0  0  0  0  0  0  0  0  0  0  0
   -8.3710   21.9100  -30.5170 C   0  0  0  0  0  0  0  0  0  0  0  0
   -7.7800   20.9650  -31.3600 C   0  0  0  0  0  0  0  0  0  0  0  0
   -8.4980   19.9050  -31.8190 N   0  0  0  0  0  0  0  0  0  0  0  0
   -7.9470   18.9780  -32.6450 C   0  0  0  0  0  0  0  0  0  0  0  0
   -6.6120   19.0920  -33.0410 C   0  0  0  0  0  0  0  0  0  0  0  0
   -5.8320   20.1650  -32.5810 C   0  0  0  0  0  0  0  0  0  0  0  0
   -4.4090   20.2660  -32.9880 C   0  0  0  0  0  0  0  0  0  0  0  0
   -3.5540   19.1620  -32.8980 C   0  0  0  0  0  0  0  0  0  0  0  0
   -2.2570   19.2730  -33.2780 N   0  0  0  0  0  0  0  0  0  0  0  0
   -1.7450   20.4510  -33.7300 C   0  0  0  0  0  0  0  0  0  0  0  0
   -0.3030   20.5300  -34.1990 C   0  0  0  0  0  0  0  0  0  0  0  0
    0.6730   20.2590  -33.0340 C   0  0  0  0  0  0  0  0  0  0  0  0
   -0.0930   19.4880  -35.3130 C   0  0  0  0  0  0  0  0  0  0  0  0
   -0.0660   21.8240  -34.7040 O   0  0  0  0  0  0  0  0  0  0  0  0
   -2.5650   21.5370  -33.8360 N   0  0  0  0  0  0  0  0  0  0  0  0
   -3.8700   21.4690  -33.4670 C   0  0  0  0  0  0  0  0  0  0  0  0
   -6.4300   21.1230  -31.7360 C   0  0  0  0  0  0  0  0  0  0  0  0
   -5.7340   22.2060  -31.2930 N   0  0  0  0  0  0  0  0  0  0  0  0
   -3.8639   22.3630  -27.2830 H   0  0  0  0  0  0  0  0  0  0  0  0
   -4.6887   22.0073  -28.8386 H   0  0  0  0  0  0  0  0  0  0  0  0
   -3.0329   22.7038  -28.8386 H   0  0  0  0  0  0  0  0  0  0  0  0
   -5.3733   24.1677  -27.5556 H   0  0  0  0  0  0  0  0  0  0  0  0
   -3.7875   24.8207  -28.1298 H   0  0  0  0  0  0  0  0  0  0  0  0
   -8.0775   23.7436  -29.3952 H   0  0  0  0  0  0  0  0  0  0  0  0
   -9.4208   21.7953  -30.2092 H   0  0  0  0  0  0  0  0  0  0  0  0
   -8.5545   18.1340  -33.0036 H   0  0  0  0  0  0  0  0  0  0  0  0
   -6.1719   18.3409  -33.7134 H   0  0  0  0  0  0  0  0  0  0  0  0
   -3.9346   18.2023  -32.5183 H   0  0  0  0  0  0  0  0  0  0  0  0
    0.1507   20.4040  -32.0768 H   0  0  0  0  0  0  0  0  0  0  0  0
    1.0416   19.2245  -33.0975 H   0  0  0  0  0  0  0  0  0  0  0  0
    1.5222   20.9553  -33.0975 H   0  0  0  0  0  0  0  0  0  0  0  0
    0.1052   18.5043  -34.8623 H   0  0  0  0  0  0  0  0  0  0  0  0
   -0.9976   19.4302  -35.9363 H   0  0  0  0  0  0  0  0  0  0  0  0
    0.7633   19.7851  -35.9363 H   0  0  0  0  0  0  0  0  0  0  0  0
   -0.8420   22.0840  -35.2670 H   0  0  0  0  0  0  0  0  0  0  0  0
   -2.2000   22.4430  -34.2090 H   0  0  0  0  0  0  0  0  0  0  0  0
   -4.5077   22.3620  -33.5441 H   0  0  0  0  0  0  0  0  0  0  0  0
  1  2  1  0
  2  3  1  0
  3  4  2  0
  3  5  2  0
  3  6  1  0
  6  7  2  0
  7  8  1  0
  8  9  2  0
  9 10  1  0
 10 11  2  0
 11 12  1  0
 12 13  2  0
 13 14  1  0
 14 15  2  0
 15 16  1  0
 16 17  2  0
 17 18  1  0
 18 19  1  0
 18 20  1  0
 18 21  1  0
 17 22  1  0
 22 23  2  0
 13 24  1  0
 24 25  2  0
 25  6  1  0
 24  9  1  0
 23 14  1  0
  1 26  1  0
  1 27  1  0
  1 28  1  0
  2 29  1  0
  2 30  1  0
  7 31  1  0
  8 32  1  0
 11 33  1  0
 12 34  1  0
 15 35  1  0
 19 36  1  0
 19 37  1  0
 19 38  1  0
 20 39  1  0
 20 40  1  0
 20 41  1  0
 21 42  1  0
 22 43  1  0
 23 44  1  0
M  CHG  1  22   1
M  END
>  <UniqueID>  (8) 
8

>  <SMILES>  (8) 
CCS(=O)(=O)c1ccc2nccc(-c3cnc(C(C)(C)O)[nH+]c3)c2n1

>  <Energy>  (8) 
48.430333239880646

>  <Genealogy>  (8) 
CCS(=O)(=O)c1ccc2nccc(-c3cnc(C(C)(C)O)[nH+]c3)c2n1 (protonated)
CCS(=O)(=O)c1ccc2nccc(-c3cnc(C(C)(C)O)[nH+]c3)c2n1 (3D coordinates assigned)
CCS(=O)(=O)c1ccc2nccc(-c3cnc(C(C)(C)O)[nH+]c3)c2n1 (optimized conformer: 48.430333239880646 kcal/mol)

>  <smiles>  (8) 
CCS(=O)(=O)c1ccc2nccc(-c3cnc(C(C)(C)O)nc3)c2n1

>  <score_type>  (8) 
oracle

>  <origin>  (8) 
adg

>  <m_score__min__energy>  (8) 
-8.8399999999999999

>  <m_primary>  (8) 
energy

$$$$
8:0
     RDKit          3D

 49 51  0  0  0  0  0  0  0  0999 V2000
   -9.0720   18.5310  -31.6110 C   0  0  0  0  0  0  0  0  0  0  0  0
   -7.6920   18.3360  -31.3100 O   0  0  0  0  0  0  0  0  0  0  0  0
   -6.6330   18.7660  -32.1280 C   0  0  0  0  0  0  0  0  0  0  0  0
   -6.5320   18.4020  -33.4860 C   0  0  0  0  0  0  0  0  0  0  0  0
   -5.4580   18.8550  -34.2580 C   0  0  0  0  0  0  0  0  0  0  0  0
   -4.4800   19.6730  -33.6880 C   0  0  0  0  0  0  0  0  0  0  0  0
   -4.5680   20.0520  -32.3380 C   0  0  0  0  0  0  0  0  0  0  0  0
   -3.5200   20.9070  -31.7280 C   0  0  0  0  0  0  0  0  0  0  0  0
   -3.8860   22.1160  -31.1090 C   0  0  0  0  0  0  0  0  0  0  0  0
   -2.9260   22.9240  -30.4840 C   0  0  0  0  0  0  0  0  0  0  0  0
   -3.3400   24.1560  -29.7790 C   0  0  0  0  0  0  0  0  0  0  0  0
   -3.2260   24.2100  -28.5240 O   0  0  0  0  0  0  0  0  0  0  0  0
   -3.8470   25.2990  -30.4730 N   0  0  0  0  0  0  0  0  0  0  0  0
   -5.2450   25.7250  -30.4620 C   0  0  0  0  0  0  0  0  0  0  0  0
   -6.0790   24.7780  -29.5970 C   0  0  0  0  0  0  0  0  0  0  0  0
   -6.7640   23.7210  -30.4240 C   0  0  0  0  0  0  0  0  0  0  0  0
   -6.6360   23.7180  -31.8230 C   0  0  0  0  0  0  0  0  0  0  0  0
   -7.2810   22.7410  -32.5880 C   0  0  0  0  0  0  0  0  0  0  0  0
   -8.0720   21.7720  -31.9660 C   0  0  0  0  0  0  0  0  0  0  0  0
   -8.2190   21.7780  -30.5760 C   0  0  0  0  0  0  0  0  0  0  0  0
   -7.5670   22.7480  -29.8060 C   0  0  0  0  0  0  0  0  0  0  0  0
   -1.5910   22.4970  -30.4500 C   0  0  0  0  0  0  0  0  0  0  0  0
   -1.2100   21.3110  -31.0810 C   0  0  0  0  0  0  0  0  0  0  0  0
   -2.1660   20.5080  -31.7330 C   0  0  0  0  0  0  0  0  0  0  0  0
   -1.8060   19.3220  -32.3980 O   0  0  0  0  0  0  0  0  0  0  0  0
   -0.7390   18.4650  -32.0080 C   0  0  0  0  0  0  0  0  0  0  0  0
   -5.6470   19.5850  -31.5630 C   0  0  0  0  0  0  0  0  0  0  0  0
   -9.6437   18.6118  -30.6747 H   0  0  0  0  0  0  0  0  0  0  0  0
   -9.1928   19.4551  -32.1953 H   0  0  0  0  0  0  0  0  0  0  0  0
   -9.4442   17.6765  -32.1953 H   0  0  0  0  0  0  0  0  0  0  0  0
   -7.3008   17.7594  -33.9399 H   0  0  0  0  0  0  0  0  0  0  0  0
   -5.3831   18.5665  -35.3168 H   0  0  0  0  0  0  0  0  0  0  0  0
   -3.6355   20.0228  -34.2999 H   0  0  0  0  0  0  0  0  0  0  0  0
   -4.9397   22.4316  -31.1155 H   0  0  0  0  0  0  0  0  0  0  0  0
   -5.3112   26.7440  -30.0529 H   0  0  0  0  0  0  0  0  0  0  0  0
   -5.6337   25.7075  -31.4909 H   0  0  0  0  0  0  0  0  0  0  0  0
   -5.4179   24.2866  -28.8680 H   0  0  0  0  0  0  0  0  0  0  0  0
   -6.8545   25.3715  -29.0907 H   0  0  0  0  0  0  0  0  0  0  0  0
   -6.0259   24.4874  -32.3188 H   0  0  0  0  0  0  0  0  0  0  0  0
   -7.1652   22.7355  -33.6819 H   0  0  0  0  0  0  0  0  0  0  0  0
   -8.5788   21.0048  -32.5697 H   0  0  0  0  0  0  0  0  0  0  0  0
   -8.8478   21.0195  -30.0868 H   0  0  0  0  0  0  0  0  0  0  0  0
   -7.6838   22.7485  -28.7122 H   0  0  0  0  0  0  0  0  0  0  0  0
   -0.8380   23.1008  -29.9223 H   0  0  0  0  0  0  0  0  0  0  0  0
   -0.1546   21.0013  -31.0688 H   0  0  0  0  0  0  0  0  0  0  0  0
   -0.6857   18.4222  -30.9101 H   0  0  0  0  0  0  0  0  0  0  0  0
   -0.9157   17.4549  -32.4062 H   0  0  0  0  0  0  0  0  0  0  0  0
    0.2092   18.8554  -32.4062 H   0  0  0  0  0  0  0  0  0  0  0  0
   -5.7164   19.8665  -30.5019 H   0  0  0  0  0  0  0  0  0  0  0  0
  1  2  1  0
  2  3  1  0
  3  4  2  0
  4  5  1  0
  5  6  2  0
  6  7  1  0
  7  8  1  0
  8  9  2  0
  9 10  1  0
 10 11  1  0
 11 12  2  0
 11 13  1  0
 13 14  1  0
 14 15  1  0
 15 16  1  0
 16 17  2  0
 17 18  1  0
 18 19  2  0
 19 20  1  0
 20 21  2  0
 10 22  2  0
 22 23  1  0
 23 24  2  0
 24 25  1  0
 25 26  1  0
  7 27  2  0
 27  3  1  0
 24  8  1  0
 21 16  1  0
  1 28  1  0
  1 29  1  0
  1 30  1  0
  4 31  1  0
  5 32  1  0
  6 33  1  0
  9 34  1  0
 14 35  1  0
 14 36  1  0
 15 37  1  0
 15 38  1  0
 17 39  1  0
 18 40  1  0
 19 41  1  0
 20 42  1  0
 21 43  1  0
 22 44  1  0
 23 45  1  0
 26 46  1  0
 26 47  1  0
 26 48  1  0
 27 49  1  0
M  CHG  1  13  -1
M  END
>  <UniqueID>  (9) 
9

>  <SMILES>  (9) 
COc1cccc(-c2cc(C(=O)[N-]CCc3ccccc3)ccc2OC)c1

>  <Energy>  (9) 
58.84234722861149

>  <Genealogy>  (9) 
COc1cccc(-c2cc(C(=O)[N-]CCc3ccccc3)ccc2OC)c1 (protonated)
COc1cccc(-c2cc(C(=O)[N-]CCc3ccccc3)ccc2OC)c1 (3D coordinates assigned)
COc1cccc(-c2cc(C(=O)[N-]CCc3ccccc3)ccc2OC)c1 (optimized conformer: 58.84234722861149 kcal/mol)

>  <smiles>  (9) 
COc1cccc(-c2cc(C(=O)NCCc3ccccc3)ccc2OC)c1

>  <score_type>  (9) 
oracle

>  <origin>  (9) 
adg

>  <m_score__min__energy>  (9) 
-9.9100000000000001

>  <m_primary>  (9) 
energy

$$$$
9:0
     RDKit          3D

 42 44  0  0  0  0  0  0  0  0999 V2000
   -7.9690   23.1000  -31.9420 C   0  0  0  0  0  0  0  0  0  0  0  0
   -7.3000   22.0670  -32.6580 O   0  0  0  0  0  0  0  0  0  0  0  0
   -7.5520   20.6940  -32.5010 C   0  0  0  0  0  0  0  0  0  0  0  0
   -8.8190   20.2120  -32.1140 C   0  0  0  0  0  0  0  0  0  0  0  0
   -9.0400   18.8410  -31.9670 C   0  0  0  0  0  0  0  0  0  0  0  0
   -8.0060   17.9360  -32.2030 C   0  0  0  0  0  0  0  0  0  0  0  0
   -6.7460   18.3970  -32.5860 C   0  0  0  0  0  0  0  0  0  0  0  0
   -6.5080   19.7750  -32.7360 C   0  0  0  0  0  0  0  0  0  0  0  0
   -5.1410   20.2530  -33.1780 C   0  0  0  0  0  0  0  0  0  0  0  0
   -4.8990   21.6570  -32.8040 N   0  0  0  0  0  0  0  0  0  0  0  0
   -3.4730   21.9230  -32.5560 C   0  0  0  0  0  0  0  0  0  0  0  0
   -3.2840   22.5870  -31.2170 C   0  0  0  0  0  0  0  0  0  0  0  0
   -4.3080   23.2150  -30.5130 C   0  0  0  0  0  0  0  0  0  0  0  0
   -3.7450   23.5920  -29.3140 C   0  0  0  0  0  0  0  0  0  0  0  0
   -4.3130   24.2340  -28.2160 C   0  0  0  0  0  0  0  0  0  0  0  0
   -3.4960   24.4600  -27.0940 C   0  0  0  0  0  0  0  0  0  0  0  0
   -2.1490   24.0400  -27.0930 C   0  0  0  0  0  0  0  0  0  0  0  0
   -1.6040   23.3890  -28.2150 C   0  0  0  0  0  0  0  0  0  0  0  0
   -2.4340   23.1840  -29.3230 C   0  0  0  0  0  0  0  0  0  0  0  0
   -2.1350   22.5750  -30.4880 N   0  0  0  0  0  0  0  0  0  0  0  0
   -0.8690   21.9180  -30.8210 C   0  0  0  0  0  0  0  0  0  0  0  0
   -7.8578   22.9283  -30.8612 H   0  0  0  0  0  0  0  0  0  0  0  0
   -7.5292   24.0731  -32.2058 H   0  0  0  0  0  0  0  0  0  0  0  0
   -9.0369   23.0967  -32.2058 H   0  0  0  0  0  0  0  0  0  0  0  0
   -9.6391   20.9207  -31.9265 H   0  0  0  0  0  0  0  0  0  0  0  0
  -10.0319   18.4743  -31.6644 H   0  0  0  0  0  0  0  0  0  0  0  0
   -8.1839   16.8567  -32.0870 H   0  0  0  0  0  0  0  0  0  0  0  0
   -5.9341   17.6785  -32.7717 H   0  0  0  0  0  0  0  0  0  0  0  0
   -4.3742   19.6223  -32.7045 H   0  0  0  0  0  0  0  0  0  0  0  0
   -5.0945   20.1810  -34.2747 H   0  0  0  0  0  0  0  0  0  0  0  0
   -5.4410   21.8560  -31.9320 H   0  0  0  0  0  0  0  0  0  0  0  0
   -5.2510   22.2930  -33.5580 H   0  0  0  0  0  0  0  0  0  0  0  0
   -2.9199   20.9722  -32.5696 H   0  0  0  0  0  0  0  0  0  0  0  0
   -3.0949   22.5937  -33.3416 H   0  0  0  0  0  0  0  0  0  0  0  0
   -5.3447   23.3756  -30.8437 H   0  0  0  0  0  0  0  0  0  0  0  0
   -5.3655   24.5535  -28.2263 H   0  0  0  0  0  0  0  0  0  0  0  0
   -3.9101   24.9680  -26.2106 H   0  0  0  0  0  0  0  0  0  0  0  0
   -1.5206   24.2228  -26.2089 H   0  0  0  0  0  0  0  0  0  0  0  0
   -0.5571   23.0514  -28.2211 H   0  0  0  0  0  0  0  0  0  0  0  0
   -0.3428   21.6449  -29.8944 H   0  0  0  0  0  0  0  0  0  0  0  0
   -1.0704   21.0106  -31.4093 H   0  0  0  0  0  0  0  0  0  0  0  0
   -0.2430   22.6050  -31.4093 H   0  0  0  0  0  0  0  0  0  0  0  0
  1  2  1  0
  2  3  1  0
  3  4  2  0
  4  5  1  0
  5  6  2  0
  6  7  1  0
  7  8  2  0
  8  9  1  0
  9 10  1  0
 10 11  1  0
 11 12  1  0
 12 13  2  0
 13 14  1  0
 14 15  2  0
 15 16  1  0
 16 17  2  0
 17 18  1  0
 18 19  2  0
 19 20  1  0
 20 21  1  0
  8  3  1  0
 20 12  1  0
 19 14  1  0
  1 22  1  0
  1 23  1  0
  1 24  1  0
  4 25  1  0
  5 26  1  0
  6 27  1  0
  7 28  1  0
  9 29  1  0
  9 30  1  0
 10 31  1  0
 10 32  1  0
 11 33  1  0
 11 34  1  0
 13 35  1  0
 15 36  1  0
 16 37  1  0
 17 38  1  0
 18 39  1  0
 21 40  1  0
 21 41  1  0
 21 42  1  0
M  CHG  1  10   1
M  END
>  <UniqueID>  (10) 
10

>  <SMILES>  (10) 
COc1ccccc1C[NH2+]Cc1cc2ccccc2n1C

>  <Energy>  (10) 
76.21534439220159

>  <Genealogy>  (10) 
COc1ccccc1C[NH2+]Cc1cc2ccccc2n1C (protonated)
COc1ccccc1C[NH2+]Cc1cc2ccccc2n1C (3D coordinates assigned)
COc1ccccc1C[NH2+]Cc1cc2ccccc2n1C (optimized conformer: 76.21534439220159 kcal/mol)

>  <smiles>  (10) 
COc1ccccc1CNCc1cc2ccccc2n1C

>  <score_type>  (10) 
oracle

>  <origin>  (10) 
adg

>  <m_score__min__energy>  (10) 
-7.5999999999999996

>  <m_primary>  (10) 
energy

$$$$
10:0
     RDKit          3D

 39 41  0  0  1  0  0  0  0  0999 V2000
   -1.6480   22.6460  -30.0870 C   0  0  0  0  0  0  0  0  0  0  0  0
   -1.9830   22.6270  -31.4410 O   0  0  0  0  0  0  0  0  0  0  0  0
   -2.0510   21.4910  -32.2040 C   0  0  0  0  0  0  0  0  0  0  0  0
   -0.8420   20.8430  -32.4650 C   0  0  0  0  0  0  0  0  0  0  0  0
   -0.8050   19.6940  -33.2220 C   0  0  0  0  0  0  0  0  0  0  0  0
   -2.0030   19.2200  -33.7030 C   0  0  0  0  0  0  0  0  0  0  0  0
   -3.1880   19.8610  -33.4430 C   0  0  0  0  0  0  0  0  0  0  0  0
   -3.2550   21.0340  -32.6740 C   0  0  0  0  0  0  0  0  0  0  0  0
   -4.5420   21.6390  -32.4520 C   0  0  0  0  0  0  0  0  0  0  0  0
   -5.6320   20.8200  -32.5100 N   0  0  0  0  0  0  0  0  0  0  0  0
   -6.8880   21.2510  -32.3250 C   0  0  0  0  0  0  0  0  0  0  0  0
   -7.9030   20.3980  -32.4090 N   0  0  0  0  0  0  0  0  0  0  0  0
   -9.1510   20.8690  -32.2370 C   0  0  0  0  0  0  0  0  0  0  0  0
   -9.4630   22.1710  -31.9810 C   0  0  0  0  0  0  0  0  0  0  0  0
   -8.4000   23.0970  -31.8860 C   0  0  0  0  0  0  0  0  0  0  0  0
   -7.1540   22.5870  -32.0590 C   0  0  0  0  0  0  0  0  0  0  0  0
   -6.0560   23.4030  -31.9960 C   0  0  0  0  0  0  0  0  0  0  0  0
   -6.1740   24.5790  -31.5830 N   0  0  0  0  0  0  0  0  0  0  0  0
   -6.1820   25.1250  -30.2740 C   0  0  0  0  0  0  0  0  0  0  0  0
   -4.7460   24.6250  -29.8260 C   0  0  0  0  0  0  0  0  0  0  0  0
   -3.8570   25.1720  -30.8300 N   0  0  0  0  0  0  0  0  0  0  0  0
   -4.8020   22.9210  -32.1920 N   0  0  0  0  0  0  0  0  0  0  0  0
   -2.5650   22.5940  -29.4816 H   0  0  0  0  0  0  0  0  0  0  0  0
   -1.0066   21.7828  -29.8558 H   0  0  0  0  0  0  0  0  0  0  0  0
   -1.1083   23.5762  -29.8558 H   0  0  0  0  0  0  0  0  0  0  0  0
    0.0935   21.2564  -32.0602 H   0  0  0  0  0  0  0  0  0  0  0  0
    0.1426   19.1769  -33.4333 H   0  0  0  0  0  0  0  0  0  0  0  0
   -2.0115   18.3037  -34.3116 H   0  0  0  0  0  0  0  0  0  0  0  0
   -4.1189   19.4409  -33.8516 H   0  0  0  0  0  0  0  0  0  0  0  0
   -9.9810   20.1507  -32.3081 H   0  0  0  0  0  0  0  0  0  0  0  0
  -10.5078   22.4902  -31.8526 H   0  0  0  0  0  0  0  0  0  0  0  0
   -8.5715   24.1647  -31.6844 H   0  0  0  0  0  0  0  0  0  0  0  0
   -6.2595   26.2223  -30.2794 H   0  0  0  0  0  0  0  0  0  0  0  0
   -7.0224   24.8281  -29.6293 H   0  0  0  0  0  0  0  0  0  0  0  0
   -4.4919   25.0094  -28.8272 H   0  0  0  0  0  0  0  0  0  0  0  0
   -4.6818   23.5292  -29.7547 H   0  0  0  0  0  0  0  0  0  0  0  0
   -3.1650   24.4850  -31.1950 H   0  0  0  0  0  0  0  0  0  0  0  0
   -4.3530   25.6760  -31.5860 H   0  0  0  0  0  0  0  0  0  0  0  0
   -4.0210   23.5930  -32.1370 H   0  0  0  0  0  0  0  0  0  0  0  0
  1  2  1  0
  2  3  1  0
  3  4  2  0
  4  5  1  0
  5  6  2  0
  6  7  1  0
  7  8  2  0
  8  9  1  0
  9 10  2  0
 10 11  1  0
 11 12  2  0
 12 13  1  0
 13 14  2  0
 14 15  1  0
 15 16  2  0
 16 17  1  0
 17 18  2  0
 18 19  1  0
 19 20  1  0
 20 21  1  0
 17 22  1  0
  8  3  1  0
 22  9  1  0
 16 11  1  0
  1 23  1  0
  1 24  1  0
  1 25  1  0
  4 26  1  0
  5 27  1  0
  6 28  1  0
  7 29  1  0
 13 30  1  0
 14 31  1  0
 15 32  1  0
 19 33  1  0
 19 34  1  0
 20 35  1  0
 20 36  1  0
 21 37  1  0
 21 38  1  0
 22 39  1  0
M  END
>  <smiles>  (11) 
COc1ccccc1-c1nc2ncccc2c(=NCCN)[nH]1

>  <score_type>  (11) 
oracle

>  <origin>  (11) 
adg

>  <m_score__min__energy>  (11) 
-7.3799999999999999

>  <m_primary>  (11) 
energy

$$$$
11:0
     RDKit          3D

 37 39  0  0  0  0  0  0  0  0999 V2000
   -0.3230   20.3980  -33.5900 C   0  0  0  0  0  0  0  0  0  0  0  0
   -1.4350   21.0620  -32.8340 C   0  0  0  0  0  0  0  0  0  0  0  0
   -1.2040   21.5930  -31.5560 C   0  0  0  0  0  0  0  0  0  0  0  0
   -2.2300   22.2450  -30.8660 C   0  0  0  0  0  0  0  0  0  0  0  0
   -3.4980   22.3990  -31.4570 C   0  0  0  0  0  0  0  0  0  0  0  0
   -4.5770   23.0440  -30.7600 N   0  0  0  0  0  0  0  0  0  0  0  0
   -4.4850   24.3450  -30.1580 C   0  0  0  0  0  0  0  0  0  0  0  0
   -3.5090   25.1020  -30.4110 O   0  0  0  0  0  0  0  0  0  0  0  0
   -5.6010   24.8510  -29.2950 C   0  0  0  0  0  0  0  0  0  0  0  0
   -6.8990   24.9490  -30.0980 C   0  0  0  0  0  0  0  0  0  0  0  0
   -7.0340   23.7890  -30.9690 N   0  0  0  0  0  0  0  0  0  0  0  0
   -6.6400   23.7530  -32.2310 N   0  0  0  0  0  0  0  0  0  0  0  0
   -6.8490   22.5380  -32.7110 N   0  0  0  0  0  0  0  0  0  0  0  0
   -7.3760   21.8460  -31.6790 C   0  0  0  0  0  0  0  0  0  0  0  0
   -7.7640   20.4320  -31.7430 C   0  0  0  0  0  0  0  0  0  0  0  0
   -9.0500   19.9310  -31.5800 C   0  0  0  0  0  0  0  0  0  0  0  0
   -9.1150   18.5370  -31.6960 C   0  0  0  0  0  0  0  0  0  0  0  0
   -7.8870   17.9400  -31.9520 C   0  0  0  0  0  0  0  0  0  0  0  0
   -6.7190   19.1480  -32.0320 S   0  0  0  0  0  0  0  0  0  0  0  0
   -7.4920   22.6120  -30.5780 N   0  0  0  0  0  0  0  0  0  0  0  0
   -3.7260   21.8630  -32.7320 C   0  0  0  0  0  0  0  0  0  0  0  0
   -2.6990   21.2120  -33.4230 C   0  0  0  0  0  0  0  0  0  0  0  0
    0.3978   19.9676  -32.8792 H   0  0  0  0  0  0  0  0  0  0  0  0
   -0.7360   19.5985  -34.2227 H   0  0  0  0  0  0  0  0  0  0  0  0
    0.1849   21.1408  -34.2227 H   0  0  0  0  0  0  0  0  0  0  0  0
   -0.2102   21.4957  -31.0946 H   0  0  0  0  0  0  0  0  0  0  0  0
   -2.0454   22.6397  -29.8560 H   0  0  0  0  0  0  0  0  0  0  0  0
   -5.5130   22.5770  -30.7640 H   0  0  0  0  0  0  0  0  0  0  0  0
   -5.7484   24.1597  -28.4521 H   0  0  0  0  0  0  0  0  0  0  0  0
   -5.3368   25.8521  -28.9236 H   0  0  0  0  0  0  0  0  0  0  0  0
   -7.7535   24.9867  -29.4063 H   0  0  0  0  0  0  0  0  0  0  0  0
   -6.8760   25.8613  -30.7121 H   0  0  0  0  0  0  0  0  0  0  0  0
   -9.9268   20.5645  -31.3804 H   0  0  0  0  0  0  0  0  0  0  0  0
  -10.0508   17.9679  -31.5940 H   0  0  0  0  0  0  0  0  0  0  0  0
   -7.7089   16.8621  -32.0804 H   0  0  0  0  0  0  0  0  0  0  0  0
   -4.7206   21.9551  -33.1927 H   0  0  0  0  0  0  0  0  0  0  0  0
   -2.8833   20.8160  -34.4326 H   0  0  0  0  0  0  0  0  0  0  0  0
  1  2  1  0
  2  3  2  0
  3  4  1  0
  4  5  2  0
  5  6  1  0
  6  7  1  0
  7  8  2  0
  7  9  1  0
  9 10  1  0
 10 11  1  0
 11 12  1  0
 12 13  2  0
 13 14  1  0
 14 15  1  0
 15 16  2  0
 16 17  1  0
 17 18  2  0
 18 19  1  0
 14 20  2  0
  5 21  1  0
 21 22  2  0
 22  2  1  0
 20 11  1  0
 19 15  1  0
  1 23  1  0
  1 24  1  0
  1 25  1  0
  3 26  1  0
  4 27  1  0
  6 28  1  0
  9 29  1  0
  9 30  1  0
 10 31  1  0
 10 32  1  0
 16 33  1  0
 17 34  1  0
 18 35  1  0
 21 36  1  0
 22 37  1  0
M  END
>  <UniqueID>  (12) 
11

>  <SMILES>  (12) 
Cc1ccc(NC(=O)CCn2nnc(-c3cccs3)n2)cc1

>  <Energy>  (12) 
100.55816697631934

>  <Genealogy>  (12) 
Cc1ccc(NC(=O)CCn2nnc(-c3cccs3)n2)cc1 (3D coordinates assigned)
Cc1ccc(NC(=O)CCn2nnc(-c3cccs3)n2)cc1 (optimized conformer: 100.55816697631934 kcal/mol)

>  <smiles>  (12) 
Cc1ccc(NC(=O)CCn2nnc(-c3cccs3)n2)cc1

>  <score_type>  (12) 
oracle

>  <origin>  (12) 
adg

>  <m_score__min__energy>  (12) 
-8.3900000000000006

>  <m_primary>  (12) 
energy

$$$$
12:0
     RDKit          3D

 29 31  0  0  0  0  0  0  0  0999 V2000
   -8.7670   18.5860  -30.8550 O   0  0  0  0  0  0  0  0  0  0  0  0
   -8.3890   19.4280  -32.0390 S   0  0  0  0  0  0  0  0  0  0  0  0
   -9.5510   19.5610  -32.9820 O   0  0  0  0  0  0  0  0  0  0  0  0
   -7.8980   20.9910  -31.5070 N   0  0  0  0  0  0  0  0  0  0  0  0
   -6.5540   21.4700  -31.6730 C   0  0  0  0  0  0  0  0  0  0  0  0
   -6.2050   22.8000  -31.1090 C   0  0  0  0  0  0  0  0  0  0  0  0
   -7.2040   23.6770  -30.6450 C   0  0  0  0  0  0  0  0  0  0  0  0
   -6.8600   24.9210  -30.1080 C   0  0  0  0  0  0  0  0  0  0  0  0
   -5.5180   25.3010  -30.0250 C   0  0  0  0  0  0  0  0  0  0  0  0
   -4.5180   24.4370  -30.4770 C   0  0  0  0  0  0  0  0  0  0  0  0
   -4.8570   23.1910  -31.0150 C   0  0  0  0  0  0  0  0  0  0  0  0
   -5.6080   20.7480  -32.3130 C   0  0  0  0  0  0  0  0  0  0  0  0
   -5.8070   19.4100  -32.9300 C   0  0  0  0  0  0  0  0  0  0  0  0
   -4.7250   18.8110  -33.5990 C   0  0  0  0  0  0  0  0  0  0  0  0
   -4.8620   17.5540  -34.1950 C   0  0  0  0  0  0  0  0  0  0  0  0
   -6.0810   16.8770  -34.1270 C   0  0  0  0  0  0  0  0  0  0  0  0
   -7.1640   17.4570  -33.4640 C   0  0  0  0  0  0  0  0  0  0  0  0
   -7.0310   18.7190  -32.8680 C   0  0  0  0  0  0  0  0  0  0  0  0
   -8.6240   21.6070  -31.0790 H   0  0  0  0  0  0  0  0  0  0  0  0
   -8.2618   23.3814  -30.7054 H   0  0  0  0  0  0  0  0  0  0  0  0
   -7.6468   25.6015  -29.7504 H   0  0  0  0  0  0  0  0  0  0  0  0
   -5.2490   26.2808  -29.6036 H   0  0  0  0  0  0  0  0  0  0  0  0
   -3.4618   24.7369  -30.4098 H   0  0  0  0  0  0  0  0  0  0  0  0
   -4.0651   22.5132  -31.3665 H   0  0  0  0  0  0  0  0  0  0  0  0
   -4.6026   21.1887  -32.3837 H   0  0  0  0  0  0  0  0  0  0  0  0
   -3.7605   19.3371  -33.6539 H   0  0  0  0  0  0  0  0  0  0  0  0
   -4.0085   17.0979  -34.7180 H   0  0  0  0  0  0  0  0  0  0  0  0
   -6.1880   15.8875  -34.5954 H   0  0  0  0  0  0  0  0  0  0  0  0
   -8.1239   16.9226  -33.4091 H   0  0  0  0  0  0  0  0  0  0  0  0
  1  2  2  0
  2  3  2  0
  2  4  1  0
  4  5  1  0
  5  6  1  0
  6  7  2  0
  7  8  1  0
  8  9  2  0
  9 10  1  0
 10 11  2  0
  5 12  2  0
 12 13  1  0
 13 14  2  0
 14 15  1  0
 15 16  2  0
 16 17  1  0
 17 18  2  0
 18  2  1  0
 11  6  1  0
 18 13  1  0
  4 19  1  0
  7 20  1  0
  8 21  1  0
  9 22  1  0
 10 23  1  0
 11 24  1  0
 12 25  1  0
 14 26  1  0
 15 27  1  0
 16 28  1  0
 17 29  1  0
M  END
>  <UniqueID>  (13) 
12

>  <SMILES>  (13) 
O=S1(=O)NC(c2ccccc2)=Cc2ccccc21

>  <Energy>  (13) 
41.87231653003349

>  <Genealogy>  (13) 
O=S1(=O)NC(c2ccccc2)=Cc2ccccc21 (3D coordinates assigned)
O=S1(=O)NC(c2ccccc2)=Cc2ccccc21 (nonaromatic ring conformer: 41.87231653003349 kcal/mol)

>  <smiles>  (13) 
O=S1(=O)NC(c2ccccc2)=Cc2ccccc21

>  <score_type>  (13) 
oracle

>  <origin>  (13) 
adg

>  <m_score__min__energy>  (13) 
-7.9299999999999997

>  <m_primary>  (13) 
energy

$$$$
13:0
     RDKit          3D

 49 52  0  0  0  0  0  0  0  0999 V2000
   -4.5970   13.7400  -31.1620 C   0  0  0  0  0  0  0  0  0  0  0  0
   -4.1650   13.2840  -32.4920 N   0  0  0  0  0  0  0  0  0  0  0  0
   -4.8740   14.0400  -33.5500 C   0  0  0  0  0  0  0  0  0  0  0  0
   -4.1220   13.9690  -34.8870 C   0  0  0  0  0  0  0  0  0  0  0  0
   -2.7550   14.5330  -34.7820 N   0  0  0  0  0  0  0  0  0  0  0  0
   -2.5560   15.8070  -35.5070 C   0  0  0  0  0  0  0  0  0  0  0  0
   -3.2540   16.9940  -34.8700 C   0  0  0  0  0  0  0  0  0  0  0  0
   -4.6130   17.2460  -35.1170 C   0  0  0  0  0  0  0  0  0  0  0  0
   -5.2520   18.3350  -34.5190 C   0  0  0  0  0  0  0  0  0  0  0  0
   -4.5430   19.2040  -33.6730 C   0  0  0  0  0  0  0  0  0  0  0  0
   -5.2000   20.3250  -33.0490 N   0  0  0  0  0  0  0  0  0  0  0  0
   -6.5390   20.5380  -32.9960 C   0  0  0  0  0  0  0  0  0  0  0  0
   -6.7420   21.7060  -32.2960 C   0  0  0  0  0  0  0  0  0  0  0  0
   -7.9120   22.3540  -31.9180 C   0  0  0  0  0  0  0  0  0  0  0  0
   -7.7890   23.5210  -31.1510 C   0  0  0  0  0  0  0  0  0  0  0  0
   -6.5150   24.0110  -30.7860 C   0  0  0  0  0  0  0  0  0  0  0  0
   -5.3320   23.3440  -31.1910 C   0  0  0  0  0  0  0  0  0  0  0  0
   -4.0090   23.9000  -30.8240 C   0  0  0  0  0  0  0  0  0  0  0  0
   -3.8590   25.2750  -30.4800 N   0  0  0  0  0  0  0  0  0  0  0  0
   -3.0020   23.1440  -30.7740 O   0  0  0  0  0  0  0  0  0  0  0  0
   -5.4980   22.1710  -31.9520 C   0  0  0  0  0  0  0  0  0  0  0  0
   -4.5690   21.3090  -32.4140 N   0  0  0  0  0  0  0  0  0  0  0  0
   -3.1760   18.9690  -33.4510 C   0  0  0  0  0  0  0  0  0  0  0  0
   -2.5370   17.8810  -34.0500 C   0  0  0  0  0  0  0  0  0  0  0  0
   -2.1960   14.5350  -33.4110 C   0  0  0  0  0  0  0  0  0  0  0  0
   -2.6840   13.3150  -32.6200 C   0  0  0  0  0  0  0  0  0  0  0  0
   -4.0597   13.1729  -30.3876 H   0  0  0  0  0  0  0  0  0  0  0  0
   -4.3752   14.8118  -31.0519 H   0  0  0  0  0  0  0  0  0  0  0  0
   -5.6792   13.5764  -31.0519 H   0  0  0  0  0  0  0  0  0  0  0  0
   -5.8797   13.6142  -33.6817 H   0  0  0  0  0  0  0  0  0  0  0  0
   -4.9345   15.0942  -33.2417 H   0  0  0  0  0  0  0  0  0  0  0  0
   -4.0497   12.9167  -35.1991 H   0  0  0  0  0  0  0  0  0  0  0  0
   -4.6807   14.5635  -35.6248 H   0  0  0  0  0  0  0  0  0  0  0  0
   -1.4773   16.0191  -35.5444 H   0  0  0  0  0  0  0  0  0  0  0  0
   -2.9965   15.6770  -36.5065 H   0  0  0  0  0  0  0  0  0  0  0  0
   -5.1787   16.5811  -35.7863 H   0  0  0  0  0  0  0  0  0  0  0  0
   -6.3200   18.5136  -34.7124 H   0  0  0  0  0  0  0  0  0  0  0  0
   -7.3185   19.8959  -33.4319 H   0  0  0  0  0  0  0  0  0  0  0  0
   -8.8987   21.9653  -32.2101 H   0  0  0  0  0  0  0  0  0  0  0  0
   -8.6926   24.0602  -30.8304 H   0  0  0  0  0  0  0  0  0  0  0  0
   -6.4402   24.9246  -30.1779 H   0  0  0  0  0  0  0  0  0  0  0  0
   -3.6850   25.9970  -31.2140 H   0  0  0  0  0  0  0  0  0  0  0  0
   -3.5390   21.3470  -32.2580 H   0  0  0  0  0  0  0  0  0  0  0  0
   -2.6043   19.6471  -32.8003 H   0  0  0  0  0  0  0  0  0  0  0  0
   -1.4629   17.7173  -33.8781 H   0  0  0  0  0  0  0  0  0  0  0  0
   -1.0978   14.5106  -33.4696 H   0  0  0  0  0  0  0  0  0  0  0  0
   -2.5327   15.4463  -32.8952 H   0  0  0  0  0  0  0  0  0  0  0  0
   -2.3540   12.4022  -33.1376 H   0  0  0  0  0  0  0  0  0  0  0  0
   -2.2589   13.3771  -31.6074 H   0  0  0  0  0  0  0  0  0  0  0  0
  1  2  1  0
  2  3  1  0
  3  4  1  0
  4  5  1  0
  5  6  1  0
  6  7  1  0
  7  8  2  0
  8  9  1  0
  9 10  2  0
 10 11  1  0
 11 12  1  0
 12 13  2  0
 13 14  1  0
 14 15  2  0
 15 16  1  0
 16 17  2  0
 17 18  1  0
 18 19  1  0
 18 20  2  0
 17 21  1  0
 21 22  2  0
 10 23  1  0
 23 24  2  0
  5 25  1  0
 25 26  1  0
 26  2  1  0
 24  7  1  0
 22 11  1  0
 21 13  1  0
  1 27  1  0
  1 28  1  0
  1 29  1  0
  3 30  1  0
  3 31  1  0
  4 32  1  0
  4 33  1  0
  6 34  1  0
  6 35  1  0
  8 36  1  0
  9 37  1  0
 12 38  1  0
 14 39  1  0
 15 40  1  0
 16 41  1  0
 19 42  1  0
 22 43  1  0
 23 44  1  0
 24 45  1  0
 25 46  1  0
 25 47  1  0
 26 48  1  0
 26 49  1  0
M  CHG  2  19  -1  22   1
M  END
>  <UniqueID>  (14) 
13

>  <SMILES>  (14) 
CN1CCN(Cc2ccc(-n3cc4cccc(C([NH-])=O)c4[nH+]3)cc2)CC1

>  <Energy>  (14) 
111.55305714527123

>  <Genealogy>  (14) 
CN1CCN(Cc2ccc(-n3cc4cccc(C([NH-])=O)c4[nH+]3)cc2)CC1 (protonated)
CN1CCN(Cc2ccc(-n3cc4cccc(C([NH-])=O)c4[nH+]3)cc2)CC1 (3D coordinates assigned)
CN1CCN(Cc2ccc(-n3cc4cccc(C([NH-])=O)c4[nH+]3)cc2)CC1 (nonaromatic ring conformer: 111.55305714527123 kcal/mol)

>  <smiles>  (14) 
CN1CCN(Cc2ccc(-n3cc4cccc(C(N)=O)c4n3)cc2)CC1

>  <score_type>  (14) 
oracle

>  <origin>  (14) 
adg

>  <m_score__min__energy>  (14) 
-9.6400000000000006

>  <m_primary>  (14) 
energy

$$$$
14:0
     RDKit          3D

 58 60  0  0  0  0  0  0  0  0999 V2000
   -2.7250   19.3190  -26.9420 C   0  0  0  0  0  0  0  0  0  0  0  0
   -2.0900   19.9240  -28.0660 O   0  0  0  0  0  0  0  0  0  0  0  0
   -1.9570   21.3090  -28.2450 C   0  0  0  0  0  0  0  0  0  0  0  0
   -1.8850   22.1730  -27.1320 C   0  0  0  0  0  0  0  0  0  0  0  0
   -1.7610   23.5500  -27.3030 C   0  0  0  0  0  0  0  0  0  0  0  0
   -1.7210   24.0920  -28.5820 C   0  0  0  0  0  0  0  0  0  0  0  0
   -1.7820   23.2560  -29.6960 C   0  0  0  0  0  0  0  0  0  0  0  0
   -1.8740   21.8550  -29.5540 C   0  0  0  0  0  0  0  0  0  0  0  0
   -1.8870   21.0180  -30.8410 C   0  0  2  0  0  0  0  0  0  0  0  0
   -3.3160   20.8170  -31.3260 C   0  0  0  0  0  0  0  0  0  0  0  0
   -4.1930   20.4890  -30.4790 O   0  0  0  0  0  0  0  0  0  0  0  0
   -3.7160   20.9850  -32.7010 N   0  0  0  0  0  0  0  0  0  0  0  0
   -4.2700   19.7900  -33.3670 C   0  0  0  0  0  0  0  0  0  0  0  0
   -5.6510   19.4620  -32.8730 C   0  0  0  0  0  0  0  0  0  0  0  0
   -5.8340   18.4990  -31.8660 C   0  0  0  0  0  0  0  0  0  0  0  0
   -7.1220   18.1320  -31.4670 C   0  0  0  0  0  0  0  0  0  0  0  0
   -8.2370   18.7190  -32.0710 C   0  0  0  0  0  0  0  0  0  0  0  0
   -8.0650   19.6810  -33.0700 C   0  0  0  0  0  0  0  0  0  0  0  0
   -6.7770   20.0570  -33.4660 C   0  0  0  0  0  0  0  0  0  0  0  0
   -4.2780   22.2980  -33.0690 C   0  0  0  0  0  0  0  0  0  0  0  0
   -5.1320   22.8850  -31.9740 C   0  0  0  0  0  0  0  0  0  0  0  0
   -6.5180   22.6680  -31.9700 C   0  0  0  0  0  0  0  0  0  0  0  0
   -7.3140   23.1980  -30.9510 C   0  0  0  0  0  0  0  0  0  0  0  0
   -6.7340   23.9580  -29.9330 C   0  0  0  0  0  0  0  0  0  0  0  0
   -5.3590   24.2020  -29.9410 C   0  0  0  0  0  0  0  0  0  0  0  0
   -4.5610   23.6750  -30.9600 C   0  0  0  0  0  0  0  0  0  0  0  0
   -1.0980   19.7490  -30.7960 N   0  0  0  0  0  0  0  0  0  0  0  0
   -1.3160   18.9530  -32.0260 C   0  0  0  0  0  0  0  0  0  0  0  0
    0.3550   20.0060  -30.6830 C   0  0  0  0  0  0  0  0  0  0  0  0
   -2.2963   19.7274  -26.0149 H   0  0  0  0  0  0  0  0  0  0  0  0
   -3.8038   19.5317  -26.9719 H   0  0  0  0  0  0  0  0  0  0  0  0
   -2.5648   18.2311  -26.9719 H   0  0  0  0  0  0  0  0  0  0  0  0
   -1.9273   21.7539  -26.1159 H   0  0  0  0  0  0  0  0  0  0  0  0
   -1.6947   24.2089  -26.4247 H   0  0  0  0  0  0  0  0  0  0  0  0
   -1.6412   25.1810  -28.7155 H   0  0  0  0  0  0  0  0  0  0  0  0
   -1.7580   23.6963  -30.7037 H   0  0  0  0  0  0  0  0  0  0  0  0
   -1.3397   21.6106  -31.5888 H   0  0  0  0  0  0  0  0  0  0  0  0
   -4.3147   19.9754  -34.4503 H   0  0  0  0  0  0  0  0  0  0  0  0
   -3.6144   18.9372  -33.1370 H   0  0  0  0  0  0  0  0  0  0  0  0
   -4.9594   18.0320  -31.3897 H   0  0  0  0  0  0  0  0  0  0  0  0
   -7.2584   17.3797  -30.6761 H   0  0  0  0  0  0  0  0  0  0  0  0
   -9.2501   18.4239  -31.7602 H   0  0  0  0  0  0  0  0  0  0  0  0
   -8.9429   20.1429  -33.5453 H   0  0  0  0  0  0  0  0  0  0  0  0
   -6.6453   20.8221  -34.2453 H   0  0  0  0  0  0  0  0  0  0  0  0
   -3.4496   22.9902  -33.2803 H   0  0  0  0  0  0  0  0  0  0  0  0
   -4.9177   22.1534  -33.9521 H   0  0  0  0  0  0  0  0  0  0  0  0
   -6.9811   22.0770  -32.7739 H   0  0  0  0  0  0  0  0  0  0  0  0
   -8.3989   23.0163  -30.9507 H   0  0  0  0  0  0  0  0  0  0  0  0
   -7.3601   24.3644  -29.1250 H   0  0  0  0  0  0  0  0  0  0  0  0
   -4.9038   24.8093  -29.1448 H   0  0  0  0  0  0  0  0  0  0  0  0
   -3.4802   23.8792  -30.9691 H   0  0  0  0  0  0  0  0  0  0  0  0
   -1.3970   19.1630  -29.9860 H   0  0  0  0  0  0  0  0  0  0  0  0
   -1.5974   17.9254  -31.7526 H   0  0  0  0  0  0  0  0  0  0  0  0
   -2.1225   19.4085  -32.6194 H   0  0  0  0  0  0  0  0  0  0  0  0
   -0.3900   18.9340  -32.6194 H   0  0  0  0  0  0  0  0  0  0  0  0
    0.6370   20.0559  -29.6209 H   0  0  0  0  0  0  0  0  0  0  0  0
    0.9104   19.1922  -31.1720 H   0  0  0  0  0  0  0  0  0  0  0  0
    0.5976   20.9610  -31.1720 H   0  0  0  0  0  0  0  0  0  0  0  0
  1  2  1  0
  2  3  1  0
  3  4  2  0
  4  5  1  0
  5  6  2  0
  6  7  1  0
  7  8  2  0
  8  9  1  0
  9 10  1  0
 10 11  2  0
 10 12  1  0
 12 13  1  0
 13 14  1  0
 14 15  2  0
 15 16  1  0
 16 17  2  0
 17 18  1  0
 18 19  2  0
 12 20  1  0
 20 21  1  0
 21 22  2  0
 22 23  1  0
 23 24  2  0
 24 25  1  0
 25 26  2  0
  9 27  1  0
 27 28  1  0
 27 29  1  0
  8  3  1  0
 19 14  1  0
 26 21  1  0
  1 30  1  0
  1 31  1  0
  1 32  1  0
  4 33  1  0
  5 34  1  0
  6 35  1  0
  7 36  1  0
  9 37  1  6
 13 38  1  0
 13 39  1  0
 15 40  1  0
 16 41  1  0
 17 42  1  0
 18 43  1  0
 19 44  1  0
 20 45  1  0
 20 46  1  0
 22 47  1  0
 23 48  1  0
 24 49  1  0
 25 50  1  0
 26 51  1  0
 27 52  1  0
 28 53  1  0
 28 54  1  0
 28 55  1  0
 29 56  1  0
 29 57  1  0
 29 58  1  0
M  CHG  1  27   1
M  END
>  <UniqueID>  (15) 
14

>  <SMILES>  (15) 
COc1ccccc1[C@H](C(=O)N(Cc1ccccc1)Cc1ccccc1)[NH+](C)C

>  <Energy>  (15) 
69.28432983495509

>  <Genealogy>  (15) 
COc1ccccc1C(C(=O)N(Cc1ccccc1)Cc1ccccc1)[NH+](C)C (protonated)
COc1ccccc1[C@H](C(=O)N(Cc1ccccc1)Cc1ccccc1)[NH+](C)C (chirality)
COc1ccccc1[C@H](C(=O)N(Cc1ccccc1)Cc1ccccc1)[NH+](C)C (3D coordinates assigned)
COc1ccccc1[C@H](C(=O)N(Cc1ccccc1)Cc1ccccc1)[NH+](C)C (optimized conformer: 69.28432983495509 kcal/mol)

>  <smiles>  (15) 
COc1ccccc1C(C(=O)N(Cc1ccccc1)Cc1ccccc1)N(C)C

>  <score_type>  (15) 
oracle

>  <origin>  (15) 
adg

>  <m_score__min__energy>  (15) 
-7.5700000000000003

>  <m_primary>  (15) 
energy

$$$$
15:0
     RDKit          3D

 29 30  0  0  0  0  0  0  0  0999 V2000
   -3.2120   23.7940  -29.9600 C   0  0  0  0  0  0  0  0  0  0  0  0
   -3.8660   24.7470  -30.7880 O   0  0  0  0  0  0  0  0  0  0  0  0
   -5.2550   24.9030  -30.8060 C   0  0  0  0  0  0  0  0  0  0  0  0
   -5.7800   26.0020  -30.4760 O   0  0  0  0  0  0  0  0  0  0  0  0
   -6.1040   23.7780  -31.2130 C   0  0  0  0  0  0  0  0  0  0  0  0
   -5.6760   22.5420  -31.6520 C   0  0  0  0  0  0  0  0  0  0  0  0
   -6.7650   21.7950  -31.9320 N   0  0  0  0  0  0  0  0  0  0  0  0
   -6.7900   20.4370  -32.4190 C   0  0  0  0  0  0  0  0  0  0  0  0
   -7.6830   19.4970  -31.8720 C   0  0  0  0  0  0  0  0  0  0  0  0
   -7.7070   18.1820  -32.3440 C   0  0  0  0  0  0  0  0  0  0  0  0
   -6.8470   17.7840  -33.3780 C   0  0  0  0  0  0  0  0  0  0  0  0
   -6.8450   16.3620  -33.8560 C   0  0  0  0  0  0  0  0  0  0  0  0
   -5.9420   18.7100  -33.9130 C   0  0  0  0  0  0  0  0  0  0  0  0
   -5.9170   20.0260  -33.4430 C   0  0  0  0  0  0  0  0  0  0  0  0
   -7.8270   22.5850  -31.6570 C   0  0  0  0  0  0  0  0  0  0  0  0
   -7.4500   23.8010  -31.2160 N   0  0  0  0  0  0  0  0  0  0  0  0
   -3.3851   24.0462  -28.9034 H   0  0  0  0  0  0  0  0  0  0  0  0
   -3.6130   22.7910  -30.1680 H   0  0  0  0  0  0  0  0  0  0  0  0
   -2.1319   23.8074  -30.1680 H   0  0  0  0  0  0  0  0  0  0  0  0
   -4.6290   22.2210  -31.7558 H   0  0  0  0  0  0  0  0  0  0  0  0
   -8.3678   19.7999  -31.0662 H   0  0  0  0  0  0  0  0  0  0  0  0
   -8.4042   17.4549  -31.9022 H   0  0  0  0  0  0  0  0  0  0  0  0
   -6.8440   15.6840  -32.9898 H   0  0  0  0  0  0  0  0  0  0  0  0
   -7.7429   16.1784  -34.4643 H   0  0  0  0  0  0  0  0  0  0  0  0
   -5.9466   16.1809  -34.4643 H   0  0  0  0  0  0  0  0  0  0  0  0
   -5.2473   18.3996  -34.7074 H   0  0  0  0  0  0  0  0  0  0  0  0
   -5.2086   20.7467  -33.8775 H   0  0  0  0  0  0  0  0  0  0  0  0
   -8.8745   22.2722  -31.7788 H   0  0  0  0  0  0  0  0  0  0  0  0
   -8.0750   24.5880  -30.9340 H   0  0  0  0  0  0  0  0  0  0  0  0
  1  2  1  0
  2  3  1  0
  3  4  2  0
  3  5  1  0
  5  6  2  0
  6  7  1  0
  7  8  1  0
  8  9  2  0
  9 10  1  0
 10 11  2  0
 11 12  1  0
 11 13  1  0
 13 14  2  0
  7 15  1  0
 15 16  2  0
 16  5  1  0
 14  8  1  0
  1 17  1  0
  1 18  1  0
  1 19  1  0
  6 20  1  0
  9 21  1  0
 10 22  1  0
 12 23  1  0
 12 24  1  0
 12 25  1  0
 13 26  1  0
 14 27  1  0
 15 28  1  0
 16 29  1  0
M  CHG  1  16   1
M  END
>  <UniqueID>  (16) 
15

>  <SMILES>  (16) 
COC(=O)c1cn(-c2ccc(C)cc2)c[nH+]1

>  <Energy>  (16) 
59.165965779079954

>  <Genealogy>  (16) 
COC(=O)c1cn(-c2ccc(C)cc2)c[nH+]1 (protonated)
COC(=O)c1cn(-c2ccc(C)cc2)c[nH+]1 (3D coordinates assigned)
COC(=O)c1cn(-c2ccc(C)cc2)c[nH+]1 (optimized conformer: 59.165965779079954 kcal/mol)

>  <smiles>  (16) 
COC(=O)c1cn(-c2ccc(C)cc2)cn1

>  <score_type>  (16) 
oracle

>  <origin>  (16) 
adg

>  <m_score__min__energy>  (16) 
-6.0899999999999999

>  <m_primary>  (16) 
energy

$$$$
16:0
     RDKit          3D

 33 34  0  0  0  0  0  0  0  0999 V2000
   -9.4930   21.8180  -31.4140 C   0  0  0  0  0  0  0  0  0  0  0  0
   -8.2060   21.1010  -30.9780 C   0  0  0  0  0  0  0  0  0  0  0  0
   -6.9490   21.7350  -31.4570 N   0  0  0  0  0  0  0  0  0  0  0  0
   -6.4260   21.1490  -32.7200 C   0  0  0  0  0  0  0  0  0  0  0  0
   -7.0930   19.8170  -33.0830 C   0  0  0  0  0  0  0  0  0  0  0  0
   -7.1110   23.2070  -31.5860 C   0  0  0  0  0  0  0  0  0  0  0  0
   -5.8990   23.9500  -31.0980 C   0  0  0  0  0  0  0  0  0  0  0  0
   -5.6720   25.3020  -31.2190 C   0  0  0  0  0  0  0  0  0  0  0  0
   -4.5290   25.5610  -30.6360 O   0  0  0  0  0  0  0  0  0  0  0  0
   -4.0660   24.4230  -30.1670 C   0  0  0  0  0  0  0  0  0  0  0  0
   -2.7980   24.3050  -29.4410 C   0  0  0  0  0  0  0  0  0  0  0  0
   -2.3290   23.1730  -28.8070 C   0  0  0  0  0  0  0  0  0  0  0  0
   -1.1120   23.5290  -28.2680 C   0  0  0  0  0  0  0  0  0  0  0  0
   -0.9150   24.8530  -28.6060 C   0  0  0  0  0  0  0  0  0  0  0  0
   -1.9390   25.2870  -29.3060 O   0  0  0  0  0  0  0  0  0  0  0  0
   -4.8820   23.3780  -30.4230 N   0  0  0  0  0  0  0  0  0  0  0  0
  -10.0572   22.1323  -30.5236 H   0  0  0  0  0  0  0  0  0  0  0  0
   -9.2345   22.7021  -32.0153 H   0  0  0  0  0  0  0  0  0  0  0  0
  -10.1087   21.1329  -32.0153 H   0  0  0  0  0  0  0  0  0  0  0  0
   -8.1815   21.0793  -29.8785 H   0  0  0  0  0  0  0  0  0  0  0  0
   -8.2403   20.0987  -31.4298 H   0  0  0  0  0  0  0  0  0  0  0  0
   -6.2360   21.5610  -30.7090 H   0  0  0  0  0  0  0  0  0  0  0  0
   -6.6022   21.8636  -33.5375 H   0  0  0  0  0  0  0  0  0  0  0  0
   -5.3541   20.9510  -32.5720 H   0  0  0  0  0  0  0  0  0  0  0  0
   -7.3624   19.2789  -32.1622 H   0  0  0  0  0  0  0  0  0  0  0  0
   -8.0006   20.0104  -33.6736 H   0  0  0  0  0  0  0  0  0  0  0  0
   -6.3945   19.2061  -33.6736 H   0  0  0  0  0  0  0  0  0  0  0  0
   -7.2775   23.4549  -32.6447 H   0  0  0  0  0  0  0  0  0  0  0  0
   -7.9685   23.5107  -30.9676 H   0  0  0  0  0  0  0  0  0  0  0  0
   -6.3301   26.0309  -31.7145 H   0  0  0  0  0  0  0  0  0  0  0  0
   -2.8230   22.1921  -28.7449 H   0  0  0  0  0  0  0  0  0  0  0  0
   -0.4340   22.8876  -27.6858 H   0  0  0  0  0  0  0  0  0  0  0  0
   -0.0350   25.4531  -28.3313 H   0  0  0  0  0  0  0  0  0  0  0  0
  1  2  1  0
  2  3  1  0
  3  4  1  0
  4  5  1  0
  3  6  1  0
  6  7  1  0
  7  8  2  0
  8  9  1  0
  9 10  1  0
 10 11  1  0
 11 12  2  0
 12 13  1  0
 13 14  2  0
 14 15  1  0
 10 16  2  0
 16  7  1  0
 15 11  1  0
  1 17  1  0
  1 18  1  0
  1 19  1  0
  2 20  1  0
  2 21  1  0
  3 22  1  0
  4 23  1  0
  4 24  1  0
  5 25  1  0
  5 26  1  0
  5 27  1  0
  6 28  1  0
  6 29  1  0
  8 30  1  0
 12 31  1  0
 13 32  1  0
 14 33  1  0
M  CHG  1   3   1
M  END
>  <UniqueID>  (17) 
16

>  <SMILES>  (17) 
CC[NH+](CC)Cc1coc(-c2ccco2)n1

>  <Energy>  (17) 
88.67099070624005

>  <Genealogy>  (17) 
CC[NH+](CC)Cc1coc(-c2ccco2)n1 (protonated)
CC[NH+](CC)Cc1coc(-c2ccco2)n1 (3D coordinates assigned)
CC[NH+](CC)Cc1coc(-c2ccco2)n1 (optimized conformer: 88.67099070624005 kcal/mol)

>  <smiles>  (17) 
CCN(CC)Cc1coc(-c2ccco2)n1

>  <score_type>  (17) 
oracle

>  <origin>  (17) 
adg

>  <m_score__min__energy>  (17) 
-5.2699999999999996

>  <m_primary>  (17) 
energy

$$$$
17:0
     RDKit          3D

 48 50  0  0  0  0  0  0  0  0999 V2000
   -3.3160   18.7590  -34.1540 C   0  0  0  0  0  0  0  0  0  0  0  0
   -4.6330   19.2990  -34.2160 O   0  0  0  0  0  0  0  0  0  0  0  0
   -5.7310   18.8020  -33.4980 C   0  0  0  0  0  0  0  0  0  0  0  0
   -6.0800   17.4360  -33.5170 C   0  0  0  0  0  0  0  0  0  0  0  0
   -7.1680   16.9740  -32.7690 C   0  0  0  0  0  0  0  0  0  0  0  0
   -7.9150   17.8640  -31.9960 C   0  0  0  0  0  0  0  0  0  0  0  0
   -7.5800   19.2200  -31.9720 C   0  0  0  0  0  0  0  0  0  0  0  0
   -6.4960   19.6950  -32.7240 C   0  0  0  0  0  0  0  0  0  0  0  0
   -6.1720   21.0930  -32.6930 N   0  0  0  0  0  0  0  0  0  0  0  0
   -7.2230   22.0800  -32.4340 C   0  0  0  0  0  0  0  0  0  0  0  0
   -6.6800   23.5040  -32.6170 C   0  0  0  0  0  0  0  0  0  0  0  0
   -5.4550   23.7560  -31.8170 N   0  0  0  0  0  0  0  0  0  0  0  0
   -5.7810   24.2880  -30.4750 C   0  0  0  0  0  0  0  0  0  0  0  0
   -4.9020   25.4970  -30.1190 C   0  0  0  0  0  0  0  0  0  0  0  0
   -3.4940   25.2100  -30.3750 N   0  0  0  0  0  0  0  0  0  0  0  0
   -2.5570   24.8420  -29.3560 C   0  0  0  0  0  0  0  0  0  0  0  0
   -1.6930   25.6760  -28.9690 O   0  0  0  0  0  0  0  0  0  0  0  0
   -2.6030   23.4900  -28.7560 C   0  0  0  0  0  0  0  0  0  0  0  0
   -1.5150   22.6100  -28.8770 C   0  0  0  0  0  0  0  0  0  0  0  0
   -1.5730   21.3360  -28.3090 C   0  0  0  0  0  0  0  0  0  0  0  0
   -2.7240   20.9470  -27.6190 C   0  0  0  0  0  0  0  0  0  0  0  0
   -2.8230   19.3550  -26.8960 Cl  0  0  0  0  0  0  0  0  0  0  0  0
   -3.7710   21.8040  -27.5080 N   0  0  0  0  0  0  0  0  0  0  0  0
   -3.7400   23.0500  -28.0530 C   0  0  0  0  0  0  0  0  0  0  0  0
   -4.5100   22.6060  -31.7470 C   0  0  0  0  0  0  0  0  0  0  0  0
   -4.7800   21.5320  -32.8060 C   0  0  0  0  0  0  0  0  0  0  0  0
   -3.0188   18.6372  -33.1019 H   0  0  0  0  0  0  0  0  0  0  0  0
   -3.2969   17.7805  -34.6561 H   0  0  0  0  0  0  0  0  0  0  0  0
   -2.6155   19.4425  -34.6561 H   0  0  0  0  0  0  0  0  0  0  0  0
   -5.4936   16.7299  -34.1232 H   0  0  0  0  0  0  0  0  0  0  0  0
   -7.4353   15.9072  -32.7901 H   0  0  0  0  0  0  0  0  0  0  0  0
   -8.7677   17.4977  -31.4055 H   0  0  0  0  0  0  0  0  0  0  0  0
   -8.1695   19.9186  -31.3601 H   0  0  0  0  0  0  0  0  0  0  0  0
   -8.0541   21.9165  -33.1358 H   0  0  0  0  0  0  0  0  0  0  0  0
   -7.5732   21.9632  -31.3978 H   0  0  0  0  0  0  0  0  0  0  0  0
   -6.4437   23.6568  -33.6804 H   0  0  0  0  0  0  0  0  0  0  0  0
   -7.4547   24.2029  -32.2685 H   0  0  0  0  0  0  0  0  0  0  0  0
   -6.8366   24.5969  -30.4598 H   0  0  0  0  0  0  0  0  0  0  0  0
   -5.5938   23.4958  -29.7352 H   0  0  0  0  0  0  0  0  0  0  0  0
   -5.2107   26.3588  -30.7289 H   0  0  0  0  0  0  0  0  0  0  0  0
   -5.0267   25.7195  -29.0490 H   0  0  0  0  0  0  0  0  0  0  0  0
   -0.6131   22.9260  -29.4218 H   0  0  0  0  0  0  0  0  0  0  0  0
   -0.7217   20.6459  -28.4037 H   0  0  0  0  0  0  0  0  0  0  0  0
   -4.6079   23.7169  -27.9437 H   0  0  0  0  0  0  0  0  0  0  0  0
   -3.4874   22.9858  -31.8882 H   0  0  0  0  0  0  0  0  0  0  0  0
   -4.6455   22.1334  -30.7630 H   0  0  0  0  0  0  0  0  0  0  0  0
   -4.6049   21.9498  -33.8084 H   0  0  0  0  0  0  0  0  0  0  0  0
   -4.1060   20.6769  -32.6494 H   0  0  0  0  0  0  0  0  0  0  0  0
  1  2  1  0
  2  3  1  0
  3  4  2  0
  4  5  1  0
  5  6  2  0
  6  7  1  0
  7  8  2  0
  8  9  1  0
  9 10  1  0
 10 11  1  0
 11 12  1  0
 12 13  1  0
 13 14  1  0
 14 15  1  0
 15 16  1  0
 16 17  2  0
 16 18  1  0
 18 19  2  0
 19 20  1  0
 20 21  2  0
 21 22  1  0
 21 23  1  0
 23 24  2  0
 12 25  1  0
 25 26  1  0
  8  3  1  0
 26  9  1  0
 24 18  1  0
  1 27  1  0
  1 28  1  0
  1 29  1  0
  4 30  1  0
  5 31  1  0
  6 32  1  0
  7 33  1  0
 10 34  1  0
 10 35  1  0
 11 36  1  0
 11 37  1  0
 13 38  1  0
 13 39  1  0
 14 40  1  0
 14 41  1  0
 19 42  1  0
 20 43  1  0
 24 44  1  0
 25 45  1  0
 25 46  1  0
 26 47  1  0
 26 48  1  0
M  CHG  1  15  -1
M  END
>  <UniqueID>  (18) 
17

>  <SMILES>  (18) 
COc1ccccc1N1CCN(CC[N-]C(=O)c2ccc(Cl)nc2)CC1

>  <Energy>  (18) 
60.3803775183153

>  <Genealogy>  (18) 
COc1ccccc1N1CCN(CC[N-]C(=O)c2ccc(Cl)nc2)CC1 (protonated)
COc1ccccc1N1CCN(CC[N-]C(=O)c2ccc(Cl)nc2)CC1 (3D coordinates assigned)
COc1ccccc1N1CCN(CC[N-]C(=O)c2ccc(Cl)nc2)CC1 (nonaromatic ring conformer: 60.3803775183153 kcal/mol)

>  <smiles>  (18) 
COc1ccccc1N1CCN(CCNC(=O)c2ccc(Cl)nc2)CC1

>  <score_type>  (18) 
oracle

>  <origin>  (18) 
adg

>  <m_score__min__energy>  (18) 
-10.27

>  <m_primary>  (18) 
energy

$$$$
18:0
     RDKit          3D

 45 47  0  0  0  0  0  0  0  0999 V2000
   -6.6960   25.4640  -29.6200 C   0  0  0  0  0  0  0  0  0  0  0  0
   -6.3260   24.3410  -30.5510 C   0  0  0  0  0  0  0  0  0  0  0  0
   -7.3430   23.5200  -31.0680 C   0  0  0  0  0  0  0  0  0  0  0  0
   -7.0320   22.4470  -31.9050 C   0  0  0  0  0  0  0  0  0  0  0  0
   -5.7020   22.1820  -32.2380 C   0  0  0  0  0  0  0  0  0  0  0  0
   -4.6820   23.0000  -31.7480 C   0  0  0  0  0  0  0  0  0  0  0  0
   -4.9830   24.0960  -30.9290 C   0  0  0  0  0  0  0  0  0  0  0  0
   -3.9050   24.9180  -30.4680 N   0  0  0  0  0  0  0  0  0  0  0  0
   -2.8720   24.4580  -29.5880 C   0  0  0  0  0  0  0  0  0  0  0  0
   -2.1930   25.2970  -28.9340 O   0  0  0  0  0  0  0  0  0  0  0  0
   -2.5710   23.0500  -29.4930 N   0  0  0  0  0  0  0  0  0  0  0  0
   -1.4650   22.4770  -30.2870 C   0  0  0  0  0  0  0  0  0  0  0  0
   -0.4820   21.6430  -29.4440 C   0  0  0  0  0  0  0  0  0  0  0  0
   -0.0410   22.3430  -28.1440 C   0  0  0  0  0  0  0  0  0  0  0  0
   -1.1770   22.7050  -27.2800 N   0  0  0  0  0  0  0  0  0  0  0  0
   -1.1210   23.9060  -26.4860 C   0  0  0  0  0  0  0  0  0  0  0  0
    0.0040   24.1750  -25.6890 C   0  0  0  0  0  0  0  0  0  0  0  0
    0.0340   25.3340  -24.9130 C   0  0  0  0  0  0  0  0  0  0  0  0
   -1.0480   26.2130  -24.9340 C   0  0  0  0  0  0  0  0  0  0  0  0
   -2.1490   25.9200  -25.7390 C   0  0  0  0  0  0  0  0  0  0  0  0
   -2.1640   24.7880  -26.4940 N   0  0  0  0  0  0  0  0  0  0  0  0
   -2.4060   21.8930  -27.2920 C   0  0  0  0  0  0  0  0  0  0  0  0
   -3.2890   22.2120  -28.5170 C   0  0  0  0  0  0  0  0  0  0  0  0
   -6.5854   25.1283  -28.5784 H   0  0  0  0  0  0  0  0  0  0  0  0
   -6.0335   26.3233  -29.8006 H   0  0  0  0  0  0  0  0  0  0  0  0
   -7.7396   25.7612  -29.8006 H   0  0  0  0  0  0  0  0  0  0  0  0
   -8.3928   23.7247  -30.8109 H   0  0  0  0  0  0  0  0  0  0  0  0
   -7.8354   21.8096  -32.3027 H   0  0  0  0  0  0  0  0  0  0  0  0
   -5.4577   21.3281  -32.8869 H   0  0  0  0  0  0  0  0  0  0  0  0
   -3.6352   22.7824  -32.0067 H   0  0  0  0  0  0  0  0  0  0  0  0
   -1.8930   21.8300  -31.0669 H   0  0  0  0  0  0  0  0  0  0  0  0
   -0.8984   23.3180  -30.7132 H   0  0  0  0  0  0  0  0  0  0  0  0
   -0.9690   20.6927  -29.1800 H   0  0  0  0  0  0  0  0  0  0  0  0
    0.4213   21.4932  -30.0537 H   0  0  0  0  0  0  0  0  0  0  0  0
    0.6227   21.6653  -27.5871 H   0  0  0  0  0  0  0  0  0  0  0  0
    0.4721   23.2743  -28.4257 H   0  0  0  0  0  0  0  0  0  0  0  0
    0.8545   23.4774  -25.6768 H   0  0  0  0  0  0  0  0  0  0  0  0
    0.9102   25.5540  -24.2854 H   0  0  0  0  0  0  0  0  0  0  0  0
   -1.0337   27.1273  -24.3226 H   0  0  0  0  0  0  0  0  0  0  0  0
   -3.0081   26.6065  -25.7635 H   0  0  0  0  0  0  0  0  0  0  0  0
   -3.0090   24.5930  -27.0750 H   0  0  0  0  0  0  0  0  0  0  0  0
   -2.1298   20.8286  -27.3192 H   0  0  0  0  0  0  0  0  0  0  0  0
   -2.9811   22.1280  -26.3842 H   0  0  0  0  0  0  0  0  0  0  0  0
   -3.5825   21.2693  -29.0020 H   0  0  0  0  0  0  0  0  0  0  0  0
   -4.1747   22.7649  -28.1710 H   0  0  0  0  0  0  0  0  0  0  0  0
  1  2  1  0
  2  3  2  0
  3  4  1  0
  4  5  2  0
  5  6  1  0
  6  7  2  0
  7  8  1  0
  8  9  1  0
  9 10  2  0
  9 11  1  0
 11 12  1  0
 12 13  1  0
 13 14  1  0
 14 15  1  0
 15 16  1  0
 16 17  2  0
 17 18  1  0
 18 19  2  0
 19 20  1  0
 20 21  2  0
 15 22  1  0
 22 23  1  0
  7  2  1  0
 23 11  1  0
 21 16  1  0
  1 24  1  0
  1 25  1  0
  1 26  1  0
  3 27  1  0
  4 28  1  0
  5 29  1  0
  6 30  1  0
 12 31  1  0
 12 32  1  0
 13 33  1  0
 13 34  1  0
 14 35  1  0
 14 36  1  0
 17 37  1  0
 18 38  1  0
 19 39  1  0
 20 40  1  0
 21 41  1  0
 22 42  1  0
 22 43  1  0
 23 44  1  0
 23 45  1  0
M  CHG  2   8  -1  21   1
M  END
>  <UniqueID>  (19) 
18

>  <SMILES>  (19) 
Cc1ccccc1[N-]C(=O)N1CCCN(c2cccc[nH+]2)CC1

>  <Energy>  (19) 
61.47949017092547

>  <Genealogy>  (19) 
Cc1ccccc1[N-]C(=O)N1CCCN(c2cccc[nH+]2)CC1 (protonated)
Cc1ccccc1[N-]C(=O)N1CCCN(c2cccc[nH+]2)CC1 (3D coordinates assigned)
Cc1ccccc1[N-]C(=O)N1CCCN(c2cccc[nH+]2)CC1 (nonaromatic ring conformer: 61.47949017092547 kcal/mol)

>  <smiles>  (19) 
Cc1ccccc1NC(=O)N1CCCN(c2ccccn2)CC1

>  <score_type>  (19) 
oracle

>  <origin>  (19) 
adg

>  <m_score__min__energy>  (19) 
-6.3600000000000003

>  <m_primary>  (19) 
energy

$$$$
19:0
     RDKit          3D

 44 47  0  0  0  0  0  0  0  0999 V2000
   -5.8950   24.5560  -31.5160 C   0  0  0  0  0  0  0  0  0  0  0  0
   -4.5480   24.2390  -31.1860 O   0  0  0  0  0  0  0  0  0  0  0  0
   -4.1840   23.6480  -29.9710 C   0  0  0  0  0  0  0  0  0  0  0  0
   -4.1930   24.3760  -28.8180 N   0  0  0  0  0  0  0  0  0  0  0  0
   -3.8630   23.8290  -27.6190 C   0  0  0  0  0  0  0  0  0  0  0  0
   -3.5120   22.4810  -27.5380 C   0  0  0  0  0  0  0  0  0  0  0  0
   -3.4920   21.7110  -28.7010 C   0  0  0  0  0  0  0  0  0  0  0  0
   -3.8110   22.2950  -29.9340 C   0  0  0  0  0  0  0  0  0  0  0  0
   -3.7850   21.4760  -31.1680 C   0  0  0  0  0  0  0  0  0  0  0  0
   -2.5520   21.0710  -31.7370 C   0  0  0  0  0  0  0  0  0  0  0  0
   -0.9870   21.5240  -31.0320 S   0  0  0  0  0  0  0  0  0  0  0  0
    0.0790   21.5400  -32.0930 O   0  0  0  0  0  0  0  0  0  0  0  0
   -1.0940   22.9050  -30.4490 O   0  0  0  0  0  0  0  0  0  0  0  0
   -0.5000   20.3660  -29.7980 C   0  0  0  0  0  0  0  0  0  0  0  0
   -0.5200   20.7170  -28.4390 C   0  0  0  0  0  0  0  0  0  0  0  0
   -0.1620   19.7760  -27.4680 C   0  0  0  0  0  0  0  0  0  0  0  0
    0.2210   18.4870  -27.8490 C   0  0  0  0  0  0  0  0  0  0  0  0
    0.2490   18.1370  -29.2020 C   0  0  0  0  0  0  0  0  0  0  0  0
   -0.1070   19.0740  -30.1750 C   0  0  0  0  0  0  0  0  0  0  0  0
   -2.5640   20.2860  -32.8950 C   0  0  0  0  0  0  0  0  0  0  0  0
   -3.7340   19.9090  -33.4720 N   0  0  0  0  0  0  0  0  0  0  0  0
   -4.9390   20.2790  -32.9560 C   0  0  0  0  0  0  0  0  0  0  0  0
   -6.1260   19.8710  -33.5840 C   0  0  0  0  0  0  0  0  0  0  0  0
   -7.3650   20.2510  -33.0680 C   0  0  0  0  0  0  0  0  0  0  0  0
   -7.4330   21.0440  -31.9220 C   0  0  0  0  0  0  0  0  0  0  0  0
   -9.1330   21.5680  -31.2250 Br  0  0  0  0  0  0  0  0  0  0  0  0
   -6.2600   21.4580  -31.2840 C   0  0  0  0  0  0  0  0  0  0  0  0
   -4.9960   21.0770  -31.7880 C   0  0  0  0  0  0  0  0  0  0  0  0
   -6.4764   24.6928  -30.5923 H   0  0  0  0  0  0  0  0  0  0  0  0
   -5.9193   25.4844  -32.1055 H   0  0  0  0  0  0  0  0  0  0  0  0
   -6.3308   23.7359  -32.1055 H   0  0  0  0  0  0  0  0  0  0  0  0
   -3.8725   24.4496  -26.7109 H   0  0  0  0  0  0  0  0  0  0  0  0
   -3.2540   22.0306  -26.5681 H   0  0  0  0  0  0  0  0  0  0  0  0
   -3.2257   20.6449  -28.6501 H   0  0  0  0  0  0  0  0  0  0  0  0
   -0.8173   21.7323  -28.1376 H   0  0  0  0  0  0  0  0  0  0  0  0
   -0.1819   20.0509  -26.4031 H   0  0  0  0  0  0  0  0  0  0  0  0
    0.5005   17.7477  -27.0839 H   0  0  0  0  0  0  0  0  0  0  0  0
    0.5517   17.1226  -29.5009 H   0  0  0  0  0  0  0  0  0  0  0  0
   -0.0789   18.7976  -31.2393 H   0  0  0  0  0  0  0  0  0  0  0  0
   -1.6114   19.9694  -33.3448 H   0  0  0  0  0  0  0  0  0  0  0  0
   -3.6920   19.3210  -34.3350 H   0  0  0  0  0  0  0  0  0  0  0  0
   -6.0790   19.2475  -34.4890 H   0  0  0  0  0  0  0  0  0  0  0  0
   -8.2902   19.9248  -33.5655 H   0  0  0  0  0  0  0  0  0  0  0  0
   -6.3214   22.0853  -30.3825 H   0  0  0  0  0  0  0  0  0  0  0  0
  1  2  1  0
  2  3  1  0
  3  4  2  0
  4  5  1  0
  5  6  2  0
  6  7  1  0
  7  8  2  0
  8  9  1  0
  9 10  1  0
 10 11  1  0
 11 12  2  0
 11 13  2  0
 11 14  1  0
 14 15  2  0
 15 16  1  0
 16 17  2  0
 17 18  1  0
 18 19  2  0
 10 20  2  0
 20 21  1  0
 21 22  2  0
 22 23  1  0
 23 24  2  0
 24 25  1  0
 25 26  1  0
 25 27  2  0
 27 28  1  0
  8  3  1  0
 28  9  2  0
 19 14  1  0
 28 22  1  0
  1 29  1  0
  1 30  1  0
  1 31  1  0
  5 32  1  0
  6 33  1  0
  7 34  1  0
 15 35  1  0
 16 36  1  0
 17 37  1  0
 18 38  1  0
 19 39  1  0
 20 40  1  0
 21 41  1  0
 23 42  1  0
 24 43  1  0
 27 44  1  0
M  CHG  1  21   1
M  END
>  <UniqueID>  (20) 
19

>  <SMILES>  (20) 
COc1ncccc1-c1c(S(=O)(=O)c2ccccc2)c[nH+]c2ccc(Br)cc12

>  <Energy>  (20) 
59.982567865438725

>  <Genealogy>  (20) 
COc1ncccc1-c1c(S(=O)(=O)c2ccccc2)c[nH+]c2ccc(Br)cc12 (protonated)
COc1ncccc1-c1c(S(=O)(=O)c2ccccc2)c[nH+]c2ccc(Br)cc12 (3D coordinates assigned)
COc1ncccc1-c1c(S(=O)(=O)c2ccccc2)c[nH+]c2ccc(Br)cc12 (optimized conformer: 59.982567865438725 kcal/mol)

>  <smiles>  (20) 
COc1ncccc1-c1c(S(=O)(=O)c2ccccc2)cnc2ccc(Br)cc12

>  <score_type>  (20) 
oracle

>  <origin>  (20) 
adg

>  <m_score__min__energy>  (20) 
-8.1899999999999995

>  <m_primary>  (20) 
energy

$$$$
20:0
     RDKit          3D

 51 53  0  0  0  0  0  0  0  0999 V2000
   -5.6630   25.6710  -30.4590 C   0  0  0  0  0  0  0  0  0  0  0  0
   -4.3090   25.3260  -30.7330 O   0  0  0  0  0  0  0  0  0  0  0  0
   -3.7300   24.0810  -30.4430 C   0  0  0  0  0  0  0  0  0  0  0  0
   -4.3130   22.8690  -30.8650 C   0  0  0  0  0  0  0  0  0  0  0  0
   -3.7130   21.6430  -30.5500 C   0  0  0  0  0  0  0  0  0  0  0  0
   -4.3220   20.3510  -31.0330 C   0  0  0  0  0  0  0  0  0  0  0  0
   -4.2690   20.2740  -32.5020 N   0  0  0  0  0  0  0  0  0  0  0  0
   -5.4650   20.8600  -33.1300 C   0  0  0  0  0  0  0  0  0  0  0  0
   -6.7300   20.1510  -32.7060 C   0  0  0  0  0  0  0  0  0  0  0  0
   -6.7950   18.7500  -32.6970 C   0  0  0  0  0  0  0  0  0  0  0  0
   -7.9830   18.1190  -32.3250 C   0  0  0  0  0  0  0  0  0  0  0  0
   -9.0690   18.8590  -31.9760 N   0  0  0  0  0  0  0  0  0  0  0  0
   -9.0350   20.2180  -31.9800 C   0  0  0  0  0  0  0  0  0  0  0  0
   -7.8670   20.8900  -32.3460 C   0  0  0  0  0  0  0  0  0  0  0  0
   -2.5080   21.6280  -29.8370 C   0  0  0  0  0  0  0  0  0  0  0  0
   -1.9220   22.8230  -29.4160 C   0  0  0  0  0  0  0  0  0  0  0  0
   -2.5320   24.0590  -29.7110 C   0  0  0  0  0  0  0  0  0  0  0  0
   -1.9800   25.2860  -29.3060 O   0  0  0  0  0  0  0  0  0  0  0  0
   -1.1540   25.4900  -28.1600 C   0  0  0  0  0  0  0  0  0  0  0  0
   -1.9720   25.3600  -26.8740 C   0  0  0  0  0  0  0  0  0  0  0  0
   -1.3190   26.1190  -25.7510 C   0  0  0  0  0  0  0  0  0  0  0  0
   -0.9870   27.4740  -25.9120 C   0  0  0  0  0  0  0  0  0  0  0  0
   -0.4100   28.1880  -24.8570 C   0  0  0  0  0  0  0  0  0  0  0  0
   -0.1690   27.5570  -23.6340 C   0  0  0  0  0  0  0  0  0  0  0  0
   -0.5080   26.2120  -23.4620 C   0  0  0  0  0  0  0  0  0  0  0  0
   -1.0860   25.4950  -24.5130 C   0  0  0  0  0  0  0  0  0  0  0  0
   -5.8183   25.7106  -29.3707 H   0  0  0  0  0  0  0  0  0  0  0  0
   -5.8866   26.6548  -30.8973 H   0  0  0  0  0  0  0  0  0  0  0  0
   -6.3301   24.9141  -30.8973 H   0  0  0  0  0  0  0  0  0  0  0  0
   -5.2467   22.8860  -31.4464 H   0  0  0  0  0  0  0  0  0  0  0  0
   -3.7632   19.5053  -30.6057 H   0  0  0  0  0  0  0  0  0  0  0  0
   -5.3734   20.3113  -30.7122 H   0  0  0  0  0  0  0  0  0  0  0  0
   -3.4330   20.8090  -32.8380 H   0  0  0  0  0  0  0  0  0  0  0  0
   -4.1610   19.2760  -32.8020 H   0  0  0  0  0  0  0  0  0  0  0  0
   -5.5364   21.9186  -32.8395 H   0  0  0  0  0  0  0  0  0  0  0  0
   -5.3640   20.7533  -34.2201 H   0  0  0  0  0  0  0  0  0  0  0  0
   -5.9160   18.1528  -32.9811 H   0  0  0  0  0  0  0  0  0  0  0  0
   -8.0409   17.0206  -32.3141 H   0  0  0  0  0  0  0  0  0  0  0  0
   -9.9301   20.7899  -31.6941 H   0  0  0  0  0  0  0  0  0  0  0  0
   -7.8385   21.9896  -32.3520 H   0  0  0  0  0  0  0  0  0  0  0  0
   -2.0204   20.6691  -29.6073 H   0  0  0  0  0  0  0  0  0  0  0  0
   -0.9786   22.8000  -28.8507 H   0  0  0  0  0  0  0  0  0  0  0  0
   -0.3513   24.7379  -28.1550 H   0  0  0  0  0  0  0  0  0  0  0  0
   -0.7276   26.5029  -28.2071 H   0  0  0  0  0  0  0  0  0  0  0  0
   -2.9806   25.7643  -27.0449 H   0  0  0  0  0  0  0  0  0  0  0  0
   -2.0296   24.2971  -26.5967 H   0  0  0  0  0  0  0  0  0  0  0  0
   -1.1815   27.9756  -26.8715 H   0  0  0  0  0  0  0  0  0  0  0  0
   -0.1456   29.2474  -24.9902 H   0  0  0  0  0  0  0  0  0  0  0  0
    0.2878   28.1190  -22.8061 H   0  0  0  0  0  0  0  0  0  0  0  0
   -0.3195   25.7171  -22.4979 H   0  0  0  0  0  0  0  0  0  0  0  0
   -1.3595   24.4390  -24.3712 H   0  0  0  0  0  0  0  0  0  0  0  0
  1  2  1  0
  2  3  1  0
  3  4  2  0
  4  5  1  0
  5  6  1  0
  6  7  1  0
  7  8  1  0
  8  9  1  0
  9 10  2  0
 10 11  1  0
 11 12  2  0
 12 13  1  0
 13 14  2  0
  5 15  2  0
 15 16  1  0
 16 17  2  0
 17 18  1  0
 18 19  1  0
 19 20  1  0
 20 21  1  0
 21 22  2  0
 22 23  1  0
 23 24  2  0
 24 25  1  0
 25 26  2  0
 17  3  1  0
 26 21  1  0
 14  9  1  0
  1 27  1  0
  1 28  1  0
  1 29  1  0
  4 30  1  0
  6 31  1  0
  6 32  1  0
  7 33  1  0
  7 34  1  0
  8 35  1  0
  8 36  1  0
 10 37  1  0
 11 38  1  0
 13 39  1  0
 14 40  1  0
 15 41  1  0
 16 42  1  0
 19 43  1  0
 19 44  1  0
 20 45  1  0
 20 46  1  0
 22 47  1  0
 23 48  1  0
 24 49  1  0
 25 50  1  0
 26 51  1  0
M  CHG  1   7   1
M  END
>  <UniqueID>  (21) 
20

>  <SMILES>  (21) 
COc1cc(C[NH2+]Cc2ccncc2)ccc1OCCc1ccccc1

>  <Energy>  (21) 
50.33860857988034

>  <Genealogy>  (21) 
COc1cc(C[NH2+]Cc2ccncc2)ccc1OCCc1ccccc1 (protonated)
COc1cc(C[NH2+]Cc2ccncc2)ccc1OCCc1ccccc1 (3D coordinates assigned)
COc1cc(C[NH2+]Cc2ccncc2)ccc1OCCc1ccccc1 (optimized conformer: 50.33860857988034 kcal/mol)

>  <smiles>  (21) 
COc1cc(CNCc2ccncc2)ccc1OCCc1ccccc1

>  <score_type>  (21) 
oracle

>  <origin>  (21) 
adg

>  <m_score__min__energy>  (21) 
-8.0800000000000001

>  <m_primary>  (21) 
energy

$$$$
21:0
     RDKit          3D

 51 54  0  0  0  0  0  0  0  0999 V2000
    2.1050   24.5450  -35.7210 C   0  0  0  0  0  0  0  0  0  0  0  0
    0.7430   24.0490  -36.1900 C   0  0  0  0  0  0  0  0  0  0  0  0
    0.4990   22.6560  -35.7060 C   0  0  0  0  0  0  0  0  0  0  0  0
    0.7330   22.2580  -34.4380 N   0  0  0  0  0  0  0  0  0  0  0  0
    0.3600   20.9630  -34.4550 C   0  0  0  0  0  0  0  0  0  0  0  0
    0.4500   20.0410  -33.2660 C   0  0  0  0  0  0  0  0  0  0  0  0
   -0.7510   20.0820  -32.4040 N   0  0  0  0  0  0  0  0  0  0  0  0
   -1.9030   19.3140  -32.9350 C   0  0  0  0  0  0  0  0  0  0  0  0
   -3.0350   20.2330  -33.4170 C   0  0  0  0  0  0  0  0  0  0  0  0
   -3.5410   21.0980  -32.3210 N   0  0  0  0  0  0  0  0  0  0  0  0
   -4.2590   22.2750  -32.8530 C   0  0  0  0  0  0  0  0  0  0  0  0
   -5.0370   22.9760  -31.7720 C   0  0  0  0  0  0  0  0  0  0  0  0
   -4.6210   24.1330  -31.2140 N   0  0  0  0  0  0  0  0  0  0  0  0
   -5.6020   24.4570  -30.3460 C   0  0  0  0  0  0  0  0  0  0  0  0
   -6.5930   23.5030  -30.3910 C   0  0  0  0  0  0  0  0  0  0  0  0
   -6.2310   22.5660  -31.2820 N   0  0  0  0  0  0  0  0  0  0  0  0
   -6.9980   21.4080  -31.6550 C   0  0  0  0  0  0  0  0  0  0  0  0
   -6.3850   20.1470  -31.7350 C   0  0  0  0  0  0  0  0  0  0  0  0
   -7.1260   19.0260  -32.1170 C   0  0  0  0  0  0  0  0  0  0  0  0
   -8.4850   19.1530  -32.4150 C   0  0  0  0  0  0  0  0  0  0  0  0
   -9.1050   20.4020  -32.3270 C   0  0  0  0  0  0  0  0  0  0  0  0
   -8.3680   21.5280  -31.9460 C   0  0  0  0  0  0  0  0  0  0  0  0
   -8.9800   22.7370  -31.8910 F   0  0  0  0  0  0  0  0  0  0  0  0
   -2.4930   21.4940  -31.3440 C   0  0  0  0  0  0  0  0  0  0  0  0
   -1.0850   21.4490  -31.9490 C   0  0  0  0  0  0  0  0  0  0  0  0
   -0.0890   20.6280  -35.7130 C   0  0  0  0  0  0  0  0  0  0  0  0
    0.0090   21.6980  -36.4620 O   0  0  0  0  0  0  0  0  0  0  0  0
    2.1328   24.5551  -34.6214 H   0  0  0  0  0  0  0  0  0  0  0  0
    2.8901   23.8751  -36.1015 H   0  0  0  0  0  0  0  0  0  0  0  0
    2.2755   25.5629  -36.1015 H   0  0  0  0  0  0  0  0  0  0  0  0
   -0.0400   24.7124  -35.7940 H   0  0  0  0  0  0  0  0  0  0  0  0
    0.7220   24.0527  -37.2898 H   0  0  0  0  0  0  0  0  0  0  0  0
    0.5832   19.0119  -33.6310 H   0  0  0  0  0  0  0  0  0  0  0  0
    1.3015   20.3769  -32.6560 H   0  0  0  0  0  0  0  0  0  0  0  0
   -1.5604   18.6993  -33.7805 H   0  0  0  0  0  0  0  0  0  0  0  0
   -2.2975   18.6877  -32.1213 H   0  0  0  0  0  0  0  0  0  0  0  0
   -2.6557   20.8708  -34.2290 H   0  0  0  0  0  0  0  0  0  0  0  0
   -3.8647   19.6018  -33.7681 H   0  0  0  0  0  0  0  0  0  0  0  0
   -3.5283   22.9770  -33.2812 H   0  0  0  0  0  0  0  0  0  0  0  0
   -4.9661   21.9316  -33.6224 H   0  0  0  0  0  0  0  0  0  0  0  0
   -5.6087   25.3479  -29.7008 H   0  0  0  0  0  0  0  0  0  0  0  0
   -7.5205   23.5074  -29.7997 H   0  0  0  0  0  0  0  0  0  0  0  0
   -5.3165   20.0415  -31.4958 H   0  0  0  0  0  0  0  0  0  0  0  0
   -6.6388   18.0420  -32.1832 H   0  0  0  0  0  0  0  0  0  0  0  0
   -9.0666   18.2701  -32.7188 H   0  0  0  0  0  0  0  0  0  0  0  0
  -10.1760   20.5001  -32.5581 H   0  0  0  0  0  0  0  0  0  0  0  0
   -2.6981   22.5191  -31.0016 H   0  0  0  0  0  0  0  0  0  0  0  0
   -2.5233   20.7776  -30.5099 H   0  0  0  0  0  0  0  0  0  0  0  0
   -1.0393   22.1357  -32.8071 H   0  0  0  0  0  0  0  0  0  0  0  0
   -0.3607   21.7502  -31.1778 H   0  0  0  0  0  0  0  0  0  0  0  0
   -0.4615   19.6429  -36.0305 H   0  0  0  0  0  0  0  0  0  0  0  0
  1  2  1  0
  2  3  1  0
  3  4  2  0
  4  5  1  0
  5  6  1  0
  6  7  1  0
  7  8  1  0
  8  9  1  0
  9 10  1  0
 10 11  1  0
 11 12  1  0
 12 13  2  0
 13 14  1  0
 14 15  2  0
 15 16  1  0
 16 17  1  0
 17 18  2  0
 18 19  1  0
 19 20  2  0
 20 21  1  0
 21 22  2  0
 22 23  1  0
 10 24  1  0
 24 25  1  0
  5 26  2  0
 26 27  1  0
 27  3  1  0
 25  7  1  0
 16 12  1  0
 22 17  1  0
  1 28  1  0
  1 29  1  0
  1 30  1  0
  2 31  1  0
  2 32  1  0
  6 33  1  0
  6 34  1  0
  8 35  1  0
  8 36  1  0
  9 37  1  0
  9 38  1  0
 11 39  1  0
 11 40  1  0
 14 41  1  0
 15 42  1  0
 18 43  1  0
 19 44  1  0
 20 45  1  0
 21 46  1  0
 24 47  1  0
 24 48  1  0
 25 49  1  0
 25 50  1  0
 26 51  1  0
M  END
>  <UniqueID>  (22) 
21

>  <SMILES>  (22) 
CCc1nc(CN2CCN(Cc3nccn3-c3ccccc3F)CC2)co1

>  <Energy>  (22) 
126.52882105384732

>  <Genealogy>  (22) 
CCc1nc(CN2CCN(Cc3nccn3-c3ccccc3F)CC2)co1 (3D coordinates assigned)
CCc1nc(CN2CCN(Cc3nccn3-c3ccccc3F)CC2)co1 (nonaromatic ring conformer: 126.52882105384732 kcal/mol)

>  <smiles>  (22) 
CCc1nc(CN2CCN(Cc3nccn3-c3ccccc3F)CC2)co1

>  <score_type>  (22) 
oracle

>  <origin>  (22) 
adg

>  <m_score__min__energy>  (22) 
-8.0600000000000005

>  <m_primary>  (22) 
energy

$$$$
22:0
     RDKit          3D

 53 55  0  0  0  0  0  0  0  0999 V2000
   -1.3060   23.8170  -29.3320 C   0  0  0  0  0  0  0  0  0  0  0  0
   -2.2810   24.8060  -28.8470 N   0  0  0  0  0  0  0  0  0  0  0  0
   -1.8970   25.3340  -27.5290 C   0  0  0  0  0  0  0  0  0  0  0  0
   -3.6760   24.3110  -28.8880 C   0  0  0  0  0  0  0  0  0  0  0  0
   -4.5010   24.8240  -30.0850 C   0  0  0  0  0  0  0  0  0  0  0  0
   -5.0920   23.6890  -30.8090 N   0  0  0  0  0  0  0  0  0  0  0  0
   -6.4980   23.4020  -30.6920 C   0  0  0  0  0  0  0  0  0  0  0  0
   -7.2370   24.1410  -29.9830 O   0  0  0  0  0  0  0  0  0  0  0  0
   -7.0770   22.2370  -31.3990 C   0  0  0  0  0  0  0  0  0  0  0  0
   -8.4560   21.9830  -31.3260 C   0  0  0  0  0  0  0  0  0  0  0  0
   -9.0110   20.9000  -32.0020 C   0  0  0  0  0  0  0  0  0  0  0  0
   -8.2040   20.0450  -32.7480 C   0  0  0  0  0  0  0  0  0  0  0  0
   -6.8130   20.2540  -32.8250 C   0  0  0  0  0  0  0  0  0  0  0  0
   -5.9780   19.3890  -33.5760 C   0  0  0  0  0  0  0  0  0  0  0  0
   -6.5110   18.2150  -34.2200 N   0  0  0  0  0  0  0  0  0  0  0  0
   -6.7150   16.9390  -33.5310 C   0  0  0  0  0  0  0  0  0  0  0  0
   -5.7240   16.7920  -32.3600 C   0  0  0  0  0  0  0  0  0  0  0  0
   -4.5210   16.0080  -32.7290 N   0  0  0  0  0  0  0  0  0  0  0  0
   -4.3420   16.0240  -34.1910 C   0  0  0  0  0  0  0  0  0  0  0  0
   -4.6130   14.6120  -32.2590 C   0  0  0  0  0  0  0  0  0  0  0  0
   -4.6060   19.6660  -33.6660 C   0  0  0  0  0  0  0  0  0  0  0  0
   -4.0550   20.7670  -33.0150 C   0  0  0  0  0  0  0  0  0  0  0  0
   -4.8590   21.6260  -32.2540 C   0  0  0  0  0  0  0  0  0  0  0  0
   -6.2460   21.3770  -32.1550 C   0  0  0  0  0  0  0  0  0  0  0  0
   -4.2580   22.7890  -31.5610 C   0  0  0  0  0  0  0  0  0  0  0  0
   -3.0130   22.9870  -31.6250 O   0  0  0  0  0  0  0  0  0  0  0  0
   -0.8229   23.3270  -28.4738 H   0  0  0  0  0  0  0  0  0  0  0  0
   -1.8226   23.0617  -29.9424 H   0  0  0  0  0  0  0  0  0  0  0  0
   -0.5434   24.3228  -29.9424 H   0  0  0  0  0  0  0  0  0  0  0  0
   -2.3479   24.7140  -26.7401 H   0  0  0  0  0  0  0  0  0  0  0  0
   -0.8016   25.3132  -27.4306 H   0  0  0  0  0  0  0  0  0  0  0  0
   -2.2543   26.3697  -27.4306 H   0  0  0  0  0  0  0  0  0  0  0  0
   -3.6496   23.2123  -28.9345 H   0  0  0  0  0  0  0  0  0  0  0  0
   -4.1698   24.6912  -27.9816 H   0  0  0  0  0  0  0  0  0  0  0  0
   -5.3038   25.4813  -29.7197 H   0  0  0  0  0  0  0  0  0  0  0  0
   -3.8424   25.3839  -30.7652 H   0  0  0  0  0  0  0  0  0  0  0  0
   -9.1024   22.6445  -30.7304 H   0  0  0  0  0  0  0  0  0  0  0  0
  -10.0945   20.7184  -31.9464 H   0  0  0  0  0  0  0  0  0  0  0  0
   -8.6574   19.1974  -33.2828 H   0  0  0  0  0  0  0  0  0  0  0  0
   -6.7620   18.2620  -35.2320 H   0  0  0  0  0  0  0  0  0  0  0  0
   -7.7432   16.8982  -33.1421 H   0  0  0  0  0  0  0  0  0  0  0  0
   -6.5460   16.1190  -34.2445 H   0  0  0  0  0  0  0  0  0  0  0  0
   -5.4065   17.7949  -32.0386 H   0  0  0  0  0  0  0  0  0  0  0  0
   -6.2395   16.2525  -31.5518 H   0  0  0  0  0  0  0  0  0  0  0  0
   -3.6720   16.4500  -32.3000 H   0  0  0  0  0  0  0  0  0  0  0  0
   -3.2722   16.1196  -34.4284 H   0  0  0  0  0  0  0  0  0  0  0  0
   -4.7301   15.0876  -34.6182 H   0  0  0  0  0  0  0  0  0  0  0  0
   -4.8900   16.8767  -34.6182 H   0  0  0  0  0  0  0  0  0  0  0  0
   -4.6141   14.5947  -31.1591 H   0  0  0  0  0  0  0  0  0  0  0  0
   -5.5429   14.1595  -32.6338 H   0  0  0  0  0  0  0  0  0  0  0  0
   -3.7505   14.0413  -32.6338 H   0  0  0  0  0  0  0  0  0  0  0  0
   -3.9566   19.0049  -34.2586 H   0  0  0  0  0  0  0  0  0  0  0  0
   -2.9762   20.9646  -33.0992 H   0  0  0  0  0  0  0  0  0  0  0  0
  1  2  1  0
  2  3  1  0
  2  4  1  0
  4  5  1  0
  5  6  1  0
  6  7  1  0
  7  8  2  0
  7  9  1  0
  9 10  1  0
 10 11  2  0
 11 12  1  0
 12 13  2  0
 13 14  1  0
 14 15  1  0
 15 16  1  0
 16 17  1  0
 17 18  1  0
 18 19  1  0
 18 20  1  0
 14 21  2  0
 21 22  1  0
 22 23  2  0
 23 24  1  0
 23 25  1  0
 25 26  2  0
 25  6  1  0
 24  9  2  0
 24 13  1  0
  1 27  1  0
  1 28  1  0
  1 29  1  0
  3 30  1  0
  3 31  1  0
  3 32  1  0
  4 33  1  0
  4 34  1  0
  5 35  1  0
  5 36  1  0
 10 37  1  0
 11 38  1  0
 12 39  1  0
 15 40  1  0
 16 41  1  0
 16 42  1  0
 17 43  1  0
 17 44  1  0
 18 45  1  0
 19 46  1  0
 19 47  1  0
 19 48  1  0
 20 49  1  0
 20 50  1  0
 20 51  1  0
 21 52  1  0
 22 53  1  0
M  CHG  1  18   1
M  END
>  <UniqueID>  (23) 
22

>  <SMILES>  (23) 
CN(C)CCN1C(=O)c2cccc3c(NCC[NH+](C)C)ccc(c23)C1=O

>  <Energy>  (23) 
64.71348709300409

>  <Genealogy>  (23) 
CN(C)CCN1C(=O)c2cccc3c(NCC[NH+](C)C)ccc(c23)C1=O (protonated)
CN(C)CCN1C(=O)c2cccc3c(NCC[NH+](C)C)ccc(c23)C1=O (3D coordinates assigned)
CN(C)CCN1C(=O)c2cccc3c(NCC[NH+](C)C)ccc(c23)C1=O (nonaromatic ring conformer: 64.71348709300409 kcal/mol)

>  <smiles>  (23) 
CN(C)CCNc1ccc2c3c(cccc13)C(=O)N(CCN(C)C)C2=O

>  <score_type>  (23) 
oracle

>  <origin>  (23) 
adg

>  <m_score__min__energy>  (23) 
-7.8499999999999996

>  <m_primary>  (23) 
energy

$$$$
23:0
     RDKit          3D

 45 47  0  0  0  0  0  0  0  0999 V2000
   -7.6790   18.0460  -32.7110 C   0  0  0  0  0  0  0  0  0  0  0  0
   -7.9250   19.4910  -32.3770 C   0  0  0  0  0  0  0  0  0  0  0  0
   -9.1080   19.8670  -31.7200 C   0  0  0  0  0  0  0  0  0  0  0  0
   -9.3530   21.2090  -31.4190 C   0  0  0  0  0  0  0  0  0  0  0  0
   -8.4220   22.1840  -31.7740 C   0  0  0  0  0  0  0  0  0  0  0  0
   -7.2450   21.8260  -32.4350 C   0  0  0  0  0  0  0  0  0  0  0  0
   -6.9880   20.4750  -32.7500 C   0  0  0  0  0  0  0  0  0  0  0  0
   -5.8180   20.0710  -33.4200 O   0  0  0  0  0  0  0  0  0  0  0  0
   -4.8080   19.2120  -32.8930 C   0  0  0  0  0  0  0  0  0  0  0  0
   -3.9600   19.9550  -31.8440 C   0  0  0  0  0  0  0  0  0  0  0  0
   -3.1460   21.0450  -32.4450 N   0  0  2  0  0  0  0  0  0  0  0  0
   -2.0240   21.4430  -31.5530 C   0  0  0  0  0  0  0  0  0  0  0  0
   -2.5120   22.0570  -30.2240 C   0  0  0  0  0  0  0  0  0  0  0  0
   -3.6160   22.9810  -30.4730 N   0  0  0  0  0  0  0  0  0  0  0  0
   -4.3280   23.0430  -31.6100 C   0  0  0  0  0  0  0  0  0  0  0  0
   -5.3130   23.9650  -31.5730 N   0  0  0  0  0  0  0  0  0  0  0  0
   -5.2210   24.4790  -30.3260 C   0  0  0  0  0  0  0  0  0  0  0  0
   -6.1120   25.5610  -29.8090 C   0  0  0  0  0  0  0  0  0  0  0  0
   -4.1920   23.8620  -29.6370 C   0  0  0  0  0  0  0  0  0  0  0  0
   -3.7120   24.1770  -28.2540 C   0  0  0  0  0  0  0  0  0  0  0  0
   -3.9700   22.2270  -32.8150 C   0  0  0  0  0  0  0  0  0  0  0  0
   -7.5803   17.4664  -31.7813 H   0  0  0  0  0  0  0  0  0  0  0  0
   -8.5237   17.6564  -33.2980 H   0  0  0  0  0  0  0  0  0  0  0  0
   -6.7529   17.9579  -33.2980 H   0  0  0  0  0  0  0  0  0  0  0  0
   -9.8458   19.1004  -31.4408 H   0  0  0  0  0  0  0  0  0  0  0  0
  -10.2804   21.4963  -30.9019 H   0  0  0  0  0  0  0  0  0  0  0  0
   -8.6152   23.2396  -31.5325 H   0  0  0  0  0  0  0  0  0  0  0  0
   -6.5149   22.6010  -32.7113 H   0  0  0  0  0  0  0  0  0  0  0  0
   -5.2846   18.3401  -32.4212 H   0  0  0  0  0  0  0  0  0  0  0  0
   -4.1527   18.8881  -33.7150 H   0  0  0  0  0  0  0  0  0  0  0  0
   -4.6321   20.3902  -31.0897 H   0  0  0  0  0  0  0  0  0  0  0  0
   -3.2683   19.2276  -31.3941 H   0  0  0  0  0  0  0  0  0  0  0  0
   -2.7070   20.6830  -33.3230 H   0  0  0  0  0  0  0  0  0  0  0  0
   -1.4193   20.5520  -31.3284 H   0  0  0  0  0  0  0  0  0  0  0  0
   -1.4363   22.2101  -32.0786 H   0  0  0  0  0  0  0  0  0  0  0  0
   -2.8542   21.2530  -29.5558 H   0  0  0  0  0  0  0  0  0  0  0  0
   -1.6821   22.6059  -29.7549 H   0  0  0  0  0  0  0  0  0  0  0  0
   -6.1025   25.5495  -28.7091 H   0  0  0  0  0  0  0  0  0  0  0  0
   -5.7514   26.5360  -30.1686 H   0  0  0  0  0  0  0  0  0  0  0  0
   -7.1381   25.3942  -30.1686 H   0  0  0  0  0  0  0  0  0  0  0  0
   -4.3953   23.7286  -27.5177 H   0  0  0  0  0  0  0  0  0  0  0  0
   -2.7013   23.7660  -28.1142 H   0  0  0  0  0  0  0  0  0  0  0  0
   -3.6868   25.2678  -28.1142 H   0  0  0  0  0  0  0  0  0  0  0  0
   -4.8945   21.8810  -33.3004 H   0  0  0  0  0  0  0  0  0  0  0  0
   -3.3828   22.8580  -33.4984 H   0  0  0  0  0  0  0  0  0  0  0  0
  1  2  1  0
  2  3  2  0
  3  4  1  0
  4  5  2  0
  5  6  1  0
  6  7  2  0
  7  8  1  0
  8  9  1  0
  9 10  1  0
 10 11  1  0
 11 12  1  0
 12 13  1  0
 13 14  1  0
 14 15  1  0
 15 16  2  0
 16 17  1  0
 17 18  1  0
 17 19  2  0
 19 20  1  0
 15 21  1  0
  7  2  1  0
 21 11  1  0
 19 14  1  0
  1 22  1  0
  1 23  1  0
  1 24  1  0
  3 25  1  0
  4 26  1  0
  5 27  1  0
  6 28  1  0
  9 29  1  0
  9 30  1  0
 10 31  1  0
 10 32  1  0
 11 33  1  6
 12 34  1  0
 12 35  1  0
 13 36  1  0
 13 37  1  0
 18 38  1  0
 18 39  1  0
 18 40  1  0
 20 41  1  0
 20 42  1  0
 20 43  1  0
 21 44  1  0
 21 45  1  0
M  CHG  1  11   1
M  END
>  <UniqueID>  (24) 
23

>  <SMILES>  (24) 
Cc1ccccc1OCC[N@@H+]1CCn2c(nc(C)c2C)C1

>  <Energy>  (24) 
79.33108834538349

>  <Genealogy>  (24) 
Cc1ccccc1OCC[NH+]1CCn2c(nc(C)c2C)C1 (protonated)
Cc1ccccc1OCC[N@@H+]1CCn2c(nc(C)c2C)C1 (chirality)
Cc1ccccc1OCC[N@@H+]1CCn2c(nc(C)c2C)C1 (3D coordinates assigned)
Cc1ccccc1OCC[N@@H+]1CCn2c(nc(C)c2C)C1 (nonaromatic ring conformer: 79.33108834538349 kcal/mol)

>  <smiles>  (24) 
Cc1ccccc1OCCN1CCn2c(nc(C)c2C)C1

>  <score_type>  (24) 
oracle

>  <origin>  (24) 
adg

>  <m_score__min__energy>  (24) 
-6.6200000000000001

>  <m_primary>  (24) 
energy

$$$$
24:0
     RDKit          3D

 37 38  0  0  0  0  0  0  0  0999 V2000
   -3.4080   21.3950  -33.0910 C   0  0  0  0  0  0  0  0  0  0  0  0
   -4.8990   21.0540  -33.0620 C   0  0  0  0  0  0  0  0  0  0  0  0
   -5.2380   19.5710  -33.1600 C   0  0  0  0  0  0  0  0  0  0  0  0
   -4.2210   18.5890  -33.1230 C   0  0  0  0  0  0  0  0  0  0  0  0
   -4.5280   17.2310  -33.2250 C   0  0  0  0  0  0  0  0  0  0  0  0
   -5.8470   16.8220  -33.3840 C   0  0  0  0  0  0  0  0  0  0  0  0
   -6.8670   17.7680  -33.4560 C   0  0  0  0  0  0  0  0  0  0  0  0
   -6.5850   19.1450  -33.3640 C   0  0  0  0  0  0  0  0  0  0  0  0
   -7.6870   20.0810  -33.4700 N   0  0  0  0  0  0  0  0  0  0  0  0
   -8.3420   20.2810  -32.1950 C   0  0  0  0  0  0  0  0  0  0  0  0
   -8.7120   18.9920  -31.2400 S   0  0  0  0  0  0  0  0  0  0  0  0
   -8.4710   21.5960  -31.6230 N   0  0  0  0  0  0  0  0  0  0  0  0
   -7.8450   22.8030  -32.1640 C   0  0  0  0  0  0  0  0  0  0  0  0
   -6.6670   23.2170  -31.3230 C   0  0  0  0  0  0  0  0  0  0  0  0
   -6.4550   22.6570  -30.0530 C   0  0  0  0  0  0  0  0  0  0  0  0
   -5.3600   23.0590  -29.2870 C   0  0  0  0  0  0  0  0  0  0  0  0
   -4.4800   24.0150  -29.8000 C   0  0  0  0  0  0  0  0  0  0  0  0
   -4.6910   24.5420  -31.0350 N   0  0  0  0  0  0  0  0  0  0  0  0
   -5.7510   24.1670  -31.8000 C   0  0  0  0  0  0  0  0  0  0  0  0
   -3.0315   21.4811  -32.0610 H   0  0  0  0  0  0  0  0  0  0  0  0
   -2.8600   20.5990  -33.6164 H   0  0  0  0  0  0  0  0  0  0  0  0
   -3.2604   22.3501  -33.6164 H   0  0  0  0  0  0  0  0  0  0  0  0
   -5.3148   21.4344  -32.1173 H   0  0  0  0  0  0  0  0  0  0  0  0
   -5.3318   21.5213  -33.9588 H   0  0  0  0  0  0  0  0  0  0  0  0
   -3.1717   18.9001  -33.0121 H   0  0  0  0  0  0  0  0  0  0  0  0
   -3.7235   16.4822  -33.1794 H   0  0  0  0  0  0  0  0  0  0  0  0
   -6.0855   15.7504  -33.4530 H   0  0  0  0  0  0  0  0  0  0  0  0
   -7.9072   17.4350  -33.5865 H   0  0  0  0  0  0  0  0  0  0  0  0
   -7.3980   21.0060  -33.8570 H   0  0  0  0  0  0  0  0  0  0  0  0
   -8.3590   19.6790  -34.1590 H   0  0  0  0  0  0  0  0  0  0  0  0
   -8.9950   21.6940  -30.7240 H   0  0  0  0  0  0  0  0  0  0  0  0
   -7.5030   22.6029  -33.1902 H   0  0  0  0  0  0  0  0  0  0  0  0
   -8.5852   23.6167  -32.1590 H   0  0  0  0  0  0  0  0  0  0  0  0
   -7.1521   21.9013  -29.6618 H   0  0  0  0  0  0  0  0  0  0  0  0
   -5.1915   22.6275  -28.2893 H   0  0  0  0  0  0  0  0  0  0  0  0
   -3.6153   24.3417  -29.2038 H   0  0  0  0  0  0  0  0  0  0  0  0
   -5.8909   24.6103  -32.7970 H   0  0  0  0  0  0  0  0  0  0  0  0
  1  2  1  0
  2  3  1  0
  3  4  2  0
  4  5  1  0
  5  6  2  0
  6  7  1  0
  7  8  2  0
  8  9  1  0
  9 10  1  0
 10 11  2  0
 10 12  1  0
 12 13  1  0
 13 14  1  0
 14 15  2  0
 15 16  1  0
 16 17  2  0
 17 18  1  0
 18 19  2  0
  8  3  1  0
 19 14  1  0
  1 20  1  0
  1 21  1  0
  1 22  1  0
  2 23  1  0
  2 24  1  0
  4 25  1  0
  5 26  1  0
  6 27  1  0
  7 28  1  0
  9 29  1  0
  9 30  1  0
 12 31  1  0
 13 32  1  0
 13 33  1  0
 15 34  1  0
 16 35  1  0
 17 36  1  0
 19 37  1  0
M  CHG  1   9   1
M  END
>  <UniqueID>  (25) 
24

>  <SMILES>  (25) 
CCc1ccccc1[NH2+]C(=S)NCc1cccnc1

>  <Energy>  (25) 
42.60041191920994

>  <Genealogy>  (25) 
CCc1ccccc1[NH2+]C(=S)NCc1cccnc1 (protonated)
CCc1ccccc1[NH2+]C(=S)NCc1cccnc1 (3D coordinates assigned)
CCc1ccccc1[NH2+]C(=S)NCc1cccnc1 (optimized conformer: 42.60041191920994 kcal/mol)

>  <smiles>  (25) 
CCc1ccccc1NC(=S)NCc1cccnc1

>  <score_type>  (25) 
oracle

>  <origin>  (25) 
adg

>  <m_score__min__energy>  (25) 
-7.1500000000000004

>  <m_primary>  (25) 
energy

$$$$
25:0
     RDKit          3D

 42 45  0  0  0  0  0  0  0  0999 V2000
   -6.8000   16.5960  -33.3740 C   0  0  0  0  0  0  0  0  0  0  0  0
   -7.5060   17.4030  -32.4370 O   0  0  0  0  0  0  0  0  0  0  0  0
   -7.4250   18.8030  -32.3780 C   0  0  0  0  0  0  0  0  0  0  0  0
   -8.5990   19.5260  -32.1340 C   0  0  0  0  0  0  0  0  0  0  0  0
   -8.5700   20.9210  -32.0500 C   0  0  0  0  0  0  0  0  0  0  0  0
   -7.3620   21.6130  -32.2160 C   0  0  0  0  0  0  0  0  0  0  0  0
   -6.1880   20.8960  -32.5030 C   0  0  0  0  0  0  0  0  0  0  0  0
   -6.2140   19.4980  -32.5640 C   0  0  0  0  0  0  0  0  0  0  0  0
   -4.6870   21.7800  -32.9320 S   0  0  0  0  0  0  0  0  0  0  0  0
   -4.8600   23.0000  -31.6270 C   0  0  0  0  0  0  0  0  0  0  0  0
   -3.7300   23.4350  -30.9270 C   0  0  0  0  0  0  0  0  0  0  0  0
   -3.8210   24.4960  -30.0110 C   0  0  0  0  0  0  0  0  0  0  0  0
   -2.6380   24.9280  -29.3140 N   0  0  0  0  0  0  0  0  0  0  0  0
   -2.2230   24.3800  -28.0200 C   0  0  0  0  0  0  0  0  0  0  0  0
   -1.7370   25.4770  -27.1120 C   0  0  0  0  0  0  0  0  0  0  0  0
   -2.1150   25.4960  -25.7590 C   0  0  0  0  0  0  0  0  0  0  0  0
   -1.6340   26.4940  -24.9070 C   0  0  0  0  0  0  0  0  0  0  0  0
   -0.7630   27.4730  -25.3960 C   0  0  0  0  0  0  0  0  0  0  0  0
   -0.3690   27.4510  -26.7370 C   0  0  0  0  0  0  0  0  0  0  0  0
   -0.8490   26.4530  -27.5930 C   0  0  0  0  0  0  0  0  0  0  0  0
   -5.0690   25.1180  -29.8110 C   0  0  0  0  0  0  0  0  0  0  0  0
   -6.2030   24.6680  -30.4940 C   0  0  0  0  0  0  0  0  0  0  0  0
   -6.1100   23.5960  -31.3910 C   0  0  0  0  0  0  0  0  0  0  0  0
   -7.3000   23.0250  -31.9580 N   0  0  0  0  0  0  0  0  0  0  0  0
   -6.1689   15.8746  -32.8343 H   0  0  0  0  0  0  0  0  0  0  0  0
   -7.5189   16.0536  -34.0057 H   0  0  0  0  0  0  0  0  0  0  0  0
   -6.1669   17.2364  -34.0057 H   0  0  0  0  0  0  0  0  0  0  0  0
   -9.5522   18.9917  -32.0073 H   0  0  0  0  0  0  0  0  0  0  0  0
   -9.4980   21.4777  -31.8530 H   0  0  0  0  0  0  0  0  0  0  0  0
   -5.2859   18.9403  -32.7578 H   0  0  0  0  0  0  0  0  0  0  0  0
   -2.7613   22.9418  -31.0953 H   0  0  0  0  0  0  0  0  0  0  0  0
   -2.0480   25.6690  -29.7580 H   0  0  0  0  0  0  0  0  0  0  0  0
   -3.0795   23.8745  -27.5500 H   0  0  0  0  0  0  0  0  0  0  0  0
   -1.4028   23.6656  -28.1839 H   0  0  0  0  0  0  0  0  0  0  0  0
   -2.7923   24.7222  -25.3686 H   0  0  0  0  0  0  0  0  0  0  0  0
   -1.9408   26.5095  -23.8508 H   0  0  0  0  0  0  0  0  0  0  0  0
   -0.3881   28.2602  -24.7254 H   0  0  0  0  0  0  0  0  0  0  0  0
    0.3191   28.2190  -27.1200 H   0  0  0  0  0  0  0  0  0  0  0  0
   -0.5298   26.4331  -28.6455 H   0  0  0  0  0  0  0  0  0  0  0  0
   -5.1520   25.9637  -29.1125 H   0  0  0  0  0  0  0  0  0  0  0  0
   -7.1733   25.1583  -30.3261 H   0  0  0  0  0  0  0  0  0  0  0  0
   -8.1930   23.5650  -31.9000 H   0  0  0  0  0  0  0  0  0  0  0  0
  1  2  1  0
  2  3  1  0
  3  4  2  0
  4  5  1  0
  5  6  2  0
  6  7  1  0
  7  8  2  0
  7  9  1  0
  9 10  1  0
 10 11  2  0
 11 12  1  0
 12 13  1  0
 13 14  1  0
 14 15  1  0
 15 16  2  0
 16 17  1  0
 17 18  2  0
 18 19  1  0
 19 20  2  0
 12 21  2  0
 21 22  1  0
 22 23  2  0
 23 24  1  0
  8  3  1  0
 23 10  1  0
 24  6  1  0
 20 15  1  0
  1 25  1  0
  1 26  1  0
  1 27  1  0
  4 28  1  0
  5 29  1  0
  8 30  1  0
 11 31  1  0
 13 32  1  0
 14 33  1  0
 14 34  1  0
 16 35  1  0
 17 36  1  0
 18 37  1  0
 19 38  1  0
 20 39  1  0
 21 40  1  0
 22 41  1  0
 24 42  1  0
M  END
>  <UniqueID>  (26) 
25

>  <SMILES>  (26) 
COc1ccc2c(c1)Sc1cc(NCc3ccccc3)ccc1N2

>  <Energy>  (26) 
59.42666156009693

>  <Genealogy>  (26) 
COc1ccc2c(c1)Sc1cc(NCc3ccccc3)ccc1N2 (3D coordinates assigned)
COc1ccc2c(c1)Sc1cc(NCc3ccccc3)ccc1N2 (nonaromatic ring conformer: 59.42666156009693 kcal/mol)

>  <smiles>  (26) 
COc1ccc2c(c1)Sc1cc(NCc3ccccc3)ccc1N2

>  <score_type>  (26) 
oracle

>  <origin>  (26) 
adg

>  <m_score__min__energy>  (26) 
-9.2200000000000006

>  <m_primary>  (26) 
energy

$$$$
26:0
     RDKit          3D

 25 27  0  0  0  0  0  0  0  0999 V2000
   -8.0590   18.2700  -32.3610 C   0  0  0  0  0  0  0  0  0  0  0  0
   -6.7160   18.6330  -32.1220 C   0  0  0  0  0  0  0  0  0  0  0  0
   -6.3790   19.9650  -31.8250 C   0  0  0  0  0  0  0  0  0  0  0  0
   -7.4130   20.9040  -31.7600 C   0  0  0  0  0  0  0  0  0  0  0  0
   -7.4080   22.2700  -31.5240 C   0  0  0  0  0  0  0  0  0  0  0  0
   -6.2620   23.1430  -31.1940 C   0  0  0  0  0  0  0  0  0  0  0  0
   -4.9520   22.6380  -31.1720 C   0  0  0  0  0  0  0  0  0  0  0  0
   -3.8910   23.4850  -30.8440 C   0  0  0  0  0  0  0  0  0  0  0  0
   -4.1270   24.7880  -30.5360 N   0  0  0  0  0  0  0  0  0  0  0  0
   -5.3860   25.3020  -30.5340 C   0  0  0  0  0  0  0  0  0  0  0  0
   -6.4750   24.4890  -30.8570 C   0  0  0  0  0  0  0  0  0  0  0  0
   -8.7350   22.6760  -31.6650 C   0  0  0  0  0  0  0  0  0  0  0  0
   -9.5270   21.6210  -31.9570 N   0  0  0  0  0  0  0  0  0  0  0  0
   -8.7160   20.5510  -32.0140 C   0  0  0  0  0  0  0  0  0  0  0  0
   -9.0770   19.2380  -32.3130 C   0  0  0  0  0  0  0  0  0  0  0  0
   -8.3104   17.2231  -32.5862 H   0  0  0  0  0  0  0  0  0  0  0  0
   -5.9272   17.8678  -32.1685 H   0  0  0  0  0  0  0  0  0  0  0  0
   -5.3339   20.2596  -31.6491 H   0  0  0  0  0  0  0  0  0  0  0  0
   -4.7625   21.5813  -31.4117 H   0  0  0  0  0  0  0  0  0  0  0  0
   -2.8618   23.0968  -30.8348 H   0  0  0  0  0  0  0  0  0  0  0  0
   -5.5471   26.3595  -30.2777 H   0  0  0  0  0  0  0  0  0  0  0  0
   -7.4947   24.9015  -30.8473 H   0  0  0  0  0  0  0  0  0  0  0  0
   -9.0879   23.7119  -31.5538 H   0  0  0  0  0  0  0  0  0  0  0  0
  -10.5590   21.6390  -32.1150 H   0  0  0  0  0  0  0  0  0  0  0  0
  -10.1259   18.9680  -32.5054 H   0  0  0  0  0  0  0  0  0  0  0  0
  1  2  2  0
  2  3  1  0
  3  4  2  0
  4  5  1  0
  5  6  1  0
  6  7  2  0
  7  8  1  0
  8  9  2  0
  9 10  1  0
 10 11  2  0
  5 12  2  0
 12 13  1  0
 13 14  1  0
 14 15  2  0
 15  1  1  0
 14  4  1  0
 11  6  1  0
  1 16  1  0
  2 17  1  0
  3 18  1  0
  7 19  1  0
  8 20  1  0
 10 21  1  0
 11 22  1  0
 12 23  1  0
 13 24  1  0
 15 25  1  0
M  END
>  <UniqueID>  (27) 
26

>  <SMILES>  (27) 
c1ccc2c(-c3ccncc3)c[nH]c2c1

>  <Energy>  (27) 
66.18337219751433

>  <Genealogy>  (27) 
c1ccc2c(-c3ccncc3)c[nH]c2c1 (3D coordinates assigned)
c1ccc2c(-c3ccncc3)c[nH]c2c1 (optimized conformer: 66.18337219751433 kcal/mol)

>  <smiles>  (27) 
c1ccc2c(-c3ccncc3)c[nH]c2c1

>  <score_type>  (27) 
oracle

>  <origin>  (27) 
adg

>  <m_score__min__energy>  (27) 
-7.25

>  <m_primary>  (27) 
energy

$$$$
27:0
     RDKit          3D

 37 39  0  0  0  0  0  0  0  0999 V2000
   -3.0240   18.9710  -26.4960 C   0  0  0  0  0  0  0  0  0  0  0  0
   -2.6030   19.4040  -27.7870 O   0  0  0  0  0  0  0  0  0  0  0  0
   -2.6290   20.7380  -28.2200 C   0  0  0  0  0  0  0  0  0  0  0  0
   -1.8430   21.1980  -29.2920 C   0  0  0  0  0  0  0  0  0  0  0  0
   -1.8840   22.5430  -29.6680 C   0  0  0  0  0  0  0  0  0  0  0  0
   -2.6910   23.4530  -28.9680 C   0  0  0  0  0  0  0  0  0  0  0  0
   -2.6510   24.9240  -29.3040 C   0  0  0  0  0  0  0  0  0  0  0  0
   -3.4950   25.2280  -30.4600 N   0  0  0  0  0  0  0  0  0  0  0  0
   -4.9220   25.0760  -30.5210 C   0  0  0  0  0  0  0  0  0  0  0  0
   -5.6540   26.0580  -30.2310 O   0  0  0  0  0  0  0  0  0  0  0  0
   -5.5470   23.8270  -30.9840 C   0  0  0  0  0  0  0  0  0  0  0  0
   -4.8030   22.9200  -31.7490 C   0  0  0  0  0  0  0  0  0  0  0  0
   -5.3440   21.6790  -32.0950 C   0  0  0  0  0  0  0  0  0  0  0  0
   -6.6460   21.3290  -31.6910 C   0  0  0  0  0  0  0  0  0  0  0  0
   -7.2220   19.9980  -32.0080 C   0  0  0  0  0  0  0  0  0  0  0  0
   -6.5100   18.9640  -32.6300 C   0  0  0  0  0  0  0  0  0  0  0  0
   -7.5980   17.7050  -32.7200 S   0  0  0  0  0  0  0  0  0  0  0  0
   -8.8940   18.4480  -32.0050 N   0  0  0  0  0  0  0  0  0  0  0  0
   -8.5140   19.6800  -31.6790 N   0  0  0  0  0  0  0  0  0  0  0  0
   -7.4050   22.2670  -30.9670 C   0  0  0  0  0  0  0  0  0  0  0  0
   -6.8590   23.5040  -30.6130 C   0  0  0  0  0  0  0  0  0  0  0  0
   -3.5020   22.9860  -27.9220 C   0  0  0  0  0  0  0  0  0  0  0  0
   -3.4670   21.6380  -27.5510 C   0  0  0  0  0  0  0  0  0  0  0  0
   -2.4775   19.5331  -25.7244 H   0  0  0  0  0  0  0  0  0  0  0  0
   -4.1037   19.1489  -26.3836 H   0  0  0  0  0  0  0  0  0  0  0  0
   -2.8158   17.8968  -26.3836 H   0  0  0  0  0  0  0  0  0  0  0  0
   -1.1938   20.4963  -29.8362 H   0  0  0  0  0  0  0  0  0  0  0  0
   -1.2795   22.8910  -30.5186 H   0  0  0  0  0  0  0  0  0  0  0  0
   -3.0091   25.4994  -28.4376 H   0  0  0  0  0  0  0  0  0  0  0  0
   -1.6139   25.1961  -29.5499 H   0  0  0  0  0  0  0  0  0  0  0  0
   -3.7879   23.1858  -32.0790 H   0  0  0  0  0  0  0  0  0  0  0  0
   -4.7475   20.9699  -32.6879 H   0  0  0  0  0  0  0  0  0  0  0  0
   -5.4673   18.9797  -32.9802 H   0  0  0  0  0  0  0  0  0  0  0  0
   -8.4379   22.0244  -30.6768 H   0  0  0  0  0  0  0  0  0  0  0  0
   -7.4609   24.2259  -30.0416 H   0  0  0  0  0  0  0  0  0  0  0  0
   -4.1678   23.6830  -27.3919 H   0  0  0  0  0  0  0  0  0  0  0  0
   -4.1030   21.2821  -26.7270 H   0  0  0  0  0  0  0  0  0  0  0  0
  1  2  1  0
  2  3  1  0
  3  4  2  0
  4  5  1  0
  5  6  2  0
  6  7  1  0
  7  8  1  0
  8  9  1  0
  9 10  2  0
  9 11  1  0
 11 12  2  0
 12 13  1  0
 13 14  2  0
 14 15  1  0
 15 16  2  0
 16 17  1  0
 17 18  1  0
 18 19  2  0
 14 20  1  0
 20 21  2  0
  6 22  1  0
 22 23  2  0
 23  3  1  0
 21 11  1  0
 19 15  1  0
  1 24  1  0
  1 25  1  0
  1 26  1  0
  4 27  1  0
  5 28  1  0
  7 29  1  0
  7 30  1  0
 12 31  1  0
 13 32  1  0
 16 33  1  0
 20 34  1  0
 21 35  1  0
 22 36  1  0
 23 37  1  0
M  CHG  1   8  -1
M  END
>  <UniqueID>  (28) 
27

>  <SMILES>  (28) 
COc1ccc(C[N-]C(=O)c2ccc(-c3csnn3)cc2)cc1

>  <Energy>  (28) 
79.43231263396662

>  <Genealogy>  (28) 
COc1ccc(C[N-]C(=O)c2ccc(-c3csnn3)cc2)cc1 (protonated)
COc1ccc(C[N-]C(=O)c2ccc(-c3csnn3)cc2)cc1 (3D coordinates assigned)
COc1ccc(C[N-]C(=O)c2ccc(-c3csnn3)cc2)cc1 (optimized conformer: 79.43231263396662 kcal/mol)

>  <smiles>  (28) 
COc1ccc(CNC(=O)c2ccc(-c3csnn3)cc2)cc1

>  <score_type>  (28) 
oracle

>  <origin>  (28) 
adg

>  <m_score__min__energy>  (28) 
-10.369999999999999

>  <m_primary>  (28) 
energy

$$$$
28:0
     RDKit          3D

 38 39  0  0  0  0  0  0  0  0999 V2000
   -2.8441   21.7953  -32.6762 H   0  0  0  0  0  0  0  0  0  0  0  0
   -3.7180   21.1500  -32.8490 C   0  0  0  0  0  0  0  0  0  0  0  0
   -3.5860   19.9980  -33.5510 N   0  0  0  0  0  0  0  0  0  0  0  0
   -4.6440   19.1770  -33.7760 C   0  0  0  0  0  0  0  0  0  0  0  0
   -4.5120   18.2473  -34.3490 H   0  0  0  0  0  0  0  0  0  0  0  0
   -5.9120   19.5250  -33.2700 C   0  0  0  0  0  0  0  0  0  0  0  0
   -6.9670   18.7780  -33.4500 N   0  0  0  0  0  0  0  0  0  0  0  0
   -7.6120   17.8970  -32.4750 C   0  0  0  0  0  0  0  0  0  0  0  0
   -6.8450   17.4639  -31.8160 H   0  0  0  0  0  0  0  0  0  0  0  0
   -8.1440   17.0996  -33.0146 H   0  0  0  0  0  0  0  0  0  0  0  0
   -8.6230   18.6800  -31.6260 C   0  0  0  0  0  0  0  0  0  0  0  0
   -8.1157   19.0439  -30.7203 H   0  0  0  0  0  0  0  0  0  0  0  0
   -9.4510   17.9987  -31.3807 H   0  0  0  0  0  0  0  0  0  0  0  0
   -9.2160   19.8830  -32.3750 C   0  0  0  0  0  0  0  0  0  0  0  0
  -10.2539   19.6479  -32.6535 H   0  0  0  0  0  0  0  0  0  0  0  0
   -8.5897   20.0657  -33.2607 H   0  0  0  0  0  0  0  0  0  0  0  0
   -9.2120   21.1590  -31.5340 C   0  0  0  0  0  0  0  0  0  0  0  0
   -9.2128   20.8944  -30.4663 H   0  0  0  0  0  0  0  0  0  0  0  0
   -8.3120   21.7477  -31.7652 H   0  0  0  0  0  0  0  0  0  0  0  0
  -10.1083   21.7533  -31.7652 H   0  0  0  0  0  0  0  0  0  0  0  0
   -6.0400   20.6890  -32.5710 N   0  0  0  0  0  0  0  0  0  0  0  0
   -6.9780   20.9380  -32.1800 H   0  0  0  0  0  0  0  0  0  0  0  0
   -4.9750   21.5150  -32.3440 C   0  0  0  0  0  0  0  0  0  0  0  0
   -5.1470   22.7780  -31.5820 C   0  0  0  0  0  0  0  0  0  0  0  0
   -6.4200   23.3580  -31.4360 C   0  0  0  0  0  0  0  0  0  0  0  0
   -7.2978   22.8722  -31.8870 H   0  0  0  0  0  0  0  0  0  0  0  0
   -6.5750   24.5480  -30.7210 C   0  0  0  0  0  0  0  0  0  0  0  0
   -7.5739   24.9952  -30.6101 H   0  0  0  0  0  0  0  0  0  0  0  0
   -5.4660   25.1710  -30.1470 C   0  0  0  0  0  0  0  0  0  0  0  0
   -5.5964   26.1082  -29.5860 H   0  0  0  0  0  0  0  0  0  0  0  0
   -4.1910   24.6140  -30.2790 C   0  0  0  0  0  0  0  0  0  0  0  0
   -3.1090   25.2780  -29.6810 O   0  0  0  0  0  0  0  0  0  0  0  0
   -2.3350   24.7530  -28.6090 C   0  0  0  0  0  0  0  0  0  0  0  0
   -2.7823   25.0564  -27.6509 H   0  0  0  0  0  0  0  0  0  0  0  0
   -2.3163   23.6551  -28.6736 H   0  0  0  0  0  0  0  0  0  0  0  0
   -1.3080   25.1416  -28.6736 H   0  0  0  0  0  0  0  0  0  0  0  0
   -4.0350   23.4130  -31.0000 C   0  0  0  0  0  0  0  0  0  0  0  0
   -3.0348   22.9683  -31.1085 H   0  0  0  0  0  0  0  0  0  0  0  0
  1  2  1  0
  2  3  1  0
  3  4  2  0
  4  5  1  0
  4  6  1  0
  6  7  2  0
  7  8  1  0
  8  9  1  0
  8 10  1  0
  8 11  1  0
 11 12  1  0
 11 13  1  0
 11 14  1  0
 14 15  1  0
 14 16  1  0
 14 17  1  0
 17 18  1  0
 17 19  1  0
 17 20  1  0
  6 21  1  0
 21 22  1  0
 21 23  1  0
 23 24  1  0
 24 25  2  0
 25 26  1  0
 25 27  1  0
 27 28  1  0
 27 29  2  0
 29 30  1  0
 29 31  1  0
 31 32  1  0
 32 33  1  0
 33 34  1  0
 33 35  1  0
 33 36  1  0
 31 37  2  0
 37 38  1  0
 23  2  2  0
 37 24  1  0
M  END
>  <UniqueID>  (29) 
28

>  <SMILES>  (29) 
CCCC/N=c1\cncc(-c2cccc(OC)c2)[nH]1

>  <Energy>  (29) 
40.23885217483476

>  <Genealogy>  (29) 
CCCC/N=c1\cncc(-c2cccc(OC)c2)[nH]1 (cis-trans isomerization)
CCCC/N=c1\cncc(-c2cccc(OC)c2)[nH]1 (3D coordinates assigned)
CCCC/N=c1\cncc(-c2cccc(OC)c2)[nH]1 (optimized conformer: 40.23885217483476 kcal/mol)

>  <smiles>  (29) 
CCCCN=c1cncc(-c2cccc(OC)c2)[nH]1

>  <score_type>  (29) 
oracle

>  <origin>  (29) 
adg

>  <m_score__min__energy>  (29) 
-7.0599999999999996

>  <m_primary>  (29) 
energy

$$$$
29:0
     RDKit          3D

 78 82  0  0  0  0  0  0  0  0999 V2000
   -0.5230   24.9930  -24.2350 C   0  0  0  0  0  0  0  0  0  0  0  0
   -1.2490   26.3050  -24.2580 C   0  0  0  0  0  0  0  0  0  0  0  0
   -1.7020   26.5830  -25.5640 O   0  0  0  0  0  0  0  0  0  0  0  0
   -2.0640   25.6250  -26.4650 C   0  0  0  0  0  0  0  0  0  0  0  0
   -3.2680   24.9730  -26.5230 C   0  0  0  0  0  0  0  0  0  0  0  0
   -3.5330   23.9990  -27.4900 C   0  0  0  0  0  0  0  0  0  0  0  0
   -2.5830   23.6470  -28.4400 C   0  0  0  0  0  0  0  0  0  0  0  0
   -2.8710   22.6160  -29.4270 C   0  0  0  0  0  0  0  0  0  0  0  0
   -4.0950   22.1170  -29.8200 C   0  0  0  0  0  0  0  0  0  0  0  0
   -3.9220   21.1590  -30.7860 N   0  0  0  0  0  0  0  0  0  0  0  0
   -4.9710   20.4070  -31.4130 C   0  0  0  0  0  0  0  0  0  0  0  0
   -5.5300   21.0620  -32.6300 C   0  0  0  0  0  0  0  0  0  0  0  0
   -6.4510   22.1090  -32.3450 N   0  0  0  0  0  0  0  0  0  0  0  0
   -7.5020   21.7960  -31.4630 C   0  0  0  0  0  0  0  0  0  0  0  0
   -7.3700   22.7110  -30.2830 C   0  0  0  0  0  0  0  0  0  0  0  0
   -6.7800   23.9490  -30.9280 C   0  0  0  0  0  0  0  0  0  0  0  0
   -5.9690   23.3970  -32.1000 C   0  0  0  0  0  0  0  0  0  0  0  0
   -2.6100   21.0740  -30.9830 C   0  0  0  0  0  0  0  0  0  0  0  0
   -1.8370   20.2180  -31.9660 C   0  0  0  0  0  0  0  0  0  0  0  0
   -2.4020   20.4160  -33.3330 C   0  0  0  0  0  0  0  0  0  0  0  0
   -1.4820   20.2020  -34.4770 C   0  0  0  0  0  0  0  0  0  0  0  0
   -0.1520   20.6720  -34.2300 N   0  0  0  0  0  0  0  0  0  0  0  0
    0.5700   21.5670  -35.0630 C   0  0  0  0  0  0  0  0  0  0  0  0
    0.0180   22.7640  -35.3470 N   0  0  0  0  0  0  0  0  0  0  0  0
    0.6330   23.6610  -36.1270 C   0  0  0  0  0  0  0  0  0  0  0  0
    1.8400   23.4190  -36.6730 N   0  0  0  0  0  0  0  0  0  0  0  0
    2.4180   22.2420  -36.4130 C   0  0  0  0  0  0  0  0  0  0  0  0
    3.5800   21.8930  -36.8800 N   0  0  0  0  0  0  0  0  0  0  0  0
    1.8060   21.2760  -35.6020 C   0  0  0  0  0  0  0  0  0  0  0  0
    2.4530   19.9710  -35.3400 C   0  0  0  0  0  0  0  0  0  0  0  0
    3.5500   20.0220  -34.3130 C   0  0  0  0  0  0  0  0  0  0  0  0
    0.4880   20.1960  -33.0050 C   0  0  0  0  0  0  0  0  0  0  0  0
   -0.3730   20.3120  -31.8040 C   0  0  0  0  0  0  0  0  0  0  0  0
   -1.9670   21.9500  -30.1660 N   0  0  0  0  0  0  0  0  0  0  0  0
   -1.3790   24.3040  -28.3780 C   0  0  0  0  0  0  0  0  0  0  0  0
   -1.1180   25.2610  -27.4270 C   0  0  0  0  0  0  0  0  0  0  0  0
    0.2160   25.9260  -27.4420 C   0  0  0  0  0  0  0  0  0  0  0  0
   -0.3532   24.6861  -23.1924 H   0  0  0  0  0  0  0  0  0  0  0  0
   -1.1275   24.2304  -24.7479 H   0  0  0  0  0  0  0  0  0  0  0  0
    0.4442   25.1001  -24.7479 H   0  0  0  0  0  0  0  0  0  0  0  0
   -2.1108   26.2564  -23.5762 H   0  0  0  0  0  0  0  0  0  0  0  0
   -0.5632   27.1027  -23.9364 H   0  0  0  0  0  0  0  0  0  0  0  0
   -4.0475   25.2231  -25.7882 H   0  0  0  0  0  0  0  0  0  0  0  0
   -4.5139   23.5012  -27.4987 H   0  0  0  0  0  0  0  0  0  0  0  0
   -5.0667   22.4397  -29.4180 H   0  0  0  0  0  0  0  0  0  0  0  0
   -4.5700   19.4238  -31.7004 H   0  0  0  0  0  0  0  0  0  0  0  0
   -5.7910   20.3278  -30.6840 H   0  0  0  0  0  0  0  0  0  0  0  0
   -4.6965   21.4818  -33.2122 H   0  0  0  0  0  0  0  0  0  0  0  0
   -6.0831   20.2899  -33.1850 H   0  0  0  0  0  0  0  0  0  0  0  0
   -8.4712   21.9554  -31.9583 H   0  0  0  0  0  0  0  0  0  0  0  0
   -7.4522   20.7424  -31.1507 H   0  0  0  0  0  0  0  0  0  0  0  0
   -8.3483   22.9226  -29.8267 H   0  0  0  0  0  0  0  0  0  0  0  0
   -6.7646   22.3004  -29.4615 H   0  0  0  0  0  0  0  0  0  0  0  0
   -7.5741   24.6222  -31.2833 H   0  0  0  0  0  0  0  0  0  0  0  0
   -6.1707   24.5430  -30.2309 H   0  0  0  0  0  0  0  0  0  0  0  0
   -6.1072   24.0298  -32.9891 H   0  0  0  0  0  0  0  0  0  0  0  0
   -4.8940   23.3815  -31.8672 H   0  0  0  0  0  0  0  0  0  0  0  0
   -1.9818   19.1502  -31.7449 H   0  0  0  0  0  0  0  0  0  0  0  0
   -3.2442   19.7180  -33.4488 H   0  0  0  0  0  0  0  0  0  0  0  0
   -2.6743   21.4808  -33.3793 H   0  0  0  0  0  0  0  0  0  0  0  0
   -1.4371   19.1242  -34.6920 H   0  0  0  0  0  0  0  0  0  0  0  0
   -1.8786   20.7779  -35.3261 H   0  0  0  0  0  0  0  0  0  0  0  0
   -0.9190   23.0440  -34.9670 H   0  0  0  0  0  0  0  0  0  0  0  0
    0.1387   24.6229  -36.3277 H   0  0  0  0  0  0  0  0  0  0  0  0
    3.6420   21.5810  -37.8870 H   0  0  0  0  0  0  0  0  0  0  0  0
    1.6831   19.2688  -34.9877 H   0  0  0  0  0  0  0  0  0  0  0  0
    2.9189   19.6539  -36.2847 H   0  0  0  0  0  0  0  0  0  0  0  0
    3.1099   20.0015  -33.3051 H   0  0  0  0  0  0  0  0  0  0  0  0
    4.2130   19.1537  -34.4413 H   0  0  0  0  0  0  0  0  0  0  0  0
    4.1296   20.9481  -34.4413 H   0  0  0  0  0  0  0  0  0  0  0  0
    0.7555   19.1377  -33.1406 H   0  0  0  0  0  0  0  0  0  0  0  0
    1.3698   20.8307  -32.8332 H   0  0  0  0  0  0  0  0  0  0  0  0
   -0.0724   19.5113  -31.1123 H   0  0  0  0  0  0  0  0  0  0  0  0
   -0.2097   21.3435  -31.4587 H   0  0  0  0  0  0  0  0  0  0  0  0
   -0.5987   24.0565  -29.1128 H   0  0  0  0  0  0  0  0  0  0  0  0
    0.5535   26.0942  -26.4087 H   0  0  0  0  0  0  0  0  0  0  0  0
    0.9402   25.2834  -27.9642 H   0  0  0  0  0  0  0  0  0  0  0  0
    0.1388   26.8911  -27.9642 H   0  0  0  0  0  0  0  0  0  0  0  0
  1  2  1  0
  2  3  1  0
  3  4  1  0
  4  5  2  0
  5  6  1  0
  6  7  2  0
  7  8  1  0
  8  9  2  0
  9 10  1  0
 10 11  1  0
 11 12  1  0
 12 13  1  0
 13 14  1  0
 14 15  1  0
 15 16  1  0
 16 17  1  0
 10 18  1  0
 18 19  1  0
 19 20  1  0
 20 21  1  0
 21 22  1  0
 22 23  1  0
 23 24  1  0
 24 25  1  0
 25 26  2  0
 26 27  1  0
 27 28  2  3
 27 29  1  0
 29 30  1  0
 30 31  1  0
 22 32  1  0
 32 33  1  0
 18 34  2  0
  7 35  1  0
 35 36  2  0
 36 37  1  0
 36  4  1  0
 34  8  1  0
 17 13  1  0
 33 19  1  0
 29 23  2  0
  1 38  1  0
  1 39  1  0
  1 40  1  0
  2 41  1  0
  2 42  1  0
  5 43  1  0
  6 44  1  0
  9 45  1  0
 11 46  1  0
 11 47  1  0
 12 48  1  0
 12 49  1  0
 14 50  1  0
 14 51  1  0
 15 52  1  0
 15 53  1  0
 16 54  1  0
 16 55  1  0
 17 56  1  0
 17 57  1  0
 19 58  1  0
 20 59  1  0
 20 60  1  0
 21 61  1  0
 21 62  1  0
 24 63  1  0
 25 64  1  0
 28 65  1  0
 30 66  1  0
 30 67  1  0
 31 68  1  0
 31 69  1  0
 31 70  1  0
 32 71  1  0
 32 72  1  0
 33 73  1  0
 33 74  1  0
 35 75  1  0
 37 76  1  0
 37 77  1  0
 37 78  1  0
M  END
>  <smiles>  (30) 
CCOc1ccc(-c2cn(CCN3CCCC3)c(C3CCN(c4[nH]cnc(=N)c4CC)CC3)n2)cc1C

>  <score_type>  (30) 
oracle

>  <origin>  (30) 
adg

>  <m_score__min__energy>  (30) 
-8.8699999999999992

>  <m_primary>  (30) 
energy

$$$$
30:0
     RDKit          3D

 44 46  0  0  0  0  0  0  0  0999 V2000
   -3.8920   20.0920  -30.7700 O   0  0  0  0  0  0  0  0  0  0  0  0
   -4.4800   19.6940  -31.7640 C   0  0  0  0  0  0  0  0  0  0  0  0
   -5.7600   18.9110  -31.6130 C   0  0  0  0  0  0  0  0  0  0  0  0
   -6.7290   19.1630  -32.8080 C   0  0  0  0  0  0  0  0  0  0  0  0
   -7.9390   18.1880  -32.6850 C   0  0  0  0  0  0  0  0  0  0  0  0
   -8.8470   18.4750  -31.4730 C   0  0  0  0  0  0  0  0  0  0  0  0
   -9.0810   19.9770  -31.2180 C   0  0  0  0  0  0  0  0  0  0  0  0
   -8.7110   20.8340  -32.4270 C   0  0  0  0  0  0  0  0  0  0  0  0
   -7.2270   20.6610  -32.7860 C   0  0  0  0  0  0  0  0  0  0  0  0
   -5.9950   18.8470  -34.1650 C   0  0  0  0  0  0  0  0  0  0  0  0
   -4.4540   18.9530  -34.1310 C   0  0  0  0  0  0  0  0  0  0  0  0
   -3.9230   19.9890  -33.1300 C   0  0  1  0  0  0  0  0  0  0  0  0
   -4.3230   21.2940  -33.5080 O   0  0  0  0  0  0  0  0  0  0  0  0
   -3.6340   22.2740  -32.7610 C   0  0  0  0  0  0  0  0  0  0  0  0
   -4.6080   22.9330  -31.8290 C   0  0  0  0  0  0  0  0  0  0  0  0
   -4.2570   23.1430  -30.4840 C   0  0  0  0  0  0  0  0  0  0  0  0
   -5.1410   23.7940  -29.6200 C   0  0  0  0  0  0  0  0  0  0  0  0
   -6.3750   24.2490  -30.0920 C   0  0  0  0  0  0  0  0  0  0  0  0
   -6.7250   24.0590  -31.4320 C   0  0  0  0  0  0  0  0  0  0  0  0
   -5.8420   23.4080  -32.3010 C   0  0  0  0  0  0  0  0  0  0  0  0
   -5.5196   17.8385  -31.5679 H   0  0  0  0  0  0  0  0  0  0  0  0
   -6.2586   19.2400  -30.6894 H   0  0  0  0  0  0  0  0  0  0  0  0
   -8.5448   18.2696  -33.5995 H   0  0  0  0  0  0  0  0  0  0  0  0
   -7.5248   17.1788  -32.5438 H   0  0  0  0  0  0  0  0  0  0  0  0
   -9.8217   17.9961  -31.6478 H   0  0  0  0  0  0  0  0  0  0  0  0
   -8.3362   18.0733  -30.5855 H   0  0  0  0  0  0  0  0  0  0  0  0
  -10.1443   20.1348  -30.9844 H   0  0  0  0  0  0  0  0  0  0  0  0
   -8.4366   20.2808  -30.3799 H   0  0  0  0  0  0  0  0  0  0  0  0
   -9.3274   20.5307  -33.2861 H   0  0  0  0  0  0  0  0  0  0  0  0
   -8.8925   21.8902  -32.1788 H   0  0  0  0  0  0  0  0  0  0  0  0
   -7.0625   21.0924  -33.7844 H   0  0  0  0  0  0  0  0  0  0  0  0
   -6.6530   21.1699  -31.9976 H   0  0  0  0  0  0  0  0  0  0  0  0
   -6.2572   17.8204  -34.4605 H   0  0  0  0  0  0  0  0  0  0  0  0
   -6.3338   19.6148  -34.8762 H   0  0  0  0  0  0  0  0  0  0  0  0
   -4.0451   17.9684  -33.8600 H   0  0  0  0  0  0  0  0  0  0  0  0
   -4.1348   19.2826  -35.1307 H   0  0  0  0  0  0  0  0  0  0  0  0
   -2.8245   19.9334  -33.1180 H   0  0  0  0  0  0  0  0  0  0  0  0
   -2.8280   21.8003  -32.1814 H   0  0  0  0  0  0  0  0  0  0  0  0
   -3.1928   23.0220  -33.4362 H   0  0  0  0  0  0  0  0  0  0  0  0
   -3.2831   22.7936  -30.1106 H   0  0  0  0  0  0  0  0  0  0  0  0
   -4.8652   23.9487  -28.5664 H   0  0  0  0  0  0  0  0  0  0  0  0
   -7.0714   24.7570  -29.4087 H   0  0  0  0  0  0  0  0  0  0  0  0
   -7.6949   24.4213  -31.8036 H   0  0  0  0  0  0  0  0  0  0  0  0
   -6.1157   23.2680  -33.3572 H   0  0  0  0  0  0  0  0  0  0  0  0
  1  2  2  0
  2  3  1  0
  3  4  1  0
  4  5  1  0
  5  6  1  0
  6  7  1  0
  7  8  1  0
  8  9  1  0
  4 10  1  0
 10 11  1  0
 11 12  1  0
 12 13  1  0
 13 14  1  0
 14 15  1  0
 15 16  2  0
 16 17  1  0
 17 18  2  0
 18 19  1  0
 19 20  2  0
 12  2  1  0
 20 15  1  0
  9  4  1  0
  3 21  1  0
  3 22  1  0
  5 23  1  0
  5 24  1  0
  6 25  1  0
  6 26  1  0
  7 27  1  0
  7 28  1  0
  8 29  1  0
  8 30  1  0
  9 31  1  0
  9 32  1  0
 10 33  1  0
 10 34  1  0
 11 35  1  0
 11 36  1  0
 12 37  1  1
 14 38  1  0
 14 39  1  0
 16 40  1  0
 17 41  1  0
 18 42  1  0
 19 43  1  0
 20 44  1  0
M  END
>  <UniqueID>  (31) 
29

>  <SMILES>  (31) 
O=C1CC2(CCCCC2)CC[C@H]1OCc1ccccc1

>  <Energy>  (31) 
55.966044849910375

>  <Genealogy>  (31) 
O=C1CC2(CCCCC2)CC[C@H]1OCc1ccccc1 (chirality)
O=C1CC2(CCCCC2)CC[C@H]1OCc1ccccc1 (3D coordinates assigned)
O=C1CC2(CCCCC2)CC[C@H]1OCc1ccccc1 (nonaromatic ring conformer: 55.966044849910375 kcal/mol)

>  <smiles>  (31) 
O=C1CC2(CCCCC2)CCC1OCc1ccccc1

>  <score_type>  (31) 
oracle

>  <origin>  (31) 
adg

>  <m_score__min__energy>  (31) 
-8.0600000000000005

>  <m_primary>  (31) 
energy

$$$$
31:0
     RDKit          3D

 44 45  0  0  0  0  0  0  0  0999 V2000
   -5.0700   19.4250  -32.3000 H   0  0  0  0  0  0  0  0  0  0  0  0
   -5.9930   19.9000  -32.2050 N   0  0  0  0  0  0  0  0  0  0  0  0
   -6.1120   21.1590  -31.7030 C   0  0  0  0  0  0  0  0  0  0  0  0
   -7.4130   21.6480  -31.6630 C   0  0  0  0  0  0  0  0  0  0  0  0
   -8.4420   20.5010  -32.3380 S   0  0  0  0  0  0  0  0  0  0  0  0
   -7.1940   19.4000  -32.5950 C   0  0  0  0  0  0  0  0  0  0  0  0
   -7.3850   18.2360  -33.1460 N   0  0  0  0  0  0  0  0  0  0  0  0
   -6.4000   17.2670  -33.5370 C   0  0  0  0  0  0  0  0  0  0  0  0
   -5.1710   17.4710  -33.3520 O   0  0  0  0  0  0  0  0  0  0  0  0
   -6.8500   15.9410  -34.0640 C   0  0  0  0  0  0  0  0  0  0  0  0
   -7.0971   16.0416  -35.1311 H   0  0  0  0  0  0  0  0  0  0  0  0
   -7.7345   15.6166  -33.4962 H   0  0  0  0  0  0  0  0  0  0  0  0
   -5.7530   14.8960  -33.9010 C   0  0  0  0  0  0  0  0  0  0  0  0
   -5.5694   14.7211  -32.8306 H   0  0  0  0  0  0  0  0  0  0  0  0
   -6.0684   13.9560  -34.3773 H   0  0  0  0  0  0  0  0  0  0  0  0
   -4.8294   15.2566  -34.3773 H   0  0  0  0  0  0  0  0  0  0  0  0
   -7.7850   23.0410  -31.2530 C   0  0  0  0  0  0  0  0  0  0  0  0
   -7.9518   23.6499  -32.1538 H   0  0  0  0  0  0  0  0  0  0  0  0
   -8.7012   22.9975  -30.6458 H   0  0  0  0  0  0  0  0  0  0  0  0
   -6.6660   23.6790  -30.4130 C   0  0  0  0  0  0  0  0  0  0  0  0
   -6.8474   24.7612  -30.3352 H   0  0  0  0  0  0  0  0  0  0  0  0
   -6.6688   23.2144  -29.4159 H   0  0  0  0  0  0  0  0  0  0  0  0
   -5.2820   23.4440  -31.0610 C   0  0  1  0  0  0  0  0  0  0  0  0
   -5.3363   23.8243  -32.0917 H   0  0  0  0  0  0  0  0  0  0  0  0
   -4.1920   24.2360  -30.3700 C   0  0  0  0  0  0  0  0  0  0  0  0
   -3.8780   25.3620  -30.8430 O   0  0  0  0  0  0  0  0  0  0  0  0
   -3.4800   23.7390  -29.2180 N   0  0  0  0  0  0  0  0  0  0  0  0
   -2.0100   23.7360  -29.2470 C   0  0  0  0  0  0  0  0  0  0  0  0
   -1.6547   24.6832  -29.6789 H   0  0  0  0  0  0  0  0  0  0  0  0
   -1.6346   23.6228  -28.2192 H   0  0  0  0  0  0  0  0  0  0  0  0
   -1.4940   22.5760  -30.0900 C   0  0  0  0  0  0  0  0  0  0  0  0
   -1.1367   21.7728  -29.4288 H   0  0  0  0  0  0  0  0  0  0  0  0
   -2.3070   22.1939  -30.7248 H   0  0  0  0  0  0  0  0  0  0  0  0
   -0.6658   22.9240  -30.7248 H   0  0  0  0  0  0  0  0  0  0  0  0
   -4.1880   23.4130  -27.9730 C   0  0  0  0  0  0  0  0  0  0  0  0
   -5.2560   23.2675  -28.1925 H   0  0  0  0  0  0  0  0  0  0  0  0
   -3.7562   22.4934  -27.5512 H   0  0  0  0  0  0  0  0  0  0  0  0
   -4.0350   24.5380  -26.9550 C   0  0  0  0  0  0  0  0  0  0  0  0
   -4.0915   24.1225  -25.9381 H   0  0  0  0  0  0  0  0  0  0  0  0
   -3.0616   25.0305  -27.0963 H   0  0  0  0  0  0  0  0  0  0  0  0
   -4.8415   25.2726  -27.0963 H   0  0  0  0  0  0  0  0  0  0  0  0
   -4.9450   21.9380  -31.1630 C   0  0  0  0  0  0  0  0  0  0  0  0
   -4.0837   21.8070  -31.8345 H   0  0  0  0  0  0  0  0  0  0  0  0
   -4.7098   21.5630  -30.1560 H   0  0  0  0  0  0  0  0  0  0  0  0
  1  2  1  0
  2  3  1  0
  3  4  2  0
  4  5  1  0
  5  6  1  0
  6  7  2  0
  7  8  1  0
  8  9  2  0
  8 10  1  0
 10 11  1  0
 10 12  1  0
 10 13  1  0
 13 14  1  0
 13 15  1  0
 13 16  1  0
  4 17  1  0
 17 18  1  0
 17 19  1  0
 17 20  1  0
 20 21  1  0
 20 22  1  0
 20 23  1  0
 23 24  1  6
 23 25  1  0
 25 26  2  0
 25 27  1  0
 27 28  1  0
 28 29  1  0
 28 30  1  0
 28 31  1  0
 31 32  1  0
 31 33  1  0
 31 34  1  0
 27 35  1  0
 35 36  1  0
 35 37  1  0
 35 38  1  0
 38 39  1  0
 38 40  1  0
 38 41  1  0
 23 42  1  0
 42 43  1  0
 42 44  1  0
  6  2  1  0
 42  3  1  0
M  END
>  <UniqueID>  (32) 
30

>  <SMILES>  (32) 
CCC(=O)/N=c1\[nH]c2c(s1)CC[C@@H](C(=O)N(CC)CC)C2

>  <Energy>  (32) 
69.52141398124414

>  <Genealogy>  (32) 
CCC(=O)N=c1[nH]c2c(s1)CC[C@@H](C(=O)N(CC)CC)C2 (chirality)
CCC(=O)/N=c1\[nH]c2c(s1)CC[C@@H](C(=O)N(CC)CC)C2 (cis-trans isomerization)
CCC(=O)/N=c1\[nH]c2c(s1)CC[C@@H](C(=O)N(CC)CC)C2 (3D coordinates assigned)
CCC(=O)/N=c1\[nH]c2c(s1)CC[C@@H](C(=O)N(CC)CC)C2 (nonaromatic ring conformer: 69.52141398124414 kcal/mol)

>  <smiles>  (32) 
CCC(=O)N=c1[nH]c2c(s1)CCC(C(=O)N(CC)CC)C2

>  <score_type>  (32) 
oracle

>  <origin>  (32) 
adg

>  <m_score__min__energy>  (32) 
-8.3699999999999992

>  <m_primary>  (32) 
energy

$$$$
32:0
     RDKit          3D

 41 43  0  0  0  0  0  0  0  0999 V2000
   -6.4910   25.3230  -29.7180 Br  0  0  0  0  0  0  0  0  0  0  0  0
   -5.3510   24.0810  -30.6130 C   0  0  0  0  0  0  0  0  0  0  0  0
   -5.7570   23.4980  -31.8150 C   0  0  0  0  0  0  0  0  0  0  0  0
   -4.9220   22.5880  -32.4710 C   0  0  0  0  0  0  0  0  0  0  0  0
   -3.6700   22.2430  -31.9320 C   0  0  0  0  0  0  0  0  0  0  0  0
   -2.8420   21.3020  -32.6530 N   0  0  0  0  0  0  0  0  0  0  0  0
   -3.2870   20.1420  -33.4390 C   0  0  1  0  0  0  0  0  0  0  0  0
   -2.0940   19.3040  -33.9570 C   0  0  0  0  0  0  0  0  0  0  0  0
   -2.4290   17.8090  -34.0250 C   0  0  0  0  0  0  0  0  0  0  0  0
   -3.8830   17.6130  -34.4710 C   0  0  0  0  0  0  0  0  0  0  0  0
   -4.8510   18.1570  -33.4860 N   0  0  0  0  0  0  0  0  0  0  0  0
   -6.1450   18.4560  -34.1320 C   0  0  0  0  0  0  0  0  0  0  0  0
   -7.0860   19.0920  -33.1500 C   0  0  0  0  0  0  0  0  0  0  0  0
   -7.8640   18.3090  -32.2820 C   0  0  0  0  0  0  0  0  0  0  0  0
   -8.7350   18.9370  -31.3900 C   0  0  0  0  0  0  0  0  0  0  0  0
   -8.8240   20.3300  -31.3680 C   0  0  0  0  0  0  0  0  0  0  0  0
   -8.0340   21.0770  -32.2450 C   0  0  0  0  0  0  0  0  0  0  0  0
   -7.1920   20.4490  -33.1080 N   0  0  0  0  0  0  0  0  0  0  0  0
   -4.3430   19.3020  -32.6830 C   0  0  0  0  0  0  0  0  0  0  0  0
   -3.2680   22.8460  -30.7220 C   0  0  0  0  0  0  0  0  0  0  0  0
   -4.1060   23.7550  -30.0690 C   0  0  0  0  0  0  0  0  0  0  0  0
   -6.7355   23.7550  -32.2468 H   0  0  0  0  0  0  0  0  0  0  0  0
   -5.2484   22.1369  -33.4196 H   0  0  0  0  0  0  0  0  0  0  0  0
   -1.8180   21.5120  -32.7010 H   0  0  0  0  0  0  0  0  0  0  0  0
   -3.7958   20.5268  -34.3351 H   0  0  0  0  0  0  0  0  0  0  0  0
   -1.8250   19.6539  -34.9646 H   0  0  0  0  0  0  0  0  0  0  0  0
   -1.2574   19.4333  -33.2546 H   0  0  0  0  0  0  0  0  0  0  0  0
   -1.7583   17.3186  -34.7459 H   0  0  0  0  0  0  0  0  0  0  0  0
   -2.2962   17.3652  -33.0273 H   0  0  0  0  0  0  0  0  0  0  0  0
   -4.0305   18.1260  -35.4328 H   0  0  0  0  0  0  0  0  0  0  0  0
   -4.0652   16.5320  -34.5611 H   0  0  0  0  0  0  0  0  0  0  0  0
   -5.9794   19.1448  -34.9735 H   0  0  0  0  0  0  0  0  0  0  0  0
   -6.5885   17.5167  -34.4939 H   0  0  0  0  0  0  0  0  0  0  0  0
   -7.7879   17.2119  -32.3047 H   0  0  0  0  0  0  0  0  0  0  0  0
   -9.3504   18.3350  -30.7053 H   0  0  0  0  0  0  0  0  0  0  0  0
   -9.5079   20.8332  -30.6686 H   0  0  0  0  0  0  0  0  0  0  0  0
   -8.0933   22.1754  -32.2373 H   0  0  0  0  0  0  0  0  0  0  0  0
   -5.1907   19.9534  -32.4242 H   0  0  0  0  0  0  0  0  0  0  0  0
   -3.8577   18.8886  -31.7865 H   0  0  0  0  0  0  0  0  0  0  0  0
   -2.2875   22.5992  -30.2887 H   0  0  0  0  0  0  0  0  0  0  0  0
   -3.7839   24.2153  -29.1233 H   0  0  0  0  0  0  0  0  0  0  0  0
  1  2  1  0
  2  3  2  0
  3  4  1  0
  4  5  2  0
  5  6  1  0
  6  7  1  0
  7  8  1  0
  8  9  1  0
  9 10  1  0
 10 11  1  0
 11 12  1  0
 12 13  1  0
 13 14  2  0
 14 15  1  0
 15 16  2  0
 16 17  1  0
 17 18  2  0
 11 19  1  0
  5 20  1  0
 20 21  2  0
 21  2  1  0
 19  7  1  0
 18 13  1  0
  3 22  1  0
  4 23  1  0
  6 24  1  0
  7 25  1  6
  8 26  1  0
  8 27  1  0
  9 28  1  0
  9 29  1  0
 10 30  1  0
 10 31  1  0
 12 32  1  0
 12 33  1  0
 14 34  1  0
 15 35  1  0
 16 36  1  0
 17 37  1  0
 19 38  1  0
 19 39  1  0
 20 40  1  0
 21 41  1  0
M  END
>  <UniqueID>  (33) 
31

>  <SMILES>  (33) 
Brc1ccc(N[C@H]2CCCN(Cc3ccccn3)C2)cc1

>  <Energy>  (33) 
54.25066729096549

>  <Genealogy>  (33) 
Brc1ccc(N[C@H]2CCCN(Cc3ccccn3)C2)cc1 (chirality)
Brc1ccc(N[C@H]2CCCN(Cc3ccccn3)C2)cc1 (3D coordinates assigned)
Brc1ccc(N[C@H]2CCCN(Cc3ccccn3)C2)cc1 (nonaromatic ring conformer: 54.25066729096549 kcal/mol)

>  <smiles>  (33) 
Brc1ccc(NC2CCCN(Cc3ccccn3)C2)cc1

>  <score_type>  (33) 
oracle

>  <origin>  (33) 
adg

>  <m_score__min__energy>  (33) 
-8.0999999999999996

>  <m_primary>  (33) 
energy

$$$$
33:0
     RDKit          3D

 68 68  0  0  0  0  0  0  0  0999 V2000
   -9.8560   21.9330  -30.7000 C   0  0  0  0  0  0  0  0  0  0  0  0
   -9.8070   21.3410  -32.1090 C   0  0  0  0  0  0  0  0  0  0  0  0
   -8.5780   20.4130  -32.3140 C   0  0  2  0  0  0  0  0  0  0  0  0
   -8.9950   18.9370  -32.1600 C   0  0  0  0  0  0  0  0  0  0  0  0
   -7.4480   20.7360  -31.2920 C   0  0  0  0  0  0  0  0  0  0  0  0
   -6.3010   21.5890  -31.7480 N   0  0  0  0  0  0  0  0  0  0  0  0
   -6.7330   22.9650  -32.1100 C   0  0  0  0  0  0  0  0  0  0  0  0
   -6.0230   24.0210  -31.2480 C   0  0  0  0  0  0  0  0  0  0  0  0
   -4.5130   23.7560  -31.1190 C   0  0  0  0  0  0  0  0  0  0  0  0
   -3.8610   24.8910  -30.4790 N   0  0  0  0  0  0  0  0  0  0  0  0
   -3.0230   24.7570  -29.3300 C   0  0  0  0  0  0  0  0  0  0  0  0
   -1.8810   25.2900  -29.3170 O   0  0  0  0  0  0  0  0  0  0  0  0
   -3.4640   23.8650  -28.2050 C   0  0  0  0  0  0  0  0  0  0  0  0
   -3.6670   24.6110  -26.8790 C   0  0  0  0  0  0  0  0  0  0  0  0
   -2.3650   24.8710  -26.1650 C   0  0  0  0  0  0  0  0  0  0  0  0
   -2.2010   26.0330  -25.3930 C   0  0  0  0  0  0  0  0  0  0  0  0
   -1.0060   26.2570  -24.7000 C   0  0  0  0  0  0  0  0  0  0  0  0
    0.0430   25.3350  -24.7830 C   0  0  0  0  0  0  0  0  0  0  0  0
    1.2290   25.5700  -24.0850 O   0  0  0  0  0  0  0  0  0  0  0  0
   -0.1060   24.1870  -25.5730 C   0  0  0  0  0  0  0  0  0  0  0  0
   -1.3040   23.9540  -26.2580 C   0  0  0  0  0  0  0  0  0  0  0  0
   -5.3320   21.0180  -32.7220 C   0  0  0  0  0  0  0  0  0  0  0  0
   -4.4380   19.9230  -32.0990 C   0  0  0  0  0  0  0  0  0  0  0  0
   -4.6740   18.5870  -32.7180 N   0  0  0  0  0  0  0  0  0  0  0  0
   -4.5000   18.6330  -34.1950 C   0  0  0  0  0  0  0  0  0  0  0  0
   -5.7470   18.1830  -34.9490 C   0  0  0  0  0  0  0  0  0  0  0  0
   -6.0460   18.0950  -32.4320 C   0  0  0  0  0  0  0  0  0  0  0  0
   -6.1000   17.0980  -31.2740 C   0  0  0  0  0  0  0  0  0  0  0  0
   -9.7889   21.1226  -29.9592 H   0  0  0  0  0  0  0  0  0  0  0  0
   -9.0121   22.6252  -30.5636 H   0  0  0  0  0  0  0  0  0  0  0  0
  -10.8022   22.4771  -30.5636 H   0  0  0  0  0  0  0  0  0  0  0  0
  -10.7237   20.7576  -32.2801 H   0  0  0  0  0  0  0  0  0  0  0  0
   -9.7234   22.1742  -32.8223 H   0  0  0  0  0  0  0  0  0  0  0  0
   -8.1936   20.5878  -33.3297 H   0  0  0  0  0  0  0  0  0  0  0  0
   -9.0660   18.6856  -31.0915 H   0  0  0  0  0  0  0  0  0  0  0  0
   -9.9726   18.7802  -32.6393 H   0  0  0  0  0  0  0  0  0  0  0  0
   -8.2440   18.2919  -32.6393 H   0  0  0  0  0  0  0  0  0  0  0  0
   -7.9167   21.2488  -30.4391 H   0  0  0  0  0  0  0  0  0  0  0  0
   -6.9910   19.7595  -31.0739 H   0  0  0  0  0  0  0  0  0  0  0  0
   -6.4950   23.1480  -33.1682 H   0  0  0  0  0  0  0  0  0  0  0  0
   -7.8158   23.0454  -31.9337 H   0  0  0  0  0  0  0  0  0  0  0  0
   -6.1699   25.0092  -31.7082 H   0  0  0  0  0  0  0  0  0  0  0  0
   -6.4581   23.9769  -30.2387 H   0  0  0  0  0  0  0  0  0  0  0  0
   -4.3521   22.8533  -30.5114 H   0  0  0  0  0  0  0  0  0  0  0  0
   -4.0846   23.6118  -32.1218 H   0  0  0  0  0  0  0  0  0  0  0  0
   -4.4158   23.3916  -28.4880 H   0  0  0  0  0  0  0  0  0  0  0  0
   -2.6644   23.1271  -28.0432 H   0  0  0  0  0  0  0  0  0  0  0  0
   -4.1556   25.5745  -27.0861 H   0  0  0  0  0  0  0  0  0  0  0  0
   -4.2879   23.9781  -26.2279 H   0  0  0  0  0  0  0  0  0  0  0  0
   -3.0154   26.7700  -25.3329 H   0  0  0  0  0  0  0  0  0  0  0  0
   -0.8908   27.1629  -24.0867 H   0  0  0  0  0  0  0  0  0  0  0  0
    1.3190   25.3360  -23.1030 H   0  0  0  0  0  0  0  0  0  0  0  0
    0.7214   23.4667  -25.6549 H   0  0  0  0  0  0  0  0  0  0  0  0
   -1.4158   23.0484  -26.8724 H   0  0  0  0  0  0  0  0  0  0  0  0
   -5.8926   20.5799  -33.5609 H   0  0  0  0  0  0  0  0  0  0  0  0
   -4.6747   21.8346  -33.0554 H   0  0  0  0  0  0  0  0  0  0  0  0
   -3.3836   20.2003  -32.2450 H   0  0  0  0  0  0  0  0  0  0  0  0
   -4.6870   19.8499  -31.0301 H   0  0  0  0  0  0  0  0  0  0  0  0
   -4.2644   19.6663  -34.4895 H   0  0  0  0  0  0  0  0  0  0  0  0
   -3.6863   17.9401  -34.4554 H   0  0  0  0  0  0  0  0  0  0  0  0
   -6.5291   17.9008  -34.2288 H   0  0  0  0  0  0  0  0  0  0  0  0
   -6.1105   19.0067  -35.5810 H   0  0  0  0  0  0  0  0  0  0  0  0
   -5.5008   17.3170  -35.5810 H   0  0  0  0  0  0  0  0  0  0  0  0
   -6.6811   18.9572  -32.1807 H   0  0  0  0  0  0  0  0  0  0  0  0
   -6.3988   17.5698  -33.3318 H   0  0  0  0  0  0  0  0  0  0  0  0
   -6.0705   17.6432  -30.3191 H   0  0  0  0  0  0  0  0  0  0  0  0
   -7.0310   16.5153  -31.3349 H   0  0  0  0  0  0  0  0  0  0  0  0
   -5.2374   16.4182  -31.3349 H   0  0  0  0  0  0  0  0  0  0  0  0
  1  2  1  0
  2  3  1  0
  3  4  1  0
  3  5  1  0
  5  6  1  0
  6  7  1  0
  7  8  1  0
  8  9  1  0
  9 10  1  0
 10 11  1  0
 11 12  2  0
 11 13  1  0
 13 14  1  0
 14 15  1  0
 15 16  2  0
 16 17  1  0
 17 18  2  0
 18 19  1  0
 18 20  1  0
 20 21  2  0
  6 22  1  0
 22 23  1  0
 23 24  1  0
 24 25  1  0
 25 26  1  0
 24 27  1  0
 27 28  1  0
 21 15  1  0
  1 29  1  0
  1 30  1  0
  1 31  1  0
  2 32  1  0
  2 33  1  0
  3 34  1  6
  4 35  1  0
  4 36  1  0
  4 37  1  0
  5 38  1  0
  5 39  1  0
  7 40  1  0
  7 41  1  0
  8 42  1  0
  8 43  1  0
  9 44  1  0
  9 45  1  0
 13 46  1  0
 13 47  1  0
 14 48  1  0
 14 49  1  0
 16 50  1  0
 17 51  1  0
 19 52  1  0
 20 53  1  0
 21 54  1  0
 22 55  1  0
 22 56  1  0
 23 57  1  0
 23 58  1  0
 25 59  1  0
 25 60  1  0
 26 61  1  0
 26 62  1  0
 26 63  1  0
 27 64  1  0
 27 65  1  0
 28 66  1  0
 28 67  1  0
 28 68  1  0
M  CHG  1  10  -1
M  END
>  <UniqueID>  (34) 
32

>  <SMILES>  (34) 
CC[C@H](C)CN(CCC[N-]C(=O)CCc1ccc(O)cc1)CCN(CC)CC

>  <Energy>  (34) 
64.21625885411719

>  <Genealogy>  (34) 
CCC(C)CN(CCC[N-]C(=O)CCc1ccc(O)cc1)CCN(CC)CC (protonated)
CC[C@H](C)CN(CCC[N-]C(=O)CCc1ccc(O)cc1)CCN(CC)CC (chirality)
CC[C@H](C)CN(CCC[N-]C(=O)CCc1ccc(O)cc1)CCN(CC)CC (3D coordinates assigned)
CC[C@H](C)CN(CCC[N-]C(=O)CCc1ccc(O)cc1)CCN(CC)CC (optimized conformer: 64.21625885411719 kcal/mol)

>  <smiles>  (34) 
CCC(C)CN(CCCNC(=O)CCc1ccc(O)cc1)CCN(CC)CC

>  <score_type>  (34) 
oracle

>  <origin>  (34) 
adg

>  <m_score__min__energy>  (34) 
-10.06

>  <m_primary>  (34) 
energy

$$$$
34:0
     RDKit          3D

 21 21  0  0  0  0  0  0  0  0999 V2000
   -2.2320   25.0530  -26.1630 C   0  0  0  0  0  0  0  0  0  0  0  0
   -2.3920   24.7800  -27.4570 C   0  0  0  0  0  0  0  0  0  0  0  0
   -1.3480   24.6870  -28.4430 C   0  0  0  0  0  0  0  0  0  0  0  0
   -0.1170   24.8330  -28.2270 O   0  0  0  0  0  0  0  0  0  0  0  0
   -1.8770   24.4150  -29.6870 O   0  0  0  0  0  0  0  0  0  0  0  0
   -3.2980   24.3010  -29.6410 C   0  0  2  0  0  0  0  0  0  0  0  0
   -3.8610   25.2940  -30.4790 O   0  0  0  0  0  0  0  0  0  0  0  0
   -5.2740   25.3050  -30.3800 C   0  0  0  0  0  0  0  0  0  0  0  0
   -5.8670   24.1260  -31.1420 C   0  0  0  0  0  0  0  0  0  0  0  0
   -3.6960   24.5420  -28.1500 C   0  0  1  0  0  0  0  0  0  0  0  0
   -4.3700   23.4320  -27.6060 O   0  0  0  0  0  0  0  0  0  0  0  0
   -3.1072   25.0988  -25.4982 H   0  0  0  0  0  0  0  0  0  0  0  0
   -1.2247   25.2326  -25.7592 H   0  0  0  0  0  0  0  0  0  0  0  0
   -3.6582   23.3210  -29.9873 H   0  0  0  0  0  0  0  0  0  0  0  0
   -5.5641   25.2356  -29.3212 H   0  0  0  0  0  0  0  0  0  0  0  0
   -5.6558   26.2405  -30.8149 H   0  0  0  0  0  0  0  0  0  0  0  0
   -6.2427   23.3791  -30.4272 H   0  0  0  0  0  0  0  0  0  0  0  0
   -6.6955   24.4775  -31.7744 H   0  0  0  0  0  0  0  0  0  0  0  0
   -5.0908   23.6704  -31.7744 H   0  0  0  0  0  0  0  0  0  0  0  0
   -4.3933   25.3853  -28.0371 H   0  0  0  0  0  0  0  0  0  0  0  0
   -5.3310   23.5150  -27.8430 H   0  0  0  0  0  0  0  0  0  0  0  0
  1  2  2  0
  2  3  1  0
  3  4  2  0
  3  5  1  0
  5  6  1  0
  6  7  1  0
  7  8  1  0
  8  9  1  0
  6 10  1  0
 10 11  1  0
 10  2  1  0
  1 12  1  0
  1 13  1  0
  6 14  1  6
  8 15  1  0
  8 16  1  0
  9 17  1  0
  9 18  1  0
  9 19  1  0
 10 20  1  6
 11 21  1  0
M  END
>  <UniqueID>  (35) 
33

>  <SMILES>  (35) 
C=C1C(=O)O[C@H](OCC)[C@H]1O

>  <Energy>  (35) 
33.113761477133416

>  <Genealogy>  (35) 
C=C1C(=O)O[C@H](OCC)[C@H]1O (chirality)
C=C1C(=O)O[C@H](OCC)[C@H]1O (3D coordinates assigned)
C=C1C(=O)O[C@H](OCC)[C@H]1O (nonaromatic ring conformer: 33.113761477133416 kcal/mol)

>  <smiles>  (35) 
C=C1C(=O)OC(OCC)C1O

>  <score_type>  (35) 
oracle

>  <origin>  (35) 
adg

>  <m_score__min__energy>  (35) 
-4.9100000000000001

>  <m_primary>  (35) 
energy

$$$$
35:0
     RDKit          3D

 43 45  0  0  0  0  0  0  0  0999 V2000
   -7.2370   15.1760  -34.2430 O   0  0  0  0  0  0  0  0  0  0  0  0
   -6.0530   15.1620  -33.8130 C   0  0  0  0  0  0  0  0  0  0  0  0
   -5.6220   16.1590  -32.7760 C   0  0  0  0  0  0  0  0  0  0  0  0
   -4.1670   16.4080  -32.8200 N   0  0  0  0  0  0  0  0  0  0  0  0
   -3.7920   17.2840  -33.9530 C   0  0  0  0  0  0  0  0  0  0  0  0
   -4.9340   18.1920  -34.3290 C   0  0  0  0  0  0  0  0  0  0  0  0
   -5.7840   17.7690  -35.1590 O   0  0  0  0  0  0  0  0  0  0  0  0
   -5.0840   19.5110  -33.7610 N   0  0  0  0  0  0  0  0  0  0  0  0
   -6.3910   20.1770  -33.8200 C   0  0  0  0  0  0  0  0  0  0  0  0
   -6.6000   21.0630  -32.5870 C   0  0  0  0  0  0  0  0  0  0  0  0
   -5.4450   21.9430  -32.3410 N   0  0  0  0  0  0  0  0  0  0  0  0
   -5.5660   23.0790  -31.4550 C   0  0  0  0  0  0  0  0  0  0  0  0
   -6.7930   23.4110  -30.8490 C   0  0  0  0  0  0  0  0  0  0  0  0
   -6.8660   24.5160  -29.9990 C   0  0  0  0  0  0  0  0  0  0  0  0
   -5.7280   25.2840  -29.7550 C   0  0  0  0  0  0  0  0  0  0  0  0
   -4.5250   24.9300  -30.3650 C   0  0  0  0  0  0  0  0  0  0  0  0
   -4.4710   23.8510  -31.1900 N   0  0  0  0  0  0  0  0  0  0  0  0
   -4.2070   21.7460  -33.1110 C   0  0  0  0  0  0  0  0  0  0  0  0
   -3.9080   20.2530  -33.2770 C   0  0  0  0  0  0  0  0  0  0  0  0
   -3.4110   15.1350  -32.7770 C   0  0  0  0  0  0  0  0  0  0  0  0
   -3.7140   14.2160  -33.9730 C   0  0  0  0  0  0  0  0  0  0  0  0
   -5.1470   14.1470  -34.2540 N   0  0  0  0  0  0  0  0  0  0  0  0
   -6.1503   17.1073  -32.9537 H   0  0  0  0  0  0  0  0  0  0  0  0
   -5.8668   15.7471  -31.7858 H   0  0  0  0  0  0  0  0  0  0  0  0
   -2.9250   17.8961  -33.6638 H   0  0  0  0  0  0  0  0  0  0  0  0
   -3.5439   16.6529  -34.8191 H   0  0  0  0  0  0  0  0  0  0  0  0
   -6.4390   20.7999  -34.7253 H   0  0  0  0  0  0  0  0  0  0  0  0
   -7.1794   19.4103  -33.8440 H   0  0  0  0  0  0  0  0  0  0  0  0
   -7.4939   21.6847  -32.7432 H   0  0  0  0  0  0  0  0  0  0  0  0
   -6.7212   20.4070  -31.7124 H   0  0  0  0  0  0  0  0  0  0  0  0
   -7.6888   22.8032  -31.0443 H   0  0  0  0  0  0  0  0  0  0  0  0
   -7.8211   24.7808  -29.5218 H   0  0  0  0  0  0  0  0  0  0  0  0
   -5.7786   26.1584  -29.0895 H   0  0  0  0  0  0  0  0  0  0  0  0
   -3.6186   25.5247  -30.1783 H   0  0  0  0  0  0  0  0  0  0  0  0
   -4.3221   22.2044  -34.1043 H   0  0  0  0  0  0  0  0  0  0  0  0
   -3.3734   22.2168  -32.5693 H   0  0  0  0  0  0  0  0  0  0  0  0
   -3.0882   20.1322  -34.0004 H   0  0  0  0  0  0  0  0  0  0  0  0
   -3.6293   19.8483  -32.2928 H   0  0  0  0  0  0  0  0  0  0  0  0
   -2.3355   15.3658  -32.7758 H   0  0  0  0  0  0  0  0  0  0  0  0
   -3.7171   14.6008  -31.8654 H   0  0  0  0  0  0  0  0  0  0  0  0
   -3.1951   14.6049  -34.8615 H   0  0  0  0  0  0  0  0  0  0  0  0
   -3.3649   13.2031  -33.7236 H   0  0  0  0  0  0  0  0  0  0  0  0
   -5.4840   13.4340  -34.9390 H   0  0  0  0  0  0  0  0  0  0  0  0
  1  2  2  0
  2  3  1  0
  3  4  1  0
  4  5  1  0
  5  6  1  0
  6  7  2  0
  6  8  1  0
  8  9  1  0
  9 10  1  0
 10 11  1  0
 11 12  1  0
 12 13  2  0
 13 14  1  0
 14 15  2  0
 15 16  1  0
 16 17  2  0
 11 18  1  0
 18 19  1  0
  4 20  1  0
 20 21  1  0
 21 22  1  0
 22  2  1  0
 19  8  1  0
 17 12  1  0
  3 23  1  0
  3 24  1  0
  5 25  1  0
  5 26  1  0
  9 27  1  0
  9 28  1  0
 10 29  1  0
 10 30  1  0
 13 31  1  0
 14 32  1  0
 15 33  1  0
 16 34  1  0
 18 35  1  0
 18 36  1  0
 19 37  1  0
 19 38  1  0
 20 39  1  0
 20 40  1  0
 21 41  1  0
 21 42  1  0
 22 43  1  0
M  END
>  <UniqueID>  (36) 
34

>  <SMILES>  (36) 
O=C1CN(CC(=O)N2CCN(c3ccccn3)CC2)CCN1

>  <Energy>  (36) 
50.10957893410498

>  <Genealogy>  (36) 
O=C1CN(CC(=O)N2CCN(c3ccccn3)CC2)CCN1 (3D coordinates assigned)
O=C1CN(CC(=O)N2CCN(c3ccccn3)CC2)CCN1 (nonaromatic ring conformer: 50.10957893410498 kcal/mol)

>  <smiles>  (36) 
O=C1CN(CC(=O)N2CCN(c3ccccn3)CC2)CCN1

>  <score_type>  (36) 
oracle

>  <origin>  (36) 
adg

>  <m_score__min__energy>  (36) 
-7.71

>  <m_primary>  (36) 
energy

$$$$
36:0
     RDKit          3D

 53 55  0  0  0  0  0  0  0  0999 V2000
   -0.5790   27.2810  -27.5050 C   0  0  0  0  0  0  0  0  0  0  0  0
   -1.0230   26.4380  -28.5630 O   0  0  0  0  0  0  0  0  0  0  0  0
   -0.8620   25.0490  -28.5400 C   0  0  0  0  0  0  0  0  0  0  0  0
    0.2970   24.5530  -28.5480 O   0  0  0  0  0  0  0  0  0  0  0  0
   -2.0640   24.1760  -28.4750 C   0  0  0  0  0  0  0  0  0  0  0  0
   -3.0590   24.3460  -29.4560 C   0  0  0  0  0  0  0  0  0  0  0  0
   -4.2270   23.5700  -29.4470 C   0  0  0  0  0  0  0  0  0  0  0  0
   -5.2760   23.7450  -30.5220 C   0  0  0  0  0  0  0  0  0  0  0  0
   -5.5210   22.4830  -31.2610 N   0  0  0  0  0  0  0  0  0  0  0  0
   -6.6890   22.6370  -32.1530 C   0  0  0  0  0  0  0  0  0  0  0  0
   -7.1040   21.2710  -32.7100 C   0  0  0  0  0  0  0  0  0  0  0  0
   -5.9260   20.4750  -33.0650 N   0  0  0  0  0  0  0  0  0  0  0  0
   -6.0960   19.0960  -33.4340 C   0  0  0  0  0  0  0  0  0  0  0  0
   -5.3730   18.5770  -34.5180 C   0  0  0  0  0  0  0  0  0  0  0  0
   -5.5290   17.2440  -34.8970 C   0  0  0  0  0  0  0  0  0  0  0  0
   -6.4070   16.4160  -34.1970 C   0  0  0  0  0  0  0  0  0  0  0  0
   -7.1310   16.9170  -33.1140 C   0  0  0  0  0  0  0  0  0  0  0  0
   -6.9820   18.2630  -32.7200 C   0  0  0  0  0  0  0  0  0  0  0  0
   -7.6810   18.7980  -31.6260 O   0  0  0  0  0  0  0  0  0  0  0  0
   -9.0940   18.7420  -31.4640 C   0  0  0  0  0  0  0  0  0  0  0  0
   -4.6190   21.1230  -33.2130 C   0  0  0  0  0  0  0  0  0  0  0  0
   -4.3130   22.0610  -32.0230 C   0  0  0  0  0  0  0  0  0  0  0  0
   -4.3990   22.6020  -28.4540 C   0  0  0  0  0  0  0  0  0  0  0  0
   -3.4240   22.4120  -27.4760 C   0  0  0  0  0  0  0  0  0  0  0  0
   -2.2470   23.1800  -27.4750 C   0  0  0  0  0  0  0  0  0  0  0  0
   -1.2140   22.9040  -26.4130 C   0  0  0  0  0  0  0  0  0  0  0  0
   -0.8238   26.8162  -26.5385 H   0  0  0  0  0  0  0  0  0  0  0  0
    0.5096   27.4205  -27.5795 H   0  0  0  0  0  0  0  0  0  0  0  0
   -1.0798   28.2576  -27.5795 H   0  0  0  0  0  0  0  0  0  0  0  0
   -2.9179   25.1009  -30.2436 H   0  0  0  0  0  0  0  0  0  0  0  0
   -6.2159   24.0715  -30.0529 H   0  0  0  0  0  0  0  0  0  0  0  0
   -4.9107   24.4959  -31.2381 H   0  0  0  0  0  0  0  0  0  0  0  0
   -5.7490   21.7380  -30.5580 H   0  0  0  0  0  0  0  0  0  0  0  0
   -7.5265   23.0693  -31.5858 H   0  0  0  0  0  0  0  0  0  0  0  0
   -6.4221   23.3023  -32.9874 H   0  0  0  0  0  0  0  0  0  0  0  0
   -7.6869   20.7327  -31.9482 H   0  0  0  0  0  0  0  0  0  0  0  0
   -7.7096   21.4280  -33.6148 H   0  0  0  0  0  0  0  0  0  0  0  0
   -4.6787   19.2253  -35.0726 H   0  0  0  0  0  0  0  0  0  0  0  0
   -4.9590   16.8449  -35.7490 H   0  0  0  0  0  0  0  0  0  0  0  0
   -6.5290   15.3655  -34.4994 H   0  0  0  0  0  0  0  0  0  0  0  0
   -7.8209   16.2591  -32.5653 H   0  0  0  0  0  0  0  0  0  0  0  0
   -9.3401   18.7322  -30.3919 H   0  0  0  0  0  0  0  0  0  0  0  0
   -9.5525   19.6227  -31.9374 H   0  0  0  0  0  0  0  0  0  0  0  0
   -9.4814   17.8278  -31.9374 H   0  0  0  0  0  0  0  0  0  0  0  0
   -3.8401   20.3482  -33.2667 H   0  0  0  0  0  0  0  0  0  0  0  0
   -4.6355   21.7266  -34.1325 H   0  0  0  0  0  0  0  0  0  0  0  0
   -3.6347   21.5364  -31.3340 H   0  0  0  0  0  0  0  0  0  0  0  0
   -3.8654   22.9739  -32.4429 H   0  0  0  0  0  0  0  0  0  0  0  0
   -5.3101   21.9857  -28.4440 H   0  0  0  0  0  0  0  0  0  0  0  0
   -3.5777   21.6520  -26.6958 H   0  0  0  0  0  0  0  0  0  0  0  0
   -1.6687   23.0255  -25.4188 H   0  0  0  0  0  0  0  0  0  0  0  0
   -0.8415   21.8748  -26.5225 H   0  0  0  0  0  0  0  0  0  0  0  0
   -0.3778   23.6102  -26.5225 H   0  0  0  0  0  0  0  0  0  0  0  0
  1  2  1  0
  2  3  1  0
  3  4  2  0
  3  5  1  0
  5  6  2  0
  6  7  1  0
  7  8  1  0
  8  9  1  0
  9 10  1  0
 10 11  1  0
 11 12  1  0
 12 13  1  0
 13 14  2  0
 14 15  1  0
 15 16  2  0
 16 17  1  0
 17 18  2  0
 18 19  1  0
 19 20  1  0
 12 21  1  0
 21 22  1  0
  7 23  2  0
 23 24  1  0
 24 25  2  0
 25 26  1  0
 25  5  1  0
 22  9  1  0
 18 13  1  0
  1 27  1  0
  1 28  1  0
  1 29  1  0
  6 30  1  0
  8 31  1  0
  8 32  1  0
  9 33  1  0
 10 34  1  0
 10 35  1  0
 11 36  1  0
 11 37  1  0
 14 38  1  0
 15 39  1  0
 16 40  1  0
 17 41  1  0
 20 42  1  0
 20 43  1  0
 20 44  1  0
 21 45  1  0
 21 46  1  0
 22 47  1  0
 22 48  1  0
 23 49  1  0
 24 50  1  0
 26 51  1  0
 26 52  1  0
 26 53  1  0
M  CHG  1   9   1
M  END
>  <UniqueID>  (37) 
35

>  <SMILES>  (37) 
COC(=O)c1cc(C[NH+]2CCN(c3ccccc3OC)CC2)ccc1C

>  <Energy>  (37) 
66.75713263964933

>  <Genealogy>  (37) 
COC(=O)c1cc(C[NH+]2CCN(c3ccccc3OC)CC2)ccc1C (protonated)
COC(=O)c1cc(C[NH+]2CCN(c3ccccc3OC)CC2)ccc1C (3D coordinates assigned)
COC(=O)c1cc(C[NH+]2CCN(c3ccccc3OC)CC2)ccc1C (nonaromatic ring conformer: 66.75713263964933 kcal/mol)

>  <smiles>  (37) 
COC(=O)c1cc(CN2CCN(c3ccccc3OC)CC2)ccc1C

>  <score_type>  (37) 
oracle

>  <origin>  (37) 
adg

>  <m_score__min__energy>  (37) 
-7.2800000000000002

>  <m_primary>  (37) 
energy

$$$$
37:0
     RDKit          3D

 55 59  0  0  0  0  0  0  0  0999 V2000
   -2.6620   24.9160  -29.0610 C   0  0  0  0  0  0  0  0  0  0  0  0
   -3.4810   24.6610  -30.2570 N   0  0  0  0  0  0  0  0  0  0  0  0
   -3.5450   23.2090  -30.5370 C   0  0  0  0  0  0  0  0  0  0  0  0
   -4.7620   22.8670  -31.4030 C   0  0  0  0  0  0  0  0  0  0  0  0
   -6.0330   23.1780  -30.6990 N   0  0  0  0  0  0  0  0  0  0  0  0
   -7.1410   23.3890  -31.6550 C   0  0  0  0  0  0  0  0  0  0  0  0
   -7.8310   22.0870  -31.9740 C   0  0  0  0  0  0  0  0  0  0  0  0
   -9.2290   21.9890  -31.9300 C   0  0  0  0  0  0  0  0  0  0  0  0
   -9.8600   20.7860  -32.2500 C   0  0  0  0  0  0  0  0  0  0  0  0
   -9.1020   19.6710  -32.6220 C   0  0  0  0  0  0  0  0  0  0  0  0
   -7.6990   19.7510  -32.6780 C   0  0  0  0  0  0  0  0  0  0  0  0
   -6.8900   18.5800  -33.0980 C   0  0  0  0  0  0  0  0  0  0  0  0
   -7.4410   17.3360  -33.1430 N   0  0  0  0  0  0  0  0  0  0  0  0
   -6.7140   16.2600  -33.5390 C   0  0  0  0  0  0  0  0  0  0  0  0
   -5.3810   16.4190  -33.9160 C   0  0  0  0  0  0  0  0  0  0  0  0
   -4.8250   17.7030  -33.8850 C   0  0  0  0  0  0  0  0  0  0  0  0
   -3.4020   17.9170  -34.2320 C   0  0  0  0  0  0  0  0  0  0  0  0
   -2.7360   16.8890  -34.8270 N   0  0  0  0  0  0  0  0  0  0  0  0
   -1.4140   16.9440  -35.1260 C   0  0  0  0  0  0  0  0  0  0  0  0
   -0.6720   18.0780  -34.8120 C   0  0  0  0  0  0  0  0  0  0  0  0
   -1.3080   19.1730  -34.2160 C   0  0  0  0  0  0  0  0  0  0  0  0
   -0.5750   20.3320  -33.9150 C   0  0  0  0  0  0  0  0  0  0  0  0
   -1.2110   21.4410  -33.3570 C   0  0  0  0  0  0  0  0  0  0  0  0
   -2.5830   21.4100  -33.1090 C   0  0  0  0  0  0  0  0  0  0  0  0
   -3.3270   20.2640  -33.4010 C   0  0  0  0  0  0  0  0  0  0  0  0
   -2.6980   19.1150  -33.9320 C   0  0  0  0  0  0  0  0  0  0  0  0
   -5.5880   18.7440  -33.4580 N   0  0  0  0  0  0  0  0  0  0  0  0
   -7.0720   20.9670  -32.3470 C   0  0  0  0  0  0  0  0  0  0  0  0
   -5.9150   24.3090  -29.7440 C   0  0  0  0  0  0  0  0  0  0  0  0
   -4.8130   25.3050  -30.1480 C   0  0  0  0  0  0  0  0  0  0  0  0
   -3.2626   24.7290  -28.1586 H   0  0  0  0  0  0  0  0  0  0  0  0
   -1.7886   24.2473  -29.0653 H   0  0  0  0  0  0  0  0  0  0  0  0
   -2.3226   25.9623  -29.0653 H   0  0  0  0  0  0  0  0  0  0  0  0
   -2.6303   22.9047  -31.0667 H   0  0  0  0  0  0  0  0  0  0  0  0
   -3.6349   22.6726  -29.5809 H   0  0  0  0  0  0  0  0  0  0  0  0
   -4.7154   23.4526  -32.3330 H   0  0  0  0  0  0  0  0  0  0  0  0
   -4.7409   21.7887  -31.6193 H   0  0  0  0  0  0  0  0  0  0  0  0
   -7.8701   24.0844  -31.2136 H   0  0  0  0  0  0  0  0  0  0  0  0
   -6.7280   23.8053  -32.5856 H   0  0  0  0  0  0  0  0  0  0  0  0
   -9.8307   22.8637  -31.6422 H   0  0  0  0  0  0  0  0  0  0  0  0
  -10.9569   20.7145  -32.2095 H   0  0  0  0  0  0  0  0  0  0  0  0
   -9.6062   18.7259  -32.8723 H   0  0  0  0  0  0  0  0  0  0  0  0
   -7.1767   15.2623  -33.5625 H   0  0  0  0  0  0  0  0  0  0  0  0
   -4.7793   15.5537  -34.2310 H   0  0  0  0  0  0  0  0  0  0  0  0
   -0.9272   16.0892  -35.6183 H   0  0  0  0  0  0  0  0  0  0  0  0
    0.4055   18.1138  -35.0303 H   0  0  0  0  0  0  0  0  0  0  0  0
    0.5052   20.3657  -34.1200 H   0  0  0  0  0  0  0  0  0  0  0  0
   -0.6292   22.3418  -33.1121 H   0  0  0  0  0  0  0  0  0  0  0  0
   -3.0819   22.2922  -32.6814 H   0  0  0  0  0  0  0  0  0  0  0  0
   -4.4113   20.2559  -33.2161 H   0  0  0  0  0  0  0  0  0  0  0  0
   -5.9750   21.0402  -32.3811 H   0  0  0  0  0  0  0  0  0  0  0  0
   -6.8766   24.8419  -29.7068 H   0  0  0  0  0  0  0  0  0  0  0  0
   -5.6471   23.8923  -28.7618 H   0  0  0  0  0  0  0  0  0  0  0  0
   -5.0738   25.7444  -31.1222 H   0  0  0  0  0  0  0  0  0  0  0  0
   -4.7510   26.0731  -29.3631 H   0  0  0  0  0  0  0  0  0  0  0  0
  1  2  1  0
  2  3  1  0
  3  4  1  0
  4  5  1  0
  5  6  1  0
  6  7  1  0
  7  8  2  0
  8  9  1  0
  9 10  2  0
 10 11  1  0
 11 12  1  0
 12 13  2  0
 13 14  1  0
 14 15  2  0
 15 16  1  0
 16 17  1  0
 17 18  2  0
 18 19  1  0
 19 20  2  0
 20 21  1  0
 21 22  2  0
 22 23  1  0
 23 24  2  0
 24 25  1  0
 25 26  2  0
 16 27  2  0
 11 28  2  0
  5 29  1  0
 29 30  1  0
 30  2  1  0
 28  7  1  0
 27 12  1  0
 26 17  1  0
 26 21  1  0
  1 31  1  0
  1 32  1  0
  1 33  1  0
  3 34  1  0
  3 35  1  0
  4 36  1  0
  4 37  1  0
  6 38  1  0
  6 39  1  0
  8 40  1  0
  9 41  1  0
 10 42  1  0
 14 43  1  0
 15 44  1  0
 19 45  1  0
 20 46  1  0
 22 47  1  0
 23 48  1  0
 24 49  1  0
 25 50  1  0
 28 51  1  0
 29 52  1  0
 29 53  1  0
 30 54  1  0
 30 55  1  0
M  END
>  <UniqueID>  (38) 
36

>  <SMILES>  (38) 
CN1CCN(Cc2cccc(-c3nccc(-c4nccc5ccccc45)n3)c2)CC1

>  <Energy>  (38) 
85.18098362090906

>  <Genealogy>  (38) 
CN1CCN(Cc2cccc(-c3nccc(-c4nccc5ccccc45)n3)c2)CC1 (3D coordinates assigned)
CN1CCN(Cc2cccc(-c3nccc(-c4nccc5ccccc45)n3)c2)CC1 (nonaromatic ring conformer: 85.18098362090906 kcal/mol)

>  <smiles>  (38) 
CN1CCN(Cc2cccc(-c3nccc(-c4nccc5ccccc45)n3)c2)CC1

>  <score_type>  (38) 
oracle

>  <origin>  (38) 
adg

>  <m_score__min__energy>  (38) 
-10.27

>  <m_primary>  (38) 
energy

$$$$
38:0
     RDKit          3D

115116  0  0  0  0  0  0  0  0999 V2000
   -2.8840   14.9310  -34.3370 C   0  0  0  0  0  0  0  0  0  0  0  0
   -4.3420   15.2110  -34.7270 C   0  0  0  0  0  0  0  0  0  0  0  0
   -5.3030   14.9440  -33.6200 N   0  0  0  0  0  0  0  0  0  0  0  0
   -4.6640   14.9410  -32.2670 C   0  0  0  0  0  0  0  0  0  0  0  0
   -4.5500   13.5590  -31.6050 C   0  0  0  0  0  0  0  0  0  0  0  0
   -6.4560   15.8800  -33.7230 C   0  0  0  0  0  0  0  0  0  0  0  0
   -6.0920   17.2790  -34.2590 C   0  0  0  0  0  0  0  0  0  0  0  0
   -6.2580   18.2970  -33.1900 N   0  0  0  0  0  0  0  0  0  0  0  0
   -5.0460   18.4040  -32.3380 C   0  0  0  0  0  0  0  0  0  0  0  0
   -3.7950   17.9760  -33.1220 C   0  0  0  0  0  0  0  0  0  0  0  0
   -3.3620   18.9530  -34.2200 C   0  0  0  0  0  0  0  0  0  0  0  0
   -2.4360   20.0650  -33.7090 C   0  0  0  0  0  0  0  0  0  0  0  0
   -3.1960   21.1500  -32.9320 C   0  0  0  0  0  0  0  0  0  0  0  0
   -2.3230   21.9430  -31.9290 C   0  0  0  0  0  0  0  0  0  0  0  0
   -2.1100   21.2270  -30.5810 C   0  0  0  0  0  0  0  0  0  0  0  0
   -3.3860   21.2120  -29.7190 C   0  0  0  0  0  0  0  0  0  0  0  0
   -3.0740   21.5150  -28.3030 N   0  0  0  0  0  0  0  0  0  0  0  0
   -3.9600   22.5980  -27.8120 C   0  0  0  0  0  0  0  0  0  0  0  0
   -3.6330   23.9550  -28.4580 C   0  0  0  0  0  0  0  0  0  0  0  0
   -4.4550   24.2330  -29.7280 C   0  0  0  0  0  0  0  0  0  0  0  0
   -3.8570   25.3070  -30.5130 N   0  0  0  0  0  0  0  0  0  0  0  0
   -3.1780   20.2950  -27.4540 C   0  0  0  0  0  0  0  0  0  0  0  0
   -1.9430   20.1800  -26.5510 C   0  0  0  0  0  0  0  0  0  0  0  0
   -0.9300   19.1360  -27.0610 C   0  0  0  0  0  0  0  0  0  0  0  0
   -0.4080   19.3920  -28.4890 C   0  0  0  0  0  0  0  0  0  0  0  0
    0.3690   20.7100  -28.6700 C   0  0  0  0  0  0  0  0  0  0  0  0
    1.2560   21.0730  -27.4710 C   0  0  0  0  0  0  0  0  0  0  0  0
    1.0740   22.4920  -27.1340 N   0  0  0  0  0  0  0  0  0  0  0  0
   -0.1170   22.6940  -26.2960 C   0  0  0  0  0  0  0  0  0  0  0  0
   -0.4120   24.1660  -26.1290 C   0  0  0  0  0  0  0  0  0  0  0  0
   -0.8560   24.6320  -24.8800 C   0  0  0  0  0  0  0  0  0  0  0  0
   -1.1670   25.9810  -24.6980 C   0  0  0  0  0  0  0  0  0  0  0  0
   -1.0460   26.8770  -25.7600 C   0  0  0  0  0  0  0  0  0  0  0  0
   -0.6140   26.4290  -27.0090 C   0  0  0  0  0  0  0  0  0  0  0  0
   -0.2960   25.0700  -27.2120 C   0  0  0  0  0  0  0  0  0  0  0  0
    0.1180   24.5910  -28.4680 O   0  0  0  0  0  0  0  0  0  0  0  0
   -0.7040   23.8410  -29.3560 C   0  0  0  0  0  0  0  0  0  0  0  0
   -6.6860   19.6080  -33.7360 C   0  0  0  0  0  0  0  0  0  0  0  0
   -7.1750   20.5280  -32.6300 C   0  0  0  0  0  0  0  0  0  0  0  0
   -6.4380   21.7020  -32.3900 C   0  0  0  0  0  0  0  0  0  0  0  0
   -6.8800   22.6210  -31.4430 C   0  0  0  0  0  0  0  0  0  0  0  0
   -8.0500   22.3680  -30.7340 C   0  0  0  0  0  0  0  0  0  0  0  0
   -8.7530   21.1840  -30.9650 C   0  0  0  0  0  0  0  0  0  0  0  0
   -8.3160   20.2740  -31.8920 N   0  0  0  0  0  0  0  0  0  0  0  0
   -9.1030   19.0510  -32.0940 C   0  0  0  0  0  0  0  0  0  0  0  0
   -2.7945   14.9138  -33.2408 H   0  0  0  0  0  0  0  0  0  0  0  0
   -2.5757   13.9572  -34.7454 H   0  0  0  0  0  0  0  0  0  0  0  0
   -2.2370   15.7213  -34.7454 H   0  0  0  0  0  0  0  0  0  0  0  0
   -4.4296   16.2677  -35.0199 H   0  0  0  0  0  0  0  0  0  0  0  0
   -4.5970   14.5327  -35.5545 H   0  0  0  0  0  0  0  0  0  0  0  0
   -5.6660   13.9770  -33.7890 H   0  0  0  0  0  0  0  0  0  0  0  0
   -3.6501   15.3557  -32.3677 H   0  0  0  0  0  0  0  0  0  0  0  0
   -5.3187   15.5399  -31.6168 H   0  0  0  0  0  0  0  0  0  0  0  0
   -4.5595   13.6745  -30.5111 H   0  0  0  0  0  0  0  0  0  0  0  0
   -5.3995   12.9327  -31.9150 H   0  0  0  0  0  0  0  0  0  0  0  0
   -3.6093   13.0804  -31.9150 H   0  0  0  0  0  0  0  0  0  0  0  0
   -7.2013   15.4354  -34.3989 H   0  0  0  0  0  0  0  0  0  0  0  0
   -6.8372   16.0237  -32.7012 H   0  0  0  0  0  0  0  0  0  0  0  0
   -5.0460   17.2769  -34.5995 H   0  0  0  0  0  0  0  0  0  0  0  0
   -6.7593   17.5269  -35.0976 H   0  0  0  0  0  0  0  0  0  0  0  0
   -4.9268   19.4465  -32.0079 H   0  0  0  0  0  0  0  0  0  0  0  0
   -5.1639   17.7410  -31.4682 H   0  0  0  0  0  0  0  0  0  0  0  0
   -2.9635   17.8709  -32.4096 H   0  0  0  0  0  0  0  0  0  0  0  0
   -4.0529   17.0341  -33.6283 H   0  0  0  0  0  0  0  0  0  0  0  0
   -2.8322   18.3884  -35.0013 H   0  0  0  0  0  0  0  0  0  0  0  0
   -4.2720   19.4365  -34.6048 H   0  0  0  0  0  0  0  0  0  0  0  0
   -1.6811   19.6186  -33.0451 H   0  0  0  0  0  0  0  0  0  0  0  0
   -1.9717   20.5429  -34.5842 H   0  0  0  0  0  0  0  0  0  0  0  0
   -3.6197   21.8604  -33.6571 H   0  0  0  0  0  0  0  0  0  0  0  0
   -3.9663   20.6336  -32.3404 H   0  0  0  0  0  0  0  0  0  0  0  0
   -1.3385   22.1156  -32.3884 H   0  0  0  0  0  0  0  0  0  0  0  0
   -2.8586   22.8788  -31.7113 H   0  0  0  0  0  0  0  0  0  0  0  0
   -1.8030   20.1890  -30.7765 H   0  0  0  0  0  0  0  0  0  0  0  0
   -1.3357   21.7774  -30.0264 H   0  0  0  0  0  0  0  0  0  0  0  0
   -4.0878   21.9674  -30.1022 H   0  0  0  0  0  0  0  0  0  0  0  0
   -3.8329   20.2083  -29.7722 H   0  0  0  0  0  0  0  0  0  0  0  0
   -5.0024   22.3363  -28.0463 H   0  0  0  0  0  0  0  0  0  0  0  0
   -3.8052   22.6947  -26.7272 H   0  0  0  0  0  0  0  0  0  0  0  0
   -3.8398   24.7499  -27.7263 H   0  0  0  0  0  0  0  0  0  0  0  0
   -2.5733   23.9311  -28.7521 H   0  0  0  0  0  0  0  0  0  0  0  0
   -4.4931   23.3191  -30.3390 H   0  0  0  0  0  0  0  0  0  0  0  0
   -5.4684   24.5395  -29.4295 H   0  0  0  0  0  0  0  0  0  0  0  0
   -3.4820   24.8830  -31.3950 H   0  0  0  0  0  0  0  0  0  0  0  0
   -4.6150   25.9640  -30.8090 H   0  0  0  0  0  0  0  0  0  0  0  0
   -4.0813   20.3610  -26.8298 H   0  0  0  0  0  0  0  0  0  0  0  0
   -3.2371   19.4075  -28.1012 H   0  0  0  0  0  0  0  0  0  0  0  0
   -1.4463   21.1605  -26.5071 H   0  0  0  0  0  0  0  0  0  0  0  0
   -2.2859   19.8537  -25.5581 H   0  0  0  0  0  0  0  0  0  0  0  0
   -0.0688   19.1309  -26.3767 H   0  0  0  0  0  0  0  0  0  0  0  0
   -1.4626   18.1740  -27.0917 H   0  0  0  0  0  0  0  0  0  0  0  0
    0.2596   18.5616  -28.7626 H   0  0  0  0  0  0  0  0  0  0  0  0
   -1.2966   19.4672  -29.1330 H   0  0  0  0  0  0  0  0  0  0  0  0
    1.0090   20.6165  -29.5597 H   0  0  0  0  0  0  0  0  0  0  0  0
   -0.3772   21.5117  -28.7722 H   0  0  0  0  0  0  0  0  0  0  0  0
    0.9753   20.4527  -26.6070 H   0  0  0  0  0  0  0  0  0  0  0  0
    2.3099   20.8912  -27.7283 H   0  0  0  0  0  0  0  0  0  0  0  0
    0.9140   23.0110  -28.0280 H   0  0  0  0  0  0  0  0  0  0  0  0
   -0.9799   22.2050  -26.7718 H   0  0  0  0  0  0  0  0  0  0  0  0
    0.0716   22.2575  -25.3041 H   0  0  0  0  0  0  0  0  0  0  0  0
   -0.9593   23.9294  -24.0400 H   0  0  0  0  0  0  0  0  0  0  0  0
   -1.5081   26.3378  -23.7150 H   0  0  0  0  0  0  0  0  0  0  0  0
   -1.2916   27.9391  -25.6127 H   0  0  0  0  0  0  0  0  0  0  0  0
   -0.5207   27.1415  -27.8419 H   0  0  0  0  0  0  0  0  0  0  0  0
   -1.3936   23.2118  -28.7741 H   0  0  0  0  0  0  0  0  0  0  0  0
   -1.2821   24.5293  -29.9900 H   0  0  0  0  0  0  0  0  0  0  0  0
   -0.0714   23.2024  -29.9900 H   0  0  0  0  0  0  0  0  0  0  0  0
   -5.8334   20.0805  -34.2456 H   0  0  0  0  0  0  0  0  0  0  0  0
   -7.5131   19.4394  -34.4414 H   0  0  0  0  0  0  0  0  0  0  0  0
   -5.5116   21.8937  -32.9513 H   0  0  0  0  0  0  0  0  0  0  0  0
   -6.3078   23.5417  -31.2562 H   0  0  0  0  0  0  0  0  0  0  0  0
   -8.4188   23.0959  -29.9963 H   0  0  0  0  0  0  0  0  0  0  0  0
   -9.6709   20.9786  -30.3947 H   0  0  0  0  0  0  0  0  0  0  0  0
   -9.3767   18.6256  -31.1172 H   0  0  0  0  0  0  0  0  0  0  0  0
  -10.0162   19.2916  -32.6581 H   0  0  0  0  0  0  0  0  0  0  0  0
   -8.5056   18.3196  -32.6581 H   0  0  0  0  0  0  0  0  0  0  0  0
  1  2  1  0
  2  3  1  0
  3  4  1  0
  4  5  1  0
  3  6  1  0
  6  7  1  0
  7  8  1  0
  8  9  1  0
  9 10  1  0
 10 11  1  0
 11 12  1  0
 12 13  1  0
 13 14  1  0
 14 15  1  0
 15 16  1  0
 16 17  1  0
 17 18  1  0
 18 19  1  0
 19 20  1  0
 20 21  1  0
 17 22  1  0
 22 23  1  0
 23 24  1  0
 24 25  1  0
 25 26  1  0
 26 27  1  0
 27 28  1  0
 28 29  1  0
 29 30  1  0
 30 31  2  0
 31 32  1  0
 32 33  2  0
 33 34  1  0
 34 35  2  0
 35 36  1  0
 36 37  1  0
  8 38  1  0
 38 39  1  0
 39 40  2  0
 40 41  1  0
 41 42  2  0
 42 43  1  0
 43 44  2  0
 44 45  1  0
 35 30  1  0
 44 39  1  0
  1 46  1  0
  1 47  1  0
  1 48  1  0
  2 49  1  0
  2 50  1  0
  3 51  1  0
  4 52  1  0
  4 53  1  0
  5 54  1  0
  5 55  1  0
  5 56  1  0
  6 57  1  0
  6 58  1  0
  7 59  1  0
  7 60  1  0
  9 61  1  0
  9 62  1  0
 10 63  1  0
 10 64  1  0
 11 65  1  0
 11 66  1  0
 12 67  1  0
 12 68  1  0
 13 69  1  0
 13 70  1  0
 14 71  1  0
 14 72  1  0
 15 73  1  0
 15 74  1  0
 16 75  1  0
 16 76  1  0
 18 77  1  0
 18 78  1  0
 19 79  1  0
 19 80  1  0
 20 81  1  0
 20 82  1  0
 21 83  1  0
 21 84  1  0
 22 85  1  0
 22 86  1  0
 23 87  1  0
 23 88  1  0
 24 89  1  0
 24 90  1  0
 25 91  1  0
 25 92  1  0
 26 93  1  0
 26 94  1  0
 27 95  1  0
 27 96  1  0
 28 97  1  0
 29 98  1  0
 29 99  1  0
 31100  1  0
 32101  1  0
 33102  1  0
 34103  1  0
 37104  1  0
 37105  1  0
 37106  1  0
 38107  1  0
 38108  1  0
 40109  1  0
 41110  1  0
 42111  1  0
 43112  1  0
 45113  1  0
 45114  1  0
 45115  1  0
M  CHG  2   3   1  44   1
M  END
>  <UniqueID>  (39) 
37

>  <SMILES>  (39) 
CC[NH+](CC)CCN(CCCCCCCCN(CCCN)CCCCCCNCc1ccccc1OC)Cc1cccc[n+]1C

>  <Energy>  (39) 
102.6167124798879

>  <Genealogy>  (39) 
CC[NH+](CC)CCN(CCCCCCCCN(CCCN)CCCCCCNCc1ccccc1OC)Cc1cccc[n+]1C (protonated)
CC[NH+](CC)CCN(CCCCCCCCN(CCCN)CCCCCCNCc1ccccc1OC)Cc1cccc[n+]1C (3D coordinates assigned)
CC[NH+](CC)CCN(CCCCCCCCN(CCCN)CCCCCCNCc1ccccc1OC)Cc1cccc[n+]1C (optimized conformer: 102.6167124798879 kcal/mol)

>  <smiles>  (39) 
CCN(CC)CCN(CCCCCCCCN(CCCN)CCCCCCNCc1ccccc1OC)Cc1cccc[n+]1C

>  <score_type>  (39) 
oracle

>  <origin>  (39) 
adg

>  <m_score__min__energy>  (39) 
-8.3100000000000005

>  <m_primary>  (39) 
energy

$$$$
39:0
     RDKit          3D

 20 20  0  0  0  0  0  0  0  0999 V2000
   -2.1050   23.2580  -29.5460 C   0  0  0  0  0  0  0  0  0  0  0  0
   -2.6480   23.4830  -30.8430 O   0  0  0  0  0  0  0  0  0  0  0  0
   -3.7130   22.7210  -31.3330 C   0  0  0  0  0  0  0  0  0  0  0  0
   -3.4560   21.5060  -31.9870 C   0  0  0  0  0  0  0  0  0  0  0  0
   -1.6330   20.9470  -32.2490 Br  0  0  0  0  0  0  0  0  0  0  0  0
   -4.5190   20.7300  -32.4790 C   0  0  0  0  0  0  0  0  0  0  0  0
   -4.1590   19.0540  -33.3590 Br  0  0  0  0  0  0  0  0  0  0  0  0
   -5.8430   21.1850  -32.3390 C   0  0  0  0  0  0  0  0  0  0  0  0
   -7.2990   20.1240  -33.0250 Br  0  0  0  0  0  0  0  0  0  0  0  0
   -6.1030   22.4190  -31.7090 C   0  0  0  0  0  0  0  0  0  0  0  0
   -7.9240   23.0510  -31.5820 Br  0  0  0  0  0  0  0  0  0  0  0  0
   -5.0360   23.1870  -31.1890 C   0  0  0  0  0  0  0  0  0  0  0  0
   -5.2840   24.5390  -30.5540 C   0  0  0  0  0  0  0  0  0  0  0  0
   -4.2900   25.4450  -30.9440 O   0  0  0  0  0  0  0  0  0  0  0  0
   -2.8378   23.5617  -28.7840 H   0  0  0  0  0  0  0  0  0  0  0  0
   -1.8727   22.1895  -29.4261 H   0  0  0  0  0  0  0  0  0  0  0  0
   -1.1850   23.8490  -29.4261 H   0  0  0  0  0  0  0  0  0  0  0  0
   -6.2661   24.9166  -30.8747 H   0  0  0  0  0  0  0  0  0  0  0  0
   -5.2627   24.4313  -29.4595 H   0  0  0  0  0  0  0  0  0  0  0  0
   -3.5050   24.9040  -31.2240 H   0  0  0  0  0  0  0  0  0  0  0  0
  1  2  1  0
  2  3  1  0
  3  4  2  0
  4  5  1  0
  4  6  1  0
  6  7  1  0
  6  8  2  0
  8  9  1  0
  8 10  1  0
 10 11  1  0
 10 12  2  0
 12 13  1  0
 13 14  1  0
 12  3  1  0
  1 15  1  0
  1 16  1  0
  1 17  1  0
 13 18  1  0
 13 19  1  0
 14 20  1  0
M  END
>  <UniqueID>  (40) 
38

>  <SMILES>  (40) 
COc1c(Br)c(Br)c(Br)c(Br)c1CO

>  <Energy>  (40) 
32.5069862909585

>  <Genealogy>  (40) 
COc1c(Br)c(Br)c(Br)c(Br)c1CO (3D coordinates assigned)
COc1c(Br)c(Br)c(Br)c(Br)c1CO (optimized conformer: 32.5069862909585 kcal/mol)

>  <smiles>  (40) 
COc1c(Br)c(Br)c(Br)c(Br)c1CO

>  <score_type>  (40) 
oracle

>  <origin>  (40) 
adg

>  <m_score__min__energy>  (40) 
-7.5

>  <m_primary>  (40) 
energy

$$$$
40:0
     RDKit          3D

 35 37  0  0  0  0  0  0  0  0999 V2000
   -6.3490   17.6740  -31.2290 C   0  0  0  0  0  0  0  0  0  0  0  0
   -7.3650   18.2060  -32.1500 N   0  0  0  0  0  0  0  0  0  0  0  0
   -6.8610   18.6020  -33.4850 C   0  0  0  0  0  0  0  0  0  0  0  0
   -5.5470   19.3520  -33.4530 C   0  0  0  0  0  0  0  0  0  0  0  0
   -4.3480   18.7040  -33.7910 C   0  0  0  0  0  0  0  0  0  0  0  0
   -3.1440   19.4050  -33.7230 C   0  0  0  0  0  0  0  0  0  0  0  0
   -3.1430   20.7460  -33.3440 C   0  0  0  0  0  0  0  0  0  0  0  0
   -4.3540   21.3740  -33.0500 C   0  0  0  0  0  0  0  0  0  0  0  0
   -5.5210   20.6760  -33.1150 N   0  0  0  0  0  0  0  0  0  0  0  0
   -8.3620   19.1060  -31.5290 C   0  0  0  0  0  0  0  0  0  0  0  0
   -8.0130   20.5650  -31.6110 C   0  0  0  0  0  0  0  0  0  0  0  0
   -7.1500   21.1970  -30.7920 N   0  0  0  0  0  0  0  0  0  0  0  0
   -7.1840   22.4520  -31.2840 C   0  0  0  0  0  0  0  0  0  0  0  0
   -6.3410   23.5460  -30.7800 C   0  0  0  0  0  0  0  0  0  0  0  0
   -6.8620   24.7010  -30.1750 C   0  0  0  0  0  0  0  0  0  0  0  0
   -5.8860   25.5930  -29.7500 C   0  0  0  0  0  0  0  0  0  0  0  0
   -4.3840   24.9400  -30.1250 S   0  0  0  0  0  0  0  0  0  0  0  0
   -4.9510   23.5240  -30.8310 C   0  0  0  0  0  0  0  0  0  0  0  0
   -8.0310   22.5750  -32.3240 N   0  0  0  0  0  0  0  0  0  0  0  0
   -8.5270   21.3870  -32.4910 O   0  0  0  0  0  0  0  0  0  0  0  0
   -6.6710   17.8426  -30.1908 H   0  0  0  0  0  0  0  0  0  0  0  0
   -6.2247   16.5951  -31.4037 H   0  0  0  0  0  0  0  0  0  0  0  0
   -5.3915   18.1864  -31.4037 H   0  0  0  0  0  0  0  0  0  0  0  0
   -6.7241   17.6912  -34.0865 H   0  0  0  0  0  0  0  0  0  0  0  0
   -7.6065   19.2874  -33.9145 H   0  0  0  0  0  0  0  0  0  0  0  0
   -4.3582   17.6505  -34.1073 H   0  0  0  0  0  0  0  0  0  0  0  0
   -2.1977   18.9005  -33.9679 H   0  0  0  0  0  0  0  0  0  0  0  0
   -2.1973   21.3038  -33.2773 H   0  0  0  0  0  0  0  0  0  0  0  0
   -4.3657   22.4363  -32.7648 H   0  0  0  0  0  0  0  0  0  0  0  0
   -6.4110   21.1720  -32.8840 H   0  0  0  0  0  0  0  0  0  0  0  0
   -9.3265   18.9534  -32.0353 H   0  0  0  0  0  0  0  0  0  0  0  0
   -8.3954   18.8495  -30.4598 H   0  0  0  0  0  0  0  0  0  0  0  0
   -7.9397   24.8820  -30.0497 H   0  0  0  0  0  0  0  0  0  0  0  0
   -6.0651   26.5585  -29.2544 H   0  0  0  0  0  0  0  0  0  0  0  0
   -4.3320   22.7213  -31.2581 H   0  0  0  0  0  0  0  0  0  0  0  0
  1  2  1  0
  2  3  1  0
  3  4  1  0
  4  5  2  0
  5  6  1  0
  6  7  2  0
  7  8  1  0
  8  9  2  0
  2 10  1  0
 10 11  1  0
 11 12  2  0
 12 13  1  0
 13 14  1  0
 14 15  1  0
 15 16  2  0
 16 17  1  0
 17 18  1  0
 13 19  2  0
 19 20  1  0
  9  4  1  0
 20 11  1  0
 18 14  2  0
  1 21  1  0
  1 22  1  0
  1 23  1  0
  3 24  1  0
  3 25  1  0
  5 26  1  0
  6 27  1  0
  7 28  1  0
  8 29  1  0
  9 30  1  0
 10 31  1  0
 10 32  1  0
 15 33  1  0
 16 34  1  0
 18 35  1  0
M  CHG  1   9   1
M  END
>  <UniqueID>  (41) 
39

>  <SMILES>  (41) 
CN(Cc1cccc[nH+]1)Cc1nc(-c2ccsc2)no1

>  <Energy>  (41) 
99.8339992645023

>  <Genealogy>  (41) 
CN(Cc1cccc[nH+]1)Cc1nc(-c2ccsc2)no1 (protonated)
CN(Cc1cccc[nH+]1)Cc1nc(-c2ccsc2)no1 (3D coordinates assigned)
CN(Cc1cccc[nH+]1)Cc1nc(-c2ccsc2)no1 (optimized conformer: 99.8339992645023 kcal/mol)

>  <smiles>  (41) 
CN(Cc1ccccn1)Cc1nc(-c2ccsc2)no1

>  <score_type>  (41) 
oracle

>  <origin>  (41) 
adg

>  <m_score__min__energy>  (41) 
-6.5099999999999998

>  <m_primary>  (41) 
energy

$$$$
41:0
     RDKit          3D

 34 36  0  0  0  0  0  0  0  0999 V2000
   -1.9630   25.3760  -28.9230 O   0  0  0  0  0  0  0  0  0  0  0  0
   -2.7620   24.6120  -29.5270 C   0  0  0  0  0  0  0  0  0  0  0  0
   -3.6840   25.1870  -30.4630 N   0  0  0  0  0  0  0  0  0  0  0  0
   -5.0750   24.8600  -30.5580 C   0  0  0  0  0  0  0  0  0  0  0  0
   -6.0830   25.1680  -29.6650 C   0  0  0  0  0  0  0  0  0  0  0  0
   -7.2350   24.6320  -30.1180 N   0  0  0  0  0  0  0  0  0  0  0  0
   -6.9640   23.9870  -31.2460 N   0  0  0  0  0  0  0  0  0  0  0  0
   -7.9750   23.3350  -32.0700 C   0  0  0  0  0  0  0  0  0  0  0  0
   -7.8030   21.8430  -31.9990 C   0  0  0  0  0  0  0  0  0  0  0  0
   -6.5920   21.2500  -32.3890 C   0  0  0  0  0  0  0  0  0  0  0  0
   -6.4480   19.8600  -32.3630 C   0  0  0  0  0  0  0  0  0  0  0  0
   -7.5160   19.0520  -31.9600 C   0  0  0  0  0  0  0  0  0  0  0  0
   -8.7290   19.6360  -31.5850 C   0  0  0  0  0  0  0  0  0  0  0  0
   -8.8770   21.0250  -31.6090 C   0  0  0  0  0  0  0  0  0  0  0  0
   -5.6560   24.1050  -31.5470 C   0  0  0  0  0  0  0  0  0  0  0  0
   -2.7570   23.1640  -29.2170 C   0  0  0  0  0  0  0  0  0  0  0  0
   -3.0820   22.6950  -27.9340 C   0  0  0  0  0  0  0  0  0  0  0  0
   -3.0610   21.3260  -27.6620 C   0  0  0  0  0  0  0  0  0  0  0  0
   -2.6990   20.4340  -28.6720 C   0  0  0  0  0  0  0  0  0  0  0  0
   -2.3680   20.9000  -29.9050 N   0  0  0  0  0  0  0  0  0  0  0  0
   -2.3840   22.2280  -30.1960 C   0  0  0  0  0  0  0  0  0  0  0  0
   -5.9659   25.7520  -28.7402 H   0  0  0  0  0  0  0  0  0  0  0  0
   -8.9759   23.6054  -31.7026 H   0  0  0  0  0  0  0  0  0  0  0  0
   -7.8623   23.6650  -33.1133 H   0  0  0  0  0  0  0  0  0  0  0  0
   -5.7531   21.8817  -32.7164 H   0  0  0  0  0  0  0  0  0  0  0  0
   -5.4934   19.4010  -32.6599 H   0  0  0  0  0  0  0  0  0  0  0  0
   -7.4014   17.9582  -31.9382 H   0  0  0  0  0  0  0  0  0  0  0  0
   -9.5696   19.0002  -31.2700 H   0  0  0  0  0  0  0  0  0  0  0  0
   -9.8367   21.4795  -31.3219 H   0  0  0  0  0  0  0  0  0  0  0  0
   -5.1476   23.6759  -32.4230 H   0  0  0  0  0  0  0  0  0  0  0  0
   -3.3537   23.4079  -27.1416 H   0  0  0  0  0  0  0  0  0  0  0  0
   -3.3271   20.9542  -26.6615 H   0  0  0  0  0  0  0  0  0  0  0  0
   -2.6815   19.3528  -28.4701 H   0  0  0  0  0  0  0  0  0  0  0  0
   -2.1036   22.5712  -31.2028 H   0  0  0  0  0  0  0  0  0  0  0  0
  1  2  2  0
  2  3  1  0
  3  4  1  0
  4  5  1  0
  5  6  2  0
  6  7  1  0
  7  8  1  0
  8  9  1  0
  9 10  2  0
 10 11  1  0
 11 12  2  0
 12 13  1  0
 13 14  2  0
  7 15  1  0
  2 16  1  0
 16 17  2  0
 17 18  1  0
 18 19  2  0
 19 20  1  0
 20 21  2  0
 15  4  2  0
 21 16  1  0
 14  9  1  0
  5 22  1  0
  8 23  1  0
  8 24  1  0
 10 25  1  0
 11 26  1  0
 12 27  1  0
 13 28  1  0
 14 29  1  0
 15 30  1  0
 17 31  1  0
 18 32  1  0
 19 33  1  0
 21 34  1  0
M  CHG  1   3  -1
M  END
>  <UniqueID>  (42) 
40

>  <SMILES>  (42) 
O=C([N-]c1cnn(Cc2ccccc2)c1)c1cccnc1

>  <Energy>  (42) 
72.69051099489258

>  <Genealogy>  (42) 
O=C([N-]c1cnn(Cc2ccccc2)c1)c1cccnc1 (protonated)
O=C([N-]c1cnn(Cc2ccccc2)c1)c1cccnc1 (3D coordinates assigned)
O=C([N-]c1cnn(Cc2ccccc2)c1)c1cccnc1 (optimized conformer: 72.69051099489258 kcal/mol)

>  <smiles>  (42) 
O=C(Nc1cnn(Cc2ccccc2)c1)c1cccnc1

>  <score_type>  (42) 
oracle

>  <origin>  (42) 
adg

>  <m_score__min__energy>  (42) 
-9.4299999999999997

>  <m_primary>  (42) 
energy

$$$$
42:0
     RDKit          3D

 54 57  0  0  0  0  0  0  0  0999 V2000
   -5.2660   25.3460  -30.4590 C   0  0  0  0  0  0  0  0  0  0  0  0
   -3.8620   25.2270  -30.4800 O   0  0  0  0  0  0  0  0  0  0  0  0
   -3.4960   23.9110  -30.1160 C   0  0  0  0  0  0  0  0  0  0  0  0
   -3.9650   22.9440  -31.2070 C   0  0  0  0  0  0  0  0  0  0  0  0
   -3.2890   21.5720  -31.0920 C   0  0  0  0  0  0  0  0  0  0  0  0
   -1.8410   21.7050  -30.9140 N   0  0  0  0  0  0  0  0  0  0  0  0
   -0.9760   20.5690  -30.9710 C   0  0  0  0  0  0  0  0  0  0  0  0
   -0.8670   19.6100  -29.6370 S   0  0  0  0  0  0  0  0  0  0  0  0
   -0.3600   20.1900  -32.2320 N   0  0  0  0  0  0  0  0  0  0  0  0
   -0.3260   21.2130  -33.2940 C   0  0  0  0  0  0  0  0  0  0  0  0
   -1.6320   21.1640  -34.1230 C   0  0  0  0  0  0  0  0  0  0  0  0
   -2.3520   19.8460  -33.9010 C   0  0  0  0  0  0  0  0  0  0  0  0
   -3.6430   19.8480  -33.5170 C   0  0  0  0  0  0  0  0  0  0  0  0
   -4.2500   18.6060  -33.0310 C   0  0  0  0  0  0  0  0  0  0  0  0
   -3.6010   17.4100  -33.0880 C   0  0  0  0  0  0  0  0  0  0  0  0
   -4.5440   16.4680  -32.7180 C   0  0  0  0  0  0  0  0  0  0  0  0
   -5.6980   17.1030  -32.4150 N   0  0  0  0  0  0  0  0  0  0  0  0
   -5.5110   18.4020  -32.5940 N   0  0  0  0  0  0  0  0  0  0  0  0
   -6.5290   19.3890  -32.3670 C   0  0  0  0  0  0  0  0  0  0  0  0
   -7.8770   19.1060  -32.6490 C   0  0  0  0  0  0  0  0  0  0  0  0
   -8.8580   20.0830  -32.4480 C   0  0  0  0  0  0  0  0  0  0  0  0
   -8.5000   21.3480  -31.9700 C   0  0  0  0  0  0  0  0  0  0  0  0
   -9.4500   22.2960  -31.7800 F   0  0  0  0  0  0  0  0  0  0  0  0
   -7.1570   21.6410  -31.7050 C   0  0  0  0  0  0  0  0  0  0  0  0
   -6.1740   20.6680  -31.9130 C   0  0  0  0  0  0  0  0  0  0  0  0
   -2.2700   17.2300  -33.7340 C   0  0  0  0  0  0  0  0  0  0  0  0
   -1.4750   18.5830  -33.8140 C   0  0  2  0  0  0  0  0  0  0  0  0
   -0.3240   18.8020  -32.7560 C   0  0  2  0  0  0  0  0  0  0  0  0
   -0.2220   17.7960  -31.6820 C   0  0  0  0  0  0  0  0  0  0  0  0
   -0.1210   17.0060  -30.8410 N   0  0  0  0  0  0  0  0  0  0  0  0
   -5.6159   25.3757  -29.4166 H   0  0  0  0  0  0  0  0  0  0  0  0
   -5.5632   26.2726  -30.9720 H   0  0  0  0  0  0  0  0  0  0  0  0
   -5.7149   24.4827  -30.9720 H   0  0  0  0  0  0  0  0  0  0  0  0
   -2.4028   23.8476  -30.0119 H   0  0  0  0  0  0  0  0  0  0  0  0
   -3.9656   23.6461  -29.1572 H   0  0  0  0  0  0  0  0  0  0  0  0
   -5.0535   22.8115  -31.1194 H   0  0  0  0  0  0  0  0  0  0  0  0
   -3.6924   23.3751  -32.1816 H   0  0  0  0  0  0  0  0  0  0  0  0
   -3.7086   21.0372  -30.2272 H   0  0  0  0  0  0  0  0  0  0  0  0
   -3.4746   21.0146  -32.0220 H   0  0  0  0  0  0  0  0  0  0  0  0
   -1.4170   22.6580  -30.9790 H   0  0  0  0  0  0  0  0  0  0  0  0
   -0.2224   22.2082  -32.8371 H   0  0  0  0  0  0  0  0  0  0  0  0
    0.5287   21.0144  -33.9574 H   0  0  0  0  0  0  0  0  0  0  0  0
   -2.2879   21.9915  -33.8148 H   0  0  0  0  0  0  0  0  0  0  0  0
   -1.3806   21.2574  -35.1898 H   0  0  0  0  0  0  0  0  0  0  0  0
   -4.2360   20.7731  -33.5677 H   0  0  0  0  0  0  0  0  0  0  0  0
   -4.3814   15.3809  -32.6771 H   0  0  0  0  0  0  0  0  0  0  0  0
   -8.1612   18.1135  -33.0288 H   0  0  0  0  0  0  0  0  0  0  0  0
   -9.9120   19.8562  -32.6661 H   0  0  0  0  0  0  0  0  0  0  0  0
   -6.8747   22.6369  -31.3330 H   0  0  0  0  0  0  0  0  0  0  0  0
   -5.1178   20.9067  -31.7197 H   0  0  0  0  0  0  0  0  0  0  0  0
   -1.6843   16.5065  -33.1480 H   0  0  0  0  0  0  0  0  0  0  0  0
   -2.4329   16.8669  -34.7595 H   0  0  0  0  0  0  0  0  0  0  0  0
   -0.9710   18.4407  -34.7813 H   0  0  0  0  0  0  0  0  0  0  0  0
    0.6094   18.6457  -33.3167 H   0  0  0  0  0  0  0  0  0  0  0  0
  1  2  1  0
  2  3  1  0
  3  4  1  0
  4  5  1  0
  5  6  1  0
  6  7  1  0
  7  8  2  0
  7  9  1  0
  9 10  1  0
 10 11  1  0
 11 12  1  0
 12 13  2  0
 13 14  1  0
 14 15  2  0
 15 16  1  0
 16 17  2  0
 17 18  1  0
 18 19  1  0
 19 20  2  0
 20 21  1  0
 21 22  2  0
 22 23  1  0
 22 24  1  0
 24 25  2  0
 15 26  1  0
 26 27  1  0
 27 28  1  0
 28 29  1  0
 29 30  3  0
 28  9  1  0
 27 12  1  0
 18 14  1  0
 25 19  1  0
  1 31  1  0
  1 32  1  0
  1 33  1  0
  3 34  1  0
  3 35  1  0
  4 36  1  0
  4 37  1  0
  5 38  1  0
  5 39  1  0
  6 40  1  0
 10 41  1  0
 10 42  1  0
 11 43  1  0
 11 44  1  0
 13 45  1  0
 16 46  1  0
 20 47  1  0
 21 48  1  0
 24 49  1  0
 25 50  1  0
 26 51  1  0
 26 52  1  0
 27 53  1  6
 28 54  1  6
M  END
>  <UniqueID>  (43) 
41

>  <SMILES>  (43) 
COCCCNC(=S)N1CCC2=Cc3c(cnn3-c3ccc(F)cc3)C[C@@H]2[C@@H]1C#N

>  <Energy>  (43) 
123.30896161096804

>  <Genealogy>  (43) 
COCCCNC(=S)N1CCC2=Cc3c(cnn3-c3ccc(F)cc3)C[C@@H]2[C@@H]1C#N (chirality)
COCCCNC(=S)N1CCC2=Cc3c(cnn3-c3ccc(F)cc3)C[C@@H]2[C@@H]1C#N (3D coordinates assigned)
COCCCNC(=S)N1CCC2=Cc3c(cnn3-c3ccc(F)cc3)C[C@@H]2[C@@H]1C#N (nonaromatic ring conformer: 123.30896161096804 kcal/mol)

>  <smiles>  (43) 
COCCCNC(=S)N1CCC2=Cc3c(cnn3-c3ccc(F)cc3)CC2C1C#N

>  <score_type>  (43) 
oracle

>  <origin>  (43) 
adg

>  <m_score__min__energy>  (43) 
-7.9400000000000004

>  <m_primary>  (43) 
energy

$$$$
43:0
     RDKit          3D

 46 49  0  0  0  0  0  0  0  0999 V2000
   -3.4780   16.1350  -34.2620 C   0  0  0  0  0  0  0  0  0  0  0  0
   -4.2460   17.3650  -33.8780 C   0  0  0  0  0  0  0  0  0  0  0  0
   -5.6570   17.3070  -33.7390 C   0  0  0  0  0  0  0  0  0  0  0  0
   -6.3880   18.4430  -33.3480 C   0  0  0  0  0  0  0  0  0  0  0  0
   -5.6700   19.6090  -33.0830 C   0  0  0  0  0  0  0  0  0  0  0  0
   -4.3120   19.6730  -33.2100 C   0  0  0  0  0  0  0  0  0  0  0  0
   -3.5600   18.5690  -33.6010 C   0  0  0  0  0  0  0  0  0  0  0  0
   -3.8670   20.9220  -32.9560 N   0  0  0  0  0  0  0  0  0  0  0  0
   -5.0160   21.5840  -32.6590 C   0  0  0  0  0  0  0  0  0  0  0  0
   -6.1180   20.8170  -32.7150 N   0  0  0  0  0  0  0  0  0  0  0  0
   -7.4710   21.3450  -32.6450 C   0  0  0  0  0  0  0  0  0  0  0  0
   -7.5430   22.5170  -31.6290 C   0  0  2  0  0  0  0  0  0  0  0  0
   -8.7500   23.4050  -31.9660 C   0  0  0  0  0  0  0  0  0  0  0  0
   -6.2970   23.3330  -31.5630 N   0  0  0  0  0  0  0  0  0  0  0  0
   -6.2190   24.4020  -30.5940 C   0  0  0  0  0  0  0  0  0  0  0  0
   -6.8780   24.3290  -29.5210 O   0  0  0  0  0  0  0  0  0  0  0  0
   -5.3460   25.6010  -30.8170 C   0  0  0  0  0  0  0  0  0  0  0  0
   -4.0010   25.2750  -30.4790 O   0  0  0  0  0  0  0  0  0  0  0  0
   -3.6310   24.2240  -29.6270 C   0  0  0  0  0  0  0  0  0  0  0  0
   -2.8520   23.1850  -30.1520 C   0  0  0  0  0  0  0  0  0  0  0  0
   -2.4560   22.1170  -29.3420 C   0  0  0  0  0  0  0  0  0  0  0  0
   -2.8380   22.0770  -27.9990 C   0  0  0  0  0  0  0  0  0  0  0  0
   -3.6160   23.1060  -27.4650 C   0  0  0  0  0  0  0  0  0  0  0  0
   -4.0140   24.1780  -28.2720 C   0  0  0  0  0  0  0  0  0  0  0  0
   -5.1170   23.0460  -32.4050 C   0  0  0  0  0  0  0  0  0  0  0  0
   -3.1497   15.6092  -33.3533 H   0  0  0  0  0  0  0  0  0  0  0  0
   -4.1224   15.4713  -34.8571 H   0  0  0  0  0  0  0  0  0  0  0  0
   -2.5987   16.4226  -34.8571 H   0  0  0  0  0  0  0  0  0  0  0  0
   -6.1849   16.3630  -33.9393 H   0  0  0  0  0  0  0  0  0  0  0  0
   -7.4836   18.4131  -33.2548 H   0  0  0  0  0  0  0  0  0  0  0  0
   -2.4655   18.6318  -33.6916 H   0  0  0  0  0  0  0  0  0  0  0  0
   -7.7701   21.7084  -33.6392 H   0  0  0  0  0  0  0  0  0  0  0  0
   -8.1496   20.5446  -32.3150 H   0  0  0  0  0  0  0  0  0  0  0  0
   -7.6589   22.0707  -30.6303 H   0  0  0  0  0  0  0  0  0  0  0  0
   -9.2214   23.7518  -31.0346 H   0  0  0  0  0  0  0  0  0  0  0  0
   -8.4143   24.2730  -32.5524 H   0  0  0  0  0  0  0  0  0  0  0  0
   -9.4788   22.8261  -32.5524 H   0  0  0  0  0  0  0  0  0  0  0  0
   -5.3967   25.9006  -31.8742 H   0  0  0  0  0  0  0  0  0  0  0  0
   -5.6932   26.4316  -30.1850 H   0  0  0  0  0  0  0  0  0  0  0  0
   -2.5497   23.2098  -31.2094 H   0  0  0  0  0  0  0  0  0  0  0  0
   -1.8425   21.3067  -29.7628 H   0  0  0  0  0  0  0  0  0  0  0  0
   -2.5262   21.2356  -27.3628 H   0  0  0  0  0  0  0  0  0  0  0  0
   -3.9169   23.0741  -26.4074 H   0  0  0  0  0  0  0  0  0  0  0  0
   -4.6272   24.9865  -27.8473 H   0  0  0  0  0  0  0  0  0  0  0  0
   -5.2161   23.5762  -33.3637 H   0  0  0  0  0  0  0  0  0  0  0  0
   -4.2101   23.3850  -31.8828 H   0  0  0  0  0  0  0  0  0  0  0  0
  1  2  1  0
  2  3  2  0
  3  4  1  0
  4  5  2  0
  5  6  1  0
  6  7  2  0
  6  8  1  0
  8  9  2  0
  9 10  1  0
 10 11  1  0
 11 12  1  0
 12 13  1  0
 12 14  1  0
 14 15  1  0
 15 16  2  0
 15 17  1  0
 17 18  1  0
 18 19  1  0
 19 20  2  0
 20 21  1  0
 21 22  2  0
 22 23  1  0
 23 24  2  0
 14 25  1  0
  7  2  1  0
 25  9  1  0
 10  5  1  0
 24 19  1  0
  1 26  1  0
  1 27  1  0
  1 28  1  0
  3 29  1  0
  4 30  1  0
  7 31  1  0
 11 32  1  0
 11 33  1  0
 12 34  1  1
 13 35  1  0
 13 36  1  0
 13 37  1  0
 17 38  1  0
 17 39  1  0
 20 40  1  0
 21 41  1  0
 22 42  1  0
 23 43  1  0
 24 44  1  0
 25 45  1  0
 25 46  1  0
M  END
>  <UniqueID>  (44) 
42

>  <SMILES>  (44) 
Cc1ccc2c(c1)nc1n2C[C@H](C)N(C(=O)COc2ccccc2)C1

>  <Energy>  (44) 
89.21804668798934

>  <Genealogy>  (44) 
Cc1ccc2c(c1)nc1n2C[C@H](C)N(C(=O)COc2ccccc2)C1 (chirality)
Cc1ccc2c(c1)nc1n2C[C@H](C)N(C(=O)COc2ccccc2)C1 (3D coordinates assigned)
Cc1ccc2c(c1)nc1n2C[C@H](C)N(C(=O)COc2ccccc2)C1 (nonaromatic ring conformer: 89.21804668798934 kcal/mol)

>  <smiles>  (44) 
Cc1ccc2c(c1)nc1n2CC(C)N(C(=O)COc2ccccc2)C1

>  <score_type>  (44) 
oracle

>  <origin>  (44) 
adg

>  <m_score__min__energy>  (44) 
-9.4199999999999999

>  <m_primary>  (44) 
energy

$$$$
44:0
     RDKit          3D

 42 44  0  0  0  0  0  0  0  0999 V2000
   -8.7350   18.5530  -31.2180 C   0  0  0  0  0  0  0  0  0  0  0  0
   -7.8330   19.4770  -31.9220 N   0  0  0  0  0  0  0  0  0  0  0  0
   -8.5060   20.7500  -32.2260 C   0  0  0  0  0  0  0  0  0  0  0  0
   -7.1880   18.8690  -33.1080 C   0  0  0  0  0  0  0  0  0  0  0  0
   -5.8440   19.5130  -33.5020 C   0  0  0  0  0  0  0  0  0  0  0  0
   -5.4080   20.4450  -32.4640 N   0  0  0  0  0  0  0  0  0  0  0  0
   -4.3130   21.3560  -32.6580 C   0  0  0  0  0  0  0  0  0  0  0  0
   -3.7590   21.4320  -33.7900 O   0  0  0  0  0  0  0  0  0  0  0  0
   -3.8300   22.2220  -31.5560 C   0  0  0  0  0  0  0  0  0  0  0  0
   -4.6500   23.2180  -30.9980 C   0  0  0  0  0  0  0  0  0  0  0  0
   -4.1820   24.0220  -29.9550 C   0  0  0  0  0  0  0  0  0  0  0  0
   -2.8850   23.8460  -29.4410 C   0  0  0  0  0  0  0  0  0  0  0  0
   -2.3990   24.7050  -28.3370 C   0  0  0  0  0  0  0  0  0  0  0  0
   -1.4970   25.7040  -28.5150 N   0  0  0  0  0  0  0  0  0  0  0  0
   -1.2190   26.3360  -27.3470 C   0  0  0  0  0  0  0  0  0  0  0  0
   -0.3280   27.4040  -27.2200 C   0  0  0  0  0  0  0  0  0  0  0  0
   -0.1300   27.9700  -25.9480 C   0  0  0  0  0  0  0  0  0  0  0  0
   -0.8210   27.4680  -24.8270 C   0  0  0  0  0  0  0  0  0  0  0  0
   -1.7150   26.3930  -24.9680 C   0  0  0  0  0  0  0  0  0  0  0  0
   -1.8910   25.8510  -26.2370 C   0  0  0  0  0  0  0  0  0  0  0  0
   -2.8790   24.5810  -26.7110 S   0  0  0  0  0  0  0  0  0  0  0  0
   -2.0700   22.8410  -29.9910 C   0  0  0  0  0  0  0  0  0  0  0  0
   -2.5400   22.0360  -31.0330 C   0  0  0  0  0  0  0  0  0  0  0  0
   -8.6131   18.6779  -30.1319 H   0  0  0  0  0  0  0  0  0  0  0  0
   -9.7760   18.7724  -31.4978 H   0  0  0  0  0  0  0  0  0  0  0  0
   -8.4906   17.5176  -31.4978 H   0  0  0  0  0  0  0  0  0  0  0  0
   -8.7738   21.2565  -31.2870 H   0  0  0  0  0  0  0  0  0  0  0  0
   -7.8296   21.3922  -32.8091 H   0  0  0  0  0  0  0  0  0  0  0  0
   -9.4176   20.5527  -32.8091 H   0  0  0  0  0  0  0  0  0  0  0  0
   -7.0102   17.8045  -32.8951 H   0  0  0  0  0  0  0  0  0  0  0  0
   -7.8726   19.0285  -33.9541 H   0  0  0  0  0  0  0  0  0  0  0  0
   -5.0859   18.7255  -33.6251 H   0  0  0  0  0  0  0  0  0  0  0  0
   -5.9719   20.0618  -34.4467 H   0  0  0  0  0  0  0  0  0  0  0  0
   -5.9400   20.4490  -31.5650 H   0  0  0  0  0  0  0  0  0  0  0  0
   -5.6688   23.3659  -31.3856 H   0  0  0  0  0  0  0  0  0  0  0  0
   -4.8346   24.8000  -29.5321 H   0  0  0  0  0  0  0  0  0  0  0  0
    0.2082   27.7946  -28.0975 H   0  0  0  0  0  0  0  0  0  0  0  0
    0.5692   28.8105  -25.8271 H   0  0  0  0  0  0  0  0  0  0  0  0
   -0.6598   27.9197  -23.8371 H   0  0  0  0  0  0  0  0  0  0  0  0
   -2.2596   25.9919  -24.1005 H   0  0  0  0  0  0  0  0  0  0  0  0
   -1.0542   22.6868  -29.5982 H   0  0  0  0  0  0  0  0  0  0  0  0
   -1.8928   21.2490  -31.4474 H   0  0  0  0  0  0  0  0  0  0  0  0
  1  2  1  0
  2  3  1  0
  2  4  1  0
  4  5  1  0
  5  6  1  0
  6  7  1  0
  7  8  2  0
  7  9  1  0
  9 10  2  0
 10 11  1  0
 11 12  2  0
 12 13  1  0
 13 14  2  0
 14 15  1  0
 15 16  2  0
 16 17  1  0
 17 18  2  0
 18 19  1  0
 19 20  2  0
 20 21  1  0
 12 22  1  0
 22 23  2  0
 23  9  1  0
 21 13  1  0
 20 15  1  0
  1 24  1  0
  1 25  1  0
  1 26  1  0
  3 27  1  0
  3 28  1  0
  3 29  1  0
  4 30  1  0
  4 31  1  0
  5 32  1  0
  5 33  1  0
  6 34  1  0
 10 35  1  0
 11 36  1  0
 16 37  1  0
 17 38  1  0
 18 39  1  0
 19 40  1  0
 22 41  1  0
 23 42  1  0
M  END
>  <UniqueID>  (45) 
43

>  <SMILES>  (45) 
CN(C)CCNC(=O)c1ccc(-c2nc3ccccc3s2)cc1

>  <Energy>  (45) 
81.67698057962096

>  <Genealogy>  (45) 
CN(C)CCNC(=O)c1ccc(-c2nc3ccccc3s2)cc1 (3D coordinates assigned)
CN(C)CCNC(=O)c1ccc(-c2nc3ccccc3s2)cc1 (optimized conformer: 81.67698057962096 kcal/mol)

>  <smiles>  (45) 
CN(C)CCNC(=O)c1ccc(-c2nc3ccccc3s2)cc1

>  <score_type>  (45) 
oracle

>  <origin>  (45) 
adg

>  <m_score__min__energy>  (45) 
-7.3399999999999999

>  <m_primary>  (45) 
energy

$$$$
45:0
     RDKit          3D

 34 35  0  0  0  0  0  0  0  0999 V2000
   -3.5630   22.2680  -31.7530 C   0  0  0  0  0  0  0  0  0  0  0  0
   -3.4080   23.1450  -30.5220 C   0  0  0  0  0  0  0  0  0  0  0  0
   -3.7970   24.4780  -30.8350 O   0  0  0  0  0  0  0  0  0  0  0  0
   -5.1190   24.9250  -30.7320 C   0  0  0  0  0  0  0  0  0  0  0  0
   -5.3560   26.1400  -30.4800 O   0  0  0  0  0  0  0  0  0  0  0  0
   -6.2360   23.9740  -30.9170 C   0  0  0  0  0  0  0  0  0  0  0  0
   -6.8650   23.8370  -32.1670 C   0  0  0  0  0  0  0  0  0  0  0  0
   -7.9190   22.9350  -32.3360 C   0  0  0  0  0  0  0  0  0  0  0  0
   -8.3680   22.1550  -31.2550 C   0  0  0  0  0  0  0  0  0  0  0  0
   -9.4270   21.2380  -31.3680 O   0  0  0  0  0  0  0  0  0  0  0  0
   -9.4860   20.1550  -32.2970 C   0  0  0  0  0  0  0  0  0  0  0  0
   -8.1250   19.5410  -32.4900 C   0  0  0  0  0  0  0  0  0  0  0  0
   -7.7130   18.4460  -31.7170 C   0  0  0  0  0  0  0  0  0  0  0  0
   -6.4520   17.8830  -31.9190 C   0  0  0  0  0  0  0  0  0  0  0  0
   -5.6150   18.4160  -32.9020 C   0  0  0  0  0  0  0  0  0  0  0  0
   -4.0270   17.7290  -33.1780 Cl  0  0  0  0  0  0  0  0  0  0  0  0
   -6.0330   19.4700  -33.6540 N   0  0  0  0  0  0  0  0  0  0  0  0
   -7.2570   20.0350  -33.4750 C   0  0  0  0  0  0  0  0  0  0  0  0
   -7.7390   22.2880  -30.0130 C   0  0  0  0  0  0  0  0  0  0  0  0
   -6.6840   23.1890  -29.8410 C   0  0  0  0  0  0  0  0  0  0  0  0
   -3.7466   21.2289  -31.4422 H   0  0  0  0  0  0  0  0  0  0  0  0
   -4.4117   22.6264  -32.3540 H   0  0  0  0  0  0  0  0  0  0  0  0
   -2.6428   22.3138  -32.3540 H   0  0  0  0  0  0  0  0  0  0  0  0
   -4.0455   22.7576  -29.7136 H   0  0  0  0  0  0  0  0  0  0  0  0
   -2.3571   23.1372  -30.1971 H   0  0  0  0  0  0  0  0  0  0  0  0
   -6.5248   24.4445  -33.0186 H   0  0  0  0  0  0  0  0  0  0  0  0
   -8.4002   22.8344  -33.3200 H   0  0  0  0  0  0  0  0  0  0  0  0
  -10.1762   19.3888  -31.9142 H   0  0  0  0  0  0  0  0  0  0  0  0
   -9.8395   20.5398  -33.2650 H   0  0  0  0  0  0  0  0  0  0  0  0
   -8.3841   18.0305  -30.9509 H   0  0  0  0  0  0  0  0  0  0  0  0
   -6.1208   17.0286  -31.3105 H   0  0  0  0  0  0  0  0  0  0  0  0
   -7.5673   20.8820  -34.1045 H   0  0  0  0  0  0  0  0  0  0  0  0
   -8.0778   21.6776  -29.1629 H   0  0  0  0  0  0  0  0  0  0  0  0
   -6.2015   23.2841  -28.8571 H   0  0  0  0  0  0  0  0  0  0  0  0
  1  2  1  0
  2  3  1  0
  3  4  1  0
  4  5  2  0
  4  6  1  0
  6  7  2  0
  7  8  1  0
  8  9  2  0
  9 10  1  0
 10 11  1  0
 11 12  1  0
 12 13  2  0
 13 14  1  0
 14 15  2  0
 15 16  1  0
 15 17  1  0
 17 18  2  0
  9 19  1  0
 19 20  2  0
 20  6  1  0
 18 12  1  0
  1 21  1  0
  1 22  1  0
  1 23  1  0
  2 24  1  0
  2 25  1  0
  7 26  1  0
  8 27  1  0
 11 28  1  0
 11 29  1  0
 13 30  1  0
 14 31  1  0
 18 32  1  0
 19 33  1  0
 20 34  1  0
M  END
>  <UniqueID>  (46) 
44

>  <SMILES>  (46) 
CCOC(=O)c1ccc(OCc2ccc(Cl)nc2)cc1

>  <Energy>  (46) 
30.25422186807078

>  <Genealogy>  (46) 
CCOC(=O)c1ccc(OCc2ccc(Cl)nc2)cc1 (3D coordinates assigned)
CCOC(=O)c1ccc(OCc2ccc(Cl)nc2)cc1 (optimized conformer: 30.25422186807078 kcal/mol)

>  <smiles>  (46) 
CCOC(=O)c1ccc(OCc2ccc(Cl)nc2)cc1

>  <score_type>  (46) 
oracle

>  <origin>  (46) 
adg

>  <m_score__min__energy>  (46) 
-7.8700000000000001

>  <m_primary>  (46) 
energy

$$$$
46:0
     RDKit          3D

 30 31  0  0  0  0  0  0  0  0999 V2000
   -4.1670   22.3560  -32.2160 C   0  0  0  0  0  0  0  0  0  0  0  0
   -5.1240   23.3240  -31.6730 N   0  0  0  0  0  0  0  0  0  0  0  0
   -6.4100   23.5320  -32.3490 C   0  0  0  0  0  0  0  0  0  0  0  0
   -7.3350   22.3810  -32.0600 C   0  0  0  0  0  0  0  0  0  0  0  0
   -8.5830   22.6160  -31.4590 C   0  0  0  0  0  0  0  0  0  0  0  0
   -9.4620   21.5550  -31.2230 C   0  0  0  0  0  0  0  0  0  0  0  0
   -9.1060   20.2550  -31.5920 C   0  0  0  0  0  0  0  0  0  0  0  0
   -7.8690   20.0120  -32.2020 C   0  0  0  0  0  0  0  0  0  0  0  0
   -7.5070   18.6730  -32.5900 C   0  0  0  0  0  0  0  0  0  0  0  0
   -7.2180   17.5980  -32.9030 N   0  0  0  0  0  0  0  0  0  0  0  0
   -6.9870   21.0740  -32.4390 C   0  0  0  0  0  0  0  0  0  0  0  0
   -4.6800   24.2400  -30.6560 C   0  0  0  0  0  0  0  0  0  0  0  0
   -4.6470   25.4760  -30.9040 O   0  0  0  0  0  0  0  0  0  0  0  0
   -4.2480   23.7590  -29.3290 C   0  0  0  0  0  0  0  0  0  0  0  0
   -3.7970   22.4600  -29.1060 C   0  0  0  0  0  0  0  0  0  0  0  0
   -3.4350   22.3180  -27.4690 S   0  0  0  0  0  0  0  0  0  0  0  0
   -3.8740   23.8970  -27.1030 C   0  0  0  0  0  0  0  0  0  0  0  0
   -4.2950   24.5390  -28.2120 N   0  0  0  0  0  0  0  0  0  0  0  0
   -3.6574   21.8406  -31.3886 H   0  0  0  0  0  0  0  0  0  0  0  0
   -4.7013   21.6190  -32.8335 H   0  0  0  0  0  0  0  0  0  0  0  0
   -3.4239   22.8819  -32.8335 H   0  0  0  0  0  0  0  0  0  0  0  0
   -6.8654   24.4653  -31.9864 H   0  0  0  0  0  0  0  0  0  0  0  0
   -6.2415   23.5963  -33.4341 H   0  0  0  0  0  0  0  0  0  0  0  0
   -8.8695   23.6388  -31.1731 H   0  0  0  0  0  0  0  0  0  0  0  0
  -10.4352   21.7436  -30.7462 H   0  0  0  0  0  0  0  0  0  0  0  0
   -9.7984   19.4214  -31.4031 H   0  0  0  0  0  0  0  0  0  0  0  0
   -6.0181   20.8837  -32.9238 H   0  0  0  0  0  0  0  0  0  0  0  0
   -3.6957   21.6692  -29.8639 H   0  0  0  0  0  0  0  0  0  0  0  0
   -3.8251   24.3449  -26.0995 H   0  0  0  0  0  0  0  0  0  0  0  0
   -4.6400   25.5250  -28.1980 H   0  0  0  0  0  0  0  0  0  0  0  0
  1  2  1  0
  2  3  1  0
  3  4  1  0
  4  5  2  0
  5  6  1  0
  6  7  2  0
  7  8  1  0
  8  9  1  0
  9 10  3  0
  8 11  2  0
  2 12  1  0
 12 13  2  0
 12 14  1  0
 14 15  2  0
 15 16  1  0
 16 17  1  0
 17 18  2  0
 11  4  1  0
 18 14  1  0
  1 19  1  0
  1 20  1  0
  1 21  1  0
  3 22  1  0
  3 23  1  0
  5 24  1  0
  6 25  1  0
  7 26  1  0
 11 27  1  0
 15 28  1  0
 17 29  1  0
 18 30  1  0
M  CHG  1  18   1
M  END
>  <UniqueID>  (47) 
45

>  <SMILES>  (47) 
CN(Cc1cccc(C#N)c1)C(=O)c1csc[nH+]1

>  <Energy>  (47) 
59.37355758869602

>  <Genealogy>  (47) 
CN(Cc1cccc(C#N)c1)C(=O)c1csc[nH+]1 (protonated)
CN(Cc1cccc(C#N)c1)C(=O)c1csc[nH+]1 (3D coordinates assigned)
CN(Cc1cccc(C#N)c1)C(=O)c1csc[nH+]1 (optimized conformer: 59.37355758869602 kcal/mol)

>  <smiles>  (47) 
CN(Cc1cccc(C#N)c1)C(=O)c1cscn1

>  <score_type>  (47) 
oracle

>  <origin>  (47) 
adg

>  <m_score__min__energy>  (47) 
-6.5899999999999999

>  <m_primary>  (47) 
energy

$$$$
47:0
     RDKit          3D

 45 47  0  0  0  0  0  0  0  0999 V2000
   -0.8470   26.4190  -23.9760 C   0  0  0  0  0  0  0  0  0  0  0  0
   -0.7290   26.6550  -25.3750 O   0  0  0  0  0  0  0  0  0  0  0  0
   -1.3770   25.8990  -26.3630 C   0  0  0  0  0  0  0  0  0  0  0  0
   -0.8400   25.7230  -27.6520 C   0  0  0  0  0  0  0  0  0  0  0  0
   -1.5220   24.9560  -28.6020 C   0  0  0  0  0  0  0  0  0  0  0  0
   -2.7420   24.3410  -28.2750 C   0  0  0  0  0  0  0  0  0  0  0  0
   -3.4790   23.5700  -29.2400 N   0  0  0  0  0  0  0  0  0  0  0  0
   -4.0080   24.1070  -30.4660 C   0  0  0  0  0  0  0  0  0  0  0  0
   -3.8610   25.3260  -30.7470 O   0  0  0  0  0  0  0  0  0  0  0  0
   -4.7380   23.2770  -31.3750 N   0  0  0  0  0  0  0  0  0  0  0  0
   -4.2440   22.0880  -32.0070 C   0  0  0  0  0  0  0  0  0  0  0  0
   -2.8680   21.9070  -32.2170 C   0  0  0  0  0  0  0  0  0  0  0  0
   -2.4040   20.7970  -32.9200 C   0  0  0  0  0  0  0  0  0  0  0  0
   -3.3220   19.8830  -33.4330 C   0  0  0  0  0  0  0  0  0  0  0  0
   -4.6520   20.0750  -33.2400 N   0  0  0  0  0  0  0  0  0  0  0  0
   -5.1420   21.1400  -32.5430 C   0  0  0  0  0  0  0  0  0  0  0  0
   -6.5680   21.2710  -32.3790 N   0  0  0  0  0  0  0  0  0  0  0  0
   -7.3610   20.0680  -32.0830 C   0  0  0  0  0  0  0  0  0  0  0  0
   -8.8560   20.3310  -32.2940 C   0  0  0  0  0  0  0  0  0  0  0  0
   -9.3540   21.5340  -31.4730 C   0  0  0  0  0  0  0  0  0  0  0  0
   -8.2990   22.6440  -31.2920 C   0  0  0  0  0  0  0  0  0  0  0  0
   -7.2080   22.5960  -32.3670 C   0  0  0  0  0  0  0  0  0  0  0  0
   -3.2860   24.5390  -26.9980 C   0  0  0  0  0  0  0  0  0  0  0  0
   -2.6020   25.3040  -26.0480 C   0  0  0  0  0  0  0  0  0  0  0  0
   -0.4216   27.2698  -23.4235 H   0  0  0  0  0  0  0  0  0  0  0  0
   -1.9086   26.3041  -23.7118 H   0  0  0  0  0  0  0  0  0  0  0  0
   -0.3019   25.5008  -23.7118 H   0  0  0  0  0  0  0  0  0  0  0  0
    0.1206   26.1909  -27.9134 H   0  0  0  0  0  0  0  0  0  0  0  0
   -1.1008   24.8336  -29.6108 H   0  0  0  0  0  0  0  0  0  0  0  0
   -3.5740   22.5460  -29.0610 H   0  0  0  0  0  0  0  0  0  0  0  0
   -2.1526   22.6448  -31.8248 H   0  0  0  0  0  0  0  0  0  0  0  0
   -1.3248   20.6440  -33.0683 H   0  0  0  0  0  0  0  0  0  0  0  0
   -2.9690   19.0055  -33.9946 H   0  0  0  0  0  0  0  0  0  0  0  0
   -7.0414   19.2533  -32.7494 H   0  0  0  0  0  0  0  0  0  0  0  0
   -7.1986   19.7909  -31.0309 H   0  0  0  0  0  0  0  0  0  0  0  0
   -9.0337   20.5317  -33.3608 H   0  0  0  0  0  0  0  0  0  0  0  0
   -9.4072   19.4403  -31.9582 H   0  0  0  0  0  0  0  0  0  0  0  0
  -10.2270   21.9654  -31.9846 H   0  0  0  0  0  0  0  0  0  0  0  0
   -9.5980   21.1573  -30.4687 H   0  0  0  0  0  0  0  0  0  0  0  0
   -8.8021   23.6209  -31.3431 H   0  0  0  0  0  0  0  0  0  0  0  0
   -7.8147   22.4896  -30.3165 H   0  0  0  0  0  0  0  0  0  0  0  0
   -7.6583   22.7915  -33.3514 H   0  0  0  0  0  0  0  0  0  0  0  0
   -6.4491   23.3604  -32.1442 H   0  0  0  0  0  0  0  0  0  0  0  0
   -4.2569   24.0898  -26.7418 H   0  0  0  0  0  0  0  0  0  0  0  0
   -3.0316   25.4387  -25.0444 H   0  0  0  0  0  0  0  0  0  0  0  0
  1  2  1  0
  2  3  1  0
  3  4  2  0
  4  5  1  0
  5  6  2  0
  6  7  1  0
  7  8  1  0
  8  9  2  0
  8 10  1  0
 10 11  1  0
 11 12  2  0
 12 13  1  0
 13 14  2  0
 14 15  1  0
 15 16  2  0
 16 17  1  0
 17 18  1  0
 18 19  1  0
 19 20  1  0
 20 21  1  0
 21 22  1  0
  6 23  1  0
 23 24  2  0
 24  3  1  0
 16 11  1  0
 22 17  1  0
  1 25  1  0
  1 26  1  0
  1 27  1  0
  4 28  1  0
  5 29  1  0
  7 30  1  0
 12 31  1  0
 13 32  1  0
 14 33  1  0
 18 34  1  0
 18 35  1  0
 19 36  1  0
 19 37  1  0
 20 38  1  0
 20 39  1  0
 21 40  1  0
 21 41  1  0
 22 42  1  0
 22 43  1  0
 23 44  1  0
 24 45  1  0
M  CHG  1  10  -1
M  END
>  <UniqueID>  (48) 
46

>  <SMILES>  (48) 
COc1ccc(NC(=O)[N-]c2cccnc2N2CCCCC2)cc1

>  <Energy>  (48) 
59.183550304917496

>  <Genealogy>  (48) 
COc1ccc(NC(=O)[N-]c2cccnc2N2CCCCC2)cc1 (protonated)
COc1ccc(NC(=O)[N-]c2cccnc2N2CCCCC2)cc1 (3D coordinates assigned)
COc1ccc(NC(=O)[N-]c2cccnc2N2CCCCC2)cc1 (nonaromatic ring conformer: 59.183550304917496 kcal/mol)

>  <smiles>  (48) 
COc1ccc(NC(=O)Nc2cccnc2N2CCCCC2)cc1

>  <score_type>  (48) 
oracle

>  <origin>  (48) 
adg

>  <m_score__min__energy>  (48) 
-9.1099999999999994

>  <m_primary>  (48) 
energy

$$$$
