0:0
     RDKit          3D

 59 62  0  0  0  0  0  0  0  0999 V2000
   -6.1090   25.4240  -29.4110 C   0  0  0  0  0  0  0  0  0  0  0  0
   -5.1450   25.5070  -30.6050 C   0  0  0  0  0  0  0  0  0  0  0  0
   -3.9210   24.6920  -30.4390 N   0  0  0  0  0  0  0  0  0  0  0  0
   -3.5000   24.5750  -29.0260 C   0  0  0  0  0  0  0  0  0  0  0  0
   -3.4410   23.1120  -28.5920 C   0  0  0  0  0  0  0  0  0  0  0  0
   -3.9950   23.3880  -31.1430 C   0  0  0  0  0  0  0  0  0  0  0  0
   -5.4600   22.9800  -31.2980 C   0  0  0  0  0  0  0  0  0  0  0  0
   -5.6840   22.3220  -32.5840 N   0  0  0  0  0  0  0  0  0  0  0  0
   -5.6270   20.8930  -32.6840 C   0  0  0  0  0  0  0  0  0  0  0  0
   -6.7780   20.1250  -32.4520 C   0  0  0  0  0  0  0  0  0  0  0  0
   -8.0150   20.7440  -32.1740 C   0  0  0  0  0  0  0  0  0  0  0  0
   -9.1650   19.9830  -31.9900 C   0  0  0  0  0  0  0  0  0  0  0  0
   -9.1080   18.5980  -32.0960 C   0  0  0  0  0  0  0  0  0  0  0  0
   -7.8940   17.9630  -32.3630 C   0  0  0  0  0  0  0  0  0  0  0  0
   -6.6960   18.7090  -32.5140 C   0  0  0  0  0  0  0  0  0  0  0  0
   -5.4770   18.0930  -32.7370 N   0  0  0  0  0  0  0  0  0  0  0  0
   -5.3330   16.6370  -32.5130 C   0  0  0  0  0  0  0  0  0  0  0  0
   -4.3870   18.8430  -33.1410 C   0  0  0  0  0  0  0  0  0  0  0  0
   -3.2050   18.2350  -33.6340 C   0  0  0  0  0  0  0  0  0  0  0  0
   -2.0840   18.9990  -33.9840 C   0  0  0  0  0  0  0  0  0  0  0  0
   -0.9150   18.3790  -34.4550 C   0  0  0  0  0  0  0  0  0  0  0  0
    0.2080   19.1400  -34.8000 C   0  0  0  0  0  0  0  0  0  0  0  0
    1.3490   18.4680  -35.2620 O   0  0  0  0  0  0  0  0  0  0  0  0
    1.5080   17.9690  -36.5860 C   0  0  0  0  0  0  0  0  0  0  0  0
    0.1570   20.5410  -34.6730 C   0  0  0  0  0  0  0  0  0  0  0  0
   -1.0040   21.1660  -34.2110 C   0  0  0  0  0  0  0  0  0  0  0  0
   -2.1300   20.4020  -33.8660 C   0  0  0  0  0  0  0  0  0  0  0  0
   -3.3010   21.0220  -33.4220 C   0  0  0  0  0  0  0  0  0  0  0  0
   -4.4380   20.2610  -33.0800 C   0  0  0  0  0  0  0  0  0  0  0  0
   -5.5362   25.4733  -28.4732 H   0  0  0  0  0  0  0  0  0  0  0  0
   -6.8174   26.2645  -29.4526 H   0  0  0  0  0  0  0  0  0  0  0  0
   -6.6633   24.4748  -29.4526 H   0  0  0  0  0  0  0  0  0  0  0  0
   -5.6748   25.1588  -31.5039 H   0  0  0  0  0  0  0  0  0  0  0  0
   -4.8241   26.5560  -30.6868 H   0  0  0  0  0  0  0  0  0  0  0  0
   -2.5033   25.0254  -28.9091 H   0  0  0  0  0  0  0  0  0  0  0  0
   -4.2353   25.0979  -28.3967 H   0  0  0  0  0  0  0  0  0  0  0  0
   -3.4387   23.0552  -27.4935 H   0  0  0  0  0  0  0  0  0  0  0  0
   -4.3183   22.5773  -28.9850 H   0  0  0  0  0  0  0  0  0  0  0  0
   -2.5235   22.6497  -28.9850 H   0  0  0  0  0  0  0  0  0  0  0  0
   -3.5321   23.4801  -32.1366 H   0  0  0  0  0  0  0  0  0  0  0  0
   -3.4593   22.6239  -30.5606 H   0  0  0  0  0  0  0  0  0  0  0  0
   -5.7288   22.2871  -30.4871 H   0  0  0  0  0  0  0  0  0  0  0  0
   -6.0840   23.8848  -31.2523 H   0  0  0  0  0  0  0  0  0  0  0  0
   -5.8400   22.8780  -33.4550 H   0  0  0  0  0  0  0  0  0  0  0  0
   -8.0708   21.8402  -32.1020 H   0  0  0  0  0  0  0  0  0  0  0  0
  -10.1203   20.4776  -31.7604 H   0  0  0  0  0  0  0  0  0  0  0  0
  -10.0228   18.0005  -31.9690 H   0  0  0  0  0  0  0  0  0  0  0  0
   -7.8653   16.8675  -32.4579 H   0  0  0  0  0  0  0  0  0  0  0  0
   -5.3128   16.4325  -31.4324 H   0  0  0  0  0  0  0  0  0  0  0  0
   -6.1834   16.1098  -32.9701 H   0  0  0  0  0  0  0  0  0  0  0  0
   -4.3958   16.2866  -32.9701 H   0  0  0  0  0  0  0  0  0  0  0  0
   -3.1673   17.1412  -33.7440 H   0  0  0  0  0  0  0  0  0  0  0  0
   -0.8817   17.2840  -34.5538 H   0  0  0  0  0  0  0  0  0  0  0  0
    1.8417   16.9216  -36.5455 H   0  0  0  0  0  0  0  0  0  0  0  0
    0.5468   18.0273  -37.1177 H   0  0  0  0  0  0  0  0  0  0  0  0
    2.2583   18.5726  -37.1177 H   0  0  0  0  0  0  0  0  0  0  0  0
    1.0358   21.1468  -34.9389 H   0  0  0  0  0  0  0  0  0  0  0  0
   -1.0359   22.2615  -34.1172 H   0  0  0  0  0  0  0  0  0  0  0  0
   -3.3364   22.1182  -33.3381 H   0  0  0  0  0  0  0  0  0  0  0  0
  1  2  1  0
  2  3  1  0
  3  4  1  0
  4  5  1  0
  3  6  1  0
  6  7  1  0
  7  8  1  0
  8  9  1  0
  9 10  2  0
 10 11  1  0
 11 12  2  0
 12 13  1  0
 13 14  2  0
 14 15  1  0
 15 16  2  0
 16 17  1  0
 16 18  1  0
 18 19  2  0
 19 20  1  0
 20 21  2  0
 21 22  1  0
 22 23  1  0
 23 24  1  0
 22 25  2  0
 25 26  1  0
 26 27  2  0
 27 28  1  0
 28 29  2  0
 29  9  1  0
 15 10  1  0
 29 18  1  0
 27 20  1  0
  1 30  1  0
  1 31  1  0
  1 32  1  0
  2 33  1  0
  2 34  1  0
  4 35  1  0
  4 36  1  0
  5 37  1  0
  5 38  1  0
  5 39  1  0
  6 40  1  0
  6 41  1  0
  7 42  1  0
  7 43  1  0
  8 44  1  0
 11 45  1  0
 12 46  1  0
 13 47  1  0
 14 48  1  0
 17 49  1  0
 17 50  1  0
 17 51  1  0
 19 52  1  0
 21 53  1  0
 24 54  1  0
 24 55  1  0
 24 56  1  0
 25 57  1  0
 26 58  1  0
 28 59  1  0
M  CHG  1  16   1
M  END
>  <UniqueID>  (1) 
1

>  <SMILES>  (1) 
CCN(CC)CCNc1c2ccccc2[n+](C)c2cc3cc(OC)ccc3cc12

>  <Energy>  (1) 
90.58889546961579

>  <Genealogy>  (1) 
CCN(CC)CCNc1c2ccccc2[n+](C)c2cc3cc(OC)ccc3cc12 (3D coordinates assigned)
CCN(CC)CCNc1c2ccccc2[n+](C)c2cc3cc(OC)ccc3cc12 (optimized conformer: 90.58889546961579 kcal/mol)

>  <smiles>  (1) 
CCN(CC)CCNc1c2ccccc2[n+](C)c2cc3cc(OC)ccc3cc12

>  <score_type>  (1) 
oracle

>  <origin>  (1) 
adg

>  <m_score__min__energy>  (1) 
-9.2599999999999998

>  <m_primary>  (1) 
energy

$$$$
1:0
     RDKit          3D

 44 46  0  0  0  0  0  0  0  0999 V2000
   -6.9680   17.9720  -31.3040 C   0  0  0  0  0  0  0  0  0  0  0  0
   -8.3320   18.1290  -31.9820 C   0  0  0  0  0  0  0  0  0  0  0  0
   -8.4600   19.4150  -32.6900 N   0  0  0  0  0  0  0  0  0  0  0  0
   -8.8680   20.5140  -31.8000 C   0  0  0  0  0  0  0  0  0  0  0  0
   -7.8050   21.6210  -31.8070 C   0  0  0  0  0  0  0  0  0  0  0  0
   -6.9810   21.6020  -33.0310 N   0  0  0  0  0  0  0  0  0  0  0  0
   -5.5610   21.4520  -32.7310 C   0  0  0  0  0  0  0  0  0  0  0  0
   -4.8390   20.2860  -33.1220 C   0  0  0  0  0  0  0  0  0  0  0  0
   -5.4480   19.2160  -33.8310 C   0  0  0  0  0  0  0  0  0  0  0  0
   -4.7450   18.0540  -34.1310 C   0  0  0  0  0  0  0  0  0  0  0  0
   -3.4260   17.9130  -33.7320 C   0  0  0  0  0  0  0  0  0  0  0  0
   -2.7870   18.9550  -33.0690 C   0  0  0  0  0  0  0  0  0  0  0  0
   -3.4560   20.1760  -32.7950 C   0  0  0  0  0  0  0  0  0  0  0  0
   -2.7890   21.2350  -32.2130 N   0  0  0  0  0  0  0  0  0  0  0  0
   -1.3080   21.2480  -32.1860 C   0  0  0  0  0  0  0  0  0  0  0  0
   -3.4940   22.3000  -31.6960 C   0  0  0  0  0  0  0  0  0  0  0  0
   -2.8680   23.2530  -30.8510 C   0  0  0  0  0  0  0  0  0  0  0  0
   -3.5550   24.3720  -30.3880 C   0  0  0  0  0  0  0  0  0  0  0  0
   -2.9130   25.2940  -29.5700 O   0  0  0  0  0  0  0  0  0  0  0  0
   -4.8810   24.5670  -30.7440 C   0  0  0  0  0  0  0  0  0  0  0  0
   -5.5390   23.6260  -31.5300 C   0  0  0  0  0  0  0  0  0  0  0  0
   -4.8780   22.4580  -31.9900 C   0  0  0  0  0  0  0  0  0  0  0  0
   -7.0976   17.9869  -30.2118 H   0  0  0  0  0  0  0  0  0  0  0  0
   -6.5160   17.0159  -31.6066 H   0  0  0  0  0  0  0  0  0  0  0  0
   -6.3106   18.8004  -31.6066 H   0  0  0  0  0  0  0  0  0  0  0  0
   -8.4630   17.3118  -32.7065 H   0  0  0  0  0  0  0  0  0  0  0  0
   -9.1030   18.0983  -31.1980 H   0  0  0  0  0  0  0  0  0  0  0  0
   -9.1590   19.3220  -33.4650 H   0  0  0  0  0  0  0  0  0  0  0  0
   -9.8261   20.9274  -32.1481 H   0  0  0  0  0  0  0  0  0  0  0  0
   -8.9773   20.1265  -30.7763 H   0  0  0  0  0  0  0  0  0  0  0  0
   -8.3097   22.5958  -31.7360 H   0  0  0  0  0  0  0  0  0  0  0  0
   -7.1368   21.4497  -30.9502 H   0  0  0  0  0  0  0  0  0  0  0  0
   -7.2970   20.8190  -33.6450 H   0  0  0  0  0  0  0  0  0  0  0  0
   -7.1980   22.4290  -33.6240 H   0  0  0  0  0  0  0  0  0  0  0  0
   -6.4969   19.3084  -34.1492 H   0  0  0  0  0  0  0  0  0  0  0  0
   -5.2385   17.2436  -34.6875 H   0  0  0  0  0  0  0  0  0  0  0  0
   -2.8848   16.9780  -33.9393 H   0  0  0  0  0  0  0  0  0  0  0  0
   -1.7416   18.8302  -32.7504 H   0  0  0  0  0  0  0  0  0  0  0  0
   -0.9603   21.2511  -31.1424 H   0  0  0  0  0  0  0  0  0  0  0  0
   -0.9241   20.3532  -32.6978 H   0  0  0  0  0  0  0  0  0  0  0  0
   -0.9398   22.1494  -32.6978 H   0  0  0  0  0  0  0  0  0  0  0  0
   -1.8188   23.1046  -30.5559 H   0  0  0  0  0  0  0  0  0  0  0  0
   -5.4138   25.4674  -30.4043 H   0  0  0  0  0  0  0  0  0  0  0  0
   -6.5925   23.7910  -31.8000 H   0  0  0  0  0  0  0  0  0  0  0  0
  1  2  1  0
  2  3  1  0
  3  4  1  0
  4  5  1  0
  5  6  1  0
  6  7  1  0
  7  8  2  0
  8  9  1  0
  9 10  2  0
 10 11  1  0
 11 12  2  0
 12 13  1  0
 13 14  2  0
 14 15  1  0
 14 16  1  0
 16 17  2  0
 17 18  1  0
 18 19  1  0
 18 20  2  0
 20 21  1  0
 21 22  2  0
 22  7  1  0
 13  8  1  0
 22 16  1  0
  1 23  1  0
  1 24  1  0
  1 25  1  0
  2 26  1  0
  2 27  1  0
  3 28  1  0
  4 29  1  0
  4 30  1  0
  5 31  1  0
  5 32  1  0
  6 33  1  0
  6 34  1  0
  9 35  1  0
 10 36  1  0
 11 37  1  0
 12 38  1  0
 15 39  1  0
 15 40  1  0
 15 41  1  0
 17 42  1  0
 20 43  1  0
 21 44  1  0
M  CHG  3   6   1  14   1  19  -1
M  END
>  <UniqueID>  (2) 
2

>  <SMILES>  (2) 
CCNCC[NH2+]c1c2ccccc2[n+](C)c2cc([O-])ccc12

>  <Energy>  (2) 
73.38536713443087

>  <Genealogy>  (2) 
CCNCC[NH2+]c1c2ccccc2[n+](C)c2cc([O-])ccc12 (protonated)
CCNCC[NH2+]c1c2ccccc2[n+](C)c2cc([O-])ccc12 (3D coordinates assigned)
CCNCC[NH2+]c1c2ccccc2[n+](C)c2cc([O-])ccc12 (optimized conformer: 73.38536713443087 kcal/mol)

>  <smiles>  (2) 
CCNCCNc1c2ccccc2[n+](C)c2cc(O)ccc12

>  <score_type>  (2) 
oracle

>  <origin>  (2) 
adg

>  <m_score__min__energy>  (2) 
-9.1999999999999993

>  <m_primary>  (2) 
energy

$$$$
2:0
     RDKit          3D

 66 69  0  0  0  0  0  0  0  0999 V2000
   -9.2090   21.1590  -30.8400 C   0  0  0  0  0  0  0  0  0  0  0  0
   -9.4820   21.3160  -32.3390 C   0  0  0  0  0  0  0  0  0  0  0  0
   -9.5530   20.0170  -33.0260 N   0  0  0  0  0  0  0  0  0  0  0  0
   -9.0990   18.9150  -32.1650 C   0  0  0  0  0  0  0  0  0  0  0  0
   -7.8040   18.2920  -32.7030 C   0  0  0  0  0  0  0  0  0  0  0  0
   -7.0440   19.2710  -33.4820 N   0  0  0  0  0  0  0  0  0  0  0  0
   -5.6660   19.5490  -33.1780 C   0  0  0  0  0  0  0  0  0  0  0  0
   -4.6450   18.7060  -33.6570 C   0  0  0  0  0  0  0  0  0  0  0  0
   -4.9400   17.6420  -34.5350 C   0  0  0  0  0  0  0  0  0  0  0  0
   -3.9280   16.8150  -35.0180 C   0  0  0  0  0  0  0  0  0  0  0  0
   -2.6080   17.0420  -34.6510 C   0  0  0  0  0  0  0  0  0  0  0  0
   -2.2890   18.0940  -33.7930 C   0  0  0  0  0  0  0  0  0  0  0  0
   -3.2980   18.9460  -33.2720 C   0  0  0  0  0  0  0  0  0  0  0  0
   -2.9960   19.9880  -32.4150 N   0  0  0  0  0  0  0  0  0  0  0  0
   -1.6040   20.1940  -31.9570 C   0  0  0  0  0  0  0  0  0  0  0  0
   -3.9820   20.8560  -32.0020 C   0  0  0  0  0  0  0  0  0  0  0  0
   -3.6710   21.9260  -31.2160 N   0  0  0  0  0  0  0  0  0  0  0  0
   -4.5890   22.8270  -30.7770 C   0  0  0  0  0  0  0  0  0  0  0  0
   -4.2040   23.9060  -29.9500 C   0  0  0  0  0  0  0  0  0  0  0  0
   -2.7930   24.1220  -29.5520 C   0  0  0  0  0  0  0  0  0  0  0  0
   -2.3800   25.2990  -29.3480 O   0  0  0  0  0  0  0  0  0  0  0  0
   -1.8850   23.0160  -29.4260 N   0  0  0  0  0  0  0  0  0  0  0  0
   -0.5580   23.1840  -28.8290 C   0  0  0  0  0  0  0  0  0  0  0  0
   -0.0620   21.8800  -28.2010 C   0  0  0  0  0  0  0  0  0  0  0  0
   -0.9790   20.7600  -28.5130 N   0  0  0  0  0  0  0  0  0  0  0  0
   -1.9480   20.5730  -27.4230 C   0  0  0  0  0  0  0  0  0  0  0  0
   -0.2340   19.5100  -28.7320 C   0  0  0  0  0  0  0  0  0  0  0  0
   -5.1920   24.7820  -29.4680 C   0  0  0  0  0  0  0  0  0  0  0  0
   -6.5320   24.6110  -29.8280 C   0  0  0  0  0  0  0  0  0  0  0  0
   -6.9080   23.5540  -30.6570 C   0  0  0  0  0  0  0  0  0  0  0  0
   -5.9430   22.6540  -31.1280 C   0  0  0  0  0  0  0  0  0  0  0  0
   -6.3030   21.5690  -31.9330 C   0  0  0  0  0  0  0  0  0  0  0  0
   -5.3290   20.6570  -32.3830 C   0  0  0  0  0  0  0  0  0  0  0  0
  -10.0235   21.6274  -30.2679 H   0  0  0  0  0  0  0  0  0  0  0  0
   -9.1515   20.0899  -30.5878 H   0  0  0  0  0  0  0  0  0  0  0  0
   -8.2560   21.6470  -30.5878 H   0  0  0  0  0  0  0  0  0  0  0  0
  -10.4394   21.8409  -32.4724 H   0  0  0  0  0  0  0  0  0  0  0  0
   -8.6503   21.8869  -32.7775 H   0  0  0  0  0  0  0  0  0  0  0  0
   -8.9940   20.0610  -33.9110 H   0  0  0  0  0  0  0  0  0  0  0  0
   -8.9175   19.3021  -31.1515 H   0  0  0  0  0  0  0  0  0  0  0  0
   -9.8793   18.1399  -32.1485 H   0  0  0  0  0  0  0  0  0  0  0  0
   -7.1901   17.9483  -31.8574 H   0  0  0  0  0  0  0  0  0  0  0  0
   -8.0632   17.4451  -33.3553 H   0  0  0  0  0  0  0  0  0  0  0  0
   -7.5510   19.9040  -34.1370 H   0  0  0  0  0  0  0  0  0  0  0  0
   -5.9811   17.4631  -34.8419 H   0  0  0  0  0  0  0  0  0  0  0  0
   -4.1750   15.9809  -35.6912 H   0  0  0  0  0  0  0  0  0  0  0  0
   -1.8114   16.3898  -35.0384 H   0  0  0  0  0  0  0  0  0  0  0  0
   -1.2387   18.2664  -33.5154 H   0  0  0  0  0  0  0  0  0  0  0  0
   -1.5766   20.1981  -30.8573 H   0  0  0  0  0  0  0  0  0  0  0  0
   -0.9688   19.3801  -32.3366 H   0  0  0  0  0  0  0  0  0  0  0  0
   -1.2318   21.1570  -32.3366 H   0  0  0  0  0  0  0  0  0  0  0  0
   -2.1770   22.0760  -29.7870 H   0  0  0  0  0  0  0  0  0  0  0  0
    0.1496   23.4971  -29.6108 H   0  0  0  0  0  0  0  0  0  0  0  0
   -0.6267   23.9459  -28.0386 H   0  0  0  0  0  0  0  0  0  0  0  0
    0.9378   21.6475  -28.5964 H   0  0  0  0  0  0  0  0  0  0  0  0
   -0.0235   22.0085  -27.1092 H   0  0  0  0  0  0  0  0  0  0  0  0
   -1.4348   20.6720  -26.4551 H   0  0  0  0  0  0  0  0  0  0  0  0
   -2.7373   21.3354  -27.4992 H   0  0  0  0  0  0  0  0  0  0  0  0
   -2.3969   19.5717  -27.4992 H   0  0  0  0  0  0  0  0  0  0  0  0
    0.0306   19.0660  -27.7610 H   0  0  0  0  0  0  0  0  0  0  0  0
   -0.8594   18.8050  -29.2993 H   0  0  0  0  0  0  0  0  0  0  0  0
    0.6836   19.7246  -29.2993 H   0  0  0  0  0  0  0  0  0  0  0  0
   -4.9082   25.6097  -28.8014 H   0  0  0  0  0  0  0  0  0  0  0  0
   -7.2930   25.3128  -29.4560 H   0  0  0  0  0  0  0  0  0  0  0  0
   -7.9630   23.4270  -30.9412 H   0  0  0  0  0  0  0  0  0  0  0  0
   -7.3561   21.4266  -32.2172 H   0  0  0  0  0  0  0  0  0  0  0  0
  1  2  1  0
  2  3  1  0
  3  4  1  0
  4  5  1  0
  5  6  1  0
  6  7  1  0
  7  8  2  0
  8  9  1  0
  9 10  2  0
 10 11  1  0
 11 12  2  0
 12 13  1  0
 13 14  2  0
 14 15  1  0
 14 16  1  0
 16 17  2  0
 17 18  1  0
 18 19  2  0
 19 20  1  0
 20 21  2  0
 20 22  1  0
 22 23  1  0
 23 24  1  0
 24 25  1  0
 25 26  1  0
 25 27  1  0
 19 28  1  0
 28 29  2  0
 29 30  1  0
 30 31  2  0
 31 32  1  0
 32 33  2  0
 33  7  1  0
 13  8  1  0
 33 16  1  0
 31 18  1  0
  1 34  1  0
  1 35  1  0
  1 36  1  0
  2 37  1  0
  2 38  1  0
  3 39  1  0
  4 40  1  0
  4 41  1  0
  5 42  1  0
  5 43  1  0
  6 44  1  0
  9 45  1  0
 10 46  1  0
 11 47  1  0
 12 48  1  0
 15 49  1  0
 15 50  1  0
 15 51  1  0
 22 52  1  0
 23 53  1  0
 23 54  1  0
 24 55  1  0
 24 56  1  0
 26 57  1  0
 26 58  1  0
 26 59  1  0
 27 60  1  0
 27 61  1  0
 27 62  1  0
 28 63  1  0
 29 64  1  0
 30 65  1  0
 32 66  1  0
M  CHG  1  14   1
M  END
>  <UniqueID>  (3) 
3

>  <SMILES>  (3) 
CCNCCNc1c2ccccc2[n+](C)c2nc3c(C(=O)NCCN(C)C)cccc3cc12

>  <Energy>  (3) 
91.23403061948251

>  <Genealogy>  (3) 
CCNCCNc1c2ccccc2[n+](C)c2nc3c(C(=O)NCCN(C)C)cccc3cc12 (3D coordinates assigned)
CCNCCNc1c2ccccc2[n+](C)c2nc3c(C(=O)NCCN(C)C)cccc3cc12 (optimized conformer: 91.23403061948251 kcal/mol)

>  <smiles>  (3) 
CCNCCNc1c2ccccc2[n+](C)c2nc3c(C(=O)NCCN(C)C)cccc3cc12

>  <score_type>  (3) 
oracle

>  <origin>  (3) 
adg

>  <m_score__min__energy>  (3) 
-9.3800000000000008

>  <m_primary>  (3) 
energy

$$$$
3:0
     RDKit          3D

 60 63  0  0  0  0  0  0  0  0999 V2000
   -9.1810   23.1830  -32.2980 C   0  0  0  0  0  0  0  0  0  0  0  0
   -9.1780   21.7140  -31.8490 C   0  0  0  0  0  0  0  0  0  0  0  0
   -8.0080   20.9210  -32.2950 N   0  0  0  0  0  0  0  0  0  0  0  0
   -6.7590   21.2220  -31.5860 C   0  0  0  0  0  0  0  0  0  0  0  0
   -8.3250   19.2010  -32.3400 S   0  0  0  0  0  0  0  0  0  0  0  0
   -9.5760   18.9430  -33.1350 O   0  0  0  0  0  0  0  0  0  0  0  0
   -8.5610   18.7090  -30.9390 O   0  0  0  0  0  0  0  0  0  0  0  0
   -6.9990   18.2870  -33.0580 C   0  0  0  0  0  0  0  0  0  0  0  0
   -7.1970   16.9580  -33.4560 C   0  0  0  0  0  0  0  0  0  0  0  0
   -6.1530   16.2390  -34.0440 C   0  0  0  0  0  0  0  0  0  0  0  0
   -4.9070   16.8400  -34.2350 C   0  0  0  0  0  0  0  0  0  0  0  0
   -4.6930   18.1680  -33.8320 C   0  0  0  0  0  0  0  0  0  0  0  0
   -3.3420   18.8060  -34.0240 C   0  0  0  0  0  0  0  0  0  0  0  0
   -3.0100   19.6520  -32.8800 N   0  0  0  0  0  0  0  0  0  0  0  0
   -3.4870   21.0030  -32.7590 C   0  0  0  0  0  0  0  0  0  0  0  0
   -4.1920   21.5030  -33.6780 O   0  0  0  0  0  0  0  0  0  0  0  0
   -3.1580   21.8100  -31.5650 C   0  0  0  0  0  0  0  0  0  0  0  0
   -2.5190   21.2410  -30.4550 C   0  0  0  0  0  0  0  0  0  0  0  0
   -2.2230   22.0340  -29.3450 C   0  0  0  0  0  0  0  0  0  0  0  0
   -2.5430   23.3980  -29.3500 C   0  0  0  0  0  0  0  0  0  0  0  0
   -2.2690   24.2460  -28.1350 C   0  0  0  0  0  0  0  0  0  0  0  0
   -0.8390   24.1930  -27.6100 C   0  0  0  0  0  0  0  0  0  0  0  0
   -1.3200   25.4160  -28.3680 C   0  0  0  0  0  0  0  0  0  0  0  0
   -3.2090   23.9310  -30.4650 C   0  0  0  0  0  0  0  0  0  0  0  0
   -3.5890   25.2750  -30.4700 O   0  0  0  0  0  0  0  0  0  0  0  0
   -4.9510   25.7000  -30.4730 C   0  0  0  0  0  0  0  0  0  0  0  0
   -5.9240   24.5540  -30.7910 C   0  0  0  0  0  0  0  0  0  0  0  0
   -7.2340   24.5430  -30.0150 C   0  0  0  0  0  0  0  0  0  0  0  0
   -6.1510   23.5190  -29.6970 C   0  0  0  0  0  0  0  0  0  0  0  0
   -3.4860   23.1310  -31.5340 N   0  0  0  0  0  0  0  0  0  0  0  0
   -5.7450   18.8870  -33.2410 C   0  0  0  0  0  0  0  0  0  0  0  0
   -9.1823   23.8368  -31.4134 H   0  0  0  0  0  0  0  0  0  0  0  0
   -8.2833   23.3839  -32.9011 H   0  0  0  0  0  0  0  0  0  0  0  0
  -10.0795   23.3803  -32.9011 H   0  0  0  0  0  0  0  0  0  0  0  0
   -9.2037   21.6940  -30.7495 H   0  0  0  0  0  0  0  0  0  0  0  0
  -10.0584   21.2495  -32.3172 H   0  0  0  0  0  0  0  0  0  0  0  0
   -6.9340   21.1798  -30.5008 H   0  0  0  0  0  0  0  0  0  0  0  0
   -5.9929   20.4828  -31.8628 H   0  0  0  0  0  0  0  0  0  0  0  0
   -6.4138   22.2291  -31.8628 H   0  0  0  0  0  0  0  0  0  0  0  0
   -8.1761   16.4799  -33.3053 H   0  0  0  0  0  0  0  0  0  0  0  0
   -6.3131   15.1968  -34.3573 H   0  0  0  0  0  0  0  0  0  0  0  0
   -4.0901   16.2710  -34.7029 H   0  0  0  0  0  0  0  0  0  0  0  0
   -2.5806   18.0186  -34.1253 H   0  0  0  0  0  0  0  0  0  0  0  0
   -3.3670   19.4273  -34.9314 H   0  0  0  0  0  0  0  0  0  0  0  0
   -2.3950   19.2510  -32.1390 H   0  0  0  0  0  0  0  0  0  0  0  0
   -2.2518   20.1739  -30.4585 H   0  0  0  0  0  0  0  0  0  0  0  0
   -1.7376   21.5872  -28.4648 H   0  0  0  0  0  0  0  0  0  0  0  0
   -3.2674   24.1229  -27.6899 H   0  0  0  0  0  0  0  0  0  0  0  0
   -0.6479   24.2567  -26.5286 H   0  0  0  0  0  0  0  0  0  0  0  0
    0.0029   23.4933  -27.7182 H   0  0  0  0  0  0  0  0  0  0  0  0
   -1.4774   26.3657  -27.8358 H   0  0  0  0  0  0  0  0  0  0  0  0
   -0.9708   25.9689  -29.2525 H   0  0  0  0  0  0  0  0  0  0  0  0
   -5.1962   26.1058  -29.4804 H   0  0  0  0  0  0  0  0  0  0  0  0
   -5.0621   26.4609  -31.2596 H   0  0  0  0  0  0  0  0  0  0  0  0
   -5.6453   24.5103  -31.8542 H   0  0  0  0  0  0  0  0  0  0  0  0
   -7.4564   25.3486  -29.2997 H   0  0  0  0  0  0  0  0  0  0  0  0
   -8.2986   24.4904  -30.2867 H   0  0  0  0  0  0  0  0  0  0  0  0
   -5.5915   23.5854  -28.7522 H   0  0  0  0  0  0  0  0  0  0  0  0
   -6.1098   22.4210  -29.6440 H   0  0  0  0  0  0  0  0  0  0  0  0
   -5.5842   19.9267  -32.9199 H   0  0  0  0  0  0  0  0  0  0  0  0
  1  2  1  0
  2  3  1  0
  3  4  1  0
  3  5  1  0
  5  6  2  0
  5  7  2  0
  5  8  1  0
  8  9  2  0
  9 10  1  0
 10 11  2  0
 11 12  1  0
 12 13  1  0
 13 14  1  0
 14 15  1  0
 15 16  2  0
 15 17  1  0
 17 18  2  0
 18 19  1  0
 19 20  2  0
 20 21  1  0
 21 22  1  0
 22 23  1  0
 20 24  1  0
 24 25  1  0
 25 26  1  0
 26 27  1  0
 27 28  1  0
 28 29  1  0
 24 30  2  0
 12 31  2  0
 31  8  1  0
 30 17  1  0
 23 21  1  0
 29 27  1  0
  1 32  1  0
  1 33  1  0
  1 34  1  0
  2 35  1  0
  2 36  1  0
  4 37  1  0
  4 38  1  0
  4 39  1  0
  9 40  1  0
 10 41  1  0
 11 42  1  0
 13 43  1  0
 13 44  1  0
 14 45  1  0
 18 46  1  0
 19 47  1  0
 21 48  1  0
 22 49  1  0
 22 50  1  0
 23 51  1  0
 23 52  1  0
 26 53  1  0
 26 54  1  0
 27 55  1  0
 28 56  1  0
 28 57  1  0
 29 58  1  0
 29 59  1  0
 31 60  1  0
M  END
>  <UniqueID>  (4) 
4

>  <SMILES>  (4) 
CCN(C)S(=O)(=O)c1cccc(CNC(=O)c2ccc(C3CC3)c(OCC3CC3)n2)c1

>  <Energy>  (4) 
586.7655491434064

>  <Genealogy>  (4) 
CCN(C)S(=O)(=O)c1cccc(CNC(=O)c2ccc(C3CC3)c(OCC3CC3)n2)c1 (3D coordinates assigned)
CCN(C)S(=O)(=O)c1cccc(CNC(=O)c2ccc(C3CC3)c(OCC3CC3)n2)c1 (nonaromatic ring conformer: 586.7655491434064 kcal/mol)

>  <smiles>  (4) 
CCN(C)S(=O)(=O)c1cccc(CNC(=O)c2ccc(C3CC3)c(OCC3CC3)n2)c1

>  <score_type>  (4) 
oracle

>  <origin>  (4) 
adg

>  <m_score__min__energy>  (4) 
-10.390000000000001

>  <m_primary>  (4) 
energy

$$$$
4:0
     RDKit          3D

 37 38  0  0  0  0  0  0  0  0999 V2000
   -2.7640   20.0850  -33.0360 C   0  0  0  0  0  0  0  0  0  0  0  0
   -3.0260   21.5870  -33.1310 C   0  0  0  0  0  0  0  0  0  0  0  0
   -4.4250   21.8950  -32.7950 N   0  0  0  0  0  0  0  0  0  0  0  0
   -4.5010   22.6740  -31.5470 C   0  0  0  0  0  0  0  0  0  0  0  0
   -5.9540   22.9980  -31.1490 C   0  0  0  0  0  0  0  0  0  0  0  0
   -6.9110   23.0710  -32.3420 C   0  0  0  0  0  0  0  0  0  0  0  0
   -6.8800   21.8450  -33.0680 O   0  0  0  0  0  0  0  0  0  0  0  0
   -7.4240   20.6310  -32.6200 C   0  0  0  0  0  0  0  0  0  0  0  0
   -8.4530   20.5920  -31.6580 C   0  0  0  0  0  0  0  0  0  0  0  0
   -8.9800   19.3720  -31.2320 C   0  0  0  0  0  0  0  0  0  0  0  0
   -8.4930   18.1730  -31.7500 C   0  0  0  0  0  0  0  0  0  0  0  0
   -7.4670   18.1840  -32.7050 C   0  0  0  0  0  0  0  0  0  0  0  0
   -6.9690   16.9780  -33.2260 C   0  0  0  0  0  0  0  0  0  0  0  0
   -5.9420   16.9920  -34.1710 C   0  0  0  0  0  0  0  0  0  0  0  0
   -5.4030   18.2040  -34.6060 C   0  0  0  0  0  0  0  0  0  0  0  0
   -5.8890   19.4130  -34.0990 C   0  0  0  0  0  0  0  0  0  0  0  0
   -6.9250   19.4190  -33.1450 C   0  0  0  0  0  0  0  0  0  0  0  0
   -2.7122   19.7880  -31.9781 H   0  0  0  0  0  0  0  0  0  0  0  0
   -3.5804   19.5384  -33.5307 H   0  0  0  0  0  0  0  0  0  0  0  0
   -1.8108   19.8471  -33.5307 H   0  0  0  0  0  0  0  0  0  0  0  0
   -2.3622   22.1140  -32.4299 H   0  0  0  0  0  0  0  0  0  0  0  0
   -2.8305   21.9147  -34.1627 H   0  0  0  0  0  0  0  0  0  0  0  0
   -4.9410   20.9930  -32.6690 H   0  0  0  0  0  0  0  0  0  0  0  0
   -4.8520   22.4410  -33.5800 H   0  0  0  0  0  0  0  0  0  0  0  0
   -4.0335   22.0932  -30.7382 H   0  0  0  0  0  0  0  0  0  0  0  0
   -3.9762   23.6266  -31.7117 H   0  0  0  0  0  0  0  0  0  0  0  0
   -6.3105   22.2147  -30.4638 H   0  0  0  0  0  0  0  0  0  0  0  0
   -5.9470   23.9920  -30.6779 H   0  0  0  0  0  0  0  0  0  0  0  0
   -7.9331   23.2532  -31.9784 H   0  0  0  0  0  0  0  0  0  0  0  0
   -6.5990   23.8912  -33.0053 H   0  0  0  0  0  0  0  0  0  0  0  0
   -8.8441   21.5310  -31.2394 H   0  0  0  0  0  0  0  0  0  0  0  0
   -9.7850   19.3564  -30.4825 H   0  0  0  0  0  0  0  0  0  0  0  0
   -8.9148   17.2161  -31.4086 H   0  0  0  0  0  0  0  0  0  0  0  0
   -7.3899   16.0196  -32.8880 H   0  0  0  0  0  0  0  0  0  0  0  0
   -5.5558   16.0444  -34.5746 H   0  0  0  0  0  0  0  0  0  0  0  0
   -4.5930   18.2079  -35.3503 H   0  0  0  0  0  0  0  0  0  0  0  0
   -5.4600   20.3642  -34.4470 H   0  0  0  0  0  0  0  0  0  0  0  0
  1  2  1  0
  2  3  1  0
  3  4  1  0
  4  5  1  0
  5  6  1  0
  6  7  1  0
  7  8  1  0
  8  9  2  0
  9 10  1  0
 10 11  2  0
 11 12  1  0
 12 13  2  0
 13 14  1  0
 14 15  2  0
 15 16  1  0
 16 17  2  0
 17  8  1  0
 17 12  1  0
  1 18  1  0
  1 19  1  0
  1 20  1  0
  2 21  1  0
  2 22  1  0
  3 23  1  0
  3 24  1  0
  4 25  1  0
  4 26  1  0
  5 27  1  0
  5 28  1  0
  6 29  1  0
  6 30  1  0
  9 31  1  0
 10 32  1  0
 11 33  1  0
 13 34  1  0
 14 35  1  0
 15 36  1  0
 16 37  1  0
M  CHG  1   3   1
M  END
>  <UniqueID>  (5) 
5

>  <SMILES>  (5) 
CC[NH2+]CCCOc1cccc2ccccc12

>  <Energy>  (5) 
32.95609803388858

>  <Genealogy>  (5) 
CC[NH2+]CCCOc1cccc2ccccc12 (protonated)
CC[NH2+]CCCOc1cccc2ccccc12 (3D coordinates assigned)
CC[NH2+]CCCOc1cccc2ccccc12 (optimized conformer: 32.95609803388858 kcal/mol)

>  <smiles>  (5) 
CCNCCCOc1cccc2ccccc12

>  <score_type>  (5) 
oracle

>  <origin>  (5) 
adg

>  <m_score__min__energy>  (5) 
-5.4199999999999999

>  <m_primary>  (5) 
energy

$$$$
5:0
     RDKit          3D

 73 79  0  0  0  0  0  0  0  0999 V2000
   -7.0670   20.4340  -33.0280 C   0  0  0  0  0  0  0  0  0  0  0  0
   -5.7330   19.6990  -32.9110 C   0  0  0  0  0  0  0  0  0  0  0  0
   -5.7590   18.3960  -33.6160 N   0  0  0  0  0  0  0  0  0  0  0  0
   -5.7630   17.2190  -32.7130 C   0  0  0  0  0  0  0  0  0  0  0  0
   -6.3550   17.4970  -31.3230 C   0  0  0  0  0  0  0  0  0  0  0  0
   -4.6980   18.3110  -34.6460 C   0  0  0  0  0  0  0  0  0  0  0  0
   -3.4500   17.6400  -34.0600 C   0  0  0  0  0  0  0  0  0  0  0  0
   -2.7770   18.5390  -33.0150 C   0  0  0  0  0  0  0  0  0  0  0  0
   -1.2860   18.7410  -33.3120 C   0  0  0  0  0  0  0  0  0  0  0  0
   -0.6600   19.6220  -32.3240 N   0  0  0  0  0  0  0  0  0  0  0  0
   -0.6760   19.3860  -30.9290 C   0  0  0  0  0  0  0  0  0  0  0  0
   -0.8300   18.2440  -30.4250 O   0  0  0  0  0  0  0  0  0  0  0  0
   -0.6410   20.6980  -30.1970 C   0  0  1  0  0  0  0  0  0  0  0  0
    0.0040   21.5080  -31.2900 C   0  0  0  0  0  0  0  0  0  0  0  0
   -0.5920   21.0490  -32.3930 C   0  0  0  0  0  0  0  0  0  0  0  0
   -1.9080   21.7600  -32.6280 C   0  0  0  0  0  0  0  0  0  0  0  0
   -2.8540   21.5950  -31.3770 C   0  0  2  0  0  0  0  0  0  0  0  0
   -3.4850   22.8580  -31.1120 O   0  0  0  0  0  0  0  0  0  0  0  0
   -2.8590   23.4760  -30.0440 C   0  0  0  0  0  0  0  0  0  0  0  0
   -2.9450   24.8140  -29.6630 C   0  0  0  0  0  0  0  0  0  0  0  0
   -3.8640   25.6680  -30.2590 O   0  0  0  0  0  0  0  0  0  0  0  0
   -2.0460   25.2870  -28.6860 C   0  0  0  0  0  0  0  0  0  0  0  0
   -1.0470   24.4320  -28.1660 C   0  0  0  0  0  0  0  0  0  0  0  0
   -0.9940   23.0820  -28.5660 C   0  0  0  0  0  0  0  0  0  0  0  0
   -1.9880   22.6280  -29.4320 C   0  0  0  0  0  0  0  0  0  0  0  0
   -2.0750   21.2670  -30.0270 C   0  0  2  0  0  0  0  0  0  0  0  0
   -2.8710   20.3500  -29.0710 C   0  0  0  0  0  0  0  0  0  0  0  0
   -2.1690   20.2100  -27.6990 C   0  0  0  0  0  0  0  0  0  0  0  0
   -0.7080   19.9530  -27.7870 N   0  0  0  0  0  0  0  0  0  0  0  0
   -0.3230   18.5370  -27.6240 C   0  0  0  0  0  0  0  0  0  0  0  0
    1.1670   18.3850  -27.9470 C   0  0  0  0  0  0  0  0  0  0  0  0
    1.8290   17.0970  -27.4810 C   0  0  0  0  0  0  0  0  0  0  0  0
    1.4870   17.2870  -28.9500 C   0  0  0  0  0  0  0  0  0  0  0  0
    0.0560   20.7340  -28.8010 C   0  0  2  0  0  0  0  0  0  0  0  0
    0.2060   22.2000  -28.2750 C   0  0  0  0  0  0  0  0  0  0  0  0
   -7.4568   20.6488  -32.0220 H   0  0  0  0  0  0  0  0  0  0  0  0
   -6.9190   21.3779  -33.5731 H   0  0  0  0  0  0  0  0  0  0  0  0
   -7.7858   19.8046  -33.5731 H   0  0  0  0  0  0  0  0  0  0  0  0
   -4.9418   20.3252  -33.3491 H   0  0  0  0  0  0  0  0  0  0  0  0
   -5.5406   19.5072  -31.8451 H   0  0  0  0  0  0  0  0  0  0  0  0
   -6.3543   16.4218  -33.1872 H   0  0  0  0  0  0  0  0  0  0  0  0
   -4.7118   16.9338  -32.5589 H   0  0  0  0  0  0  0  0  0  0  0  0
   -5.6469   17.1645  -30.5497 H   0  0  0  0  0  0  0  0  0  0  0  0
   -6.5392   18.5758  -31.2120 H   0  0  0  0  0  0  0  0  0  0  0  0
   -7.3028   16.9498  -31.2120 H   0  0  0  0  0  0  0  0  0  0  0  0
   -5.0639   17.7188  -35.4977 H   0  0  0  0  0  0  0  0  0  0  0  0
   -4.4383   19.3260  -34.9811 H   0  0  0  0  0  0  0  0  0  0  0  0
   -3.7420   16.6924  -33.5837 H   0  0  0  0  0  0  0  0  0  0  0  0
   -2.7354   17.4590  -34.8765 H   0  0  0  0  0  0  0  0  0  0  0  0
   -3.2759   19.5194  -33.0146 H   0  0  0  0  0  0  0  0  0  0  0  0
   -2.8667   18.0490  -32.0342 H   0  0  0  0  0  0  0  0  0  0  0  0
   -0.7812   17.7639  -33.2913 H   0  0  0  0  0  0  0  0  0  0  0  0
   -1.1902   19.2083  -34.3032 H   0  0  0  0  0  0  0  0  0  0  0  0
    0.7762   22.2864  -31.2016 H   0  0  0  0  0  0  0  0  0  0  0  0
   -1.7164   22.8296  -32.7988 H   0  0  0  0  0  0  0  0  0  0  0  0
   -2.3996   21.3185  -33.5074 H   0  0  0  0  0  0  0  0  0  0  0  0
   -3.5403   20.7732  -31.6293 H   0  0  0  0  0  0  0  0  0  0  0  0
   -2.1217   26.3240  -28.3271 H   0  0  0  0  0  0  0  0  0  0  0  0
   -0.3101   24.8214  -27.4481 H   0  0  0  0  0  0  0  0  0  0  0  0
   -3.8726   20.7781  -28.9174 H   0  0  0  0  0  0  0  0  0  0  0  0
   -2.9361   19.3513  -29.5274 H   0  0  0  0  0  0  0  0  0  0  0  0
   -2.3222   21.1426  -27.1361 H   0  0  0  0  0  0  0  0  0  0  0  0
   -2.6150   19.3354  -27.2029 H   0  0  0  0  0  0  0  0  0  0  0  0
   -0.5097   18.2210  -26.5870 H   0  0  0  0  0  0  0  0  0  0  0  0
   -0.9168   17.9096  -28.3050 H   0  0  0  0  0  0  0  0  0  0  0  0
    1.4049   19.4540  -27.8435 H   0  0  0  0  0  0  0  0  0  0  0  0
    2.8797   17.1053  -27.1554 H   0  0  0  0  0  0  0  0  0  0  0  0
    1.5995   16.3353  -26.7213 H   0  0  0  0  0  0  0  0  0  0  0  0
    2.2903   17.4327  -29.6873 H   0  0  0  0  0  0  0  0  0  0  0  0
    0.9076   16.7197  -29.6933 H   0  0  0  0  0  0  0  0  0  0  0  0
    1.0503   20.2849  -28.9415 H   0  0  0  0  0  0  0  0  0  0  0  0
    0.3536   22.1639  -27.1855 H   0  0  0  0  0  0  0  0  0  0  0  0
    1.0639   22.6428  -28.8022 H   0  0  0  0  0  0  0  0  0  0  0  0
  1  2  1  0
  2  3  1  0
  3  4  1  0
  4  5  1  0
  3  6  1  0
  6  7  1  0
  7  8  1  0
  8  9  1  0
  9 10  1  0
 10 11  1  0
 11 12  2  0
 13 11  1  6
 13 14  1  0
 14 15  2  0
 15 16  1  0
 16 17  1  0
 17 18  1  0
 18 19  1  0
 19 20  2  0
 20 21  1  0
 20 22  1  0
 22 23  2  0
 23 24  1  0
 24 25  2  0
 25 26  1  0
 26 27  1  1
 27 28  1  0
 28 29  1  0
 29 30  1  0
 30 31  1  0
 31 32  1  0
 32 33  1  0
 29 34  1  0
 34 35  1  0
 15 10  1  0
 26 17  1  0
 33 31  1  0
 26 13  1  0
 34 13  1  0
 25 19  1  0
 35 24  1  0
  1 36  1  0
  1 37  1  0
  1 38  1  0
  2 39  1  0
  2 40  1  0
  4 41  1  0
  4 42  1  0
  5 43  1  0
  5 44  1  0
  5 45  1  0
  6 46  1  0
  6 47  1  0
  7 48  1  0
  7 49  1  0
  8 50  1  0
  8 51  1  0
  9 52  1  0
  9 53  1  0
 14 54  1  0
 16 55  1  0
 16 56  1  0
 17 57  1  6
 22 58  1  0
 23 59  1  0
 27 60  1  0
 27 61  1  0
 28 62  1  0
 28 63  1  0
 30 64  1  0
 30 65  1  0
 31 66  1  0
 32 67  1  0
 32 68  1  0
 33 69  1  0
 33 70  1  0
 34 71  1  6
 35 72  1  0
 35 73  1  0
M  CHG  1  21  -1
M  END
>  <UniqueID>  (6) 
6

>  <SMILES>  (6) 
CCN(CC)CCCCN1C(=O)[C@@]23C=C1C[C@@H]1Oc4c([O-])ccc5c4C12CCN(CC1CC1)C3C5

>  <Energy>  (6) 
455.4757717635417

>  <Genealogy>  (6) 
CCN(CC)CCCCN1C(=O)C23C=C1CC1Oc4c([O-])ccc5c4C12CCN(CC1CC1)C3C5 (protonated)
CCN(CC)CCCCN1C(=O)[C@@]23C=C1C[C@@H]1Oc4c([O-])ccc5c4C12CCN(CC1CC1)C3C5 (chirality)
CCN(CC)CCCCN1C(=O)[C@@]23C=C1C[C@@H]1Oc4c([O-])ccc5c4C12CCN(CC1CC1)C3C5 (3D coordinates assigned)
CCN(CC)CCCCN1C(=O)[C@@]23C=C1C[C@@H]1Oc4c([O-])ccc5c4C12CCN(CC1CC1)C3C5 (nonaromatic ring conformer: 455.4757717635417 kcal/mol)

>  <smiles>  (6) 
CCN(CC)CCCCN1C(=O)C23C=C1CC1Oc4c(O)ccc5c4C12CCN(CC1CC1)C3C5

>  <score_type>  (6) 
oracle

>  <origin>  (6) 
adg

>  <m_score__min__energy>  (6) 
-10.210000000000001

>  <m_primary>  (6) 
energy

$$$$
6:0
     RDKit          3D

 28 29  0  0  0  0  0  0  0  0999 V2000
   -7.1770   17.8170  -31.7820 C   0  0  0  0  0  0  0  0  0  0  0  0
   -6.6010   18.5040  -33.0220 C   0  0  0  0  0  0  0  0  0  0  0  0
   -7.4400   19.6220  -33.4900 N   0  0  0  0  0  0  0  0  0  0  0  0
   -7.3230   20.7820  -32.6290 C   0  0  0  0  0  0  0  0  0  0  0  0
   -8.4320   21.1430  -31.8400 C   0  0  0  0  0  0  0  0  0  0  0  0
   -8.3930   22.2530  -31.0020 C   0  0  0  0  0  0  0  0  0  0  0  0
   -7.2400   23.0360  -30.9310 C   0  0  0  0  0  0  0  0  0  0  0  0
   -7.1840   24.1580  -30.0920 C   0  0  0  0  0  0  0  0  0  0  0  0
   -6.0200   24.9250  -30.0330 C   0  0  0  0  0  0  0  0  0  0  0  0
   -4.9210   24.5610  -30.8110 C   0  0  0  0  0  0  0  0  0  0  0  0
   -4.9880   23.4700  -31.6200 N   0  0  0  0  0  0  0  0  0  0  0  0
   -6.1090   22.6980  -31.7070 C   0  0  0  0  0  0  0  0  0  0  0  0
   -6.1360   21.5700  -32.5570 C   0  0  0  0  0  0  0  0  0  0  0  0
   -4.9630   21.2440  -33.3240 N   0  0  0  0  0  0  0  0  0  0  0  0
   -6.7751   18.2964  -30.8772 H   0  0  0  0  0  0  0  0  0  0  0  0
   -8.2733   17.9074  -31.7887 H   0  0  0  0  0  0  0  0  0  0  0  0
   -6.8968   16.7533  -31.7887 H   0  0  0  0  0  0  0  0  0  0  0  0
   -5.6010   18.8918  -32.7777 H   0  0  0  0  0  0  0  0  0  0  0  0
   -6.5598   17.7572  -33.8286 H   0  0  0  0  0  0  0  0  0  0  0  0
   -7.2470   19.8390  -34.4920 H   0  0  0  0  0  0  0  0  0  0  0  0
   -8.4360   19.3000  -33.4700 H   0  0  0  0  0  0  0  0  0  0  0  0
   -9.3476   20.5352  -31.8871 H   0  0  0  0  0  0  0  0  0  0  0  0
   -9.2722   22.5138  -30.3946 H   0  0  0  0  0  0  0  0  0  0  0  0
   -8.0565   24.4331  -29.4812 H   0  0  0  0  0  0  0  0  0  0  0  0
   -5.9695   25.8082  -29.3793 H   0  0  0  0  0  0  0  0  0  0  0  0
   -3.9979   25.1579  -30.7701 H   0  0  0  0  0  0  0  0  0  0  0  0
   -4.4460   20.3470  -33.2260 H   0  0  0  0  0  0  0  0  0  0  0  0
   -4.5410   21.9340  -33.9840 H   0  0  0  0  0  0  0  0  0  0  0  0
  1  2  1  0
  2  3  1  0
  3  4  1  0
  4  5  2  0
  5  6  1  0
  6  7  2  0
  7  8  1  0
  8  9  2  0
  9 10  1  0
 10 11  2  0
 11 12  1  0
 12 13  2  0
 13 14  1  0
 13  4  1  0
 12  7  1  0
  1 15  1  0
  1 16  1  0
  1 17  1  0
  2 18  1  0
  2 19  1  0
  3 20  1  0
  3 21  1  0
  5 22  1  0
  6 23  1  0
  8 24  1  0
  9 25  1  0
 10 26  1  0
 14 27  1  0
 14 28  1  0
M  CHG  1   3   1
M  END
>  <UniqueID>  (7) 
7

>  <SMILES>  (7) 
CC[NH2+]c1ccc2cccnc2c1N

>  <Energy>  (7) 
34.52577890329672

>  <Genealogy>  (7) 
CC[NH2+]c1ccc2cccnc2c1N (protonated)
CC[NH2+]c1ccc2cccnc2c1N (3D coordinates assigned)
CC[NH2+]c1ccc2cccnc2c1N (optimized conformer: 34.52577890329672 kcal/mol)

>  <smiles>  (7) 
CCNc1ccc2cccnc2c1N

>  <score_type>  (7) 
oracle

>  <origin>  (7) 
adg

>  <m_score__min__energy>  (7) 
-5.7199999999999998

>  <m_primary>  (7) 
energy

$$$$
7:0
     RDKit          3D

 56 59  0  0  0  0  0  0  0  0999 V2000
   -6.8250   16.9650  -33.4150 C   0  0  0  0  0  0  0  0  0  0  0  0
   -7.5930   17.8820  -32.4720 C   0  0  0  0  0  0  0  0  0  0  0  0
   -7.0290   19.2330  -32.4960 N   0  0  0  0  0  0  0  0  0  0  0  0
   -5.7500   19.5540  -32.8080 C   0  0  0  0  0  0  0  0  0  0  0  0
   -5.5740   20.9330  -32.7510 C   0  0  0  0  0  0  0  0  0  0  0  0
   -4.3170   21.6850  -33.0820 C   0  0  0  0  0  0  0  0  0  0  0  0
   -3.0660   20.9630  -32.5720 C   0  0  0  0  0  0  0  0  0  0  0  0
   -2.6010   21.5820  -31.3100 N   0  0  0  0  0  0  0  0  0  0  0  0
   -3.0210   20.8100  -30.1280 C   0  0  0  0  0  0  0  0  0  0  0  0
   -2.8770   21.6930  -28.8910 C   0  0  0  0  0  0  0  0  0  0  0  0
   -1.6850   22.5450  -28.9870 N   0  0  0  0  0  0  0  0  0  0  0  0
   -1.4570   23.5280  -27.9660 C   0  0  0  0  0  0  0  0  0  0  0  0
   -0.7820   23.1680  -26.7900 C   0  0  0  0  0  0  0  0  0  0  0  0
   -0.5690   24.1110  -25.7820 C   0  0  0  0  0  0  0  0  0  0  0  0
   -1.0240   25.4190  -25.9440 C   0  0  0  0  0  0  0  0  0  0  0  0
   -1.6890   25.7920  -27.1140 C   0  0  0  0  0  0  0  0  0  0  0  0
   -1.9060   24.8510  -28.1410 C   0  0  0  0  0  0  0  0  0  0  0  0
   -2.5440   25.1950  -29.3440 O   0  0  0  0  0  0  0  0  0  0  0  0
   -3.7410   24.5910  -29.8230 C   0  0  0  0  0  0  0  0  0  0  0  0
   -0.5980   22.2040  -29.9160 C   0  0  0  0  0  0  0  0  0  0  0  0
   -1.1360   21.7810  -31.3020 C   0  0  0  0  0  0  0  0  0  0  0  0
   -6.8070   21.4580  -32.4170 C   0  0  0  0  0  0  0  0  0  0  0  0
   -7.2270   22.7780  -32.2570 C   0  0  0  0  0  0  0  0  0  0  0  0
   -8.5760   23.0040  -31.9340 C   0  0  0  0  0  0  0  0  0  0  0  0
   -9.4670   21.9200  -31.7840 C   0  0  0  0  0  0  0  0  0  0  0  0
   -9.0170   20.5980  -31.9550 C   0  0  0  0  0  0  0  0  0  0  0  0
   -7.6700   20.4000  -32.2720 C   0  0  0  0  0  0  0  0  0  0  0  0
   -6.2279   16.2520  -32.8276 H   0  0  0  0  0  0  0  0  0  0  0  0
   -7.5348   16.4137  -34.0492 H   0  0  0  0  0  0  0  0  0  0  0  0
   -6.1577   17.5670  -34.0492 H   0  0  0  0  0  0  0  0  0  0  0  0
   -8.6463   17.9241  -32.7864 H   0  0  0  0  0  0  0  0  0  0  0  0
   -7.5174   17.4837  -31.4494 H   0  0  0  0  0  0  0  0  0  0  0  0
   -4.9646   18.8293  -33.0686 H   0  0  0  0  0  0  0  0  0  0  0  0
   -4.2446   21.7926  -34.1743 H   0  0  0  0  0  0  0  0  0  0  0  0
   -4.3681   22.6667  -32.5883 H   0  0  0  0  0  0  0  0  0  0  0  0
   -3.3048   19.9045  -32.3918 H   0  0  0  0  0  0  0  0  0  0  0  0
   -2.2704   21.0436  -33.3273 H   0  0  0  0  0  0  0  0  0  0  0  0
   -4.0704   20.5003  -30.2417 H   0  0  0  0  0  0  0  0  0  0  0  0
   -2.3932   19.9128  -30.0235 H   0  0  0  0  0  0  0  0  0  0  0  0
   -3.7684   22.3309  -28.7990 H   0  0  0  0  0  0  0  0  0  0  0  0
   -2.7735   21.0447  -28.0084 H   0  0  0  0  0  0  0  0  0  0  0  0
   -0.4186   22.1378  -26.6612 H   0  0  0  0  0  0  0  0  0  0  0  0
   -0.0424   23.8219  -24.8605 H   0  0  0  0  0  0  0  0  0  0  0  0
   -0.8586   26.1595  -25.1476 H   0  0  0  0  0  0  0  0  0  0  0  0
   -2.0454   26.8256  -27.2349 H   0  0  0  0  0  0  0  0  0  0  0  0
   -4.3608   24.2783  -28.9697 H   0  0  0  0  0  0  0  0  0  0  0  0
   -4.2981   25.3159  -30.4347 H   0  0  0  0  0  0  0  0  0  0  0  0
   -3.4889   23.7122  -30.4347 H   0  0  0  0  0  0  0  0  0  0  0  0
    0.0526   23.0823  -30.0399 H   0  0  0  0  0  0  0  0  0  0  0  0
   -0.0414   21.3549  -29.4926 H   0  0  0  0  0  0  0  0  0  0  0  0
   -0.8835   22.5647  -32.0315 H   0  0  0  0  0  0  0  0  0  0  0  0
   -0.6690   20.8190  -31.5597 H   0  0  0  0  0  0  0  0  0  0  0  0
   -6.5248   23.6158  -32.3797 H   0  0  0  0  0  0  0  0  0  0  0  0
   -8.9399   24.0330  -31.7972 H   0  0  0  0  0  0  0  0  0  0  0  0
  -10.5207   22.1100  -31.5316 H   0  0  0  0  0  0  0  0  0  0  0  0
   -9.7040   19.7463  -31.8427 H   0  0  0  0  0  0  0  0  0  0  0  0
  1  2  1  0
  2  3  1  0
  3  4  1  0
  4  5  2  0
  5  6  1  0
  6  7  1  0
  7  8  1  0
  8  9  1  0
  9 10  1  0
 10 11  1  0
 11 12  1  0
 12 13  2  0
 13 14  1  0
 14 15  2  0
 15 16  1  0
 16 17  2  0
 17 18  1  0
 18 19  1  0
 11 20  1  0
 20 21  1  0
  5 22  1  0
 22 23  2  0
 23 24  1  0
 24 25  2  0
 25 26  1  0
 26 27  2  0
 27  3  1  0
 21  8  1  0
 27 22  1  0
 17 12  1  0
  1 28  1  0
  1 29  1  0
  1 30  1  0
  2 31  1  0
  2 32  1  0
  4 33  1  0
  6 34  1  0
  6 35  1  0
  7 36  1  0
  7 37  1  0
  9 38  1  0
  9 39  1  0
 10 40  1  0
 10 41  1  0
 13 42  1  0
 14 43  1  0
 15 44  1  0
 16 45  1  0
 19 46  1  0
 19 47  1  0
 19 48  1  0
 20 49  1  0
 20 50  1  0
 21 51  1  0
 21 52  1  0
 23 53  1  0
 24 54  1  0
 25 55  1  0
 26 56  1  0
M  END
>  <UniqueID>  (8) 
8

>  <SMILES>  (8) 
CCn1cc(CCN2CCN(c3ccccc3OC)CC2)c2ccccc21

>  <Energy>  (8) 
94.05560305577157

>  <Genealogy>  (8) 
CCn1cc(CCN2CCN(c3ccccc3OC)CC2)c2ccccc21 (3D coordinates assigned)
CCn1cc(CCN2CCN(c3ccccc3OC)CC2)c2ccccc21 (nonaromatic ring conformer: 94.05560305577157 kcal/mol)

>  <smiles>  (8) 
CCn1cc(CCN2CCN(c3ccccc3OC)CC2)c2ccccc21

>  <score_type>  (8) 
oracle

>  <origin>  (8) 
adg

>  <m_score__min__energy>  (8) 
-9.0500000000000007

>  <m_primary>  (8) 
energy

$$$$
8:0
     RDKit          3D

 45 47  0  0  0  0  0  0  0  0999 V2000
   -4.6380   20.4050  -32.4800 C   0  0  0  0  0  0  0  0  0  0  0  0
   -5.9700   20.7420  -33.1370 C   0  0  0  0  0  0  0  0  0  0  0  0
   -7.0570   19.9970  -32.4940 N   0  0  0  0  0  0  0  0  0  0  0  0
   -8.2380   20.4860  -32.0550 C   0  0  0  0  0  0  0  0  0  0  0  0
   -8.6620   22.2290  -31.9790 S   0  0  0  0  0  0  0  0  0  0  0  0
   -7.8440   22.5200  -30.3690 C   0  0  0  0  0  0  0  0  0  0  0  0
   -6.3730   22.0780  -30.3750 C   0  0  0  0  0  0  0  0  0  0  0  0
   -5.4550   23.2310  -30.4950 N   0  0  0  0  0  0  0  0  0  0  0  0
   -6.1770   24.4910  -30.2470 C   0  0  0  0  0  0  0  0  0  0  0  0
   -5.2260   25.6950  -30.4240 C   0  0  0  0  0  0  0  0  0  0  0  0
   -3.8680   25.3040  -30.5220 O   0  0  0  0  0  0  0  0  0  0  0  0
   -3.5420   24.4450  -29.4510 C   0  0  0  0  0  0  0  0  0  0  0  0
   -4.3080   23.1110  -29.5670 C   0  0  0  0  0  0  0  0  0  0  0  0
   -9.1000   19.5020  -31.7290 N   0  0  0  0  0  0  0  0  0  0  0  0
   -8.4660   18.3660  -31.9680 N   0  0  0  0  0  0  0  0  0  0  0  0
   -7.2370   18.6600  -32.4290 C   0  0  0  0  0  0  0  0  0  0  0  0
   -6.2650   17.6410  -32.8660 C   0  0  0  0  0  0  0  0  0  0  0  0
   -5.8190   16.6730  -31.9540 C   0  0  0  0  0  0  0  0  0  0  0  0
   -4.8930   15.7040  -32.3520 C   0  0  0  0  0  0  0  0  0  0  0  0
   -4.3970   15.7050  -33.6590 C   0  0  0  0  0  0  0  0  0  0  0  0
   -4.8210   16.6780  -34.5670 C   0  0  0  0  0  0  0  0  0  0  0  0
   -5.7480   17.6500  -34.1740 C   0  0  0  0  0  0  0  0  0  0  0  0
   -6.1110   18.6180  -35.0540 F   0  0  0  0  0  0  0  0  0  0  0  0
   -4.7510   20.4336  -31.3862 H   0  0  0  0  0  0  0  0  0  0  0  0
   -4.3207   19.3983  -32.7896 H   0  0  0  0  0  0  0  0  0  0  0  0
   -3.8802   21.1397  -32.7896 H   0  0  0  0  0  0  0  0  0  0  0  0
   -6.1610   21.8207  -33.0378 H   0  0  0  0  0  0  0  0  0  0  0  0
   -5.9253   20.4637  -34.2003 H   0  0  0  0  0  0  0  0  0  0  0  0
   -7.8897   23.5945  -30.1379 H   0  0  0  0  0  0  0  0  0  0  0  0
   -8.3718   21.9235  -29.6103 H   0  0  0  0  0  0  0  0  0  0  0  0
   -6.1568   21.5466  -29.4365 H   0  0  0  0  0  0  0  0  0  0  0  0
   -6.2157   21.4230  -31.2446 H   0  0  0  0  0  0  0  0  0  0  0  0
   -7.0103   24.5785  -30.9597 H   0  0  0  0  0  0  0  0  0  0  0  0
   -6.5624   24.4868  -29.2168 H   0  0  0  0  0  0  0  0  0  0  0  0
   -5.5052   26.2331  -31.3419 H   0  0  0  0  0  0  0  0  0  0  0  0
   -5.3264   26.3338  -29.5341 H   0  0  0  0  0  0  0  0  0  0  0  0
   -2.4609   24.2428  -29.4670 H   0  0  0  0  0  0  0  0  0  0  0  0
   -3.8258   24.9340  -28.5074 H   0  0  0  0  0  0  0  0  0  0  0  0
   -3.6234   22.3356  -29.9412 H   0  0  0  0  0  0  0  0  0  0  0  0
   -4.6919   22.8422  -28.5718 H   0  0  0  0  0  0  0  0  0  0  0  0
   -8.8760   17.4160  -31.8260 H   0  0  0  0  0  0  0  0  0  0  0  0
   -6.1992   16.6763  -30.9218 H   0  0  0  0  0  0  0  0  0  0  0  0
   -4.5545   14.9404  -31.6362 H   0  0  0  0  0  0  0  0  0  0  0  0
   -3.6724   14.9391  -33.9725 H   0  0  0  0  0  0  0  0  0  0  0  0
   -4.4254   16.6803  -35.5934 H   0  0  0  0  0  0  0  0  0  0  0  0
  1  2  1  0
  2  3  1  0
  3  4  1  0
  4  5  1  0
  5  6  1  0
  6  7  1  0
  7  8  1  0
  8  9  1  0
  9 10  1  0
 10 11  1  0
 11 12  1  0
 12 13  1  0
  4 14  2  0
 14 15  1  0
 15 16  2  0
 16 17  1  0
 17 18  2  0
 18 19  1  0
 19 20  2  0
 20 21  1  0
 21 22  2  0
 22 23  1  0
 16  3  1  0
 22 17  1  0
 13  8  1  0
  1 24  1  0
  1 25  1  0
  1 26  1  0
  2 27  1  0
  2 28  1  0
  6 29  1  0
  6 30  1  0
  7 31  1  0
  7 32  1  0
  9 33  1  0
  9 34  1  0
 10 35  1  0
 10 36  1  0
 12 37  1  0
 12 38  1  0
 13 39  1  0
 13 40  1  0
 15 41  1  0
 18 42  1  0
 19 43  1  0
 20 44  1  0
 21 45  1  0
M  CHG  1  15   1
M  END
>  <UniqueID>  (9) 
9

>  <SMILES>  (9) 
CCn1c(SCCN2CCOCC2)n[nH+]c1-c1ccccc1F

>  <Energy>  (9) 
88.46904664525783

>  <Genealogy>  (9) 
CCn1c(SCCN2CCOCC2)n[nH+]c1-c1ccccc1F (protonated)
CCn1c(SCCN2CCOCC2)n[nH+]c1-c1ccccc1F (3D coordinates assigned)
CCn1c(SCCN2CCOCC2)n[nH+]c1-c1ccccc1F (nonaromatic ring conformer: 88.46904664525783 kcal/mol)

>  <smiles>  (9) 
CCn1c(SCCN2CCOCC2)nnc1-c1ccccc1F

>  <score_type>  (9) 
oracle

>  <origin>  (9) 
adg

>  <m_score__min__energy>  (9) 
-8.2799999999999994

>  <m_primary>  (9) 
energy

$$$$
9:0
     RDKit          3D

 48 50  0  0  0  0  0  0  0  0999 V2000
   -8.4270   19.4760  -31.5800 C   0  0  0  0  0  0  0  0  0  0  0  0
   -9.4480   20.2950  -32.3650 C   0  0  0  0  0  0  0  0  0  0  0  0
   -9.4420   21.7590  -31.9190 C   0  0  0  0  0  0  0  0  0  0  0  0
   -8.0530   22.1920  -31.5720 C   0  0  0  0  0  0  0  0  0  0  0  0
   -6.9930   22.0620  -32.4090 N   0  0  0  0  0  0  0  0  0  0  0  0
   -5.9680   22.5430  -31.6860 C   0  0  0  0  0  0  0  0  0  0  0  0
   -4.6210   22.6720  -32.0200 C   0  0  0  0  0  0  0  0  0  0  0  0
   -4.1160   22.2690  -33.3010 N   0  0  0  0  0  0  0  0  0  0  0  0
   -3.3540   21.0310  -33.4600 C   0  0  0  0  0  0  0  0  0  0  0  0
   -4.2480   19.8100  -33.2760 C   0  0  0  0  0  0  0  0  0  0  0  0
   -3.7860   23.2050  -31.0760 N   0  0  0  0  0  0  0  0  0  0  0  0
   -4.2180   23.6040  -29.8340 C   0  0  0  0  0  0  0  0  0  0  0  0
   -3.2730   24.1630  -28.8990 N   0  0  0  0  0  0  0  0  0  0  0  0
   -3.6760   24.5430  -27.5380 C   0  0  0  0  0  0  0  0  0  0  0  0
   -2.4820   24.4390  -26.5770 C   0  0  0  0  0  0  0  0  0  0  0  0
   -1.2940   25.2090  -27.0250 N   0  0  0  0  0  0  0  0  0  0  0  0
   -1.1620   26.4720  -26.2820 C   0  0  0  0  0  0  0  0  0  0  0  0
   -1.2310   25.4600  -28.4850 C   0  0  0  0  0  0  0  0  0  0  0  0
   -1.8690   24.3280  -29.2950 C   0  0  0  0  0  0  0  0  0  0  0  0
   -5.5900   23.4760  -29.5010 C   0  0  0  0  0  0  0  0  0  0  0  0
   -6.4280   22.9350  -30.4680 C   0  0  0  0  0  0  0  0  0  0  0  0
   -7.7180   22.7130  -30.4030 O   0  0  0  0  0  0  0  0  0  0  0  0
   -8.5978   19.6130  -30.5020 H   0  0  0  0  0  0  0  0  0  0  0  0
   -8.5357   18.4118  -31.8361 H   0  0  0  0  0  0  0  0  0  0  0  0
   -7.4117   19.8130  -31.8361 H   0  0  0  0  0  0  0  0  0  0  0  0
   -9.2016   20.2449  -33.4359 H   0  0  0  0  0  0  0  0  0  0  0  0
  -10.4483   19.8774  -32.1779 H   0  0  0  0  0  0  0  0  0  0  0  0
   -9.8246   22.3885  -32.7360 H   0  0  0  0  0  0  0  0  0  0  0  0
  -10.0814   21.8641  -31.0301 H   0  0  0  0  0  0  0  0  0  0  0  0
   -6.9880   21.6740  -33.3780 H   0  0  0  0  0  0  0  0  0  0  0  0
   -4.2960   22.8720  -34.1350 H   0  0  0  0  0  0  0  0  0  0  0  0
   -2.9148   21.0062  -34.4682 H   0  0  0  0  0  0  0  0  0  0  0  0
   -2.5647   21.0052  -32.6942 H   0  0  0  0  0  0  0  0  0  0  0  0
   -4.3891   19.6173  -32.2022 H   0  0  0  0  0  0  0  0  0  0  0  0
   -5.2247   19.9964  -33.7465 H   0  0  0  0  0  0  0  0  0  0  0  0
   -3.7753   18.9352  -33.7465 H   0  0  0  0  0  0  0  0  0  0  0  0
   -4.0460   25.5789  -27.5455 H   0  0  0  0  0  0  0  0  0  0  0  0
   -4.4687   23.8608  -27.1971 H   0  0  0  0  0  0  0  0  0  0  0  0
   -2.7928   24.8192  -25.5927 H   0  0  0  0  0  0  0  0  0  0  0  0
   -2.1869   23.3800  -26.5401 H   0  0  0  0  0  0  0  0  0  0  0  0
   -1.1835   26.2659  -25.2017 H   0  0  0  0  0  0  0  0  0  0  0  0
   -0.2086   26.9539  -26.5444 H   0  0  0  0  0  0  0  0  0  0  0  0
   -1.9952   27.1406  -26.5444 H   0  0  0  0  0  0  0  0  0  0  0  0
   -1.7626   26.3972  -28.7065 H   0  0  0  0  0  0  0  0  0  0  0  0
   -0.1708   25.5237  -28.7711 H   0  0  0  0  0  0  0  0  0  0  0  0
   -1.8181   24.5720  -30.3664 H   0  0  0  0  0  0  0  0  0  0  0  0
   -1.3248   23.3918  -29.1017 H   0  0  0  0  0  0  0  0  0  0  0  0
   -5.9743   23.7913  -28.5197 H   0  0  0  0  0  0  0  0  0  0  0  0
  1  2  1  0
  2  3  1  0
  3  4  1  0
  4  5  2  0
  5  6  1  0
  6  7  2  0
  7  8  1  0
  8  9  1  0
  9 10  1  0
  7 11  1  0
 11 12  2  0
 12 13  1  0
 13 14  1  0
 14 15  1  0
 15 16  1  0
 16 17  1  0
 16 18  1  0
 18 19  1  0
 12 20  1  0
 20 21  2  0
 21 22  1  0
 22  4  1  0
 21  6  1  0
 19 13  1  0
  1 23  1  0
  1 24  1  0
  1 25  1  0
  2 26  1  0
  2 27  1  0
  3 28  1  0
  3 29  1  0
  5 30  1  0
  8 31  1  0
  9 32  1  0
  9 33  1  0
 10 34  1  0
 10 35  1  0
 10 36  1  0
 14 37  1  0
 14 38  1  0
 15 39  1  0
 15 40  1  0
 17 41  1  0
 17 42  1  0
 17 43  1  0
 18 44  1  0
 18 45  1  0
 19 46  1  0
 19 47  1  0
 20 48  1  0
M  CHG  1   5   1
M  END
>  <UniqueID>  (10) 
10

>  <SMILES>  (10) 
CCCc1[nH+]c2c(NCC)nc(N3CCN(C)CC3)cc2o1

>  <Energy>  (10) 
85.54783324117895

>  <Genealogy>  (10) 
CCCc1[nH+]c2c(NCC)nc(N3CCN(C)CC3)cc2o1 (protonated)
CCCc1[nH+]c2c(NCC)nc(N3CCN(C)CC3)cc2o1 (3D coordinates assigned)
CCCc1[nH+]c2c(NCC)nc(N3CCN(C)CC3)cc2o1 (nonaromatic ring conformer: 85.54783324117895 kcal/mol)

>  <smiles>  (10) 
CCCc1nc2c(NCC)nc(N3CCN(C)CC3)cc2o1

>  <score_type>  (10) 
oracle

>  <origin>  (10) 
adg

>  <m_score__min__energy>  (10) 
-6.1900000000000004

>  <m_primary>  (10) 
energy

$$$$
10:0
     RDKit          3D

 38 38  0  0  0  0  0  0  0  0999 V2000
   -0.9750   24.4510  -28.5500 C   0  0  0  0  0  0  0  0  0  0  0  0
   -2.0260   25.0040  -27.5810 C   0  0  0  0  0  0  0  0  0  0  0  0
   -3.4030   24.5580  -27.9210 N   0  0  2  0  0  0  0  0  0  0  0  0
   -4.2450   24.5180  -26.7070 C   0  0  0  0  0  0  0  0  0  0  0  0
   -3.3840   23.2120  -28.5520 C   0  0  0  0  0  0  0  0  0  0  0  0
   -3.5980   23.2570  -30.0770 C   0  0  0  0  0  0  0  0  0  0  0  0
   -4.1270   24.5680  -30.4840 N   0  0  0  0  0  0  0  0  0  0  0  0
   -5.5050   24.4660  -30.9890 C   0  0  0  0  0  0  0  0  0  0  0  0
   -5.5880   23.5130  -32.1910 C   0  0  0  0  0  0  0  0  0  0  0  0
   -6.7520   22.5580  -32.0660 C   0  0  0  0  0  0  0  0  0  0  0  0
   -8.0080   23.0590  -31.6780 C   0  0  0  0  0  0  0  0  0  0  0  0
   -9.1140   22.2100  -31.5860 C   0  0  0  0  0  0  0  0  0  0  0  0
   -8.9810   20.8540  -31.8860 C   0  0  0  0  0  0  0  0  0  0  0  0
   -7.7430   20.3430  -32.2810 C   0  0  0  0  0  0  0  0  0  0  0  0
   -6.6270   21.1840  -32.3780 C   0  0  0  0  0  0  0  0  0  0  0  0
   -4.9650   20.4060  -32.9390 Br  0  0  0  0  0  0  0  0  0  0  0  0
   -0.1434   24.0134  -27.9782 H   0  0  0  0  0  0  0  0  0  0  0  0
   -1.4319   23.6765  -29.1836 H   0  0  0  0  0  0  0  0  0  0  0  0
   -0.5955   25.2662  -29.1836 H   0  0  0  0  0  0  0  0  0  0  0  0
   -1.7845   24.6601  -26.5645 H   0  0  0  0  0  0  0  0  0  0  0  0
   -2.0024   26.1014  -27.6523 H   0  0  0  0  0  0  0  0  0  0  0  0
   -3.8430   25.2430  -28.5780 H   0  0  0  0  0  0  0  0  0  0  0  0
   -3.6030   24.5485  -25.8143 H   0  0  0  0  0  0  0  0  0  0  0  0
   -4.9220   25.3850  -26.7016 H   0  0  0  0  0  0  0  0  0  0  0  0
   -4.8367   23.5907  -26.7016 H   0  0  0  0  0  0  0  0  0  0  0  0
   -2.4096   22.7437  -28.3488 H   0  0  0  0  0  0  0  0  0  0  0  0
   -4.2157   22.6355  -28.1207 H   0  0  0  0  0  0  0  0  0  0  0  0
   -2.6371   23.0814  -30.5828 H   0  0  0  0  0  0  0  0  0  0  0  0
   -4.3221   22.4781  -30.3580 H   0  0  0  0  0  0  0  0  0  0  0  0
   -3.5350   24.9240  -31.2700 H   0  0  0  0  0  0  0  0  0  0  0  0
   -6.1542   24.0875  -30.1857 H   0  0  0  0  0  0  0  0  0  0  0  0
   -5.8314   25.4650  -31.3138 H   0  0  0  0  0  0  0  0  0  0  0  0
   -5.7105   24.1065  -33.1090 H   0  0  0  0  0  0  0  0  0  0  0  0
   -4.6609   22.9219  -32.2253 H   0  0  0  0  0  0  0  0  0  0  0  0
   -8.1204   24.1282  -31.4451 H   0  0  0  0  0  0  0  0  0  0  0  0
  -10.0904   22.6112  -31.2768 H   0  0  0  0  0  0  0  0  0  0  0  0
   -9.8523   20.1867  -31.8113 H   0  0  0  0  0  0  0  0  0  0  0  0
   -7.6435   19.2733  -32.5175 H   0  0  0  0  0  0  0  0  0  0  0  0
  1  2  1  0
  2  3  1  0
  3  4  1  0
  3  5  1  0
  5  6  1  0
  6  7  1  0
  7  8  1  0
  8  9  1  0
  9 10  1  0
 10 11  2  0
 11 12  1  0
 12 13  2  0
 13 14  1  0
 14 15  2  0
 15 16  1  0
 15 10  1  0
  1 17  1  0
  1 18  1  0
  1 19  1  0
  2 20  1  0
  2 21  1  0
  3 22  1  6
  4 23  1  0
  4 24  1  0
  4 25  1  0
  5 26  1  0
  5 27  1  0
  6 28  1  0
  6 29  1  0
  7 30  1  0
  8 31  1  0
  8 32  1  0
  9 33  1  0
  9 34  1  0
 11 35  1  0
 12 36  1  0
 13 37  1  0
 14 38  1  0
M  CHG  1   3   1
M  END
>  <UniqueID>  (11) 
11

>  <SMILES>  (11) 
CC[N@H+](C)CCNCCc1ccccc1Br

>  <Energy>  (11) 
34.8010328912104

>  <Genealogy>  (11) 
CC[NH+](C)CCNCCc1ccccc1Br (protonated)
CC[N@H+](C)CCNCCc1ccccc1Br (chirality)
CC[N@H+](C)CCNCCc1ccccc1Br (3D coordinates assigned)
CC[N@H+](C)CCNCCc1ccccc1Br (optimized conformer: 34.8010328912104 kcal/mol)

>  <smiles>  (11) 
CCN(C)CCNCCc1ccccc1Br

>  <score_type>  (11) 
oracle

>  <origin>  (11) 
adg

>  <m_score__min__energy>  (11) 
-5.8399999999999999

>  <m_primary>  (11) 
energy

$$$$
11:0
     RDKit          3D

 53 55  0  0  0  0  0  0  0  0999 V2000
   -6.3580   24.9370  -30.0260 C   0  0  0  0  0  0  0  0  0  0  0  0
   -5.7530   24.2610  -31.2500 C   0  0  0  0  0  0  0  0  0  0  0  0
   -4.2840   24.2720  -31.1640 N   0  0  0  0  0  0  0  0  0  0  0  0
   -3.7990   24.4120  -29.7800 C   0  0  0  0  0  0  0  0  0  0  0  0
   -2.4970   23.6350  -29.5380 C   0  0  0  0  0  0  0  0  0  0  0  0
   -2.3680   22.6060  -30.5000 O   0  0  0  0  0  0  0  0  0  0  0  0
   -2.4070   21.3340  -29.8880 C   0  0  0  0  0  0  0  0  0  0  0  0
   -3.7000   20.6040  -30.2890 C   0  0  0  0  0  0  0  0  0  0  0  0
   -4.5470   21.4030  -31.2010 N   0  0  0  0  0  0  0  0  0  0  0  0
   -5.2700   20.5730  -32.1580 C   0  0  0  0  0  0  0  0  0  0  0  0
   -6.6830   20.5270  -32.1420 C   0  0  0  0  0  0  0  0  0  0  0  0
   -7.4510   21.6060  -31.6540 C   0  0  0  0  0  0  0  0  0  0  0  0
   -8.8430   21.5500  -31.6590 C   0  0  0  0  0  0  0  0  0  0  0  0
   -9.4930   20.4270  -32.1580 C   0  0  0  0  0  0  0  0  0  0  0  0
   -8.7550   19.3440  -32.6340 C   0  0  0  0  0  0  0  0  0  0  0  0
   -7.3380   19.3610  -32.6120 C   0  0  0  0  0  0  0  0  0  0  0  0
   -6.5950   18.2720  -33.0160 N   0  0  0  0  0  0  0  0  0  0  0  0
   -7.2270   16.9390  -33.1130 C   0  0  0  0  0  0  0  0  0  0  0  0
   -5.2590   18.4370  -33.3330 C   0  0  0  0  0  0  0  0  0  0  0  0
   -4.5360   17.4310  -34.0160 C   0  0  0  0  0  0  0  0  0  0  0  0
   -3.1990   17.6110  -34.3500 C   0  0  0  0  0  0  0  0  0  0  0  0
   -2.5690   18.8220  -34.1010 C   0  0  0  0  0  0  0  0  0  0  0  0
   -1.3060   19.0050  -34.5600 F   0  0  0  0  0  0  0  0  0  0  0  0
   -3.2630   19.8690  -33.4730 C   0  0  0  0  0  0  0  0  0  0  0  0
   -2.6870   21.1870  -33.5160 N   0  0  0  0  0  0  0  0  0  0  0  0
   -1.4470   21.3300  -33.5310 O   0  0  0  0  0  0  0  0  0  0  0  0
   -3.4880   22.3010  -33.4220 O   0  0  0  0  0  0  0  0  0  0  0  0
   -4.5870   19.6440  -32.9860 C   0  0  0  0  0  0  0  0  0  0  0  0
   -5.9480   24.4788  -29.1139 H   0  0  0  0  0  0  0  0  0  0  0  0
   -6.1122   26.0091  -30.0402 H   0  0  0  0  0  0  0  0  0  0  0  0
   -7.4507   24.8112  -30.0402 H   0  0  0  0  0  0  0  0  0  0  0  0
   -6.1059   23.2204  -31.3018 H   0  0  0  0  0  0  0  0  0  0  0  0
   -6.0633   24.8088  -32.1520 H   0  0  0  0  0  0  0  0  0  0  0  0
   -3.9080   23.3870  -31.5820 H   0  0  0  0  0  0  0  0  0  0  0  0
   -3.6187   25.4774  -29.5743 H   0  0  0  0  0  0  0  0  0  0  0  0
   -4.5675   23.9983  -29.1104 H   0  0  0  0  0  0  0  0  0  0  0  0
   -1.6413   24.3213  -29.6202 H   0  0  0  0  0  0  0  0  0  0  0  0
   -2.5203   23.1911  -28.5318 H   0  0  0  0  0  0  0  0  0  0  0  0
   -1.5379   20.7443  -30.2151 H   0  0  0  0  0  0  0  0  0  0  0  0
   -2.3816   21.4552  -28.7950 H   0  0  0  0  0  0  0  0  0  0  0  0
   -3.4315   19.6632  -30.7918 H   0  0  0  0  0  0  0  0  0  0  0  0
   -4.2783   20.4238  -29.3708 H   0  0  0  0  0  0  0  0  0  0  0  0
   -3.9020   22.0770  -31.6640 H   0  0  0  0  0  0  0  0  0  0  0  0
   -5.2210   21.9760  -30.6460 H   0  0  0  0  0  0  0  0  0  0  0  0
   -6.9445   22.5017  -31.2652 H   0  0  0  0  0  0  0  0  0  0  0  0
   -9.4283   22.3952  -31.2677 H   0  0  0  0  0  0  0  0  0  0  0  0
  -10.5923   20.3927  -32.1774 H   0  0  0  0  0  0  0  0  0  0  0  0
   -9.2803   18.4635  -33.0324 H   0  0  0  0  0  0  0  0  0  0  0  0
   -7.4129   16.5469  -32.1022 H   0  0  0  0  0  0  0  0  0  0  0  0
   -8.1807   17.0239  -33.6545 H   0  0  0  0  0  0  0  0  0  0  0  0
   -6.5576   16.2544  -33.6545 H   0  0  0  0  0  0  0  0  0  0  0  0
   -5.0399   16.4915  -34.2870 H   0  0  0  0  0  0  0  0  0  0  0  0
   -2.6364   16.7879  -34.8149 H   0  0  0  0  0  0  0  0  0  0  0  0
  1  2  1  0
  2  3  1  0
  3  4  1  0
  4  5  1  0
  5  6  1  0
  6  7  1  0
  7  8  1  0
  8  9  1  0
  9 10  1  0
 10 11  2  0
 11 12  1  0
 12 13  2  0
 13 14  1  0
 14 15  2  0
 15 16  1  0
 16 17  2  0
 17 18  1  0
 17 19  1  0
 19 20  2  0
 20 21  1  0
 21 22  2  0
 22 23  1  0
 22 24  1  0
 24 25  1  0
 25 26  2  0
 25 27  1  0
 24 28  2  0
 28 10  1  0
 16 11  1  0
 28 19  1  0
  1 29  1  0
  1 30  1  0
  1 31  1  0
  2 32  1  0
  2 33  1  0
  3 34  1  0
  4 35  1  0
  4 36  1  0
  5 37  1  0
  5 38  1  0
  7 39  1  0
  7 40  1  0
  8 41  1  0
  8 42  1  0
  9 43  1  0
  9 44  1  0
 12 45  1  0
 13 46  1  0
 14 47  1  0
 15 48  1  0
 18 49  1  0
 18 50  1  0
 18 51  1  0
 20 52  1  0
 21 53  1  0
M  CHG  4   9   1  17   1  25   1  27  -1
M  END
>  <UniqueID>  (12) 
12

>  <SMILES>  (12) 
CCNCCOCC[NH2+]c1c2ccccc2[n+](C)c2ccc(F)c([N+](=O)[O-])c12

>  <Energy>  (12) 
95.1291518831901

>  <Genealogy>  (12) 
CCNCCOCC[NH2+]c1c2ccccc2[n+](C)c2ccc(F)c([N+](=O)[O-])c12 (protonated)
CCNCCOCC[NH2+]c1c2ccccc2[n+](C)c2ccc(F)c([N+](=O)[O-])c12 (3D coordinates assigned)
CCNCCOCC[NH2+]c1c2ccccc2[n+](C)c2ccc(F)c([N+](=O)[O-])c12 (optimized conformer: 95.1291518831901 kcal/mol)

>  <smiles>  (12) 
CCNCCOCCNc1c2ccccc2[n+](C)c2ccc(F)c([N+](=O)[O-])c12

>  <score_type>  (12) 
oracle

>  <origin>  (12) 
adg

>  <m_score__min__energy>  (12) 
-6.2400000000000002

>  <m_primary>  (12) 
energy

$$$$
12:0
     RDKit          3D

 57 58  0  0  0  0  0  0  0  0999 V2000
   -2.9390   19.2260  -26.7200 C   0  0  0  0  0  0  0  0  0  0  0  0
   -1.8010   20.2460  -26.5860 C   0  0  0  0  0  0  0  0  0  0  0  0
   -1.7170   21.1650  -27.7530 N   0  0  1  0  0  0  0  0  0  0  0  0
   -1.7590   20.3780  -29.0010 C   0  0  0  0  0  0  0  0  0  0  0  0
   -2.8240   22.1610  -27.7240 C   0  0  0  0  0  0  0  0  0  0  0  0
   -3.1550   22.7130  -29.1270 C   0  0  0  0  0  0  0  0  0  0  0  0
   -2.7860   24.2020  -29.2650 C   0  0  0  0  0  0  0  0  0  0  0  0
   -3.4960   24.8380  -30.3730 N   0  0  0  0  0  0  0  0  0  0  0  0
   -4.8500   24.5070  -30.6910 C   0  0  0  0  0  0  0  0  0  0  0  0
   -5.4930   23.5970  -31.5260 C   0  0  0  0  0  0  0  0  0  0  0  0
   -5.1320   22.5800  -32.4730 N   0  0  0  0  0  0  0  0  0  0  0  0
   -5.3380   21.1370  -32.3020 C   0  0  0  0  0  0  0  0  0  0  0  0
   -6.8010   20.7310  -32.5640 C   0  0  0  0  0  0  0  0  0  0  0  0
   -6.9190   19.2960  -33.1050 C   0  0  0  0  0  0  0  0  0  0  0  0
   -5.9000   18.4240  -32.4750 N   0  0  0  0  0  0  0  0  0  0  0  0
   -6.1770   16.9750  -32.7110 C   0  0  0  0  0  0  0  0  0  0  0  0
   -4.9830   16.0950  -32.2810 C   0  0  0  0  0  0  0  0  0  0  0  0
   -6.4600   16.6850  -34.2030 C   0  0  0  0  0  0  0  0  0  0  0  0
   -4.5400   18.8090  -32.9500 C   0  0  0  0  0  0  0  0  0  0  0  0
   -4.3460   20.3290  -33.1490 C   0  0  0  0  0  0  0  0  0  0  0  0
   -6.7140   24.0980  -31.1150 C   0  0  0  0  0  0  0  0  0  0  0  0
   -7.9150   23.8510  -31.3970 O   0  0  0  0  0  0  0  0  0  0  0  0
   -6.0790   24.9670  -30.2560 C   0  0  0  0  0  0  0  0  0  0  0  0
   -6.4660   25.8200  -29.4160 O   0  0  0  0  0  0  0  0  0  0  0  0
   -3.2785   18.9217  -25.7189 H   0  0  0  0  0  0  0  0  0  0  0  0
   -3.7767   19.6812  -27.2686 H   0  0  0  0  0  0  0  0  0  0  0  0
   -2.5778   18.3436  -27.2686 H   0  0  0  0  0  0  0  0  0  0  0  0
   -1.9686   20.8438  -25.6780 H   0  0  0  0  0  0  0  0  0  0  0  0
   -0.8557   19.6860  -26.5338 H   0  0  0  0  0  0  0  0  0  0  0  0
   -0.7940   21.6610  -27.7260 H   0  0  0  0  0  0  0  0  0  0  0  0
   -1.8162   19.3069  -28.7573 H   0  0  0  0  0  0  0  0  0  0  0  0
   -2.6429   20.6682  -29.5879 H   0  0  0  0  0  0  0  0  0  0  0  0
   -0.8492   20.5724  -29.5879 H   0  0  0  0  0  0  0  0  0  0  0  0
   -3.7230   21.6783  -27.3131 H   0  0  0  0  0  0  0  0  0  0  0  0
   -2.4991   23.0059  -27.0990 H   0  0  0  0  0  0  0  0  0  0  0  0
   -2.5925   22.1371  -29.8766 H   0  0  0  0  0  0  0  0  0  0  0  0
   -4.2398   22.6168  -29.2819 H   0  0  0  0  0  0  0  0  0  0  0  0
   -3.0463   24.7212  -28.3308 H   0  0  0  0  0  0  0  0  0  0  0  0
   -1.7069   24.2689  -29.4678 H   0  0  0  0  0  0  0  0  0  0  0  0
   -3.0640   25.6730  -30.8230 H   0  0  0  0  0  0  0  0  0  0  0  0
   -4.7690   22.9060  -33.3980 H   0  0  0  0  0  0  0  0  0  0  0  0
   -5.1337   20.8944  -31.2487 H   0  0  0  0  0  0  0  0  0  0  0  0
   -7.3622   20.8009  -31.6205 H   0  0  0  0  0  0  0  0  0  0  0  0
   -7.2091   21.4128  -33.3247 H   0  0  0  0  0  0  0  0  0  0  0  0
   -7.9217   18.9042  -32.8791 H   0  0  0  0  0  0  0  0  0  0  0  0
   -6.7560   19.3089  -34.1928 H   0  0  0  0  0  0  0  0  0  0  0  0
   -7.0635   16.7321  -32.1067 H   0  0  0  0  0  0  0  0  0  0  0  0
   -4.9320   16.0574  -31.1828 H   0  0  0  0  0  0  0  0  0  0  0  0
   -5.1161   15.0774  -32.6769 H   0  0  0  0  0  0  0  0  0  0  0  0
   -4.0504   16.5234  -32.6769 H   0  0  0  0  0  0  0  0  0  0  0  0
   -7.2261   15.8999  -34.2850 H   0  0  0  0  0  0  0  0  0  0  0  0
   -6.8204   17.6016  -34.6928 H   0  0  0  0  0  0  0  0  0  0  0  0
   -5.5348   16.3471  -34.6928 H   0  0  0  0  0  0  0  0  0  0  0  0
   -3.8046   18.4613  -32.2095 H   0  0  0  0  0  0  0  0  0  0  0  0
   -4.4052   18.3411  -33.9363 H   0  0  0  0  0  0  0  0  0  0  0  0
   -3.3212   20.6002  -32.8554 H   0  0  0  0  0  0  0  0  0  0  0  0
   -4.5244   20.5644  -34.2086 H   0  0  0  0  0  0  0  0  0  0  0  0
  1  2  1  0
  2  3  1  0
  3  4  1  0
  3  5  1  0
  5  6  1  0
  6  7  1  0
  7  8  1  0
  8  9  1  0
  9 10  2  0
 10 11  1  0
 11 12  1  0
 12 13  1  0
 13 14  1  0
 14 15  1  0
 15 16  1  0
 16 17  1  0
 16 18  1  0
 15 19  1  0
 19 20  1  0
 10 21  1  0
 21 22  2  0
 21 23  1  0
 23 24  2  0
 23  9  1  0
 20 12  1  0
  1 25  1  0
  1 26  1  0
  1 27  1  0
  2 28  1  0
  2 29  1  0
  3 30  1  1
  4 31  1  0
  4 32  1  0
  4 33  1  0
  5 34  1  0
  5 35  1  0
  6 36  1  0
  6 37  1  0
  7 38  1  0
  7 39  1  0
  8 40  1  0
 11 41  1  0
 12 42  1  0
 13 43  1  0
 13 44  1  0
 14 45  1  0
 14 46  1  0
 16 47  1  0
 17 48  1  0
 17 49  1  0
 17 50  1  0
 18 51  1  0
 18 52  1  0
 18 53  1  0
 19 54  1  0
 19 55  1  0
 20 56  1  0
 20 57  1  0
M  CHG  1   3   1
M  END
>  <UniqueID>  (13) 
13

>  <SMILES>  (13) 
CC[N@@H+](C)CCCNc1c(NC2CCN(C(C)C)CC2)c(=O)c1=O

>  <Energy>  (13) 
58.660556464864676

>  <Genealogy>  (13) 
CC[NH+](C)CCCNc1c(NC2CCN(C(C)C)CC2)c(=O)c1=O (protonated)
CC[N@@H+](C)CCCNc1c(NC2CCN(C(C)C)CC2)c(=O)c1=O (chirality)
CC[N@@H+](C)CCCNc1c(NC2CCN(C(C)C)CC2)c(=O)c1=O (3D coordinates assigned)
CC[N@@H+](C)CCCNc1c(NC2CCN(C(C)C)CC2)c(=O)c1=O (nonaromatic ring conformer: 58.660556464864676 kcal/mol)

>  <smiles>  (13) 
CCN(C)CCCNc1c(NC2CCN(C(C)C)CC2)c(=O)c1=O

>  <score_type>  (13) 
oracle

>  <origin>  (13) 
adg

>  <m_score__min__energy>  (13) 
-7.5300000000000002

>  <m_primary>  (13) 
energy

$$$$
13:0
     RDKit          3D

 56 58  0  0  0  0  0  0  0  0999 V2000
   -3.6130   15.3420  -33.0360 C   0  0  0  0  0  0  0  0  0  0  0  0
   -4.9880   14.6950  -32.9110 C   0  0  0  0  0  0  0  0  0  0  0  0
   -5.6420   14.6460  -34.2260 N   0  0  0  0  0  0  0  0  0  0  0  0
   -6.8760   15.4430  -34.2350 C   0  0  0  0  0  0  0  0  0  0  0  0
   -6.6180   16.8250  -33.6940 C   0  0  0  0  0  0  0  0  0  0  0  0
   -7.1540   17.2050  -32.4560 C   0  0  0  0  0  0  0  0  0  0  0  0
   -6.9020   18.4780  -31.9380 C   0  0  0  0  0  0  0  0  0  0  0  0
   -6.1050   19.3940  -32.6490 C   0  0  0  0  0  0  0  0  0  0  0  0
   -5.8330   20.7460  -32.0980 C   0  0  0  0  0  0  0  0  0  0  0  0
   -4.6490   21.4280  -32.4300 C   0  0  0  0  0  0  0  0  0  0  0  0
   -4.3880   22.6950  -31.9030 C   0  0  0  0  0  0  0  0  0  0  0  0
   -5.3080   23.3030  -31.0380 C   0  0  0  0  0  0  0  0  0  0  0  0
   -4.9510   24.8730  -30.3210 S   0  0  0  0  0  0  0  0  0  0  0  0
   -5.7610   25.9320  -31.0150 O   0  0  0  0  0  0  0  0  0  0  0  0
   -3.4930   25.1970  -30.4990 O   0  0  0  0  0  0  0  0  0  0  0  0
   -5.3420   24.8730  -28.6270 N   0  0  0  0  0  0  0  0  0  0  0  0
   -4.2040   24.3590  -27.8600 C   0  0  0  0  0  0  0  0  0  0  0  0
   -4.1720   22.8200  -27.9320 C   0  0  0  0  0  0  0  0  0  0  0  0
   -2.8080   22.2380  -27.9850 N   0  0  0  0  0  0  0  0  0  0  0  0
   -2.7430   20.9540  -28.6970 C   0  0  0  0  0  0  0  0  0  0  0  0
   -2.0420   21.1800  -30.0310 C   0  0  0  0  0  0  0  0  0  0  0  0
   -1.5420   22.6130  -30.0090 C   0  0  0  0  0  0  0  0  0  0  0  0
   -1.8090   23.1200  -28.6010 C   0  0  0  0  0  0  0  0  0  0  0  0
   -6.4870   22.6290  -30.6990 C   0  0  0  0  0  0  0  0  0  0  0  0
   -6.7490   21.3620  -31.2260 C   0  0  0  0  0  0  0  0  0  0  0  0
   -5.5650   19.0060  -33.8890 C   0  0  0  0  0  0  0  0  0  0  0  0
   -5.8200   17.7320  -34.4060 C   0  0  0  0  0  0  0  0  0  0  0  0
   -3.2054   15.5338  -32.0325 H   0  0  0  0  0  0  0  0  0  0  0  0
   -2.9384   14.6668  -33.5829 H   0  0  0  0  0  0  0  0  0  0  0  0
   -3.7032   16.2922  -33.5829 H   0  0  0  0  0  0  0  0  0  0  0  0
   -4.8753   13.6723  -32.5219 H   0  0  0  0  0  0  0  0  0  0  0  0
   -5.6058   15.2902  -32.2225 H   0  0  0  0  0  0  0  0  0  0  0  0
   -4.9880   15.0760  -34.9220 H   0  0  0  0  0  0  0  0  0  0  0  0
   -7.2477   15.5223  -35.2673 H   0  0  0  0  0  0  0  0  0  0  0  0
   -7.6236   14.9467  -33.5987 H   0  0  0  0  0  0  0  0  0  0  0  0
   -7.7765   16.4972  -31.8890 H   0  0  0  0  0  0  0  0  0  0  0  0
   -7.3301   18.7664  -30.9666 H   0  0  0  0  0  0  0  0  0  0  0  0
   -3.9223   20.9599  -33.1103 H   0  0  0  0  0  0  0  0  0  0  0  0
   -3.4570   23.2175  -32.1679 H   0  0  0  0  0  0  0  0  0  0  0  0
   -6.1420   24.2100  -28.5020 H   0  0  0  0  0  0  0  0  0  0  0  0
   -3.2704   24.7628  -28.2787 H   0  0  0  0  0  0  0  0  0  0  0  0
   -4.3067   24.6693  -26.8097 H   0  0  0  0  0  0  0  0  0  0  0  0
   -4.6812   22.4231  -27.0414 H   0  0  0  0  0  0  0  0  0  0  0  0
   -4.6705   22.5388  -28.8714 H   0  0  0  0  0  0  0  0  0  0  0  0
   -2.1768   20.2253  -28.0983 H   0  0  0  0  0  0  0  0  0  0  0  0
   -3.7572   20.5622  -28.8641 H   0  0  0  0  0  0  0  0  0  0  0  0
   -1.1980   20.4832  -30.1411 H   0  0  0  0  0  0  0  0  0  0  0  0
   -2.7237   21.0062  -30.8766 H   0  0  0  0  0  0  0  0  0  0  0  0
   -0.4652   22.6470  -30.2312 H   0  0  0  0  0  0  0  0  0  0  0  0
   -2.0472   23.2311  -30.7658 H   0  0  0  0  0  0  0  0  0  0  0  0
   -0.8791   23.0989  -28.0137 H   0  0  0  0  0  0  0  0  0  0  0  0
   -2.1788   24.1556  -28.6306 H   0  0  0  0  0  0  0  0  0  0  0  0
   -7.2096   23.0985  -30.0154 H   0  0  0  0  0  0  0  0  0  0  0  0
   -7.6798   20.8414  -30.9567 H   0  0  0  0  0  0  0  0  0  0  0  0
   -4.9378   19.7098  -34.4557 H   0  0  0  0  0  0  0  0  0  0  0  0
   -5.3923   17.4397  -35.3764 H   0  0  0  0  0  0  0  0  0  0  0  0
  1  2  1  0
  2  3  1  0
  3  4  1  0
  4  5  1  0
  5  6  2  0
  6  7  1  0
  7  8  2  0
  8  9  1  0
  9 10  2  0
 10 11  1  0
 11 12  2  0
 12 13  1  0
 13 14  2  0
 13 15  2  0
 13 16  1  0
 16 17  1  0
 17 18  1  0
 18 19  1  0
 19 20  1  0
 20 21  1  0
 21 22  1  0
 22 23  1  0
 12 24  1  0
 24 25  2  0
  8 26  1  0
 26 27  2  0
 27  5  1  0
 25  9  1  0
 23 19  1  0
  1 28  1  0
  1 29  1  0
  1 30  1  0
  2 31  1  0
  2 32  1  0
  3 33  1  0
  4 34  1  0
  4 35  1  0
  6 36  1  0
  7 37  1  0
 10 38  1  0
 11 39  1  0
 16 40  1  0
 17 41  1  0
 17 42  1  0
 18 43  1  0
 18 44  1  0
 20 45  1  0
 20 46  1  0
 21 47  1  0
 21 48  1  0
 22 49  1  0
 22 50  1  0
 23 51  1  0
 23 52  1  0
 24 53  1  0
 25 54  1  0
 26 55  1  0
 27 56  1  0
M  END
>  <UniqueID>  (14) 
14

>  <SMILES>  (14) 
CCNCc1ccc(-c2ccc(S(=O)(=O)NCCN3CCCC3)cc2)cc1

>  <Energy>  (14) 
58.159550484843045

>  <Genealogy>  (14) 
CCNCc1ccc(-c2ccc(S(=O)(=O)NCCN3CCCC3)cc2)cc1 (3D coordinates assigned)
CCNCc1ccc(-c2ccc(S(=O)(=O)NCCN3CCCC3)cc2)cc1 (nonaromatic ring conformer: 58.159550484843045 kcal/mol)

>  <smiles>  (14) 
CCNCc1ccc(-c2ccc(S(=O)(=O)NCCN3CCCC3)cc2)cc1

>  <score_type>  (14) 
oracle

>  <origin>  (14) 
adg

>  <m_score__min__energy>  (14) 
-9.3000000000000007

>  <m_primary>  (14) 
energy

$$$$
14:0
     RDKit          3D

 27 26  0  0  0  0  0  0  0  0999 V2000
   -9.0050   22.4720  -31.9250 C   0  0  0  0  0  0  0  0  0  0  0  0
   -7.6530   21.7490  -31.9010 C   0  0  0  0  0  0  0  0  0  0  0  0
   -6.5350   22.5890  -32.4010 N   0  0  0  0  0  0  0  0  0  0  0  0
   -5.1840   21.9660  -32.3210 C   0  0  0  0  0  0  0  0  0  0  0  0
   -5.0200   20.6440  -33.0800 C   0  0  0  0  0  0  0  0  0  0  0  0
   -6.5730   23.9930  -31.9010 C   0  0  0  0  0  0  0  0  0  0  0  0
   -6.0600   24.2110  -30.4420 C   0  0  2  0  0  0  0  0  0  0  0  0
   -6.8630   25.2930  -29.7060 C   0  0  0  0  0  0  0  0  0  0  0  0
   -4.6400   24.6050  -30.4540 C   0  0  0  0  0  0  0  0  0  0  0  0
   -3.5250   24.9140  -30.4620 N   0  0  0  0  0  0  0  0  0  0  0  0
   -9.3426   22.6525  -30.8938 H   0  0  0  0  0  0  0  0  0  0  0  0
   -8.8976   23.4331  -32.4492 H   0  0  0  0  0  0  0  0  0  0  0  0
   -9.7447   21.8491  -32.4492 H   0  0  0  0  0  0  0  0  0  0  0  0
   -7.4324   21.4531  -30.8648 H   0  0  0  0  0  0  0  0  0  0  0  0
   -7.7341   20.8789  -32.5690 H   0  0  0  0  0  0  0  0  0  0  0  0
   -6.7060   22.6850  -33.4320 H   0  0  0  0  0  0  0  0  0  0  0  0
   -4.4557   22.6829  -32.7280 H   0  0  0  0  0  0  0  0  0  0  0  0
   -5.0248   21.7261  -31.2593 H   0  0  0  0  0  0  0  0  0  0  0  0
   -4.9176   19.8183  -32.3604 H   0  0  0  0  0  0  0  0  0  0  0  0
   -5.9037   20.4720  -33.7121 H   0  0  0  0  0  0  0  0  0  0  0  0
   -4.1211   20.6932  -33.7121 H   0  0  0  0  0  0  0  0  0  0  0  0
   -5.9533   24.6065  -32.5715 H   0  0  0  0  0  0  0  0  0  0  0  0
   -7.6359   24.2762  -31.8885 H   0  0  0  0  0  0  0  0  0  0  0  0
   -6.1886   23.2562  -29.9111 H   0  0  0  0  0  0  0  0  0  0  0  0
   -6.7585   25.1522  -28.6201 H   0  0  0  0  0  0  0  0  0  0  0  0
   -6.4817   26.2863  -29.9853 H   0  0  0  0  0  0  0  0  0  0  0  0
   -7.9241   25.2158  -29.9853 H   0  0  0  0  0  0  0  0  0  0  0  0
  1  2  1  0
  2  3  1  0
  3  4  1  0
  4  5  1  0
  3  6  1  0
  6  7  1  0
  7  8  1  0
  7  9  1  0
  9 10  3  0
  1 11  1  0
  1 12  1  0
  1 13  1  0
  2 14  1  0
  2 15  1  0
  3 16  1  0
  4 17  1  0
  4 18  1  0
  5 19  1  0
  5 20  1  0
  5 21  1  0
  6 22  1  0
  6 23  1  0
  7 24  1  1
  8 25  1  0
  8 26  1  0
  8 27  1  0
M  CHG  1   3   1
M  END
>  <UniqueID>  (15) 
15

>  <SMILES>  (15) 
CC[NH+](CC)C[C@H](C)C#N

>  <Energy>  (15) 
29.68449022749197

>  <Genealogy>  (15) 
CC[NH+](CC)CC(C)C#N (protonated)
CC[NH+](CC)C[C@H](C)C#N (chirality)
CC[NH+](CC)C[C@H](C)C#N (3D coordinates assigned)
CC[NH+](CC)C[C@H](C)C#N (optimized conformer: 29.68449022749197 kcal/mol)

>  <smiles>  (15) 
CCN(CC)CC(C)C#N

>  <score_type>  (15) 
oracle

>  <origin>  (15) 
adg

>  <m_score__min__energy>  (15) 
-3.6800000000000002

>  <m_primary>  (15) 
energy

$$$$
15:0
     RDKit          3D

 46 46  0  0  0  0  0  0  0  0999 V2000
   -8.6970   20.0180  -31.8410 C   0  0  0  0  0  0  0  0  0  0  0  0
   -7.8070   20.2960  -33.0480 C   0  0  0  0  0  0  0  0  0  0  0  0
   -6.9830   21.4200  -32.7910 O   0  0  0  0  0  0  0  0  0  0  0  0
   -7.5690   22.2520  -31.8110 C   0  0  0  0  0  0  0  0  0  0  0  0
   -6.8820   23.6150  -31.8310 C   0  0  0  0  0  0  0  0  0  0  0  0
   -5.5090   23.4850  -32.3390 N   0  0  0  0  0  0  0  0  0  0  0  0
   -4.6240   22.7890  -31.3760 C   0  0  1  0  0  0  0  0  0  0  0  0
   -3.5510   21.9530  -32.1220 C   0  0  0  0  0  0  0  0  0  0  0  0
   -4.0080   21.5100  -33.4500 N   0  0  0  0  0  0  0  0  0  0  0  0
   -3.8520   20.0800  -33.5680 C   0  0  0  0  0  0  0  0  0  0  0  0
   -4.9670   19.2320  -33.4310 C   0  0  0  0  0  0  0  0  0  0  0  0
   -4.8400   17.8420  -33.6050 C   0  0  0  0  0  0  0  0  0  0  0  0
   -6.0300   16.9380  -33.4040 C   0  0  0  0  0  0  0  0  0  0  0  0
   -6.8680   17.4460  -32.4230 F   0  0  0  0  0  0  0  0  0  0  0  0
   -5.5910   15.6860  -33.0170 F   0  0  0  0  0  0  0  0  0  0  0  0
   -6.7610   16.8180  -34.5740 F   0  0  0  0  0  0  0  0  0  0  0  0
   -3.5700   17.3000  -33.8690 C   0  0  0  0  0  0  0  0  0  0  0  0
   -2.4580   18.1340  -34.0000 C   0  0  0  0  0  0  0  0  0  0  0  0
   -2.5960   19.5180  -33.8670 C   0  0  0  0  0  0  0  0  0  0  0  0
   -1.5030   20.3080  -34.0130 F   0  0  0  0  0  0  0  0  0  0  0  0
   -3.9800   23.8440  -30.4530 C   0  0  0  0  0  0  0  0  0  0  0  0
   -4.3040   25.1550  -30.8810 O   0  0  0  0  0  0  0  0  0  0  0  0
   -5.3810   25.6700  -30.1270 C   0  0  0  0  0  0  0  0  0  0  0  0
   -8.1276   20.1959  -30.9168 H   0  0  0  0  0  0  0  0  0  0  0  0
   -9.5704   20.6861  -31.8678 H   0  0  0  0  0  0  0  0  0  0  0  0
   -9.0349   18.9715  -31.8678 H   0  0  0  0  0  0  0  0  0  0  0  0
   -7.1748   19.4177  -33.2450 H   0  0  0  0  0  0  0  0  0  0  0  0
   -8.4392   20.5031  -33.9241 H   0  0  0  0  0  0  0  0  0  0  0  0
   -8.6401   22.3771  -32.0278 H   0  0  0  0  0  0  0  0  0  0  0  0
   -7.4494   21.7933  -30.8184 H   0  0  0  0  0  0  0  0  0  0  0  0
   -7.4474   24.2971  -32.4829 H   0  0  0  0  0  0  0  0  0  0  0  0
   -6.8490   24.0149  -30.8068 H   0  0  0  0  0  0  0  0  0  0  0  0
   -5.5290   22.9960  -33.2650 H   0  0  0  0  0  0  0  0  0  0  0  0
   -5.2098   22.0853  -30.7664 H   0  0  0  0  0  0  0  0  0  0  0  0
   -2.6475   22.5680  -32.2463 H   0  0  0  0  0  0  0  0  0  0  0  0
   -3.3475   21.0548  -31.5204 H   0  0  0  0  0  0  0  0  0  0  0  0
   -3.4510   21.9880  -34.1960 H   0  0  0  0  0  0  0  0  0  0  0  0
   -5.0140   21.7590  -33.5920 H   0  0  0  0  0  0  0  0  0  0  0  0
   -5.9494   19.6614  -33.1849 H   0  0  0  0  0  0  0  0  0  0  0  0
   -3.4516   16.2114  -33.9731 H   0  0  0  0  0  0  0  0  0  0  0  0
   -1.4692   17.6997  -34.2088 H   0  0  0  0  0  0  0  0  0  0  0  0
   -4.3492   23.6985  -29.4271 H   0  0  0  0  0  0  0  0  0  0  0  0
   -2.8873   23.7224  -30.4888 H   0  0  0  0  0  0  0  0  0  0  0  0
   -5.1610   25.5648  -29.0544 H   0  0  0  0  0  0  0  0  0  0  0  0
   -5.5230   26.7335  -30.3696 H   0  0  0  0  0  0  0  0  0  0  0  0
   -6.2980   25.1129  -30.3696 H   0  0  0  0  0  0  0  0  0  0  0  0
  1  2  1  0
  2  3  1  0
  3  4  1  0
  4  5  1  0
  5  6  1  0
  6  7  1  0
  7  8  1  0
  8  9  1  0
  9 10  1  0
 10 11  2  0
 11 12  1  0
 12 13  1  0
 13 14  1  0
 13 15  1  0
 13 16  1  0
 12 17  2  0
 17 18  1  0
 18 19  2  0
 19 20  1  0
  7 21  1  0
 21 22  1  0
 22 23  1  0
 19 10  1  0
  1 24  1  0
  1 25  1  0
  1 26  1  0
  2 27  1  0
  2 28  1  0
  4 29  1  0
  4 30  1  0
  5 31  1  0
  5 32  1  0
  6 33  1  0
  7 34  1  1
  8 35  1  0
  8 36  1  0
  9 37  1  0
  9 38  1  0
 11 39  1  0
 17 40  1  0
 18 41  1  0
 21 42  1  0
 21 43  1  0
 23 44  1  0
 23 45  1  0
 23 46  1  0
M  CHG  1   9   1
M  END
>  <UniqueID>  (16) 
16

>  <SMILES>  (16) 
CCOCCN[C@@H](C[NH2+]c1cc(C(F)(F)F)ccc1F)COC

>  <Energy>  (16) 
44.46305048272472

>  <Genealogy>  (16) 
CCOCCNC(C[NH2+]c1cc(C(F)(F)F)ccc1F)COC (protonated)
CCOCCN[C@@H](C[NH2+]c1cc(C(F)(F)F)ccc1F)COC (chirality)
CCOCCN[C@@H](C[NH2+]c1cc(C(F)(F)F)ccc1F)COC (3D coordinates assigned)
CCOCCN[C@@H](C[NH2+]c1cc(C(F)(F)F)ccc1F)COC (optimized conformer: 44.46305048272472 kcal/mol)

>  <smiles>  (16) 
CCOCCNC(CNc1cc(C(F)(F)F)ccc1F)COC

>  <score_type>  (16) 
oracle

>  <origin>  (16) 
adg

>  <m_score__min__energy>  (16) 
-5.6699999999999999

>  <m_primary>  (16) 
energy

$$$$
16:0
     RDKit          3D

 42 44  0  0  0  0  0  0  0  0999 V2000
   -9.1375   23.4536  -31.3852 H   0  0  0  0  0  0  0  0  0  0  0  0
   -8.6900   22.4720  -31.6000 C   0  0  0  0  0  0  0  0  0  0  0  0
   -9.4890   21.1450  -32.2270 S   0  0  0  0  0  0  0  0  0  0  0  0
   -8.1340   20.1600  -32.2200 C   0  0  0  0  0  0  0  0  0  0  0  0
   -8.2300   18.9010  -32.5560 N   0  0  0  0  0  0  0  0  0  0  0  0
   -7.5220   17.7010  -32.1100 C   0  0  0  0  0  0  0  0  0  0  0  0
   -7.1646   17.8598  -31.0819 H   0  0  0  0  0  0  0  0  0  0  0  0
   -8.2213   16.8533  -32.1588 H   0  0  0  0  0  0  0  0  0  0  0  0
   -6.3390   17.3860  -32.9960 C   0  0  0  0  0  0  0  0  0  0  0  0
   -6.1290   18.0750  -34.2020 C   0  0  0  0  0  0  0  0  0  0  0  0
   -6.8484   18.8373  -34.5358 H   0  0  0  0  0  0  0  0  0  0  0  0
   -5.0020   17.7870  -34.9750 C   0  0  0  0  0  0  0  0  0  0  0  0
   -4.8427   18.3121  -35.9284 H   0  0  0  0  0  0  0  0  0  0  0  0
   -4.1000   16.8590  -34.5530 N   0  0  0  0  0  0  0  0  0  0  0  0
   -3.2620   16.6560  -35.1410 H   0  0  0  0  0  0  0  0  0  0  0  0
   -4.2630   16.1990  -33.3750 C   0  0  0  0  0  0  0  0  0  0  0  0
   -3.5155   15.4589  -33.0533 H   0  0  0  0  0  0  0  0  0  0  0  0
   -5.3770   16.4580  -32.5720 C   0  0  0  0  0  0  0  0  0  0  0  0
   -5.4987   15.9361  -31.6114 H   0  0  0  0  0  0  0  0  0  0  0  0
   -7.0240   20.8340  -31.7690 N   0  0  0  0  0  0  0  0  0  0  0  0
   -5.6200   20.4030  -31.9200 C   0  0  0  0  0  0  0  0  0  0  0  0
   -5.5963   19.3184  -32.1018 H   0  0  0  0  0  0  0  0  0  0  0  0
   -5.0791   20.6562  -30.9962 H   0  0  0  0  0  0  0  0  0  0  0  0
   -4.9350   21.1220  -33.0940 C   0  0  0  0  0  0  0  0  0  0  0  0
   -5.5293   22.0081  -33.3617 H   0  0  0  0  0  0  0  0  0  0  0  0
   -4.8718   20.4131  -33.9327 H   0  0  0  0  0  0  0  0  0  0  0  0
   -3.5150   21.5680  -32.7500 C   0  0  0  0  0  0  0  0  0  0  0  0
   -3.3970   21.6051  -31.6570 H   0  0  0  0  0  0  0  0  0  0  0  0
   -2.7936   20.8532  -33.1727 H   0  0  0  0  0  0  0  0  0  0  0  0
   -3.3319   22.5669  -33.1727 H   0  0  0  0  0  0  0  0  0  0  0  0
   -7.3590   22.1180  -31.3970 C   0  0  0  0  0  0  0  0  0  0  0  0
   -6.4110   23.0890  -30.8090 C   0  0  0  0  0  0  0  0  0  0  0  0
   -5.6070   22.7210  -29.7190 C   0  0  0  0  0  0  0  0  0  0  0  0
   -5.6963   21.7129  -29.2879 H   0  0  0  0  0  0  0  0  0  0  0  0
   -4.6930   23.6310  -29.1790 C   0  0  0  0  0  0  0  0  0  0  0  0
   -4.0753   23.3421  -28.3159 H   0  0  0  0  0  0  0  0  0  0  0  0
   -4.5630   24.9070  -29.7340 C   0  0  0  0  0  0  0  0  0  0  0  0
   -3.8467   25.6232  -29.3051 H   0  0  0  0  0  0  0  0  0  0  0  0
   -5.3440   25.2730  -30.8350 C   0  0  0  0  0  0  0  0  0  0  0  0
   -5.2370   26.2752  -31.2756 H   0  0  0  0  0  0  0  0  0  0  0  0
   -6.2600   24.3670  -31.3760 C   0  0  0  0  0  0  0  0  0  0  0  0
   -6.8651   24.6545  -32.2485 H   0  0  0  0  0  0  0  0  0  0  0  0
  1  2  1  0
  2  3  1  0
  3  4  1  0
  4  5  2  0
  5  6  1  0
  6  7  1  0
  6  8  1  0
  6  9  1  0
  9 10  2  0
 10 11  1  0
 10 12  1  0
 12 13  1  0
 12 14  2  0
 14 15  1  0
 14 16  1  0
 16 17  1  0
 16 18  2  0
 18 19  1  0
  4 20  1  0
 20 21  1  0
 21 22  1  0
 21 23  1  0
 21 24  1  0
 24 25  1  0
 24 26  1  0
 24 27  1  0
 27 28  1  0
 27 29  1  0
 27 30  1  0
 20 31  1  0
 31 32  1  0
 32 33  2  0
 33 34  1  0
 33 35  1  0
 35 36  1  0
 35 37  2  0
 37 38  1  0
 37 39  1  0
 39 40  1  0
 39 41  2  0
 41 42  1  0
 31  2  2  0
 41 32  1  0
 18  9  1  0
M  CHG  1  14   1
M  END
>  <UniqueID>  (17) 
17

>  <SMILES>  (17) 
CCCn1c(-c2ccccc2)cs/c1=N/Cc1cc[nH+]cc1

>  <Energy>  (17) 
87.64459487089923

>  <Genealogy>  (17) 
CCCn1c(-c2ccccc2)csc1=NCc1cc[nH+]cc1 (protonated)
CCCn1c(-c2ccccc2)cs/c1=N/Cc1cc[nH+]cc1 (cis-trans isomerization)
CCCn1c(-c2ccccc2)cs/c1=N/Cc1cc[nH+]cc1 (3D coordinates assigned)
CCCn1c(-c2ccccc2)cs/c1=N/Cc1cc[nH+]cc1 (optimized conformer: 87.64459487089923 kcal/mol)

>  <smiles>  (17) 
CCCn1c(-c2ccccc2)csc1=NCc1ccncc1

>  <score_type>  (17) 
oracle

>  <origin>  (17) 
adg

>  <m_score__min__energy>  (17) 
-7.2000000000000002

>  <m_primary>  (17) 
energy

$$$$
17:0
     RDKit          3D

 50 50  0  0  0  0  0  0  0  0999 V2000
   -6.1250   25.2850  -29.6070 C   0  0  0  0  0  0  0  0  0  0  0  0
   -5.2610   25.4110  -30.8580 C   0  0  0  0  0  0  0  0  0  0  0  0
   -3.8790   24.9890  -30.5880 N   0  0  0  0  0  0  0  0  0  0  0  0
   -3.7540   24.3560  -29.2680 C   0  0  0  0  0  0  0  0  0  0  0  0
   -2.5180   23.4530  -29.2200 C   0  0  0  0  0  0  0  0  0  0  0  0
   -2.1040   23.0960  -30.5280 O   0  0  0  0  0  0  0  0  0  0  0  0
   -1.5930   21.7800  -30.5480 C   0  0  0  0  0  0  0  0  0  0  0  0
   -1.3540   21.3340  -31.9930 C   0  0  0  0  0  0  0  0  0  0  0  0
   -2.6050   21.5100  -32.8840 C   0  0  0  0  0  0  0  0  0  0  0  0
   -3.9190   21.1900  -32.1510 C   0  0  0  0  0  0  0  0  0  0  0  0
   -4.6680   22.4110  -31.8150 N   0  0  0  0  0  0  0  0  0  0  0  0
   -6.0010   22.1270  -31.2590 C   0  0  0  0  0  0  0  0  0  0  0  0
   -7.0550   21.8720  -32.3460 C   0  0  0  0  0  0  0  0  0  0  0  0
   -7.0190   20.4240  -32.7610 C   0  0  0  0  0  0  0  0  0  0  0  0
   -7.7070   19.4570  -32.0110 C   0  0  0  0  0  0  0  0  0  0  0  0
   -7.6110   18.1040  -32.3490 C   0  0  0  0  0  0  0  0  0  0  0  0
   -6.8090   17.6980  -33.4250 C   0  0  0  0  0  0  0  0  0  0  0  0
   -6.7260   16.2490  -33.8040 C   0  0  0  0  0  0  0  0  0  0  0  0
   -6.1290   18.6660  -34.1810 C   0  0  0  0  0  0  0  0  0  0  0  0
   -6.2250   20.0180  -33.8440 C   0  0  0  0  0  0  0  0  0  0  0  0
   -5.4911   25.3774  -28.7128 H   0  0  0  0  0  0  0  0  0  0  0  0
   -6.8830   26.0821  -29.6031 H   0  0  0  0  0  0  0  0  0  0  0  0
   -6.6238   24.3046  -29.6031 H   0  0  0  0  0  0  0  0  0  0  0  0
   -5.6824   24.7765  -31.6517 H   0  0  0  0  0  0  0  0  0  0  0  0
   -5.2507   26.4651  -31.1723 H   0  0  0  0  0  0  0  0  0  0  0  0
   -3.6260   24.2710  -31.3080 H   0  0  0  0  0  0  0  0  0  0  0  0
   -3.6613   25.1374  -28.4993 H   0  0  0  0  0  0  0  0  0  0  0  0
   -4.6487   23.7439  -29.0813 H   0  0  0  0  0  0  0  0  0  0  0  0
   -1.6997   23.9883  -28.7163 H   0  0  0  0  0  0  0  0  0  0  0  0
   -2.7726   22.5361  -28.6683 H   0  0  0  0  0  0  0  0  0  0  0  0
   -0.6424   21.7497  -29.9953 H   0  0  0  0  0  0  0  0  0  0  0  0
   -2.3201   21.1027  -30.0762 H   0  0  0  0  0  0  0  0  0  0  0  0
   -0.5336   21.9327  -32.4154 H   0  0  0  0  0  0  0  0  0  0  0  0
   -1.1063   20.2624  -31.9743 H   0  0  0  0  0  0  0  0  0  0  0  0
   -2.6432   22.5530  -33.2314 H   0  0  0  0  0  0  0  0  0  0  0  0
   -2.5147   20.8001  -33.7194 H   0  0  0  0  0  0  0  0  0  0  0  0
   -4.5428   20.5563  -32.7985 H   0  0  0  0  0  0  0  0  0  0  0  0
   -3.6701   20.6723  -31.2129 H   0  0  0  0  0  0  0  0  0  0  0  0
   -4.1120   22.9740  -31.1290 H   0  0  0  0  0  0  0  0  0  0  0  0
   -5.9325   21.2349  -30.6192 H   0  0  0  0  0  0  0  0  0  0  0  0
   -6.3189   23.0129  -30.6896 H   0  0  0  0  0  0  0  0  0  0  0  0
   -8.0528   22.1142  -31.9514 H   0  0  0  0  0  0  0  0  0  0  0  0
   -6.8381   22.5057  -33.2185 H   0  0  0  0  0  0  0  0  0  0  0  0
   -8.3240   19.7652  -31.1541 H   0  0  0  0  0  0  0  0  0  0  0  0
   -8.1675   17.3540  -31.7678 H   0  0  0  0  0  0  0  0  0  0  0  0
   -6.6907   15.6332  -32.8932 H   0  0  0  0  0  0  0  0  0  0  0  0
   -7.6099   15.9742  -34.3984 H   0  0  0  0  0  0  0  0  0  0  0  0
   -5.8165   16.0770  -34.3984 H   0  0  0  0  0  0  0  0  0  0  0  0
   -5.5180   18.3583  -35.0424 H   0  0  0  0  0  0  0  0  0  0  0  0
   -5.6751   20.7685  -34.4309 H   0  0  0  0  0  0  0  0  0  0  0  0
  1  2  1  0
  2  3  1  0
  3  4  1  0
  4  5  1  0
  5  6  1  0
  6  7  1  0
  7  8  1  0
  8  9  1  0
  9 10  1  0
 10 11  1  0
 11 12  1  0
 12 13  1  0
 13 14  1  0
 14 15  2  0
 15 16  1  0
 16 17  2  0
 17 18  1  0
 17 19  1  0
 19 20  2  0
 20 14  1  0
  1 21  1  0
  1 22  1  0
  1 23  1  0
  2 24  1  0
  2 25  1  0
  3 26  1  0
  4 27  1  0
  4 28  1  0
  5 29  1  0
  5 30  1  0
  7 31  1  0
  7 32  1  0
  8 33  1  0
  8 34  1  0
  9 35  1  0
  9 36  1  0
 10 37  1  0
 10 38  1  0
 11 39  1  0
 12 40  1  0
 12 41  1  0
 13 42  1  0
 13 43  1  0
 15 44  1  0
 16 45  1  0
 18 46  1  0
 18 47  1  0
 18 48  1  0
 19 49  1  0
 20 50  1  0
M  END
>  <UniqueID>  (18) 
18

>  <SMILES>  (18) 
CCNCCOCCCCNCCc1ccc(C)cc1

>  <Energy>  (18) 
34.903333902027526

>  <Genealogy>  (18) 
CCNCCOCCCCNCCc1ccc(C)cc1 (3D coordinates assigned)
CCNCCOCCCCNCCc1ccc(C)cc1 (optimized conformer: 34.903333902027526 kcal/mol)

>  <smiles>  (18) 
CCNCCOCCCCNCCc1ccc(C)cc1

>  <score_type>  (18) 
oracle

>  <origin>  (18) 
adg

>  <m_score__min__energy>  (18) 
-7.9199999999999999

>  <m_primary>  (18) 
energy

$$$$
18:0
     RDKit          3D

 42 43  0  0  0  0  0  0  0  0999 V2000
   -8.4370   21.9060  -31.3070 C   0  0  0  0  0  0  0  0  0  0  0  0
   -7.7650   23.0770  -32.0210 C   0  0  0  0  0  0  0  0  0  0  0  0
   -6.5300   23.4830  -31.3280 N   0  0  0  0  0  0  0  0  0  0  0  0
   -6.7810   24.5440  -30.3300 C   0  0  0  0  0  0  0  0  0  0  0  0
   -5.6330   25.5660  -30.2330 C   0  0  0  0  0  0  0  0  0  0  0  0
   -4.4310   25.0670  -30.8230 O   0  0  0  0  0  0  0  0  0  0  0  0
   -3.5350   24.1470  -30.2480 C   0  0  0  0  0  0  0  0  0  0  0  0
   -2.7280   24.4610  -29.1360 C   0  0  0  0  0  0  0  0  0  0  0  0
   -1.8820   23.4970  -28.5860 C   0  0  0  0  0  0  0  0  0  0  0  0
   -1.8190   22.2200  -29.1410 C   0  0  0  0  0  0  0  0  0  0  0  0
   -2.5990   21.9020  -30.2540 C   0  0  0  0  0  0  0  0  0  0  0  0
   -3.4620   22.8630  -30.8160 C   0  0  0  0  0  0  0  0  0  0  0  0
   -4.2700   22.5830  -31.9310 O   0  0  0  0  0  0  0  0  0  0  0  0
   -3.8320   21.9360  -33.1260 C   0  0  0  0  0  0  0  0  0  0  0  0
   -4.4800   20.5830  -33.2490 C   0  0  0  0  0  0  0  0  0  0  0  0
   -5.8670   20.4320  -33.0900 C   0  0  0  0  0  0  0  0  0  0  0  0
   -6.4600   19.1760  -33.2510 C   0  0  0  0  0  0  0  0  0  0  0  0
   -5.6740   18.0630  -33.5690 C   0  0  0  0  0  0  0  0  0  0  0  0
   -6.4880   16.3520  -33.8040 Br  0  0  0  0  0  0  0  0  0  0  0  0
   -4.2920   18.2070  -33.7230 C   0  0  0  0  0  0  0  0  0  0  0  0
   -3.6960   19.4620  -33.5630 C   0  0  0  0  0  0  0  0  0  0  0  0
   -8.3570   22.0454  -30.2188 H   0  0  0  0  0  0  0  0  0  0  0  0
   -9.4980   21.8617  -31.5940 H   0  0  0  0  0  0  0  0  0  0  0  0
   -7.9400   20.9676  -31.5940 H   0  0  0  0  0  0  0  0  0  0  0  0
   -7.5173   22.7761  -33.0497 H   0  0  0  0  0  0  0  0  0  0  0  0
   -8.4601   23.9295  -32.0241 H   0  0  0  0  0  0  0  0  0  0  0  0
   -6.1500   22.6430  -30.8310 H   0  0  0  0  0  0  0  0  0  0  0  0
   -5.8040   23.7860  -32.0160 H   0  0  0  0  0  0  0  0  0  0  0  0
   -7.7016   25.0771  -30.6098 H   0  0  0  0  0  0  0  0  0  0  0  0
   -6.8698   24.0563  -29.3480 H   0  0  0  0  0  0  0  0  0  0  0  0
   -5.9307   26.4874  -30.7550 H   0  0  0  0  0  0  0  0  0  0  0  0
   -5.4371   25.7622  -29.1685 H   0  0  0  0  0  0  0  0  0  0  0  0
   -2.7652   25.4701  -28.6998 H   0  0  0  0  0  0  0  0  0  0  0  0
   -1.2628   23.7458  -27.7115 H   0  0  0  0  0  0  0  0  0  0  0  0
   -1.1539   21.4621  -28.7015 H   0  0  0  0  0  0  0  0  0  0  0  0
   -2.5395   20.8958  -30.6945 H   0  0  0  0  0  0  0  0  0  0  0  0
   -4.1074   22.5517  -33.9950 H   0  0  0  0  0  0  0  0  0  0  0  0
   -2.7399   21.8100  -33.0876 H   0  0  0  0  0  0  0  0  0  0  0  0
   -6.4885   21.3039  -32.8382 H   0  0  0  0  0  0  0  0  0  0  0  0
   -7.5471   19.0626  -33.1273 H   0  0  0  0  0  0  0  0  0  0  0  0
   -3.6727   17.3322  -33.9703 H   0  0  0  0  0  0  0  0  0  0  0  0
   -2.6081   19.5710  -33.6838 H   0  0  0  0  0  0  0  0  0  0  0  0
  1  2  1  0
  2  3  1  0
  3  4  1  0
  4  5  1  0
  5  6  1  0
  6  7  1  0
  7  8  2  0
  8  9  1  0
  9 10  2  0
 10 11  1  0
 11 12  2  0
 12 13  1  0
 13 14  1  0
 14 15  1  0
 15 16  2  0
 16 17  1  0
 17 18  2  0
 18 19  1  0
 18 20  1  0
 20 21  2  0
 12  7  1  0
 21 15  1  0
  1 22  1  0
  1 23  1  0
  1 24  1  0
  2 25  1  0
  2 26  1  0
  3 27  1  0
  3 28  1  0
  4 29  1  0
  4 30  1  0
  5 31  1  0
  5 32  1  0
  8 33  1  0
  9 34  1  0
 10 35  1  0
 11 36  1  0
 14 37  1  0
 14 38  1  0
 16 39  1  0
 17 40  1  0
 20 41  1  0
 21 42  1  0
M  CHG  1   3   1
M  END
>  <UniqueID>  (19) 
19

>  <SMILES>  (19) 
CC[NH2+]CCOc1ccccc1OCc1ccc(Br)cc1

>  <Energy>  (19) 
38.82117895284648

>  <Genealogy>  (19) 
CC[NH2+]CCOc1ccccc1OCc1ccc(Br)cc1 (protonated)
CC[NH2+]CCOc1ccccc1OCc1ccc(Br)cc1 (3D coordinates assigned)
CC[NH2+]CCOc1ccccc1OCc1ccc(Br)cc1 (optimized conformer: 38.82117895284648 kcal/mol)

>  <smiles>  (19) 
CCNCCOc1ccccc1OCc1ccc(Br)cc1

>  <score_type>  (19) 
oracle

>  <origin>  (19) 
adg

>  <m_score__min__energy>  (19) 
-6.8399999999999999

>  <m_primary>  (19) 
energy

$$$$
19:0
     RDKit          3D

 55 56  0  0  0  0  0  0  0  0999 V2000
   -6.8620   25.6530  -29.3600 C   0  0  0  0  0  0  0  0  0  0  0  0
   -6.4230   24.2620  -29.8100 C   0  0  0  0  0  0  0  0  0  0  0  0
   -4.9630   24.1480  -29.8030 N   0  0  0  0  0  0  0  0  0  0  0  0
   -4.2370   24.0560  -28.5230 C   0  0  0  0  0  0  0  0  0  0  0  0
   -3.9010   22.6030  -28.1870 C   0  0  0  0  0  0  0  0  0  0  0  0
   -4.3430   24.0560  -30.9230 N   0  0  0  0  0  0  0  0  0  0  0  0
   -4.1690   22.8370  -31.5450 O   0  0  0  0  0  0  0  0  0  0  0  0
   -5.1160   22.3660  -32.4970 C   0  0  0  0  0  0  0  0  0  0  0  0
   -6.0410   21.3070  -31.8800 C   0  0  0  0  0  0  0  0  0  0  0  0
   -7.1300   20.8170  -32.9000 C   0  0  2  0  0  0  0  0  0  0  0  0
   -8.5720   20.9230  -32.3210 C   0  0  0  0  0  0  0  0  0  0  0  0
   -9.0850   19.6080  -31.7130 C   0  0  0  0  0  0  0  0  0  0  0  0
   -7.9380   18.7300  -31.2180 C   0  0  0  0  0  0  0  0  0  0  0  0
   -6.9650   18.3840  -32.3650 C   0  0  0  0  0  0  0  0  0  0  0  0
   -6.8850   19.4370  -33.4200 N   0  0  2  0  0  0  0  0  0  0  0  0
   -5.6120   19.3520  -34.1850 C   0  0  0  0  0  0  0  0  0  0  0  0
   -4.5170   18.5920  -33.4120 C   0  0  0  0  0  0  0  0  0  0  0  0
   -3.3900   19.5100  -33.0330 C   0  0  0  0  0  0  0  0  0  0  0  0
   -2.5230   20.0250  -34.0090 C   0  0  0  0  0  0  0  0  0  0  0  0
   -1.4760   20.8630  -33.6230 C   0  0  0  0  0  0  0  0  0  0  0  0
   -1.3120   21.1900  -32.2740 C   0  0  0  0  0  0  0  0  0  0  0  0
   -2.1990   20.6680  -31.3280 C   0  0  0  0  0  0  0  0  0  0  0  0
   -3.2100   19.8500  -31.7270 N   0  0  0  0  0  0  0  0  0  0  0  0
   -6.8754   25.6956  -28.2609 H   0  0  0  0  0  0  0  0  0  0  0  0
   -6.1570   26.4032  -29.7474 H   0  0  0  0  0  0  0  0  0  0  0  0
   -7.8700   25.8626  -29.7474 H   0  0  0  0  0  0  0  0  0  0  0  0
   -6.8463   23.5117  -29.1260 H   0  0  0  0  0  0  0  0  0  0  0  0
   -6.7841   24.0936  -30.8353 H   0  0  0  0  0  0  0  0  0  0  0  0
   -3.3036   24.6333  -28.5966 H   0  0  0  0  0  0  0  0  0  0  0  0
   -4.8786   24.4606  -27.7263 H   0  0  0  0  0  0  0  0  0  0  0  0
   -3.8718   22.4766  -27.0947 H   0  0  0  0  0  0  0  0  0  0  0  0
   -4.6698   21.9411  -28.6123 H   0  0  0  0  0  0  0  0  0  0  0  0
   -2.9197   22.3458  -28.6123 H   0  0  0  0  0  0  0  0  0  0  0  0
   -5.7237   23.2129  -32.8483 H   0  0  0  0  0  0  0  0  0  0  0  0
   -4.5703   21.9075  -33.3349 H   0  0  0  0  0  0  0  0  0  0  0  0
   -5.4347   20.4449  -31.5651 H   0  0  0  0  0  0  0  0  0  0  0  0
   -6.5571   21.7625  -31.0220 H   0  0  0  0  0  0  0  0  0  0  0  0
   -7.0431   21.5054  -33.7536 H   0  0  0  0  0  0  0  0  0  0  0  0
   -8.5769   21.6946  -31.5371 H   0  0  0  0  0  0  0  0  0  0  0  0
   -9.2397   21.1755  -33.1579 H   0  0  0  0  0  0  0  0  0  0  0  0
   -9.7468   19.8411  -30.8659 H   0  0  0  0  0  0  0  0  0  0  0  0
   -9.6264   19.0563  -32.4956 H   0  0  0  0  0  0  0  0  0  0  0  0
   -7.3885   19.2675  -30.4311 H   0  0  0  0  0  0  0  0  0  0  0  0
   -8.3606   17.7934  -30.8253 H   0  0  0  0  0  0  0  0  0  0  0  0
   -5.9610   18.2424  -31.9384 H   0  0  0  0  0  0  0  0  0  0  0  0
   -7.3472   17.4725  -32.8478 H   0  0  0  0  0  0  0  0  0  0  0  0
   -7.6580   19.2490  -34.1070 H   0  0  0  0  0  0  0  0  0  0  0  0
   -5.8033   18.8293  -35.1338 H   0  0  0  0  0  0  0  0  0  0  0  0
   -5.2531   20.3774  -34.3576 H   0  0  0  0  0  0  0  0  0  0  0  0
   -4.9539   18.1625  -32.4984 H   0  0  0  0  0  0  0  0  0  0  0  0
   -4.1187   17.7968  -34.0593 H   0  0  0  0  0  0  0  0  0  0  0  0
   -2.6675   19.7703  -35.0693 H   0  0  0  0  0  0  0  0  0  0  0  0
   -0.7829   21.2644  -34.3770 H   0  0  0  0  0  0  0  0  0  0  0  0
   -0.4921   21.8524  -31.9595 H   0  0  0  0  0  0  0  0  0  0  0  0
   -2.0797   20.9181  -30.2635 H   0  0  0  0  0  0  0  0  0  0  0  0
  1  2  1  0
  2  3  1  0
  3  4  1  0
  4  5  1  0
  3  6  2  3
  6  7  1  0
  7  8  1  0
  8  9  1  0
  9 10  1  0
 10 11  1  0
 11 12  1  0
 12 13  1  0
 13 14  1  0
 14 15  1  0
 15 16  1  0
 16 17  1  0
 17 18  1  0
 18 19  2  0
 19 20  1  0
 20 21  2  0
 21 22  1  0
 22 23  2  0
 15 10  1  0
 23 18  1  0
  1 24  1  0
  1 25  1  0
  1 26  1  0
  2 27  1  0
  2 28  1  0
  4 29  1  0
  4 30  1  0
  5 31  1  0
  5 32  1  0
  5 33  1  0
  8 34  1  0
  8 35  1  0
  9 36  1  0
  9 37  1  0
 10 38  1  6
 11 39  1  0
 11 40  1  0
 12 41  1  0
 12 42  1  0
 13 43  1  0
 13 44  1  0
 14 45  1  0
 14 46  1  0
 15 47  1  6
 16 48  1  0
 16 49  1  0
 17 50  1  0
 17 51  1  0
 19 52  1  0
 20 53  1  0
 21 54  1  0
 22 55  1  0
M  CHG  2   3   1  15   1
M  END
>  <UniqueID>  (20) 
20

>  <SMILES>  (20) 
CC[N+](CC)=NOCC[C@@H]1CCCC[N@@H+]1CCc1ccccn1

>  <Energy>  (20) 
61.745026699618556

>  <Genealogy>  (20) 
CC[N+](CC)=NOCCC1CCCC[NH+]1CCc1ccccn1 (protonated)
CC[N+](CC)=NOCC[C@@H]1CCCC[N@@H+]1CCc1ccccn1 (chirality)
CC[N+](CC)=NOCC[C@@H]1CCCC[N@@H+]1CCc1ccccn1 (3D coordinates assigned)
CC[N+](CC)=NOCC[C@@H]1CCCC[N@@H+]1CCc1ccccn1 (nonaromatic ring conformer: 61.745026699618556 kcal/mol)

>  <smiles>  (20) 
CC[N+](CC)=NOCCC1CCCCN1CCc1ccccn1

>  <score_type>  (20) 
oracle

>  <origin>  (20) 
adg

>  <m_score__min__energy>  (20) 
-5.8700000000000001

>  <m_primary>  (20) 
energy

$$$$
20:0
     RDKit          3D

 39 40  0  0  0  0  0  0  0  0999 V2000
   -7.1090   17.5680  -32.4440 C   0  0  0  0  0  0  0  0  0  0  0  0
   -8.2460   18.1940  -31.6470 C   0  0  0  0  0  0  0  0  0  0  0  0
   -8.2110   19.6550  -31.7890 N   0  0  0  0  0  0  0  0  0  0  0  0
   -9.4700   20.1750  -32.3450 C   0  0  0  0  0  0  0  0  0  0  0  0
   -9.7970   21.5610  -31.7740 C   0  0  0  0  0  0  0  0  0  0  0  0
   -8.6140   22.1660  -31.1440 N   0  0  0  0  0  0  0  0  0  0  0  0
   -8.0600   23.2530  -31.9610 C   0  0  0  0  0  0  0  0  0  0  0  0
   -6.5750   23.3760  -31.7060 C   0  0  0  0  0  0  0  0  0  0  0  0
   -6.0910   24.5240  -31.0640 C   0  0  0  0  0  0  0  0  0  0  0  0
   -4.7190   24.6620  -30.8420 C   0  0  0  0  0  0  0  0  0  0  0  0
   -4.2770   25.6860  -30.2590 O   0  0  0  0  0  0  0  0  0  0  0  0
   -3.8740   23.7200  -31.2430 O   0  0  0  0  0  0  0  0  0  0  0  0
   -4.2720   22.6160  -31.8680 C   0  0  0  0  0  0  0  0  0  0  0  0
   -3.3180   21.6740  -32.2690 C   0  0  0  0  0  0  0  0  0  0  0  0
   -3.7090   20.5110  -32.9460 C   0  0  0  0  0  0  0  0  0  0  0  0
   -2.6850   19.4880  -33.3400 C   0  0  0  0  0  0  0  0  0  0  0  0
   -5.0700   20.2800  -33.1930 C   0  0  0  0  0  0  0  0  0  0  0  0
   -6.0310   21.2130  -32.7950 C   0  0  0  0  0  0  0  0  0  0  0  0
   -5.6470   22.3950  -32.1300 C   0  0  0  0  0  0  0  0  0  0  0  0
   -6.3599   17.1556  -31.7521 H   0  0  0  0  0  0  0  0  0  0  0  0
   -7.5062   16.7614  -33.0778 H   0  0  0  0  0  0  0  0  0  0  0  0
   -6.6398   18.3349  -33.0778 H   0  0  0  0  0  0  0  0  0  0  0  0
   -9.2073   17.8140  -32.0230 H   0  0  0  0  0  0  0  0  0  0  0  0
   -8.1316   17.9306  -30.5851 H   0  0  0  0  0  0  0  0  0  0  0  0
   -8.0960   20.0640  -30.8310 H   0  0  0  0  0  0  0  0  0  0  0  0
   -9.3755   20.2503  -33.4383 H   0  0  0  0  0  0  0  0  0  0  0  0
  -10.2825   19.4852  -32.0730 H   0  0  0  0  0  0  0  0  0  0  0  0
  -10.1429   22.2132  -32.5895 H   0  0  0  0  0  0  0  0  0  0  0  0
  -10.5807   21.4485  -31.0104 H   0  0  0  0  0  0  0  0  0  0  0  0
   -7.8780   21.4230  -31.0670 H   0  0  0  0  0  0  0  0  0  0  0  0
   -8.2314   23.0343  -33.0253 H   0  0  0  0  0  0  0  0  0  0  0  0
   -8.5551   24.1983  -31.6938 H   0  0  0  0  0  0  0  0  0  0  0  0
   -6.7868   25.3108  -30.7373 H   0  0  0  0  0  0  0  0  0  0  0  0
   -2.2538   21.8476  -32.0513 H   0  0  0  0  0  0  0  0  0  0  0  0
   -2.2420   19.0454  -32.4356 H   0  0  0  0  0  0  0  0  0  0  0  0
   -3.1658   18.6988  -33.9366 H   0  0  0  0  0  0  0  0  0  0  0  0
   -1.8963   19.9696  -33.9366 H   0  0  0  0  0  0  0  0  0  0  0  0
   -5.3833   19.3576  -33.7038 H   0  0  0  0  0  0  0  0  0  0  0  0
   -7.0946   21.0237  -33.0021 H   0  0  0  0  0  0  0  0  0  0  0  0
  1  2  1  0
  2  3  1  0
  3  4  1  0
  4  5  1  0
  5  6  1  0
  6  7  1  0
  7  8  1  0
  8  9  2  0
  9 10  1  0
 10 11  2  0
 10 12  1  0
 12 13  1  0
 13 14  2  0
 14 15  1  0
 15 16  1  0
 15 17  2  0
 17 18  1  0
 18 19  2  0
 19  8  1  0
 19 13  1  0
  1 20  1  0
  1 21  1  0
  1 22  1  0
  2 23  1  0
  2 24  1  0
  3 25  1  0
  4 26  1  0
  4 27  1  0
  5 28  1  0
  5 29  1  0
  6 30  1  0
  7 31  1  0
  7 32  1  0
  9 33  1  0
 14 34  1  0
 16 35  1  0
 16 36  1  0
 16 37  1  0
 17 38  1  0
 18 39  1  0
M  END
>  <UniqueID>  (21) 
21

>  <SMILES>  (21) 
CCNCCNCc1cc(=O)oc2cc(C)ccc12

>  <Energy>  (21) 
37.34754055226362

>  <Genealogy>  (21) 
CCNCCNCc1cc(=O)oc2cc(C)ccc12 (3D coordinates assigned)
CCNCCNCc1cc(=O)oc2cc(C)ccc12 (optimized conformer: 37.34754055226362 kcal/mol)

>  <smiles>  (21) 
CCNCCNCc1cc(=O)oc2cc(C)ccc12

>  <score_type>  (21) 
oracle

>  <origin>  (21) 
adg

>  <m_score__min__energy>  (21) 
-7.5300000000000002

>  <m_primary>  (21) 
energy

$$$$
21:0
     RDKit          3D

 50 52  0  0  0  0  0  0  0  0999 V2000
   -4.1519   25.0515  -28.3849 H   0  0  0  0  0  0  0  0  0  0  0  0
   -3.4850   24.1870  -28.5190 C   0  0  0  0  0  0  0  0  0  0  0  0
   -3.1500   23.7310  -29.8810 C   0  0  0  0  0  0  0  0  0  0  0  0
   -2.0894   23.5894  -30.1360 H   0  0  0  0  0  0  0  0  0  0  0  0
   -4.0670   23.4800  -30.8240 C   0  0  0  0  0  0  0  0  0  0  0  0
   -3.7550   22.2040  -32.0560 S   0  0  0  0  0  0  0  0  0  0  0  0
   -5.5160   21.8980  -32.0010 C   0  0  0  0  0  0  0  0  0  0  0  0
   -6.1530   20.8000  -32.5780 C   0  0  0  0  0  0  0  0  0  0  0  0
   -5.5693   20.0302  -33.1040 H   0  0  0  0  0  0  0  0  0  0  0  0
   -7.5470   20.6900  -32.4790 C   0  0  0  0  0  0  0  0  0  0  0  0
   -8.0602   19.8246  -32.9236 H   0  0  0  0  0  0  0  0  0  0  0  0
   -8.2950   21.6820  -31.8130 C   0  0  0  0  0  0  0  0  0  0  0  0
   -9.7780   21.5300  -31.6540 C   0  0  0  0  0  0  0  0  0  0  0  0
  -10.0313   21.5040  -30.5839 H   0  0  0  0  0  0  0  0  0  0  0  0
  -10.2870   22.3807  -32.1307 H   0  0  0  0  0  0  0  0  0  0  0  0
  -10.1038   20.5938  -32.1307 H   0  0  0  0  0  0  0  0  0  0  0  0
   -7.6320   22.7730  -31.2190 C   0  0  0  0  0  0  0  0  0  0  0  0
   -8.2012   23.5413  -30.6751 H   0  0  0  0  0  0  0  0  0  0  0  0
   -6.2400   22.8680  -31.3290 C   0  0  0  0  0  0  0  0  0  0  0  0
   -5.4410   23.8830  -30.7250 N   0  0  0  0  0  0  0  0  0  0  0  0
   -5.8560   25.2920  -30.7010 C   0  0  0  0  0  0  0  0  0  0  0  0
   -6.5899   25.4651  -31.5019 H   0  0  0  0  0  0  0  0  0  0  0  0
   -4.9677   25.9230  -30.8515 H   0  0  0  0  0  0  0  0  0  0  0  0
   -6.4890   25.6510  -29.3550 C   0  0  0  0  0  0  0  0  0  0  0  0
   -5.8471   25.2870  -28.5392 H   0  0  0  0  0  0  0  0  0  0  0  0
   -6.5944   26.7433  -29.2791 H   0  0  0  0  0  0  0  0  0  0  0  0
   -7.4805   25.1808  -29.2791 H   0  0  0  0  0  0  0  0  0  0  0  0
   -2.9900   23.5650  -27.4470 C   0  0  0  0  0  0  0  0  0  0  0  0
   -3.3021   22.5293  -27.2470 H   0  0  0  0  0  0  0  0  0  0  0  0
   -2.0410   24.2100  -26.5190 C   0  0  0  0  0  0  0  0  0  0  0  0
   -2.1900   25.4570  -26.1270 O   0  0  0  0  0  0  0  0  0  0  0  0
   -1.1870   25.7430  -25.3290 C   0  0  0  0  0  0  0  0  0  0  0  0
   -0.9930   27.0380  -24.7260 N   0  0  0  0  0  0  0  0  0  0  0  0
   -0.8680   28.2030  -25.6020 C   0  0  0  0  0  0  0  0  0  0  0  0
   -0.7704   29.1124  -24.9909 H   0  0  0  0  0  0  0  0  0  0  0  0
    0.0232   28.0904  -26.2369 H   0  0  0  0  0  0  0  0  0  0  0  0
   -1.7628   28.2821  -26.2369 H   0  0  0  0  0  0  0  0  0  0  0  0
   -0.5460   27.1550  -23.3340 C   0  0  0  0  0  0  0  0  0  0  0  0
   -1.3865   26.9350  -22.6593 H   0  0  0  0  0  0  0  0  0  0  0  0
    0.2693   26.4400  -23.1494 H   0  0  0  0  0  0  0  0  0  0  0  0
   -0.1856   28.1777  -23.1494 H   0  0  0  0  0  0  0  0  0  0  0  0
   -0.3940   24.6130  -25.2140 C   0  0  0  0  0  0  0  0  0  0  0  0
    0.7470   24.4410  -24.3670 N   0  0  0  0  0  0  0  0  0  0  0  0
    1.7150   24.5580  -24.7320 H   0  0  0  0  0  0  0  0  0  0  0  0
    0.6330   24.2640  -23.3460 H   0  0  0  0  0  0  0  0  0  0  0  0
   -0.9470   23.6330  -25.9580 N   0  0  0  0  0  0  0  0  0  0  0  0
   -0.5100   22.2370  -26.0380 C   0  0  0  0  0  0  0  0  0  0  0  0
   -0.3837   21.8336  -25.0225 H   0  0  0  0  0  0  0  0  0  0  0  0
   -1.2662   21.6463  -26.5758 H   0  0  0  0  0  0  0  0  0  0  0  0
    0.4480   22.1829  -26.5758 H   0  0  0  0  0  0  0  0  0  0  0  0
  1  2  1  0
  2  3  1  0
  3  4  1  0
  3  5  2  0
  5  6  1  0
  6  7  1  0
  7  8  2  0
  8  9  1  0
  8 10  1  0
 10 11  1  0
 10 12  2  0
 12 13  1  0
 13 14  1  0
 13 15  1  0
 13 16  1  0
 12 17  1  0
 17 18  1  0
 17 19  2  0
 19 20  1  0
 20 21  1  0
 21 22  1  0
 21 23  1  0
 21 24  1  0
 24 25  1  0
 24 26  1  0
 24 27  1  0
  2 28  2  0
 28 29  1  0
 28 30  1  0
 30 31  1  0
 31 32  1  0
 32 33  1  0
 33 34  1  0
 34 35  1  0
 34 36  1  0
 34 37  1  0
 33 38  1  0
 38 39  1  0
 38 40  1  0
 38 41  1  0
 32 42  2  0
 42 43  1  0
 43 44  1  0
 43 45  1  0
 42 46  1  0
 46 47  1  0
 47 48  1  0
 47 49  1  0
 47 50  1  0
 20  5  1  0
 46 30  2  0
 19  7  1  0
M  CHG  1  46   1
M  END
>  <UniqueID>  (22) 
22

>  <SMILES>  (22) 
CCN1/C(=C\C=C\c2oc(N(C)C)c(N)[n+]2C)Sc2ccc(C)cc21

>  <Energy>  (22) 
111.81028982257274

>  <Genealogy>  (22) 
CCN1/C(=C\C=C\c2oc(N(C)C)c(N)[n+]2C)Sc2ccc(C)cc21 (cis-trans isomerization)
CCN1/C(=C\C=C\c2oc(N(C)C)c(N)[n+]2C)Sc2ccc(C)cc21 (3D coordinates assigned)
CCN1/C(=C\C=C\c2oc(N(C)C)c(N)[n+]2C)Sc2ccc(C)cc21 (nonaromatic ring conformer: 111.81028982257274 kcal/mol)

>  <smiles>  (22) 
CCN1C(=CC=Cc2oc(N(C)C)c(N)[n+]2C)Sc2ccc(C)cc21

>  <score_type>  (22) 
oracle

>  <origin>  (22) 
adg

>  <m_score__min__energy>  (22) 
-7.7000000000000002

>  <m_primary>  (22) 
energy

$$$$
22:0
     RDKit          3D

 51 53  0  0  0  0  0  0  0  0999 V2000
   -4.2160   24.3030  -27.0720 C   0  0  0  0  0  0  0  0  0  0  0  0
   -3.4440   25.1250  -26.0430 C   0  0  0  0  0  0  0  0  0  0  0  0
   -1.9960   25.1130  -26.3570 N   0  0  0  0  0  0  0  0  0  0  0  0
   -1.1990   24.6910  -25.1820 C   0  0  0  0  0  0  0  0  0  0  0  0
   -0.8230   25.9030  -24.3340 C   0  0  0  0  0  0  0  0  0  0  0  0
   -1.5480   26.4320  -26.8580 C   0  0  0  0  0  0  0  0  0  0  0  0
   -0.6670   26.2550  -28.0970 C   0  0  0  0  0  0  0  0  0  0  0  0
   -1.4020   25.5420  -29.1410 N   0  0  0  0  0  0  0  0  0  0  0  0
   -1.6000   24.1180  -29.1100 C   0  0  0  0  0  0  0  0  0  0  0  0
   -0.6400   23.3220  -28.4710 C   0  0  0  0  0  0  0  0  0  0  0  0
   -0.7320   21.9390  -28.4990 C   0  0  0  0  0  0  0  0  0  0  0  0
   -1.7630   21.3190  -29.1940 C   0  0  0  0  0  0  0  0  0  0  0  0
   -2.7450   22.0760  -29.8720 C   0  0  0  0  0  0  0  0  0  0  0  0
   -3.7820   21.4430  -30.6100 C   0  0  0  0  0  0  0  0  0  0  0  0
   -3.7800   20.0570  -30.8180 O   0  0  0  0  0  0  0  0  0  0  0  0
   -4.8330   22.2130  -31.1680 C   0  0  0  0  0  0  0  0  0  0  0  0
   -5.9090   21.6100  -31.8830 C   0  0  0  0  0  0  0  0  0  0  0  0
   -5.9520   20.2140  -32.0500 O   0  0  0  0  0  0  0  0  0  0  0  0
   -7.0130   19.4940  -32.6710 C   0  0  0  0  0  0  0  0  0  0  0  0
   -6.9300   22.4200  -32.4140 C   0  0  0  0  0  0  0  0  0  0  0  0
   -6.9010   23.7980  -32.2500 C   0  0  0  0  0  0  0  0  0  0  0  0
   -5.8580   24.3990  -31.5560 C   0  0  0  0  0  0  0  0  0  0  0  0
   -4.8150   23.6240  -31.0120 C   0  0  0  0  0  0  0  0  0  0  0  0
   -3.7640   24.2540  -30.3210 C   0  0  0  0  0  0  0  0  0  0  0  0
   -3.8180   25.6350  -30.1430 O   0  0  0  0  0  0  0  0  0  0  0  0
   -2.6970   23.4980  -29.7810 C   0  0  0  0  0  0  0  0  0  0  0  0
   -4.8800   23.5960  -26.5531 H   0  0  0  0  0  0  0  0  0  0  0  0
   -4.8168   24.9752  -27.7022 H   0  0  0  0  0  0  0  0  0  0  0  0
   -3.5075   23.7455  -27.7022 H   0  0  0  0  0  0  0  0  0  0  0  0
   -3.8101   26.1622  -26.0585 H   0  0  0  0  0  0  0  0  0  0  0  0
   -3.5977   24.6860  -25.0462 H   0  0  0  0  0  0  0  0  0  0  0  0
   -1.7918   23.9922  -24.5735 H   0  0  0  0  0  0  0  0  0  0  0  0
   -0.2790   24.1995  -25.5315 H   0  0  0  0  0  0  0  0  0  0  0  0
   -0.9034   25.6438  -23.2680 H   0  0  0  0  0  0  0  0  0  0  0  0
    0.2105   26.2032  -24.5614 H   0  0  0  0  0  0  0  0  0  0  0  0
   -1.5051   26.7355  -24.5614 H   0  0  0  0  0  0  0  0  0  0  0  0
   -2.4271   27.0386  -27.1209 H   0  0  0  0  0  0  0  0  0  0  0  0
   -0.9657   26.9356  -26.0723 H   0  0  0  0  0  0  0  0  0  0  0  0
   -0.3674   27.2439  -28.4742 H   0  0  0  0  0  0  0  0  0  0  0  0
    0.2246   25.6718  -27.8234 H   0  0  0  0  0  0  0  0  0  0  0  0
   -1.6010   26.0440  -30.0350 H   0  0  0  0  0  0  0  0  0  0  0  0
    0.1967   23.8003  -27.9408 H   0  0  0  0  0  0  0  0  0  0  0  0
    0.0146   21.3298  -27.9686 H   0  0  0  0  0  0  0  0  0  0  0  0
   -1.8158   20.2205  -29.2169 H   0  0  0  0  0  0  0  0  0  0  0  0
   -4.4850   19.5440  -31.3260 H   0  0  0  0  0  0  0  0  0  0  0  0
   -7.6601   19.0549  -31.8974 H   0  0  0  0  0  0  0  0  0  0  0  0
   -7.6034   20.1788  -33.2975 H   0  0  0  0  0  0  0  0  0  0  0  0
   -6.5947   18.6924  -33.2975 H   0  0  0  0  0  0  0  0  0  0  0  0
   -7.7608   21.9556  -32.9655 H   0  0  0  0  0  0  0  0  0  0  0  0
   -7.7070   24.4168  -32.6712 H   0  0  0  0  0  0  0  0  0  0  0  0
   -5.8466   25.4917  -31.4300 H   0  0  0  0  0  0  0  0  0  0  0  0
  1  2  1  0
  2  3  1  0
  3  4  1  0
  4  5  1  0
  3  6  1  0
  6  7  1  0
  7  8  1  0
  8  9  1  0
  9 10  2  0
 10 11  1  0
 11 12  2  0
 12 13  1  0
 13 14  2  0
 14 15  1  0
 14 16  1  0
 16 17  2  0
 17 18  1  0
 18 19  1  0
 17 20  1  0
 20 21  2  0
 21 22  1  0
 22 23  2  0
 23 24  1  0
 24 25  1  0
 24 26  2  0
 26  9  1  0
 26 13  1  0
 23 16  1  0
  1 27  1  0
  1 28  1  0
  1 29  1  0
  2 30  1  0
  2 31  1  0
  4 32  1  0
  4 33  1  0
  5 34  1  0
  5 35  1  0
  5 36  1  0
  6 37  1  0
  6 38  1  0
  7 39  1  0
  7 40  1  0
  8 41  1  0
 10 42  1  0
 11 43  1  0
 12 44  1  0
 15 45  1  0
 19 46  1  0
 19 47  1  0
 19 48  1  0
 20 49  1  0
 21 50  1  0
 22 51  1  0
M  CHG  1  25  -1
M  END
>  <UniqueID>  (23) 
23

>  <SMILES>  (23) 
CCN(CC)CCNc1cccc2c(O)c3c(OC)cccc3c([O-])c12

>  <Energy>  (23) 
73.26759374154898

>  <Genealogy>  (23) 
CCN(CC)CCNc1cccc2c(O)c3c(OC)cccc3c([O-])c12 (protonated)
CCN(CC)CCNc1cccc2c(O)c3c(OC)cccc3c([O-])c12 (3D coordinates assigned)
CCN(CC)CCNc1cccc2c(O)c3c(OC)cccc3c([O-])c12 (optimized conformer: 73.26759374154898 kcal/mol)

>  <smiles>  (23) 
CCN(CC)CCNc1cccc2c(O)c3c(OC)cccc3c(O)c12

>  <score_type>  (23) 
oracle

>  <origin>  (23) 
adg

>  <m_score__min__energy>  (23) 
-9.9100000000000001

>  <m_primary>  (23) 
energy

$$$$
23:0
     RDKit          3D

 50 52  0  0  0  0  0  0  0  0999 V2000
   -1.7970   22.2410  -30.3470 C   0  0  0  0  0  0  0  0  0  0  0  0
   -2.1590   23.4870  -29.5480 C   0  0  0  0  0  0  0  0  0  0  0  0
   -3.6040   23.5590  -29.2980 N   0  0  0  0  0  0  0  0  0  0  0  0
   -4.1570   23.0400  -28.0370 C   0  0  0  0  0  0  0  0  0  0  0  0
   -4.2330   24.1470  -26.9910 C   0  0  0  0  0  0  0  0  0  0  0  0
   -4.4750   24.1080  -30.3110 C   0  0  0  0  0  0  0  0  0  0  0  0
   -4.1940   25.2200  -30.8410 O   0  0  0  0  0  0  0  0  0  0  0  0
   -5.7260   23.3790  -30.7410 C   0  0  1  0  0  0  0  0  0  0  0  0
   -6.4920   24.1810  -31.8110 C   0  0  0  0  0  0  0  0  0  0  0  0
   -7.7780   23.4710  -32.2890 C   0  0  0  0  0  0  0  0  0  0  0  0
   -7.8890   22.0090  -31.8310 C   0  0  0  0  0  0  0  0  0  0  0  0
   -6.5810   21.3480  -31.8900 N   0  0  0  0  0  0  0  0  0  0  0  0
   -6.4830   20.0000  -32.3690 C   0  0  0  0  0  0  0  0  0  0  0  0
   -5.4300   19.6460  -33.1520 N   0  0  0  0  0  0  0  0  0  0  0  0
   -5.2900   18.3800  -33.6230 C   0  0  0  0  0  0  0  0  0  0  0  0
   -4.1990   18.0320  -34.4240 C   0  0  0  0  0  0  0  0  0  0  0  0
   -4.0700   16.7200  -34.8950 C   0  0  0  0  0  0  0  0  0  0  0  0
   -5.0300   15.7550  -34.5660 C   0  0  0  0  0  0  0  0  0  0  0  0
   -6.1250   16.0990  -33.7680 C   0  0  0  0  0  0  0  0  0  0  0  0
   -6.2590   17.4100  -33.2940 C   0  0  0  0  0  0  0  0  0  0  0  0
   -7.3170   17.7650  -32.5220 N   0  0  0  0  0  0  0  0  0  0  0  0
   -7.4650   19.0370  -32.0570 C   0  0  0  0  0  0  0  0  0  0  0  0
   -8.6590   19.3720  -31.2160 C   0  0  0  0  0  0  0  0  0  0  0  0
   -5.4000   21.9690  -31.2780 C   0  0  0  0  0  0  0  0  0  0  0  0
   -1.5582   21.4190  -29.6562 H   0  0  0  0  0  0  0  0  0  0  0  0
   -2.6482   21.9517  -30.9808 H   0  0  0  0  0  0  0  0  0  0  0  0
   -0.9233   22.4529  -30.9808 H   0  0  0  0  0  0  0  0  0  0  0  0
   -1.6294   23.4611  -28.5842 H   0  0  0  0  0  0  0  0  0  0  0  0
   -1.8629   24.3716  -30.1310 H   0  0  0  0  0  0  0  0  0  0  0  0
   -5.1672   22.6452  -28.2202 H   0  0  0  0  0  0  0  0  0  0  0  0
   -3.4997   22.2414  -27.6625 H   0  0  0  0  0  0  0  0  0  0  0  0
   -4.2025   23.7035  -25.9848 H   0  0  0  0  0  0  0  0  0  0  0  0
   -3.3796   24.8296  -27.1168 H   0  0  0  0  0  0  0  0  0  0  0  0
   -5.1717   24.7065  -27.1168 H   0  0  0  0  0  0  0  0  0  0  0  0
   -6.3634   23.2737  -29.8507 H   0  0  0  0  0  0  0  0  0  0  0  0
   -6.7674   25.1579  -31.3870 H   0  0  0  0  0  0  0  0  0  0  0  0
   -5.8292   24.2850  -32.6827 H   0  0  0  0  0  0  0  0  0  0  0  0
   -8.6447   24.0234  -31.8970 H   0  0  0  0  0  0  0  0  0  0  0  0
   -7.7464   23.4595  -33.3885 H   0  0  0  0  0  0  0  0  0  0  0  0
   -8.2613   21.9817  -30.7963 H   0  0  0  0  0  0  0  0  0  0  0  0
   -8.5838   21.4800  -32.4999 H   0  0  0  0  0  0  0  0  0  0  0  0
   -3.4430   18.7876  -34.6839 H   0  0  0  0  0  0  0  0  0  0  0  0
   -3.2115   16.4461  -35.5258 H   0  0  0  0  0  0  0  0  0  0  0  0
   -4.9223   14.7247  -34.9361 H   0  0  0  0  0  0  0  0  0  0  0  0
   -6.8803   15.3411  -33.5127 H   0  0  0  0  0  0  0  0  0  0  0  0
   -8.3907   19.2967  -30.1519 H   0  0  0  0  0  0  0  0  0  0  0  0
   -8.9888   20.3974  -31.4394 H   0  0  0  0  0  0  0  0  0  0  0  0
   -9.4740   18.6678  -31.4394 H   0  0  0  0  0  0  0  0  0  0  0  0
   -5.0542   21.3390  -30.4452 H   0  0  0  0  0  0  0  0  0  0  0  0
   -4.6175   22.0609  -32.0456 H   0  0  0  0  0  0  0  0  0  0  0  0
  1  2  1  0
  2  3  1  0
  3  4  1  0
  4  5  1  0
  3  6  1  0
  6  7  2  0
  6  8  1  0
  8  9  1  0
  9 10  1  0
 10 11  1  0
 11 12  1  0
 12 13  1  0
 13 14  2  0
 14 15  1  0
 15 16  2  0
 16 17  1  0
 17 18  2  0
 18 19  1  0
 19 20  2  0
 20 21  1  0
 21 22  2  0
 22 23  1  0
 12 24  1  0
 24  8  1  0
 22 13  1  0
 20 15  1  0
  1 25  1  0
  1 26  1  0
  1 27  1  0
  2 28  1  0
  2 29  1  0
  4 30  1  0
  4 31  1  0
  5 32  1  0
  5 33  1  0
  5 34  1  0
  8 35  1  1
  9 36  1  0
  9 37  1  0
 10 38  1  0
 10 39  1  0
 11 40  1  0
 11 41  1  0
 16 42  1  0
 17 43  1  0
 18 44  1  0
 19 45  1  0
 23 46  1  0
 23 47  1  0
 23 48  1  0
 24 49  1  0
 24 50  1  0
M  END
>  <UniqueID>  (24) 
24

>  <SMILES>  (24) 
CCN(CC)C(=O)[C@H]1CCCN(c2nc3ccccc3nc2C)C1

>  <Energy>  (24) 
56.9964985556712

>  <Genealogy>  (24) 
CCN(CC)C(=O)[C@H]1CCCN(c2nc3ccccc3nc2C)C1 (chirality)
CCN(CC)C(=O)[C@H]1CCCN(c2nc3ccccc3nc2C)C1 (3D coordinates assigned)
CCN(CC)C(=O)[C@H]1CCCN(c2nc3ccccc3nc2C)C1 (nonaromatic ring conformer: 56.9964985556712 kcal/mol)

>  <smiles>  (24) 
CCN(CC)C(=O)C1CCCN(c2nc3ccccc3nc2C)C1

>  <score_type>  (24) 
oracle

>  <origin>  (24) 
adg

>  <m_score__min__energy>  (24) 
-8.9800000000000004

>  <m_primary>  (24) 
energy

$$$$
