0:0
     RDKit          3D

 79 82  0  0  0  0  0  0  0  0999 V2000
    1.0050   24.0460  -36.0960 C   0  0  0  0  0  0  0  0  0  0  0  0
    1.4560   22.7810  -35.3630 C   0  0  0  0  0  0  0  0  0  0  0  0
    0.2920   21.9520  -34.9720 N   0  0  0  0  0  0  0  0  0  0  0  0
   -0.0820   21.0130  -36.0550 C   0  0  0  0  0  0  0  0  0  0  0  0
    1.0810   20.0750  -36.3690 C   0  0  0  0  0  0  0  0  0  0  0  0
    0.5720   21.2150  -33.7140 C   0  0  0  0  0  0  0  0  0  0  0  0
   -0.6940   21.0790  -32.8590 C   0  0  0  0  0  0  0  0  0  0  0  0
   -1.8980   21.2630  -33.6700 N   0  0  0  0  0  0  0  0  0  0  0  0
   -2.8900   20.2290  -33.7280 C   0  0  0  0  0  0  0  0  0  0  0  0
   -2.5950   18.9040  -34.1280 C   0  0  0  0  0  0  0  0  0  0  0  0
   -1.2720   18.5120  -34.4050 C   0  0  0  0  0  0  0  0  0  0  0  0
   -0.9800   17.1980  -34.7630 C   0  0  0  0  0  0  0  0  0  0  0  0
   -1.9940   16.2470  -34.8280 C   0  0  0  0  0  0  0  0  0  0  0  0
   -3.3130   16.6020  -34.5430 C   0  0  0  0  0  0  0  0  0  0  0  0
   -3.6540   17.9330  -34.2050 C   0  0  0  0  0  0  0  0  0  0  0  0
   -4.9640   18.3020  -33.9250 N   0  0  0  0  0  0  0  0  0  0  0  0
   -6.1030   17.4250  -34.2420 C   0  0  0  0  0  0  0  0  0  0  0  0
   -5.1770   19.5480  -33.3930 C   0  0  0  0  0  0  0  0  0  0  0  0
   -4.1880   20.5000  -33.3270 C   0  0  0  0  0  0  0  0  0  0  0  0
   -4.6430   21.6370  -32.8470 O   0  0  0  0  0  0  0  0  0  0  0  0
   -5.9140   21.4490  -32.5630 C   0  0  0  0  0  0  0  0  0  0  0  0
   -6.7830   22.3850  -32.0060 C   0  0  0  0  0  0  0  0  0  0  0  0
   -6.3070   23.6870  -31.7750 O   0  0  0  0  0  0  0  0  0  0  0  0
   -6.6850   24.5550  -30.7060 C   0  0  0  0  0  0  0  0  0  0  0  0
   -5.4850   25.3550  -30.1800 C   0  0  0  0  0  0  0  0  0  0  0  0
   -4.3940   24.4930  -29.5140 C   0  0  0  0  0  0  0  0  0  0  0  0
   -3.5590   23.6910  -30.5300 C   0  0  0  0  0  0  0  0  0  0  0  0
   -2.2590   23.2850  -29.9450 N   0  0  0  0  0  0  0  0  0  0  0  0
   -2.0750   21.8090  -29.9590 C   0  0  0  0  0  0  0  0  0  0  0  0
   -3.4360   21.1220  -30.0150 C   0  0  0  0  0  0  0  0  0  0  0  0
   -2.1090   23.8380  -28.5780 C   0  0  0  0  0  0  0  0  0  0  0  0
   -0.7270   24.4670  -28.3860 C   0  0  0  0  0  0  0  0  0  0  0  0
   -0.8740   26.1310  -27.7660 Cl  0  0  0  0  0  0  0  0  0  0  0  0
   -8.1000   21.9560  -31.7160 C   0  0  0  0  0  0  0  0  0  0  0  0
   -8.4950   20.6290  -31.9800 C   0  0  0  0  0  0  0  0  0  0  0  0
   -7.5970   19.7110  -32.5510 C   0  0  0  0  0  0  0  0  0  0  0  0
   -6.3120   20.1590  -32.8670 C   0  0  0  0  0  0  0  0  0  0  0  0
    0.7301   24.8172  -35.3613 H   0  0  0  0  0  0  0  0  0  0  0  0
    1.8263   24.4168  -36.7268 H   0  0  0  0  0  0  0  0  0  0  0  0
    0.1344   23.8135  -36.7268 H   0  0  0  0  0  0  0  0  0  0  0  0
    2.1093   22.1945  -36.0258 H   0  0  0  0  0  0  0  0  0  0  0  0
    1.9977   23.0771  -34.4526 H   0  0  0  0  0  0  0  0  0  0  0  0
   -0.9512   20.4190  -35.7360 H   0  0  0  0  0  0  0  0  0  0  0  0
   -0.3302   21.5896  -36.9583 H   0  0  0  0  0  0  0  0  0  0  0  0
    1.5263   19.7158  -35.4295 H   0  0  0  0  0  0  0  0  0  0  0  0
    0.7134   19.2176  -36.9519 H   0  0  0  0  0  0  0  0  0  0  0  0
    1.8411   20.6158  -36.9519 H   0  0  0  0  0  0  0  0  0  0  0  0
    0.9474   20.2112  -33.9619 H   0  0  0  0  0  0  0  0  0  0  0  0
    1.3223   21.7780  -33.1394 H   0  0  0  0  0  0  0  0  0  0  0  0
   -0.7156   20.0771  -32.4055 H   0  0  0  0  0  0  0  0  0  0  0  0
   -0.6750   21.8550  -32.0796 H   0  0  0  0  0  0  0  0  0  0  0  0
   -1.8140   21.8790  -34.5100 H   0  0  0  0  0  0  0  0  0  0  0  0
   -0.4600   19.2511  -34.3381 H   0  0  0  0  0  0  0  0  0  0  0  0
    0.0561   16.9108  -34.9953 H   0  0  0  0  0  0  0  0  0  0  0  0
   -1.7544   15.2099  -35.1055 H   0  0  0  0  0  0  0  0  0  0  0  0
   -4.1003   15.8348  -34.5817 H   0  0  0  0  0  0  0  0  0  0  0  0
   -6.5637   17.0703  -33.3082 H   0  0  0  0  0  0  0  0  0  0  0  0
   -6.8462   17.9863  -34.8273 H   0  0  0  0  0  0  0  0  0  0  0  0
   -5.7503   16.5630  -34.8273 H   0  0  0  0  0  0  0  0  0  0  0  0
   -7.4509   25.2563  -31.0688 H   0  0  0  0  0  0  0  0  0  0  0  0
   -7.0766   23.9390  -29.8831 H   0  0  0  0  0  0  0  0  0  0  0  0
   -5.0314   25.8927  -31.0257 H   0  0  0  0  0  0  0  0  0  0  0  0
   -5.8717   26.0311  -29.4033 H   0  0  0  0  0  0  0  0  0  0  0  0
   -3.7198   25.1545  -28.9502 H   0  0  0  0  0  0  0  0  0  0  0  0
   -4.9003   23.7689  -28.8587 H   0  0  0  0  0  0  0  0  0  0  0  0
   -4.1181   22.7906  -30.8244 H   0  0  0  0  0  0  0  0  0  0  0  0
   -3.3660   24.3277  -31.4060 H   0  0  0  0  0  0  0  0  0  0  0  0
   -1.4841   21.5225  -30.8415 H   0  0  0  0  0  0  0  0  0  0  0  0
   -1.5476   21.4988  -29.0449 H   0  0  0  0  0  0  0  0  0  0  0  0
   -3.7971   20.9397  -28.9921 H   0  0  0  0  0  0  0  0  0  0  0  0
   -4.1508   21.7672  -30.5467 H   0  0  0  0  0  0  0  0  0  0  0  0
   -3.3414   20.1637  -30.5467 H   0  0  0  0  0  0  0  0  0  0  0  0
   -2.8791   24.6063  -28.4149 H   0  0  0  0  0  0  0  0  0  0  0  0
   -2.2224   23.0169  -27.8549 H   0  0  0  0  0  0  0  0  0  0  0  0
   -0.1520   23.8635  -27.6682 H   0  0  0  0  0  0  0  0  0  0  0  0
   -0.2129   24.4956  -29.3581 H   0  0  0  0  0  0  0  0  0  0  0  0
   -8.8211   22.6637  -31.2811 H   0  0  0  0  0  0  0  0  0  0  0  0
   -9.5185   20.3080  -31.7362 H   0  0  0  0  0  0  0  0  0  0  0  0
   -7.8971   18.6704  -32.7434 H   0  0  0  0  0  0  0  0  0  0  0  0
  1  2  1  0
  2  3  1  0
  3  4  1  0
  4  5  1  0
  3  6  1  0
  6  7  1  0
  7  8  1  0
  8  9  1  0
  9 10  2  0
 10 11  1  0
 11 12  2  0
 12 13  1  0
 13 14  2  0
 14 15  1  0
 15 16  2  0
 16 17  1  0
 16 18  1  0
 18 19  2  0
 19 20  1  0
 20 21  1  0
 21 22  2  0
 22 23  1  0
 23 24  1  0
 24 25  1  0
 25 26  1  0
 26 27  1  0
 27 28  1  0
 28 29  1  0
 29 30  1  0
 28 31  1  0
 31 32  1  0
 32 33  1  0
 22 34  1  0
 34 35  2  0
 35 36  1  0
 36 37  2  0
 19  9  1  0
 37 21  1  0
 15 10  1  0
 37 18  1  0
  1 38  1  0
  1 39  1  0
  1 40  1  0
  2 41  1  0
  2 42  1  0
  4 43  1  0
  4 44  1  0
  5 45  1  0
  5 46  1  0
  5 47  1  0
  6 48  1  0
  6 49  1  0
  7 50  1  0
  7 51  1  0
  8 52  1  0
 11 53  1  0
 12 54  1  0
 13 55  1  0
 14 56  1  0
 17 57  1  0
 17 58  1  0
 17 59  1  0
 24 60  1  0
 24 61  1  0
 25 62  1  0
 25 63  1  0
 26 64  1  0
 26 65  1  0
 27 66  1  0
 27 67  1  0
 29 68  1  0
 29 69  1  0
 30 70  1  0
 30 71  1  0
 30 72  1  0
 31 73  1  0
 31 74  1  0
 32 75  1  0
 32 76  1  0
 34 77  1  0
 35 78  1  0
 36 79  1  0
M  CHG  1  16   1
M  END
>  <UniqueID>  (1) 
1

>  <SMILES>  (1) 
CCN(CC)CCNc1c2ccccc2[n+](C)c2c1oc1c(OCCCCN(CC)CCCl)cccc12

>  <Energy>  (1) 
137.08675091973873

>  <Genealogy>  (1) 
CCN(CC)CCNc1c2ccccc2[n+](C)c2c1oc1c(OCCCCN(CC)CCCl)cccc12 (3D coordinates assigned)
CCN(CC)CCNc1c2ccccc2[n+](C)c2c1oc1c(OCCCCN(CC)CCCl)cccc12 (optimized conformer: 137.08675091973873 kcal/mol)

>  <smiles>  (1) 
CCN(CC)CCNc1c2ccccc2[n+](C)c2c1oc1c(OCCCCN(CC)CCCl)cccc12

>  <score_type>  (1) 
oracle

>  <origin>  (1) 
adg

>  <m_score__min__energy>  (1) 
-8.8200000000000003

>  <m_primary>  (1) 
energy

$$$$
1:0
     RDKit          3D

 55 59  0  0  1  0  0  0  0  0999 V2000
   -3.4600   18.9120  -26.2370 Cl  0  0  0  0  0  0  0  0  0  0  0  0
   -2.1690   19.3410  -27.3050 C   0  0  0  0  0  0  0  0  0  0  0  0
   -0.9420   18.6930  -27.1580 C   0  0  0  0  0  0  0  0  0  0  0  0
    0.0860   19.0390  -28.0130 C   0  0  0  0  0  0  0  0  0  0  0  0
   -0.0990   20.0060  -28.9900 C   0  0  0  0  0  0  0  0  0  0  0  0
   -1.3080   20.6610  -29.1530 C   0  0  0  0  0  0  0  0  0  0  0  0
   -1.3930   21.6800  -30.2020 C   0  0  0  0  0  0  0  0  0  0  0  0
   -1.2220   22.9850  -29.8620 O   0  0  0  0  0  0  0  0  0  0  0  0
   -1.1540   23.7250  -28.7460 C   0  0  0  0  0  0  0  0  0  0  0  0
   -0.0360   23.9750  -27.9740 C   0  0  0  0  0  0  0  0  0  0  0  0
   -0.0590   24.7530  -26.8360 C   0  0  0  0  0  0  0  0  0  0  0  0
   -1.2390   25.3240  -26.4190 C   0  0  0  0  0  0  0  0  0  0  0  0
   -1.3050   26.4040  -24.8490 Br  0  0  0  0  0  0  0  0  0  0  0  0
   -2.3680   25.1010  -27.1550 C   0  0  0  0  0  0  0  0  0  0  0  0
   -2.3300   24.3220  -28.2890 C   0  0  0  0  0  0  0  0  0  0  0  0
   -3.5750   24.1360  -29.0140 C   0  0  0  0  0  0  0  0  0  0  0  0
   -3.8760   24.9130  -30.1070 C   0  0  0  0  0  0  0  0  0  0  0  0
   -5.0520   24.7610  -30.8170 C   0  0  0  0  0  0  0  0  0  0  0  0
   -6.0090   23.7970  -30.4580 C   0  0  0  0  0  0  0  0  0  0  0  0
   -7.2770   23.6330  -31.2200 C   0  0  0  0  0  0  0  0  0  0  0  0
   -7.2300   22.7940  -32.3130 N   0  0  0  0  0  0  0  0  0  0  0  0
   -6.6530   21.7380  -32.5320 C   0  0  0  0  0  0  0  0  0  0  0  0
   -5.3910   21.7620  -33.0210 N   0  0  0  0  0  0  0  0  0  0  0  0
   -4.6880   20.6620  -33.3260 C   0  0  0  0  0  0  0  0  0  0  0  0
   -5.2670   19.4670  -33.1370 N   0  0  0  0  0  0  0  0  0  0  0  0
   -6.5160   19.4120  -32.6530 C   0  0  0  0  0  0  0  0  0  0  0  0
   -7.0610   18.1600  -32.4730 C   0  0  0  0  0  0  0  0  0  0  0  0
   -8.3400   18.1240  -31.9690 C   0  0  0  0  0  0  0  0  0  0  0  0
   -9.0870   19.2090  -31.6430 C   0  0  0  0  0  0  0  0  0  0  0  0
   -8.5240   20.4950  -31.8280 C   0  0  0  0  0  0  0  0  0  0  0  0
   -7.2650   20.5300  -32.3280 C   0  0  0  0  0  0  0  0  0  0  0  0
   -5.6680   23.0410  -29.3600 C   0  0  0  0  0  0  0  0  0  0  0  0
   -4.4990   23.1840  -28.6450 C   0  0  0  0  0  0  0  0  0  0  0  0
   -2.3180   20.3040  -28.2930 C   0  0  0  0  0  0  0  0  0  0  0  0
   -0.7973   17.9270  -26.3819 H   0  0  0  0  0  0  0  0  0  0  0  0
    1.0627   18.5420  -27.9180 H   0  0  0  0  0  0  0  0  0  0  0  0
    0.7396   20.2601  -29.6550 H   0  0  0  0  0  0  0  0  0  0  0  0
   -0.6249   21.4377  -30.9512 H   0  0  0  0  0  0  0  0  0  0  0  0
   -2.4385   21.6277  -30.5399 H   0  0  0  0  0  0  0  0  0  0  0  0
    0.9216   23.5306  -28.2831 H   0  0  0  0  0  0  0  0  0  0  0  0
    0.8651   24.9169  -26.2622 H   0  0  0  0  0  0  0  0  0  0  0  0
   -3.3204   25.5501  -26.8370 H   0  0  0  0  0  0  0  0  0  0  0  0
   -3.1570   25.6814  -30.4274 H   0  0  0  0  0  0  0  0  0  0  0  0
   -5.2433   25.4104  -31.6840 H   0  0  0  0  0  0  0  0  0  0  0  0
   -8.0353   23.2387  -30.5275 H   0  0  0  0  0  0  0  0  0  0  0  0
   -7.5058   24.6296  -31.6256 H   0  0  0  0  0  0  0  0  0  0  0  0
   -4.9060   22.6750  -33.1820 H   0  0  0  0  0  0  0  0  0  0  0  0
   -3.6640   20.7374  -33.7206 H   0  0  0  0  0  0  0  0  0  0  0  0
   -6.5057   17.2426  -32.7180 H   0  0  0  0  0  0  0  0  0  0  0  0
   -8.7951   17.1341  -31.8176 H   0  0  0  0  0  0  0  0  0  0  0  0
  -10.1056   19.0923  -31.2445 H   0  0  0  0  0  0  0  0  0  0  0  0
   -9.0769   21.4130  -31.5800 H   0  0  0  0  0  0  0  0  0  0  0  0
   -6.3783   22.2686  -29.0301 H   0  0  0  0  0  0  0  0  0  0  0  0
   -4.3034   22.5364  -27.7776 H   0  0  0  0  0  0  0  0  0  0  0  0
   -3.2919   20.8057  -28.3923 H   0  0  0  0  0  0  0  0  0  0  0  0
  1  2  1  0
  2  3  2  0
  3  4  1  0
  4  5  2  0
  5  6  1  0
  6  7  1  0
  7  8  1  0
  8  9  1  0
  9 10  2  0
 10 11  1  0
 11 12  2  0
 12 13  1  0
 12 14  1  0
 14 15  2  0
 15 16  1  0
 16 17  2  0
 17 18  1  0
 18 19  2  0
 19 20  1  0
 20 21  1  0
 21 22  2  0
 22 23  1  0
 23 24  1  0
 24 25  2  0
 25 26  1  0
 26 27  2  0
 27 28  1  0
 28 29  2  0
 29 30  1  0
 30 31  2  0
 19 32  1  0
 32 33  2  0
  6 34  2  0
 34  2  1  0
 15  9  1  0
 33 16  1  0
 31 22  1  0
 31 26  1  0
  3 35  1  0
  4 36  1  0
  5 37  1  0
  7 38  1  0
  7 39  1  0
 10 40  1  0
 11 41  1  0
 14 42  1  0
 17 43  1  0
 18 44  1  0
 20 45  1  0
 20 46  1  0
 23 47  1  0
 24 48  1  0
 27 49  1  0
 28 50  1  0
 29 51  1  0
 30 52  1  0
 32 53  1  0
 33 54  1  0
 34 55  1  0
M  END
>  <smiles>  (2) 
Clc1cccc(COc2ccc(Br)cc2-c2ccc(CN=c3[nH]cnc4ccccc34)cc2)c1

>  <score_type>  (2) 
oracle

>  <origin>  (2) 
adg

>  <m_score__min__energy>  (2) 
-11.119999999999999

>  <m_primary>  (2) 
energy

$$$$
2:0
     RDKit          3D

 33 34  0  0  0  0  0  0  0  0999 V2000
   -8.6680   18.5790  -31.6200 C   0  0  0  0  0  0  0  0  0  0  0  0
   -9.0590   19.7890  -32.4610 C   0  0  0  0  0  0  0  0  0  0  0  0
   -7.8990   20.4750  -32.9310 O   0  0  0  0  0  0  0  0  0  0  0  0
   -7.2020   21.4750  -32.2320 C   0  0  0  0  0  0  0  0  0  0  0  0
   -5.8300   21.7290  -32.4300 C   0  0  0  0  0  0  0  0  0  0  0  0
   -5.1910   22.7420  -31.7090 C   0  0  0  0  0  0  0  0  0  0  0  0
   -5.9090   23.5150  -30.7870 C   0  0  0  0  0  0  0  0  0  0  0  0
   -5.1000   24.8150  -29.9180 S   0  0  0  0  0  0  0  0  0  0  0  0
   -6.0660   25.9520  -29.7450 O   0  0  0  0  0  0  0  0  0  0  0  0
   -3.9000   25.3020  -30.6810 O   0  0  0  0  0  0  0  0  0  0  0  0
   -4.5890   24.2520  -28.3560 N   0  0  0  0  0  0  0  0  0  0  0  0
   -3.2420   24.3980  -27.8690 C   0  0  0  0  0  0  0  0  0  0  0  0
   -2.9600   25.1890  -26.7410 C   0  0  0  0  0  0  0  0  0  0  0  0
   -1.6470   25.3300  -26.2890 C   0  0  0  0  0  0  0  0  0  0  0  0
   -1.2640   26.4160  -24.7670 Br  0  0  0  0  0  0  0  0  0  0  0  0
   -0.6190   24.6680  -26.9600 C   0  0  0  0  0  0  0  0  0  0  0  0
   -0.9010   23.8980  -28.0420 N   0  0  0  0  0  0  0  0  0  0  0  0
   -2.1690   23.7430  -28.5090 C   0  0  0  0  0  0  0  0  0  0  0  0
   -2.4110   22.7450  -29.9340 Cl  0  0  0  0  0  0  0  0  0  0  0  0
   -7.2700   23.2560  -30.5800 C   0  0  0  0  0  0  0  0  0  0  0  0
   -7.9090   22.2420  -31.2980 C   0  0  0  0  0  0  0  0  0  0  0  0
   -8.7499   18.8324  -30.5527 H   0  0  0  0  0  0  0  0  0  0  0  0
   -9.3406   17.7396  -31.8502 H   0  0  0  0  0  0  0  0  0  0  0  0
   -7.6314   18.2920  -31.8502 H   0  0  0  0  0  0  0  0  0  0  0  0
   -9.6531   19.4522  -33.3233 H   0  0  0  0  0  0  0  0  0  0  0  0
   -9.6473   20.4775  -31.8366 H   0  0  0  0  0  0  0  0  0  0  0  0
   -5.2601   21.1283  -33.1541 H   0  0  0  0  0  0  0  0  0  0  0  0
   -4.1192   22.9332  -31.8663 H   0  0  0  0  0  0  0  0  0  0  0  0
   -5.2870   23.7020  -27.8100 H   0  0  0  0  0  0  0  0  0  0  0  0
   -3.7785   25.6993  -26.2121 H   0  0  0  0  0  0  0  0  0  0  0  0
    0.4198   24.7697  -26.6127 H   0  0  0  0  0  0  0  0  0  0  0  0
   -7.8371   23.8525  -29.8503 H   0  0  0  0  0  0  0  0  0  0  0  0
   -8.9776   22.0444  -31.1279 H   0  0  0  0  0  0  0  0  0  0  0  0
  1  2  1  0
  2  3  1  0
  3  4  1  0
  4  5  2  0
  5  6  1  0
  6  7  2  0
  7  8  1  0
  8  9  2  0
  8 10  2  0
  8 11  1  0
 11 12  1  0
 12 13  2  0
 13 14  1  0
 14 15  1  0
 14 16  2  0
 16 17  1  0
 17 18  2  0
 18 19  1  0
  7 20  1  0
 20 21  2  0
 21  4  1  0
 18 12  1  0
  1 22  1  0
  1 23  1  0
  1 24  1  0
  2 25  1  0
  2 26  1  0
  5 27  1  0
  6 28  1  0
 11 29  1  0
 13 30  1  0
 16 31  1  0
 20 32  1  0
 21 33  1  0
M  END
>  <UniqueID>  (3) 
2

>  <SMILES>  (3) 
CCOc1ccc(S(=O)(=O)Nc2cc(Br)cnc2Cl)cc1

>  <Energy>  (3) 
35.565654974975786

>  <Genealogy>  (3) 
CCOc1ccc(S(=O)(=O)Nc2cc(Br)cnc2Cl)cc1 (3D coordinates assigned)
CCOc1ccc(S(=O)(=O)Nc2cc(Br)cnc2Cl)cc1 (optimized conformer: 35.565654974975786 kcal/mol)

>  <smiles>  (3) 
CCOc1ccc(S(=O)(=O)Nc2cc(Br)cnc2Cl)cc1

>  <score_type>  (3) 
oracle

>  <origin>  (3) 
adg

>  <m_score__min__energy>  (3) 
-8.4399999999999995

>  <m_primary>  (3) 
energy

$$$$
3:0
     RDKit          3D

 74 77  0  0  0  0  0  0  0  0999 V2000
   -1.4840   18.3700  -33.5550 C   0  0  0  0  0  0  0  0  0  0  0  0
   -0.9860   19.3580  -34.6150 C   0  0  0  0  0  0  0  0  0  0  0  0
   -1.0640   20.7750  -34.1440 N   0  0  0  0  0  0  0  0  0  0  0  0
    0.1270   21.5600  -34.5620 C   0  0  0  0  0  0  0  0  0  0  0  0
    0.3090   21.6660  -36.0850 C   0  0  0  0  0  0  0  0  0  0  0  0
   -1.2840   20.8760  -32.6760 C   0  0  0  0  0  0  0  0  0  0  0  0
   -2.5830   21.6110  -32.3040 C   0  0  0  0  0  0  0  0  0  0  0  0
   -3.6000   21.4680  -33.3500 N   0  0  0  0  0  0  0  0  0  0  0  0
   -4.9500   21.0900  -33.0310 C   0  0  0  0  0  0  0  0  0  0  0  0
   -5.7480   21.9230  -32.2240 C   0  0  0  0  0  0  0  0  0  0  0  0
   -5.2580   23.1610  -31.7540 C   0  0  0  0  0  0  0  0  0  0  0  0
   -6.0150   23.9460  -30.8890 C   0  0  0  0  0  0  0  0  0  0  0  0
   -7.2660   23.5100  -30.4710 C   0  0  0  0  0  0  0  0  0  0  0  0
   -7.7820   22.3040  -30.9400 C   0  0  0  0  0  0  0  0  0  0  0  0
   -7.0530   21.5000  -31.8560 C   0  0  0  0  0  0  0  0  0  0  0  0
   -7.5730   20.3250  -32.3650 N   0  0  0  0  0  0  0  0  0  0  0  0
   -9.0150   20.0250  -32.2060 C   0  0  0  0  0  0  0  0  0  0  0  0
   -6.7580   19.4480  -33.0580 C   0  0  0  0  0  0  0  0  0  0  0  0
   -7.1790   18.1320  -33.3770 C   0  0  0  0  0  0  0  0  0  0  0  0
   -6.3840   17.2730  -34.1400 C   0  0  0  0  0  0  0  0  0  0  0  0
   -6.8650   15.9750  -34.3890 O   0  0  0  0  0  0  0  0  0  0  0  0
   -6.2780   14.7650  -33.9120 C   0  0  0  0  0  0  0  0  0  0  0  0
   -4.7680   14.6510  -34.2450 C   0  0  0  0  0  0  0  0  0  0  0  0
   -3.8470   14.1790  -33.1510 N   0  0  0  0  0  0  0  0  0  0  0  0
   -2.7480   15.1840  -33.0610 C   0  0  0  0  0  0  0  0  0  0  0  0
   -4.5670   14.1360  -31.8350 C   0  0  0  0  0  0  0  0  0  0  0  0
   -4.0090   13.0650  -30.8740 C   0  0  0  0  0  0  0  0  0  0  0  0
   -2.6210   12.9060  -31.0530 O   0  0  0  0  0  0  0  0  0  0  0  0
   -2.3440   12.3230  -32.3170 C   0  0  0  0  0  0  0  0  0  0  0  0
   -3.2580   12.8440  -33.4580 C   0  0  0  0  0  0  0  0  0  0  0  0
   -5.1460   17.7260  -34.6120 C   0  0  0  0  0  0  0  0  0  0  0  0
   -4.6870   18.9940  -34.2690 C   0  0  0  0  0  0  0  0  0  0  0  0
   -5.4560   19.8470  -33.4520 C   0  0  0  0  0  0  0  0  0  0  0  0
   -1.2802   18.7742  -32.5525 H   0  0  0  0  0  0  0  0  0  0  0  0
   -2.5667   18.2175  -33.6758 H   0  0  0  0  0  0  0  0  0  0  0  0
   -0.9626   17.4090  -33.6758 H   0  0  0  0  0  0  0  0  0  0  0  0
    0.0608   19.1215  -34.8563 H   0  0  0  0  0  0  0  0  0  0  0  0
   -1.6317   19.2592  -35.5001 H   0  0  0  0  0  0  0  0  0  0  0  0
   -1.8690   21.2500  -34.6140 H   0  0  0  0  0  0  0  0  0  0  0  0
    0.0302   22.5771  -34.1545 H   0  0  0  0  0  0  0  0  0  0  0  0
    1.0083   21.0278  -34.1746 H   0  0  0  0  0  0  0  0  0  0  0  0
    1.2401   22.2083  -36.3061 H   0  0  0  0  0  0  0  0  0  0  0  0
    0.3606   20.6567  -36.5192 H   0  0  0  0  0  0  0  0  0  0  0  0
   -0.5435   22.2089  -36.5192 H   0  0  0  0  0  0  0  0  0  0  0  0
   -1.3266   19.8591  -32.2587 H   0  0  0  0  0  0  0  0  0  0  0  0
   -0.4493   21.4600  -32.2611 H   0  0  0  0  0  0  0  0  0  0  0  0
   -2.9744   21.1920  -31.3653 H   0  0  0  0  0  0  0  0  0  0  0  0
   -2.3535   22.6807  -32.1899 H   0  0  0  0  0  0  0  0  0  0  0  0
   -3.3950   21.8330  -34.3070 H   0  0  0  0  0  0  0  0  0  0  0  0
   -4.2654   23.5095  -32.0755 H   0  0  0  0  0  0  0  0  0  0  0  0
   -5.6227   24.9113  -30.5365 H   0  0  0  0  0  0  0  0  0  0  0  0
   -7.8515   24.1195  -29.7669 H   0  0  0  0  0  0  0  0  0  0  0  0
   -8.7712   21.9687  -30.5949 H   0  0  0  0  0  0  0  0  0  0  0  0
   -9.2629   19.9734  -31.1355 H   0  0  0  0  0  0  0  0  0  0  0  0
   -9.6093   20.8187  -32.6822 H   0  0  0  0  0  0  0  0  0  0  0  0
   -9.2435   19.0601  -32.6822 H   0  0  0  0  0  0  0  0  0  0  0  0
   -8.1557   17.7787  -33.0148 H   0  0  0  0  0  0  0  0  0  0  0  0
   -6.4000   14.7232  -32.8196 H   0  0  0  0  0  0  0  0  0  0  0  0
   -6.7894   13.9310  -34.4149 H   0  0  0  0  0  0  0  0  0  0  0  0
   -4.6684   13.9482  -35.0853 H   0  0  0  0  0  0  0  0  0  0  0  0
   -4.4490   15.6829  -34.4532 H   0  0  0  0  0  0  0  0  0  0  0  0
   -2.5241   15.3888  -32.0037 H   0  0  0  0  0  0  0  0  0  0  0  0
   -1.8487   14.7893  -33.5565 H   0  0  0  0  0  0  0  0  0  0  0  0
   -3.0609   16.1149  -33.5565 H   0  0  0  0  0  0  0  0  0  0  0  0
   -4.4749   15.1206  -31.3533 H   0  0  0  0  0  0  0  0  0  0  0  0
   -5.6153   13.8756  -32.0431 H   0  0  0  0  0  0  0  0  0  0  0  0
   -4.2057   13.3737  -29.8367 H   0  0  0  0  0  0  0  0  0  0  0  0
   -4.5040   12.1065  -31.0889 H   0  0  0  0  0  0  0  0  0  0  0  0
   -1.2992   12.5447  -32.5803 H   0  0  0  0  0  0  0  0  0  0  0  0
   -2.5327   11.2435  -32.2215 H   0  0  0  0  0  0  0  0  0  0  0  0
   -2.6620   12.9244  -34.3790 H   0  0  0  0  0  0  0  0  0  0  0  0
   -4.0873   12.1309  -33.5750 H   0  0  0  0  0  0  0  0  0  0  0  0
   -4.5342   17.0773  -35.2561 H   0  0  0  0  0  0  0  0  0  0  0  0
   -3.7098   19.3356  -34.6409 H   0  0  0  0  0  0  0  0  0  0  0  0
  1  2  1  0
  2  3  1  0
  3  4  1  0
  4  5  1  0
  3  6  1  0
  6  7  1  0
  7  8  1  0
  8  9  1  0
  9 10  2  0
 10 11  1  0
 11 12  2  0
 12 13  1  0
 13 14  2  0
 14 15  1  0
 15 16  2  0
 16 17  1  0
 16 18  1  0
 18 19  2  0
 19 20  1  0
 20 21  1  0
 21 22  1  0
 22 23  1  0
 23 24  1  0
 24 25  1  0
 24 26  1  0
 26 27  1  0
 27 28  1  0
 28 29  1  0
 29 30  1  0
 20 31  2  0
 31 32  1  0
 32 33  2  0
 33  9  1  0
 15 10  1  0
 33 18  1  0
 30 24  1  0
  1 34  1  0
  1 35  1  0
  1 36  1  0
  2 37  1  0
  2 38  1  0
  3 39  1  0
  4 40  1  0
  4 41  1  0
  5 42  1  0
  5 43  1  0
  5 44  1  0
  6 45  1  0
  6 46  1  0
  7 47  1  0
  7 48  1  0
  8 49  1  0
 11 50  1  0
 12 51  1  0
 13 52  1  0
 14 53  1  0
 17 54  1  0
 17 55  1  0
 17 56  1  0
 19 57  1  0
 22 58  1  0
 22 59  1  0
 23 60  1  0
 23 61  1  0
 25 62  1  0
 25 63  1  0
 25 64  1  0
 26 65  1  0
 26 66  1  0
 27 67  1  0
 27 68  1  0
 29 69  1  0
 29 70  1  0
 30 71  1  0
 30 72  1  0
 31 73  1  0
 32 74  1  0
M  CHG  3   3   1  16   1  24   1
M  END
>  <UniqueID>  (4) 
3

>  <SMILES>  (4) 
CC[NH+](CC)CCNc1c2ccccc2[n+](C)c2cc(OCC[N+]3(C)CCOCC3)ccc12

>  <Energy>  (4) 
128.93809542373023

>  <Genealogy>  (4) 
CC[NH+](CC)CCNc1c2ccccc2[n+](C)c2cc(OCC[N+]3(C)CCOCC3)ccc12 (protonated)
CC[NH+](CC)CCNc1c2ccccc2[n+](C)c2cc(OCC[N+]3(C)CCOCC3)ccc12 (3D coordinates assigned)
CC[NH+](CC)CCNc1c2ccccc2[n+](C)c2cc(OCC[N+]3(C)CCOCC3)ccc12 (nonaromatic ring conformer: 128.93809542373023 kcal/mol)

>  <smiles>  (4) 
CCN(CC)CCNc1c2ccccc2[n+](C)c2cc(OCC[N+]3(C)CCOCC3)ccc12

>  <score_type>  (4) 
oracle

>  <origin>  (4) 
adg

>  <m_score__min__energy>  (4) 
-7.1500000000000004

>  <m_primary>  (4) 
energy

$$$$
4:0
     RDKit          3D

 35 36  0  0  0  0  0  0  0  0999 V2000
   -4.2740   23.8830  -28.6530 C   0  0  0  0  0  0  0  0  0  0  0  0
   -3.2600   24.3670  -29.6820 C   0  0  0  0  0  0  0  0  0  0  0  0
   -3.9410   25.1120  -30.7470 N   0  0  0  0  0  0  0  0  0  0  0  0
   -5.3540   25.3150  -30.4020 C   0  0  0  0  0  0  0  0  0  0  0  0
   -6.2570   24.4310  -31.2780 C   0  0  0  0  0  0  0  0  0  0  0  0
   -5.5090   23.6770  -32.3000 N   0  0  0  0  0  0  0  0  0  0  0  0
   -5.9240   22.2920  -32.3610 C   0  0  0  0  0  0  0  0  0  0  0  0
   -7.2930   21.9760  -32.1690 C   0  0  0  0  0  0  0  0  0  0  0  0
   -7.6780   20.6410  -32.2130 C   0  0  0  0  0  0  0  0  0  0  0  0
   -8.9190   20.1400  -32.0630 N   0  0  0  0  0  0  0  0  0  0  0  0
   -8.7280   18.8020  -32.2060 C   0  0  0  0  0  0  0  0  0  0  0  0
   -7.4340   18.4700  -32.4300 N   0  0  0  0  0  0  0  0  0  0  0  0
   -6.8890   17.1380  -32.6650 C   0  0  0  0  0  0  0  0  0  0  0  0
   -6.7820   19.6430  -32.4380 C   0  0  0  0  0  0  0  0  0  0  0  0
   -5.4290   19.8950  -32.6460 C   0  0  0  0  0  0  0  0  0  0  0  0
   -4.9910   21.2330  -32.6090 C   0  0  0  0  0  0  0  0  0  0  0  0
   -3.1250   21.5470  -32.9240 Br  0  0  0  0  0  0  0  0  0  0  0  0
   -3.8859   24.0682  -27.6405 H   0  0  0  0  0  0  0  0  0  0  0  0
   -5.2210   24.4262  -28.7878 H   0  0  0  0  0  0  0  0  0  0  0  0
   -4.4472   22.8051  -28.7878 H   0  0  0  0  0  0  0  0  0  0  0  0
   -2.5269   25.0232  -29.1901 H   0  0  0  0  0  0  0  0  0  0  0  0
   -2.7481   23.4977  -30.1205 H   0  0  0  0  0  0  0  0  0  0  0  0
   -3.4890   26.0540  -30.8180 H   0  0  0  0  0  0  0  0  0  0  0  0
   -5.5091   25.0545  -29.3446 H   0  0  0  0  0  0  0  0  0  0  0  0
   -5.6137   26.3697  -30.5759 H   0  0  0  0  0  0  0  0  0  0  0  0
   -6.7824   23.7150  -30.6289 H   0  0  0  0  0  0  0  0  0  0  0  0
   -6.9558   25.0963  -31.8062 H   0  0  0  0  0  0  0  0  0  0  0  0
   -5.6990   24.1150  -33.2310 H   0  0  0  0  0  0  0  0  0  0  0  0
   -4.4810   23.7720  -32.1400 H   0  0  0  0  0  0  0  0  0  0  0  0
   -8.0335   22.7693  -31.9893 H   0  0  0  0  0  0  0  0  0  0  0  0
   -9.5414   18.0639  -32.1460 H   0  0  0  0  0  0  0  0  0  0  0  0
   -6.6887   16.6484  -31.7006 H   0  0  0  0  0  0  0  0  0  0  0  0
   -7.6149   16.5403  -33.2359 H   0  0  0  0  0  0  0  0  0  0  0  0
   -5.9524   17.2205  -33.2359 H   0  0  0  0  0  0  0  0  0  0  0  0
   -4.7225   19.0731  -32.8338 H   0  0  0  0  0  0  0  0  0  0  0  0
  1  2  1  0
  2  3  1  0
  3  4  1  0
  4  5  1  0
  5  6  1  0
  6  7  1  0
  7  8  2  0
  8  9  1  0
  9 10  1  0
 10 11  2  0
 11 12  1  0
 12 13  1  0
 12 14  1  0
 14 15  1  0
 15 16  2  0
 16 17  1  0
 16  7  1  0
 14  9  2  0
  1 18  1  0
  1 19  1  0
  1 20  1  0
  2 21  1  0
  2 22  1  0
  3 23  1  0
  4 24  1  0
  4 25  1  0
  5 26  1  0
  5 27  1  0
  6 28  1  0
  6 29  1  0
  8 30  1  0
 11 31  1  0
 13 32  1  0
 13 33  1  0
 13 34  1  0
 15 35  1  0
M  CHG  1   6   1
M  END
>  <UniqueID>  (5) 
4

>  <SMILES>  (5) 
CCNCC[NH2+]c1cc2ncn(C)c2cc1Br

>  <Energy>  (5) 
67.9334579554715

>  <Genealogy>  (5) 
CCNCC[NH2+]c1cc2ncn(C)c2cc1Br (protonated)
CCNCC[NH2+]c1cc2ncn(C)c2cc1Br (3D coordinates assigned)
CCNCC[NH2+]c1cc2ncn(C)c2cc1Br (optimized conformer: 67.9334579554715 kcal/mol)

>  <smiles>  (5) 
CCNCCNc1cc2ncn(C)c2cc1Br

>  <score_type>  (5) 
oracle

>  <origin>  (5) 
adg

>  <m_score__min__energy>  (5) 
-6.5199999999999996

>  <m_primary>  (5) 
energy

$$$$
5:0
     RDKit          3D

 49 51  0  0  0  0  0  0  0  0999 V2000
   -6.4330   16.7010  -34.2680 C   0  0  0  0  0  0  0  0  0  0  0  0
   -5.4720   17.6610  -34.9540 C   0  0  0  0  0  0  0  0  0  0  0  0
   -4.9500   18.6240  -33.9620 N   0  0  0  0  0  0  0  0  0  0  0  0
   -3.4740   18.6140  -33.8420 C   0  0  0  0  0  0  0  0  0  0  0  0
   -2.8860   20.0230  -33.8390 C   0  0  0  0  0  0  0  0  0  0  0  0
   -5.7330   18.6910  -32.7030 C   0  0  0  0  0  0  0  0  0  0  0  0
   -5.1720   19.6260  -31.6010 C   0  0  0  0  0  0  0  0  0  0  0  0
   -5.7170   20.9860  -31.7040 N   0  0  0  0  0  0  0  0  0  0  0  0
   -5.0350   22.1710  -31.6790 C   0  0  0  0  0  0  0  0  0  0  0  0
   -3.2850   22.3600  -31.2780 S   0  0  0  0  0  0  0  0  0  0  0  0
   -3.5440   22.9130  -29.5830 C   0  0  0  0  0  0  0  0  0  0  0  0
   -4.1530   24.0770  -29.1470 C   0  0  0  0  0  0  0  0  0  0  0  0
   -4.7940   25.0700  -29.9570 N   0  0  0  0  0  0  0  0  0  0  0  0
   -4.1680   25.6470  -30.8690 O   0  0  0  0  0  0  0  0  0  0  0  0
   -6.1590   25.2290  -29.8770 O   0  0  0  0  0  0  0  0  0  0  0  0
   -4.1630   24.1160  -27.7990 N   0  0  0  0  0  0  0  0  0  0  0  0
   -3.5780   22.9550  -27.4350 C   0  0  0  0  0  0  0  0  0  0  0  0
   -3.1960   22.2080  -28.4890 N   0  0  0  0  0  0  0  0  0  0  0  0
   -2.7310   20.8250  -28.4270 C   0  0  0  0  0  0  0  0  0  0  0  0
   -5.8590   23.2430  -31.7840 N   0  0  0  0  0  0  0  0  0  0  0  0
   -7.0870   22.7190  -31.8810 C   0  0  0  0  0  0  0  0  0  0  0  0
   -8.3010   23.3940  -31.9760 C   0  0  0  0  0  0  0  0  0  0  0  0
   -9.4760   22.6220  -32.0140 C   0  0  0  0  0  0  0  0  0  0  0  0
   -9.4080   21.2110  -31.9410 C   0  0  0  0  0  0  0  0  0  0  0  0
   -8.1640   20.5630  -31.8300 C   0  0  0  0  0  0  0  0  0  0  0  0
   -7.0130   21.3540  -31.8200 C   0  0  0  0  0  0  0  0  0  0  0  0
   -6.3338   16.8001  -33.1770 H   0  0  0  0  0  0  0  0  0  0  0  0
   -7.4647   16.9399  -34.5656 H   0  0  0  0  0  0  0  0  0  0  0  0
   -6.1952   15.6691  -34.5656 H   0  0  0  0  0  0  0  0  0  0  0  0
   -4.6364   17.0944  -35.3907 H   0  0  0  0  0  0  0  0  0  0  0  0
   -6.0011   18.2042  -35.7509 H   0  0  0  0  0  0  0  0  0  0  0  0
   -3.1984   18.1131  -32.9022 H   0  0  0  0  0  0  0  0  0  0  0  0
   -3.0679   18.0805  -34.7141 H   0  0  0  0  0  0  0  0  0  0  0  0
   -2.7456   20.3595  -32.8012 H   0  0  0  0  0  0  0  0  0  0  0  0
   -1.9155   20.0164  -34.3568 H   0  0  0  0  0  0  0  0  0  0  0  0
   -3.5733   20.7082  -34.3568 H   0  0  0  0  0  0  0  0  0  0  0  0
   -6.7459   19.0382  -32.9550 H   0  0  0  0  0  0  0  0  0  0  0  0
   -5.6966   17.6772  -32.2776 H   0  0  0  0  0  0  0  0  0  0  0  0
   -5.4344   19.2118  -30.6163 H   0  0  0  0  0  0  0  0  0  0  0  0
   -4.0812   19.6863  -31.7292 H   0  0  0  0  0  0  0  0  0  0  0  0
   -3.4290   22.6511  -26.3884 H   0  0  0  0  0  0  0  0  0  0  0  0
   -2.6283   20.5195  -27.3753 H   0  0  0  0  0  0  0  0  0  0  0  0
   -3.4585   20.1707  -28.9295 H   0  0  0  0  0  0  0  0  0  0  0  0
   -1.7559   20.7431  -28.9295 H   0  0  0  0  0  0  0  0  0  0  0  0
   -5.6060   24.2540  -31.7230 H   0  0  0  0  0  0  0  0  0  0  0  0
   -8.3398   24.4924  -32.0198 H   0  0  0  0  0  0  0  0  0  0  0  0
  -10.4537   23.1184  -32.1010 H   0  0  0  0  0  0  0  0  0  0  0  0
  -10.3332   20.6168  -31.9712 H   0  0  0  0  0  0  0  0  0  0  0  0
   -8.1000   19.4675  -31.7535 H   0  0  0  0  0  0  0  0  0  0  0  0
  1  2  1  0
  2  3  1  0
  3  4  1  0
  4  5  1  0
  3  6  1  0
  6  7  1  0
  7  8  1  0
  8  9  1  0
  9 10  1  0
 10 11  1  0
 11 12  2  0
 12 13  1  0
 13 14  2  0
 13 15  1  0
 12 16  1  0
 16 17  2  0
 17 18  1  0
 18 19  1  0
  9 20  2  0
 20 21  1  0
 21 22  2  0
 22 23  1  0
 23 24  2  0
 24 25  1  0
 25 26  2  0
 26  8  1  0
 18 11  1  0
 26 21  1  0
  1 27  1  0
  1 28  1  0
  1 29  1  0
  2 30  1  0
  2 31  1  0
  4 32  1  0
  4 33  1  0
  5 34  1  0
  5 35  1  0
  5 36  1  0
  6 37  1  0
  6 38  1  0
  7 39  1  0
  7 40  1  0
 17 41  1  0
 19 42  1  0
 19 43  1  0
 19 44  1  0
 20 45  1  0
 22 46  1  0
 23 47  1  0
 24 48  1  0
 25 49  1  0
M  CHG  3  13   1  15  -1  20   1
M  END
>  <UniqueID>  (6) 
5

>  <SMILES>  (6) 
CCN(CC)CCn1c(Sc2c([N+](=O)[O-])ncn2C)[nH+]c2ccccc21

>  <Energy>  (6) 
121.92136884287318

>  <Genealogy>  (6) 
CCN(CC)CCn1c(Sc2c([N+](=O)[O-])ncn2C)[nH+]c2ccccc21 (protonated)
CCN(CC)CCn1c(Sc2c([N+](=O)[O-])ncn2C)[nH+]c2ccccc21 (3D coordinates assigned)
CCN(CC)CCn1c(Sc2c([N+](=O)[O-])ncn2C)[nH+]c2ccccc21 (optimized conformer: 121.92136884287318 kcal/mol)

>  <smiles>  (6) 
CCN(CC)CCn1c(Sc2c([N+](=O)[O-])ncn2C)nc2ccccc21

>  <score_type>  (6) 
oracle

>  <origin>  (6) 
adg

>  <m_score__min__energy>  (6) 
-7.5199999999999996

>  <m_primary>  (6) 
energy

$$$$
6:0
     RDKit          3D

 61 61  0  0  0  0  0  0  0  0999 V2000
   -4.5659   17.7729  -32.6832 H   0  0  0  0  0  0  0  0  0  0  0  0
   -4.6640   18.5690  -33.4360 C   0  0  0  0  0  0  0  0  0  0  0  0
   -3.6480   19.4500  -33.5640 C   0  0  0  0  0  0  0  0  0  0  0  0
   -2.2250   18.9870  -33.7750 C   0  0  0  0  0  0  0  0  0  0  0  0
   -1.7420   18.8299  -32.7993 H   0  0  0  0  0  0  0  0  0  0  0  0
   -2.2265   18.0430  -34.3397 H   0  0  0  0  0  0  0  0  0  0  0  0
   -1.6707   19.7511  -34.3397 H   0  0  0  0  0  0  0  0  0  0  0  0
   -3.9370   20.9300  -33.4920 C   0  0  0  0  0  0  0  0  0  0  0  0
   -4.9278   21.1259  -33.9278 H   0  0  0  0  0  0  0  0  0  0  0  0
   -3.1595   21.4695  -34.0528 H   0  0  0  0  0  0  0  0  0  0  0  0
   -3.9220   21.4160  -32.0370 C   0  0  0  0  0  0  0  0  0  0  0  0
   -4.2356   20.5906  -31.3810 H   0  0  0  0  0  0  0  0  0  0  0  0
   -4.6120   22.2683  -31.9502 H   0  0  0  0  0  0  0  0  0  0  0  0
   -2.5460   21.8760  -31.6230 C   0  0  0  0  0  0  0  0  0  0  0  0
   -1.5440   21.2600  -32.0770 O   0  0  0  0  0  0  0  0  0  0  0  0
   -2.3230   22.9560  -30.7060 N   0  0  0  0  0  0  0  0  0  0  0  0
   -1.6600   22.8870  -29.4040 C   0  0  1  0  0  0  0  0  0  0  0  0
   -0.9460   22.0503  -29.4057 H   0  0  0  0  0  0  0  0  0  0  0  0
   -0.9000   24.1610  -29.1480 C   0  0  0  0  0  0  0  0  0  0  0  0
    0.3440   24.1080  -28.9480 O   0  0  0  0  0  0  0  0  0  0  0  0
   -1.5780   25.3780  -29.1070 O   0  0  0  0  0  0  0  0  0  0  0  0
   -1.2320   26.4380  -28.2200 C   0  0  0  0  0  0  0  0  0  0  0  0
   -1.9024   27.2920  -28.3967 H   0  0  0  0  0  0  0  0  0  0  0  0
   -0.1884   26.7323  -28.4053 H   0  0  0  0  0  0  0  0  0  0  0  0
   -1.3680   25.9840  -26.7720 C   0  0  0  0  0  0  0  0  0  0  0  0
   -1.1179   26.8189  -26.1009 H   0  0  0  0  0  0  0  0  0  0  0  0
   -2.4025   25.6604  -26.5848 H   0  0  0  0  0  0  0  0  0  0  0  0
   -0.6818   25.1449  -26.5848 H   0  0  0  0  0  0  0  0  0  0  0  0
   -2.6950   22.6310  -28.2930 C   0  0  0  0  0  0  0  0  0  0  0  0
   -3.2702   21.7306  -28.5543 H   0  0  0  0  0  0  0  0  0  0  0  0
   -2.1364   22.5123  -27.3528 H   0  0  0  0  0  0  0  0  0  0  0  0
   -3.6840   23.8000  -28.0880 C   0  0  0  0  0  0  0  0  0  0  0  0
   -3.9637   23.8406  -27.0249 H   0  0  0  0  0  0  0  0  0  0  0  0
   -3.1784   24.7209  -28.4140 H   0  0  0  0  0  0  0  0  0  0  0  0
   -4.9660   23.6550  -28.9280 C   0  0  0  0  0  0  0  0  0  0  0  0
   -4.9345   22.6861  -29.4479 H   0  0  0  0  0  0  0  0  0  0  0  0
   -5.8178   23.7278  -28.2358 H   0  0  0  0  0  0  0  0  0  0  0  0
   -5.1380   24.7710  -29.9820 C   0  0  0  0  0  0  0  0  0  0  0  0
   -5.6857   24.3603  -30.8431 H   0  0  0  0  0  0  0  0  0  0  0  0
   -5.6881   25.5958  -29.5055 H   0  0  0  0  0  0  0  0  0  0  0  0
   -3.8550   25.3080  -30.4540 N   0  0  0  0  0  0  0  0  0  0  0  0
   -3.5230   26.0470  -29.7980 H   0  0  0  0  0  0  0  0  0  0  0  0
   -3.1440   24.5320  -30.4700 H   0  0  0  0  0  0  0  0  0  0  0  0
   -5.9280   18.6110  -34.2650 C   0  0  0  0  0  0  0  0  0  0  0  0
   -6.3308   19.6344  -34.2469 H   0  0  0  0  0  0  0  0  0  0  0  0
   -5.6730   18.3020  -35.2895 H   0  0  0  0  0  0  0  0  0  0  0  0
   -6.9140   17.7230  -33.7730 O   0  0  0  0  0  0  0  0  0  0  0  0
   -7.1280   17.9280  -32.3900 C   0  0  0  0  0  0  0  0  0  0  0  0
   -7.8230   17.1671  -32.0052 H   0  0  0  0  0  0  0  0  0  0  0  0
   -6.1759   17.8470  -31.8451 H   0  0  0  0  0  0  0  0  0  0  0  0
   -7.7160   19.2940  -32.1970 C   0  0  0  0  0  0  0  0  0  0  0  0
   -6.9390   20.3150  -31.6210 C   0  0  0  0  0  0  0  0  0  0  0  0
   -5.8920   20.1180  -31.3473 H   0  0  0  0  0  0  0  0  0  0  0  0
   -7.4910   21.5780  -31.3950 C   0  0  0  0  0  0  0  0  0  0  0  0
   -6.8749   22.3744  -30.9521 H   0  0  0  0  0  0  0  0  0  0  0  0
   -8.8240   21.8330  -31.7300 C   0  0  0  0  0  0  0  0  0  0  0  0
   -9.2582   22.8266  -31.5451 H   0  0  0  0  0  0  0  0  0  0  0  0
   -9.6050   20.8220  -32.3010 C   0  0  0  0  0  0  0  0  0  0  0  0
  -10.6541   21.0219  -32.5646 H   0  0  0  0  0  0  0  0  0  0  0  0
   -9.0560   19.5600  -32.5370 C   0  0  0  0  0  0  0  0  0  0  0  0
   -9.6731   18.7704  -32.9905 H   0  0  0  0  0  0  0  0  0  0  0  0
  1  2  1  0
  2  3  2  0
  3  4  1  0
  4  5  1  0
  4  6  1  0
  4  7  1  0
  3  8  1  0
  8  9  1  0
  8 10  1  0
  8 11  1  0
 11 12  1  0
 11 13  1  0
 11 14  1  0
 14 15  2  0
 14 16  1  0
 16 17  1  0
 17 18  1  6
 17 19  1  0
 19 20  2  0
 19 21  1  0
 21 22  1  0
 22 23  1  0
 22 24  1  0
 22 25  1  0
 25 26  1  0
 25 27  1  0
 25 28  1  0
 17 29  1  0
 29 30  1  0
 29 31  1  0
 29 32  1  0
 32 33  1  0
 32 34  1  0
 32 35  1  0
 35 36  1  0
 35 37  1  0
 35 38  1  0
 38 39  1  0
 38 40  1  0
 38 41  1  0
 41 42  1  0
 41 43  1  0
  2 44  1  0
 44 45  1  0
 44 46  1  0
 44 47  1  0
 47 48  1  0
 48 49  1  0
 48 50  1  0
 48 51  1  0
 51 52  2  0
 52 53  1  0
 52 54  1  0
 54 55  1  0
 54 56  2  0
 56 57  1  0
 56 58  1  0
 58 59  1  0
 58 60  2  0
 60 61  1  0
 60 51  1  0
M  CHG  1  16  -1
M  END
>  <UniqueID>  (7) 
6

>  <SMILES>  (7) 
CCOC(=O)[C@@H](CCCCN)[N-]C(=O)CC/C(C)=C/COCc1ccccc1

>  <Energy>  (7) 
43.970916082068804

>  <Genealogy>  (7) 
CCOC(=O)C(CCCCN)[N-]C(=O)CCC(C)=CCOCc1ccccc1 (protonated)
CCOC(=O)[C@@H](CCCCN)[N-]C(=O)CCC(C)=CCOCc1ccccc1 (chirality)
CCOC(=O)[C@@H](CCCCN)[N-]C(=O)CC/C(C)=C/COCc1ccccc1 (cis-trans isomerization)
CCOC(=O)[C@@H](CCCCN)[N-]C(=O)CC/C(C)=C/COCc1ccccc1 (3D coordinates assigned)
CCOC(=O)[C@@H](CCCCN)[N-]C(=O)CC/C(C)=C/COCc1ccccc1 (optimized conformer: 43.970916082068804 kcal/mol)

>  <smiles>  (7) 
CCOC(=O)C(CCCCN)NC(=O)CCC(C)=CCOCc1ccccc1

>  <score_type>  (7) 
oracle

>  <origin>  (7) 
adg

>  <m_score__min__energy>  (7) 
-10.720000000000001

>  <m_primary>  (7) 
energy

$$$$
7:0
     RDKit          3D

 63 66  0  0  0  0  0  0  0  0999 V2000
   -0.1040   17.3190  -33.7940 C   0  0  0  0  0  0  0  0  0  0  0  0
   -0.9800   17.2650  -32.5490 C   0  0  0  0  0  0  0  0  0  0  0  0
   -2.4060   17.2770  -32.9500 N   0  0  0  0  0  0  0  0  0  0  0  0
   -2.9920   15.9220  -33.0300 C   0  0  0  0  0  0  0  0  0  0  0  0
   -4.4980   15.9360  -32.7600 C   0  0  0  0  0  0  0  0  0  0  0  0
   -2.7010   18.1820  -34.0910 C   0  0  0  0  0  0  0  0  0  0  0  0
   -3.9640   19.0580  -33.9470 C   0  0  0  0  0  0  0  0  0  0  0  0
   -4.3000   19.3310  -32.5490 N   0  0  0  0  0  0  0  0  0  0  0  0
   -5.3410   20.2620  -32.2250 C   0  0  0  0  0  0  0  0  0  0  0  0
   -6.7040   19.8950  -32.2890 C   0  0  0  0  0  0  0  0  0  0  0  0
   -7.0770   18.5650  -32.5660 C   0  0  0  0  0  0  0  0  0  0  0  0
   -8.4200   18.2030  -32.6280 C   0  0  0  0  0  0  0  0  0  0  0  0
   -9.4130   19.1540  -32.4210 C   0  0  0  0  0  0  0  0  0  0  0  0
   -9.0750   20.4810  -32.1480 C   0  0  0  0  0  0  0  0  0  0  0  0
   -7.7210   20.8850  -32.0650 C   0  0  0  0  0  0  0  0  0  0  0  0
   -7.3710   22.2000  -31.7900 N   0  0  0  0  0  0  0  0  0  0  0  0
   -8.4020   23.2290  -31.5640 C   0  0  0  0  0  0  0  0  0  0  0  0
   -6.0390   22.5150  -31.7390 C   0  0  0  0  0  0  0  0  0  0  0  0
   -5.4140   23.7380  -31.5350 C   0  0  0  0  0  0  0  0  0  0  0  0
   -4.1100   23.5560  -31.5780 O   0  0  0  0  0  0  0  0  0  0  0  0
   -3.8520   22.2810  -31.7990 C   0  0  0  0  0  0  0  0  0  0  0  0
   -2.4890   21.7390  -31.8610 C   0  0  0  0  0  0  0  0  0  0  0  0
   -1.7350   21.5980  -30.6880 C   0  0  0  0  0  0  0  0  0  0  0  0
   -0.4220   21.1310  -30.7520 C   0  0  0  0  0  0  0  0  0  0  0  0
    0.1410   20.7880  -31.9830 C   0  0  0  0  0  0  0  0  0  0  0  0
   -0.6090   20.9040  -33.1630 C   0  0  0  0  0  0  0  0  0  0  0  0
   -0.0110   20.5370  -34.4200 N   0  0  0  0  0  0  0  0  0  0  0  0
    0.7320   21.4460  -35.2470 C   0  0  0  0  0  0  0  0  0  0  0  0
    1.4810   20.9310  -36.4330 C   0  0  0  0  0  0  0  0  0  0  0  0
    0.7310   22.6840  -35.0050 O   0  0  0  0  0  0  0  0  0  0  0  0
   -1.9160   21.4210  -33.0990 C   0  0  0  0  0  0  0  0  0  0  0  0
   -5.0470   21.5890  -31.9220 C   0  0  0  0  0  0  0  0  0  0  0  0
    0.9529   17.3842  -33.4961 H   0  0  0  0  0  0  0  0  0  0  0  0
   -0.2609   16.4095  -34.3925 H   0  0  0  0  0  0  0  0  0  0  0  0
   -0.3714   18.2024  -34.3925 H   0  0  0  0  0  0  0  0  0  0  0  0
   -0.7642   16.3437  -31.9881 H   0  0  0  0  0  0  0  0  0  0  0  0
   -0.7696   18.1378  -31.9135 H   0  0  0  0  0  0  0  0  0  0  0  0
   -2.8148   15.5166  -34.0371 H   0  0  0  0  0  0  0  0  0  0  0  0
   -2.5132   15.2971  -32.2617 H   0  0  0  0  0  0  0  0  0  0  0  0
   -4.6759   15.9377  -31.6745 H   0  0  0  0  0  0  0  0  0  0  0  0
   -4.9421   16.8383  -33.2057 H   0  0  0  0  0  0  0  0  0  0  0  0
   -4.9587   15.0421  -33.2057 H   0  0  0  0  0  0  0  0  0  0  0  0
   -1.8387   18.8525  -34.2212 H   0  0  0  0  0  0  0  0  0  0  0  0
   -2.8914   17.5240  -34.9517 H   0  0  0  0  0  0  0  0  0  0  0  0
   -3.7904   20.0147  -34.4614 H   0  0  0  0  0  0  0  0  0  0  0  0
   -4.8057   18.5068  -34.3917 H   0  0  0  0  0  0  0  0  0  0  0  0
   -3.6030   19.1050  -31.8070 H   0  0  0  0  0  0  0  0  0  0  0  0
   -6.2997   17.8052  -32.7349 H   0  0  0  0  0  0  0  0  0  0  0  0
   -8.6967   17.1600  -32.8417 H   0  0  0  0  0  0  0  0  0  0  0  0
  -10.4715   18.8591  -32.4726 H   0  0  0  0  0  0  0  0  0  0  0  0
   -9.8725   21.2231  -31.9952 H   0  0  0  0  0  0  0  0  0  0  0  0
   -8.5459   23.3726  -30.4830 H   0  0  0  0  0  0  0  0  0  0  0  0
   -8.0803   24.1768  -32.0202 H   0  0  0  0  0  0  0  0  0  0  0  0
   -9.3492   22.9054  -32.0202 H   0  0  0  0  0  0  0  0  0  0  0  0
   -5.9228   24.6985  -31.3657 H   0  0  0  0  0  0  0  0  0  0  0  0
   -2.1793   21.8560  -29.7153 H   0  0  0  0  0  0  0  0  0  0  0  0
    0.1711   21.0328  -29.8308 H   0  0  0  0  0  0  0  0  0  0  0  0
    1.1784   20.4248  -32.0278 H   0  0  0  0  0  0  0  0  0  0  0  0
   -0.2210   19.5870  -34.8060 H   0  0  0  0  0  0  0  0  0  0  0  0
    2.3431   20.3383  -36.0931 H   0  0  0  0  0  0  0  0  0  0  0  0
    0.8168   20.2977  -37.0395 H   0  0  0  0  0  0  0  0  0  0  0  0
    1.8345   21.7779  -37.0395 H   0  0  0  0  0  0  0  0  0  0  0  0
   -2.4899   21.5760  -34.0245 H   0  0  0  0  0  0  0  0  0  0  0  0
  1  2  1  0
  2  3  1  0
  3  4  1  0
  4  5  1  0
  3  6  1  0
  6  7  1  0
  7  8  1  0
  8  9  1  0
  9 10  2  0
 10 11  1  0
 11 12  2  0
 12 13  1  0
 13 14  2  0
 14 15  1  0
 15 16  2  0
 16 17  1  0
 16 18  1  0
 18 19  2  0
 19 20  1  0
 20 21  1  0
 21 22  1  0
 22 23  2  0
 23 24  1  0
 24 25  2  0
 25 26  1  0
 26 27  1  0
 27 28  1  0
 28 29  1  0
 28 30  2  0
 26 31  2  0
 21 32  2  0
 32  9  1  0
 15 10  1  0
 32 18  1  0
 31 22  1  0
  1 33  1  0
  1 34  1  0
  1 35  1  0
  2 36  1  0
  2 37  1  0
  4 38  1  0
  4 39  1  0
  5 40  1  0
  5 41  1  0
  5 42  1  0
  6 43  1  0
  6 44  1  0
  7 45  1  0
  7 46  1  0
  8 47  1  0
 11 48  1  0
 12 49  1  0
 13 50  1  0
 14 51  1  0
 17 52  1  0
 17 53  1  0
 17 54  1  0
 19 55  1  0
 23 56  1  0
 24 57  1  0
 25 58  1  0
 27 59  1  0
 29 60  1  0
 29 61  1  0
 29 62  1  0
 31 63  1  0
M  CHG  1  16   1
M  END
>  <UniqueID>  (8) 
7

>  <SMILES>  (8) 
CCN(CC)CCNc1c2ccccc2[n+](C)c2coc(-c3cccc(NC(C)=O)c3)c12

>  <Energy>  (8) 
125.65260051910198

>  <Genealogy>  (8) 
CCN(CC)CCNc1c2ccccc2[n+](C)c2coc(-c3cccc(NC(C)=O)c3)c12 (3D coordinates assigned)
CCN(CC)CCNc1c2ccccc2[n+](C)c2coc(-c3cccc(NC(C)=O)c3)c12 (optimized conformer: 125.65260051910198 kcal/mol)

>  <smiles>  (8) 
CCN(CC)CCNc1c2ccccc2[n+](C)c2coc(-c3cccc(NC(C)=O)c3)c12

>  <score_type>  (8) 
oracle

>  <origin>  (8) 
adg

>  <m_score__min__energy>  (8) 
-8.6999999999999993

>  <m_primary>  (8) 
energy

$$$$
8:0
     RDKit          3D

 38 40  0  0  0  0  0  0  0  0999 V2000
   -4.2070   23.8000  -28.4970 C   0  0  0  0  0  0  0  0  0  0  0  0
   -3.2030   24.3190  -29.5200 C   0  0  0  0  0  0  0  0  0  0  0  0
   -3.8660   25.2300  -30.4590 N   0  0  0  0  0  0  0  0  0  0  0  0
   -5.3080   25.2820  -30.1880 C   0  0  0  0  0  0  0  0  0  0  0  0
   -6.0830   24.5280  -31.2770 C   0  0  0  0  0  0  0  0  0  0  0  0
   -5.3360   23.3710  -31.7700 N   0  0  0  0  0  0  0  0  0  0  0  0
   -5.6320   22.1760  -32.2270 C   0  0  0  0  0  0  0  0  0  0  0  0
   -4.5350   21.4000  -32.6930 C   0  0  0  0  0  0  0  0  0  0  0  0
   -3.2210   21.9260  -32.7580 C   0  0  0  0  0  0  0  0  0  0  0  0
   -2.1560   21.1360  -33.1990 C   0  0  0  0  0  0  0  0  0  0  0  0
   -2.3760   19.8130  -33.5800 C   0  0  0  0  0  0  0  0  0  0  0  0
   -3.6610   19.2750  -33.5200 C   0  0  0  0  0  0  0  0  0  0  0  0
   -4.7350   20.0590  -33.0820 C   0  0  0  0  0  0  0  0  0  0  0  0
   -5.9680   19.5130  -33.0270 N   0  0  0  0  0  0  0  0  0  0  0  0
   -7.0580   20.2130  -32.6340 C   0  0  0  0  0  0  0  0  0  0  0  0
   -8.2960   19.5600  -32.6380 C   0  0  0  0  0  0  0  0  0  0  0  0
   -9.4560   20.2460  -32.2970 C   0  0  0  0  0  0  0  0  0  0  0  0
   -9.3860   21.5940  -31.9690 C   0  0  0  0  0  0  0  0  0  0  0  0
   -8.1580   22.2590  -31.9550 C   0  0  0  0  0  0  0  0  0  0  0  0
   -6.9470   21.5820  -32.2480 C   0  0  0  0  0  0  0  0  0  0  0  0
   -3.8302   23.9948  -27.4820 H   0  0  0  0  0  0  0  0  0  0  0  0
   -5.1700   24.3132  -28.6354 H   0  0  0  0  0  0  0  0  0  0  0  0
   -4.3452   22.7175  -28.6354 H   0  0  0  0  0  0  0  0  0  0  0  0
   -2.3973   24.8568  -28.9987 H   0  0  0  0  0  0  0  0  0  0  0  0
   -2.7849   23.4682  -30.0780 H   0  0  0  0  0  0  0  0  0  0  0  0
   -3.7350   24.8420  -31.4240 H   0  0  0  0  0  0  0  0  0  0  0  0
   -5.5105   24.8180  -29.2114 H   0  0  0  0  0  0  0  0  0  0  0  0
   -5.6327   26.3330  -30.1809 H   0  0  0  0  0  0  0  0  0  0  0  0
   -7.0401   24.1827  -30.8591 H   0  0  0  0  0  0  0  0  0  0  0  0
   -6.2461   25.2154  -32.1201 H   0  0  0  0  0  0  0  0  0  0  0  0
   -3.0371   22.9682  -32.4579 H   0  0  0  0  0  0  0  0  0  0  0  0
   -1.1416   21.5590  -33.2457 H   0  0  0  0  0  0  0  0  0  0  0  0
   -1.5360   19.1938  -33.9279 H   0  0  0  0  0  0  0  0  0  0  0  0
   -3.8316   18.2300  -33.8181 H   0  0  0  0  0  0  0  0  0  0  0  0
   -8.3514   18.4964  -32.9129 H   0  0  0  0  0  0  0  0  0  0  0  0
  -10.4243   19.7241  -32.2870 H   0  0  0  0  0  0  0  0  0  0  0  0
  -10.3059   22.1425  -31.7181 H   0  0  0  0  0  0  0  0  0  0  0  0
   -8.1296   23.3313  -31.7114 H   0  0  0  0  0  0  0  0  0  0  0  0
  1  2  1  0
  2  3  1  0
  3  4  1  0
  4  5  1  0
  5  6  1  0
  6  7  2  3
  7  8  1  0
  8  9  2  0
  9 10  1  0
 10 11  2  0
 11 12  1  0
 12 13  2  0
 13 14  1  0
 14 15  1  0
 15 16  2  0
 16 17  1  0
 17 18  2  0
 18 19  1  0
 19 20  2  0
 20  7  1  0
 13  8  1  0
 20 15  1  0
  1 21  1  0
  1 22  1  0
  1 23  1  0
  2 24  1  0
  2 25  1  0
  3 26  1  0
  4 27  1  0
  4 28  1  0
  5 29  1  0
  5 30  1  0
  9 31  1  0
 10 32  1  0
 11 33  1  0
 12 34  1  0
 16 35  1  0
 17 36  1  0
 18 37  1  0
 19 38  1  0
M  CHG  1  14  -1
M  END
>  <UniqueID>  (9) 
8

>  <SMILES>  (9) 
CCNCCN=c1c2ccccc2[n-]c2ccccc12

>  <Energy>  (9) 
60.69488738043843

>  <Genealogy>  (9) 
CCNCCN=c1c2ccccc2[n-]c2ccccc12 (protonated)
CCNCCN=c1c2ccccc2[n-]c2ccccc12 (3D coordinates assigned)
CCNCCN=c1c2ccccc2[n-]c2ccccc12 (optimized conformer: 60.69488738043843 kcal/mol)

>  <smiles>  (9) 
CCNCCN=c1c2ccccc2[nH]c2ccccc12

>  <score_type>  (9) 
oracle

>  <origin>  (9) 
adg

>  <m_score__min__energy>  (9) 
-7.9500000000000002

>  <m_primary>  (9) 
energy

$$$$
9:0
     RDKit          3D

 50 52  0  0  0  0  0  0  0  0999 V2000
   -6.8700   24.5930  -30.3870 C   0  0  0  0  0  0  0  0  0  0  0  0
   -5.4660   25.1120  -30.0640 C   0  0  0  0  0  0  0  0  0  0  0  0
   -4.9960   24.6770  -28.7360 N   0  0  0  0  0  0  0  0  0  0  0  0
   -3.7930   23.8300  -28.8210 C   0  0  0  0  0  0  0  0  0  0  0  0
   -4.0930   22.5000  -29.5270 C   0  0  0  0  0  0  0  0  0  0  0  0
   -4.0800   22.6560  -30.9800 N   0  0  0  0  0  0  0  0  0  0  0  0
   -4.2640   21.5120  -31.8280 C   0  0  0  0  0  0  0  0  0  0  0  0
   -3.1770   20.9780  -32.5400 C   0  0  0  0  0  0  0  0  0  0  0  0
   -1.8990   21.5730  -32.4620 C   0  0  0  0  0  0  0  0  0  0  0  0
   -0.8360   21.0700  -33.2070 C   0  0  0  0  0  0  0  0  0  0  0  0
   -1.0280   19.9790  -34.0460 C   0  0  0  0  0  0  0  0  0  0  0  0
   -2.2760   19.3620  -34.1220 C   0  0  0  0  0  0  0  0  0  0  0  0
   -3.3690   19.8230  -33.3430 C   0  0  0  0  0  0  0  0  0  0  0  0
   -4.5960   19.1860  -33.3600 N   0  0  0  0  0  0  0  0  0  0  0  0
   -4.7170   17.8320  -33.9450 C   0  0  0  0  0  0  0  0  0  0  0  0
   -5.7030   19.8030  -32.8060 C   0  0  0  0  0  0  0  0  0  0  0  0
   -7.0170   19.3270  -33.0400 C   0  0  0  0  0  0  0  0  0  0  0  0
   -8.1370   19.9280  -32.4460 C   0  0  0  0  0  0  0  0  0  0  0  0
   -9.5090   19.3690  -32.7200 C   0  0  0  0  0  0  0  0  0  0  0  0
   -7.9580   21.0350  -31.5940 C   0  0  0  0  0  0  0  0  0  0  0  0
   -9.1310   21.7130  -30.9330 C   0  0  0  0  0  0  0  0  0  0  0  0
   -6.6720   21.5530  -31.4000 C   0  0  0  0  0  0  0  0  0  0  0  0
   -5.5450   20.9570  -31.9990 C   0  0  0  0  0  0  0  0  0  0  0  0
   -7.4114   24.3929  -29.4506 H   0  0  0  0  0  0  0  0  0  0  0  0
   -7.4150   25.3491  -30.9712 H   0  0  0  0  0  0  0  0  0  0  0  0
   -6.7922   23.6642  -30.9712 H   0  0  0  0  0  0  0  0  0  0  0  0
   -4.7671   24.7369  -30.8261 H   0  0  0  0  0  0  0  0  0  0  0  0
   -5.5081   26.2112  -30.0606 H   0  0  0  0  0  0  0  0  0  0  0  0
   -5.7640   24.1660  -28.2410 H   0  0  0  0  0  0  0  0  0  0  0  0
   -4.7650   25.5360  -28.1840 H   0  0  0  0  0  0  0  0  0  0  0  0
   -3.0162   24.3672  -29.3848 H   0  0  0  0  0  0  0  0  0  0  0  0
   -3.4516   23.6100  -27.7987 H   0  0  0  0  0  0  0  0  0  0  0  0
   -3.3305   21.7613  -29.2390 H   0  0  0  0  0  0  0  0  0  0  0  0
   -5.0950   22.1634  -29.2227 H   0  0  0  0  0  0  0  0  0  0  0  0
   -3.6570   23.5160  -31.3990 H   0  0  0  0  0  0  0  0  0  0  0  0
   -1.7418   22.4422  -31.8064 H   0  0  0  0  0  0  0  0  0  0  0  0
    0.1572   21.5368  -33.1314 H   0  0  0  0  0  0  0  0  0  0  0  0
   -0.1920   19.6006  -34.6526 H   0  0  0  0  0  0  0  0  0  0  0  0
   -2.4156   18.5043  -34.7965 H   0  0  0  0  0  0  0  0  0  0  0  0
   -4.7835   17.0882  -33.1373 H   0  0  0  0  0  0  0  0  0  0  0  0
   -5.6233   17.7806  -34.5663 H   0  0  0  0  0  0  0  0  0  0  0  0
   -3.8342   17.6207  -34.5663 H   0  0  0  0  0  0  0  0  0  0  0  0
   -7.1628   18.4631  -33.7052 H   0  0  0  0  0  0  0  0  0  0  0  0
  -10.0176   19.1618  -31.7669 H   0  0  0  0  0  0  0  0  0  0  0  0
  -10.0945   20.1003  -33.2966 H   0  0  0  0  0  0  0  0  0  0  0  0
   -9.4167   18.4368  -33.2966 H   0  0  0  0  0  0  0  0  0  0  0  0
   -9.0226   21.6503  -29.8401 H   0  0  0  0  0  0  0  0  0  0  0  0
   -9.1637   22.7693  -31.2383 H   0  0  0  0  0  0  0  0  0  0  0  0
  -10.0626   21.2141  -31.2383 H   0  0  0  0  0  0  0  0  0  0  0  0
   -6.5390   22.4430  -30.7673 H   0  0  0  0  0  0  0  0  0  0  0  0
  1  2  1  0
  2  3  1  0
  3  4  1  0
  4  5  1  0
  5  6  1  0
  6  7  1  0
  7  8  2  0
  8  9  1  0
  9 10  2  0
 10 11  1  0
 11 12  2  0
 12 13  1  0
 13 14  2  0
 14 15  1  0
 14 16  1  0
 16 17  2  0
 17 18  1  0
 18 19  1  0
 18 20  2  0
 20 21  1  0
 20 22  1  0
 22 23  2  0
 23  7  1  0
 13  8  1  0
 23 16  1  0
  1 24  1  0
  1 25  1  0
  1 26  1  0
  2 27  1  0
  2 28  1  0
  3 29  1  0
  3 30  1  0
  4 31  1  0
  4 32  1  0
  5 33  1  0
  5 34  1  0
  6 35  1  0
  9 36  1  0
 10 37  1  0
 11 38  1  0
 12 39  1  0
 15 40  1  0
 15 41  1  0
 15 42  1  0
 17 43  1  0
 19 44  1  0
 19 45  1  0
 19 46  1  0
 21 47  1  0
 21 48  1  0
 21 49  1  0
 22 50  1  0
M  CHG  2   3   1  14   1
M  END
>  <UniqueID>  (10) 
9

>  <SMILES>  (10) 
CC[NH2+]CCNc1c2ccccc2[n+](C)c2cc(C)c(C)cc12

>  <Energy>  (10) 
73.79751656581448

>  <Genealogy>  (10) 
CC[NH2+]CCNc1c2ccccc2[n+](C)c2cc(C)c(C)cc12 (protonated)
CC[NH2+]CCNc1c2ccccc2[n+](C)c2cc(C)c(C)cc12 (3D coordinates assigned)
CC[NH2+]CCNc1c2ccccc2[n+](C)c2cc(C)c(C)cc12 (optimized conformer: 73.79751656581448 kcal/mol)

>  <smiles>  (10) 
CCNCCNc1c2ccccc2[n+](C)c2cc(C)c(C)cc12

>  <score_type>  (10) 
oracle

>  <origin>  (10) 
adg

>  <m_score__min__energy>  (10) 
-7.7400000000000002

>  <m_primary>  (10) 
energy

$$$$
10:0
     RDKit          3D

 51 54  0  0  0  0  0  0  0  0999 V2000
   -6.8560   24.8570  -30.0610 C   0  0  0  0  0  0  0  0  0  0  0  0
   -5.6480   25.7290  -30.4140 C   0  0  0  0  0  0  0  0  0  0  0  0
   -4.6220   24.9970  -31.1740 N   0  0  0  0  0  0  0  0  0  0  0  0
   -3.8780   24.0520  -30.3320 C   0  0  0  0  0  0  0  0  0  0  0  0
   -4.4230   22.6380  -30.5370 C   0  0  0  0  0  0  0  0  0  0  0  0
   -5.1470   22.5520  -31.8040 N   0  0  0  0  0  0  0  0  0  0  0  0
   -5.6530   21.2910  -32.2680 C   0  0  0  0  0  0  0  0  0  0  0  0
   -4.7660   20.3130  -32.7470 C   0  0  0  0  0  0  0  0  0  0  0  0
   -5.2790   19.1020  -33.2620 C   0  0  0  0  0  0  0  0  0  0  0  0
   -6.6060   18.7760  -33.0590 N   0  0  0  0  0  0  0  0  0  0  0  0
   -7.0490   17.3690  -33.1430 C   0  0  0  0  0  0  0  0  0  0  0  0
   -7.5040   19.7530  -32.6750 C   0  0  0  0  0  0  0  0  0  0  0  0
   -8.9010   19.5170  -32.6730 C   0  0  0  0  0  0  0  0  0  0  0  0
   -9.7990   20.5150  -32.2950 C   0  0  0  0  0  0  0  0  0  0  0  0
   -9.3310   21.7710  -31.9220 C   0  0  0  0  0  0  0  0  0  0  0  0
   -7.9640   22.0350  -31.9200 C   0  0  0  0  0  0  0  0  0  0  0  0
   -7.0370   21.0360  -32.2850 C   0  0  0  0  0  0  0  0  0  0  0  0
   -4.3210   18.2010  -33.9810 C   0  0  0  0  0  0  0  0  0  0  0  0
   -4.7180   17.4280  -35.0380 N   0  0  0  0  0  0  0  0  0  0  0  0
   -3.8450   16.6150  -35.6960 C   0  0  0  0  0  0  0  0  0  0  0  0
   -2.4990   16.5840  -35.3300 C   0  0  0  0  0  0  0  0  0  0  0  0
   -2.0500   17.4210  -34.3100 C   0  0  0  0  0  0  0  0  0  0  0  0
   -2.9540   18.2610  -33.6510 C   0  0  0  0  0  0  0  0  0  0  0  0
   -2.4870   19.2410  -32.6120 C   0  0  0  0  0  0  0  0  0  0  0  0
   -3.2660   20.5570  -32.7500 C   0  0  0  0  0  0  0  0  0  0  0  0
   -6.9514   24.7881  -28.9673 H   0  0  0  0  0  0  0  0  0  0  0  0
   -7.7679   25.3064  -30.4810 H   0  0  0  0  0  0  0  0  0  0  0  0
   -6.7165   23.8500  -30.4810 H   0  0  0  0  0  0  0  0  0  0  0  0
   -5.9933   26.5805  -31.0187 H   0  0  0  0  0  0  0  0  0  0  0  0
   -5.1897   26.0597  -29.4703 H   0  0  0  0  0  0  0  0  0  0  0  0
   -3.9510   25.6820  -31.5960 H   0  0  0  0  0  0  0  0  0  0  0  0
   -2.8134   24.0769  -30.6076 H   0  0  0  0  0  0  0  0  0  0  0  0
   -3.9934   24.3369  -29.2758 H   0  0  0  0  0  0  0  0  0  0  0  0
   -3.5858   21.9245  -30.5483 H   0  0  0  0  0  0  0  0  0  0  0  0
   -5.1121   22.3974  -29.7141 H   0  0  0  0  0  0  0  0  0  0  0  0
   -4.9580   23.2930  -32.5190 H   0  0  0  0  0  0  0  0  0  0  0  0
   -7.1766   16.9636  -32.1284 H   0  0  0  0  0  0  0  0  0  0  0  0
   -8.0068   17.3177  -33.6816 H   0  0  0  0  0  0  0  0  0  0  0  0
   -6.2934   16.7782  -33.6816 H   0  0  0  0  0  0  0  0  0  0  0  0
   -9.2836   18.5307  -32.9744 H   0  0  0  0  0  0  0  0  0  0  0  0
  -10.8795   20.3086  -32.2918 H   0  0  0  0  0  0  0  0  0  0  0  0
  -10.0423   22.5569  -31.6281 H   0  0  0  0  0  0  0  0  0  0  0  0
   -7.6029   23.0330  -31.6308 H   0  0  0  0  0  0  0  0  0  0  0  0
   -5.6990   17.4720  -35.3890 H   0  0  0  0  0  0  0  0  0  0  0  0
   -4.2030   15.9800  -36.5198 H   0  0  0  0  0  0  0  0  0  0  0  0
   -1.7995   15.9061  -35.8411 H   0  0  0  0  0  0  0  0  0  0  0  0
   -0.9878   17.4211  -34.0240 H   0  0  0  0  0  0  0  0  0  0  0  0
   -2.6568   18.8196  -31.6102 H   0  0  0  0  0  0  0  0  0  0  0  0
   -1.4142   19.4376  -32.7548 H   0  0  0  0  0  0  0  0  0  0  0  0
   -3.0084   21.2160  -31.9078 H   0  0  0  0  0  0  0  0  0  0  0  0
   -2.9919   21.0242  -33.7074 H   0  0  0  0  0  0  0  0  0  0  0  0
  1  2  1  0
  2  3  1  0
  3  4  1  0
  4  5  1  0
  5  6  1  0
  6  7  1  0
  7  8  2  0
  8  9  1  0
  9 10  2  0
 10 11  1  0
 10 12  1  0
 12 13  2  0
 13 14  1  0
 14 15  2  0
 15 16  1  0
 16 17  2  0
  9 18  1  0
 18 19  2  0
 19 20  1  0
 20 21  2  0
 21 22  1  0
 22 23  2  0
 23 24  1  0
 24 25  1  0
 17  7  1  0
 23 18  1  0
 25  8  1  0
 17 12  1  0
  1 26  1  0
  1 27  1  0
  1 28  1  0
  2 29  1  0
  2 30  1  0
  3 31  1  0
  4 32  1  0
  4 33  1  0
  5 34  1  0
  5 35  1  0
  6 36  1  0
 11 37  1  0
 11 38  1  0
 11 39  1  0
 13 40  1  0
 14 41  1  0
 15 42  1  0
 16 43  1  0
 19 44  1  0
 20 45  1  0
 21 46  1  0
 22 47  1  0
 24 48  1  0
 24 49  1  0
 25 50  1  0
 25 51  1  0
M  CHG  2  10   1  19   1
M  END
>  <UniqueID>  (11) 
10

>  <SMILES>  (11) 
CCNCCNc1c2c([n+](C)c3ccccc13)-c1[nH+]cccc1CC2

>  <Energy>  (11) 
78.72285814952554

>  <Genealogy>  (11) 
CCNCCNc1c2c([n+](C)c3ccccc13)-c1[nH+]cccc1CC2 (protonated)
CCNCCNc1c2c([n+](C)c3ccccc13)-c1[nH+]cccc1CC2 (3D coordinates assigned)
CCNCCNc1c2c([n+](C)c3ccccc13)-c1[nH+]cccc1CC2 (nonaromatic ring conformer: 78.72285814952554 kcal/mol)

>  <smiles>  (11) 
CCNCCNc1c2c([n+](C)c3ccccc13)-c1ncccc1CC2

>  <score_type>  (11) 
oracle

>  <origin>  (11) 
adg

>  <m_score__min__energy>  (11) 
-8.6199999999999992

>  <m_primary>  (11) 
energy

$$$$
11:0
     RDKit          3D

 57 59  0  0  0  0  0  0  0  0999 V2000
   -7.9920   23.1470  -31.6030 C   0  0  0  0  0  0  0  0  0  0  0  0
   -8.8760   21.9050  -31.6910 C   0  0  0  0  0  0  0  0  0  0  0  0
   -8.0650   20.6970  -31.9540 N   0  0  0  0  0  0  0  0  0  0  0  0
   -8.7950   19.4240  -31.7630 C   0  0  0  0  0  0  0  0  0  0  0  0
   -7.9340   18.1790  -31.9870 C   0  0  0  0  0  0  0  0  0  0  0  0
   -7.1670   20.7280  -33.1390 C   0  0  0  0  0  0  0  0  0  0  0  0
   -5.6570   20.6870  -32.8120 C   0  0  0  0  0  0  0  0  0  0  0  0
   -5.1590   22.0190  -32.4570 N   0  0  0  0  0  0  0  0  0  0  0  0
   -4.2070   22.2920  -31.4040 C   0  0  0  0  0  0  0  0  0  0  0  0
   -4.6710   22.9580  -30.2580 C   0  0  0  0  0  0  0  0  0  0  0  0
   -3.8080   23.2730  -29.2000 C   0  0  0  0  0  0  0  0  0  0  0  0
   -4.2750   23.9270  -28.1020 N   0  0  0  0  0  0  0  0  0  0  0  0
   -3.4490   24.2470  -27.0730 C   0  0  0  0  0  0  0  0  0  0  0  0
   -2.1240   23.9160  -27.1100 N   0  0  0  0  0  0  0  0  0  0  0  0
   -1.2550   24.3220  -25.9920 C   0  0  0  0  0  0  0  0  0  0  0  0
   -0.9790   25.8040  -26.0520 C   0  0  0  0  0  0  0  0  0  0  0  0
   -1.0690   26.5770  -24.8820 C   0  0  0  0  0  0  0  0  0  0  0  0
   -0.8490   27.9570  -24.9270 C   0  0  0  0  0  0  0  0  0  0  0  0
   -0.5410   28.5780  -26.1390 C   0  0  0  0  0  0  0  0  0  0  0  0
   -0.4490   27.8190  -27.3090 C   0  0  0  0  0  0  0  0  0  0  0  0
   -0.6670   26.4380  -27.2710 C   0  0  0  0  0  0  0  0  0  0  0  0
   -0.5660   25.7240  -28.4220 F   0  0  0  0  0  0  0  0  0  0  0  0
   -1.6130   23.2560  -28.1990 C   0  0  0  0  0  0  0  0  0  0  0  0
   -0.3880   22.9530  -28.2390 O   0  0  0  0  0  0  0  0  0  0  0  0
   -2.4530   22.9150  -29.2750 C   0  0  0  0  0  0  0  0  0  0  0  0
   -1.9780   22.2340  -30.4090 C   0  0  0  0  0  0  0  0  0  0  0  0
   -2.8410   21.9090  -31.4750 C   0  0  0  0  0  0  0  0  0  0  0  0
   -2.3680   21.2060  -32.5930 O   0  0  0  0  0  0  0  0  0  0  0  0
   -2.3230   19.7880  -32.7140 C   0  0  0  0  0  0  0  0  0  0  0  0
   -7.8144   23.3965  -30.5465 H   0  0  0  0  0  0  0  0  0  0  0  0
   -7.0307   22.9488  -32.0996 H   0  0  0  0  0  0  0  0  0  0  0  0
   -8.4941   23.9904  -32.0996 H   0  0  0  0  0  0  0  0  0  0  0  0
   -9.4137   21.7776  -30.7398 H   0  0  0  0  0  0  0  0  0  0  0  0
   -9.5870   22.0380  -32.5198 H   0  0  0  0  0  0  0  0  0  0  0  0
   -9.1823   19.3973  -30.7338 H   0  0  0  0  0  0  0  0  0  0  0  0
   -9.5971   19.3985  -32.5153 H   0  0  0  0  0  0  0  0  0  0  0  0
   -7.6413   17.7558  -31.0148 H   0  0  0  0  0  0  0  0  0  0  0  0
   -8.5096   17.4322  -32.5536 H   0  0  0  0  0  0  0  0  0  0  0  0
   -7.0322   18.4540  -32.5536 H   0  0  0  0  0  0  0  0  0  0  0  0
   -7.4038   19.8587  -33.7701 H   0  0  0  0  0  0  0  0  0  0  0  0
   -7.3486   21.6910  -33.6387 H   0  0  0  0  0  0  0  0  0  0  0  0
   -5.4908   20.0038  -31.9661 H   0  0  0  0  0  0  0  0  0  0  0  0
   -5.1153   20.3369  -33.7031 H   0  0  0  0  0  0  0  0  0  0  0  0
   -5.4320   22.8200  -33.0730 H   0  0  0  0  0  0  0  0  0  0  0  0
   -5.7326   23.2378  -30.1896 H   0  0  0  0  0  0  0  0  0  0  0  0
   -5.2830   24.1990  -28.0370 H   0  0  0  0  0  0  0  0  0  0  0  0
   -3.8516   24.7794  -26.1987 H   0  0  0  0  0  0  0  0  0  0  0  0
   -1.7535   24.0843  -25.0407 H   0  0  0  0  0  0  0  0  0  0  0  0
   -0.3016   23.7782  -26.0653 H   0  0  0  0  0  0  0  0  0  0  0  0
   -1.3140   26.0934  -23.9249 H   0  0  0  0  0  0  0  0  0  0  0  0
   -0.9187   28.5545  -24.0060 H   0  0  0  0  0  0  0  0  0  0  0  0
   -0.3708   29.6642  -26.1730 H   0  0  0  0  0  0  0  0  0  0  0  0
   -0.2044   28.3094  -28.2628 H   0  0  0  0  0  0  0  0  0  0  0  0
   -0.9167   21.9504  -30.4655 H   0  0  0  0  0  0  0  0  0  0  0  0
   -2.3086   19.3348  -31.7118 H   0  0  0  0  0  0  0  0  0  0  0  0
   -3.2105   19.4384  -33.2618 H   0  0  0  0  0  0  0  0  0  0  0  0
   -1.4151   19.4954  -33.2618 H   0  0  0  0  0  0  0  0  0  0  0  0
  1  2  1  0
  2  3  1  0
  3  4  1  0
  4  5  1  0
  3  6  1  0
  6  7  1  0
  7  8  1  0
  8  9  1  0
  9 10  2  0
 10 11  1  0
 11 12  1  0
 12 13  2  0
 13 14  1  0
 14 15  1  0
 15 16  1  0
 16 17  2  0
 17 18  1  0
 18 19  2  0
 19 20  1  0
 20 21  2  0
 21 22  1  0
 14 23  1  0
 23 24  2  0
 23 25  1  0
 25 26  1  0
 26 27  2  0
 27 28  1  0
 28 29  1  0
 27  9  1  0
 25 11  2  0
 21 16  1  0
  1 30  1  0
  1 31  1  0
  1 32  1  0
  2 33  1  0
  2 34  1  0
  4 35  1  0
  4 36  1  0
  5 37  1  0
  5 38  1  0
  5 39  1  0
  6 40  1  0
  6 41  1  0
  7 42  1  0
  7 43  1  0
  8 44  1  0
 10 45  1  0
 12 46  1  0
 13 47  1  0
 15 48  1  0
 15 49  1  0
 17 50  1  0
 18 51  1  0
 19 52  1  0
 20 53  1  0
 26 54  1  0
 29 55  1  0
 29 56  1  0
 29 57  1  0
M  CHG  1  12   1
M  END
>  <UniqueID>  (12) 
11

>  <SMILES>  (12) 
CCN(CC)CCNc1cc2[nH+]cn(Cc3ccccc3F)c(=O)c2cc1OC

>  <Energy>  (12) 
71.27893065228838

>  <Genealogy>  (12) 
CCN(CC)CCNc1cc2[nH+]cn(Cc3ccccc3F)c(=O)c2cc1OC (protonated)
CCN(CC)CCNc1cc2[nH+]cn(Cc3ccccc3F)c(=O)c2cc1OC (3D coordinates assigned)
CCN(CC)CCNc1cc2[nH+]cn(Cc3ccccc3F)c(=O)c2cc1OC (optimized conformer: 71.27893065228838 kcal/mol)

>  <smiles>  (12) 
CCN(CC)CCNc1cc2ncn(Cc3ccccc3F)c(=O)c2cc1OC

>  <score_type>  (12) 
oracle

>  <origin>  (12) 
adg

>  <m_score__min__energy>  (12) 
-7.7300000000000004

>  <m_primary>  (12) 
energy

$$$$
12:0
     RDKit          3D

 36 36  0  0  0  0  0  0  0  0999 V2000
   -2.7370   23.5340  -29.5630 C   0  0  0  0  0  0  0  0  0  0  0  0
   -3.5930   23.4480  -30.8250 C   0  0  0  0  0  0  0  0  0  0  0  0
   -4.6190   24.5170  -30.8540 N   0  0  0  0  0  0  0  0  0  0  0  0
   -5.0410   24.9120  -29.4920 C   0  0  0  0  0  0  0  0  0  0  0  0
   -6.3690   25.6640  -29.5430 C   0  0  0  0  0  0  0  0  0  0  0  0
   -5.7760   24.1930  -31.7250 C   0  0  0  0  0  0  0  0  0  0  0  0
   -6.3070   22.7950  -31.5280 C   0  0  0  0  0  0  0  0  0  0  0  0
   -6.4500   22.3410  -30.3600 O   0  0  0  0  0  0  0  0  0  0  0  0
   -6.6350   21.9820  -32.6640 N   0  0  0  0  0  0  0  0  0  0  0  0
   -7.2000   20.6700  -32.5280 C   0  0  0  0  0  0  0  0  0  0  0  0
   -6.4630   19.5350  -32.9370 C   0  0  0  0  0  0  0  0  0  0  0  0
   -5.0640   19.6750  -33.4720 C   0  0  0  0  0  0  0  0  0  0  0  0
   -7.0280   18.2560  -32.7940 C   0  0  0  0  0  0  0  0  0  0  0  0
   -8.3120   18.1040  -32.2710 C   0  0  0  0  0  0  0  0  0  0  0  0
   -9.0490   19.2250  -31.8870 C   0  0  0  0  0  0  0  0  0  0  0  0
   -8.5030   20.5050  -32.0150 C   0  0  0  0  0  0  0  0  0  0  0  0
   -9.4970   21.8900  -31.5780 Cl  0  0  0  0  0  0  0  0  0  0  0  0
   -3.3841   23.4690  -28.6759 H   0  0  0  0  0  0  0  0  0  0  0  0
   -2.0154   22.7038  -29.5521 H   0  0  0  0  0  0  0  0  0  0  0  0
   -2.1950   24.4911  -29.5521 H   0  0  0  0  0  0  0  0  0  0  0  0
   -2.9431   23.5512  -31.7065 H   0  0  0  0  0  0  0  0  0  0  0  0
   -4.1056   22.4747  -30.8310 H   0  0  0  0  0  0  0  0  0  0  0  0
   -5.1587   24.0102  -28.8733 H   0  0  0  0  0  0  0  0  0  0  0  0
   -4.2744   25.5709  -29.0581 H   0  0  0  0  0  0  0  0  0  0  0  0
   -6.7180   25.8616  -28.5187 H   0  0  0  0  0  0  0  0  0  0  0  0
   -6.2303   26.6176  -30.0735 H   0  0  0  0  0  0  0  0  0  0  0  0
   -7.1154   25.0545  -30.0735 H   0  0  0  0  0  0  0  0  0  0  0  0
   -6.5850   24.9061  -31.5082 H   0  0  0  0  0  0  0  0  0  0  0  0
   -5.4258   24.2615  -32.7655 H   0  0  0  0  0  0  0  0  0  0  0  0
   -6.3560   22.3080  -33.6160 H   0  0  0  0  0  0  0  0  0  0  0  0
   -4.3560   19.7458  -32.6331 H   0  0  0  0  0  0  0  0  0  0  0  0
   -4.8171   18.7971  -34.0870 H   0  0  0  0  0  0  0  0  0  0  0  0
   -4.9959   20.5844  -34.0870 H   0  0  0  0  0  0  0  0  0  0  0  0
   -6.4533   17.3683  -33.0968 H   0  0  0  0  0  0  0  0  0  0  0  0
   -8.7445   17.0986  -32.1610 H   0  0  0  0  0  0  0  0  0  0  0  0
  -10.0641   19.1006  -31.4818 H   0  0  0  0  0  0  0  0  0  0  0  0
  1  2  1  0
  2  3  1  0
  3  4  1  0
  4  5  1  0
  3  6  1  0
  6  7  1  0
  7  8  2  0
  7  9  1  0
  9 10  1  0
 10 11  2  0
 11 12  1  0
 11 13  1  0
 13 14  2  0
 14 15  1  0
 15 16  2  0
 16 17  1  0
 16 10  1  0
  1 18  1  0
  1 19  1  0
  1 20  1  0
  2 21  1  0
  2 22  1  0
  4 23  1  0
  4 24  1  0
  5 25  1  0
  5 26  1  0
  5 27  1  0
  6 28  1  0
  6 29  1  0
  9 30  1  0
 12 31  1  0
 12 32  1  0
 12 33  1  0
 13 34  1  0
 14 35  1  0
 15 36  1  0
M  END
>  <UniqueID>  (13) 
12

>  <SMILES>  (13) 
CCN(CC)CC(=O)Nc1c(C)cccc1Cl

>  <Energy>  (13) 
38.917231448995565

>  <Genealogy>  (13) 
CCN(CC)CC(=O)Nc1c(C)cccc1Cl (3D coordinates assigned)
CCN(CC)CC(=O)Nc1c(C)cccc1Cl (optimized conformer: 38.917231448995565 kcal/mol)

>  <smiles>  (13) 
CCN(CC)CC(=O)Nc1c(C)cccc1Cl

>  <score_type>  (13) 
oracle

>  <origin>  (13) 
adg

>  <m_score__min__energy>  (13) 
-7.0999999999999996

>  <m_primary>  (13) 
energy

$$$$
13:0
     RDKit          3D

 50 52  0  0  0  0  0  0  0  0999 V2000
   -3.7830   22.3280  -27.9100 C   0  0  0  0  0  0  0  0  0  0  0  0
   -2.2740   22.2000  -28.1760 C   0  0  0  0  0  0  0  0  0  0  0  0
   -1.8620   20.9100  -28.7880 N   0  0  0  0  0  0  0  0  0  0  0  0
   -1.8820   19.7520  -27.8660 C   0  0  0  0  0  0  0  0  0  0  0  0
   -1.6140   20.1700  -26.4190 C   0  0  0  0  0  0  0  0  0  0  0  0
   -0.5810   21.0190  -29.5240 C   0  0  0  0  0  0  0  0  0  0  0  0
   -0.8330   20.8810  -31.0350 C   0  0  0  0  0  0  0  0  0  0  0  0
   -1.9790   19.9920  -31.3310 N   0  0  0  0  0  0  0  0  0  0  0  0
   -2.6290   20.2800  -32.6270 C   0  0  0  0  0  0  0  0  0  0  0  0
   -4.1310   20.5470  -32.4850 C   0  0  0  0  0  0  0  0  0  0  0  0
   -5.0660   19.5840  -32.9430 C   0  0  0  0  0  0  0  0  0  0  0  0
   -4.4720   18.0680  -34.0050 Br  0  0  0  0  0  0  0  0  0  0  0  0
   -6.4390   19.7190  -32.6340 C   0  0  0  0  0  0  0  0  0  0  0  0
   -7.3660   18.7220  -33.0240 C   0  0  0  0  0  0  0  0  0  0  0  0
   -8.7100   18.8160  -32.6830 C   0  0  0  0  0  0  0  0  0  0  0  0
   -9.1640   19.8950  -31.9440 C   0  0  0  0  0  0  0  0  0  0  0  0
   -8.2820   20.8980  -31.5530 C   0  0  0  0  0  0  0  0  0  0  0  0
   -6.9060   20.8490  -31.9040 C   0  0  0  0  0  0  0  0  0  0  0  0
   -5.9910   21.8820  -31.5480 C   0  0  0  0  0  0  0  0  0  0  0  0
   -6.4180   23.0810  -30.9180 C   0  0  0  0  0  0  0  0  0  0  0  0
   -5.5110   24.0760  -30.5600 C   0  0  0  0  0  0  0  0  0  0  0  0
   -6.1260   25.6740  -29.7100 Br  0  0  0  0  0  0  0  0  0  0  0  0
   -4.1620   23.9150  -30.8300 C   0  0  0  0  0  0  0  0  0  0  0  0
   -3.7100   22.7640  -31.4650 C   0  0  0  0  0  0  0  0  0  0  0  0
   -4.6020   21.7250  -31.8350 C   0  0  0  0  0  0  0  0  0  0  0  0
   -3.9641   22.3434  -26.8251 H   0  0  0  0  0  0  0  0  0  0  0  0
   -4.1563   23.2610  -28.3573 H   0  0  0  0  0  0  0  0  0  0  0  0
   -4.3081   21.4712  -28.3573 H   0  0  0  0  0  0  0  0  0  0  0  0
   -1.9748   23.0128  -28.8541 H   0  0  0  0  0  0  0  0  0  0  0  0
   -1.7785   22.2527  -27.1953 H   0  0  0  0  0  0  0  0  0  0  0  0
   -2.8700   19.2714  -27.9201 H   0  0  0  0  0  0  0  0  0  0  0  0
   -1.0859   19.0579  -28.1733 H   0  0  0  0  0  0  0  0  0  0  0  0
   -2.0792   19.4444  -25.7356 H   0  0  0  0  0  0  0  0  0  0  0  0
   -0.5290   20.1983  -26.2405 H   0  0  0  0  0  0  0  0  0  0  0  0
   -2.0411   21.1678  -26.2405 H   0  0  0  0  0  0  0  0  0  0  0  0
   -0.1241   21.9982  -29.3182 H   0  0  0  0  0  0  0  0  0  0  0  0
    0.0957   20.2168  -29.1946 H   0  0  0  0  0  0  0  0  0  0  0  0
   -1.0405   21.8775  -31.4522 H   0  0  0  0  0  0  0  0  0  0  0  0
    0.0654   20.4368  -31.4884 H   0  0  0  0  0  0  0  0  0  0  0  0
   -1.6960   18.9870  -31.2740 H   0  0  0  0  0  0  0  0  0  0  0  0
   -2.7010   20.1380  -30.5870 H   0  0  0  0  0  0  0  0  0  0  0  0
   -2.1536   21.1674  -33.0703 H   0  0  0  0  0  0  0  0  0  0  0  0
   -2.5067   19.3930  -33.2660 H   0  0  0  0  0  0  0  0  0  0  0  0
   -7.0160   17.8576  -33.6073 H   0  0  0  0  0  0  0  0  0  0  0  0
   -9.4136   18.0324  -33.0006 H   0  0  0  0  0  0  0  0  0  0  0  0
  -10.2260   19.9598  -31.6648 H   0  0  0  0  0  0  0  0  0  0  0  0
   -8.6575   21.7454  -30.9606 H   0  0  0  0  0  0  0  0  0  0  0  0
   -7.4879   23.2272  -30.7082 H   0  0  0  0  0  0  0  0  0  0  0  0
   -3.4470   24.6995  -30.5414 H   0  0  0  0  0  0  0  0  0  0  0  0
   -2.6376   22.6566  -31.6853 H   0  0  0  0  0  0  0  0  0  0  0  0
  1  2  1  0
  2  3  1  0
  3  4  1  0
  4  5  1  0
  3  6  1  0
  6  7  1  0
  7  8  1  0
  8  9  1  0
  9 10  1  0
 10 11  2  0
 11 12  1  0
 11 13  1  0
 13 14  2  0
 14 15  1  0
 15 16  2  0
 16 17  1  0
 17 18  2  0
 18 19  1  0
 19 20  2  0
 20 21  1  0
 21 22  1  0
 21 23  2  0
 23 24  1  0
 24 25  2  0
 25 10  1  0
 18 13  1  0
 25 19  1  0
  1 26  1  0
  1 27  1  0
  1 28  1  0
  2 29  1  0
  2 30  1  0
  4 31  1  0
  4 32  1  0
  5 33  1  0
  5 34  1  0
  5 35  1  0
  6 36  1  0
  6 37  1  0
  7 38  1  0
  7 39  1  0
  8 40  1  0
  8 41  1  0
  9 42  1  0
  9 43  1  0
 14 44  1  0
 15 45  1  0
 16 46  1  0
 17 47  1  0
 20 48  1  0
 23 49  1  0
 24 50  1  0
M  CHG  1   8   1
M  END
>  <UniqueID>  (14) 
13

>  <SMILES>  (14) 
CCN(CC)CC[NH2+]Cc1c(Br)c2ccccc2c2cc(Br)ccc12

>  <Energy>  (14) 
74.7392920442686

>  <Genealogy>  (14) 
CCN(CC)CC[NH2+]Cc1c(Br)c2ccccc2c2cc(Br)ccc12 (protonated)
CCN(CC)CC[NH2+]Cc1c(Br)c2ccccc2c2cc(Br)ccc12 (3D coordinates assigned)
CCN(CC)CC[NH2+]Cc1c(Br)c2ccccc2c2cc(Br)ccc12 (optimized conformer: 74.7392920442686 kcal/mol)

>  <smiles>  (14) 
CCN(CC)CCNCc1c(Br)c2ccccc2c2cc(Br)ccc12

>  <score_type>  (14) 
oracle

>  <origin>  (14) 
adg

>  <m_score__min__energy>  (14) 
-8.2200000000000006

>  <m_primary>  (14) 
energy

$$$$
14:0
     RDKit          3D

 74 77  0  0  0  0  0  0  0  0999 V2000
   -3.4470   18.9210  -26.3960 C   0  0  0  0  0  0  0  0  0  0  0  0
   -2.2560   19.8290  -26.6670 C   0  0  0  0  0  0  0  0  0  0  0  0
   -2.1470   20.1660  -28.1080 N   0  0  0  0  0  0  0  0  0  0  0  0
   -0.7150   20.2960  -28.4900 C   0  0  0  0  0  0  0  0  0  0  0  0
   -0.1070   18.9090  -28.6530 C   0  0  0  0  0  0  0  0  0  0  0  0
   -2.9110   21.4000  -28.4160 C   0  0  0  0  0  0  0  0  0  0  0  0
   -1.9960   22.6080  -28.7110 C   0  0  0  0  0  0  0  0  0  0  0  0
   -2.0810   23.0580  -30.1030 N   0  0  0  0  0  0  0  0  0  0  0  0
   -2.6480   22.2360  -31.1400 C   0  0  0  0  0  0  0  0  0  0  0  0
   -1.8160   21.3070  -31.7960 C   0  0  0  0  0  0  0  0  0  0  0  0
   -0.4110   21.3680  -31.6540 C   0  0  0  0  0  0  0  0  0  0  0  0
    0.4090   20.4080  -32.2390 C   0  0  0  0  0  0  0  0  0  0  0  0
   -0.1510   19.3700  -32.9710 C   0  0  0  0  0  0  0  0  0  0  0  0
   -1.5320   19.3090  -33.1550 C   0  0  0  0  0  0  0  0  0  0  0  0
   -2.3900   20.3000  -32.6090 C   0  0  0  0  0  0  0  0  0  0  0  0
   -3.7520   20.2790  -32.8220 N   0  0  0  0  0  0  0  0  0  0  0  0
   -4.3190   19.3700  -33.8460 C   0  0  0  0  0  0  0  0  0  0  0  0
   -4.5810   21.1410  -32.1290 C   0  0  0  0  0  0  0  0  0  0  0  0
   -5.9720   20.9180  -32.0830 C   0  0  0  0  0  0  0  0  0  0  0  0
   -6.8510   21.8100  -31.4680 C   0  0  0  0  0  0  0  0  0  0  0  0
   -8.2370   21.4470  -31.3030 N   0  0  0  0  0  0  0  0  0  0  0  0
   -8.9030   20.3970  -32.0770 C   0  0  0  0  0  0  0  0  0  0  0  0
   -8.5050   19.0010  -31.5760 C   0  0  0  0  0  0  0  0  0  0  0  0
   -7.9570   18.0770  -32.6790 C   0  0  0  0  0  0  0  0  0  0  0  0
   -6.5160   17.7820  -32.5090 N   0  0  0  0  0  0  0  0  0  0  0  0
   -6.1270   16.6540  -33.3710 C   0  0  0  0  0  0  0  0  0  0  0  0
   -6.1980   17.4510  -31.1070 C   0  0  0  0  0  0  0  0  0  0  0  0
   -6.3500   23.0230  -30.9570 C   0  0  0  0  0  0  0  0  0  0  0  0
   -7.2320   24.0170  -30.4770 C   0  0  0  0  0  0  0  0  0  0  0  0
   -6.7480   25.2410  -30.0280 C   0  0  0  0  0  0  0  0  0  0  0  0
   -5.3900   25.5170  -30.0940 C   0  0  0  0  0  0  0  0  0  0  0  0
   -4.5020   24.5560  -30.5730 C   0  0  0  0  0  0  0  0  0  0  0  0
   -4.9430   23.2630  -30.9490 C   0  0  0  0  0  0  0  0  0  0  0  0
   -4.0460   22.2390  -31.4010 C   0  0  0  0  0  0  0  0  0  0  0  0
   -3.5871   18.8142  -25.3102 H   0  0  0  0  0  0  0  0  0  0  0  0
   -4.3519   19.3605  -26.8410 H   0  0  0  0  0  0  0  0  0  0  0  0
   -3.2628   17.9320  -26.8410 H   0  0  0  0  0  0  0  0  0  0  0  0
   -2.3762   20.7581  -26.0906 H   0  0  0  0  0  0  0  0  0  0  0  0
   -1.3410   19.2977  -26.3662 H   0  0  0  0  0  0  0  0  0  0  0  0
   -0.6370   20.8449  -29.4401 H   0  0  0  0  0  0  0  0  0  0  0  0
   -0.1737   20.8446  -27.7051 H   0  0  0  0  0  0  0  0  0  0  0  0
    0.0839   18.4735  -27.6611 H   0  0  0  0  0  0  0  0  0  0  0  0
   -0.8055   18.2653  -29.2078 H   0  0  0  0  0  0  0  0  0  0  0  0
    0.8397   18.9865  -29.2078 H   0  0  0  0  0  0  0  0  0  0  0  0
   -3.5420   21.2127  -29.2974 H   0  0  0  0  0  0  0  0  0  0  0  0
   -3.5139   21.6479  -27.5300 H   0  0  0  0  0  0  0  0  0  0  0  0
   -2.2896   23.4400  -28.0541 H   0  0  0  0  0  0  0  0  0  0  0  0
   -0.9588   22.2904  -28.5283 H   0  0  0  0  0  0  0  0  0  0  0  0
   -1.3510   23.7440  -30.3980 H   0  0  0  0  0  0  0  0  0  0  0  0
    0.0404   22.1857  -31.0730 H   0  0  0  0  0  0  0  0  0  0  0  0
    1.5008   20.4716  -32.1214 H   0  0  0  0  0  0  0  0  0  0  0  0
    0.4957   18.5942  -33.4067 H   0  0  0  0  0  0  0  0  0  0  0  0
   -1.9641   18.4789  -33.7331 H   0  0  0  0  0  0  0  0  0  0  0  0
   -4.8385   18.5371  -33.3496 H   0  0  0  0  0  0  0  0  0  0  0  0
   -5.0317   19.9244  -34.4742 H   0  0  0  0  0  0  0  0  0  0  0  0
   -3.5076   18.9738  -34.4742 H   0  0  0  0  0  0  0  0  0  0  0  0
   -6.3790   20.0083  -32.5486 H   0  0  0  0  0  0  0  0  0  0  0  0
   -8.8220   21.9710  -30.6140 H   0  0  0  0  0  0  0  0  0  0  0  0
   -9.9923   20.5160  -31.9802 H   0  0  0  0  0  0  0  0  0  0  0  0
   -8.5947   20.4907  -33.1287 H   0  0  0  0  0  0  0  0  0  0  0  0
   -7.7296   19.1176  -30.8045 H   0  0  0  0  0  0  0  0  0  0  0  0
   -9.4188   18.5280  -31.1870 H   0  0  0  0  0  0  0  0  0  0  0  0
   -8.5159   17.1299  -32.6554 H   0  0  0  0  0  0  0  0  0  0  0  0
   -8.0802   18.5961  -33.6409 H   0  0  0  0  0  0  0  0  0  0  0  0
   -5.8321   15.7989  -32.7451 H   0  0  0  0  0  0  0  0  0  0  0  0
   -6.9782   16.3673  -34.0061 H   0  0  0  0  0  0  0  0  0  0  0  0
   -5.2800   16.9529  -34.0061 H   0  0  0  0  0  0  0  0  0  0  0  0
   -6.8018   18.0795  -30.4359 H   0  0  0  0  0  0  0  0  0  0  0  0
   -6.4252   16.3911  -30.9199 H   0  0  0  0  0  0  0  0  0  0  0  0
   -5.1299   17.6356  -30.9199 H   0  0  0  0  0  0  0  0  0  0  0  0
   -8.3141   23.8204  -30.4582 H   0  0  0  0  0  0  0  0  0  0  0  0
   -7.4422   25.9906  -29.6204 H   0  0  0  0  0  0  0  0  0  0  0  0
   -5.0132   26.4974  -29.7672 H   0  0  0  0  0  0  0  0  0  0  0  0
   -3.4346   24.8068  -30.6612 H   0  0  0  0  0  0  0  0  0  0  0  0
  1  2  1  0
  2  3  1  0
  3  4  1  0
  4  5  1  0
  3  6  1  0
  6  7  1  0
  7  8  1  0
  8  9  1  0
  9 10  2  0
 10 11  1  0
 11 12  2  0
 12 13  1  0
 13 14  2  0
 14 15  1  0
 15 16  2  0
 16 17  1  0
 16 18  1  0
 18 19  2  0
 19 20  1  0
 20 21  1  0
 21 22  1  0
 22 23  1  0
 23 24  1  0
 24 25  1  0
 25 26  1  0
 25 27  1  0
 20 28  2  0
 28 29  1  0
 29 30  2  0
 30 31  1  0
 31 32  2  0
 32 33  1  0
 33 34  2  0
 34  9  1  0
 15 10  1  0
 34 18  1  0
 33 28  1  0
  1 35  1  0
  1 36  1  0
  1 37  1  0
  2 38  1  0
  2 39  1  0
  4 40  1  0
  4 41  1  0
  5 42  1  0
  5 43  1  0
  5 44  1  0
  6 45  1  0
  6 46  1  0
  7 47  1  0
  7 48  1  0
  8 49  1  0
 11 50  1  0
 12 51  1  0
 13 52  1  0
 14 53  1  0
 17 54  1  0
 17 55  1  0
 17 56  1  0
 19 57  1  0
 21 58  1  0
 22 59  1  0
 22 60  1  0
 23 61  1  0
 23 62  1  0
 24 63  1  0
 24 64  1  0
 26 65  1  0
 26 66  1  0
 26 67  1  0
 27 68  1  0
 27 69  1  0
 27 70  1  0
 29 71  1  0
 30 72  1  0
 31 73  1  0
 32 74  1  0
M  CHG  1  16   1
M  END
>  <UniqueID>  (15) 
14

>  <SMILES>  (15) 
CCN(CC)CCNc1c2ccccc2[n+](C)c2cc(NCCCN(C)C)c3ccccc3c12

>  <Energy>  (15) 
115.28340426046121

>  <Genealogy>  (15) 
CCN(CC)CCNc1c2ccccc2[n+](C)c2cc(NCCCN(C)C)c3ccccc3c12 (3D coordinates assigned)
CCN(CC)CCNc1c2ccccc2[n+](C)c2cc(NCCCN(C)C)c3ccccc3c12 (optimized conformer: 115.28340426046121 kcal/mol)

>  <smiles>  (15) 
CCN(CC)CCNc1c2ccccc2[n+](C)c2cc(NCCCN(C)C)c3ccccc3c12

>  <score_type>  (15) 
oracle

>  <origin>  (15) 
adg

>  <m_score__min__energy>  (15) 
-9.25

>  <m_primary>  (15) 
energy

$$$$
15:0
     RDKit          3D

 79 81  0  0  0  0  0  0  0  0999 V2000
   -6.7740   24.9120  -30.0910 C   0  0  0  0  0  0  0  0  0  0  0  0
   -5.4730   25.6160  -30.4570 C   0  0  0  0  0  0  0  0  0  0  0  0
   -4.4200   24.6430  -30.8440 N   0  0  0  0  0  0  0  0  0  0  0  0
   -3.4590   24.4710  -29.7250 C   0  0  0  0  0  0  0  0  0  0  0  0
   -4.0300   23.5030  -28.6950 C   0  0  0  0  0  0  0  0  0  0  0  0
   -5.0310   23.3480  -31.2340 C   0  0  0  0  0  0  0  0  0  0  0  0
   -4.0410   22.4250  -31.9630 C   0  0  0  0  0  0  0  0  0  0  0  0
   -4.6540   21.7850  -33.1280 N   0  0  0  0  0  0  0  0  0  0  0  0
   -5.1550   20.4340  -33.0860 C   0  0  0  0  0  0  0  0  0  0  0  0
   -6.4940   20.1820  -32.7330 C   0  0  0  0  0  0  0  0  0  0  0  0
   -7.3280   21.2110  -32.2490 C   0  0  0  0  0  0  0  0  0  0  0  0
   -8.6410   20.9440  -31.8690 C   0  0  0  0  0  0  0  0  0  0  0  0
   -9.1460   19.6540  -31.9640 C   0  0  0  0  0  0  0  0  0  0  0  0
   -8.3450   18.6220  -32.4510 C   0  0  0  0  0  0  0  0  0  0  0  0
   -7.0120   18.8650  -32.8690 C   0  0  0  0  0  0  0  0  0  0  0  0
   -6.2200   17.8590  -33.3870 N   0  0  0  0  0  0  0  0  0  0  0  0
   -6.8360   16.5920  -33.8390 C   0  0  0  0  0  0  0  0  0  0  0  0
   -4.8560   18.0450  -33.4940 C   0  0  0  0  0  0  0  0  0  0  0  0
   -3.9720   16.9620  -33.7220 C   0  0  0  0  0  0  0  0  0  0  0  0
   -2.5990   17.1670  -33.8490 C   0  0  0  0  0  0  0  0  0  0  0  0
   -2.0540   18.4410  -33.7230 C   0  0  0  0  0  0  0  0  0  0  0  0
   -0.6650   18.5920  -33.8790 O   0  0  0  0  0  0  0  0  0  0  0  0
   -0.0270   19.6520  -34.5950 C   0  0  0  0  0  0  0  0  0  0  0  0
    1.1810   20.1880  -33.8200 C   0  0  0  0  0  0  0  0  0  0  0  0
    0.7610   20.5970  -32.5350 O   0  0  0  0  0  0  0  0  0  0  0  0
   -0.4120   21.3750  -32.6430 C   0  0  0  0  0  0  0  0  0  0  0  0
   -1.0280   21.5440  -31.2550 C   0  0  0  0  0  0  0  0  0  0  0  0
   -1.2130   20.2830  -30.6360 O   0  0  0  0  0  0  0  0  0  0  0  0
   -1.7810   20.4220  -29.3450 C   0  0  0  0  0  0  0  0  0  0  0  0
   -0.7260   20.1600  -28.2690 C   0  0  0  0  0  0  0  0  0  0  0  0
    0.4130   19.5430  -28.8390 O   0  0  0  0  0  0  0  0  0  0  0  0
    0.3000   18.1370  -28.7780 C   0  0  0  0  0  0  0  0  0  0  0  0
    0.2570   17.5630  -30.1930 C   0  0  0  0  0  0  0  0  0  0  0  0
    0.6360   18.5810  -31.1700 N   0  0  0  0  0  0  0  0  0  0  0  0
   -2.9070   19.5210  -33.4410 C   0  0  0  0  0  0  0  0  0  0  0  0
   -4.3030   19.3440  -33.3530 C   0  0  0  0  0  0  0  0  0  0  0  0
   -6.8680   24.8612  -28.9962 H   0  0  0  0  0  0  0  0  0  0  0  0
   -7.6240   25.4732  -30.5063 H   0  0  0  0  0  0  0  0  0  0  0  0
   -6.7691   23.8934  -30.5063 H   0  0  0  0  0  0  0  0  0  0  0  0
   -5.6594   26.2961  -31.3012 H   0  0  0  0  0  0  0  0  0  0  0  0
   -5.1218   26.1737  -29.5763 H   0  0  0  0  0  0  0  0  0  0  0  0
   -2.5119   24.0708  -30.1159 H   0  0  0  0  0  0  0  0  0  0  0  0
   -3.2817   25.4456  -29.2468 H   0  0  0  0  0  0  0  0  0  0  0  0
   -3.8113   23.8737  -27.6827 H   0  0  0  0  0  0  0  0  0  0  0  0
   -5.1189   23.4247  -28.8295 H   0  0  0  0  0  0  0  0  0  0  0  0
   -3.5718   22.5121  -28.8295 H   0  0  0  0  0  0  0  0  0  0  0  0
   -5.3858   22.8379  -30.3263 H   0  0  0  0  0  0  0  0  0  0  0  0
   -5.8580   23.5640  -31.9264 H   0  0  0  0  0  0  0  0  0  0  0  0
   -3.1781   23.0202  -32.2963 H   0  0  0  0  0  0  0  0  0  0  0  0
   -3.7292   21.6358  -31.2630 H   0  0  0  0  0  0  0  0  0  0  0  0
   -4.6010   22.2860  -34.0430 H   0  0  0  0  0  0  0  0  0  0  0  0
   -6.9371   22.2362  -32.1707 H   0  0  0  0  0  0  0  0  0  0  0  0
   -9.2795   21.7569  -31.4927 H   0  0  0  0  0  0  0  0  0  0  0  0
  -10.1807   19.4458  -31.6542 H   0  0  0  0  0  0  0  0  0  0  0  0
   -8.7538   17.6026  -32.5120 H   0  0  0  0  0  0  0  0  0  0  0  0
   -7.1272   15.9931  -32.9635 H   0  0  0  0  0  0  0  0  0  0  0  0
   -7.7271   16.8132  -34.4448 H   0  0  0  0  0  0  0  0  0  0  0  0
   -6.1117   16.0278  -34.4448 H   0  0  0  0  0  0  0  0  0  0  0  0
   -4.3758   15.9418  -33.8002 H   0  0  0  0  0  0  0  0  0  0  0  0
   -1.9383   16.3111  -34.0513 H   0  0  0  0  0  0  0  0  0  0  0  0
    0.3106   19.2745  -35.5715 H   0  0  0  0  0  0  0  0  0  0  0  0
   -0.7499   20.4705  -34.7276 H   0  0  0  0  0  0  0  0  0  0  0  0
    1.9387   19.3962  -33.7252 H   0  0  0  0  0  0  0  0  0  0  0  0
    1.6163   21.0434  -34.3574 H   0  0  0  0  0  0  0  0  0  0  0  0
   -0.1623   22.3626  -33.0581 H   0  0  0  0  0  0  0  0  0  0  0  0
   -1.1298   20.8737  -33.3090 H   0  0  0  0  0  0  0  0  0  0  0  0
   -0.3581   22.1570  -30.6341 H   0  0  0  0  0  0  0  0  0  0  0  0
   -2.0064   22.0360  -31.3581 H   0  0  0  0  0  0  0  0  0  0  0  0
   -2.1718   21.4437  -29.2287 H   0  0  0  0  0  0  0  0  0  0  0  0
   -2.5956   19.6915  -29.2323 H   0  0  0  0  0  0  0  0  0  0  0  0
   -0.4302   21.1151  -27.8104 H   0  0  0  0  0  0  0  0  0  0  0  0
   -1.1511   19.4917  -27.5057 H   0  0  0  0  0  0  0  0  0  0  0  0
    1.1667   17.7233  -28.2416 H   0  0  0  0  0  0  0  0  0  0  0  0
   -0.6252   17.8682  -28.2471 H   0  0  0  0  0  0  0  0  0  0  0  0
    0.9566   16.7170  -30.2618 H   0  0  0  0  0  0  0  0  0  0  0  0
   -0.7676   17.2264  -30.4093 H   0  0  0  0  0  0  0  0  0  0  0  0
   -0.1820   18.7540  -31.7990 H   0  0  0  0  0  0  0  0  0  0  0  0
    0.7990   19.4740  -30.6510 H   0  0  0  0  0  0  0  0  0  0  0  0
   -2.4783   20.5221  -33.2862 H   0  0  0  0  0  0  0  0  0  0  0  0
  1  2  1  0
  2  3  1  0
  3  4  1  0
  4  5  1  0
  3  6  1  0
  6  7  1  0
  7  8  1  0
  8  9  1  0
  9 10  2  0
 10 11  1  0
 11 12  2  0
 12 13  1  0
 13 14  2  0
 14 15  1  0
 15 16  2  0
 16 17  1  0
 16 18  1  0
 18 19  2  0
 19 20  1  0
 20 21  2  0
 21 22  1  0
 22 23  1  0
 23 24  1  0
 24 25  1  0
 25 26  1  0
 26 27  1  0
 27 28  1  0
 28 29  1  0
 29 30  1  0
 30 31  1  0
 31 32  1  0
 32 33  1  0
 33 34  1  0
 21 35  1  0
 35 36  2  0
 36  9  1  0
 15 10  1  0
 36 18  1  0
  1 37  1  0
  1 38  1  0
  1 39  1  0
  2 40  1  0
  2 41  1  0
  4 42  1  0
  4 43  1  0
  5 44  1  0
  5 45  1  0
  5 46  1  0
  6 47  1  0
  6 48  1  0
  7 49  1  0
  7 50  1  0
  8 51  1  0
 11 52  1  0
 12 53  1  0
 13 54  1  0
 14 55  1  0
 17 56  1  0
 17 57  1  0
 17 58  1  0
 19 59  1  0
 20 60  1  0
 23 61  1  0
 23 62  1  0
 24 63  1  0
 24 64  1  0
 26 65  1  0
 26 66  1  0
 27 67  1  0
 27 68  1  0
 29 69  1  0
 29 70  1  0
 30 71  1  0
 30 72  1  0
 32 73  1  0
 32 74  1  0
 33 75  1  0
 33 76  1  0
 34 77  1  0
 34 78  1  0
 35 79  1  0
M  CHG  1  16   1
M  END
>  <UniqueID>  (16) 
15

>  <SMILES>  (16) 
CCN(CC)CCNc1c2ccccc2[n+](C)c2ccc(OCCOCCOCCOCCN)cc12

>  <Energy>  (16) 
94.65756995177465

>  <Genealogy>  (16) 
CCN(CC)CCNc1c2ccccc2[n+](C)c2ccc(OCCOCCOCCOCCN)cc12 (3D coordinates assigned)
CCN(CC)CCNc1c2ccccc2[n+](C)c2ccc(OCCOCCOCCOCCN)cc12 (optimized conformer: 94.65756995177465 kcal/mol)

>  <smiles>  (16) 
CCN(CC)CCNc1c2ccccc2[n+](C)c2ccc(OCCOCCOCCOCCN)cc12

>  <score_type>  (16) 
oracle

>  <origin>  (16) 
adg

>  <m_score__min__energy>  (16) 
-8.3800000000000008

>  <m_primary>  (16) 
energy

$$$$
16:0
     RDKit          3D

 55 57  0  0  0  0  0  0  0  0999 V2000
   -5.0834   26.7035  -30.3415 H   0  0  0  0  0  0  0  0  0  0  0  0
   -4.7260   25.6710  -30.4690 C   0  0  0  0  0  0  0  0  0  0  0  0
   -3.6070   25.2590  -29.8230 N   0  0  0  0  0  0  0  0  0  0  0  0
   -3.1280   23.9960  -29.9540 C   0  0  0  0  0  0  0  0  0  0  0  0
   -1.9630   23.6300  -29.2760 C   0  0  0  0  0  0  0  0  0  0  0  0
   -1.4554   24.3626  -28.6313 H   0  0  0  0  0  0  0  0  0  0  0  0
   -1.4330   22.3360  -29.4090 C   0  0  0  0  0  0  0  0  0  0  0  0
   -0.2110   21.9690  -28.7400 N   0  0  0  0  0  0  0  0  0  0  0  0
    0.6760   21.9420  -29.2910 H   0  0  0  0  0  0  0  0  0  0  0  0
   -0.0970   21.8100  -27.2870 C   0  0  0  0  0  0  0  0  0  0  0  0
   -0.0230   22.8051  -26.8240 H   0  0  0  0  0  0  0  0  0  0  0  0
    0.8008   21.2102  -27.0766 H   0  0  0  0  0  0  0  0  0  0  0  0
   -1.3180   21.0730  -26.6970 C   0  0  0  0  0  0  0  0  0  0  0  0
   -2.1802   21.7560  -26.7092 H   0  0  0  0  0  0  0  0  0  0  0  0
   -1.0556   20.7644  -25.6743 H   0  0  0  0  0  0  0  0  0  0  0  0
   -1.6750   19.8420  -27.4590 N   0  0  0  0  0  0  0  0  0  0  0  0
   -1.5940   20.0300  -28.4860 H   0  0  0  0  0  0  0  0  0  0  0  0
   -0.7430   18.7350  -27.1150 C   0  0  0  0  0  0  0  0  0  0  0  0
   -1.3327   17.8407  -26.8652 H   0  0  0  0  0  0  0  0  0  0  0  0
   -0.1306   19.0631  -26.2622 H   0  0  0  0  0  0  0  0  0  0  0  0
    0.2070   18.3930  -28.2720 C   0  0  0  0  0  0  0  0  0  0  0  0
    1.1690   18.0467  -27.8664 H   0  0  0  0  0  0  0  0  0  0  0  0
   -0.2380   17.5986  -28.8892 H   0  0  0  0  0  0  0  0  0  0  0  0
    0.3705   19.2887  -28.8892 H   0  0  0  0  0  0  0  0  0  0  0  0
   -3.0800   19.4500  -27.1680 C   0  0  0  0  0  0  0  0  0  0  0  0
   -3.6781   20.3616  -27.0224 H   0  0  0  0  0  0  0  0  0  0  0  0
   -3.4465   18.8590  -28.0203 H   0  0  0  0  0  0  0  0  0  0  0  0
   -3.1960   18.5790  -25.9110 C   0  0  0  0  0  0  0  0  0  0  0  0
   -3.1115   19.2133  -25.0163 H   0  0  0  0  0  0  0  0  0  0  0  0
   -4.1701   18.0680  -25.9076 H   0  0  0  0  0  0  0  0  0  0  0  0
   -2.3896   17.8309  -25.9076 H   0  0  0  0  0  0  0  0  0  0  0  0
   -2.0920   21.3940  -30.2190 C   0  0  0  0  0  0  0  0  0  0  0  0
   -1.5350   20.1110  -30.3470 O   0  0  0  0  0  0  0  0  0  0  0  0
   -0.7990   19.6550  -31.4780 C   0  0  0  0  0  0  0  0  0  0  0  0
    0.0905   19.1039  -31.1387 H   0  0  0  0  0  0  0  0  0  0  0  0
   -1.4326   18.9910  -32.0844 H   0  0  0  0  0  0  0  0  0  0  0  0
   -0.4865   20.5180  -32.0844 H   0  0  0  0  0  0  0  0  0  0  0  0
   -3.2730   21.7600  -30.8950 C   0  0  0  0  0  0  0  0  0  0  0  0
   -3.7906   21.0211  -31.5243 H   0  0  0  0  0  0  0  0  0  0  0  0
   -3.7980   23.0610  -30.7740 C   0  0  0  0  0  0  0  0  0  0  0  0
   -4.9800   23.4600  -31.4450 C   0  0  0  0  0  0  0  0  0  0  0  0
   -5.6040   22.6050  -32.2130 N   0  0  0  0  0  0  0  0  0  0  0  0
   -6.9230   22.0630  -32.0390 C   0  0  0  0  0  0  0  0  0  0  0  0
   -8.0170   22.9360  -31.9950 C   0  0  0  0  0  0  0  0  0  0  0  0
   -7.8532   24.0225  -32.0464 H   0  0  0  0  0  0  0  0  0  0  0  0
   -9.3170   22.4320  -31.8860 C   0  0  0  0  0  0  0  0  0  0  0  0
  -10.1714   23.1229  -31.8349 H   0  0  0  0  0  0  0  0  0  0  0  0
   -9.5320   21.0530  -31.8420 C   0  0  0  0  0  0  0  0  0  0  0  0
  -10.5544   20.6588  -31.7452 H   0  0  0  0  0  0  0  0  0  0  0  0
   -8.4470   20.1720  -31.9210 C   0  0  0  0  0  0  0  0  0  0  0  0
   -8.7430   18.2850  -31.8920 Br  0  0  0  0  0  0  0  0  0  0  0  0
   -7.1460   20.6750  -32.0320 C   0  0  0  0  0  0  0  0  0  0  0  0
   -6.2953   19.9824  -32.1140 H   0  0  0  0  0  0  0  0  0  0  0  0
   -5.4260   24.7900  -31.2950 C   0  0  0  0  0  0  0  0  0  0  0  0
   -6.3248   25.1325  -31.8286 H   0  0  0  0  0  0  0  0  0  0  0  0
  1  2  1  0
  2  3  1  0
  3  4  1  0
  4  5  2  0
  5  6  1  0
  5  7  1  0
  7  8  1  0
  8  9  1  0
  8 10  1  0
 10 11  1  0
 10 12  1  0
 10 13  1  0
 13 14  1  0
 13 15  1  0
 13 16  1  0
 16 17  1  0
 16 18  1  0
 18 19  1  0
 18 20  1  0
 18 21  1  0
 21 22  1  0
 21 23  1  0
 21 24  1  0
 16 25  1  0
 25 26  1  0
 25 27  1  0
 25 28  1  0
 28 29  1  0
 28 30  1  0
 28 31  1  0
  7 32  2  0
 32 33  1  0
 33 34  1  0
 34 35  1  0
 34 36  1  0
 34 37  1  0
 32 38  1  0
 38 39  1  0
 38 40  2  0
 40 41  1  0
 41 42  2  0
 42 43  1  0
 43 44  2  0
 44 45  1  0
 44 46  1  0
 46 47  1  0
 46 48  2  0
 48 49  1  0
 48 50  1  0
 50 51  1  0
 50 52  2  0
 52 53  1  0
 41 54  1  0
 54 55  1  0
 54  2  2  0
 40  4  1  0
 52 43  1  0
M  CHG  2   3  -1  16   1
M  END
>  <UniqueID>  (17) 
16

>  <SMILES>  (17) 
CC[NH+](CC)CCNc1cc2[n-]cc/c(=N\c3cccc(Br)c3)c2cc1OC

>  <Energy>  (17) 
70.58065554039928

>  <Genealogy>  (17) 
CC[NH+](CC)CCNc1cc2[n-]ccc(=Nc3cccc(Br)c3)c2cc1OC (protonated)
CC[NH+](CC)CCNc1cc2[n-]cc/c(=N\c3cccc(Br)c3)c2cc1OC (cis-trans isomerization)
CC[NH+](CC)CCNc1cc2[n-]cc/c(=N\c3cccc(Br)c3)c2cc1OC (3D coordinates assigned)
CC[NH+](CC)CCNc1cc2[n-]cc/c(=N\c3cccc(Br)c3)c2cc1OC (optimized conformer: 70.58065554039928 kcal/mol)

>  <smiles>  (17) 
CCN(CC)CCNc1cc2[nH]ccc(=Nc3cccc(Br)c3)c2cc1OC

>  <score_type>  (17) 
oracle

>  <origin>  (17) 
adg

>  <m_score__min__energy>  (17) 
-9.9299999999999997

>  <m_primary>  (17) 
energy

$$$$
17:0
     RDKit          3D

 73 76  0  0  0  0  0  0  0  0999 V2000
    0.2810   21.6010  -35.9310 C   0  0  0  0  0  0  0  0  0  0  0  0
    0.0170   21.1160  -34.5030 C   0  0  0  0  0  0  0  0  0  0  0  0
   -1.4150   20.8240  -34.2480 N   0  0  1  0  0  0  0  0  0  0  0  0
   -1.6410   19.3640  -34.1910 C   0  0  0  0  0  0  0  0  0  0  0  0
   -1.9890   21.5240  -33.0640 C   0  0  0  0  0  0  0  0  0  0  0  0
   -1.6280   20.9260  -31.6800 C   0  0  0  0  0  0  0  0  0  0  0  0
   -2.8080   20.4970  -30.9270 N   0  0  0  0  0  0  0  0  0  0  0  0
   -4.0920   21.0740  -31.2100 C   0  0  0  0  0  0  0  0  0  0  0  0
   -5.0530   20.3350  -31.9210 C   0  0  0  0  0  0  0  0  0  0  0  0
   -4.7580   19.0410  -32.4020 C   0  0  0  0  0  0  0  0  0  0  0  0
   -5.6910   18.3370  -33.1590 C   0  0  0  0  0  0  0  0  0  0  0  0
   -6.9240   18.9080  -33.4520 C   0  0  0  0  0  0  0  0  0  0  0  0
   -7.2470   20.1730  -32.9640 C   0  0  0  0  0  0  0  0  0  0  0  0
   -6.3340   20.8990  -32.1570 C   0  0  0  0  0  0  0  0  0  0  0  0
   -6.6580   22.1310  -31.6210 N   0  0  0  0  0  0  0  0  0  0  0  0
   -8.0690   22.5840  -31.6010 C   0  0  0  0  0  0  0  0  0  0  0  0
   -5.6680   22.9320  -31.0840 C   0  0  0  0  0  0  0  0  0  0  0  0
   -5.8970   24.2960  -30.7810 C   0  0  0  0  0  0  0  0  0  0  0  0
   -4.9000   25.0880  -30.2150 C   0  0  0  0  0  0  0  0  0  0  0  0
   -3.6360   24.5490  -29.9370 C   0  0  0  0  0  0  0  0  0  0  0  0
   -2.6010   25.2970  -29.3520 O   0  0  0  0  0  0  0  0  0  0  0  0
   -1.7430   24.8540  -28.2980 C   0  0  0  0  0  0  0  0  0  0  0  0
   -2.4700   24.9240  -26.9490 C   0  0  0  0  0  0  0  0  0  0  0  0
   -1.9890   26.0340  -25.9670 C   0  0  0  0  0  0  0  0  0  0  0  0
   -0.7990   25.7680  -25.0800 N   0  0  0  0  0  0  0  0  0  0  0  0
   -0.8660   26.7390  -23.9520 C   0  0  0  0  0  0  0  0  0  0  0  0
   -0.8300   24.3920  -24.5080 C   0  0  0  0  0  0  0  0  0  0  0  0
    0.5710   23.8090  -24.6040 C   0  0  0  0  0  0  0  0  0  0  0  0
    1.2180   24.5570  -25.7430 C   0  0  0  0  0  0  0  0  0  0  0  0
    0.5270   25.9160  -25.7570 C   0  0  0  0  0  0  0  0  0  0  0  0
   -3.3800   23.2200  -30.2660 C   0  0  0  0  0  0  0  0  0  0  0  0
   -4.3730   22.4020  -30.8440 C   0  0  0  0  0  0  0  0  0  0  0  0
    0.8067   22.5667  -35.8989 H   0  0  0  0  0  0  0  0  0  0  0  0
    0.9018   20.8630  -36.4600 H   0  0  0  0  0  0  0  0  0  0  0  0
   -0.6759   21.7218  -36.4600 H   0  0  0  0  0  0  0  0  0  0  0  0
    0.5984   20.1982  -34.3309 H   0  0  0  0  0  0  0  0  0  0  0  0
    0.3160   21.9242  -33.8193 H   0  0  0  0  0  0  0  0  0  0  0  0
   -1.9540   21.1630  -35.0800 H   0  0  0  0  0  0  0  0  0  0  0  0
   -1.6909   19.0414  -33.1405 H   0  0  0  0  0  0  0  0  0  0  0  0
   -2.5877   19.1196  -34.6950 H   0  0  0  0  0  0  0  0  0  0  0  0
   -0.8125   18.8448  -34.6950 H   0  0  0  0  0  0  0  0  0  0  0  0
   -1.6341   22.5650  -33.0838 H   0  0  0  0  0  0  0  0  0  0  0  0
   -3.0800   21.4185  -33.1572 H   0  0  0  0  0  0  0  0  0  0  0  0
   -0.9719   20.0563  -31.8323 H   0  0  0  0  0  0  0  0  0  0  0  0
   -1.1287   21.7137  -31.0967 H   0  0  0  0  0  0  0  0  0  0  0  0
   -2.7010   19.9590  -30.0380 H   0  0  0  0  0  0  0  0  0  0  0  0
   -3.7827   18.5849  -32.1769 H   0  0  0  0  0  0  0  0  0  0  0  0
   -5.4520   17.3278  -33.5256 H   0  0  0  0  0  0  0  0  0  0  0  0
   -7.6481   18.3590  -34.0718 H   0  0  0  0  0  0  0  0  0  0  0  0
   -8.2243   20.6148  -33.2083 H   0  0  0  0  0  0  0  0  0  0  0  0
   -8.4048   22.6918  -30.5591 H   0  0  0  0  0  0  0  0  0  0  0  0
   -8.1502   23.5534  -32.1146 H   0  0  0  0  0  0  0  0  0  0  0  0
   -8.6993   21.8431  -32.1146 H   0  0  0  0  0  0  0  0  0  0  0  0
   -6.8806   24.7388  -30.9965 H   0  0  0  0  0  0  0  0  0  0  0  0
   -5.1062   26.1437  -29.9847 H   0  0  0  0  0  0  0  0  0  0  0  0
   -1.4383   23.8149  -28.4917 H   0  0  0  0  0  0  0  0  0  0  0  0
   -0.8589   25.5073  -28.2603 H   0  0  0  0  0  0  0  0  0  0  0  0
   -3.5378   25.0941  -27.1513 H   0  0  0  0  0  0  0  0  0  0  0  0
   -2.2516   23.9703  -26.4462 H   0  0  0  0  0  0  0  0  0  0  0  0
   -1.7449   26.9173  -26.5755 H   0  0  0  0  0  0  0  0  0  0  0  0
   -2.8246   26.1361  -25.2590 H   0  0  0  0  0  0  0  0  0  0  0  0
   -0.8284   26.1946  -22.9969 H   0  0  0  0  0  0  0  0  0  0  0  0
   -0.0135   27.4315  -24.0131 H   0  0  0  0  0  0  0  0  0  0  0  0
   -1.8055   27.3078  -24.0131 H   0  0  0  0  0  0  0  0  0  0  0  0
   -1.1455   24.4329  -23.4550 H   0  0  0  0  0  0  0  0  0  0  0  0
   -1.5428   23.7645  -25.0631 H   0  0  0  0  0  0  0  0  0  0  0  0
    1.1247   23.9729  -23.6677 H   0  0  0  0  0  0  0  0  0  0  0  0
    0.5595   22.7220  -24.7723 H   0  0  0  0  0  0  0  0  0  0  0  0
    2.2977   24.6728  -25.5672 H   0  0  0  0  0  0  0  0  0  0  0  0
    1.1129   24.0272  -26.7013 H   0  0  0  0  0  0  0  0  0  0  0  0
    1.1411   26.6525  -25.2180 H   0  0  0  0  0  0  0  0  0  0  0  0
    0.3909   26.2646  -26.7914 H   0  0  0  0  0  0  0  0  0  0  0  0
   -2.3824   22.7996  -30.0709 H   0  0  0  0  0  0  0  0  0  0  0  0
  1  2  1  0
  2  3  1  0
  3  4  1  0
  3  5  1  0
  5  6  1  0
  6  7  1  0
  7  8  1  0
  8  9  2  0
  9 10  1  0
 10 11  2  0
 11 12  1  0
 12 13  2  0
 13 14  1  0
 14 15  2  0
 15 16  1  0
 15 17  1  0
 17 18  2  0
 18 19  1  0
 19 20  2  0
 20 21  1  0
 21 22  1  0
 22 23  1  0
 23 24  1  0
 24 25  1  0
 25 26  1  0
 25 27  1  0
 27 28  1  0
 28 29  1  0
 29 30  1  0
 20 31  1  0
 31 32  2  0
 32  8  1  0
 14  9  1  0
 32 17  1  0
 30 25  1  0
  1 33  1  0
  1 34  1  0
  1 35  1  0
  2 36  1  0
  2 37  1  0
  3 38  1  6
  4 39  1  0
  4 40  1  0
  4 41  1  0
  5 42  1  0
  5 43  1  0
  6 44  1  0
  6 45  1  0
  7 46  1  0
 10 47  1  0
 11 48  1  0
 12 49  1  0
 13 50  1  0
 16 51  1  0
 16 52  1  0
 16 53  1  0
 18 54  1  0
 19 55  1  0
 22 56  1  0
 22 57  1  0
 23 58  1  0
 23 59  1  0
 24 60  1  0
 24 61  1  0
 26 62  1  0
 26 63  1  0
 26 64  1  0
 27 65  1  0
 27 66  1  0
 28 67  1  0
 28 68  1  0
 29 69  1  0
 29 70  1  0
 30 71  1  0
 30 72  1  0
 31 73  1  0
M  CHG  3   3   1  15   1  25   1
M  END
>  <UniqueID>  (18) 
17

>  <SMILES>  (18) 
CC[N@@H+](C)CCNc1c2ccccc2[n+](C)c2ccc(OCCC[N+]3(C)CCCC3)cc12

>  <Energy>  (18) 
121.25757834689182

>  <Genealogy>  (18) 
CC[NH+](C)CCNc1c2ccccc2[n+](C)c2ccc(OCCC[N+]3(C)CCCC3)cc12 (protonated)
CC[N@@H+](C)CCNc1c2ccccc2[n+](C)c2ccc(OCCC[N+]3(C)CCCC3)cc12 (chirality)
CC[N@@H+](C)CCNc1c2ccccc2[n+](C)c2ccc(OCCC[N+]3(C)CCCC3)cc12 (3D coordinates assigned)
CC[N@@H+](C)CCNc1c2ccccc2[n+](C)c2ccc(OCCC[N+]3(C)CCCC3)cc12 (nonaromatic ring conformer: 121.25757834689182 kcal/mol)

>  <smiles>  (18) 
CCN(C)CCNc1c2ccccc2[n+](C)c2ccc(OCCC[N+]3(C)CCCC3)cc12

>  <score_type>  (18) 
oracle

>  <origin>  (18) 
adg

>  <m_score__min__energy>  (18) 
-7.6299999999999999

>  <m_primary>  (18) 
energy

$$$$
18:0
     RDKit          3D

 37 39  0  0  0  0  0  0  0  0999 V2000
   -2.0350   21.8320  -30.0700 C   0  0  0  0  0  0  0  0  0  0  0  0
   -1.4330   23.1970  -29.7560 C   0  0  0  0  0  0  0  0  0  0  0  0
   -2.4010   24.0760  -29.0860 N   0  0  0  0  0  0  0  0  0  0  0  0
   -2.0040   24.9020  -27.9970 C   0  0  0  0  0  0  0  0  0  0  0  0
   -0.8270   25.6560  -27.9010 C   0  0  0  0  0  0  0  0  0  0  0  0
   -0.6080   26.4110  -26.7380 C   0  0  0  0  0  0  0  0  0  0  0  0
   -1.5560   26.4020  -25.6970 C   0  0  0  0  0  0  0  0  0  0  0  0
   -2.7300   25.6430  -25.8200 C   0  0  0  0  0  0  0  0  0  0  0  0
   -2.9290   24.9080  -26.9890 C   0  0  0  0  0  0  0  0  0  0  0  0
   -4.0680   24.0230  -27.3290 C   0  0  0  0  0  0  0  0  0  0  0  0
   -3.7870   23.6540  -28.8100 C   0  0  1  0  0  0  0  0  0  0  0  0
   -4.9180   24.5290  -29.8970 S   0  0  0  0  0  0  0  0  0  0  0  0
   -5.8490   25.3740  -29.0710 O   0  0  0  0  0  0  0  0  0  0  0  0
   -4.1660   25.4250  -30.8380 O   0  0  0  0  0  0  0  0  0  0  0  0
   -5.8390   23.3630  -30.8440 C   0  0  0  0  0  0  0  0  0  0  0  0
   -5.1620   22.3940  -31.5960 C   0  0  0  0  0  0  0  0  0  0  0  0
   -5.8820   21.4540  -32.3430 C   0  0  0  0  0  0  0  0  0  0  0  0
   -7.2800   21.4790  -32.3380 C   0  0  0  0  0  0  0  0  0  0  0  0
   -7.9600   22.4430  -31.5870 C   0  0  0  0  0  0  0  0  0  0  0  0
   -7.2420   23.3840  -30.8390 C   0  0  0  0  0  0  0  0  0  0  0  0
   -2.2660   21.3083  -29.1307 H   0  0  0  0  0  0  0  0  0  0  0  0
   -2.9585   21.9638  -30.6529 H   0  0  0  0  0  0  0  0  0  0  0  0
   -1.3149   21.2390  -30.6529 H   0  0  0  0  0  0  0  0  0  0  0  0
   -0.5615   23.0598  -29.0989 H   0  0  0  0  0  0  0  0  0  0  0  0
   -1.1401   23.6695  -30.7052 H   0  0  0  0  0  0  0  0  0  0  0  0
   -0.0911   25.6563  -28.7186 H   0  0  0  0  0  0  0  0  0  0  0  0
    0.3080   27.0121  -26.6395 H   0  0  0  0  0  0  0  0  0  0  0  0
   -1.3761   26.9910  -24.7856 H   0  0  0  0  0  0  0  0  0  0  0  0
   -3.4768   25.6279  -25.0125 H   0  0  0  0  0  0  0  0  0  0  0  0
   -4.0768   23.1262  -26.6921 H   0  0  0  0  0  0  0  0  0  0  0  0
   -5.0486   24.4977  -27.1771 H   0  0  0  0  0  0  0  0  0  0  0  0
   -3.9245   22.5764  -28.9827 H   0  0  0  0  0  0  0  0  0  0  0  0
   -4.0622   22.3717  -31.5995 H   0  0  0  0  0  0  0  0  0  0  0  0
   -5.3477   20.6955  -32.9340 H   0  0  0  0  0  0  0  0  0  0  0  0
   -7.8452   20.7401  -32.9250 H   0  0  0  0  0  0  0  0  0  0  0  0
   -9.0598   22.4620  -31.5839 H   0  0  0  0  0  0  0  0  0  0  0  0
   -7.7782   24.1403  -30.2470 H   0  0  0  0  0  0  0  0  0  0  0  0
  1  2  1  0
  2  3  1  0
  3  4  1  0
  4  5  2  0
  5  6  1  0
  6  7  2  0
  7  8  1  0
  8  9  2  0
  9 10  1  0
 10 11  1  0
 11 12  1  0
 12 13  2  0
 12 14  2  0
 12 15  1  0
 15 16  2  0
 16 17  1  0
 17 18  2  0
 18 19  1  0
 19 20  2  0
 11  3  1  0
 20 15  1  0
  9  4  1  0
  1 21  1  0
  1 22  1  0
  1 23  1  0
  2 24  1  0
  2 25  1  0
  5 26  1  0
  6 27  1  0
  7 28  1  0
  8 29  1  0
 10 30  1  0
 10 31  1  0
 11 32  1  1
 16 33  1  0
 17 34  1  0
 18 35  1  0
 19 36  1  0
 20 37  1  0
M  END
>  <UniqueID>  (19) 
18

>  <SMILES>  (19) 
CCN1c2ccccc2C[C@H]1S(=O)(=O)c1ccccc1

>  <Energy>  (19) 
50.06744780440688

>  <Genealogy>  (19) 
CCN1c2ccccc2C[C@H]1S(=O)(=O)c1ccccc1 (chirality)
CCN1c2ccccc2C[C@H]1S(=O)(=O)c1ccccc1 (3D coordinates assigned)
CCN1c2ccccc2C[C@H]1S(=O)(=O)c1ccccc1 (nonaromatic ring conformer: 50.06744780440688 kcal/mol)

>  <smiles>  (19) 
CCN1c2ccccc2CC1S(=O)(=O)c1ccccc1

>  <score_type>  (19) 
oracle

>  <origin>  (19) 
adg

>  <m_score__min__energy>  (19) 
-8.1999999999999993

>  <m_primary>  (19) 
energy

$$$$
19:0
     RDKit          3D

 55 57  0  0  0  0  0  0  0  0999 V2000
   -3.2730   16.7280  -35.3130 C   0  0  0  0  0  0  0  0  0  0  0  0
   -4.1260   17.8380  -35.0390 O   0  0  0  0  0  0  0  0  0  0  0  0
   -5.1620   17.8320  -34.0910 C   0  0  0  0  0  0  0  0  0  0  0  0
   -6.2320   16.9160  -34.1680 C   0  0  0  0  0  0  0  0  0  0  0  0
   -7.2310   16.9120  -33.1930 C   0  0  0  0  0  0  0  0  0  0  0  0
   -7.1740   17.8130  -32.1290 C   0  0  0  0  0  0  0  0  0  0  0  0
   -6.1240   18.7300  -32.0420 C   0  0  0  0  0  0  0  0  0  0  0  0
   -5.1170   18.7550  -33.0220 C   0  0  0  0  0  0  0  0  0  0  0  0
   -4.0490   19.7200  -32.9240 N   0  0  0  0  0  0  0  0  0  0  0  0
   -2.6860   19.2830  -32.6080 C   0  0  0  0  0  0  0  0  0  0  0  0
   -1.6750   20.3680  -33.0030 C   0  0  0  0  0  0  0  0  0  0  0  0
   -1.9640   21.6880  -32.3800 N   0  0  0  0  0  0  0  0  0  0  0  0
   -1.1430   21.9020  -31.1680 C   0  0  0  0  0  0  0  0  0  0  0  0
   -2.0080   22.3120  -29.9650 C   0  0  0  0  0  0  0  0  0  0  0  0
   -1.6170   23.7070  -29.4550 C   0  0  0  0  0  0  0  0  0  0  0  0
   -2.8420   24.5890  -29.2060 C   0  0  0  0  0  0  0  0  0  0  0  0
   -3.5020   24.9110  -30.4690 N   0  0  0  0  0  0  0  0  0  0  0  0
   -4.9000   25.2020  -30.5940 C   0  0  0  0  0  0  0  0  0  0  0  0
   -5.2850   26.3940  -30.4680 O   0  0  0  0  0  0  0  0  0  0  0  0
   -5.8960   24.1530  -30.8950 C   0  0  0  0  0  0  0  0  0  0  0  0
   -6.4980   23.4320  -29.8480 C   0  0  0  0  0  0  0  0  0  0  0  0
   -7.4300   22.4330  -30.1290 C   0  0  0  0  0  0  0  0  0  0  0  0
   -7.7610   22.1350  -31.4550 C   0  0  0  0  0  0  0  0  0  0  0  0
   -9.0470   20.7700  -31.8330 Br  0  0  0  0  0  0  0  0  0  0  0  0
   -7.1510   22.8320  -32.5010 C   0  0  0  0  0  0  0  0  0  0  0  0
   -6.2170   23.8330  -32.2240 C   0  0  0  0  0  0  0  0  0  0  0  0
   -3.4080   21.9420  -32.1240 C   0  0  0  0  0  0  0  0  0  0  0  0
   -4.3230   21.1550  -33.0660 C   0  0  0  0  0  0  0  0  0  0  0  0
   -2.9324   16.2847  -34.3657 H   0  0  0  0  0  0  0  0  0  0  0  0
   -3.8266   15.9744  -35.8923 H   0  0  0  0  0  0  0  0  0  0  0  0
   -2.4023   17.0689  -35.8923 H   0  0  0  0  0  0  0  0  0  0  0  0
   -6.2795   16.2001  -35.0018 H   0  0  0  0  0  0  0  0  0  0  0  0
   -8.0644   16.1975  -33.2636 H   0  0  0  0  0  0  0  0  0  0  0  0
   -7.9576   17.8011  -31.3571 H   0  0  0  0  0  0  0  0  0  0  0  0
   -6.0850   19.4375  -31.2006 H   0  0  0  0  0  0  0  0  0  0  0  0
   -2.6079   19.0898  -31.5279 H   0  0  0  0  0  0  0  0  0  0  0  0
   -2.4645   18.3646  -33.1715 H   0  0  0  0  0  0  0  0  0  0  0  0
   -0.6722   20.0439  -32.6878 H   0  0  0  0  0  0  0  0  0  0  0  0
   -1.7414   20.4977  -34.0933 H   0  0  0  0  0  0  0  0  0  0  0  0
   -0.6137   20.9687  -30.9258 H   0  0  0  0  0  0  0  0  0  0  0  0
   -0.4309   22.7149  -31.3733 H   0  0  0  0  0  0  0  0  0  0  0  0
   -3.0650   22.3236  -30.2694 H   0  0  0  0  0  0  0  0  0  0  0  0
   -1.8479   21.5854  -29.1548 H   0  0  0  0  0  0  0  0  0  0  0  0
   -1.0603   23.5977  -28.5126 H   0  0  0  0  0  0  0  0  0  0  0  0
   -1.0004   24.1910  -30.2268 H   0  0  0  0  0  0  0  0  0  0  0  0
   -3.5479   24.0534  -28.5542 H   0  0  0  0  0  0  0  0  0  0  0  0
   -2.5175   25.5232  -28.7243 H   0  0  0  0  0  0  0  0  0  0  0  0
   -6.2330   23.6567  -28.8043 H   0  0  0  0  0  0  0  0  0  0  0  0
   -7.9055   21.8786  -29.3065 H   0  0  0  0  0  0  0  0  0  0  0  0
   -7.4065   22.5922  -33.5437 H   0  0  0  0  0  0  0  0  0  0  0  0
   -5.7311   24.3727  -33.0502 H   0  0  0  0  0  0  0  0  0  0  0  0
   -3.6377   21.6531  -31.0878 H   0  0  0  0  0  0  0  0  0  0  0  0
   -3.5930   23.0122  -32.2988 H   0  0  0  0  0  0  0  0  0  0  0  0
   -5.3738   21.3553  -32.8095 H   0  0  0  0  0  0  0  0  0  0  0  0
   -4.1352   21.4643  -34.1048 H   0  0  0  0  0  0  0  0  0  0  0  0
  1  2  1  0
  2  3  1  0
  3  4  2  0
  4  5  1  0
  5  6  2  0
  6  7  1  0
  7  8  2  0
  8  9  1  0
  9 10  1  0
 10 11  1  0
 11 12  1  0
 12 13  1  0
 13 14  1  0
 14 15  1  0
 15 16  1  0
 16 17  1  0
 17 18  1  0
 18 19  2  0
 18 20  1  0
 20 21  2  0
 21 22  1  0
 22 23  2  0
 23 24  1  0
 23 25  1  0
 25 26  2  0
 12 27  1  0
 27 28  1  0
  8  3  1  0
 28  9  1  0
 26 20  1  0
  1 29  1  0
  1 30  1  0
  1 31  1  0
  4 32  1  0
  5 33  1  0
  6 34  1  0
  7 35  1  0
 10 36  1  0
 10 37  1  0
 11 38  1  0
 11 39  1  0
 13 40  1  0
 13 41  1  0
 14 42  1  0
 14 43  1  0
 15 44  1  0
 15 45  1  0
 16 46  1  0
 16 47  1  0
 21 48  1  0
 22 49  1  0
 25 50  1  0
 26 51  1  0
 27 52  1  0
 27 53  1  0
 28 54  1  0
 28 55  1  0
M  CHG  1  17  -1
M  END
>  <UniqueID>  (20) 
19

>  <SMILES>  (20) 
COc1ccccc1N1CCN(CCCC[N-]C(=O)c2ccc(Br)cc2)CC1

>  <Energy>  (20) 
66.53159384576124

>  <Genealogy>  (20) 
COc1ccccc1N1CCN(CCCC[N-]C(=O)c2ccc(Br)cc2)CC1 (protonated)
COc1ccccc1N1CCN(CCCC[N-]C(=O)c2ccc(Br)cc2)CC1 (3D coordinates assigned)
COc1ccccc1N1CCN(CCCC[N-]C(=O)c2ccc(Br)cc2)CC1 (nonaromatic ring conformer: 66.53159384576124 kcal/mol)

>  <smiles>  (20) 
COc1ccccc1N1CCN(CCCCNC(=O)c2ccc(Br)cc2)CC1

>  <score_type>  (20) 
oracle

>  <origin>  (20) 
adg

>  <m_score__min__energy>  (20) 
-11.18

>  <m_primary>  (20) 
energy

$$$$
20:0
     RDKit          3D

 70 72  0  0  0  0  0  0  0  0999 V2000
   -6.3990   25.0510  -29.7210 C   0  0  0  0  0  0  0  0  0  0  0  0
   -5.3300   25.2640  -30.7920 C   0  0  0  0  0  0  0  0  0  0  0  0
   -4.2010   24.3140  -30.6200 N   0  0  0  0  0  0  0  0  0  0  0  0
   -3.5590   24.5300  -29.2990 C   0  0  0  0  0  0  0  0  0  0  0  0
   -3.7860   23.3390  -28.3730 C   0  0  0  0  0  0  0  0  0  0  0  0
   -4.6860   22.9160  -30.7360 C   0  0  0  0  0  0  0  0  0  0  0  0
   -3.8550   22.0980  -31.7500 C   0  0  0  0  0  0  0  0  0  0  0  0
   -4.6170   21.6430  -32.9230 N   0  0  0  0  0  0  0  0  0  0  0  0
   -5.7990   20.8230  -32.8570 C   0  0  0  0  0  0  0  0  0  0  0  0
   -7.0250   21.3910  -32.4610 C   0  0  0  0  0  0  0  0  0  0  0  0
   -7.2010   22.7900  -32.4200 C   0  0  0  0  0  0  0  0  0  0  0  0
   -8.4170   23.3450  -32.0300 C   0  0  0  0  0  0  0  0  0  0  0  0
   -9.4840   22.5180  -31.6980 C   0  0  0  0  0  0  0  0  0  0  0  0
   -9.3400   21.1330  -31.7550 C   0  0  0  0  0  0  0  0  0  0  0  0
   -8.1070   20.5400  -32.1250 C   0  0  0  0  0  0  0  0  0  0  0  0
   -7.9480   19.1720  -32.1820 N   0  0  0  0  0  0  0  0  0  0  0  0
   -8.9310   18.2860  -31.5180 C   0  0  0  0  0  0  0  0  0  0  0  0
   -6.8660   18.6320  -32.8510 C   0  0  0  0  0  0  0  0  0  0  0  0
   -6.8400   17.2680  -33.2110 C   0  0  0  0  0  0  0  0  0  0  0  0
   -5.7440   16.7100  -33.8510 C   0  0  0  0  0  0  0  0  0  0  0  0
   -4.6270   17.4840  -34.1820 C   0  0  0  0  0  0  0  0  0  0  0  0
   -3.5370   16.8610  -34.9060 N   0  0  0  0  0  0  0  0  0  0  0  0
   -2.6740   16.0440  -34.0290 C   0  0  0  0  0  0  0  0  0  0  0  0
   -3.2840   14.6490  -33.7170 C   0  0  0  0  0  0  0  0  0  0  0  0
   -3.2900   14.2800  -32.2850 N   0  0  0  0  0  0  0  0  0  0  0  0
   -2.2210   13.3330  -31.9310 C   0  0  0  0  0  0  0  0  0  0  0  0
   -4.6040   13.8120  -31.8130 C   0  0  0  0  0  0  0  0  0  0  0  0
   -4.6220   18.8640  -33.8450 C   0  0  0  0  0  0  0  0  0  0  0  0
   -3.5440   19.6780  -34.2170 O   0  0  0  0  0  0  0  0  0  0  0  0
   -2.2730   19.6580  -33.5780 C   0  0  0  0  0  0  0  0  0  0  0  0
   -5.7490   19.4470  -33.1920 C   0  0  0  0  0  0  0  0  0  0  0  0
   -5.9427   25.1419  -28.7243 H   0  0  0  0  0  0  0  0  0  0  0  0
   -7.1874   25.8097  -29.8339 H   0  0  0  0  0  0  0  0  0  0  0  0
   -6.8364   24.0480  -29.8339 H   0  0  0  0  0  0  0  0  0  0  0  0
   -5.7802   25.1106  -31.7839 H   0  0  0  0  0  0  0  0  0  0  0  0
   -4.9409   26.2885  -30.6971 H   0  0  0  0  0  0  0  0  0  0  0  0
   -2.4777   24.6703  -29.4444 H   0  0  0  0  0  0  0  0  0  0  0  0
   -4.0074   25.4213  -28.8358 H   0  0  0  0  0  0  0  0  0  0  0  0
   -3.7227   23.6711  -27.3262 H   0  0  0  0  0  0  0  0  0  0  0  0
   -4.7817   22.9117  -28.5625 H   0  0  0  0  0  0  0  0  0  0  0  0
   -3.0172   22.5754  -28.5625 H   0  0  0  0  0  0  0  0  0  0  0  0
   -4.6182   22.4335  -29.7498 H   0  0  0  0  0  0  0  0  0  0  0  0
   -5.7258   22.9454  -31.0936 H   0  0  0  0  0  0  0  0  0  0  0  0
   -3.0229   22.7260  -32.1010 H   0  0  0  0  0  0  0  0  0  0  0  0
   -3.5130   21.1944  -31.2240 H   0  0  0  0  0  0  0  0  0  0  0  0
   -4.4580   22.1650  -33.8140 H   0  0  0  0  0  0  0  0  0  0  0  0
   -6.3672   23.4507  -32.6996 H   0  0  0  0  0  0  0  0  0  0  0  0
   -8.5334   24.4379  -31.9846 H   0  0  0  0  0  0  0  0  0  0  0  0
  -10.4440   22.9578  -31.3897 H   0  0  0  0  0  0  0  0  0  0  0  0
  -10.1974   20.4894  -31.5088 H   0  0  0  0  0  0  0  0  0  0  0  0
   -8.8290   18.3780  -30.4266 H   0  0  0  0  0  0  0  0  0  0  0  0
   -9.9485   18.5780  -31.8170 H   0  0  0  0  0  0  0  0  0  0  0  0
   -8.7459   17.2437  -31.8170 H   0  0  0  0  0  0  0  0  0  0  0  0
   -7.7081   16.6336  -32.9788 H   0  0  0  0  0  0  0  0  0  0  0  0
   -5.7531   15.6393  -34.1030 H   0  0  0  0  0  0  0  0  0  0  0  0
   -3.9210   16.2730  -35.6750 H   0  0  0  0  0  0  0  0  0  0  0  0
   -2.9510   17.5810  -35.3860 H   0  0  0  0  0  0  0  0  0  0  0  0
   -1.7032   15.9003  -34.5258 H   0  0  0  0  0  0  0  0  0  0  0  0
   -2.5676   16.5807  -33.0747 H   0  0  0  0  0  0  0  0  0  0  0  0
   -4.3236   14.6422  -34.0763 H   0  0  0  0  0  0  0  0  0  0  0  0
   -2.6443   13.9114  -34.2237 H   0  0  0  0  0  0  0  0  0  0  0  0
   -2.1414   13.2625  -30.8362 H   0  0  0  0  0  0  0  0  0  0  0  0
   -2.4568   12.3420  -32.3461 H   0  0  0  0  0  0  0  0  0  0  0  0
   -1.2657   13.6866  -32.3461 H   0  0  0  0  0  0  0  0  0  0  0  0
   -4.6180   13.8070  -30.7131 H   0  0  0  0  0  0  0  0  0  0  0  0
   -5.3891   14.4858  -32.1867 H   0  0  0  0  0  0  0  0  0  0  0  0
   -4.7864   12.7936  -32.1867 H   0  0  0  0  0  0  0  0  0  0  0  0
   -2.4112   19.6602  -32.4867 H   0  0  0  0  0  0  0  0  0  0  0  0
   -1.7267   18.7511  -33.8766 H   0  0  0  0  0  0  0  0  0  0  0  0
   -1.6984   20.5472  -33.8766 H   0  0  0  0  0  0  0  0  0  0  0  0
  1  2  1  0
  2  3  1  0
  3  4  1  0
  4  5  1  0
  3  6  1  0
  6  7  1  0
  7  8  1  0
  8  9  1  0
  9 10  2  0
 10 11  1  0
 11 12  2  0
 12 13  1  0
 13 14  2  0
 14 15  1  0
 15 16  2  0
 16 17  1  0
 16 18  1  0
 18 19  2  0
 19 20  1  0
 20 21  2  0
 21 22  1  0
 22 23  1  0
 23 24  1  0
 24 25  1  0
 25 26  1  0
 25 27  1  0
 21 28  1  0
 28 29  1  0
 29 30  1  0
 28 31  2  0
 31  9  1  0
 15 10  1  0
 31 18  1  0
  1 32  1  0
  1 33  1  0
  1 34  1  0
  2 35  1  0
  2 36  1  0
  4 37  1  0
  4 38  1  0
  5 39  1  0
  5 40  1  0
  5 41  1  0
  6 42  1  0
  6 43  1  0
  7 44  1  0
  7 45  1  0
  8 46  1  0
 11 47  1  0
 12 48  1  0
 13 49  1  0
 14 50  1  0
 17 51  1  0
 17 52  1  0
 17 53  1  0
 19 54  1  0
 20 55  1  0
 22 56  1  0
 22 57  1  0
 23 58  1  0
 23 59  1  0
 24 60  1  0
 24 61  1  0
 26 62  1  0
 26 63  1  0
 26 64  1  0
 27 65  1  0
 27 66  1  0
 27 67  1  0
 30 68  1  0
 30 69  1  0
 30 70  1  0
M  CHG  2  16   1  22   1
M  END
>  <UniqueID>  (21) 
20

>  <SMILES>  (21) 
CCN(CC)CCNc1c2ccccc2[n+](C)c2ccc([NH2+]CCN(C)C)c(OC)c12

>  <Energy>  (21) 
114.39497796590908

>  <Genealogy>  (21) 
CCN(CC)CCNc1c2ccccc2[n+](C)c2ccc([NH2+]CCN(C)C)c(OC)c12 (protonated)
CCN(CC)CCNc1c2ccccc2[n+](C)c2ccc([NH2+]CCN(C)C)c(OC)c12 (3D coordinates assigned)
CCN(CC)CCNc1c2ccccc2[n+](C)c2ccc([NH2+]CCN(C)C)c(OC)c12 (optimized conformer: 114.39497796590908 kcal/mol)

>  <smiles>  (21) 
CCN(CC)CCNc1c2ccccc2[n+](C)c2ccc(NCCN(C)C)c(OC)c12

>  <score_type>  (21) 
oracle

>  <origin>  (21) 
adg

>  <m_score__min__energy>  (21) 
-8.0099999999999998

>  <m_primary>  (21) 
energy

$$$$
21:0
     RDKit          3D

 32 34  0  0  0  0  0  0  0  0999 V2000
   -0.6829   25.6096  -27.4259 H   0  0  0  0  0  0  0  0  0  0  0  0
   -1.1950   24.8850  -28.0760 C   0  0  0  0  0  0  0  0  0  0  0  0
   -2.1590   25.3060  -28.9330 N   0  0  0  0  0  0  0  0  0  0  0  0
   -2.8230   24.4630  -29.7720 C   0  0  0  0  0  0  0  0  0  0  0  0
   -3.8010   24.9750  -30.4720 N   0  0  0  0  0  0  0  0  0  0  0  0
   -5.0810   24.4150  -30.7900 C   0  0  0  0  0  0  0  0  0  0  0  0
   -5.3620   23.9160  -32.0230 N   0  0  0  0  0  0  0  0  0  0  0  0
   -6.9050   23.3190  -31.8840 S   0  0  0  0  0  0  0  0  0  0  0  0
   -7.2340   23.6470  -30.2840 C   0  0  0  0  0  0  0  0  0  0  0  0
   -8.1582   23.4290  -29.7287 H   0  0  0  0  0  0  0  0  0  0  0  0
   -6.0810   24.2570  -29.8080 C   0  0  0  0  0  0  0  0  0  0  0  0
   -5.9592   24.5854  -28.7653 H   0  0  0  0  0  0  0  0  0  0  0  0
   -2.4300   23.0900  -29.8130 C   0  0  0  0  0  0  0  0  0  0  0  0
   -2.8280   22.1480  -30.8780 C   0  0  0  0  0  0  0  0  0  0  0  0
   -4.0350   21.5270  -30.8230 N   0  0  0  0  0  0  0  0  0  0  0  0
   -4.4030   20.6550  -31.7960 C   0  0  0  0  0  0  0  0  0  0  0  0
   -5.7530   20.0150  -31.7480 C   0  0  0  0  0  0  0  0  0  0  0  0
   -6.0541   19.8723  -30.6997 H   0  0  0  0  0  0  0  0  0  0  0  0
   -6.4839   20.6624  -32.2545 H   0  0  0  0  0  0  0  0  0  0  0  0
   -5.7145   19.0393  -32.2545 H   0  0  0  0  0  0  0  0  0  0  0  0
   -3.5610   20.4080  -32.8370 N   0  0  0  0  0  0  0  0  0  0  0  0
   -3.8530   19.7590  -33.6030 H   0  0  0  0  0  0  0  0  0  0  0  0
   -2.3390   21.0030  -32.8780 C   0  0  0  0  0  0  0  0  0  0  0  0
   -1.4180   20.7630  -34.0320 C   0  0  0  0  0  0  0  0  0  0  0  0
   -0.4180   20.5024  -33.6550 H   0  0  0  0  0  0  0  0  0  0  0  0
   -1.8058   19.9359  -34.6448 H   0  0  0  0  0  0  0  0  0  0  0  0
   -1.3529   21.6742  -34.6448 H   0  0  0  0  0  0  0  0  0  0  0  0
   -1.9770   21.8710  -31.9000 N   0  0  0  0  0  0  0  0  0  0  0  0
   -1.4670   22.6440  -28.8930 C   0  0  0  0  0  0  0  0  0  0  0  0
   -1.1946   21.5787  -28.8626 H   0  0  0  0  0  0  0  0  0  0  0  0
   -0.8540   23.5380  -28.0190 C   0  0  0  0  0  0  0  0  0  0  0  0
   -0.1088   23.1829  -27.2920 H   0  0  0  0  0  0  0  0  0  0  0  0
  1  2  1  0
  2  3  1  0
  3  4  1  0
  4  5  2  0
  5  6  1  0
  6  7  2  0
  7  8  1  0
  8  9  1  0
  9 10  1  0
  9 11  2  0
 11 12  1  0
  4 13  1  0
 13 14  1  0
 14 15  2  0
 15 16  1  0
 16 17  1  0
 17 18  1  0
 17 19  1  0
 17 20  1  0
 16 21  2  0
 21 22  1  0
 21 23  1  0
 23 24  1  0
 24 25  1  0
 24 26  1  0
 24 27  1  0
 23 28  2  0
 13 29  2  0
 29 30  1  0
 29 31  1  0
 31 32  1  0
 31  2  2  0
 11  6  1  0
 28 14  1  0
M  CHG  2   3  -1  21   1
M  END
>  <UniqueID>  (22) 
21

>  <SMILES>  (22) 
Cc1nc(-c2ccc[n-]/c2=N/c2ccsn2)nc(C)[nH+]1

>  <Energy>  (22) 
82.07236272849872

>  <Genealogy>  (22) 
Cc1nc(-c2ccc[n-]c2=Nc2ccsn2)nc(C)[nH+]1 (protonated)
Cc1nc(-c2ccc[n-]/c2=N/c2ccsn2)nc(C)[nH+]1 (cis-trans isomerization)
Cc1nc(-c2ccc[n-]/c2=N/c2ccsn2)nc(C)[nH+]1 (3D coordinates assigned)
Cc1nc(-c2ccc[n-]/c2=N/c2ccsn2)nc(C)[nH+]1 (optimized conformer: 82.07236272849872 kcal/mol)

>  <smiles>  (22) 
Cc1nc(C)nc(-c2ccc[nH]c2=Nc2ccsn2)n1

>  <score_type>  (22) 
oracle

>  <origin>  (22) 
adg

>  <m_score__min__energy>  (22) 
-8.0600000000000005

>  <m_primary>  (22) 
energy

$$$$
22:0
     RDKit          3D

 56 58  0  0  0  0  0  0  0  0999 V2000
   -6.4370   25.3330  -30.0360 C   0  0  0  0  0  0  0  0  0  0  0  0
   -5.5140   24.5730  -29.0870 C   0  0  0  0  0  0  0  0  0  0  0  0
   -5.5790   23.0570  -29.3400 C   0  0  0  0  0  0  0  0  0  0  0  0
   -5.1340   22.7050  -30.7000 N   0  0  0  0  0  0  0  0  0  0  0  0
   -3.8560   23.1980  -31.1490 C   0  0  0  0  0  0  0  0  0  0  0  0
   -3.5160   24.3930  -30.9430 O   0  0  0  0  0  0  0  0  0  0  0  0
   -2.9280   22.2820  -31.8910 C   0  0  0  0  0  0  0  0  0  0  0  0
   -3.2350   20.8050  -31.5510 C   0  0  1  0  0  0  0  0  0  0  0  0
   -2.7850   20.4360  -30.1930 N   0  0  0  0  0  0  0  0  0  0  0  0
   -1.3210   20.3730  -30.0770 C   0  0  0  0  0  0  0  0  0  0  0  0
   -0.9080   20.4280  -28.6000 C   0  0  0  0  0  0  0  0  0  0  0  0
   -1.5720   21.5980  -27.8500 C   0  0  0  0  0  0  0  0  0  0  0  0
   -1.9060   22.7280  -28.7400 N   0  0  0  0  0  0  0  0  0  0  0  0
   -2.3250   23.9380  -28.0150 C   0  0  0  0  0  0  0  0  0  0  0  0
   -1.5670   25.1850  -28.4760 C   0  0  0  0  0  0  0  0  0  0  0  0
   -4.7190   20.5340  -31.6670 C   0  0  0  0  0  0  0  0  0  0  0  0
   -5.6180   21.4800  -31.3050 C   0  0  0  0  0  0  0  0  0  0  0  0
   -7.0710   21.2710  -31.6280 C   0  0  0  0  0  0  0  0  0  0  0  0
   -8.0630   22.2060  -31.2700 C   0  0  0  0  0  0  0  0  0  0  0  0
   -9.4040   21.9830  -31.5900 C   0  0  0  0  0  0  0  0  0  0  0  0
   -9.7770   20.8440  -32.3010 C   0  0  0  0  0  0  0  0  0  0  0  0
   -8.8060   19.9330  -32.7140 C   0  0  0  0  0  0  0  0  0  0  0  0
   -7.4570   20.1350  -32.3830 C   0  0  0  0  0  0  0  0  0  0  0  0
   -6.4110   19.2200  -32.9620 C   0  0  0  0  0  0  0  0  0  0  0  0
   -5.1850   19.1520  -32.0550 C   0  0  0  0  0  0  0  0  0  0  0  0
   -7.1564   25.9254  -29.4516 H   0  0  0  0  0  0  0  0  0  0  0  0
   -5.8389   26.0040  -30.6701 H   0  0  0  0  0  0  0  0  0  0  0  0
   -6.9807   24.6173  -30.6701 H   0  0  0  0  0  0  0  0  0  0  0  0
   -4.4806   24.9179  -29.2393 H   0  0  0  0  0  0  0  0  0  0  0  0
   -5.8406   24.7674  -28.0547 H   0  0  0  0  0  0  0  0  0  0  0  0
   -4.9316   22.5472  -28.6113 H   0  0  0  0  0  0  0  0  0  0  0  0
   -6.6265   22.7390  -29.2322 H   0  0  0  0  0  0  0  0  0  0  0  0
   -3.0543   22.4379  -32.9725 H   0  0  0  0  0  0  0  0  0  0  0  0
   -1.8935   22.5072  -31.5926 H   0  0  0  0  0  0  0  0  0  0  0  0
   -2.6788   20.1924  -32.2758 H   0  0  0  0  0  0  0  0  0  0  0  0
   -3.1520   21.1180  -29.4890 H   0  0  0  0  0  0  0  0  0  0  0  0
   -0.9606   19.4334  -30.5211 H   0  0  0  0  0  0  0  0  0  0  0  0
   -0.8799   21.2299  -30.6071 H   0  0  0  0  0  0  0  0  0  0  0  0
   -1.2016   19.4852  -28.1154 H   0  0  0  0  0  0  0  0  0  0  0  0
    0.1810   20.5781  -28.5607 H   0  0  0  0  0  0  0  0  0  0  0  0
   -2.4977   21.2347  -27.3797 H   0  0  0  0  0  0  0  0  0  0  0  0
   -0.8532   21.9646  -27.1024 H   0  0  0  0  0  0  0  0  0  0  0  0
   -2.6340   22.4750  -29.4470 H   0  0  0  0  0  0  0  0  0  0  0  0
   -3.4006   24.0960  -28.1829 H   0  0  0  0  0  0  0  0  0  0  0  0
   -2.1022   23.7847  -26.9488 H   0  0  0  0  0  0  0  0  0  0  0  0
   -1.2231   25.7507  -27.5975 H   0  0  0  0  0  0  0  0  0  0  0  0
   -0.6990   24.8838  -29.0809 H   0  0  0  0  0  0  0  0  0  0  0  0
   -2.2340   25.8168  -29.0809 H   0  0  0  0  0  0  0  0  0  0  0  0
   -7.7776   23.1222  -30.7322 H   0  0  0  0  0  0  0  0  0  0  0  0
  -10.1692   22.7097  -31.2794 H   0  0  0  0  0  0  0  0  0  0  0  0
  -10.8364   20.6640  -32.5361 H   0  0  0  0  0  0  0  0  0  0  0  0
   -9.0986   19.0510  -33.3025 H   0  0  0  0  0  0  0  0  0  0  0  0
   -6.8353   18.2109  -33.0705 H   0  0  0  0  0  0  0  0  0  0  0  0
   -6.1023   19.6141  -33.9415 H   0  0  0  0  0  0  0  0  0  0  0  0
   -5.4423   18.5908  -31.1446 H   0  0  0  0  0  0  0  0  0  0  0  0
   -4.3731   18.6502  -32.6019 H   0  0  0  0  0  0  0  0  0  0  0  0
  1  2  1  0
  2  3  1  0
  3  4  1  0
  4  5  1  0
  5  6  2  0
  5  7  1  0
  7  8  1  0
  8  9  1  0
  9 10  1  0
 10 11  1  0
 11 12  1  0
 12 13  1  0
 13 14  1  0
 14 15  1  0
  8 16  1  0
 16 17  2  0
 17 18  1  0
 18 19  2  0
 19 20  1  0
 20 21  2  0
 21 22  1  0
 22 23  2  0
 23 24  1  0
 24 25  1  0
 17  4  1  0
 23 18  1  0
 25 16  1  0
  1 26  1  0
  1 27  1  0
  1 28  1  0
  2 29  1  0
  2 30  1  0
  3 31  1  0
  3 32  1  0
  7 33  1  0
  7 34  1  0
  8 35  1  6
  9 36  1  0
 10 37  1  0
 10 38  1  0
 11 39  1  0
 11 40  1  0
 12 41  1  0
 12 42  1  0
 13 43  1  0
 14 44  1  0
 14 45  1  0
 15 46  1  0
 15 47  1  0
 15 48  1  0
 19 49  1  0
 20 50  1  0
 21 51  1  0
 22 52  1  0
 24 53  1  0
 24 54  1  0
 25 55  1  0
 25 56  1  0
M  END
>  <UniqueID>  (23) 
22

>  <SMILES>  (23) 
CCCN1C(=O)C[C@@H](NCCCNCC)C2=C1c1ccccc1CC2

>  <Energy>  (23) 
66.13704199813948

>  <Genealogy>  (23) 
CCCN1C(=O)C[C@@H](NCCCNCC)C2=C1c1ccccc1CC2 (chirality)
CCCN1C(=O)C[C@@H](NCCCNCC)C2=C1c1ccccc1CC2 (3D coordinates assigned)
CCCN1C(=O)C[C@@H](NCCCNCC)C2=C1c1ccccc1CC2 (nonaromatic ring conformer: 66.13704199813948 kcal/mol)

>  <smiles>  (23) 
CCCN1C(=O)CC(NCCCNCC)C2=C1c1ccccc1CC2

>  <score_type>  (23) 
oracle

>  <origin>  (23) 
adg

>  <m_score__min__energy>  (23) 
-8.8200000000000003

>  <m_primary>  (23) 
energy

$$$$
23:0
     RDKit          3D

 47 49  0  0  0  0  0  0  0  0999 V2000
   -0.6444   19.9252  -31.3326 H   0  0  0  0  0  0  0  0  0  0  0  0
   -1.4530   20.4990  -31.8090 C   0  0  0  0  0  0  0  0  0  0  0  0
   -2.3220   21.2700  -31.0250 C   0  0  0  0  0  0  0  0  0  0  0  0
   -2.0300   21.3820  -29.5840 C   0  0  0  0  0  0  0  0  0  0  0  0
   -1.1610   22.6330  -28.8580 S   0  0  0  0  0  0  0  0  0  0  0  0
   -1.1900   21.9010  -27.3370 C   0  0  0  0  0  0  0  0  0  0  0  0
   -0.6560   22.3880  -26.2560 N   0  0  0  0  0  0  0  0  0  0  0  0
   -0.8240   23.7660  -25.8110 C   0  0  0  0  0  0  0  0  0  0  0  0
   -0.8279   23.7983  -24.7115 H   0  0  0  0  0  0  0  0  0  0  0  0
    0.0061   24.3784  -26.1929 H   0  0  0  0  0  0  0  0  0  0  0  0
   -1.7770   24.1610  -26.1929 H   0  0  0  0  0  0  0  0  0  0  0  0
   -1.8410   20.7100  -27.3730 N   0  0  0  0  0  0  0  0  0  0  0  0
   -1.9860   19.8030  -26.2310 C   0  0  0  0  0  0  0  0  0  0  0  0
   -2.0919   20.3942  -25.3094 H   0  0  0  0  0  0  0  0  0  0  0  0
   -1.0941   19.1623  -26.1679 H   0  0  0  0  0  0  0  0  0  0  0  0
   -3.2170   18.9220  -26.4070 C   0  0  0  0  0  0  0  0  0  0  0  0
   -3.6106   18.6403  -25.4192 H   0  0  0  0  0  0  0  0  0  0  0  0
   -3.9872   19.4753  -26.9644 H   0  0  0  0  0  0  0  0  0  0  0  0
   -2.9418   18.0145  -26.9644 H   0  0  0  0  0  0  0  0  0  0  0  0
   -2.2880   20.4070  -28.6250 C   0  0  0  0  0  0  0  0  0  0  0  0
   -2.8105   19.4675  -28.8583 H   0  0  0  0  0  0  0  0  0  0  0  0
   -3.3970   21.9560  -31.6480 C   0  0  0  0  0  0  0  0  0  0  0  0
   -4.6270   22.8520  -30.7130 S   0  0  0  0  0  0  0  0  0  0  0  0
   -4.3810   22.6530  -29.2440 O   0  0  0  0  0  0  0  0  0  0  0  0
   -4.4910   24.3160  -31.0240 O   0  0  0  0  0  0  0  0  0  0  0  0
   -6.2760   22.3380  -31.0020 N   0  0  0  0  0  0  0  0  0  0  0  0
   -6.3530   21.2790  -32.0200 C   0  0  0  0  0  0  0  0  0  0  0  0
   -6.1774   21.7159  -33.0141 H   0  0  0  0  0  0  0  0  0  0  0  0
   -5.5887   20.5171  -31.8069 H   0  0  0  0  0  0  0  0  0  0  0  0
   -7.7440   20.6210  -31.9910 C   0  0  0  0  0  0  0  0  0  0  0  0
   -7.9615   20.2130  -32.9891 H   0  0  0  0  0  0  0  0  0  0  0  0
   -7.7229   19.8314  -31.2255 H   0  0  0  0  0  0  0  0  0  0  0  0
   -8.8600   21.6110  -31.6090 C   0  0  0  0  0  0  0  0  0  0  0  0
   -9.7796   21.3371  -32.1470 H   0  0  0  0  0  0  0  0  0  0  0  0
   -9.0102   21.5565  -30.5207 H   0  0  0  0  0  0  0  0  0  0  0  0
   -8.4840   23.0520  -31.9690 C   0  0  0  0  0  0  0  0  0  0  0  0
   -8.3374   23.1248  -33.0567 H   0  0  0  0  0  0  0  0  0  0  0  0
   -9.2970   23.7185  -31.6452 H   0  0  0  0  0  0  0  0  0  0  0  0
   -7.1850   23.4770  -31.2550 C   0  0  0  0  0  0  0  0  0  0  0  0
   -6.6617   24.2123  -31.8839 H   0  0  0  0  0  0  0  0  0  0  0  0
   -7.4648   23.9028  -30.2801 H   0  0  0  0  0  0  0  0  0  0  0  0
   -3.4800   21.9160  -33.0510 C   0  0  0  0  0  0  0  0  0  0  0  0
   -4.2643   22.4912  -33.5648 H   0  0  0  0  0  0  0  0  0  0  0  0
   -2.6040   21.1760  -33.7810 N   0  0  0  0  0  0  0  0  0  0  0  0
   -2.6990   21.1540  -34.8220 H   0  0  0  0  0  0  0  0  0  0  0  0
   -1.6140   20.4600  -33.1910 C   0  0  0  0  0  0  0  0  0  0  0  0
   -0.9377   19.8478  -33.8057 H   0  0  0  0  0  0  0  0  0  0  0  0
  1  2  1  0
  2  3  2  0
  3  4  1  0
  4  5  1  0
  5  6  1  0
  6  7  2  0
  7  8  1  0
  8  9  1  0
  8 10  1  0
  8 11  1  0
  6 12  1  0
 12 13  1  0
 13 14  1  0
 13 15  1  0
 13 16  1  0
 16 17  1  0
 16 18  1  0
 16 19  1  0
 12 20  1  0
 20 21  1  0
  3 22  1  0
 22 23  1  0
 23 24  2  0
 23 25  2  0
 23 26  1  0
 26 27  1  0
 27 28  1  0
 27 29  1  0
 27 30  1  0
 30 31  1  0
 30 32  1  0
 30 33  1  0
 33 34  1  0
 33 35  1  0
 33 36  1  0
 36 37  1  0
 36 38  1  0
 36 39  1  0
 39 40  1  0
 39 41  1  0
 22 42  2  0
 42 43  1  0
 42 44  1  0
 44 45  1  0
 44 46  2  0
 46 47  1  0
 46  2  1  0
 20  4  2  0
 39 26  1  0
M  CHG  1  44   1
M  END
>  <UniqueID>  (24) 
23

>  <SMILES>  (24) 
CCn1cc(-c2cc[nH+]cc2S(=O)(=O)N2CCCCC2)s/c1=N\C

>  <Energy>  (24) 
89.20077030412884

>  <Genealogy>  (24) 
CCn1cc(-c2cc[nH+]cc2S(=O)(=O)N2CCCCC2)sc1=NC (protonated)
CCn1cc(-c2cc[nH+]cc2S(=O)(=O)N2CCCCC2)s/c1=N\C (cis-trans isomerization)
CCn1cc(-c2cc[nH+]cc2S(=O)(=O)N2CCCCC2)s/c1=N\C (3D coordinates assigned)
CCn1cc(-c2cc[nH+]cc2S(=O)(=O)N2CCCCC2)s/c1=N\C (nonaromatic ring conformer: 89.20077030412884 kcal/mol)

>  <smiles>  (24) 
CCn1cc(-c2ccncc2S(=O)(=O)N2CCCCC2)sc1=NC

>  <score_type>  (24) 
oracle

>  <origin>  (24) 
adg

>  <m_score__min__energy>  (24) 
-7.4800000000000004

>  <m_primary>  (24) 
energy

$$$$
24:0
     RDKit          3D

 50 52  0  0  0  0  0  0  0  0999 V2000
   -6.8900   23.6810  -30.4850 C   0  0  0  0  0  0  0  0  0  0  0  0
   -7.5690   22.3200  -30.3570 C   0  0  0  0  0  0  0  0  0  0  0  0
   -8.2290   21.9580  -31.6330 N   0  0  0  0  0  0  0  0  0  0  0  0
   -9.1140   23.0470  -32.0830 C   0  0  0  0  0  0  0  0  0  0  0  0
   -8.9970   20.6990  -31.5160 C   0  0  0  0  0  0  0  0  0  0  0  0
   -8.2830   19.5220  -32.2130 C   0  0  0  0  0  0  0  0  0  0  0  0
   -7.4430   19.9390  -33.3550 N   0  0  0  0  0  0  0  0  0  0  0  0
   -6.0830   19.4170  -33.2610 C   0  0  0  0  0  0  0  0  0  0  0  0
   -4.9780   20.2590  -32.9380 C   0  0  0  0  0  0  0  0  0  0  0  0
   -5.1400   21.5540  -32.3740 C   0  0  0  0  0  0  0  0  0  0  0  0
   -4.0420   22.3560  -32.0790 C   0  0  0  0  0  0  0  0  0  0  0  0
   -2.7570   21.8900  -32.3020 C   0  0  0  0  0  0  0  0  0  0  0  0
   -2.5590   20.6190  -32.8270 C   0  0  0  0  0  0  0  0  0  0  0  0
   -3.6530   19.7860  -33.1740 C   0  0  0  0  0  0  0  0  0  0  0  0
   -3.4480   18.5340  -33.7140 N   0  0  0  0  0  0  0  0  0  0  0  0
   -2.1240   18.1730  -34.2700 C   0  0  0  0  0  0  0  0  0  0  0  0
   -4.4790   17.6200  -33.7470 C   0  0  0  0  0  0  0  0  0  0  0  0
   -4.2310   16.2410  -33.9650 C   0  0  0  0  0  0  0  0  0  0  0  0
   -5.2770   15.3190  -34.0730 C   0  0  0  0  0  0  0  0  0  0  0  0
   -4.9850   13.8610  -34.2740 C   0  0  0  0  0  0  0  0  0  0  0  0
   -6.5910   15.7560  -33.9160 C   0  0  0  0  0  0  0  0  0  0  0  0
   -6.8620   17.0970  -33.6600 C   0  0  0  0  0  0  0  0  0  0  0  0
   -5.8200   18.0500  -33.5550 C   0  0  0  0  0  0  0  0  0  0  0  0
   -6.6881   24.0858  -29.4823 H   0  0  0  0  0  0  0  0  0  0  0  0
   -5.9426   23.5681  -31.0325 H   0  0  0  0  0  0  0  0  0  0  0  0
   -7.5500   24.3700  -31.0325 H   0  0  0  0  0  0  0  0  0  0  0  0
   -6.8145   21.5589  -30.1090 H   0  0  0  0  0  0  0  0  0  0  0  0
   -8.3268   22.3693  -29.5612 H   0  0  0  0  0  0  0  0  0  0  0  0
   -9.5339   23.5637  -31.2074 H   0  0  0  0  0  0  0  0  0  0  0  0
   -8.5373   23.7615  -32.6887 H   0  0  0  0  0  0  0  0  0  0  0  0
   -9.9313   22.6286  -32.6887 H   0  0  0  0  0  0  0  0  0  0  0  0
   -9.1234   20.4574  -30.4503 H   0  0  0  0  0  0  0  0  0  0  0  0
   -9.9700   20.8465  -32.0075 H   0  0  0  0  0  0  0  0  0  0  0  0
   -7.6426   19.0164  -31.4753 H   0  0  0  0  0  0  0  0  0  0  0  0
   -9.0643   18.8572  -32.6100 H   0  0  0  0  0  0  0  0  0  0  0  0
   -7.4220   20.9820  -33.4110 H   0  0  0  0  0  0  0  0  0  0  0  0
   -7.9440   19.6720  -34.2220 H   0  0  0  0  0  0  0  0  0  0  0  0
   -6.1531   21.9292  -32.1668 H   0  0  0  0  0  0  0  0  0  0  0  0
   -4.1952   23.3643  -31.6670 H   0  0  0  0  0  0  0  0  0  0  0  0
   -1.8924   22.5267  -32.0632 H   0  0  0  0  0  0  0  0  0  0  0  0
   -1.5331   20.2514  -32.9765 H   0  0  0  0  0  0  0  0  0  0  0  0
   -1.4204   17.9812  -33.4465 H   0  0  0  0  0  0  0  0  0  0  0  0
   -2.2203   17.2683  -34.8883 H   0  0  0  0  0  0  0  0  0  0  0  0
   -1.7477   19.0013  -34.8883 H   0  0  0  0  0  0  0  0  0  0  0  0
   -3.1926   15.8885  -34.0511 H   0  0  0  0  0  0  0  0  0  0  0  0
   -4.8864   13.3685  -33.2954 H   0  0  0  0  0  0  0  0  0  0  0  0
   -5.8079   13.3964  -34.8370 H   0  0  0  0  0  0  0  0  0  0  0  0
   -4.0466   13.7492  -34.8370 H   0  0  0  0  0  0  0  0  0  0  0  0
   -7.4193   15.0365  -33.9949 H   0  0  0  0  0  0  0  0  0  0  0  0
   -7.9055   17.4227  -33.5369 H   0  0  0  0  0  0  0  0  0  0  0  0
  1  2  1  0
  2  3  1  0
  3  4  1  0
  3  5  1  0
  5  6  1  0
  6  7  1  0
  7  8  1  0
  8  9  2  0
  9 10  1  0
 10 11  2  0
 11 12  1  0
 12 13  2  0
 13 14  1  0
 14 15  2  0
 15 16  1  0
 15 17  1  0
 17 18  2  0
 18 19  1  0
 19 20  1  0
 19 21  2  0
 21 22  1  0
 22 23  2  0
 23  8  1  0
 14  9  1  0
 23 17  1  0
  1 24  1  0
  1 25  1  0
  1 26  1  0
  2 27  1  0
  2 28  1  0
  4 29  1  0
  4 30  1  0
  4 31  1  0
  5 32  1  0
  5 33  1  0
  6 34  1  0
  6 35  1  0
  7 36  1  0
  7 37  1  0
 10 38  1  0
 11 39  1  0
 12 40  1  0
 13 41  1  0
 16 42  1  0
 16 43  1  0
 16 44  1  0
 18 45  1  0
 20 46  1  0
 20 47  1  0
 20 48  1  0
 21 49  1  0
 22 50  1  0
M  CHG  2   7   1  15   1
M  END
>  <UniqueID>  (25) 
24

>  <SMILES>  (25) 
CCN(C)CC[NH2+]c1c2ccccc2[n+](C)c2cc(C)ccc12

>  <Energy>  (25) 
79.63697316453698

>  <Genealogy>  (25) 
CCN(C)CC[NH2+]c1c2ccccc2[n+](C)c2cc(C)ccc12 (protonated)
CCN(C)CC[NH2+]c1c2ccccc2[n+](C)c2cc(C)ccc12 (3D coordinates assigned)
CCN(C)CC[NH2+]c1c2ccccc2[n+](C)c2cc(C)ccc12 (optimized conformer: 79.63697316453698 kcal/mol)

>  <smiles>  (25) 
CCN(C)CCNc1c2ccccc2[n+](C)c2cc(C)ccc12

>  <score_type>  (25) 
oracle

>  <origin>  (25) 
adg

>  <m_score__min__energy>  (25) 
-7.9100000000000001

>  <m_primary>  (25) 
energy

$$$$
25:0
     RDKit          3D

 51 53  0  0  0  0  0  0  0  0999 V2000
   -9.1170   18.4810  -31.5910 C   0  0  0  0  0  0  0  0  0  0  0  0
   -8.1710   19.5330  -32.0880 C   0  0  0  0  0  0  0  0  0  0  0  0
   -8.3180   20.9150  -31.9600 C   0  0  0  0  0  0  0  0  0  0  0  0
   -9.4560   21.5960  -31.2540 C   0  0  0  0  0  0  0  0  0  0  0  0
   -7.2220   21.5560  -32.4530 N   0  0  0  0  0  0  0  0  0  0  0  0
   -6.9560   23.0010  -32.4050 C   0  0  0  0  0  0  0  0  0  0  0  0
   -6.1650   23.3470  -31.1720 C   0  0  0  0  0  0  0  0  0  0  0  0
   -6.3570   24.5840  -30.5350 C   0  0  0  0  0  0  0  0  0  0  0  0
   -5.5980   24.9230  -29.4100 C   0  0  0  0  0  0  0  0  0  0  0  0
   -4.6450   24.0300  -28.9110 C   0  0  0  0  0  0  0  0  0  0  0  0
   -4.4520   22.7950  -29.5370 C   0  0  0  0  0  0  0  0  0  0  0  0
   -5.2080   22.4530  -30.6630 C   0  0  0  0  0  0  0  0  0  0  0  0
   -6.3900   20.5840  -32.8930 C   0  0  0  0  0  0  0  0  0  0  0  0
   -5.1210   20.7250  -33.4650 C   0  0  0  0  0  0  0  0  0  0  0  0
   -4.4210   19.5620  -33.8290 C   0  0  0  0  0  0  0  0  0  0  0  0
   -4.9860   18.2780  -33.6110 C   0  0  0  0  0  0  0  0  0  0  0  0
   -4.3180   17.0960  -33.9570 O   0  0  0  0  0  0  0  0  0  0  0  0
   -3.0400   16.7120  -33.4550 C   0  0  0  0  0  0  0  0  0  0  0  0
   -3.0610   15.2340  -33.0190 C   0  0  0  0  0  0  0  0  0  0  0  0
   -4.4130   14.6380  -32.8740 N   0  0  0  0  0  0  0  0  0  0  0  0
   -4.8090   13.8390  -34.0480 C   0  0  0  0  0  0  0  0  0  0  0  0
   -4.5690   13.8590  -31.6330 C   0  0  0  0  0  0  0  0  0  0  0  0
   -6.2600   18.1700  -33.0250 C   0  0  0  0  0  0  0  0  0  0  0  0
   -6.9380   19.3420  -32.6830 C   0  0  0  0  0  0  0  0  0  0  0  0
   -9.1185   18.4794  -30.4910 H   0  0  0  0  0  0  0  0  0  0  0  0
  -10.1311   18.6965  -31.9587 H   0  0  0  0  0  0  0  0  0  0  0  0
   -8.7954   17.4954  -31.9587 H   0  0  0  0  0  0  0  0  0  0  0  0
   -9.3155   21.5120  -30.1662 H   0  0  0  0  0  0  0  0  0  0  0  0
   -9.4816   22.6580  -31.5394 H   0  0  0  0  0  0  0  0  0  0  0  0
  -10.4040   21.1166  -31.5394 H   0  0  0  0  0  0  0  0  0  0  0  0
   -6.3835   23.2942  -33.2973 H   0  0  0  0  0  0  0  0  0  0  0  0
   -7.9145   23.5401  -32.3776 H   0  0  0  0  0  0  0  0  0  0  0  0
   -7.1073   25.2890  -30.9224 H   0  0  0  0  0  0  0  0  0  0  0  0
   -5.7513   25.8943  -28.9169 H   0  0  0  0  0  0  0  0  0  0  0  0
   -4.0479   24.2988  -28.0271 H   0  0  0  0  0  0  0  0  0  0  0  0
   -3.7042   22.0909  -29.1433 H   0  0  0  0  0  0  0  0  0  0  0  0
   -5.0527   21.4800  -31.1521 H   0  0  0  0  0  0  0  0  0  0  0  0
   -4.6823   21.7209  -33.6257 H   0  0  0  0  0  0  0  0  0  0  0  0
   -3.4248   19.6475  -34.2876 H   0  0  0  0  0  0  0  0  0  0  0  0
   -2.2845   16.8476  -34.2429 H   0  0  0  0  0  0  0  0  0  0  0  0
   -2.7930   17.3390  -32.5856 H   0  0  0  0  0  0  0  0  0  0  0  0
   -2.5100   14.6494  -33.7704 H   0  0  0  0  0  0  0  0  0  0  0  0
   -2.6047   15.2038  -32.0186 H   0  0  0  0  0  0  0  0  0  0  0  0
   -5.0850   15.4400  -32.8140 H   0  0  0  0  0  0  0  0  0  0  0  0
   -5.2742   12.9003  -33.7127 H   0  0  0  0  0  0  0  0  0  0  0  0
   -5.5288   14.4091  -34.6536 H   0  0  0  0  0  0  0  0  0  0  0  0
   -3.9194   13.6114  -34.6536 H   0  0  0  0  0  0  0  0  0  0  0  0
   -4.4363   14.5216  -30.7650 H   0  0  0  0  0  0  0  0  0  0  0  0
   -5.5742   13.4133  -31.6038 H   0  0  0  0  0  0  0  0  0  0  0  0
   -3.8129   13.0606  -31.6038 H   0  0  0  0  0  0  0  0  0  0  0  0
   -6.7122   17.1844  -32.8402 H   0  0  0  0  0  0  0  0  0  0  0  0
  1  2  1  0
  2  3  2  0
  3  4  1  0
  3  5  1  0
  5  6  1  0
  6  7  1  0
  7  8  2  0
  8  9  1  0
  9 10  2  0
 10 11  1  0
 11 12  2  0
  5 13  1  0
 13 14  2  0
 14 15  1  0
 15 16  2  0
 16 17  1  0
 17 18  1  0
 18 19  1  0
 19 20  1  0
 20 21  1  0
 20 22  1  0
 16 23  1  0
 23 24  2  0
 24  2  1  0
 12  7  1  0
 24 13  1  0
  1 25  1  0
  1 26  1  0
  1 27  1  0
  4 28  1  0
  4 29  1  0
  4 30  1  0
  6 31  1  0
  6 32  1  0
  8 33  1  0
  9 34  1  0
 10 35  1  0
 11 36  1  0
 12 37  1  0
 14 38  1  0
 15 39  1  0
 18 40  1  0
 18 41  1  0
 19 42  1  0
 19 43  1  0
 20 44  1  0
 21 45  1  0
 21 46  1  0
 21 47  1  0
 22 48  1  0
 22 49  1  0
 22 50  1  0
 23 51  1  0
M  CHG  1  20   1
M  END
>  <UniqueID>  (26) 
25

>  <SMILES>  (26) 
Cc1c(C)n(Cc2ccccc2)c2ccc(OCC[NH+](C)C)cc12

>  <Energy>  (26) 
85.88111351066534

>  <Genealogy>  (26) 
Cc1c(C)n(Cc2ccccc2)c2ccc(OCC[NH+](C)C)cc12 (protonated)
Cc1c(C)n(Cc2ccccc2)c2ccc(OCC[NH+](C)C)cc12 (3D coordinates assigned)
Cc1c(C)n(Cc2ccccc2)c2ccc(OCC[NH+](C)C)cc12 (optimized conformer: 85.88111351066534 kcal/mol)

>  <smiles>  (26) 
Cc1c(C)n(Cc2ccccc2)c2ccc(OCCN(C)C)cc12

>  <score_type>  (26) 
oracle

>  <origin>  (26) 
adg

>  <m_score__min__energy>  (26) 
-7.0599999999999996

>  <m_primary>  (26) 
energy

$$$$
26:0
     RDKit          3D

 53 54  0  0  0  0  0  0  0  0999 V2000
   -4.9830   15.6820  -32.3670 C   0  0  0  0  0  0  0  0  0  0  0  0
   -5.7590   15.3820  -33.6500 C   0  0  0  0  0  0  0  0  0  0  0  0
   -6.5170   16.6080  -34.1810 C   0  0  0  0  0  0  0  0  0  0  0  0
   -7.2220   17.3950  -33.0660 C   0  0  0  0  0  0  0  0  0  0  0  0
   -6.6270   18.7410  -32.9290 N   0  0  0  0  0  0  0  0  0  0  0  0
   -5.3050   18.8690  -33.2480 C   0  0  0  0  0  0  0  0  0  0  0  0
   -4.6530   20.0890  -33.1500 C   0  0  0  0  0  0  0  0  0  0  0  0
   -5.3400   21.2340  -32.7330 C   0  0  0  0  0  0  0  0  0  0  0  0
   -4.6410   22.4950  -32.6210 N   0  0  0  0  0  0  0  0  0  0  0  0
   -3.9770   22.9690  -31.4030 C   0  0  0  0  0  0  0  0  0  0  0  0
   -4.7900   22.6840  -30.1190 C   0  0  0  0  0  0  0  0  0  0  0  0
   -4.9340   23.8130  -29.1550 N   0  0  0  0  0  0  0  0  0  0  0  0
   -3.7900   23.9950  -28.2230 C   0  0  0  0  0  0  0  0  0  0  0  0
   -4.2080   24.5000  -26.8360 C   0  0  0  0  0  0  0  0  0  0  0  0
   -5.3960   25.0820  -29.7920 C   0  0  0  0  0  0  0  0  0  0  0  0
   -6.9180   25.3160  -29.7750 C   0  0  0  0  0  0  0  0  0  0  0  0
   -6.7190   21.1200  -32.4240 C   0  0  0  0  0  0  0  0  0  0  0  0
   -7.4860   22.2430  -32.0380 C   0  0  0  0  0  0  0  0  0  0  0  0
   -8.8460   22.1200  -31.7640 C   0  0  0  0  0  0  0  0  0  0  0  0
   -9.4720   20.8860  -31.8760 C   0  0  0  0  0  0  0  0  0  0  0  0
   -8.7460   19.7620  -32.2610 C   0  0  0  0  0  0  0  0  0  0  0  0
   -7.3590   19.8470  -32.5390 C   0  0  0  0  0  0  0  0  0  0  0  0
   -5.6085   15.4402  -31.4951 H   0  0  0  0  0  0  0  0  0  0  0  0
   -4.0673   15.0731  -32.3415 H   0  0  0  0  0  0  0  0  0  0  0  0
   -4.7150   16.7485  -32.3415 H   0  0  0  0  0  0  0  0  0  0  0  0
   -5.0497   15.0452  -34.4204 H   0  0  0  0  0  0  0  0  0  0  0  0
   -6.5024   14.6056  -33.4165 H   0  0  0  0  0  0  0  0  0  0  0  0
   -5.8008   17.2744  -34.6839 H   0  0  0  0  0  0  0  0  0  0  0  0
   -7.2908   16.2468  -34.8744 H   0  0  0  0  0  0  0  0  0  0  0  0
   -8.2896   17.4941  -33.3118 H   0  0  0  0  0  0  0  0  0  0  0  0
   -7.1011   16.8534  -32.1162 H   0  0  0  0  0  0  0  0  0  0  0  0
   -4.7457   17.9856  -33.5899 H   0  0  0  0  0  0  0  0  0  0  0  0
   -3.5846   20.1571  -33.4028 H   0  0  0  0  0  0  0  0  0  0  0  0
   -4.6820   23.1740  -33.4110 H   0  0  0  0  0  0  0  0  0  0  0  0
   -3.0016   22.4677  -31.3183 H   0  0  0  0  0  0  0  0  0  0  0  0
   -3.8728   24.0606  -31.4898 H   0  0  0  0  0  0  0  0  0  0  0  0
   -5.8005   22.3759  -30.4254 H   0  0  0  0  0  0  0  0  0  0  0  0
   -4.2196   21.9134  -29.5798 H   0  0  0  0  0  0  0  0  0  0  0  0
   -5.7380   23.5240  -28.5450 H   0  0  0  0  0  0  0  0  0  0  0  0
   -3.2809   23.0273  -28.1028 H   0  0  0  0  0  0  0  0  0  0  0  0
   -3.1321   24.7595  -28.6621 H   0  0  0  0  0  0  0  0  0  0  0  0
   -3.7100   23.8984  -26.0613 H   0  0  0  0  0  0  0  0  0  0  0  0
   -3.9150   25.5545  -26.7261 H   0  0  0  0  0  0  0  0  0  0  0  0
   -5.2987   24.4092  -26.7261 H   0  0  0  0  0  0  0  0  0  0  0  0
   -4.9183   25.9201  -29.2635 H   0  0  0  0  0  0  0  0  0  0  0  0
   -5.1135   25.0081  -30.8525 H   0  0  0  0  0  0  0  0  0  0  0  0
   -7.2691   25.3700  -28.7339 H   0  0  0  0  0  0  0  0  0  0  0  0
   -7.1496   26.2603  -30.2895 H   0  0  0  0  0  0  0  0  0  0  0  0
   -7.4225   24.4849  -30.2895 H   0  0  0  0  0  0  0  0  0  0  0  0
   -7.0022   23.2272  -31.9529 H   0  0  0  0  0  0  0  0  0  0  0  0
   -9.4258   23.0033  -31.4579 H   0  0  0  0  0  0  0  0  0  0  0  0
  -10.5467   20.7958  -31.6596 H   0  0  0  0  0  0  0  0  0  0  0  0
   -9.2574   18.7922  -32.3508 H   0  0  0  0  0  0  0  0  0  0  0  0
  1  2  1  0
  2  3  1  0
  3  4  1  0
  4  5  1  0
  5  6  2  0
  6  7  1  0
  7  8  2  0
  8  9  1  0
  9 10  1  0
 10 11  1  0
 11 12  1  0
 12 13  1  0
 13 14  1  0
 12 15  1  0
 15 16  1  0
  8 17  1  0
 17 18  2  0
 18 19  1  0
 19 20  2  0
 20 21  1  0
 21 22  2  0
 22  5  1  0
 22 17  1  0
  1 23  1  0
  1 24  1  0
  1 25  1  0
  2 26  1  0
  2 27  1  0
  3 28  1  0
  3 29  1  0
  4 30  1  0
  4 31  1  0
  6 32  1  0
  7 33  1  0
  9 34  1  0
 10 35  1  0
 10 36  1  0
 11 37  1  0
 11 38  1  0
 12 39  1  0
 13 40  1  0
 13 41  1  0
 14 42  1  0
 14 43  1  0
 14 44  1  0
 15 45  1  0
 15 46  1  0
 16 47  1  0
 16 48  1  0
 16 49  1  0
 18 50  1  0
 19 51  1  0
 20 52  1  0
 21 53  1  0
M  CHG  2   5   1  12   1
M  END
>  <UniqueID>  (27) 
26

>  <SMILES>  (27) 
CCCC[n+]1ccc(NCC[NH+](CC)CC)c2ccccc21

>  <Energy>  (27) 
65.18702758092773

>  <Genealogy>  (27) 
CCCC[n+]1ccc(NCC[NH+](CC)CC)c2ccccc21 (protonated)
CCCC[n+]1ccc(NCC[NH+](CC)CC)c2ccccc21 (3D coordinates assigned)
CCCC[n+]1ccc(NCC[NH+](CC)CC)c2ccccc21 (optimized conformer: 65.18702758092773 kcal/mol)

>  <smiles>  (27) 
CCCC[n+]1ccc(NCCN(CC)CC)c2ccccc21

>  <score_type>  (27) 
oracle

>  <origin>  (27) 
adg

>  <m_score__min__energy>  (27) 
-5.9199999999999999

>  <m_primary>  (27) 
energy

$$$$
27:0
     RDKit          3D

 47 49  0  0  0  0  0  0  0  0999 V2000
   -3.8830   23.9000  -27.7410 C   0  0  0  0  0  0  0  0  0  0  0  0
   -3.8390   22.6570  -28.6360 C   0  0  0  0  0  0  0  0  0  0  0  0
   -2.8550   22.8020  -29.7430 N   0  0  1  0  0  0  0  0  0  0  0  0
   -1.6920   23.6140  -29.3350 C   0  0  0  0  0  0  0  0  0  0  0  0
   -2.4640   21.5020  -30.3540 C   0  0  0  0  0  0  0  0  0  0  0  0
   -1.7820   21.5660  -31.7420 C   0  0  0  0  0  0  0  0  0  0  0  0
   -2.6220   20.9890  -32.8880 C   0  0  0  0  0  0  0  0  0  0  0  0
   -3.6860   21.9230  -33.2530 N   0  0  0  0  0  0  0  0  0  0  0  0
   -4.9750   21.8430  -32.6300 C   0  0  0  0  0  0  0  0  0  0  0  0
   -5.8280   20.7230  -32.7780 C   0  0  0  0  0  0  0  0  0  0  0  0
   -5.3990   19.5740  -33.4680 C   0  0  0  0  0  0  0  0  0  0  0  0
   -6.2440   18.4770  -33.6110 C   0  0  0  0  0  0  0  0  0  0  0  0
   -7.5270   18.5020  -33.0710 C   0  0  0  0  0  0  0  0  0  0  0  0
   -7.9730   19.6200  -32.3640 C   0  0  0  0  0  0  0  0  0  0  0  0
   -7.1390   20.7510  -32.1880 C   0  0  0  0  0  0  0  0  0  0  0  0
   -7.5640   21.8590  -31.4700 N   0  0  0  0  0  0  0  0  0  0  0  0
   -8.9180   21.9220  -30.8910 C   0  0  0  0  0  0  0  0  0  0  0  0
   -6.6820   22.8970  -31.3100 C   0  0  0  0  0  0  0  0  0  0  0  0
   -6.8140   24.0960  -30.6310 C   0  0  0  0  0  0  0  0  0  0  0  0
   -5.6100   24.7530  -30.8420 C   0  0  0  0  0  0  0  0  0  0  0  0
   -4.8060   24.0150  -31.5830 O   0  0  0  0  0  0  0  0  0  0  0  0
   -5.4370   22.9010  -31.8650 C   0  0  0  0  0  0  0  0  0  0  0  0
   -3.8721   23.5921  -26.6850 H   0  0  0  0  0  0  0  0  0  0  0  0
   -3.0067   24.5319  -27.9477 H   0  0  0  0  0  0  0  0  0  0  0  0
   -4.8018   24.4683  -27.9477 H   0  0  0  0  0  0  0  0  0  0  0  0
   -3.5585   21.7877  -28.0231 H   0  0  0  0  0  0  0  0  0  0  0  0
   -4.8356   22.5241  -29.0823 H   0  0  0  0  0  0  0  0  0  0  0  0
   -3.3200   23.3330  -30.5190 H   0  0  0  0  0  0  0  0  0  0  0  0
   -1.6381   23.6516  -28.2370 H   0  0  0  0  0  0  0  0  0  0  0  0
   -0.7714   23.1614  -29.7320 H   0  0  0  0  0  0  0  0  0  0  0  0
   -1.7997   24.6342  -29.7320 H   0  0  0  0  0  0  0  0  0  0  0  0
   -1.7680   21.0043  -29.6628 H   0  0  0  0  0  0  0  0  0  0  0  0
   -3.4088   20.9635  -30.5196 H   0  0  0  0  0  0  0  0  0  0  0  0
   -1.5658   22.6200  -31.9708 H   0  0  0  0  0  0  0  0  0  0  0  0
   -0.8752   20.9469  -31.6750 H   0  0  0  0  0  0  0  0  0  0  0  0
   -1.9755   20.8153  -33.7609 H   0  0  0  0  0  0  0  0  0  0  0  0
   -3.0731   20.0407  -32.5607 H   0  0  0  0  0  0  0  0  0  0  0  0
   -3.6440   22.3250  -34.2120 H   0  0  0  0  0  0  0  0  0  0  0  0
   -4.3871   19.5424  -33.8981 H   0  0  0  0  0  0  0  0  0  0  0  0
   -5.8961   17.5856  -34.1536 H   0  0  0  0  0  0  0  0  0  0  0  0
   -8.1928   17.6362  -33.2021 H   0  0  0  0  0  0  0  0  0  0  0  0
   -8.9869   19.6225  -31.9374 H   0  0  0  0  0  0  0  0  0  0  0  0
   -8.8479   21.9187  -29.7932 H   0  0  0  0  0  0  0  0  0  0  0  0
   -9.4166   22.8443  -31.2238 H   0  0  0  0  0  0  0  0  0  0  0  0
   -9.5001   21.0500  -31.2238 H   0  0  0  0  0  0  0  0  0  0  0  0
   -7.6805   24.4494  -30.0528 H   0  0  0  0  0  0  0  0  0  0  0  0
   -5.3611   25.7490  -30.4470 H   0  0  0  0  0  0  0  0  0  0  0  0
  1  2  1  0
  2  3  1  0
  3  4  1  0
  3  5  1  0
  5  6  1  0
  6  7  1  0
  7  8  1  0
  8  9  1  0
  9 10  2  0
 10 11  1  0
 11 12  2  0
 12 13  1  0
 13 14  2  0
 14 15  1  0
 15 16  2  0
 16 17  1  0
 16 18  1  0
 18 19  1  0
 19 20  2  0
 20 21  1  0
 21 22  1  0
 22  9  1  0
 15 10  1  0
 22 18  2  0
  1 23  1  0
  1 24  1  0
  1 25  1  0
  2 26  1  0
  2 27  1  0
  3 28  1  6
  4 29  1  0
  4 30  1  0
  4 31  1  0
  5 32  1  0
  5 33  1  0
  6 34  1  0
  6 35  1  0
  7 36  1  0
  7 37  1  0
  8 38  1  0
 11 39  1  0
 12 40  1  0
 13 41  1  0
 14 42  1  0
 17 43  1  0
 17 44  1  0
 17 45  1  0
 19 46  1  0
 20 47  1  0
M  CHG  2   3   1  16   1
M  END
>  <UniqueID>  (28) 
27

>  <SMILES>  (28) 
CC[N@@H+](C)CCCNc1c2ccccc2[n+](C)c2ccoc12

>  <Energy>  (28) 
99.9898681970904

>  <Genealogy>  (28) 
CC[NH+](C)CCCNc1c2ccccc2[n+](C)c2ccoc12 (protonated)
CC[N@@H+](C)CCCNc1c2ccccc2[n+](C)c2ccoc12 (chirality)
CC[N@@H+](C)CCCNc1c2ccccc2[n+](C)c2ccoc12 (3D coordinates assigned)
CC[N@@H+](C)CCCNc1c2ccccc2[n+](C)c2ccoc12 (optimized conformer: 99.9898681970904 kcal/mol)

>  <smiles>  (28) 
CCN(C)CCCNc1c2ccccc2[n+](C)c2ccoc12

>  <score_type>  (28) 
oracle

>  <origin>  (28) 
adg

>  <m_score__min__energy>  (28) 
-5.6200000000000001

>  <m_primary>  (28) 
energy

$$$$
28:0
     RDKit          3D

 44 46  0  0  0  0  0  0  0  0999 V2000
   -5.7100   25.3970  -30.4950 C   0  0  0  0  0  0  0  0  0  0  0  0
   -4.7860   24.2550  -30.0850 C   0  0  0  0  0  0  0  0  0  0  0  0
   -4.0810   23.7230  -31.2610 N   0  0  0  0  0  0  0  0  0  0  0  0
   -3.4000   22.4460  -30.9840 C   0  0  0  0  0  0  0  0  0  0  0  0
   -3.5050   21.4620  -32.1640 C   0  0  0  0  0  0  0  0  0  0  0  0
   -4.5980   21.8510  -33.0710 N   0  0  0  0  0  0  0  0  0  0  0  0
   -5.7570   20.9900  -32.8860 C   0  0  0  0  0  0  0  0  0  0  0  0
   -6.9990   21.5260  -32.4580 C   0  0  0  0  0  0  0  0  0  0  0  0
   -7.2150   22.9240  -32.3640 C   0  0  0  0  0  0  0  0  0  0  0  0
   -8.4500   23.4360  -31.9710 C   0  0  0  0  0  0  0  0  0  0  0  0
   -9.4990   22.5770  -31.6800 C   0  0  0  0  0  0  0  0  0  0  0  0
   -9.3190   21.1990  -31.7650 C   0  0  0  0  0  0  0  0  0  0  0  0
   -8.0650   20.6430  -32.1280 C   0  0  0  0  0  0  0  0  0  0  0  0
   -7.8760   19.2770  -32.1790 N   0  0  0  0  0  0  0  0  0  0  0  0
   -8.8490   18.3700  -31.5310 C   0  0  0  0  0  0  0  0  0  0  0  0
   -6.7740   18.7570  -32.8270 C   0  0  0  0  0  0  0  0  0  0  0  0
   -6.7080   17.3850  -33.1810 C   0  0  0  0  0  0  0  0  0  0  0  0
   -5.5830   16.8540  -33.8030 C   0  0  0  0  0  0  0  0  0  0  0  0
   -4.5030   17.6710  -34.1090 C   0  0  0  0  0  0  0  0  0  0  0  0
   -2.9690   16.9380  -34.9800 Br  0  0  0  0  0  0  0  0  0  0  0  0
   -4.5500   19.0310  -33.8060 C   0  0  0  0  0  0  0  0  0  0  0  0
   -5.6820   19.6010  -33.1720 C   0  0  0  0  0  0  0  0  0  0  0  0
   -6.1075   25.8883  -29.5947 H   0  0  0  0  0  0  0  0  0  0  0  0
   -5.1462   26.1281  -31.0930 H   0  0  0  0  0  0  0  0  0  0  0  0
   -6.5427   24.9982  -31.0930 H   0  0  0  0  0  0  0  0  0  0  0  0
   -4.0494   24.6272  -29.3577 H   0  0  0  0  0  0  0  0  0  0  0  0
   -5.3873   23.4518  -29.6341 H   0  0  0  0  0  0  0  0  0  0  0  0
   -3.3820   24.4300  -31.5920 H   0  0  0  0  0  0  0  0  0  0  0  0
   -2.3372   22.6475  -30.7844 H   0  0  0  0  0  0  0  0  0  0  0  0
   -3.8904   21.9838  -30.1146 H   0  0  0  0  0  0  0  0  0  0  0  0
   -2.5562   21.4633  -32.7206 H   0  0  0  0  0  0  0  0  0  0  0  0
   -3.7145   20.4571  -31.7687 H   0  0  0  0  0  0  0  0  0  0  0  0
   -4.8580   22.8510  -32.9250 H   0  0  0  0  0  0  0  0  0  0  0  0
   -4.2730   21.8270  -34.0630 H   0  0  0  0  0  0  0  0  0  0  0  0
   -6.3944   23.6157  -32.6052 H   0  0  0  0  0  0  0  0  0  0  0  0
   -8.5931   24.5238  -31.8914 H   0  0  0  0  0  0  0  0  0  0  0  0
  -10.4757   22.9853  -31.3813 H   0  0  0  0  0  0  0  0  0  0  0  0
  -10.1640   20.5294  -31.5469 H   0  0  0  0  0  0  0  0  0  0  0  0
   -8.7579   18.4549  -30.4381 H   0  0  0  0  0  0  0  0  0  0  0  0
   -9.8686   18.6474  -31.8366 H   0  0  0  0  0  0  0  0  0  0  0  0
   -8.6438   17.3334  -31.8366 H   0  0  0  0  0  0  0  0  0  0  0  0
   -7.5625   16.7287  -32.9595 H   0  0  0  0  0  0  0  0  0  0  0  0
   -5.5488   15.7834  -34.0533 H   0  0  0  0  0  0  0  0  0  0  0  0
   -3.6941   19.6723  -34.0633 H   0  0  0  0  0  0  0  0  0  0  0  0
  1  2  1  0
  2  3  1  0
  3  4  1  0
  4  5  1  0
  5  6  1  0
  6  7  1  0
  7  8  2  0
  8  9  1  0
  9 10  2  0
 10 11  1  0
 11 12  2  0
 12 13  1  0
 13 14  2  0
 14 15  1  0
 14 16  1  0
 16 17  2  0
 17 18  1  0
 18 19  2  0
 19 20  1  0
 19 21  1  0
 21 22  2  0
 22  7  1  0
 13  8  1  0
 22 16  1  0
  1 23  1  0
  1 24  1  0
  1 25  1  0
  2 26  1  0
  2 27  1  0
  3 28  1  0
  4 29  1  0
  4 30  1  0
  5 31  1  0
  5 32  1  0
  6 33  1  0
  6 34  1  0
  9 35  1  0
 10 36  1  0
 11 37  1  0
 12 38  1  0
 15 39  1  0
 15 40  1  0
 15 41  1  0
 17 42  1  0
 18 43  1  0
 21 44  1  0
M  CHG  2   6   1  14   1
M  END
>  <UniqueID>  (29) 
28

>  <SMILES>  (29) 
CCNCC[NH2+]c1c2ccccc2[n+](C)c2ccc(Br)cc12

>  <Energy>  (29) 
69.775239314773

>  <Genealogy>  (29) 
CCNCC[NH2+]c1c2ccccc2[n+](C)c2ccc(Br)cc12 (protonated)
CCNCC[NH2+]c1c2ccccc2[n+](C)c2ccc(Br)cc12 (3D coordinates assigned)
CCNCC[NH2+]c1c2ccccc2[n+](C)c2ccc(Br)cc12 (optimized conformer: 69.775239314773 kcal/mol)

>  <smiles>  (29) 
CCNCCNc1c2ccccc2[n+](C)c2ccc(Br)cc12

>  <score_type>  (29) 
oracle

>  <origin>  (29) 
adg

>  <m_score__min__energy>  (29) 
-7.9500000000000002

>  <m_primary>  (29) 
energy

$$$$
29:0
     RDKit          3D

 62 65  0  0  0  0  0  0  0  0999 V2000
   -1.7450   14.4770  -33.0780 C   0  0  0  0  0  0  0  0  0  0  0  0
   -1.4710   14.7280  -34.5630 C   0  0  0  0  0  0  0  0  0  0  0  0
   -2.7210   15.0590  -35.2930 N   0  0  0  0  0  0  0  0  0  0  0  0
   -2.6480   14.7360  -36.7410 C   0  0  0  0  0  0  0  0  0  0  0  0
   -1.2040   14.7900  -37.2410 C   0  0  0  0  0  0  0  0  0  0  0  0
   -3.7840   15.6490  -34.7230 C   0  0  0  0  0  0  0  0  0  0  0  0
   -4.9480   14.8720  -34.4580 C   0  0  0  0  0  0  0  0  0  0  0  0
   -6.2430   15.2440  -34.1000 C   0  0  0  0  0  0  0  0  0  0  0  0
   -6.7420   16.4790  -33.7250 C   0  0  0  0  0  0  0  0  0  0  0  0
   -6.0060   17.6300  -33.4900 C   0  0  0  0  0  0  0  0  0  0  0  0
   -4.6860   17.8770  -33.8520 C   0  0  0  0  0  0  0  0  0  0  0  0
   -3.7220   17.0310  -34.3980 C   0  0  0  0  0  0  0  0  0  0  0  0
   -4.4060   19.1510  -33.6560 O   0  0  0  0  0  0  0  0  0  0  0  0
   -5.4630   19.7580  -33.1880 C   0  0  0  0  0  0  0  0  0  0  0  0
   -5.6030   21.1180  -32.9070 C   0  0  0  0  0  0  0  0  0  0  0  0
   -4.4980   22.0410  -33.0560 N   0  0  0  0  0  0  0  0  0  0  0  0
   -3.4930   22.3180  -32.0250 C   0  0  0  0  0  0  0  0  0  0  0  0
   -4.1430   22.8220  -30.7280 C   0  0  0  0  0  0  0  0  0  0  0  0
   -3.8880   24.2700  -30.5720 N   0  0  0  0  0  0  0  0  0  0  0  0
   -3.1230   24.5520  -29.3450 C   0  0  0  0  0  0  0  0  0  0  0  0
   -5.1430   25.0350  -30.5700 C   0  0  0  0  0  0  0  0  0  0  0  0
   -6.8900   21.5520  -32.4920 C   0  0  0  0  0  0  0  0  0  0  0  0
   -7.1870   22.9240  -32.3430 C   0  0  0  0  0  0  0  0  0  0  0  0
   -8.4600   23.3410  -31.9640 C   0  0  0  0  0  0  0  0  0  0  0  0
   -9.4710   22.4110  -31.7500 C   0  0  0  0  0  0  0  0  0  0  0  0
   -9.2140   21.0490  -31.9050 C   0  0  0  0  0  0  0  0  0  0  0  0
   -7.9270   20.5830  -32.2660 C   0  0  0  0  0  0  0  0  0  0  0  0
   -7.6680   19.2300  -32.4270 N   0  0  0  0  0  0  0  0  0  0  0  0
   -8.5900   18.2180  -31.8840 C   0  0  0  0  0  0  0  0  0  0  0  0
   -6.4820   18.8650  -33.0150 C   0  0  0  0  0  0  0  0  0  0  0  0
   -1.0688   15.0965  -32.4706 H   0  0  0  0  0  0  0  0  0  0  0  0
   -2.7882   14.7394  -32.8482 H   0  0  0  0  0  0  0  0  0  0  0  0
   -1.5749   13.4148  -32.8482 H   0  0  0  0  0  0  0  0  0  0  0  0
   -0.7660   15.5667  -34.6607 H   0  0  0  0  0  0  0  0  0  0  0  0
   -1.0469   13.8110  -34.9980 H   0  0  0  0  0  0  0  0  0  0  0  0
   -3.0481   13.7245  -36.9048 H   0  0  0  0  0  0  0  0  0  0  0  0
   -3.2398   15.4784  -37.2965 H   0  0  0  0  0  0  0  0  0  0  0  0
   -0.5188   14.8156  -36.3808 H   0  0  0  0  0  0  0  0  0  0  0  0
   -0.9936   13.8991  -37.8509 H   0  0  0  0  0  0  0  0  0  0  0  0
   -1.0607   15.6941  -37.8509 H   0  0  0  0  0  0  0  0  0  0  0  0
   -4.7987   13.7863  -34.5526 H   0  0  0  0  0  0  0  0  0  0  0  0
   -6.9825   14.4299  -34.1185 H   0  0  0  0  0  0  0  0  0  0  0  0
   -7.8323   16.5551  -33.6009 H   0  0  0  0  0  0  0  0  0  0  0  0
   -2.7559   17.5114  -34.6122 H   0  0  0  0  0  0  0  0  0  0  0  0
   -4.4460   22.6280  -33.9170 H   0  0  0  0  0  0  0  0  0  0  0  0
   -2.9366   21.3937  -31.8105 H   0  0  0  0  0  0  0  0  0  0  0  0
   -2.8190   23.1018  -32.4011 H   0  0  0  0  0  0  0  0  0  0  0  0
   -5.2277   22.6443  -30.7698 H   0  0  0  0  0  0  0  0  0  0  0  0
   -3.7126   22.2823  -29.8716 H   0  0  0  0  0  0  0  0  0  0  0  0
   -3.7431   24.3234  -28.4656 H   0  0  0  0  0  0  0  0  0  0  0  0
   -2.2167   23.9289  -29.3266 H   0  0  0  0  0  0  0  0  0  0  0  0
   -2.8380   25.6143  -29.3266 H   0  0  0  0  0  0  0  0  0  0  0  0
   -5.4549   25.2251  -29.5324 H   0  0  0  0  0  0  0  0  0  0  0  0
   -4.9892   25.9931  -31.0880 H   0  0  0  0  0  0  0  0  0  0  0  0
   -5.9242   24.4593  -31.0880 H   0  0  0  0  0  0  0  0  0  0  0  0
   -6.4029   23.6728  -32.5286 H   0  0  0  0  0  0  0  0  0  0  0  0
   -8.6673   24.4133  -31.8330 H   0  0  0  0  0  0  0  0  0  0  0  0
  -10.4758   22.7501  -31.4578 H   0  0  0  0  0  0  0  0  0  0  0  0
  -10.0256   20.3242  -31.7439 H   0  0  0  0  0  0  0  0  0  0  0  0
   -8.5620   18.2487  -30.7848 H   0  0  0  0  0  0  0  0  0  0  0  0
   -9.6122   18.4296  -32.2308 H   0  0  0  0  0  0  0  0  0  0  0  0
   -8.2844   17.2198  -32.2308 H   0  0  0  0  0  0  0  0  0  0  0  0
  1  2  1  0
  2  3  1  0
  3  4  1  0
  4  5  1  0
  3  6  2  3
  6  7  1  0
  7  8  2  0
  8  9  1  0
  9 10  2  0
 10 11  1  0
 11 12  2  0
 11 13  1  0
 13 14  1  0
 14 15  2  0
 15 16  1  0
 16 17  1  0
 17 18  1  0
 18 19  1  0
 19 20  1  0
 19 21  1  0
 15 22  1  0
 22 23  2  0
 23 24  1  0
 24 25  2  0
 25 26  1  0
 26 27  2  0
 27 28  1  0
 28 29  1  0
 28 30  2  0
 12  6  1  0
 30 14  1  0
 30 10  1  0
 27 22  1  0
  1 31  1  0
  1 32  1  0
  1 33  1  0
  2 34  1  0
  2 35  1  0
  4 36  1  0
  4 37  1  0
  5 38  1  0
  5 39  1  0
  5 40  1  0
  7 41  1  0
  8 42  1  0
  9 43  1  0
 12 44  1  0
 16 45  1  0
 17 46  1  0
 17 47  1  0
 18 48  1  0
 18 49  1  0
 20 50  1  0
 20 51  1  0
 20 52  1  0
 21 53  1  0
 21 54  1  0
 21 55  1  0
 23 56  1  0
 24 57  1  0
 25 58  1  0
 26 59  1  0
 29 60  1  0
 29 61  1  0
 29 62  1  0
M  CHG  2   3   1  28   1
M  END
>  <UniqueID>  (30) 
29

>  <SMILES>  (30) 
CC[N+](CC)=c1cccc2c(c1)oc1c(NCCN(C)C)c3ccccc3[n+](C)c12

>  <Energy>  (30) 
149.96089311774466

>  <Genealogy>  (30) 
CC[N+](CC)=c1cccc2c(c1)oc1c(NCCN(C)C)c3ccccc3[n+](C)c12 (3D coordinates assigned)
CC[N+](CC)=c1cccc2c(c1)oc1c(NCCN(C)C)c3ccccc3[n+](C)c12 (optimized conformer: 149.96089311774466 kcal/mol)

>  <smiles>  (30) 
CC[N+](CC)=c1cccc2c(c1)oc1c(NCCN(C)C)c3ccccc3[n+](C)c12

>  <score_type>  (30) 
oracle

>  <origin>  (30) 
adg

>  <m_score__min__energy>  (30) 
-8.1199999999999992

>  <m_primary>  (30) 
energy

$$$$
30:0
     RDKit          3D

 57 59  0  0  0  0  0  0  0  0999 V2000
  -10.5870   20.7860  -32.3210 F   0  0  0  0  0  0  0  0  0  0  0  0
   -9.2460   20.8050  -32.1180 C   0  0  0  0  0  0  0  0  0  0  0  0
   -8.6970   21.6970  -31.2050 C   0  0  0  0  0  0  0  0  0  0  0  0
   -7.3230   21.7080  -30.9820 C   0  0  0  0  0  0  0  0  0  0  0  0
   -6.4670   20.8290  -31.6740 C   0  0  0  0  0  0  0  0  0  0  0  0
   -4.9840   20.9100  -31.3420 C   0  0  0  0  0  0  0  0  0  0  0  0
   -4.3040   22.0430  -31.9970 N   0  0  0  0  0  0  0  0  0  0  0  0
   -5.1810   23.1930  -32.2940 C   0  0  0  0  0  0  0  0  0  0  0  0
   -5.1960   24.2920  -31.2050 C   0  0  0  0  0  0  0  0  0  0  0  0
   -3.8800   24.6160  -30.6240 N   0  0  0  0  0  0  0  0  0  0  0  0
   -3.7360   24.3470  -29.1760 C   0  0  0  0  0  0  0  0  0  0  0  0
   -4.0000   22.8500  -28.8980 C   0  0  0  0  0  0  0  0  0  0  0  0
   -2.7920   21.9540  -29.2450 C   0  0  0  0  0  0  0  0  0  0  0  0
   -1.8130   22.6800  -30.0790 N   0  0  0  0  0  0  0  0  0  0  0  0
   -0.7550   21.7790  -30.5760 C   0  0  0  0  0  0  0  0  0  0  0  0
   -1.2680   20.9980  -31.7510 C   0  0  0  0  0  0  0  0  0  0  0  0
   -1.1840   21.5200  -33.0540 C   0  0  0  0  0  0  0  0  0  0  0  0
   -1.6420   20.7730  -34.1440 C   0  0  0  0  0  0  0  0  0  0  0  0
   -2.1800   19.5000  -33.9430 C   0  0  0  0  0  0  0  0  0  0  0  0
   -2.2540   18.9680  -32.6500 C   0  0  0  0  0  0  0  0  0  0  0  0
   -1.7990   19.7130  -31.5570 C   0  0  0  0  0  0  0  0  0  0  0  0
   -1.2350   23.8200  -29.3340 C   0  0  0  0  0  0  0  0  0  0  0  0
   -2.3230   24.6890  -28.6630 C   0  0  0  0  0  0  0  0  0  0  0  0
   -7.0270   19.9260  -32.6360 C   0  0  0  0  0  0  0  0  0  0  0  0
   -6.2260   18.8870  -33.4040 C   0  0  0  0  0  0  0  0  0  0  0  0
   -5.1760   18.4160  -32.6320 F   0  0  0  0  0  0  0  0  0  0  0  0
   -5.7010   19.4700  -34.5420 F   0  0  0  0  0  0  0  0  0  0  0  0
   -6.9810   17.7910  -33.7610 F   0  0  0  0  0  0  0  0  0  0  0  0
   -8.4260   19.9220  -32.8150 C   0  0  0  0  0  0  0  0  0  0  0  0
   -9.3484   22.3947  -30.6582 H   0  0  0  0  0  0  0  0  0  0  0  0
   -6.8988   22.4146  -30.2535 H   0  0  0  0  0  0  0  0  0  0  0  0
   -4.8748   21.0188  -30.2529 H   0  0  0  0  0  0  0  0  0  0  0  0
   -4.5145   19.9873  -31.7137 H   0  0  0  0  0  0  0  0  0  0  0  0
   -3.5290   22.3790  -31.3860 H   0  0  0  0  0  0  0  0  0  0  0  0
   -3.8500   21.7040  -32.8740 H   0  0  0  0  0  0  0  0  0  0  0  0
   -4.8417   23.6485  -33.2360 H   0  0  0  0  0  0  0  0  0  0  0  0
   -6.2055   22.7965  -32.3498 H   0  0  0  0  0  0  0  0  0  0  0  0
   -5.6059   25.2094  -31.6526 H   0  0  0  0  0  0  0  0  0  0  0  0
   -5.8059   23.8964  -30.3795 H   0  0  0  0  0  0  0  0  0  0  0  0
   -3.1460   24.1030  -31.1610 H   0  0  0  0  0  0  0  0  0  0  0  0
   -4.4652   24.9825  -28.6521 H   0  0  0  0  0  0  0  0  0  0  0  0
   -4.2334   22.7269  -27.8301 H   0  0  0  0  0  0  0  0  0  0  0  0
   -4.8382   22.5375  -29.5381 H   0  0  0  0  0  0  0  0  0  0  0  0
   -2.3027   21.6341  -28.3132 H   0  0  0  0  0  0  0  0  0  0  0  0
   -3.1545   21.0829  -29.8105 H   0  0  0  0  0  0  0  0  0  0  0  0
    0.1171   22.3741  -30.8848 H   0  0  0  0  0  0  0  0  0  0  0  0
   -0.4622   21.0837  -29.7755 H   0  0  0  0  0  0  0  0  0  0  0  0
   -0.7562   22.5203  -33.2167 H   0  0  0  0  0  0  0  0  0  0  0  0
   -1.5784   21.1885  -35.1605 H   0  0  0  0  0  0  0  0  0  0  0  0
   -2.5455   18.9155  -34.8002 H   0  0  0  0  0  0  0  0  0  0  0  0
   -2.6708   17.9621  -32.4934 H   0  0  0  0  0  0  0  0  0  0  0  0
   -1.8574   19.2909  -30.5429 H   0  0  0  0  0  0  0  0  0  0  0  0
   -0.5625   23.4304  -28.5556 H   0  0  0  0  0  0  0  0  0  0  0  0
   -0.6917   24.4525  -30.0515 H   0  0  0  0  0  0  0  0  0  0  0  0
   -2.2901   24.5220  -27.5762 H   0  0  0  0  0  0  0  0  0  0  0  0
   -2.1176   25.7407  -28.9115 H   0  0  0  0  0  0  0  0  0  0  0  0
   -8.8778   19.2075  -33.5188 H   0  0  0  0  0  0  0  0  0  0  0  0
  1  2  1  0
  2  3  2  0
  3  4  1  0
  4  5  2  0
  5  6  1  0
  6  7  1  0
  7  8  1  0
  8  9  1  0
  9 10  1  0
 10 11  1  0
 11 12  1  0
 12 13  1  0
 13 14  1  0
 14 15  1  0
 15 16  1  0
 16 17  2  0
 17 18  1  0
 18 19  2  0
 19 20  1  0
 20 21  2  0
 14 22  1  0
 22 23  1  0
  5 24  1  0
 24 25  1  0
 25 26  1  0
 25 27  1  0
 25 28  1  0
 24 29  2  0
 29  2  1  0
 23 11  1  0
 21 16  1  0
  3 30  1  0
  4 31  1  0
  6 32  1  0
  6 33  1  0
  7 34  1  0
  7 35  1  0
  8 36  1  0
  8 37  1  0
  9 38  1  0
  9 39  1  0
 10 40  1  0
 11 41  1  0
 12 42  1  0
 12 43  1  0
 13 44  1  0
 13 45  1  0
 15 46  1  0
 15 47  1  0
 17 48  1  0
 18 49  1  0
 19 50  1  0
 20 51  1  0
 21 52  1  0
 22 53  1  0
 22 54  1  0
 23 55  1  0
 23 56  1  0
 29 57  1  0
M  CHG  1   7   1
M  END
>  <UniqueID>  (31) 
30

>  <SMILES>  (31) 
Fc1ccc(C[NH2+]CCNC2CCN(Cc3ccccc3)CC2)c(C(F)(F)F)c1

>  <Energy>  (31) 
75.19852456940569

>  <Genealogy>  (31) 
Fc1ccc(C[NH2+]CCNC2CCN(Cc3ccccc3)CC2)c(C(F)(F)F)c1 (protonated)
Fc1ccc(C[NH2+]CCNC2CCN(Cc3ccccc3)CC2)c(C(F)(F)F)c1 (3D coordinates assigned)
Fc1ccc(C[NH2+]CCNC2CCN(Cc3ccccc3)CC2)c(C(F)(F)F)c1 (nonaromatic ring conformer: 75.19852456940569 kcal/mol)

>  <smiles>  (31) 
Fc1ccc(CNCCNC2CCN(Cc3ccccc3)CC2)c(C(F)(F)F)c1

>  <score_type>  (31) 
oracle

>  <origin>  (31) 
adg

>  <m_score__min__energy>  (31) 
-7.6399999999999997

>  <m_primary>  (31) 
energy

$$$$
31:0
     RDKit          3D

 31 31  0  0  0  0  0  0  0  0999 V2000
   -3.8810   22.3010  -31.8140 C   0  0  0  0  0  0  0  0  0  0  0  0
   -3.9860   23.4280  -30.7920 C   0  0  0  0  0  0  0  0  0  0  0  0
   -5.0080   24.4100  -31.2070 N   0  0  0  0  0  0  0  0  0  0  0  0
   -5.4030   25.3100  -30.1080 C   0  0  0  0  0  0  0  0  0  0  0  0
   -6.1670   23.8040  -31.9060 C   0  0  0  0  0  0  0  0  0  0  0  0
   -7.2750   23.2410  -30.9850 C   0  0  0  0  0  0  0  0  0  0  0  0
   -8.2440   22.3450  -31.7140 C   0  0  0  0  0  0  0  0  0  0  0  0
   -9.3920   22.7940  -31.9830 O   0  0  0  0  0  0  0  0  0  0  0  0
   -7.8910   20.9660  -32.1310 C   0  0  0  0  0  0  0  0  0  0  0  0
   -8.6110   19.8480  -31.6670 C   0  0  0  0  0  0  0  0  0  0  0  0
   -8.2560   18.5590  -32.0720 C   0  0  0  0  0  0  0  0  0  0  0  0
   -7.1840   18.3690  -32.9500 C   0  0  0  0  0  0  0  0  0  0  0  0
   -6.7400   16.7490  -33.4560 Cl  0  0  0  0  0  0  0  0  0  0  0  0
   -6.4720   19.4720  -33.4280 C   0  0  0  0  0  0  0  0  0  0  0  0
   -6.8260   20.7630  -33.0270 C   0  0  0  0  0  0  0  0  0  0  0  0
   -3.7913   21.3380  -31.2900 H   0  0  0  0  0  0  0  0  0  0  0  0
   -4.7823   22.2927  -32.4446 H   0  0  0  0  0  0  0  0  0  0  0  0
   -2.9937   22.4594  -32.4446 H   0  0  0  0  0  0  0  0  0  0  0  0
   -4.2652   23.0059  -29.8153 H   0  0  0  0  0  0  0  0  0  0  0  0
   -3.0128   23.9359  -30.7218 H   0  0  0  0  0  0  0  0  0  0  0  0
   -5.1906   24.8260  -29.1433 H   0  0  0  0  0  0  0  0  0  0  0  0
   -4.8341   26.2487  -30.1804 H   0  0  0  0  0  0  0  0  0  0  0  0
   -6.4790   25.5268  -30.1804 H   0  0  0  0  0  0  0  0  0  0  0  0
   -6.6180   24.5754  -32.5475 H   0  0  0  0  0  0  0  0  0  0  0  0
   -5.7693   22.9434  -32.4638 H   0  0  0  0  0  0  0  0  0  0  0  0
   -6.8008   22.6627  -30.1784 H   0  0  0  0  0  0  0  0  0  0  0  0
   -7.8458   24.0962  -30.5941 H   0  0  0  0  0  0  0  0  0  0  0  0
   -9.4588   19.9908  -30.9809 H   0  0  0  0  0  0  0  0  0  0  0  0
   -8.8208   17.6916  -31.6996 H   0  0  0  0  0  0  0  0  0  0  0  0
   -5.6310   19.3239  -34.1214 H   0  0  0  0  0  0  0  0  0  0  0  0
   -6.2673   21.6274  -33.4152 H   0  0  0  0  0  0  0  0  0  0  0  0
  1  2  1  0
  2  3  1  0
  3  4  1  0
  3  5  1  0
  5  6  1  0
  6  7  1  0
  7  8  2  0
  7  9  1  0
  9 10  2  0
 10 11  1  0
 11 12  2  0
 12 13  1  0
 12 14  1  0
 14 15  2  0
 15  9  1  0
  1 16  1  0
  1 17  1  0
  1 18  1  0
  2 19  1  0
  2 20  1  0
  4 21  1  0
  4 22  1  0
  4 23  1  0
  5 24  1  0
  5 25  1  0
  6 26  1  0
  6 27  1  0
 10 28  1  0
 11 29  1  0
 14 30  1  0
 15 31  1  0
M  END
>  <UniqueID>  (32) 
31

>  <SMILES>  (32) 
CCN(C)CCC(=O)c1ccc(Cl)cc1

>  <Energy>  (32) 
32.80114556365273

>  <Genealogy>  (32) 
CCN(C)CCC(=O)c1ccc(Cl)cc1 (3D coordinates assigned)
CCN(C)CCC(=O)c1ccc(Cl)cc1 (optimized conformer: 32.80114556365273 kcal/mol)

>  <smiles>  (32) 
CCN(C)CCC(=O)c1ccc(Cl)cc1

>  <score_type>  (32) 
oracle

>  <origin>  (32) 
adg

>  <m_score__min__energy>  (32) 
-6.6799999999999997

>  <m_primary>  (32) 
energy

$$$$
32:0
     RDKit          3D

 43 45  0  0  0  0  0  0  0  0999 V2000
    1.4500   25.2830  -28.2220 H   0  0  0  0  0  0  0  0  0  0  0  0
    0.8090   24.4600  -28.1710 N   0  0  0  0  0  0  0  0  0  0  0  0
   -0.4000   24.4960  -28.6370 C   0  0  0  0  0  0  0  0  0  0  0  0
   -1.0730   23.4180  -29.1640 C   0  0  0  0  0  0  0  0  0  0  0  0
   -0.7178   22.3834  -29.2804 H   0  0  0  0  0  0  0  0  0  0  0  0
   -2.3050   23.9470  -29.5130 C   0  0  0  0  0  0  0  0  0  0  0  0
   -3.4510   23.1770  -30.1140 C   0  0  2  0  0  0  0  0  0  0  0  0
   -4.0039   22.6848  -29.3004 H   0  0  0  0  0  0  0  0  0  0  0  0
   -2.9330   22.0940  -31.0420 C   0  0  0  0  0  0  0  0  0  0  0  0
   -3.0310   22.2210  -32.4430 C   0  0  0  0  0  0  0  0  0  0  0  0
   -3.5009   23.1153  -32.8782 H   0  0  0  0  0  0  0  0  0  0  0  0
   -2.5360   21.2200  -33.2830 C   0  0  0  0  0  0  0  0  0  0  0  0
   -2.6213   21.3267  -34.3745 H   0  0  0  0  0  0  0  0  0  0  0  0
   -1.9330   20.0840  -32.7380 C   0  0  0  0  0  0  0  0  0  0  0  0
   -1.5460   19.2958  -33.4006 H   0  0  0  0  0  0  0  0  0  0  0  0
   -1.8210   19.9480  -31.3530 C   0  0  0  0  0  0  0  0  0  0  0  0
   -1.3429   19.0541  -30.9260 H   0  0  0  0  0  0  0  0  0  0  0  0
   -2.3160   20.9470  -30.5070 C   0  0  0  0  0  0  0  0  0  0  0  0
   -2.2224   20.8353  -29.4167 H   0  0  0  0  0  0  0  0  0  0  0  0
   -4.4430   24.1150  -30.8230 C   0  0  0  0  0  0  0  0  0  0  0  0
   -4.5065   25.0636  -30.2697 H   0  0  0  0  0  0  0  0  0  0  0  0
   -4.0917   24.3040  -31.8481 H   0  0  0  0  0  0  0  0  0  0  0  0
   -5.7270   23.5140  -30.8740 O   0  0  0  0  0  0  0  0  0  0  0  0
   -6.0030   22.9750  -32.1540 C   0  0  0  0  0  0  0  0  0  0  0  0
   -6.2270   23.7966  -32.8503 H   0  0  0  0  0  0  0  0  0  0  0  0
   -5.1223   22.4116  -32.4960 H   0  0  0  0  0  0  0  0  0  0  0  0
   -7.1850   22.0370  -32.0990 C   0  0  0  0  0  0  0  0  0  0  0  0
   -8.3880   22.4700  -31.5150 C   0  0  0  0  0  0  0  0  0  0  0  0
   -8.4559   23.4826  -31.0906 H   0  0  0  0  0  0  0  0  0  0  0  0
   -9.4980   21.6230  -31.4700 C   0  0  0  0  0  0  0  0  0  0  0  0
  -10.4350   21.9697  -31.0097 H   0  0  0  0  0  0  0  0  0  0  0  0
   -9.4200   20.3380  -32.0080 C   0  0  0  0  0  0  0  0  0  0  0  0
  -10.2951   19.6726  -31.9702 H   0  0  0  0  0  0  0  0  0  0  0  0
   -8.2310   19.8950  -32.5950 C   0  0  0  0  0  0  0  0  0  0  0  0
   -8.1737   18.8817  -33.0192 H   0  0  0  0  0  0  0  0  0  0  0  0
   -7.1120   20.7370  -32.6450 C   0  0  0  0  0  0  0  0  0  0  0  0
   -5.6420   20.1310  -33.3980 Cl  0  0  0  0  0  0  0  0  0  0  0  0
   -2.3520   25.2630  -29.2050 N   0  0  0  0  0  0  0  0  0  0  0  0
   -1.1860   25.5900  -28.6740 N   0  0  0  0  0  0  0  0  0  0  0  0
   -0.8580   26.9330  -28.2050 C   0  0  0  0  0  0  0  0  0  0  0  0
   -0.8547   26.9466  -27.1051 H   0  0  0  0  0  0  0  0  0  0  0  0
    0.1364   27.2191  -28.5783 H   0  0  0  0  0  0  0  0  0  0  0  0
   -1.6086   27.6452  -28.5783 H   0  0  0  0  0  0  0  0  0  0  0  0
  1  2  1  0
  2  3  2  0
  3  4  1  0
  4  5  1  0
  4  6  2  0
  6  7  1  0
  7  8  1  1
  7  9  1  0
  9 10  2  0
 10 11  1  0
 10 12  1  0
 12 13  1  0
 12 14  2  0
 14 15  1  0
 14 16  1  0
 16 17  1  0
 16 18  2  0
 18 19  1  0
  7 20  1  0
 20 21  1  0
 20 22  1  0
 20 23  1  0
 23 24  1  0
 24 25  1  0
 24 26  1  0
 24 27  1  0
 27 28  2  0
 28 29  1  0
 28 30  1  0
 30 31  1  0
 30 32  2  0
 32 33  1  0
 32 34  1  0
 34 35  1  0
 34 36  2  0
 36 37  1  0
  6 38  1  0
 38 39  1  0
 39 40  1  0
 40 41  1  0
 40 42  1  0
 40 43  1  0
 39  3  1  0
 18  9  1  0
 36 27  1  0
M  CHG  1  38  -1
M  END
>  <UniqueID>  (33) 
32

>  <SMILES>  (33) 
[H]/N=c1/cc([C@@H](COCc2ccccc2Cl)c2ccccc2)[n-]n1C

>  <Energy>  (33) 
78.87750358054504

>  <Genealogy>  (33) 
Cn1[n-]c(C(COCc2ccccc2Cl)c2ccccc2)cc1=N (protonated)
Cn1[n-]c([C@@H](COCc2ccccc2Cl)c2ccccc2)cc1=N (chirality)
[H]/N=c1/cc([C@@H](COCc2ccccc2Cl)c2ccccc2)[n-]n1C (cis-trans isomerization)
[H]/N=c1/cc([C@@H](COCc2ccccc2Cl)c2ccccc2)[n-]n1C (3D coordinates assigned)
[H]/N=c1/cc([C@@H](COCc2ccccc2Cl)c2ccccc2)[n-]n1C (optimized conformer: 78.87750358054504 kcal/mol)

>  <smiles>  (33) 
Cn1[nH]c(C(COCc2ccccc2Cl)c2ccccc2)cc1=N

>  <score_type>  (33) 
oracle

>  <origin>  (33) 
adg

>  <m_score__min__energy>  (33) 
-9.3100000000000005

>  <m_primary>  (33) 
energy

$$$$
