0:0
     RDKit          3D

 40 42  0  0  0  0  0  0  0  0999 V2000
    1.3928   21.7197  -28.1357 H   0  0  0  0  0  0  0  0  0  0  0  0
    0.2980   21.6460  -28.0590 C   0  0  0  0  0  0  0  0  0  0  0  0
   -0.2650   20.6680  -27.3020 N   0  0  0  0  0  0  0  0  0  0  0  0
   -1.6140   20.5410  -27.1820 C   0  0  0  0  0  0  0  0  0  0  0  0
   -2.1880   19.4410  -26.3460 C   0  0  0  0  0  0  0  0  0  0  0  0
   -2.0606   19.6852  -25.2810 H   0  0  0  0  0  0  0  0  0  0  0  0
   -3.2590   19.3300  -26.5712 H   0  0  0  0  0  0  0  0  0  0  0  0
   -1.6665   18.4990  -26.5712 H   0  0  0  0  0  0  0  0  0  0  0  0
   -2.4590   21.4350  -27.8530 C   0  0  0  0  0  0  0  0  0  0  0  0
   -3.5509   21.3285  -27.7730 H   0  0  0  0  0  0  0  0  0  0  0  0
   -1.9070   22.4660  -28.6270 C   0  0  0  0  0  0  0  0  0  0  0  0
   -2.7970   23.4010  -29.3460 C   0  0  0  0  0  0  0  0  0  0  0  0
   -2.5530   24.7300  -29.4600 N   0  0  0  0  0  0  0  0  0  0  0  0
   -3.5310   25.2970  -30.1610 N   0  0  0  0  0  0  0  0  0  0  0  0
   -4.3960   24.3250  -30.4970 C   0  0  0  0  0  0  0  0  0  0  0  0
   -5.5530   24.4450  -31.2580 C   0  0  0  0  0  0  0  0  0  0  0  0
   -5.8914   25.4209  -31.6362 H   0  0  0  0  0  0  0  0  0  0  0  0
   -6.2750   23.2630  -31.5250 C   0  0  0  0  0  0  0  0  0  0  0  0
   -7.3680   23.3370  -32.2310 N   0  0  0  0  0  0  0  0  0  0  0  0
   -8.4890   22.4390  -32.1870 C   0  0  0  0  0  0  0  0  0  0  0  0
   -9.6720   22.8740  -32.2540 O   0  0  0  0  0  0  0  0  0  0  0  0
   -8.2480   21.0340  -32.0550 N   0  0  0  0  0  0  0  0  0  0  0  0
   -7.2640   20.7050  -31.9280 H   0  0  0  0  0  0  0  0  0  0  0  0
   -9.3250   20.0470  -32.0160 C   0  0  0  0  0  0  0  0  0  0  0  0
   -9.9085   20.1119  -32.9462 H   0  0  0  0  0  0  0  0  0  0  0  0
   -9.9672   20.2574  -31.1481 H   0  0  0  0  0  0  0  0  0  0  0  0
   -8.7560   18.6330  -31.8770 C   0  0  0  0  0  0  0  0  0  0  0  0
   -9.3715   17.9341  -32.4625 H   0  0  0  0  0  0  0  0  0  0  0  0
   -8.7671   18.3436  -30.8158 H   0  0  0  0  0  0  0  0  0  0  0  0
   -7.4240   18.5950  -32.3530 O   0  0  0  0  0  0  0  0  0  0  0  0
   -6.5980   17.8920  -31.4510 C   0  0  0  0  0  0  0  0  0  0  0  0
   -6.8883   18.1391  -30.4192 H   0  0  0  0  0  0  0  0  0  0  0  0
   -6.7129   16.8104  -31.6153 H   0  0  0  0  0  0  0  0  0  0  0  0
   -5.5487   18.1784  -31.6153 H   0  0  0  0  0  0  0  0  0  0  0  0
   -5.8140   22.0590  -31.0480 N   0  0  0  0  0  0  0  0  0  0  0  0
   -4.6740   21.9550  -30.3020 C   0  0  0  0  0  0  0  0  0  0  0  0
   -4.3210   20.9783  -29.9393 H   0  0  0  0  0  0  0  0  0  0  0  0
   -3.9730   23.1230  -30.0150 C   0  0  0  0  0  0  0  0  0  0  0  0
   -0.5120   22.5580  -28.7400 C   0  0  0  0  0  0  0  0  0  0  0  0
   -0.0582   23.3440  -29.3615 H   0  0  0  0  0  0  0  0  0  0  0  0
  1  2  1  0
  2  3  2  0
  3  4  1  0
  4  5  1  0
  5  6  1  0
  5  7  1  0
  5  8  1  0
  4  9  2  0
  9 10  1  0
  9 11  1  0
 11 12  1  0
 12 13  2  0
 13 14  1  0
 14 15  1  0
 15 16  2  0
 16 17  1  0
 16 18  1  0
 18 19  2  0
 19 20  1  0
 20 21  2  0
 20 22  1  0
 22 23  1  0
 22 24  1  0
 24 25  1  0
 24 26  1  0
 24 27  1  0
 27 28  1  0
 27 29  1  0
 27 30  1  0
 30 31  1  0
 31 32  1  0
 31 33  1  0
 31 34  1  0
 18 35  1  0
 35 36  1  0
 36 37  1  0
 36 38  2  0
 11 39  2  0
 39 40  1  0
 39  2  1  0
 38 12  1  0
 38 15  1  0
M  CHG  2  14  -1  35  -1
M  END
>  <UniqueID>  (1) 
1

>  <SMILES>  (1) 
COCCNC(=O)/N=c1/cc2[n-]nc(-c3ccnc(C)c3)c2c[n-]1

>  <Energy>  (1) 
85.59526719778525

>  <Genealogy>  (1) 
COCCNC(=O)N=c1cc2[n-]nc(-c3ccnc(C)c3)c2c[n-]1 (protonated)
COCCNC(=O)/N=c1/cc2[n-]nc(-c3ccnc(C)c3)c2c[n-]1 (cis-trans isomerization)
COCCNC(=O)/N=c1/cc2[n-]nc(-c3ccnc(C)c3)c2c[n-]1 (3D coordinates assigned)
COCCNC(=O)/N=c1/cc2[n-]nc(-c3ccnc(C)c3)c2c[n-]1 (optimized conformer: 85.59526719778525 kcal/mol)

>  <smiles>  (1) 
COCCNC(=O)N=c1cc2[nH]nc(-c3ccnc(C)c3)c2c[nH]1

>  <score_type>  (1) 
oracle

>  <origin>  (1) 
adg

>  <m_score__min__energy>  (1) 
-9.5299999999999994

>  <m_primary>  (1) 
energy

$$$$
1:0
     RDKit          3D

 49 52  0  0  0  0  0  0  0  0999 V2000
   -7.0900   25.1902  -30.7537 H   0  0  0  0  0  0  0  0  0  0  0  0
   -6.1410   24.6370  -30.8120 C   0  0  0  0  0  0  0  0  0  0  0  0
   -5.0120   25.1250  -30.2260 N   0  0  0  0  0  0  0  0  0  0  0  0
   -3.8190   24.4490  -30.2840 C   0  0  0  0  0  0  0  0  0  0  0  0
   -2.7500   24.9290  -29.7220 N   0  0  0  0  0  0  0  0  0  0  0  0
   -2.3360   24.6640  -28.3440 C   0  0  0  0  0  0  0  0  0  0  0  0
   -2.1702   25.6195  -27.8249 H   0  0  0  0  0  0  0  0  0  0  0  0
   -3.1267   24.0916  -27.8370 H   0  0  0  0  0  0  0  0  0  0  0  0
   -1.0300   23.8410  -28.3250 C   0  0  0  0  0  0  0  0  0  0  0  0
   -0.3829   24.2050  -29.1366 H   0  0  0  0  0  0  0  0  0  0  0  0
   -0.5882   23.9791  -27.3271 H   0  0  0  0  0  0  0  0  0  0  0  0
   -1.2190   22.3840  -28.5030 N   0  0  0  0  0  0  0  0  0  0  0  0
   -2.4410   21.8640  -27.8600 C   0  0  0  0  0  0  0  0  0  0  0  0
   -2.3372   21.9450  -26.7679 H   0  0  0  0  0  0  0  0  0  0  0  0
   -3.3021   22.4548  -28.2056 H   0  0  0  0  0  0  0  0  0  0  0  0
   -2.6680   20.3870  -28.2390 C   0  0  0  0  0  0  0  0  0  0  0  0
   -3.0242   19.8378  -27.3550 H   0  0  0  0  0  0  0  0  0  0  0  0
   -3.4157   20.3390  -29.0444 H   0  0  0  0  0  0  0  0  0  0  0  0
   -1.4660   19.7990  -28.6980 O   0  0  0  0  0  0  0  0  0  0  0  0
   -1.0800   20.3830  -29.9320 C   0  0  0  0  0  0  0  0  0  0  0  0
   -0.0585   20.0534  -30.1726 H   0  0  0  0  0  0  0  0  0  0  0  0
   -1.8038   20.0571  -30.6935 H   0  0  0  0  0  0  0  0  0  0  0  0
   -1.1050   21.9270  -29.8970 C   0  0  0  0  0  0  0  0  0  0  0  0
   -0.1759   22.3189  -30.3366 H   0  0  0  0  0  0  0  0  0  0  0  0
   -1.9666   22.2930  -30.4746 H   0  0  0  0  0  0  0  0  0  0  0  0
   -3.7440   23.2580  -30.9470 N   0  0  0  0  0  0  0  0  0  0  0  0
   -4.8630   22.7660  -31.5330 C   0  0  0  0  0  0  0  0  0  0  0  0
   -6.0650   23.4240  -31.4850 C   0  0  0  0  0  0  0  0  0  0  0  0
   -7.1350   22.6640  -32.2100 C   0  0  0  0  0  0  0  0  0  0  0  0
   -7.9540   22.3716  -31.5364 H   0  0  0  0  0  0  0  0  0  0  0  0
   -7.6379   23.2269  -33.0102 H   0  0  0  0  0  0  0  0  0  0  0  0
   -6.3460   21.4700  -32.6790 C   0  0  0  0  0  0  0  0  0  0  0  0
   -6.8020   20.3850  -33.4240 C   0  0  0  0  0  0  0  0  0  0  0  0
   -7.8531   20.3292  -33.7433 H   0  0  0  0  0  0  0  0  0  0  0  0
   -5.8920   19.3550  -33.7640 C   0  0  0  0  0  0  0  0  0  0  0  0
   -6.2870   18.2360  -34.5130 O   0  0  0  0  0  0  0  0  0  0  0  0
   -6.3870   16.9140  -33.9930 C   0  0  0  0  0  0  0  0  0  0  0  0
   -6.3842   16.9512  -32.8936 H   0  0  0  0  0  0  0  0  0  0  0  0
   -7.3226   16.4526  -34.3419 H   0  0  0  0  0  0  0  0  0  0  0  0
   -5.5314   16.3171  -34.3419 H   0  0  0  0  0  0  0  0  0  0  0  0
   -4.5400   19.4400  -33.3490 C   0  0  0  0  0  0  0  0  0  0  0  0
   -3.6690   18.3980  -33.7060 O   0  0  0  0  0  0  0  0  0  0  0  0
   -2.2570   18.5340  -33.8190 C   0  0  0  0  0  0  0  0  0  0  0  0
   -1.8112   18.5769  -32.8143 H   0  0  0  0  0  0  0  0  0  0  0  0
   -1.8481   17.6711  -34.3650 H   0  0  0  0  0  0  0  0  0  0  0  0
   -2.0203   19.4591  -34.3650 H   0  0  0  0  0  0  0  0  0  0  0  0
   -4.1030   20.5520  -32.5930 C   0  0  0  0  0  0  0  0  0  0  0  0
   -3.0570   20.6320  -32.2620 H   0  0  0  0  0  0  0  0  0  0  0  0
   -5.0270   21.5420  -32.2780 C   0  0  0  0  0  0  0  0  0  0  0  0
  1  2  1  0
  2  3  1  0
  3  4  1  0
  4  5  2  0
  5  6  1  0
  6  7  1  0
  6  8  1  0
  6  9  1  0
  9 10  1  0
  9 11  1  0
  9 12  1  0
 12 13  1  0
 13 14  1  0
 13 15  1  0
 13 16  1  0
 16 17  1  0
 16 18  1  0
 16 19  1  0
 19 20  1  0
 20 21  1  0
 20 22  1  0
 20 23  1  0
 23 24  1  0
 23 25  1  0
  4 26  1  0
 26 27  2  0
 27 28  1  0
 28 29  1  0
 29 30  1  0
 29 31  1  0
 29 32  1  0
 32 33  2  0
 33 34  1  0
 33 35  1  0
 35 36  1  0
 36 37  1  0
 37 38  1  0
 37 39  1  0
 37 40  1  0
 35 41  2  0
 41 42  1  0
 42 43  1  0
 43 44  1  0
 43 45  1  0
 43 46  1  0
 41 47  1  0
 47 48  1  0
 47 49  2  0
 28  2  2  0
 49 32  1  0
 23 12  1  0
 49 27  1  0
M  CHG  1   3  -1
M  END
>  <UniqueID>  (2) 
2

>  <SMILES>  (2) 
COc1cc2c(cc1OC)-c1n/c(=N/CCN3CCOCC3)[n-]cc1C2

>  <Energy>  (2) 
86.93283083876801

>  <Genealogy>  (2) 
COc1cc2c(cc1OC)-c1nc(=NCCN3CCOCC3)[n-]cc1C2 (protonated)
COc1cc2c(cc1OC)-c1n/c(=N/CCN3CCOCC3)[n-]cc1C2 (cis-trans isomerization)
COc1cc2c(cc1OC)-c1n/c(=N/CCN3CCOCC3)[n-]cc1C2 (3D coordinates assigned)
COc1cc2c(cc1OC)-c1n/c(=N/CCN3CCOCC3)[n-]cc1C2 (nonaromatic ring conformer: 86.93283083876801 kcal/mol)

>  <smiles>  (2) 
COc1cc2c(cc1OC)-c1nc(=NCCN3CCOCC3)[nH]cc1C2

>  <score_type>  (2) 
oracle

>  <origin>  (2) 
adg

>  <m_score__min__energy>  (2) 
-8.4299999999999997

>  <m_primary>  (2) 
energy

$$$$
2:0
     RDKit          3D

 55 57  0  0  0  0  0  0  0  0999 V2000
   -5.1300   24.1502  -26.8020 H   0  0  0  0  0  0  0  0  0  0  0  0
   -4.2700   24.3660  -27.4530 C   0  0  0  0  0  0  0  0  0  0  0  0
   -4.5100   24.5360  -28.7620 C   0  0  0  0  0  0  0  0  0  0  0  0
   -6.1690   24.8940  -29.3220 S   0  0  0  0  0  0  0  0  0  0  0  0
   -6.2060   23.4770  -30.4330 C   0  0  0  0  0  0  0  0  0  0  0  0
   -7.3750   22.7190  -30.5370 C   0  0  0  0  0  0  0  0  0  0  0  0
   -8.2193   22.9186  -29.8607 H   0  0  0  0  0  0  0  0  0  0  0  0
   -7.4760   21.7080  -31.4970 C   0  0  0  0  0  0  0  0  0  0  0  0
   -8.4019   21.1192  -31.5744 H   0  0  0  0  0  0  0  0  0  0  0  0
   -6.4020   21.4380  -32.3650 C   0  0  0  0  0  0  0  0  0  0  0  0
   -6.5000   20.3790  -33.3990 C   0  0  0  0  0  0  0  0  0  0  0  0
   -7.6240   20.1190  -33.9110 O   0  0  0  0  0  0  0  0  0  0  0  0
   -5.3380   19.6590  -33.8400 N   0  0  0  0  0  0  0  0  0  0  0  0
   -4.3890   19.9880  -33.5500 H   0  0  0  0  0  0  0  0  0  0  0  0
   -5.4550   18.5110  -34.7390 C   0  0  0  0  0  0  0  0  0  0  0  0
   -4.4793   18.0081  -34.8098 H   0  0  0  0  0  0  0  0  0  0  0  0
   -5.7746   18.8704  -35.7283 H   0  0  0  0  0  0  0  0  0  0  0  0
   -6.4970   17.5140  -34.2200 C   0  0  0  0  0  0  0  0  0  0  0  0
   -7.2763   17.3771  -34.9841 H   0  0  0  0  0  0  0  0  0  0  0  0
   -6.9340   17.9131  -33.2928 H   0  0  0  0  0  0  0  0  0  0  0  0
   -5.8470   16.1490  -33.9110 C   0  0  0  0  0  0  0  0  0  0  0  0
   -4.9267   16.0614  -34.5071 H   0  0  0  0  0  0  0  0  0  0  0  0
   -6.5904   15.3784  -34.1632 H   0  0  0  0  0  0  0  0  0  0  0  0
   -5.4970   15.9560  -32.4810 N   0  0  0  0  0  0  0  0  0  0  0  0
   -5.4510   17.2100  -31.6910 C   0  0  0  0  0  0  0  0  0  0  0  0
   -5.0431   18.0131  -32.3224 H   0  0  0  0  0  0  0  0  0  0  0  0
   -4.8147   17.0348  -30.8110 H   0  0  0  0  0  0  0  0  0  0  0  0
   -6.8360   17.6250  -31.1980 C   0  0  0  0  0  0  0  0  0  0  0  0
   -6.8478   17.6285  -30.0981 H   0  0  0  0  0  0  0  0  0  0  0  0
   -7.0710   18.6330  -31.5705 H   0  0  0  0  0  0  0  0  0  0  0  0
   -7.5866   16.9123  -31.5705 H   0  0  0  0  0  0  0  0  0  0  0  0
   -4.2590   15.1590  -32.3110 C   0  0  0  0  0  0  0  0  0  0  0  0
   -3.7876   15.0067  -33.2931 H   0  0  0  0  0  0  0  0  0  0  0  0
   -3.5727   15.7013  -31.6440 H   0  0  0  0  0  0  0  0  0  0  0  0
   -4.5840   13.8030  -31.6930 C   0  0  0  0  0  0  0  0  0  0  0  0
   -4.5642   13.8857  -30.5963 H   0  0  0  0  0  0  0  0  0  0  0  0
   -5.5845   13.4820  -32.0185 H   0  0  0  0  0  0  0  0  0  0  0  0
   -3.8377   13.0634  -32.0185 H   0  0  0  0  0  0  0  0  0  0  0  0
   -5.2230   22.1960  -32.2470 C   0  0  0  0  0  0  0  0  0  0  0  0
   -4.3811   22.0025  -32.9280 H   0  0  0  0  0  0  0  0  0  0  0  0
   -5.1100   23.1940  -31.2720 C   0  0  0  0  0  0  0  0  0  0  0  0
   -3.8390   23.8300  -31.0670 N   0  0  0  0  0  0  0  0  0  0  0  0
   -3.4930   24.4480  -29.8230 C   0  0  0  0  0  0  0  0  0  0  0  0
   -2.3350   24.9140  -29.6560 O   0  0  0  0  0  0  0  0  0  0  0  0
   -2.9350   24.4470  -26.8190 C   0  0  0  0  0  0  0  0  0  0  0  0
   -1.9850   23.4530  -27.0990 C   0  0  0  0  0  0  0  0  0  0  0  0
   -2.2491   22.6134  -27.7588 H   0  0  0  0  0  0  0  0  0  0  0  0
   -0.7040   23.5250  -26.5430 C   0  0  0  0  0  0  0  0  0  0  0  0
    0.0314   22.7348  -26.7545 H   0  0  0  0  0  0  0  0  0  0  0  0
   -0.3560   24.5990  -25.7190 C   0  0  0  0  0  0  0  0  0  0  0  0
    0.6492   24.6488  -25.2751 H   0  0  0  0  0  0  0  0  0  0  0  0
   -1.2870   25.6110  -25.4590 C   0  0  0  0  0  0  0  0  0  0  0  0
   -0.8420   26.9720  -24.4460 Cl  0  0  0  0  0  0  0  0  0  0  0  0
   -2.5690   25.5410  -26.0150 C   0  0  0  0  0  0  0  0  0  0  0  0
   -3.2940   26.3455  -25.8223 H   0  0  0  0  0  0  0  0  0  0  0  0
  1  2  1  0
  2  3  2  0
  3  4  1  0
  4  5  1  0
  5  6  2  0
  6  7  1  0
  6  8  1  0
  8  9  1  0
  8 10  2  0
 10 11  1  0
 11 12  2  0
 11 13  1  0
 13 14  1  0
 13 15  1  0
 15 16  1  0
 15 17  1  0
 15 18  1  0
 18 19  1  0
 18 20  1  0
 18 21  1  0
 21 22  1  0
 21 23  1  0
 21 24  1  0
 24 25  1  0
 25 26  1  0
 25 27  1  0
 25 28  1  0
 28 29  1  0
 28 30  1  0
 28 31  1  0
 24 32  1  0
 32 33  1  0
 32 34  1  0
 32 35  1  0
 35 36  1  0
 35 37  1  0
 35 38  1  0
 10 39  1  0
 39 40  1  0
 39 41  2  0
 41 42  1  0
 42 43  1  0
 43 44  2  0
  2 45  1  0
 45 46  2  0
 46 47  1  0
 46 48  1  0
 48 49  1  0
 48 50  2  0
 50 51  1  0
 50 52  1  0
 52 53  1  0
 52 54  2  0
 54 55  1  0
 43  3  1  0
 54 45  1  0
 41  5  1  0
M  CHG  1  42  -1
M  END
>  <UniqueID>  (3) 
3

>  <SMILES>  (3) 
CCN(CC)CCCNC(=O)c1ccc2c(c1)[N-]C(=O)/C(=C\c1cccc(Cl)c1)S2

>  <Energy>  (3) 
72.33576461707123

>  <Genealogy>  (3) 
CCN(CC)CCCNC(=O)c1ccc2c(c1)[N-]C(=O)C(=Cc1cccc(Cl)c1)S2 (protonated)
CCN(CC)CCCNC(=O)c1ccc2c(c1)[N-]C(=O)/C(=C\c1cccc(Cl)c1)S2 (cis-trans isomerization)
CCN(CC)CCCNC(=O)c1ccc2c(c1)[N-]C(=O)/C(=C\c1cccc(Cl)c1)S2 (3D coordinates assigned)
CCN(CC)CCCNC(=O)c1ccc2c(c1)[N-]C(=O)/C(=C\c1cccc(Cl)c1)S2 (nonaromatic ring conformer: 72.33576461707123 kcal/mol)

>  <smiles>  (3) 
CCN(CC)CCCNC(=O)c1ccc2c(c1)NC(=O)C(=Cc1cccc(Cl)c1)S2

>  <score_type>  (3) 
oracle

>  <origin>  (3) 
adg

>  <m_score__min__energy>  (3) 
-11.449999999999999

>  <m_primary>  (3) 
energy

$$$$
3:0
     RDKit          3D

 41 43  0  0  0  0  0  0  0  0999 V2000
    2.2430   14.1410  -26.3530 C   0  0  0  0  0  0  0  0  0  0  0  0
    3.5800   15.3300  -26.6820 S   0  0  0  0  0  0  0  0  0  0  0  0
    2.4580   16.6320  -27.1960 C   0  0  0  0  0  0  0  0  0  0  0  0
    1.0850   16.3840  -27.2750 C   0  0  0  0  0  0  0  0  0  0  0  0
    0.2090   17.3990  -27.6720 C   0  0  0  0  0  0  0  0  0  0  0  0
    0.6980   18.6780  -27.9940 C   0  0  0  0  0  0  0  0  0  0  0  0
   -0.2300   19.7570  -28.4160 C   0  0  0  0  0  0  0  0  0  0  0  0
   -0.2380   20.2120  -29.7480 C   0  0  0  0  0  0  0  0  0  0  0  0
   -1.1130   21.2280  -30.1450 C   0  0  0  0  0  0  0  0  0  0  0  0
   -1.9900   21.8100  -29.2200 C   0  0  0  0  0  0  0  0  0  0  0  0
   -2.9160   22.8840  -29.6450 C   0  0  0  0  0  0  0  0  0  0  0  0
   -2.6060   24.2470  -29.4350 C   0  0  0  0  0  0  0  0  0  0  0  0
   -1.3240   24.6810  -28.7870 C   0  0  0  0  0  0  0  0  0  0  0  0
   -3.4900   25.2030  -29.8250 N   0  0  0  0  0  0  0  0  0  0  0  0
   -4.6710   24.9120  -30.4310 C   0  0  0  0  0  0  0  0  0  0  0  0
   -5.5810   26.0340  -30.8290 C   0  0  0  0  0  0  0  0  0  0  0  0
   -5.0130   23.5710  -30.6770 C   0  0  0  0  0  0  0  0  0  0  0  0
   -6.5330   23.1510  -31.4680 Cl  0  0  0  0  0  0  0  0  0  0  0  0
   -4.1300   22.5570  -30.2790 C   0  0  0  0  0  0  0  0  0  0  0  0
   -4.4340   21.3500  -30.4830 O   0  0  0  0  0  0  0  0  0  0  0  0
   -1.9920   21.3550  -27.8930 C   0  0  0  0  0  0  0  0  0  0  0  0
   -1.1190   20.3400  -27.4940 C   0  0  0  0  0  0  0  0  0  0  0  0
    2.0820   18.9190  -27.9070 C   0  0  0  0  0  0  0  0  0  0  0  0
    2.9550   17.9020  -27.5080 C   0  0  0  0  0  0  0  0  0  0  0  0
    2.1137   14.0260  -25.2667 H   0  0  0  0  0  0  0  0  0  0  0  0
    1.3066   14.5102  -26.7967 H   0  0  0  0  0  0  0  0  0  0  0  0
    2.5003   13.1679  -26.7967 H   0  0  0  0  0  0  0  0  0  0  0  0
    0.6923   15.3876  -27.0242 H   0  0  0  0  0  0  0  0  0  0  0  0
   -0.8704   17.1958  -27.7330 H   0  0  0  0  0  0  0  0  0  0  0  0
    0.4489   19.7652  -30.4818 H   0  0  0  0  0  0  0  0  0  0  0  0
   -1.1128   21.5724  -31.1897 H   0  0  0  0  0  0  0  0  0  0  0  0
   -1.4349   24.6434  -27.6933 H   0  0  0  0  0  0  0  0  0  0  0  0
   -0.5106   24.0081  -29.0964 H   0  0  0  0  0  0  0  0  0  0  0  0
   -1.0866   25.7096  -29.0964 H   0  0  0  0  0  0  0  0  0  0  0  0
   -5.9772   26.5225  -29.9265 H   0  0  0  0  0  0  0  0  0  0  0  0
   -5.0194   26.7673  -31.4263 H   0  0  0  0  0  0  0  0  0  0  0  0
   -6.4145   25.6358  -31.4263 H   0  0  0  0  0  0  0  0  0  0  0  0
   -2.6844   21.7996  -27.1630 H   0  0  0  0  0  0  0  0  0  0  0  0
   -1.1266   19.9935  -26.4500 H   0  0  0  0  0  0  0  0  0  0  0  0
    2.4797   19.9143  -28.1546 H   0  0  0  0  0  0  0  0  0  0  0  0
    4.0347   18.1010  -27.4393 H   0  0  0  0  0  0  0  0  0  0  0  0
  1  2  1  0
  2  3  1  0
  3  4  2  0
  4  5  1  0
  5  6  2  0
  6  7  1  0
  7  8  2  0
  8  9  1  0
  9 10  2  0
 10 11  1  0
 11 12  2  0
 12 13  1  0
 12 14  1  0
 14 15  1  0
 15 16  1  0
 15 17  2  0
 17 18  1  0
 17 19  1  0
 19 20  2  0
 10 21  1  0
 21 22  2  0
  6 23  1  0
 23 24  2  0
 24  3  1  0
 22  7  1  0
 19 11  1  0
  1 25  1  0
  1 26  1  0
  1 27  1  0
  4 28  1  0
  5 29  1  0
  8 30  1  0
  9 31  1  0
 13 32  1  0
 13 33  1  0
 13 34  1  0
 16 35  1  0
 16 36  1  0
 16 37  1  0
 21 38  1  0
 22 39  1  0
 23 40  1  0
 24 41  1  0
M  CHG  1  14  -1
M  END
>  <UniqueID>  (4) 
4

>  <SMILES>  (4) 
CSc1ccc(-c2ccc(-c3c(C)[n-]c(C)c(Cl)c3=O)cc2)cc1

>  <Energy>  (4) 
53.39870977083967

>  <Genealogy>  (4) 
CSc1ccc(-c2ccc(-c3c(C)[n-]c(C)c(Cl)c3=O)cc2)cc1 (protonated)
CSc1ccc(-c2ccc(-c3c(C)[n-]c(C)c(Cl)c3=O)cc2)cc1 (3D coordinates assigned)
CSc1ccc(-c2ccc(-c3c(C)[n-]c(C)c(Cl)c3=O)cc2)cc1 (optimized conformer: 53.39870977083967 kcal/mol)

>  <smiles>  (4) 
CSc1ccc(-c2ccc(-c3c(C)[nH]c(C)c(Cl)c3=O)cc2)cc1

>  <score_type>  (4) 
oracle

>  <origin>  (4) 
adg

>  <m_score__min__energy>  (4) 
-8.3000000000000007

>  <m_primary>  (4) 
energy

$$$$
4:0
     RDKit          3D

 57 60  0  0  0  0  0  0  0  0999 V2000
   -0.3590   20.9120  -29.5650 C   0  0  0  0  0  0  0  0  0  0  0  0
   -0.1750   20.3250  -30.8490 O   0  0  0  0  0  0  0  0  0  0  0  0
   -1.1620   20.2760  -31.8450 C   0  0  0  0  0  0  0  0  0  0  0  0
   -1.6790   21.4370  -32.4550 C   0  0  0  0  0  0  0  0  0  0  0  0
   -2.6570   21.3340  -33.4450 C   0  0  0  0  0  0  0  0  0  0  0  0
   -3.1350   20.0800  -33.8340 C   0  0  0  0  0  0  0  0  0  0  0  0
   -2.6420   18.9160  -33.2260 C   0  0  0  0  0  0  0  0  0  0  0  0
   -3.1300   17.5620  -33.6690 C   0  0  0  0  0  0  0  0  0  0  0  0
   -4.3430   17.1300  -32.8200 C   0  0  0  0  0  0  0  0  0  0  0  0
   -5.4150   18.1450  -32.7200 N   0  0  0  0  0  0  0  0  0  0  0  0
   -6.5130   17.7590  -31.8150 C   0  0  0  0  0  0  0  0  0  0  0  0
   -7.4490   18.9550  -31.6160 C   0  0  0  0  0  0  0  0  0  0  0  0
   -7.9820   19.4120  -32.9170 N   0  0  0  0  0  0  0  0  0  0  0  0
   -8.9010   20.5550  -32.7160 C   0  0  0  0  0  0  0  0  0  0  0  0
   -8.3250   21.5480  -31.6880 C   0  0  0  0  0  0  0  0  0  0  0  0
   -7.4730   22.5720  -32.3180 N   0  0  0  0  0  0  0  0  0  0  0  0
   -6.2100   22.7080  -31.6300 C   0  0  0  0  0  0  0  0  0  0  0  0
   -5.5090   21.5540  -31.1890 C   0  0  0  0  0  0  0  0  0  0  0  0
   -4.2910   21.6740  -30.4950 C   0  0  0  0  0  0  0  0  0  0  0  0
   -3.8030   22.9560  -30.2590 C   0  0  0  0  0  0  0  0  0  0  0  0
   -2.6750   23.2990  -29.6210 N   0  0  0  0  0  0  0  0  0  0  0  0
   -2.7140   24.6540  -29.6870 C   0  0  0  0  0  0  0  0  0  0  0  0
   -1.8120   25.3780  -29.1910 O   0  0  0  0  0  0  0  0  0  0  0  0
   -3.7940   25.1740  -30.3240 N   0  0  0  0  0  0  0  0  0  0  0  0
   -4.4680   24.0680  -30.6770 C   0  0  0  0  0  0  0  0  0  0  0  0
   -5.6760   23.9920  -31.3650 C   0  0  0  0  0  0  0  0  0  0  0  0
   -6.8690   19.7790  -33.8200 C   0  0  0  0  0  0  0  0  0  0  0  0
   -5.9370   18.5810  -34.0250 C   0  0  0  0  0  0  0  0  0  0  0  0
   -1.6440   19.0220  -32.2420 C   0  0  0  0  0  0  0  0  0  0  0  0
   -0.1266   20.1707  -28.7862 H   0  0  0  0  0  0  0  0  0  0  0  0
    0.3108   21.7781  -29.4584 H   0  0  0  0  0  0  0  0  0  0  0  0
   -1.4033   21.2408  -29.4584 H   0  0  0  0  0  0  0  0  0  0  0  0
   -1.3103   22.4273  -32.1496 H   0  0  0  0  0  0  0  0  0  0  0  0
   -3.0530   22.2432  -33.9208 H   0  0  0  0  0  0  0  0  0  0  0  0
   -3.9009   20.0053  -34.6201 H   0  0  0  0  0  0  0  0  0  0  0  0
   -3.4259   17.6106  -34.7273 H   0  0  0  0  0  0  0  0  0  0  0  0
   -2.3209   16.8282  -33.5390 H   0  0  0  0  0  0  0  0  0  0  0  0
   -4.7708   16.2217  -33.2694 H   0  0  0  0  0  0  0  0  0  0  0  0
   -3.9683   16.9692  -31.7984 H   0  0  0  0  0  0  0  0  0  0  0  0
   -7.0748   16.9219  -32.2550 H   0  0  0  0  0  0  0  0  0  0  0  0
   -6.0988   17.4496  -30.8441 H   0  0  0  0  0  0  0  0  0  0  0  0
   -8.2849   18.6573  -30.9659 H   0  0  0  0  0  0  0  0  0  0  0  0
   -6.8848   19.7774  -31.1519 H   0  0  0  0  0  0  0  0  0  0  0  0
   -9.0466   21.0733  -33.6752 H   0  0  0  0  0  0  0  0  0  0  0  0
   -9.8603   20.1729  -32.3369 H   0  0  0  0  0  0  0  0  0  0  0  0
   -9.1587   22.0486  -31.1738 H   0  0  0  0  0  0  0  0  0  0  0  0
   -7.7021   20.9790  -30.9821 H   0  0  0  0  0  0  0  0  0  0  0  0
   -7.2870   22.2880  -33.3080 H   0  0  0  0  0  0  0  0  0  0  0  0
   -7.9790   23.4890  -32.3510 H   0  0  0  0  0  0  0  0  0  0  0  0
   -5.9230   20.5554  -31.3923 H   0  0  0  0  0  0  0  0  0  0  0  0
   -3.7429   20.7847  -30.1505 H   0  0  0  0  0  0  0  0  0  0  0  0
   -6.1997   24.9021  -31.6928 H   0  0  0  0  0  0  0  0  0  0  0  0
   -7.2779   20.0918  -34.7921 H   0  0  0  0  0  0  0  0  0  0  0  0
   -6.2985   20.6045  -33.3693 H   0  0  0  0  0  0  0  0  0  0  0  0
   -6.4953   17.7563  -34.4921 H   0  0  0  0  0  0  0  0  0  0  0  0
   -5.1014   18.8706  -34.6792 H   0  0  0  0  0  0  0  0  0  0  0  0
   -1.2372   18.1109  -31.7789 H   0  0  0  0  0  0  0  0  0  0  0  0
  1  2  1  0
  2  3  1  0
  3  4  2  0
  4  5  1  0
  5  6  2  0
  6  7  1  0
  7  8  1  0
  8  9  1  0
  9 10  1  0
 10 11  1  0
 11 12  1  0
 12 13  1  0
 13 14  1  0
 14 15  1  0
 15 16  1  0
 16 17  1  0
 17 18  2  0
 18 19  1  0
 19 20  2  0
 20 21  1  0
 21 22  1  0
 22 23  2  0
 22 24  1  0
 24 25  1  0
 25 26  2  0
 13 27  1  0
 27 28  1  0
  7 29  2  0
 29  3  1  0
 28 10  1  0
 26 17  1  0
 25 20  1  0
  1 30  1  0
  1 31  1  0
  1 32  1  0
  4 33  1  0
  5 34  1  0
  6 35  1  0
  8 36  1  0
  8 37  1  0
  9 38  1  0
  9 39  1  0
 11 40  1  0
 11 41  1  0
 12 42  1  0
 12 43  1  0
 14 44  1  0
 14 45  1  0
 15 46  1  0
 15 47  1  0
 16 48  1  0
 16 49  1  0
 18 50  1  0
 19 51  1  0
 26 52  1  0
 27 53  1  0
 27 54  1  0
 28 55  1  0
 28 56  1  0
 29 57  1  0
M  CHG  3  16   1  21  -1  24  -1
M  END
>  <UniqueID>  (5) 
5

>  <SMILES>  (5) 
COc1cccc(CCN2CCN(CC[NH2+]c3ccc4[n-]c(=O)[n-]c4c3)CC2)c1

>  <Energy>  (5) 
97.03446052671714

>  <Genealogy>  (5) 
COc1cccc(CCN2CCN(CC[NH2+]c3ccc4[n-]c(=O)[n-]c4c3)CC2)c1 (protonated)
COc1cccc(CCN2CCN(CC[NH2+]c3ccc4[n-]c(=O)[n-]c4c3)CC2)c1 (3D coordinates assigned)
COc1cccc(CCN2CCN(CC[NH2+]c3ccc4[n-]c(=O)[n-]c4c3)CC2)c1 (nonaromatic ring conformer: 97.03446052671714 kcal/mol)

>  <smiles>  (5) 
COc1cccc(CCN2CCN(CCNc3ccc4[nH]c(=O)[nH]c4c3)CC2)c1

>  <score_type>  (5) 
oracle

>  <origin>  (5) 
adg

>  <m_score__min__energy>  (5) 
-10.279999999999999

>  <m_primary>  (5) 
energy

$$$$
5:0
     RDKit          3D

 52 55  0  0  0  0  0  0  0  0999 V2000
    0.1040   26.4370  -23.7320 C   0  0  0  0  0  0  0  0  0  0  0  0
   -0.8560   27.5500  -24.1470 C   0  0  0  0  0  0  0  0  0  0  0  0
   -0.9090   27.6840  -25.6100 N   0  0  0  0  0  0  0  0  0  0  0  0
   -0.4870   28.9530  -26.2270 C   0  0  0  0  0  0  0  0  0  0  0  0
   -0.9300   30.1430  -25.3800 C   0  0  0  0  0  0  0  0  0  0  0  0
   -1.3670   26.5810  -26.4270 C   0  0  0  0  0  0  0  0  0  0  0  0
   -2.3700   25.7130  -25.9560 C   0  0  0  0  0  0  0  0  0  0  0  0
   -2.8220   24.6530  -26.7470 C   0  0  0  0  0  0  0  0  0  0  0  0
   -2.2780   24.4350  -28.0220 C   0  0  0  0  0  0  0  0  0  0  0  0
   -2.7530   23.3460  -28.8390 N   0  0  0  0  0  0  0  0  0  0  0  0
   -2.5180   22.0640  -28.4310 C   0  0  0  0  0  0  0  0  0  0  0  0
   -2.9560   21.0090  -29.1650 N   0  0  0  0  0  0  0  0  0  0  0  0
   -3.6420   21.1960  -30.3240 C   0  0  0  0  0  0  0  0  0  0  0  0
   -4.0910   20.0970  -31.0710 C   0  0  0  0  0  0  0  0  0  0  0  0
   -4.8020   20.2900  -32.2660 C   0  0  0  0  0  0  0  0  0  0  0  0
   -5.2630   19.1290  -33.0610 C   0  0  0  0  0  0  0  0  0  0  0  0
   -4.4390   18.6300  -34.0840 C   0  0  0  0  0  0  0  0  0  0  0  0
   -4.8400   17.5280  -34.8430 C   0  0  0  0  0  0  0  0  0  0  0  0
   -6.0690   16.9150  -34.5940 C   0  0  0  0  0  0  0  0  0  0  0  0
   -6.9040   17.4090  -33.5870 C   0  0  0  0  0  0  0  0  0  0  0  0
   -6.5120   18.5130  -32.8210 C   0  0  0  0  0  0  0  0  0  0  0  0
   -7.6390   19.1310  -31.6160 Cl  0  0  0  0  0  0  0  0  0  0  0  0
   -5.0410   21.5950  -32.7220 C   0  0  0  0  0  0  0  0  0  0  0  0
   -4.5960   22.6950  -31.9850 C   0  0  0  0  0  0  0  0  0  0  0  0
   -3.8960   22.5050  -30.7800 C   0  0  0  0  0  0  0  0  0  0  0  0
   -3.4300   23.5830  -30.0090 C   0  0  0  0  0  0  0  0  0  0  0  0
   -3.6220   24.7690  -30.4010 O   0  0  0  0  0  0  0  0  0  0  0  0
   -1.2800   25.2990  -28.4960 C   0  0  0  0  0  0  0  0  0  0  0  0
   -0.8270   26.3600  -27.7070 C   0  0  0  0  0  0  0  0  0  0  0  0
    0.1504   26.3832  -22.6343 H   0  0  0  0  0  0  0  0  0  0  0  0
   -0.2536   25.4765  -24.1314 H   0  0  0  0  0  0  0  0  0  0  0  0
    1.1066   26.6497  -24.1314 H   0  0  0  0  0  0  0  0  0  0  0  0
   -1.8627   27.3151  -23.7709 H   0  0  0  0  0  0  0  0  0  0  0  0
   -0.4964   28.4986  -23.7217 H   0  0  0  0  0  0  0  0  0  0  0  0
    0.6093   28.9629  -26.3169 H   0  0  0  0  0  0  0  0  0  0  0  0
   -0.9541   29.0342  -27.2196 H   0  0  0  0  0  0  0  0  0  0  0  0
   -0.8356   29.8895  -24.3138 H   0  0  0  0  0  0  0  0  0  0  0  0
   -0.2951   31.0119  -25.6079 H   0  0  0  0  0  0  0  0  0  0  0  0
   -1.9785   30.3852  -25.6079 H   0  0  0  0  0  0  0  0  0  0  0  0
   -2.8019   25.8703  -24.9566 H   0  0  0  0  0  0  0  0  0  0  0  0
   -3.6094   23.9852  -26.3675 H   0  0  0  0  0  0  0  0  0  0  0  0
   -1.9670   21.8839  -27.4961 H   0  0  0  0  0  0  0  0  0  0  0  0
   -2.7610   20.0430  -28.8160 H   0  0  0  0  0  0  0  0  0  0  0  0
   -3.8844   19.0760  -30.7177 H   0  0  0  0  0  0  0  0  0  0  0  0
   -3.4710   19.1107  -34.2887 H   0  0  0  0  0  0  0  0  0  0  0  0
   -4.1857   17.1424  -35.6388 H   0  0  0  0  0  0  0  0  0  0  0  0
   -6.3804   16.0441  -35.1894 H   0  0  0  0  0  0  0  0  0  0  0  0
   -7.8743   16.9274  -33.3958 H   0  0  0  0  0  0  0  0  0  0  0  0
   -5.5825   21.7531  -33.6663 H   0  0  0  0  0  0  0  0  0  0  0  0
   -4.7939   23.7141  -32.3486 H   0  0  0  0  0  0  0  0  0  0  0  0
   -0.8506   25.1404  -29.4962 H   0  0  0  0  0  0  0  0  0  0  0  0
   -0.0415   27.0279  -28.0902 H   0  0  0  0  0  0  0  0  0  0  0  0
  1  2  1  0
  2  3  1  0
  3  4  1  0
  4  5  1  0
  3  6  1  0
  6  7  2  0
  7  8  1  0
  8  9  2  0
  9 10  1  0
 10 11  1  0
 11 12  2  0
 12 13  1  0
 13 14  2  0
 14 15  1  0
 15 16  1  0
 16 17  2  0
 17 18  1  0
 18 19  2  0
 19 20  1  0
 20 21  2  0
 21 22  1  0
 15 23  2  0
 23 24  1  0
 24 25  2  0
 25 26  1  0
 26 27  2  0
  9 28  1  0
 28 29  2  0
 29  6  1  0
 26 10  1  0
 25 13  1  0
 21 16  1  0
  1 30  1  0
  1 31  1  0
  1 32  1  0
  2 33  1  0
  2 34  1  0
  4 35  1  0
  4 36  1  0
  5 37  1  0
  5 38  1  0
  5 39  1  0
  7 40  1  0
  8 41  1  0
 11 42  1  0
 12 43  1  0
 14 44  1  0
 17 45  1  0
 18 46  1  0
 19 47  1  0
 20 48  1  0
 23 49  1  0
 24 50  1  0
 28 51  1  0
 29 52  1  0
M  CHG  1  12   1
M  END
>  <UniqueID>  (6) 
6

>  <SMILES>  (6) 
CCN(CC)c1ccc(-n2c[nH+]c3cc(-c4ccccc4Cl)ccc3c2=O)cc1

>  <Energy>  (6) 
74.06458175649801

>  <Genealogy>  (6) 
CCN(CC)c1ccc(-n2c[nH+]c3cc(-c4ccccc4Cl)ccc3c2=O)cc1 (protonated)
CCN(CC)c1ccc(-n2c[nH+]c3cc(-c4ccccc4Cl)ccc3c2=O)cc1 (3D coordinates assigned)
CCN(CC)c1ccc(-n2c[nH+]c3cc(-c4ccccc4Cl)ccc3c2=O)cc1 (optimized conformer: 74.06458175649801 kcal/mol)

>  <smiles>  (6) 
CCN(CC)c1ccc(-n2cnc3cc(-c4ccccc4Cl)ccc3c2=O)cc1

>  <score_type>  (6) 
oracle

>  <origin>  (6) 
adg

>  <m_score__min__energy>  (6) 
-8.1600000000000001

>  <m_primary>  (6) 
energy

$$$$
6:0
     RDKit          3D

 42 43  0  0  0  0  0  0  0  0999 V2000
   -2.4730   24.8000  -27.2890 C   0  0  0  0  0  0  0  0  0  0  0  0
   -2.2180   24.1350  -28.6380 C   0  0  0  0  0  0  0  0  0  0  0  0
   -2.7580   24.9220  -29.6970 O   0  0  0  0  0  0  0  0  0  0  0  0
   -4.0690   24.7860  -30.1650 C   0  0  0  0  0  0  0  0  0  0  0  0
   -4.4450   25.3770  -31.2140 O   0  0  0  0  0  0  0  0  0  0  0  0
   -5.0440   23.9530  -29.3910 C   0  0  0  0  0  0  0  0  0  0  0  0
   -6.4830   24.1720  -29.8790 C   0  0  0  0  0  0  0  0  0  0  0  0
   -6.9650   23.0280  -30.7340 C   0  0  0  0  0  0  0  0  0  0  0  0
   -6.2920   22.6940  -31.9180 C   0  0  0  0  0  0  0  0  0  0  0  0
   -6.7140   21.6090  -32.6890 C   0  0  0  0  0  0  0  0  0  0  0  0
   -7.8200   20.8360  -32.2890 C   0  0  0  0  0  0  0  0  0  0  0  0
   -8.2840   19.7110  -33.0610 N   0  0  0  0  0  0  0  0  0  0  0  0
   -8.0720   18.3100  -32.6930 C   0  0  0  0  0  0  0  0  0  0  0  0
   -6.7130   17.8390  -33.1420 C   0  0  0  0  0  0  0  0  0  0  0  0
   -6.0450   16.8300  -32.4280 C   0  0  0  0  0  0  0  0  0  0  0  0
   -4.7800   16.3970  -32.8360 C   0  0  0  0  0  0  0  0  0  0  0  0
   -4.1700   16.9720  -33.9540 C   0  0  0  0  0  0  0  0  0  0  0  0
   -4.8220   17.9850  -34.6630 C   0  0  0  0  0  0  0  0  0  0  0  0
   -6.0880   18.4210  -34.2570 C   0  0  0  0  0  0  0  0  0  0  0  0
   -8.4830   21.1670  -31.0960 C   0  0  0  0  0  0  0  0  0  0  0  0
   -8.0590   22.2520  -30.3240 C   0  0  0  0  0  0  0  0  0  0  0  0
   -2.2059   24.1035  -26.4806 H   0  0  0  0  0  0  0  0  0  0  0  0
   -1.8599   25.7096  -27.2068 H   0  0  0  0  0  0  0  0  0  0  0  0
   -3.5371   25.0664  -27.2068 H   0  0  0  0  0  0  0  0  0  0  0  0
   -1.1338   24.0242  -28.7869 H   0  0  0  0  0  0  0  0  0  0  0  0
   -2.7065   23.1494  -28.6448 H   0  0  0  0  0  0  0  0  0  0  0  0
   -4.7829   22.8914  -29.5129 H   0  0  0  0  0  0  0  0  0  0  0  0
   -4.9891   24.2509  -28.3335 H   0  0  0  0  0  0  0  0  0  0  0  0
   -7.1446   24.2668  -29.0053 H   0  0  0  0  0  0  0  0  0  0  0  0
   -6.5011   25.0865  -30.4901 H   0  0  0  0  0  0  0  0  0  0  0  0
   -5.4262   23.2905  -32.2414 H   0  0  0  0  0  0  0  0  0  0  0  0
   -6.1781   21.3566  -33.6158 H   0  0  0  0  0  0  0  0  0  0  0  0
   -8.7740   19.8960  -33.9660 H   0  0  0  0  0  0  0  0  0  0  0  0
   -8.1459   18.2090  -31.6001 H   0  0  0  0  0  0  0  0  0  0  0  0
   -8.8392   17.6956  -33.1869 H   0  0  0  0  0  0  0  0  0  0  0  0
   -6.5195   16.3788  -31.5441 H   0  0  0  0  0  0  0  0  0  0  0  0
   -4.2642   15.6028  -32.2764 H   0  0  0  0  0  0  0  0  0  0  0  0
   -3.1763   16.6273  -34.2763 H   0  0  0  0  0  0  0  0  0  0  0  0
   -4.3394   18.4397  -35.5407 H   0  0  0  0  0  0  0  0  0  0  0  0
   -6.5958   19.2227  -34.8133 H   0  0  0  0  0  0  0  0  0  0  0  0
   -9.3438   20.5668  -30.7663 H   0  0  0  0  0  0  0  0  0  0  0  0
   -8.5858   22.4986  -29.3903 H   0  0  0  0  0  0  0  0  0  0  0  0
  1  2  1  0
  2  3  1  0
  3  4  1  0
  4  5  2  0
  4  6  1  0
  6  7  1  0
  7  8  1  0
  8  9  2  0
  9 10  1  0
 10 11  2  0
 11 12  1  0
 12 13  1  0
 13 14  1  0
 14 15  2  0
 15 16  1  0
 16 17  2  0
 17 18  1  0
 18 19  2  0
 11 20  1  0
 20 21  2  0
 21  8  1  0
 19 14  1  0
  1 22  1  0
  1 23  1  0
  1 24  1  0
  2 25  1  0
  2 26  1  0
  6 27  1  0
  6 28  1  0
  7 29  1  0
  7 30  1  0
  9 31  1  0
 10 32  1  0
 12 33  1  0
 13 34  1  0
 13 35  1  0
 15 36  1  0
 16 37  1  0
 17 38  1  0
 18 39  1  0
 19 40  1  0
 20 41  1  0
 21 42  1  0
M  END
>  <UniqueID>  (7) 
7

>  <SMILES>  (7) 
CCOC(=O)CCc1ccc(NCc2ccccc2)cc1

>  <Energy>  (7) 
32.33978123404272

>  <Genealogy>  (7) 
CCOC(=O)CCc1ccc(NCc2ccccc2)cc1 (3D coordinates assigned)
CCOC(=O)CCc1ccc(NCc2ccccc2)cc1 (optimized conformer: 32.33978123404272 kcal/mol)

>  <smiles>  (7) 
CCOC(=O)CCc1ccc(NCc2ccccc2)cc1

>  <score_type>  (7) 
oracle

>  <origin>  (7) 
adg

>  <m_score__min__energy>  (7) 
-8.4600000000000009

>  <m_primary>  (7) 
energy

$$$$
7:0
     RDKit          3D

 42 42  0  0  0  0  0  0  0  0999 V2000
   -6.4700   18.0270  -33.4730 C   0  0  0  0  0  0  0  0  0  0  0  0
   -6.0890   19.3120  -34.2230 C   0  0  0  0  0  0  0  0  0  0  0  0
   -5.7090   20.4310  -33.3310 N   0  0  0  0  0  0  0  0  0  0  0  0
   -4.2530   20.4930  -33.0600 C   0  0  0  0  0  0  0  0  0  0  0  0
   -3.9860   20.0970  -31.6140 C   0  0  0  0  0  0  0  0  0  0  0  0
   -6.5420   20.5020  -32.1100 C   0  0  0  0  0  0  0  0  0  0  0  0
   -7.2700   21.8560  -32.0020 C   0  0  0  0  0  0  0  0  0  0  0  0
   -6.5820   22.9460  -32.7220 N   0  0  0  0  0  0  0  0  0  0  0  0
   -6.4690   24.1710  -31.9140 C   0  0  0  0  0  0  0  0  0  0  0  0
   -5.4190   24.0000  -30.8460 C   0  0  0  0  0  0  0  0  0  0  0  0
   -5.5970   24.5820  -29.5800 C   0  0  0  0  0  0  0  0  0  0  0  0
   -4.6070   24.4570  -28.6010 C   0  0  0  0  0  0  0  0  0  0  0  0
   -3.4230   23.7650  -28.8840 C   0  0  0  0  0  0  0  0  0  0  0  0
   -2.1560   23.5980  -27.6220 S   0  0  0  0  0  0  0  0  0  0  0  0
   -0.9840   24.7440  -28.4220 C   0  0  0  0  0  0  0  0  0  0  0  0
   -0.0840   24.0430  -29.2030 F   0  0  0  0  0  0  0  0  0  0  0  0
   -1.6660   25.6590  -29.2030 F   0  0  0  0  0  0  0  0  0  0  0  0
   -3.2380   23.1880  -30.1460 C   0  0  0  0  0  0  0  0  0  0  0  0
   -4.2270   23.3120  -31.1260 C   0  0  0  0  0  0  0  0  0  0  0  0
   -6.4170   18.2058  -32.3889 H   0  0  0  0  0  0  0  0  0  0  0  0
   -7.4940   17.7328  -33.7465 H   0  0  0  0  0  0  0  0  0  0  0  0
   -5.7718   17.2221  -33.7465 H   0  0  0  0  0  0  0  0  0  0  0  0
   -5.2376   19.0895  -34.8831 H   0  0  0  0  0  0  0  0  0  0  0  0
   -6.9800   19.6344  -34.7817 H   0  0  0  0  0  0  0  0  0  0  0  0
   -3.7255   19.8007  -33.7327 H   0  0  0  0  0  0  0  0  0  0  0  0
   -3.8926   21.5181  -33.2309 H   0  0  0  0  0  0  0  0  0  0  0  0
   -4.4722   20.8182  -30.9406 H   0  0  0  0  0  0  0  0  0  0  0  0
   -4.3911   19.0913  -31.4285 H   0  0  0  0  0  0  0  0  0  0  0  0
   -2.9018   20.0955  -31.4285 H   0  0  0  0  0  0  0  0  0  0  0  0
   -7.2894   19.6955  -32.1396 H   0  0  0  0  0  0  0  0  0  0  0  0
   -5.8835   20.3931  -31.2357 H   0  0  0  0  0  0  0  0  0  0  0  0
   -8.2808   21.7437  -32.4212 H   0  0  0  0  0  0  0  0  0  0  0  0
   -7.2921   22.1309  -30.9371 H   0  0  0  0  0  0  0  0  0  0  0  0
   -7.0730   23.1580  -33.6210 H   0  0  0  0  0  0  0  0  0  0  0  0
   -5.6170   22.6110  -32.9550 H   0  0  0  0  0  0  0  0  0  0  0  0
   -6.1891   25.0112  -32.5665 H   0  0  0  0  0  0  0  0  0  0  0  0
   -7.4377   24.3726  -31.4335 H   0  0  0  0  0  0  0  0  0  0  0  0
   -6.5195   25.1386  -29.3580 H   0  0  0  0  0  0  0  0  0  0  0  0
   -4.7583   24.9029  -27.6069 H   0  0  0  0  0  0  0  0  0  0  0  0
   -0.4331   25.2823  -27.6366 H   0  0  0  0  0  0  0  0  0  0  0  0
   -2.3125   22.6360  -30.3669 H   0  0  0  0  0  0  0  0  0  0  0  0
   -4.0711   22.8689  -32.1207 H   0  0  0  0  0  0  0  0  0  0  0  0
  1  2  1  0
  2  3  1  0
  3  4  1  0
  4  5  1  0
  3  6  1  0
  6  7  1  0
  7  8  1  0
  8  9  1  0
  9 10  1  0
 10 11  2  0
 11 12  1  0
 12 13  2  0
 13 14  1  0
 14 15  1  0
 15 16  1  0
 15 17  1  0
 13 18  1  0
 18 19  2  0
 19 10  1  0
  1 20  1  0
  1 21  1  0
  1 22  1  0
  2 23  1  0
  2 24  1  0
  4 25  1  0
  4 26  1  0
  5 27  1  0
  5 28  1  0
  5 29  1  0
  6 30  1  0
  6 31  1  0
  7 32  1  0
  7 33  1  0
  8 34  1  0
  8 35  1  0
  9 36  1  0
  9 37  1  0
 11 38  1  0
 12 39  1  0
 15 40  1  0
 18 41  1  0
 19 42  1  0
M  CHG  1   8   1
M  END
>  <UniqueID>  (8) 
8

>  <SMILES>  (8) 
CCN(CC)CC[NH2+]Cc1ccc(SC(F)F)cc1

>  <Energy>  (8) 
35.34216049832087

>  <Genealogy>  (8) 
CCN(CC)CC[NH2+]Cc1ccc(SC(F)F)cc1 (protonated)
CCN(CC)CC[NH2+]Cc1ccc(SC(F)F)cc1 (3D coordinates assigned)
CCN(CC)CC[NH2+]Cc1ccc(SC(F)F)cc1 (optimized conformer: 35.34216049832087 kcal/mol)

>  <smiles>  (8) 
CCN(CC)CCNCc1ccc(SC(F)F)cc1

>  <score_type>  (8) 
oracle

>  <origin>  (8) 
adg

>  <m_score__min__energy>  (8) 
-5.79

>  <m_primary>  (8) 
energy

$$$$
8:0
     RDKit          3D

 43 45  0  0  0  0  0  0  0  0999 V2000
   -3.8410   24.5160  -29.3140 C   0  0  0  0  0  0  0  0  0  0  0  0
   -3.9350   25.3010  -30.4810 O   0  0  0  0  0  0  0  0  0  0  0  0
   -5.2790   25.6760  -30.7200 C   0  0  0  0  0  0  0  0  0  0  0  0
   -6.2310   24.8830  -29.8170 C   0  0  0  0  0  0  0  0  0  0  0  0
   -6.3500   23.4840  -30.2820 N   0  0  0  0  0  0  0  0  0  0  0  0
   -7.5610   22.8620  -29.7190 C   0  0  0  0  0  0  0  0  0  0  0  0
   -6.3720   23.4110  -31.7600 C   0  0  0  0  0  0  0  0  0  0  0  0
   -5.8740   22.0670  -32.2230 C   0  0  0  0  0  0  0  0  0  0  0  0
   -4.5270   21.8530  -32.5220 C   0  0  0  0  0  0  0  0  0  0  0  0
   -4.3110   20.2390  -32.9570 S   0  0  0  0  0  0  0  0  0  0  0  0
   -5.9240   19.7920  -32.7760 C   0  0  0  0  0  0  0  0  0  0  0  0
   -6.5080   18.5250  -32.9430 C   0  0  0  0  0  0  0  0  0  0  0  0
   -5.7290   17.3500  -33.3950 C   0  0  0  0  0  0  0  0  0  0  0  0
   -5.7310   16.1590  -32.6480 C   0  0  0  0  0  0  0  0  0  0  0  0
   -4.9830   15.0570  -33.0740 C   0  0  0  0  0  0  0  0  0  0  0  0
   -4.2230   15.1360  -34.2440 C   0  0  0  0  0  0  0  0  0  0  0  0
   -4.2060   16.3190  -34.9880 C   0  0  0  0  0  0  0  0  0  0  0  0
   -3.4640   16.3960  -36.1210 F   0  0  0  0  0  0  0  0  0  0  0  0
   -4.9520   17.4240  -34.5650 C   0  0  0  0  0  0  0  0  0  0  0  0
   -7.8810   18.3980  -32.6550 C   0  0  0  0  0  0  0  0  0  0  0  0
   -8.6290   19.5080  -32.2310 C   0  0  0  0  0  0  0  0  0  0  0  0
   -8.0240   20.7640  -32.0790 C   0  0  0  0  0  0  0  0  0  0  0  0
   -6.6550   20.8980  -32.3530 C   0  0  0  0  0  0  0  0  0  0  0  0
   -3.9186   25.1643  -28.4288 H   0  0  0  0  0  0  0  0  0  0  0  0
   -4.6573   23.7788  -29.3013 H   0  0  0  0  0  0  0  0  0  0  0  0
   -2.8737   23.9923  -29.3013 H   0  0  0  0  0  0  0  0  0  0  0  0
   -5.3964   26.7501  -30.5138 H   0  0  0  0  0  0  0  0  0  0  0  0
   -5.5253   25.4601  -31.7701 H   0  0  0  0  0  0  0  0  0  0  0  0
   -5.8418   24.8895  -28.7882 H   0  0  0  0  0  0  0  0  0  0  0  0
   -7.2250   25.3528  -29.8525 H   0  0  0  0  0  0  0  0  0  0  0  0
   -7.5099   22.8883  -28.6205 H   0  0  0  0  0  0  0  0  0  0  0  0
   -8.4490   23.4156  -30.0581 H   0  0  0  0  0  0  0  0  0  0  0  0
   -7.6283   21.8177  -30.0581 H   0  0  0  0  0  0  0  0  0  0  0  0
   -7.4024   23.5587  -32.1156 H   0  0  0  0  0  0  0  0  0  0  0  0
   -5.7175   24.1956  -32.1674 H   0  0  0  0  0  0  0  0  0  0  0  0
   -3.7346   22.6148  -32.4804 H   0  0  0  0  0  0  0  0  0  0  0  0
   -6.3239   16.0937  -31.7238 H   0  0  0  0  0  0  0  0  0  0  0  0
   -4.9929   14.1266  -32.4873 H   0  0  0  0  0  0  0  0  0  0  0  0
   -3.6380   14.2669  -34.5795 H   0  0  0  0  0  0  0  0  0  0  0  0
   -4.9309   18.3552  -35.1501 H   0  0  0  0  0  0  0  0  0  0  0  0
   -8.3720   17.4196  -32.7633 H   0  0  0  0  0  0  0  0  0  0  0  0
   -9.7014   19.3912  -32.0157 H   0  0  0  0  0  0  0  0  0  0  0  0
   -8.6146   21.6316  -31.7496 H   0  0  0  0  0  0  0  0  0  0  0  0
  1  2  1  0
  2  3  1  0
  3  4  1  0
  4  5  1  0
  5  6  1  0
  5  7  1  0
  7  8  1  0
  8  9  2  0
  9 10  1  0
 10 11  1  0
 11 12  2  0
 12 13  1  0
 13 14  2  0
 14 15  1  0
 15 16  2  0
 16 17  1  0
 17 18  1  0
 17 19  2  0
 12 20  1  0
 20 21  2  0
 21 22  1  0
 22 23  2  0
 23  8  1  0
 23 11  1  0
 19 13  1  0
  1 24  1  0
  1 25  1  0
  1 26  1  0
  3 27  1  0
  3 28  1  0
  4 29  1  0
  4 30  1  0
  6 31  1  0
  6 32  1  0
  6 33  1  0
  7 34  1  0
  7 35  1  0
  9 36  1  0
 14 37  1  0
 15 38  1  0
 16 39  1  0
 19 40  1  0
 20 41  1  0
 21 42  1  0
 22 43  1  0
M  END
>  <UniqueID>  (9) 
9

>  <SMILES>  (9) 
COCCN(C)Cc1csc2c(-c3cccc(F)c3)cccc12

>  <Energy>  (9) 
84.00461506613058

>  <Genealogy>  (9) 
COCCN(C)Cc1csc2c(-c3cccc(F)c3)cccc12 (3D coordinates assigned)
COCCN(C)Cc1csc2c(-c3cccc(F)c3)cccc12 (optimized conformer: 84.00461506613058 kcal/mol)

>  <smiles>  (9) 
COCCN(C)Cc1csc2c(-c3cccc(F)c3)cccc12

>  <score_type>  (9) 
oracle

>  <origin>  (9) 
adg

>  <m_score__min__energy>  (9) 
-8.8300000000000001

>  <m_primary>  (9) 
energy

$$$$
9:0
     RDKit          3D

 59 62  0  0  0  0  0  0  0  0999 V2000
    0.1770   20.7720  -35.8830 C   0  0  0  0  0  0  0  0  0  0  0  0
   -0.5600   19.9220  -35.0120 O   0  0  0  0  0  0  0  0  0  0  0  0
   -0.8590   20.2230  -33.6700 C   0  0  0  0  0  0  0  0  0  0  0  0
   -0.1120   21.1730  -32.9410 C   0  0  0  0  0  0  0  0  0  0  0  0
   -0.4250   21.4430  -31.6090 C   0  0  0  0  0  0  0  0  0  0  0  0
   -1.4920   20.7830  -30.9920 C   0  0  0  0  0  0  0  0  0  0  0  0
   -2.2450   19.8490  -31.7080 C   0  0  0  0  0  0  0  0  0  0  0  0
   -1.9390   19.5630  -33.0450 C   0  0  0  0  0  0  0  0  0  0  0  0
   -2.7120   18.5810  -33.7590 N   0  0  0  0  0  0  0  0  0  0  0  0
   -4.0650   18.9670  -34.1940 C   0  0  0  0  0  0  0  0  0  0  0  0
   -4.7960   17.8760  -34.9760 C   0  0  0  0  0  0  0  0  0  0  0  0
   -4.5550   16.5300  -34.4320 N   0  0  0  0  0  0  0  0  0  0  0  0
   -5.1330   16.3580  -33.1090 C   0  0  0  0  0  0  0  0  0  0  0  0
   -4.8090   15.3770  -32.3800 O   0  0  0  0  0  0  0  0  0  0  0  0
   -6.0980   17.3280  -32.5630 C   0  0  0  0  0  0  0  0  0  0  0  0
   -6.5370   17.4240  -31.2520 C   0  0  0  0  0  0  0  0  0  0  0  0
   -7.4250   18.4800  -31.2330 C   0  0  0  0  0  0  0  0  0  0  0  0
   -7.4560   18.9710  -32.5250 C   0  0  0  0  0  0  0  0  0  0  0  0
   -8.2470   20.1440  -33.0050 C   0  0  0  0  0  0  0  0  0  0  0  0
   -8.3240   21.4270  -31.7580 S   0  0  0  0  0  0  0  0  0  0  0  0
   -9.8380   21.5290  -31.0300 O   0  0  0  0  0  0  0  0  0  0  0  0
   -7.7470   23.0410  -32.2700 C   0  0  0  0  0  0  0  0  0  0  0  0
   -6.6030   23.5190  -31.4100 C   0  0  0  0  0  0  0  0  0  0  0  0
   -6.8270   24.5560  -30.4890 C   0  0  0  0  0  0  0  0  0  0  0  0
   -5.7780   25.0540  -29.7150 C   0  0  0  0  0  0  0  0  0  0  0  0
   -4.4950   24.5210  -29.8470 C   0  0  0  0  0  0  0  0  0  0  0  0
   -4.2590   23.4800  -30.7420 C   0  0  0  0  0  0  0  0  0  0  0  0
   -5.3010   22.9760  -31.5340 C   0  0  0  0  0  0  0  0  0  0  0  0
   -4.9260   21.6950  -32.6870 Cl  0  0  0  0  0  0  0  0  0  0  0  0
   -6.6700   18.2550  -33.2940 O   0  0  0  0  0  0  0  0  0  0  0  0
   -3.1170   16.1960  -34.4970 C   0  0  0  0  0  0  0  0  0  0  0  0
   -2.2090   17.1960  -33.7590 C   0  0  0  0  0  0  0  0  0  0  0  0
    0.7828   21.4707  -35.2874 H   0  0  0  0  0  0  0  0  0  0  0  0
    0.8376   20.1628  -36.5175 H   0  0  0  0  0  0  0  0  0  0  0  0
   -0.5196   21.3396  -36.5175 H   0  0  0  0  0  0  0  0  0  0  0  0
    0.7211   21.7030  -33.4258 H   0  0  0  0  0  0  0  0  0  0  0  0
    0.1684   22.1762  -31.0431 H   0  0  0  0  0  0  0  0  0  0  0  0
   -1.7388   20.9993  -29.9421 H   0  0  0  0  0  0  0  0  0  0  0  0
   -3.0847   19.3342  -31.2182 H   0  0  0  0  0  0  0  0  0  0  0  0
   -4.6597   19.2117  -33.3015 H   0  0  0  0  0  0  0  0  0  0  0  0
   -3.9509   19.8256  -34.8721 H   0  0  0  0  0  0  0  0  0  0  0  0
   -5.8761   18.0816  -34.9413 H   0  0  0  0  0  0  0  0  0  0  0  0
   -4.4122   17.8918  -36.0068 H   0  0  0  0  0  0  0  0  0  0  0  0
   -5.0300   15.8530  -35.0720 H   0  0  0  0  0  0  0  0  0  0  0  0
   -6.2395   16.7904  -30.4034 H   0  0  0  0  0  0  0  0  0  0  0  0
   -7.9917   18.8542  -30.3677 H   0  0  0  0  0  0  0  0  0  0  0  0
   -7.7720   20.5511  -33.9098 H   0  0  0  0  0  0  0  0  0  0  0  0
   -9.2715   19.8078  -33.2226 H   0  0  0  0  0  0  0  0  0  0  0  0
   -9.6550   21.6490  -30.0610 H   0  0  0  0  0  0  0  0  0  0  0  0
   -7.4088   22.9845  -33.3152 H   0  0  0  0  0  0  0  0  0  0  0  0
   -8.5784   23.7536  -32.1648 H   0  0  0  0  0  0  0  0  0  0  0  0
   -7.8365   24.9784  -30.3772 H   0  0  0  0  0  0  0  0  0  0  0  0
   -5.9628   25.8685  -28.9992 H   0  0  0  0  0  0  0  0  0  0  0  0
   -3.6685   24.9237  -29.2431 H   0  0  0  0  0  0  0  0  0  0  0  0
   -3.2498   23.0509  -30.8281 H   0  0  0  0  0  0  0  0  0  0  0  0
   -2.9721   15.2016  -34.0496 H   0  0  0  0  0  0  0  0  0  0  0  0
   -2.8300   16.2283  -35.5584 H   0  0  0  0  0  0  0  0  0  0  0  0
   -2.1085   16.8653  -32.7147 H   0  0  0  0  0  0  0  0  0  0  0  0
   -1.2491   17.2079  -34.2960 H   0  0  0  0  0  0  0  0  0  0  0  0
  1  2  1  0
  2  3  1  0
  3  4  2  0
  4  5  1  0
  5  6  2  0
  6  7  1  0
  7  8  2  0
  8  9  1  0
  9 10  1  0
 10 11  1  0
 11 12  1  0
 12 13  1  0
 13 14  2  0
 13 15  1  0
 15 16  2  0
 16 17  1  0
 17 18  2  0
 18 19  1  0
 19 20  1  0
 20 21  1  6
 20 22  1  0
 22 23  1  0
 23 24  2  0
 24 25  1  0
 25 26  2  0
 26 27  1  0
 27 28  2  0
 28 29  1  0
 18 30  1  0
 12 31  1  0
 31 32  1  0
  8  3  1  0
 32  9  1  0
 30 15  1  0
 28 23  1  0
  1 33  1  0
  1 34  1  0
  1 35  1  0
  4 36  1  0
  5 37  1  0
  6 38  1  0
  7 39  1  0
 10 40  1  0
 10 41  1  0
 11 42  1  0
 11 43  1  0
 12 44  1  0
 16 45  1  0
 17 46  1  0
 19 47  1  0
 19 48  1  0
 21 49  1  0
 22 50  1  0
 22 51  1  0
 24 52  1  0
 25 53  1  0
 26 54  1  0
 27 55  1  0
 31 56  1  0
 31 57  1  0
 32 58  1  0
 32 59  1  0
M  CHG  2  12   1  20   1
M  END
>  <UniqueID>  (10) 
10

>  <SMILES>  (10) 
COc1ccccc1N1CC[NH+](C(=O)c2ccc(C[S@+](O)Cc3ccccc3Cl)o2)CC1

>  <Energy>  (10) 
93.06865622365535

>  <Genealogy>  (10) 
COc1ccccc1N1CC[NH+](C(=O)c2ccc(C[S+](O)Cc3ccccc3Cl)o2)CC1 (protonated)
COc1ccccc1N1CC[NH+](C(=O)c2ccc(C[S@+](O)Cc3ccccc3Cl)o2)CC1 (chirality)
COc1ccccc1N1CC[NH+](C(=O)c2ccc(C[S@+](O)Cc3ccccc3Cl)o2)CC1 (3D coordinates assigned)
COc1ccccc1N1CC[NH+](C(=O)c2ccc(C[S@+](O)Cc3ccccc3Cl)o2)CC1 (nonaromatic ring conformer: 93.06865622365535 kcal/mol)

>  <smiles>  (10) 
COc1ccccc1N1CCN(C(=O)c2ccc(C[S+]([O-])Cc3ccccc3Cl)o2)CC1

>  <score_type>  (10) 
oracle

>  <origin>  (10) 
adg

>  <m_score__min__energy>  (10) 
-8.2799999999999994

>  <m_primary>  (10) 
energy

$$$$
10:0
     RDKit          3D

 47 48  0  0  0  0  0  0  0  0999 V2000
   -2.9960   21.1270  -29.0150 C   0  0  0  0  0  0  0  0  0  0  0  0
   -3.4990   20.7320  -30.2730 O   0  0  0  0  0  0  0  0  0  0  0  0
   -2.4390   20.4470  -31.1660 C   0  0  0  0  0  0  0  0  0  0  0  0
   -2.9730   19.6710  -32.3870 C   0  0  0  0  0  0  0  0  0  0  0  0
   -4.4590   19.7330  -32.5050 N   0  0  0  0  0  0  0  0  0  0  0  0
   -4.9550   18.5700  -33.2940 C   0  0  0  0  0  0  0  0  0  0  0  0
   -5.9680   17.6910  -32.5240 C   0  0  0  0  0  0  0  0  0  0  0  0
   -6.6260   18.4430  -31.5230 O   0  0  0  0  0  0  0  0  0  0  0  0
   -8.0200   18.2390  -31.5900 C   0  0  0  0  0  0  0  0  0  0  0  0
   -4.8760   21.0300  -33.1250 C   0  0  0  0  0  0  0  0  0  0  0  0
   -6.0280   21.6930  -32.3880 C   0  0  0  0  0  0  0  0  0  0  0  0
   -7.3340   21.2380  -32.6210 C   0  0  0  0  0  0  0  0  0  0  0  0
   -8.4020   21.8180  -31.9350 C   0  0  0  0  0  0  0  0  0  0  0  0
   -9.5720   21.3970  -32.1260 O   0  0  0  0  0  0  0  0  0  0  0  0
   -8.1930   22.8120  -31.0830 O   0  0  0  0  0  0  0  0  0  0  0  0
   -6.9850   23.3120  -30.8460 C   0  0  0  0  0  0  0  0  0  0  0  0
   -6.8500   24.3730  -29.9460 C   0  0  0  0  0  0  0  0  0  0  0  0
   -5.5950   24.9270  -29.6930 C   0  0  0  0  0  0  0  0  0  0  0  0
   -4.4570   24.4350  -30.3390 C   0  0  0  0  0  0  0  0  0  0  0  0
   -3.2190   25.0290  -30.0470 O   0  0  0  0  0  0  0  0  0  0  0  0
   -2.3020   24.5430  -29.0710 C   0  0  0  0  0  0  0  0  0  0  0  0
   -4.5850   23.3700  -31.2510 C   0  0  0  0  0  0  0  0  0  0  0  0
   -5.8450   22.7840  -31.5000 C   0  0  0  0  0  0  0  0  0  0  0  0
   -3.5924   20.6587  -28.2182 H   0  0  0  0  0  0  0  0  0  0  0  0
   -1.9471   20.8087  -28.9231 H   0  0  0  0  0  0  0  0  0  0  0  0
   -3.0565   22.2215  -28.9231 H   0  0  0  0  0  0  0  0  0  0  0  0
   -1.9838   21.3897  -31.5040 H   0  0  0  0  0  0  0  0  0  0  0  0
   -1.6861   19.8338  -30.6492 H   0  0  0  0  0  0  0  0  0  0  0  0
   -2.5297   20.1000  -33.2977 H   0  0  0  0  0  0  0  0  0  0  0  0
   -2.6943   18.6149  -32.2568 H   0  0  0  0  0  0  0  0  0  0  0  0
   -4.8550   19.6620  -31.5380 H   0  0  0  0  0  0  0  0  0  0  0  0
   -5.4435   18.9490  -34.2038 H   0  0  0  0  0  0  0  0  0  0  0  0
   -4.0842   17.9376  -33.5215 H   0  0  0  0  0  0  0  0  0  0  0  0
   -6.7149   17.2988  -33.2299 H   0  0  0  0  0  0  0  0  0  0  0  0
   -5.4241   16.8643  -32.0437 H   0  0  0  0  0  0  0  0  0  0  0  0
   -8.4311   18.1788  -30.5715 H   0  0  0  0  0  0  0  0  0  0  0  0
   -8.4881   19.0782  -32.1254 H   0  0  0  0  0  0  0  0  0  0  0  0
   -8.2280   17.3009  -32.1254 H   0  0  0  0  0  0  0  0  0  0  0  0
   -4.0151   21.7147  -33.1196 H   0  0  0  0  0  0  0  0  0  0  0  0
   -5.2189   20.8126  -34.1473 H   0  0  0  0  0  0  0  0  0  0  0  0
   -7.5158   20.4271  -33.3417 H   0  0  0  0  0  0  0  0  0  0  0  0
   -7.7379   24.7731  -29.4346 H   0  0  0  0  0  0  0  0  0  0  0  0
   -5.5000   25.7583  -28.9789 H   0  0  0  0  0  0  0  0  0  0  0  0
   -2.6938   24.7506  -28.0643 H   0  0  0  0  0  0  0  0  0  0  0  0
   -2.1727   23.4580  -29.1975 H   0  0  0  0  0  0  0  0  0  0  0  0
   -1.3315   25.0451  -29.1975 H   0  0  0  0  0  0  0  0  0  0  0  0
   -3.6949   22.9910  -31.7744 H   0  0  0  0  0  0  0  0  0  0  0  0
  1  2  1  0
  2  3  1  0
  3  4  1  0
  4  5  1  0
  5  6  1  0
  6  7  1  0
  7  8  1  0
  8  9  1  0
  5 10  1  0
 10 11  1  0
 11 12  2  0
 12 13  1  0
 13 14  2  0
 13 15  1  0
 15 16  1  0
 16 17  2  0
 17 18  1  0
 18 19  2  0
 19 20  1  0
 20 21  1  0
 19 22  1  0
 22 23  2  0
 23 11  1  0
 23 16  1  0
  1 24  1  0
  1 25  1  0
  1 26  1  0
  3 27  1  0
  3 28  1  0
  4 29  1  0
  4 30  1  0
  5 31  1  0
  6 32  1  0
  6 33  1  0
  7 34  1  0
  7 35  1  0
  9 36  1  0
  9 37  1  0
  9 38  1  0
 10 39  1  0
 10 40  1  0
 12 41  1  0
 17 42  1  0
 18 43  1  0
 21 44  1  0
 21 45  1  0
 21 46  1  0
 22 47  1  0
M  CHG  1   5   1
M  END
>  <UniqueID>  (11) 
11

>  <SMILES>  (11) 
COCC[NH+](CCOC)Cc1cc(=O)oc2ccc(OC)cc12

>  <Energy>  (11) 
62.96650579321198

>  <Genealogy>  (11) 
COCC[NH+](CCOC)Cc1cc(=O)oc2ccc(OC)cc12 (protonated)
COCC[NH+](CCOC)Cc1cc(=O)oc2ccc(OC)cc12 (3D coordinates assigned)
COCC[NH+](CCOC)Cc1cc(=O)oc2ccc(OC)cc12 (optimized conformer: 62.96650579321198 kcal/mol)

>  <smiles>  (11) 
COCCN(CCOC)Cc1cc(=O)oc2ccc(OC)cc12

>  <score_type>  (11) 
oracle

>  <origin>  (11) 
adg

>  <m_score__min__energy>  (11) 
-5.9500000000000002

>  <m_primary>  (11) 
energy

$$$$
11:0
     RDKit          3D

 41 43  0  0  0  0  0  0  0  0999 V2000
   -6.3150   17.0630  -33.1420 C   0  0  0  0  0  0  0  0  0  0  0  0
   -7.0510   18.2870  -32.6820 C   0  0  0  0  0  0  0  0  0  0  0  0
   -8.4090   18.2090  -32.3440 C   0  0  0  0  0  0  0  0  0  0  0  0
   -9.1010   19.3540  -31.9500 C   0  0  0  0  0  0  0  0  0  0  0  0
   -8.4500   20.5890  -31.9020 C   0  0  0  0  0  0  0  0  0  0  0  0
   -7.0910   20.6920  -32.2580 C   0  0  0  0  0  0  0  0  0  0  0  0
   -6.3850   21.9500  -32.2310 N   0  0  0  0  0  0  0  0  0  0  0  0
   -5.9950   22.6570  -31.0020 C   0  0  2  0  0  0  0  0  0  0  0  0
   -7.1940   23.4670  -30.4310 C   0  0  0  0  0  0  0  0  0  0  0  0
   -6.8600   24.9300  -30.0940 C   0  0  0  0  0  0  0  0  0  0  0  0
   -5.5220   25.0440  -29.3540 C   0  0  0  0  0  0  0  0  0  0  0  0
   -4.4520   24.3240  -30.0630 N   0  0  0  0  0  0  0  0  0  0  0  0
   -3.1600   24.1950  -29.4480 C   0  0  0  0  0  0  0  0  0  0  0  0
   -2.4190   25.2090  -29.3460 O   0  0  0  0  0  0  0  0  0  0  0  0
   -2.6860   22.8970  -28.9300 C   0  0  0  0  0  0  0  0  0  0  0  0
   -3.3640   22.1760  -27.9330 C   0  0  0  0  0  0  0  0  0  0  0  0
   -2.7640   20.9660  -27.6140 C   0  0  0  0  0  0  0  0  0  0  0  0
   -1.4040   20.7860  -28.5830 S   0  0  0  0  0  0  0  0  0  0  0  0
   -1.5560   22.2400  -29.4120 C   0  0  0  0  0  0  0  0  0  0  0  0
   -4.7680   23.5490  -31.2690 C   0  0  0  0  0  0  0  0  0  0  0  0
   -6.4030   19.5310  -32.6500 C   0  0  0  0  0  0  0  0  0  0  0  0
   -5.9713   16.4914  -32.2672 H   0  0  0  0  0  0  0  0  0  0  0  0
   -6.9868   16.4373  -33.7480 H   0  0  0  0  0  0  0  0  0  0  0  0
   -5.4474   17.3630  -33.7480 H   0  0  0  0  0  0  0  0  0  0  0  0
   -8.9306   17.2416  -32.3896 H   0  0  0  0  0  0  0  0  0  0  0  0
  -10.1640   19.2843  -31.6759 H   0  0  0  0  0  0  0  0  0  0  0  0
   -9.0017   21.4861  -31.5844 H   0  0  0  0  0  0  0  0  0  0  0  0
   -6.1370   22.3830  -33.1500 H   0  0  0  0  0  0  0  0  0  0  0  0
   -5.7098   21.9196  -30.2372 H   0  0  0  0  0  0  0  0  0  0  0  0
   -8.0021   23.4603  -31.1773 H   0  0  0  0  0  0  0  0  0  0  0  0
   -7.4834   22.9822  -29.4870 H   0  0  0  0  0  0  0  0  0  0  0  0
   -6.8023   25.5079  -31.0282 H   0  0  0  0  0  0  0  0  0  0  0  0
   -7.6516   25.3230  -29.4391 H   0  0  0  0  0  0  0  0  0  0  0  0
   -5.2466   26.1060  -29.2744 H   0  0  0  0  0  0  0  0  0  0  0  0
   -5.6391   24.5947  -28.3568 H   0  0  0  0  0  0  0  0  0  0  0  0
   -4.2843   22.5368  -27.4504 H   0  0  0  0  0  0  0  0  0  0  0  0
   -3.1176   20.2494  -26.8580 H   0  0  0  0  0  0  0  0  0  0  0  0
   -0.8808   22.6087  -30.1983 H   0  0  0  0  0  0  0  0  0  0  0  0
   -4.9886   24.2365  -32.0988 H   0  0  0  0  0  0  0  0  0  0  0  0
   -3.9073   22.9173  -31.5337 H   0  0  0  0  0  0  0  0  0  0  0  0
   -5.3428   19.5984  -32.9354 H   0  0  0  0  0  0  0  0  0  0  0  0
  1  2  1  0
  2  3  2  0
  3  4  1  0
  4  5  2  0
  5  6  1  0
  6  7  1  0
  7  8  1  0
  8  9  1  0
  9 10  1  0
 10 11  1  0
 11 12  1  0
 12 13  1  0
 13 14  2  0
 13 15  1  0
 15 16  1  0
 16 17  2  0
 17 18  1  0
 18 19  1  0
 12 20  1  0
  6 21  2  0
 21  2  1  0
 20  8  1  0
 19 15  2  0
  1 22  1  0
  1 23  1  0
  1 24  1  0
  3 25  1  0
  4 26  1  0
  5 27  1  0
  7 28  1  0
  8 29  1  1
  9 30  1  0
  9 31  1  0
 10 32  1  0
 10 33  1  0
 11 34  1  0
 11 35  1  0
 16 36  1  0
 17 37  1  0
 19 38  1  0
 20 39  1  0
 20 40  1  0
 21 41  1  0
M  END
>  <UniqueID>  (12) 
12

>  <SMILES>  (12) 
Cc1cccc(N[C@@H]2CCCN(C(=O)c3ccsc3)C2)c1

>  <Energy>  (12) 
73.9051121337801

>  <Genealogy>  (12) 
Cc1cccc(N[C@@H]2CCCN(C(=O)c3ccsc3)C2)c1 (chirality)
Cc1cccc(N[C@@H]2CCCN(C(=O)c3ccsc3)C2)c1 (3D coordinates assigned)
Cc1cccc(N[C@@H]2CCCN(C(=O)c3ccsc3)C2)c1 (nonaromatic ring conformer: 73.9051121337801 kcal/mol)

>  <smiles>  (12) 
Cc1cccc(NC2CCCN(C(=O)c3ccsc3)C2)c1

>  <score_type>  (12) 
oracle

>  <origin>  (12) 
adg

>  <m_score__min__energy>  (12) 
-8.1899999999999995

>  <m_primary>  (12) 
energy

$$$$
12:0
     RDKit          3D

 38 39  0  0  0  0  0  0  0  0999 V2000
   -1.6150   26.4180  -25.2020 C   0  0  0  0  0  0  0  0  0  0  0  0
   -1.0390   25.6550  -26.3930 C   0  0  0  0  0  0  0  0  0  0  0  0
   -1.9110   24.5180  -26.7520 N   0  0  0  0  0  0  0  0  0  0  0  0
   -3.3350   24.9200  -26.7080 C   0  0  0  0  0  0  0  0  0  0  0  0
   -4.2230   23.8910  -27.4210 C   0  0  0  0  0  0  0  0  0  0  0  0
   -3.8560   23.7140  -28.8470 N   0  0  0  0  0  0  0  0  0  0  0  0
   -5.0220   24.4830  -29.8970 S   0  0  0  0  0  0  0  0  0  0  0  0
   -4.3110   25.2890  -30.9490 O   0  0  0  0  0  0  0  0  0  0  0  0
   -5.9000   25.3950  -29.0860 O   0  0  0  0  0  0  0  0  0  0  0  0
   -6.0030   23.2580  -30.6950 C   0  0  0  0  0  0  0  0  0  0  0  0
   -5.5090   22.5970  -31.8280 C   0  0  0  0  0  0  0  0  0  0  0  0
   -6.2800   21.6210  -32.4660 C   0  0  0  0  0  0  0  0  0  0  0  0
   -7.5620   21.3080  -31.9870 C   0  0  0  0  0  0  0  0  0  0  0  0
   -8.3740   20.2330  -32.6470 C   0  0  0  0  0  0  0  0  0  0  0  0
   -8.0500   21.9620  -30.8440 C   0  0  0  0  0  0  0  0  0  0  0  0
   -7.2770   22.9380  -30.2070 C   0  0  0  0  0  0  0  0  0  0  0  0
   -2.4980   24.1910  -29.1760 C   0  0  0  0  0  0  0  0  0  0  0  0
   -1.5140   23.8840  -28.0380 C   0  0  0  0  0  0  0  0  0  0  0  0
   -1.2660   25.9557  -24.2669 H   0  0  0  0  0  0  0  0  0  0  0  0
   -1.2801   27.4651  -25.2407 H   0  0  0  0  0  0  0  0  0  0  0  0
   -2.7138   26.3828  -25.2407 H   0  0  0  0  0  0  0  0  0  0  0  0
   -0.9589   26.3352  -27.2538 H   0  0  0  0  0  0  0  0  0  0  0  0
   -0.0459   25.2684  -26.1203 H   0  0  0  0  0  0  0  0  0  0  0  0
   -3.6526   25.0022  -25.6581 H   0  0  0  0  0  0  0  0  0  0  0  0
   -3.4406   25.8872  -27.2212 H   0  0  0  0  0  0  0  0  0  0  0  0
   -4.1225   22.9230  -26.9083 H   0  0  0  0  0  0  0  0  0  0  0  0
   -5.2579   24.2620  -27.3862 H   0  0  0  0  0  0  0  0  0  0  0  0
   -4.5108   22.8472  -32.2166 H   0  0  0  0  0  0  0  0  0  0  0  0
   -5.8808   21.0963  -33.3465 H   0  0  0  0  0  0  0  0  0  0  0  0
   -8.8475   19.6062  -31.8770 H   0  0  0  0  0  0  0  0  0  0  0  0
   -9.1516   20.6936  -33.2740 H   0  0  0  0  0  0  0  0  0  0  0  0
   -7.7183   19.6110  -33.2740 H   0  0  0  0  0  0  0  0  0  0  0  0
   -9.0438   21.7057  -30.4483 H   0  0  0  0  0  0  0  0  0  0  0  0
   -7.6704   23.4562  -29.3200 H   0  0  0  0  0  0  0  0  0  0  0  0
   -2.1539   23.6909  -30.0933 H   0  0  0  0  0  0  0  0  0  0  0  0
   -2.5358   25.2807  -29.3210 H   0  0  0  0  0  0  0  0  0  0  0  0
   -1.4699   22.7943  -27.8947 H   0  0  0  0  0  0  0  0  0  0  0  0
   -0.5348   24.2955  -28.3241 H   0  0  0  0  0  0  0  0  0  0  0  0
  1  2  1  0
  2  3  1  0
  3  4  1  0
  4  5  1  0
  5  6  1  0
  6  7  1  0
  7  8  2  0
  7  9  2  0
  7 10  1  0
 10 11  2  0
 11 12  1  0
 12 13  2  0
 13 14  1  0
 13 15  1  0
 15 16  2  0
  6 17  1  0
 17 18  1  0
 18  3  1  0
 16 10  1  0
  1 19  1  0
  1 20  1  0
  1 21  1  0
  2 22  1  0
  2 23  1  0
  4 24  1  0
  4 25  1  0
  5 26  1  0
  5 27  1  0
 11 28  1  0
 12 29  1  0
 14 30  1  0
 14 31  1  0
 14 32  1  0
 15 33  1  0
 16 34  1  0
 17 35  1  0
 17 36  1  0
 18 37  1  0
 18 38  1  0
M  END
>  <UniqueID>  (13) 
13

>  <SMILES>  (13) 
CCN1CCN(S(=O)(=O)c2ccc(C)cc2)CC1

>  <Energy>  (13) 
45.206762508233325

>  <Genealogy>  (13) 
CCN1CCN(S(=O)(=O)c2ccc(C)cc2)CC1 (3D coordinates assigned)
CCN1CCN(S(=O)(=O)c2ccc(C)cc2)CC1 (nonaromatic ring conformer: 45.206762508233325 kcal/mol)

>  <smiles>  (13) 
CCN1CCN(S(=O)(=O)c2ccc(C)cc2)CC1

>  <score_type>  (13) 
oracle

>  <origin>  (13) 
adg

>  <m_score__min__energy>  (13) 
-7.9299999999999997

>  <m_primary>  (13) 
energy

$$$$
13:0
     RDKit          3D

 48 50  0  0  0  0  0  0  0  0999 V2000
   -8.7010   18.8920  -31.6300 C   0  0  0  0  0  0  0  0  0  0  0  0
   -8.4440   20.0220  -32.6180 C   0  0  0  0  0  0  0  0  0  0  0  0
   -6.8100   19.8610  -33.4280 S   0  0  0  0  0  0  0  0  0  0  0  0
   -5.9660   20.9730  -32.2980 C   0  0  0  0  0  0  0  0  0  0  0  0
   -6.6030   21.7630  -31.4700 O   0  0  0  0  0  0  0  0  0  0  0  0
   -5.6980   22.4570  -30.8210 C   0  0  0  0  0  0  0  0  0  0  0  0
   -6.0390   23.4540  -29.7430 C   0  0  0  0  0  0  0  0  0  0  0  0
   -4.8290   23.6870  -28.8230 C   0  0  0  0  0  0  0  0  0  0  0  0
   -3.7020   24.4880  -29.5160 C   0  0  0  0  0  0  0  0  0  0  0  0
   -4.1750   25.2760  -30.6680 N   0  0  0  0  0  0  0  0  0  0  0  0
   -5.4870   25.8770  -30.4080 C   0  0  0  0  0  0  0  0  0  0  0  0
   -6.5710   24.7880  -30.3230 C   0  0  0  0  0  0  0  0  0  0  0  0
   -4.4410   22.1530  -31.2030 N   0  0  0  0  0  0  0  0  0  0  0  0
   -4.6030   21.2020  -32.1460 C   0  0  0  0  0  0  0  0  0  0  0  0
   -3.4620   20.6450  -32.9180 C   0  0  0  0  0  0  0  0  0  0  0  0
   -2.3090   21.4270  -33.0910 C   0  0  0  0  0  0  0  0  0  0  0  0
   -1.2120   20.9380  -33.8050 C   0  0  0  0  0  0  0  0  0  0  0  0
   -1.2310   19.6430  -34.3600 C   0  0  0  0  0  0  0  0  0  0  0  0
   -0.0910   19.1330  -35.1010 N   0  0  0  0  0  0  0  0  0  0  0  0
    0.9310   20.0480  -35.6230 C   0  0  0  0  0  0  0  0  0  0  0  0
    0.0570   17.6920  -35.3440 C   0  0  0  0  0  0  0  0  0  0  0  0
   -2.3840   18.8570  -34.1700 C   0  0  0  0  0  0  0  0  0  0  0  0
   -3.4810   19.3490  -33.4570 C   0  0  0  0  0  0  0  0  0  0  0  0
   -8.6137   19.2760  -30.6029 H   0  0  0  0  0  0  0  0  0  0  0  0
   -9.7133   18.4911  -31.7867 H   0  0  0  0  0  0  0  0  0  0  0  0
   -7.9617   18.0927  -31.7867 H   0  0  0  0  0  0  0  0  0  0  0  0
   -9.2272   20.0044  -33.3902 H   0  0  0  0  0  0  0  0  0  0  0  0
   -8.4572   20.9710  -32.0620 H   0  0  0  0  0  0  0  0  0  0  0  0
   -6.8558   23.0254  -29.1437 H   0  0  0  0  0  0  0  0  0  0  0  0
   -5.1631   24.2443  -27.9355 H   0  0  0  0  0  0  0  0  0  0  0  0
   -4.4207   22.7020  -28.5528 H   0  0  0  0  0  0  0  0  0  0  0  0
   -3.2583   25.1753  -28.7806 H   0  0  0  0  0  0  0  0  0  0  0  0
   -2.9693   23.7606  -29.8957 H   0  0  0  0  0  0  0  0  0  0  0  0
   -3.4890   26.0480  -30.8390 H   0  0  0  0  0  0  0  0  0  0  0  0
   -5.4510   26.4271  -29.4561 H   0  0  0  0  0  0  0  0  0  0  0  0
   -5.7344   26.5619  -31.2325 H   0  0  0  0  0  0  0  0  0  0  0  0
   -7.3845   25.1518  -29.6781 H   0  0  0  0  0  0  0  0  0  0  0  0
   -6.9196   24.5878  -31.3469 H   0  0  0  0  0  0  0  0  0  0  0  0
   -2.2687   22.4378  -32.6589 H   0  0  0  0  0  0  0  0  0  0  0  0
   -0.3225   21.5719  -33.9354 H   0  0  0  0  0  0  0  0  0  0  0  0
    1.4611   20.5226  -34.7841 H   0  0  0  0  0  0  0  0  0  0  0  0
    1.6480   19.4844  -36.2381 H   0  0  0  0  0  0  0  0  0  0  0  0
    0.4498   20.8227  -36.2381 H   0  0  0  0  0  0  0  0  0  0  0  0
    0.1115   17.1616  -34.3819 H   0  0  0  0  0  0  0  0  0  0  0  0
   -0.8083   17.3259  -35.9161 H   0  0  0  0  0  0  0  0  0  0  0  0
    0.9786   17.5094  -35.9161 H   0  0  0  0  0  0  0  0  0  0  0  0
   -2.4219   17.8406  -34.5890 H   0  0  0  0  0  0  0  0  0  0  0  0
   -4.3683   18.7141  -33.3168 H   0  0  0  0  0  0  0  0  0  0  0  0
  1  2  1  0
  2  3  1  0
  3  4  1  0
  4  5  1  0
  5  6  1  0
  6  7  1  0
  7  8  1  0
  8  9  1  0
  9 10  1  0
 10 11  1  0
 11 12  1  0
  6 13  2  0
 13 14  1  0
 14 15  1  0
 15 16  2  0
 16 17  1  0
 17 18  2  0
 18 19  1  0
 19 20  1  0
 19 21  1  0
 18 22  1  0
 22 23  2  0
 14  4  2  0
 23 15  1  0
 12  7  1  0
  1 24  1  0
  1 25  1  0
  1 26  1  0
  2 27  1  0
  2 28  1  0
  7 29  1  0
  8 30  1  0
  8 31  1  0
  9 32  1  0
  9 33  1  0
 10 34  1  0
 11 35  1  0
 11 36  1  0
 12 37  1  0
 12 38  1  0
 16 39  1  0
 17 40  1  0
 20 41  1  0
 20 42  1  0
 20 43  1  0
 21 44  1  0
 21 45  1  0
 21 46  1  0
 22 47  1  0
 23 48  1  0
M  END
>  <UniqueID>  (14) 
14

>  <SMILES>  (14) 
CCSc1oc(C2CCNCC2)nc1-c1ccc(N(C)C)cc1

>  <Energy>  (14) 
83.26153474525711

>  <Genealogy>  (14) 
CCSc1oc(C2CCNCC2)nc1-c1ccc(N(C)C)cc1 (3D coordinates assigned)
CCSc1oc(C2CCNCC2)nc1-c1ccc(N(C)C)cc1 (nonaromatic ring conformer: 83.26153474525711 kcal/mol)

>  <smiles>  (14) 
CCSc1oc(C2CCNCC2)nc1-c1ccc(N(C)C)cc1

>  <score_type>  (14) 
oracle

>  <origin>  (14) 
adg

>  <m_score__min__energy>  (14) 
-8.1699999999999999

>  <m_primary>  (14) 
energy

$$$$
14:0
     RDKit          3D

 51 52  0  0  0  0  0  0  0  0999 V2000
   -8.8357   17.5157  -32.9104 H   0  0  0  0  0  0  0  0  0  0  0  0
   -7.9800   18.0840  -32.5170 C   0  0  0  0  0  0  0  0  0  0  0  0
   -8.2380   19.0390  -31.6110 C   0  0  0  0  0  0  0  0  0  0  0  0
   -8.4258   18.7195  -30.5753 H   0  0  0  0  0  0  0  0  0  0  0  0
   -8.2890   20.4850  -31.8980 C   0  0  0  0  0  0  0  0  0  0  0  0
   -9.4470   21.2410  -31.9340 C   0  0  0  0  0  0  0  0  0  0  0  0
  -10.4848   20.8765  -31.9287 H   0  0  0  0  0  0  0  0  0  0  0  0
   -9.0180   22.5500  -31.9780 C   0  0  0  0  0  0  0  0  0  0  0  0
   -9.6697   23.4345  -32.0321 H   0  0  0  0  0  0  0  0  0  0  0  0
   -7.6710   22.5710  -31.9440 N   0  0  0  0  0  0  0  0  0  0  0  0
   -6.8760   23.7980  -31.8220 C   0  0  0  0  0  0  0  0  0  0  0  0
   -7.3194   24.5801  -32.4558 H   0  0  0  0  0  0  0  0  0  0  0  0
   -5.8456   23.5853  -32.1431 H   0  0  0  0  0  0  0  0  0  0  0  0
   -6.8490   24.2850  -30.3640 C   0  0  0  0  0  0  0  0  0  0  0  0
   -6.6443   23.4244  -29.7101 H   0  0  0  0  0  0  0  0  0  0  0  0
   -7.8279   24.7384  -30.1490 H   0  0  0  0  0  0  0  0  0  0  0  0
   -5.7770   25.3590  -30.1120 C   0  0  0  0  0  0  0  0  0  0  0  0
   -5.8103   25.6325  -29.0471 H   0  0  0  0  0  0  0  0  0  0  0  0
   -6.0149   26.1975  -30.7830 H   0  0  0  0  0  0  0  0  0  0  0  0
   -4.3380   24.9270  -30.4510 C   0  0  0  0  0  0  0  0  0  0  0  0
   -3.6558   25.7427  -30.1694 H   0  0  0  0  0  0  0  0  0  0  0  0
   -4.3145   24.7111  -31.5293 H   0  0  0  0  0  0  0  0  0  0  0  0
   -3.8850   23.6420  -29.7260 C   0  0  0  0  0  0  0  0  0  0  0  0
   -2.8028   23.5150  -29.8766 H   0  0  0  0  0  0  0  0  0  0  0  0
   -4.4541   22.8013  -30.1496 H   0  0  0  0  0  0  0  0  0  0  0  0
   -4.1690   23.6850  -28.2250 C   0  0  0  0  0  0  0  0  0  0  0  0
   -3.2300   23.5428  -27.6699 H   0  0  0  0  0  0  0  0  0  0  0  0
   -4.6063   24.6596  -27.9623 H   0  0  0  0  0  0  0  0  0  0  0  0
   -4.8752   22.8835  -27.9623 H   0  0  0  0  0  0  0  0  0  0  0  0
   -7.2210   21.3210  -31.8720 N   0  0  0  0  0  0  0  0  0  0  0  0
   -5.8130   20.9230  -31.7270 C   0  0  0  0  0  0  0  0  0  0  0  0
   -5.3667   21.4906  -30.8971 H   0  0  0  0  0  0  0  0  0  0  0  0
   -5.7832   19.8414  -31.5290 H   0  0  0  0  0  0  0  0  0  0  0  0
   -5.0070   21.1950  -33.0040 C   0  0  0  0  0  0  0  0  0  0  0  0
   -5.0733   20.3135  -33.6586 H   0  0  0  0  0  0  0  0  0  0  0  0
   -5.4326   22.0870  -33.4868 H   0  0  0  0  0  0  0  0  0  0  0  0
   -3.5390   21.4790  -32.7120 C   0  0  0  0  0  0  0  0  0  0  0  0
   -3.3808   21.5096  -31.6239 H   0  0  0  0  0  0  0  0  0  0  0  0
   -2.9175   20.6844  -33.1507 H   0  0  0  0  0  0  0  0  0  0  0  0
   -3.2587   22.4480  -33.1507 H   0  0  0  0  0  0  0  0  0  0  0  0
   -6.6390   17.7340  -33.0290 C   0  0  0  0  0  0  0  0  0  0  0  0
   -6.1740   18.3560  -34.1990 C   0  0  0  0  0  0  0  0  0  0  0  0
   -6.8116   19.0840  -34.7219 H   0  0  0  0  0  0  0  0  0  0  0  0
   -4.9050   18.0550  -34.7030 C   0  0  0  0  0  0  0  0  0  0  0  0
   -4.5567   18.5283  -35.6329 H   0  0  0  0  0  0  0  0  0  0  0  0
   -4.0790   17.1540  -34.0270 C   0  0  0  0  0  0  0  0  0  0  0  0
   -3.0861   16.9076  -34.4312 H   0  0  0  0  0  0  0  0  0  0  0  0
   -4.5150   16.5660  -32.8370 C   0  0  0  0  0  0  0  0  0  0  0  0
   -3.8588   15.8674  -32.2972 H   0  0  0  0  0  0  0  0  0  0  0  0
   -5.7840   16.8640  -32.3310 C   0  0  0  0  0  0  0  0  0  0  0  0
   -6.1145   16.4155  -31.3825 H   0  0  0  0  0  0  0  0  0  0  0  0
  1  2  1  0
  2  3  2  0
  3  4  1  0
  3  5  1  0
  5  6  1  0
  6  7  1  0
  6  8  2  0
  8  9  1  0
  8 10  1  0
 10 11  1  0
 11 12  1  0
 11 13  1  0
 11 14  1  0
 14 15  1  0
 14 16  1  0
 14 17  1  0
 17 18  1  0
 17 19  1  0
 17 20  1  0
 20 21  1  0
 20 22  1  0
 20 23  1  0
 23 24  1  0
 23 25  1  0
 23 26  1  0
 26 27  1  0
 26 28  1  0
 26 29  1  0
 10 30  1  0
 30 31  1  0
 31 32  1  0
 31 33  1  0
 31 34  1  0
 34 35  1  0
 34 36  1  0
 34 37  1  0
 37 38  1  0
 37 39  1  0
 37 40  1  0
  2 41  1  0
 41 42  2  0
 42 43  1  0
 42 44  1  0
 44 45  1  0
 44 46  2  0
 46 47  1  0
 46 48  1  0
 48 49  1  0
 48 50  2  0
 50 51  1  0
 30  5  2  0
 50 41  1  0
M  CHG  1  30   1
M  END
>  <UniqueID>  (15) 
15

>  <SMILES>  (15) 
CCCCCCn1ccc(/C=C\c2ccccc2)[n+]1CCC

>  <Energy>  (15) 
82.88780882479693

>  <Genealogy>  (15) 
CCCCCCn1ccc(/C=C\c2ccccc2)[n+]1CCC (cis-trans isomerization)
CCCCCCn1ccc(/C=C\c2ccccc2)[n+]1CCC (3D coordinates assigned)
CCCCCCn1ccc(/C=C\c2ccccc2)[n+]1CCC (optimized conformer: 82.88780882479693 kcal/mol)

>  <smiles>  (15) 
CCCCCCn1ccc(C=Cc2ccccc2)[n+]1CCC

>  <score_type>  (15) 
oracle

>  <origin>  (15) 
adg

>  <m_score__min__energy>  (15) 
-7.0599999999999996

>  <m_primary>  (15) 
energy

$$$$
15:0
     RDKit          3D

122122  0  0  0  0  0  0  0  0999 V2000
   -9.4830   19.8730  -32.5540 C   0  0  0  0  0  0  0  0  0  0  0  0
   -9.0940   20.6670  -31.3080 C   0  0  0  0  0  0  0  0  0  0  0  0
   -8.7430   22.1400  -31.6170 C   0  0  0  0  0  0  0  0  0  0  0  0
   -7.5960   22.7120  -30.7550 C   0  0  0  0  0  0  0  0  0  0  0  0
   -6.8170   23.8380  -31.4550 C   0  0  0  0  0  0  0  0  0  0  0  0
   -6.2170   24.8760  -30.4800 C   0  0  0  0  0  0  0  0  0  0  0  0
   -4.6780   24.9670  -30.4630 C   0  0  0  0  0  0  0  0  0  0  0  0
   -4.0290   24.0580  -29.4090 C   0  0  0  0  0  0  0  0  0  0  0  0
   -3.1590   22.9590  -30.0340 C   0  0  0  0  0  0  0  0  0  0  0  0
   -3.5270   22.6660  -31.4960 C   0  0  0  0  0  0  0  0  0  0  0  0
   -4.3540   21.3830  -31.6410 C   0  0  0  0  0  0  0  0  0  0  0  0
   -4.8810   21.1750  -33.0720 C   0  0  0  0  0  0  0  0  0  0  0  0
   -6.2100   20.4020  -33.1160 C   0  0  0  0  0  0  0  0  0  0  0  0
   -6.0910   19.0880  -33.9350 C   0  0  0  0  0  0  0  0  0  0  0  0
   -6.0560   17.8240  -33.1280 N   0  0  0  0  0  0  0  0  0  0  0  0
   -6.8720   18.0670  -31.9070 C   0  0  0  0  0  0  0  0  0  0  0  0
   -6.6690   16.7090  -33.8930 C   0  0  0  0  0  0  0  0  0  0  0  0
   -4.6310   17.5340  -32.7450 C   0  0  0  0  0  0  0  0  0  0  0  0
   -3.5370   18.3090  -33.5110 C   0  0  0  0  0  0  0  0  0  0  0  0
   -2.3850   17.5070  -33.6960 O   0  0  0  0  0  0  0  0  0  0  0  0
   -2.7290   16.1990  -34.1050 C   0  0  0  0  0  0  0  0  0  0  0  0
   -3.3240   16.1970  -35.5160 C   0  0  0  0  0  0  0  0  0  0  0  0
   -3.3690   14.8850  -36.0550 O   0  0  0  0  0  0  0  0  0  0  0  0
   -2.6670   14.7920  -37.2800 C   0  0  0  0  0  0  0  0  0  0  0  0
   -1.2090   14.4150  -37.0360 C   0  0  0  0  0  0  0  0  0  0  0  0
   -0.9960   14.3230  -35.6430 O   0  0  0  0  0  0  0  0  0  0  0  0
   -0.1650   13.2190  -35.3580 C   0  0  0  0  0  0  0  0  0  0  0  0
    1.1450   13.7280  -34.7740 C   0  0  0  0  0  0  0  0  0  0  0  0
    1.3980   15.0280  -35.2700 O   0  0  0  0  0  0  0  0  0  0  0  0
    1.0770   16.0190  -34.3090 C   0  0  0  0  0  0  0  0  0  0  0  0
    0.2880   17.1640  -34.9330 C   0  0  0  0  0  0  0  0  0  0  0  0
    1.0410   18.3470  -34.8360 O   0  0  0  0  0  0  0  0  0  0  0  0
    1.7030   18.5700  -36.0690 C   0  0  0  0  0  0  0  0  0  0  0  0
    0.9000   19.5250  -36.9440 C   0  0  0  0  0  0  0  0  0  0  0  0
    1.0190   20.8850  -36.4320 N   0  0  0  0  0  0  0  0  0  0  0  0
    0.3010   21.4860  -35.3420 C   0  0  0  0  0  0  0  0  0  0  0  0
    0.6090   22.6610  -35.0090 O   0  0  0  0  0  0  0  0  0  0  0  0
   -0.8280   20.8010  -34.6120 C   0  0  0  0  0  0  0  0  0  0  0  0
   -0.8180   21.1960  -33.1310 C   0  0  0  0  0  0  0  0  0  0  0  0
   -1.1710   20.0690  -32.1310 C   0  0  0  0  0  0  0  0  0  0  0  0
   -0.0610   19.3140  -31.4500 N   0  0  0  0  0  0  0  0  0  0  0  0
    1.2130   19.7060  -32.1170 C   0  0  0  0  0  0  0  0  0  0  0  0
    0.0860   19.5470  -29.9870 C   0  0  0  0  0  0  0  0  0  0  0  0
    0.5290   18.2350  -29.3380 C   0  0  0  0  0  0  0  0  0  0  0  0
    0.4870   17.1850  -30.4280 C   0  0  0  0  0  0  0  0  0  0  0  0
   -0.2220   17.8470  -31.6000 C   0  0  0  0  0  0  0  0  0  0  0  0
   -9.9485   18.9229  -32.2529 H   0  0  0  0  0  0  0  0  0  0  0  0
  -10.1969   20.4574  -33.1531 H   0  0  0  0  0  0  0  0  0  0  0  0
   -8.5838   19.6671  -33.1531 H   0  0  0  0  0  0  0  0  0  0  0  0
   -9.9377   20.6481  -30.6025 H   0  0  0  0  0  0  0  0  0  0  0  0
   -8.1947   20.1959  -30.8846 H   0  0  0  0  0  0  0  0  0  0  0  0
   -8.4477   22.2097  -32.6743 H   0  0  0  0  0  0  0  0  0  0  0  0
   -9.6393   22.7339  -31.3847 H   0  0  0  0  0  0  0  0  0  0  0  0
   -8.0238   23.1097  -29.8229 H   0  0  0  0  0  0  0  0  0  0  0  0
   -6.8876   21.8918  -30.5669 H   0  0  0  0  0  0  0  0  0  0  0  0
   -5.9955   23.3864  -32.0305 H   0  0  0  0  0  0  0  0  0  0  0  0
   -7.5324   24.3742  -32.0958 H   0  0  0  0  0  0  0  0  0  0  0  0
   -6.6109   25.8654  -30.7556 H   0  0  0  0  0  0  0  0  0  0  0  0
   -6.5085   24.5441  -29.4726 H   0  0  0  0  0  0  0  0  0  0  0  0
   -4.2999   24.6776  -31.4546 H   0  0  0  0  0  0  0  0  0  0  0  0
   -4.4150   26.0038  -30.2065 H   0  0  0  0  0  0  0  0  0  0  0  0
   -3.3990   24.6749  -28.7513 H   0  0  0  0  0  0  0  0  0  0  0  0
   -4.8380   23.5653  -28.8497 H   0  0  0  0  0  0  0  0  0  0  0  0
   -2.1072   23.2784  -29.9939 H   0  0  0  0  0  0  0  0  0  0  0  0
   -3.3283   22.0365  -29.4593 H   0  0  0  0  0  0  0  0  0  0  0  0
   -4.1117   23.5104  -31.8898 H   0  0  0  0  0  0  0  0  0  0  0  0
   -2.5914   22.5291  -32.0580 H   0  0  0  0  0  0  0  0  0  0  0  0
   -3.7219   20.5244  -31.3704 H   0  0  0  0  0  0  0  0  0  0  0  0
   -5.2253   21.4722  -30.9756 H   0  0  0  0  0  0  0  0  0  0  0  0
   -5.0331   22.1605  -33.5364 H   0  0  0  0  0  0  0  0  0  0  0  0
   -4.1340   20.5767  -33.6143 H   0  0  0  0  0  0  0  0  0  0  0  0
   -6.5107   20.1536  -32.0875 H   0  0  0  0  0  0  0  0  0  0  0  0
   -6.9592   21.0413  -33.6058 H   0  0  0  0  0  0  0  0  0  0  0  0
   -6.9547   19.0326  -34.6139 H   0  0  0  0  0  0  0  0  0  0  0  0
   -5.1221   19.1421  -34.4529 H   0  0  0  0  0  0  0  0  0  0  0  0
   -6.2577   17.8841  -31.0130 H   0  0  0  0  0  0  0  0  0  0  0  0
   -7.2243   19.1090  -31.9028 H   0  0  0  0  0  0  0  0  0  0  0  0
   -7.7370   17.3875  -31.9028 H   0  0  0  0  0  0  0  0  0  0  0  0
   -7.0778   15.9654  -33.1931 H   0  0  0  0  0  0  0  0  0  0  0  0
   -7.4787   17.1005  -34.5263 H   0  0  0  0  0  0  0  0  0  0  0  0
   -5.9046   16.2351  -34.5263 H   0  0  0  0  0  0  0  0  0  0  0  0
   -4.5188   17.7676  -31.6760 H   0  0  0  0  0  0  0  0  0  0  0  0
   -4.4712   16.4766  -33.0027 H   0  0  0  0  0  0  0  0  0  0  0  0
   -3.9291   18.6082  -34.4942 H   0  0  0  0  0  0  0  0  0  0  0  0
   -3.2572   19.1954  -32.9228 H   0  0  0  0  0  0  0  0  0  0  0  0
   -1.8257   15.5713  -34.0959 H   0  0  0  0  0  0  0  0  0  0  0  0
   -3.4836   15.8041  -33.4088 H   0  0  0  0  0  0  0  0  0  0  0  0
   -4.3457   16.6026  -35.4746 H   0  0  0  0  0  0  0  0  0  0  0  0
   -2.6853   16.8163  -36.1629 H   0  0  0  0  0  0  0  0  0  0  0  0
   -3.1387   14.0231  -37.9095 H   0  0  0  0  0  0  0  0  0  0  0  0
   -2.7011   15.7695  -37.7834 H   0  0  0  0  0  0  0  0  0  0  0  0
   -0.9924   13.4459  -37.5091 H   0  0  0  0  0  0  0  0  0  0  0  0
   -0.5454   15.1781  -37.4687 H   0  0  0  0  0  0  0  0  0  0  0  0
   -0.6623   12.5600  -34.6311 H   0  0  0  0  0  0  0  0  0  0  0  0
    0.0324   12.6524  -36.2799 H   0  0  0  0  0  0  0  0  0  0  0  0
    1.0715   13.7601  -33.6769 H   0  0  0  0  0  0  0  0  0  0  0  0
    1.9659   13.0549  -35.0622 H   0  0  0  0  0  0  0  0  0  0  0  0
    0.4735   15.5616  -33.5111 H   0  0  0  0  0  0  0  0  0  0  0  0
    2.0156   16.4256  -33.9043 H   0  0  0  0  0  0  0  0  0  0  0  0
    0.0882   16.9401  -35.9913 H   0  0  0  0  0  0  0  0  0  0  0  0
   -0.6677   17.2881  -34.4028 H   0  0  0  0  0  0  0  0  0  0  0  0
    2.6941   19.0055  -35.8736 H   0  0  0  0  0  0  0  0  0  0  0  0
    1.8064   17.6093  -36.5948 H   0  0  0  0  0  0  0  0  0  0  0  0
    1.2853   19.4878  -37.9737 H   0  0  0  0  0  0  0  0  0  0  0  0
   -0.1581   19.2245  -36.9322 H   0  0  0  0  0  0  0  0  0  0  0  0
   -1.7861   21.1009  -35.0615 H   0  0  0  0  0  0  0  0  0  0  0  0
   -0.6993   19.7116  -34.6936 H   0  0  0  0  0  0  0  0  0  0  0  0
    0.1903   21.5611  -32.8859 H   0  0  0  0  0  0  0  0  0  0  0  0
   -1.6077   21.9534  -33.0185 H   0  0  0  0  0  0  0  0  0  0  0  0
   -1.7833   20.5236  -31.3383 H   0  0  0  0  0  0  0  0  0  0  0  0
   -1.6576   19.3074  -32.7580 H   0  0  0  0  0  0  0  0  0  0  0  0
    1.9700   19.9389  -31.3536 H   0  0  0  0  0  0  0  0  0  0  0  0
    1.5688   18.8758  -32.7448 H   0  0  0  0  0  0  0  0  0  0  0  0
    1.0405   20.5926  -32.7448 H   0  0  0  0  0  0  0  0  0  0  0  0
    0.8423   20.3254  -29.8078 H   0  0  0  0  0  0  0  0  0  0  0  0
   -0.8698   19.8808  -29.5568 H   0  0  0  0  0  0  0  0  0  0  0  0
    1.5507   18.3321  -28.9421 H   0  0  0  0  0  0  0  0  0  0  0  0
   -0.1264   17.9642  -28.4971 H   0  0  0  0  0  0  0  0  0  0  0  0
    1.5063   16.8862  -30.7139 H   0  0  0  0  0  0  0  0  0  0  0  0
   -0.0325   16.2733  -30.0978 H   0  0  0  0  0  0  0  0  0  0  0  0
    0.2284   17.5150  -32.5471 H   0  0  0  0  0  0  0  0  0  0  0  0
   -1.2876   17.5741  -31.6114 H   0  0  0  0  0  0  0  0  0  0  0  0
  1  2  1  0
  2  3  1  0
  3  4  1  0
  4  5  1  0
  5  6  1  0
  6  7  1  0
  7  8  1  0
  8  9  1  0
  9 10  1  0
 10 11  1  0
 11 12  1  0
 12 13  1  0
 13 14  1  0
 14 15  1  0
 15 16  1  0
 15 17  1  0
 15 18  1  0
 18 19  1  0
 19 20  1  0
 20 21  1  0
 21 22  1  0
 22 23  1  0
 23 24  1  0
 24 25  1  0
 25 26  1  0
 26 27  1  0
 27 28  1  0
 28 29  1  0
 29 30  1  0
 30 31  1  0
 31 32  1  0
 32 33  1  0
 33 34  1  0
 34 35  1  0
 35 36  1  0
 36 37  2  0
 36 38  1  0
 38 39  1  0
 39 40  1  0
 40 41  1  0
 41 42  1  0
 41 43  1  0
 43 44  1  0
 44 45  1  0
 45 46  1  0
 46 41  1  0
  1 47  1  0
  1 48  1  0
  1 49  1  0
  2 50  1  0
  2 51  1  0
  3 52  1  0
  3 53  1  0
  4 54  1  0
  4 55  1  0
  5 56  1  0
  5 57  1  0
  6 58  1  0
  6 59  1  0
  7 60  1  0
  7 61  1  0
  8 62  1  0
  8 63  1  0
  9 64  1  0
  9 65  1  0
 10 66  1  0
 10 67  1  0
 11 68  1  0
 11 69  1  0
 12 70  1  0
 12 71  1  0
 13 72  1  0
 13 73  1  0
 14 74  1  0
 14 75  1  0
 16 76  1  0
 16 77  1  0
 16 78  1  0
 17 79  1  0
 17 80  1  0
 17 81  1  0
 18 82  1  0
 18 83  1  0
 19 84  1  0
 19 85  1  0
 21 86  1  0
 21 87  1  0
 22 88  1  0
 22 89  1  0
 24 90  1  0
 24 91  1  0
 25 92  1  0
 25 93  1  0
 27 94  1  0
 27 95  1  0
 28 96  1  0
 28 97  1  0
 30 98  1  0
 30 99  1  0
 31100  1  0
 31101  1  0
 33102  1  0
 33103  1  0
 34104  1  0
 34105  1  0
 38106  1  0
 38107  1  0
 39108  1  0
 39109  1  0
 40110  1  0
 40111  1  0
 42112  1  0
 42113  1  0
 42114  1  0
 43115  1  0
 43116  1  0
 44117  1  0
 44118  1  0
 45119  1  0
 45120  1  0
 46121  1  0
 46122  1  0
M  CHG  3  15   1  35  -1  41   1
M  END
>  <UniqueID>  (16) 
16

>  <SMILES>  (16) 
CCCCCCCCCCCCCC[N+](C)(C)CCOCCOCCOCCOCCOCC[N-]C(=O)CCC[N+]1(C)CCCC1

>  <Energy>  (16) 
132.317980335454

>  <Genealogy>  (16) 
CCCCCCCCCCCCCC[N+](C)(C)CCOCCOCCOCCOCCOCC[N-]C(=O)CCC[N+]1(C)CCCC1 (protonated)
CCCCCCCCCCCCCC[N+](C)(C)CCOCCOCCOCCOCCOCC[N-]C(=O)CCC[N+]1(C)CCCC1 (3D coordinates assigned)
CCCCCCCCCCCCCC[N+](C)(C)CCOCCOCCOCCOCCOCC[N-]C(=O)CCC[N+]1(C)CCCC1 (nonaromatic ring conformer: 132.317980335454 kcal/mol)

>  <smiles>  (16) 
CCCCCCCCCCCCCC[N+](C)(C)CCOCCOCCOCCOCCOCCNC(=O)CCC[N+]1(C)CCCC1

>  <score_type>  (16) 
oracle

>  <origin>  (16) 
adg

>  <m_score__min__energy>  (16) 
-7.7199999999999998

>  <m_primary>  (16) 
energy

$$$$
16:0
     RDKit          3D

 41 44  0  0  0  0  0  0  0  0999 V2000
   -6.4900   17.1190  -34.2310 C   0  0  0  0  0  0  0  0  0  0  0  0
   -6.8120   16.9450  -32.8660 C   0  0  0  0  0  0  0  0  0  0  0  0
   -6.2290   17.7700  -31.8860 C   0  0  0  0  0  0  0  0  0  0  0  0
   -5.3330   18.7460  -32.3140 C   0  0  0  0  0  0  0  0  0  0  0  0
   -4.6710   19.6380  -31.5630 N   0  0  0  0  0  0  0  0  0  0  0  0
   -3.9530   20.3250  -32.4910 C   0  0  0  0  0  0  0  0  0  0  0  0
   -3.0750   21.4830  -32.1350 C   0  0  0  0  0  0  0  0  0  0  0  0
   -3.4730   22.0530  -30.7700 C   0  0  0  0  0  0  0  0  0  0  0  0
   -4.3370   23.2790  -30.8940 C   0  0  0  0  0  0  0  0  0  0  0  0
   -3.8870   24.5490  -30.8430 N   0  0  0  0  0  0  0  0  0  0  0  0
   -4.9630   25.3060  -31.0110 N   0  0  0  0  0  0  0  0  0  0  0  0
   -6.0340   24.5420  -31.1690 N   0  0  0  0  0  0  0  0  0  0  0  0
   -5.6640   23.2740  -31.1200 N   0  0  0  0  0  0  0  0  0  0  0  0
   -6.5740   22.1260  -31.1850 C   0  0  0  0  0  0  0  0  0  0  0  0
   -7.0110   21.8530  -32.6350 C   0  0  0  0  0  0  0  0  0  0  0  0
   -7.8850   20.5860  -32.7340 C   0  0  0  0  0  0  0  0  0  0  0  0
   -8.7070   20.3040  -31.4600 C   0  0  0  0  0  0  0  0  0  0  0  0
   -9.0590   21.5960  -30.7130 C   0  0  0  0  0  0  0  0  0  0  0  0
   -7.7960   22.3630  -30.2680 C   0  0  0  0  0  0  0  0  0  0  0  0
   -4.1470   19.9190  -33.7740 N   0  0  0  0  0  0  0  0  0  0  0  0
   -5.0220   18.9150  -33.6290 C   0  0  0  0  0  0  0  0  0  0  0  0
   -5.5810   18.1200  -34.6260 C   0  0  0  0  0  0  0  0  0  0  0  0
   -6.9517   16.4693  -34.9891 H   0  0  0  0  0  0  0  0  0  0  0  0
   -7.5225   16.1601  -32.5677 H   0  0  0  0  0  0  0  0  0  0  0  0
   -6.4725   17.6481  -30.8202 H   0  0  0  0  0  0  0  0  0  0  0  0
   -2.0285   21.1463  -32.0964 H   0  0  0  0  0  0  0  0  0  0  0  0
   -3.1910   22.2673  -32.8975 H   0  0  0  0  0  0  0  0  0  0  0  0
   -4.0282   21.2836  -30.2134 H   0  0  0  0  0  0  0  0  0  0  0  0
   -2.5513   22.3422  -30.2439 H   0  0  0  0  0  0  0  0  0  0  0  0
   -6.0402   21.2335  -30.8264 H   0  0  0  0  0  0  0  0  0  0  0  0
   -7.5878   22.7145  -33.0025 H   0  0  0  0  0  0  0  0  0  0  0  0
   -6.1080   21.6973  -33.2436 H   0  0  0  0  0  0  0  0  0  0  0  0
   -8.5807   20.7081  -33.5772 H   0  0  0  0  0  0  0  0  0  0  0  0
   -7.2040   19.7337  -32.8747 H   0  0  0  0  0  0  0  0  0  0  0  0
   -9.6381   19.7912  -31.7430 H   0  0  0  0  0  0  0  0  0  0  0  0
   -8.0984   19.6771  -30.7917 H   0  0  0  0  0  0  0  0  0  0  0  0
   -9.6518   22.2415  -31.3778 H   0  0  0  0  0  0  0  0  0  0  0  0
   -9.6298   21.3256  -29.8124 H   0  0  0  0  0  0  0  0  0  0  0  0
   -8.0253   23.4388  -30.2649 H   0  0  0  0  0  0  0  0  0  0  0  0
   -7.5271   21.9903  -29.2686 H   0  0  0  0  0  0  0  0  0  0  0  0
   -5.3220   18.2683  -35.6847 H   0  0  0  0  0  0  0  0  0  0  0  0
  1  2  2  0
  2  3  1  0
  3  4  2  0
  4  5  1  0
  5  6  1  0
  6  7  1  0
  7  8  1  0
  8  9  1  0
  9 10  2  0
 10 11  1  0
 11 12  2  0
 12 13  1  0
 13 14  1  0
 14 15  1  0
 15 16  1  0
 16 17  1  0
 17 18  1  0
 18 19  1  0
  6 20  2  0
 20 21  1  0
 21 22  2  0
 22  1  1  0
 21  4  1  0
 13  9  1  0
 19 14  1  0
  1 23  1  0
  2 24  1  0
  3 25  1  0
  7 26  1  0
  7 27  1  0
  8 28  1  0
  8 29  1  0
 14 30  1  0
 15 31  1  0
 15 32  1  0
 16 33  1  0
 16 34  1  0
 17 35  1  0
 17 36  1  0
 18 37  1  0
 18 38  1  0
 19 39  1  0
 19 40  1  0
 22 41  1  0
M  CHG  1   5  -1
M  END
>  <UniqueID>  (17) 
17

>  <SMILES>  (17) 
c1ccc2[n-]c(CCc3nnnn3C3CCCCC3)nc2c1

>  <Energy>  (17) 
116.72927770588339

>  <Genealogy>  (17) 
c1ccc2[n-]c(CCc3nnnn3C3CCCCC3)nc2c1 (protonated)
c1ccc2[n-]c(CCc3nnnn3C3CCCCC3)nc2c1 (3D coordinates assigned)
c1ccc2[n-]c(CCc3nnnn3C3CCCCC3)nc2c1 (nonaromatic ring conformer: 116.72927770588339 kcal/mol)

>  <smiles>  (17) 
c1ccc2[nH]c(CCc3nnnn3C3CCCCC3)nc2c1

>  <score_type>  (17) 
oracle

>  <origin>  (17) 
adg

>  <m_score__min__energy>  (17) 
-10.109999999999999

>  <m_primary>  (17) 
energy

$$$$
17:0
     RDKit          3D

 63 65  0  0  0  0  0  0  0  0999 V2000
   -2.6810   21.0620  -29.8570 C   0  0  0  0  0  0  0  0  0  0  0  0
   -2.1370   22.4660  -30.1590 C   0  0  0  0  0  0  0  0  0  0  0  0
   -3.1580   23.5440  -30.1030 N   0  0  0  0  0  0  0  0  0  0  0  0
   -3.0180   24.3560  -28.8710 C   0  0  0  0  0  0  0  0  0  0  0  0
   -4.1610   24.0820  -27.8950 C   0  0  0  0  0  0  0  0  0  0  0  0
   -4.5520   23.0620  -30.2640 C   0  0  0  0  0  0  0  0  0  0  0  0
   -5.3250   23.7770  -31.3840 C   0  0  0  0  0  0  0  0  0  0  0  0
   -5.3220   23.0140  -32.6380 N   0  0  0  0  0  0  0  0  0  0  0  0
   -5.5890   21.5980  -32.6950 C   0  0  0  0  0  0  0  0  0  0  0  0
   -6.8770   21.1000  -32.4220 C   0  0  0  0  0  0  0  0  0  0  0  0
   -7.8860   21.9350  -31.8940 C   0  0  0  0  0  0  0  0  0  0  0  0
   -9.1870   21.4670  -31.7330 C   0  0  0  0  0  0  0  0  0  0  0  0
   -9.5020   20.1610  -32.0820 C   0  0  0  0  0  0  0  0  0  0  0  0
   -8.5060   19.2940  -32.5280 C   0  0  0  0  0  0  0  0  0  0  0  0
   -7.1570   19.7250  -32.6390 C   0  0  0  0  0  0  0  0  0  0  0  0
   -6.1340   18.8460  -32.9380 N   0  0  0  0  0  0  0  0  0  0  0  0
   -6.3730   17.3850  -32.8720 C   0  0  0  0  0  0  0  0  0  0  0  0
   -4.8690   19.3250  -33.2310 C   0  0  0  0  0  0  0  0  0  0  0  0
   -3.8430   18.4710  -33.7060 C   0  0  0  0  0  0  0  0  0  0  0  0
   -2.5430   18.9330  -33.8880 C   0  0  0  0  0  0  0  0  0  0  0  0
   -2.2160   20.2720  -33.6480 C   0  0  0  0  0  0  0  0  0  0  0  0
   -0.8470   20.7400  -33.7810 N   0  0  0  0  0  0  0  0  0  0  0  0
   -0.1590   20.7510  -35.0870 C   0  0  0  0  0  0  0  0  0  0  0  0
    0.2520   22.1680  -35.4800 C   0  0  0  0  0  0  0  0  0  0  0  0
   -0.0940   21.1820  -32.5980 C   0  0  0  0  0  0  0  0  0  0  0  0
    0.1630   20.0110  -31.6570 C   0  0  0  0  0  0  0  0  0  0  0  0
   -3.2460   21.1550  -33.2770 C   0  0  0  0  0  0  0  0  0  0  0  0
   -4.5670   20.7010  -33.0690 C   0  0  0  0  0  0  0  0  0  0  0  0
   -2.7372   20.9170  -28.7681 H   0  0  0  0  0  0  0  0  0  0  0  0
   -3.6852   20.9562  -30.2933 H   0  0  0  0  0  0  0  0  0  0  0  0
   -2.0103   20.3072  -30.2933 H   0  0  0  0  0  0  0  0  0  0  0  0
   -1.3522   22.6966  -29.4235 H   0  0  0  0  0  0  0  0  0  0  0  0
   -1.7616   22.4420  -31.1927 H   0  0  0  0  0  0  0  0  0  0  0  0
   -2.0634   24.1075  -28.3842 H   0  0  0  0  0  0  0  0  0  0  0  0
   -3.0462   25.4196  -29.1501 H   0  0  0  0  0  0  0  0  0  0  0  0
   -3.7910   24.1707  -26.8629 H   0  0  0  0  0  0  0  0  0  0  0  0
   -4.9668   24.8124  -28.0597 H   0  0  0  0  0  0  0  0  0  0  0  0
   -4.5481   23.0656  -28.0597 H   0  0  0  0  0  0  0  0  0  0  0  0
   -4.5238   21.9864  -30.4928 H   0  0  0  0  0  0  0  0  0  0  0  0
   -5.0780   23.2757  -29.3218 H   0  0  0  0  0  0  0  0  0  0  0  0
   -6.3663   23.9201  -31.0595 H   0  0  0  0  0  0  0  0  0  0  0  0
   -4.8277   24.7395  -31.5746 H   0  0  0  0  0  0  0  0  0  0  0  0
   -5.1830   23.5330  -33.5330 H   0  0  0  0  0  0  0  0  0  0  0  0
   -7.6408   22.9680  -31.6064 H   0  0  0  0  0  0  0  0  0  0  0  0
   -9.9650   22.1317  -31.3294 H   0  0  0  0  0  0  0  0  0  0  0  0
  -10.5414   19.8090  -32.0063 H   0  0  0  0  0  0  0  0  0  0  0  0
   -8.7685   18.2605  -32.7981 H   0  0  0  0  0  0  0  0  0  0  0  0
   -6.4247   17.0691  -31.8196 H   0  0  0  0  0  0  0  0  0  0  0  0
   -7.3222   17.1457  -33.3737 H   0  0  0  0  0  0  0  0  0  0  0  0
   -5.5495   16.8557  -33.3737 H   0  0  0  0  0  0  0  0  0  0  0  0
   -4.0789   17.4214  -33.9356 H   0  0  0  0  0  0  0  0  0  0  0  0
   -1.7618   18.2359  -34.2252 H   0  0  0  0  0  0  0  0  0  0  0  0
    0.7401   20.1204  -35.0247 H   0  0  0  0  0  0  0  0  0  0  0  0
   -0.8508   20.3638  -35.8495 H   0  0  0  0  0  0  0  0  0  0  0  0
    0.4251   22.7647  -34.5722 H   0  0  0  0  0  0  0  0  0  0  0  0
    1.1761   22.1299  -36.0755 H   0  0  0  0  0  0  0  0  0  0  0  0
   -0.5491   22.6303  -36.0755 H   0  0  0  0  0  0  0  0  0  0  0  0
    0.8690   21.6052  -32.9198 H   0  0  0  0  0  0  0  0  0  0  0  0
   -0.6847   21.9418  -32.0653 H   0  0  0  0  0  0  0  0  0  0  0  0
    0.0876   20.3547  -30.6148 H   0  0  0  0  0  0  0  0  0  0  0  0
   -0.5838   19.2240  -31.8385 H   0  0  0  0  0  0  0  0  0  0  0  0
    1.1707   19.6091  -31.8385 H   0  0  0  0  0  0  0  0  0  0  0  0
   -3.0175   22.2230  -33.1459 H   0  0  0  0  0  0  0  0  0  0  0  0
  1  2  1  0
  2  3  1  0
  3  4  1  0
  4  5  1  0
  3  6  1  0
  6  7  1  0
  7  8  1  0
  8  9  1  0
  9 10  2  0
 10 11  1  0
 11 12  2  0
 12 13  1  0
 13 14  2  0
 14 15  1  0
 15 16  2  0
 16 17  1  0
 16 18  1  0
 18 19  2  0
 19 20  1  0
 20 21  2  0
 21 22  1  0
 22 23  1  0
 23 24  1  0
 22 25  1  0
 25 26  1  0
 21 27  1  0
 27 28  2  0
 28  9  1  0
 15 10  1  0
 28 18  1  0
  1 29  1  0
  1 30  1  0
  1 31  1  0
  2 32  1  0
  2 33  1  0
  4 34  1  0
  4 35  1  0
  5 36  1  0
  5 37  1  0
  5 38  1  0
  6 39  1  0
  6 40  1  0
  7 41  1  0
  7 42  1  0
  8 43  1  0
 11 44  1  0
 12 45  1  0
 13 46  1  0
 14 47  1  0
 17 48  1  0
 17 49  1  0
 17 50  1  0
 19 51  1  0
 20 52  1  0
 23 53  1  0
 23 54  1  0
 24 55  1  0
 24 56  1  0
 24 57  1  0
 25 58  1  0
 25 59  1  0
 26 60  1  0
 26 61  1  0
 26 62  1  0
 27 63  1  0
M  CHG  1  16   1
M  END
>  <UniqueID>  (18) 
18

>  <SMILES>  (18) 
CCN(CC)CCNc1c2ccccc2[n+](C)c2ccc(N(CC)CC)cc12

>  <Energy>  (18) 
86.04702595046854

>  <Genealogy>  (18) 
CCN(CC)CCNc1c2ccccc2[n+](C)c2ccc(N(CC)CC)cc12 (3D coordinates assigned)
CCN(CC)CCNc1c2ccccc2[n+](C)c2ccc(N(CC)CC)cc12 (optimized conformer: 86.04702595046854 kcal/mol)

>  <smiles>  (18) 
CCN(CC)CCNc1c2ccccc2[n+](C)c2ccc(N(CC)CC)cc12

>  <score_type>  (18) 
oracle

>  <origin>  (18) 
adg

>  <m_score__min__energy>  (18) 
-8.4199999999999999

>  <m_primary>  (18) 
energy

$$$$
18:0
     RDKit          3D

123122  0  0  0  0  0  0  0  0999 V2000
   -3.5950   17.8190  -34.4920 C   0  0  0  0  0  0  0  0  0  0  0  0
   -5.0810   17.5670  -34.7640 C   0  0  0  0  0  0  0  0  0  0  0  0
   -5.6930   16.4900  -33.8480 C   0  0  0  0  0  0  0  0  0  0  0  0
   -6.9750   16.9010  -33.0980 C   0  0  0  0  0  0  0  0  0  0  0  0
   -6.7040   17.7510  -31.8430 C   0  0  0  0  0  0  0  0  0  0  0  0
   -7.8800   18.6930  -31.5390 C   0  0  0  0  0  0  0  0  0  0  0  0
   -8.1400   19.6430  -32.7200 C   0  0  0  0  0  0  0  0  0  0  0  0
   -6.8490   20.0700  -33.4380 C   0  0  0  0  0  0  0  0  0  0  0  0
   -5.9810   21.0820  -32.6600 C   0  0  0  0  0  0  0  0  0  0  0  0
   -4.7430   20.4480  -31.9900 C   0  0  0  0  0  0  0  0  0  0  0  0
   -3.4460   20.7100  -32.7720 C   0  0  0  0  0  0  0  0  0  0  0  0
   -2.6770   21.9050  -32.1800 C   0  0  0  0  0  0  0  0  0  0  0  0
   -1.4120   21.4920  -31.4050 C   0  0  0  0  0  0  0  0  0  0  0  0
   -0.1610   21.0720  -32.2400 C   0  0  0  0  0  0  0  0  0  0  0  0
    0.1250   19.5970  -32.3990 N   0  0  0  0  0  0  0  0  0  0  0  0
    1.6030   19.4450  -32.4310 C   0  0  0  0  0  0  0  0  0  0  0  0
   -0.4180   19.0780  -33.6810 C   0  0  0  0  0  0  0  0  0  0  0  0
   -0.3970   18.8480  -31.2100 C   0  0  0  0  0  0  0  0  0  0  0  0
    0.2850   19.1680  -29.8610 C   0  0  0  0  0  0  0  0  0  0  0  0
   -0.5860   18.7140  -28.6800 C   0  0  0  0  0  0  0  0  0  0  0  0
   -0.7410   19.8350  -27.6430 C   0  0  0  0  0  0  0  0  0  0  0  0
    0.3350   20.9250  -27.7920 C   0  0  0  0  0  0  0  0  0  0  0  0
   -0.2270   22.3330  -27.5480 C   0  0  0  0  0  0  0  0  0  0  0  0
   -1.1990   22.3550  -26.3570 C   0  0  0  0  0  0  0  0  0  0  0  0
   -0.4850   22.3770  -24.9950 C   0  0  0  0  0  0  0  0  0  0  0  0
   -0.4850   23.7780  -24.3560 C   0  0  0  0  0  0  0  0  0  0  0  0
    0.3110   24.8330  -25.1740 C   0  0  0  0  0  0  0  0  0  0  0  0
   -0.1490   26.2620  -25.0780 N   0  0  0  0  0  0  0  0  0  0  0  0
   -0.6290   26.5620  -23.7000 C   0  0  0  0  0  0  0  0  0  0  0  0
    0.9820   27.1660  -25.4070 C   0  0  0  0  0  0  0  0  0  0  0  0
   -1.3110   26.4290  -26.0310 C   0  0  0  0  0  0  0  0  0  0  0  0
   -1.2120   25.7000  -27.3520 C   0  0  0  0  0  0  0  0  0  0  0  0
   -0.0690   25.4900  -27.8440 O   0  0  0  0  0  0  0  0  0  0  0  0
   -2.3770   25.1970  -28.0160 N   0  0  0  0  0  0  0  0  0  0  0  0
   -2.2790   24.3450  -29.2040 C   0  0  0  0  0  0  0  0  0  0  0  0
   -3.0440   23.0280  -29.0030 C   0  0  0  0  0  0  0  0  0  0  0  0
   -4.5660   23.2350  -29.1310 C   0  0  0  0  0  0  0  0  0  0  0  0
   -4.9410   24.1570  -30.3050 C   0  0  0  0  0  0  0  0  0  0  0  0
   -6.4150   24.0320  -30.7450 C   0  0  0  0  0  0  0  0  0  0  0  0
   -7.2040   22.9670  -29.9480 C   0  0  0  0  0  0  0  0  0  0  0  0
   -8.3280   22.2920  -30.7550 C   0  0  0  0  0  0  0  0  0  0  0  0
   -8.7180   23.0730  -32.0080 C   0  0  0  0  0  0  0  0  0  0  0  0
   -3.4208   17.8485  -33.4063 H   0  0  0  0  0  0  0  0  0  0  0  0
   -2.9983   17.0092  -34.9372 H   0  0  0  0  0  0  0  0  0  0  0  0
   -3.2986   18.7802  -34.9372 H   0  0  0  0  0  0  0  0  0  0  0  0
   -5.6288   18.5085  -34.6106 H   0  0  0  0  0  0  0  0  0  0  0  0
   -5.1661   17.2024  -35.7983 H   0  0  0  0  0  0  0  0  0  0  0  0
   -5.9308   15.6136  -34.4688 H   0  0  0  0  0  0  0  0  0  0  0  0
   -4.9401   16.2945  -33.0703 H   0  0  0  0  0  0  0  0  0  0  0  0
   -7.6083   17.4834  -33.7834 H   0  0  0  0  0  0  0  0  0  0  0  0
   -7.4660   15.9753  -32.7632 H   0  0  0  0  0  0  0  0  0  0  0  0
   -6.5502   17.0816  -30.9837 H   0  0  0  0  0  0  0  0  0  0  0  0
   -5.8085   18.3631  -32.0261 H   0  0  0  0  0  0  0  0  0  0  0  0
   -8.7833   18.0934  -31.3532 H   0  0  0  0  0  0  0  0  0  0  0  0
   -7.6295   19.2940  -30.6524 H   0  0  0  0  0  0  0  0  0  0  0  0
   -8.7924   19.1329  -33.4441 H   0  0  0  0  0  0  0  0  0  0  0  0
   -8.6099   20.5519  -32.3161 H   0  0  0  0  0  0  0  0  0  0  0  0
   -6.2445   19.1692  -33.6200 H   0  0  0  0  0  0  0  0  0  0  0  0
   -7.1617   20.5765  -34.3630 H   0  0  0  0  0  0  0  0  0  0  0  0
   -5.6382   21.8573  -33.3610 H   0  0  0  0  0  0  0  0  0  0  0  0
   -6.6081   21.4932  -31.8553 H   0  0  0  0  0  0  0  0  0  0  0  0
   -4.6357   20.8687  -30.9793 H   0  0  0  0  0  0  0  0  0  0  0  0
   -4.9006   19.3597  -31.9629 H   0  0  0  0  0  0  0  0  0  0  0  0
   -2.8100   19.8138  -32.7245 H   0  0  0  0  0  0  0  0  0  0  0  0
   -3.7065   20.9427  -33.8151 H   0  0  0  0  0  0  0  0  0  0  0  0
   -2.3801   22.5714  -33.0032 H   0  0  0  0  0  0  0  0  0  0  0  0
   -3.3488   22.4028  -31.4653 H   0  0  0  0  0  0  0  0  0  0  0  0
   -1.1174   22.3451  -30.7762 H   0  0  0  0  0  0  0  0  0  0  0  0
   -1.7023   20.5830  -30.8579 H   0  0  0  0  0  0  0  0  0  0  0  0
   -0.2860   21.4913  -33.2493 H   0  0  0  0  0  0  0  0  0  0  0  0
    0.6941   21.4565  -31.6647 H   0  0  0  0  0  0  0  0  0  0  0  0
    1.9899   19.4052  -31.4020 H   0  0  0  0  0  0  0  0  0  0  0  0
    1.8647   18.5152  -32.9573 H   0  0  0  0  0  0  0  0  0  0  0  0
    2.0484   20.3021  -32.9573 H   0  0  0  0  0  0  0  0  0  0  0  0
   -1.1989   18.3317  -33.4731 H   0  0  0  0  0  0  0  0  0  0  0  0
   -0.8491   19.9083  -34.2595 H   0  0  0  0  0  0  0  0  0  0  0  0
    0.3920   18.6098  -34.2595 H   0  0  0  0  0  0  0  0  0  0  0  0
   -1.4680   19.0782  -31.1097 H   0  0  0  0  0  0  0  0  0  0  0  0
   -0.1839   17.7872  -31.4082 H   0  0  0  0  0  0  0  0  0  0  0  0
    1.2526   18.6469  -29.8150 H   0  0  0  0  0  0  0  0  0  0  0  0
    0.4285   20.2564  -29.7914 H   0  0  0  0  0  0  0  0  0  0  0  0
   -1.5808   18.4319  -29.0552 H   0  0  0  0  0  0  0  0  0  0  0  0
   -0.0971   17.8559  -28.1956 H   0  0  0  0  0  0  0  0  0  0  0  0
   -1.7315   20.2970  -27.7676 H   0  0  0  0  0  0  0  0  0  0  0  0
   -0.6281   19.3865  -26.6449 H   0  0  0  0  0  0  0  0  0  0  0  0
    1.1370   20.7328  -27.0641 H   0  0  0  0  0  0  0  0  0  0  0  0
    0.7132   20.8869  -28.8242 H   0  0  0  0  0  0  0  0  0  0  0  0
    0.6071   23.0195  -27.3409 H   0  0  0  0  0  0  0  0  0  0  0  0
   -0.7777   22.6447  -28.4478 H   0  0  0  0  0  0  0  0  0  0  0  0
   -1.8293   23.2530  -26.4362 H   0  0  0  0  0  0  0  0  0  0  0  0
   -1.7923   21.4297  -26.4011 H   0  0  0  0  0  0  0  0  0  0  0  0
   -0.9969   21.6789  -24.3163 H   0  0  0  0  0  0  0  0  0  0  0  0
    0.5621   22.0831  -25.1599 H   0  0  0  0  0  0  0  0  0  0  0  0
   -1.5267   24.1200  -24.2671 H   0  0  0  0  0  0  0  0  0  0  0  0
    0.0094   23.6872  -23.3776 H   0  0  0  0  0  0  0  0  0  0  0  0
    1.3562   24.7974  -24.8330 H   0  0  0  0  0  0  0  0  0  0  0  0
    0.1564   24.5537  -26.2267 H   0  0  0  0  0  0  0  0  0  0  0  0
    0.0664   26.1274  -22.9668 H   0  0  0  0  0  0  0  0  0  0  0  0
   -0.6779   27.6517  -23.5579 H   0  0  0  0  0  0  0  0  0  0  0  0
   -1.6299   26.1284  -23.5579 H   0  0  0  0  0  0  0  0  0  0  0  0
    1.4408   27.5327  -24.4769 H   0  0  0  0  0  0  0  0  0  0  0  0
    1.7323   26.6159  -25.9939 H   0  0  0  0  0  0  0  0  0  0  0  0
    0.6108   28.0191  -25.9939 H   0  0  0  0  0  0  0  0  0  0  0  0
   -2.2166   26.0713  -25.5193 H   0  0  0  0  0  0  0  0  0  0  0  0
   -1.3234   27.4981  -26.2894 H   0  0  0  0  0  0  0  0  0  0  0  0
   -3.3240   25.4270  -27.6350 H   0  0  0  0  0  0  0  0  0  0  0  0
   -2.7043   24.8798  -30.0660 H   0  0  0  0  0  0  0  0  0  0  0  0
   -1.2188   24.1105  -29.3800 H   0  0  0  0  0  0  0  0  0  0  0  0
   -2.7162   22.3043  -29.7638 H   0  0  0  0  0  0  0  0  0  0  0  0
   -2.8299   22.6549  -27.9906 H   0  0  0  0  0  0  0  0  0  0  0  0
   -5.0430   22.2559  -29.2856 H   0  0  0  0  0  0  0  0  0  0  0  0
   -4.9161   23.7150  -28.2052 H   0  0  0  0  0  0  0  0  0  0  0  0
   -4.7561   25.1981  -30.0019 H   0  0  0  0  0  0  0  0  0  0  0  0
   -4.3225   23.8537  -31.1626 H   0  0  0  0  0  0  0  0  0  0  0  0
   -6.9050   25.0068  -30.6047 H   0  0  0  0  0  0  0  0  0  0  0  0
   -6.4144   23.7157  -31.7986 H   0  0  0  0  0  0  0  0  0  0  0  0
   -6.4997   22.1894  -29.6172 H   0  0  0  0  0  0  0  0  0  0  0  0
   -7.6831   23.4876  -29.1058 H   0  0  0  0  0  0  0  0  0  0  0  0
   -7.9884   21.2906  -31.0582 H   0  0  0  0  0  0  0  0  0  0  0  0
   -9.2157   22.2472  -30.1069 H   0  0  0  0  0  0  0  0  0  0  0  0
   -9.1918   24.0218  -31.7160 H   0  0  0  0  0  0  0  0  0  0  0  0
   -7.8180   23.2811  -32.6053 H   0  0  0  0  0  0  0  0  0  0  0  0
   -9.4251   22.4786  -32.6053 H   0  0  0  0  0  0  0  0  0  0  0  0
  1  2  1  0
  2  3  1  0
  3  4  1  0
  4  5  1  0
  5  6  1  0
  6  7  1  0
  7  8  1  0
  8  9  1  0
  9 10  1  0
 10 11  1  0
 11 12  1  0
 12 13  1  0
 13 14  1  0
 14 15  1  0
 15 16  1  0
 15 17  1  0
 15 18  1  0
 18 19  1  0
 19 20  1  0
 20 21  1  0
 21 22  1  0
 22 23  1  0
 23 24  1  0
 24 25  1  0
 25 26  1  0
 26 27  1  0
 27 28  1  0
 28 29  1  0
 28 30  1  0
 28 31  1  0
 31 32  1  0
 32 33  2  0
 32 34  1  0
 34 35  1  0
 35 36  1  0
 36 37  1  0
 37 38  1  0
 38 39  1  0
 39 40  1  0
 40 41  1  0
 41 42  1  0
  1 43  1  0
  1 44  1  0
  1 45  1  0
  2 46  1  0
  2 47  1  0
  3 48  1  0
  3 49  1  0
  4 50  1  0
  4 51  1  0
  5 52  1  0
  5 53  1  0
  6 54  1  0
  6 55  1  0
  7 56  1  0
  7 57  1  0
  8 58  1  0
  8 59  1  0
  9 60  1  0
  9 61  1  0
 10 62  1  0
 10 63  1  0
 11 64  1  0
 11 65  1  0
 12 66  1  0
 12 67  1  0
 13 68  1  0
 13 69  1  0
 14 70  1  0
 14 71  1  0
 16 72  1  0
 16 73  1  0
 16 74  1  0
 17 75  1  0
 17 76  1  0
 17 77  1  0
 18 78  1  0
 18 79  1  0
 19 80  1  0
 19 81  1  0
 20 82  1  0
 20 83  1  0
 21 84  1  0
 21 85  1  0
 22 86  1  0
 22 87  1  0
 23 88  1  0
 23 89  1  0
 24 90  1  0
 24 91  1  0
 25 92  1  0
 25 93  1  0
 26 94  1  0
 26 95  1  0
 27 96  1  0
 27 97  1  0
 29 98  1  0
 29 99  1  0
 29100  1  0
 30101  1  0
 30102  1  0
 30103  1  0
 31104  1  0
 31105  1  0
 34106  1  0
 35107  1  0
 35108  1  0
 36109  1  0
 36110  1  0
 37111  1  0
 37112  1  0
 38113  1  0
 38114  1  0
 39115  1  0
 39116  1  0
 40117  1  0
 40118  1  0
 41119  1  0
 41120  1  0
 42121  1  0
 42122  1  0
 42123  1  0
M  CHG  2  15   1  28   1
M  END
>  <UniqueID>  (19) 
19

>  <SMILES>  (19) 
CCCCCCCCCCCCCC[N+](C)(C)CCCCCCCCCC[N+](C)(C)CC(=O)NCCCCCCCC

>  <Energy>  (19) 
104.20010134524485

>  <Genealogy>  (19) 
CCCCCCCCCCCCCC[N+](C)(C)CCCCCCCCCC[N+](C)(C)CC(=O)NCCCCCCCC (3D coordinates assigned)
CCCCCCCCCCCCCC[N+](C)(C)CCCCCCCCCC[N+](C)(C)CC(=O)NCCCCCCCC (optimized conformer: 104.20010134524485 kcal/mol)

>  <smiles>  (19) 
CCCCCCCCCCCCCC[N+](C)(C)CCCCCCCCCC[N+](C)(C)CC(=O)NCCCCCCCC

>  <score_type>  (19) 
oracle

>  <origin>  (19) 
adg

>  <m_score__min__energy>  (19) 
-6.46

>  <m_primary>  (19) 
energy

$$$$
19:0
     RDKit          3D

 47 49  0  0  0  0  0  0  0  0999 V2000
   -2.3550   24.8390  -28.3440 C   0  0  0  0  0  0  0  0  0  0  0  0
   -2.8170   24.9260  -29.6890 O   0  0  0  0  0  0  0  0  0  0  0  0
   -4.0550   24.4420  -30.1500 C   0  0  0  0  0  0  0  0  0  0  0  0
   -5.1150   25.3180  -30.4120 C   0  0  0  0  0  0  0  0  0  0  0  0
   -6.3330   24.8310  -30.8490 C   0  0  0  0  0  0  0  0  0  0  0  0
   -6.5040   23.4710  -31.0870 C   0  0  0  0  0  0  0  0  0  0  0  0
   -8.0100   22.9470  -31.6180 S   0  0  0  0  0  0  0  0  0  0  0  0
   -8.0570   21.2970  -31.8900 C   0  0  0  0  0  0  0  0  0  0  0  0
   -9.2420   20.6900  -32.3200 C   0  0  0  0  0  0  0  0  0  0  0  0
   -9.2730   19.3210  -32.5700 C   0  0  0  0  0  0  0  0  0  0  0  0
   -8.1200   18.5570  -32.3940 C   0  0  0  0  0  0  0  0  0  0  0  0
   -6.9340   19.1620  -31.9680 C   0  0  0  0  0  0  0  0  0  0  0  0
   -6.8730   20.5540  -31.7000 C   0  0  0  0  0  0  0  0  0  0  0  0
   -5.6390   21.1430  -31.2670 C   0  0  0  0  0  0  0  0  0  0  0  0
   -4.6410   20.3760  -31.2490 O   0  0  0  0  0  0  0  0  0  0  0  0
   -5.4540   22.5320  -30.8950 C   0  0  0  0  0  0  0  0  0  0  0  0
   -4.2170   23.0430  -30.3390 C   0  0  0  0  0  0  0  0  0  0  0  0
   -3.1200   22.1840  -29.9220 N   0  0  0  0  0  0  0  0  0  0  0  0
   -2.0920   22.1020  -30.9760 C   0  0  0  0  0  0  0  0  0  0  0  0
   -0.8860   21.2450  -30.5400 C   0  0  0  0  0  0  0  0  0  0  0  0
   -1.2250   20.2020  -29.4430 C   0  0  0  0  0  0  0  0  0  0  0  0
   -1.8540   20.7580  -28.2240 N   0  0  0  0  0  0  0  0  0  0  0  0
   -0.9100   21.5000  -27.3700 C   0  0  0  0  0  0  0  0  0  0  0  0
   -2.6080   19.7610  -27.4520 C   0  0  0  0  0  0  0  0  0  0  0  0
   -3.1982   24.9978  -27.6557 H   0  0  0  0  0  0  0  0  0  0  0  0
   -1.9213   23.8434  -28.1690 H   0  0  0  0  0  0  0  0  0  0  0  0
   -1.5888   25.6087  -28.1690 H   0  0  0  0  0  0  0  0  0  0  0  0
   -4.9781   26.4001  -30.2694 H   0  0  0  0  0  0  0  0  0  0  0  0
   -7.1724   25.5235  -31.0096 H   0  0  0  0  0  0  0  0  0  0  0  0
  -10.1498   21.2951  -32.4606 H   0  0  0  0  0  0  0  0  0  0  0  0
  -10.2051   18.8429  -32.9057 H   0  0  0  0  0  0  0  0  0  0  0  0
   -8.1437   17.4750  -32.5909 H   0  0  0  0  0  0  0  0  0  0  0  0
   -6.0310   18.5473  -31.8381 H   0  0  0  0  0  0  0  0  0  0  0  0
   -2.6780   22.5800  -29.0600 H   0  0  0  0  0  0  0  0  0  0  0  0
   -3.4570   21.2500  -29.6070 H   0  0  0  0  0  0  0  0  0  0  0  0
   -2.5399   21.6537  -31.8751 H   0  0  0  0  0  0  0  0  0  0  0  0
   -1.7300   23.1209  -31.1782 H   0  0  0  0  0  0  0  0  0  0  0  0
   -0.5038   20.7097  -31.4217 H   0  0  0  0  0  0  0  0  0  0  0  0
   -0.1422   21.9323  -30.1106 H   0  0  0  0  0  0  0  0  0  0  0  0
   -1.9151   19.4631  -29.8763 H   0  0  0  0  0  0  0  0  0  0  0  0
   -0.2656   19.7690  -29.1236 H   0  0  0  0  0  0  0  0  0  0  0  0
   -1.1477   21.3132  -26.3124 H   0  0  0  0  0  0  0  0  0  0  0  0
    0.1162   21.1643  -27.5800 H   0  0  0  0  0  0  0  0  0  0  0  0
   -0.9938   22.5765  -27.5800 H   0  0  0  0  0  0  0  0  0  0  0  0
   -2.4675   19.9468  -26.3770 H   0  0  0  0  0  0  0  0  0  0  0  0
   -3.6769   19.8366  -27.7005 H   0  0  0  0  0  0  0  0  0  0  0  0
   -2.2442   18.7531  -27.7005 H   0  0  0  0  0  0  0  0  0  0  0  0
  1  2  1  0
  2  3  1  0
  3  4  2  0
  4  5  1  0
  5  6  2  0
  6  7  1  0
  7  8  1  0
  8  9  2  0
  9 10  1  0
 10 11  2  0
 11 12  1  0
 12 13  2  0
 13 14  1  0
 14 15  2  0
 14 16  1  0
 16 17  2  0
 17 18  1  0
 18 19  1  0
 19 20  1  0
 20 21  1  0
 21 22  1  0
 22 23  1  0
 22 24  1  0
 17  3  1  0
 16  6  1  0
 13  8  1  0
  1 25  1  0
  1 26  1  0
  1 27  1  0
  4 28  1  0
  5 29  1  0
  9 30  1  0
 10 31  1  0
 11 32  1  0
 12 33  1  0
 18 34  1  0
 18 35  1  0
 19 36  1  0
 19 37  1  0
 20 38  1  0
 20 39  1  0
 21 40  1  0
 21 41  1  0
 23 42  1  0
 23 43  1  0
 23 44  1  0
 24 45  1  0
 24 46  1  0
 24 47  1  0
M  CHG  1  18   1
M  END
>  <UniqueID>  (20) 
20

>  <SMILES>  (20) 
COc1ccc2sc3ccccc3c(=O)c2c1[NH2+]CCCN(C)C

>  <Energy>  (20) 
75.33656875008992

>  <Genealogy>  (20) 
COc1ccc2sc3ccccc3c(=O)c2c1[NH2+]CCCN(C)C (protonated)
COc1ccc2sc3ccccc3c(=O)c2c1[NH2+]CCCN(C)C (3D coordinates assigned)
COc1ccc2sc3ccccc3c(=O)c2c1[NH2+]CCCN(C)C (optimized conformer: 75.33656875008992 kcal/mol)

>  <smiles>  (20) 
COc1ccc2sc3ccccc3c(=O)c2c1NCCCN(C)C

>  <score_type>  (20) 
oracle

>  <origin>  (20) 
adg

>  <m_score__min__energy>  (20) 
-7.0899999999999999

>  <m_primary>  (20) 
energy

$$$$
20:0
     RDKit          3D

 35 35  0  0  0  0  0  0  0  0999 V2000
   -3.8360   24.1880  -29.4510 C   0  0  0  0  0  0  0  0  0  0  0  0
   -4.3130   24.3360  -30.8350 N   0  0  0  0  0  0  0  0  0  0  0  0
   -4.3840   23.0330  -31.5150 C   0  0  0  0  0  0  0  0  0  0  0  0
   -5.5710   25.1080  -30.9330 C   0  0  0  0  0  0  0  0  0  0  0  0
   -6.8240   24.3440  -30.4650 C   0  0  0  0  0  0  0  0  0  0  0  0
   -7.5040   23.3490  -31.8410 S   0  0  0  0  0  0  0  0  0  0  0  0
   -8.0520   21.9210  -30.8350 C   0  0  0  0  0  0  0  0  0  0  0  0
   -9.4960   21.5280  -31.1680 C   0  0  0  0  0  0  0  0  0  0  0  0
   -9.5440   20.6350  -32.3350 N   0  0  0  0  0  0  0  0  0  0  0  0
   -9.1030   19.2780  -31.9930 C   0  0  0  0  0  0  0  0  0  0  0  0
   -7.7890   18.9990  -32.6470 C   0  0  0  0  0  0  0  0  0  0  0  0
   -6.9390   19.9470  -33.2030 C   0  0  0  0  0  0  0  0  0  0  0  0
   -5.8170   19.3820  -33.8210 C   0  0  0  0  0  0  0  0  0  0  0  0
   -5.7890   17.9940  -33.7660 C   0  0  0  0  0  0  0  0  0  0  0  0
   -7.1630   17.4690  -32.9520 S   0  0  0  0  0  0  0  0  0  0  0  0
   -4.6488   24.4402  -28.7541 H   0  0  0  0  0  0  0  0  0  0  0  0
   -3.5174   23.1488  -29.2821 H   0  0  0  0  0  0  0  0  0  0  0  0
   -2.9851   24.8644  -29.2821 H   0  0  0  0  0  0  0  0  0  0  0  0
   -4.4278   22.2298  -30.7647 H   0  0  0  0  0  0  0  0  0  0  0  0
   -5.2855   22.9965  -32.1443 H   0  0  0  0  0  0  0  0  0  0  0  0
   -3.4918   22.8987  -32.1443 H   0  0  0  0  0  0  0  0  0  0  0  0
   -5.4687   26.0124  -30.3153 H   0  0  0  0  0  0  0  0  0  0  0  0
   -5.7198   25.3320  -31.9996 H   0  0  0  0  0  0  0  0  0  0  0  0
   -6.5539   23.6773  -29.6328 H   0  0  0  0  0  0  0  0  0  0  0  0
   -7.5838   25.0672  -30.1338 H   0  0  0  0  0  0  0  0  0  0  0  0
   -7.3916   21.0650  -31.0378 H   0  0  0  0  0  0  0  0  0  0  0  0
   -8.0049   22.2051  -29.7734 H   0  0  0  0  0  0  0  0  0  0  0  0
   -9.9371   21.0123  -30.3022 H   0  0  0  0  0  0  0  0  0  0  0  0
  -10.0623   22.4414  -31.4025 H   0  0  0  0  0  0  0  0  0  0  0  0
   -8.8800   21.0110  -33.0520 H   0  0  0  0  0  0  0  0  0  0  0  0
   -8.9944   19.1924  -30.9017 H   0  0  0  0  0  0  0  0  0  0  0  0
   -9.8490   18.5511  -32.3467 H   0  0  0  0  0  0  0  0  0  0  0  0
   -7.1281   21.0298  -33.1619 H   0  0  0  0  0  0  0  0  0  0  0  0
   -5.0313   19.9808  -34.3048 H   0  0  0  0  0  0  0  0  0  0  0  0
   -5.0021   17.3488  -34.1838 H   0  0  0  0  0  0  0  0  0  0  0  0
  1  2  1  0
  2  3  1  0
  2  4  1  0
  4  5  1  0
  5  6  1  0
  6  7  1  0
  7  8  1  0
  8  9  1  0
  9 10  1  0
 10 11  1  0
 11 12  2  0
 12 13  1  0
 13 14  2  0
 14 15  1  0
 15 11  1  0
  1 16  1  0
  1 17  1  0
  1 18  1  0
  3 19  1  0
  3 20  1  0
  3 21  1  0
  4 22  1  0
  4 23  1  0
  5 24  1  0
  5 25  1  0
  7 26  1  0
  7 27  1  0
  8 28  1  0
  8 29  1  0
  9 30  1  0
 10 31  1  0
 10 32  1  0
 12 33  1  0
 13 34  1  0
 14 35  1  0
M  END
>  <UniqueID>  (21) 
21

>  <SMILES>  (21) 
CN(C)CCSCCNCc1cccs1

>  <Energy>  (21) 
53.67723135023248

>  <Genealogy>  (21) 
CN(C)CCSCCNCc1cccs1 (3D coordinates assigned)
CN(C)CCSCCNCc1cccs1 (optimized conformer: 53.67723135023248 kcal/mol)

>  <smiles>  (21) 
CN(C)CCSCCNCc1cccs1

>  <score_type>  (21) 
oracle

>  <origin>  (21) 
adg

>  <m_score__min__energy>  (21) 
-6.2699999999999996

>  <m_primary>  (21) 
energy

$$$$
21:0
     RDKit          3D

 44 47  0  0  0  0  0  0  0  0999 V2000
   -0.8880   21.4160  -29.2930 C   0  0  0  0  0  0  0  0  0  0  0  0
   -1.9450   22.0310  -30.1150 N   0  0  0  0  0  0  0  0  0  0  0  0
   -2.1090   23.4520  -29.7450 C   0  0  0  0  0  0  0  0  0  0  0  0
   -3.5490   23.8580  -29.8780 C   0  0  0  0  0  0  0  0  0  0  0  0
   -4.5780   23.0600  -29.3540 C   0  0  0  0  0  0  0  0  0  0  0  0
   -5.9030   23.4800  -29.4840 C   0  0  0  0  0  0  0  0  0  0  0  0
   -6.1910   24.6810  -30.1350 C   0  0  0  0  0  0  0  0  0  0  0  0
   -5.1430   25.4490  -30.6460 C   0  0  0  0  0  0  0  0  0  0  0  0
   -3.8580   25.0260  -30.5070 N   0  0  0  0  0  0  0  0  0  0  0  0
   -1.6310   21.8890  -31.5540 C   0  0  0  0  0  0  0  0  0  0  0  0
   -2.7270   21.1430  -32.2450 C   0  0  0  0  0  0  0  0  0  0  0  0
   -2.6600   20.5860  -33.5020 C   0  0  0  0  0  0  0  0  0  0  0  0
   -3.8370   20.0750  -33.7650 O   0  0  0  0  0  0  0  0  0  0  0  0
   -4.6090   20.3150  -32.7270 C   0  0  0  0  0  0  0  0  0  0  0  0
   -6.0150   19.8590  -32.6390 C   0  0  0  0  0  0  0  0  0  0  0  0
   -6.2570   18.4840  -32.7840 C   0  0  0  0  0  0  0  0  0  0  0  0
   -7.5410   17.9620  -32.6330 C   0  0  0  0  0  0  0  0  0  0  0  0
   -8.6110   18.8040  -32.3400 C   0  0  0  0  0  0  0  0  0  0  0  0
   -8.4120   20.1850  -32.2220 C   0  0  0  0  0  0  0  0  0  0  0  0
   -9.5020   21.0280  -31.9550 C   0  0  0  0  0  0  0  0  0  0  0  0
   -9.3240   22.4090  -31.8780 C   0  0  0  0  0  0  0  0  0  0  0  0
   -8.0610   22.9610  -32.0810 C   0  0  0  0  0  0  0  0  0  0  0  0
   -6.9620   22.1390  -32.3410 C   0  0  0  0  0  0  0  0  0  0  0  0
   -7.1090   20.7350  -32.3890 C   0  0  0  0  0  0  0  0  0  0  0  0
   -3.9650   20.9780  -31.7420 N   0  0  0  0  0  0  0  0  0  0  0  0
   -1.1250   21.5539  -28.2277 H   0  0  0  0  0  0  0  0  0  0  0  0
   -0.8266   20.3412  -29.5188 H   0  0  0  0  0  0  0  0  0  0  0  0
    0.0767   21.8938  -29.5188 H   0  0  0  0  0  0  0  0  0  0  0  0
   -1.7851   23.5964  -28.7037 H   0  0  0  0  0  0  0  0  0  0  0  0
   -1.4971   24.0716  -30.4171 H   0  0  0  0  0  0  0  0  0  0  0  0
   -4.3427   22.1131  -28.8460 H   0  0  0  0  0  0  0  0  0  0  0  0
   -6.7185   22.8659  -29.0743 H   0  0  0  0  0  0  0  0  0  0  0  0
   -7.2322   25.0185  -30.2441 H   0  0  0  0  0  0  0  0  0  0  0  0
   -5.3568   26.3969  -31.1614 H   0  0  0  0  0  0  0  0  0  0  0  0
   -1.5291   22.8872  -32.0049 H   0  0  0  0  0  0  0  0  0  0  0  0
   -0.6891   21.3318  -31.6649 H   0  0  0  0  0  0  0  0  0  0  0  0
   -1.7809   20.5725  -34.1631 H   0  0  0  0  0  0  0  0  0  0  0  0
   -5.4216   17.8085  -33.0202 H   0  0  0  0  0  0  0  0  0  0  0  0
   -7.7096   16.8809  -32.7457 H   0  0  0  0  0  0  0  0  0  0  0  0
   -9.6173   18.3821  -32.2006 H   0  0  0  0  0  0  0  0  0  0  0  0
  -10.5028   20.5967  -31.8056 H   0  0  0  0  0  0  0  0  0  0  0  0
  -10.1808   23.0625  -31.6570 H   0  0  0  0  0  0  0  0  0  0  0  0
   -7.9283   24.0521  -32.0362 H   0  0  0  0  0  0  0  0  0  0  0  0
   -5.9727   22.5893  -32.5100 H   0  0  0  0  0  0  0  0  0  0  0  0
  1  2  1  0
  2  3  1  0
  3  4  1  0
  4  5  2  0
  5  6  1  0
  6  7  2  0
  7  8  1  0
  8  9  2  0
  2 10  1  0
 10 11  1  0
 11 12  2  0
 12 13  1  0
 13 14  1  0
 14 15  1  0
 15 16  2  0
 16 17  1  0
 17 18  2  0
 18 19  1  0
 19 20  2  0
 20 21  1  0
 21 22  2  0
 22 23  1  0
 23 24  2  0
 14 25  2  0
  9  4  1  0
 25 11  1  0
 24 15  1  0
 24 19  1  0
  1 26  1  0
  1 27  1  0
  1 28  1  0
  3 29  1  0
  3 30  1  0
  5 31  1  0
  6 32  1  0
  7 33  1  0
  8 34  1  0
 10 35  1  0
 10 36  1  0
 12 37  1  0
 16 38  1  0
 17 39  1  0
 18 40  1  0
 20 41  1  0
 21 42  1  0
 22 43  1  0
 23 44  1  0
M  END
>  <UniqueID>  (22) 
22

>  <SMILES>  (22) 
CN(Cc1ccccn1)Cc1coc(-c2cccc3ccccc23)n1

>  <Energy>  (22) 
87.91952080990593

>  <Genealogy>  (22) 
CN(Cc1ccccn1)Cc1coc(-c2cccc3ccccc23)n1 (3D coordinates assigned)
CN(Cc1ccccn1)Cc1coc(-c2cccc3ccccc23)n1 (optimized conformer: 87.91952080990593 kcal/mol)

>  <smiles>  (22) 
CN(Cc1ccccn1)Cc1coc(-c2cccc3ccccc23)n1

>  <score_type>  (22) 
oracle

>  <origin>  (22) 
adg

>  <m_score__min__energy>  (22) 
-9.0999999999999996

>  <m_primary>  (22) 
energy

$$$$
22:0
     RDKit          3D

 76 78  0  0  0  0  0  0  0  0999 V2000
   -5.4050   23.9210  -31.2720 C   0  0  0  0  0  0  0  0  0  0  0  0
   -5.0770   22.4560  -31.0040 C   0  0  0  0  0  0  0  0  0  0  0  0
   -3.7900   22.0360  -31.7230 C   0  0  0  0  0  0  0  0  0  0  0  0
   -3.0760   20.9090  -30.9710 C   0  0  0  0  0  0  0  0  0  0  0  0
   -1.8350   20.5400  -31.6840 N   0  0  0  0  0  0  0  0  0  0  0  0
   -1.7280   21.1040  -33.0570 C   0  0  0  0  0  0  0  0  0  0  0  0
   -2.0910   20.1500  -34.2220 C   0  0  0  0  0  0  0  0  0  0  0  0
   -1.9180   18.6470  -33.9380 C   0  0  0  0  0  0  0  0  0  0  0  0
   -3.2280   17.8370  -33.8960 C   0  0  0  0  0  0  0  0  0  0  0  0
   -4.3490   18.5450  -33.1200 C   0  0  0  0  0  0  0  0  0  0  0  0
   -5.6590   18.5280  -33.9130 C   0  0  0  0  0  0  0  0  0  0  0  0
   -6.7900   19.0710  -33.0810 C   0  0  0  0  0  0  0  0  0  0  0  0
   -7.6680   18.1930  -32.4210 C   0  0  0  0  0  0  0  0  0  0  0  0
   -8.7370   18.6970  -31.6740 C   0  0  0  0  0  0  0  0  0  0  0  0
   -8.9430   20.0760  -31.5870 C   0  0  0  0  0  0  0  0  0  0  0  0
   -8.0830   20.9540  -32.2510 C   0  0  0  0  0  0  0  0  0  0  0  0
   -7.0130   20.4560  -33.0010 C   0  0  0  0  0  0  0  0  0  0  0  0
   -0.6330   20.6820  -30.8310 C   0  0  0  0  0  0  0  0  0  0  0  0
   -0.4080   19.4680  -29.9100 C   0  0  0  0  0  0  0  0  0  0  0  0
    0.0550   19.8350  -28.4860 C   0  0  0  0  0  0  0  0  0  0  0  0
   -0.9570   19.4710  -27.3860 C   0  0  0  0  0  0  0  0  0  0  0  0
   -1.6950   20.6580  -26.9000 N   0  0  0  0  0  0  0  0  0  0  0  0
   -3.0590   20.7440  -27.4890 C   0  0  0  0  0  0  0  0  0  0  0  0
   -3.4870   22.1860  -27.7740 C   0  0  0  0  0  0  0  0  0  0  0  0
   -2.5580   22.8010  -28.7410 N   0  0  0  0  0  0  0  0  0  0  0  0
   -2.7770   24.2500  -28.8790 C   0  0  0  0  0  0  0  0  0  0  0  0
   -1.4410   24.8690  -28.8080 C   0  0  0  0  0  0  0  0  0  0  0  0
   -1.2470   26.0660  -28.9480 O   0  0  0  0  0  0  0  0  0  0  0  0
   -0.3680   23.8990  -28.5460 C   0  0  0  0  0  0  0  0  0  0  0  0
   -1.1200   22.5640  -28.4350 C   0  0  1  0  0  0  0  0  0  0  0  0
   -0.8990   21.9000  -27.0550 C   0  0  0  0  0  0  0  0  0  0  0  0
   -5.5237   24.4511  -30.3155 H   0  0  0  0  0  0  0  0  0  0  0  0
   -4.5875   24.3805  -31.8469 H   0  0  0  0  0  0  0  0  0  0  0  0
   -6.3404   23.9881  -31.8469 H   0  0  0  0  0  0  0  0  0  0  0  0
   -4.9475   22.3094  -29.9215 H   0  0  0  0  0  0  0  0  0  0  0  0
   -5.9050   21.8386  -31.3825 H   0  0  0  0  0  0  0  0  0  0  0  0
   -4.0423   21.6877  -32.7355 H   0  0  0  0  0  0  0  0  0  0  0  0
   -3.1171   22.9051  -31.7673 H   0  0  0  0  0  0  0  0  0  0  0  0
   -2.8263   21.2487  -29.9550 H   0  0  0  0  0  0  0  0  0  0  0  0
   -3.7381   20.0323  -30.9161 H   0  0  0  0  0  0  0  0  0  0  0  0
   -2.3988   21.9739  -33.1150 H   0  0  0  0  0  0  0  0  0  0  0  0
   -0.6627   21.3414  -33.1939 H   0  0  0  0  0  0  0  0  0  0  0  0
   -3.1448   20.3244  -34.4847 H   0  0  0  0  0  0  0  0  0  0  0  0
   -1.3828   20.3840  -35.0305 H   0  0  0  0  0  0  0  0  0  0  0  0
   -1.2793   18.2221  -34.7264 H   0  0  0  0  0  0  0  0  0  0  0  0
   -1.4785   18.5729  -32.9324 H   0  0  0  0  0  0  0  0  0  0  0  0
   -3.5689   17.6687  -34.9282 H   0  0  0  0  0  0  0  0  0  0  0  0
   -3.0134   16.8927  -33.3743 H   0  0  0  0  0  0  0  0  0  0  0  0
   -4.5027   18.0305  -32.1600 H   0  0  0  0  0  0  0  0  0  0  0  0
   -4.0535   19.5913  -32.9528 H   0  0  0  0  0  0  0  0  0  0  0  0
   -5.5437   19.1476  -34.8145 H   0  0  0  0  0  0  0  0  0  0  0  0
   -5.8910   17.4895  -34.1917 H   0  0  0  0  0  0  0  0  0  0  0  0
   -7.5133   17.1063  -32.4926 H   0  0  0  0  0  0  0  0  0  0  0  0
   -9.4171   18.0064  -31.1538 H   0  0  0  0  0  0  0  0  0  0  0  0
   -9.7824   20.4705  -30.9956 H   0  0  0  0  0  0  0  0  0  0  0  0
   -8.2479   22.0395  -32.1837 H   0  0  0  0  0  0  0  0  0  0  0  0
   -6.3439   21.1506  -33.5299 H   0  0  0  0  0  0  0  0  0  0  0  0
    0.2471   20.7984  -31.4805 H   0  0  0  0  0  0  0  0  0  0  0  0
   -0.7850   21.5617  -30.1883 H   0  0  0  0  0  0  0  0  0  0  0  0
   -1.3544   18.9127  -29.8331 H   0  0  0  0  0  0  0  0  0  0  0  0
    0.3988   18.8723  -30.3620 H   0  0  0  0  0  0  0  0  0  0  0  0
    0.9957   19.3033  -28.2803 H   0  0  0  0  0  0  0  0  0  0  0  0
    0.1725   20.9284  -28.4613 H   0  0  0  0  0  0  0  0  0  0  0  0
   -1.6777   18.7458  -27.7918 H   0  0  0  0  0  0  0  0  0  0  0  0
   -0.4003   19.0452  -26.5382 H   0  0  0  0  0  0  0  0  0  0  0  0
   -3.0714   20.1796  -28.4331 H   0  0  0  0  0  0  0  0  0  0  0  0
   -3.7652   20.3252  -26.7569 H   0  0  0  0  0  0  0  0  0  0  0  0
   -4.5044   22.1891  -28.1923 H   0  0  0  0  0  0  0  0  0  0  0  0
   -3.4698   22.7620  -26.8370 H   0  0  0  0  0  0  0  0  0  0  0  0
   -3.2520   24.4749  -29.8453 H   0  0  0  0  0  0  0  0  0  0  0  0
   -3.4427   24.6346  -28.0923 H   0  0  0  0  0  0  0  0  0  0  0  0
    0.3546   23.8768  -29.3751 H   0  0  0  0  0  0  0  0  0  0  0  0
    0.2198   24.1386  -27.6477 H   0  0  0  0  0  0  0  0  0  0  0  0
   -0.7216   21.8481  -29.1690 H   0  0  0  0  0  0  0  0  0  0  0  0
    0.1676   21.6537  -26.9465 H   0  0  0  0  0  0  0  0  0  0  0  0
   -1.2250   22.6103  -26.2810 H   0  0  0  0  0  0  0  0  0  0  0  0
  1  2  1  0
  2  3  1  0
  3  4  1  0
  4  5  1  0
  5  6  1  0
  6  7  1  0
  7  8  1  0
  8  9  1  0
  9 10  1  0
 10 11  1  0
 11 12  1  0
 12 13  2  0
 13 14  1  0
 14 15  2  0
 15 16  1  0
 16 17  2  0
  5 18  1  0
 18 19  1  0
 19 20  1  0
 20 21  1  0
 21 22  1  0
 22 23  1  0
 23 24  1  0
 24 25  1  0
 25 26  1  0
 26 27  1  0
 27 28  2  0
 27 29  1  0
 29 30  1  0
 30 31  1  0
 17 12  1  0
 31 22  1  0
 30 25  1  0
  1 32  1  0
  1 33  1  0
  1 34  1  0
  2 35  1  0
  2 36  1  0
  3 37  1  0
  3 38  1  0
  4 39  1  0
  4 40  1  0
  6 41  1  0
  6 42  1  0
  7 43  1  0
  7 44  1  0
  8 45  1  0
  8 46  1  0
  9 47  1  0
  9 48  1  0
 10 49  1  0
 10 50  1  0
 11 51  1  0
 11 52  1  0
 13 53  1  0
 14 54  1  0
 15 55  1  0
 16 56  1  0
 17 57  1  0
 18 58  1  0
 18 59  1  0
 19 60  1  0
 19 61  1  0
 20 62  1  0
 20 63  1  0
 21 64  1  0
 21 65  1  0
 23 66  1  0
 23 67  1  0
 24 68  1  0
 24 69  1  0
 26 70  1  0
 26 71  1  0
 29 72  1  0
 29 73  1  0
 30 74  1  6
 31 75  1  0
 31 76  1  0
M  END
>  <UniqueID>  (23) 
23

>  <SMILES>  (23) 
CCCCN(CCCCCCc1ccccc1)CCCCN1CCN2CC(=O)C[C@H]2C1

>  <Energy>  (23) 
79.76595406341475

>  <Genealogy>  (23) 
CCCCN(CCCCCCc1ccccc1)CCCCN1CCN2CC(=O)C[C@H]2C1 (chirality)
CCCCN(CCCCCCc1ccccc1)CCCCN1CCN2CC(=O)C[C@H]2C1 (3D coordinates assigned)
CCCCN(CCCCCCc1ccccc1)CCCCN1CCN2CC(=O)C[C@H]2C1 (nonaromatic ring conformer: 79.76595406341475 kcal/mol)

>  <smiles>  (23) 
CCCCN(CCCCCCc1ccccc1)CCCCN1CCN2CC(=O)CC2C1

>  <score_type>  (23) 
oracle

>  <origin>  (23) 
adg

>  <m_score__min__energy>  (23) 
-9.5099999999999998

>  <m_primary>  (23) 
energy

$$$$
23:0
     RDKit          3D

 43 45  0  0  0  0  0  0  0  0999 V2000
   -9.4290   18.9660  -32.5820 C   0  0  0  0  0  0  0  0  0  0  0  0
   -9.0220   19.8760  -31.6090 O   0  0  0  0  0  0  0  0  0  0  0  0
   -8.2860   21.0160  -31.7780 C   0  0  0  0  0  0  0  0  0  0  0  0
   -8.8840   22.2500  -31.9160 C   0  0  0  0  0  0  0  0  0  0  0  0
   -8.1220   23.4120  -32.0870 C   0  0  0  0  0  0  0  0  0  0  0  0
   -6.7310   23.3540  -32.1220 C   0  0  0  0  0  0  0  0  0  0  0  0
   -6.1330   22.1130  -31.9820 C   0  0  0  0  0  0  0  0  0  0  0  0
   -4.6920   21.9120  -32.0360 C   0  0  0  0  0  0  0  0  0  0  0  0
   -4.2270   21.2410  -33.1790 C   0  0  0  0  0  0  0  0  0  0  0  0
   -2.8710   21.0070  -33.2240 C   0  0  0  0  0  0  0  0  0  0  0  0
   -2.3580   20.4010  -34.2460 N   0  0  0  0  0  0  0  0  0  0  0  0
   -2.0370   21.3910  -32.2470 N   0  0  0  0  0  0  0  0  0  0  0  0
   -2.5500   22.0380  -31.1700 C   0  0  0  0  0  0  0  0  0  0  0  0
   -3.8670   22.3020  -31.0550 N   0  0  0  0  0  0  0  0  0  0  0  0
   -4.3530   23.0130  -29.8920 C   0  0  0  0  0  0  0  0  0  0  0  0
   -3.5780   24.2740  -29.7780 C   0  0  0  0  0  0  0  0  0  0  0  0
   -3.8150   25.2930  -30.4600 O   0  0  0  0  0  0  0  0  0  0  0  0
   -2.5110   24.3020  -28.8350 N   0  0  0  0  0  0  0  0  0  0  0  0
   -1.5940   25.4310  -28.5880 C   0  0  0  0  0  0  0  0  0  0  0  0
   -1.6110   25.4780  -27.0750 C   0  0  0  0  0  0  0  0  0  0  0  0
   -1.5200   24.0190  -26.7040 C   0  0  0  0  0  0  0  0  0  0  0  0
   -2.0740   23.2870  -27.9010 C   0  0  0  0  0  0  0  0  0  0  0  0
   -6.9110   20.9710  -31.8140 C   0  0  0  0  0  0  0  0  0  0  0  0
   -6.1480   19.3850  -31.6240 Cl  0  0  0  0  0  0  0  0  0  0  0  0
   -9.8319   18.0652  -32.0959 H   0  0  0  0  0  0  0  0  0  0  0  0
  -10.2081   19.4238  -33.2092 H   0  0  0  0  0  0  0  0  0  0  0  0
   -8.5684   18.6904  -33.2092 H   0  0  0  0  0  0  0  0  0  0  0  0
   -9.9813   22.3234  -31.8913 H   0  0  0  0  0  0  0  0  0  0  0  0
   -8.6282   24.3826  -32.1950 H   0  0  0  0  0  0  0  0  0  0  0  0
   -6.1275   24.2638  -32.2564 H   0  0  0  0  0  0  0  0  0  0  0  0
   -4.9029   20.9229  -33.9864 H   0  0  0  0  0  0  0  0  0  0  0  0
   -1.9860   20.8750  -35.0840 H   0  0  0  0  0  0  0  0  0  0  0  0
   -1.8702   22.3568  -30.3661 H   0  0  0  0  0  0  0  0  0  0  0  0
   -5.4227   23.2401  -30.0115 H   0  0  0  0  0  0  0  0  0  0  0  0
   -4.2289   22.4011  -28.9864 H   0  0  0  0  0  0  0  0  0  0  0  0
   -0.5853   25.2267  -28.9762 H   0  0  0  0  0  0  0  0  0  0  0  0
   -1.8847   26.3719  -29.0781 H   0  0  0  0  0  0  0  0  0  0  0  0
   -0.7510   26.0421  -26.6848 H   0  0  0  0  0  0  0  0  0  0  0  0
   -2.4968   25.9821  -26.6611 H   0  0  0  0  0  0  0  0  0  0  0  0
   -0.4747   23.7292  -26.5211 H   0  0  0  0  0  0  0  0  0  0  0  0
   -2.0723   23.7879  -25.7812 H   0  0  0  0  0  0  0  0  0  0  0  0
   -1.2941   22.6602  -28.3579 H   0  0  0  0  0  0  0  0  0  0  0  0
   -2.9046   22.6253  -27.6142 H   0  0  0  0  0  0  0  0  0  0  0  0
  1  2  1  0
  2  3  1  0
  3  4  2  0
  4  5  1  0
  5  6  2  0
  6  7  1  0
  7  8  1  0
  8  9  2  0
  9 10  1  0
 10 11  2  3
 10 12  1  0
 12 13  2  0
 13 14  1  0
 14 15  1  0
 15 16  1  0
 16 17  2  0
 16 18  1  0
 18 19  1  0
 19 20  1  0
 20 21  1  0
 21 22  1  0
  7 23  2  0
 23 24  1  0
 23  3  1  0
 14  8  1  0
 22 18  1  0
  1 25  1  0
  1 26  1  0
  1 27  1  0
  4 28  1  0
  5 29  1  0
  6 30  1  0
  9 31  1  0
 11 32  1  0
 13 33  1  0
 15 34  1  0
 15 35  1  0
 19 36  1  0
 19 37  1  0
 20 38  1  0
 20 39  1  0
 21 40  1  0
 21 41  1  0
 22 42  1  0
 22 43  1  0
M  END
>  <smiles>  (24) 
COc1cccc(-c2cc(=N)ncn2CC(=O)N2CCCC2)c1Cl

>  <score_type>  (24) 
oracle

>  <origin>  (24) 
adg

>  <m_score__min__energy>  (24) 
-8.0399999999999991

>  <m_primary>  (24) 
energy

$$$$
24:0
     RDKit          3D

 41 44  0  0  0  0  0  0  0  0999 V2000
   -1.2220   26.1060  -27.8500 C   0  0  0  0  0  0  0  0  0  0  0  0
   -1.8290   25.5050  -28.9880 O   0  0  0  0  0  0  0  0  0  0  0  0
   -1.7080   24.1490  -29.3280 C   0  0  0  0  0  0  0  0  0  0  0  0
   -0.6270   23.3570  -28.8960 C   0  0  0  0  0  0  0  0  0  0  0  0
   -0.5570   22.0080  -29.2530 C   0  0  0  0  0  0  0  0  0  0  0  0
   -1.5560   21.4400  -30.0480 C   0  0  0  0  0  0  0  0  0  0  0  0
   -2.6260   22.2200  -30.5050 C   0  0  0  0  0  0  0  0  0  0  0  0
   -3.6550   21.6210  -31.3100 N   0  0  0  0  0  0  0  0  0  0  0  0
   -4.9400   21.7070  -31.0150 N   0  0  0  0  0  0  0  0  0  0  0  0
   -5.5970   21.1230  -32.0370 C   0  0  0  0  0  0  0  0  0  0  0  0
   -7.0690   21.0060  -32.1100 C   0  0  0  0  0  0  0  0  0  0  0  0
   -7.8880   22.0900  -31.7470 C   0  0  0  0  0  0  0  0  0  0  0  0
   -9.2810   21.9780  -31.8170 C   0  0  0  0  0  0  0  0  0  0  0  0
   -9.8670   20.7850  -32.2470 C   0  0  0  0  0  0  0  0  0  0  0  0
   -9.0610   19.7020  -32.6100 C   0  0  0  0  0  0  0  0  0  0  0  0
   -7.6690   19.8100  -32.5410 C   0  0  0  0  0  0  0  0  0  0  0  0
   -4.7580   20.6580  -32.9910 N   0  0  0  0  0  0  0  0  0  0  0  0
   -3.5460   20.9830  -32.4980 C   0  0  0  0  0  0  0  0  0  0  0  0
   -2.2850   20.5910  -33.1650 C   0  0  0  0  0  0  0  0  0  0  0  0
   -1.2960   21.5410  -33.4640 C   0  0  0  0  0  0  0  0  0  0  0  0
   -0.1110   21.1310  -34.0790 C   0  0  0  0  0  0  0  0  0  0  0  0
    0.0890   19.8170  -34.3680 N   0  0  0  0  0  0  0  0  0  0  0  0
   -0.8420   18.8740  -34.0700 C   0  0  0  0  0  0  0  0  0  0  0  0
   -2.0420   19.2410  -33.4560 C   0  0  0  0  0  0  0  0  0  0  0  0
   -2.7050   23.5700  -30.1220 C   0  0  0  0  0  0  0  0  0  0  0  0
   -1.6550   25.6773  -26.9342 H   0  0  0  0  0  0  0  0  0  0  0  0
   -0.1390   25.9144  -27.8680 H   0  0  0  0  0  0  0  0  0  0  0  0
   -1.4028   27.1909  -27.8680 H   0  0  0  0  0  0  0  0  0  0  0  0
    0.1649   23.8017  -28.2755 H   0  0  0  0  0  0  0  0  0  0  0  0
    0.2862   21.3918  -28.9076 H   0  0  0  0  0  0  0  0  0  0  0  0
   -1.5019   20.3746  -30.3164 H   0  0  0  0  0  0  0  0  0  0  0  0
   -7.4312   23.0309  -31.4063 H   0  0  0  0  0  0  0  0  0  0  0  0
   -9.9155   22.8305  -31.5331 H   0  0  0  0  0  0  0  0  0  0  0  0
  -10.9623   20.6978  -32.2999 H   0  0  0  0  0  0  0  0  0  0  0  0
   -9.5228   18.7635  -32.9504 H   0  0  0  0  0  0  0  0  0  0  0  0
   -7.0394   18.9541  -32.8256 H   0  0  0  0  0  0  0  0  0  0  0  0
   -1.4531   22.6010  -33.2157 H   0  0  0  0  0  0  0  0  0  0  0  0
    0.6621   21.8721  -34.3301 H   0  0  0  0  0  0  0  0  0  0  0  0
   -0.6506   17.8183  -34.3128 H   0  0  0  0  0  0  0  0  0  0  0  0
   -2.7910   18.4763  -33.2026 H   0  0  0  0  0  0  0  0  0  0  0  0
   -3.5604   24.1788  -30.4501 H   0  0  0  0  0  0  0  0  0  0  0  0
  1  2  1  0
  2  3  1  0
  3  4  2  0
  4  5  1  0
  5  6  2  0
  6  7  1  0
  7  8  1  0
  8  9  1  0
  9 10  2  0
 10 11  1  0
 11 12  2  0
 12 13  1  0
 13 14  2  0
 14 15  1  0
 15 16  2  0
 10 17  1  0
 17 18  2  0
 18 19  1  0
 19 20  2  0
 20 21  1  0
 21 22  2  0
 22 23  1  0
 23 24  2  0
  7 25  2  0
 25  3  1  0
 18  8  1  0
 24 19  1  0
 16 11  1  0
  1 26  1  0
  1 27  1  0
  1 28  1  0
  4 29  1  0
  5 30  1  0
  6 31  1  0
 12 32  1  0
 13 33  1  0
 14 34  1  0
 15 35  1  0
 16 36  1  0
 20 37  1  0
 21 38  1  0
 23 39  1  0
 24 40  1  0
 25 41  1  0
M  END
>  <UniqueID>  (25) 
24

>  <SMILES>  (25) 
COc1cccc(-n2nc(-c3ccccc3)nc2-c2ccncc2)c1

>  <Energy>  (25) 
88.18896229024574

>  <Genealogy>  (25) 
COc1cccc(-n2nc(-c3ccccc3)nc2-c2ccncc2)c1 (3D coordinates assigned)
COc1cccc(-n2nc(-c3ccccc3)nc2-c2ccncc2)c1 (optimized conformer: 88.18896229024574 kcal/mol)

>  <smiles>  (25) 
COc1cccc(-n2nc(-c3ccccc3)nc2-c2ccncc2)c1

>  <score_type>  (25) 
oracle

>  <origin>  (25) 
adg

>  <m_score__min__energy>  (25) 
-7.9400000000000004

>  <m_primary>  (25) 
energy

$$$$
25:0
     RDKit          3D

 31 32  0  0  0  0  0  0  0  0999 V2000
   -4.6860   19.7400  -32.5550 C   0  0  0  0  0  0  0  0  0  0  0  0
   -5.0630   18.5850  -33.4900 C   0  0  2  0  0  0  0  0  0  0  0  0
   -6.0780   18.9160  -34.5820 C   0  0  0  0  0  0  0  0  0  0  0  0
   -6.4830   18.0200  -33.4140 C   0  0  2  0  0  0  0  0  0  0  0  0
   -7.4760   18.6440  -32.4080 C   0  0  0  0  0  0  0  0  0  0  0  0
   -8.5030   19.4470  -33.0940 N   0  0  0  0  0  0  0  0  0  0  0  0
   -9.1470   20.4130  -32.1880 C   0  0  0  0  0  0  0  0  0  0  0  0
   -8.1690   21.4860  -31.7820 C   0  0  0  0  0  0  0  0  0  0  0  0
   -8.1770   21.9940  -30.4740 C   0  0  0  0  0  0  0  0  0  0  0  0
   -7.2460   22.9630  -30.0890 C   0  0  0  0  0  0  0  0  0  0  0  0
   -6.2920   23.4230  -31.0030 C   0  0  0  0  0  0  0  0  0  0  0  0
   -5.0190   24.7440  -30.4750 Br  0  0  0  0  0  0  0  0  0  0  0  0
   -6.2690   22.9090  -32.3040 C   0  0  0  0  0  0  0  0  0  0  0  0
   -7.2000   21.9400  -32.6920 C   0  0  0  0  0  0  0  0  0  0  0  0
   -4.7921   19.4150  -31.5095 H   0  0  0  0  0  0  0  0  0  0  0  0
   -3.6439   20.0382  -32.7423 H   0  0  0  0  0  0  0  0  0  0  0  0
   -5.3515   20.5956  -32.7423 H   0  0  0  0  0  0  0  0  0  0  0  0
   -4.0592   18.1371  -33.4486 H   0  0  0  0  0  0  0  0  0  0  0  0
   -6.4874   19.9339  -34.6616 H   0  0  0  0  0  0  0  0  0  0  0  0
   -6.0992   18.8212  -35.6777 H   0  0  0  0  0  0  0  0  0  0  0  0
   -6.8933   17.0067  -33.2921 H   0  0  0  0  0  0  0  0  0  0  0  0
   -7.9691   17.8378  -31.8450 H   0  0  0  0  0  0  0  0  0  0  0  0
   -6.9141   19.3052  -31.7319 H   0  0  0  0  0  0  0  0  0  0  0  0
   -9.2230   18.8140  -33.5160 H   0  0  0  0  0  0  0  0  0  0  0  0
   -8.0400   19.9780  -33.8700 H   0  0  0  0  0  0  0  0  0  0  0  0
  -10.0018   20.8773  -32.7016 H   0  0  0  0  0  0  0  0  0  0  0  0
   -9.4895   19.8832  -31.2869 H   0  0  0  0  0  0  0  0  0  0  0  0
   -8.9188   21.6283  -29.7488 H   0  0  0  0  0  0  0  0  0  0  0  0
   -7.2635   23.3647  -29.0651 H   0  0  0  0  0  0  0  0  0  0  0  0
   -5.5175   23.2675  -33.0229 H   0  0  0  0  0  0  0  0  0  0  0  0
   -7.1733   21.5321  -33.7132 H   0  0  0  0  0  0  0  0  0  0  0  0
  1  2  1  0
  2  3  1  0
  3  4  1  0
  4  5  1  0
  5  6  1  0
  6  7  1  0
  7  8  1  0
  8  9  2  0
  9 10  1  0
 10 11  2  0
 11 12  1  0
 11 13  1  0
 13 14  2  0
  4  2  1  0
 14  8  1  0
  1 15  1  0
  1 16  1  0
  1 17  1  0
  2 18  1  6
  3 19  1  0
  3 20  1  0
  4 21  1  6
  5 22  1  0
  5 23  1  0
  6 24  1  0
  6 25  1  0
  7 26  1  0
  7 27  1  0
  9 28  1  0
 10 29  1  0
 13 30  1  0
 14 31  1  0
M  CHG  1   6   1
M  END
>  <UniqueID>  (26) 
25

>  <SMILES>  (26) 
C[C@@H]1C[C@@H]1C[NH2+]Cc1ccc(Br)cc1

>  <Energy>  (26) 
296.3731009207922

>  <Genealogy>  (26) 
CC1CC1C[NH2+]Cc1ccc(Br)cc1 (protonated)
C[C@@H]1C[C@@H]1C[NH2+]Cc1ccc(Br)cc1 (chirality)
C[C@@H]1C[C@@H]1C[NH2+]Cc1ccc(Br)cc1 (3D coordinates assigned)
C[C@@H]1C[C@@H]1C[NH2+]Cc1ccc(Br)cc1 (nonaromatic ring conformer: 296.3731009207922 kcal/mol)

>  <smiles>  (26) 
CC1CC1CNCc1ccc(Br)cc1

>  <score_type>  (26) 
oracle

>  <origin>  (26) 
adg

>  <m_score__min__energy>  (26) 
-6.1699999999999999

>  <m_primary>  (26) 
energy

$$$$
26:0
     RDKit          3D

 36 38  0  0  0  0  0  0  0  0999 V2000
   -2.7700   23.0220  -28.3650 C   0  0  0  0  0  0  0  0  0  0  0  0
   -2.1840   23.4280  -29.7180 C   0  0  0  0  0  0  0  0  0  0  0  0
   -2.7870   22.6380  -30.8140 N   0  0  0  0  0  0  0  0  0  0  0  0
   -4.0500   22.9160  -31.3010 C   0  0  0  0  0  0  0  0  0  0  0  0
   -4.8900   24.0220  -30.7920 C   0  0  0  0  0  0  0  0  0  0  0  0
   -6.1120   23.9100  -30.1550 C   0  0  0  0  0  0  0  0  0  0  0  0
   -6.4820   25.1970  -29.8290 C   0  0  0  0  0  0  0  0  0  0  0  0
   -5.4640   26.0130  -30.2760 C   0  0  0  0  0  0  0  0  0  0  0  0
   -4.5280   25.2840  -30.8390 O   0  0  0  0  0  0  0  0  0  0  0  0
   -4.6160   22.1030  -32.2910 C   0  0  0  0  0  0  0  0  0  0  0  0
   -3.8890   21.0390  -32.8330 C   0  0  0  0  0  0  0  0  0  0  0  0
   -4.4300   20.2120  -33.8290 O   0  0  0  0  0  0  0  0  0  0  0  0
   -5.3650   19.1880  -33.6160 C   0  0  0  0  0  0  0  0  0  0  0  0
   -6.2630   19.3080  -32.5470 C   0  0  0  0  0  0  0  0  0  0  0  0
   -7.2000   18.3010  -32.2930 C   0  0  0  0  0  0  0  0  0  0  0  0
   -7.2380   17.1610  -33.1000 C   0  0  0  0  0  0  0  0  0  0  0  0
   -6.3330   17.0230  -34.1570 C   0  0  0  0  0  0  0  0  0  0  0  0
   -5.3950   18.0280  -34.4130 C   0  0  0  0  0  0  0  0  0  0  0  0
   -2.6150   20.7690  -32.3380 C   0  0  0  0  0  0  0  0  0  0  0  0
   -1.6090   19.2940  -33.0460 Br  0  0  0  0  0  0  0  0  0  0  0  0
   -2.0750   21.5750  -31.3270 C   0  0  0  0  0  0  0  0  0  0  0  0
   -0.9240   21.3030  -30.8860 O   0  0  0  0  0  0  0  0  0  0  0  0
   -2.1563   23.4472  -27.5572 H   0  0  0  0  0  0  0  0  0  0  0  0
   -3.7991   23.4017  -28.2823 H   0  0  0  0  0  0  0  0  0  0  0  0
   -2.7761   21.9251  -28.2823 H   0  0  0  0  0  0  0  0  0  0  0  0
   -2.3844   24.4956  -29.8913 H   0  0  0  0  0  0  0  0  0  0  0  0
   -1.1007   23.2375  -29.7028 H   0  0  0  0  0  0  0  0  0  0  0  0
   -6.6725   22.9858  -29.9508 H   0  0  0  0  0  0  0  0  0  0  0  0
   -7.4032   25.5101  -29.3159 H   0  0  0  0  0  0  0  0  0  0  0  0
   -5.4398   27.1082  -30.1761 H   0  0  0  0  0  0  0  0  0  0  0  0
   -5.6384   22.3028  -32.6441 H   0  0  0  0  0  0  0  0  0  0  0  0
   -6.2309   20.1996  -31.9036 H   0  0  0  0  0  0  0  0  0  0  0  0
   -7.9075   18.4066  -31.4573 H   0  0  0  0  0  0  0  0  0  0  0  0
   -7.9795   16.3725  -32.9039 H   0  0  0  0  0  0  0  0  0  0  0  0
   -6.3590   16.1224  -34.7881 H   0  0  0  0  0  0  0  0  0  0  0  0
   -4.6785   17.9118  -35.2395 H   0  0  0  0  0  0  0  0  0  0  0  0
  1  2  1  0
  2  3  1  0
  3  4  1  0
  4  5  1  0
  5  6  2  0
  6  7  1  0
  7  8  2  0
  8  9  1  0
  4 10  2  0
 10 11  1  0
 11 12  1  0
 12 13  1  0
 13 14  2  0
 14 15  1  0
 15 16  2  0
 16 17  1  0
 17 18  2  0
 11 19  2  0
 19 20  1  0
 19 21  1  0
 21 22  2  0
 21  3  1  0
  9  5  1  0
 18 13  1  0
  1 23  1  0
  1 24  1  0
  1 25  1  0
  2 26  1  0
  2 27  1  0
  6 28  1  0
  7 29  1  0
  8 30  1  0
 10 31  1  0
 14 32  1  0
 15 33  1  0
 16 34  1  0
 17 35  1  0
 18 36  1  0
M  END
>  <UniqueID>  (27) 
26

>  <SMILES>  (27) 
CCn1c(-c2ccco2)cc(Oc2ccccc2)c(Br)c1=O

>  <Energy>  (27) 
80.96928466505649

>  <Genealogy>  (27) 
CCn1c(-c2ccco2)cc(Oc2ccccc2)c(Br)c1=O (3D coordinates assigned)
CCn1c(-c2ccco2)cc(Oc2ccccc2)c(Br)c1=O (optimized conformer: 80.96928466505649 kcal/mol)

>  <smiles>  (27) 
CCn1c(-c2ccco2)cc(Oc2ccccc2)c(Br)c1=O

>  <score_type>  (27) 
oracle

>  <origin>  (27) 
adg

>  <m_score__min__energy>  (27) 
-7.6600000000000001

>  <m_primary>  (27) 
energy

$$$$
27:0
     RDKit          3D

 51 54  0  0  0  0  0  0  0  0999 V2000
   -1.8470   25.0470  -28.0790 C   0  0  0  0  0  0  0  0  0  0  0  0
   -2.4650   25.2960  -29.3390 O   0  0  0  0  0  0  0  0  0  0  0  0
   -3.2700   24.3730  -30.0230 C   0  0  0  0  0  0  0  0  0  0  0  0
   -4.5970   24.6570  -30.3950 C   0  0  0  0  0  0  0  0  0  0  0  0
   -5.3590   23.7040  -31.0790 C   0  0  0  0  0  0  0  0  0  0  0  0
   -4.8100   22.4520  -31.4020 C   0  0  0  0  0  0  0  0  0  0  0  0
   -5.6190   21.4510  -32.1250 C   0  0  0  0  0  0  0  0  0  0  0  0
   -5.1210   20.6250  -33.0750 N   0  0  0  0  0  0  0  0  0  0  0  0
   -6.1940   19.9060  -33.4550 C   0  0  0  0  0  0  0  0  0  0  0  0
   -6.1520   18.8170  -34.4860 C   0  0  0  0  0  0  0  0  0  0  0  0
   -5.6890   17.5480  -33.8900 N   0  0  0  0  0  0  0  0  0  0  0  0
   -6.3590   17.2790  -32.5910 C   0  0  0  0  0  0  0  0  0  0  0  0
   -5.5820   16.3040  -31.6790 C   0  0  0  0  0  0  0  0  0  0  0  0
   -4.6150   15.4850  -32.4300 N   0  0  0  0  0  0  0  0  0  0  0  0
   -4.3300   14.1350  -31.9980 C   0  0  0  0  0  0  0  0  0  0  0  0
   -4.8260   13.6970  -30.9220 O   0  0  0  0  0  0  0  0  0  0  0  0
   -3.4030   13.2470  -32.7840 C   0  0  0  0  0  0  0  0  0  0  0  0
   -2.7520   12.1380  -31.9700 C   0  0  0  0  0  0  0  0  0  0  0  0
   -1.9320   13.3420  -32.4020 C   0  0  0  0  0  0  0  0  0  0  0  0
   -3.7710   16.1150  -33.4560 C   0  0  0  0  0  0  0  0  0  0  0  0
   -4.2260   17.5430  -33.7500 C   0  0  0  0  0  0  0  0  0  0  0  0
   -7.2910   20.3110  -32.7240 C   0  0  0  0  0  0  0  0  0  0  0  0
   -8.6810   19.7700  -32.8020 C   0  0  0  0  0  0  0  0  0  0  0  0
   -6.9060   21.2640  -31.9150 O   0  0  0  0  0  0  0  0  0  0  0  0
   -3.4860   22.1690  -31.0280 C   0  0  0  0  0  0  0  0  0  0  0  0
   -2.7240   23.1230  -30.3460 C   0  0  0  0  0  0  0  0  0  0  0  0
   -2.5384   25.3256  -27.2701 H   0  0  0  0  0  0  0  0  0  0  0  0
   -1.5985   23.9786  -27.9973 H   0  0  0  0  0  0  0  0  0  0  0  0
   -0.9272   25.6447  -27.9973 H   0  0  0  0  0  0  0  0  0  0  0  0
   -5.0376   25.6338  -30.1466 H   0  0  0  0  0  0  0  0  0  0  0  0
   -6.3951   23.9366  -31.3659 H   0  0  0  0  0  0  0  0  0  0  0  0
   -7.1608   18.6738  -34.9005 H   0  0  0  0  0  0  0  0  0  0  0  0
   -5.4497   19.1104  -35.2802 H   0  0  0  0  0  0  0  0  0  0  0  0
   -6.4770   18.2336  -32.0574 H   0  0  0  0  0  0  0  0  0  0  0  0
   -7.3238   16.8030  -32.8206 H   0  0  0  0  0  0  0  0  0  0  0  0
   -5.0383   16.8865  -30.9207 H   0  0  0  0  0  0  0  0  0  0  0  0
   -6.3115   15.6230  -31.2163 H   0  0  0  0  0  0  0  0  0  0  0  0
   -3.9646   13.3021  -33.7282 H   0  0  0  0  0  0  0  0  0  0  0  0
   -3.0175   12.0051  -30.9108 H   0  0  0  0  0  0  0  0  0  0  0  0
   -2.6513   11.0483  -32.0818 H   0  0  0  0  0  0  0  0  0  0  0  0
   -1.6043   14.0806  -31.6556 H   0  0  0  0  0  0  0  0  0  0  0  0
   -0.9924   13.4846  -32.9559 H   0  0  0  0  0  0  0  0  0  0  0  0
   -2.7305   16.1368  -33.0999 H   0  0  0  0  0  0  0  0  0  0  0  0
   -3.8537   15.5271  -34.3820 H   0  0  0  0  0  0  0  0  0  0  0  0
   -3.9304   18.2043  -32.9221 H   0  0  0  0  0  0  0  0  0  0  0  0
   -3.7579   17.9037  -34.6778 H   0  0  0  0  0  0  0  0  0  0  0  0
   -9.0727   19.6175  -31.7855 H   0  0  0  0  0  0  0  0  0  0  0  0
   -9.3228   20.4840  -33.3390 H   0  0  0  0  0  0  0  0  0  0  0  0
   -8.6712   18.8100  -33.3390 H   0  0  0  0  0  0  0  0  0  0  0  0
   -3.0458   21.1911  -31.2730 H   0  0  0  0  0  0  0  0  0  0  0  0
   -1.6874   22.8905  -30.0606 H   0  0  0  0  0  0  0  0  0  0  0  0
  1  2  1  0
  2  3  1  0
  3  4  2  0
  4  5  1  0
  5  6  2  0
  6  7  1  0
  7  8  2  0
  8  9  1  0
  9 10  1  0
 10 11  1  0
 11 12  1  0
 12 13  1  0
 13 14  1  0
 14 15  1  0
 15 16  2  0
 15 17  1  0
 17 18  1  0
 18 19  1  0
 14 20  1  0
 20 21  1  0
  9 22  2  0
 22 23  1  0
 22 24  1  0
  6 25  1  0
 25 26  2  0
 26  3  1  0
 24  7  1  0
 21 11  1  0
 19 17  1  0
  1 27  1  0
  1 28  1  0
  1 29  1  0
  4 30  1  0
  5 31  1  0
 10 32  1  0
 10 33  1  0
 12 34  1  0
 12 35  1  0
 13 36  1  0
 13 37  1  0
 17 38  1  0
 18 39  1  0
 18 40  1  0
 19 41  1  0
 19 42  1  0
 20 43  1  0
 20 44  1  0
 21 45  1  0
 21 46  1  0
 23 47  1  0
 23 48  1  0
 23 49  1  0
 25 50  1  0
 26 51  1  0
M  END
>  <UniqueID>  (28) 
27

>  <SMILES>  (28) 
COc1ccc(-c2nc(CN3CCN(C(=O)C4CC4)CC3)c(C)o2)cc1

>  <Energy>  (28) 
348.50664135948256

>  <Genealogy>  (28) 
COc1ccc(-c2nc(CN3CCN(C(=O)C4CC4)CC3)c(C)o2)cc1 (3D coordinates assigned)
COc1ccc(-c2nc(CN3CCN(C(=O)C4CC4)CC3)c(C)o2)cc1 (nonaromatic ring conformer: 348.50664135948256 kcal/mol)

>  <smiles>  (28) 
COc1ccc(-c2nc(CN3CCN(C(=O)C4CC4)CC3)c(C)o2)cc1

>  <score_type>  (28) 
oracle

>  <origin>  (28) 
adg

>  <m_score__min__energy>  (28) 
-7.9500000000000002

>  <m_primary>  (28) 
energy

$$$$
28:0
     RDKit          3D

 37 37  0  0  0  0  0  0  0  0999 V2000
   -1.8170   25.4990  -26.3450 C   0  0  0  0  0  0  0  0  0  0  0  0
   -2.0400   24.9450  -27.7560 C   0  0  0  0  0  0  0  0  0  0  0  0
   -3.4540   24.5470  -27.9890 N   0  0  2  0  0  0  0  0  0  0  0  0
   -4.1980   24.5090  -26.7150 C   0  0  0  0  0  0  0  0  0  0  0  0
   -3.5300   23.2210  -28.6540 C   0  0  0  0  0  0  0  0  0  0  0  0
   -3.5000   23.3390  -30.1850 C   0  0  0  0  0  0  0  0  0  0  0  0
   -4.0410   24.5950  -30.5840 O   0  0  0  0  0  0  0  0  0  0  0  0
   -5.3830   24.9330  -30.3890 C   0  0  0  0  0  0  0  0  0  0  0  0
   -5.6990   25.9440  -29.7020 O   0  0  0  0  0  0  0  0  0  0  0  0
   -6.4540   24.0800  -30.9840 C   0  0  0  0  0  0  0  0  0  0  0  0
   -5.7800   23.0680  -32.3460 S   0  0  0  0  0  0  0  0  0  0  0  0
   -7.0740   21.8180  -32.2800 C   0  0  0  0  0  0  0  0  0  0  0  0
   -8.3690   22.1990  -31.9050 C   0  0  0  0  0  0  0  0  0  0  0  0
   -9.3990   21.2540  -31.8670 C   0  0  0  0  0  0  0  0  0  0  0  0
   -9.1390   19.9220  -32.1980 C   0  0  0  0  0  0  0  0  0  0  0  0
   -7.8520   19.5350  -32.5770 C   0  0  0  0  0  0  0  0  0  0  0  0
   -6.8160   20.4770  -32.6270 C   0  0  0  0  0  0  0  0  0  0  0  0
   -5.0740   19.8920  -33.1730 Br  0  0  0  0  0  0  0  0  0  0  0  0
   -2.1203   24.7456  -25.6031 H   0  0  0  0  0  0  0  0  0  0  0  0
   -0.7521   25.7392  -26.2094 H   0  0  0  0  0  0  0  0  0  0  0  0
   -2.4185   26.4099  -26.2094 H   0  0  0  0  0  0  0  0  0  0  0  0
   -1.7652   25.7192  -28.4875 H   0  0  0  0  0  0  0  0  0  0  0  0
   -1.4148   24.0469  -27.8677 H   0  0  0  0  0  0  0  0  0  0  0  0
   -3.9230   25.2560  -28.5990 H   0  0  0  0  0  0  0  0  0  0  0  0
   -3.4887   24.5452  -25.8750 H   0  0  0  0  0  0  0  0  0  0  0  0
   -4.8757   25.3737  -26.6602 H   0  0  0  0  0  0  0  0  0  0  0  0
   -4.7841   23.5798  -26.6602 H   0  0  0  0  0  0  0  0  0  0  0  0
   -2.6740   22.6116  -28.3285 H   0  0  0  0  0  0  0  0  0  0  0  0
   -4.4843   22.7539  -28.3693 H   0  0  0  0  0  0  0  0  0  0  0  0
   -2.4607   23.2610  -30.5368 H   0  0  0  0  0  0  0  0  0  0  0  0
   -4.1020   22.5292  -30.6230 H   0  0  0  0  0  0  0  0  0  0  0  0
   -6.8620   23.4165  -30.2073 H   0  0  0  0  0  0  0  0  0  0  0  0
   -7.2475   24.7298  -31.3817 H   0  0  0  0  0  0  0  0  0  0  0  0
   -8.5764   23.2461  -31.6393 H   0  0  0  0  0  0  0  0  0  0  0  0
  -10.4149   21.5598  -31.5762 H   0  0  0  0  0  0  0  0  0  0  0  0
   -9.9482   19.1779  -32.1601 H   0  0  0  0  0  0  0  0  0  0  0  0
   -7.6505   18.4855  -32.8376 H   0  0  0  0  0  0  0  0  0  0  0  0
  1  2  1  0
  2  3  1  0
  3  4  1  0
  3  5  1  0
  5  6  1  0
  6  7  1  0
  7  8  1  0
  8  9  2  0
  8 10  1  0
 10 11  1  0
 11 12  1  0
 12 13  2  0
 13 14  1  0
 14 15  2  0
 15 16  1  0
 16 17  2  0
 17 18  1  0
 17 12  1  0
  1 19  1  0
  1 20  1  0
  1 21  1  0
  2 22  1  0
  2 23  1  0
  3 24  1  6
  4 25  1  0
  4 26  1  0
  4 27  1  0
  5 28  1  0
  5 29  1  0
  6 30  1  0
  6 31  1  0
 10 32  1  0
 10 33  1  0
 13 34  1  0
 14 35  1  0
 15 36  1  0
 16 37  1  0
M  CHG  1   3   1
M  END
>  <UniqueID>  (29) 
28

>  <SMILES>  (29) 
CC[N@H+](C)CCOC(=O)CSc1ccccc1Br

>  <Energy>  (29) 
26.274833908516797

>  <Genealogy>  (29) 
CC[NH+](C)CCOC(=O)CSc1ccccc1Br (protonated)
CC[N@H+](C)CCOC(=O)CSc1ccccc1Br (chirality)
CC[N@H+](C)CCOC(=O)CSc1ccccc1Br (3D coordinates assigned)
CC[N@H+](C)CCOC(=O)CSc1ccccc1Br (optimized conformer: 26.274833908516797 kcal/mol)

>  <smiles>  (29) 
CCN(C)CCOC(=O)CSc1ccccc1Br

>  <score_type>  (29) 
oracle

>  <origin>  (29) 
adg

>  <m_score__min__energy>  (29) 
-6.2800000000000002

>  <m_primary>  (29) 
energy

$$$$
29:0
     RDKit          3D

 38 39  0  0  0  0  0  0  0  0999 V2000
   -6.8470   24.8630  -30.0910 C   0  0  0  0  0  0  0  0  0  0  0  0
   -5.4590   25.5080  -30.1530 C   0  0  0  0  0  0  0  0  0  0  0  0
   -4.6100   24.9240  -31.2030 N   0  0  0  0  0  0  0  0  0  0  0  0
   -3.8000   23.8040  -30.7040 C   0  0  0  0  0  0  0  0  0  0  0  0
   -3.8500   22.6420  -31.7070 C   0  0  0  0  0  0  0  0  0  0  0  0
   -5.0100   22.7330  -32.6110 N   0  0  0  0  0  0  0  0  0  0  0  0
   -5.6960   21.4640  -32.7310 C   0  0  0  0  0  0  0  0  0  0  0  0
   -4.9850   20.3180  -33.1350 C   0  0  0  0  0  0  0  0  0  0  0  0
   -5.6340   19.0790  -33.2870 C   0  0  0  0  0  0  0  0  0  0  0  0
   -4.9560   17.9220  -33.6960 O   0  0  0  0  0  0  0  0  0  0  0  0
   -5.5930   16.7550  -34.2100 C   0  0  0  0  0  0  0  0  0  0  0  0
   -7.0040   18.9850  -33.0250 C   0  0  0  0  0  0  0  0  0  0  0  0
   -7.7310   20.1110  -32.6200 C   0  0  0  0  0  0  0  0  0  0  0  0
   -9.1060   20.0260  -32.3600 C   0  0  0  0  0  0  0  0  0  0  0  0
   -9.8100   21.1640  -31.9610 C   0  0  0  0  0  0  0  0  0  0  0  0
   -9.1320   22.3770  -31.8260 C   0  0  0  0  0  0  0  0  0  0  0  0
   -7.7980   22.4460  -32.0810 N   0  0  0  0  0  0  0  0  0  0  0  0
   -7.0790   21.3570  -32.4730 C   0  0  0  0  0  0  0  0  0  0  0  0
   -7.1412   24.7263  -29.0399 H   0  0  0  0  0  0  0  0  0  0  0  0
   -7.5768   25.5143  -30.5943 H   0  0  0  0  0  0  0  0  0  0  0  0
   -6.8198   23.8853  -30.5943 H   0  0  0  0  0  0  0  0  0  0  0  0
   -5.5787   26.5828  -30.3540 H   0  0  0  0  0  0  0  0  0  0  0  0
   -4.9648   25.3284  -29.1868 H   0  0  0  0  0  0  0  0  0  0  0  0
   -3.9730   25.6640  -31.5840 H   0  0  0  0  0  0  0  0  0  0  0  0
   -2.7582   24.1338  -30.5781 H   0  0  0  0  0  0  0  0  0  0  0  0
   -4.2004   23.4675  -29.7363 H   0  0  0  0  0  0  0  0  0  0  0  0
   -2.9299   22.6552  -32.3097 H   0  0  0  0  0  0  0  0  0  0  0  0
   -3.9420   21.7072  -31.1346 H   0  0  0  0  0  0  0  0  0  0  0  0
   -5.6650   23.4770  -32.2750 H   0  0  0  0  0  0  0  0  0  0  0  0
   -4.6780   23.0370  -33.5560 H   0  0  0  0  0  0  0  0  0  0  0  0
   -3.9059   20.3924  -33.3348 H   0  0  0  0  0  0  0  0  0  0  0  0
   -5.9360   16.1266  -33.3749 H   0  0  0  0  0  0  0  0  0  0  0  0
   -6.4556   17.0492  -34.8259 H   0  0  0  0  0  0  0  0  0  0  0  0
   -4.8789   16.1886  -34.8259 H   0  0  0  0  0  0  0  0  0  0  0  0
   -7.5154   18.0177  -33.1381 H   0  0  0  0  0  0  0  0  0  0  0  0
   -9.6293   19.0647  -32.4701 H   0  0  0  0  0  0  0  0  0  0  0  0
  -10.8889   21.1053  -31.7549 H   0  0  0  0  0  0  0  0  0  0  0  0
   -9.6781   23.2790  -31.5126 H   0  0  0  0  0  0  0  0  0  0  0  0
  1  2  1  0
  2  3  1  0
  3  4  1  0
  4  5  1  0
  5  6  1  0
  6  7  1  0
  7  8  2  0
  8  9  1  0
  9 10  1  0
 10 11  1  0
  9 12  2  0
 12 13  1  0
 13 14  2  0
 14 15  1  0
 15 16  2  0
 16 17  1  0
 17 18  2  0
 18  7  1  0
 18 13  1  0
  1 19  1  0
  1 20  1  0
  1 21  1  0
  2 22  1  0
  2 23  1  0
  3 24  1  0
  4 25  1  0
  4 26  1  0
  5 27  1  0
  5 28  1  0
  6 29  1  0
  6 30  1  0
  8 31  1  0
 11 32  1  0
 11 33  1  0
 11 34  1  0
 12 35  1  0
 14 36  1  0
 15 37  1  0
 16 38  1  0
M  CHG  1   6   1
M  END
>  <UniqueID>  (30) 
29

>  <SMILES>  (30) 
CCNCC[NH2+]c1cc(OC)cc2cccnc12

>  <Energy>  (30) 
38.12957635424797

>  <Genealogy>  (30) 
CCNCC[NH2+]c1cc(OC)cc2cccnc12 (protonated)
CCNCC[NH2+]c1cc(OC)cc2cccnc12 (3D coordinates assigned)
CCNCC[NH2+]c1cc(OC)cc2cccnc12 (optimized conformer: 38.12957635424797 kcal/mol)

>  <smiles>  (30) 
CCNCCNc1cc(OC)cc2cccnc12

>  <score_type>  (30) 
oracle

>  <origin>  (30) 
adg

>  <m_score__min__energy>  (30) 
-6.4400000000000004

>  <m_primary>  (30) 
energy

$$$$
30:0
     RDKit          3D

 62 65  0  0  0  0  0  0  0  0999 V2000
   -1.0790   14.8890  -32.3640 C   0  0  0  0  0  0  0  0  0  0  0  0
   -1.6130   15.0060  -33.7900 C   0  0  0  0  0  0  0  0  0  0  0  0
   -2.2540   13.7360  -34.2060 N   0  0  0  0  0  0  0  0  0  0  0  0
   -3.1630   13.9270  -35.3610 C   0  0  0  0  0  0  0  0  0  0  0  0
   -3.1210   15.3690  -35.8620 C   0  0  0  0  0  0  0  0  0  0  0  0
   -2.8730   13.0120  -33.0600 C   0  0  0  0  0  0  0  0  0  0  0  0
   -4.3270   12.5690  -33.3100 C   0  0  0  0  0  0  0  0  0  0  0  0
   -5.2270   13.5350  -32.7570 O   0  0  0  0  0  0  0  0  0  0  0  0
   -5.3390   14.8820  -33.1410 C   0  0  0  0  0  0  0  0  0  0  0  0
   -6.1760   15.3230  -34.1880 C   0  0  0  0  0  0  0  0  0  0  0  0
   -6.2780   16.6850  -34.4830 C   0  0  0  0  0  0  0  0  0  0  0  0
   -5.5460   17.6330  -33.7490 C   0  0  0  0  0  0  0  0  0  0  0  0
   -5.6650   19.0790  -34.0720 C   0  0  0  0  0  0  0  0  0  0  0  0
   -6.4860   19.4580  -34.9550 O   0  0  0  0  0  0  0  0  0  0  0  0
   -4.8640   20.1020  -33.3680 C   0  0  0  0  0  0  0  0  0  0  0  0
   -5.4180   21.1790  -32.6520 C   0  0  0  0  0  0  0  0  0  0  0  0
   -6.8460   21.4100  -32.3340 C   0  0  0  0  0  0  0  0  0  0  0  0
   -7.3590   22.7190  -32.3200 C   0  0  0  0  0  0  0  0  0  0  0  0
   -8.6950   22.9520  -31.9780 C   0  0  0  0  0  0  0  0  0  0  0  0
   -9.5280   21.8840  -31.6370 C   0  0  0  0  0  0  0  0  0  0  0  0
   -9.0280   20.5800  -31.6420 C   0  0  0  0  0  0  0  0  0  0  0  0
   -7.6920   20.3420  -31.9830 C   0  0  0  0  0  0  0  0  0  0  0  0
   -4.1630   22.1790  -32.1080 S   0  0  0  0  0  0  0  0  0  0  0  0
   -2.9250   21.2620  -32.7680 C   0  0  0  0  0  0  0  0  0  0  0  0
   -1.5580   21.5090  -32.7100 C   0  0  0  0  0  0  0  0  0  0  0  0
   -0.6820   20.6050  -33.3520 C   0  0  0  0  0  0  0  0  0  0  0  0
    0.7110   20.7700  -33.3330 O   0  0  0  0  0  0  0  0  0  0  0  0
    1.5530   20.6310  -34.4750 C   0  0  0  0  0  0  0  0  0  0  0  0
   -1.2130   19.4940  -34.0390 C   0  0  0  0  0  0  0  0  0  0  0  0
   -2.5990   19.2750  -34.0900 C   0  0  0  0  0  0  0  0  0  0  0  0
   -3.4570   20.1640  -33.4290 C   0  0  0  0  0  0  0  0  0  0  0  0
   -4.7010   17.1890  -32.7160 C   0  0  0  0  0  0  0  0  0  0  0  0
   -4.6100   15.8290  -32.4130 C   0  0  0  0  0  0  0  0  0  0  0  0
   -1.8967   15.0682  -31.6504 H   0  0  0  0  0  0  0  0  0  0  0  0
   -0.6700   13.8799  -32.2072 H   0  0  0  0  0  0  0  0  0  0  0  0
   -0.2856   15.6346  -32.2072 H   0  0  0  0  0  0  0  0  0  0  0  0
   -2.3539   15.8178  -33.8344 H   0  0  0  0  0  0  0  0  0  0  0  0
   -0.7750   15.2225  -34.4688 H   0  0  0  0  0  0  0  0  0  0  0  0
   -2.8550   13.2548  -36.1754 H   0  0  0  0  0  0  0  0  0  0  0  0
   -4.1897   13.6992  -35.0386 H   0  0  0  0  0  0  0  0  0  0  0  0
   -3.1010   16.0553  -35.0026 H   0  0  0  0  0  0  0  0  0  0  0  0
   -2.2181   15.5190  -36.4721 H   0  0  0  0  0  0  0  0  0  0  0  0
   -4.0136   15.5713  -36.4721 H   0  0  0  0  0  0  0  0  0  0  0  0
   -2.2698   12.1164  -32.8503 H   0  0  0  0  0  0  0  0  0  0  0  0
   -2.8957   13.7152  -32.2144 H   0  0  0  0  0  0  0  0  0  0  0  0
   -4.5023   12.4835  -34.3926 H   0  0  0  0  0  0  0  0  0  0  0  0
   -4.4987   11.5942  -32.8301 H   0  0  0  0  0  0  0  0  0  0  0  0
   -6.7508   14.5912  -34.7746 H   0  0  0  0  0  0  0  0  0  0  0  0
   -6.9378   17.0180  -35.2977 H   0  0  0  0  0  0  0  0  0  0  0  0
   -6.7056   23.5650  -32.5796 H   0  0  0  0  0  0  0  0  0  0  0  0
   -9.0905   23.9784  -31.9776 H   0  0  0  0  0  0  0  0  0  0  0  0
  -10.5774   22.0699  -31.3646 H   0  0  0  0  0  0  0  0  0  0  0  0
   -9.6855   19.7387  -31.3775 H   0  0  0  0  0  0  0  0  0  0  0  0
   -7.3008   19.3139  -31.9766 H   0  0  0  0  0  0  0  0  0  0  0  0
   -1.1673   22.3881  -32.1765 H   0  0  0  0  0  0  0  0  0  0  0  0
    2.5892   20.4599  -34.1479 H   0  0  0  0  0  0  0  0  0  0  0  0
    1.2134   19.7768  -35.0791 H   0  0  0  0  0  0  0  0  0  0  0  0
    1.5060   21.5491  -35.0791 H   0  0  0  0  0  0  0  0  0  0  0  0
   -0.5330   18.7901  -34.5412 H   0  0  0  0  0  0  0  0  0  0  0  0
   -3.0065   18.4155  -34.6425 H   0  0  0  0  0  0  0  0  0  0  0  0
   -4.1083   17.9175  -32.1434 H   0  0  0  0  0  0  0  0  0  0  0  0
   -3.9572   15.4979  -31.5919 H   0  0  0  0  0  0  0  0  0  0  0  0
  1  2  1  0
  2  3  1  0
  3  4  1  0
  4  5  1  0
  3  6  1  0
  6  7  1  0
  7  8  1  0
  8  9  1  0
  9 10  2  0
 10 11  1  0
 11 12  2  0
 12 13  1  0
 13 14  2  0
 13 15  1  0
 15 16  2  0
 16 17  1  0
 17 18  2  0
 18 19  1  0
 19 20  2  0
 20 21  1  0
 21 22  2  0
 16 23  1  0
 23 24  1  0
 24 25  2  0
 25 26  1  0
 26 27  1  0
 27 28  1  0
 26 29  2  0
 29 30  1  0
 30 31  2  0
 12 32  1  0
 32 33  2  0
 33  9  1  0
 31 15  1  0
 22 17  1  0
 31 24  1  0
  1 34  1  0
  1 35  1  0
  1 36  1  0
  2 37  1  0
  2 38  1  0
  4 39  1  0
  4 40  1  0
  5 41  1  0
  5 42  1  0
  5 43  1  0
  6 44  1  0
  6 45  1  0
  7 46  1  0
  7 47  1  0
 10 48  1  0
 11 49  1  0
 18 50  1  0
 19 51  1  0
 20 52  1  0
 21 53  1  0
 22 54  1  0
 25 55  1  0
 28 56  1  0
 28 57  1  0
 28 58  1  0
 29 59  1  0
 30 60  1  0
 32 61  1  0
 33 62  1  0
M  END
>  <UniqueID>  (31) 
30

>  <SMILES>  (31) 
CCN(CC)CCOc1ccc(C(=O)c2c(-c3ccccc3)sc3cc(OC)ccc23)cc1

>  <Energy>  (31) 
111.24310887603487

>  <Genealogy>  (31) 
CCN(CC)CCOc1ccc(C(=O)c2c(-c3ccccc3)sc3cc(OC)ccc23)cc1 (3D coordinates assigned)
CCN(CC)CCOc1ccc(C(=O)c2c(-c3ccccc3)sc3cc(OC)ccc23)cc1 (optimized conformer: 111.24310887603487 kcal/mol)

>  <smiles>  (31) 
CCN(CC)CCOc1ccc(C(=O)c2c(-c3ccccc3)sc3cc(OC)ccc23)cc1

>  <score_type>  (31) 
oracle

>  <origin>  (31) 
adg

>  <m_score__min__energy>  (31) 
-10.119999999999999

>  <m_primary>  (31) 
energy

$$$$
31:0
     RDKit          3D

 71 74  0  0  0  0  0  0  0  0999 V2000
   -3.4750   18.9700  -26.6930 C   0  0  0  0  0  0  0  0  0  0  0  0
   -1.9470   18.8190  -26.6850 C   0  0  0  0  0  0  0  0  0  0  0  0
   -1.2650   19.4870  -27.8180 N   0  0  0  0  0  0  0  0  0  0  0  0
   -1.0260   20.9300  -27.5820 C   0  0  0  0  0  0  0  0  0  0  0  0
   -2.3020   21.7120  -27.8660 C   0  0  0  0  0  0  0  0  0  0  0  0
   -0.0620   18.7610  -28.2780 C   0  0  0  0  0  0  0  0  0  0  0  0
    0.3610   19.2490  -29.6670 C   0  0  0  0  0  0  0  0  0  0  0  0
   -0.7850   19.4930  -30.4790 O   0  0  0  0  0  0  0  0  0  0  0  0
   -1.0150   20.7000  -31.1500 C   0  0  0  0  0  0  0  0  0  0  0  0
   -0.0640   21.5060  -31.3490 O   0  0  0  0  0  0  0  0  0  0  0  0
   -2.3680   21.0190  -31.6630 C   0  0  0  0  0  0  0  0  0  0  0  0
   -3.1100   22.0340  -31.0360 C   0  0  0  0  0  0  0  0  0  0  0  0
   -4.3550   22.4280  -31.5410 C   0  0  0  0  0  0  0  0  0  0  0  0
   -5.1220   23.5250  -30.9100 C   0  0  0  0  0  0  0  0  0  0  0  0
   -4.5620   24.7710  -30.8590 N   0  0  0  0  0  0  0  0  0  0  0  0
   -5.2010   25.8230  -30.2800 C   0  0  0  0  0  0  0  0  0  0  0  0
   -6.4670   25.6550  -29.7230 C   0  0  0  0  0  0  0  0  0  0  0  0
   -7.0730   24.4010  -29.7680 C   0  0  0  0  0  0  0  0  0  0  0  0
   -6.4200   23.3190  -30.3770 C   0  0  0  0  0  0  0  0  0  0  0  0
   -7.1150   21.9840  -30.4470 C   0  0  0  0  0  0  0  0  0  0  0  0
   -4.8360   21.8110  -32.6980 C   0  0  0  0  0  0  0  0  0  0  0  0
   -4.1230   20.8170  -33.2870 N   0  0  0  0  0  0  0  0  0  0  0  0
   -2.9220   20.3920  -32.8090 C   0  0  0  0  0  0  0  0  0  0  0  0
   -2.2720   19.2530  -33.4940 C   0  0  0  0  0  0  0  0  0  0  0  0
   -1.0070   19.4120  -34.0840 C   0  0  0  0  0  0  0  0  0  0  0  0
   -0.3690   18.3300  -34.6950 C   0  0  0  0  0  0  0  0  0  0  0  0
   -0.9820   17.0760  -34.7090 C   0  0  0  0  0  0  0  0  0  0  0  0
   -2.2310   16.9000  -34.1100 C   0  0  0  0  0  0  0  0  0  0  0  0
   -2.8780   17.9800  -33.4920 C   0  0  0  0  0  0  0  0  0  0  0  0
   -4.1380   17.8120  -32.9130 O   0  0  0  0  0  0  0  0  0  0  0  0
   -5.5660   17.7000  -33.8480 S   0  0  0  0  0  0  0  0  0  0  0  0
   -5.3250   18.3220  -35.1950 O   0  0  0  0  0  0  0  0  0  0  0  0
   -5.9050   16.2510  -34.0490 O   0  0  0  0  0  0  0  0  0  0  0  0
   -6.9170   18.5020  -33.0540 C   0  0  0  0  0  0  0  0  0  0  0  0
   -7.2620   19.8130  -33.4130 C   0  0  0  0  0  0  0  0  0  0  0  0
   -8.3410   20.4500  -32.7910 C   0  0  0  0  0  0  0  0  0  0  0  0
   -9.0840   19.7770  -31.8150 C   0  0  0  0  0  0  0  0  0  0  0  0
   -8.7480   18.4670  -31.4600 C   0  0  0  0  0  0  0  0  0  0  0  0
   -7.6670   17.8290  -32.0770 C   0  0  0  0  0  0  0  0  0  0  0  0
   -3.8453   19.0066  -25.6578 H   0  0  0  0  0  0  0  0  0  0  0  0
   -3.7489   19.8996  -27.2135 H   0  0  0  0  0  0  0  0  0  0  0  0
   -3.9255   18.1120  -27.2135 H   0  0  0  0  0  0  0  0  0  0  0  0
   -1.5627   19.2496  -25.7486 H   0  0  0  0  0  0  0  0  0  0  0  0
   -1.7350   17.7436  -26.7780 H   0  0  0  0  0  0  0  0  0  0  0  0
   -0.7269   21.0851  -26.5349 H   0  0  0  0  0  0  0  0  0  0  0  0
   -0.2255   21.2818  -28.2494 H   0  0  0  0  0  0  0  0  0  0  0  0
   -2.7740   22.0013  -26.9155 H   0  0  0  0  0  0  0  0  0  0  0  0
   -2.0574   22.6155  -28.4438 H   0  0  0  0  0  0  0  0  0  0  0  0
   -2.9960   21.0839  -28.4438 H   0  0  0  0  0  0  0  0  0  0  0  0
    0.7595   18.9350  -27.5675 H   0  0  0  0  0  0  0  0  0  0  0  0
   -0.2942   17.6872  -28.3337 H   0  0  0  0  0  0  0  0  0  0  0  0
    0.9370   20.1805  -29.5639 H   0  0  0  0  0  0  0  0  0  0  0  0
    0.9779   18.4736  -30.1447 H   0  0  0  0  0  0  0  0  0  0  0  0
   -2.7080   22.5250  -30.1375 H   0  0  0  0  0  0  0  0  0  0  0  0
   -3.6070   24.9280  -31.2540 H   0  0  0  0  0  0  0  0  0  0  0  0
   -4.7164   26.8101  -30.2514 H   0  0  0  0  0  0  0  0  0  0  0  0
   -6.9834   26.5044  -29.2521 H   0  0  0  0  0  0  0  0  0  0  0  0
   -8.0691   24.2587  -29.3235 H   0  0  0  0  0  0  0  0  0  0  0  0
   -7.3064   21.6164  -29.4281 H   0  0  0  0  0  0  0  0  0  0  0  0
   -8.0697   22.0952  -30.9820 H   0  0  0  0  0  0  0  0  0  0  0  0
   -6.4764   21.2657  -30.9820 H   0  0  0  0  0  0  0  0  0  0  0  0
   -5.7944   22.1310  -33.1329 H   0  0  0  0  0  0  0  0  0  0  0  0
   -0.5153   20.3958  -34.0647 H   0  0  0  0  0  0  0  0  0  0  0  0
    0.6162   18.4661  -35.1650 H   0  0  0  0  0  0  0  0  0  0  0  0
   -0.4803   16.2250  -35.1927 H   0  0  0  0  0  0  0  0  0  0  0  0
   -2.7097   15.9097  -34.1229 H   0  0  0  0  0  0  0  0  0  0  0  0
   -6.6832   20.3413  -34.1849 H   0  0  0  0  0  0  0  0  0  0  0  0
   -8.6055   21.4808  -33.0694 H   0  0  0  0  0  0  0  0  0  0  0  0
   -9.9326   20.2786  -31.3269 H   0  0  0  0  0  0  0  0  0  0  0  0
   -9.3345   17.9376  -30.6946 H   0  0  0  0  0  0  0  0  0  0  0  0
   -7.4043   16.7984  -31.7962 H   0  0  0  0  0  0  0  0  0  0  0  0
  1  2  1  0
  2  3  1  0
  3  4  1  0
  4  5  1  0
  3  6  1  0
  6  7  1  0
  7  8  1  0
  8  9  1  0
  9 10  2  0
  9 11  1  0
 11 12  2  0
 12 13  1  0
 13 14  1  0
 14 15  2  0
 15 16  1  0
 16 17  2  0
 17 18  1  0
 18 19  2  0
 19 20  1  0
 13 21  2  0
 21 22  1  0
 22 23  2  0
 23 24  1  0
 24 25  2  0
 25 26  1  0
 26 27  2  0
 27 28  1  0
 28 29  2  0
 29 30  1  0
 30 31  1  0
 31 32  2  0
 31 33  2  0
 31 34  1  0
 34 35  2  0
 35 36  1  0
 36 37  2  0
 37 38  1  0
 38 39  2  0
 23 11  1  0
 29 24  1  0
 39 34  1  0
 19 14  1  0
  1 40  1  0
  1 41  1  0
  1 42  1  0
  2 43  1  0
  2 44  1  0
  4 45  1  0
  4 46  1  0
  5 47  1  0
  5 48  1  0
  5 49  1  0
  6 50  1  0
  6 51  1  0
  7 52  1  0
  7 53  1  0
 12 54  1  0
 15 55  1  0
 16 56  1  0
 17 57  1  0
 18 58  1  0
 20 59  1  0
 20 60  1  0
 20 61  1  0
 21 62  1  0
 25 63  1  0
 26 64  1  0
 27 65  1  0
 28 66  1  0
 35 67  1  0
 36 68  1  0
 37 69  1  0
 38 70  1  0
 39 71  1  0
M  CHG  1  15   1
M  END
>  <UniqueID>  (32) 
31

>  <SMILES>  (32) 
CCN(CC)CCOC(=O)c1cc(-c2[nH+]cccc2C)cnc1-c1ccccc1OS(=O)(=O)c1ccccc1

>  <Energy>  (32) 
95.23286132791364

>  <Genealogy>  (32) 
CCN(CC)CCOC(=O)c1cc(-c2[nH+]cccc2C)cnc1-c1ccccc1OS(=O)(=O)c1ccccc1 (protonated)
CCN(CC)CCOC(=O)c1cc(-c2[nH+]cccc2C)cnc1-c1ccccc1OS(=O)(=O)c1ccccc1 (3D coordinates assigned)
CCN(CC)CCOC(=O)c1cc(-c2[nH+]cccc2C)cnc1-c1ccccc1OS(=O)(=O)c1ccccc1 (optimized conformer: 95.23286132791364 kcal/mol)

>  <smiles>  (32) 
CCN(CC)CCOC(=O)c1cc(-c2ncccc2C)cnc1-c1ccccc1OS(=O)(=O)c1ccccc1

>  <score_type>  (32) 
oracle

>  <origin>  (32) 
adg

>  <m_score__min__energy>  (32) 
-9.5500000000000007

>  <m_primary>  (32) 
energy

$$$$
32:0
     RDKit          3D

 27 28  0  0  0  0  0  0  0  0999 V2000
    1.8839   25.5523  -26.8582 H   0  0  0  0  0  0  0  0  0  0  0  0
    0.8670   25.1580  -27.0010 C   0  0  0  0  0  0  0  0  0  0  0  0
    0.3140   24.8960  -28.1630 O   0  0  0  0  0  0  0  0  0  0  0  0
   -0.9030   24.4400  -27.9600 C   0  0  0  0  0  0  0  0  0  0  0  0
   -1.8080   24.0460  -29.0560 C   0  0  0  0  0  0  0  0  0  0  0  0
   -2.7640   24.9240  -29.4640 N   0  0  0  0  0  0  0  0  0  0  0  0
   -3.6270   24.6200  -30.4680 C   0  0  0  0  0  0  0  0  0  0  0  0
   -4.5240   25.4910  -30.8230 N   0  0  0  0  0  0  0  0  0  0  0  0
   -5.7950   25.6820  -30.1320 C   0  0  0  0  0  0  0  0  0  0  0  0
   -6.3519   26.5009  -30.6107 H   0  0  0  0  0  0  0  0  0  0  0  0
   -5.6026   25.9324  -29.0783 H   0  0  0  0  0  0  0  0  0  0  0  0
   -6.6160   24.4020  -30.2040 C   0  0  0  0  0  0  0  0  0  0  0  0
   -6.8402   24.0524  -29.1854 H   0  0  0  0  0  0  0  0  0  0  0  0
   -7.5565   24.5993  -30.7393 H   0  0  0  0  0  0  0  0  0  0  0  0
   -6.0445   23.6294  -30.7393 H   0  0  0  0  0  0  0  0  0  0  0  0
   -3.5420   23.4110  -31.0870 N   0  0  0  0  0  0  0  0  0  0  0  0
   -2.6070   22.4960  -30.7190 C   0  0  0  0  0  0  0  0  0  0  0  0
   -2.5400   21.1760  -31.4180 C   0  0  0  0  0  0  0  0  0  0  0  0
   -2.4990   20.3681  -30.6726 H   0  0  0  0  0  0  0  0  0  0  0  0
   -3.4328   21.0489  -32.0478 H   0  0  0  0  0  0  0  0  0  0  0  0
   -1.6389   21.1399  -32.0478 H   0  0  0  0  0  0  0  0  0  0  0  0
   -1.7130   22.7970  -29.6880 C   0  0  0  0  0  0  0  0  0  0  0  0
   -0.9493   22.0686  -29.3778 H   0  0  0  0  0  0  0  0  0  0  0  0
   -1.1640   24.4000  -26.6000 C   0  0  0  0  0  0  0  0  0  0  0  0
   -2.0914   24.0671  -26.1110 H   0  0  0  0  0  0  0  0  0  0  0  0
   -0.0200   24.8640  -25.9870 C   0  0  0  0  0  0  0  0  0  0  0  0
    0.1510   24.9770  -24.9063 H   0  0  0  0  0  0  0  0  0  0  0  0
  1  2  1  0
  2  3  1  0
  3  4  1  0
  4  5  1  0
  5  6  2  0
  6  7  1  0
  7  8  2  0
  8  9  1  0
  9 10  1  0
  9 11  1  0
  9 12  1  0
 12 13  1  0
 12 14  1  0
 12 15  1  0
  7 16  1  0
 16 17  1  0
 17 18  1  0
 18 19  1  0
 18 20  1  0
 18 21  1  0
 17 22  2  0
 22 23  1  0
  4 24  2  0
 24 25  1  0
 24 26  1  0
 26 27  1  0
 26  2  2  0
 22  5  1  0
M  CHG  1  16  -1
M  END
>  <UniqueID>  (33) 
32

>  <SMILES>  (33) 
CC/N=c1/nc(-c2ccco2)cc(C)[n-]1

>  <Energy>  (33) 
48.94961051309795

>  <Genealogy>  (33) 
CCN=c1nc(-c2ccco2)cc(C)[n-]1 (protonated)
CC/N=c1/nc(-c2ccco2)cc(C)[n-]1 (cis-trans isomerization)
CC/N=c1/nc(-c2ccco2)cc(C)[n-]1 (3D coordinates assigned)
CC/N=c1/nc(-c2ccco2)cc(C)[n-]1 (optimized conformer: 48.94961051309795 kcal/mol)

>  <smiles>  (33) 
CCN=c1nc(-c2ccco2)cc(C)[nH]1

>  <score_type>  (33) 
oracle

>  <origin>  (33) 
adg

>  <m_score__min__energy>  (33) 
-7

>  <m_primary>  (33) 
energy

$$$$
33:0
     RDKit          3D

 68 70  0  0  0  0  0  0  0  0999 V2000
   -6.8440   25.0960  -29.7720 C   0  0  0  0  0  0  0  0  0  0  0  0
   -6.3350   23.8200  -30.4560 C   0  0  0  0  0  0  0  0  0  0  0  0
   -4.8080   23.7260  -30.3130 C   0  0  0  0  0  0  0  0  0  0  0  0
   -6.7790   23.8040  -31.9380 C   0  0  0  0  0  0  0  0  0  0  0  0
   -7.9860   22.8840  -32.1890 C   0  0  0  0  0  0  0  0  0  0  0  0
   -8.2420   21.9660  -30.9810 C   0  0  0  0  0  0  0  0  0  0  0  0
   -8.4970   20.4540  -31.2750 C   0  0  1  0  0  0  0  0  0  0  0  0
   -9.4900   20.3040  -32.4450 C   0  0  0  0  0  0  0  0  0  0  0  0
   -7.3030   19.4450  -31.4520 C   0  0  1  0  0  0  0  0  0  0  0  0
   -7.6410   17.9410  -31.6250 C   0  0  0  0  0  0  0  0  0  0  0  0
   -6.4780   17.3240  -32.4170 C   0  0  0  0  0  0  0  0  0  0  0  0
   -5.3940   18.3970  -32.3880 C   0  0  1  0  0  0  0  0  0  0  0  0
   -4.1350   18.2660  -33.2990 C   0  0  1  0  0  0  0  0  0  0  0  0
   -4.3820   17.5230  -34.6400 C   0  0  0  0  0  0  0  0  0  0  0  0
   -3.6920   16.1400  -34.7310 C   0  0  1  0  0  0  0  0  0  0  0  0
   -4.6210   14.9810  -34.3880 C   0  0  0  0  0  0  0  0  0  0  0  0
   -4.0640   13.8090  -35.1720 C   0  0  0  0  0  0  0  0  0  0  0  0
   -3.1370   14.4190  -36.2200 C   0  0  0  0  0  0  0  0  0  0  0  0
   -3.1970   15.8760  -36.0850 N   0  0  0  0  0  0  0  0  0  0  0  0
   -3.4430   19.6510  -33.4750 C   0  0  0  0  0  0  0  0  0  0  0  0
   -3.6850   20.5950  -32.2800 C   0  0  0  0  0  0  0  0  0  0  0  0
   -5.1840   20.8900  -32.0040 C   0  0  0  0  0  0  0  0  0  0  0  0
   -6.1460   19.7440  -32.4570 C   0  0  2  0  0  0  0  0  0  0  0  0
   -6.6900   20.0450  -33.8790 C   0  0  0  0  0  0  0  0  0  0  0  0
   -6.7943   24.9715  -28.6802 H   0  0  0  0  0  0  0  0  0  0  0  0
   -6.2170   25.9483  -30.0728 H   0  0  0  0  0  0  0  0  0  0  0  0
   -7.8855   25.2828  -30.0728 H   0  0  0  0  0  0  0  0  0  0  0  0
   -6.7714   22.9358  -29.9684 H   0  0  0  0  0  0  0  0  0  0  0  0
   -4.5400   23.7095  -29.2463 H   0  0  0  0  0  0  0  0  0  0  0  0
   -4.4506   22.8042  -30.7952 H   0  0  0  0  0  0  0  0  0  0  0  0
   -4.3403   24.5971  -30.7952 H   0  0  0  0  0  0  0  0  0  0  0  0
   -7.0499   24.8280  -32.2347 H   0  0  0  0  0  0  0  0  0  0  0  0
   -5.9380   23.4161  -32.5314 H   0  0  0  0  0  0  0  0  0  0  0  0
   -8.8784   23.5022  -32.3662 H   0  0  0  0  0  0  0  0  0  0  0  0
   -7.7709   22.2561  -33.0662 H   0  0  0  0  0  0  0  0  0  0  0  0
   -7.3626   22.0315  -30.3234 H   0  0  0  0  0  0  0  0  0  0  0  0
   -9.1816   22.3316  -30.5412 H   0  0  0  0  0  0  0  0  0  0  0  0
   -8.8932   20.1268  -30.3024 H   0  0  0  0  0  0  0  0  0  0  0  0
  -10.5043   20.1508  -32.0477 H   0  0  0  0  0  0  0  0  0  0  0  0
   -9.4712   21.2152  -33.0610 H   0  0  0  0  0  0  0  0  0  0  0  0
   -9.2029   19.4390  -33.0610 H   0  0  0  0  0  0  0  0  0  0  0  0
   -6.9314   19.6604  -30.4394 H   0  0  0  0  0  0  0  0  0  0  0  0
   -7.7317   17.4558  -30.6420 H   0  0  0  0  0  0  0  0  0  0  0  0
   -8.5979   17.8049  -32.1501 H   0  0  0  0  0  0  0  0  0  0  0  0
   -6.1251   16.4000  -31.9357 H   0  0  0  0  0  0  0  0  0  0  0  0
   -6.7670   17.0449  -33.4410 H   0  0  0  0  0  0  0  0  0  0  0  0
   -4.8299   18.2743  -31.4516 H   0  0  0  0  0  0  0  0  0  0  0  0
   -3.4337   17.6022  -32.7721 H   0  0  0  0  0  0  0  0  0  0  0  0
   -5.4657   17.3773  -34.7600 H   0  0  0  0  0  0  0  0  0  0  0  0
   -3.9476   18.1478  -35.4343 H   0  0  0  0  0  0  0  0  0  0  0  0
   -2.8722   16.1939  -33.9995 H   0  0  0  0  0  0  0  0  0  0  0  0
   -4.6010   14.7721  -33.3082 H   0  0  0  0  0  0  0  0  0  0  0  0
   -5.6701   15.1947  -34.6405 H   0  0  0  0  0  0  0  0  0  0  0  0
   -3.5023   13.1353  -34.5082 H   0  0  0  0  0  0  0  0  0  0  0  0
   -4.8638   13.2120  -35.6345 H   0  0  0  0  0  0  0  0  0  0  0  0
   -2.1067   14.0710  -36.0547 H   0  0  0  0  0  0  0  0  0  0  0  0
   -3.4504   14.1158  -37.2299 H   0  0  0  0  0  0  0  0  0  0  0  0
   -3.8570   16.2580  -36.8040 H   0  0  0  0  0  0  0  0  0  0  0  0
   -2.2500   16.3000  -36.2200 H   0  0  0  0  0  0  0  0  0  0  0  0
   -2.3600   19.4917  -33.5836 H   0  0  0  0  0  0  0  0  0  0  0  0
   -3.8764   20.1272  -34.3668 H   0  0  0  0  0  0  0  0  0  0  0  0
   -3.2517   20.1331  -31.3806 H   0  0  0  0  0  0  0  0  0  0  0  0
   -3.2119   21.5557  -32.5315 H   0  0  0  0  0  0  0  0  0  0  0  0
   -5.3137   21.0447  -30.9227 H   0  0  0  0  0  0  0  0  0  0  0  0
   -5.4487   21.7816  -32.5914 H   0  0  0  0  0  0  0  0  0  0  0  0
   -7.6500   20.5762  -33.7995 H   0  0  0  0  0  0  0  0  0  0  0  0
   -5.9680   20.6720  -34.4227 H   0  0  0  0  0  0  0  0  0  0  0  0
   -6.8376   19.1002  -34.4227 H   0  0  0  0  0  0  0  0  0  0  0  0
  1  2  1  0
  2  3  1  0
  2  4  1  0
  4  5  1  0
  5  6  1  0
  6  7  1  0
  7  8  1  0
  7  9  1  0
  9 10  1  0
 10 11  1  0
 11 12  1  0
 12 13  1  0
 13 14  1  0
 14 15  1  0
 15 16  1  0
 16 17  1  0
 17 18  1  0
 18 19  1  0
 13 20  1  0
 20 21  1  0
 21 22  1  0
 22 23  1  0
 23 24  1  6
 23  9  1  0
 23 12  1  0
 19 15  1  0
  1 25  1  0
  1 26  1  0
  1 27  1  0
  2 28  1  0
  3 29  1  0
  3 30  1  0
  3 31  1  0
  4 32  1  0
  4 33  1  0
  5 34  1  0
  5 35  1  0
  6 36  1  0
  6 37  1  0
  7 38  1  1
  8 39  1  0
  8 40  1  0
  8 41  1  0
  9 42  1  1
 10 43  1  0
 10 44  1  0
 11 45  1  0
 11 46  1  0
 12 47  1  1
 13 48  1  1
 14 49  1  0
 14 50  1  0
 15 51  1  1
 16 52  1  0
 16 53  1  0
 17 54  1  0
 17 55  1  0
 18 56  1  0
 18 57  1  0
 19 58  1  0
 19 59  1  0
 20 60  1  0
 20 61  1  0
 21 62  1  0
 21 63  1  0
 22 64  1  0
 22 65  1  0
 24 66  1  0
 24 67  1  0
 24 68  1  0
M  CHG  1  19   1
M  END
>  <UniqueID>  (34) 
33

>  <SMILES>  (34) 
CC(C)CCC[C@@H](C)[C@H]1CCC2C(CC3CCC[NH2+]3)CCCC21C

>  <Energy>  (34) 
91.67961147227506

>  <Genealogy>  (34) 
CC(C)CCCC(C)C1CCC2C(CC3CCC[NH2+]3)CCCC12C (protonated)
CC(C)CCC[C@@H](C)[C@H]1CCC2C(CC3CCC[NH2+]3)CCCC21C (chirality)
CC(C)CCC[C@@H](C)[C@H]1CCC2C(CC3CCC[NH2+]3)CCCC21C (3D coordinates assigned)
CC(C)CCC[C@@H](C)[C@H]1CCC2C(CC3CCC[NH2+]3)CCCC21C (nonaromatic ring conformer: 91.67961147227506 kcal/mol)

>  <smiles>  (34) 
CC(C)CCCC(C)C1CCC2C(CC3CCCN3)CCCC12C

>  <score_type>  (34) 
oracle

>  <origin>  (34) 
adg

>  <m_score__min__energy>  (34) 
-8.7699999999999996

>  <m_primary>  (34) 
energy

$$$$
34:0
     RDKit          3D

 48 50  0  0  0  0  0  0  0  0999 V2000
   -6.4140   16.5440  -33.6770 C   0  0  0  0  0  0  0  0  0  0  0  0
   -6.4580   17.9890  -34.1710 C   0  0  0  0  0  0  0  0  0  0  0  0
   -6.4430   18.9380  -33.0330 N   0  0  0  0  0  0  0  0  0  0  0  0
   -5.0760   19.4760  -32.8180 C   0  0  0  0  0  0  0  0  0  0  0  0
   -4.9210   20.8790  -33.4030 C   0  0  0  0  0  0  0  0  0  0  0  0
   -6.9840   18.3160  -31.7960 C   0  0  0  0  0  0  0  0  0  0  0  0
   -8.4760   18.5010  -31.7380 C   0  0  0  0  0  0  0  0  0  0  0  0
   -9.2230   17.5110  -31.9560 O   0  0  0  0  0  0  0  0  0  0  0  0
   -9.0760   19.7780  -31.4850 N   0  0  0  0  0  0  0  0  0  0  0  0
   -8.4090   21.0460  -31.4800 C   0  0  0  0  0  0  0  0  0  0  0  0
   -9.0830   22.1720  -32.0120 C   0  0  0  0  0  0  0  0  0  0  0  0
   -8.4800   23.4440  -32.0080 C   0  0  0  0  0  0  0  0  0  0  0  0
   -7.2110   23.5640  -31.4500 C   0  0  0  0  0  0  0  0  0  0  0  0
   -6.4710   24.6880  -31.3370 N   0  0  0  0  0  0  0  0  0  0  0  0
   -5.3380   24.2940  -30.7150 C   0  0  0  0  0  0  0  0  0  0  0  0
   -4.2520   25.0930  -30.3610 C   0  0  0  0  0  0  0  0  0  0  0  0
   -3.1530   24.4810  -29.7240 C   0  0  0  0  0  0  0  0  0  0  0  0
   -2.0440   25.3000  -29.3310 N   0  0  0  0  0  0  0  0  0  0  0  0
   -1.2510   25.1560  -28.1450 C   0  0  0  0  0  0  0  0  0  0  0  0
   -1.8540   25.1990  -26.7740 C   0  0  0  0  0  0  0  0  0  0  0  0
   -0.0140   24.9500  -28.2600 O   0  0  0  0  0  0  0  0  0  0  0  0
   -3.1960   23.0940  -29.4160 C   0  0  0  0  0  0  0  0  0  0  0  0
   -4.3040   22.3100  -29.7830 C   0  0  0  0  0  0  0  0  0  0  0  0
   -5.3580   22.9440  -30.4350 C   0  0  0  0  0  0  0  0  0  0  0  0
   -6.5610   22.4740  -30.9090 C   0  0  0  0  0  0  0  0  0  0  0  0
   -7.1310   21.2030  -30.8940 C   0  0  0  0  0  0  0  0  0  0  0  0
   -6.4136   16.5324  -32.5771 H   0  0  0  0  0  0  0  0  0  0  0  0
   -7.2961   16.0023  -34.0491 H   0  0  0  0  0  0  0  0  0  0  0  0
   -5.5006   16.0569  -34.0491 H   0  0  0  0  0  0  0  0  0  0  0  0
   -5.5822   18.1782  -34.8092 H   0  0  0  0  0  0  0  0  0  0  0  0
   -7.3876   18.1375  -34.7400 H   0  0  0  0  0  0  0  0  0  0  0  0
   -4.8750   19.5164  -31.7373 H   0  0  0  0  0  0  0  0  0  0  0  0
   -4.3626   18.8118  -33.3277 H   0  0  0  0  0  0  0  0  0  0  0  0
   -4.8402   21.6103  -32.5853 H   0  0  0  0  0  0  0  0  0  0  0  0
   -4.0129   20.9197  -34.0224 H   0  0  0  0  0  0  0  0  0  0  0  0
   -5.7983   21.1170  -34.0224 H   0  0  0  0  0  0  0  0  0  0  0  0
   -6.7498   17.2412  -31.7961 H   0  0  0  0  0  0  0  0  0  0  0  0
   -6.5258   18.7972  -30.9194 H   0  0  0  0  0  0  0  0  0  0  0  0
  -10.0915   22.0511  -32.4342 H   0  0  0  0  0  0  0  0  0  0  0  0
   -8.9966   24.3171  -32.4333 H   0  0  0  0  0  0  0  0  0  0  0  0
   -6.7220   25.6510  -31.6560 H   0  0  0  0  0  0  0  0  0  0  0  0
   -4.2524   26.1724  -30.5730 H   0  0  0  0  0  0  0  0  0  0  0  0
   -1.0550   25.1420  -26.0201 H   0  0  0  0  0  0  0  0  0  0  0  0
   -2.4109   26.1391  -26.6477 H   0  0  0  0  0  0  0  0  0  0  0  0
   -2.5387   24.3474  -26.6477 H   0  0  0  0  0  0  0  0  0  0  0  0
   -2.3528   22.6287  -28.8845 H   0  0  0  0  0  0  0  0  0  0  0  0
   -4.3369   21.2328  -29.5625 H   0  0  0  0  0  0  0  0  0  0  0  0
   -6.6047   20.3496  -30.4414 H   0  0  0  0  0  0  0  0  0  0  0  0
  1  2  1  0
  2  3  1  0
  3  4  1  0
  4  5  1  0
  3  6  1  0
  6  7  1  0
  7  8  2  0
  7  9  1  0
  9 10  1  0
 10 11  2  0
 11 12  1  0
 12 13  2  0
 13 14  1  0
 14 15  1  0
 15 16  2  0
 16 17  1  0
 17 18  1  0
 18 19  1  0
 19 20  1  0
 19 21  2  0
 17 22  2  0
 22 23  1  0
 23 24  2  0
 24 25  1  0
 25 26  2  0
 26 10  1  0
 25 13  1  0
 24 15  1  0
  1 27  1  0
  1 28  1  0
  1 29  1  0
  2 30  1  0
  2 31  1  0
  4 32  1  0
  4 33  1  0
  5 34  1  0
  5 35  1  0
  5 36  1  0
  6 37  1  0
  6 38  1  0
 11 39  1  0
 12 40  1  0
 14 41  1  0
 16 42  1  0
 20 43  1  0
 20 44  1  0
 20 45  1  0
 22 46  1  0
 23 47  1  0
 26 48  1  0
M  CHG  2   9  -1  18  -1
M  END
>  <UniqueID>  (35) 
34

>  <SMILES>  (35) 
CCN(CC)CC(=O)[N-]c1ccc2[nH]c3cc([N-]C(C)=O)ccc3c2c1

>  <Energy>  (35) 
97.95294005225193

>  <Genealogy>  (35) 
CCN(CC)CC(=O)[N-]c1ccc2[nH]c3cc([N-]C(C)=O)ccc3c2c1 (protonated)
CCN(CC)CC(=O)[N-]c1ccc2[nH]c3cc([N-]C(C)=O)ccc3c2c1 (3D coordinates assigned)
CCN(CC)CC(=O)[N-]c1ccc2[nH]c3cc([N-]C(C)=O)ccc3c2c1 (optimized conformer: 97.95294005225193 kcal/mol)

>  <smiles>  (35) 
CCN(CC)CC(=O)Nc1ccc2[nH]c3cc(NC(C)=O)ccc3c2c1

>  <score_type>  (35) 
oracle

>  <origin>  (35) 
adg

>  <m_score__min__energy>  (35) 
-10.01

>  <m_primary>  (35) 
energy

$$$$
35:0
     RDKit          3D

 58 61  0  0  0  0  0  0  0  0999 V2000
   -0.0080   22.4340  -26.8180 C   0  0  0  0  0  0  0  0  0  0  0  0
   -1.1500   22.9250  -27.6560 C   0  0  0  0  0  0  0  0  0  0  0  0
   -1.1390   22.7430  -29.0470 C   0  0  0  0  0  0  0  0  0  0  0  0
   -2.2170   23.1770  -29.8210 C   0  0  0  0  0  0  0  0  0  0  0  0
   -3.3240   23.7900  -29.2160 C   0  0  0  0  0  0  0  0  0  0  0  0
   -4.6640   24.3820  -30.2000 S   0  0  0  0  0  0  0  0  0  0  0  0
   -4.2620   25.6710  -30.8620 O   0  0  0  0  0  0  0  0  0  0  0  0
   -5.8450   24.6640  -29.3150 O   0  0  0  0  0  0  0  0  0  0  0  0
   -5.1210   23.2120  -31.4170 N   0  0  0  0  0  0  0  0  0  0  0  0
   -6.4830   23.4780  -31.9510 C   0  0  0  0  0  0  0  0  0  0  0  0
   -7.5090   22.5420  -31.4330 N   0  0  1  0  0  0  0  0  0  0  0  0
   -8.8360   22.9010  -31.9700 C   0  0  0  0  0  0  0  0  0  0  0  0
   -7.1600   21.0800  -31.5500 C   0  0  1  0  0  0  0  0  0  0  0  0
   -8.0120   20.2120  -32.5030 C   0  0  0  0  0  0  0  0  0  0  0  0
   -7.5880   18.7540  -32.4480 C   0  0  0  0  0  0  0  0  0  0  0  0
   -8.3530   17.9130  -32.8960 O   0  0  0  0  0  0  0  0  0  0  0  0
   -6.2480   18.2850  -31.9030 C   0  0  0  0  0  0  0  0  0  0  0  0
   -5.3870   19.3700  -31.2100 C   0  0  0  0  0  0  0  0  0  0  0  0
   -5.6380   20.7960  -31.7700 C   0  0  1  0  0  0  0  0  0  0  0  0
   -5.1810   20.8450  -33.2840 C   0  0  0  0  0  0  0  0  0  0  0  0
   -3.7220   20.5140  -33.5150 C   0  0  0  0  0  0  0  0  0  0  0  0
   -3.3360   19.2200  -33.9070 C   0  0  0  0  0  0  0  0  0  0  0  0
   -1.9860   18.9170  -34.1140 C   0  0  0  0  0  0  0  0  0  0  0  0
   -1.0130   19.9030  -33.9420 C   0  0  0  0  0  0  0  0  0  0  0  0
   -1.3870   21.1970  -33.5690 C   0  0  0  0  0  0  0  0  0  0  0  0
   -2.7350   21.5040  -33.3620 C   0  0  0  0  0  0  0  0  0  0  0  0
   -4.8940   21.8410  -30.9170 C   0  0  0  0  0  0  0  0  0  0  0  0
   -3.3480   23.9450  -27.8230 C   0  0  0  0  0  0  0  0  0  0  0  0
   -2.2690   23.5120  -27.0470 C   0  0  0  0  0  0  0  0  0  0  0  0
   -0.2613   22.5429  -25.7531 H   0  0  0  0  0  0  0  0  0  0  0  0
    0.1828   21.3743  -27.0430 H   0  0  0  0  0  0  0  0  0  0  0  0
    0.8924   23.0245  -27.0430 H   0  0  0  0  0  0  0  0  0  0  0  0
   -0.2783   22.2568  -29.5295 H   0  0  0  0  0  0  0  0  0  0  0  0
   -2.1980   23.0373  -30.9119 H   0  0  0  0  0  0  0  0  0  0  0  0
   -6.7729   24.5022  -31.6736 H   0  0  0  0  0  0  0  0  0  0  0  0
   -6.4379   23.3410  -33.0415 H   0  0  0  0  0  0  0  0  0  0  0  0
   -7.5720   22.7570  -30.4080 H   0  0  0  0  0  0  0  0  0  0  0  0
   -9.5299   23.0887  -31.1374 H   0  0  0  0  0  0  0  0  0  0  0  0
   -8.7490   23.8079  -32.5864 H   0  0  0  0  0  0  0  0  0  0  0  0
   -9.2181   22.0739  -32.5864 H   0  0  0  0  0  0  0  0  0  0  0  0
   -7.4424   20.7441  -30.5413 H   0  0  0  0  0  0  0  0  0  0  0  0
   -9.0692   20.2892  -32.2093 H   0  0  0  0  0  0  0  0  0  0  0  0
   -7.8661   20.5778  -33.5301 H   0  0  0  0  0  0  0  0  0  0  0  0
   -6.4417   17.4882  -31.1698 H   0  0  0  0  0  0  0  0  0  0  0  0
   -5.6677   17.9556  -32.7775 H   0  0  0  0  0  0  0  0  0  0  0  0
   -5.6217   19.3696  -30.1353 H   0  0  0  0  0  0  0  0  0  0  0  0
   -4.3322   19.1234  -31.4013 H   0  0  0  0  0  0  0  0  0  0  0  0
   -5.7897   20.1239  -33.8492 H   0  0  0  0  0  0  0  0  0  0  0  0
   -5.3206   21.8839  -33.6174 H   0  0  0  0  0  0  0  0  0  0  0  0
   -4.0997   18.4417  -34.0517 H   0  0  0  0  0  0  0  0  0  0  0  0
   -1.6908   17.9003  -34.4127 H   0  0  0  0  0  0  0  0  0  0  0  0
    0.0485   19.6615  -34.1001 H   0  0  0  0  0  0  0  0  0  0  0  0
   -0.6200   21.9745  -33.4382 H   0  0  0  0  0  0  0  0  0  0  0  0
   -3.0255   22.5262  -33.0777 H   0  0  0  0  0  0  0  0  0  0  0  0
   -5.2527   21.7755  -29.8792 H   0  0  0  0  0  0  0  0  0  0  0  0
   -3.8164   21.6278  -30.9743 H   0  0  0  0  0  0  0  0  0  0  0  0
   -4.2196   24.4093  -27.3385 H   0  0  0  0  0  0  0  0  0  0  0  0
   -2.2975   23.6321  -25.9539 H   0  0  0  0  0  0  0  0  0  0  0  0
  1  2  1  0
  2  3  2  0
  3  4  1  0
  4  5  2  0
  5  6  1  0
  6  7  2  0
  6  8  2  0
  6  9  1  0
  9 10  1  0
 10 11  1  0
 11 12  1  0
 11 13  1  0
 13 14  1  0
 14 15  1  0
 15 16  2  0
 15 17  1  0
 17 18  1  0
 18 19  1  0
 19 20  1  6
 20 21  1  0
 21 22  2  0
 22 23  1  0
 23 24  2  0
 24 25  1  0
 25 26  2  0
 19 27  1  0
  5 28  1  0
 28 29  2  0
 29  2  1  0
 27  9  1  0
 19 13  1  0
 26 21  1  0
  1 30  1  0
  1 31  1  0
  1 32  1  0
  3 33  1  0
  4 34  1  0
 10 35  1  0
 10 36  1  0
 11 37  1  1
 12 38  1  0
 12 39  1  0
 12 40  1  0
 13 41  1  1
 14 42  1  0
 14 43  1  0
 17 44  1  0
 17 45  1  0
 18 46  1  0
 18 47  1  0
 20 48  1  0
 20 49  1  0
 22 50  1  0
 23 51  1  0
 24 52  1  0
 25 53  1  0
 26 54  1  0
 27 55  1  0
 27 56  1  0
 28 57  1  0
 29 58  1  0
M  CHG  1  11   1
M  END
>  <UniqueID>  (36) 
35

>  <SMILES>  (36) 
Cc1ccc(S(=O)(=O)N2C[N@@H+](C)[C@H]3CC(=O)CCC3(Cc3ccccc3)C2)cc1

>  <Energy>  (36) 
88.94092190189153

>  <Genealogy>  (36) 
Cc1ccc(S(=O)(=O)N2C[NH+](C)C3CC(=O)CCC3(Cc3ccccc3)C2)cc1 (protonated)
Cc1ccc(S(=O)(=O)N2C[N@@H+](C)[C@H]3CC(=O)CCC3(Cc3ccccc3)C2)cc1 (chirality)
Cc1ccc(S(=O)(=O)N2C[N@@H+](C)[C@H]3CC(=O)CCC3(Cc3ccccc3)C2)cc1 (3D coordinates assigned)
Cc1ccc(S(=O)(=O)N2C[N@@H+](C)[C@H]3CC(=O)CCC3(Cc3ccccc3)C2)cc1 (nonaromatic ring conformer: 88.94092190189153 kcal/mol)

>  <smiles>  (36) 
Cc1ccc(S(=O)(=O)N2CN(C)C3CC(=O)CCC3(Cc3ccccc3)C2)cc1

>  <score_type>  (36) 
oracle

>  <origin>  (36) 
adg

>  <m_score__min__energy>  (36) 
-9.3900000000000006

>  <m_primary>  (36) 
energy

$$$$
36:0
     RDKit          3D

 40 42  0  0  0  0  0  0  0  0999 V2000
   -1.5480   25.6210  -29.9100 H   0  0  0  0  0  0  0  0  0  0  0  0
   -2.2510   25.1350  -29.3090 N   0  0  0  0  0  0  0  0  0  0  0  0
   -3.4450   24.8870  -29.7410 C   0  0  0  0  0  0  0  0  0  0  0  0
   -4.0660   25.6720  -30.6430 N   0  0  0  0  0  0  0  0  0  0  0  0
   -5.2580   25.0730  -30.8120 C   0  0  0  0  0  0  0  0  0  0  0  0
   -6.0564   25.4191  -31.4849 H   0  0  0  0  0  0  0  0  0  0  0  0
   -5.3190   23.9560  -30.0070 C   0  0  0  0  0  0  0  0  0  0  0  0
   -6.4820   23.0090  -29.8810 C   0  0  0  0  0  0  0  0  0  0  0  0
   -6.1235   22.0729  -29.4281 H   0  0  0  0  0  0  0  0  0  0  0  0
   -7.2415   23.5041  -29.2581 H   0  0  0  0  0  0  0  0  0  0  0  0
   -7.1160   22.6910  -31.1790 N   0  0  0  0  0  0  0  0  0  0  0  0
   -6.2030   22.7680  -32.3470 C   0  0  0  0  0  0  0  0  0  0  0  0
   -6.7384   23.2498  -33.1784 H   0  0  0  0  0  0  0  0  0  0  0  0
   -5.3202   23.3455  -32.0351 H   0  0  0  0  0  0  0  0  0  0  0  0
   -5.7060   21.3900  -32.8180 C   0  0  0  0  0  0  0  0  0  0  0  0
   -5.2366   21.4976  -33.8070 H   0  0  0  0  0  0  0  0  0  0  0  0
   -4.9815   21.0127  -32.0813 H   0  0  0  0  0  0  0  0  0  0  0  0
   -6.8060   20.4310  -32.9150 N   0  0  0  0  0  0  0  0  0  0  0  0
   -6.5330   19.0950  -33.3570 C   0  0  0  0  0  0  0  0  0  0  0  0
   -5.6940   18.8860  -34.4590 C   0  0  0  0  0  0  0  0  0  0  0  0
   -5.2540   19.7469  -34.9837 H   0  0  0  0  0  0  0  0  0  0  0  0
   -5.4140   17.5890  -34.8940 C   0  0  0  0  0  0  0  0  0  0  0  0
   -4.7577   17.4299  -35.7623 H   0  0  0  0  0  0  0  0  0  0  0  0
   -5.9670   16.4940  -34.2270 C   0  0  0  0  0  0  0  0  0  0  0  0
   -5.7483   15.4732  -34.5736 H   0  0  0  0  0  0  0  0  0  0  0  0
   -6.7970   16.6910  -33.1210 C   0  0  0  0  0  0  0  0  0  0  0  0
   -7.2284   15.8246  -32.5983 H   0  0  0  0  0  0  0  0  0  0  0  0
   -7.0840   17.9970  -32.6720 C   0  0  0  0  0  0  0  0  0  0  0  0
   -7.8950   18.2390  -31.5520 O   0  0  0  0  0  0  0  0  0  0  0  0
   -9.3170   18.1880  -31.5570 C   0  0  0  0  0  0  0  0  0  0  0  0
   -9.6871   18.1747  -30.5212 H   0  0  0  0  0  0  0  0  0  0  0  0
   -9.7138   19.0725  -32.0768 H   0  0  0  0  0  0  0  0  0  0  0  0
   -9.6494   17.2774  -32.0768 H   0  0  0  0  0  0  0  0  0  0  0  0
   -8.1460   20.8020  -32.4630 C   0  0  0  0  0  0  0  0  0  0  0  0
   -8.6147   21.4674  -33.2030 H   0  0  0  0  0  0  0  0  0  0  0  0
   -8.7649   19.8998  -32.3489 H   0  0  0  0  0  0  0  0  0  0  0  0
   -8.0310   21.5260  -31.1210 C   0  0  0  0  0  0  0  0  0  0  0  0
   -9.0300   21.8770  -30.8232 H   0  0  0  0  0  0  0  0  0  0  0  0
   -7.6177   20.8134  -30.3920 H   0  0  0  0  0  0  0  0  0  0  0  0
   -4.1670   23.8260  -29.3250 N   0  0  0  0  0  0  0  0  0  0  0  0
  1  2  1  0
  2  3  2  0
  3  4  1  0
  4  5  1  0
  5  6  1  0
  5  7  2  0
  7  8  1  0
  8  9  1  0
  8 10  1  0
  8 11  1  0
 11 12  1  0
 12 13  1  0
 12 14  1  0
 12 15  1  0
 15 16  1  0
 15 17  1  0
 15 18  1  0
 18 19  1  0
 19 20  2  0
 20 21  1  0
 20 22  1  0
 22 23  1  0
 22 24  2  0
 24 25  1  0
 24 26  1  0
 26 27  1  0
 26 28  2  0
 28 29  1  0
 29 30  1  0
 30 31  1  0
 30 32  1  0
 30 33  1  0
 18 34  1  0
 34 35  1  0
 34 36  1  0
 34 37  1  0
 37 38  1  0
 37 39  1  0
  7 40  1  0
 40  3  1  0
 37 11  1  0
 28 19  1  0
M  CHG  2   4  -1  40  -1
M  END
>  <UniqueID>  (37) 
36

>  <SMILES>  (37) 
[H]/N=c1/[n-]cc(CN2CCN(c3ccccc3OC)CC2)[n-]1

>  <Energy>  (37) 
81.05446542730989

>  <Genealogy>  (37) 
COc1ccccc1N1CCN(Cc2c[n-]c(=N)[n-]2)CC1 (protonated)
[H]/N=c1/[n-]cc(CN2CCN(c3ccccc3OC)CC2)[n-]1 (cis-trans isomerization)
[H]/N=c1/[n-]cc(CN2CCN(c3ccccc3OC)CC2)[n-]1 (3D coordinates assigned)
[H]/N=c1/[n-]cc(CN2CCN(c3ccccc3OC)CC2)[n-]1 (nonaromatic ring conformer: 81.05446542730989 kcal/mol)

>  <smiles>  (37) 
COc1ccccc1N1CCN(Cc2c[nH]c(=N)[nH]2)CC1

>  <score_type>  (37) 
oracle

>  <origin>  (37) 
adg

>  <m_score__min__energy>  (37) 
-10.699999999999999

>  <m_primary>  (37) 
energy

$$$$
37:0
     RDKit          3D

 37 38  0  0  0  0  0  0  0  0999 V2000
   -9.1060   21.5340  -31.2880 C   0  0  0  0  0  0  0  0  0  0  0  0
   -8.0310   21.3210  -32.1970 O   0  0  0  0  0  0  0  0  0  0  0  0
   -7.4920   20.0650  -32.5180 C   0  0  0  0  0  0  0  0  0  0  0  0
   -8.2130   18.8760  -32.2880 C   0  0  0  0  0  0  0  0  0  0  0  0
   -7.6750   17.6390  -32.6500 C   0  0  0  0  0  0  0  0  0  0  0  0
   -6.4180   17.5710  -33.2520 C   0  0  0  0  0  0  0  0  0  0  0  0
   -5.7480   16.0170  -33.7110 Cl  0  0  0  0  0  0  0  0  0  0  0  0
   -5.6910   18.7420  -33.4810 C   0  0  0  0  0  0  0  0  0  0  0  0
   -6.2060   19.9900  -33.1010 C   0  0  0  0  0  0  0  0  0  0  0  0
   -5.4000   21.1620  -33.3290 N   0  0  0  0  0  0  0  0  0  0  0  0
   -4.8690   22.0170  -32.2630 C   0  0  0  0  0  0  0  0  0  0  0  0
   -5.7720   23.2320  -32.0120 C   0  0  0  0  0  0  0  0  0  0  0  0
   -5.9610   23.4390  -30.5570 N   0  0  0  0  0  0  0  0  0  0  0  0
   -6.4440   24.7970  -30.2440 C   0  0  0  0  0  0  0  0  0  0  0  0
   -5.3430   25.8600  -30.4680 C   0  0  0  0  0  0  0  0  0  0  0  0
   -4.0460   25.3000  -30.5850 O   0  0  0  0  0  0  0  0  0  0  0  0
   -3.8370   24.3450  -29.5650 C   0  0  0  0  0  0  0  0  0  0  0  0
   -4.7450   23.1150  -29.7760 C   0  0  0  0  0  0  0  0  0  0  0  0
   -8.7334   21.4602  -30.2557 H   0  0  0  0  0  0  0  0  0  0  0  0
   -9.5330   22.5342  -31.4530 H   0  0  0  0  0  0  0  0  0  0  0  0
   -9.8821   20.7722  -31.4530 H   0  0  0  0  0  0  0  0  0  0  0  0
   -9.2072   18.9226  -31.8197 H   0  0  0  0  0  0  0  0  0  0  0  0
   -8.2433   16.7165  -32.4602 H   0  0  0  0  0  0  0  0  0  0  0  0
   -4.7045   18.6845  -33.9643 H   0  0  0  0  0  0  0  0  0  0  0  0
   -4.9850   21.2890  -34.2810 H   0  0  0  0  0  0  0  0  0  0  0  0
   -4.7961   21.4288  -31.3364 H   0  0  0  0  0  0  0  0  0  0  0  0
   -3.8794   22.3820  -32.5751 H   0  0  0  0  0  0  0  0  0  0  0  0
   -5.3055   24.1274  -32.4486 H   0  0  0  0  0  0  0  0  0  0  0  0
   -6.7518   23.0527  -32.4787 H   0  0  0  0  0  0  0  0  0  0  0  0
   -7.3013   25.0291  -30.8930 H   0  0  0  0  0  0  0  0  0  0  0  0
   -6.7351   24.8221  -29.1835 H   0  0  0  0  0  0  0  0  0  0  0  0
   -5.5712   26.4112  -31.3922 H   0  0  0  0  0  0  0  0  0  0  0  0
   -5.3381   26.5184  -29.5868 H   0  0  0  0  0  0  0  0  0  0  0  0
   -2.7849   24.0243  -29.5805 H   0  0  0  0  0  0  0  0  0  0  0  0
   -4.0816   24.8034  -28.5954 H   0  0  0  0  0  0  0  0  0  0  0  0
   -4.1750   22.3430  -30.3137 H   0  0  0  0  0  0  0  0  0  0  0  0
   -5.0667   22.7613  -28.7853 H   0  0  0  0  0  0  0  0  0  0  0  0
  1  2  1  0
  2  3  1  0
  3  4  2  0
  4  5  1  0
  5  6  2  0
  6  7  1  0
  6  8  1  0
  8  9  2  0
  9 10  1  0
 10 11  1  0
 11 12  1  0
 12 13  1  0
 13 14  1  0
 14 15  1  0
 15 16  1  0
 16 17  1  0
 17 18  1  0
  9  3  1  0
 18 13  1  0
  1 19  1  0
  1 20  1  0
  1 21  1  0
  4 22  1  0
  5 23  1  0
  8 24  1  0
 10 25  1  0
 11 26  1  0
 11 27  1  0
 12 28  1  0
 12 29  1  0
 14 30  1  0
 14 31  1  0
 15 32  1  0
 15 33  1  0
 17 34  1  0
 17 35  1  0
 18 36  1  0
 18 37  1  0
M  END
>  <UniqueID>  (38) 
37

>  <SMILES>  (38) 
COc1ccc(Cl)cc1NCCN1CCOCC1

>  <Energy>  (38) 
47.84650427208151

>  <Genealogy>  (38) 
COc1ccc(Cl)cc1NCCN1CCOCC1 (3D coordinates assigned)
COc1ccc(Cl)cc1NCCN1CCOCC1 (nonaromatic ring conformer: 47.84650427208151 kcal/mol)

>  <smiles>  (38) 
COc1ccc(Cl)cc1NCCN1CCOCC1

>  <score_type>  (38) 
oracle

>  <origin>  (38) 
adg

>  <m_score__min__energy>  (38) 
-7.0999999999999996

>  <m_primary>  (38) 
energy

$$$$
38:0
     RDKit          3D

 38 41  0  0  1  0  0  0  0  0999 V2000
   -4.8560   17.3460  -35.1040 C   0  0  0  0  0  0  0  0  0  0  0  0
   -4.8040   16.3740  -34.1240 C   0  0  0  0  0  0  0  0  0  0  0  0
   -5.5150   16.5290  -32.9550 C   0  0  0  0  0  0  0  0  0  0  0  0
   -6.2660   17.6900  -32.8250 C   0  0  0  0  0  0  0  0  0  0  0  0
   -7.0320   17.8370  -31.5410 C   0  0  0  0  0  0  0  0  0  0  0  0
   -8.2850   18.4610  -31.9040 N   0  0  0  0  0  0  0  0  0  0  0  0
   -8.4730   19.7180  -31.8140 C   0  0  0  0  0  0  0  0  0  0  0  0
   -7.4430   20.5700  -31.3940 C   0  0  0  0  0  0  0  0  0  0  0  0
   -7.6370   21.9380  -31.2920 C   0  0  0  0  0  0  0  0  0  0  0  0
   -6.5590   22.8140  -30.8540 C   0  0  0  0  0  0  0  0  0  0  0  0
   -6.7480   24.1510  -30.5510 C   0  0  0  0  0  0  0  0  0  0  0  0
   -5.7010   24.9700  -30.1330 C   0  0  0  0  0  0  0  0  0  0  0  0
   -4.4240   24.4790  -30.0030 C   0  0  0  0  0  0  0  0  0  0  0  0
   -3.2620   25.0430  -29.6270 N   0  0  0  0  0  0  0  0  0  0  0  0
   -2.3340   24.0900  -29.6840 N   0  0  0  0  0  0  0  0  0  0  0  0
   -2.8690   22.9250  -30.0870 C   0  0  0  0  0  0  0  0  0  0  0  0
   -4.2250   23.1510  -30.3010 C   0  0  0  0  0  0  0  0  0  0  0  0
   -5.2670   22.3380  -30.7160 C   0  0  0  0  0  0  0  0  0  0  0  0
   -8.8650   22.3840  -31.6220 N   0  0  0  0  0  0  0  0  0  0  0  0
   -9.8550   21.5390  -32.0300 C   0  0  0  0  0  0  0  0  0  0  0  0
   -9.6680   20.2130  -32.1290 N   0  0  0  0  0  0  0  0  0  0  0  0
   -6.3150   18.6580  -33.8060 C   0  0  0  0  0  0  0  0  0  0  0  0
   -5.6050   18.4980  -34.9670 C   0  0  0  0  0  0  0  0  0  0  0  0
   -4.2790   17.1968  -36.0285 H   0  0  0  0  0  0  0  0  0  0  0  0
   -4.1924   15.4728  -34.2780 H   0  0  0  0  0  0  0  0  0  0  0  0
   -5.4893   15.7684  -32.1608 H   0  0  0  0  0  0  0  0  0  0  0  0
   -7.2115   16.8516  -31.0862 H   0  0  0  0  0  0  0  0  0  0  0  0
   -6.4780   18.4361  -30.8033 H   0  0  0  0  0  0  0  0  0  0  0  0
   -6.4610   20.1443  -31.1402 H   0  0  0  0  0  0  0  0  0  0  0  0
   -7.7564   24.5807  -30.6430 H   0  0  0  0  0  0  0  0  0  0  0  0
   -5.8999   26.0272  -29.9032 H   0  0  0  0  0  0  0  0  0  0  0  0
   -3.1120   26.0430  -29.3420 H   0  0  0  0  0  0  0  0  0  0  0  0
   -2.3355   21.9725  -30.2222 H   0  0  0  0  0  0  0  0  0  0  0  0
   -5.0611   21.2815  -30.9428 H   0  0  0  0  0  0  0  0  0  0  0  0
   -9.1030   23.3740  -31.5790 H   0  0  0  0  0  0  0  0  0  0  0  0
  -10.8393   21.9578  -32.2865 H   0  0  0  0  0  0  0  0  0  0  0  0
   -6.9255   19.5607  -33.6561 H   0  0  0  0  0  0  0  0  0  0  0  0
   -5.6307   19.2592  -35.7607 H   0  0  0  0  0  0  0  0  0  0  0  0
  1  2  2  0
  2  3  1  0
  3  4  2  0
  4  5  1  0
  5  6  1  0
  6  7  2  0
  7  8  1  0
  8  9  2  0
  9 10  1  0
 10 11  2  0
 11 12  1  0
 12 13  2  0
 13 14  1  0
 14 15  1  0
 15 16  2  0
 16 17  1  0
 17 18  2  0
  9 19  1  0
 19 20  1  0
 20 21  2  0
  4 22  1  0
 22 23  2  0
 23  1  1  0
 21  7  1  0
 18 10  1  0
 17 13  1  0
  1 24  1  0
  2 25  1  0
  3 26  1  0
  5 27  1  0
  5 28  1  0
  8 29  1  0
 11 30  1  0
 12 31  1  0
 14 32  1  0
 16 33  1  0
 18 34  1  0
 19 35  1  0
 20 36  1  0
 22 37  1  0
 23 38  1  0
M  END
>  <smiles>  (39) 
c1ccc(CN=c2cc(-c3ccc4[nH]ncc4c3)[nH]cn2)cc1

>  <score_type>  (39) 
oracle

>  <origin>  (39) 
adg

>  <m_score__min__energy>  (39) 
-8.7699999999999996

>  <m_primary>  (39) 
energy

$$$$
39:0
     RDKit          3D

 46 49  0  0  0  0  0  0  0  0999 V2000
    0.3230   21.3680  -35.6450 C   0  0  0  0  0  0  0  0  0  0  0  0
   -0.1220   19.6840  -35.1190 S   0  0  0  0  0  0  0  0  0  0  0  0
   -1.2910   20.2500  -33.8830 C   0  0  0  0  0  0  0  0  0  0  0  0
   -0.8900   21.1680  -32.9070 C   0  0  0  0  0  0  0  0  0  0  0  0
   -1.7990   21.6070  -31.9400 C   0  0  0  0  0  0  0  0  0  0  0  0
   -3.1220   21.1280  -31.9360 C   0  0  0  0  0  0  0  0  0  0  0  0
   -4.1010   21.6140  -30.8920 C   0  0  1  0  0  0  0  0  0  0  0  0
   -3.5170   21.4610  -29.5560 N   0  0  0  0  0  0  0  0  0  0  0  0
   -2.8600   22.5310  -28.8660 C   0  0  0  0  0  0  0  0  0  0  0  0
   -2.0490   22.2590  -27.7540 C   0  0  0  0  0  0  0  0  0  0  0  0
   -1.3920   23.3000  -27.0930 C   0  0  0  0  0  0  0  0  0  0  0  0
   -1.5470   24.6170  -27.5330 C   0  0  0  0  0  0  0  0  0  0  0  0
   -2.3610   24.8950  -28.6350 C   0  0  0  0  0  0  0  0  0  0  0  0
   -3.0220   23.8520  -29.3060 C   0  0  0  0  0  0  0  0  0  0  0  0
   -3.8950   24.1100  -30.4640 C   0  0  0  0  0  0  0  0  0  0  0  0
   -4.1110   25.2960  -30.8330 O   0  0  0  0  0  0  0  0  0  0  0  0
   -4.5040   23.0070  -31.1660 N   0  0  0  0  0  0  0  0  0  0  0  0
   -5.4900   23.2580  -32.2280 C   0  0  0  0  0  0  0  0  0  0  0  0
   -6.6670   22.3340  -32.0730 C   0  0  0  0  0  0  0  0  0  0  0  0
   -6.6820   21.0860  -32.7190 C   0  0  0  0  0  0  0  0  0  0  0  0
   -7.7950   20.2450  -32.6000 C   0  0  0  0  0  0  0  0  0  0  0  0
   -8.8980   20.6450  -31.8400 C   0  0  0  0  0  0  0  0  0  0  0  0
   -8.8920   21.8860  -31.1980 C   0  0  0  0  0  0  0  0  0  0  0  0
   -7.7840   22.7310  -31.3170 C   0  0  0  0  0  0  0  0  0  0  0  0
   -3.5170   20.2080  -32.9240 C   0  0  0  0  0  0  0  0  0  0  0  0
   -2.6050   19.7690  -33.8880 C   0  0  0  0  0  0  0  0  0  0  0  0
    0.4893   21.9972  -34.7582 H   0  0  0  0  0  0  0  0  0  0  0  0
    1.2427   21.3330  -36.2474 H   0  0  0  0  0  0  0  0  0  0  0  0
   -0.4940   21.7919  -36.2474 H   0  0  0  0  0  0  0  0  0  0  0  0
    0.1432   21.5455  -32.9003 H   0  0  0  0  0  0  0  0  0  0  0  0
   -1.4779   22.3316  -31.1772 H   0  0  0  0  0  0  0  0  0  0  0  0
   -5.0141   21.0021  -30.9332 H   0  0  0  0  0  0  0  0  0  0  0  0
   -3.4500   20.4930  -29.1660 H   0  0  0  0  0  0  0  0  0  0  0  0
   -1.9301   21.2238  -27.4017 H   0  0  0  0  0  0  0  0  0  0  0  0
   -0.7520   23.0824  -26.2252 H   0  0  0  0  0  0  0  0  0  0  0  0
   -1.0284   25.4354  -27.0121 H   0  0  0  0  0  0  0  0  0  0  0  0
   -2.4845   25.9329  -28.9778 H   0  0  0  0  0  0  0  0  0  0  0  0
   -5.8355   24.3004  -32.1641 H   0  0  0  0  0  0  0  0  0  0  0  0
   -5.0185   23.0779  -33.2054 H   0  0  0  0  0  0  0  0  0  0  0  0
   -5.8168   20.7690  -33.3198 H   0  0  0  0  0  0  0  0  0  0  0  0
   -7.8015   19.2680  -33.1053 H   0  0  0  0  0  0  0  0  0  0  0  0
   -9.7711   19.9824  -31.7473 H   0  0  0  0  0  0  0  0  0  0  0  0
   -9.7596   22.1987  -30.5984 H   0  0  0  0  0  0  0  0  0  0  0  0
   -7.7864   23.7107  -30.8168 H   0  0  0  0  0  0  0  0  0  0  0  0
   -4.5505   19.8315  -32.9381 H   0  0  0  0  0  0  0  0  0  0  0  0
   -2.9210   19.0437  -34.6523 H   0  0  0  0  0  0  0  0  0  0  0  0
  1  2  1  0
  2  3  1  0
  3  4  2  0
  4  5  1  0
  5  6  2  0
  6  7  1  0
  7  8  1  0
  8  9  1  0
  9 10  2  0
 10 11  1  0
 11 12  2  0
 12 13  1  0
 13 14  2  0
 14 15  1  0
 15 16  2  0
 15 17  1  0
 17 18  1  0
 18 19  1  0
 19 20  2  0
 20 21  1  0
 21 22  2  0
 22 23  1  0
 23 24  2  0
  6 25  1  0
 25 26  2  0
 26  3  1  0
 17  7  1  0
 24 19  1  0
 14  9  1  0
  1 27  1  0
  1 28  1  0
  1 29  1  0
  4 30  1  0
  5 31  1  0
  7 32  1  1
  8 33  1  0
 10 34  1  0
 11 35  1  0
 12 36  1  0
 13 37  1  0
 18 38  1  0
 18 39  1  0
 20 40  1  0
 21 41  1  0
 22 42  1  0
 23 43  1  0
 24 44  1  0
 25 45  1  0
 26 46  1  0
M  END
>  <UniqueID>  (40) 
38

>  <SMILES>  (40) 
CSc1ccc([C@H]2Nc3ccccc3C(=O)N2Cc2ccccc2)cc1

>  <Energy>  (40) 
45.95964913278827

>  <Genealogy>  (40) 
CSc1ccc([C@H]2Nc3ccccc3C(=O)N2Cc2ccccc2)cc1 (chirality)
CSc1ccc([C@H]2Nc3ccccc3C(=O)N2Cc2ccccc2)cc1 (3D coordinates assigned)
CSc1ccc([C@H]2Nc3ccccc3C(=O)N2Cc2ccccc2)cc1 (nonaromatic ring conformer: 45.95964913278827 kcal/mol)

>  <smiles>  (40) 
CSc1ccc(C2Nc3ccccc3C(=O)N2Cc2ccccc2)cc1

>  <score_type>  (40) 
oracle

>  <origin>  (40) 
adg

>  <m_score__min__energy>  (40) 
-8.7699999999999996

>  <m_primary>  (40) 
energy

$$$$
40:0
     RDKit          3D

 32 34  0  0  1  0  0  0  0  0999 V2000
   -5.3500   25.6710  -30.5010 C   0  0  0  0  0  0  0  0  0  0  0  0
   -3.9980   25.3030  -30.6120 O   0  0  0  0  0  0  0  0  0  0  0  0
   -3.4410   24.1720  -30.0720 C   0  0  0  0  0  0  0  0  0  0  0  0
   -2.6530   24.1360  -28.9490 C   0  0  0  0  0  0  0  0  0  0  0  0
   -2.1400   22.9420  -28.4890 C   0  0  0  0  0  0  0  0  0  0  0  0
   -2.3940   21.7370  -29.1310 C   0  0  0  0  0  0  0  0  0  0  0  0
   -3.1870   21.7750  -30.2610 C   0  0  0  0  0  0  0  0  0  0  0  0
   -3.7040   22.9650  -30.7280 C   0  0  0  0  0  0  0  0  0  0  0  0
   -4.5130   22.9240  -31.8990 N   0  0  0  0  0  0  0  0  0  0  0  0
   -5.0250   21.8550  -32.3600 C   0  0  0  0  0  0  0  0  0  0  0  0
   -4.2460   20.9340  -32.9600 N   0  0  0  0  0  0  0  0  0  0  0  0
   -4.8610   19.8290  -33.4250 C   0  0  0  0  0  0  0  0  0  0  0  0
   -3.8950   18.6000  -34.2130 Cl  0  0  0  0  0  0  0  0  0  0  0  0
   -6.1980   19.6390  -33.2990 N   0  0  0  0  0  0  0  0  0  0  0  0
   -7.0010   20.5470  -32.7020 C   0  0  0  0  0  0  0  0  0  0  0  0
   -8.3610   20.3740  -32.5640 C   0  0  0  0  0  0  0  0  0  0  0  0
   -9.1430   21.3430  -31.9400 C   0  0  0  0  0  0  0  0  0  0  0  0
   -8.5550   22.4930  -31.4490 C   0  0  0  0  0  0  0  0  0  0  0  0
   -7.1830   22.6490  -31.5970 C   0  0  0  0  0  0  0  0  0  0  0  0
   -6.3960   21.6920  -32.2170 C   0  0  0  0  0  0  0  0  0  0  0  0
   -5.6237   25.7455  -29.4382 H   0  0  0  0  0  0  0  0  0  0  0  0
   -5.5063   26.6444  -30.9890 H   0  0  0  0  0  0  0  0  0  0  0  0
   -5.9781   24.9111  -30.9890 H   0  0  0  0  0  0  0  0  0  0  0  0
   -2.4286   25.0687  -28.4108 H   0  0  0  0  0  0  0  0  0  0  0  0
   -1.5108   22.9437  -27.5867 H   0  0  0  0  0  0  0  0  0  0  0  0
   -1.9800   20.7900  -28.7544 H   0  0  0  0  0  0  0  0  0  0  0  0
   -3.4098   20.8408  -30.7973 H   0  0  0  0  0  0  0  0  0  0  0  0
   -3.2170   21.0940  -33.0500 H   0  0  0  0  0  0  0  0  0  0  0  0
   -8.8347   19.4598  -32.9512 H   0  0  0  0  0  0  0  0  0  0  0  0
  -10.2279   21.1929  -31.8381 H   0  0  0  0  0  0  0  0  0  0  0  0
   -9.1593   23.2666  -30.9527 H   0  0  0  0  0  0  0  0  0  0  0  0
   -6.7059   23.5614  -31.2097 H   0  0  0  0  0  0  0  0  0  0  0  0
  1  2  1  0
  2  3  1  0
  3  4  2  0
  4  5  1  0
  5  6  2  0
  6  7  1  0
  7  8  2  0
  8  9  1  0
  9 10  2  0
 10 11  1  0
 11 12  1  0
 12 13  1  0
 12 14  2  0
 14 15  1  0
 15 16  2  0
 16 17  1  0
 17 18  2  0
 18 19  1  0
 19 20  2  0
  8  3  1  0
 20 10  1  0
 20 15  1  0
  1 21  1  0
  1 22  1  0
  1 23  1  0
  4 24  1  0
  5 25  1  0
  6 26  1  0
  7 27  1  0
 11 28  1  0
 16 29  1  0
 17 30  1  0
 18 31  1  0
 19 32  1  0
M  END
>  <smiles>  (41) 
COc1ccccc1N=c1[nH]c(Cl)nc2ccccc12

>  <score_type>  (41) 
oracle

>  <origin>  (41) 
adg

>  <m_score__min__energy>  (41) 
-7.96

>  <m_primary>  (41) 
energy

$$$$
41:0
     RDKit          3D

 46 48  0  0  0  0  0  0  0  0999 V2000
   -7.1641   23.7413  -30.1546 H   0  0  0  0  0  0  0  0  0  0  0  0
   -7.2330   23.6140  -31.2450 C   0  0  0  0  0  0  0  0  0  0  0  0
   -8.3840   23.2780  -31.7660 N   0  0  0  0  0  0  0  0  0  0  0  0
   -8.9910   21.9930  -31.5860 C   0  0  0  0  0  0  0  0  0  0  0  0
  -10.1340   21.9190  -31.0450 O   0  0  0  0  0  0  0  0  0  0  0  0
   -8.2790   20.7640  -32.0000 C   0  0  0  0  0  0  0  0  0  0  0  0
   -7.1200   20.8440  -32.7900 C   0  0  0  0  0  0  0  0  0  0  0  0
   -6.7796   21.8219  -33.1614 H   0  0  0  0  0  0  0  0  0  0  0  0
   -6.3960   19.6920  -33.1080 C   0  0  0  0  0  0  0  0  0  0  0  0
   -5.4850   19.7722  -33.7193 H   0  0  0  0  0  0  0  0  0  0  0  0
   -6.8210   18.4320  -32.6540 C   0  0  0  0  0  0  0  0  0  0  0  0
   -6.0310   17.2230  -32.9800 C   0  0  0  0  0  0  0  0  0  0  0  0
   -5.7100   16.2770  -32.0570 N   0  0  0  0  0  0  0  0  0  0  0  0
   -4.9880   15.2700  -32.6110 C   0  0  0  0  0  0  0  0  0  0  0  0
   -4.5190   14.1590  -31.9080 C   0  0  0  0  0  0  0  0  0  0  0  0
   -4.7245   14.0460  -30.8333 H   0  0  0  0  0  0  0  0  0  0  0  0
   -3.7770   13.1860  -32.6050 C   0  0  0  0  0  0  0  0  0  0  0  0
   -3.3999   12.3014  -32.0710 H   0  0  0  0  0  0  0  0  0  0  0  0
   -3.5130   13.3370  -33.9850 C   0  0  0  0  0  0  0  0  0  0  0  0
   -2.9294   12.5714  -34.5173 H   0  0  0  0  0  0  0  0  0  0  0  0
   -3.9920   14.4600  -34.6810 C   0  0  0  0  0  0  0  0  0  0  0  0
   -3.7929   14.5890  -35.7551 H   0  0  0  0  0  0  0  0  0  0  0  0
   -4.7270   15.4050  -33.9680 C   0  0  0  0  0  0  0  0  0  0  0  0
   -5.4180   16.8290  -34.5200 S   0  0  0  0  0  0  0  0  0  0  0  0
   -7.9960   18.3480  -31.8870 C   0  0  0  0  0  0  0  0  0  0  0  0
   -8.3524   17.3669  -31.5399 H   0  0  0  0  0  0  0  0  0  0  0  0
   -8.7150   19.5020  -31.5620 C   0  0  0  0  0  0  0  0  0  0  0  0
   -9.6306   19.4214  -30.9577 H   0  0  0  0  0  0  0  0  0  0  0  0
   -5.9960   23.8340  -32.0790 C   0  0  0  0  0  0  0  0  0  0  0  0
   -6.1885   24.6294  -32.8141 H   0  0  0  0  0  0  0  0  0  0  0  0
   -5.7399   22.8998  -32.6002 H   0  0  0  0  0  0  0  0  0  0  0  0
   -4.8640   24.2330  -31.2080 N   0  0  0  0  0  0  0  0  0  0  0  0
   -5.3480   24.8370  -29.9370 C   0  0  0  0  0  0  0  0  0  0  0  0
   -6.4302   24.6652  -29.8409 H   0  0  0  0  0  0  0  0  0  0  0  0
   -5.1416   25.9174  -29.9489 H   0  0  0  0  0  0  0  0  0  0  0  0
   -4.6290   24.2030  -28.7520 C   0  0  0  0  0  0  0  0  0  0  0  0
   -5.0608   24.5838  -27.8147 H   0  0  0  0  0  0  0  0  0  0  0  0
   -4.7477   23.1102  -28.7931 H   0  0  0  0  0  0  0  0  0  0  0  0
   -3.5596   24.4575  -28.7931 H   0  0  0  0  0  0  0  0  0  0  0  0
   -3.9520   23.0880  -30.9740 C   0  0  0  0  0  0  0  0  0  0  0  0
   -2.9241   23.4650  -30.8672 H   0  0  0  0  0  0  0  0  0  0  0  0
   -4.2743   22.5696  -30.0589 H   0  0  0  0  0  0  0  0  0  0  0  0
   -3.9990   22.0920  -32.1340 C   0  0  0  0  0  0  0  0  0  0  0  0
   -4.0473   21.0677  -31.7360 H   0  0  0  0  0  0  0  0  0  0  0  0
   -4.8889   22.2884  -32.7501 H   0  0  0  0  0  0  0  0  0  0  0  0
   -3.0946   22.2037  -32.7501 H   0  0  0  0  0  0  0  0  0  0  0  0
  1  2  1  0
  2  3  2  0
  3  4  1  0
  4  5  2  0
  4  6  1  0
  6  7  2  0
  7  8  1  0
  7  9  1  0
  9 10  1  0
  9 11  2  0
 11 12  1  0
 12 13  2  0
 13 14  1  0
 14 15  2  0
 15 16  1  0
 15 17  1  0
 17 18  1  0
 17 19  2  0
 19 20  1  0
 19 21  1  0
 21 22  1  0
 21 23  2  0
 23 24  1  0
 11 25  1  0
 25 26  1  0
 25 27  2  0
 27 28  1  0
  2 29  1  0
 29 30  1  0
 29 31  1  0
 29 32  1  0
 32 33  1  0
 33 34  1  0
 33 35  1  0
 33 36  1  0
 36 37  1  0
 36 38  1  0
 36 39  1  0
 32 40  1  0
 40 41  1  0
 40 42  1  0
 40 43  1  0
 43 44  1  0
 43 45  1  0
 43 46  1  0
 27  6  1  0
 24 12  1  0
 23 14  1  0
M  END
>  <UniqueID>  (42) 
39

>  <SMILES>  (42) 
CCN(CC)C/C=N\C(=O)c1ccc(-c2nc3ccccc3s2)cc1

>  <Energy>  (42) 
88.39144041555853

>  <Genealogy>  (42) 
CCN(CC)C/C=N\C(=O)c1ccc(-c2nc3ccccc3s2)cc1 (cis-trans isomerization)
CCN(CC)C/C=N\C(=O)c1ccc(-c2nc3ccccc3s2)cc1 (3D coordinates assigned)
CCN(CC)C/C=N\C(=O)c1ccc(-c2nc3ccccc3s2)cc1 (optimized conformer: 88.39144041555853 kcal/mol)

>  <smiles>  (42) 
CCN(CC)CC=NC(=O)c1ccc(-c2nc3ccccc3s2)cc1

>  <score_type>  (42) 
oracle

>  <origin>  (42) 
adg

>  <m_score__min__energy>  (42) 
-8.0999999999999996

>  <m_primary>  (42) 
energy

$$$$
42:0
     RDKit          3D

 52 54  0  0  0  0  0  0  0  0999 V2000
    0.9624   19.7010  -33.9428 H   0  0  0  0  0  0  0  0  0  0  0  0
    0.0120   20.1360  -33.6000 C   0  0  0  0  0  0  0  0  0  0  0  0
   -0.0070   20.9870  -32.4930 C   0  0  0  0  0  0  0  0  0  0  0  0
    0.9280   21.2181  -31.9616 H   0  0  0  0  0  0  0  0  0  0  0  0
   -1.2140   21.5460  -32.0590 C   0  0  0  0  0  0  0  0  0  0  0  0
   -1.2235   22.2104  -31.1824 H   0  0  0  0  0  0  0  0  0  0  0  0
   -2.4160   21.2650  -32.7350 C   0  0  0  0  0  0  0  0  0  0  0  0
   -3.6890   21.8580  -32.2540 C   0  0  0  0  0  0  0  0  0  0  0  0
   -3.6470   22.9270  -31.4220 N   0  0  0  0  0  0  0  0  0  0  0  0
   -4.7650   23.5290  -30.9460 C   0  0  0  0  0  0  0  0  0  0  0  0
   -4.6200   24.6440  -30.1120 C   0  0  0  0  0  0  0  0  0  0  0  0
   -3.6148   24.9797  -29.8171 H   0  0  0  0  0  0  0  0  0  0  0  0
   -5.7410   25.3300  -29.6540 C   0  0  0  0  0  0  0  0  0  0  0  0
   -5.6229   26.1915  -28.9803 H   0  0  0  0  0  0  0  0  0  0  0  0
   -7.0110   24.9240  -30.0500 C   0  0  0  0  0  0  0  0  0  0  0  0
   -7.8943   25.4841  -29.7093 H   0  0  0  0  0  0  0  0  0  0  0  0
   -7.1730   23.8090  -30.8780 C   0  0  0  0  0  0  0  0  0  0  0  0
   -8.1828   23.5177  -31.2027 H   0  0  0  0  0  0  0  0  0  0  0  0
   -6.0570   23.0490  -31.3050 C   0  0  0  0  0  0  0  0  0  0  0  0
   -6.1250   21.8710  -32.1230 C   0  0  0  0  0  0  0  0  0  0  0  0
   -7.2010   21.1760  -32.3870 N   0  0  0  0  0  0  0  0  0  0  0  0
   -8.3840   20.8540  -31.5950 C   0  0  0  0  0  0  0  0  0  0  0  0
   -9.0587   21.7226  -31.5794 H   0  0  0  0  0  0  0  0  0  0  0  0
   -8.0734   20.6026  -30.5702 H   0  0  0  0  0  0  0  0  0  0  0  0
   -9.1160   19.6550  -32.2050 C   0  0  0  0  0  0  0  0  0  0  0  0
   -9.2986   19.8787  -33.2664 H   0  0  0  0  0  0  0  0  0  0  0  0
  -10.0282   19.5315  -31.6028 H   0  0  0  0  0  0  0  0  0  0  0  0
   -8.3810   18.2860  -32.1290 C   0  0  0  0  0  0  0  0  0  0  0  0
   -8.8647   17.6120  -32.8514 H   0  0  0  0  0  0  0  0  0  0  0  0
   -8.4621   17.9831  -31.0746 H   0  0  0  0  0  0  0  0  0  0  0  0
   -6.9130   18.2720  -32.4170 N   0  0  0  0  0  0  0  0  0  0  0  0
   -6.6160   19.2760  -32.3860 H   0  0  0  0  0  0  0  0  0  0  0  0
   -6.6210   17.7840  -33.7910 C   0  0  0  0  0  0  0  0  0  0  0  0
   -7.5685   17.7088  -34.3447 H   0  0  0  0  0  0  0  0  0  0  0  0
   -6.1226   16.8082  -33.6938 H   0  0  0  0  0  0  0  0  0  0  0  0
   -5.6720   18.7080  -34.5690 C   0  0  0  0  0  0  0  0  0  0  0  0
   -5.0691   19.2950  -33.8605 H   0  0  0  0  0  0  0  0  0  0  0  0
   -5.0071   18.1018  -35.2018 H   0  0  0  0  0  0  0  0  0  0  0  0
   -6.2602   19.3888  -35.2018 H   0  0  0  0  0  0  0  0  0  0  0  0
   -6.1050   17.5590  -31.3890 C   0  0  0  0  0  0  0  0  0  0  0  0
   -5.3573   18.2579  -30.9860 H   0  0  0  0  0  0  0  0  0  0  0  0
   -6.8015   17.2056  -30.6144 H   0  0  0  0  0  0  0  0  0  0  0  0
   -5.3730   16.3260  -31.9400 C   0  0  0  0  0  0  0  0  0  0  0  0
   -5.0084   15.7118  -31.1034 H   0  0  0  0  0  0  0  0  0  0  0  0
   -6.0655   15.7331  -32.5556 H   0  0  0  0  0  0  0  0  0  0  0  0
   -4.5209   16.6501  -32.5556 H   0  0  0  0  0  0  0  0  0  0  0  0
   -4.9320   21.3360  -32.6290 C   0  0  0  0  0  0  0  0  0  0  0  0
   -4.9738   20.4916  -33.3327 H   0  0  0  0  0  0  0  0  0  0  0  0
   -2.3840   20.3930  -33.8420 C   0  0  0  0  0  0  0  0  0  0  0  0
   -3.3166   20.1481  -34.3714 H   0  0  0  0  0  0  0  0  0  0  0  0
   -1.1750   19.8370  -34.2720 C   0  0  0  0  0  0  0  0  0  0  0  0
   -1.1590   19.1629  -35.1411 H   0  0  0  0  0  0  0  0  0  0  0  0
  1  2  1  0
  2  3  2  0
  3  4  1  0
  3  5  1  0
  5  6  1  0
  5  7  2  0
  7  8  1  0
  8  9  1  0
  9 10  1  0
 10 11  2  0
 11 12  1  0
 11 13  1  0
 13 14  1  0
 13 15  2  0
 15 16  1  0
 15 17  1  0
 17 18  1  0
 17 19  2  0
 19 20  1  0
 20 21  2  0
 21 22  1  0
 22 23  1  0
 22 24  1  0
 22 25  1  0
 25 26  1  0
 25 27  1  0
 25 28  1  0
 28 29  1  0
 28 30  1  0
 28 31  1  0
 31 32  1  0
 31 33  1  0
 33 34  1  0
 33 35  1  0
 33 36  1  0
 36 37  1  0
 36 38  1  0
 36 39  1  0
 31 40  1  0
 40 41  1  0
 40 42  1  0
 40 43  1  0
 43 44  1  0
 43 45  1  0
 43 46  1  0
 20 47  1  0
 47 48  1  0
  7 49  1  0
 49 50  1  0
 49 51  2  0
 51 52  1  0
 51  2  1  0
 47  8  2  0
 19 10  1  0
M  CHG  2   9  -1  31   1
M  END
>  <UniqueID>  (43) 
40

>  <SMILES>  (43) 
CC[NH+](CC)CCC/N=c1/cc(-c2ccccc2)[n-]c2ccccc12

>  <Energy>  (43) 
80.2640567464368

>  <Genealogy>  (43) 
CC[NH+](CC)CCCN=c1cc(-c2ccccc2)[n-]c2ccccc12 (protonated)
CC[NH+](CC)CCC/N=c1/cc(-c2ccccc2)[n-]c2ccccc12 (cis-trans isomerization)
CC[NH+](CC)CCC/N=c1/cc(-c2ccccc2)[n-]c2ccccc12 (3D coordinates assigned)
CC[NH+](CC)CCC/N=c1/cc(-c2ccccc2)[n-]c2ccccc12 (optimized conformer: 80.2640567464368 kcal/mol)

>  <smiles>  (43) 
CCN(CC)CCCN=c1cc(-c2ccccc2)[nH]c2ccccc12

>  <score_type>  (43) 
oracle

>  <origin>  (43) 
adg

>  <m_score__min__energy>  (43) 
-8.4399999999999995

>  <m_primary>  (43) 
energy

$$$$
43:0
     RDKit          3D

 38 40  0  0  0  0  0  0  0  0999 V2000
   -3.2580   21.4040  -30.1590 C   0  0  0  0  0  0  0  0  0  0  0  0
   -3.9240   20.4260  -31.1300 C   0  0  0  0  0  0  0  0  0  0  0  0
   -4.4420   21.0960  -32.3370 N   0  0  0  0  0  0  0  0  0  0  0  0
   -3.5190   21.3600  -33.4590 C   0  0  0  0  0  0  0  0  0  0  0  0
   -2.5580   20.1970  -33.6580 C   0  0  0  0  0  0  0  0  0  0  0  0
   -5.5710   21.9820  -32.1760 C   0  0  0  0  0  0  0  0  0  0  0  0
   -5.3350   23.3090  -31.9480 N   0  0  0  0  0  0  0  0  0  0  0  0
   -6.3300   24.1840  -31.6290 C   0  0  0  0  0  0  0  0  0  0  0  0
   -7.6070   23.7440  -31.4860 N   0  0  0  0  0  0  0  0  0  0  0  0
   -7.8780   22.4370  -31.7090 C   0  0  0  0  0  0  0  0  0  0  0  0
   -9.3790   21.7030  -31.5890 S   0  0  0  0  0  0  0  0  0  0  0  0
   -8.8280   20.1820  -32.0570 C   0  0  0  0  0  0  0  0  0  0  0  0
   -7.4580   20.2400  -32.3290 C   0  0  0  0  0  0  0  0  0  0  0  0
   -6.7780   19.1020  -32.9740 C   0  0  0  0  0  0  0  0  0  0  0  0
   -6.1530   19.2700  -34.2200 C   0  0  0  0  0  0  0  0  0  0  0  0
   -5.4170   18.2230  -34.7840 C   0  0  0  0  0  0  0  0  0  0  0  0
   -5.2830   17.0110  -34.0970 C   0  0  0  0  0  0  0  0  0  0  0  0
   -4.5680   15.9990  -34.6420 F   0  0  0  0  0  0  0  0  0  0  0  0
   -5.8830   16.8490  -32.8440 C   0  0  0  0  0  0  0  0  0  0  0  0
   -6.6240   17.8930  -32.2810 C   0  0  0  0  0  0  0  0  0  0  0  0
   -6.9070   21.5240  -32.0940 C   0  0  0  0  0  0  0  0  0  0  0  0
   -3.4688   21.0945  -29.1247 H   0  0  0  0  0  0  0  0  0  0  0  0
   -2.1709   21.4046  -30.3272 H   0  0  0  0  0  0  0  0  0  0  0  0
   -3.6557   22.4157  -30.3272 H   0  0  0  0  0  0  0  0  0  0  0  0
   -3.1835   19.6720  -31.4350 H   0  0  0  0  0  0  0  0  0  0  0  0
   -4.7773   19.9663  -30.6098 H   0  0  0  0  0  0  0  0  0  0  0  0
   -4.1036   21.5055  -34.3794 H   0  0  0  0  0  0  0  0  0  0  0  0
   -2.9345   22.2627  -33.2278 H   0  0  0  0  0  0  0  0  0  0  0  0
   -2.2401   19.8122  -32.6778 H   0  0  0  0  0  0  0  0  0  0  0  0
   -3.0620   19.3969  -34.2200 H   0  0  0  0  0  0  0  0  0  0  0  0
   -1.6773   20.5411  -34.2200 H   0  0  0  0  0  0  0  0  0  0  0  0
   -6.0982   25.2499  -31.4869 H   0  0  0  0  0  0  0  0  0  0  0  0
   -8.3670   24.4070  -31.2150 H   0  0  0  0  0  0  0  0  0  0  0  0
   -9.4517   19.2794  -32.1366 H   0  0  0  0  0  0  0  0  0  0  0  0
   -6.2425   20.2276  -34.7539 H   0  0  0  0  0  0  0  0  0  0  0  0
   -4.9431   18.3522  -35.7682 H   0  0  0  0  0  0  0  0  0  0  0  0
   -5.7719   15.8991  -32.3006 H   0  0  0  0  0  0  0  0  0  0  0  0
   -7.0873   17.7652  -31.2916 H   0  0  0  0  0  0  0  0  0  0  0  0
  1  2  1  0
  2  3  1  0
  3  4  1  0
  4  5  1  0
  3  6  1  0
  6  7  2  0
  7  8  1  0
  8  9  2  0
  9 10  1  0
 10 11  1  0
 11 12  1  0
 12 13  2  0
 13 14  1  0
 14 15  2  0
 15 16  1  0
 16 17  2  0
 17 18  1  0
 17 19  1  0
 19 20  2  0
 13 21  1  0
 21  6  1  0
 21 10  2  0
 20 14  1  0
  1 22  1  0
  1 23  1  0
  1 24  1  0
  2 25  1  0
  2 26  1  0
  4 27  1  0
  4 28  1  0
  5 29  1  0
  5 30  1  0
  5 31  1  0
  8 32  1  0
  9 33  1  0
 12 34  1  0
 15 35  1  0
 16 36  1  0
 19 37  1  0
 20 38  1  0
M  CHG  1   9   1
M  END
>  <UniqueID>  (44) 
41

>  <SMILES>  (44) 
CCN(CC)c1nc[nH+]c2scc(-c3ccc(F)cc3)c12

>  <Energy>  (44) 
81.02859865344594

>  <Genealogy>  (44) 
CCN(CC)c1nc[nH+]c2scc(-c3ccc(F)cc3)c12 (protonated)
CCN(CC)c1nc[nH+]c2scc(-c3ccc(F)cc3)c12 (3D coordinates assigned)
CCN(CC)c1nc[nH+]c2scc(-c3ccc(F)cc3)c12 (optimized conformer: 81.02859865344594 kcal/mol)

>  <smiles>  (44) 
CCN(CC)c1ncnc2scc(-c3ccc(F)cc3)c12

>  <score_type>  (44) 
oracle

>  <origin>  (44) 
adg

>  <m_score__min__energy>  (44) 
-6.5199999999999996

>  <m_primary>  (44) 
energy

$$$$
44:0
     RDKit          3D

 57 60  0  0  0  0  0  0  0  0999 V2000
   -4.3990   24.2100  -29.9720 C   0  0  0  0  0  0  0  0  0  0  0  0
   -4.9050   23.9220  -31.2700 O   0  0  0  0  0  0  0  0  0  0  0  0
   -6.0730   23.1840  -31.5210 C   0  0  0  0  0  0  0  0  0  0  0  0
   -7.3180   23.8000  -31.7320 C   0  0  0  0  0  0  0  0  0  0  0  0
   -8.4510   23.0270  -31.9860 C   0  0  0  0  0  0  0  0  0  0  0  0
   -8.3610   21.6290  -32.0300 C   0  0  0  0  0  0  0  0  0  0  0  0
   -9.5070   20.8660  -32.3010 C   0  0  0  0  0  0  0  0  0  0  0  0
   -9.4280   19.4780  -32.3630 C   0  0  0  0  0  0  0  0  0  0  0  0
   -8.2110   18.8320  -32.1470 C   0  0  0  0  0  0  0  0  0  0  0  0
   -7.0470   19.5650  -31.8530 C   0  0  0  0  0  0  0  0  0  0  0  0
   -5.7570   18.8000  -31.6410 C   0  0  0  0  0  0  0  0  0  0  0  0
   -5.0500   18.5450  -32.9920 C   0  0  0  0  0  0  0  0  0  0  0  0
   -3.6210   18.9420  -33.0340 N   0  0  0  0  0  0  0  0  0  0  0  0
   -3.4180   20.3800  -32.7520 C   0  0  0  0  0  0  0  0  0  0  0  0
   -1.9220   20.7000  -32.6300 C   0  0  0  0  0  0  0  0  0  0  0  0
   -1.2020   20.2020  -33.8090 N   0  0  0  0  0  0  0  0  0  0  0  0
   -0.0180   20.8930  -34.2530 C   0  0  0  0  0  0  0  0  0  0  0  0
    0.6570   21.5660  -33.4270 O   0  0  0  0  0  0  0  0  0  0  0  0
    0.4460   20.7930  -35.6820 C   0  0  0  0  0  0  0  0  0  0  0  0
    1.4200   21.8900  -36.0230 C   0  0  0  0  0  0  0  0  0  0  0  0
    2.8020   21.6890  -35.8860 C   0  0  0  0  0  0  0  0  0  0  0  0
    3.6910   22.7260  -36.1770 C   0  0  0  0  0  0  0  0  0  0  0  0
    3.1880   23.9590  -36.5960 C   0  0  0  0  0  0  0  0  0  0  0  0
    1.8460   24.1450  -36.7110 N   0  0  0  0  0  0  0  0  0  0  0  0
    0.9600   23.1500  -36.4350 C   0  0  0  0  0  0  0  0  0  0  0  0
   -1.4580   18.8190  -34.2340 C   0  0  0  0  0  0  0  0  0  0  0  0
   -2.9670   18.5610  -34.3060 C   0  0  0  0  0  0  0  0  0  0  0  0
   -7.1140   20.9870  -31.8090 C   0  0  0  0  0  0  0  0  0  0  0  0
   -5.9780   21.7890  -31.5590 C   0  0  0  0  0  0  0  0  0  0  0  0
   -5.0910   23.8162  -29.2130 H   0  0  0  0  0  0  0  0  0  0  0  0
   -3.4131   23.7377  -29.8497 H   0  0  0  0  0  0  0  0  0  0  0  0
   -4.3017   25.2988  -29.8497 H   0  0  0  0  0  0  0  0  0  0  0  0
   -7.3996   24.8964  -31.6967 H   0  0  0  0  0  0  0  0  0  0  0  0
   -9.4212   23.5177  -32.1528 H   0  0  0  0  0  0  0  0  0  0  0  0
  -10.4723   21.3673  -32.4652 H   0  0  0  0  0  0  0  0  0  0  0  0
  -10.3296   18.8876  -32.5834 H   0  0  0  0  0  0  0  0  0  0  0  0
   -8.1607   17.7348  -32.2073 H   0  0  0  0  0  0  0  0  0  0  0  0
   -5.0919   19.3856  -30.9893 H   0  0  0  0  0  0  0  0  0  0  0  0
   -5.9903   17.8320  -31.1735 H   0  0  0  0  0  0  0  0  0  0  0  0
   -5.1124   17.4692  -33.2126 H   0  0  0  0  0  0  0  0  0  0  0  0
   -5.5663   19.1722  -33.7336 H   0  0  0  0  0  0  0  0  0  0  0  0
   -3.1540   18.3990  -32.2670 H   0  0  0  0  0  0  0  0  0  0  0  0
   -3.8491   20.9736  -33.5716 H   0  0  0  0  0  0  0  0  0  0  0  0
   -3.9127   20.6285  -31.8015 H   0  0  0  0  0  0  0  0  0  0  0  0
   -1.7878   21.7892  -32.5549 H   0  0  0  0  0  0  0  0  0  0  0  0
   -1.5212   20.2107  -31.7300 H   0  0  0  0  0  0  0  0  0  0  0  0
    0.9367   19.8199  -35.8314 H   0  0  0  0  0  0  0  0  0  0  0  0
   -0.4312   20.8935  -36.3380 H   0  0  0  0  0  0  0  0  0  0  0  0
    3.1852   20.7144  -35.5493 H   0  0  0  0  0  0  0  0  0  0  0  0
    4.7757   22.5729  -36.0771 H   0  0  0  0  0  0  0  0  0  0  0  0
    3.8786   24.7816  -36.8336 H   0  0  0  0  0  0  0  0  0  0  0  0
   -0.1199   23.3338  -36.5351 H   0  0  0  0  0  0  0  0  0  0  0  0
   -1.0131   18.6551  -35.2266 H   0  0  0  0  0  0  0  0  0  0  0  0
   -1.0092   18.1291  -33.5042 H   0  0  0  0  0  0  0  0  0  0  0  0
   -3.3968   19.1552  -35.1258 H   0  0  0  0  0  0  0  0  0  0  0  0
   -3.1357   17.4888  -34.4847 H   0  0  0  0  0  0  0  0  0  0  0  0
   -5.0028   21.3084  -31.3915 H   0  0  0  0  0  0  0  0  0  0  0  0
  1  2  1  0
  2  3  1  0
  3  4  2  0
  4  5  1  0
  5  6  2  0
  6  7  1  0
  7  8  2  0
  8  9  1  0
  9 10  2  0
 10 11  1  0
 11 12  1  0
 12 13  1  0
 13 14  1  0
 14 15  1  0
 15 16  1  0
 16 17  1  0
 17 18  2  0
 17 19  1  0
 19 20  1  0
 20 21  2  0
 21 22  1  0
 22 23  2  0
 23 24  1  0
 24 25  2  0
 16 26  1  0
 26 27  1  0
 10 28  1  0
 28 29  2  0
 29  3  1  0
 28  6  1  0
 27 13  1  0
 25 20  1  0
  1 30  1  0
  1 31  1  0
  1 32  1  0
  4 33  1  0
  5 34  1  0
  7 35  1  0
  8 36  1  0
  9 37  1  0
 11 38  1  0
 11 39  1  0
 12 40  1  0
 12 41  1  0
 13 42  1  0
 14 43  1  0
 14 44  1  0
 15 45  1  0
 15 46  1  0
 19 47  1  0
 19 48  1  0
 21 49  1  0
 22 50  1  0
 23 51  1  0
 25 52  1  0
 26 53  1  0
 26 54  1  0
 27 55  1  0
 27 56  1  0
 29 57  1  0
M  CHG  1  13   1
M  END
>  <UniqueID>  (45) 
42

>  <SMILES>  (45) 
COc1ccc2cccc(CC[NH+]3CCN(C(=O)Cc4cccnc4)CC3)c2c1

>  <Energy>  (45) 
69.23933158211157

>  <Genealogy>  (45) 
COc1ccc2cccc(CC[NH+]3CCN(C(=O)Cc4cccnc4)CC3)c2c1 (protonated)
COc1ccc2cccc(CC[NH+]3CCN(C(=O)Cc4cccnc4)CC3)c2c1 (3D coordinates assigned)
COc1ccc2cccc(CC[NH+]3CCN(C(=O)Cc4cccnc4)CC3)c2c1 (nonaromatic ring conformer: 69.23933158211157 kcal/mol)

>  <smiles>  (45) 
COc1ccc2cccc(CCN3CCN(C(=O)Cc4cccnc4)CC3)c2c1

>  <score_type>  (45) 
oracle

>  <origin>  (45) 
adg

>  <m_score__min__energy>  (45) 
-8.5500000000000007

>  <m_primary>  (45) 
energy

$$$$
45:0
     RDKit          3D

 68 73  0  0  0  0  0  0  0  0999 V2000
   -3.5030   20.5260  -27.3500 O   0  0  0  0  0  0  0  0  0  0  0  0
   -3.0680   21.6280  -27.6490 C   0  0  0  0  0  0  0  0  0  0  0  0
   -3.9890   22.8140  -27.4990 C   0  0  0  0  0  0  0  0  0  0  0  0
   -3.2370   24.0590  -27.0330 C   0  0  0  0  0  0  0  0  0  0  0  0
   -2.0000   24.3180  -27.9140 C   0  0  1  0  0  0  0  0  0  0  0  0
   -1.2320   25.5650  -27.4470 C   0  0  0  0  0  0  0  0  0  0  0  0
   -0.5160   25.3230  -26.1860 N   0  0  0  0  0  0  0  0  0  0  0  0
   -0.0770   26.4930  -25.4030 C   0  0  0  0  0  0  0  0  0  0  0  0
    0.6240   26.1370  -24.0940 C   0  0  0  0  0  0  0  0  0  0  0  0
   -0.5080   26.8010  -23.3170 C   0  0  0  0  0  0  0  0  0  0  0  0
   -1.2060   27.1640  -24.6240 C   0  0  0  0  0  0  0  0  0  0  0  0
   -0.1910   23.9740  -25.7810 C   0  0  0  0  0  0  0  0  0  0  0  0
   -0.4970   22.9500  -26.5240 N   0  0  0  0  0  0  0  0  0  0  0  0
   -1.0410   23.0980  -27.8890 C   0  0  1  0  0  0  0  0  0  0  0  0
   -1.7420   21.7830  -28.4170 C   0  0  1  0  0  0  0  0  0  0  0  0
   -0.7590   20.5940  -28.2470 C   0  0  0  0  0  0  0  0  0  0  0  0
    0.6320   20.8160  -28.3880 C   0  0  0  0  0  0  0  0  0  0  0  0
    1.5520   19.7770  -28.2230 C   0  0  0  0  0  0  0  0  0  0  0  0
    1.1120   18.5000  -27.8800 C   0  0  0  0  0  0  0  0  0  0  0  0
   -0.2470   18.2640  -27.6810 C   0  0  0  0  0  0  0  0  0  0  0  0
   -1.1730   19.2990  -27.8460 C   0  0  0  0  0  0  0  0  0  0  0  0
   -2.1300   21.8380  -29.9210 C   0  0  0  0  0  0  0  0  0  0  0  0
   -1.4880   21.0720  -30.9250 C   0  0  0  0  0  0  0  0  0  0  0  0
   -1.9170   21.1230  -32.2520 C   0  0  0  0  0  0  0  0  0  0  0  0
   -3.0120   21.9040  -32.6100 C   0  0  0  0  0  0  0  0  0  0  0  0
   -3.7060   22.6340  -31.6340 C   0  0  0  0  0  0  0  0  0  0  0  0
   -4.8430   23.4040  -31.9290 O   0  0  0  0  0  0  0  0  0  0  0  0
   -6.0520   23.4100  -31.1690 C   0  0  0  0  0  0  0  0  0  0  0  0
   -6.9500   22.2750  -31.5860 C   0  0  0  0  0  0  0  0  0  0  0  0
   -8.3070   22.2800  -31.2240 C   0  0  0  0  0  0  0  0  0  0  0  0
   -9.1430   21.2270  -31.6070 C   0  0  0  0  0  0  0  0  0  0  0  0
   -8.6330   20.1660  -32.3590 C   0  0  0  0  0  0  0  0  0  0  0  0
   -7.2860   20.1590  -32.7350 C   0  0  0  0  0  0  0  0  0  0  0  0
   -6.4470   21.2110  -32.3550 C   0  0  0  0  0  0  0  0  0  0  0  0
   -3.2630   22.5940  -30.3080 C   0  0  0  0  0  0  0  0  0  0  0  0
   -4.4596   23.0248  -28.4706 H   0  0  0  0  0  0  0  0  0  0  0  0
   -4.7453   22.5664  -26.7396 H   0  0  0  0  0  0  0  0  0  0  0  0
   -3.9088   24.9281  -27.0915 H   0  0  0  0  0  0  0  0  0  0  0  0
   -2.9028   23.8997  -25.9972 H   0  0  0  0  0  0  0  0  0  0  0  0
   -2.3618   24.4824  -28.9397 H   0  0  0  0  0  0  0  0  0  0  0  0
   -0.5037   25.8460  -28.2220 H   0  0  0  0  0  0  0  0  0  0  0  0
   -1.9598   26.3723  -27.2782 H   0  0  0  0  0  0  0  0  0  0  0  0
    0.4645   27.0431  -26.1867 H   0  0  0  0  0  0  0  0  0  0  0  0
    0.7201   25.0561  -23.9141 H   0  0  0  0  0  0  0  0  0  0  0  0
    1.6695   26.4319  -23.9210 H   0  0  0  0  0  0  0  0  0  0  0  0
   -1.0802   26.1094  -22.6811 H   0  0  0  0  0  0  0  0  0  0  0  0
   -0.2858   27.5805  -22.5733 H   0  0  0  0  0  0  0  0  0  0  0  0
   -2.1891   26.6887  -24.7566 H   0  0  0  0  0  0  0  0  0  0  0  0
   -1.4905   28.2052  -24.8361 H   0  0  0  0  0  0  0  0  0  0  0  0
    0.3261   23.8092  -24.8242 H   0  0  0  0  0  0  0  0  0  0  0  0
   -0.2700   22.0110  -26.1360 H   0  0  0  0  0  0  0  0  0  0  0  0
   -0.2049   23.2740  -28.5818 H   0  0  0  0  0  0  0  0  0  0  0  0
    0.9955   21.8251  -28.6320 H   0  0  0  0  0  0  0  0  0  0  0  0
    2.6261   19.9677  -28.3642 H   0  0  0  0  0  0  0  0  0  0  0  0
    1.8361   17.6797  -27.7665 H   0  0  0  0  0  0  0  0  0  0  0  0
   -0.5926   17.2601  -27.3931 H   0  0  0  0  0  0  0  0  0  0  0  0
   -2.2399   19.1049  -27.6616 H   0  0  0  0  0  0  0  0  0  0  0  0
   -0.6387   20.4274  -30.6546 H   0  0  0  0  0  0  0  0  0  0  0  0
   -1.3860   20.5419  -33.0204 H   0  0  0  0  0  0  0  0  0  0  0  0
   -3.3339   21.9488  -33.6609 H   0  0  0  0  0  0  0  0  0  0  0  0
   -5.8079   23.3036  -30.1017 H   0  0  0  0  0  0  0  0  0  0  0  0
   -6.5770   24.3599  -31.3482 H   0  0  0  0  0  0  0  0  0  0  0  0
   -8.7139   23.1162  -30.6365 H   0  0  0  0  0  0  0  0  0  0  0  0
  -10.2037   21.2340  -31.3158 H   0  0  0  0  0  0  0  0  0  0  0  0
   -9.2910   19.3359  -32.6555 H   0  0  0  0  0  0  0  0  0  0  0  0
   -6.8861   19.3249  -33.3304 H   0  0  0  0  0  0  0  0  0  0  0  0
   -5.3898   21.2061  -32.6588 H   0  0  0  0  0  0  0  0  0  0  0  0
   -3.8102   23.1660  -29.5442 H   0  0  0  0  0  0  0  0  0  0  0  0
  1  2  2  0
  2  3  1  0
  3  4  1  0
  4  5  1  0
  5  6  1  0
  6  7  1  0
  7  8  1  0
  8  9  1  0
  9 10  1  0
 10 11  1  0
  7 12  1  0
 12 13  2  0
 13 14  1  0
 14 15  1  0
 15 16  1  6
 16 17  2  0
 17 18  1  0
 18 19  2  0
 19 20  1  0
 20 21  2  0
 15 22  1  0
 22 23  2  0
 23 24  1  0
 24 25  2  0
 25 26  1  0
 26 27  1  0
 27 28  1  0
 28 29  1  0
 29 30  2  0
 30 31  1  0
 31 32  2  0
 32 33  1  0
 33 34  2  0
 26 35  2  0
 15  2  1  0
 21 16  1  0
 35 22  1  0
 14  5  1  0
 34 29  1  0
 11  8  1  0
  3 36  1  0
  3 37  1  0
  4 38  1  0
  4 39  1  0
  5 40  1  6
  6 41  1  0
  6 42  1  0
  8 43  1  0
  9 44  1  0
  9 45  1  0
 10 46  1  0
 10 47  1  0
 11 48  1  0
 11 49  1  0
 12 50  1  0
 13 51  1  0
 14 52  1  6
 17 53  1  0
 18 54  1  0
 19 55  1  0
 20 56  1  0
 21 57  1  0
 23 58  1  0
 24 59  1  0
 25 60  1  0
 28 61  1  0
 28 62  1  0
 30 63  1  0
 31 64  1  0
 32 65  1  0
 33 66  1  0
 34 67  1  0
 35 68  1  0
M  CHG  1  13   1
M  END
>  <UniqueID>  (46) 
43

>  <SMILES>  (46) 
O=C1CC[C@H]2CN(C3CCC3)C=[NH+][C@H]2C1(c1ccccc1)c1cccc(OCc2ccccc2)c1

>  <Energy>  (46) 
152.34141848061014

>  <Genealogy>  (46) 
O=C1CCC2CN(C3CCC3)C=[NH+]C2C1(c1ccccc1)c1cccc(OCc2ccccc2)c1 (protonated)
O=C1CC[C@H]2CN(C3CCC3)C=[NH+][C@H]2C1(c1ccccc1)c1cccc(OCc2ccccc2)c1 (chirality)
O=C1CC[C@H]2CN(C3CCC3)C=[NH+][C@H]2C1(c1ccccc1)c1cccc(OCc2ccccc2)c1 (3D coordinates assigned)
O=C1CC[C@H]2CN(C3CCC3)C=[NH+][C@H]2C1(c1ccccc1)c1cccc(OCc2ccccc2)c1 (nonaromatic ring conformer: 152.34141848061014 kcal/mol)

>  <smiles>  (46) 
O=C1CCC2CN(C3CCC3)C=NC2C1(c1ccccc1)c1cccc(OCc2ccccc2)c1

>  <score_type>  (46) 
oracle

>  <origin>  (46) 
adg

>  <m_score__min__energy>  (46) 
-9.4399999999999995

>  <m_primary>  (46) 
energy

$$$$
46:0
     RDKit          3D

 44 44  0  0  0  0  0  0  0  0999 V2000
   -2.9940   20.9940  -28.1410 C   0  0  0  0  0  0  0  0  0  0  0  0
   -3.7900   22.2960  -28.2040 C   0  0  0  0  0  0  0  0  0  0  0  0
   -3.0080   23.4250  -27.6500 N   0  0  0  0  0  0  0  0  0  0  0  0
   -3.8870   24.4680  -27.0570 C   0  0  0  0  0  0  0  0  0  0  0  0
   -3.0950   25.2890  -26.0470 C   0  0  0  0  0  0  0  0  0  0  0  0
   -2.1040   23.9870  -28.6800 C   0  0  0  0  0  0  0  0  0  0  0  0
   -2.7340   23.9150  -30.0750 C   0  0  0  0  0  0  0  0  0  0  0  0
   -3.4940   25.1310  -30.3400 N   0  0  0  0  0  0  0  0  0  0  0  0
   -4.9110   25.1790  -30.5430 C   0  0  0  0  0  0  0  0  0  0  0  0
   -5.4980   26.2910  -30.4710 O   0  0  0  0  0  0  0  0  0  0  0  0
   -5.6990   23.9720  -30.8610 C   0  0  0  0  0  0  0  0  0  0  0  0
   -5.3610   23.1900  -31.9750 C   0  0  0  0  0  0  0  0  0  0  0  0
   -6.1100   22.0540  -32.2940 C   0  0  0  0  0  0  0  0  0  0  0  0
   -7.2200   21.6870  -31.5130 C   0  0  0  0  0  0  0  0  0  0  0  0
   -8.0250   20.4520  -31.8690 C   0  0  0  0  0  0  0  0  0  0  0  0
   -7.3810   19.6900  -33.0330 C   0  0  0  0  0  0  0  0  0  0  0  0
   -9.4810   20.8120  -32.1840 C   0  0  0  0  0  0  0  0  0  0  0  0
   -7.5690   22.4890  -30.4110 C   0  0  0  0  0  0  0  0  0  0  0  0
   -6.8200   23.6250  -30.0930 C   0  0  0  0  0  0  0  0  0  0  0  0
   -2.8252   20.7179  -27.0897 H   0  0  0  0  0  0  0  0  0  0  0  0
   -3.5580   20.1947  -28.6440 H   0  0  0  0  0  0  0  0  0  0  0  0
   -2.0255   21.1317  -28.6440 H   0  0  0  0  0  0  0  0  0  0  0  0
   -4.0415   22.5132  -29.2526 H   0  0  0  0  0  0  0  0  0  0  0  0
   -4.7045   22.1763  -27.6045 H   0  0  0  0  0  0  0  0  0  0  0  0
   -4.2604   25.1284  -27.8535 H   0  0  0  0  0  0  0  0  0  0  0  0
   -4.7362   23.9858  -26.5507 H   0  0  0  0  0  0  0  0  0  0  0  0
   -3.3817   24.9918  -25.0275 H   0  0  0  0  0  0  0  0  0  0  0  0
   -2.0193   25.1104  -26.1922 H   0  0  0  0  0  0  0  0  0  0  0  0
   -3.3121   26.3575  -26.1922 H   0  0  0  0  0  0  0  0  0  0  0  0
   -1.8933   25.0387  -28.4361 H   0  0  0  0  0  0  0  0  0  0  0  0
   -1.1768   23.3952  -28.6875 H   0  0  0  0  0  0  0  0  0  0  0  0
   -1.9398   23.8097  -30.8288 H   0  0  0  0  0  0  0  0  0  0  0  0
   -3.4095   23.0482  -30.1229 H   0  0  0  0  0  0  0  0  0  0  0  0
   -4.5017   23.4723  -32.6011 H   0  0  0  0  0  0  0  0  0  0  0  0
   -5.8287   21.4418  -33.1635 H   0  0  0  0  0  0  0  0  0  0  0  0
   -8.0260   19.7884  -30.9917 H   0  0  0  0  0  0  0  0  0  0  0  0
   -6.7187   18.9063  -32.6365 H   0  0  0  0  0  0  0  0  0  0  0  0
   -8.1671   19.2287  -33.6489 H   0  0  0  0  0  0  0  0  0  0  0  0
   -6.7951   20.3882  -33.6489 H   0  0  0  0  0  0  0  0  0  0  0  0
  -10.0363   20.9493  -31.2444 H   0  0  0  0  0  0  0  0  0  0  0  0
   -9.5103   21.7444  -32.7668 H   0  0  0  0  0  0  0  0  0  0  0  0
   -9.9415   20.0007  -32.7668 H   0  0  0  0  0  0  0  0  0  0  0  0
   -8.4391   22.2194  -29.7943 H   0  0  0  0  0  0  0  0  0  0  0  0
   -7.1111   24.2502  -29.2360 H   0  0  0  0  0  0  0  0  0  0  0  0
  1  2  1  0
  2  3  1  0
  3  4  1  0
  4  5  1  0
  3  6  1  0
  6  7  1  0
  7  8  1  0
  8  9  1  0
  9 10  2  0
  9 11  1  0
 11 12  2  0
 12 13  1  0
 13 14  2  0
 14 15  1  0
 15 16  1  0
 15 17  1  0
 14 18  1  0
 18 19  2  0
 19 11  1  0
  1 20  1  0
  1 21  1  0
  1 22  1  0
  2 23  1  0
  2 24  1  0
  4 25  1  0
  4 26  1  0
  5 27  1  0
  5 28  1  0
  5 29  1  0
  6 30  1  0
  6 31  1  0
  7 32  1  0
  7 33  1  0
 12 34  1  0
 13 35  1  0
 15 36  1  0
 16 37  1  0
 16 38  1  0
 16 39  1  0
 17 40  1  0
 17 41  1  0
 17 42  1  0
 18 43  1  0
 19 44  1  0
M  CHG  1   8  -1
M  END
>  <UniqueID>  (47) 
44

>  <SMILES>  (47) 
CCN(CC)CC[N-]C(=O)c1ccc(C(C)C)cc1

>  <Energy>  (47) 
39.07001694979144

>  <Genealogy>  (47) 
CCN(CC)CC[N-]C(=O)c1ccc(C(C)C)cc1 (protonated)
CCN(CC)CC[N-]C(=O)c1ccc(C(C)C)cc1 (3D coordinates assigned)
CCN(CC)CC[N-]C(=O)c1ccc(C(C)C)cc1 (optimized conformer: 39.07001694979144 kcal/mol)

>  <smiles>  (47) 
CCN(CC)CCNC(=O)c1ccc(C(C)C)cc1

>  <score_type>  (47) 
oracle

>  <origin>  (47) 
adg

>  <m_score__min__energy>  (47) 
-8.9700000000000006

>  <m_primary>  (47) 
energy

$$$$
