0:0
     RDKit          3D

 42 43  0  0  0  0  0  0  0  0999 V2000
   -3.8080   22.5520  -31.5920 C   0  0  0  0  0  0  0  0  0  0  0  0
   -5.0190   22.7500  -30.6810 C   0  0  0  0  0  0  0  0  0  0  0  0
   -5.8020   23.9390  -31.0830 N   0  0  0  0  0  0  0  0  0  0  0  0
   -5.2540   25.1940  -30.5060 C   0  0  0  0  0  0  0  0  0  0  0  0
   -6.1570   25.6790  -29.3780 C   0  0  0  0  0  0  0  0  0  0  0  0
   -7.2370   23.7630  -30.7570 C   0  0  0  0  0  0  0  0  0  0  0  0
   -8.0080   23.1920  -31.9570 C   0  0  0  0  0  0  0  0  0  0  0  0
   -7.2020   22.2130  -32.6900 N   0  0  0  0  0  0  0  0  0  0  0  0
   -7.4690   20.8000  -32.6610 C   0  0  0  0  0  0  0  0  0  0  0  0
   -8.7090   20.3190  -32.2160 C   0  0  0  0  0  0  0  0  0  0  0  0
   -8.9590   18.9470  -32.1660 C   0  0  0  0  0  0  0  0  0  0  0  0
   -7.9750   18.0360  -32.5540 C   0  0  0  0  0  0  0  0  0  0  0  0
   -6.7190   18.4900  -33.0020 C   0  0  0  0  0  0  0  0  0  0  0  0
   -5.6860   17.6000  -33.3890 C   0  0  0  0  0  0  0  0  0  0  0  0
   -5.8690   16.1050  -33.3580 C   0  0  0  0  0  0  0  0  0  0  0  0
   -4.4530   18.1270  -33.8050 C   0  0  0  0  0  0  0  0  0  0  0  0
   -4.2590   19.5060  -33.8360 C   0  0  0  0  0  0  0  0  0  0  0  0
   -5.2590   20.3440  -33.4670 N   0  0  0  0  0  0  0  0  0  0  0  0
   -6.4740   19.8860  -33.0580 C   0  0  0  0  0  0  0  0  0  0  0  0
   -2.9074   22.4047  -30.9779 H   0  0  0  0  0  0  0  0  0  0  0  0
   -3.9674   21.6680  -32.2269 H   0  0  0  0  0  0  0  0  0  0  0  0
   -3.6776   23.4407  -32.2269 H   0  0  0  0  0  0  0  0  0  0  0  0
   -5.6623   21.8597  -30.7407 H   0  0  0  0  0  0  0  0  0  0  0  0
   -4.6601   22.9008  -29.6522 H   0  0  0  0  0  0  0  0  0  0  0  0
   -4.2451   25.0045  -30.1107 H   0  0  0  0  0  0  0  0  0  0  0  0
   -5.2054   25.9641  -31.2899 H   0  0  0  0  0  0  0  0  0  0  0  0
   -5.6981   25.4325  -28.4092 H   0  0  0  0  0  0  0  0  0  0  0  0
   -6.2874   26.7685  -29.4554 H   0  0  0  0  0  0  0  0  0  0  0  0
   -7.1373   25.1860  -29.4554 H   0  0  0  0  0  0  0  0  0  0  0  0
   -7.3306   23.0711  -29.9070 H   0  0  0  0  0  0  0  0  0  0  0  0
   -7.6617   24.7453  -30.5027 H   0  0  0  0  0  0  0  0  0  0  0  0
   -8.9240   22.7026  -31.5944 H   0  0  0  0  0  0  0  0  0  0  0  0
   -8.2530   24.0201  -32.6383 H   0  0  0  0  0  0  0  0  0  0  0  0
   -6.3070   22.5450  -33.1160 H   0  0  0  0  0  0  0  0  0  0  0  0
   -9.4899   21.0282  -31.9042 H   0  0  0  0  0  0  0  0  0  0  0  0
   -9.9367   18.5814  -31.8190 H   0  0  0  0  0  0  0  0  0  0  0  0
   -8.1818   16.9565  -32.5096 H   0  0  0  0  0  0  0  0  0  0  0  0
   -5.9109   15.7623  -32.3136 H   0  0  0  0  0  0  0  0  0  0  0  0
   -6.8063   15.8397  -33.8689 H   0  0  0  0  0  0  0  0  0  0  0  0
   -5.0233   15.6214  -33.8689 H   0  0  0  0  0  0  0  0  0  0  0  0
   -3.6397   17.4505  -34.1066 H   0  0  0  0  0  0  0  0  0  0  0  0
   -3.2915   19.9164  -34.1608 H   0  0  0  0  0  0  0  0  0  0  0  0
  1  2  1  0
  2  3  1  0
  3  4  1  0
  4  5  1  0
  3  6  1  0
  6  7  1  0
  7  8  1  0
  8  9  1  0
  9 10  2  0
 10 11  1  0
 11 12  2  0
 12 13  1  0
 13 14  2  0
 14 15  1  0
 14 16  1  0
 16 17  2  0
 17 18  1  0
 18 19  2  0
 19  9  1  0
 19 13  1  0
  1 20  1  0
  1 21  1  0
  1 22  1  0
  2 23  1  0
  2 24  1  0
  4 25  1  0
  4 26  1  0
  5 27  1  0
  5 28  1  0
  5 29  1  0
  6 30  1  0
  6 31  1  0
  7 32  1  0
  7 33  1  0
  8 34  1  0
 10 35  1  0
 11 36  1  0
 12 37  1  0
 15 38  1  0
 15 39  1  0
 15 40  1  0
 16 41  1  0
 17 42  1  0
M  END
>  <UniqueID>  (1) 
1

>  <SMILES>  (1) 
CCN(CC)CCNc1cccc2c(C)ccnc12

>  <Energy>  (1) 
44.24002174946093

>  <Genealogy>  (1) 
CCN(CC)CCNc1cccc2c(C)ccnc12 (3D coordinates assigned)
CCN(CC)CCNc1cccc2c(C)ccnc12 (optimized conformer: 44.24002174946093 kcal/mol)

>  <smiles>  (1) 
CCN(CC)CCNc1cccc2c(C)ccnc12

>  <score_type>  (1) 
oracle

>  <origin>  (1) 
adg

>  <m_score__min__energy>  (1) 
-7.4400000000000004

>  <m_primary>  (1) 
energy

$$$$
1:0
     RDKit          3D

 28 29  0  0  0  0  0  0  0  0999 V2000
   -8.6200   21.8730  -31.0730 C   0  0  0  0  0  0  0  0  0  0  0  0
   -7.4230   22.7710  -31.3640 C   0  0  0  0  0  0  0  0  0  0  0  0
   -6.6030   22.9380  -30.1670 N   0  0  0  0  0  0  0  0  0  0  0  0
   -5.3950   23.7110  -30.1540 C   0  0  0  0  0  0  0  0  0  0  0  0
   -5.1110   24.8910  -30.8400 C   0  0  0  0  0  0  0  0  0  0  0  0
   -3.8550   25.3030  -30.5280 N   0  0  0  0  0  0  0  0  0  0  0  0
   -3.3660   24.4170  -29.6750 N   0  0  0  0  0  0  0  0  0  0  0  0
   -2.1490   24.4080  -29.0840 C   0  0  0  0  0  0  0  0  0  0  0  0
   -1.3080   25.3150  -29.3170 O   0  0  0  0  0  0  0  0  0  0  0  0
   -1.8530   23.3920  -28.2270 N   0  0  0  0  0  0  0  0  0  0  0  0
   -2.7700   22.4080  -27.9740 C   0  0  0  0  0  0  0  0  0  0  0  0
   -2.4360   21.3770  -27.0890 O   0  0  0  0  0  0  0  0  0  0  0  0
   -2.2960   20.0130  -27.4830 C   0  0  0  0  0  0  0  0  0  0  0  0
   -2.8040   19.0810  -26.3880 C   0  0  0  0  0  0  0  0  0  0  0  0
   -3.9940   22.4360  -28.5840 N   0  0  0  0  0  0  0  0  0  0  0  0
   -4.2600   23.4580  -29.4310 C   0  0  0  0  0  0  0  0  0  0  0  0
   -8.7495   21.7758  -29.9850 H   0  0  0  0  0  0  0  0  0  0  0  0
   -9.5261   22.3160  -31.5120 H   0  0  0  0  0  0  0  0  0  0  0  0
   -8.4481   20.8792  -31.5120 H   0  0  0  0  0  0  0  0  0  0  0  0
   -6.8140   22.3155  -32.1588 H   0  0  0  0  0  0  0  0  0  0  0  0
   -7.7892   23.7578  -31.6837 H   0  0  0  0  0  0  0  0  0  0  0  0
   -6.9350   22.5150  -29.2710 H   0  0  0  0  0  0  0  0  0  0  0  0
   -5.7973   25.4078  -31.5270 H   0  0  0  0  0  0  0  0  0  0  0  0
   -2.8763   19.8410  -28.4015 H   0  0  0  0  0  0  0  0  0  0  0  0
   -1.2307   19.8034  -27.6598 H   0  0  0  0  0  0  0  0  0  0  0  0
   -2.5698   19.5108  -25.4029 H   0  0  0  0  0  0  0  0  0  0  0  0
   -3.8929   18.9598  -26.4856 H   0  0  0  0  0  0  0  0  0  0  0  0
   -2.3157   18.1002  -26.4856 H   0  0  0  0  0  0  0  0  0  0  0  0
  1  2  1  0
  2  3  1  0
  3  4  1  0
  4  5  2  0
  5  6  1  0
  6  7  1  0
  7  8  1  0
  8  9  2  0
  8 10  1  0
 10 11  2  0
 11 12  1  0
 12 13  1  0
 13 14  1  0
 11 15  1  0
 15 16  2  0
 16  4  1  0
 16  7  1  0
  1 17  1  0
  1 18  1  0
  1 19  1  0
  2 20  1  0
  2 21  1  0
  3 22  1  0
  5 23  1  0
 13 24  1  0
 13 25  1  0
 14 26  1  0
 14 27  1  0
 14 28  1  0
M  CHG  1   6  -1
M  END
>  <UniqueID>  (2) 
2

>  <SMILES>  (2) 
CCNc1c[n-]n2c(=O)nc(OCC)nc12

>  <Energy>  (2) 
59.197521312172334

>  <Genealogy>  (2) 
CCNc1c[n-]n2c(=O)nc(OCC)nc12 (protonated)
CCNc1c[n-]n2c(=O)nc(OCC)nc12 (3D coordinates assigned)
CCNc1c[n-]n2c(=O)nc(OCC)nc12 (optimized conformer: 59.197521312172334 kcal/mol)

>  <smiles>  (2) 
CCNc1c[nH]n2c(=O)nc(OCC)nc12

>  <score_type>  (2) 
oracle

>  <origin>  (2) 
adg

>  <m_score__min__energy>  (2) 
-6.8799999999999999

>  <m_primary>  (2) 
energy

$$$$
2:0
     RDKit          3D

 54 56  0  0  0  0  0  0  0  0999 V2000
   -0.2948   25.9449  -24.8802 H   0  0  0  0  0  0  0  0  0  0  0  0
   -0.6390   25.5850  -25.8610 C   0  0  0  0  0  0  0  0  0  0  0  0
   -0.9410   24.2330  -26.0420 C   0  0  0  0  0  0  0  0  0  0  0  0
   -0.8262   23.5275  -25.2059 H   0  0  0  0  0  0  0  0  0  0  0  0
   -1.3890   23.7760  -27.2850 C   0  0  0  0  0  0  0  0  0  0  0  0
   -1.6104   22.7082  -27.4289 H   0  0  0  0  0  0  0  0  0  0  0  0
   -1.5580   24.6780  -28.3540 C   0  0  0  0  0  0  0  0  0  0  0  0
   -1.9820   24.2460  -29.6580 N   0  0  0  0  0  0  0  0  0  0  0  0
   -3.2050   24.1750  -30.1000 C   0  0  0  0  0  0  0  0  0  0  0  0
   -3.9160   25.3010  -30.3950 N   0  0  0  0  0  0  0  0  0  0  0  0
   -5.1850   25.2500  -30.8810 C   0  0  0  0  0  0  0  0  0  0  0  0
   -5.7274   26.1813  -31.1012 H   0  0  0  0  0  0  0  0  0  0  0  0
   -5.8010   24.0130  -31.1010 C   0  0  0  0  0  0  0  0  0  0  0  0
   -7.1080   23.9350  -31.6020 C   0  0  0  0  0  0  0  0  0  0  0  0
   -7.6662   24.8558  -31.8268 H   0  0  0  0  0  0  0  0  0  0  0  0
   -7.7020   22.6890  -31.8160 C   0  0  0  0  0  0  0  0  0  0  0  0
   -8.7271   22.6372  -32.2115 H   0  0  0  0  0  0  0  0  0  0  0  0
   -7.0080   21.5020  -31.5330 C   0  0  0  0  0  0  0  0  0  0  0  0
   -7.6620   20.2380  -31.7650 N   0  0  0  0  0  0  0  0  0  0  0  0
   -8.0500   19.7220  -30.9430 H   0  0  0  0  0  0  0  0  0  0  0  0
   -7.8240   19.6110  -33.0780 C   0  0  0  0  0  0  0  0  0  0  0  0
   -8.6394   20.1125  -33.6200 H   0  0  0  0  0  0  0  0  0  0  0  0
   -8.0602   18.5461  -32.9358 H   0  0  0  0  0  0  0  0  0  0  0  0
   -6.5310   19.7260  -33.8940 C   0  0  0  0  0  0  0  0  0  0  0  0
   -5.7830   20.2803  -33.3081 H   0  0  0  0  0  0  0  0  0  0  0  0
   -6.7524   20.2560  -34.8321 H   0  0  0  0  0  0  0  0  0  0  0  0
   -5.9730   18.3320  -34.2350 C   0  0  0  0  0  0  0  0  0  0  0  0
   -5.6347   18.3462  -35.2816 H   0  0  0  0  0  0  0  0  0  0  0  0
   -6.7904   17.6194  -34.0507 H   0  0  0  0  0  0  0  0  0  0  0  0
   -4.8320   17.8870  -33.3860 N   0  0  0  0  0  0  0  0  0  0  0  0
   -4.1480   17.4760  -34.0680 H   0  0  0  0  0  0  0  0  0  0  0  0
   -4.0960   19.0230  -32.7570 C   0  0  0  0  0  0  0  0  0  0  0  0
   -3.5428   18.6300  -31.8913 H   0  0  0  0  0  0  0  0  0  0  0  0
   -4.8608   19.7688  -32.4945 H   0  0  0  0  0  0  0  0  0  0  0  0
   -3.0920   19.7520  -33.6700 C   0  0  0  0  0  0  0  0  0  0  0  0
   -2.3556   20.2867  -33.0520 H   0  0  0  0  0  0  0  0  0  0  0  0
   -2.5740   19.0182  -34.3050 H   0  0  0  0  0  0  0  0  0  0  0  0
   -3.6294   20.4717  -34.3050 H   0  0  0  0  0  0  0  0  0  0  0  0
   -5.1560   16.7890  -32.4370 C   0  0  0  0  0  0  0  0  0  0  0  0
   -5.6286   15.9695  -32.9984 H   0  0  0  0  0  0  0  0  0  0  0  0
   -4.2132   16.4757  -31.9647 H   0  0  0  0  0  0  0  0  0  0  0  0
   -6.1070   17.2230  -31.3140 C   0  0  0  0  0  0  0  0  0  0  0  0
   -5.6437   17.0116  -30.3390 H   0  0  0  0  0  0  0  0  0  0  0  0
   -6.3067   18.3014  -31.3989 H   0  0  0  0  0  0  0  0  0  0  0  0
   -7.0525   16.6672  -31.3989 H   0  0  0  0  0  0  0  0  0  0  0  0
   -5.6900   21.5820  -31.0380 C   0  0  0  0  0  0  0  0  0  0  0  0
   -5.1306   20.6597  -30.8228 H   0  0  0  0  0  0  0  0  0  0  0  0
   -5.0870   22.8300  -30.8180 C   0  0  0  0  0  0  0  0  0  0  0  0
   -3.7800   22.9170  -30.3190 C   0  0  0  0  0  0  0  0  0  0  0  0
   -3.2092   22.0024  -30.1007 H   0  0  0  0  0  0  0  0  0  0  0  0
   -1.2220   26.0260  -28.1690 C   0  0  0  0  0  0  0  0  0  0  0  0
   -1.3114   26.7315  -29.0082 H   0  0  0  0  0  0  0  0  0  0  0  0
   -0.7740   26.4800  -26.9250 C   0  0  0  0  0  0  0  0  0  0  0  0
   -0.5276   27.5427  -26.7839 H   0  0  0  0  0  0  0  0  0  0  0  0
  1  2  1  0
  2  3  2  0
  3  4  1  0
  3  5  1  0
  5  6  1  0
  5  7  2  0
  7  8  1  0
  8  9  2  0
  9 10  1  0
 10 11  1  0
 11 12  1  0
 11 13  2  0
 13 14  1  0
 14 15  1  0
 14 16  2  0
 16 17  1  0
 16 18  1  0
 18 19  1  0
 19 20  1  0
 19 21  1  0
 21 22  1  0
 21 23  1  0
 21 24  1  0
 24 25  1  0
 24 26  1  0
 24 27  1  0
 27 28  1  0
 27 29  1  0
 27 30  1  0
 30 31  1  0
 30 32  1  0
 32 33  1  0
 32 34  1  0
 32 35  1  0
 35 36  1  0
 35 37  1  0
 35 38  1  0
 30 39  1  0
 39 40  1  0
 39 41  1  0
 39 42  1  0
 42 43  1  0
 42 44  1  0
 42 45  1  0
 18 46  2  0
 46 47  1  0
 46 48  1  0
 48 49  2  0
 49 50  1  0
  7 51  1  0
 51 52  1  0
 51 53  2  0
 53 54  1  0
 53  2  1  0
 49  9  1  0
 48 13  1  0
M  CHG  2  10  -1  30   1
M  END
>  <UniqueID>  (3) 
3

>  <SMILES>  (3) 
CC[NH+](CC)CCCNc1ccc2c[n-]/c(=N\c3ccccc3)cc2c1

>  <Energy>  (3) 
70.22133376768058

>  <Genealogy>  (3) 
CC[NH+](CC)CCCNc1ccc2c[n-]c(=Nc3ccccc3)cc2c1 (protonated)
CC[NH+](CC)CCCNc1ccc2c[n-]/c(=N\c3ccccc3)cc2c1 (cis-trans isomerization)
CC[NH+](CC)CCCNc1ccc2c[n-]/c(=N\c3ccccc3)cc2c1 (3D coordinates assigned)
CC[NH+](CC)CCCNc1ccc2c[n-]/c(=N\c3ccccc3)cc2c1 (optimized conformer: 70.22133376768058 kcal/mol)

>  <smiles>  (3) 
CCN(CC)CCCNc1ccc2c[nH]c(=Nc3ccccc3)cc2c1

>  <score_type>  (3) 
oracle

>  <origin>  (3) 
adg

>  <m_score__min__energy>  (3) 
-8.9100000000000001

>  <m_primary>  (3) 
energy

$$$$
3:0
     RDKit          3D

 35 37  0  0  1  0  0  0  0  0999 V2000
   -7.1640   17.8070  -31.7410 C   0  0  0  0  0  0  0  0  0  0  0  0
   -6.1110   17.3800  -32.4500 C   0  0  0  0  0  0  0  0  0  0  0  0
   -6.2240   17.1670  -33.9130 C   0  0  0  0  0  0  0  0  0  0  0  0
   -5.7090   18.3230  -34.6270 N   0  0  0  0  0  0  0  0  0  0  0  0
   -5.0730   19.2270  -33.9800 C   0  0  0  0  0  0  0  0  0  0  0  0
   -3.7050   19.2740  -33.8450 C   0  0  0  0  0  0  0  0  0  0  0  0
   -3.1240   20.2970  -33.1240 C   0  0  0  0  0  0  0  0  0  0  0  0
   -1.6430   20.3680  -32.9630 C   0  0  0  0  0  0  0  0  0  0  0  0
   -3.9090   21.2420  -32.5580 N   0  0  0  0  0  0  0  0  0  0  0  0
   -5.2590   21.2030  -32.6870 C   0  0  0  0  0  0  0  0  0  0  0  0
   -6.2460   22.0480  -32.2030 C   0  0  0  0  0  0  0  0  0  0  0  0
   -6.0370   23.2440  -31.3950 C   0  0  0  0  0  0  0  0  0  0  0  0
   -7.1260   23.8000  -30.7850 C   0  0  0  0  0  0  0  0  0  0  0  0
   -6.9410   24.9350  -30.0150 C   0  0  0  0  0  0  0  0  0  0  0  0
   -5.6840   25.5000  -29.8640 C   0  0  0  0  0  0  0  0  0  0  0  0
   -4.6150   24.8970  -30.5040 C   0  0  0  0  0  0  0  0  0  0  0  0
   -4.8000   23.7990  -31.2470 N   0  0  0  0  0  0  0  0  0  0  0  0
   -7.4310   21.5020  -32.6550 C   0  0  0  0  0  0  0  0  0  0  0  0
   -7.1590   20.3910  -33.3690 N   0  0  0  0  0  0  0  0  0  0  0  0
   -5.8320   20.1950  -33.3980 N   0  0  0  0  0  0  0  0  0  0  0  0
   -7.0702   17.9620  -30.6560 H   0  0  0  0  0  0  0  0  0  0  0  0
   -8.1227   18.0027  -32.2437 H   0  0  0  0  0  0  0  0  0  0  0  0
   -5.1545   17.1857  -31.9428 H   0  0  0  0  0  0  0  0  0  0  0  0
   -5.6445   16.2762  -34.1968 H   0  0  0  0  0  0  0  0  0  0  0  0
   -7.2826   17.0240  -34.1754 H   0  0  0  0  0  0  0  0  0  0  0  0
   -3.0770   18.4996  -34.3097 H   0  0  0  0  0  0  0  0  0  0  0  0
   -1.3907   20.3801  -31.8924 H   0  0  0  0  0  0  0  0  0  0  0  0
   -1.1800   19.4910  -33.4389 H   0  0  0  0  0  0  0  0  0  0  0  0
   -1.2660   21.2853  -33.4389 H   0  0  0  0  0  0  0  0  0  0  0  0
   -8.1255   23.3562  -30.9031 H   0  0  0  0  0  0  0  0  0  0  0  0
   -7.8053   25.3963  -29.5147 H   0  0  0  0  0  0  0  0  0  0  0  0
   -5.5401   26.4028  -29.2523 H   0  0  0  0  0  0  0  0  0  0  0  0
   -3.6061   25.3232  -30.4013 H   0  0  0  0  0  0  0  0  0  0  0  0
   -8.4352   21.9080  -32.4634 H   0  0  0  0  0  0  0  0  0  0  0  0
   -7.8770   19.7680  -33.8360 H   0  0  0  0  0  0  0  0  0  0  0  0
  1  2  2  0
  2  3  1  0
  3  4  1  0
  4  5  2  0
  5  6  1  0
  6  7  2  0
  7  8  1  0
  7  9  1  0
  9 10  2  0
 10 11  1  0
 11 12  1  0
 12 13  2  0
 13 14  1  0
 14 15  2  0
 15 16  1  0
 16 17  2  0
 11 18  2  0
 18 19  1  0
 19 20  1  0
 20  5  1  0
 20 10  1  0
 17 12  1  0
  1 21  1  0
  1 22  1  0
  2 23  1  0
  3 24  1  0
  3 25  1  0
  6 26  1  0
  8 27  1  0
  8 28  1  0
  8 29  1  0
 13 30  1  0
 14 31  1  0
 15 32  1  0
 16 33  1  0
 18 34  1  0
 19 35  1  0
M  END
>  <smiles>  (4) 
C=CCN=c1cc(C)nc2c(-c3ccccn3)c[nH]n12

>  <score_type>  (4) 
oracle

>  <origin>  (4) 
adg

>  <m_score__min__energy>  (4) 
-7.4199999999999999

>  <m_primary>  (4) 
energy

$$$$
4:0
     RDKit          3D

 54 56  0  0  0  0  0  0  0  0999 V2000
   -4.1210   22.4100  -27.8130 C   0  0  0  0  0  0  0  0  0  0  0  0
   -2.9690   23.1400  -27.1370 C   0  0  0  0  0  0  0  0  0  0  0  0
   -2.9690   24.5500  -27.5410 N   0  0  0  0  0  0  0  0  0  0  0  0
   -2.2110   25.4090  -26.6150 C   0  0  0  0  0  0  0  0  0  0  0  0
   -0.8800   25.9430  -27.1890 C   0  0  0  0  0  0  0  0  0  0  0  0
    0.0730   24.8590  -27.7300 C   0  0  0  0  0  0  0  0  0  0  0  0
   -0.4240   24.2050  -28.9540 N   0  0  0  0  0  0  0  0  0  0  0  0
   -0.1720   22.7570  -28.9610 C   0  0  0  0  0  0  0  0  0  0  0  0
   -1.1680   22.0500  -29.8850 C   0  0  0  0  0  0  0  0  0  0  0  0
   -1.9800   23.0160  -30.6290 N   0  0  0  0  0  0  0  0  0  0  0  0
   -3.2490   22.6490  -31.1950 C   0  0  0  0  0  0  0  0  0  0  0  0
   -3.3380   21.5140  -32.0200 C   0  0  0  0  0  0  0  0  0  0  0  0
   -2.1750   20.8560  -32.4720 C   0  0  0  0  0  0  0  0  0  0  0  0
   -2.2640   19.7420  -33.3030 C   0  0  0  0  0  0  0  0  0  0  0  0
   -3.5090   19.2770  -33.7110 C   0  0  0  0  0  0  0  0  0  0  0  0
   -4.6720   19.9100  -33.2740 C   0  0  0  0  0  0  0  0  0  0  0  0
   -4.6140   21.0220  -32.3950 C   0  0  0  0  0  0  0  0  0  0  0  0
   -5.7570   21.6250  -31.9070 N   0  0  0  0  0  0  0  0  0  0  0  0
   -7.0620   20.9380  -32.0260 C   0  0  0  0  0  0  0  0  0  0  0  0
   -5.6780   22.8660  -31.3010 C   0  0  0  0  0  0  0  0  0  0  0  0
   -6.8380   23.6440  -31.0590 C   0  0  0  0  0  0  0  0  0  0  0  0
   -6.7580   24.8820  -30.4290 C   0  0  0  0  0  0  0  0  0  0  0  0
   -5.5240   25.3970  -30.0550 C   0  0  0  0  0  0  0  0  0  0  0  0
   -4.3540   24.6860  -30.3160 C   0  0  0  0  0  0  0  0  0  0  0  0
   -3.1450   25.2960  -30.0020 O   0  0  0  0  0  0  0  0  0  0  0  0
   -4.4130   23.4000  -30.9220 C   0  0  0  0  0  0  0  0  0  0  0  0
   -4.7875   21.9876  -27.0466 H   0  0  0  0  0  0  0  0  0  0  0  0
   -4.6847   23.1161  -28.4404 H   0  0  0  0  0  0  0  0  0  0  0  0
   -3.7232   21.5988  -28.4404 H   0  0  0  0  0  0  0  0  0  0  0  0
   -3.0847   23.0730  -26.0452 H   0  0  0  0  0  0  0  0  0  0  0  0
   -2.0183   22.6759  -27.4381 H   0  0  0  0  0  0  0  0  0  0  0  0
   -2.5880   24.6360  -28.5100 H   0  0  0  0  0  0  0  0  0  0  0  0
   -2.8418   26.2701  -26.3494 H   0  0  0  0  0  0  0  0  0  0  0  0
   -1.9520   24.7850  -25.7469 H   0  0  0  0  0  0  0  0  0  0  0  0
   -1.1152   26.6335  -28.0124 H   0  0  0  0  0  0  0  0  0  0  0  0
   -0.3546   26.4271  -26.3525 H   0  0  0  0  0  0  0  0  0  0  0  0
    1.0433   25.3267  -27.9532 H   0  0  0  0  0  0  0  0  0  0  0  0
    0.1562   24.0820  -26.9558 H   0  0  0  0  0  0  0  0  0  0  0  0
   -1.4480   24.3780  -29.0900 H   0  0  0  0  0  0  0  0  0  0  0  0
    0.8513   22.5682  -29.3177 H   0  0  0  0  0  0  0  0  0  0  0  0
   -0.2921   22.3674  -27.9394 H   0  0  0  0  0  0  0  0  0  0  0  0
   -0.6127   21.4235  -30.5985 H   0  0  0  0  0  0  0  0  0  0  0  0
   -1.8387   21.4344  -29.2675 H   0  0  0  0  0  0  0  0  0  0  0  0
   -1.6110   23.9800  -30.7880 H   0  0  0  0  0  0  0  0  0  0  0  0
   -1.1862   21.2271  -32.1645 H   0  0  0  0  0  0  0  0  0  0  0  0
   -1.3493   19.2301  -33.6365 H   0  0  0  0  0  0  0  0  0  0  0  0
   -3.5768   18.4070  -34.3807 H   0  0  0  0  0  0  0  0  0  0  0  0
   -5.6502   19.5412  -33.6163 H   0  0  0  0  0  0  0  0  0  0  0  0
   -7.4592   20.7289  -31.0218 H   0  0  0  0  0  0  0  0  0  0  0  0
   -7.7669   21.5819  -32.5724 H   0  0  0  0  0  0  0  0  0  0  0  0
   -6.9301   19.9924  -32.5724 H   0  0  0  0  0  0  0  0  0  0  0  0
   -7.8198   23.2618  -31.3752 H   0  0  0  0  0  0  0  0  0  0  0  0
   -7.6752   25.4545  -30.2266 H   0  0  0  0  0  0  0  0  0  0  0  0
   -5.4694   26.3724  -29.5495 H   0  0  0  0  0  0  0  0  0  0  0  0
  1  2  1  0
  2  3  1  0
  3  4  1  0
  4  5  1  0
  5  6  1  0
  6  7  1  0
  7  8  1  0
  8  9  1  0
  9 10  1  0
 10 11  1  0
 11 12  2  0
 12 13  1  0
 13 14  2  0
 14 15  1  0
 15 16  2  0
 16 17  1  0
 17 18  2  0
 18 19  1  0
 18 20  1  0
 20 21  2  0
 21 22  1  0
 22 23  2  0
 23 24  1  0
 24 25  1  0
 24 26  2  0
 26 11  1  0
 17 12  1  0
 26 20  1  0
  1 27  1  0
  1 28  1  0
  1 29  1  0
  2 30  1  0
  2 31  1  0
  3 32  1  0
  4 33  1  0
  4 34  1  0
  5 35  1  0
  5 36  1  0
  6 37  1  0
  6 38  1  0
  7 39  1  0
  8 40  1  0
  8 41  1  0
  9 42  1  0
  9 43  1  0
 10 44  1  0
 13 45  1  0
 14 46  1  0
 15 47  1  0
 16 48  1  0
 19 49  1  0
 19 50  1  0
 19 51  1  0
 21 52  1  0
 22 53  1  0
 23 54  1  0
M  CHG  2  18   1  25  -1
M  END
>  <UniqueID>  (5) 
4

>  <SMILES>  (5) 
CCNCCCNCCNc1c2ccccc2[n+](C)c2cccc([O-])c12

>  <Energy>  (5) 
79.6737042690737

>  <Genealogy>  (5) 
CCNCCCNCCNc1c2ccccc2[n+](C)c2cccc([O-])c12 (protonated)
CCNCCCNCCNc1c2ccccc2[n+](C)c2cccc([O-])c12 (3D coordinates assigned)
CCNCCCNCCNc1c2ccccc2[n+](C)c2cccc([O-])c12 (optimized conformer: 79.6737042690737 kcal/mol)

>  <smiles>  (5) 
CCNCCCNCCNc1c2ccccc2[n+](C)c2cccc(O)c12

>  <score_type>  (5) 
oracle

>  <origin>  (5) 
adg

>  <m_score__min__energy>  (5) 
-9.6099999999999994

>  <m_primary>  (5) 
energy

$$$$
5:0
     RDKit          3D

 36 38  0  0  0  0  0  0  0  0999 V2000
   -5.7280   19.4690  -33.6400 C   0  0  0  0  0  0  0  0  0  0  0  0
   -6.6410   20.4200  -32.9390 C   0  0  0  0  0  0  0  0  0  0  0  0
   -7.9570   20.1930  -32.7350 N   0  0  0  0  0  0  0  0  0  0  0  0
   -8.3710   21.2680  -32.0230 C   0  0  0  0  0  0  0  0  0  0  0  0
   -9.7780   21.4410  -31.5490 C   0  0  0  0  0  0  0  0  0  0  0  0
   -7.3750   22.1470  -31.7830 N   0  0  0  0  0  0  0  0  0  0  0  0
   -6.2800   21.6050  -32.3320 C   0  0  0  0  0  0  0  0  0  0  0  0
   -4.9280   22.2470  -32.2720 C   0  0  0  0  0  0  0  0  0  0  0  0
   -4.9620   23.4140  -31.3720 N   0  0  0  0  0  0  0  0  0  0  0  0
   -3.7920   23.7920  -30.6220 C   0  0  0  0  0  0  0  0  0  0  0  0
   -3.5100   25.0110  -30.4690 O   0  0  0  0  0  0  0  0  0  0  0  0
   -2.9280   22.7770  -29.9850 C   0  0  0  0  0  0  0  0  0  0  0  0
   -2.1660   21.9240  -30.8010 C   0  0  0  0  0  0  0  0  0  0  0  0
   -1.3240   20.9680  -30.2310 C   0  0  0  0  0  0  0  0  0  0  0  0
   -1.2410   20.8470  -28.8430 C   0  0  0  0  0  0  0  0  0  0  0  0
   -2.0080   21.6760  -28.0190 C   0  0  0  0  0  0  0  0  0  0  0  0
   -1.9330   21.5310  -26.6720 F   0  0  0  0  0  0  0  0  0  0  0  0
   -2.8590   22.6390  -28.5830 C   0  0  0  0  0  0  0  0  0  0  0  0
   -3.8760   23.6010  -27.5130 Cl  0  0  0  0  0  0  0  0  0  0  0  0
   -6.1820   24.2370  -31.3110 C   0  0  0  0  0  0  0  0  0  0  0  0
   -7.3950   23.3620  -30.9700 C   0  0  0  0  0  0  0  0  0  0  0  0
   -5.1666   18.8842  -32.8965 H   0  0  0  0  0  0  0  0  0  0  0  0
   -6.3203   18.7891  -34.2700 H   0  0  0  0  0  0  0  0  0  0  0  0
   -5.0245   20.0331  -34.2700 H   0  0  0  0  0  0  0  0  0  0  0  0
   -9.7967   21.4433  -30.4492 H   0  0  0  0  0  0  0  0  0  0  0  0
  -10.1767   22.3949  -31.9245 H   0  0  0  0  0  0  0  0  0  0  0  0
  -10.3960   20.6121  -31.9245 H   0  0  0  0  0  0  0  0  0  0  0  0
   -4.1953   21.5181  -31.8954 H   0  0  0  0  0  0  0  0  0  0  0  0
   -4.6411   22.5781  -33.2810 H   0  0  0  0  0  0  0  0  0  0  0  0
   -2.2335   22.0102  -31.8955 H   0  0  0  0  0  0  0  0  0  0  0  0
   -0.7249   20.3089  -30.8766 H   0  0  0  0  0  0  0  0  0  0  0  0
   -0.5707   20.0978  -28.3965 H   0  0  0  0  0  0  0  0  0  0  0  0
   -6.0614   25.0086  -30.5364 H   0  0  0  0  0  0  0  0  0  0  0  0
   -6.3449   24.7103  -32.2905 H   0  0  0  0  0  0  0  0  0  0  0  0
   -7.3602   23.0891  -29.9050 H   0  0  0  0  0  0  0  0  0  0  0  0
   -8.3175   23.9234  -31.1795 H   0  0  0  0  0  0  0  0  0  0  0  0
  1  2  1  0
  2  3  1  0
  3  4  2  0
  4  5  1  0
  4  6  1  0
  6  7  1  0
  7  8  1  0
  8  9  1  0
  9 10  1  0
 10 11  2  0
 10 12  1  0
 12 13  2  0
 13 14  1  0
 14 15  2  0
 15 16  1  0
 16 17  1  0
 16 18  2  0
 18 19  1  0
  9 20  1  0
 20 21  1  0
  7  2  2  0
 18 12  1  0
 21  6  1  0
  1 22  1  0
  1 23  1  0
  1 24  1  0
  5 25  1  0
  5 26  1  0
  5 27  1  0
  8 28  1  0
  8 29  1  0
 13 30  1  0
 14 31  1  0
 15 32  1  0
 20 33  1  0
 20 34  1  0
 21 35  1  0
 21 36  1  0
M  END
>  <UniqueID>  (6) 
5

>  <SMILES>  (6) 
Cc1nc(C)n2c1CN(C(=O)c1cccc(F)c1Cl)CC2

>  <Energy>  (6) 
74.18182202659301

>  <Genealogy>  (6) 
Cc1nc(C)n2c1CN(C(=O)c1cccc(F)c1Cl)CC2 (3D coordinates assigned)
Cc1nc(C)n2c1CN(C(=O)c1cccc(F)c1Cl)CC2 (nonaromatic ring conformer: 74.18182202659301 kcal/mol)

>  <smiles>  (6) 
Cc1nc(C)n2c1CN(C(=O)c1cccc(F)c1Cl)CC2

>  <score_type>  (6) 
oracle

>  <origin>  (6) 
adg

>  <m_score__min__energy>  (6) 
-7.5899999999999999

>  <m_primary>  (6) 
energy

$$$$
6:0
     RDKit          3D

 53 55  0  0  0  0  0  0  0  0999 V2000
   -3.9610   23.5090  -28.3660 C   0  0  0  0  0  0  0  0  0  0  0  0
   -4.0520   22.3370  -29.3380 C   0  0  0  0  0  0  0  0  0  0  0  0
   -3.1070   22.5380  -30.4700 N   0  0  0  0  0  0  0  0  0  0  0  0
   -1.7870   23.0240  -30.0020 C   0  0  0  0  0  0  0  0  0  0  0  0
   -0.7870   21.8780  -29.8510 C   0  0  0  0  0  0  0  0  0  0  0  0
   -2.9430   21.2990  -31.2670 C   0  0  0  0  0  0  0  0  0  0  0  0
   -2.9530   21.5980  -32.7730 C   0  0  0  0  0  0  0  0  0  0  0  0
   -4.3140   21.8170  -33.2720 N   0  0  0  0  0  0  0  0  0  0  0  0
   -5.4160   20.9720  -32.8960 C   0  0  0  0  0  0  0  0  0  0  0  0
   -5.3520   19.5970  -33.1850 C   0  0  0  0  0  0  0  0  0  0  0  0
   -4.1680   19.0230  -33.6970 C   0  0  0  0  0  0  0  0  0  0  0  0
   -4.1260   17.6800  -34.0610 C   0  0  0  0  0  0  0  0  0  0  0  0
   -5.2600   16.8900  -33.9330 C   0  0  0  0  0  0  0  0  0  0  0  0
   -6.4330   17.4270  -33.4070 C   0  0  0  0  0  0  0  0  0  0  0  0
   -6.4960   18.7820  -32.9860 C   0  0  0  0  0  0  0  0  0  0  0  0
   -7.6410   19.3190  -32.4310 N   0  0  0  0  0  0  0  0  0  0  0  0
   -8.7400   18.4230  -31.9990 C   0  0  0  0  0  0  0  0  0  0  0  0
   -7.7450   20.6820  -32.2310 C   0  0  0  0  0  0  0  0  0  0  0  0
   -8.9860   21.2880  -31.9150 C   0  0  0  0  0  0  0  0  0  0  0  0
   -9.0700   22.6420  -31.6110 C   0  0  0  0  0  0  0  0  0  0  0  0
   -7.9260   23.4240  -31.5890 C   0  0  0  0  0  0  0  0  0  0  0  0
   -6.6790   22.8800  -31.9400 C   0  0  0  0  0  0  0  0  0  0  0  0
   -5.5110   23.6580  -31.8500 O   0  0  0  0  0  0  0  0  0  0  0  0
   -5.3880   24.8690  -31.1120 C   0  0  0  0  0  0  0  0  0  0  0  0
   -6.6010   21.5200  -32.3580 C   0  0  0  0  0  0  0  0  0  0  0  0
   -3.9903   23.1318  -27.3331 H   0  0  0  0  0  0  0  0  0  0  0  0
   -3.0181   24.0507  -28.5320 H   0  0  0  0  0  0  0  0  0  0  0  0
   -4.8090   24.1897  -28.5320 H   0  0  0  0  0  0  0  0  0  0  0  0
   -3.7958   21.4062  -28.8108 H   0  0  0  0  0  0  0  0  0  0  0  0
   -5.0773   22.2738  -29.7313 H   0  0  0  0  0  0  0  0  0  0  0  0
   -1.3937   23.7472  -30.7315 H   0  0  0  0  0  0  0  0  0  0  0  0
   -1.9229   23.4942  -29.0169 H   0  0  0  0  0  0  0  0  0  0  0  0
   -0.6145   21.6803  -28.7828 H   0  0  0  0  0  0  0  0  0  0  0  0
   -1.1901   20.9740  -30.3308 H   0  0  0  0  0  0  0  0  0  0  0  0
    0.1633   22.1550  -30.3308 H   0  0  0  0  0  0  0  0  0  0  0  0
   -1.9855   20.8267  -31.0020 H   0  0  0  0  0  0  0  0  0  0  0  0
   -3.7844   20.6274  -31.0411 H   0  0  0  0  0  0  0  0  0  0  0  0
   -2.3543   22.5014  -32.9613 H   0  0  0  0  0  0  0  0  0  0  0  0
   -2.5302   20.7291  -33.2985 H   0  0  0  0  0  0  0  0  0  0  0  0
   -4.5030   22.6450  -33.8810 H   0  0  0  0  0  0  0  0  0  0  0  0
   -3.2676   19.6447  -33.8097 H   0  0  0  0  0  0  0  0  0  0  0  0
   -3.1938   17.2447  -34.4502 H   0  0  0  0  0  0  0  0  0  0  0  0
   -5.2325   15.8364  -34.2479 H   0  0  0  0  0  0  0  0  0  0  0  0
   -7.3257   16.7907  -33.3162 H   0  0  0  0  0  0  0  0  0  0  0  0
   -8.7776   18.3924  -30.9001 H   0  0  0  0  0  0  0  0  0  0  0  0
   -9.6965   18.8020  -32.3882 H   0  0  0  0  0  0  0  0  0  0  0  0
   -8.5614   17.4098  -32.3882 H   0  0  0  0  0  0  0  0  0  0  0  0
   -9.9000   20.6759  -31.9101 H   0  0  0  0  0  0  0  0  0  0  0  0
  -10.0475   23.0941  -31.3872 H   0  0  0  0  0  0  0  0  0  0  0  0
   -7.9950   24.4814  -31.2937 H   0  0  0  0  0  0  0  0  0  0  0  0
   -5.4106   24.6460  -30.0351 H   0  0  0  0  0  0  0  0  0  0  0  0
   -4.4356   25.3576  -31.3653 H   0  0  0  0  0  0  0  0  0  0  0  0
   -6.2227   25.5392  -31.3653 H   0  0  0  0  0  0  0  0  0  0  0  0
  1  2  1  0
  2  3  1  0
  3  4  1  0
  4  5  1  0
  3  6  1  0
  6  7  1  0
  7  8  1  0
  8  9  1  0
  9 10  2  0
 10 11  1  0
 11 12  2  0
 12 13  1  0
 13 14  2  0
 14 15  1  0
 15 16  2  0
 16 17  1  0
 16 18  1  0
 18 19  2  0
 19 20  1  0
 20 21  2  0
 21 22  1  0
 22 23  1  0
 23 24  1  0
 22 25  2  0
 25  9  1  0
 15 10  1  0
 25 18  1  0
  1 26  1  0
  1 27  1  0
  1 28  1  0
  2 29  1  0
  2 30  1  0
  4 31  1  0
  4 32  1  0
  5 33  1  0
  5 34  1  0
  5 35  1  0
  6 36  1  0
  6 37  1  0
  7 38  1  0
  7 39  1  0
  8 40  1  0
 11 41  1  0
 12 42  1  0
 13 43  1  0
 14 44  1  0
 17 45  1  0
 17 46  1  0
 17 47  1  0
 19 48  1  0
 20 49  1  0
 21 50  1  0
 24 51  1  0
 24 52  1  0
 24 53  1  0
M  CHG  1  16   1
M  END
>  <UniqueID>  (7) 
6

>  <SMILES>  (7) 
CCN(CC)CCNc1c2ccccc2[n+](C)c2cccc(OC)c12

>  <Energy>  (7) 
77.77392214123972

>  <Genealogy>  (7) 
CCN(CC)CCNc1c2ccccc2[n+](C)c2cccc(OC)c12 (3D coordinates assigned)
CCN(CC)CCNc1c2ccccc2[n+](C)c2cccc(OC)c12 (optimized conformer: 77.77392214123972 kcal/mol)

>  <smiles>  (7) 
CCN(CC)CCNc1c2ccccc2[n+](C)c2cccc(OC)c12

>  <score_type>  (7) 
oracle

>  <origin>  (7) 
adg

>  <m_score__min__energy>  (7) 
-8.2599999999999998

>  <m_primary>  (7) 
energy

$$$$
7:0
     RDKit          3D

 36 38  0  0  0  0  0  0  0  0999 V2000
   -6.3340   25.3140  -29.7870 C   0  0  0  0  0  0  0  0  0  0  0  0
   -4.8920   24.8220  -29.7220 C   0  0  0  0  0  0  0  0  0  0  0  0
   -4.4190   24.4310  -31.0580 N   0  0  0  0  0  0  0  0  0  0  0  0
   -4.1650   22.9870  -31.1350 C   0  0  0  0  0  0  0  0  0  0  0  0
   -4.3950   22.4940  -32.5630 C   0  0  0  0  0  0  0  0  0  0  0  0
   -5.4350   21.4600  -32.5790 N   0  0  0  0  0  0  0  0  0  0  0  0
   -5.3130   20.1760  -33.0000 C   0  0  0  0  0  0  0  0  0  0  0  0
   -4.1660   19.5290  -33.4750 C   0  0  0  0  0  0  0  0  0  0  0  0
   -4.2800   18.1850  -33.8730 C   0  0  0  0  0  0  0  0  0  0  0  0
   -5.5210   17.5160  -33.7990 C   0  0  0  0  0  0  0  0  0  0  0  0
   -6.6660   18.1850  -33.3290 C   0  0  0  0  0  0  0  0  0  0  0  0
   -6.5250   19.5150  -32.9390 C   0  0  0  0  0  0  0  0  0  0  0  0
   -7.4420   20.4300  -32.4740 C   0  0  0  0  0  0  0  0  0  0  0  0
   -8.8130   20.3260  -32.2440 C   0  0  0  0  0  0  0  0  0  0  0  0
   -9.4880   21.4720  -31.7910 C   0  0  0  0  0  0  0  0  0  0  0  0
   -8.7910   22.6830  -31.5890 C   0  0  0  0  0  0  0  0  0  0  0  0
   -7.4080   22.7610  -31.8340 C   0  0  0  0  0  0  0  0  0  0  0  0
   -6.7490   21.6080  -32.2740 C   0  0  0  0  0  0  0  0  0  0  0  0
   -6.7225   25.4466  -28.7665 H   0  0  0  0  0  0  0  0  0  0  0  0
   -6.3698   26.2752  -30.3207 H   0  0  0  0  0  0  0  0  0  0  0  0
   -6.9498   24.5751  -30.3207 H   0  0  0  0  0  0  0  0  0  0  0  0
   -4.2521   25.6278  -29.3332 H   0  0  0  0  0  0  0  0  0  0  0  0
   -4.8453   23.9460  -29.0583 H   0  0  0  0  0  0  0  0  0  0  0  0
   -3.5070   24.9210  -31.2270 H   0  0  0  0  0  0  0  0  0  0  0  0
   -3.1244   22.7835  -30.8420 H   0  0  0  0  0  0  0  0  0  0  0  0
   -4.8521   22.4616  -30.4554 H   0  0  0  0  0  0  0  0  0  0  0  0
   -4.7121   23.3384  -33.1926 H   0  0  0  0  0  0  0  0  0  0  0  0
   -3.4583   22.0678  -32.9515 H   0  0  0  0  0  0  0  0  0  0  0  0
   -3.2028   20.0569  -33.5352 H   0  0  0  0  0  0  0  0  0  0  0  0
   -3.3940   17.6500  -34.2454 H   0  0  0  0  0  0  0  0  0  0  0  0
   -5.5933   16.4637  -34.1112 H   0  0  0  0  0  0  0  0  0  0  0  0
   -7.6391   17.6754  -33.2714 H   0  0  0  0  0  0  0  0  0  0  0  0
   -9.3479   19.3795  -32.4114 H   0  0  0  0  0  0  0  0  0  0  0  0
  -10.5688   21.4252  -31.5920 H   0  0  0  0  0  0  0  0  0  0  0  0
   -9.3338   23.5727  -31.2372 H   0  0  0  0  0  0  0  0  0  0  0  0
   -6.8597   23.7027  -31.6838 H   0  0  0  0  0  0  0  0  0  0  0  0
  1  2  1  0
  2  3  1  0
  3  4  1  0
  4  5  1  0
  5  6  1  0
  6  7  1  0
  7  8  2  0
  8  9  1  0
  9 10  2  0
 10 11  1  0
 11 12  2  0
 12 13  1  0
 13 14  2  0
 14 15  1  0
 15 16  2  0
 16 17  1  0
 17 18  2  0
 18  6  1  0
 12  7  1  0
 18 13  1  0
  1 19  1  0
  1 20  1  0
  1 21  1  0
  2 22  1  0
  2 23  1  0
  3 24  1  0
  4 25  1  0
  4 26  1  0
  5 27  1  0
  5 28  1  0
  8 29  1  0
  9 30  1  0
 10 31  1  0
 11 32  1  0
 14 33  1  0
 15 34  1  0
 16 35  1  0
 17 36  1  0
M  END
>  <UniqueID>  (8) 
7

>  <SMILES>  (8) 
CCNCCn1c2ccccc2c2ccccc21

>  <Energy>  (8) 
73.83221762217632

>  <Genealogy>  (8) 
CCNCCn1c2ccccc2c2ccccc21 (3D coordinates assigned)
CCNCCn1c2ccccc2c2ccccc21 (optimized conformer: 73.83221762217632 kcal/mol)

>  <smiles>  (8) 
CCNCCn1c2ccccc2c2ccccc21

>  <score_type>  (8) 
oracle

>  <origin>  (8) 
adg

>  <m_score__min__energy>  (8) 
-8.0899999999999999

>  <m_primary>  (8) 
energy

$$$$
8:0
     RDKit          3D

 47 50  0  0  0  0  0  0  0  0999 V2000
   -4.1840   24.3360  -27.0380 C   0  0  0  0  0  0  0  0  0  0  0  0
   -2.7010   24.6320  -27.2450 C   0  0  0  0  0  0  0  0  0  0  0  0
   -2.3150   24.4130  -28.6460 N   0  0  0  0  0  0  0  0  0  0  0  0
   -0.8940   24.2320  -28.9560 C   0  0  0  0  0  0  0  0  0  0  0  0
   -3.3420   24.2480  -29.6530 C   0  0  0  0  0  0  0  0  0  0  0  0
   -4.1710   25.2950  -29.9540 N   0  0  0  0  0  0  0  0  0  0  0  0
   -5.1570   25.2000  -30.8990 C   0  0  0  0  0  0  0  0  0  0  0  0
   -5.3420   24.0390  -31.5910 N   0  0  0  0  0  0  0  0  0  0  0  0
   -4.5300   22.9940  -31.3080 C   0  0  0  0  0  0  0  0  0  0  0  0
   -3.5420   23.0590  -30.3730 C   0  0  0  0  0  0  0  0  0  0  0  0
   -2.9180   21.8220  -30.4390 C   0  0  0  0  0  0  0  0  0  0  0  0
   -3.5370   21.0730  -31.3840 N   0  0  0  0  0  0  0  0  0  0  0  0
   -4.5150   21.7970  -31.9180 N   0  0  0  0  0  0  0  0  0  0  0  0
   -5.3860   21.3300  -32.9960 C   0  0  0  0  0  0  0  0  0  0  0  0
   -6.7970   21.0900  -32.4990 C   0  0  0  0  0  0  0  0  0  0  0  0
   -7.5700   22.1940  -32.0950 C   0  0  0  0  0  0  0  0  0  0  0  0
   -8.8890   22.0230  -31.6710 C   0  0  0  0  0  0  0  0  0  0  0  0
   -9.4570   20.7500  -31.6460 C   0  0  0  0  0  0  0  0  0  0  0  0
   -8.7060   19.6420  -32.0380 C   0  0  0  0  0  0  0  0  0  0  0  0
   -7.3730   19.7940  -32.4540 C   0  0  0  0  0  0  0  0  0  0  0  0
   -6.6260   18.5890  -32.8680 C   0  0  0  0  0  0  0  0  0  0  0  0
   -6.1170   18.4930  -34.1740 C   0  0  0  0  0  0  0  0  0  0  0  0
   -5.3830   17.3680  -34.5600 C   0  0  0  0  0  0  0  0  0  0  0  0
   -5.1640   16.3280  -33.6520 C   0  0  0  0  0  0  0  0  0  0  0  0
   -5.6800   16.4110  -32.3550 C   0  0  0  0  0  0  0  0  0  0  0  0
   -6.4110   17.5370  -31.9640 C   0  0  0  0  0  0  0  0  0  0  0  0
   -4.4023   24.2924  -25.9608 H   0  0  0  0  0  0  0  0  0  0  0  0
   -4.7850   25.1319  -27.5020 H   0  0  0  0  0  0  0  0  0  0  0  0
   -4.4334   23.3704  -27.5020 H   0  0  0  0  0  0  0  0  0  0  0  0
   -2.5015   25.6797  -26.9756 H   0  0  0  0  0  0  0  0  0  0  0  0
   -2.1142   23.9540  -26.6078 H   0  0  0  0  0  0  0  0  0  0  0  0
   -0.3209   24.1590  -28.0199 H   0  0  0  0  0  0  0  0  0  0  0  0
   -0.7608   23.3096  -29.5404 H   0  0  0  0  0  0  0  0  0  0  0  0
   -0.5338   25.0915  -29.5404 H   0  0  0  0  0  0  0  0  0  0  0  0
   -5.8045   26.0658  -31.1017 H   0  0  0  0  0  0  0  0  0  0  0  0
   -2.0626   21.5019  -29.8260 H   0  0  0  0  0  0  0  0  0  0  0  0
   -5.4106   22.0896  -33.7913 H   0  0  0  0  0  0  0  0  0  0  0  0
   -4.9861   20.3792  -33.3781 H   0  0  0  0  0  0  0  0  0  0  0  0
   -7.1305   23.2022  -32.1134 H   0  0  0  0  0  0  0  0  0  0  0  0
   -9.4815   22.8946  -31.3559 H   0  0  0  0  0  0  0  0  0  0  0  0
  -10.4984   20.6193  -31.3168 H   0  0  0  0  0  0  0  0  0  0  0  0
   -9.1614   18.6408  -32.0212 H   0  0  0  0  0  0  0  0  0  0  0  0
   -6.2965   19.3049  -34.8941 H   0  0  0  0  0  0  0  0  0  0  0  0
   -4.9769   17.3008  -35.5801 H   0  0  0  0  0  0  0  0  0  0  0  0
   -4.5855   15.4439  -33.9579 H   0  0  0  0  0  0  0  0  0  0  0  0
   -5.5108   15.5904  -31.6423 H   0  0  0  0  0  0  0  0  0  0  0  0
   -6.8190   17.5986  -30.9443 H   0  0  0  0  0  0  0  0  0  0  0  0
  1  2  1  0
  2  3  1  0
  3  4  1  0
  3  5  1  0
  5  6  2  0
  6  7  1  0
  7  8  2  0
  8  9  1  0
  9 10  2  0
 10 11  1  0
 11 12  2  0
 12 13  1  0
 13 14  1  0
 14 15  1  0
 15 16  2  0
 16 17  1  0
 17 18  2  0
 18 19  1  0
 19 20  2  0
 20 21  1  0
 21 22  2  0
 22 23  1  0
 23 24  2  0
 24 25  1  0
 25 26  2  0
 10  5  1  0
 20 15  1  0
 26 21  1  0
 13  9  1  0
  1 27  1  0
  1 28  1  0
  1 29  1  0
  2 30  1  0
  2 31  1  0
  4 32  1  0
  4 33  1  0
  4 34  1  0
  7 35  1  0
 11 36  1  0
 14 37  1  0
 14 38  1  0
 16 39  1  0
 17 40  1  0
 18 41  1  0
 19 42  1  0
 22 43  1  0
 23 44  1  0
 24 45  1  0
 25 46  1  0
 26 47  1  0
M  END
>  <UniqueID>  (9) 
8

>  <SMILES>  (9) 
CCN(C)c1ncnc2c1cnn2Cc1ccccc1-c1ccccc1

>  <Energy>  (9) 
98.57564515437755

>  <Genealogy>  (9) 
CCN(C)c1ncnc2c1cnn2Cc1ccccc1-c1ccccc1 (3D coordinates assigned)
CCN(C)c1ncnc2c1cnn2Cc1ccccc1-c1ccccc1 (optimized conformer: 98.57564515437755 kcal/mol)

>  <smiles>  (9) 
CCN(C)c1ncnc2c1cnn2Cc1ccccc1-c1ccccc1

>  <score_type>  (9) 
oracle

>  <origin>  (9) 
adg

>  <m_score__min__energy>  (9) 
-9.2200000000000006

>  <m_primary>  (9) 
energy

$$$$
9:0
     RDKit          3D

 76 79  0  0  0  0  0  0  0  0999 V2000
   -4.2370   23.0490  -28.4220 C   0  0  0  0  0  0  0  0  0  0  0  0
   -4.0970   24.4670  -28.9990 C   0  0  0  0  0  0  0  0  0  0  0  0
   -4.1590   24.5230  -30.4820 N   0  0  0  0  0  0  0  0  0  0  0  0
   -5.5570   24.7080  -30.9430 C   0  0  0  0  0  0  0  0  0  0  0  0
   -6.4530   25.2760  -29.8470 C   0  0  0  0  0  0  0  0  0  0  0  0
   -3.4770   23.3630  -31.1140 C   0  0  0  0  0  0  0  0  0  0  0  0
   -4.4530   22.5080  -31.9390 C   0  0  0  0  0  0  0  0  0  0  0  0
   -4.3380   21.0790  -31.6280 N   0  0  0  0  0  0  0  0  0  0  0  0
   -4.9900   20.0670  -32.4160 C   0  0  0  0  0  0  0  0  0  0  0  0
   -6.3700   19.8600  -32.2530 C   0  0  0  0  0  0  0  0  0  0  0  0
   -7.1690   20.8210  -31.5960 C   0  0  0  0  0  0  0  0  0  0  0  0
   -8.5230   20.5890  -31.3720 C   0  0  0  0  0  0  0  0  0  0  0  0
   -9.0980   19.3910  -31.7760 C   0  0  0  0  0  0  0  0  0  0  0  0
   -8.3300   18.4280  -32.4270 C   0  0  0  0  0  0  0  0  0  0  0  0
   -6.9570   18.6520  -32.7140 C   0  0  0  0  0  0  0  0  0  0  0  0
   -6.1850   17.7100  -33.3680 N   0  0  0  0  0  0  0  0  0  0  0  0
   -6.8300   16.5370  -34.0000 C   0  0  0  0  0  0  0  0  0  0  0  0
   -4.8180   17.8910  -33.4830 C   0  0  0  0  0  0  0  0  0  0  0  0
   -3.9640   16.8410  -33.8920 C   0  0  0  0  0  0  0  0  0  0  0  0
   -2.6140   17.0680  -34.1330 C   0  0  0  0  0  0  0  0  0  0  0  0
   -2.0890   18.3560  -34.0560 C   0  0  0  0  0  0  0  0  0  0  0  0
   -0.7170   18.5720  -34.4140 N   0  0  0  0  0  0  0  0  0  0  0  0
    0.1900   19.3020  -33.5340 C   0  0  0  0  0  0  0  0  0  0  0  0
    0.0860   18.7550  -32.1090 C   0  0  0  0  0  0  0  0  0  0  0  0
    0.0590   19.8360  -31.1230 N   0  0  0  0  0  0  0  0  0  0  0  0
   -0.5390   19.6910  -29.8200 C   0  0  0  0  0  0  0  0  0  0  0  0
   -0.0900   18.7230  -28.9010 C   0  0  0  0  0  0  0  0  0  0  0  0
   -0.6870   18.6100  -27.6420 C   0  0  0  0  0  0  0  0  0  0  0  0
   -1.7480   19.4610  -27.2800 C   0  0  0  0  0  0  0  0  0  0  0  0
   -2.3820   19.3840  -26.0300 O   0  0  0  0  0  0  0  0  0  0  0  0
   -3.4910   18.5400  -25.7440 C   0  0  0  0  0  0  0  0  0  0  0  0
   -2.1940   20.4210  -28.1940 C   0  0  0  0  0  0  0  0  0  0  0  0
   -1.5970   20.5360  -29.4520 C   0  0  0  0  0  0  0  0  0  0  0  0
   -2.9050   19.4220  -33.6240 C   0  0  0  0  0  0  0  0  0  0  0  0
   -2.3750   20.8370  -33.7430 C   0  0  0  0  0  0  0  0  0  0  0  0
   -4.2310   19.1450  -33.1690 C   0  0  0  0  0  0  0  0  0  0  0  0
   -4.2321   23.0982  -27.3231 H   0  0  0  0  0  0  0  0  0  0  0  0
   -5.1833   22.6053  -28.7650 H   0  0  0  0  0  0  0  0  0  0  0  0
   -3.3957   22.4289  -28.7650 H   0  0  0  0  0  0  0  0  0  0  0  0
   -4.9107   25.0871  -28.5948 H   0  0  0  0  0  0  0  0  0  0  0  0
   -3.1016   24.8332  -28.7073 H   0  0  0  0  0  0  0  0  0  0  0  0
   -5.5598   25.4005  -31.7976 H   0  0  0  0  0  0  0  0  0  0  0  0
   -5.9531   23.7218  -31.2267 H   0  0  0  0  0  0  0  0  0  0  0  0
   -6.0390   25.0136  -28.8622 H   0  0  0  0  0  0  0  0  0  0  0  0
   -6.5022   26.3706  -29.9442 H   0  0  0  0  0  0  0  0  0  0  0  0
   -7.4639   24.8535  -29.9442 H   0  0  0  0  0  0  0  0  0  0  0  0
   -2.6817   23.7351  -31.7766 H   0  0  0  0  0  0  0  0  0  0  0  0
   -3.0617   22.7326  -30.3139 H   0  0  0  0  0  0  0  0  0  0  0  0
   -5.4806   22.8358  -31.7231 H   0  0  0  0  0  0  0  0  0  0  0  0
   -4.2043   22.6430  -33.0020 H   0  0  0  0  0  0  0  0  0  0  0  0
   -3.7340   20.7890  -30.8260 H   0  0  0  0  0  0  0  0  0  0  0  0
   -6.7160   21.7644  -31.2571 H   0  0  0  0  0  0  0  0  0  0  0  0
   -9.1375   21.3542  -30.8752 H   0  0  0  0  0  0  0  0  0  0  0  0
  -10.1640   19.2018  -31.5812 H   0  0  0  0  0  0  0  0  0  0  0  0
   -8.7955   17.4767  -32.7242 H   0  0  0  0  0  0  0  0  0  0  0  0
   -7.2031   15.8585  -33.2187 H   0  0  0  0  0  0  0  0  0  0  0  0
   -7.6701   16.8732  -34.6255 H   0  0  0  0  0  0  0  0  0  0  0  0
   -6.0961   16.0077  -34.6255 H   0  0  0  0  0  0  0  0  0  0  0  0
   -4.3743   15.8287  -34.0215 H   0  0  0  0  0  0  0  0  0  0  0  0
   -1.9553   16.2243  -34.3864 H   0  0  0  0  0  0  0  0  0  0  0  0
   -0.3660   18.2170  -35.3310 H   0  0  0  0  0  0  0  0  0  0  0  0
    1.2222   19.1842  -33.8954 H   0  0  0  0  0  0  0  0  0  0  0  0
   -0.0848   20.3671  -33.5339 H   0  0  0  0  0  0  0  0  0  0  0  0
   -0.8380   18.1650  -32.0186 H   0  0  0  0  0  0  0  0  0  0  0  0
    0.9693   18.1294  -31.9129 H   0  0  0  0  0  0  0  0  0  0  0  0
    0.5160   20.7470  -31.3580 H   0  0  0  0  0  0  0  0  0  0  0  0
    0.7364   18.0510  -29.1758 H   0  0  0  0  0  0  0  0  0  0  0  0
   -0.3258   17.8524  -26.9309 H   0  0  0  0  0  0  0  0  0  0  0  0
   -3.6109   18.4487  -24.6544 H   0  0  0  0  0  0  0  0  0  0  0  0
   -4.4037   18.9741  -26.1782 H   0  0  0  0  0  0  0  0  0  0  0  0
   -3.3159   17.5446  -26.1782 H   0  0  0  0  0  0  0  0  0  0  0  0
   -3.0220   21.0914  -27.9201 H   0  0  0  0  0  0  0  0  0  0  0  0
   -1.9596   21.2957  -30.1601 H   0  0  0  0  0  0  0  0  0  0  0  0
   -2.2182   21.2556  -32.7379 H   0  0  0  0  0  0  0  0  0  0  0  0
   -1.4200   20.8262  -34.2887 H   0  0  0  0  0  0  0  0  0  0  0  0
   -3.1021   21.4562  -34.2887 H   0  0  0  0  0  0  0  0  0  0  0  0
  1  2  1  0
  2  3  1  0
  3  4  1  0
  4  5  1  0
  3  6  1  0
  6  7  1  0
  7  8  1  0
  8  9  1  0
  9 10  2  0
 10 11  1  0
 11 12  2  0
 12 13  1  0
 13 14  2  0
 14 15  1  0
 15 16  2  0
 16 17  1  0
 16 18  1  0
 18 19  2  0
 19 20  1  0
 20 21  2  0
 21 22  1  0
 22 23  1  0
 23 24  1  0
 24 25  1  0
 25 26  1  0
 26 27  2  0
 27 28  1  0
 28 29  2  0
 29 30  1  0
 30 31  1  0
 29 32  1  0
 32 33  2  0
 21 34  1  0
 34 35  1  0
 34 36  2  0
 36  9  1  0
 15 10  1  0
 36 18  1  0
 33 26  1  0
  1 37  1  0
  1 38  1  0
  1 39  1  0
  2 40  1  0
  2 41  1  0
  4 42  1  0
  4 43  1  0
  5 44  1  0
  5 45  1  0
  5 46  1  0
  6 47  1  0
  6 48  1  0
  7 49  1  0
  7 50  1  0
  8 51  1  0
 11 52  1  0
 12 53  1  0
 13 54  1  0
 14 55  1  0
 17 56  1  0
 17 57  1  0
 17 58  1  0
 19 59  1  0
 20 60  1  0
 22 61  1  0
 23 62  1  0
 23 63  1  0
 24 64  1  0
 24 65  1  0
 25 66  1  0
 27 67  1  0
 28 68  1  0
 31 69  1  0
 31 70  1  0
 31 71  1  0
 32 72  1  0
 33 73  1  0
 35 74  1  0
 35 75  1  0
 35 76  1  0
M  CHG  1  16   1
M  END
>  <UniqueID>  (10) 
9

>  <SMILES>  (10) 
CCN(CC)CCNc1c2ccccc2[n+](C)c2ccc(NCCNc3ccc(OC)cc3)c(C)c12

>  <Energy>  (10) 
111.40743252379465

>  <Genealogy>  (10) 
CCN(CC)CCNc1c2ccccc2[n+](C)c2ccc(NCCNc3ccc(OC)cc3)c(C)c12 (3D coordinates assigned)
CCN(CC)CCNc1c2ccccc2[n+](C)c2ccc(NCCNc3ccc(OC)cc3)c(C)c12 (optimized conformer: 111.40743252379465 kcal/mol)

>  <smiles>  (10) 
CCN(CC)CCNc1c2ccccc2[n+](C)c2ccc(NCCNc3ccc(OC)cc3)c(C)c12

>  <score_type>  (10) 
oracle

>  <origin>  (10) 
adg

>  <m_score__min__energy>  (10) 
-8.9399999999999995

>  <m_primary>  (10) 
energy

$$$$
10:0
     RDKit          3D

 54 56  0  0  0  0  0  0  0  0999 V2000
   -5.3640   15.1390  -33.5430 C   0  0  0  0  0  0  0  0  0  0  0  0
   -5.3840   16.2250  -32.4590 C   0  0  0  0  0  0  0  0  0  0  0  0
   -5.9130   17.5370  -32.9070 N   0  0  0  0  0  0  0  0  0  0  0  0
   -5.7830   17.7150  -34.3620 C   0  0  0  0  0  0  0  0  0  0  0  0
   -7.2930   17.8360  -32.4640 C   0  0  0  0  0  0  0  0  0  0  0  0
   -7.5630   19.3480  -32.4160 C   0  0  0  0  0  0  0  0  0  0  0  0
   -6.3180   20.0900  -32.2050 N   0  0  0  0  0  0  0  0  0  0  0  0
   -6.2490   21.5090  -31.9360 C   0  0  0  0  0  0  0  0  0  0  0  0
   -7.3050   22.3570  -32.3080 C   0  0  0  0  0  0  0  0  0  0  0  0
   -7.2350   23.7240  -32.0580 C   0  0  0  0  0  0  0  0  0  0  0  0
   -6.1150   24.2710  -31.4350 C   0  0  0  0  0  0  0  0  0  0  0  0
   -5.0260   23.4610  -31.0390 C   0  0  0  0  0  0  0  0  0  0  0  0
   -3.9020   24.0690  -30.3830 C   0  0  0  0  0  0  0  0  0  0  0  0
   -3.9730   25.3130  -30.1640 O   0  0  0  0  0  0  0  0  0  0  0  0
   -2.7220   23.3720  -29.9400 C   0  0  0  0  0  0  0  0  0  0  0  0
   -1.6280   24.0730  -29.3450 C   0  0  0  0  0  0  0  0  0  0  0  0
   -1.5970   25.4680  -29.3430 O   0  0  0  0  0  0  0  0  0  0  0  0
   -1.2330   26.1920  -28.1740 C   0  0  0  0  0  0  0  0  0  0  0  0
   -0.5320   23.3640  -28.7900 C   0  0  0  0  0  0  0  0  0  0  0  0
    0.5070   23.9920  -28.0820 O   0  0  0  0  0  0  0  0  0  0  0  0
    0.7650   23.8340  -26.6860 C   0  0  0  0  0  0  0  0  0  0  0  0
   -0.4490   21.9740  -28.9390 C   0  0  0  0  0  0  0  0  0  0  0  0
    0.6730   21.3130  -28.4120 O   0  0  0  0  0  0  0  0  0  0  0  0
    0.7860   19.9010  -28.2720 C   0  0  0  0  0  0  0  0  0  0  0  0
   -1.4790   21.2860  -29.5890 C   0  0  0  0  0  0  0  0  0  0  0  0
   -2.5980   21.9700  -30.0610 C   0  0  0  0  0  0  0  0  0  0  0  0
   -3.8320   21.1010  -30.7990 S   0  0  0  0  0  0  0  0  0  0  0  0
   -5.1130   22.0710  -31.3060 C   0  0  0  0  0  0  0  0  0  0  0  0
   -5.3457   14.1470  -33.0679 H   0  0  0  0  0  0  0  0  0  0  0  0
   -6.2640   15.2292  -34.1690 H   0  0  0  0  0  0  0  0  0  0  0  0
   -4.4680   15.2623  -34.1690 H   0  0  0  0  0  0  0  0  0  0  0  0
   -6.0103   15.8685  -31.6280 H   0  0  0  0  0  0  0  0  0  0  0  0
   -4.3366   16.3944  -32.1689 H   0  0  0  0  0  0  0  0  0  0  0  0
   -5.1458   18.5874  -34.5692 H   0  0  0  0  0  0  0  0  0  0  0  0
   -5.3277   16.8156  -34.8022 H   0  0  0  0  0  0  0  0  0  0  0  0
   -6.7783   17.8750  -34.8022 H   0  0  0  0  0  0  0  0  0  0  0  0
   -8.0008   17.3702  -33.1655 H   0  0  0  0  0  0  0  0  0  0  0  0
   -7.4202   17.4340  -31.4480 H   0  0  0  0  0  0  0  0  0  0  0  0
   -8.0150   19.6644  -33.3676 H   0  0  0  0  0  0  0  0  0  0  0  0
   -8.2462   19.5588  -31.5801 H   0  0  0  0  0  0  0  0  0  0  0  0
   -5.4350   19.5320  -32.2330 H   0  0  0  0  0  0  0  0  0  0  0  0
   -8.1943   21.9372  -32.8008 H   0  0  0  0  0  0  0  0  0  0  0  0
   -8.0692   24.3771  -32.3541 H   0  0  0  0  0  0  0  0  0  0  0  0
   -6.0774   25.3543  -31.2476 H   0  0  0  0  0  0  0  0  0  0  0  0
   -1.5220   25.6171  -27.2818 H   0  0  0  0  0  0  0  0  0  0  0  0
   -0.1453   26.3559  -28.1681 H   0  0  0  0  0  0  0  0  0  0  0  0
   -1.7502   27.1628  -28.1681 H   0  0  0  0  0  0  0  0  0  0  0  0
   -0.0331   24.3228  -26.1080 H   0  0  0  0  0  0  0  0  0  0  0  0
    0.7943   22.7628  -26.4375 H   0  0  0  0  0  0  0  0  0  0  0  0
    1.7325   24.2947  -26.4375 H   0  0  0  0  0  0  0  0  0  0  0  0
    0.8070   19.6390  -27.2039 H   0  0  0  0  0  0  0  0  0  0  0  0
   -0.0761   19.4148  -28.7520 H   0  0  0  0  0  0  0  0  0  0  0  0
    1.7145   19.5581  -28.7520 H   0  0  0  0  0  0  0  0  0  0  0  0
   -1.4053   20.1974  -29.7286 H   0  0  0  0  0  0  0  0  0  0  0  0
  1  2  1  0
  2  3  1  0
  3  4  1  0
  3  5  1  0
  5  6  1  0
  6  7  1  0
  7  8  1  0
  8  9  2  0
  9 10  1  0
 10 11  2  0
 11 12  1  0
 12 13  1  0
 13 14  2  0
 13 15  1  0
 15 16  2  0
 16 17  1  0
 17 18  1  0
 16 19  1  0
 19 20  1  0
 20 21  1  0
 19 22  2  0
 22 23  1  0
 23 24  1  0
 22 25  1  0
 25 26  2  0
 26 27  1  0
 27 28  1  0
 28  8  1  0
 28 12  2  0
 26 15  1  0
  1 29  1  0
  1 30  1  0
  1 31  1  0
  2 32  1  0
  2 33  1  0
  4 34  1  0
  4 35  1  0
  4 36  1  0
  5 37  1  0
  5 38  1  0
  6 39  1  0
  6 40  1  0
  7 41  1  0
  9 42  1  0
 10 43  1  0
 11 44  1  0
 18 45  1  0
 18 46  1  0
 18 47  1  0
 21 48  1  0
 21 49  1  0
 21 50  1  0
 24 51  1  0
 24 52  1  0
 24 53  1  0
 25 54  1  0
M  END
>  <UniqueID>  (11) 
10

>  <SMILES>  (11) 
CCN(C)CCNc1cccc2c(=O)c3c(OC)c(OC)c(OC)cc3sc12

>  <Energy>  (11) 
84.00194742767702

>  <Genealogy>  (11) 
CCN(C)CCNc1cccc2c(=O)c3c(OC)c(OC)c(OC)cc3sc12 (3D coordinates assigned)
CCN(C)CCNc1cccc2c(=O)c3c(OC)c(OC)c(OC)cc3sc12 (optimized conformer: 84.00194742767702 kcal/mol)

>  <smiles>  (11) 
CCN(C)CCNc1cccc2c(=O)c3c(OC)c(OC)c(OC)cc3sc12

>  <score_type>  (11) 
oracle

>  <origin>  (11) 
adg

>  <m_score__min__energy>  (11) 
-8.3900000000000006

>  <m_primary>  (11) 
energy

$$$$
11:0
     RDKit          3D

 54 57  0  0  0  0  0  0  0  0999 V2000
   -0.4820   28.3900  -27.0770 C   0  0  0  0  0  0  0  0  0  0  0  0
   -0.3760   27.5090  -25.9150 N   0  0  0  0  0  0  0  0  0  0  0  0
   -0.3950   27.9190  -24.6310 C   0  0  0  0  0  0  0  0  0  0  0  0
   -0.3170   26.8300  -23.7840 C   0  0  0  0  0  0  0  0  0  0  0  0
   -0.2530   25.7080  -24.5900 C   0  0  0  0  0  0  0  0  0  0  0  0
   -0.2820   26.1610  -25.8960 C   0  0  0  0  0  0  0  0  0  0  0  0
   -0.1730   25.2980  -27.0840 C   0  0  0  0  0  0  0  0  0  0  0  0
    0.8780   25.3600  -27.7730 O   0  0  0  0  0  0  0  0  0  0  0  0
   -1.2400   24.4060  -27.4740 N   0  0  0  0  0  0  0  0  0  0  0  0
   -1.6080   23.2880  -26.5860 C   0  0  0  0  0  0  0  0  0  0  0  0
   -2.4290   22.2180  -27.3200 C   0  0  0  0  0  0  0  0  0  0  0  0
   -3.6380   22.8080  -28.0670 C   0  0  0  0  0  0  0  0  0  0  0  0
   -3.3570   24.1880  -28.7150 C   0  0  2  0  0  0  0  0  0  0  0  0
   -4.0720   24.3210  -30.0120 N   0  0  0  0  0  0  0  0  0  0  0  0
   -5.4770   24.8020  -29.9280 C   0  0  0  0  0  0  0  0  0  0  0  0
   -6.5110   23.6700  -30.0730 C   0  0  0  0  0  0  0  0  0  0  0  0
   -6.2390   22.8520  -31.2610 N   0  0  0  0  0  0  0  0  0  0  0  0
   -7.2190   21.9050  -31.7330 C   0  0  0  0  0  0  0  0  0  0  0  0
   -8.5910   22.1200  -31.4940 C   0  0  0  0  0  0  0  0  0  0  0  0
   -9.5420   21.2120  -31.9660 C   0  0  0  0  0  0  0  0  0  0  0  0
   -9.1370   20.0840  -32.6840 C   0  0  0  0  0  0  0  0  0  0  0  0
  -10.0620   19.2070  -33.1440 F   0  0  0  0  0  0  0  0  0  0  0  0
   -7.7770   19.8590  -32.9270 C   0  0  0  0  0  0  0  0  0  0  0  0
   -6.8210   20.7630  -32.4560 C   0  0  0  0  0  0  0  0  0  0  0  0
   -4.9560   23.0030  -31.9540 C   0  0  0  0  0  0  0  0  0  0  0  0
   -3.8450   23.1660  -30.9140 C   0  0  0  0  0  0  0  0  0  0  0  0
   -1.8450   24.4920  -28.8120 C   0  0  0  0  0  0  0  0  0  0  0  0
   -0.6070   29.4293  -26.7390 H   0  0  0  0  0  0  0  0  0  0  0  0
    0.4324   28.3091  -27.6831 H   0  0  0  0  0  0  0  0  0  0  0  0
   -1.3511   28.0945  -27.6831 H   0  0  0  0  0  0  0  0  0  0  0  0
   -0.4627   28.9674  -24.3051 H   0  0  0  0  0  0  0  0  0  0  0  0
   -0.3076   26.8513  -22.6842 H   0  0  0  0  0  0  0  0  0  0  0  0
   -0.1912   24.6613  -24.2575 H   0  0  0  0  0  0  0  0  0  0  0  0
   -0.6887   22.8257  -26.1971 H   0  0  0  0  0  0  0  0  0  0  0  0
   -2.2261   23.6908  -25.7701 H   0  0  0  0  0  0  0  0  0  0  0  0
   -1.7777   21.7123  -28.0481 H   0  0  0  0  0  0  0  0  0  0  0  0
   -2.8141   21.5174  -26.5644 H   0  0  0  0  0  0  0  0  0  0  0  0
   -3.9328   22.1053  -28.8603 H   0  0  0  0  0  0  0  0  0  0  0  0
   -4.4338   22.9583  -27.3227 H   0  0  0  0  0  0  0  0  0  0  0  0
   -3.7637   24.9645  -28.0504 H   0  0  0  0  0  0  0  0  0  0  0  0
   -5.6234   25.2874  -28.9518 H   0  0  0  0  0  0  0  0  0  0  0  0
   -5.6356   25.5010  -30.7624 H   0  0  0  0  0  0  0  0  0  0  0  0
   -6.4699   23.0298  -29.1794 H   0  0  0  0  0  0  0  0  0  0  0  0
   -7.5085   24.1209  -30.1814 H   0  0  0  0  0  0  0  0  0  0  0  0
   -8.9152   23.0084  -30.9322 H   0  0  0  0  0  0  0  0  0  0  0  0
  -10.6108   21.3853  -31.7721 H   0  0  0  0  0  0  0  0  0  0  0  0
   -7.4600   18.9687  -33.4899 H   0  0  0  0  0  0  0  0  0  0  0  0
   -5.7535   20.5823  -32.6505 H   0  0  0  0  0  0  0  0  0  0  0  0
   -4.7601   22.1104  -32.5663 H   0  0  0  0  0  0  0  0  0  0  0  0
   -4.9875   23.8881  -32.6064 H   0  0  0  0  0  0  0  0  0  0  0  0
   -3.7936   22.2500  -30.3071 H   0  0  0  0  0  0  0  0  0  0  0  0
   -2.9053   23.3471  -31.4565 H   0  0  0  0  0  0  0  0  0  0  0  0
   -1.3659   23.7598  -29.4786 H   0  0  0  0  0  0  0  0  0  0  0  0
   -1.7002   25.5052  -29.2151 H   0  0  0  0  0  0  0  0  0  0  0  0
  1  2  1  0
  2  3  1  0
  3  4  2  0
  4  5  1  0
  5  6  2  0
  6  7  1  0
  7  8  2  0
  7  9  1  0
  9 10  1  0
 10 11  1  0
 11 12  1  0
 12 13  1  0
 13 14  1  0
 14 15  1  0
 15 16  1  0
 16 17  1  0
 17 18  1  0
 18 19  2  0
 19 20  1  0
 20 21  2  0
 21 22  1  0
 21 23  1  0
 23 24  2  0
 17 25  1  0
 25 26  1  0
 13 27  1  0
  6  2  1  0
 27  9  1  0
 26 14  1  0
 24 18  1  0
  1 28  1  0
  1 29  1  0
  1 30  1  0
  3 31  1  0
  4 32  1  0
  5 33  1  0
 10 34  1  0
 10 35  1  0
 11 36  1  0
 11 37  1  0
 12 38  1  0
 12 39  1  0
 13 40  1  1
 15 41  1  0
 15 42  1  0
 16 43  1  0
 16 44  1  0
 19 45  1  0
 20 46  1  0
 23 47  1  0
 24 48  1  0
 25 49  1  0
 25 50  1  0
 26 51  1  0
 26 52  1  0
 27 53  1  0
 27 54  1  0
M  END
>  <UniqueID>  (12) 
11

>  <SMILES>  (12) 
Cn1cccc1C(=O)N1CCC[C@H](N2CCN(c3ccc(F)cc3)CC2)C1

>  <Energy>  (12) 
103.75507212546223

>  <Genealogy>  (12) 
Cn1cccc1C(=O)N1CCC[C@H](N2CCN(c3ccc(F)cc3)CC2)C1 (chirality)
Cn1cccc1C(=O)N1CCC[C@H](N2CCN(c3ccc(F)cc3)CC2)C1 (3D coordinates assigned)
Cn1cccc1C(=O)N1CCC[C@H](N2CCN(c3ccc(F)cc3)CC2)C1 (nonaromatic ring conformer: 103.75507212546223 kcal/mol)

>  <smiles>  (12) 
Cn1cccc1C(=O)N1CCCC(N2CCN(c3ccc(F)cc3)CC2)C1

>  <score_type>  (12) 
oracle

>  <origin>  (12) 
adg

>  <m_score__min__energy>  (12) 
-9.0600000000000005

>  <m_primary>  (12) 
energy

$$$$
12:0
     RDKit          3D

 48 51  0  0  0  0  0  0  0  0999 V2000
   -1.6480   18.2720  -26.7200 C   0  0  0  0  0  0  0  0  0  0  0  0
   -2.5970   19.2930  -26.6290 C   0  0  0  0  0  0  0  0  0  0  0  0
   -2.3610   20.5270  -27.2430 C   0  0  0  0  0  0  0  0  0  0  0  0
   -1.1640   20.7530  -27.9450 C   0  0  0  0  0  0  0  0  0  0  0  0
   -0.9160   22.0820  -28.6190 C   0  0  0  0  0  0  0  0  0  0  0  0
   -1.9230   23.0830  -28.2280 N   0  0  0  0  0  0  0  0  0  0  0  0
   -1.7720   23.7120  -26.9020 C   0  0  0  0  0  0  0  0  0  0  0  0
   -2.6850   24.9260  -26.7250 C   0  0  0  0  0  0  0  0  0  0  0  0
   -4.1230   24.5650  -27.0880 C   0  0  0  0  0  0  0  0  0  0  0  0
   -4.1860   24.0630  -28.5020 C   0  0  0  0  0  0  0  0  0  0  0  0
   -5.3430   24.2790  -29.2660 C   0  0  0  0  0  0  0  0  0  0  0  0
   -5.4160   23.8310  -30.5910 C   0  0  0  0  0  0  0  0  0  0  0  0
   -6.6520   24.0750  -31.4170 C   0  0  0  0  0  0  0  0  0  0  0  0
   -6.7580   23.0890  -32.4940 N   0  0  0  0  0  0  0  0  0  0  0  0
   -7.3110   21.7690  -32.3370 C   0  0  0  0  0  0  0  0  0  0  0  0
   -6.6340   20.6150  -32.7720 C   0  0  0  0  0  0  0  0  0  0  0  0
   -7.2090   19.3560  -32.5920 C   0  0  0  0  0  0  0  0  0  0  0  0
   -8.4600   19.2550  -31.9840 C   0  0  0  0  0  0  0  0  0  0  0  0
   -9.1090   20.3760  -31.5740 N   0  0  0  0  0  0  0  0  0  0  0  0
   -8.5710   21.6140  -31.7370 C   0  0  0  0  0  0  0  0  0  0  0  0
   -4.3280   23.1440  -31.1430 C   0  0  0  0  0  0  0  0  0  0  0  0
   -3.1800   22.9080  -30.3830 C   0  0  0  0  0  0  0  0  0  0  0  0
   -3.1000   23.3430  -29.0440 C   0  0  0  0  0  0  0  0  0  0  0  0
   -0.2230   19.7140  -28.0450 C   0  0  0  0  0  0  0  0  0  0  0  0
   -0.4630   18.4810  -27.4300 C   0  0  0  0  0  0  0  0  0  0  0  0
   -1.8337   17.3035  -26.2327 H   0  0  0  0  0  0  0  0  0  0  0  0
   -3.5316   19.1260  -26.0734 H   0  0  0  0  0  0  0  0  0  0  0  0
   -3.1155   21.3247  -27.1764 H   0  0  0  0  0  0  0  0  0  0  0  0
    0.0811   22.4475  -28.3322 H   0  0  0  0  0  0  0  0  0  0  0  0
   -0.9815   21.9341  -29.7070 H   0  0  0  0  0  0  0  0  0  0  0  0
   -2.0179   22.9693  -26.1287 H   0  0  0  0  0  0  0  0  0  0  0  0
   -0.7320   24.0587  -26.8118 H   0  0  0  0  0  0  0  0  0  0  0  0
   -2.6478   25.2583  -25.6770 H   0  0  0  0  0  0  0  0  0  0  0  0
   -2.3402   25.7327  -27.3886 H   0  0  0  0  0  0  0  0  0  0  0  0
   -4.4846   23.7807  -26.4067 H   0  0  0  0  0  0  0  0  0  0  0  0
   -4.7544   25.4609  -26.9948 H   0  0  0  0  0  0  0  0  0  0  0  0
   -6.2003   24.8048  -28.8203 H   0  0  0  0  0  0  0  0  0  0  0  0
   -7.5388   24.0003  -30.7705 H   0  0  0  0  0  0  0  0  0  0  0  0
   -6.5874   25.0789  -31.8619 H   0  0  0  0  0  0  0  0  0  0  0  0
   -6.4540   23.3900  -33.4480 H   0  0  0  0  0  0  0  0  0  0  0  0
   -5.6497   20.7051  -33.2548 H   0  0  0  0  0  0  0  0  0  0  0  0
   -6.6801   18.4514  -32.9267 H   0  0  0  0  0  0  0  0  0  0  0  0
   -8.9214   18.2674  -31.8363 H   0  0  0  0  0  0  0  0  0  0  0  0
   -9.1266   22.5002  -31.3965 H   0  0  0  0  0  0  0  0  0  0  0  0
   -4.3776   22.7876  -32.1825 H   0  0  0  0  0  0  0  0  0  0  0  0
   -2.3288   22.3769  -30.8341 H   0  0  0  0  0  0  0  0  0  0  0  0
    0.7075   19.8714  -28.6101 H   0  0  0  0  0  0  0  0  0  0  0  0
    0.2819   17.6751  -27.5054 H   0  0  0  0  0  0  0  0  0  0  0  0
  1  2  2  0
  2  3  1  0
  3  4  2  0
  4  5  1  0
  5  6  1  0
  6  7  1  0
  7  8  1  0
  8  9  1  0
  9 10  1  0
 10 11  2  0
 11 12  1  0
 12 13  1  0
 13 14  1  0
 14 15  1  0
 15 16  2  0
 16 17  1  0
 17 18  2  0
 18 19  1  0
 19 20  2  0
 12 21  2  0
 21 22  1  0
 22 23  2  0
  4 24  1  0
 24 25  2  0
 25  1  1  0
 23  6  1  0
 23 10  1  0
 20 15  1  0
  1 26  1  0
  2 27  1  0
  3 28  1  0
  5 29  1  0
  5 30  1  0
  7 31  1  0
  7 32  1  0
  8 33  1  0
  8 34  1  0
  9 35  1  0
  9 36  1  0
 11 37  1  0
 13 38  1  0
 13 39  1  0
 14 40  1  0
 16 41  1  0
 17 42  1  0
 18 43  1  0
 20 44  1  0
 21 45  1  0
 22 46  1  0
 24 47  1  0
 25 48  1  0
M  END
>  <UniqueID>  (13) 
12

>  <SMILES>  (13) 
c1ccc(CN2CCCc3cc(CNc4cccnc4)ccc32)cc1

>  <Energy>  (13) 
52.20818055125643

>  <Genealogy>  (13) 
c1ccc(CN2CCCc3cc(CNc4cccnc4)ccc32)cc1 (3D coordinates assigned)
c1ccc(CN2CCCc3cc(CNc4cccnc4)ccc32)cc1 (nonaromatic ring conformer: 52.20818055125643 kcal/mol)

>  <smiles>  (13) 
c1ccc(CN2CCCc3cc(CNc4cccnc4)ccc32)cc1

>  <score_type>  (13) 
oracle

>  <origin>  (13) 
adg

>  <m_score__min__energy>  (13) 
-9.6099999999999994

>  <m_primary>  (13) 
energy

$$$$
13:0
     RDKit          3D

 84 86  0  0  0  0  0  0  0  0999 V2000
   -0.8810   21.9450  -25.9110 C   0  0  0  0  0  0  0  0  0  0  0  0
   -0.3880   21.7650  -27.3460 C   0  0  0  0  0  0  0  0  0  0  0  0
   -1.0420   20.6180  -28.0140 N   0  0  0  0  0  0  0  0  0  0  0  0
   -2.3910   20.2840  -27.4890 C   0  0  0  0  0  0  0  0  0  0  0  0
   -2.4510   18.9620  -26.7060 C   0  0  0  0  0  0  0  0  0  0  0  0
   -0.1520   19.4370  -28.1030 C   0  0  0  0  0  0  0  0  0  0  0  0
   -0.3750   18.6970  -29.4280 C   0  0  0  0  0  0  0  0  0  0  0  0
    0.4110   19.3140  -30.5940 C   0  0  0  0  0  0  0  0  0  0  0  0
    0.1990   20.7690  -30.6400 N   0  0  0  0  0  0  0  0  0  0  0  0
   -0.4140   21.2230  -31.8990 C   0  0  0  0  0  0  0  0  0  0  0  0
   -1.7870   21.8870  -31.6920 C   0  0  0  0  0  0  0  0  0  0  0  0
   -2.9200   20.8490  -31.7790 C   0  0  0  0  0  0  0  0  0  0  0  0
   -4.0890   21.3180  -32.5350 N   0  0  0  0  0  0  0  0  0  0  0  0
   -5.3790   20.6810  -32.5110 C   0  0  0  0  0  0  0  0  0  0  0  0
   -5.4900   19.3560  -32.9770 C   0  0  0  0  0  0  0  0  0  0  0  0
   -4.3720   18.6870  -33.5240 C   0  0  0  0  0  0  0  0  0  0  0  0
   -4.4800   17.3800  -33.9910 C   0  0  0  0  0  0  0  0  0  0  0  0
   -5.7050   16.7270  -33.9440 C   0  0  0  0  0  0  0  0  0  0  0  0
   -6.8270   17.3720  -33.4260 C   0  0  0  0  0  0  0  0  0  0  0  0
   -6.7410   18.6930  -32.9170 C   0  0  0  0  0  0  0  0  0  0  0  0
   -7.8410   19.3410  -32.3930 N   0  0  0  0  0  0  0  0  0  0  0  0
   -9.0590   18.5680  -32.0630 C   0  0  0  0  0  0  0  0  0  0  0  0
   -7.8000   20.7050  -32.1710 C   0  0  0  0  0  0  0  0  0  0  0  0
   -8.9910   21.4470  -31.9760 C   0  0  0  0  0  0  0  0  0  0  0  0
   -8.9560   22.8100  -31.7290 C   0  0  0  0  0  0  0  0  0  0  0  0
   -7.7440   23.4760  -31.6510 C   0  0  0  0  0  0  0  0  0  0  0  0
   -6.5310   22.7910  -31.8380 C   0  0  0  0  0  0  0  0  0  0  0  0
   -5.3050   23.4680  -31.7090 O   0  0  0  0  0  0  0  0  0  0  0  0
   -4.8760   24.2510  -30.5910 C   0  0  0  0  0  0  0  0  0  0  0  0
   -4.3160   23.3820  -29.4600 C   0  0  0  0  0  0  0  0  0  0  0  0
   -3.2560   24.1100  -28.7300 N   0  0  0  0  0  0  0  0  0  0  0  0
   -1.9070   24.1590  -29.3470 C   0  0  0  0  0  0  0  0  0  0  0  0
   -0.8630   24.9870  -28.5820 C   0  0  0  0  0  0  0  0  0  0  0  0
   -3.2800   23.9520  -27.2590 C   0  0  0  0  0  0  0  0  0  0  0  0
   -4.2300   24.9250  -26.5610 C   0  0  0  0  0  0  0  0  0  0  0  0
   -6.5540   21.4000  -32.1650 C   0  0  0  0  0  0  0  0  0  0  0  0
   -0.0844   21.6541  -25.2104 H   0  0  0  0  0  0  0  0  0  0  0  0
   -1.1487   22.9989  -25.7448 H   0  0  0  0  0  0  0  0  0  0  0  0
   -1.7648   21.3115  -25.7448 H   0  0  0  0  0  0  0  0  0  0  0  0
   -0.6076   22.6804  -27.9150 H   0  0  0  0  0  0  0  0  0  0  0  0
    0.6939   21.5688  -27.3128 H   0  0  0  0  0  0  0  0  0  0  0  0
   -2.7122   21.0963  -26.8204 H   0  0  0  0  0  0  0  0  0  0  0  0
   -3.0503   20.1658  -28.3615 H   0  0  0  0  0  0  0  0  0  0  0  0
   -2.4414   19.1743  -25.6267 H   0  0  0  0  0  0  0  0  0  0  0  0
   -3.3745   18.4237  -26.9656 H   0  0  0  0  0  0  0  0  0  0  0  0
   -1.5801   18.3423  -26.9656 H   0  0  0  0  0  0  0  0  0  0  0  0
    0.8955   19.7675  -28.0445 H   0  0  0  0  0  0  0  0  0  0  0  0
   -0.3806   18.7549  -27.2709 H   0  0  0  0  0  0  0  0  0  0  0  0
   -0.0571   17.6512  -29.3043 H   0  0  0  0  0  0  0  0  0  0  0  0
   -1.4447   18.7722  -29.6733 H   0  0  0  0  0  0  0  0  0  0  0  0
    1.4829   19.1077  -30.4584 H   0  0  0  0  0  0  0  0  0  0  0  0
    0.0582   18.8712  -31.5371 H   0  0  0  0  0  0  0  0  0  0  0  0
   -0.4180   21.0500  -29.8420 H   0  0  0  0  0  0  0  0  0  0  0  0
    0.2596   21.9509  -32.3748 H   0  0  0  0  0  0  0  0  0  0  0  0
   -0.5687   20.3350  -32.5295 H   0  0  0  0  0  0  0  0  0  0  0  0
   -1.8106   22.3631  -30.7007 H   0  0  0  0  0  0  0  0  0  0  0  0
   -1.9368   22.6366  -32.4830 H   0  0  0  0  0  0  0  0  0  0  0  0
   -2.5277   19.9460  -32.2696 H   0  0  0  0  0  0  0  0  0  0  0  0
   -3.2578   20.6525  -30.7508 H   0  0  0  0  0  0  0  0  0  0  0  0
   -4.0300   22.2690  -32.9670 H   0  0  0  0  0  0  0  0  0  0  0  0
   -3.4037   19.2057  -33.5816 H   0  0  0  0  0  0  0  0  0  0  0  0
   -3.5966   16.8652  -34.3966 H   0  0  0  0  0  0  0  0  0  0  0  0
   -5.7902   15.6958  -34.3174 H   0  0  0  0  0  0  0  0  0  0  0  0
   -7.7942   16.8482  -33.4118 H   0  0  0  0  0  0  0  0  0  0  0  0
   -9.1655   18.5004  -30.9703 H   0  0  0  0  0  0  0  0  0  0  0  0
   -9.9397   19.0728  -32.4867 H   0  0  0  0  0  0  0  0  0  0  0  0
   -8.9772   17.5562  -32.4867 H   0  0  0  0  0  0  0  0  0  0  0  0
   -9.9617   20.9315  -32.0215 H   0  0  0  0  0  0  0  0  0  0  0  0
   -9.8955   23.3660  -31.5942 H   0  0  0  0  0  0  0  0  0  0  0  0
   -7.7306   24.5555  -31.4399 H   0  0  0  0  0  0  0  0  0  0  0  0
   -4.0922   24.9468  -30.9251 H   0  0  0  0  0  0  0  0  0  0  0  0
   -5.7505   24.7925  -30.2010 H   0  0  0  0  0  0  0  0  0  0  0  0
   -5.1275   23.1271  -28.7625 H   0  0  0  0  0  0  0  0  0  0  0  0
   -3.8881   22.4652  -29.8916 H   0  0  0  0  0  0  0  0  0  0  0  0
   -1.5317   23.1280  -29.4251 H   0  0  0  0  0  0  0  0  0  0  0  0
   -2.0360   24.6569  -30.3194 H   0  0  0  0  0  0  0  0  0  0  0  0
   -1.0184   24.8637  -27.5000 H   0  0  0  0  0  0  0  0  0  0  0  0
    0.1465   24.6413  -28.8491 H   0  0  0  0  0  0  0  0  0  0  0  0
   -0.9697   26.0487  -28.8491 H   0  0  0  0  0  0  0  0  0  0  0  0
   -3.5969   22.9253  -27.0234 H   0  0  0  0  0  0  0  0  0  0  0  0
   -2.2657   24.1677  -26.8919 H   0  0  0  0  0  0  0  0  0  0  0  0
   -4.1270   24.8195  -25.4709 H   0  0  0  0  0  0  0  0  0  0  0  0
   -3.9807   25.9553  -26.8549 H   0  0  0  0  0  0  0  0  0  0  0  0
   -5.2659   24.7004  -26.8549 H   0  0  0  0  0  0  0  0  0  0  0  0
  1  2  1  0
  2  3  1  0
  3  4  1  0
  4  5  1  0
  3  6  1  0
  6  7  1  0
  7  8  1  0
  8  9  1  0
  9 10  1  0
 10 11  1  0
 11 12  1  0
 12 13  1  0
 13 14  1  0
 14 15  2  0
 15 16  1  0
 16 17  2  0
 17 18  1  0
 18 19  2  0
 19 20  1  0
 20 21  2  0
 21 22  1  0
 21 23  1  0
 23 24  2  0
 24 25  1  0
 25 26  2  0
 26 27  1  0
 27 28  1  0
 28 29  1  0
 29 30  1  0
 30 31  1  0
 31 32  1  0
 32 33  1  0
 31 34  1  0
 34 35  1  0
 27 36  2  0
 36 14  1  0
 20 15  1  0
 36 23  1  0
  1 37  1  0
  1 38  1  0
  1 39  1  0
  2 40  1  0
  2 41  1  0
  4 42  1  0
  4 43  1  0
  5 44  1  0
  5 45  1  0
  5 46  1  0
  6 47  1  0
  6 48  1  0
  7 49  1  0
  7 50  1  0
  8 51  1  0
  8 52  1  0
  9 53  1  0
 10 54  1  0
 10 55  1  0
 11 56  1  0
 11 57  1  0
 12 58  1  0
 12 59  1  0
 13 60  1  0
 16 61  1  0
 17 62  1  0
 18 63  1  0
 19 64  1  0
 22 65  1  0
 22 66  1  0
 22 67  1  0
 24 68  1  0
 25 69  1  0
 26 70  1  0
 29 71  1  0
 29 72  1  0
 30 73  1  0
 30 74  1  0
 32 75  1  0
 32 76  1  0
 33 77  1  0
 33 78  1  0
 33 79  1  0
 34 80  1  0
 34 81  1  0
 35 82  1  0
 35 83  1  0
 35 84  1  0
M  CHG  1  21   1
M  END
>  <UniqueID>  (14) 
13

>  <SMILES>  (14) 
CCN(CC)CCCNCCCNc1c2ccccc2[n+](C)c2cccc(OCCN(CC)CC)c12

>  <Energy>  (14) 
116.47503631047638

>  <Genealogy>  (14) 
CCN(CC)CCCNCCCNc1c2ccccc2[n+](C)c2cccc(OCCN(CC)CC)c12 (3D coordinates assigned)
CCN(CC)CCCNCCCNc1c2ccccc2[n+](C)c2cccc(OCCN(CC)CC)c12 (optimized conformer: 116.47503631047638 kcal/mol)

>  <smiles>  (14) 
CCN(CC)CCCNCCCNc1c2ccccc2[n+](C)c2cccc(OCCN(CC)CC)c12

>  <score_type>  (14) 
oracle

>  <origin>  (14) 
adg

>  <m_score__min__energy>  (14) 
-8.7699999999999996

>  <m_primary>  (14) 
energy

$$$$
14:0
     RDKit          3D

 71 73  0  0  0  0  0  0  0  0999 V2000
   -4.1730   24.5540  -26.8170 C   0  0  0  0  0  0  0  0  0  0  0  0
   -2.9970   24.5490  -27.7950 C   0  0  0  0  0  0  0  0  0  0  0  0
   -3.4950   24.5130  -29.1910 N   0  0  0  0  0  0  0  0  0  0  0  0
   -2.9320   23.3820  -29.9640 C   0  0  0  0  0  0  0  0  0  0  0  0
   -3.3840   22.0500  -29.3650 C   0  0  0  0  0  0  0  0  0  0  0  0
   -4.9790   24.5610  -29.2580 C   0  0  0  0  0  0  0  0  0  0  0  0
   -5.4010   25.6350  -30.2530 C   0  0  0  0  0  0  0  0  0  0  0  0
   -5.6200   25.0230  -31.5200 O   0  0  0  0  0  0  0  0  0  0  0  0
   -6.0470   23.7020  -31.7110 C   0  0  0  0  0  0  0  0  0  0  0  0
   -7.3530   23.2860  -31.4270 C   0  0  0  0  0  0  0  0  0  0  0  0
   -7.7290   21.9620  -31.6520 C   0  0  0  0  0  0  0  0  0  0  0  0
   -6.8150   21.0150  -32.1760 C   0  0  0  0  0  0  0  0  0  0  0  0
   -5.5020   21.4580  -32.4900 C   0  0  0  0  0  0  0  0  0  0  0  0
   -5.1310   22.7890  -32.2200 C   0  0  0  0  0  0  0  0  0  0  0  0
   -4.5920   20.5650  -33.0790 C   0  0  0  0  0  0  0  0  0  0  0  0
   -3.2500   21.0020  -33.3700 N   0  0  0  0  0  0  0  0  0  0  0  0
   -2.1820   20.9940  -32.3710 C   0  0  0  0  0  0  0  0  0  0  0  0
   -0.7910   21.2020  -33.0120 C   0  0  0  0  0  0  0  0  0  0  0  0
   -0.7610   20.7610  -34.4410 N   0  0  0  0  0  0  0  0  0  0  0  0
   -0.9410   19.2920  -34.5740 C   0  0  0  0  0  0  0  0  0  0  0  0
   -0.2980   18.4710  -33.4440 C   0  0  0  0  0  0  0  0  0  0  0  0
    0.4610   21.2180  -35.1540 C   0  0  0  0  0  0  0  0  0  0  0  0
    0.3150   22.6230  -35.7420 C   0  0  0  0  0  0  0  0  0  0  0  0
   -5.0310   19.2950  -33.4810 C   0  0  0  0  0  0  0  0  0  0  0  0
   -4.2030   18.4510  -34.2520 C   0  0  0  0  0  0  0  0  0  0  0  0
   -4.6660   17.2190  -34.6990 C   0  0  0  0  0  0  0  0  0  0  0  0
   -5.9640   16.8130  -34.4110 C   0  0  0  0  0  0  0  0  0  0  0  0
   -6.8020   17.6300  -33.6580 C   0  0  0  0  0  0  0  0  0  0  0  0
   -6.3530   18.8760  -33.1550 C   0  0  0  0  0  0  0  0  0  0  0  0
   -7.1700   19.6980  -32.3990 N   0  0  0  0  0  0  0  0  0  0  0  0
   -8.4320   19.1730  -31.8280 C   0  0  0  0  0  0  0  0  0  0  0  0
   -3.7918   24.5524  -25.7852 H   0  0  0  0  0  0  0  0  0  0  0  0
   -4.7827   25.4547  -26.9812 H   0  0  0  0  0  0  0  0  0  0  0  0
   -4.7903   23.6585  -26.9812 H   0  0  0  0  0  0  0  0  0  0  0  0
   -2.3964   25.4585  -27.6464 H   0  0  0  0  0  0  0  0  0  0  0  0
   -2.3791   23.6579  -27.6103 H   0  0  0  0  0  0  0  0  0  0  0  0
   -3.2784   23.4470  -31.0060 H   0  0  0  0  0  0  0  0  0  0  0  0
   -1.8339   23.4358  -29.9268 H   0  0  0  0  0  0  0  0  0  0  0  0
   -3.3618   22.1153  -28.2672 H   0  0  0  0  0  0  0  0  0  0  0  0
   -4.4082   21.8268  -29.6984 H   0  0  0  0  0  0  0  0  0  0  0  0
   -2.7072   21.2495  -29.6984 H   0  0  0  0  0  0  0  0  0  0  0  0
   -5.3643   23.5841  -29.5856 H   0  0  0  0  0  0  0  0  0  0  0  0
   -5.3864   24.7975  -28.2640 H   0  0  0  0  0  0  0  0  0  0  0  0
   -6.3289   26.1148  -29.9084 H   0  0  0  0  0  0  0  0  0  0  0  0
   -4.6136   26.3985  -30.3367 H   0  0  0  0  0  0  0  0  0  0  0  0
   -8.0834   24.0041  -31.0260 H   0  0  0  0  0  0  0  0  0  0  0  0
   -8.7564   21.6466  -31.4178 H   0  0  0  0  0  0  0  0  0  0  0  0
   -4.0978   23.1121  -32.4154 H   0  0  0  0  0  0  0  0  0  0  0  0
   -3.0800   21.5110  -34.2630 H   0  0  0  0  0  0  0  0  0  0  0  0
   -2.3650   21.8029  -31.6484 H   0  0  0  0  0  0  0  0  0  0  0  0
   -2.1857   20.0116  -31.8762 H   0  0  0  0  0  0  0  0  0  0  0  0
   -0.5343   22.2706  -32.9646 H   0  0  0  0  0  0  0  0  0  0  0  0
   -0.0649   20.5933  -32.4532 H   0  0  0  0  0  0  0  0  0  0  0  0
   -1.5810   21.1730  -34.9490 H   0  0  0  0  0  0  0  0  0  0  0  0
   -2.0197   19.0767  -34.5855 H   0  0  0  0  0  0  0  0  0  0  0  0
   -0.4361   18.9957  -35.5053 H   0  0  0  0  0  0  0  0  0  0  0  0
   -0.6146   18.8753  -32.4712 H   0  0  0  0  0  0  0  0  0  0  0  0
   -0.6168   17.4214  -33.5262 H   0  0  0  0  0  0  0  0  0  0  0  0
    0.7974   18.5290  -33.5262 H   0  0  0  0  0  0  0  0  0  0  0  0
    1.3017   21.2197  -34.4446 H   0  0  0  0  0  0  0  0  0  0  0  0
    0.6341   20.5255  -35.9909 H   0  0  0  0  0  0  0  0  0  0  0  0
    0.2388   23.3561  -34.9255 H   0  0  0  0  0  0  0  0  0  0  0  0
    1.1939   22.8543  -36.3616 H   0  0  0  0  0  0  0  0  0  0  0  0
   -0.5927   22.6687  -36.3616 H   0  0  0  0  0  0  0  0  0  0  0  0
   -3.1808   18.7716  -34.5017 H   0  0  0  0  0  0  0  0  0  0  0  0
   -4.0032   16.5631  -35.2825 H   0  0  0  0  0  0  0  0  0  0  0  0
   -6.3297   15.8432  -34.7794 H   0  0  0  0  0  0  0  0  0  0  0  0
   -7.8313   17.3025  -33.4497 H   0  0  0  0  0  0  0  0  0  0  0  0
   -8.3753   19.1966  -30.7297 H   0  0  0  0  0  0  0  0  0  0  0  0
   -9.2739   19.7955  -32.1651 H   0  0  0  0  0  0  0  0  0  0  0  0
   -8.5840   18.1370  -32.1651 H   0  0  0  0  0  0  0  0  0  0  0  0
  1  2  1  0
  2  3  1  0
  3  4  1  0
  4  5  1  0
  3  6  1  0
  6  7  1  0
  7  8  1  0
  8  9  1  0
  9 10  2  0
 10 11  1  0
 11 12  2  0
 12 13  1  0
 13 14  2  0
 13 15  1  0
 15 16  1  0
 16 17  1  0
 17 18  1  0
 18 19  1  0
 19 20  1  0
 20 21  1  0
 19 22  1  0
 22 23  1  0
 15 24  2  0
 24 25  1  0
 25 26  2  0
 26 27  1  0
 27 28  2  0
 28 29  1  0
 29 30  2  0
 30 31  1  0
 14  9  1  0
 29 24  1  0
 30 12  1  0
  1 32  1  0
  1 33  1  0
  1 34  1  0
  2 35  1  0
  2 36  1  0
  4 37  1  0
  4 38  1  0
  5 39  1  0
  5 40  1  0
  5 41  1  0
  6 42  1  0
  6 43  1  0
  7 44  1  0
  7 45  1  0
 10 46  1  0
 11 47  1  0
 14 48  1  0
 16 49  1  0
 17 50  1  0
 17 51  1  0
 18 52  1  0
 18 53  1  0
 19 54  1  0
 20 55  1  0
 20 56  1  0
 21 57  1  0
 21 58  1  0
 21 59  1  0
 22 60  1  0
 22 61  1  0
 23 62  1  0
 23 63  1  0
 23 64  1  0
 25 65  1  0
 26 66  1  0
 27 67  1  0
 28 68  1  0
 31 69  1  0
 31 70  1  0
 31 71  1  0
M  CHG  2  19   1  30   1
M  END
>  <UniqueID>  (15) 
14

>  <SMILES>  (15) 
CCN(CC)CCOc1ccc2c(c1)c(NCC[NH+](CC)CC)c1ccccc1[n+]2C

>  <Energy>  (15) 
98.16544544671773

>  <Genealogy>  (15) 
CCN(CC)CCOc1ccc2c(c1)c(NCC[NH+](CC)CC)c1ccccc1[n+]2C (protonated)
CCN(CC)CCOc1ccc2c(c1)c(NCC[NH+](CC)CC)c1ccccc1[n+]2C (3D coordinates assigned)
CCN(CC)CCOc1ccc2c(c1)c(NCC[NH+](CC)CC)c1ccccc1[n+]2C (optimized conformer: 98.16544544671773 kcal/mol)

>  <smiles>  (15) 
CCN(CC)CCNc1c2ccccc2[n+](C)c2ccc(OCCN(CC)CC)cc12

>  <score_type>  (15) 
oracle

>  <origin>  (15) 
adg

>  <m_score__min__energy>  (15) 
-8.0099999999999998

>  <m_primary>  (15) 
energy

$$$$
15:0
     RDKit          3D

 67 70  0  0  0  0  0  0  0  0999 V2000
    0.8690   22.0200  -35.7450 C   0  0  0  0  0  0  0  0  0  0  0  0
    0.0010   20.8240  -35.3470 C   0  0  0  0  0  0  0  0  0  0  0  0
   -1.1800   21.2220  -34.5600 N   0  0  0  0  0  0  0  0  0  0  0  0
   -1.0550   20.8420  -33.1410 C   0  0  0  0  0  0  0  0  0  0  0  0
   -2.4190   20.4850  -32.5360 C   0  0  0  0  0  0  0  0  0  0  0  0
   -3.4580   21.3870  -33.0290 N   0  0  0  0  0  0  0  0  0  0  0  0
   -4.7320   21.4610  -32.3740 C   0  0  0  0  0  0  0  0  0  0  0  0
   -5.7190   20.4930  -32.6400 C   0  0  0  0  0  0  0  0  0  0  0  0
   -5.4500   19.4030  -33.4950 C   0  0  0  0  0  0  0  0  0  0  0  0
   -6.4020   18.4080  -33.7000 C   0  0  0  0  0  0  0  0  0  0  0  0
   -7.6350   18.4800  -33.0640 C   0  0  0  0  0  0  0  0  0  0  0  0
   -7.9280   19.5520  -32.2230 C   0  0  0  0  0  0  0  0  0  0  0  0
   -6.9900   20.5990  -32.0130 C   0  0  0  0  0  0  0  0  0  0  0  0
   -7.2780   21.6820  -31.2040 N   0  0  0  0  0  0  0  0  0  0  0  0
   -8.6710   21.9210  -30.7590 C   0  0  0  0  0  0  0  0  0  0  0  0
   -6.2670   22.5480  -30.8200 C   0  0  0  0  0  0  0  0  0  0  0  0
   -6.4570   23.5110  -29.7990 C   0  0  0  0  0  0  0  0  0  0  0  0
   -5.4450   24.4000  -29.4430 C   0  0  0  0  0  0  0  0  0  0  0  0
   -4.1930   24.3470  -30.0740 C   0  0  0  0  0  0  0  0  0  0  0  0
   -3.1120   25.1660  -29.7070 O   0  0  0  0  0  0  0  0  0  0  0  0
   -2.1950   24.9290  -28.6330 C   0  0  0  0  0  0  0  0  0  0  0  0
   -2.5370   23.6000  -27.9130 C   0  0  0  0  0  0  0  0  0  0  0  0
   -1.5210   22.5030  -28.0540 N   0  0  0  0  0  0  0  0  0  0  0  0
   -0.1390   23.0320  -27.9510 C   0  0  0  0  0  0  0  0  0  0  0  0
   -1.7490   21.4880  -26.9940 C   0  0  0  0  0  0  0  0  0  0  0  0
   -2.7740   20.4930  -27.5200 C   0  0  0  0  0  0  0  0  0  0  0  0
   -2.7230   20.6290  -29.0320 C   0  0  0  0  0  0  0  0  0  0  0  0
   -1.7070   21.7340  -29.3090 C   0  0  0  0  0  0  0  0  0  0  0  0
   -3.9830   23.3930  -31.0690 C   0  0  0  0  0  0  0  0  0  0  0  0
   -4.9890   22.4710  -31.4310 C   0  0  0  0  0  0  0  0  0  0  0  0
    1.2354   22.5248  -34.8389 H   0  0  0  0  0  0  0  0  0  0  0  0
    1.7246   21.6699  -36.3411 H   0  0  0  0  0  0  0  0  0  0  0  0
    0.2709   22.7249  -36.3411 H   0  0  0  0  0  0  0  0  0  0  0  0
   -0.3391   20.3150  -36.2609 H   0  0  0  0  0  0  0  0  0  0  0  0
    0.6134   20.1602  -34.7191 H   0  0  0  0  0  0  0  0  0  0  0  0
   -1.2650   22.2620  -34.6120 H   0  0  0  0  0  0  0  0  0  0  0  0
   -2.0420   20.7990  -34.9770 H   0  0  0  0  0  0  0  0  0  0  0  0
   -0.3886   19.9705  -33.0610 H   0  0  0  0  0  0  0  0  0  0  0  0
   -0.6439   21.6991  -32.5875 H   0  0  0  0  0  0  0  0  0  0  0  0
   -2.6771   19.4522  -32.8129 H   0  0  0  0  0  0  0  0  0  0  0  0
   -2.3562   20.5841  -31.4423 H   0  0  0  0  0  0  0  0  0  0  0  0
   -3.4160   21.7030  -34.0240 H   0  0  0  0  0  0  0  0  0  0  0  0
   -4.4775   19.3388  -34.0051 H   0  0  0  0  0  0  0  0  0  0  0  0
   -6.1773   17.5628  -34.3672 H   0  0  0  0  0  0  0  0  0  0  0  0
   -8.3821   17.6887  -33.2246 H   0  0  0  0  0  0  0  0  0  0  0  0
   -8.9019   19.5884  -31.7130 H   0  0  0  0  0  0  0  0  0  0  0  0
   -8.7087   21.9275  -29.6597 H   0  0  0  0  0  0  0  0  0  0  0  0
   -9.0173   22.8917  -31.1435 H   0  0  0  0  0  0  0  0  0  0  0  0
   -9.3211   21.1213  -31.1435 H   0  0  0  0  0  0  0  0  0  0  0  0
   -7.4237   23.5580  -29.2762 H   0  0  0  0  0  0  0  0  0  0  0  0
   -5.6293   25.1503  -28.6600 H   0  0  0  0  0  0  0  0  0  0  0  0
   -1.1730   24.8704  -29.0355 H   0  0  0  0  0  0  0  0  0  0  0  0
   -2.2705   25.7553  -27.9109 H   0  0  0  0  0  0  0  0  0  0  0  0
   -2.6538   23.8167  -26.8409 H   0  0  0  0  0  0  0  0  0  0  0  0
   -3.4522   23.2249  -28.3945 H   0  0  0  0  0  0  0  0  0  0  0  0
    0.1354   23.1370  -26.8910 H   0  0  0  0  0  0  0  0  0  0  0  0
    0.5573   22.3368  -28.4428 H   0  0  0  0  0  0  0  0  0  0  0  0
   -0.0848   24.0144  -28.4428 H   0  0  0  0  0  0  0  0  0  0  0  0
   -0.8070   20.9690  -26.7632 H   0  0  0  0  0  0  0  0  0  0  0  0
   -2.1137   21.9671  -26.0734 H   0  0  0  0  0  0  0  0  0  0  0  0
   -2.5093   19.4696  -27.2158 H   0  0  0  0  0  0  0  0  0  0  0  0
   -3.7806   20.6919  -27.1234 H   0  0  0  0  0  0  0  0  0  0  0  0
   -2.3981   19.6841  -29.4921 H   0  0  0  0  0  0  0  0  0  0  0  0
   -3.7105   20.8682  -29.4534 H   0  0  0  0  0  0  0  0  0  0  0  0
   -0.7497   21.2923  -29.6227 H   0  0  0  0  0  0  0  0  0  0  0  0
   -2.0650   22.3926  -30.1141 H   0  0  0  0  0  0  0  0  0  0  0  0
   -3.0114   23.3580  -31.5836 H   0  0  0  0  0  0  0  0  0  0  0  0
  1  2  1  0
  2  3  1  0
  3  4  1  0
  4  5  1  0
  5  6  1  0
  6  7  1  0
  7  8  2  0
  8  9  1  0
  9 10  2  0
 10 11  1  0
 11 12  2  0
 12 13  1  0
 13 14  2  0
 14 15  1  0
 14 16  1  0
 16 17  2  0
 17 18  1  0
 18 19  2  0
 19 20  1  0
 20 21  1  0
 21 22  1  0
 22 23  1  0
 23 24  1  0
 23 25  1  0
 25 26  1  0
 26 27  1  0
 27 28  1  0
 19 29  1  0
 29 30  2  0
 30  7  1  0
 13  8  1  0
 30 16  1  0
 28 23  1  0
  1 31  1  0
  1 32  1  0
  1 33  1  0
  2 34  1  0
  2 35  1  0
  3 36  1  0
  3 37  1  0
  4 38  1  0
  4 39  1  0
  5 40  1  0
  5 41  1  0
  6 42  1  0
  9 43  1  0
 10 44  1  0
 11 45  1  0
 12 46  1  0
 15 47  1  0
 15 48  1  0
 15 49  1  0
 17 50  1  0
 18 51  1  0
 21 52  1  0
 21 53  1  0
 22 54  1  0
 22 55  1  0
 24 56  1  0
 24 57  1  0
 24 58  1  0
 25 59  1  0
 25 60  1  0
 26 61  1  0
 26 62  1  0
 27 63  1  0
 27 64  1  0
 28 65  1  0
 28 66  1  0
 29 67  1  0
M  CHG  3   3   1  14   1  23   1
M  END
>  <UniqueID>  (16) 
15

>  <SMILES>  (16) 
CC[NH2+]CCNc1c2ccccc2[n+](C)c2ccc(OCC[N+]3(C)CCCC3)cc12

>  <Energy>  (16) 
106.79007169398932

>  <Genealogy>  (16) 
CC[NH2+]CCNc1c2ccccc2[n+](C)c2ccc(OCC[N+]3(C)CCCC3)cc12 (protonated)
CC[NH2+]CCNc1c2ccccc2[n+](C)c2ccc(OCC[N+]3(C)CCCC3)cc12 (3D coordinates assigned)
CC[NH2+]CCNc1c2ccccc2[n+](C)c2ccc(OCC[N+]3(C)CCCC3)cc12 (nonaromatic ring conformer: 106.79007169398932 kcal/mol)

>  <smiles>  (16) 
CCNCCNc1c2ccccc2[n+](C)c2ccc(OCC[N+]3(C)CCCC3)cc12

>  <score_type>  (16) 
oracle

>  <origin>  (16) 
adg

>  <m_score__min__energy>  (16) 
-8.0700000000000003

>  <m_primary>  (16) 
energy

$$$$
16:0
     RDKit          3D

 75 79  0  0  0  0  0  0  0  0999 V2000
    2.1970   18.3340  -32.8080 C   0  0  0  0  0  0  0  0  0  0  0  0
    1.6560   19.6460  -32.2320 C   0  0  0  0  0  0  0  0  0  0  0  0
    0.1730   19.7430  -32.1810 N   0  0  0  0  0  0  0  0  0  0  0  0
   -0.4420   18.8060  -31.1940 C   0  0  0  0  0  0  0  0  0  0  0  0
   -0.1320   19.0900  -29.7140 C   0  0  0  0  0  0  0  0  0  0  0  0
   -0.2990   21.1520  -32.1080 C   0  0  0  0  0  0  0  0  0  0  0  0
   -1.7900   21.3080  -32.4710 C   0  0  0  0  0  0  0  0  0  0  0  0
   -2.0780   20.7310  -33.7830 N   0  0  0  0  0  0  0  0  0  0  0  0
   -2.6250   19.4100  -33.9070 C   0  0  0  0  0  0  0  0  0  0  0  0
   -1.7780   18.3650  -34.3030 C   0  0  0  0  0  0  0  0  0  0  0  0
   -0.4280   18.6620  -34.5630 O   0  0  0  0  0  0  0  0  0  0  0  0
    0.2610   18.4140  -35.7880 C   0  0  0  0  0  0  0  0  0  0  0  0
    0.6900   19.7330  -36.4450 C   0  0  0  0  0  0  0  0  0  0  0  0
    1.2260   20.7420  -35.4110 C   0  0  2  0  0  0  0  0  0  0  0  0
    0.2500   21.9060  -35.2300 C   0  0  0  0  0  0  0  0  0  0  0  0
    0.8160   23.0140  -36.0820 C   0  0  0  0  0  0  0  0  0  0  0  0
    2.3080   22.7560  -36.0660 C   0  0  0  0  0  0  0  0  0  0  0  0
    2.5030   21.3080  -35.8910 N   0  0  0  0  0  0  0  0  0  0  0  0
    3.6130   21.0240  -34.9680 C   0  0  0  0  0  0  0  0  0  0  0  0
   -2.2960   17.0680  -34.4360 C   0  0  0  0  0  0  0  0  0  0  0  0
   -3.6440   16.8120  -34.1980 C   0  0  0  0  0  0  0  0  0  0  0  0
   -4.5240   17.8420  -33.7970 C   0  0  0  0  0  0  0  0  0  0  0  0
   -3.9910   19.1590  -33.6340 C   0  0  0  0  0  0  0  0  0  0  0  0
   -4.8330   20.1910  -33.1800 C   0  0  0  0  0  0  0  0  0  0  0  0
   -6.1700   19.9130  -32.9260 C   0  0  0  0  0  0  0  0  0  0  0  0
   -7.1530   20.8110  -32.4720 C   0  0  0  0  0  0  0  0  0  0  0  0
   -6.9970   22.1740  -32.1820 C   0  0  0  0  0  0  0  0  0  0  0  0
   -8.1110   22.9050  -31.7360 C   0  0  0  0  0  0  0  0  0  0  0  0
   -9.3620   22.2780  -31.5820 C   0  0  0  0  0  0  0  0  0  0  0  0
   -9.5120   20.9160  -31.8730 C   0  0  0  0  0  0  0  0  0  0  0  0
   -8.3970   20.2080  -32.3150 C   0  0  0  0  0  0  0  0  0  0  0  0
   -8.3070   18.5800  -32.7290 S   0  0  0  0  0  0  0  0  0  0  0  0
   -6.6570   18.6250  -33.1200 C   0  0  0  0  0  0  0  0  0  0  0  0
   -5.8660   17.5930  -33.5510 N   0  0  0  0  0  0  0  0  0  0  0  0
   -6.4360   16.2460  -33.7390 C   0  0  0  0  0  0  0  0  0  0  0  0
    2.4752   17.6593  -31.9849 H   0  0  0  0  0  0  0  0  0  0  0  0
    1.4219   17.8578  -33.4264 H   0  0  0  0  0  0  0  0  0  0  0  0
    3.0825   18.5426  -33.4264 H   0  0  0  0  0  0  0  0  0  0  0  0
    2.0409   19.7537  -31.2072 H   0  0  0  0  0  0  0  0  0  0  0  0
    1.9942   20.4433  -32.9102 H   0  0  0  0  0  0  0  0  0  0  0  0
   -0.1220   19.3840  -33.1190 H   0  0  0  0  0  0  0  0  0  0  0  0
   -1.5335   18.8485  -31.3238 H   0  0  0  0  0  0  0  0  0  0  0  0
   -0.0028   17.8201  -31.4061 H   0  0  0  0  0  0  0  0  0  0  0  0
   -0.7937   18.4838  -29.0779 H   0  0  0  0  0  0  0  0  0  0  0  0
    0.9164   18.8324  -29.5030 H   0  0  0  0  0  0  0  0  0  0  0  0
   -0.2970   20.1569  -29.5030 H   0  0  0  0  0  0  0  0  0  0  0  0
   -0.1477   21.5196  -31.0824 H   0  0  0  0  0  0  0  0  0  0  0  0
    0.2805   21.7314  -32.8418 H   0  0  0  0  0  0  0  0  0  0  0  0
   -2.3995   20.7956  -31.7121 H   0  0  0  0  0  0  0  0  0  0  0  0
   -2.0305   22.3809  -32.5020 H   0  0  0  0  0  0  0  0  0  0  0  0
   -2.1680   21.3760  -34.6000 H   0  0  0  0  0  0  0  0  0  0  0  0
    1.1540   17.8052  -35.5833 H   0  0  0  0  0  0  0  0  0  0  0  0
   -0.4151   17.8810  -36.4727 H   0  0  0  0  0  0  0  0  0  0  0  0
    1.4807   19.5234  -37.1804 H   0  0  0  0  0  0  0  0  0  0  0  0
   -0.1932   20.1764  -36.9281 H   0  0  0  0  0  0  0  0  0  0  0  0
    1.3578   20.2102  -34.4571 H   0  0  0  0  0  0  0  0  0  0  0  0
   -0.7562   21.6262  -35.5753 H   0  0  0  0  0  0  0  0  0  0  0  0
    0.1458   22.2025  -34.1759 H   0  0  0  0  0  0  0  0  0  0  0  0
    0.4202   22.9613  -37.1070 H   0  0  0  0  0  0  0  0  0  0  0  0
    0.5534   24.0146  -35.7080 H   0  0  0  0  0  0  0  0  0  0  0  0
    2.7563   23.0836  -37.0156 H   0  0  0  0  0  0  0  0  0  0  0  0
    2.7896   23.3140  -35.2495 H   0  0  0  0  0  0  0  0  0  0  0  0
    3.2593   21.1145  -33.9303 H   0  0  0  0  0  0  0  0  0  0  0  0
    3.9822   20.0025  -35.1418 H   0  0  0  0  0  0  0  0  0  0  0  0
    4.4274   21.7427  -35.1418 H   0  0  0  0  0  0  0  0  0  0  0  0
   -1.6299   16.2440  -34.7316 H   0  0  0  0  0  0  0  0  0  0  0  0
   -4.0304   15.7899  -34.3244 H   0  0  0  0  0  0  0  0  0  0  0  0
   -4.4371   21.2060  -33.0280 H   0  0  0  0  0  0  0  0  0  0  0  0
   -6.0189   22.6628  -32.3017 H   0  0  0  0  0  0  0  0  0  0  0  0
   -8.0048   23.9753  -31.5054 H   0  0  0  0  0  0  0  0  0  0  0  0
  -10.2265   22.8608  -31.2312 H   0  0  0  0  0  0  0  0  0  0  0  0
  -10.4858   20.4182  -31.7554 H   0  0  0  0  0  0  0  0  0  0  0  0
   -6.6292   15.7893  -32.7571 H   0  0  0  0  0  0  0  0  0  0  0  0
   -7.3791   16.3220  -34.3001 H   0  0  0  0  0  0  0  0  0  0  0  0
   -5.7248   15.6219  -34.3001 H   0  0  0  0  0  0  0  0  0  0  0  0
  1  2  1  0
  2  3  1  0
  3  4  1  0
  4  5  1  0
  3  6  1  0
  6  7  1  0
  7  8  1  0
  8  9  1  0
  9 10  2  0
 10 11  1  0
 11 12  1  0
 12 13  1  0
 13 14  1  0
 14 15  1  0
 15 16  1  0
 16 17  1  0
 17 18  1  0
 18 19  1  0
 10 20  1  0
 20 21  2  0
 21 22  1  0
 22 23  2  0
 23 24  1  0
 24 25  2  0
 25 26  1  0
 26 27  2  0
 27 28  1  0
 28 29  2  0
 29 30  1  0
 30 31  2  0
 31 32  1  0
 32 33  1  0
 33 34  2  0
 34 35  1  0
 23  9  1  0
 33 25  1  0
 18 14  1  0
 34 22  1  0
 31 26  1  0
  1 36  1  0
  1 37  1  0
  1 38  1  0
  2 39  1  0
  2 40  1  0
  3 41  1  0
  4 42  1  0
  4 43  1  0
  5 44  1  0
  5 45  1  0
  5 46  1  0
  6 47  1  0
  6 48  1  0
  7 49  1  0
  7 50  1  0
  8 51  1  0
 12 52  1  0
 12 53  1  0
 13 54  1  0
 13 55  1  0
 14 56  1  1
 15 57  1  0
 15 58  1  0
 16 59  1  0
 16 60  1  0
 17 61  1  0
 17 62  1  0
 19 63  1  0
 19 64  1  0
 19 65  1  0
 20 66  1  0
 21 67  1  0
 24 68  1  0
 27 69  1  0
 28 70  1  0
 29 71  1  0
 30 72  1  0
 35 73  1  0
 35 74  1  0
 35 75  1  0
M  CHG  2   3   1  34   1
M  END
>  <UniqueID>  (17) 
16

>  <SMILES>  (17) 
CC[NH+](CC)CCNc1c(OCC[C@@H]2CCCN2C)ccc2c1cc1c3ccccc3sc1[n+]2C

>  <Energy>  (17) 
134.4716543943563

>  <Genealogy>  (17) 
CC[NH+](CC)CCNc1c(OCCC2CCCN2C)ccc2c1cc1c3ccccc3sc1[n+]2C (protonated)
CC[NH+](CC)CCNc1c(OCC[C@@H]2CCCN2C)ccc2c1cc1c3ccccc3sc1[n+]2C (chirality)
CC[NH+](CC)CCNc1c(OCC[C@@H]2CCCN2C)ccc2c1cc1c3ccccc3sc1[n+]2C (3D coordinates assigned)
CC[NH+](CC)CCNc1c(OCC[C@@H]2CCCN2C)ccc2c1cc1c3ccccc3sc1[n+]2C (nonaromatic ring conformer: 134.4716543943563 kcal/mol)

>  <smiles>  (17) 
CCN(CC)CCNc1c(OCCC2CCCN2C)ccc2c1cc1c3ccccc3sc1[n+]2C

>  <score_type>  (17) 
oracle

>  <origin>  (17) 
adg

>  <m_score__min__energy>  (17) 
-9.6699999999999999

>  <m_primary>  (17) 
energy

$$$$
17:0
     RDKit          3D

 43 45  0  0  1  0  0  0  0  0999 V2000
   -5.9550   17.5890  -33.7530 C   0  0  0  0  0  0  0  0  0  0  0  0
   -5.7310   18.8390  -34.5740 C   0  0  0  0  0  0  0  0  0  0  0  0
   -4.7290   19.6490  -33.9910 O   0  0  0  0  0  0  0  0  0  0  0  0
   -3.5670   18.9230  -33.8500 C   0  0  0  0  0  0  0  0  0  0  0  0
   -2.4310   19.7380  -33.2820 C   0  0  0  0  0  0  0  0  0  0  0  0
   -2.5130   21.1340  -33.5830 N   0  0  0  0  0  0  0  0  0  0  0  0
   -3.3120   21.9520  -32.7110 C   0  0  0  0  0  0  0  0  0  0  0  0
   -2.7360   22.4890  -31.6070 N   0  0  0  0  0  0  0  0  0  0  0  0
   -3.4100   23.2600  -30.7460 C   0  0  0  0  0  0  0  0  0  0  0  0
   -4.7380   23.5000  -31.0160 C   0  0  0  0  0  0  0  0  0  0  0  0
   -5.1930   24.3040  -29.9990 C   0  0  0  0  0  0  0  0  0  0  0  0
   -4.1810   24.5460  -29.1410 N   0  0  0  0  0  0  0  0  0  0  0  0
   -3.1330   23.9110  -29.6130 N   0  0  0  0  0  0  0  0  0  0  0  0
   -1.8260   23.9140  -28.9800 C   0  0  0  0  0  0  0  0  0  0  0  0
   -5.3380   22.9520  -32.1460 C   0  0  0  0  0  0  0  0  0  0  0  0
   -6.5640   23.2110  -32.3390 N   0  0  0  0  0  0  0  0  0  0  0  0
   -7.5560   22.1980  -32.2110 C   0  0  0  0  0  0  0  0  0  0  0  0
   -8.8770   22.4660  -31.9230 C   0  0  0  0  0  0  0  0  0  0  0  0
   -9.8090   21.4550  -31.8070 C   0  0  0  0  0  0  0  0  0  0  0  0
   -9.3600   20.1450  -31.9930 C   0  0  0  0  0  0  0  0  0  0  0  0
   -8.0490   19.8490  -32.2800 C   0  0  0  0  0  0  0  0  0  0  0  0
   -7.1310   20.8770  -32.3920 C   0  0  0  0  0  0  0  0  0  0  0  0
   -4.6120   22.1940  -32.9630 N   0  0  0  0  0  0  0  0  0  0  0  0
   -5.9100   17.8401  -32.6830 H   0  0  0  0  0  0  0  0  0  0  0  0
   -6.9430   17.1672  -33.9894 H   0  0  0  0  0  0  0  0  0  0  0  0
   -5.1749   16.8504  -33.9894 H   0  0  0  0  0  0  0  0  0  0  0  0
   -5.4182   18.5527  -35.5890 H   0  0  0  0  0  0  0  0  0  0  0  0
   -6.6702   19.4106  -34.6101 H   0  0  0  0  0  0  0  0  0  0  0  0
   -3.7621   18.0755  -33.1764 H   0  0  0  0  0  0  0  0  0  0  0  0
   -3.2636   18.5874  -34.8526 H   0  0  0  0  0  0  0  0  0  0  0  0
   -2.4319   19.6187  -32.1885 H   0  0  0  0  0  0  0  0  0  0  0  0
   -1.5064   19.3647  -33.7464 H   0  0  0  0  0  0  0  0  0  0  0  0
   -2.0310   21.5650  -34.3830 H   0  0  0  0  0  0  0  0  0  0  0  0
   -6.2188   24.6888  -29.9004 H   0  0  0  0  0  0  0  0  0  0  0  0
   -1.9481   23.9137  -27.8868 H   0  0  0  0  0  0  0  0  0  0  0  0
   -1.2679   23.0171  -29.2869 H   0  0  0  0  0  0  0  0  0  0  0  0
   -1.2720   24.8134  -29.2869 H   0  0  0  0  0  0  0  0  0  0  0  0
   -9.1955   23.5094  -31.7824 H   0  0  0  0  0  0  0  0  0  0  0  0
  -10.8627   21.6716  -31.5774 H   0  0  0  0  0  0  0  0  0  0  0  0
  -10.0826   19.3201  -31.9065 H   0  0  0  0  0  0  0  0  0  0  0  0
   -7.7331   18.8046  -32.4192 H   0  0  0  0  0  0  0  0  0  0  0  0
   -6.0775   20.6587  -32.6210 H   0  0  0  0  0  0  0  0  0  0  0  0
   -5.0690   21.7870  -33.8090 H   0  0  0  0  0  0  0  0  0  0  0  0
  1  2  1  0
  2  3  1  0
  3  4  1  0
  4  5  1  0
  5  6  1  0
  6  7  1  0
  7  8  2  0
  8  9  1  0
  9 10  2  0
 10 11  1  0
 11 12  2  0
 12 13  1  0
 13 14  1  0
 10 15  1  0
 15 16  2  0
 16 17  1  0
 17 18  2  0
 18 19  1  0
 19 20  2  0
 20 21  1  0
 21 22  2  0
 15 23  1  0
 23  7  1  0
 13  9  1  0
 22 17  1  0
  1 24  1  0
  1 25  1  0
  1 26  1  0
  2 27  1  0
  2 28  1  0
  4 29  1  0
  4 30  1  0
  5 31  1  0
  5 32  1  0
  6 33  1  0
 11 34  1  0
 14 35  1  0
 14 36  1  0
 14 37  1  0
 18 38  1  0
 19 39  1  0
 20 40  1  0
 21 41  1  0
 22 42  1  0
 23 43  1  0
M  END
>  <smiles>  (18) 
CCOCCNc1nc2c(cnn2C)c(=Nc2ccccc2)[nH]1

>  <score_type>  (18) 
oracle

>  <origin>  (18) 
adg

>  <m_score__min__energy>  (18) 
-7.4500000000000002

>  <m_primary>  (18) 
energy

$$$$
18:0
     RDKit          3D

 51 53  0  0  0  0  0  0  0  0999 V2000
   -3.1040   23.0940  -29.0030 C   0  0  0  0  0  0  0  0  0  0  0  0
   -3.1970   21.5790  -29.2220 C   0  0  0  0  0  0  0  0  0  0  0  0
   -2.0410   21.0520  -29.9940 N   0  0  1  0  0  0  0  0  0  0  0  0
   -1.2110   20.1380  -29.1860 C   0  0  0  0  0  0  0  0  0  0  0  0
   -2.4600   20.4150  -31.2690 C   0  0  0  0  0  0  0  0  0  0  0  0
   -2.1510   21.2440  -32.5410 C   0  0  0  0  0  0  0  0  0  0  0  0
   -3.3160   21.3150  -33.4260 N   0  0  0  0  0  0  0  0  0  0  0  0
   -4.6160   20.8490  -33.0170 C   0  0  0  0  0  0  0  0  0  0  0  0
   -5.0760   19.5780  -33.4100 C   0  0  0  0  0  0  0  0  0  0  0  0
   -4.2480   18.6990  -34.1420 C   0  0  0  0  0  0  0  0  0  0  0  0
   -4.7270   17.4690  -34.5840 C   0  0  0  0  0  0  0  0  0  0  0  0
   -6.0360   17.0940  -34.3130 C   0  0  0  0  0  0  0  0  0  0  0  0
   -6.8610   17.9260  -33.5570 C   0  0  0  0  0  0  0  0  0  0  0  0
   -6.3860   19.1620  -33.0450 C   0  0  0  0  0  0  0  0  0  0  0  0
   -7.1610   19.9520  -32.2160 N   0  0  0  0  0  0  0  0  0  0  0  0
   -8.3930   19.4000  -31.6080 C   0  0  0  0  0  0  0  0  0  0  0  0
   -6.7630   21.2420  -31.9160 C   0  0  0  0  0  0  0  0  0  0  0  0
   -7.6330   22.1620  -31.2740 C   0  0  0  0  0  0  0  0  0  0  0  0
   -7.2040   23.4450  -30.9320 C   0  0  0  0  0  0  0  0  0  0  0  0
   -5.9070   23.8510  -31.2250 C   0  0  0  0  0  0  0  0  0  0  0  0
   -5.3730   25.5110  -30.8050 S   0  0  0  0  0  0  0  0  0  0  0  0
   -6.4800   25.6370  -29.3670 C   0  0  0  0  0  0  0  0  0  0  0  0
   -5.0410   22.9840  -31.8880 C   0  0  0  0  0  0  0  0  0  0  0  0
   -5.4600   21.6900  -32.2680 C   0  0  0  0  0  0  0  0  0  0  0  0
   -3.0908   23.3084  -27.9242 H   0  0  0  0  0  0  0  0  0  0  0  0
   -2.1808   23.4751  -29.4639 H   0  0  0  0  0  0  0  0  0  0  0  0
   -3.9737   23.5852  -29.4639 H   0  0  0  0  0  0  0  0  0  0  0  0
   -3.2256   21.0803  -28.2419 H   0  0  0  0  0  0  0  0  0  0  0  0
   -4.1104   21.3765  -29.8005 H   0  0  0  0  0  0  0  0  0  0  0  0
   -1.4280   21.8590  -30.2670 H   0  0  0  0  0  0  0  0  0  0  0  0
   -1.3865   20.3313  -28.1174 H   0  0  0  0  0  0  0  0  0  0  0  0
   -1.4788   19.0969  -29.4191 H   0  0  0  0  0  0  0  0  0  0  0  0
   -0.1489   20.3045  -29.4191 H   0  0  0  0  0  0  0  0  0  0  0  0
   -1.9413   19.4489  -31.3557 H   0  0  0  0  0  0  0  0  0  0  0  0
   -3.5546   20.3168  -31.2214 H   0  0  0  0  0  0  0  0  0  0  0  0
   -1.8644   22.2635  -32.2434 H   0  0  0  0  0  0  0  0  0  0  0  0
   -1.3311   20.7524  -33.0851 H   0  0  0  0  0  0  0  0  0  0  0  0
   -3.1710   21.5890  -34.4250 H   0  0  0  0  0  0  0  0  0  0  0  0
   -3.2111   18.9900  -34.3658 H   0  0  0  0  0  0  0  0  0  0  0  0
   -4.0677   16.7934  -35.1486 H   0  0  0  0  0  0  0  0  0  0  0  0
   -6.4233   16.1382  -34.6956 H   0  0  0  0  0  0  0  0  0  0  0  0
   -7.8977   17.6194  -33.3538 H   0  0  0  0  0  0  0  0  0  0  0  0
   -8.3095   19.4374  -30.5118 H   0  0  0  0  0  0  0  0  0  0  0  0
   -9.2597   19.9959  -31.9302 H   0  0  0  0  0  0  0  0  0  0  0  0
   -8.5252   18.3566  -31.9302 H   0  0  0  0  0  0  0  0  0  0  0  0
   -8.6643   21.8578  -31.0419 H   0  0  0  0  0  0  0  0  0  0  0  0
   -7.8945   24.1377  -30.4287 H   0  0  0  0  0  0  0  0  0  0  0  0
   -5.8886   25.5697  -28.4420 H   0  0  0  0  0  0  0  0  0  0  0  0
   -7.0088   26.6011  -29.3947 H   0  0  0  0  0  0  0  0  0  0  0  0
   -7.2120   24.8164  -29.3947 H   0  0  0  0  0  0  0  0  0  0  0  0
   -4.0167   23.3120  -32.1187 H   0  0  0  0  0  0  0  0  0  0  0  0
  1  2  1  0
  2  3  1  0
  3  4  1  0
  3  5  1  0
  5  6  1  0
  6  7  1  0
  7  8  1  0
  8  9  2  0
  9 10  1  0
 10 11  2  0
 11 12  1  0
 12 13  2  0
 13 14  1  0
 14 15  2  0
 15 16  1  0
 15 17  1  0
 17 18  2  0
 18 19  1  0
 19 20  2  0
 20 21  1  0
 21 22  1  0
 20 23  1  0
 23 24  2  0
 24  8  1  0
 14  9  1  0
 24 17  1  0
  1 25  1  0
  1 26  1  0
  1 27  1  0
  2 28  1  0
  2 29  1  0
  3 30  1  6
  4 31  1  0
  4 32  1  0
  4 33  1  0
  5 34  1  0
  5 35  1  0
  6 36  1  0
  6 37  1  0
  7 38  1  0
 10 39  1  0
 11 40  1  0
 12 41  1  0
 13 42  1  0
 16 43  1  0
 16 44  1  0
 16 45  1  0
 18 46  1  0
 19 47  1  0
 22 48  1  0
 22 49  1  0
 22 50  1  0
 23 51  1  0
M  CHG  2   3   1  15   1
M  END
>  <UniqueID>  (19) 
17

>  <SMILES>  (19) 
CC[N@@H+](C)CCNc1c2ccccc2[n+](C)c2ccc(SC)cc12

>  <Energy>  (19) 
77.63448136007437

>  <Genealogy>  (19) 
CC[NH+](C)CCNc1c2ccccc2[n+](C)c2ccc(SC)cc12 (protonated)
CC[N@@H+](C)CCNc1c2ccccc2[n+](C)c2ccc(SC)cc12 (chirality)
CC[N@@H+](C)CCNc1c2ccccc2[n+](C)c2ccc(SC)cc12 (3D coordinates assigned)
CC[N@@H+](C)CCNc1c2ccccc2[n+](C)c2ccc(SC)cc12 (optimized conformer: 77.63448136007437 kcal/mol)

>  <smiles>  (19) 
CCN(C)CCNc1c2ccccc2[n+](C)c2ccc(SC)cc12

>  <score_type>  (19) 
oracle

>  <origin>  (19) 
adg

>  <m_score__min__energy>  (19) 
-7.7699999999999996

>  <m_primary>  (19) 
energy

$$$$
19:0
     RDKit          3D

 55 55  0  0  0  0  0  0  0  0999 V2000
   -1.6220   26.3160  -25.2050 C   0  0  0  0  0  0  0  0  0  0  0  0
   -2.6620   25.5120  -25.9780 C   0  0  0  0  0  0  0  0  0  0  0  0
   -1.9980   24.5340  -26.8690 N   0  0  0  0  0  0  0  0  0  0  0  0
   -1.3210   25.2150  -27.9970 C   0  0  0  0  0  0  0  0  0  0  0  0
   -0.5330   24.2040  -28.8250 C   0  0  0  0  0  0  0  0  0  0  0  0
   -2.9560   23.5130  -27.3540 C   0  0  0  0  0  0  0  0  0  0  0  0
   -4.0800   24.1640  -28.1650 C   0  0  0  0  0  0  0  0  0  0  0  0
   -3.7860   23.9780  -29.9640 S   0  0  0  0  0  0  0  0  0  0  0  0
   -5.4400   24.4780  -30.4690 C   0  0  0  0  0  0  0  0  0  0  0  0
   -6.1150   25.7700  -29.7160 S   0  0  0  0  0  0  0  0  0  0  0  0
   -6.1770   23.7250  -31.4590 N   0  0  0  0  0  0  0  0  0  0  0  0
   -7.6160   23.4730  -31.3100 C   0  0  0  0  0  0  0  0  0  0  0  0
   -7.8340   22.0150  -30.8980 C   0  0  0  0  0  0  0  0  0  0  0  0
   -7.0780   21.1150  -31.7860 N   0  0  0  0  0  0  0  0  0  0  0  0
   -7.5950   19.8070  -32.0920 C   0  0  0  0  0  0  0  0  0  0  0  0
   -9.1120   19.6660  -32.7120 S   0  0  0  0  0  0  0  0  0  0  0  0
   -6.7640   18.6480  -31.8890 N   0  0  0  0  0  0  0  0  0  0  0  0
   -7.0100   17.3260  -32.4770 C   0  0  0  0  0  0  0  0  0  0  0  0
   -5.9480   16.9590  -33.5340 C   0  0  0  0  0  0  0  0  0  0  0  0
   -6.2500   15.6160  -34.2110 C   0  0  0  0  0  0  0  0  0  0  0  0
   -5.7750   18.0670  -34.5800 C   0  0  0  0  0  0  0  0  0  0  0  0
   -5.6600   21.4070  -32.0370 C   0  0  0  0  0  0  0  0  0  0  0  0
   -5.4890   22.8740  -32.4360 C   0  0  0  0  0  0  0  0  0  0  0  0
   -1.7878   26.1878  -24.1252 H   0  0  0  0  0  0  0  0  0  0  0  0
   -0.6147   25.9595  -25.4661 H   0  0  0  0  0  0  0  0  0  0  0  0
   -1.7133   27.3806  -25.4661 H   0  0  0  0  0  0  0  0  0  0  0  0
   -3.3073   24.9752  -25.2671 H   0  0  0  0  0  0  0  0  0  0  0  0
   -3.2645   26.2005  -26.5887 H   0  0  0  0  0  0  0  0  0  0  0  0
   -2.0752   25.6986  -28.6352 H   0  0  0  0  0  0  0  0  0  0  0  0
   -0.6282   25.9701  -27.5973 H   0  0  0  0  0  0  0  0  0  0  0  0
    0.0023   23.5172  -28.1528 H   0  0  0  0  0  0  0  0  0  0  0  0
   -1.2250   23.6309  -29.4595 H   0  0  0  0  0  0  0  0  0  0  0  0
    0.1918   24.7351  -29.4595 H   0  0  0  0  0  0  0  0  0  0  0  0
   -2.4228   22.7918  -27.9909 H   0  0  0  0  0  0  0  0  0  0  0  0
   -3.3978   23.0030  -26.4852 H   0  0  0  0  0  0  0  0  0  0  0  0
   -5.0351   23.6841  -27.9053 H   0  0  0  0  0  0  0  0  0  0  0  0
   -4.1092   25.2369  -27.9242 H   0  0  0  0  0  0  0  0  0  0  0  0
   -8.0276   24.1388  -30.5371 H   0  0  0  0  0  0  0  0  0  0  0  0
   -8.1249   23.6659  -32.2659 H   0  0  0  0  0  0  0  0  0  0  0  0
   -7.4910   21.8753  -29.8622 H   0  0  0  0  0  0  0  0  0  0  0  0
   -8.9053   21.7774  -30.9751 H   0  0  0  0  0  0  0  0  0  0  0  0
   -5.8860   18.7650  -31.3360 H   0  0  0  0  0  0  0  0  0  0  0  0
   -6.9904   16.5717  -31.6766 H   0  0  0  0  0  0  0  0  0  0  0  0
   -7.9908   17.3516  -32.9743 H   0  0  0  0  0  0  0  0  0  0  0  0
   -4.9956   16.8543  -32.9937 H   0  0  0  0  0  0  0  0  0  0  0  0
   -6.4226   14.8484  -33.4422 H   0  0  0  0  0  0  0  0  0  0  0  0
   -7.1482   15.7153  -34.8381 H   0  0  0  0  0  0  0  0  0  0  0  0
   -5.3957   15.3212  -34.8381 H   0  0  0  0  0  0  0  0  0  0  0  0
   -5.6245   19.0308  -34.0717 H   0  0  0  0  0  0  0  0  0  0  0  0
   -4.9008   17.8439  -35.2093 H   0  0  0  0  0  0  0  0  0  0  0  0
   -6.6756   18.1210  -35.2093 H   0  0  0  0  0  0  0  0  0  0  0  0
   -5.0802   21.2082  -31.1236 H   0  0  0  0  0  0  0  0  0  0  0  0
   -5.2995   20.7665  -32.8554 H   0  0  0  0  0  0  0  0  0  0  0  0
   -4.4188   23.1274  -32.4549 H   0  0  0  0  0  0  0  0  0  0  0  0
   -5.9197   23.0370  -33.4349 H   0  0  0  0  0  0  0  0  0  0  0  0
  1  2  1  0
  2  3  1  0
  3  4  1  0
  4  5  1  0
  3  6  1  0
  6  7  1  0
  7  8  1  0
  8  9  1  0
  9 10  2  0
  9 11  1  0
 11 12  1  0
 12 13  1  0
 13 14  1  0
 14 15  1  0
 15 16  2  0
 15 17  1  0
 17 18  1  0
 18 19  1  0
 19 20  1  0
 19 21  1  0
 14 22  1  0
 22 23  1  0
 23 11  1  0
  1 24  1  0
  1 25  1  0
  1 26  1  0
  2 27  1  0
  2 28  1  0
  4 29  1  0
  4 30  1  0
  5 31  1  0
  5 32  1  0
  5 33  1  0
  6 34  1  0
  6 35  1  0
  7 36  1  0
  7 37  1  0
 12 38  1  0
 12 39  1  0
 13 40  1  0
 13 41  1  0
 17 42  1  0
 18 43  1  0
 18 44  1  0
 19 45  1  0
 20 46  1  0
 20 47  1  0
 20 48  1  0
 21 49  1  0
 21 50  1  0
 21 51  1  0
 22 52  1  0
 22 53  1  0
 23 54  1  0
 23 55  1  0
M  END
>  <UniqueID>  (20) 
18

>  <SMILES>  (20) 
CCN(CC)CCSC(=S)N1CCN(C(=S)NCC(C)C)CC1

>  <Energy>  (20) 
44.2074766862335

>  <Genealogy>  (20) 
CCN(CC)CCSC(=S)N1CCN(C(=S)NCC(C)C)CC1 (3D coordinates assigned)
CCN(CC)CCSC(=S)N1CCN(C(=S)NCC(C)C)CC1 (nonaromatic ring conformer: 44.2074766862335 kcal/mol)

>  <smiles>  (20) 
CCN(CC)CCSC(=S)N1CCN(C(=S)NCC(C)C)CC1

>  <score_type>  (20) 
oracle

>  <origin>  (20) 
adg

>  <m_score__min__energy>  (20) 
-7.7400000000000002

>  <m_primary>  (20) 
energy

$$$$
20:0
     RDKit          3D

 47 49  0  0  0  0  0  0  0  0999 V2000
   -4.0740   20.6460  -32.5490 C   0  0  0  0  0  0  0  0  0  0  0  0
   -5.3600   20.7120  -33.1560 O   0  0  0  0  0  0  0  0  0  0  0  0
   -6.4590   19.9190  -32.7890 C   0  0  0  0  0  0  0  0  0  0  0  0
   -6.5370   18.5530  -33.1280 C   0  0  0  0  0  0  0  0  0  0  0  0
   -7.6300   17.7860  -32.7180 C   0  0  0  0  0  0  0  0  0  0  0  0
   -8.6530   18.3690  -31.9700 C   0  0  0  0  0  0  0  0  0  0  0  0
   -8.5910   19.7210  -31.6330 C   0  0  0  0  0  0  0  0  0  0  0  0
   -7.5030   20.5070  -32.0460 C   0  0  0  0  0  0  0  0  0  0  0  0
   -7.4470   21.8990  -31.6880 N   0  0  0  0  0  0  0  0  0  0  0  0
   -7.7150   22.3100  -30.3070 C   0  0  0  0  0  0  0  0  0  0  0  0
   -7.2300   23.7490  -30.0690 C   0  0  0  0  0  0  0  0  0  0  0  0
   -5.9650   24.0280  -30.7860 N   0  0  0  0  0  0  0  0  0  0  0  0
   -4.8130   23.2510  -30.2740 C   0  0  0  0  0  0  0  0  0  0  0  0
   -3.6280   24.1370  -29.9980 C   0  0  0  0  0  0  0  0  0  0  0  0
   -3.5910   25.2850  -30.5200 O   0  0  0  0  0  0  0  0  0  0  0  0
   -2.5350   23.6920  -29.1760 N   0  0  0  0  0  0  0  0  0  0  0  0
   -1.3330   24.4820  -28.9710 C   0  0  0  0  0  0  0  0  0  0  0  0
   -0.5200   23.7310  -27.9250 C   0  0  0  0  0  0  0  0  0  0  0  0
   -1.1030   22.3220  -27.8690 C   0  0  0  0  0  0  0  0  0  0  0  0
   -2.4950   22.4140  -28.4840 C   0  0  0  0  0  0  0  0  0  0  0  0
   -6.1080   23.9000  -32.2610 C   0  0  0  0  0  0  0  0  0  0  0  0
   -7.2200   22.9280  -32.7050 C   0  0  0  0  0  0  0  0  0  0  0  0
   -4.1844   20.6517  -31.4546 H   0  0  0  0  0  0  0  0  0  0  0  0
   -3.5680   19.7207  -32.8617 H   0  0  0  0  0  0  0  0  0  0  0  0
   -3.4759   21.5146  -32.8617 H   0  0  0  0  0  0  0  0  0  0  0  0
   -5.7332   18.0888  -33.7183 H   0  0  0  0  0  0  0  0  0  0  0  0
   -7.6842   16.7204  -32.9854 H   0  0  0  0  0  0  0  0  0  0  0  0
   -9.5104   17.7612  -31.6453 H   0  0  0  0  0  0  0  0  0  0  0  0
   -9.3991   20.1743  -31.0402 H   0  0  0  0  0  0  0  0  0  0  0  0
   -8.7972   22.2568  -30.1172 H   0  0  0  0  0  0  0  0  0  0  0  0
   -7.1764   21.6360  -29.6247 H   0  0  0  0  0  0  0  0  0  0  0  0
   -8.0018   24.4481  -30.4232 H   0  0  0  0  0  0  0  0  0  0  0  0
   -7.0475   23.8747  -28.9916 H   0  0  0  0  0  0  0  0  0  0  0  0
   -5.1077   22.7477  -29.3414 H   0  0  0  0  0  0  0  0  0  0  0  0
   -4.5238   22.5174  -31.0409 H   0  0  0  0  0  0  0  0  0  0  0  0
   -0.7654   24.5673  -29.9094 H   0  0  0  0  0  0  0  0  0  0  0  0
   -1.5703   25.5049  -28.6434 H   0  0  0  0  0  0  0  0  0  0  0  0
    0.5395   23.6946  -28.2186 H   0  0  0  0  0  0  0  0  0  0  0  0
   -0.5705   24.2266  -26.9442 H   0  0  0  0  0  0  0  0  0  0  0  0
   -0.4761   21.6265  -28.4463 H   0  0  0  0  0  0  0  0  0  0  0  0
   -1.1447   21.9458  -26.8362 H   0  0  0  0  0  0  0  0  0  0  0  0
   -2.6565   21.5886  -29.1930 H   0  0  0  0  0  0  0  0  0  0  0  0
   -3.2825   22.3411  -27.7195 H   0  0  0  0  0  0  0  0  0  0  0  0
   -6.3337   24.8944  -32.6735 H   0  0  0  0  0  0  0  0  0  0  0  0
   -5.1594   23.4888  -32.6366 H   0  0  0  0  0  0  0  0  0  0  0  0
   -8.1512   23.4923  -32.8613 H   0  0  0  0  0  0  0  0  0  0  0  0
   -6.9081   22.4381  -33.6392 H   0  0  0  0  0  0  0  0  0  0  0  0
  1  2  1  0
  2  3  1  0
  3  4  2  0
  4  5  1  0
  5  6  2  0
  6  7  1  0
  7  8  2  0
  8  9  1  0
  9 10  1  0
 10 11  1  0
 11 12  1  0
 12 13  1  0
 13 14  1  0
 14 15  2  0
 14 16  1  0
 16 17  1  0
 17 18  1  0
 18 19  1  0
 19 20  1  0
 12 21  1  0
 21 22  1  0
  8  3  1  0
 22  9  1  0
 20 16  1  0
  1 23  1  0
  1 24  1  0
  1 25  1  0
  4 26  1  0
  5 27  1  0
  6 28  1  0
  7 29  1  0
 10 30  1  0
 10 31  1  0
 11 32  1  0
 11 33  1  0
 13 34  1  0
 13 35  1  0
 17 36  1  0
 17 37  1  0
 18 38  1  0
 18 39  1  0
 19 40  1  0
 19 41  1  0
 20 42  1  0
 20 43  1  0
 21 44  1  0
 21 45  1  0
 22 46  1  0
 22 47  1  0
M  END
>  <UniqueID>  (21) 
19

>  <SMILES>  (21) 
COc1ccccc1N1CCN(CC(=O)N2CCCC2)CC1

>  <Energy>  (21) 
57.167324346384305

>  <Genealogy>  (21) 
COc1ccccc1N1CCN(CC(=O)N2CCCC2)CC1 (3D coordinates assigned)
COc1ccccc1N1CCN(CC(=O)N2CCCC2)CC1 (nonaromatic ring conformer: 57.167324346384305 kcal/mol)

>  <smiles>  (21) 
COc1ccccc1N1CCN(CC(=O)N2CCCC2)CC1

>  <score_type>  (21) 
oracle

>  <origin>  (21) 
adg

>  <m_score__min__energy>  (21) 
-7.6600000000000001

>  <m_primary>  (21) 
energy

$$$$
21:0
     RDKit          3D

 41 43  0  0  0  0  0  0  0  0999 V2000
   -8.7440   19.8440  -31.6030 C   0  0  0  0  0  0  0  0  0  0  0  0
   -8.8460   21.2280  -31.9220 O   0  0  0  0  0  0  0  0  0  0  0  0
   -7.9530   22.2130  -31.4760 C   0  0  0  0  0  0  0  0  0  0  0  0
   -7.6150   22.3670  -30.1180 C   0  0  0  0  0  0  0  0  0  0  0  0
   -6.7000   23.3500  -29.7260 C   0  0  0  0  0  0  0  0  0  0  0  0
   -6.1050   24.1870  -30.6820 C   0  0  0  0  0  0  0  0  0  0  0  0
   -5.0640   25.1980  -30.2750 C   0  0  0  0  0  0  0  0  0  0  0  0
   -3.7390   24.8490  -30.8170 N   0  0  0  0  0  0  0  0  0  0  0  0
   -3.1240   23.7040  -30.1280 C   0  0  0  0  0  0  0  0  0  0  0  0
   -3.1940   22.4770  -30.9820 C   0  0  0  0  0  0  0  0  0  0  0  0
   -2.1430   21.9030  -31.6640 C   0  0  0  0  0  0  0  0  0  0  0  0
   -2.6350   20.9370  -32.3970 O   0  0  0  0  0  0  0  0  0  0  0  0
   -3.9320   20.9110  -32.1850 C   0  0  0  0  0  0  0  0  0  0  0  0
   -4.8490   19.9910  -32.8640 C   0  0  0  0  0  0  0  0  0  0  0  0
   -5.8760   20.3230  -33.7300 C   0  0  0  0  0  0  0  0  0  0  0  0
   -6.4280   19.1820  -34.1840 N   0  0  0  0  0  0  0  0  0  0  0  0
   -5.7980   18.1560  -33.6350 N   0  0  0  0  0  0  0  0  0  0  0  0
   -6.0490   16.7600  -33.9720 C   0  0  0  0  0  0  0  0  0  0  0  0
   -4.8170   18.6110  -32.8330 C   0  0  0  0  0  0  0  0  0  0  0  0
   -4.3400   21.8490  -31.3050 N   0  0  0  0  0  0  0  0  0  0  0  0
   -6.4650   24.0520  -32.0320 C   0  0  0  0  0  0  0  0  0  0  0  0
   -7.3780   23.0670  -32.4240 C   0  0  0  0  0  0  0  0  0  0  0  0
   -8.7348   19.7193  -30.5101 H   0  0  0  0  0  0  0  0  0  0  0  0
   -9.6049   19.3058  -32.0262 H   0  0  0  0  0  0  0  0  0  0  0  0
   -7.8135   19.4378  -32.0262 H   0  0  0  0  0  0  0  0  0  0  0  0
   -8.0723   21.7117  -29.3620 H   0  0  0  0  0  0  0  0  0  0  0  0
   -6.4456   23.4674  -28.6623 H   0  0  0  0  0  0  0  0  0  0  0  0
   -5.3575   26.1876  -30.6552 H   0  0  0  0  0  0  0  0  0  0  0  0
   -4.9989   25.2070  -29.1770 H   0  0  0  0  0  0  0  0  0  0  0  0
   -3.1160   25.6770  -30.6620 H   0  0  0  0  0  0  0  0  0  0  0  0
   -2.0704   23.9350  -29.9124 H   0  0  0  0  0  0  0  0  0  0  0  0
   -3.6712   23.5170  -29.1923 H   0  0  0  0  0  0  0  0  0  0  0  0
   -1.0860   22.2016  -31.6034 H   0  0  0  0  0  0  0  0  0  0  0  0
   -6.1875   21.3427  -34.0006 H   0  0  0  0  0  0  0  0  0  0  0  0
   -7.2070   19.1070  -34.8760 H   0  0  0  0  0  0  0  0  0  0  0  0
   -6.1546   16.1729  -33.0478 H   0  0  0  0  0  0  0  0  0  0  0  0
   -6.9749   16.6858  -34.5613 H   0  0  0  0  0  0  0  0  0  0  0  0
   -5.2069   16.3679  -34.5613 H   0  0  0  0  0  0  0  0  0  0  0  0
   -4.1143   17.9927  -32.2552 H   0  0  0  0  0  0  0  0  0  0  0  0
   -6.0273   24.7237  -32.7852 H   0  0  0  0  0  0  0  0  0  0  0  0
   -7.6460   22.9630  -33.4858 H   0  0  0  0  0  0  0  0  0  0  0  0
  1  2  1  0
  2  3  1  0
  3  4  2  0
  4  5  1  0
  5  6  2  0
  6  7  1  0
  7  8  1  0
  8  9  1  0
  9 10  1  0
 10 11  2  0
 11 12  1  0
 12 13  1  0
 13 14  1  0
 14 15  1  0
 15 16  2  0
 16 17  1  0
 17 18  1  0
 17 19  1  0
 13 20  2  0
  6 21  1  0
 21 22  2  0
 22  3  1  0
 20 10  1  0
 19 14  2  0
  1 23  1  0
  1 24  1  0
  1 25  1  0
  4 26  1  0
  5 27  1  0
  7 28  1  0
  7 29  1  0
  8 30  1  0
  9 31  1  0
  9 32  1  0
 11 33  1  0
 15 34  1  0
 16 35  1  0
 18 36  1  0
 18 37  1  0
 18 38  1  0
 19 39  1  0
 21 40  1  0
 22 41  1  0
M  CHG  1  16   1
M  END
>  <UniqueID>  (22) 
20

>  <SMILES>  (22) 
COc1ccc(CNCc2coc(-c3c[nH+]n(C)c3)n2)cc1

>  <Energy>  (22) 
94.66983123773551

>  <Genealogy>  (22) 
COc1ccc(CNCc2coc(-c3c[nH+]n(C)c3)n2)cc1 (protonated)
COc1ccc(CNCc2coc(-c3c[nH+]n(C)c3)n2)cc1 (3D coordinates assigned)
COc1ccc(CNCc2coc(-c3c[nH+]n(C)c3)n2)cc1 (optimized conformer: 94.66983123773551 kcal/mol)

>  <smiles>  (22) 
COc1ccc(CNCc2coc(-c3cnn(C)c3)n2)cc1

>  <score_type>  (22) 
oracle

>  <origin>  (22) 
adg

>  <m_score__min__energy>  (22) 
-8.0199999999999996

>  <m_primary>  (22) 
energy

$$$$
22:0
     RDKit          3D

 53 54  0  0  0  0  0  0  0  0999 V2000
   -9.1941   20.0849  -33.3377 H   0  0  0  0  0  0  0  0  0  0  0  0
   -8.5340   19.5130  -32.6690 C   0  0  0  0  0  0  0  0  0  0  0  0
   -7.2020   19.6890  -32.7830 C   0  0  0  0  0  0  0  0  0  0  0  0
   -6.5760   21.0100  -32.5470 C   0  0  0  0  0  0  0  0  0  0  0  0
   -7.3830   22.1070  -32.2160 C   0  0  0  0  0  0  0  0  0  0  0  0
   -8.4779   22.0167  -32.2708 H   0  0  0  0  0  0  0  0  0  0  0  0
   -6.8050   23.3140  -31.8170 C   0  0  0  0  0  0  0  0  0  0  0  0
   -7.4442   24.1776  -31.5813 H   0  0  0  0  0  0  0  0  0  0  0  0
   -5.4050   23.4270  -31.7160 C   0  0  0  0  0  0  0  0  0  0  0  0
   -4.7840   24.5700  -31.1950 O   0  0  0  0  0  0  0  0  0  0  0  0
   -5.2440   25.2980  -30.0510 C   0  0  0  0  0  0  0  0  0  0  0  0
   -4.7536   26.2824  -30.0319 H   0  0  0  0  0  0  0  0  0  0  0  0
   -6.3359   25.4082  -30.1259 H   0  0  0  0  0  0  0  0  0  0  0  0
   -4.9190   24.5490  -28.7410 C   0  0  0  0  0  0  0  0  0  0  0  0
   -4.7731   25.2920  -27.9431 H   0  0  0  0  0  0  0  0  0  0  0  0
   -5.7644   23.8754  -28.5373 H   0  0  0  0  0  0  0  0  0  0  0  0
   -3.6960   23.7010  -28.8240 N   0  0  0  0  0  0  0  0  0  0  0  0
   -3.4100   23.6040  -29.8220 H   0  0  0  0  0  0  0  0  0  0  0  0
   -2.5720   24.3390  -28.0880 C   0  0  0  0  0  0  0  0  0  0  0  0
   -1.7884   23.5865  -27.9158 H   0  0  0  0  0  0  0  0  0  0  0  0
   -2.1972   25.1731  -28.6993 H   0  0  0  0  0  0  0  0  0  0  0  0
   -3.0170   24.9080  -26.7350 C   0  0  0  0  0  0  0  0  0  0  0  0
   -2.5598   24.3234  -25.9231 H   0  0  0  0  0  0  0  0  0  0  0  0
   -2.6977   25.9577  -26.6558 H   0  0  0  0  0  0  0  0  0  0  0  0
   -4.1127   24.8511  -26.6558 H   0  0  0  0  0  0  0  0  0  0  0  0
   -3.9650   22.3420  -28.2820 C   0  0  0  0  0  0  0  0  0  0  0  0
   -3.8250   22.3618  -27.1911 H   0  0  0  0  0  0  0  0  0  0  0  0
   -4.9971   22.0708  -28.5489 H   0  0  0  0  0  0  0  0  0  0  0  0
   -3.0300   21.2820  -28.8810 C   0  0  0  0  0  0  0  0  0  0  0  0
   -2.5390   20.7253  -28.0692 H   0  0  0  0  0  0  0  0  0  0  0  0
   -3.6141   20.5864  -29.5015 H   0  0  0  0  0  0  0  0  0  0  0  0
   -2.2670   21.7747  -29.5015 H   0  0  0  0  0  0  0  0  0  0  0  0
   -4.6010   22.3520  -32.1110 C   0  0  0  0  0  0  0  0  0  0  0  0
   -3.5063   22.4594  -32.1113 H   0  0  0  0  0  0  0  0  0  0  0  0
   -5.1800   21.1430  -32.5050 C   0  0  0  0  0  0  0  0  0  0  0  0
   -4.5395   20.2930  -32.7830 H   0  0  0  0  0  0  0  0  0  0  0  0
   -6.3110   18.5510  -33.1490 C   0  0  0  0  0  0  0  0  0  0  0  0
   -5.7500   18.4430  -34.4360 C   0  0  0  0  0  0  0  0  0  0  0  0
   -5.9447   19.2258  -35.1839 H   0  0  0  0  0  0  0  0  0  0  0  0
   -4.9480   17.3490  -34.7700 C   0  0  0  0  0  0  0  0  0  0  0  0
   -4.5086   17.2789  -35.7760 H   0  0  0  0  0  0  0  0  0  0  0  0
   -4.7020   16.3450  -33.8330 C   0  0  0  0  0  0  0  0  0  0  0  0
   -4.0701   15.4859  -34.1026 H   0  0  0  0  0  0  0  0  0  0  0  0
   -5.2570   16.4280  -32.5510 C   0  0  0  0  0  0  0  0  0  0  0  0
   -5.0150   15.3950  -31.5930 N   0  0  0  0  0  0  0  0  0  0  0  0
   -4.4850   14.5330  -31.8580 H   0  0  0  0  0  0  0  0  0  0  0  0
   -5.3740   15.4760  -30.6160 H   0  0  0  0  0  0  0  0  0  0  0  0
   -6.0580   17.5280  -32.2130 C   0  0  0  0  0  0  0  0  0  0  0  0
   -6.4942   17.5934  -31.2053 H   0  0  0  0  0  0  0  0  0  0  0  0
   -9.1630   18.5790  -31.6790 C   0  0  0  0  0  0  0  0  0  0  0  0
   -8.9343   18.9186  -30.6580 H   0  0  0  0  0  0  0  0  0  0  0  0
  -10.2530   18.5683  -31.8263 H   0  0  0  0  0  0  0  0  0  0  0  0
   -8.7631   17.5649  -31.8263 H   0  0  0  0  0  0  0  0  0  0  0  0
  1  2  1  0
  2  3  2  0
  3  4  1  0
  4  5  2  0
  5  6  1  0
  5  7  1  0
  7  8  1  0
  7  9  2  0
  9 10  1  0
 10 11  1  0
 11 12  1  0
 11 13  1  0
 11 14  1  0
 14 15  1  0
 14 16  1  0
 14 17  1  0
 17 18  1  0
 17 19  1  0
 19 20  1  0
 19 21  1  0
 19 22  1  0
 22 23  1  0
 22 24  1  0
 22 25  1  0
 17 26  1  0
 26 27  1  0
 26 28  1  0
 26 29  1  0
 29 30  1  0
 29 31  1  0
 29 32  1  0
  9 33  1  0
 33 34  1  0
 33 35  2  0
 35 36  1  0
  3 37  1  0
 37 38  2  0
 38 39  1  0
 38 40  1  0
 40 41  1  0
 40 42  2  0
 42 43  1  0
 42 44  1  0
 44 45  1  0
 45 46  1  0
 45 47  1  0
 44 48  2  0
 48 49  1  0
  2 50  1  0
 50 51  1  0
 50 52  1  0
 50 53  1  0
 35  4  1  0
 48 37  1  0
M  CHG  1  17   1
M  END
>  <UniqueID>  (23) 
21

>  <SMILES>  (23) 
C/C=C(\c1ccc(OCC[NH+](CC)CC)cc1)c1cccc(N)c1

>  <Energy>  (23) 
62.234875622686346

>  <Genealogy>  (23) 
CC=C(c1ccc(OCC[NH+](CC)CC)cc1)c1cccc(N)c1 (protonated)
C/C=C(\c1ccc(OCC[NH+](CC)CC)cc1)c1cccc(N)c1 (cis-trans isomerization)
C/C=C(\c1ccc(OCC[NH+](CC)CC)cc1)c1cccc(N)c1 (3D coordinates assigned)
C/C=C(\c1ccc(OCC[NH+](CC)CC)cc1)c1cccc(N)c1 (optimized conformer: 62.234875622686346 kcal/mol)

>  <smiles>  (23) 
CC=C(c1ccc(OCCN(CC)CC)cc1)c1cccc(N)c1

>  <score_type>  (23) 
oracle

>  <origin>  (23) 
adg

>  <m_score__min__energy>  (23) 
-7.4299999999999997

>  <m_primary>  (23) 
energy

$$$$
23:0
     RDKit          3D

 54 56  0  0  0  0  0  0  0  0999 V2000
   -6.2120   25.3600  -29.7920 C   0  0  0  0  0  0  0  0  0  0  0  0
   -5.0480   25.0270  -30.7230 C   0  0  0  0  0  0  0  0  0  0  0  0
   -3.8940   24.4860  -29.9750 N   0  0  0  0  0  0  0  0  0  0  0  0
   -4.2450   24.1670  -28.5810 C   0  0  0  0  0  0  0  0  0  0  0  0
   -3.1160   23.4190  -30.6570 C   0  0  0  0  0  0  0  0  0  0  0  0
   -3.9010   22.1600  -31.0970 C   0  0  0  0  0  0  0  0  0  0  0  0
   -3.4190   21.5550  -32.4190 C   0  0  0  0  0  0  0  0  0  0  0  0
   -4.5240   21.4410  -33.3700 N   0  0  0  0  0  0  0  0  0  0  0  0
   -5.6930   20.6800  -33.0350 C   0  0  0  0  0  0  0  0  0  0  0  0
   -6.8380   21.3260  -32.5400 C   0  0  0  0  0  0  0  0  0  0  0  0
   -6.8530   22.7240  -32.3570 C   0  0  0  0  0  0  0  0  0  0  0  0
   -8.0080   23.3720  -31.9240 C   0  0  0  0  0  0  0  0  0  0  0  0
   -9.1640   22.6410  -31.6780 C   0  0  0  0  0  0  0  0  0  0  0  0
   -9.1650   21.2550  -31.8290 C   0  0  0  0  0  0  0  0  0  0  0  0
   -7.9910   20.5600  -32.2250 C   0  0  0  0  0  0  0  0  0  0  0  0
   -7.9570   19.1810  -32.3220 N   0  0  0  0  0  0  0  0  0  0  0  0
   -9.0450   18.3710  -31.7280 C   0  0  0  0  0  0  0  0  0  0  0  0
   -6.8900   18.5570  -32.9430 C   0  0  0  0  0  0  0  0  0  0  0  0
   -6.9270   17.1820  -33.2920 C   0  0  0  0  0  0  0  0  0  0  0  0
   -5.8240   16.5390  -33.8680 C   0  0  0  0  0  0  0  0  0  0  0  0
   -5.9130   15.1380  -34.1950 N   0  0  0  0  0  0  0  0  0  0  0  0
   -5.0790   14.1100  -33.5790 C   0  0  0  0  0  0  0  0  0  0  0  0
   -4.6590   17.2760  -34.1170 C   0  0  0  0  0  0  0  0  0  0  0  0
   -4.6110   18.6370  -33.8280 C   0  0  0  0  0  0  0  0  0  0  0  0
   -5.7230   19.2950  -33.2660 C   0  0  0  0  0  0  0  0  0  0  0  0
   -5.8836   25.2661  -28.7464 H   0  0  0  0  0  0  0  0  0  0  0  0
   -6.5483   26.3904  -29.9795 H   0  0  0  0  0  0  0  0  0  0  0  0
   -7.0424   24.6634  -29.9795 H   0  0  0  0  0  0  0  0  0  0  0  0
   -5.3805   24.2787  -31.4575 H   0  0  0  0  0  0  0  0  0  0  0  0
   -4.7309   25.9535  -31.2241 H   0  0  0  0  0  0  0  0  0  0  0  0
   -3.6058   24.7479  -27.8998 H   0  0  0  0  0  0  0  0  0  0  0  0
   -5.2998   24.4221  -28.4009 H   0  0  0  0  0  0  0  0  0  0  0  0
   -4.0916   23.0927  -28.4009 H   0  0  0  0  0  0  0  0  0  0  0  0
   -2.6625   23.8604  -31.5567 H   0  0  0  0  0  0  0  0  0  0  0  0
   -2.3948   23.0626  -29.9068 H   0  0  0  0  0  0  0  0  0  0  0  0
   -3.8003   21.3974  -30.3107 H   0  0  0  0  0  0  0  0  0  0  0  0
   -4.9438   22.4736  -31.2523 H   0  0  0  0  0  0  0  0  0  0  0  0
   -2.6387   22.2008  -32.8481 H   0  0  0  0  0  0  0  0  0  0  0  0
   -3.0177   20.5500  -32.2218 H   0  0  0  0  0  0  0  0  0  0  0  0
   -4.5320   21.9940  -34.2570 H   0  0  0  0  0  0  0  0  0  0  0  0
   -5.9435   23.3091  -32.5581 H   0  0  0  0  0  0  0  0  0  0  0  0
   -8.0048   24.4621  -31.7769 H   0  0  0  0  0  0  0  0  0  0  0  0
  -10.0822   23.1582  -31.3628 H   0  0  0  0  0  0  0  0  0  0  0  0
  -10.0897   20.6905  -31.6384 H   0  0  0  0  0  0  0  0  0  0  0  0
   -8.9807   18.4189  -30.6309 H   0  0  0  0  0  0  0  0  0  0  0  0
  -10.0176   18.7666  -32.0559 H   0  0  0  0  0  0  0  0  0  0  0  0
   -8.9449   17.3258  -32.0559 H   0  0  0  0  0  0  0  0  0  0  0  0
   -7.8456   16.6063  -33.1054 H   0  0  0  0  0  0  0  0  0  0  0  0
   -6.6100   14.8290  -34.9100 H   0  0  0  0  0  0  0  0  0  0  0  0
   -5.1452   14.1916  -32.4840 H   0  0  0  0  0  0  0  0  0  0  0  0
   -5.4292   13.1161  -33.8944 H   0  0  0  0  0  0  0  0  0  0  0  0
   -4.0342   14.2478  -33.8944 H   0  0  0  0  0  0  0  0  0  0  0  0
   -3.7767   16.7763  -34.5435 H   0  0  0  0  0  0  0  0  0  0  0  0
   -3.6938   19.2056  -34.0410 H   0  0  0  0  0  0  0  0  0  0  0  0
  1  2  1  0
  2  3  1  0
  3  4  1  0
  3  5  1  0
  5  6  1  0
  6  7  1  0
  7  8  1  0
  8  9  1  0
  9 10  2  0
 10 11  1  0
 11 12  2  0
 12 13  1  0
 13 14  2  0
 14 15  1  0
 15 16  2  0
 16 17  1  0
 16 18  1  0
 18 19  2  0
 19 20  1  0
 20 21  1  0
 21 22  1  0
 20 23  2  0
 23 24  1  0
 24 25  2  0
 25  9  1  0
 15 10  1  0
 25 18  1  0
  1 26  1  0
  1 27  1  0
  1 28  1  0
  2 29  1  0
  2 30  1  0
  4 31  1  0
  4 32  1  0
  4 33  1  0
  5 34  1  0
  5 35  1  0
  6 36  1  0
  6 37  1  0
  7 38  1  0
  7 39  1  0
  8 40  1  0
 11 41  1  0
 12 42  1  0
 13 43  1  0
 14 44  1  0
 17 45  1  0
 17 46  1  0
 17 47  1  0
 19 48  1  0
 21 49  1  0
 22 50  1  0
 22 51  1  0
 22 52  1  0
 23 53  1  0
 24 54  1  0
M  CHG  1  16   1
M  END
>  <UniqueID>  (24) 
22

>  <SMILES>  (24) 
CCN(C)CCCNc1c2ccccc2[n+](C)c2cc(NC)ccc12

>  <Energy>  (24) 
83.15432377831223

>  <Genealogy>  (24) 
CCN(C)CCCNc1c2ccccc2[n+](C)c2cc(NC)ccc12 (3D coordinates assigned)
CCN(C)CCCNc1c2ccccc2[n+](C)c2cc(NC)ccc12 (optimized conformer: 83.15432377831223 kcal/mol)

>  <smiles>  (24) 
CCN(C)CCCNc1c2ccccc2[n+](C)c2cc(NC)ccc12

>  <score_type>  (24) 
oracle

>  <origin>  (24) 
adg

>  <m_score__min__energy>  (24) 
-8.6799999999999997

>  <m_primary>  (24) 
energy

$$$$
24:0
     RDKit          3D

 56 59  0  0  0  0  0  0  0  0999 V2000
   -6.6740   25.2040  -29.7140 C   0  0  0  0  0  0  0  0  0  0  0  0
   -5.5200   25.6240  -30.6240 C   0  0  0  0  0  0  0  0  0  0  0  0
   -4.5790   24.4990  -30.8390 N   0  0  0  0  0  0  0  0  0  0  0  0
   -4.1420   23.9180  -29.5470 C   0  0  0  0  0  0  0  0  0  0  0  0
   -2.6520   24.1520  -29.3090 C   0  0  0  0  0  0  0  0  0  0  0  0
   -5.1440   23.4660  -31.7460 C   0  0  0  0  0  0  0  0  0  0  0  0
   -4.1300   22.3400  -31.9580 C   0  0  0  0  0  0  0  0  0  0  0  0
   -4.2730   21.7300  -33.2800 N   0  0  0  0  0  0  0  0  0  0  0  0
   -4.1130   20.3170  -33.4400 C   0  0  0  0  0  0  0  0  0  0  0  0
   -2.8670   19.7500  -33.7900 C   0  0  0  0  0  0  0  0  0  0  0  0
   -1.7300   20.5650  -33.9540 C   0  0  0  0  0  0  0  0  0  0  0  0
   -0.4950   20.0040  -34.2670 C   0  0  0  0  0  0  0  0  0  0  0  0
   -0.3680   18.6270  -34.4110 C   0  0  0  0  0  0  0  0  0  0  0  0
   -1.4760   17.7940  -34.2550 C   0  0  0  0  0  0  0  0  0  0  0  0
   -2.7530   18.3290  -33.9600 C   0  0  0  0  0  0  0  0  0  0  0  0
   -3.8690   17.5130  -33.8200 N   0  0  0  0  0  0  0  0  0  0  0  0
   -3.7990   16.0640  -34.0850 C   0  0  0  0  0  0  0  0  0  0  0  0
   -5.0450   18.0870  -33.4100 C   0  0  0  0  0  0  0  0  0  0  0  0
   -6.2010   17.4410  -33.1090 N   0  0  0  0  0  0  0  0  0  0  0  0
   -7.0640   18.4130  -32.7490 C   0  0  0  0  0  0  0  0  0  0  0  0
   -8.3800   18.2460  -32.3230 C   0  0  0  0  0  0  0  0  0  0  0  0
   -9.1080   19.3920  -31.9590 C   0  0  0  0  0  0  0  0  0  0  0  0
   -8.5180   20.6770  -32.0310 C   0  0  0  0  0  0  0  0  0  0  0  0
   -9.2910   21.8820  -31.5830 C   0  0  0  0  0  0  0  0  0  0  0  0
   -7.1780   20.8120  -32.4520 C   0  0  0  0  0  0  0  0  0  0  0  0
   -6.4790   19.6580  -32.8120 C   0  0  0  0  0  0  0  0  0  0  0  0
   -5.1780   19.4500  -33.2290 C   0  0  0  0  0  0  0  0  0  0  0  0
   -6.3706   25.3144  -28.6624 H   0  0  0  0  0  0  0  0  0  0  0  0
   -7.5481   25.8416  -29.9123 H   0  0  0  0  0  0  0  0  0  0  0  0
   -6.9338   24.1537  -29.9123 H   0  0  0  0  0  0  0  0  0  0  0  0
   -5.9255   25.9448  -31.5949 H   0  0  0  0  0  0  0  0  0  0  0  0
   -4.9759   26.4500  -30.1428 H   0  0  0  0  0  0  0  0  0  0  0  0
   -4.7130   24.3867  -28.7320 H   0  0  0  0  0  0  0  0  0  0  0  0
   -4.3229   22.8333  -29.5753 H   0  0  0  0  0  0  0  0  0  0  0  0
   -2.4539   24.1831  -28.2274 H   0  0  0  0  0  0  0  0  0  0  0  0
   -2.0750   23.3335  -29.7641 H   0  0  0  0  0  0  0  0  0  0  0  0
   -2.3537   25.1080  -29.7641 H   0  0  0  0  0  0  0  0  0  0  0  0
   -6.0598   23.0514  -31.2993 H   0  0  0  0  0  0  0  0  0  0  0  0
   -5.3767   23.9280  -32.7168 H   0  0  0  0  0  0  0  0  0  0  0  0
   -3.1143   22.7513  -31.8624 H   0  0  0  0  0  0  0  0  0  0  0  0
   -4.3123   21.5647  -31.1992 H   0  0  0  0  0  0  0  0  0  0  0  0
   -4.4920   22.3060  -34.1230 H   0  0  0  0  0  0  0  0  0  0  0  0
   -1.8187   21.6548  -33.8336 H   0  0  0  0  0  0  0  0  0  0  0  0
    0.3834   20.6524  -34.4009 H   0  0  0  0  0  0  0  0  0  0  0  0
    0.6134   18.1912  -34.6497 H   0  0  0  0  0  0  0  0  0  0  0  0
   -1.3557   16.7059  -34.3628 H   0  0  0  0  0  0  0  0  0  0  0  0
   -3.7726   15.5176  -33.1307 H   0  0  0  0  0  0  0  0  0  0  0  0
   -4.6832   15.7535  -34.6610 H   0  0  0  0  0  0  0  0  0  0  0  0
   -2.8890   15.8401  -34.6610 H   0  0  0  0  0  0  0  0  0  0  0  0
   -6.4030   16.4180  -33.1020 H   0  0  0  0  0  0  0  0  0  0  0  0
   -8.8361   17.2463  -32.2730 H   0  0  0  0  0  0  0  0  0  0  0  0
  -10.1476   19.2893  -31.6144 H   0  0  0  0  0  0  0  0  0  0  0  0
   -9.3127   21.9158  -30.4837 H   0  0  0  0  0  0  0  0  0  0  0  0
   -8.8076   22.7918  -31.9684 H   0  0  0  0  0  0  0  0  0  0  0  0
  -10.3195   21.8219  -31.9684 H   0  0  0  0  0  0  0  0  0  0  0  0
   -6.6967   21.8002  -32.4955 H   0  0  0  0  0  0  0  0  0  0  0  0
  1  2  1  0
  2  3  1  0
  3  4  1  0
  4  5  1  0
  3  6  1  0
  6  7  1  0
  7  8  1  0
  8  9  1  0
  9 10  2  0
 10 11  1  0
 11 12  2  0
 12 13  1  0
 13 14  2  0
 14 15  1  0
 15 16  2  0
 16 17  1  0
 16 18  1  0
 18 19  1  0
 19 20  1  0
 20 21  2  0
 21 22  1  0
 22 23  2  0
 23 24  1  0
 23 25  1  0
 25 26  2  0
 26 27  1  0
 27  9  1  0
 15 10  1  0
 27 18  2  0
 26 20  1  0
  1 28  1  0
  1 29  1  0
  1 30  1  0
  2 31  1  0
  2 32  1  0
  4 33  1  0
  4 34  1  0
  5 35  1  0
  5 36  1  0
  5 37  1  0
  6 38  1  0
  6 39  1  0
  7 40  1  0
  7 41  1  0
  8 42  1  0
 11 43  1  0
 12 44  1  0
 13 45  1  0
 14 46  1  0
 17 47  1  0
 17 48  1  0
 17 49  1  0
 19 50  1  0
 21 51  1  0
 22 52  1  0
 24 53  1  0
 24 54  1  0
 24 55  1  0
 25 56  1  0
M  CHG  1  16   1
M  END
>  <UniqueID>  (25) 
23

>  <SMILES>  (25) 
CCN(CC)CCNc1c2ccccc2[n+](C)c2[nH]c3ccc(C)cc3c12

>  <Energy>  (25) 
111.50057498813135

>  <Genealogy>  (25) 
CCN(CC)CCNc1c2ccccc2[n+](C)c2[nH]c3ccc(C)cc3c12 (3D coordinates assigned)
CCN(CC)CCNc1c2ccccc2[n+](C)c2[nH]c3ccc(C)cc3c12 (optimized conformer: 111.50057498813135 kcal/mol)

>  <smiles>  (25) 
CCN(CC)CCNc1c2ccccc2[n+](C)c2[nH]c3ccc(C)cc3c12

>  <score_type>  (25) 
oracle

>  <origin>  (25) 
adg

>  <m_score__min__energy>  (25) 
-9.4299999999999997

>  <m_primary>  (25) 
energy

$$$$
25:0
     RDKit          3D

 39 40  0  0  0  0  0  0  0  0999 V2000
   -6.8020   17.4480  -33.2700 C   0  0  0  0  0  0  0  0  0  0  0  0
   -6.9470   18.2760  -32.0620 N   0  0  0  0  0  0  0  0  0  0  0  0
   -8.3080   18.3160  -31.4880 C   0  0  0  0  0  0  0  0  0  0  0  0
   -9.3820   18.9470  -32.3950 C   0  0  0  0  0  0  0  0  0  0  0  0
   -9.4930   20.4840  -32.3520 C   0  0  0  0  0  0  0  0  0  0  0  0
   -8.2110   21.1350  -32.0140 N   0  0  0  0  0  0  0  0  0  0  0  0
   -8.3070   22.6130  -31.9240 C   0  0  0  0  0  0  0  0  0  0  0  0
   -7.0610   23.3930  -32.4170 C   0  0  0  0  0  0  0  0  0  0  0  0
   -6.0910   23.7650  -31.3150 C   0  0  0  0  0  0  0  0  0  0  0  0
   -6.5170   24.6450  -30.3040 C   0  0  0  0  0  0  0  0  0  0  0  0
   -5.6480   25.0270  -29.2820 C   0  0  0  0  0  0  0  0  0  0  0  0
   -4.3480   24.5260  -29.2440 C   0  0  0  0  0  0  0  0  0  0  0  0
   -3.9080   23.6320  -30.2250 C   0  0  0  0  0  0  0  0  0  0  0  0
   -2.2590   23.0190  -30.1210 Cl  0  0  0  0  0  0  0  0  0  0  0  0
   -4.7760   23.2400  -31.2620 C   0  0  0  0  0  0  0  0  0  0  0  0
   -4.3190   22.2890  -32.2520 C   0  0  0  0  0  0  0  0  0  0  0  0
   -3.9510   21.5290  -33.0430 N   0  0  0  0  0  0  0  0  0  0  0  0
   -7.0920   20.6670  -32.8610 C   0  0  0  0  0  0  0  0  0  0  0  0
   -6.2770   19.5890  -32.1390 C   0  0  0  0  0  0  0  0  0  0  0  0
   -6.6190   16.4032  -32.9786 H   0  0  0  0  0  0  0  0  0  0  0  0
   -7.7240   17.5060  -33.8672 H   0  0  0  0  0  0  0  0  0  0  0  0
   -5.9546   17.8159  -33.8672 H   0  0  0  0  0  0  0  0  0  0  0  0
   -8.6142   17.2833  -31.2651 H   0  0  0  0  0  0  0  0  0  0  0  0
   -8.2454   18.9568  -30.5961 H   0  0  0  0  0  0  0  0  0  0  0  0
   -9.1587   18.6557  -33.4320 H   0  0  0  0  0  0  0  0  0  0  0  0
  -10.3442   18.5720  -32.0160 H   0  0  0  0  0  0  0  0  0  0  0  0
   -9.8206   20.8417  -33.3393 H   0  0  0  0  0  0  0  0  0  0  0  0
  -10.2173   20.7447  -31.5663 H   0  0  0  0  0  0  0  0  0  0  0  0
   -9.1688   22.9342  -32.5274 H   0  0  0  0  0  0  0  0  0  0  0  0
   -8.4050   22.8451  -30.8532 H   0  0  0  0  0  0  0  0  0  0  0  0
   -6.5292   22.7679  -33.1494 H   0  0  0  0  0  0  0  0  0  0  0  0
   -7.4267   24.3355  -32.8505 H   0  0  0  0  0  0  0  0  0  0  0  0
   -7.5452   25.0357  -30.3194 H   0  0  0  0  0  0  0  0  0  0  0  0
   -5.9896   25.7255  -28.5040 H   0  0  0  0  0  0  0  0  0  0  0  0
   -3.6652   24.8352  -28.4389 H   0  0  0  0  0  0  0  0  0  0  0  0
   -7.4967   20.2485  -33.7943 H   0  0  0  0  0  0  0  0  0  0  0  0
   -6.4332   21.5207  -33.0782 H   0  0  0  0  0  0  0  0  0  0  0  0
   -5.3247   19.4598  -32.6742 H   0  0  0  0  0  0  0  0  0  0  0  0
   -6.1397   19.9357  -31.1041 H   0  0  0  0  0  0  0  0  0  0  0  0
  1  2  1  0
  2  3  1  0
  3  4  1  0
  4  5  1  0
  5  6  1  0
  6  7  1  0
  7  8  1  0
  8  9  1  0
  9 10  2  0
 10 11  1  0
 11 12  2  0
 12 13  1  0
 13 14  1  0
 13 15  2  0
 15 16  1  0
 16 17  3  0
  6 18  1  0
 18 19  1  0
 19  2  1  0
 15  9  1  0
  1 20  1  0
  1 21  1  0
  1 22  1  0
  3 23  1  0
  3 24  1  0
  4 25  1  0
  4 26  1  0
  5 27  1  0
  5 28  1  0
  7 29  1  0
  7 30  1  0
  8 31  1  0
  8 32  1  0
 10 33  1  0
 11 34  1  0
 12 35  1  0
 18 36  1  0
 18 37  1  0
 19 38  1  0
 19 39  1  0
M  END
>  <UniqueID>  (26) 
24

>  <SMILES>  (26) 
CN1CCCN(CCc2cccc(Cl)c2C#N)CC1

>  <Energy>  (26) 
55.20069546646109

>  <Genealogy>  (26) 
CN1CCCN(CCc2cccc(Cl)c2C#N)CC1 (3D coordinates assigned)
CN1CCCN(CCc2cccc(Cl)c2C#N)CC1 (nonaromatic ring conformer: 55.20069546646109 kcal/mol)

>  <smiles>  (26) 
CN1CCCN(CCc2cccc(Cl)c2C#N)CC1

>  <score_type>  (26) 
oracle

>  <origin>  (26) 
adg

>  <m_score__min__energy>  (26) 
-5.4000000000000004

>  <m_primary>  (26) 
energy

$$$$
26:0
     RDKit          3D

 60 63  0  0  0  0  0  0  0  0999 V2000
   -6.5950   17.8390  -31.2900 C   0  0  0  0  0  0  0  0  0  0  0  0
   -8.0660   18.2380  -31.3390 C   0  0  0  0  0  0  0  0  0  0  0  0
   -8.2480   19.4920  -32.1080 N   0  0  0  0  0  0  0  0  0  0  0  0
   -9.5550   19.4610  -32.7940 C   0  0  0  0  0  0  0  0  0  0  0  0
   -8.1490   20.6680  -31.2070 C   0  0  0  0  0  0  0  0  0  0  0  0
   -8.3050   22.0140  -31.9430 C   0  0  0  0  0  0  0  0  0  0  0  0
   -7.1000   22.3870  -32.6880 N   0  0  0  0  0  0  0  0  0  0  0  0
   -5.7860   21.9210  -32.3300 C   0  0  0  0  0  0  0  0  0  0  0  0
   -5.2540   20.7800  -32.9520 C   0  0  0  0  0  0  0  0  0  0  0  0
   -6.0390   19.9950  -33.8250 C   0  0  0  0  0  0  0  0  0  0  0  0
   -5.5150   18.8450  -34.4110 C   0  0  0  0  0  0  0  0  0  0  0  0
   -4.2100   18.4550  -34.1350 C   0  0  0  0  0  0  0  0  0  0  0  0
   -3.4100   19.2260  -33.2930 C   0  0  0  0  0  0  0  0  0  0  0  0
   -3.9010   20.4210  -32.7090 C   0  0  0  0  0  0  0  0  0  0  0  0
   -3.1020   21.2290  -31.9230 N   0  0  0  0  0  0  0  0  0  0  0  0
   -1.6330   21.0510  -31.9320 C   0  0  0  0  0  0  0  0  0  0  0  0
   -3.6770   22.2140  -31.1410 C   0  0  0  0  0  0  0  0  0  0  0  0
   -2.9530   22.8630  -30.1090 C   0  0  0  0  0  0  0  0  0  0  0  0
   -3.5360   23.8690  -29.3240 C   0  0  0  0  0  0  0  0  0  0  0  0
   -2.7500   24.5430  -28.2570 C   0  0  0  0  0  0  0  0  0  0  0  0
   -3.2650   24.6620  -26.9540 C   0  0  0  0  0  0  0  0  0  0  0  0
   -2.5240   25.2970  -25.9530 C   0  0  0  0  0  0  0  0  0  0  0  0
   -1.2520   25.8270  -26.2380 C   0  0  0  0  0  0  0  0  0  0  0  0
   -0.4710   26.4730  -25.2680 O   0  0  0  0  0  0  0  0  0  0  0  0
   -0.7910   26.5240  -23.8820 C   0  0  0  0  0  0  0  0  0  0  0  0
   -0.7400   25.7100  -27.5350 C   0  0  0  0  0  0  0  0  0  0  0  0
   -1.4790   25.0740  -28.5360 C   0  0  0  0  0  0  0  0  0  0  0  0
   -4.8730   24.2140  -29.5440 C   0  0  0  0  0  0  0  0  0  0  0  0
   -5.6170   23.5680  -30.5260 C   0  0  0  0  0  0  0  0  0  0  0  0
   -5.0320   22.5800  -31.3430 C   0  0  0  0  0  0  0  0  0  0  0  0
   -6.2735   17.7518  -30.2417 H   0  0  0  0  0  0  0  0  0  0  0  0
   -6.4603   16.8719  -31.7965 H   0  0  0  0  0  0  0  0  0  0  0  0
   -5.9901   18.6055  -31.7965 H   0  0  0  0  0  0  0  0  0  0  0  0
   -8.6416   17.4336  -31.8202 H   0  0  0  0  0  0  0  0  0  0  0  0
   -8.4205   18.4015  -30.3106 H   0  0  0  0  0  0  0  0  0  0  0  0
  -10.3613   19.4419  -32.0460 H   0  0  0  0  0  0  0  0  0  0  0  0
   -9.6600   20.3569  -33.4235 H   0  0  0  0  0  0  0  0  0  0  0  0
   -9.6174   18.5611  -33.4235 H   0  0  0  0  0  0  0  0  0  0  0  0
   -8.9395   20.5924  -30.4459 H   0  0  0  0  0  0  0  0  0  0  0  0
   -7.1431   20.6542  -30.7620 H   0  0  0  0  0  0  0  0  0  0  0  0
   -9.1458   21.9356  -32.6479 H   0  0  0  0  0  0  0  0  0  0  0  0
   -8.4846   22.7912  -31.1855 H   0  0  0  0  0  0  0  0  0  0  0  0
   -7.1910   23.0780  -33.4660 H   0  0  0  0  0  0  0  0  0  0  0  0
   -7.0744   20.2946  -34.0444 H   0  0  0  0  0  0  0  0  0  0  0  0
   -6.1350   18.2448  -35.0931 H   0  0  0  0  0  0  0  0  0  0  0  0
   -3.8068   17.5346  -34.5826 H   0  0  0  0  0  0  0  0  0  0  0  0
   -2.3810   18.9019  -33.0782 H   0  0  0  0  0  0  0  0  0  0  0  0
   -1.2627   21.0061  -30.8972 H   0  0  0  0  0  0  0  0  0  0  0  0
   -1.3802   20.1157  -32.4528 H   0  0  0  0  0  0  0  0  0  0  0  0
   -1.1641   21.8989  -32.4528 H   0  0  0  0  0  0  0  0  0  0  0  0
   -1.9096   22.5708  -29.9194 H   0  0  0  0  0  0  0  0  0  0  0  0
   -4.2588   24.2522  -26.7205 H   0  0  0  0  0  0  0  0  0  0  0  0
   -2.9374   25.3828  -24.9373 H   0  0  0  0  0  0  0  0  0  0  0  0
    0.1238   26.3782  -23.2889 H   0  0  0  0  0  0  0  0  0  0  0  0
   -1.2307   27.5036  -23.6430 H   0  0  0  0  0  0  0  0  0  0  0  0
   -1.5134   25.7297  -23.6430 H   0  0  0  0  0  0  0  0  0  0  0  0
    0.2527   26.1222  -27.7686 H   0  0  0  0  0  0  0  0  0  0  0  0
   -1.0626   24.9883  -29.5505 H   0  0  0  0  0  0  0  0  0  0  0  0
   -5.3402   25.0025  -28.9358 H   0  0  0  0  0  0  0  0  0  0  0  0
   -6.6756   23.8318  -30.6666 H   0  0  0  0  0  0  0  0  0  0  0  0
  1  2  1  0
  2  3  1  0
  3  4  1  0
  3  5  1  0
  5  6  1  0
  6  7  1  0
  7  8  1  0
  8  9  2  0
  9 10  1  0
 10 11  2  0
 11 12  1  0
 12 13  2  0
 13 14  1  0
 14 15  2  0
 15 16  1  0
 15 17  1  0
 17 18  2  0
 18 19  1  0
 19 20  1  0
 20 21  2  0
 21 22  1  0
 22 23  2  0
 23 24  1  0
 24 25  1  0
 23 26  1  0
 26 27  2  0
 19 28  2  0
 28 29  1  0
 29 30  2  0
 30  8  1  0
 14  9  1  0
 30 17  1  0
 27 20  1  0
  1 31  1  0
  1 32  1  0
  1 33  1  0
  2 34  1  0
  2 35  1  0
  4 36  1  0
  4 37  1  0
  4 38  1  0
  5 39  1  0
  5 40  1  0
  6 41  1  0
  6 42  1  0
  7 43  1  0
 10 44  1  0
 11 45  1  0
 12 46  1  0
 13 47  1  0
 16 48  1  0
 16 49  1  0
 16 50  1  0
 18 51  1  0
 21 52  1  0
 22 53  1  0
 25 54  1  0
 25 55  1  0
 25 56  1  0
 26 57  1  0
 27 58  1  0
 28 59  1  0
 29 60  1  0
M  CHG  1  15   1
M  END
>  <UniqueID>  (27) 
25

>  <SMILES>  (27) 
CCN(C)CCNc1c2ccccc2[n+](C)c2cc(-c3ccc(OC)cc3)ccc12

>  <Energy>  (27) 
90.42004552431749

>  <Genealogy>  (27) 
CCN(C)CCNc1c2ccccc2[n+](C)c2cc(-c3ccc(OC)cc3)ccc12 (3D coordinates assigned)
CCN(C)CCNc1c2ccccc2[n+](C)c2cc(-c3ccc(OC)cc3)ccc12 (optimized conformer: 90.42004552431749 kcal/mol)

>  <smiles>  (27) 
CCN(C)CCNc1c2ccccc2[n+](C)c2cc(-c3ccc(OC)cc3)ccc12

>  <score_type>  (27) 
oracle

>  <origin>  (27) 
adg

>  <m_score__min__energy>  (27) 
-8.6400000000000006

>  <m_primary>  (27) 
energy

$$$$
