0:0
     RDKit          3D

 39 41  0  0  0  0  0  0  0  0999 V2000
   -6.1470   16.6880  -33.1190 C   0  0  0  0  0  0  0  0  0  0  0  0
   -6.9330   17.9130  -32.7770 C   0  0  0  0  0  0  0  0  0  0  0  0
   -8.1930   17.7900  -32.2570 N   0  0  0  0  0  0  0  0  0  0  0  0
   -8.9240   18.8870  -31.9110 C   0  0  0  0  0  0  0  0  0  0  0  0
   -8.3600   20.1430  -32.0980 C   0  0  0  0  0  0  0  0  0  0  0  0
   -7.1100   20.2480  -32.6050 C   0  0  0  0  0  0  0  0  0  0  0  0
   -6.3800   19.1540  -32.9400 N   0  0  0  0  0  0  0  0  0  0  0  0
   -6.6920   21.6620  -32.6800 C   0  0  0  0  0  0  0  0  0  0  0  0
   -7.8960   22.4440  -32.2980 N   0  0  0  0  0  0  0  0  0  0  0  0
   -7.5700   23.5030  -31.3230 C   0  0  0  0  0  0  0  0  0  0  0  0
   -7.1340   22.8910  -29.9800 C   0  0  0  0  0  0  0  0  0  0  0  0
   -5.9810   23.6180  -29.4030 N   0  0  0  0  0  0  0  0  0  0  0  0
   -6.1060   25.0840  -29.6060 C   0  0  0  0  0  0  0  0  0  0  0  0
   -5.2540   25.5720  -30.7920 C   0  0  0  0  0  0  0  0  0  0  0  0
   -3.8660   25.3010  -30.6490 O   0  0  0  0  0  0  0  0  0  0  0  0
   -3.5860   24.1600  -29.8500 C   0  0  0  0  0  0  0  0  0  0  0  0
   -4.6890   23.0890  -29.9030 C   0  0  0  0  0  0  0  0  0  0  0  0
   -8.9050   21.4790  -31.7880 C   0  0  0  0  0  0  0  0  0  0  0  0
   -5.8261   16.1879  -32.1933 H   0  0  0  0  0  0  0  0  0  0  0  0
   -6.7742   16.0024  -33.7077 H   0  0  0  0  0  0  0  0  0  0  0  0
   -5.2624   16.9724  -33.7077 H   0  0  0  0  0  0  0  0  0  0  0  0
   -9.9362   18.7806  -31.4937 H   0  0  0  0  0  0  0  0  0  0  0  0
   -5.4120   19.2650  -33.3170 H   0  0  0  0  0  0  0  0  0  0  0  0
   -5.8664   21.8580  -31.9800 H   0  0  0  0  0  0  0  0  0  0  0  0
   -6.3278   21.9308  -33.6826 H   0  0  0  0  0  0  0  0  0  0  0  0
   -6.7514   24.1206  -31.7210 H   0  0  0  0  0  0  0  0  0  0  0  0
   -8.4664   24.1184  -31.1566 H   0  0  0  0  0  0  0  0  0  0  0  0
   -7.9766   22.9393  -29.2746 H   0  0  0  0  0  0  0  0  0  0  0  0
   -6.8317   21.8483  -30.1571 H   0  0  0  0  0  0  0  0  0  0  0  0
   -7.1607   25.3277  -29.8013 H   0  0  0  0  0  0  0  0  0  0  0  0
   -5.7457   25.5869  -28.6965 H   0  0  0  0  0  0  0  0  0  0  0  0
   -5.6126   25.0743  -31.7051 H   0  0  0  0  0  0  0  0  0  0  0  0
   -5.3646   26.6654  -30.8385 H   0  0  0  0  0  0  0  0  0  0  0  0
   -2.6463   23.7099  -30.2026 H   0  0  0  0  0  0  0  0  0  0  0  0
   -3.5180   24.5036  -28.8073 H   0  0  0  0  0  0  0  0  0  0  0  0
   -4.8167   22.7579  -30.9442 H   0  0  0  0  0  0  0  0  0  0  0  0
   -4.3869   22.2487  -29.2606 H   0  0  0  0  0  0  0  0  0  0  0  0
   -9.0377   21.5983  -30.7026 H   0  0  0  0  0  0  0  0  0  0  0  0
   -9.8913   21.6359  -32.2491 H   0  0  0  0  0  0  0  0  0  0  0  0
  1  2  1  0
  2  3  2  0
  3  4  1  0
  4  5  2  0
  5  6  1  0
  6  7  2  0
  6  8  1  0
  8  9  1  0
  9 10  1  0
 10 11  1  0
 11 12  1  0
 12 13  1  0
 13 14  1  0
 14 15  1  0
 15 16  1  0
 16 17  1  0
  9 18  1  0
  7  2  1  0
 17 12  1  0
 18  5  1  0
  1 19  1  0
  1 20  1  0
  1 21  1  0
  4 22  1  0
  7 23  1  0
  8 24  1  0
  8 25  1  0
 10 26  1  0
 10 27  1  0
 11 28  1  0
 11 29  1  0
 13 30  1  0
 13 31  1  0
 14 32  1  0
 14 33  1  0
 16 34  1  0
 16 35  1  0
 17 36  1  0
 17 37  1  0
 18 38  1  0
 18 39  1  0
M  CHG  1   7   1
M  END
>  <UniqueID>  (1) 
1

>  <SMILES>  (1) 
Cc1ncc2c([nH+]1)CN(CCN1CCOCC1)C2

>  <Energy>  (1) 
66.33126103983302

>  <Genealogy>  (1) 
Cc1ncc2c([nH+]1)CN(CCN1CCOCC1)C2 (protonated)
Cc1ncc2c([nH+]1)CN(CCN1CCOCC1)C2 (3D coordinates assigned)
Cc1ncc2c([nH+]1)CN(CCN1CCOCC1)C2 (nonaromatic ring conformer: 66.33126103983302 kcal/mol)

>  <smiles>  (1) 
Cc1ncc2c(n1)CN(CCN1CCOCC1)C2

>  <score_type>  (1) 
oracle

>  <origin>  (1) 
adg

>  <m_score__min__energy>  (1) 
-7.4299999999999997

>  <m_primary>  (1) 
energy

$$$$
1:0
     RDKit          3D

 47 47  0  0  0  0  0  0  0  0999 V2000
   -0.1760   20.4270  -34.9660 C   0  0  0  0  0  0  0  0  0  0  0  0
   -1.5200   20.1850  -34.2730 C   0  0  0  0  0  0  0  0  0  0  0  0
   -2.1640   21.4380  -33.8370 N   0  0  0  0  0  0  0  0  0  0  0  0
   -2.1160   21.6130  -32.3760 C   0  0  0  0  0  0  0  0  0  0  0  0
   -3.4810   21.3190  -31.7330 C   0  0  0  0  0  0  0  0  0  0  0  0
   -4.5050   21.1890  -32.7220 O   0  0  0  0  0  0  0  0  0  0  0  0
   -5.8760   20.9990  -32.4580 C   0  0  0  0  0  0  0  0  0  0  0  0
   -6.4520   19.7140  -32.4190 C   0  0  0  0  0  0  0  0  0  0  0  0
   -7.8240   19.5510  -32.2080 C   0  0  0  0  0  0  0  0  0  0  0  0
   -8.4160   18.1750  -32.1160 C   0  0  0  0  0  0  0  0  0  0  0  0
   -8.6340   20.6770  -32.0360 C   0  0  0  0  0  0  0  0  0  0  0  0
   -8.0920   21.9690  -32.0950 C   0  0  0  0  0  0  0  0  0  0  0  0
   -9.0400   23.1330  -31.9700 C   0  0  0  0  0  0  0  0  0  0  0  0
   -6.6910   22.1300  -32.2440 C   0  0  0  0  0  0  0  0  0  0  0  0
   -5.9380   23.7780  -32.3140 S   0  0  0  0  0  0  0  0  0  0  0  0
   -5.6780   24.1060  -30.5120 C   0  0  0  0  0  0  0  0  0  0  0  0
   -4.1910   24.4470  -30.3270 C   0  0  0  0  0  0  0  0  0  0  0  0
   -6.0050   22.8550  -29.6840 C   0  0  0  0  0  0  0  0  0  0  0  0
   -6.5230   25.2950  -30.0240 C   0  0  0  0  0  0  0  0  0  0  0  0
    0.6077   20.5681  -34.2071 H   0  0  0  0  0  0  0  0  0  0  0  0
    0.0740   19.5594  -35.5943 H   0  0  0  0  0  0  0  0  0  0  0  0
   -0.2443   21.3273  -35.5943 H   0  0  0  0  0  0  0  0  0  0  0  0
   -2.1913   19.6691  -34.9753 H   0  0  0  0  0  0  0  0  0  0  0  0
   -1.3291   19.5775  -33.3761 H   0  0  0  0  0  0  0  0  0  0  0  0
   -1.6580   22.2300  -34.2940 H   0  0  0  0  0  0  0  0  0  0  0  0
   -3.1580   21.4570  -34.1640 H   0  0  0  0  0  0  0  0  0  0  0  0
   -1.3670   20.9249  -31.9571 H   0  0  0  0  0  0  0  0  0  0  0  0
   -1.8484   22.6579  -32.1601 H   0  0  0  0  0  0  0  0  0  0  0  0
   -3.4134   20.3812  -31.1621 H   0  0  0  0  0  0  0  0  0  0  0  0
   -3.7414   22.1593  -31.0727 H   0  0  0  0  0  0  0  0  0  0  0  0
   -5.8143   18.8283  -32.5563 H   0  0  0  0  0  0  0  0  0  0  0  0
   -8.5355   17.8972  -31.0584 H   0  0  0  0  0  0  0  0  0  0  0  0
   -9.3982   18.1646  -32.6111 H   0  0  0  0  0  0  0  0  0  0  0  0
   -7.7482   17.4547  -32.6111 H   0  0  0  0  0  0  0  0  0  0  0  0
   -9.7108   20.5480  -31.8519 H   0  0  0  0  0  0  0  0  0  0  0  0
   -9.2164   23.3496  -30.9061 H   0  0  0  0  0  0  0  0  0  0  0  0
   -8.6015   24.0169  -32.4563 H   0  0  0  0  0  0  0  0  0  0  0  0
   -9.9943   22.8825  -32.4563 H   0  0  0  0  0  0  0  0  0  0  0  0
   -3.9579   24.5005  -29.2533 H   0  0  0  0  0  0  0  0  0  0  0  0
   -3.5746   23.6669  -30.7976 H   0  0  0  0  0  0  0  0  0  0  0  0
   -3.9761   25.4177  -30.7976 H   0  0  0  0  0  0  0  0  0  0  0  0
   -5.9417   23.0973  -28.6129 H   0  0  0  0  0  0  0  0  0  0  0  0
   -7.0228   22.5128  -29.9230 H   0  0  0  0  0  0  0  0  0  0  0  0
   -5.2849   22.0586  -29.9230 H   0  0  0  0  0  0  0  0  0  0  0  0
   -6.5338   25.3102  -28.9242 H   0  0  0  0  0  0  0  0  0  0  0  0
   -6.0876   26.2328  -30.3994 H   0  0  0  0  0  0  0  0  0  0  0  0
   -7.5518   25.1923  -30.3994 H   0  0  0  0  0  0  0  0  0  0  0  0
  1  2  1  0
  2  3  1  0
  3  4  1  0
  4  5  1  0
  5  6  1  0
  6  7  1  0
  7  8  2  0
  8  9  1  0
  9 10  1  0
  9 11  2  0
 11 12  1  0
 12 13  1  0
 12 14  2  0
 14 15  1  0
 15 16  1  0
 16 17  1  0
 16 18  1  0
 16 19  1  0
 14  7  1  0
  1 20  1  0
  1 21  1  0
  1 22  1  0
  2 23  1  0
  2 24  1  0
  3 25  1  0
  3 26  1  0
  4 27  1  0
  4 28  1  0
  5 29  1  0
  5 30  1  0
  8 31  1  0
 10 32  1  0
 10 33  1  0
 10 34  1  0
 11 35  1  0
 13 36  1  0
 13 37  1  0
 13 38  1  0
 17 39  1  0
 17 40  1  0
 17 41  1  0
 18 42  1  0
 18 43  1  0
 18 44  1  0
 19 45  1  0
 19 46  1  0
 19 47  1  0
M  CHG  1   3   1
M  END
>  <UniqueID>  (2) 
2

>  <SMILES>  (2) 
CC[NH2+]CCOc1cc(C)cc(C)c1SC(C)(C)C

>  <Energy>  (2) 
35.16387326282358

>  <Genealogy>  (2) 
CC[NH2+]CCOc1cc(C)cc(C)c1SC(C)(C)C (protonated)
CC[NH2+]CCOc1cc(C)cc(C)c1SC(C)(C)C (3D coordinates assigned)
CC[NH2+]CCOc1cc(C)cc(C)c1SC(C)(C)C (optimized conformer: 35.16387326282358 kcal/mol)

>  <smiles>  (2) 
CCNCCOc1cc(C)cc(C)c1SC(C)(C)C

>  <score_type>  (2) 
oracle

>  <origin>  (2) 
adg

>  <m_score__min__energy>  (2) 
-6.1399999999999997

>  <m_primary>  (2) 
energy

$$$$
2:0
     RDKit          3D

 46 45  0  0  0  0  0  0  0  0999 V2000
   -8.3599   20.9987  -30.0609 H   0  0  0  0  0  0  0  0  0  0  0  0
   -8.4850   21.6370  -30.9480 C   0  0  0  0  0  0  0  0  0  0  0  0
   -7.6590   22.7000  -31.0770 C   0  0  0  0  0  0  0  0  0  0  0  0
   -7.6080   23.4060  -32.4060 C   0  0  0  0  0  0  0  0  0  0  0  0
   -7.5296   24.4909  -32.2421 H   0  0  0  0  0  0  0  0  0  0  0  0
   -6.7327   23.0567  -32.9734 H   0  0  0  0  0  0  0  0  0  0  0  0
   -8.5244   23.1861  -32.9734 H   0  0  0  0  0  0  0  0  0  0  0  0
   -6.8440   23.2590  -29.9270 C   0  0  0  0  0  0  0  0  0  0  0  0
   -5.8191   22.8636  -29.9835 H   0  0  0  0  0  0  0  0  0  0  0  0
   -7.3136   22.9592  -28.9786 H   0  0  0  0  0  0  0  0  0  0  0  0
   -6.7990   24.7930  -29.9970 C   0  0  0  0  0  0  0  0  0  0  0  0
   -7.0056   25.1966  -28.9948 H   0  0  0  0  0  0  0  0  0  0  0  0
   -7.5542   25.1129  -30.7300 H   0  0  0  0  0  0  0  0  0  0  0  0
   -5.4390   25.3290  -30.4710 C   0  0  0  0  0  0  0  0  0  0  0  0
   -5.2927   26.3357  -30.0526 H   0  0  0  0  0  0  0  0  0  0  0  0
   -5.4532   25.3426  -31.5708 H   0  0  0  0  0  0  0  0  0  0  0  0
   -4.2720   24.4460  -30.0370 C   0  0  0  0  0  0  0  0  0  0  0  0
   -4.2268   24.4118  -28.9385 H   0  0  0  0  0  0  0  0  0  0  0  0
   -4.4160   23.4287  -30.4299 H   0  0  0  0  0  0  0  0  0  0  0  0
   -3.3322   24.8612  -30.4299 H   0  0  0  0  0  0  0  0  0  0  0  0
   -9.5620   21.2640  -31.9290 C   0  0  0  0  0  0  0  0  0  0  0  0
  -10.4776   20.9900  -31.3843 H   0  0  0  0  0  0  0  0  0  0  0  0
   -9.7748   22.1184  -32.5883 H   0  0  0  0  0  0  0  0  0  0  0  0
   -9.1230   20.1630  -32.7020 O   0  0  0  0  0  0  0  0  0  0  0  0
   -8.7800   19.0780  -31.8650 C   0  0  0  0  0  0  0  0  0  0  0  0
   -8.8085   19.4054  -30.8152 H   0  0  0  0  0  0  0  0  0  0  0  0
   -9.4995   18.2610  -32.0225 H   0  0  0  0  0  0  0  0  0  0  0  0
   -7.3640   18.5740  -32.2030 C   0  0  0  0  0  0  0  0  0  0  0  0
   -6.7014   18.8542  -31.3708 H   0  0  0  0  0  0  0  0  0  0  0  0
   -7.4684   17.4898  -32.3566 H   0  0  0  0  0  0  0  0  0  0  0  0
   -6.7580   19.0960  -33.4610 N   0  0  0  0  0  0  0  0  0  0  0  0
   -7.6110   19.3500  -34.0200 H   0  0  0  0  0  0  0  0  0  0  0  0
   -6.0560   20.4070  -33.3600 C   0  0  0  0  0  0  0  0  0  0  0  0
   -5.4772   20.5518  -34.2841 H   0  0  0  0  0  0  0  0  0  0  0  0
   -6.8454   21.1569  -33.2039 H   0  0  0  0  0  0  0  0  0  0  0  0
   -5.0960   20.5610  -32.1750 C   0  0  0  0  0  0  0  0  0  0  0  0
   -5.6580   20.4708  -31.2337 H   0  0  0  0  0  0  0  0  0  0  0  0
   -4.3283   19.7745  -32.2204 H   0  0  0  0  0  0  0  0  0  0  0  0
   -4.6128   21.5481  -32.2204 H   0  0  0  0  0  0  0  0  0  0  0  0
   -6.1120   18.0770  -34.3380 C   0  0  0  0  0  0  0  0  0  0  0  0
   -6.4440   18.2609  -35.3705 H   0  0  0  0  0  0  0  0  0  0  0  0
   -5.0288   18.1973  -34.1886 H   0  0  0  0  0  0  0  0  0  0  0  0
   -6.4200   16.6130  -33.9980 C   0  0  0  0  0  0  0  0  0  0  0  0
   -6.4463   16.4880  -32.9054 H   0  0  0  0  0  0  0  0  0  0  0  0
   -7.3962   16.3356  -34.4224 H   0  0  0  0  0  0  0  0  0  0  0  0
   -5.6384   15.9657  -34.4224 H   0  0  0  0  0  0  0  0  0  0  0  0
  1  2  1  0
  2  3  2  0
  3  4  1  0
  4  5  1  0
  4  6  1  0
  4  7  1  0
  3  8  1  0
  8  9  1  0
  8 10  1  0
  8 11  1  0
 11 12  1  0
 11 13  1  0
 11 14  1  0
 14 15  1  0
 14 16  1  0
 14 17  1  0
 17 18  1  0
 17 19  1  0
 17 20  1  0
  2 21  1  0
 21 22  1  0
 21 23  1  0
 21 24  1  0
 24 25  1  0
 25 26  1  0
 25 27  1  0
 25 28  1  0
 28 29  1  0
 28 30  1  0
 28 31  1  0
 31 32  1  0
 31 33  1  0
 33 34  1  0
 33 35  1  0
 33 36  1  0
 36 37  1  0
 36 38  1  0
 36 39  1  0
 31 40  1  0
 40 41  1  0
 40 42  1  0
 40 43  1  0
 43 44  1  0
 43 45  1  0
 43 46  1  0
M  CHG  1  31   1
M  END
>  <UniqueID>  (3) 
3

>  <SMILES>  (3) 
CCCC/C(C)=C\COCC[NH+](CC)CC

>  <Energy>  (3) 
46.07027520054829

>  <Genealogy>  (3) 
CCCCC(C)=CCOCC[NH+](CC)CC (protonated)
CCCC/C(C)=C\COCC[NH+](CC)CC (cis-trans isomerization)
CCCC/C(C)=C\COCC[NH+](CC)CC (3D coordinates assigned)
CCCC/C(C)=C\COCC[NH+](CC)CC (optimized conformer: 46.07027520054829 kcal/mol)

>  <smiles>  (3) 
CCCCC(C)=CCOCCN(CC)CC

>  <score_type>  (3) 
oracle

>  <origin>  (3) 
adg

>  <m_score__min__energy>  (3) 
-4.7400000000000002

>  <m_primary>  (3) 
energy

$$$$
3:0
     RDKit          3D

 51 52  0  0  0  0  0  0  0  0999 V2000
   -1.9760   21.5270  -31.7330 C   0  0  0  0  0  0  0  0  0  0  0  0
   -3.1830   22.4020  -31.3980 C   0  0  0  0  0  0  0  0  0  0  0  0
   -3.7040   22.1000  -30.0470 N   0  0  0  0  0  0  0  0  0  0  0  0
   -3.0970   20.9080  -29.4150 C   0  0  0  0  0  0  0  0  0  0  0  0
   -2.8250   21.0740  -27.9180 C   0  0  0  0  0  0  0  0  0  0  0  0
   -3.9280   23.2510  -29.1330 C   0  0  0  0  0  0  0  0  0  0  0  0
   -3.1560   24.5440  -29.4750 C   0  0  0  0  0  0  0  0  0  0  0  0
   -3.8560   25.2850  -30.4600 O   0  0  0  0  0  0  0  0  0  0  0  0
   -5.2480   25.2720  -30.2140 C   0  0  0  0  0  0  0  0  0  0  0  0
   -5.9870   24.3820  -31.1750 C   0  0  0  0  0  0  0  0  0  0  0  0
   -5.5120   24.1800  -32.2820 O   0  0  0  0  0  0  0  0  0  0  0  0
   -7.3080   23.7580  -30.7990 C   0  0  0  0  0  0  0  0  0  0  0  0
   -7.9330   22.9880  -31.9680 C   0  0  0  0  0  0  0  0  0  0  0  0
   -6.9680   22.0940  -32.6120 N   0  0  0  0  0  0  0  0  0  0  0  0
   -7.1090   20.6590  -32.5590 C   0  0  0  0  0  0  0  0  0  0  0  0
   -8.3060   20.0890  -32.1020 C   0  0  0  0  0  0  0  0  0  0  0  0
   -8.4170   18.7030  -32.0140 C   0  0  0  0  0  0  0  0  0  0  0  0
   -9.4840   18.1870  -31.5960 O   0  0  0  0  0  0  0  0  0  0  0  0
   -7.4030   17.9220  -32.3640 O   0  0  0  0  0  0  0  0  0  0  0  0
   -6.2490   18.4020  -32.8120 C   0  0  0  0  0  0  0  0  0  0  0  0
   -5.2320   17.5120  -33.1730 C   0  0  0  0  0  0  0  0  0  0  0  0
   -4.0180   17.9940  -33.6620 C   0  0  0  0  0  0  0  0  0  0  0  0
   -3.8150   19.3690  -33.7990 C   0  0  0  0  0  0  0  0  0  0  0  0
   -4.8210   20.2700  -33.4410 C   0  0  0  0  0  0  0  0  0  0  0  0
   -6.0490   19.8000  -32.9310 C   0  0  0  0  0  0  0  0  0  0  0  0
   -1.5023   21.1836  -30.8015 H   0  0  0  0  0  0  0  0  0  0  0  0
   -2.3056   20.6566  -32.3193 H   0  0  0  0  0  0  0  0  0  0  0  0
   -1.2512   22.1109  -32.3193 H   0  0  0  0  0  0  0  0  0  0  0  0
   -2.8820   23.4592  -31.4384 H   0  0  0  0  0  0  0  0  0  0  0  0
   -3.9766   22.1964  -32.1314 H   0  0  0  0  0  0  0  0  0  0  0  0
   -3.7808   20.0571  -29.5511 H   0  0  0  0  0  0  0  0  0  0  0  0
   -2.1237   20.7477  -29.9018 H   0  0  0  0  0  0  0  0  0  0  0  0
   -3.6257   20.5853  -27.3435 H   0  0  0  0  0  0  0  0  0  0  0  0
   -1.8590   20.6113  -27.6673 H   0  0  0  0  0  0  0  0  0  0  0  0
   -2.7948   22.1446  -27.6673 H   0  0  0  0  0  0  0  0  0  0  0  0
   -5.0024   23.4868  -29.1450 H   0  0  0  0  0  0  0  0  0  0  0  0
   -3.5501   22.9295  -28.1513 H   0  0  0  0  0  0  0  0  0  0  0  0
   -3.0506   25.1555  -28.5667 H   0  0  0  0  0  0  0  0  0  0  0  0
   -2.1626   24.2770  -29.8647 H   0  0  0  0  0  0  0  0  0  0  0  0
   -5.4233   24.9103  -29.1900 H   0  0  0  0  0  0  0  0  0  0  0  0
   -5.6237   26.2973  -30.3466 H   0  0  0  0  0  0  0  0  0  0  0  0
   -7.1469   23.0630  -29.9617 H   0  0  0  0  0  0  0  0  0  0  0  0
   -7.9980   24.5671  -30.5175 H   0  0  0  0  0  0  0  0  0  0  0  0
   -8.7748   22.3894  -31.5898 H   0  0  0  0  0  0  0  0  0  0  0  0
   -8.2711   23.7201  -32.7162 H   0  0  0  0  0  0  0  0  0  0  0  0
   -6.1540   22.5080  -33.1180 H   0  0  0  0  0  0  0  0  0  0  0  0
   -9.1514   20.7317  -31.8150 H   0  0  0  0  0  0  0  0  0  0  0  0
   -5.3903   16.4282  -33.0709 H   0  0  0  0  0  0  0  0  0  0  0  0
   -3.2195   17.2904  -33.9401 H   0  0  0  0  0  0  0  0  0  0  0  0
   -2.8582   19.7445  -34.1908 H   0  0  0  0  0  0  0  0  0  0  0  0
   -4.6545   21.3511  -33.5575 H   0  0  0  0  0  0  0  0  0  0  0  0
  1  2  1  0
  2  3  1  0
  3  4  1  0
  4  5  1  0
  3  6  1  0
  6  7  1  0
  7  8  1  0
  8  9  1  0
  9 10  1  0
 10 11  2  0
 10 12  1  0
 12 13  1  0
 13 14  1  0
 14 15  1  0
 15 16  2  0
 16 17  1  0
 17 18  2  0
 17 19  1  0
 19 20  1  0
 20 21  2  0
 21 22  1  0
 22 23  2  0
 23 24  1  0
 24 25  2  0
 25 15  1  0
 25 20  1  0
  1 26  1  0
  1 27  1  0
  1 28  1  0
  2 29  1  0
  2 30  1  0
  4 31  1  0
  4 32  1  0
  5 33  1  0
  5 34  1  0
  5 35  1  0
  6 36  1  0
  6 37  1  0
  7 38  1  0
  7 39  1  0
  9 40  1  0
  9 41  1  0
 12 42  1  0
 12 43  1  0
 13 44  1  0
 13 45  1  0
 14 46  1  0
 16 47  1  0
 21 48  1  0
 22 49  1  0
 23 50  1  0
 24 51  1  0
M  END
>  <UniqueID>  (4) 
4

>  <SMILES>  (4) 
CCN(CC)CCOCC(=O)CCNc1cc(=O)oc2ccccc12

>  <Energy>  (4) 
61.59899373743098

>  <Genealogy>  (4) 
CCN(CC)CCOCC(=O)CCNc1cc(=O)oc2ccccc12 (3D coordinates assigned)
CCN(CC)CCOCC(=O)CCNc1cc(=O)oc2ccccc12 (optimized conformer: 61.59899373743098 kcal/mol)

>  <smiles>  (4) 
CCN(CC)CCOCC(=O)CCNc1cc(=O)oc2ccccc12

>  <score_type>  (4) 
oracle

>  <origin>  (4) 
adg

>  <m_score__min__energy>  (4) 
-8.1999999999999993

>  <m_primary>  (4) 
energy

$$$$
4:0
     RDKit          3D

 36 38  0  0  0  0  0  0  0  0999 V2000
   -6.8640   25.6590  -29.4260 C   0  0  0  0  0  0  0  0  0  0  0  0
   -5.5370   24.9060  -29.3980 C   0  0  0  0  0  0  0  0  0  0  0  0
   -4.8920   24.8700  -30.7930 C   0  0  0  0  0  0  0  0  0  0  0  0
   -3.7650   23.9260  -30.8570 N   0  0  0  0  0  0  0  0  0  0  0  0
   -4.1910   22.5400  -31.1180 C   0  0  0  0  0  0  0  0  0  0  0  0
   -4.6620   22.3950  -32.5670 C   0  0  0  0  0  0  0  0  0  0  0  0
   -5.7700   21.4450  -32.6630 N   0  0  0  0  0  0  0  0  0  0  0  0
   -5.7450   20.1270  -33.0060 C   0  0  0  0  0  0  0  0  0  0  0  0
   -4.6490   19.3680  -33.4270 C   0  0  0  0  0  0  0  0  0  0  0  0
   -4.8510   17.9980  -33.6820 C   0  0  0  0  0  0  0  0  0  0  0  0
   -6.1250   17.4100  -33.5030 C   0  0  0  0  0  0  0  0  0  0  0  0
   -7.2150   18.1830  -33.0670 C   0  0  0  0  0  0  0  0  0  0  0  0
   -6.9920   19.5350  -32.8340 C   0  0  0  0  0  0  0  0  0  0  0  0
   -7.8090   20.5320  -32.3610 C   0  0  0  0  0  0  0  0  0  0  0  0
   -9.1090   20.6740  -31.8970 C   0  0  0  0  0  0  0  0  0  0  0  0
   -9.3180   21.9850  -31.4380 C   0  0  0  0  0  0  0  0  0  0  0  0
   -7.8890   22.9190  -31.6020 S   0  0  0  0  0  0  0  0  0  0  0  0
   -7.0480   21.6390  -32.2780 C   0  0  0  0  0  0  0  0  0  0  0  0
   -7.1994   25.8493  -28.3958 H   0  0  0  0  0  0  0  0  0  0  0  0
   -6.7313   26.6164  -29.9512 H   0  0  0  0  0  0  0  0  0  0  0  0
   -7.6178   25.0541  -29.9512 H   0  0  0  0  0  0  0  0  0  0  0  0
   -4.8530   25.4092  -28.6987 H   0  0  0  0  0  0  0  0  0  0  0  0
   -5.7285   23.8722  -29.0747 H   0  0  0  0  0  0  0  0  0  0  0  0
   -5.6521   24.5655  -31.5276 H   0  0  0  0  0  0  0  0  0  0  0  0
   -4.5047   25.8757  -31.0134 H   0  0  0  0  0  0  0  0  0  0  0  0
   -3.0900   24.2330  -31.5960 H   0  0  0  0  0  0  0  0  0  0  0  0
   -3.3442   21.8604  -30.9416 H   0  0  0  0  0  0  0  0  0  0  0  0
   -5.0225   22.2874  -30.4436 H   0  0  0  0  0  0  0  0  0  0  0  0
   -4.9954   23.3757  -32.9372 H   0  0  0  0  0  0  0  0  0  0  0  0
   -3.8241   22.0201  -33.1731 H   0  0  0  0  0  0  0  0  0  0  0  0
   -3.6579   19.8276  -33.5553 H   0  0  0  0  0  0  0  0  0  0  0  0
   -4.0090   17.3783  -34.0241 H   0  0  0  0  0  0  0  0  0  0  0  0
   -6.2640   16.3380  -33.7069 H   0  0  0  0  0  0  0  0  0  0  0  0
   -8.2079   17.7345  -32.9158 H   0  0  0  0  0  0  0  0  0  0  0  0
   -9.8659   19.8759  -31.8897 H   0  0  0  0  0  0  0  0  0  0  0  0
  -10.2677   22.3609  -31.0295 H   0  0  0  0  0  0  0  0  0  0  0  0
  1  2  1  0
  2  3  1  0
  3  4  1  0
  4  5  1  0
  5  6  1  0
  6  7  1  0
  7  8  1  0
  8  9  2  0
  9 10  1  0
 10 11  2  0
 11 12  1  0
 12 13  2  0
 13 14  1  0
 14 15  1  0
 15 16  2  0
 16 17  1  0
 17 18  1  0
 18  7  1  0
 13  8  1  0
 18 14  2  0
  1 19  1  0
  1 20  1  0
  1 21  1  0
  2 22  1  0
  2 23  1  0
  3 24  1  0
  3 25  1  0
  4 26  1  0
  5 27  1  0
  5 28  1  0
  6 29  1  0
  6 30  1  0
  9 31  1  0
 10 32  1  0
 11 33  1  0
 12 34  1  0
 15 35  1  0
 16 36  1  0
M  END
>  <UniqueID>  (5) 
5

>  <SMILES>  (5) 
CCCNCCn1c2ccccc2c2ccsc21

>  <Energy>  (5) 
113.38133765843739

>  <Genealogy>  (5) 
CCCNCCn1c2ccccc2c2ccsc21 (3D coordinates assigned)
CCCNCCn1c2ccccc2c2ccsc21 (optimized conformer: 113.38133765843739 kcal/mol)

>  <smiles>  (5) 
CCCNCCn1c2ccccc2c2ccsc21

>  <score_type>  (5) 
oracle

>  <origin>  (5) 
adg

>  <m_score__min__energy>  (5) 
-7.7800000000000002

>  <m_primary>  (5) 
energy

$$$$
5:0
     RDKit          3D

 45 45  0  0  0  0  0  0  0  0999 V2000
   -6.1670   25.6870  -29.3460 C   0  0  0  0  0  0  0  0  0  0  0  0
   -5.7150   25.6790  -30.7990 C   0  0  0  0  0  0  0  0  0  0  0  0
   -4.6090   24.8140  -30.9340 O   0  0  0  0  0  0  0  0  0  0  0  0
   -4.2740   24.2780  -29.6700 C   0  0  0  0  0  0  0  0  0  0  0  0
   -3.4800   22.9900  -29.8680 C   0  0  0  0  0  0  0  0  0  0  0  0
   -3.2840   22.7340  -31.2990 N   0  0  0  0  0  0  0  0  0  0  0  0
   -2.0700   21.9370  -31.5130 C   0  0  0  0  0  0  0  0  0  0  0  0
   -2.0080   21.4180  -32.9560 C   0  0  0  0  0  0  0  0  0  0  0  0
   -3.2390   20.5880  -33.3540 C   0  0  0  0  0  0  0  0  0  0  0  0
   -4.4220   21.4360  -33.5070 N   0  0  0  0  0  0  0  0  0  0  0  0
   -5.6230   21.1790  -32.7640 C   0  0  0  0  0  0  0  0  0  0  0  0
   -6.0100   22.0690  -31.8080 N   0  0  0  0  0  0  0  0  0  0  0  0
   -7.1390   21.8850  -31.0660 C   0  0  0  0  0  0  0  0  0  0  0  0
   -7.5050   22.8640  -29.9890 C   0  0  0  0  0  0  0  0  0  0  0  0
   -7.9260   20.7460  -31.2680 C   0  0  0  0  0  0  0  0  0  0  0  0
   -7.5710   19.8150  -32.2540 C   0  0  0  0  0  0  0  0  0  0  0  0
   -8.4480   18.6140  -32.4920 C   0  0  0  0  0  0  0  0  0  0  0  0
   -6.4110   20.0400  -33.0240 C   0  0  0  0  0  0  0  0  0  0  0  0
   -6.0610   19.1400  -34.1020 C   0  0  0  0  0  0  0  0  0  0  0  0
   -5.7810   18.4210  -34.9630 N   0  0  0  0  0  0  0  0  0  0  0  0
   -5.2858   25.6714  -28.6878 H   0  0  0  0  0  0  0  0  0  0  0  0
   -6.7551   26.5957  -29.1499 H   0  0  0  0  0  0  0  0  0  0  0  0
   -6.7869   24.7997  -29.1499 H   0  0  0  0  0  0  0  0  0  0  0  0
   -6.5378   25.3273  -31.4387 H   0  0  0  0  0  0  0  0  0  0  0  0
   -5.4287   26.6965  -31.1035 H   0  0  0  0  0  0  0  0  0  0  0  0
   -3.6648   25.0041  -29.1118 H   0  0  0  0  0  0  0  0  0  0  0  0
   -5.1921   24.0638  -29.1033 H   0  0  0  0  0  0  0  0  0  0  0  0
   -2.4999   23.0878  -29.3782 H   0  0  0  0  0  0  0  0  0  0  0  0
   -4.0375   22.1515  -29.4252 H   0  0  0  0  0  0  0  0  0  0  0  0
   -3.1460   23.6570  -31.7750 H   0  0  0  0  0  0  0  0  0  0  0  0
   -1.1876   22.5637  -31.3166 H   0  0  0  0  0  0  0  0  0  0  0  0
   -2.0873   21.0762  -30.8284 H   0  0  0  0  0  0  0  0  0  0  0  0
   -1.9333   22.2803  -33.6348 H   0  0  0  0  0  0  0  0  0  0  0  0
   -1.1311   20.7579  -33.0288 H   0  0  0  0  0  0  0  0  0  0  0  0
   -3.0359   20.0798  -34.3082 H   0  0  0  0  0  0  0  0  0  0  0  0
   -3.4367   19.8545  -32.5584 H   0  0  0  0  0  0  0  0  0  0  0  0
   -4.2690   22.4100  -33.8480 H   0  0  0  0  0  0  0  0  0  0  0  0
   -5.4130   22.9090  -31.6320 H   0  0  0  0  0  0  0  0  0  0  0  0
   -7.3338   22.4061  -29.0036 H   0  0  0  0  0  0  0  0  0  0  0  0
   -6.8835   23.7663  -30.0870 H   0  0  0  0  0  0  0  0  0  0  0  0
   -8.5660   23.1372  -30.0870 H   0  0  0  0  0  0  0  0  0  0  0  0
   -8.8231   20.5811  -30.6532 H   0  0  0  0  0  0  0  0  0  0  0  0
   -8.7582   18.1892  -31.5259 H   0  0  0  0  0  0  0  0  0  0  0  0
   -9.3385   18.9174  -33.0620 H   0  0  0  0  0  0  0  0  0  0  0  0
   -7.8879   17.8581  -33.0620 H   0  0  0  0  0  0  0  0  0  0  0  0
  1  2  1  0
  2  3  1  0
  3  4  1  0
  4  5  1  0
  5  6  1  0
  6  7  1  0
  7  8  1  0
  8  9  1  0
  9 10  1  0
 10 11  1  0
 11 12  2  0
 12 13  1  0
 13 14  1  0
 13 15  2  0
 15 16  1  0
 16 17  1  0
 16 18  2  0
 18 19  1  0
 19 20  3  0
 18 11  1  0
  1 21  1  0
  1 22  1  0
  1 23  1  0
  2 24  1  0
  2 25  1  0
  4 26  1  0
  4 27  1  0
  5 28  1  0
  5 29  1  0
  6 30  1  0
  7 31  1  0
  7 32  1  0
  8 33  1  0
  8 34  1  0
  9 35  1  0
  9 36  1  0
 10 37  1  0
 12 38  1  0
 14 39  1  0
 14 40  1  0
 14 41  1  0
 15 42  1  0
 17 43  1  0
 17 44  1  0
 17 45  1  0
M  CHG  1  12   1
M  END
>  <UniqueID>  (6) 
6

>  <SMILES>  (6) 
CCOCCNCCCNc1[nH+]c(C)cc(C)c1C#N

>  <Energy>  (6) 
36.32152403658739

>  <Genealogy>  (6) 
CCOCCNCCCNc1[nH+]c(C)cc(C)c1C#N (protonated)
CCOCCNCCCNc1[nH+]c(C)cc(C)c1C#N (3D coordinates assigned)
CCOCCNCCCNc1[nH+]c(C)cc(C)c1C#N (optimized conformer: 36.32152403658739 kcal/mol)

>  <smiles>  (6) 
CCOCCNCCCNc1nc(C)cc(C)c1C#N

>  <score_type>  (6) 
oracle

>  <origin>  (6) 
adg

>  <m_score__min__energy>  (6) 
-6.4500000000000002

>  <m_primary>  (6) 
energy

$$$$
6:0
     RDKit          3D

 42 44  0  0  0  0  0  0  0  0999 V2000
   -6.8360   24.7490  -29.9000 C   0  0  0  0  0  0  0  0  0  0  0  0
   -5.6500   25.6830  -30.1530 C   0  0  0  0  0  0  0  0  0  0  0  0
   -4.5460   25.0110  -30.8530 N   0  0  0  0  0  0  0  0  0  0  0  0
   -4.9550   23.7470  -31.4760 C   0  0  0  0  0  0  0  0  0  0  0  0
   -4.0570   22.5960  -31.0010 C   0  0  0  0  0  0  0  0  0  0  0  0
   -3.6380   21.6420  -32.1380 C   0  0  0  0  0  0  0  0  0  0  0  0
   -4.6750   21.5260  -33.1680 N   0  0  0  0  0  0  0  0  0  0  0  0
   -5.7230   20.5440  -33.1120 C   0  0  0  0  0  0  0  0  0  0  0  0
   -5.4650   19.2140  -33.5160 C   0  0  0  0  0  0  0  0  0  0  0  0
   -4.2230   18.8230  -34.0540 C   0  0  0  0  0  0  0  0  0  0  0  0
   -3.9940   17.4900  -34.4080 C   0  0  0  0  0  0  0  0  0  0  0  0
   -4.9950   16.5330  -34.2320 C   0  0  0  0  0  0  0  0  0  0  0  0
   -6.2320   16.9040  -33.7010 C   0  0  0  0  0  0  0  0  0  0  0  0
   -6.4730   18.2360  -33.3440 C   0  0  0  0  0  0  0  0  0  0  0  0
   -7.6770   18.5790  -32.8210 N   0  0  0  0  0  0  0  0  0  0  0  0
   -7.9710   19.8560  -32.4670 C   0  0  0  0  0  0  0  0  0  0  0  0
   -9.2390   20.1530  -31.9540 C   0  0  0  0  0  0  0  0  0  0  0  0
   -9.5700   21.4680  -31.6210 C   0  0  0  0  0  0  0  0  0  0  0  0
   -8.6430   22.4930  -31.8130 C   0  0  0  0  0  0  0  0  0  0  0  0
   -7.3710   22.2080  -32.3200 C   0  0  0  0  0  0  0  0  0  0  0  0
   -7.0080   20.8810  -32.6250 C   0  0  0  0  0  0  0  0  0  0  0  0
   -6.9854   24.6313  -28.8166 H   0  0  0  0  0  0  0  0  0  0  0  0
   -7.7431   25.1778  -30.3508 H   0  0  0  0  0  0  0  0  0  0  0  0
   -6.6318   23.7666  -30.3508 H   0  0  0  0  0  0  0  0  0  0  0  0
   -5.9923   26.5305  -30.7650 H   0  0  0  0  0  0  0  0  0  0  0  0
   -5.2726   26.0176  -29.1755 H   0  0  0  0  0  0  0  0  0  0  0  0
   -4.1610   25.6500  -31.5890 H   0  0  0  0  0  0  0  0  0  0  0  0
   -5.9977   23.5292  -31.2014 H   0  0  0  0  0  0  0  0  0  0  0  0
   -4.8615   23.8428  -32.5678 H   0  0  0  0  0  0  0  0  0  0  0  0
   -3.1488   23.0240  -30.5515 H   0  0  0  0  0  0  0  0  0  0  0  0
   -4.6382   22.0058  -30.2772 H   0  0  0  0  0  0  0  0  0  0  0  0
   -2.7176   22.0256  -32.6024 H   0  0  0  0  0  0  0  0  0  0  0  0
   -3.4783   20.6444  -31.7029 H   0  0  0  0  0  0  0  0  0  0  0  0
   -4.5940   22.1180  -34.0260 H   0  0  0  0  0  0  0  0  0  0  0  0
   -3.4289   19.5708  -34.1963 H   0  0  0  0  0  0  0  0  0  0  0  0
   -3.0209   17.1940  -34.8270 H   0  0  0  0  0  0  0  0  0  0  0  0
   -4.8091   15.4856  -34.5119 H   0  0  0  0  0  0  0  0  0  0  0  0
   -7.0189   16.1479  -33.5629 H   0  0  0  0  0  0  0  0  0  0  0  0
   -9.9762   19.3489  -31.8129 H   0  0  0  0  0  0  0  0  0  0  0  0
  -10.5631   21.6962  -31.2067 H   0  0  0  0  0  0  0  0  0  0  0  0
   -8.9138   23.5298  -31.5645 H   0  0  0  0  0  0  0  0  0  0  0  0
   -6.6506   23.0235  -32.4814 H   0  0  0  0  0  0  0  0  0  0  0  0
  1  2  1  0
  2  3  1  0
  3  4  1  0
  4  5  1  0
  5  6  1  0
  6  7  1  0
  7  8  1  0
  8  9  2  0
  9 10  1  0
 10 11  2  0
 11 12  1  0
 12 13  2  0
 13 14  1  0
 14 15  2  0
 15 16  1  0
 16 17  2  0
 17 18  1  0
 18 19  2  0
 19 20  1  0
 20 21  2  0
 21  8  1  0
 14  9  1  0
 21 16  1  0
  1 22  1  0
  1 23  1  0
  1 24  1  0
  2 25  1  0
  2 26  1  0
  3 27  1  0
  4 28  1  0
  4 29  1  0
  5 30  1  0
  5 31  1  0
  6 32  1  0
  6 33  1  0
  7 34  1  0
 10 35  1  0
 11 36  1  0
 12 37  1  0
 13 38  1  0
 17 39  1  0
 18 40  1  0
 19 41  1  0
 20 42  1  0
M  END
>  <UniqueID>  (7) 
7

>  <SMILES>  (7) 
CCNCCCNc1c2ccccc2nc2ccccc12

>  <Energy>  (7) 
51.12937744297314

>  <Genealogy>  (7) 
CCNCCCNc1c2ccccc2nc2ccccc12 (3D coordinates assigned)
CCNCCCNc1c2ccccc2nc2ccccc12 (optimized conformer: 51.12937744297314 kcal/mol)

>  <smiles>  (7) 
CCNCCCNc1c2ccccc2nc2ccccc12

>  <score_type>  (7) 
oracle

>  <origin>  (7) 
adg

>  <m_score__min__energy>  (7) 
-9.4499999999999993

>  <m_primary>  (7) 
energy

$$$$
7:0
     RDKit          3D

 62 64  0  0  0  0  0  0  0  0999 V2000
   -2.9500   19.5170  -27.0840 C   0  0  0  0  0  0  0  0  0  0  0  0
   -2.1710   20.0910  -28.2610 C   0  0  0  0  0  0  0  0  0  0  0  0
   -3.0400   20.8300  -29.0960 O   0  0  0  0  0  0  0  0  0  0  0  0
   -3.5150   21.9830  -28.4290 C   0  0  0  0  0  0  0  0  0  0  0  0
   -2.8460   23.2200  -29.0210 C   0  0  0  0  0  0  0  0  0  0  0  0
   -2.2800   22.8940  -30.2700 O   0  0  0  0  0  0  0  0  0  0  0  0
   -0.8970   22.6610  -30.1180 C   0  0  0  0  0  0  0  0  0  0  0  0
   -0.4640   21.4870  -31.0110 C   0  0  0  0  0  0  0  0  0  0  0  0
   -1.5990   20.6970  -31.5230 N   0  0  0  0  0  0  0  0  0  0  0  0
   -1.9050   20.9900  -32.9350 C   0  0  0  0  0  0  0  0  0  0  0  0
   -3.3290   21.5420  -33.0960 C   0  0  0  0  0  0  0  0  0  0  0  0
   -4.1470   21.2600  -31.9130 N   0  0  0  0  0  0  0  0  0  0  0  0
   -5.4200   20.6070  -32.0260 C   0  0  0  0  0  0  0  0  0  0  0  0
   -5.4510   19.2520  -32.4120 C   0  0  0  0  0  0  0  0  0  0  0  0
   -4.2650   18.5690  -32.7660 C   0  0  0  0  0  0  0  0  0  0  0  0
   -4.2960   17.2320  -33.1550 C   0  0  0  0  0  0  0  0  0  0  0  0
   -5.5080   16.5570  -33.2210 C   0  0  0  0  0  0  0  0  0  0  0  0
   -6.6940   17.2140  -32.9000 C   0  0  0  0  0  0  0  0  0  0  0  0
   -6.6910   18.5680  -32.4760 C   0  0  0  0  0  0  0  0  0  0  0  0
   -7.8590   19.2310  -32.1690 N   0  0  0  0  0  0  0  0  0  0  0  0
   -9.1060   18.4650  -31.9550 C   0  0  0  0  0  0  0  0  0  0  0  0
   -7.8620   20.6080  -32.0540 C   0  0  0  0  0  0  0  0  0  0  0  0
   -9.0760   21.3340  -32.1150 C   0  0  0  0  0  0  0  0  0  0  0  0
   -9.1030   22.7100  -31.9490 C   0  0  0  0  0  0  0  0  0  0  0  0
   -7.9330   23.4030  -31.7020 C   0  0  0  0  0  0  0  0  0  0  0  0
   -6.7060   22.7390  -31.6430 C   0  0  0  0  0  0  0  0  0  0  0  0
   -5.3030   23.7810  -31.1960 S   0  0  0  0  0  0  0  0  0  0  0  0
   -6.2890   24.8370  -30.0870 C   0  0  0  0  0  0  0  0  0  0  0  0
   -6.6380   21.3280  -31.8960 C   0  0  0  0  0  0  0  0  0  0  0  0
   -2.4925   19.8541  -26.1422 H   0  0  0  0  0  0  0  0  0  0  0  0
   -3.9927   19.8643  -27.1301 H   0  0  0  0  0  0  0  0  0  0  0  0
   -2.9272   18.4182  -27.1301 H   0  0  0  0  0  0  0  0  0  0  0  0
   -1.3760   20.7519  -27.8852 H   0  0  0  0  0  0  0  0  0  0  0  0
   -1.7262   19.2671  -28.8384 H   0  0  0  0  0  0  0  0  0  0  0  0
   -4.6050   22.0583  -28.5565 H   0  0  0  0  0  0  0  0  0  0  0  0
   -3.2771   21.9128  -27.3573 H   0  0  0  0  0  0  0  0  0  0  0  0
   -3.5953   24.0143  -29.1538 H   0  0  0  0  0  0  0  0  0  0  0  0
   -2.0565   23.5717  -28.3406 H   0  0  0  0  0  0  0  0  0  0  0  0
   -0.3407   23.5646  -30.4079 H   0  0  0  0  0  0  0  0  0  0  0  0
   -0.6841   22.4150  -29.0672 H   0  0  0  0  0  0  0  0  0  0  0  0
    0.0975   21.8880  -31.8677 H   0  0  0  0  0  0  0  0  0  0  0  0
    0.1494   20.8151  -30.3928 H   0  0  0  0  0  0  0  0  0  0  0  0
   -1.3410   19.6870  -31.4230 H   0  0  0  0  0  0  0  0  0  0  0  0
   -2.4470   20.8700  -30.9340 H   0  0  0  0  0  0  0  0  0  0  0  0
   -1.1877   21.7351  -33.3097 H   0  0  0  0  0  0  0  0  0  0  0  0
   -1.8295   20.0537  -33.5075 H   0  0  0  0  0  0  0  0  0  0  0  0
   -3.2765   22.6307  -33.2440 H   0  0  0  0  0  0  0  0  0  0  0  0
   -3.7946   21.0529  -33.9643 H   0  0  0  0  0  0  0  0  0  0  0  0
   -3.8260   21.5480  -30.9600 H   0  0  0  0  0  0  0  0  0  0  0  0
   -3.3031   19.1016  -32.7337 H   0  0  0  0  0  0  0  0  0  0  0  0
   -3.3613   16.7111  -33.4098 H   0  0  0  0  0  0  0  0  0  0  0  0
   -5.5317   15.5008  -33.5275 H   0  0  0  0  0  0  0  0  0  0  0  0
   -7.6491   16.6737  -32.9766 H   0  0  0  0  0  0  0  0  0  0  0  0
   -9.2873   18.3536  -30.8758 H   0  0  0  0  0  0  0  0  0  0  0  0
   -9.9492   19.0011  -32.4150 H   0  0  0  0  0  0  0  0  0  0  0  0
   -9.0090   17.4705  -32.4150 H   0  0  0  0  0  0  0  0  0  0  0  0
  -10.0173   20.7950  -32.2979 H   0  0  0  0  0  0  0  0  0  0  0  0
  -10.0581   23.2517  -32.0140 H   0  0  0  0  0  0  0  0  0  0  0  0
   -7.9688   24.4918  -31.5499 H   0  0  0  0  0  0  0  0  0  0  0  0
   -6.0565   24.5880  -29.0411 H   0  0  0  0  0  0  0  0  0  0  0  0
   -6.0465   25.8933  -30.2751 H   0  0  0  0  0  0  0  0  0  0  0  0
   -7.3595   24.6674  -30.2751 H   0  0  0  0  0  0  0  0  0  0  0  0
  1  2  1  0
  2  3  1  0
  3  4  1  0
  4  5  1  0
  5  6  1  0
  6  7  1  0
  7  8  1  0
  8  9  1  0
  9 10  1  0
 10 11  1  0
 11 12  1  0
 12 13  1  0
 13 14  2  0
 14 15  1  0
 15 16  2  0
 16 17  1  0
 17 18  2  0
 18 19  1  0
 19 20  2  0
 20 21  1  0
 20 22  1  0
 22 23  2  0
 23 24  1  0
 24 25  2  0
 25 26  1  0
 26 27  1  0
 27 28  1  0
 26 29  2  0
 29 13  1  0
 19 14  1  0
 29 22  1  0
  1 30  1  0
  1 31  1  0
  1 32  1  0
  2 33  1  0
  2 34  1  0
  4 35  1  0
  4 36  1  0
  5 37  1  0
  5 38  1  0
  7 39  1  0
  7 40  1  0
  8 41  1  0
  8 42  1  0
  9 43  1  0
  9 44  1  0
 10 45  1  0
 10 46  1  0
 11 47  1  0
 11 48  1  0
 12 49  1  0
 15 50  1  0
 16 51  1  0
 17 52  1  0
 18 53  1  0
 21 54  1  0
 21 55  1  0
 21 56  1  0
 23 57  1  0
 24 58  1  0
 25 59  1  0
 28 60  1  0
 28 61  1  0
 28 62  1  0
M  CHG  2   9   1  20   1
M  END
>  <UniqueID>  (8) 
8

>  <SMILES>  (8) 
CCOCCOCC[NH2+]CCNc1c2ccccc2[n+](C)c2cccc(SC)c12

>  <Energy>  (8) 
88.79561923934706

>  <Genealogy>  (8) 
CCOCCOCC[NH2+]CCNc1c2ccccc2[n+](C)c2cccc(SC)c12 (protonated)
CCOCCOCC[NH2+]CCNc1c2ccccc2[n+](C)c2cccc(SC)c12 (3D coordinates assigned)
CCOCCOCC[NH2+]CCNc1c2ccccc2[n+](C)c2cccc(SC)c12 (optimized conformer: 88.79561923934706 kcal/mol)

>  <smiles>  (8) 
CCOCCOCCNCCNc1c2ccccc2[n+](C)c2cccc(SC)c12

>  <score_type>  (8) 
oracle

>  <origin>  (8) 
adg

>  <m_score__min__energy>  (8) 
-9.1500000000000004

>  <m_primary>  (8) 
energy

$$$$
8:0
     RDKit          3D

 41 42  0  0  0  0  0  0  0  0999 V2000
   -6.8070   25.6740  -29.4270 C   0  0  0  0  0  0  0  0  0  0  0  0
   -5.5610   25.0040  -30.0170 C   0  0  0  0  0  0  0  0  0  0  0  0
   -5.0720   23.8090  -29.2750 N   0  0  0  0  0  0  0  0  0  0  0  0
   -3.7680   24.0470  -28.5880 C   0  0  0  0  0  0  0  0  0  0  0  0
   -3.8610   24.4050  -27.0940 C   0  0  0  0  0  0  0  0  0  0  0  0
   -5.1110   22.5350  -30.0420 C   0  0  0  0  0  0  0  0  0  0  0  0
   -4.4320   22.6320  -31.4180 C   0  0  0  0  0  0  0  0  0  0  0  0
   -5.4420   22.7520  -32.4690 N   0  0  0  0  0  0  0  0  0  0  0  0
   -6.7660   22.2330  -32.2750 C   0  0  0  0  0  0  0  0  0  0  0  0
   -7.8000   23.1210  -31.9720 C   0  0  0  0  0  0  0  0  0  0  0  0
   -9.1020   22.6550  -31.8230 C   0  0  0  0  0  0  0  0  0  0  0  0
   -9.3670   21.2950  -31.9690 C   0  0  0  0  0  0  0  0  0  0  0  0
   -8.3570   20.4110  -32.2370 N   0  0  0  0  0  0  0  0  0  0  0  0
   -8.6610   19.0810  -32.3520 C   0  0  0  0  0  0  0  0  0  0  0  0
   -7.6610   18.1400  -32.5960 C   0  0  0  0  0  0  0  0  0  0  0  0
   -6.3410   18.5590  -32.7140 C   0  0  0  0  0  0  0  0  0  0  0  0
   -6.0290   19.9110  -32.6020 C   0  0  0  0  0  0  0  0  0  0  0  0
   -7.0540   20.8510  -32.3810 C   0  0  0  0  0  0  0  0  0  0  0  0
   -6.7535   25.6452  -28.3287 H   0  0  0  0  0  0  0  0  0  0  0  0
   -6.8555   26.7198  -29.7645 H   0  0  0  0  0  0  0  0  0  0  0  0
   -7.7062   25.1378  -29.7645 H   0  0  0  0  0  0  0  0  0  0  0  0
   -5.7966   24.6930  -31.0455 H   0  0  0  0  0  0  0  0  0  0  0  0
   -4.7557   25.7509  -29.9573 H   0  0  0  0  0  0  0  0  0  0  0  0
   -5.7630   23.6870  -28.4950 H   0  0  0  0  0  0  0  0  0  0  0  0
   -3.1646   23.1319  -28.6801 H   0  0  0  0  0  0  0  0  0  0  0  0
   -3.3228   24.9237  -29.0811 H   0  0  0  0  0  0  0  0  0  0  0  0
   -3.6300   23.5159  -26.4888 H   0  0  0  0  0  0  0  0  0  0  0  0
   -3.1404   25.2033  -26.8627 H   0  0  0  0  0  0  0  0  0  0  0  0
   -4.8790   24.7516  -26.8627 H   0  0  0  0  0  0  0  0  0  0  0  0
   -4.5998   21.7581  -29.4545 H   0  0  0  0  0  0  0  0  0  0  0  0
   -6.1696   22.2929  -30.2176 H   0  0  0  0  0  0  0  0  0  0  0  0
   -3.7777   23.5160  -31.4394 H   0  0  0  0  0  0  0  0  0  0  0  0
   -3.8379   21.7226  -31.5914 H   0  0  0  0  0  0  0  0  0  0  0  0
   -5.0930   22.8110  -33.4530 H   0  0  0  0  0  0  0  0  0  0  0  0
   -7.5842   24.1928  -31.8507 H   0  0  0  0  0  0  0  0  0  0  0  0
   -9.9175   23.3559  -31.5913 H   0  0  0  0  0  0  0  0  0  0  0  0
  -10.3989   20.9278  -31.8678 H   0  0  0  0  0  0  0  0  0  0  0  0
   -9.7055   18.7510  -32.2508 H   0  0  0  0  0  0  0  0  0  0  0  0
   -7.9150   17.0743  -32.6943 H   0  0  0  0  0  0  0  0  0  0  0  0
   -5.5438   17.8231  -32.8957 H   0  0  0  0  0  0  0  0  0  0  0  0
   -4.9841   20.2444  -32.6859 H   0  0  0  0  0  0  0  0  0  0  0  0
  1  2  1  0
  2  3  1  0
  3  4  1  0
  4  5  1  0
  3  6  1  0
  6  7  1  0
  7  8  1  0
  8  9  1  0
  9 10  2  0
 10 11  1  0
 11 12  2  0
 12 13  1  0
 13 14  2  0
 14 15  1  0
 15 16  2  0
 16 17  1  0
 17 18  2  0
 18  9  1  0
 18 13  1  0
  1 19  1  0
  1 20  1  0
  1 21  1  0
  2 22  1  0
  2 23  1  0
  3 24  1  0
  4 25  1  0
  4 26  1  0
  5 27  1  0
  5 28  1  0
  5 29  1  0
  6 30  1  0
  6 31  1  0
  7 32  1  0
  7 33  1  0
  8 34  1  0
 10 35  1  0
 11 36  1  0
 12 37  1  0
 14 38  1  0
 15 39  1  0
 16 40  1  0
 17 41  1  0
M  CHG  2   3   1  13   1
M  END
>  <UniqueID>  (9) 
9

>  <SMILES>  (9) 
CC[NH+](CC)CCNc1ccc[n+]2ccccc12

>  <Energy>  (9) 
56.79236476403455

>  <Genealogy>  (9) 
CC[NH+](CC)CCNc1ccc[n+]2ccccc12 (protonated)
CC[NH+](CC)CCNc1ccc[n+]2ccccc12 (3D coordinates assigned)
CC[NH+](CC)CCNc1ccc[n+]2ccccc12 (optimized conformer: 56.79236476403455 kcal/mol)

>  <smiles>  (9) 
CCN(CC)CCNc1ccc[n+]2ccccc12

>  <score_type>  (9) 
oracle

>  <origin>  (9) 
adg

>  <m_score__min__energy>  (9) 
-5.3899999999999997

>  <m_primary>  (9) 
energy

$$$$
9:0
     RDKit          3D

 39 38  0  0  0  0  0  0  0  0999 V2000
   -4.5580   18.9880  -33.8260 C   0  0  0  0  0  0  0  0  0  0  0  0
   -5.7130   19.9440  -33.5270 C   0  0  0  0  0  0  0  0  0  0  0  0
   -7.0070   19.3170  -33.8430 N   0  0  0  0  0  0  0  0  0  0  0  0
   -7.6020   18.6460  -32.6740 C   0  0  0  0  0  0  0  0  0  0  0  0
   -8.6520   19.5120  -31.9680 C   0  0  0  0  0  0  0  0  0  0  0  0
   -8.6380   20.8030  -32.5400 O   0  0  0  0  0  0  0  0  0  0  0  0
   -9.0810   21.7740  -31.6100 C   0  0  0  0  0  0  0  0  0  0  0  0
   -8.0010   22.1120  -30.5530 C   0  0  0  0  0  0  0  0  0  0  0  0
   -6.9010   23.0410  -30.9810 N   0  0  0  0  0  0  0  0  0  0  0  0
   -7.0730   23.4320  -32.4050 C   0  0  0  0  0  0  0  0  0  0  0  0
   -5.6300   22.2770  -30.8590 C   0  0  0  0  0  0  0  0  0  0  0  0
   -6.8690   24.2480  -30.0950 C   0  0  0  0  0  0  0  0  0  0  0  0
   -5.7650   25.2710  -30.4180 C   0  0  0  0  0  0  0  0  0  0  0  0
   -4.1247   18.6294  -32.8806 H   0  0  0  0  0  0  0  0  0  0  0  0
   -4.9318   18.1315  -34.4062 H   0  0  0  0  0  0  0  0  0  0  0  0
   -3.7864   19.5153  -34.4062 H   0  0  0  0  0  0  0  0  0  0  0  0
   -5.6929   20.2111  -32.4601 H   0  0  0  0  0  0  0  0  0  0  0  0
   -5.5960   20.8433  -34.1496 H   0  0  0  0  0  0  0  0  0  0  0  0
   -6.8570   18.5910  -34.5830 H   0  0  0  0  0  0  0  0  0  0  0  0
   -7.6690   20.0340  -34.2190 H   0  0  0  0  0  0  0  0  0  0  0  0
   -8.0812   17.7142  -33.0088 H   0  0  0  0  0  0  0  0  0  0  0  0
   -6.7931   18.4506  -31.9546 H   0  0  0  0  0  0  0  0  0  0  0  0
   -9.6478   19.0624  -32.0951 H   0  0  0  0  0  0  0  0  0  0  0  0
   -8.4216   19.5769  -30.8944 H   0  0  0  0  0  0  0  0  0  0  0  0
   -9.3418   22.6930  -32.1554 H   0  0  0  0  0  0  0  0  0  0  0  0
   -9.9517   21.3599  -31.0805 H   0  0  0  0  0  0  0  0  0  0  0  0
   -8.5096   22.5725  -29.6932 H   0  0  0  0  0  0  0  0  0  0  0  0
   -7.5019   21.1561  -30.3360 H   0  0  0  0  0  0  0  0  0  0  0  0
   -7.5154   24.4377  -32.4582 H   0  0  0  0  0  0  0  0  0  0  0  0
   -6.0933   23.4354  -32.9052 H   0  0  0  0  0  0  0  0  0  0  0  0
   -7.7375   22.7121  -32.9052 H   0  0  0  0  0  0  0  0  0  0  0  0
   -5.3897   22.1325  -29.7953 H   0  0  0  0  0  0  0  0  0  0  0  0
   -5.7431   21.2970  -31.3457 H   0  0  0  0  0  0  0  0  0  0  0  0
   -4.8176   22.8366  -31.3457 H   0  0  0  0  0  0  0  0  0  0  0  0
   -7.8401   24.7577  -30.1796 H   0  0  0  0  0  0  0  0  0  0  0  0
   -6.6533   23.8768  -29.0822 H   0  0  0  0  0  0  0  0  0  0  0  0
   -5.3424   25.6626  -29.4809 H   0  0  0  0  0  0  0  0  0  0  0  0
   -4.9714   24.7819  -31.0019 H   0  0  0  0  0  0  0  0  0  0  0  0
   -6.1923   26.0995  -31.0019 H   0  0  0  0  0  0  0  0  0  0  0  0
  1  2  1  0
  2  3  1  0
  3  4  1  0
  4  5  1  0
  5  6  1  0
  6  7  1  0
  7  8  1  0
  8  9  1  0
  9 10  1  0
  9 11  1  0
  9 12  1  0
 12 13  1  0
  1 14  1  0
  1 15  1  0
  1 16  1  0
  2 17  1  0
  2 18  1  0
  3 19  1  0
  3 20  1  0
  4 21  1  0
  4 22  1  0
  5 23  1  0
  5 24  1  0
  7 25  1  0
  7 26  1  0
  8 27  1  0
  8 28  1  0
 10 29  1  0
 10 30  1  0
 10 31  1  0
 11 32  1  0
 11 33  1  0
 11 34  1  0
 12 35  1  0
 12 36  1  0
 13 37  1  0
 13 38  1  0
 13 39  1  0
M  CHG  2   3   1   9   1
M  END
>  <UniqueID>  (10) 
10

>  <SMILES>  (10) 
CC[NH2+]CCOCC[N+](C)(C)CC

>  <Energy>  (10) 
41.808978172180865

>  <Genealogy>  (10) 
CC[NH2+]CCOCC[N+](C)(C)CC (protonated)
CC[NH2+]CCOCC[N+](C)(C)CC (3D coordinates assigned)
CC[NH2+]CCOCC[N+](C)(C)CC (optimized conformer: 41.808978172180865 kcal/mol)

>  <smiles>  (10) 
CCNCCOCC[N+](C)(C)CC

>  <score_type>  (10) 
oracle

>  <origin>  (10) 
adg

>  <m_score__min__energy>  (10) 
-3.3300000000000001

>  <m_primary>  (10) 
energy

$$$$
10:0
     RDKit          3D

 54 56  0  0  0  0  0  0  0  0999 V2000
   -4.2130   16.5620  -33.9500 C   0  0  0  0  0  0  0  0  0  0  0  0
   -3.3380   17.8050  -34.0710 C   0  0  0  0  0  0  0  0  0  0  0  0
   -4.1320   18.9500  -34.3760 O   0  0  0  0  0  0  0  0  0  0  0  0
   -5.5250   18.9100  -34.5170 C   0  0  0  0  0  0  0  0  0  0  0  0
   -6.0440   18.4530  -35.5710 O   0  0  0  0  0  0  0  0  0  0  0  0
   -6.3720   19.4160  -33.4190 C   0  0  0  0  0  0  0  0  0  0  0  0
   -6.4940   20.7540  -33.0880 C   0  0  0  0  0  0  0  0  0  0  0  0
   -7.3700   20.8030  -32.0240 C   0  0  0  0  0  0  0  0  0  0  0  0
   -7.9410   22.2520  -31.2160 S   0  0  0  0  0  0  0  0  0  0  0  0
   -8.3220   23.2670  -32.2580 O   0  0  0  0  0  0  0  0  0  0  0  0
   -9.1590   21.9180  -30.3980 O   0  0  0  0  0  0  0  0  0  0  0  0
   -6.6830   22.8960  -30.1920 N   0  0  0  0  0  0  0  0  0  0  0  0
   -6.6290   24.3720  -30.3180 C   0  0  0  0  0  0  0  0  0  0  0  0
   -5.2760   24.9770  -29.8780 C   0  0  0  0  0  0  0  0  0  0  0  0
   -4.5110   24.0420  -29.0480 N   0  0  0  0  0  0  0  0  0  0  0  0
   -3.6780   24.5480  -27.9950 C   0  0  0  0  0  0  0  0  0  0  0  0
   -4.2370   24.8360  -26.7390 C   0  0  0  0  0  0  0  0  0  0  0  0
   -3.4390   25.3380  -25.7090 C   0  0  0  0  0  0  0  0  0  0  0  0
   -2.0760   25.5510  -25.9250 C   0  0  0  0  0  0  0  0  0  0  0  0
   -1.5060   25.2610  -27.1670 C   0  0  0  0  0  0  0  0  0  0  0  0
   -2.3020   24.7520  -28.2130 C   0  0  0  0  0  0  0  0  0  0  0  0
   -1.7620   24.4260  -29.4680 O   0  0  0  0  0  0  0  0  0  0  0  0
   -1.0240   23.2410  -29.7460 C   0  0  0  0  0  0  0  0  0  0  0  0
   -4.3420   22.6490  -29.4770 C   0  0  0  0  0  0  0  0  0  0  0  0
   -5.3920   22.2710  -30.5290 C   0  0  0  0  0  0  0  0  0  0  0  0
   -7.7570   19.5120  -31.7440 C   0  0  0  0  0  0  0  0  0  0  0  0
   -7.1440   18.6650  -32.5940 N   0  0  0  0  0  0  0  0  0  0  0  0
   -7.3110   17.2130  -32.6010 C   0  0  0  0  0  0  0  0  0  0  0  0
   -4.3760   16.3304  -32.8871 H   0  0  0  0  0  0  0  0  0  0  0  0
   -5.1815   16.7465  -34.4378 H   0  0  0  0  0  0  0  0  0  0  0  0
   -3.7127   15.7125  -34.4378 H   0  0  0  0  0  0  0  0  0  0  0  0
   -2.8135   17.9720  -33.1186 H   0  0  0  0  0  0  0  0  0  0  0  0
   -2.6122   17.6502  -34.8830 H   0  0  0  0  0  0  0  0  0  0  0  0
   -5.9943   21.6048  -33.5742 H   0  0  0  0  0  0  0  0  0  0  0  0
   -6.9360   22.6480  -29.2050 H   0  0  0  0  0  0  0  0  0  0  0  0
   -6.8043   24.6387  -31.3707 H   0  0  0  0  0  0  0  0  0  0  0  0
   -7.4008   24.7832  -29.6507 H   0  0  0  0  0  0  0  0  0  0  0  0
   -4.6870   25.2233  -30.7738 H   0  0  0  0  0  0  0  0  0  0  0  0
   -5.4800   25.8786  -29.2817 H   0  0  0  0  0  0  0  0  0  0  0  0
   -5.3097   24.6651  -26.5658 H   0  0  0  0  0  0  0  0  0  0  0  0
   -3.8834   25.5654  -24.7288 H   0  0  0  0  0  0  0  0  0  0  0  0
   -1.4485   25.9488  -25.1138 H   0  0  0  0  0  0  0  0  0  0  0  0
   -0.4314   25.4306  -27.3294 H   0  0  0  0  0  0  0  0  0  0  0  0
   -0.7268   22.7638  -28.8005 H   0  0  0  0  0  0  0  0  0  0  0  0
   -1.6498   22.5469  -30.3262 H   0  0  0  0  0  0  0  0  0  0  0  0
   -0.1250   23.4965  -30.3262 H   0  0  0  0  0  0  0  0  0  0  0  0
   -3.3380   22.5241  -29.9087 H   0  0  0  0  0  0  0  0  0  0  0  0
   -4.4676   21.9935  -28.6026 H   0  0  0  0  0  0  0  0  0  0  0  0
   -5.0623   22.6238  -31.5173 H   0  0  0  0  0  0  0  0  0  0  0  0
   -5.5113   21.1776  -30.5468 H   0  0  0  0  0  0  0  0  0  0  0  0
   -8.4582   19.2174  -30.9493 H   0  0  0  0  0  0  0  0  0  0  0  0
   -7.3535   16.8438  -31.5657 H   0  0  0  0  0  0  0  0  0  0  0  0
   -8.2449   16.9538  -33.1213 H   0  0  0  0  0  0  0  0  0  0  0  0
   -6.4603   16.7486  -33.1213 H   0  0  0  0  0  0  0  0  0  0  0  0
  1  2  1  0
  2  3  1  0
  3  4  1  0
  4  5  2  0
  4  6  1  0
  6  7  2  0
  7  8  1  0
  8  9  1  0
  9 10  2  0
  9 11  2  0
  9 12  1  0
 12 13  1  0
 13 14  1  0
 14 15  1  0
 15 16  1  0
 16 17  2  0
 17 18  1  0
 18 19  2  0
 19 20  1  0
 20 21  2  0
 21 22  1  0
 22 23  1  0
 15 24  1  0
 24 25  1  0
  8 26  2  0
 26 27  1  0
 27 28  1  0
 27  6  1  0
 25 12  1  0
 21 16  1  0
  1 29  1  0
  1 30  1  0
  1 31  1  0
  2 32  1  0
  2 33  1  0
  7 34  1  0
 12 35  1  0
 13 36  1  0
 13 37  1  0
 14 38  1  0
 14 39  1  0
 17 40  1  0
 18 41  1  0
 19 42  1  0
 20 43  1  0
 23 44  1  0
 23 45  1  0
 23 46  1  0
 24 47  1  0
 24 48  1  0
 25 49  1  0
 25 50  1  0
 26 51  1  0
 28 52  1  0
 28 53  1  0
 28 54  1  0
M  CHG  1  12   1
M  END
>  <UniqueID>  (11) 
11

>  <SMILES>  (11) 
CCOC(=O)c1cc(S(=O)(=O)[NH+]2CCN(c3ccccc3OC)CC2)cn1C

>  <Energy>  (11) 
84.32681063803834

>  <Genealogy>  (11) 
CCOC(=O)c1cc(S(=O)(=O)[NH+]2CCN(c3ccccc3OC)CC2)cn1C (protonated)
CCOC(=O)c1cc(S(=O)(=O)[NH+]2CCN(c3ccccc3OC)CC2)cn1C (3D coordinates assigned)
CCOC(=O)c1cc(S(=O)(=O)[NH+]2CCN(c3ccccc3OC)CC2)cn1C (nonaromatic ring conformer: 84.32681063803834 kcal/mol)

>  <smiles>  (11) 
CCOC(=O)c1cc(S(=O)(=O)N2CCN(c3ccccc3OC)CC2)cn1C

>  <score_type>  (11) 
oracle

>  <origin>  (11) 
adg

>  <m_score__min__energy>  (11) 
-7.4900000000000002

>  <m_primary>  (11) 
energy

$$$$
11:0
     RDKit          3D

 29 30  0  0  0  0  0  0  0  0999 V2000
   -3.7070   20.1200  -33.4180 C   0  0  0  0  0  0  0  0  0  0  0  0
   -5.1080   20.4290  -33.0030 C   0  0  0  0  0  0  0  0  0  0  0  0
   -5.4830   21.6110  -32.4570 N   0  0  0  0  0  0  0  0  0  0  0  0
   -6.8070   21.4560  -32.2350 C   0  0  0  0  0  0  0  0  0  0  0  0
   -7.6670   22.4150  -31.6850 C   0  0  0  0  0  0  0  0  0  0  0  0
   -7.1710   23.7740  -31.2880 C   0  0  0  0  0  0  0  0  0  0  0  0
   -9.0300   22.0750  -31.5750 C   0  0  0  0  0  0  0  0  0  0  0  0
   -9.4870   20.8100  -31.9920 C   0  0  0  0  0  0  0  0  0  0  0  0
   -8.5780   19.8870  -32.5250 C   0  0  0  0  0  0  0  0  0  0  0  0
   -7.2720   20.2510  -32.6140 N   0  0  0  0  0  0  0  0  0  0  0  0
   -6.2100   19.5930  -33.1040 C   0  0  0  0  0  0  0  0  0  0  0  0
   -6.2420   18.2550  -33.6270 N   0  0  0  0  0  0  0  0  0  0  0  0
   -5.7370   17.9770  -34.9700 C   0  0  0  0  0  0  0  0  0  0  0  0
   -6.4990   17.1320  -32.7260 C   0  0  0  0  0  0  0  0  0  0  0  0
   -3.0816   19.9821  -32.5236 H   0  0  0  0  0  0  0  0  0  0  0  0
   -3.6972   19.1981  -34.0180 H   0  0  0  0  0  0  0  0  0  0  0  0
   -3.3103   20.9522  -34.0180 H   0  0  0  0  0  0  0  0  0  0  0  0
   -7.1439   23.8483  -30.1909 H   0  0  0  0  0  0  0  0  0  0  0  0
   -6.1590   23.9271  -31.6910 H   0  0  0  0  0  0  0  0  0  0  0  0
   -7.8464   24.5430  -31.6910 H   0  0  0  0  0  0  0  0  0  0  0  0
   -9.7425   22.8033  -31.1602 H   0  0  0  0  0  0  0  0  0  0  0  0
  -10.5514   20.5482  -31.8998 H   0  0  0  0  0  0  0  0  0  0  0  0
   -8.9124   18.8948  -32.8622 H   0  0  0  0  0  0  0  0  0  0  0  0
   -4.7754   17.4477  -34.8979 H   0  0  0  0  0  0  0  0  0  0  0  0
   -6.4609   17.3502  -35.5115 H   0  0  0  0  0  0  0  0  0  0  0  0
   -5.5946   18.9239  -35.5115 H   0  0  0  0  0  0  0  0  0  0  0  0
   -6.4209   17.4733  -31.6832 H   0  0  0  0  0  0  0  0  0  0  0  0
   -7.5102   16.7394  -32.9086 H   0  0  0  0  0  0  0  0  0  0  0  0
   -5.7592   16.3387  -32.9086 H   0  0  0  0  0  0  0  0  0  0  0  0
  1  2  1  0
  2  3  1  0
  3  4  2  0
  4  5  1  0
  5  6  1  0
  5  7  2  0
  7  8  1  0
  8  9  2  0
  9 10  1  0
 10 11  1  0
 11 12  1  0
 12 13  1  0
 12 14  1  0
 11  2  2  0
 10  4  1  0
  1 15  1  0
  1 16  1  0
  1 17  1  0
  6 18  1  0
  6 19  1  0
  6 20  1  0
  7 21  1  0
  8 22  1  0
  9 23  1  0
 13 24  1  0
 13 25  1  0
 13 26  1  0
 14 27  1  0
 14 28  1  0
 14 29  1  0
M  END
>  <UniqueID>  (12) 
12

>  <SMILES>  (12) 
Cc1nc2c(C)cccn2c1N(C)C

>  <Energy>  (12) 
65.82551746965822

>  <Genealogy>  (12) 
Cc1nc2c(C)cccn2c1N(C)C (3D coordinates assigned)
Cc1nc2c(C)cccn2c1N(C)C (optimized conformer: 65.82551746965822 kcal/mol)

>  <smiles>  (12) 
Cc1nc2c(C)cccn2c1N(C)C

>  <score_type>  (12) 
oracle

>  <origin>  (12) 
adg

>  <m_score__min__energy>  (12) 
-5.6100000000000003

>  <m_primary>  (12) 
energy

$$$$
12:0
     RDKit          3D

 65 68  0  0  0  0  0  0  0  0999 V2000
   -1.0680   17.7440  -34.8120 C   0  0  0  0  0  0  0  0  0  0  0  0
   -2.0120   17.4870  -33.6430 C   0  0  0  0  0  0  0  0  0  0  0  0
   -2.2190   18.7460  -32.8860 N   0  0  0  0  0  0  0  0  0  0  0  0
   -1.1820   18.9000  -31.8530 C   0  0  0  0  0  0  0  0  0  0  0  0
   -2.2310   19.9340  -33.7670 C   0  0  0  0  0  0  0  0  0  0  0  0
   -3.0300   21.1050  -33.1610 C   0  0  0  0  0  0  0  0  0  0  0  0
   -3.8040   20.7540  -31.9520 N   0  0  0  0  0  0  0  0  0  0  0  0
   -5.1500   21.3160  -31.9450 C   0  0  0  0  0  0  0  0  0  0  0  0
   -5.3670   22.6330  -31.4230 C   0  0  0  0  0  0  0  0  0  0  0  0
   -4.3020   23.4550  -30.9640 C   0  0  0  0  0  0  0  0  0  0  0  0
   -4.5370   24.7140  -30.4120 C   0  0  0  0  0  0  0  0  0  0  0  0
   -5.8320   25.1870  -30.2780 C   0  0  0  0  0  0  0  0  0  0  0  0
   -6.8990   24.4180  -30.7260 C   0  0  0  0  0  0  0  0  0  0  0  0
   -6.6900   23.1460  -31.3290 C   0  0  0  0  0  0  0  0  0  0  0  0
   -7.7550   22.4010  -31.7710 N   0  0  0  0  0  0  0  0  0  0  0  0
   -9.0740   23.0450  -31.9700 C   0  0  0  0  0  0  0  0  0  0  0  0
   -7.5990   21.0600  -32.0400 C   0  0  0  0  0  0  0  0  0  0  0  0
   -8.7290   20.2070  -32.0650 C   0  0  0  0  0  0  0  0  0  0  0  0
   -8.6130   18.8670  -32.3850 C   0  0  0  0  0  0  0  0  0  0  0  0
   -7.3880   18.3560  -32.7630 C   0  0  0  0  0  0  0  0  0  0  0  0
   -6.2430   19.1610  -32.7810 C   0  0  0  0  0  0  0  0  0  0  0  0
   -5.0860   18.6070  -33.4280 N   0  0  0  0  0  0  0  0  0  0  0  0
   -5.1600   17.8440  -34.6820 C   0  0  0  0  0  0  0  0  0  0  0  0
   -5.7860   16.4390  -34.5400 C   0  0  0  0  0  0  0  0  0  0  0  0
   -4.8640   15.4840  -33.9140 N   0  0  0  0  0  0  0  0  0  0  0  0
   -4.9890   15.1770  -32.5850 C   0  0  0  0  0  0  0  0  0  0  0  0
   -4.1250   14.2580  -31.9830 C   0  0  0  0  0  0  0  0  0  0  0  0
   -3.1160   13.6680  -32.7410 C   0  0  0  0  0  0  0  0  0  0  0  0
   -2.9800   14.0040  -34.0890 C   0  0  0  0  0  0  0  0  0  0  0  0
   -3.8660   14.9200  -34.6620 C   0  0  0  0  0  0  0  0  0  0  0  0
   -6.2990   20.5080  -32.2690 C   0  0  0  0  0  0  0  0  0  0  0  0
   -0.0736   18.0147  -34.4276 H   0  0  0  0  0  0  0  0  0  0  0  0
   -0.9887   16.8348  -35.4260 H   0  0  0  0  0  0  0  0  0  0  0  0
   -1.4606   18.5680  -35.4260 H   0  0  0  0  0  0  0  0  0  0  0  0
   -2.9784   17.1262  -34.0250 H   0  0  0  0  0  0  0  0  0  0  0  0
   -1.5731   16.7284  -32.9783 H   0  0  0  0  0  0  0  0  0  0  0  0
   -1.6437   18.8314  -30.8569 H   0  0  0  0  0  0  0  0  0  0  0  0
   -0.4317   18.1034  -31.9650 H   0  0  0  0  0  0  0  0  0  0  0  0
   -0.6956   19.8802  -31.9650 H   0  0  0  0  0  0  0  0  0  0  0  0
   -1.1941   20.2618  -33.9327 H   0  0  0  0  0  0  0  0  0  0  0  0
   -2.7180   19.6476  -34.7108 H   0  0  0  0  0  0  0  0  0  0  0  0
   -2.3221   21.9043  -32.8964 H   0  0  0  0  0  0  0  0  0  0  0  0
   -3.7605   21.4146  -33.9229 H   0  0  0  0  0  0  0  0  0  0  0  0
   -3.2590   20.9750  -31.0980 H   0  0  0  0  0  0  0  0  0  0  0  0
   -3.8700   19.7220  -31.8610 H   0  0  0  0  0  0  0  0  0  0  0  0
   -3.2678   23.0894  -31.0462 H   0  0  0  0  0  0  0  0  0  0  0  0
   -3.6905   25.3339  -30.0817 H   0  0  0  0  0  0  0  0  0  0  0  0
   -6.0153   26.1692  -29.8179 H   0  0  0  0  0  0  0  0  0  0  0  0
   -7.9245   24.7995  -30.6125 H   0  0  0  0  0  0  0  0  0  0  0  0
   -9.5257   23.2655  -30.9916 H   0  0  0  0  0  0  0  0  0  0  0  0
   -8.9438   23.9809  -32.5331 H   0  0  0  0  0  0  0  0  0  0  0  0
   -9.7320   22.3668  -32.5331 H   0  0  0  0  0  0  0  0  0  0  0  0
   -9.7201   20.6193  -31.8247 H   0  0  0  0  0  0  0  0  0  0  0  0
   -9.4942   18.2103  -32.3385 H   0  0  0  0  0  0  0  0  0  0  0  0
   -7.3101   17.2983  -33.0550 H   0  0  0  0  0  0  0  0  0  0  0  0
   -4.3390   18.2600  -32.7880 H   0  0  0  0  0  0  0  0  0  0  0  0
   -5.7646   18.4188  -35.3989 H   0  0  0  0  0  0  0  0  0  0  0  0
   -4.1236   17.6926  -35.0181 H   0  0  0  0  0  0  0  0  0  0  0  0
   -6.6919   16.5153  -33.9207 H   0  0  0  0  0  0  0  0  0  0  0  0
   -6.0220   16.0700  -35.5490 H   0  0  0  0  0  0  0  0  0  0  0  0
   -5.7764   15.6580  -31.9861 H   0  0  0  0  0  0  0  0  0  0  0  0
   -4.2408   14.0027  -30.9193 H   0  0  0  0  0  0  0  0  0  0  0  0
   -2.4305   12.9417  -32.2800 H   0  0  0  0  0  0  0  0  0  0  0  0
   -2.1817   13.5513  -34.6954 H   0  0  0  0  0  0  0  0  0  0  0  0
   -3.7606   15.1901  -35.7231 H   0  0  0  0  0  0  0  0  0  0  0  0
  1  2  1  0
  2  3  1  0
  3  4  1  0
  3  5  1  0
  5  6  1  0
  6  7  1  0
  7  8  1  0
  8  9  2  0
  9 10  1  0
 10 11  2  0
 11 12  1  0
 12 13  2  0
 13 14  1  0
 14 15  2  0
 15 16  1  0
 15 17  1  0
 17 18  2  0
 18 19  1  0
 19 20  2  0
 20 21  1  0
 21 22  1  0
 22 23  1  0
 23 24  1  0
 24 25  1  0
 25 26  2  0
 26 27  1  0
 27 28  2  0
 28 29  1  0
 29 30  2  0
 21 31  2  0
 31  8  1  0
 14  9  1  0
 31 17  1  0
 30 25  1  0
  1 32  1  0
  1 33  1  0
  1 34  1  0
  2 35  1  0
  2 36  1  0
  4 37  1  0
  4 38  1  0
  4 39  1  0
  5 40  1  0
  5 41  1  0
  6 42  1  0
  6 43  1  0
  7 44  1  0
  7 45  1  0
 10 46  1  0
 11 47  1  0
 12 48  1  0
 13 49  1  0
 16 50  1  0
 16 51  1  0
 16 52  1  0
 18 53  1  0
 19 54  1  0
 20 55  1  0
 22 56  1  0
 23 57  1  0
 23 58  1  0
 24 59  1  0
 24 60  1  0
 26 61  1  0
 27 62  1  0
 28 63  1  0
 29 64  1  0
 30 65  1  0
M  CHG  3   7   1  15   1  25   1
M  END
>  <UniqueID>  (13) 
13

>  <SMILES>  (13) 
CCN(C)CC[NH2+]c1c2ccccc2[n+](C)c2cccc(NCC[n+]3ccccc3)c12

>  <Energy>  (13) 
112.178390620373

>  <Genealogy>  (13) 
CCN(C)CC[NH2+]c1c2ccccc2[n+](C)c2cccc(NCC[n+]3ccccc3)c12 (protonated)
CCN(C)CC[NH2+]c1c2ccccc2[n+](C)c2cccc(NCC[n+]3ccccc3)c12 (3D coordinates assigned)
CCN(C)CC[NH2+]c1c2ccccc2[n+](C)c2cccc(NCC[n+]3ccccc3)c12 (optimized conformer: 112.178390620373 kcal/mol)

>  <smiles>  (13) 
CCN(C)CCNc1c2ccccc2[n+](C)c2cccc(NCC[n+]3ccccc3)c12

>  <score_type>  (13) 
oracle

>  <origin>  (13) 
adg

>  <m_score__min__energy>  (13) 
-8

>  <m_primary>  (13) 
energy

$$$$
13:0
     RDKit          3D

 61 63  0  0  0  0  0  0  0  0999 V2000
   -2.8100   24.2320  -27.7970 C   0  0  0  0  0  0  0  0  0  0  0  0
   -4.2010   24.1530  -28.4190 C   0  0  0  0  0  0  0  0  0  0  0  0
   -4.1110   24.0040  -29.8880 N   0  0  0  0  0  0  0  0  0  0  0  0
   -4.9940   24.9140  -30.6480 C   0  0  0  0  0  0  0  0  0  0  0  0
   -6.1420   25.4860  -29.8180 C   0  0  0  0  0  0  0  0  0  0  0  0
   -4.0190   22.6240  -30.4310 C   0  0  0  0  0  0  0  0  0  0  0  0
   -2.5920   22.0610  -30.5730 C   0  0  0  0  0  0  0  0  0  0  0  0
   -2.5520   21.1380  -31.6410 O   0  0  0  0  0  0  0  0  0  0  0  0
   -1.5770   21.5290  -32.5810 C   0  0  0  0  0  0  0  0  0  0  0  0
   -0.4750   20.4680  -32.6130 C   0  0  0  0  0  0  0  0  0  0  0  0
   -1.0170   19.0280  -32.5430 C   0  0  0  0  0  0  0  0  0  0  0  0
   -2.3630   18.8920  -33.1410 N   0  0  0  0  0  0  0  0  0  0  0  0
   -2.7110   17.4810  -33.3860 C   0  0  0  0  0  0  0  0  0  0  0  0
   -3.8910   17.3480  -34.3580 C   0  0  0  0  0  0  0  0  0  0  0  0
   -5.0860   17.9950  -33.8180 N   0  0  0  0  0  0  0  0  0  0  0  0
   -6.2700   17.3680  -33.3310 C   0  0  0  0  0  0  0  0  0  0  0  0
   -6.4950   16.1300  -33.3900 O   0  0  0  0  0  0  0  0  0  0  0  0
   -7.1670   18.3700  -32.7680 C   0  0  0  0  0  0  0  0  0  0  0  0
   -8.4380   18.2190  -32.2220 C   0  0  0  0  0  0  0  0  0  0  0  0
   -9.1170   19.3670  -31.7890 C   0  0  0  0  0  0  0  0  0  0  0  0
   -8.5210   20.6440  -31.9060 C   0  0  0  0  0  0  0  0  0  0  0  0
   -9.2160   21.7890  -31.4890 C   0  0  0  0  0  0  0  0  0  0  0  0
   -8.6250   23.0490  -31.5990 C   0  0  0  0  0  0  0  0  0  0  0  0
   -7.3370   23.1810  -32.1240 C   0  0  0  0  0  0  0  0  0  0  0  0
   -6.6300   22.0520  -32.5510 C   0  0  0  0  0  0  0  0  0  0  0  0
   -7.2110   20.7770  -32.4520 C   0  0  0  0  0  0  0  0  0  0  0  0
   -6.5590   19.6080  -32.8810 C   0  0  0  0  0  0  0  0  0  0  0  0
   -5.2570   19.3840  -33.5240 C   0  0  0  0  0  0  0  0  0  0  0  0
   -4.3970   20.2630  -33.7880 O   0  0  0  0  0  0  0  0  0  0  0  0
   -2.8978   24.2270  -26.7005 H   0  0  0  0  0  0  0  0  0  0  0  0
   -2.2137   23.3663  -28.1210 H   0  0  0  0  0  0  0  0  0  0  0  0
   -2.3156   25.1597  -28.1210 H   0  0  0  0  0  0  0  0  0  0  0  0
   -4.7347   23.2869  -28.0005 H   0  0  0  0  0  0  0  0  0  0  0  0
   -4.7428   25.0828  -28.1911 H   0  0  0  0  0  0  0  0  0  0  0  0
   -4.3883   25.7504  -31.0269 H   0  0  0  0  0  0  0  0  0  0  0  0
   -5.4451   24.3234  -31.4590 H   0  0  0  0  0  0  0  0  0  0  0  0
   -5.9132   25.3720  -28.7481 H   0  0  0  0  0  0  0  0  0  0  0  0
   -6.2691   26.5528  -30.0541 H   0  0  0  0  0  0  0  0  0  0  0  0
   -7.0702   24.9450  -30.0541 H   0  0  0  0  0  0  0  0  0  0  0  0
   -4.5810   21.9576  -29.7601 H   0  0  0  0  0  0  0  0  0  0  0  0
   -4.4273   22.6730  -31.4513 H   0  0  0  0  0  0  0  0  0  0  0  0
   -1.8916   22.8849  -30.7745 H   0  0  0  0  0  0  0  0  0  0  0  0
   -2.3045   21.5537  -29.6403 H   0  0  0  0  0  0  0  0  0  0  0  0
   -2.0364   21.6160  -33.5767 H   0  0  0  0  0  0  0  0  0  0  0  0
   -1.1519   22.5032  -32.2977 H   0  0  0  0  0  0  0  0  0  0  0  0
    0.0935   20.5825  -33.5477 H   0  0  0  0  0  0  0  0  0  0  0  0
    0.1547   20.6238  -31.7246 H   0  0  0  0  0  0  0  0  0  0  0  0
   -0.3243   18.3652  -33.0824 H   0  0  0  0  0  0  0  0  0  0  0  0
   -1.0980   18.7561  -31.4802 H   0  0  0  0  0  0  0  0  0  0  0  0
   -3.0680   19.2860  -32.4740 H   0  0  0  0  0  0  0  0  0  0  0  0
   -2.4330   19.4460  -34.0250 H   0  0  0  0  0  0  0  0  0  0  0  0
   -1.8373   16.9674  -33.8136 H   0  0  0  0  0  0  0  0  0  0  0  0
   -3.0039   17.0286  -32.4271 H   0  0  0  0  0  0  0  0  0  0  0  0
   -3.6254   17.8223  -35.3143 H   0  0  0  0  0  0  0  0  0  0  0  0
   -4.1060   16.2795  -34.5064 H   0  0  0  0  0  0  0  0  0  0  0  0
   -8.8985   17.2241  -32.1323 H   0  0  0  0  0  0  0  0  0  0  0  0
  -10.1230   19.2732  -31.3541 H   0  0  0  0  0  0  0  0  0  0  0  0
  -10.2302   21.6937  -31.0739 H   0  0  0  0  0  0  0  0  0  0  0  0
   -9.1762   23.9425  -31.2706 H   0  0  0  0  0  0  0  0  0  0  0  0
   -6.8769   24.1771  -32.2019 H   0  0  0  0  0  0  0  0  0  0  0  0
   -5.6170   22.1629  -32.9651 H   0  0  0  0  0  0  0  0  0  0  0  0
  1  2  1  0
  2  3  1  0
  3  4  1  0
  4  5  1  0
  3  6  1  0
  6  7  1  0
  7  8  1  0
  8  9  1  0
  9 10  1  0
 10 11  1  0
 11 12  1  0
 12 13  1  0
 13 14  1  0
 14 15  1  0
 15 16  1  0
 16 17  2  0
 16 18  1  0
 18 19  2  0
 19 20  1  0
 20 21  2  0
 21 22  1  0
 22 23  2  0
 23 24  1  0
 24 25  2  0
 25 26  1  0
 26 27  2  0
 27 28  1  0
 28 29  2  0
 28 15  1  0
 27 18  1  0
 26 21  1  0
  1 30  1  0
  1 31  1  0
  1 32  1  0
  2 33  1  0
  2 34  1  0
  4 35  1  0
  4 36  1  0
  5 37  1  0
  5 38  1  0
  5 39  1  0
  6 40  1  0
  6 41  1  0
  7 42  1  0
  7 43  1  0
  9 44  1  0
  9 45  1  0
 10 46  1  0
 10 47  1  0
 11 48  1  0
 11 49  1  0
 12 50  1  0
 12 51  1  0
 13 52  1  0
 13 53  1  0
 14 54  1  0
 14 55  1  0
 19 56  1  0
 20 57  1  0
 22 58  1  0
 23 59  1  0
 24 60  1  0
 25 61  1  0
M  CHG  1  12   1
M  END
>  <UniqueID>  (14) 
14

>  <SMILES>  (14) 
CCN(CC)CCOCCC[NH2+]CCN1C(=O)c2ccc3ccccc3c2C1=O

>  <Energy>  (14) 
94.69932128018509

>  <Genealogy>  (14) 
CCN(CC)CCOCCC[NH2+]CCN1C(=O)c2ccc3ccccc3c2C1=O (protonated)
CCN(CC)CCOCCC[NH2+]CCN1C(=O)c2ccc3ccccc3c2C1=O (3D coordinates assigned)
CCN(CC)CCOCCC[NH2+]CCN1C(=O)c2ccc3ccccc3c2C1=O (nonaromatic ring conformer: 94.69932128018509 kcal/mol)

>  <smiles>  (14) 
CCN(CC)CCOCCCNCCN1C(=O)c2ccc3ccccc3c2C1=O

>  <score_type>  (14) 
oracle

>  <origin>  (14) 
adg

>  <m_score__min__energy>  (14) 
-8.1799999999999997

>  <m_primary>  (14) 
energy

$$$$
14:0
     RDKit          3D

108111  0  0  0  0  0  0  0  0999 V2000
   -0.6670   23.1880  -25.6100 C   0  0  0  0  0  0  0  0  0  0  0  0
   -0.3000   24.1480  -24.4820 C   0  0  0  0  0  0  0  0  0  0  0  0
   -1.2200   25.3070  -24.4670 N   0  0  0  0  0  0  0  0  0  0  0  0
   -2.1330   25.3070  -25.6230 C   0  0  0  0  0  0  0  0  0  0  0  0
   -0.5060   26.5960  -24.3170 C   0  0  0  0  0  0  0  0  0  0  0  0
   -0.7520   27.5870  -25.4700 C   0  0  0  0  0  0  0  0  0  0  0  0
    0.4580   27.8260  -26.1680 O   0  0  0  0  0  0  0  0  0  0  0  0
    1.2880   26.6820  -26.1590 C   0  0  0  0  0  0  0  0  0  0  0  0
    0.9990   25.8020  -27.3390 C   0  0  0  0  0  0  0  0  0  0  0  0
    1.8560   24.9560  -27.7120 O   0  0  0  0  0  0  0  0  0  0  0  0
   -0.2350   25.9100  -27.9890 O   0  0  0  0  0  0  0  0  0  0  0  0
   -0.8800   24.8200  -28.6390 C   0  0  0  0  0  0  0  0  0  0  0  0
   -2.0380   25.2740  -29.3420 O   0  0  0  0  0  0  0  0  0  0  0  0
   -3.2490   24.5700  -29.3820 C   0  0  0  0  0  0  0  0  0  0  0  0
   -3.9820   24.6020  -30.4090 O   0  0  0  0  0  0  0  0  0  0  0  0
   -3.6500   23.7380  -28.1980 C   0  0  0  0  0  0  0  0  0  0  0  0
   -4.1770   22.3310  -28.5890 C   0  0  0  0  0  0  0  0  0  0  0  0
   -3.1480   21.2540  -28.7950 N   0  0  1  0  0  0  0  0  0  0  0  0
   -3.4980   20.4410  -29.9900 C   0  0  0  0  0  0  0  0  0  0  0  0
   -1.8450   21.9600  -29.0220 C   0  0  0  0  0  0  0  0  0  0  0  0
   -0.6150   21.0360  -29.0590 C   0  0  0  0  0  0  0  0  0  0  0  0
   -0.5500   20.1800  -27.7890 C   0  0  2  0  0  0  0  0  0  0  0  0
    0.6390   19.3040  -27.7540 N   0  0  0  0  0  0  0  0  0  0  0  0
    0.4110   17.8820  -28.0810 C   0  0  0  0  0  0  0  0  0  0  0  0
    1.0880   17.5140  -29.4100 C   0  0  0  0  0  0  0  0  0  0  0  0
    0.2000   17.6920  -30.6570 C   0  0  0  0  0  0  0  0  0  0  0  0
    0.5390   18.9360  -31.4950 C   0  0  0  0  0  0  0  0  0  0  0  0
   -0.6740   19.6830  -31.8530 N   0  0  0  0  0  0  0  0  0  0  0  0
   -0.3880   20.7610  -32.8160 C   0  0  0  0  0  0  0  0  0  0  0  0
   -1.6480   21.1710  -33.6060 C   0  0  0  0  0  0  0  0  0  0  0  0
   -2.7390   21.7430  -32.6870 C   0  0  0  0  0  0  0  0  0  0  0  0
   -4.0750   21.5660  -33.2530 N   0  0  0  0  0  0  0  0  0  0  0  0
   -5.1000   20.7760  -33.0270 C   0  0  0  0  0  0  0  0  0  0  0  0
   -6.2340   21.3970  -32.4330 C   0  0  0  0  0  0  0  0  0  0  0  0
   -7.4430   20.6800  -32.3090 C   0  0  0  0  0  0  0  0  0  0  0  0
   -7.4990   19.3870  -32.6950 N   0  0  0  0  0  0  0  0  0  0  0  0
   -6.4360   18.7250  -33.2060 C   0  0  0  0  0  0  0  0  0  0  0  0
   -6.6000   17.3770  -33.5500 C   0  0  0  0  0  0  0  0  0  0  0  0
   -5.5260   16.6390  -34.0310 C   0  0  0  0  0  0  0  0  0  0  0  0
   -4.2770   17.2350  -34.1520 C   0  0  0  0  0  0  0  0  0  0  0  0
   -4.0970   18.5780  -33.8140 C   0  0  0  0  0  0  0  0  0  0  0  0
   -5.1800   19.3780  -33.3640 C   0  0  0  0  0  0  0  0  0  0  0  0
   -8.6660   21.2670  -31.6510 C   0  0  0  0  0  0  0  0  0  0  0  0
   -8.6510   22.7960  -31.6250 C   0  0  0  0  0  0  0  0  0  0  0  0
   -7.3060   23.2960  -31.1090 C   0  0  0  0  0  0  0  0  0  0  0  0
   -6.1840   22.8720  -32.0600 C   0  0  0  0  0  0  0  0  0  0  0  0
   -1.8680   19.4170  -27.5800 C   0  0  0  0  0  0  0  0  0  0  0  0
   -3.0620   20.3930  -27.5730 C   0  0  0  0  0  0  0  0  0  0  0  0
   -1.0289   22.2413  -25.1826 H   0  0  0  0  0  0  0  0  0  0  0  0
   -1.4572   23.6361  -26.2303 H   0  0  0  0  0  0  0  0  0  0  0  0
    0.2206   22.9946  -26.2303 H   0  0  0  0  0  0  0  0  0  0  0  0
   -0.3686   23.6191  -23.5200 H   0  0  0  0  0  0  0  0  0  0  0  0
    0.7259   24.5106  -24.6435 H   0  0  0  0  0  0  0  0  0  0  0  0
   -2.3603   24.2699  -25.9107 H   0  0  0  0  0  0  0  0  0  0  0  0
   -3.0651   25.8255  -25.3541 H   0  0  0  0  0  0  0  0  0  0  0  0
   -1.6554   25.8255  -26.4674 H   0  0  0  0  0  0  0  0  0  0  0  0
   -0.8364   27.0673  -23.3796 H   0  0  0  0  0  0  0  0  0  0  0  0
    0.5696   26.3658  -24.3196 H   0  0  0  0  0  0  0  0  0  0  0  0
   -1.4948   27.1638  -26.1623 H   0  0  0  0  0  0  0  0  0  0  0  0
   -1.1255   28.5360  -25.0579 H   0  0  0  0  0  0  0  0  0  0  0  0
    2.3403   27.0002  -26.1961 H   0  0  0  0  0  0  0  0  0  0  0  0
    1.0913   26.1121  -25.2389 H   0  0  0  0  0  0  0  0  0  0  0  0
   -0.1811   24.3582  -29.3519 H   0  0  0  0  0  0  0  0  0  0  0  0
   -1.1881   24.0845  -27.8813 H   0  0  0  0  0  0  0  0  0  0  0  0
   -2.7735   23.6139  -27.5450 H   0  0  0  0  0  0  0  0  0  0  0  0
   -4.4716   24.2654  -27.6913 H   0  0  0  0  0  0  0  0  0  0  0  0
   -4.8542   21.9955  -27.7898 H   0  0  0  0  0  0  0  0  0  0  0  0
   -4.6534   22.4652  -29.5714 H   0  0  0  0  0  0  0  0  0  0  0  0
   -3.9138   19.4751  -29.6674 H   0  0  0  0  0  0  0  0  0  0  0  0
   -4.2445   20.9784  -30.5933 H   0  0  0  0  0  0  0  0  0  0  0  0
   -2.5946   20.2681  -30.5933 H   0  0  0  0  0  0  0  0  0  0  0  0
   -1.9050   22.4905  -29.9838 H   0  0  0  0  0  0  0  0  0  0  0  0
   -1.7025   22.6354  -28.1656 H   0  0  0  0  0  0  0  0  0  0  0  0
   -0.6833   20.3769  -29.9370 H   0  0  0  0  0  0  0  0  0  0  0  0
    0.2931   21.6538  -29.1192 H   0  0  0  0  0  0  0  0  0  0  0  0
   -0.4284   20.8597  -26.9327 H   0  0  0  0  0  0  0  0  0  0  0  0
    1.0660   19.3670  -26.8000 H   0  0  0  0  0  0  0  0  0  0  0  0
    0.8275   17.2558  -27.2783 H   0  0  0  0  0  0  0  0  0  0  0  0
   -0.6714   17.7107  -28.1767 H   0  0  0  0  0  0  0  0  0  0  0  0
    1.9772   18.1504  -29.5291 H   0  0  0  0  0  0  0  0  0  0  0  0
    1.3274   16.4420  -29.3499 H   0  0  0  0  0  0  0  0  0  0  0  0
    0.3171   16.8033  -31.2945 H   0  0  0  0  0  0  0  0  0  0  0  0
   -0.8311   17.8227  -30.2969 H   0  0  0  0  0  0  0  0  0  0  0  0
    1.2044   19.5903  -30.9126 H   0  0  0  0  0  0  0  0  0  0  0  0
    1.0316   18.6074  -32.4220 H   0  0  0  0  0  0  0  0  0  0  0  0
   -1.3850   19.0250  -32.2560 H   0  0  0  0  0  0  0  0  0  0  0  0
   -0.0101   21.6370  -32.2684 H   0  0  0  0  0  0  0  0  0  0  0  0
    0.3599   20.3906  -33.5325 H   0  0  0  0  0  0  0  0  0  0  0  0
   -1.3703   21.9352  -34.3469 H   0  0  0  0  0  0  0  0  0  0  0  0
   -2.0511   20.2723  -34.0957 H   0  0  0  0  0  0  0  0  0  0  0  0
   -2.6927   21.2277  -31.7163 H   0  0  0  0  0  0  0  0  0  0  0  0
   -2.5573   22.8217  -32.5718 H   0  0  0  0  0  0  0  0  0  0  0  0
   -7.5850   16.9002  -33.4386 H   0  0  0  0  0  0  0  0  0  0  0  0
   -5.6641   15.5854  -34.3153 H   0  0  0  0  0  0  0  0  0  0  0  0
   -3.4235   16.6447  -34.5167 H   0  0  0  0  0  0  0  0  0  0  0  0
   -3.0955   19.0251  -33.8982 H   0  0  0  0  0  0  0  0  0  0  0  0
   -9.5564   20.9340  -32.2044 H   0  0  0  0  0  0  0  0  0  0  0  0
   -8.6790   20.9189  -30.6076 H   0  0  0  0  0  0  0  0  0  0  0  0
   -8.8159   23.1792  -32.6428 H   0  0  0  0  0  0  0  0  0  0  0  0
   -9.4491   23.1535  -30.9577 H   0  0  0  0  0  0  0  0  0  0  0  0
   -7.3285   24.3936  -31.0402 H   0  0  0  0  0  0  0  0  0  0  0  0
   -7.1184   22.8611  -30.1162 H   0  0  0  0  0  0  0  0  0  0  0  0
   -6.2638   23.4677  -32.9813 H   0  0  0  0  0  0  0  0  0  0  0  0
   -5.2319   23.0428  -31.5362 H   0  0  0  0  0  0  0  0  0  0  0  0
   -1.9990   18.6906  -28.3956 H   0  0  0  0  0  0  0  0  0  0  0  0
   -1.8281   18.8968  -26.6116 H   0  0  0  0  0  0  0  0  0  0  0  0
   -3.9891   19.8058  -27.4969 H   0  0  0  0  0  0  0  0  0  0  0  0
   -2.9184   21.0676  -26.7161 H   0  0  0  0  0  0  0  0  0  0  0  0
  1  2  1  0
  2  3  1  0
  3  4  1  0
  3  5  1  0
  5  6  1  0
  6  7  1  0
  7  8  1  0
  8  9  1  0
  9 10  2  0
  9 11  1  0
 11 12  1  0
 12 13  1  0
 13 14  1  0
 14 15  2  0
 14 16  1  0
 16 17  1  0
 18 17  1  1
 18 19  1  0
 18 20  1  0
 20 21  1  0
 21 22  1  0
 22 23  1  0
 23 24  1  0
 24 25  1  0
 25 26  1  0
 26 27  1  0
 27 28  1  0
 28 29  1  0
 29 30  1  0
 30 31  1  0
 31 32  1  0
 32 33  2  3
 33 34  1  0
 34 35  2  0
 35 36  1  0
 36 37  1  0
 37 38  2  0
 38 39  1  0
 39 40  2  0
 40 41  1  0
 41 42  2  0
 35 43  1  0
 43 44  1  0
 44 45  1  0
 45 46  1  0
 22 47  1  0
 47 48  1  0
 48 18  1  0
 42 33  1  0
 46 34  1  0
 42 37  1  0
  1 49  1  0
  1 50  1  0
  1 51  1  0
  2 52  1  0
  2 53  1  0
  4 54  1  0
  4 55  1  0
  4 56  1  0
  5 57  1  0
  5 58  1  0
  6 59  1  0
  6 60  1  0
  8 61  1  0
  8 62  1  0
 12 63  1  0
 12 64  1  0
 16 65  1  0
 16 66  1  0
 17 67  1  0
 17 68  1  0
 19 69  1  0
 19 70  1  0
 19 71  1  0
 20 72  1  0
 20 73  1  0
 21 74  1  0
 21 75  1  0
 22 76  1  1
 23 77  1  0
 24 78  1  0
 24 79  1  0
 25 80  1  0
 25 81  1  0
 26 82  1  0
 26 83  1  0
 27 84  1  0
 27 85  1  0
 28 86  1  0
 29 87  1  0
 29 88  1  0
 30 89  1  0
 30 90  1  0
 31 91  1  0
 31 92  1  0
 38 93  1  0
 39 94  1  0
 40 95  1  0
 41 96  1  0
 43 97  1  0
 43 98  1  0
 44 99  1  0
 44100  1  0
 45101  1  0
 45102  1  0
 46103  1  0
 46104  1  0
 47105  1  0
 47106  1  0
 48107  1  0
 48108  1  0
M  CHG  2  18   1  36  -1
M  END
>  <UniqueID>  (15) 
15

>  <SMILES>  (15) 
CCN(C)CCOCC(=O)OCOC(=O)CC[N+]1(C)CCC(NCCCCNCCCN=c2c3c([n-]c4ccccc24)CCCC3)CC1

>  <Energy>  (15) 
140.91217469959074

>  <Genealogy>  (15) 
CCN(C)CCOCC(=O)OCOC(=O)CC[N+]1(C)CCC(NCCCCNCCCN=c2c3c([n-]c4ccccc24)CCCC3)CC1 (protonated)
CCN(C)CCOCC(=O)OCOC(=O)CC[N+]1(C)CCC(NCCCCNCCCN=c2c3c([n-]c4ccccc24)CCCC3)CC1 (3D coordinates assigned)
CCN(C)CCOCC(=O)OCOC(=O)CC[N+]1(C)CCC(NCCCCNCCCN=c2c3c([n-]c4ccccc24)CCCC3)CC1 (nonaromatic ring conformer: 140.91217469959074 kcal/mol)

>  <smiles>  (15) 
CCN(C)CCOCC(=O)OCOC(=O)CC[N+]1(C)CCC(NCCCCNCCCN=c2c3c([nH]c4ccccc24)CCCC3)CC1

>  <score_type>  (15) 
oracle

>  <origin>  (15) 
adg

>  <m_score__min__energy>  (15) 
-9.2100000000000009

>  <m_primary>  (15) 
energy

$$$$
15:0
     RDKit          3D

 39 40  0  0  0  0  0  0  0  0999 V2000
   -2.6770   23.1930  -29.7820 C   0  0  0  0  0  0  0  0  0  0  0  0
   -3.3670   24.4850  -29.3330 C   0  0  0  0  0  0  0  0  0  0  0  0
   -3.8620   25.2900  -30.4650 N   0  0  0  0  0  0  0  0  0  0  0  0
   -5.3230   25.4760  -30.4690 C   0  0  0  0  0  0  0  0  0  0  0  0
   -6.0350   24.4130  -29.6770 C   0  0  0  0  0  0  0  0  0  0  0  0
   -7.0660   23.7260  -30.1900 C   0  0  0  0  0  0  0  0  0  0  0  0
   -7.2350   23.5610  -31.6750 C   0  0  0  0  0  0  0  0  0  0  0  0
   -6.6700   22.2660  -32.1120 N   0  0  0  0  0  0  0  0  0  0  0  0
   -7.4740   21.1630  -32.2210 C   0  0  0  0  0  0  0  0  0  0  0  0
   -8.7150   21.2570  -32.0050 O   0  0  0  0  0  0  0  0  0  0  0  0
   -6.9240   19.9220  -32.5660 C   0  0  0  0  0  0  0  0  0  0  0  0
   -7.7340   18.7730  -32.6790 C   0  0  0  0  0  0  0  0  0  0  0  0
   -7.1730   17.5420  -33.0130 C   0  0  0  0  0  0  0  0  0  0  0  0
   -5.8030   17.4410  -33.2380 C   0  0  0  0  0  0  0  0  0  0  0  0
   -4.9870   18.5680  -33.1310 C   0  0  0  0  0  0  0  0  0  0  0  0
   -5.5320   19.8320  -32.7940 C   0  0  0  0  0  0  0  0  0  0  0  0
   -4.7480   20.9590  -32.6800 N   0  0  0  0  0  0  0  0  0  0  0  0
   -3.2890   20.8790  -32.9060 C   0  0  0  0  0  0  0  0  0  0  0  0
   -5.3200   22.1630  -32.3380 C   0  0  0  0  0  0  0  0  0  0  0  0
   -4.5950   23.1920  -32.2200 O   0  0  0  0  0  0  0  0  0  0  0  0
   -2.3687   22.6157  -28.8979 H   0  0  0  0  0  0  0  0  0  0  0  0
   -3.3757   22.5947  -30.3852 H   0  0  0  0  0  0  0  0  0  0  0  0
   -1.7912   23.4409  -30.3852 H   0  0  0  0  0  0  0  0  0  0  0  0
   -4.2191   24.2230  -28.6885 H   0  0  0  0  0  0  0  0  0  0  0  0
   -2.6214   25.0902  -28.7965 H   0  0  0  0  0  0  0  0  0  0  0  0
   -3.5290   24.9040  -31.3790 H   0  0  0  0  0  0  0  0  0  0  0  0
   -5.5559   26.4584  -30.0324 H   0  0  0  0  0  0  0  0  0  0  0  0
   -5.6685   25.4081  -31.5111 H   0  0  0  0  0  0  0  0  0  0  0  0
   -5.7015   24.1941  -28.6519 H   0  0  0  0  0  0  0  0  0  0  0  0
   -7.8034   23.2738  -29.5104 H   0  0  0  0  0  0  0  0  0  0  0  0
   -8.3058   23.5932  -31.9247 H   0  0  0  0  0  0  0  0  0  0  0  0
   -6.7050   24.3761  -32.1896 H   0  0  0  0  0  0  0  0  0  0  0  0
   -8.8170   18.8492  -32.5021 H   0  0  0  0  0  0  0  0  0  0  0  0
   -7.8121   16.6509  -33.0988 H   0  0  0  0  0  0  0  0  0  0  0  0
   -5.3616   16.4685  -33.5013 H   0  0  0  0  0  0  0  0  0  0  0  0
   -3.9059   18.4739  -33.3107 H   0  0  0  0  0  0  0  0  0  0  0  0
   -2.7689   20.8505  -31.9371 H   0  0  0  0  0  0  0  0  0  0  0  0
   -3.0555   19.9667  -33.4745 H   0  0  0  0  0  0  0  0  0  0  0  0
   -2.9572   21.7603  -33.4745 H   0  0  0  0  0  0  0  0  0  0  0  0
  1  2  1  0
  2  3  1  0
  3  4  1  0
  4  5  1  0
  5  6  2  3
  6  7  1  0
  7  8  1  0
  8  9  1  0
  9 10  2  0
  9 11  1  0
 11 12  2  0
 12 13  1  0
 13 14  2  0
 14 15  1  0
 15 16  2  0
 16 17  1  0
 17 18  1  0
 17 19  1  0
 19 20  2  0
 19  8  1  0
 16 11  1  0
  1 21  1  0
  1 22  1  0
  1 23  1  0
  2 24  1  0
  2 25  1  0
  3 26  1  0
  4 27  1  0
  4 28  1  0
  5 29  1  0
  6 30  1  0
  7 31  1  0
  7 32  1  0
 12 33  1  0
 13 34  1  0
 14 35  1  0
 15 36  1  0
 18 37  1  0
 18 38  1  0
 18 39  1  0
M  END
>  <UniqueID>  (16) 
16

>  <SMILES>  (16) 
CCNCC=CCn1c(=O)c2ccccc2n(C)c1=O

>  <Energy>  (16) 
47.360776107704986

>  <Genealogy>  (16) 
CCNCC=CCn1c(=O)c2ccccc2n(C)c1=O (3D coordinates assigned)
CCNCC=CCn1c(=O)c2ccccc2n(C)c1=O (optimized conformer: 47.360776107704986 kcal/mol)

>  <smiles>  (16) 
CCNCC=CCn1c(=O)c2ccccc2n(C)c1=O

>  <score_type>  (16) 
oracle

>  <origin>  (16) 
adg

>  <m_score__min__energy>  (16) 
-7.8899999999999997

>  <m_primary>  (16) 
energy

$$$$
16:0
     RDKit          3D

 94 93  0  0  0  0  0  0  0  0999 V2000
   -3.4350   18.8840  -26.3040 C   0  0  0  0  0  0  0  0  0  0  0  0
   -1.9640   18.9750  -26.7070 C   0  0  0  0  0  0  0  0  0  0  0  0
   -1.7480   20.0750  -27.6700 N   0  0  0  0  0  0  0  0  0  0  0  0
   -2.9910   20.8450  -27.8470 C   0  0  0  0  0  0  0  0  0  0  0  0
   -0.6260   20.9620  -27.2690 C   0  0  0  0  0  0  0  0  0  0  0  0
   -1.1540   22.0880  -26.3860 C   0  0  0  0  0  0  0  0  0  0  0  0
   -0.2670   22.2870  -25.3030 O   0  0  0  0  0  0  0  0  0  0  0  0
    0.2580   23.6040  -25.3220 C   0  0  0  0  0  0  0  0  0  0  0  0
   -0.5060   24.5320  -24.3640 C   0  0  0  0  0  0  0  0  0  0  0  0
   -1.0090   25.8000  -25.0710 C   0  0  0  0  0  0  0  0  0  0  0  0
   -2.4450   25.6450  -25.6120 C   0  0  0  0  0  0  0  0  0  0  0  0
   -2.5350   24.9980  -27.0090 C   0  0  0  0  0  0  0  0  0  0  0  0
   -1.4860   25.5140  -28.0040 C   0  0  0  0  0  0  0  0  0  0  0  0
   -1.8980   25.2570  -29.3330 O   0  0  0  0  0  0  0  0  0  0  0  0
   -2.3790   23.9360  -29.4690 C   0  0  0  0  0  0  0  0  0  0  0  0
   -3.5350   23.9130  -30.4640 C   0  0  0  0  0  0  0  0  0  0  0  0
   -3.8930   25.2390  -30.8210 O   0  0  0  0  0  0  0  0  0  0  0  0
   -5.1870   25.5480  -30.3470 C   0  0  0  0  0  0  0  0  0  0  0  0
   -5.9380   24.2530  -30.0360 C   0  0  0  0  0  0  0  0  0  0  0  0
   -7.2310   24.1620  -30.8580 C   0  0  0  0  0  0  0  0  0  0  0  0
   -7.5900   22.7040  -31.1790 C   0  0  0  0  0  0  0  0  0  0  0  0
   -6.3540   21.8120  -31.3990 C   0  0  0  0  0  0  0  0  0  0  0  0
   -6.3440   21.0080  -32.7130 C   0  0  0  0  0  0  0  0  0  0  0  0
   -7.6970   20.3530  -33.0320 C   0  0  0  0  0  0  0  0  0  0  0  0
   -8.3570   19.7160  -31.7950 C   0  0  0  0  0  0  0  0  0  0  0  0
   -8.0630   18.2180  -31.5890 C   0  0  0  0  0  0  0  0  0  0  0  0
   -7.3230   17.5770  -32.7770 C   0  0  0  0  0  0  0  0  0  0  0  0
   -5.7930   17.4330  -32.5170 C   0  0  0  0  0  0  0  0  0  0  0  0
   -4.9200   17.3640  -33.7360 N   0  0  0  0  0  0  0  0  0  0  0  0
   -5.5170   18.1670  -34.8380 C   0  0  0  0  0  0  0  0  0  0  0  0
   -4.7530   15.9640  -34.2030 C   0  0  0  0  0  0  0  0  0  0  0  0
   -3.5820   17.9760  -33.4420 C   0  0  0  0  0  0  0  0  0  0  0  0
   -3.5210   19.5160  -33.4730 C   0  0  0  0  0  0  0  0  0  0  0  0
   -3.5150   18.8791  -25.2069 H   0  0  0  0  0  0  0  0  0  0  0  0
   -3.9800   19.7501  -26.7075 H   0  0  0  0  0  0  0  0  0  0  0  0
   -3.8691   17.9573  -26.7075 H   0  0  0  0  0  0  0  0  0  0  0  0
   -1.3553   19.1576  -25.8092 H   0  0  0  0  0  0  0  0  0  0  0  0
   -1.6710   18.0280  -27.1838 H   0  0  0  0  0  0  0  0  0  0  0  0
   -3.4064   21.1023  -26.8615 H   0  0  0  0  0  0  0  0  0  0  0  0
   -2.7745   21.7674  -28.4059 H   0  0  0  0  0  0  0  0  0  0  0  0
   -3.7204   20.2404  -28.4059 H   0  0  0  0  0  0  0  0  0  0  0  0
    0.1205   20.3782  -26.7105 H   0  0  0  0  0  0  0  0  0  0  0  0
   -0.1603   21.3911  -28.1684 H   0  0  0  0  0  0  0  0  0  0  0  0
   -1.2277   23.0137  -26.9756 H   0  0  0  0  0  0  0  0  0  0  0  0
   -2.1496   21.8200  -26.0027 H   0  0  0  0  0  0  0  0  0  0  0  0
    1.3152   23.5712  -25.0198 H   0  0  0  0  0  0  0  0  0  0  0  0
    0.1530   24.0013  -26.3423 H   0  0  0  0  0  0  0  0  0  0  0  0
   -1.3695   23.9871  -23.9548 H   0  0  0  0  0  0  0  0  0  0  0  0
    0.1849   24.8394  -23.5652 H   0  0  0  0  0  0  0  0  0  0  0  0
   -0.9903   26.6343  -24.3544 H   0  0  0  0  0  0  0  0  0  0  0  0
   -0.3473   25.9887  -25.9292 H   0  0  0  0  0  0  0  0  0  0  0  0
   -3.0124   25.0201  -24.9066 H   0  0  0  0  0  0  0  0  0  0  0  0
   -2.8539   26.6614  -25.7107 H   0  0  0  0  0  0  0  0  0  0  0  0
   -2.4007   23.9120  -26.8967 H   0  0  0  0  0  0  0  0  0  0  0  0
   -3.5207   25.2623  -27.4196 H   0  0  0  0  0  0  0  0  0  0  0  0
   -1.3591   26.5980  -27.8671 H   0  0  0  0  0  0  0  0  0  0  0  0
   -0.5336   24.9955  -27.8192 H   0  0  0  0  0  0  0  0  0  0  0  0
   -1.5691   23.2871  -29.8336 H   0  0  0  0  0  0  0  0  0  0  0  0
   -2.7302   23.5724  -28.4920 H   0  0  0  0  0  0  0  0  0  0  0  0
   -3.2287   23.3628  -31.3659 H   0  0  0  0  0  0  0  0  0  0  0  0
   -4.4008   23.4169  -30.0011 H   0  0  0  0  0  0  0  0  0  0  0  0
   -5.1076   26.1545  -29.4328 H   0  0  0  0  0  0  0  0  0  0  0  0
   -5.7339   26.1137  -31.1157 H   0  0  0  0  0  0  0  0  0  0  0  0
   -5.2942   23.3952  -30.2803 H   0  0  0  0  0  0  0  0  0  0  0  0
   -6.1982   24.2443  -28.9673 H   0  0  0  0  0  0  0  0  0  0  0  0
   -8.0527   24.6147  -30.2837 H   0  0  0  0  0  0  0  0  0  0  0  0
   -7.0763   24.6971  -31.8065 H   0  0  0  0  0  0  0  0  0  0  0  0
   -8.1728   22.2942  -30.3408 H   0  0  0  0  0  0  0  0  0  0  0  0
   -8.1640   22.7064  -32.1174 H   0  0  0  0  0  0  0  0  0  0  0  0
   -5.4636   22.4578  -31.3897 H   0  0  0  0  0  0  0  0  0  0  0  0
   -6.3695   21.0680  -30.5889 H   0  0  0  0  0  0  0  0  0  0  0  0
   -6.0818   21.6880  -33.5370 H   0  0  0  0  0  0  0  0  0  0  0  0
   -5.6085   20.1985  -32.5954 H   0  0  0  0  0  0  0  0  0  0  0  0
   -8.3733   21.1213  -33.4350 H   0  0  0  0  0  0  0  0  0  0  0  0
   -7.5129   19.5495  -33.7603 H   0  0  0  0  0  0  0  0  0  0  0  0
   -8.0035   20.2571  -30.9049 H   0  0  0  0  0  0  0  0  0  0  0  0
   -9.4424   19.7932  -31.9561 H   0  0  0  0  0  0  0  0  0  0  0  0
   -7.4426   18.1040  -30.6879 H   0  0  0  0  0  0  0  0  0  0  0  0
   -9.0311   17.7050  -31.4912 H   0  0  0  0  0  0  0  0  0  0  0  0
   -7.7459   16.5780  -32.9589 H   0  0  0  0  0  0  0  0  0  0  0  0
   -7.4543   18.2354  -33.6483 H   0  0  0  0  0  0  0  0  0  0  0  0
   -5.4703   18.2994  -31.9211 H   0  0  0  0  0  0  0  0  0  0  0  0
   -5.6692   16.4649  -32.0096 H   0  0  0  0  0  0  0  0  0  0  0  0
   -6.1222   18.9810  -34.4123 H   0  0  0  0  0  0  0  0  0  0  0  0
   -4.7142   18.5926  -35.4580 H   0  0  0  0  0  0  0  0  0  0  0  0
   -6.1558   17.5209  -35.4580 H   0  0  0  0  0  0  0  0  0  0  0  0
   -4.6731   15.2946  -33.3338 H   0  0  0  0  0  0  0  0  0  0  0  0
   -5.6229   15.6739  -34.8105 H   0  0  0  0  0  0  0  0  0  0  0  0
   -3.8393   15.8867  -34.8105 H   0  0  0  0  0  0  0  0  0  0  0  0
   -3.2750   17.6473  -32.4382 H   0  0  0  0  0  0  0  0  0  0  0  0
   -2.9171   17.6369  -34.2501 H   0  0  0  0  0  0  0  0  0  0  0  0
   -3.5057   19.9031  -32.4435 H   0  0  0  0  0  0  0  0  0  0  0  0
   -2.6095   19.8363  -33.9988 H   0  0  0  0  0  0  0  0  0  0  0  0
   -4.4043   19.9074  -33.9988 H   0  0  0  0  0  0  0  0  0  0  0  0
  1  2  1  0
  2  3  1  0
  3  4  1  0
  3  5  1  0
  5  6  1  0
  6  7  1  0
  7  8  1  0
  8  9  1  0
  9 10  1  0
 10 11  1  0
 11 12  1  0
 12 13  1  0
 13 14  1  0
 14 15  1  0
 15 16  1  0
 16 17  1  0
 17 18  1  0
 18 19  1  0
 19 20  1  0
 20 21  1  0
 21 22  1  0
 22 23  1  0
 23 24  1  0
 24 25  1  0
 25 26  1  0
 26 27  1  0
 27 28  1  0
 28 29  1  0
 29 30  1  0
 29 31  1  0
 29 32  1  0
 32 33  1  0
  1 34  1  0
  1 35  1  0
  1 36  1  0
  2 37  1  0
  2 38  1  0
  4 39  1  0
  4 40  1  0
  4 41  1  0
  5 42  1  0
  5 43  1  0
  6 44  1  0
  6 45  1  0
  8 46  1  0
  8 47  1  0
  9 48  1  0
  9 49  1  0
 10 50  1  0
 10 51  1  0
 11 52  1  0
 11 53  1  0
 12 54  1  0
 12 55  1  0
 13 56  1  0
 13 57  1  0
 15 58  1  0
 15 59  1  0
 16 60  1  0
 16 61  1  0
 18 62  1  0
 18 63  1  0
 19 64  1  0
 19 65  1  0
 20 66  1  0
 20 67  1  0
 21 68  1  0
 21 69  1  0
 22 70  1  0
 22 71  1  0
 23 72  1  0
 23 73  1  0
 24 74  1  0
 24 75  1  0
 25 76  1  0
 25 77  1  0
 26 78  1  0
 26 79  1  0
 27 80  1  0
 27 81  1  0
 28 82  1  0
 28 83  1  0
 30 84  1  0
 30 85  1  0
 30 86  1  0
 31 87  1  0
 31 88  1  0
 31 89  1  0
 32 90  1  0
 32 91  1  0
 33 92  1  0
 33 93  1  0
 33 94  1  0
M  CHG  1  29   1
M  END
>  <UniqueID>  (17) 
17

>  <SMILES>  (17) 
CCN(C)CCOCCCCCCOCCOCCCCCCCCCCC[N+](C)(C)CC

>  <Energy>  (17) 
81.29885609374753

>  <Genealogy>  (17) 
CCN(C)CCOCCCCCCOCCOCCCCCCCCCCC[N+](C)(C)CC (3D coordinates assigned)
CCN(C)CCOCCCCCCOCCOCCCCCCCCCCC[N+](C)(C)CC (optimized conformer: 81.29885609374753 kcal/mol)

>  <smiles>  (17) 
CCN(C)CCOCCCCCCOCCOCCCCCCCCCCC[N+](C)(C)CC

>  <score_type>  (17) 
oracle

>  <origin>  (17) 
adg

>  <m_score__min__energy>  (17) 
-7.3300000000000001

>  <m_primary>  (17) 
energy

$$$$
17:0
     RDKit          3D

 32 32  0  0  0  0  0  0  0  0999 V2000
   -1.2620   26.5220  -26.2460 C   0  0  0  0  0  0  0  0  0  0  0  0
   -0.8020   27.0920  -27.5840 C   0  0  0  0  0  0  0  0  0  0  0  0
   -1.2210   26.2530  -28.6580 O   0  0  0  0  0  0  0  0  0  0  0  0
   -0.8800   24.9000  -28.7550 C   0  0  0  0  0  0  0  0  0  0  0  0
    0.2670   24.4980  -28.4180 O   0  0  0  0  0  0  0  0  0  0  0  0
   -1.8890   23.9240  -29.2650 C   0  0  0  0  0  0  0  0  0  0  0  0
   -3.0300   24.6330  -29.8400 N   0  0  0  0  0  0  0  0  0  0  0  0
   -4.0950   23.9570  -30.5180 C   0  0  0  0  0  0  0  0  0  0  0  0
   -4.0730   22.7020  -30.6450 O   0  0  0  0  0  0  0  0  0  0  0  0
   -5.1600   24.7050  -31.0310 O   0  0  0  0  0  0  0  0  0  0  0  0
   -6.5250   24.4580  -30.6970 C   0  0  0  0  0  0  0  0  0  0  0  0
   -6.9520   23.1060  -31.1990 C   0  0  0  0  0  0  0  0  0  0  0  0
   -6.3630   22.5470  -32.3460 C   0  0  0  0  0  0  0  0  0  0  0  0
   -6.7800   21.2970  -32.8130 C   0  0  0  0  0  0  0  0  0  0  0  0
   -7.7890   20.5990  -32.1430 C   0  0  0  0  0  0  0  0  0  0  0  0
   -8.3830   21.1510  -31.0050 C   0  0  0  0  0  0  0  0  0  0  0  0
   -7.9680   22.4010  -30.5340 C   0  0  0  0  0  0  0  0  0  0  0  0
   -0.8013   27.0929  -25.4264 H   0  0  0  0  0  0  0  0  0  0  0  0
   -2.3572   26.5951  -26.1734 H   0  0  0  0  0  0  0  0  0  0  0  0
   -0.9593   25.4670  -26.1734 H   0  0  0  0  0  0  0  0  0  0  0  0
   -1.2352   28.0942  -27.7180 H   0  0  0  0  0  0  0  0  0  0  0  0
    0.2965   27.1487  -27.5863 H   0  0  0  0  0  0  0  0  0  0  0  0
   -1.4260   23.2930  -30.0380 H   0  0  0  0  0  0  0  0  0  0  0  0
   -2.2382   23.2988  -28.4300 H   0  0  0  0  0  0  0  0  0  0  0  0
   -3.0640   25.6750  -29.7680 H   0  0  0  0  0  0  0  0  0  0  0  0
   -6.6424   24.4923  -29.6038 H   0  0  0  0  0  0  0  0  0  0  0  0
   -7.1526   25.2282  -31.1693 H   0  0  0  0  0  0  0  0  0  0  0  0
   -5.5713   23.0948  -32.8781 H   0  0  0  0  0  0  0  0  0  0  0  0
   -6.3134   20.8620  -33.7091 H   0  0  0  0  0  0  0  0  0  0  0  0
   -8.1153   19.6153  -32.5116 H   0  0  0  0  0  0  0  0  0  0  0  0
   -9.1779   20.6019  -30.4790 H   0  0  0  0  0  0  0  0  0  0  0  0
   -8.4394   22.8334  -29.6391 H   0  0  0  0  0  0  0  0  0  0  0  0
  1  2  1  0
  2  3  1  0
  3  4  1  0
  4  5  2  0
  4  6  1  0
  6  7  1  0
  7  8  1  0
  8  9  2  0
  8 10  1  0
 10 11  1  0
 11 12  1  0
 12 13  2  0
 13 14  1  0
 14 15  2  0
 15 16  1  0
 16 17  2  0
 17 12  1  0
  1 18  1  0
  1 19  1  0
  1 20  1  0
  2 21  1  0
  2 22  1  0
  6 23  1  0
  6 24  1  0
  7 25  1  0
 11 26  1  0
 11 27  1  0
 13 28  1  0
 14 29  1  0
 15 30  1  0
 16 31  1  0
 17 32  1  0
M  END
>  <UniqueID>  (18) 
18

>  <SMILES>  (18) 
CCOC(=O)CNC(=O)OCc1ccccc1

>  <Energy>  (18) 
20.16148449002508

>  <Genealogy>  (18) 
CCOC(=O)CNC(=O)OCc1ccccc1 (3D coordinates assigned)
CCOC(=O)CNC(=O)OCc1ccccc1 (optimized conformer: 20.16148449002508 kcal/mol)

>  <smiles>  (18) 
CCOC(=O)CNC(=O)OCc1ccccc1

>  <score_type>  (18) 
oracle

>  <origin>  (18) 
adg

>  <m_score__min__energy>  (18) 
-6.7000000000000002

>  <m_primary>  (18) 
energy

$$$$
18:0
     RDKit          3D

 47 46  0  0  0  0  0  0  0  0999 V2000
   -6.6650   21.2600  -32.3760 C   0  0  0  0  0  0  0  0  0  0  0  0
   -6.2610   22.6960  -32.0450 C   0  0  0  0  0  0  0  0  0  0  0  0
   -4.8060   22.8720  -32.1670 N   0  0  0  0  0  0  0  0  0  0  0  0
   -4.2330   21.8460  -33.0540 C   0  0  0  0  0  0  0  0  0  0  0  0
   -3.0570   21.1020  -32.3910 C   0  0  0  0  0  0  0  0  0  0  0  0
   -3.2440   20.8780  -30.8820 C   0  0  0  0  0  0  0  0  0  0  0  0
   -2.7930   22.0540  -30.1020 N   0  0  0  0  0  0  0  0  0  0  0  0
   -1.3190   22.2180  -30.0660 C   0  0  0  0  0  0  0  0  0  0  0  0
   -0.7570   22.9250  -28.8080 C   0  0  0  0  0  0  0  0  0  0  0  0
   -0.6530   24.4470  -28.9390 C   0  0  0  0  0  0  0  0  0  0  0  0
   -1.9850   25.0320  -29.0440 N   0  0  0  0  0  0  0  0  0  0  0  0
   -3.4420   22.2020  -28.7790 C   0  0  0  0  0  0  0  0  0  0  0  0
   -4.8660   22.7840  -28.9060 C   0  0  0  0  0  0  0  0  0  0  0  0
   -4.9390   24.3070  -28.6860 C   0  0  0  0  0  0  0  0  0  0  0  0
   -4.9440   25.1320  -29.9890 C   0  0  0  0  0  0  0  0  0  0  0  0
   -3.7780   24.8640  -30.8310 N   0  0  0  0  0  0  0  0  0  0  0  0
   -6.8228   20.6992  -31.4430 H   0  0  0  0  0  0  0  0  0  0  0  0
   -7.5961   21.2668  -32.9617 H   0  0  0  0  0  0  0  0  0  0  0  0
   -5.8669   20.7803  -32.9617 H   0  0  0  0  0  0  0  0  0  0  0  0
   -6.7665   23.3820  -32.7406 H   0  0  0  0  0  0  0  0  0  0  0  0
   -6.5562   22.9146  -31.0081 H   0  0  0  0  0  0  0  0  0  0  0  0
   -4.3710   22.7910  -31.2180 H   0  0  0  0  0  0  0  0  0  0  0  0
   -4.6160   23.8240  -32.5540 H   0  0  0  0  0  0  0  0  0  0  0  0
   -5.0170   21.1172  -33.3072 H   0  0  0  0  0  0  0  0  0  0  0  0
   -3.8523   22.3494  -33.9549 H   0  0  0  0  0  0  0  0  0  0  0  0
   -2.9472   20.1215  -32.8773 H   0  0  0  0  0  0  0  0  0  0  0  0
   -2.1644   21.7327  -32.5157 H   0  0  0  0  0  0  0  0  0  0  0  0
   -4.3096   20.6989  -30.6759 H   0  0  0  0  0  0  0  0  0  0  0  0
   -2.6378   20.0103  -30.5826 H   0  0  0  0  0  0  0  0  0  0  0  0
   -0.8653   21.2176  -30.1236 H   0  0  0  0  0  0  0  0  0  0  0  0
   -1.0669   22.8690  -30.9161 H   0  0  0  0  0  0  0  0  0  0  0  0
   -1.4179   22.6959  -27.9590 H   0  0  0  0  0  0  0  0  0  0  0  0
    0.2666   22.5488  -28.6639 H   0  0  0  0  0  0  0  0  0  0  0  0
   -0.1451   24.8548  -28.0526 H   0  0  0  0  0  0  0  0  0  0  0  0
   -0.0789   24.6926  -29.8446 H   0  0  0  0  0  0  0  0  0  0  0  0
   -2.6560   24.2600  -29.2640 H   0  0  0  0  0  0  0  0  0  0  0  0
   -1.9960   25.6780  -29.8680 H   0  0  0  0  0  0  0  0  0  0  0  0
   -3.5017   21.2144  -28.2983 H   0  0  0  0  0  0  0  0  0  0  0  0
   -2.8390   22.8969  -28.1760 H   0  0  0  0  0  0  0  0  0  0  0  0
   -5.2426   22.5613  -29.9152 H   0  0  0  0  0  0  0  0  0  0  0  0
   -5.4735   22.3175  -28.1165 H   0  0  0  0  0  0  0  0  0  0  0  0
   -5.8618   24.5320  -28.1311 H   0  0  0  0  0  0  0  0  0  0  0  0
   -4.0311   24.5916  -28.1339 H   0  0  0  0  0  0  0  0  0  0  0  0
   -5.8529   24.8861  -30.5578 H   0  0  0  0  0  0  0  0  0  0  0  0
   -4.9146   26.1954  -29.7092 H   0  0  0  0  0  0  0  0  0  0  0  0
   -3.2700   24.0240  -30.4710 H   0  0  0  0  0  0  0  0  0  0  0  0
   -3.1280   25.6810  -30.7960 H   0  0  0  0  0  0  0  0  0  0  0  0
  1  2  1  0
  2  3  1  0
  3  4  1  0
  4  5  1  0
  5  6  1  0
  6  7  1  0
  7  8  1  0
  8  9  1  0
  9 10  1  0
 10 11  1  0
  7 12  1  0
 12 13  1  0
 13 14  1  0
 14 15  1  0
 15 16  1  0
  1 17  1  0
  1 18  1  0
  1 19  1  0
  2 20  1  0
  2 21  1  0
  3 22  1  0
  3 23  1  0
  4 24  1  0
  4 25  1  0
  5 26  1  0
  5 27  1  0
  6 28  1  0
  6 29  1  0
  8 30  1  0
  8 31  1  0
  9 32  1  0
  9 33  1  0
 10 34  1  0
 10 35  1  0
 11 36  1  0
 11 37  1  0
 12 38  1  0
 12 39  1  0
 13 40  1  0
 13 41  1  0
 14 42  1  0
 14 43  1  0
 15 44  1  0
 15 45  1  0
 16 46  1  0
 16 47  1  0
M  CHG  1   3   1
M  END
>  <UniqueID>  (19) 
19

>  <SMILES>  (19) 
CC[NH2+]CCCN(CCCN)CCCCN

>  <Energy>  (19) 
37.633831700290386

>  <Genealogy>  (19) 
CC[NH2+]CCCN(CCCN)CCCCN (protonated)
CC[NH2+]CCCN(CCCN)CCCCN (3D coordinates assigned)
CC[NH2+]CCCN(CCCN)CCCCN (optimized conformer: 37.633831700290386 kcal/mol)

>  <smiles>  (19) 
CCNCCCN(CCCN)CCCCN

>  <score_type>  (19) 
oracle

>  <origin>  (19) 
adg

>  <m_score__min__energy>  (19) 
-4.2300000000000004

>  <m_primary>  (19) 
energy

$$$$
19:0
     RDKit          3D

 71 74  0  0  0  0  0  0  0  0999 V2000
   -0.2550   23.9410  -28.0050 C   0  0  0  0  0  0  0  0  0  0  0  0
   -0.8720   25.0290  -28.8880 C   0  0  0  0  0  0  0  0  0  0  0  0
   -2.3210   24.8240  -29.0520 N   0  0  0  0  0  0  0  0  0  0  0  0
   -2.9650   24.5270  -27.7580 C   0  0  0  0  0  0  0  0  0  0  0  0
   -4.2540   23.6850  -27.9190 C   0  0  0  0  0  0  0  0  0  0  0  0
   -5.0150   24.0090  -29.2120 C   0  0  0  0  0  0  0  0  0  0  0  0
   -4.4390   23.2680  -30.3390 N   0  0  0  0  0  0  0  0  0  0  0  0
   -5.1450   23.5650  -31.5930 C   0  0  0  0  0  0  0  0  0  0  0  0
   -4.6260   22.6570  -32.7150 C   0  0  0  0  0  0  0  0  0  0  0  0
   -4.2600   21.3460  -32.1680 N   0  0  0  0  0  0  0  0  0  0  0  0
   -4.7620   20.0960  -32.6900 C   0  0  0  0  0  0  0  0  0  0  0  0
   -6.0910   19.6990  -32.4080 C   0  0  0  0  0  0  0  0  0  0  0  0
   -6.9950   20.5540  -31.7340 C   0  0  0  0  0  0  0  0  0  0  0  0
   -8.3350   20.2050  -31.5810 C   0  0  0  0  0  0  0  0  0  0  0  0
   -8.7960   18.9850  -32.0610 C   0  0  0  0  0  0  0  0  0  0  0  0
   -7.9040   18.0920  -32.6510 C   0  0  0  0  0  0  0  0  0  0  0  0
   -6.5250   18.3990  -32.7700 C   0  0  0  0  0  0  0  0  0  0  0  0
   -5.6080   17.4600  -33.1940 N   0  0  0  0  0  0  0  0  0  0  0  0
   -5.9760   16.0270  -33.1920 C   0  0  0  0  0  0  0  0  0  0  0  0
   -4.3350   17.8480  -33.5700 C   0  0  0  0  0  0  0  0  0  0  0  0
   -3.4520   16.9310  -34.1910 C   0  0  0  0  0  0  0  0  0  0  0  0
   -2.1510   17.2890  -34.5120 C   0  0  0  0  0  0  0  0  0  0  0  0
   -1.7160   18.5870  -34.3120 C   0  0  0  0  0  0  0  0  0  0  0  0
   -2.5800   19.5540  -33.7860 C   0  0  0  0  0  0  0  0  0  0  0  0
   -2.1660   20.9240  -33.8750 N   0  0  0  0  0  0  0  0  0  0  0  0
   -0.7640   21.3400  -33.8260 C   0  0  0  0  0  0  0  0  0  0  0  0
    0.0020   20.6160  -32.7070 C   0  0  0  0  0  0  0  0  0  0  0  0
   -0.6780   20.7580  -31.3690 C   0  0  0  0  0  0  0  0  0  0  0  0
   -0.5620   19.7530  -30.3980 C   0  0  0  0  0  0  0  0  0  0  0  0
   -1.2040   19.9020  -29.1660 C   0  0  0  0  0  0  0  0  0  0  0  0
   -1.9900   21.0340  -28.9360 C   0  0  0  0  0  0  0  0  0  0  0  0
   -2.1120   21.9920  -29.8940 N   0  0  0  0  0  0  0  0  0  0  0  0
   -1.4720   21.8830  -31.0900 C   0  0  0  0  0  0  0  0  0  0  0  0
   -3.8930   19.1860  -33.3530 C   0  0  0  0  0  0  0  0  0  0  0  0
   -0.4023   24.2007  -26.9463 H   0  0  0  0  0  0  0  0  0  0  0  0
   -0.7410   22.9772  -28.2171 H   0  0  0  0  0  0  0  0  0  0  0  0
    0.8216   23.8633  -28.2171 H   0  0  0  0  0  0  0  0  0  0  0  0
   -0.6990   26.0102  -28.4219 H   0  0  0  0  0  0  0  0  0  0  0  0
   -0.3992   24.9819  -29.8801 H   0  0  0  0  0  0  0  0  0  0  0  0
   -2.5070   24.0420  -29.7250 H   0  0  0  0  0  0  0  0  0  0  0  0
   -2.2549   23.9690  -27.1300 H   0  0  0  0  0  0  0  0  0  0  0  0
   -3.2460   25.4849  -27.2959 H   0  0  0  0  0  0  0  0  0  0  0  0
   -3.9796   22.6198  -27.9296 H   0  0  0  0  0  0  0  0  0  0  0  0
   -4.9161   23.9259  -27.0743 H   0  0  0  0  0  0  0  0  0  0  0  0
   -6.0711   23.7254  -29.0926 H   0  0  0  0  0  0  0  0  0  0  0  0
   -4.9358   25.0874  -29.4140 H   0  0  0  0  0  0  0  0  0  0  0  0
   -3.4470   23.5800  -30.4530 H   0  0  0  0  0  0  0  0  0  0  0  0
   -6.2225   23.3927  -31.4540 H   0  0  0  0  0  0  0  0  0  0  0  0
   -4.9674   24.6154  -31.8673 H   0  0  0  0  0  0  0  0  0  0  0  0
   -5.4122   22.5290  -33.4736 H   0  0  0  0  0  0  0  0  0  0  0  0
   -3.7387   23.1186  -33.1729 H   0  0  0  0  0  0  0  0  0  0  0  0
   -3.4180   21.3000  -31.5530 H   0  0  0  0  0  0  0  0  0  0  0  0
   -6.6340   21.5090  -31.3245 H   0  0  0  0  0  0  0  0  0  0  0  0
   -9.0289   20.8958  -31.0797 H   0  0  0  0  0  0  0  0  0  0  0  0
   -9.8615   18.7253  -31.9754 H   0  0  0  0  0  0  0  0  0  0  0  0
   -8.2770   17.1299  -33.0320 H   0  0  0  0  0  0  0  0  0  0  0  0
   -6.0669   15.6732  -32.1544 H   0  0  0  0  0  0  0  0  0  0  0  0
   -6.9373   15.8946  -33.7101 H   0  0  0  0  0  0  0  0  0  0  0  0
   -5.1975   15.4478  -33.7101 H   0  0  0  0  0  0  0  0  0  0  0  0
   -3.8048   15.9153  -34.4232 H   0  0  0  0  0  0  0  0  0  0  0  0
   -1.4626   16.5382  -34.9271 H   0  0  0  0  0  0  0  0  0  0  0  0
   -0.6821   18.8613  -34.5686 H   0  0  0  0  0  0  0  0  0  0  0  0
   -2.8980   21.6360  -34.0900 H   0  0  0  0  0  0  0  0  0  0  0  0
   -0.2891   21.1091  -34.7910 H   0  0  0  0  0  0  0  0  0  0  0  0
   -0.7325   22.4203  -33.6214 H   0  0  0  0  0  0  0  0  0  0  0  0
    0.0703   19.5473  -32.9583 H   0  0  0  0  0  0  0  0  0  0  0  0
    0.9996   21.0730  -32.6296 H   0  0  0  0  0  0  0  0  0  0  0  0
    0.0321   18.8508  -30.6054 H   0  0  0  0  0  0  0  0  0  0  0  0
   -1.0917   19.1357  -28.3849 H   0  0  0  0  0  0  0  0  0  0  0  0
   -2.5128   21.1511  -27.9753 H   0  0  0  0  0  0  0  0  0  0  0  0
   -1.5768   22.6793  -31.8417 H   0  0  0  0  0  0  0  0  0  0  0  0
  1  2  1  0
  2  3  1  0
  3  4  1  0
  4  5  1  0
  5  6  1  0
  6  7  1  0
  7  8  1  0
  8  9  1  0
  9 10  1  0
 10 11  1  0
 11 12  2  0
 12 13  1  0
 13 14  2  0
 14 15  1  0
 15 16  2  0
 16 17  1  0
 17 18  2  0
 18 19  1  0
 18 20  1  0
 20 21  2  0
 21 22  1  0
 22 23  2  0
 23 24  1  0
 24 25  1  0
 25 26  1  0
 26 27  1  0
 27 28  1  0
 28 29  2  0
 29 30  1  0
 30 31  2  0
 31 32  1  0
 32 33  2  0
 24 34  2  0
 34 11  1  0
 17 12  1  0
 34 20  1  0
 33 28  1  0
  1 35  1  0
  1 36  1  0
  1 37  1  0
  2 38  1  0
  2 39  1  0
  3 40  1  0
  4 41  1  0
  4 42  1  0
  5 43  1  0
  5 44  1  0
  6 45  1  0
  6 46  1  0
  7 47  1  0
  8 48  1  0
  8 49  1  0
  9 50  1  0
  9 51  1  0
 10 52  1  0
 13 53  1  0
 14 54  1  0
 15 55  1  0
 16 56  1  0
 19 57  1  0
 19 58  1  0
 19 59  1  0
 21 60  1  0
 22 61  1  0
 23 62  1  0
 25 63  1  0
 26 64  1  0
 26 65  1  0
 27 66  1  0
 27 67  1  0
 29 68  1  0
 30 69  1  0
 31 70  1  0
 33 71  1  0
M  CHG  1  18   1
M  END
>  <UniqueID>  (20) 
20

>  <SMILES>  (20) 
CCNCCCNCCNc1c2ccccc2[n+](C)c2cccc(NCCc3cccnc3)c12

>  <Energy>  (20) 
103.60860176874318

>  <Genealogy>  (20) 
CCNCCCNCCNc1c2ccccc2[n+](C)c2cccc(NCCc3cccnc3)c12 (3D coordinates assigned)
CCNCCCNCCNc1c2ccccc2[n+](C)c2cccc(NCCc3cccnc3)c12 (optimized conformer: 103.60860176874318 kcal/mol)

>  <smiles>  (20) 
CCNCCCNCCNc1c2ccccc2[n+](C)c2cccc(NCCc3cccnc3)c12

>  <score_type>  (20) 
oracle

>  <origin>  (20) 
adg

>  <m_score__min__energy>  (20) 
-9.9800000000000004

>  <m_primary>  (20) 
energy

$$$$
20:0
     RDKit          3D

 57 61  0  0  0  0  0  0  0  0999 V2000
   -0.3420   19.5430  -28.4400 C   0  0  0  0  0  0  0  0  0  0  0  0
   -1.0860   20.2030  -29.5560 C   0  0  0  0  0  0  0  0  0  0  0  0
   -2.2620   21.3750  -29.3360 S   0  0  0  0  0  0  0  0  0  0  0  0
   -2.6530   21.5510  -30.9620 C   0  0  0  0  0  0  0  0  0  0  0  0
   -1.8760   20.6740  -31.7210 C   0  0  0  0  0  0  0  0  0  0  0  0
   -1.0090   19.8870  -30.9150 C   0  0  0  0  0  0  0  0  0  0  0  0
   -0.1190   18.7950  -31.4450 C   0  0  0  0  0  0  0  0  0  0  0  0
   -1.9210   20.6060  -33.2090 C   0  0  0  0  0  0  0  0  0  0  0  0
   -0.6680   20.4560  -33.9810 C   0  0  0  0  0  0  0  0  0  0  0  0
    0.2380   21.5310  -34.0230 C   0  0  0  0  0  0  0  0  0  0  0  0
    1.4230   21.4330  -34.7560 C   0  0  0  0  0  0  0  0  0  0  0  0
    1.7240   20.2560  -35.4430 C   0  0  0  0  0  0  0  0  0  0  0  0
    0.8470   19.1720  -35.3910 C   0  0  0  0  0  0  0  0  0  0  0  0
   -0.3450   19.2590  -34.6600 C   0  0  0  0  0  0  0  0  0  0  0  0
   -1.3700   17.8290  -34.5760 Cl  0  0  0  0  0  0  0  0  0  0  0  0
   -3.0290   20.6950  -33.8910 N   0  0  0  0  0  0  0  0  0  0  0  0
   -4.4110   20.8830  -33.4410 C   0  0  1  0  0  0  0  0  0  0  0  0
   -5.1000   19.5770  -32.9820 C   0  0  0  0  0  0  0  0  0  0  0  0
   -6.4160   19.7460  -32.2170 C   0  0  0  0  0  0  0  0  0  0  0  0
   -7.4400   20.3160  -33.0990 N   0  0  0  0  0  0  0  0  0  0  0  0
   -8.7790   20.0080  -32.5830 C   0  0  0  0  0  0  0  0  0  0  0  0
   -9.1460   21.0080  -31.4800 C   0  0  0  0  0  0  0  0  0  0  0  0
   -8.1380   22.1250  -31.2570 C   0  0  0  0  0  0  0  0  0  0  0  0
   -9.4580   22.4180  -31.9550 C   0  0  0  0  0  0  0  0  0  0  0  0
   -4.5580   22.0460  -32.4950 C   0  0  0  0  0  0  0  0  0  0  0  0
   -5.5590   22.9430  -32.5780 N   0  0  0  0  0  0  0  0  0  0  0  0
   -5.4120   23.8220  -31.6020 N   0  0  0  0  0  0  0  0  0  0  0  0
   -4.3110   23.4460  -30.9210 C   0  0  0  0  0  0  0  0  0  0  0  0
   -3.8020   24.1930  -29.7290 C   0  0  0  0  0  0  0  0  0  0  0  0
   -3.7550   22.3300  -31.4510 N   0  0  0  0  0  0  0  0  0  0  0  0
   -0.7387   19.8949  -27.4763 H   0  0  0  0  0  0  0  0  0  0  0  0
   -0.4659   18.4523  -28.5113 H   0  0  0  0  0  0  0  0  0  0  0  0
    0.7261   19.7961  -28.5113 H   0  0  0  0  0  0  0  0  0  0  0  0
    0.3285   18.2459  -30.6034 H   0  0  0  0  0  0  0  0  0  0  0  0
   -0.7137   18.1031  -32.0594 H   0  0  0  0  0  0  0  0  0  0  0  0
    0.6787   19.2379  -32.0594 H   0  0  0  0  0  0  0  0  0  0  0  0
    0.0114   22.4568  -33.4739 H   0  0  0  0  0  0  0  0  0  0  0  0
    2.1193   22.2838  -34.7918 H   0  0  0  0  0  0  0  0  0  0  0  0
    2.6538   20.1828  -36.0262 H   0  0  0  0  0  0  0  0  0  0  0  0
    1.0930   18.2436  -35.9272 H   0  0  0  0  0  0  0  0  0  0  0  0
   -4.9876   21.1726  -34.3319 H   0  0  0  0  0  0  0  0  0  0  0  0
   -5.3064   18.9725  -33.8775 H   0  0  0  0  0  0  0  0  0  0  0  0
   -4.4027   19.1069  -32.2729 H   0  0  0  0  0  0  0  0  0  0  0  0
   -6.7542   18.7646  -31.8529 H   0  0  0  0  0  0  0  0  0  0  0  0
   -6.2543   20.4243  -31.3663 H   0  0  0  0  0  0  0  0  0  0  0  0
   -7.3470   19.8590  -34.0370 H   0  0  0  0  0  0  0  0  0  0  0  0
   -9.5118   20.0787  -33.4003 H   0  0  0  0  0  0  0  0  0  0  0  0
   -8.7865   18.9885  -32.1700 H   0  0  0  0  0  0  0  0  0  0  0  0
   -9.6527   20.2738  -30.8364 H   0  0  0  0  0  0  0  0  0  0  0  0
   -7.9559   22.5071  -30.2417 H   0  0  0  0  0  0  0  0  0  0  0  0
   -7.0768   22.2762  -31.5040 H   0  0  0  0  0  0  0  0  0  0  0  0
  -10.2302   23.0122  -31.4444 H   0  0  0  0  0  0  0  0  0  0  0  0
   -9.7464   22.8691  -32.9159 H   0  0  0  0  0  0  0  0  0  0  0  0
   -6.3310   22.9620  -33.2810 H   0  0  0  0  0  0  0  0  0  0  0  0
   -4.1426   23.6932  -28.8102 H   0  0  0  0  0  0  0  0  0  0  0  0
   -2.7024   24.2118  -29.7502 H   0  0  0  0  0  0  0  0  0  0  0  0
   -4.1868   25.2233  -29.7502 H   0  0  0  0  0  0  0  0  0  0  0  0
  1  2  1  0
  2  3  1  0
  3  4  1  0
  4  5  2  0
  5  6  1  0
  6  7  1  0
  5  8  1  0
  8  9  1  0
  9 10  2  0
 10 11  1  0
 11 12  2  0
 12 13  1  0
 13 14  2  0
 14 15  1  0
  8 16  2  0
 16 17  1  0
 17 18  1  0
 18 19  1  0
 19 20  1  0
 20 21  1  0
 21 22  1  0
 22 23  1  0
 23 24  1  0
 17 25  1  0
 25 26  2  0
 26 27  1  0
 27 28  2  0
 28 29  1  0
 28 30  1  0
  6  2  2  0
 14  9  1  0
 24 22  1  0
 30 25  1  0
 30  4  1  0
  1 31  1  0
  1 32  1  0
  1 33  1  0
  7 34  1  0
  7 35  1  0
  7 36  1  0
 10 37  1  0
 11 38  1  0
 12 39  1  0
 13 40  1  0
 17 41  1  6
 18 42  1  0
 18 43  1  0
 19 44  1  0
 19 45  1  0
 20 46  1  0
 21 47  1  0
 21 48  1  0
 22 49  1  0
 23 50  1  0
 23 51  1  0
 24 52  1  0
 24 53  1  0
 26 54  1  0
 29 55  1  0
 29 56  1  0
 29 57  1  0
M  CHG  1  26   1
M  END
>  <UniqueID>  (21) 
21

>  <SMILES>  (21) 
Cc1sc2c(c1C)C(c1ccccc1Cl)=N[C@@H](CCNCC1CC1)c1[nH+]nc(C)n1-2

>  <Energy>  (21) 
398.467961093514

>  <Genealogy>  (21) 
Cc1sc2c(c1C)C(c1ccccc1Cl)=NC(CCNCC1CC1)c1[nH+]nc(C)n1-2 (protonated)
Cc1sc2c(c1C)C(c1ccccc1Cl)=N[C@@H](CCNCC1CC1)c1[nH+]nc(C)n1-2 (chirality)
Cc1sc2c(c1C)C(c1ccccc1Cl)=N[C@@H](CCNCC1CC1)c1[nH+]nc(C)n1-2 (3D coordinates assigned)
Cc1sc2c(c1C)C(c1ccccc1Cl)=N[C@@H](CCNCC1CC1)c1[nH+]nc(C)n1-2 (nonaromatic ring conformer: 398.467961093514 kcal/mol)

>  <smiles>  (21) 
Cc1sc2c(c1C)C(c1ccccc1Cl)=NC(CCNCC1CC1)c1nnc(C)n1-2

>  <score_type>  (21) 
oracle

>  <origin>  (21) 
adg

>  <m_score__min__energy>  (21) 
-8.9700000000000006

>  <m_primary>  (21) 
energy

$$$$
21:0
     RDKit          3D

 83 86  0  0  0  0  0  0  0  0999 V2000
    2.2850   23.4220  -35.7090 C   0  0  0  0  0  0  0  0  0  0  0  0
    0.7760   23.6490  -35.7550 C   0  0  0  0  0  0  0  0  0  0  0  0
    0.0530   22.4020  -35.4590 N   0  0  0  0  0  0  0  0  0  0  0  0
    0.8000   21.5500  -34.5220 C   0  0  0  0  0  0  0  0  0  0  0  0
   -0.1290   20.4510  -33.9910 C   0  0  0  0  0  0  0  0  0  0  0  0
   -1.4930   20.7500  -34.2200 O   0  0  0  0  0  0  0  0  0  0  0  0
   -2.0500   21.4920  -33.1450 C   0  0  0  0  0  0  0  0  0  0  0  0
   -2.0650   20.6430  -31.8750 C   0  0  0  0  0  0  0  0  0  0  0  0
   -3.4530   20.5460  -31.2200 C   0  0  0  0  0  0  0  0  0  0  0  0
   -4.4840   21.2570  -31.9860 N   0  0  0  0  0  0  0  0  0  0  0  0
   -5.6910   20.6890  -32.5680 C   0  0  0  0  0  0  0  0  0  0  0  0
   -5.7100   19.4050  -33.1790 C   0  0  0  0  0  0  0  0  0  0  0  0
   -4.6570   18.9260  -33.9870 C   0  0  0  0  0  0  0  0  0  0  0  0
   -4.6700   17.6330  -34.4970 C   0  0  0  0  0  0  0  0  0  0  0  0
   -5.7550   16.8000  -34.2630 C   0  0  0  0  0  0  0  0  0  0  0  0
   -6.8530   17.2740  -33.5530 C   0  0  0  0  0  0  0  0  0  0  0  0
   -6.8600   18.5840  -33.0080 C   0  0  0  0  0  0  0  0  0  0  0  0
   -7.9590   19.0750  -32.3450 N   0  0  0  0  0  0  0  0  0  0  0  0
   -9.0160   18.1480  -31.8790 C   0  0  0  0  0  0  0  0  0  0  0  0
   -8.0860   20.4350  -32.1510 C   0  0  0  0  0  0  0  0  0  0  0  0
   -9.3420   21.0110  -31.8460 C   0  0  0  0  0  0  0  0  0  0  0  0
   -9.4670   22.3750  -31.6160 C   0  0  0  0  0  0  0  0  0  0  0  0
   -8.3590   23.2020  -31.7110 C   0  0  0  0  0  0  0  0  0  0  0  0
   -7.0920   22.6850  -32.0290 C   0  0  0  0  0  0  0  0  0  0  0  0
   -6.0080   23.6070  -32.2490 N   0  0  0  0  0  0  0  0  0  0  0  0
   -5.5800   24.5880  -31.2450 C   0  0  0  0  0  0  0  0  0  0  0  0
   -4.2540   24.1740  -30.5970 C   0  0  0  0  0  0  0  0  0  0  0  0
   -4.4760   23.2470  -29.3760 C   0  0  0  0  0  0  0  0  0  0  0  0
   -3.5510   23.4650  -28.2110 N   0  0  0  0  0  0  0  0  0  0  0  0
   -4.1780   24.4230  -27.2610 C   0  0  0  0  0  0  0  0  0  0  0  0
   -2.2800   24.0920  -28.6880 C   0  0  0  0  0  0  0  0  0  0  0  0
   -1.3880   23.1430  -29.5180 C   0  0  0  0  0  0  0  0  0  0  0  0
   -1.1230   21.8360  -28.7770 C   0  0  0  0  0  0  0  0  0  0  0  0
   -2.4290   21.2030  -28.3000 C   0  0  0  0  0  0  0  0  0  0  0  0
   -3.2380   22.2090  -27.4680 C   0  0  0  0  0  0  0  0  0  0  0  0
   -6.9440   21.2820  -32.2540 C   0  0  0  0  0  0  0  0  0  0  0  0
    2.6165   23.3721  -34.6613 H   0  0  0  0  0  0  0  0  0  0  0  0
    2.5293   22.4770  -36.2163 H   0  0  0  0  0  0  0  0  0  0  0  0
    2.7965   24.2533  -36.2163 H   0  0  0  0  0  0  0  0  0  0  0  0
    0.5025   24.4105  -35.0098 H   0  0  0  0  0  0  0  0  0  0  0  0
    0.4999   23.9866  -36.7648 H   0  0  0  0  0  0  0  0  0  0  0  0
   -0.8510   22.6640  -34.9980 H   0  0  0  0  0  0  0  0  0  0  0  0
    1.6535   21.0909  -35.0423 H   0  0  0  0  0  0  0  0  0  0  0  0
    1.1706   22.1582  -33.6837 H   0  0  0  0  0  0  0  0  0  0  0  0
    0.1162   19.5049  -34.4957 H   0  0  0  0  0  0  0  0  0  0  0  0
    0.0231   20.3749  -32.9042 H   0  0  0  0  0  0  0  0  0  0  0  0
   -1.4443   22.3939  -32.9728 H   0  0  0  0  0  0  0  0  0  0  0  0
   -3.0812   21.7775  -33.4001 H   0  0  0  0  0  0  0  0  0  0  0  0
   -1.7287   19.6274  -32.1308 H   0  0  0  0  0  0  0  0  0  0  0  0
   -1.3979   21.1324  -31.1500 H   0  0  0  0  0  0  0  0  0  0  0  0
   -3.7357   19.4855  -31.1467 H   0  0  0  0  0  0  0  0  0  0  0  0
   -3.3891   21.0155  -30.2273 H   0  0  0  0  0  0  0  0  0  0  0  0
   -4.4160   22.3020  -31.9980 H   0  0  0  0  0  0  0  0  0  0  0  0
   -3.8097   19.5885  -34.2177 H   0  0  0  0  0  0  0  0  0  0  0  0
   -3.8170   17.2687  -35.0883 H   0  0  0  0  0  0  0  0  0  0  0  0
   -5.7466   15.7661  -34.6386 H   0  0  0  0  0  0  0  0  0  0  0  0
   -7.7289   16.6237  -33.4119 H   0  0  0  0  0  0  0  0  0  0  0  0
   -9.0323   18.1337  -30.7792 H   0  0  0  0  0  0  0  0  0  0  0  0
   -9.9925   18.4862  -32.2558 H   0  0  0  0  0  0  0  0  0  0  0  0
   -8.8081   17.1357  -32.2558 H   0  0  0  0  0  0  0  0  0  0  0  0
  -10.2331   20.3685  -31.7902 H   0  0  0  0  0  0  0  0  0  0  0  0
  -10.4481   22.8000  -31.3577 H   0  0  0  0  0  0  0  0  0  0  0  0
   -8.4735   24.2817  -31.5344 H   0  0  0  0  0  0  0  0  0  0  0  0
   -5.4410   23.5310  -33.1230 H   0  0  0  0  0  0  0  0  0  0  0  0
   -5.4520   25.5665  -31.7309 H   0  0  0  0  0  0  0  0  0  0  0  0
   -6.3493   24.6427  -30.4607 H   0  0  0  0  0  0  0  0  0  0  0  0
   -3.6443   23.6419  -31.3420 H   0  0  0  0  0  0  0  0  0  0  0  0
   -3.7450   25.0843  -30.2475 H   0  0  0  0  0  0  0  0  0  0  0  0
   -5.5063   23.3973  -29.0213 H   0  0  0  0  0  0  0  0  0  0  0  0
   -4.2697   22.2276  -29.7340 H   0  0  0  0  0  0  0  0  0  0  0  0
   -3.9699   24.1050  -26.2287 H   0  0  0  0  0  0  0  0  0  0  0  0
   -3.7624   25.4280  -27.4259 H   0  0  0  0  0  0  0  0  0  0  0  0
   -5.2654   24.4443  -27.4259 H   0  0  0  0  0  0  0  0  0  0  0  0
   -2.5353   24.9614  -29.3117 H   0  0  0  0  0  0  0  0  0  0  0  0
   -1.7048   24.3696  -27.7924 H   0  0  0  0  0  0  0  0  0  0  0  0
   -1.8926   22.9188  -30.4694 H   0  0  0  0  0  0  0  0  0  0  0  0
   -0.4236   23.6417  -29.6949 H   0  0  0  0  0  0  0  0  0  0  0  0
   -0.6102   21.1365  -29.4535 H   0  0  0  0  0  0  0  0  0  0  0  0
   -0.4966   22.0516  -27.8988 H   0  0  0  0  0  0  0  0  0  0  0  0
   -3.0225   20.8944  -29.1732 H   0  0  0  0  0  0  0  0  0  0  0  0
   -2.1947   20.3289  -27.6746 H   0  0  0  0  0  0  0  0  0  0  0  0
   -4.1840   21.7347  -27.1680 H   0  0  0  0  0  0  0  0  0  0  0  0
   -2.6228   22.4862  -26.5993 H   0  0  0  0  0  0  0  0  0  0  0  0
  1  2  1  0
  2  3  1  0
  3  4  1  0
  4  5  1  0
  5  6  1  0
  6  7  1  0
  7  8  1  0
  8  9  1  0
  9 10  1  0
 10 11  1  0
 11 12  2  0
 12 13  1  0
 13 14  2  0
 14 15  1  0
 15 16  2  0
 16 17  1  0
 17 18  2  0
 18 19  1  0
 18 20  1  0
 20 21  2  0
 21 22  1  0
 22 23  2  0
 23 24  1  0
 24 25  1  0
 25 26  1  0
 26 27  1  0
 27 28  1  0
 28 29  1  0
 29 30  1  0
 29 31  1  0
 31 32  1  0
 32 33  1  0
 33 34  1  0
 34 35  1  0
 24 36  2  0
 36 11  1  0
 17 12  1  0
 36 20  1  0
 35 29  1  0
  1 37  1  0
  1 38  1  0
  1 39  1  0
  2 40  1  0
  2 41  1  0
  3 42  1  0
  4 43  1  0
  4 44  1  0
  5 45  1  0
  5 46  1  0
  7 47  1  0
  7 48  1  0
  8 49  1  0
  8 50  1  0
  9 51  1  0
  9 52  1  0
 10 53  1  0
 13 54  1  0
 14 55  1  0
 15 56  1  0
 16 57  1  0
 19 58  1  0
 19 59  1  0
 19 60  1  0
 21 61  1  0
 22 62  1  0
 23 63  1  0
 25 64  1  0
 26 65  1  0
 26 66  1  0
 27 67  1  0
 27 68  1  0
 28 69  1  0
 28 70  1  0
 30 71  1  0
 30 72  1  0
 30 73  1  0
 31 74  1  0
 31 75  1  0
 32 76  1  0
 32 77  1  0
 33 78  1  0
 33 79  1  0
 34 80  1  0
 34 81  1  0
 35 82  1  0
 35 83  1  0
M  CHG  2  18   1  29   1
M  END
>  <UniqueID>  (22) 
22

>  <SMILES>  (22) 
CCNCCOCCCNc1c2ccccc2[n+](C)c2cccc(NCCC[N+]3(C)CCCCC3)c12

>  <Energy>  (22) 
127.80812060126958

>  <Genealogy>  (22) 
CCNCCOCCCNc1c2ccccc2[n+](C)c2cccc(NCCC[N+]3(C)CCCCC3)c12 (3D coordinates assigned)
CCNCCOCCCNc1c2ccccc2[n+](C)c2cccc(NCCC[N+]3(C)CCCCC3)c12 (nonaromatic ring conformer: 127.80812060126958 kcal/mol)

>  <smiles>  (22) 
CCNCCOCCCNc1c2ccccc2[n+](C)c2cccc(NCCC[N+]3(C)CCCCC3)c12

>  <score_type>  (22) 
oracle

>  <origin>  (22) 
adg

>  <m_score__min__energy>  (22) 
-9.9399999999999995

>  <m_primary>  (22) 
energy

$$$$
22:0
     RDKit          3D

 38 40  0  0  0  0  0  0  0  0999 V2000
   -7.8937   22.8941  -33.1154 H   0  0  0  0  0  0  0  0  0  0  0  0
   -7.3720   22.3140  -32.3400 C   0  0  0  0  0  0  0  0  0  0  0  0
   -6.4310   22.9430  -31.6210 C   0  0  0  0  0  0  0  0  0  0  0  0
   -6.8700   24.1910  -30.4100 S   0  0  0  0  0  0  0  0  0  0  0  0
   -5.1790   24.0870  -29.7770 C   0  0  0  0  0  0  0  0  0  0  0  0
   -4.8260   24.5510  -28.6070 N   0  0  0  0  0  0  0  0  0  0  0  0
   -4.9920   25.5530  -28.3700 H   0  0  0  0  0  0  0  0  0  0  0  0
   -4.1990   23.7370  -27.5630 C   0  0  0  0  0  0  0  0  0  0  0  0
   -3.7025   22.8728  -28.0284 H   0  0  0  0  0  0  0  0  0  0  0  0
   -4.9774   23.3989  -26.8631 H   0  0  0  0  0  0  0  0  0  0  0  0
   -3.1660   24.5520  -26.7910 C   0  0  0  0  0  0  0  0  0  0  0  0
   -3.3297   24.4228  -25.7110 H   0  0  0  0  0  0  0  0  0  0  0  0
   -2.1554   24.2053  -27.0527 H   0  0  0  0  0  0  0  0  0  0  0  0
   -3.2680   25.6155  -27.0527 H   0  0  0  0  0  0  0  0  0  0  0  0
   -4.2680   23.3810  -30.6330 N   0  0  0  0  0  0  0  0  0  0  0  0
   -2.8350   23.1820  -30.3960 C   0  0  0  0  0  0  0  0  0  0  0  0
   -2.2730   23.4973  -31.2875 H   0  0  0  0  0  0  0  0  0  0  0  0
   -2.5308   23.7818  -29.5255 H   0  0  0  0  0  0  0  0  0  0  0  0
   -2.5420   21.7130  -30.1110 C   0  0  0  0  0  0  0  0  0  0  0  0
   -2.5095   21.5499  -29.0237 H   0  0  0  0  0  0  0  0  0  0  0  0
   -3.3334   21.0890  -30.5519 H   0  0  0  0  0  0  0  0  0  0  0  0
   -1.5718   21.4404  -30.5519 H   0  0  0  0  0  0  0  0  0  0  0  0
   -4.9820   22.7320  -31.6780 C   0  0  0  0  0  0  0  0  0  0  0  0
   -4.3980   22.0860  -32.5890 O   0  0  0  0  0  0  0  0  0  0  0  0
   -7.7590   20.9000  -32.1670 C   0  0  0  0  0  0  0  0  0  0  0  0
   -8.8770   20.4880  -31.4340 C   0  0  0  0  0  0  0  0  0  0  0  0
   -9.5409   21.1500  -30.8587 H   0  0  0  0  0  0  0  0  0  0  0  0
   -9.0460   18.8140  -31.5720 S   0  0  0  0  0  0  0  0  0  0  0  0
   -7.7200   18.6040  -32.5760 C   0  0  0  0  0  0  0  0  0  0  0  0
   -7.2380   17.4180  -33.1270 C   0  0  0  0  0  0  0  0  0  0  0  0
   -7.7291   16.4565  -32.9164 H   0  0  0  0  0  0  0  0  0  0  0  0
   -6.1100   17.4840  -33.9570 C   0  0  0  0  0  0  0  0  0  0  0  0
   -5.7065   16.5644  -34.4059 H   0  0  0  0  0  0  0  0  0  0  0  0
   -5.4910   18.7210  -34.2190 C   0  0  0  0  0  0  0  0  0  0  0  0
   -4.6064   18.7616  -34.8716 H   0  0  0  0  0  0  0  0  0  0  0  0
   -5.9950   19.9040  -33.6530 C   0  0  0  0  0  0  0  0  0  0  0  0
   -5.5116   20.8710  -33.8562 H   0  0  0  0  0  0  0  0  0  0  0  0
   -7.1240   19.8320  -32.8250 C   0  0  0  0  0  0  0  0  0  0  0  0
  1  2  1  0
  2  3  2  3
  3  4  1  0
  4  5  1  0
  5  6  2  0
  6  7  1  0
  6  8  1  0
  8  9  1  0
  8 10  1  0
  8 11  1  0
 11 12  1  0
 11 13  1  0
 11 14  1  0
  5 15  1  0
 15 16  1  0
 16 17  1  0
 16 18  1  0
 16 19  1  0
 19 20  1  0
 19 21  1  0
 19 22  1  0
 15 23  1  0
 23 24  2  0
  2 25  1  0
 25 26  2  0
 26 27  1  0
 26 28  1  0
 28 29  1  0
 29 30  2  0
 30 31  1  0
 30 32  1  0
 32 33  1  0
 32 34  2  0
 34 35  1  0
 34 36  1  0
 36 37  1  0
 36 38  2  0
 23  3  1  0
 38 25  1  0
 38 29  1  0
M  CHG  1   6   1
M  END
>  <UniqueID>  (23) 
23

>  <SMILES>  (23) 
CC/[NH+]=C1\SC(=Cc2csc3ccccc23)C(=O)N1CC

>  <Energy>  (23) 
91.69988388453642

>  <Genealogy>  (23) 
CC[NH+]=C1SC(=Cc2csc3ccccc23)C(=O)N1CC (protonated)
CC/[NH+]=C1\SC(=Cc2csc3ccccc23)C(=O)N1CC (cis-trans isomerization)
CC/[NH+]=C1\SC(=Cc2csc3ccccc23)C(=O)N1CC (3D coordinates assigned)
CC/[NH+]=C1\SC(=Cc2csc3ccccc23)C(=O)N1CC (nonaromatic ring conformer: 91.69988388453642 kcal/mol)

>  <smiles>  (23) 
CCN=C1SC(=Cc2csc3ccccc23)C(=O)N1CC

>  <score_type>  (23) 
oracle

>  <origin>  (23) 
adg

>  <m_score__min__energy>  (23) 
-7.8499999999999996

>  <m_primary>  (23) 
energy

$$$$
23:0
     RDKit          3D

 58 60  0  0  0  0  0  0  0  0999 V2000
   -6.2140   16.9910  -34.6360 C   0  0  0  0  0  0  0  0  0  0  0  0
   -5.0950   18.0140  -34.8450 C   0  0  0  0  0  0  0  0  0  0  0  0
   -4.0620   17.9420  -33.7950 N   0  0  0  0  0  0  0  0  0  0  0  0
   -2.7110   17.7510  -34.3500 C   0  0  0  0  0  0  0  0  0  0  0  0
   -1.6420   18.1870  -33.3380 C   0  0  0  0  0  0  0  0  0  0  0  0
   -2.2470   18.7850  -32.2040 O   0  0  0  0  0  0  0  0  0  0  0  0
   -1.4440   19.8330  -31.6900 C   0  0  0  0  0  0  0  0  0  0  0  0
   -2.0470   21.2110  -32.0350 C   0  0  0  0  0  0  0  0  0  0  0  0
   -3.3850   21.1190  -32.7750 C   0  0  0  0  0  0  0  0  0  0  0  0
   -4.3960   20.4460  -31.9580 N   0  0  0  0  0  0  0  0  0  0  0  0
   -5.6410   21.1030  -31.6720 C   0  0  0  0  0  0  0  0  0  0  0  0
   -5.6370   22.4480  -31.2660 C   0  0  0  0  0  0  0  0  0  0  0  0
   -4.4380   23.0790  -30.8720 C   0  0  0  0  0  0  0  0  0  0  0  0
   -4.4390   24.4060  -30.4460 C   0  0  0  0  0  0  0  0  0  0  0  0
   -5.6340   25.1130  -30.3790 C   0  0  0  0  0  0  0  0  0  0  0  0
   -6.8320   24.5070  -30.7570 C   0  0  0  0  0  0  0  0  0  0  0  0
   -6.8550   23.1730  -31.2420 C   0  0  0  0  0  0  0  0  0  0  0  0
   -8.0190   22.5790  -31.6870 N   0  0  0  0  0  0  0  0  0  0  0  0
   -9.2110   23.4090  -31.9770 C   0  0  0  0  0  0  0  0  0  0  0  0
   -8.0690   21.2100  -31.8750 C   0  0  0  0  0  0  0  0  0  0  0  0
   -9.3020   20.5390  -32.0620 C   0  0  0  0  0  0  0  0  0  0  0  0
   -9.3500   19.1670  -32.2720 C   0  0  0  0  0  0  0  0  0  0  0  0
   -8.1840   18.4140  -32.2630 C   0  0  0  0  0  0  0  0  0  0  0  0
   -6.9400   19.0250  -32.0350 C   0  0  0  0  0  0  0  0  0  0  0  0
   -5.7760   18.2430  -31.9240 O   0  0  0  0  0  0  0  0  0  0  0  0
   -5.7360   16.9030  -31.4440 C   0  0  0  0  0  0  0  0  0  0  0  0
   -6.8700   20.4380  -31.8680 C   0  0  0  0  0  0  0  0  0  0  0  0
   -6.3776   16.8415  -33.5586 H   0  0  0  0  0  0  0  0  0  0  0  0
   -7.1404   17.3610  -35.0996 H   0  0  0  0  0  0  0  0  0  0  0  0
   -5.9283   16.0353  -35.0996 H   0  0  0  0  0  0  0  0  0  0  0  0
   -4.6214   17.8249  -35.8196 H   0  0  0  0  0  0  0  0  0  0  0  0
   -5.5458   19.0165  -34.8028 H   0  0  0  0  0  0  0  0  0  0  0  0
   -4.0850   18.8450  -33.2650 H   0  0  0  0  0  0  0  0  0  0  0  0
   -4.2870   17.1660  -33.1280 H   0  0  0  0  0  0  0  0  0  0  0  0
   -2.5670   16.6876  -34.5918 H   0  0  0  0  0  0  0  0  0  0  0  0
   -2.6111   18.3655  -35.2568 H   0  0  0  0  0  0  0  0  0  0  0  0
   -1.0653   17.3065  -33.0186 H   0  0  0  0  0  0  0  0  0  0  0  0
   -0.9779   18.9220  -33.8162 H   0  0  0  0  0  0  0  0  0  0  0  0
   -1.3780   19.7326  -30.5966 H   0  0  0  0  0  0  0  0  0  0  0  0
   -0.4444   19.7639  -32.1440 H   0  0  0  0  0  0  0  0  0  0  0  0
   -2.2031   21.7679  -31.0993 H   0  0  0  0  0  0  0  0  0  0  0  0
   -1.3379   21.7181  -32.7059 H   0  0  0  0  0  0  0  0  0  0  0  0
   -3.7340   22.1346  -33.0132 H   0  0  0  0  0  0  0  0  0  0  0  0
   -3.2350   20.5349  -33.6950 H   0  0  0  0  0  0  0  0  0  0  0  0
   -4.1220   19.6210  -31.3780 H   0  0  0  0  0  0  0  0  0  0  0  0
   -3.4925   22.5176  -30.9014 H   0  0  0  0  0  0  0  0  0  0  0  0
   -3.4945   24.8937  -30.1629 H   0  0  0  0  0  0  0  0  0  0  0  0
   -5.6348   26.1549  -30.0263 H   0  0  0  0  0  0  0  0  0  0  0  0
   -7.7730   25.0711  -30.6781 H   0  0  0  0  0  0  0  0  0  0  0  0
   -9.6727   23.7305  -31.0318 H   0  0  0  0  0  0  0  0  0  0  0  0
   -8.9095   24.2935  -32.5573 H   0  0  0  0  0  0  0  0  0  0  0  0
   -9.9360   22.8194  -32.5573 H   0  0  0  0  0  0  0  0  0  0  0  0
  -10.2389   21.1150  -32.0405 H   0  0  0  0  0  0  0  0  0  0  0  0
  -10.3178   18.6741  -32.4465 H   0  0  0  0  0  0  0  0  0  0  0  0
   -8.2347   17.3289  -32.4360 H   0  0  0  0  0  0  0  0  0  0  0  0
   -5.7361   16.9074  -30.3440 H   0  0  0  0  0  0  0  0  0  0  0  0
   -6.6182   16.3564  -31.8086 H   0  0  0  0  0  0  0  0  0  0  0  0
   -4.8227   16.4100  -31.8086 H   0  0  0  0  0  0  0  0  0  0  0  0
  1  2  1  0
  2  3  1  0
  3  4  1  0
  4  5  1  0
  5  6  1  0
  6  7  1  0
  7  8  1  0
  8  9  1  0
  9 10  1  0
 10 11  1  0
 11 12  2  0
 12 13  1  0
 13 14  2  0
 14 15  1  0
 15 16  2  0
 16 17  1  0
 17 18  2  0
 18 19  1  0
 18 20  1  0
 20 21  2  0
 21 22  1  0
 22 23  2  0
 23 24  1  0
 24 25  1  0
 25 26  1  0
 24 27  2  0
 27 11  1  0
 17 12  1  0
 27 20  1  0
  1 28  1  0
  1 29  1  0
  1 30  1  0
  2 31  1  0
  2 32  1  0
  3 33  1  0
  3 34  1  0
  4 35  1  0
  4 36  1  0
  5 37  1  0
  5 38  1  0
  7 39  1  0
  7 40  1  0
  8 41  1  0
  8 42  1  0
  9 43  1  0
  9 44  1  0
 10 45  1  0
 13 46  1  0
 14 47  1  0
 15 48  1  0
 16 49  1  0
 19 50  1  0
 19 51  1  0
 19 52  1  0
 21 53  1  0
 22 54  1  0
 23 55  1  0
 26 56  1  0
 26 57  1  0
 26 58  1  0
M  CHG  2   3   1  18   1
M  END
>  <UniqueID>  (24) 
24

>  <SMILES>  (24) 
CC[NH2+]CCOCCCNc1c2ccccc2[n+](C)c2cccc(OC)c12

>  <Energy>  (24) 
88.05817885688344

>  <Genealogy>  (24) 
CC[NH2+]CCOCCCNc1c2ccccc2[n+](C)c2cccc(OC)c12 (protonated)
CC[NH2+]CCOCCCNc1c2ccccc2[n+](C)c2cccc(OC)c12 (3D coordinates assigned)
CC[NH2+]CCOCCCNc1c2ccccc2[n+](C)c2cccc(OC)c12 (optimized conformer: 88.05817885688344 kcal/mol)

>  <smiles>  (24) 
CCNCCOCCCNc1c2ccccc2[n+](C)c2cccc(OC)c12

>  <score_type>  (24) 
oracle

>  <origin>  (24) 
adg

>  <m_score__min__energy>  (24) 
-7.5999999999999996

>  <m_primary>  (24) 
energy

$$$$
24:0
     RDKit          3D

 25 24  0  0  0  0  0  0  0  0999 V2000
   -9.4510   22.1110  -31.8340 C   0  0  0  0  0  0  0  0  0  0  0  0
   -8.3970   21.5640  -30.8740 C   0  0  0  0  0  0  0  0  0  0  0  0
   -7.4130   20.7370  -31.6060 N   0  0  0  0  0  0  0  0  0  0  0  0
   -8.0590   19.7090  -32.4590 C   0  0  0  0  0  0  0  0  0  0  0  0
   -8.6940   18.6280  -31.5910 C   0  0  0  0  0  0  0  0  0  0  0  0
   -6.4380   21.5600  -32.3570 C   0  0  0  0  0  0  0  0  0  0  0  0
   -5.9910   22.7450  -31.6020 C   0  0  0  0  0  0  0  0  0  0  0  0
   -5.6190   23.7120  -30.9860 C   0  0  0  0  0  0  0  0  0  0  0  0
   -5.1730   24.8920  -30.2380 C   0  0  0  0  0  0  0  0  0  0  0  0
   -3.9100   25.2940  -30.6880 O   0  0  0  0  0  0  0  0  0  0  0  0
  -10.2828   22.5427  -31.2580 H   0  0  0  0  0  0  0  0  0  0  0  0
   -9.0010   22.8894  -32.4678 H   0  0  0  0  0  0  0  0  0  0  0  0
   -9.8285   21.2950  -32.4678 H   0  0  0  0  0  0  0  0  0  0  0  0
   -7.8765   22.4037  -30.3904 H   0  0  0  0  0  0  0  0  0  0  0  0
   -8.8938   20.9405  -30.1160 H   0  0  0  0  0  0  0  0  0  0  0  0
   -8.8369   20.1842  -33.0747 H   0  0  0  0  0  0  0  0  0  0  0  0
   -7.2974   19.2488  -33.1057 H   0  0  0  0  0  0  0  0  0  0  0  0
   -8.5477   18.8771  -30.5296 H   0  0  0  0  0  0  0  0  0  0  0  0
   -9.7706   18.5685  -31.8086 H   0  0  0  0  0  0  0  0  0  0  0  0
   -8.2218   17.6586  -31.8086 H   0  0  0  0  0  0  0  0  0  0  0  0
   -5.5600   20.9397  -32.5902 H   0  0  0  0  0  0  0  0  0  0  0  0
   -6.9383   21.9171  -33.2692 H   0  0  0  0  0  0  0  0  0  0  0  0
   -5.8912   25.7115  -30.3881 H   0  0  0  0  0  0  0  0  0  0  0  0
   -5.1126   24.6406  -29.1688 H   0  0  0  0  0  0  0  0  0  0  0  0
   -4.0390   25.6780  -31.5950 H   0  0  0  0  0  0  0  0  0  0  0  0
  1  2  1  0
  2  3  1  0
  3  4  1  0
  4  5  1  0
  3  6  1  0
  6  7  1  0
  7  8  3  0
  8  9  1  0
  9 10  1  0
  1 11  1  0
  1 12  1  0
  1 13  1  0
  2 14  1  0
  2 15  1  0
  4 16  1  0
  4 17  1  0
  5 18  1  0
  5 19  1  0
  5 20  1  0
  6 21  1  0
  6 22  1  0
  9 23  1  0
  9 24  1  0
 10 25  1  0
M  END
>  <UniqueID>  (25) 
25

>  <SMILES>  (25) 
CCN(CC)CC#CCO

>  <Energy>  (25) 
15.452779492117067

>  <Genealogy>  (25) 
CCN(CC)CC#CCO (3D coordinates assigned)
CCN(CC)CC#CCO (optimized conformer: 15.452779492117067 kcal/mol)

>  <smiles>  (25) 
CCN(CC)CC#CCO

>  <score_type>  (25) 
oracle

>  <origin>  (25) 
adg

>  <m_score__min__energy>  (25) 
-4.7800000000000002

>  <m_primary>  (25) 
energy

$$$$
25:0
     RDKit          3D

 71 73  0  0  0  0  0  0  0  0999 V2000
   -0.2050   21.2720  -34.6070 C   0  0  0  0  0  0  0  0  0  0  0  0
   -1.0050   21.0400  -33.3360 C   0  0  0  0  0  0  0  0  0  0  0  0
   -2.3680   20.7880  -33.6770 O   0  0  0  0  0  0  0  0  0  0  0  0
   -2.9390   19.5120  -33.8330 C   0  0  0  0  0  0  0  0  0  0  0  0
   -2.1440   18.4230  -34.2340 C   0  0  0  0  0  0  0  0  0  0  0  0
   -2.6830   17.1490  -34.3340 C   0  0  0  0  0  0  0  0  0  0  0  0
   -4.0280   16.9340  -34.0680 C   0  0  0  0  0  0  0  0  0  0  0  0
   -4.8850   18.0040  -33.7110 C   0  0  0  0  0  0  0  0  0  0  0  0
   -4.3240   19.3070  -33.5620 C   0  0  0  0  0  0  0  0  0  0  0  0
   -5.1650   20.3560  -33.1230 C   0  0  0  0  0  0  0  0  0  0  0  0
   -4.6950   21.7120  -33.0730 N   0  0  0  0  0  0  0  0  0  0  0  0
   -4.1230   22.2430  -31.8330 C   0  0  0  0  0  0  0  0  0  0  0  0
   -4.8960   23.4700  -31.3510 C   0  0  0  0  0  0  0  0  0  0  0  0
   -3.9970   24.4170  -30.8010 O   0  0  0  0  0  0  0  0  0  0  0  0
   -4.2030   24.5580  -29.4100 C   0  0  0  0  0  0  0  0  0  0  0  0
   -2.8720   24.3690  -28.6820 C   0  0  0  0  0  0  0  0  0  0  0  0
   -2.0970   25.5510  -28.7640 O   0  0  0  0  0  0  0  0  0  0  0  0
   -1.2280   25.6620  -27.6540 C   0  0  0  0  0  0  0  0  0  0  0  0
   -2.0680   25.7460  -26.3660 C   0  0  0  0  0  0  0  0  0  0  0  0
   -1.5090   26.6420  -25.3100 N   0  0  0  0  0  0  0  0  0  0  0  0
   -0.5930   27.6810  -25.8480 C   0  0  0  0  0  0  0  0  0  0  0  0
   -0.8780   29.0810  -25.2920 C   0  0  0  0  0  0  0  0  0  0  0  0
   -0.8310   25.9160  -24.2010 C   0  0  0  0  0  0  0  0  0  0  0  0
   -0.4380   26.8160  -23.0220 C   0  0  0  0  0  0  0  0  0  0  0  0
   -6.4810   20.0720  -32.7140 C   0  0  0  0  0  0  0  0  0  0  0  0
   -7.2900   21.0770  -32.1390 C   0  0  0  0  0  0  0  0  0  0  0  0
   -8.5820   20.7900  -31.7060 C   0  0  0  0  0  0  0  0  0  0  0  0
   -9.0820   19.4990  -31.8180 C   0  0  0  0  0  0  0  0  0  0  0  0
   -8.3020   18.4930  -32.3860 C   0  0  0  0  0  0  0  0  0  0  0  0
   -6.9990   18.7640  -32.8780 C   0  0  0  0  0  0  0  0  0  0  0  0
   -6.2350   17.7940  -33.4960 N   0  0  0  0  0  0  0  0  0  0  0  0
   -6.8640   16.5370  -33.9630 C   0  0  0  0  0  0  0  0  0  0  0  0
    0.8211   21.5696  -34.3452 H   0  0  0  0  0  0  0  0  0  0  0  0
   -0.1784   20.3446  -35.1979 H   0  0  0  0  0  0  0  0  0  0  0  0
   -0.6787   22.0698  -35.1979 H   0  0  0  0  0  0  0  0  0  0  0  0
   -0.5948   20.1736  -32.7964 H   0  0  0  0  0  0  0  0  0  0  0  0
   -0.9440   21.9311  -32.6939 H   0  0  0  0  0  0  0  0  0  0  0  0
   -1.0820   18.5838  -34.4711 H   0  0  0  0  0  0  0  0  0  0  0  0
   -2.0411   16.3046  -34.6256 H   0  0  0  0  0  0  0  0  0  0  0  0
   -4.4359   15.9146  -34.1356 H   0  0  0  0  0  0  0  0  0  0  0  0
   -4.5810   22.2280  -33.9780 H   0  0  0  0  0  0  0  0  0  0  0  0
   -4.1640   21.4649  -31.0566 H   0  0  0  0  0  0  0  0  0  0  0  0
   -3.0821   22.5406  -32.0281 H   0  0  0  0  0  0  0  0  0  0  0  0
   -5.4292   23.9226  -32.2000 H   0  0  0  0  0  0  0  0  0  0  0  0
   -5.6189   23.1646  -30.5802 H   0  0  0  0  0  0  0  0  0  0  0  0
   -4.5994   25.5617  -29.1968 H   0  0  0  0  0  0  0  0  0  0  0  0
   -4.9232   23.8015  -29.0649 H   0  0  0  0  0  0  0  0  0  0  0  0
   -3.0662   24.1346  -27.6250 H   0  0  0  0  0  0  0  0  0  0  0  0
   -2.3188   23.5439  -29.1545 H   0  0  0  0  0  0  0  0  0  0  0  0
   -0.5720   24.7801  -27.6096 H   0  0  0  0  0  0  0  0  0  0  0  0
   -0.6104   26.5667  -27.7546 H   0  0  0  0  0  0  0  0  0  0  0  0
   -3.0687   26.1159  -26.6338 H   0  0  0  0  0  0  0  0  0  0  0  0
   -2.0795   24.7329  -25.9377 H   0  0  0  0  0  0  0  0  0  0  0  0
   -2.3230   27.1440  -24.8820 H   0  0  0  0  0  0  0  0  0  0  0  0
    0.4398   27.4051  -25.5889 H   0  0  0  0  0  0  0  0  0  0  0  0
   -0.7478   27.7227  -26.9363 H   0  0  0  0  0  0  0  0  0  0  0  0
   -0.8711   29.0473  -24.1925 H   0  0  0  0  0  0  0  0  0  0  0  0
   -0.1036   29.7793  -25.6423 H   0  0  0  0  0  0  0  0  0  0  0  0
   -1.8638   29.4210  -25.6423 H   0  0  0  0  0  0  0  0  0  0  0  0
   -1.5116   25.1356  -23.8300 H   0  0  0  0  0  0  0  0  0  0  0  0
    0.1009   25.5006  -24.6120 H   0  0  0  0  0  0  0  0  0  0  0  0
   -0.6630   26.3008  -22.0765 H   0  0  0  0  0  0  0  0  0  0  0  0
    0.6384   27.0368  -23.0721 H   0  0  0  0  0  0  0  0  0  0  0  0
   -1.0077   27.7556  -23.0721 H   0  0  0  0  0  0  0  0  0  0  0  0
   -6.8949   22.0980  -32.0320 H   0  0  0  0  0  0  0  0  0  0  0  0
   -9.2069   21.5861  -31.2750 H   0  0  0  0  0  0  0  0  0  0  0  0
  -10.0958   19.2699  -31.4577 H   0  0  0  0  0  0  0  0  0  0  0  0
   -8.7036   17.4712  -32.4540 H   0  0  0  0  0  0  0  0  0  0  0  0
   -7.1660   15.9334  -33.0944 H   0  0  0  0  0  0  0  0  0  0  0  0
   -7.7497   16.7740  -34.5707 H   0  0  0  0  0  0  0  0  0  0  0  0
   -6.1434   15.9701  -34.5707 H   0  0  0  0  0  0  0  0  0  0  0  0
  1  2  1  0
  2  3  1  0
  3  4  1  0
  4  5  2  0
  5  6  1  0
  6  7  2  0
  7  8  1  0
  8  9  2  0
  9 10  1  0
 10 11  1  0
 11 12  1  0
 12 13  1  0
 13 14  1  0
 14 15  1  0
 15 16  1  0
 16 17  1  0
 17 18  1  0
 18 19  1  0
 19 20  1  0
 20 21  1  0
 21 22  1  0
 20 23  1  0
 23 24  1  0
 10 25  2  0
 25 26  1  0
 26 27  2  0
 27 28  1  0
 28 29  2  0
 29 30  1  0
 30 31  2  0
 31 32  1  0
  9  4  1  0
 30 25  1  0
 31  8  1  0
  1 33  1  0
  1 34  1  0
  1 35  1  0
  2 36  1  0
  2 37  1  0
  5 38  1  0
  6 39  1  0
  7 40  1  0
 11 41  1  0
 12 42  1  0
 12 43  1  0
 13 44  1  0
 13 45  1  0
 15 46  1  0
 15 47  1  0
 16 48  1  0
 16 49  1  0
 18 50  1  0
 18 51  1  0
 19 52  1  0
 19 53  1  0
 20 54  1  0
 21 55  1  0
 21 56  1  0
 22 57  1  0
 22 58  1  0
 22 59  1  0
 23 60  1  0
 23 61  1  0
 24 62  1  0
 24 63  1  0
 24 64  1  0
 26 65  1  0
 27 66  1  0
 28 67  1  0
 29 68  1  0
 32 69  1  0
 32 70  1  0
 32 71  1  0
M  CHG  2  20   1  31   1
M  END
>  <UniqueID>  (26) 
26

>  <SMILES>  (26) 
CCOc1cccc2c1c(NCCOCCOCC[NH+](CC)CC)c1ccccc1[n+]2C

>  <Energy>  (26) 
100.54261403417055

>  <Genealogy>  (26) 
CCOc1cccc2c1c(NCCOCCOCC[NH+](CC)CC)c1ccccc1[n+]2C (protonated)
CCOc1cccc2c1c(NCCOCCOCC[NH+](CC)CC)c1ccccc1[n+]2C (3D coordinates assigned)
CCOc1cccc2c1c(NCCOCCOCC[NH+](CC)CC)c1ccccc1[n+]2C (optimized conformer: 100.54261403417055 kcal/mol)

>  <smiles>  (26) 
CCOc1cccc2c1c(NCCOCCOCCN(CC)CC)c1ccccc1[n+]2C

>  <score_type>  (26) 
oracle

>  <origin>  (26) 
adg

>  <m_score__min__energy>  (26) 
-8.6899999999999995

>  <m_primary>  (26) 
energy

$$$$
26:0
     RDKit          3D

 38 40  0  0  0  0  0  0  0  0999 V2000
   -3.9070   22.7930  -27.5450 C   0  0  0  0  0  0  0  0  0  0  0  0
   -4.2320   24.2660  -27.7770 C   0  0  0  0  0  0  0  0  0  0  0  0
   -4.7830   24.4730  -29.1160 N   0  0  0  0  0  0  0  0  0  0  0  0
   -5.8360   25.2230  -29.3910 N   0  0  0  0  0  0  0  0  0  0  0  0
   -5.9730   25.2970  -30.7070 N   0  0  0  0  0  0  0  0  0  0  0  0
   -5.0050   24.6140  -31.3050 N   0  0  0  0  0  0  0  0  0  0  0  0
   -4.2670   24.1070  -30.3020 C   0  0  0  0  0  0  0  0  0  0  0  0
   -2.7740   23.1370  -30.5430 S   0  0  0  0  0  0  0  0  0  0  0  0
   -3.6430   21.5970  -31.0160 C   0  0  0  0  0  0  0  0  0  0  0  0
   -4.0640   21.5940  -32.4880 C   0  0  0  0  0  0  0  0  0  0  0  0
   -5.3070   22.3420  -32.6870 N   0  0  0  0  0  0  0  0  0  0  0  0
   -6.5840   21.8270  -32.2710 C   0  0  0  0  0  0  0  0  0  0  0  0
   -7.5230   22.6930  -31.6810 C   0  0  0  0  0  0  0  0  0  0  0  0
   -8.7750   22.2260  -31.2820 C   0  0  0  0  0  0  0  0  0  0  0  0
   -9.1170   20.8880  -31.4620 C   0  0  0  0  0  0  0  0  0  0  0  0
   -8.2020   19.9980  -32.0390 C   0  0  0  0  0  0  0  0  0  0  0  0
   -8.5460   18.6460  -32.2010 C   0  0  0  0  0  0  0  0  0  0  0  0
   -7.6310   17.7490  -32.7500 C   0  0  0  0  0  0  0  0  0  0  0  0
   -6.3630   18.1870  -33.1340 C   0  0  0  0  0  0  0  0  0  0  0  0
   -6.0060   19.5290  -32.9840 C   0  0  0  0  0  0  0  0  0  0  0  0
   -6.9210   20.4590  -32.4470 C   0  0  0  0  0  0  0  0  0  0  0  0
   -3.8629   22.5931  -26.4642 H   0  0  0  0  0  0  0  0  0  0  0  0
   -4.6890   22.1686  -28.0018 H   0  0  0  0  0  0  0  0  0  0  0  0
   -2.9349   22.5556  -28.0018 H   0  0  0  0  0  0  0  0  0  0  0  0
   -4.9689   24.5946  -27.0293 H   0  0  0  0  0  0  0  0  0  0  0  0
   -3.3045   24.8500  -27.6839 H   0  0  0  0  0  0  0  0  0  0  0  0
   -2.9718   20.7437  -30.8386 H   0  0  0  0  0  0  0  0  0  0  0  0
   -4.5553   21.5253  -30.4057 H   0  0  0  0  0  0  0  0  0  0  0  0
   -3.2674   22.0561  -33.0895 H   0  0  0  0  0  0  0  0  0  0  0  0
   -4.2318   20.5524  -32.7992 H   0  0  0  0  0  0  0  0  0  0  0  0
   -5.2530   23.3010  -33.0990 H   0  0  0  0  0  0  0  0  0  0  0  0
   -7.2662   23.7522  -31.5325 H   0  0  0  0  0  0  0  0  0  0  0  0
   -9.4962   22.9180  -30.8227 H   0  0  0  0  0  0  0  0  0  0  0  0
  -10.1088   20.5289  -31.1501 H   0  0  0  0  0  0  0  0  0  0  0  0
   -9.5415   18.2935  -31.8934 H   0  0  0  0  0  0  0  0  0  0  0  0
   -7.9093   16.6929  -32.8809 H   0  0  0  0  0  0  0  0  0  0  0  0
   -5.6415   17.4723  -33.5567 H   0  0  0  0  0  0  0  0  0  0  0  0
   -5.0029   19.8636  -33.2871 H   0  0  0  0  0  0  0  0  0  0  0  0
  1  2  1  0
  2  3  1  0
  3  4  1  0
  4  5  2  0
  5  6  1  0
  6  7  2  0
  7  8  1  0
  8  9  1  0
  9 10  1  0
 10 11  1  0
 11 12  1  0
 12 13  2  0
 13 14  1  0
 14 15  2  0
 15 16  1  0
 16 17  2  0
 17 18  1  0
 18 19  2  0
 19 20  1  0
 20 21  2  0
  7  3  1  0
 21 12  1  0
 21 16  1  0
  1 22  1  0
  1 23  1  0
  1 24  1  0
  2 25  1  0
  2 26  1  0
  9 27  1  0
  9 28  1  0
 10 29  1  0
 10 30  1  0
 11 31  1  0
 13 32  1  0
 14 33  1  0
 15 34  1  0
 17 35  1  0
 18 36  1  0
 19 37  1  0
 20 38  1  0
M  END
>  <UniqueID>  (27) 
27

>  <SMILES>  (27) 
CCn1nnnc1SCCNc1cccc2ccccc12

>  <Energy>  (27) 
75.8600186420407

>  <Genealogy>  (27) 
CCn1nnnc1SCCNc1cccc2ccccc12 (3D coordinates assigned)
CCn1nnnc1SCCNc1cccc2ccccc12 (optimized conformer: 75.8600186420407 kcal/mol)

>  <smiles>  (27) 
CCn1nnnc1SCCNc1cccc2ccccc12

>  <score_type>  (27) 
oracle

>  <origin>  (27) 
adg

>  <m_score__min__energy>  (27) 
-8.9700000000000006

>  <m_primary>  (27) 
energy

$$$$
