0:0
     RDKit          3D

 42 43  0  0  0  0  0  0  0  0999 V2000
   -5.7230   16.6950  -31.3900 C   0  0  0  0  0  0  0  0  0  0  0  0
   -6.7710   17.5740  -32.0800 C   0  0  0  0  0  0  0  0  0  0  0  0
   -6.5440   17.6800  -33.5420 N   0  0  2  0  0  0  0  0  0  0  0  0
   -6.8420   16.4110  -34.2400 C   0  0  0  0  0  0  0  0  0  0  0  0
   -5.1860   18.1880  -33.8680 C   0  0  0  0  0  0  0  0  0  0  0  0
   -5.0210   19.7230  -33.7970 C   0  0  0  0  0  0  0  0  0  0  0  0
   -5.2630   20.2280  -32.4480 N   0  0  0  0  0  0  0  0  0  0  0  0
   -6.4410   20.9600  -32.1020 C   0  0  0  0  0  0  0  0  0  0  0  0
   -6.7430   22.1480  -31.4440 C   0  0  0  0  0  0  0  0  0  0  0  0
   -6.0030   23.2360  -30.8690 N   0  0  0  0  0  0  0  0  0  0  0  0
   -6.4960   24.6050  -31.0540 C   0  0  0  0  0  0  0  0  0  0  0  0
   -5.4940   25.6180  -30.5030 C   0  0  0  0  0  0  0  0  0  0  0  0
   -4.1550   25.2680  -30.9840 N   0  0  0  0  0  0  0  0  0  0  0  0
   -3.6710   23.9920  -30.4230 C   0  0  0  0  0  0  0  0  0  0  0  0
   -4.7930   22.9880  -30.0770 C   0  0  0  0  0  0  0  0  0  0  0  0
   -8.0920   21.8730  -31.5860 C   0  0  0  0  0  0  0  0  0  0  0  0
   -9.1580   22.4460  -31.2430 O   0  0  0  0  0  0  0  0  0  0  0  0
   -7.7880   20.7250  -32.2860 C   0  0  0  0  0  0  0  0  0  0  0  0
   -8.4640   19.8190  -32.8400 O   0  0  0  0  0  0  0  0  0  0  0  0
   -5.8301   16.7848  -30.2989 H   0  0  0  0  0  0  0  0  0  0  0  0
   -5.8704   15.6464  -31.6878 H   0  0  0  0  0  0  0  0  0  0  0  0
   -4.7161   17.0227  -31.6878 H   0  0  0  0  0  0  0  0  0  0  0  0
   -7.7664   17.1388  -31.9074 H   0  0  0  0  0  0  0  0  0  0  0  0
   -6.6946   18.5852  -31.6539 H   0  0  0  0  0  0  0  0  0  0  0  0
   -7.2090   18.3960  -33.9190 H   0  0  0  0  0  0  0  0  0  0  0  0
   -7.0278   15.6197  -33.4988 H   0  0  0  0  0  0  0  0  0  0  0  0
   -7.7343   16.5399  -34.8702 H   0  0  0  0  0  0  0  0  0  0  0  0
   -5.9856   16.1293  -34.8702 H   0  0  0  0  0  0  0  0  0  0  0  0
   -4.4752   17.7366  -33.1602 H   0  0  0  0  0  0  0  0  0  0  0  0
   -5.0005   17.9100  -34.9160 H   0  0  0  0  0  0  0  0  0  0  0  0
   -3.9963   19.9862  -34.0982 H   0  0  0  0  0  0  0  0  0  0  0  0
   -5.7588   20.1800  -34.4729 H   0  0  0  0  0  0  0  0  0  0  0  0
   -4.5250   20.1120  -31.7170 H   0  0  0  0  0  0  0  0  0  0  0  0
   -6.6464   24.7928  -32.1274 H   0  0  0  0  0  0  0  0  0  0  0  0
   -7.4461   24.7155  -30.5108 H   0  0  0  0  0  0  0  0  0  0  0  0
   -5.7596   26.6272  -30.8508 H   0  0  0  0  0  0  0  0  0  0  0  0
   -5.5121   25.6010  -29.4033 H   0  0  0  0  0  0  0  0  0  0  0  0
   -3.4960   26.0280  -30.6960 H   0  0  0  0  0  0  0  0  0  0  0  0
   -3.0026   23.5224  -31.1597 H   0  0  0  0  0  0  0  0  0  0  0  0
   -3.1606   24.2343  -29.4792 H   0  0  0  0  0  0  0  0  0  0  0  0
   -4.4351   21.9682  -30.2818 H   0  0  0  0  0  0  0  0  0  0  0  0
   -5.0471   23.1091  -29.0136 H   0  0  0  0  0  0  0  0  0  0  0  0
  1  2  1  0
  2  3  1  0
  3  4  1  0
  3  5  1  0
  5  6  1  0
  6  7  1  0
  7  8  1  0
  8  9  2  0
  9 10  1  0
 10 11  1  0
 11 12  1  0
 12 13  1  0
 13 14  1  0
 14 15  1  0
  9 16  1  0
 16 17  2  0
 16 18  1  0
 18 19  2  0
 18  8  1  0
 15 10  1  0
  1 20  1  0
  1 21  1  0
  1 22  1  0
  2 23  1  0
  2 24  1  0
  3 25  1  6
  4 26  1  0
  4 27  1  0
  4 28  1  0
  5 29  1  0
  5 30  1  0
  6 31  1  0
  6 32  1  0
  7 33  1  0
 11 34  1  0
 11 35  1  0
 12 36  1  0
 12 37  1  0
 13 38  1  0
 14 39  1  0
 14 40  1  0
 15 41  1  0
 15 42  1  0
M  CHG  1   3   1
M  END
>  <UniqueID>  (1) 
1

>  <SMILES>  (1) 
CC[N@H+](C)CCNc1c(N2CCNCC2)c(=O)c1=O

>  <Energy>  (1) 
37.02382883394186

>  <Genealogy>  (1) 
CC[NH+](C)CCNc1c(N2CCNCC2)c(=O)c1=O (protonated)
CC[N@H+](C)CCNc1c(N2CCNCC2)c(=O)c1=O (chirality)
CC[N@H+](C)CCNc1c(N2CCNCC2)c(=O)c1=O (3D coordinates assigned)
CC[N@H+](C)CCNc1c(N2CCNCC2)c(=O)c1=O (nonaromatic ring conformer: 37.02382883394186 kcal/mol)

>  <smiles>  (1) 
CCN(C)CCNc1c(N2CCNCC2)c(=O)c1=O

>  <score_type>  (1) 
oracle

>  <origin>  (1) 
adg

>  <m_score__min__energy>  (1) 
-6.1299999999999999

>  <m_primary>  (1) 
energy

$$$$
1:0
     RDKit          3D

 28 30  0  0  1  0  0  0  0  0999 V2000
   -6.1140   25.6710  -29.8270 C   0  0  0  0  0  0  0  0  0  0  0  0
   -5.7420   24.5030  -30.6690 C   0  0  0  0  0  0  0  0  0  0  0  0
   -6.6750   23.7430  -31.3470 C   0  0  0  0  0  0  0  0  0  0  0  0
   -6.3040   22.6620  -32.1240 C   0  0  0  0  0  0  0  0  0  0  0  0
   -7.2050   22.0140  -32.7150 N   0  0  0  0  0  0  0  0  0  0  0  0
   -7.5910   20.6840  -32.5590 C   0  0  0  0  0  0  0  0  0  0  0  0
   -6.8350   19.6560  -33.1460 C   0  0  0  0  0  0  0  0  0  0  0  0
   -7.2190   18.3300  -32.9250 C   0  0  0  0  0  0  0  0  0  0  0  0
   -8.3320   18.0590  -32.1360 C   0  0  0  0  0  0  0  0  0  0  0  0
   -9.0860   19.0560  -31.5520 C   0  0  0  0  0  0  0  0  0  0  0  0
   -8.7100   20.3700  -31.7680 C   0  0  0  0  0  0  0  0  0  0  0  0
   -9.4020   21.4190  -31.2270 F   0  0  0  0  0  0  0  0  0  0  0  0
   -5.0250   22.3070  -32.2500 N   0  0  0  0  0  0  0  0  0  0  0  0
   -4.4100   21.3570  -32.9010 N   0  0  0  0  0  0  0  0  0  0  0  0
   -3.0810   21.5170  -32.6310 C   0  0  0  0  0  0  0  0  0  0  0  0
   -2.8900   22.5630  -31.8180 N   0  0  0  0  0  0  0  0  0  0  0  0
   -4.1200   23.0510  -31.5860 C   0  0  0  0  0  0  0  0  0  0  0  0
   -4.4500   24.1120  -30.8210 N   0  0  0  0  0  0  0  0  0  0  0  0
   -6.0275   25.3995  -28.7646 H   0  0  0  0  0  0  0  0  0  0  0  0
   -5.4390   26.5113  -30.0468 H   0  0  0  0  0  0  0  0  0  0  0  0
   -7.1506   25.9662  -30.0468 H   0  0  0  0  0  0  0  0  0  0  0  0
   -7.7404   24.0048  -31.2665 H   0  0  0  0  0  0  0  0  0  0  0  0
   -5.9580   19.8897  -33.7674 H   0  0  0  0  0  0  0  0  0  0  0  0
   -6.6442   17.5057  -33.3725 H   0  0  0  0  0  0  0  0  0  0  0  0
   -8.6219   17.0107  -31.9715 H   0  0  0  0  0  0  0  0  0  0  0  0
   -9.9616   18.8131  -30.9320 H   0  0  0  0  0  0  0  0  0  0  0  0
   -4.7060   20.5870  -33.5150 H   0  0  0  0  0  0  0  0  0  0  0  0
   -2.2794   20.8758  -33.0264 H   0  0  0  0  0  0  0  0  0  0  0  0
  1  2  1  0
  2  3  2  0
  3  4  1  0
  4  5  2  0
  5  6  1  0
  6  7  2  0
  7  8  1  0
  8  9  2  0
  9 10  1  0
 10 11  2  0
 11 12  1  0
  4 13  1  0
 13 14  1  0
 14 15  1  0
 15 16  2  0
 16 17  1  0
 17 18  2  0
 18  2  1  0
 11  6  1  0
 17 13  1  0
  1 19  1  0
  1 20  1  0
  1 21  1  0
  3 22  1  0
  7 23  1  0
  8 24  1  0
  9 25  1  0
 10 26  1  0
 14 27  1  0
 15 28  1  0
M  END
>  <smiles>  (2) 
Cc1cc(=Nc2ccccc2F)n2[nH]cnc2n1

>  <score_type>  (2) 
oracle

>  <origin>  (2) 
adg

>  <m_score__min__energy>  (2) 
-6.8200000000000003

>  <m_primary>  (2) 
energy

$$$$
2:0
     RDKit          3D

 52 54  0  0  0  0  0  0  0  0999 V2000
   -1.2540   17.9210  -32.3680 C   0  0  0  0  0  0  0  0  0  0  0  0
   -0.6200   17.7360  -33.7500 C   0  0  0  0  0  0  0  0  0  0  0  0
   -0.8770   18.8780  -34.6450 N   0  0  0  0  0  0  0  0  0  0  0  0
    0.3670   19.4590  -35.1800 C   0  0  0  0  0  0  0  0  0  0  0  0
    0.4270   20.9670  -34.8970 C   0  0  0  0  0  0  0  0  0  0  0  0
   -0.8390   21.4640  -34.3370 N   0  0  0  0  0  0  0  0  0  0  0  0
   -0.8790   21.5110  -32.8630 C   0  0  0  0  0  0  0  0  0  0  0  0
   -2.2610   21.1640  -32.2720 C   0  0  0  0  0  0  0  0  0  0  0  0
   -3.2950   21.0930  -33.3050 N   0  0  0  0  0  0  0  0  0  0  0  0
   -4.6230   20.6620  -32.9700 C   0  0  0  0  0  0  0  0  0  0  0  0
   -5.0930   19.4090  -33.3960 C   0  0  0  0  0  0  0  0  0  0  0  0
   -4.3010   18.5810  -34.2200 C   0  0  0  0  0  0  0  0  0  0  0  0
   -4.7890   17.3620  -34.6830 C   0  0  0  0  0  0  0  0  0  0  0  0
   -6.0740   16.9550  -34.3510 C   0  0  0  0  0  0  0  0  0  0  0  0
   -6.8760   17.7550  -33.5370 C   0  0  0  0  0  0  0  0  0  0  0  0
   -6.3960   18.9840  -33.0170 C   0  0  0  0  0  0  0  0  0  0  0  0
   -7.1670   19.7720  -32.1810 N   0  0  0  0  0  0  0  0  0  0  0  0
   -8.3890   19.2160  -31.5590 C   0  0  0  0  0  0  0  0  0  0  0  0
   -6.7820   21.0720  -31.9080 C   0  0  0  0  0  0  0  0  0  0  0  0
   -7.6590   21.9950  -31.2820 C   0  0  0  0  0  0  0  0  0  0  0  0
   -7.2370   23.2850  -30.9600 C   0  0  0  0  0  0  0  0  0  0  0  0
   -5.9410   23.6930  -31.2590 C   0  0  0  0  0  0  0  0  0  0  0  0
   -5.4150   25.3140  -30.8400 Cl  0  0  0  0  0  0  0  0  0  0  0  0
   -5.0700   22.8230  -31.9120 C   0  0  0  0  0  0  0  0  0  0  0  0
   -5.4830   21.5220  -32.2660 C   0  0  0  0  0  0  0  0  0  0  0  0
   -0.5075   17.7032  -31.5900 H   0  0  0  0  0  0  0  0  0  0  0  0
   -1.6033   18.9585  -32.2608 H   0  0  0  0  0  0  0  0  0  0  0  0
   -2.1065   17.2342  -32.2608 H   0  0  0  0  0  0  0  0  0  0  0  0
    0.4671   17.6215  -33.6272 H   0  0  0  0  0  0  0  0  0  0  0  0
   -1.0709   16.8435  -34.2083 H   0  0  0  0  0  0  0  0  0  0  0  0
   -1.3790   19.6120  -34.0920 H   0  0  0  0  0  0  0  0  0  0  0  0
   -1.5000   18.5830  -35.4340 H   0  0  0  0  0  0  0  0  0  0  0  0
    1.2287   18.9678  -34.7045 H   0  0  0  0  0  0  0  0  0  0  0  0
    0.3912   19.3021  -36.2685 H   0  0  0  0  0  0  0  0  0  0  0  0
    1.2365   21.1634  -34.1786 H   0  0  0  0  0  0  0  0  0  0  0  0
    0.6105   21.4883  -35.8481 H   0  0  0  0  0  0  0  0  0  0  0  0
   -1.0150   22.4270  -34.7100 H   0  0  0  0  0  0  0  0  0  0  0  0
   -0.1432   20.7929  -32.4720 H   0  0  0  0  0  0  0  0  0  0  0  0
   -0.6517   22.5457  -32.5667 H   0  0  0  0  0  0  0  0  0  0  0  0
   -2.1966   20.1895  -31.7659 H   0  0  0  0  0  0  0  0  0  0  0  0
   -2.5391   21.9604  -31.5660 H   0  0  0  0  0  0  0  0  0  0  0  0
   -3.1530   21.5550  -34.2320 H   0  0  0  0  0  0  0  0  0  0  0  0
   -3.2868   18.9023  -34.4996 H   0  0  0  0  0  0  0  0  0  0  0  0
   -4.1553   16.7204  -35.3129 H   0  0  0  0  0  0  0  0  0  0  0  0
   -6.4612   15.9982  -34.7312 H   0  0  0  0  0  0  0  0  0  0  0  0
   -7.8976   17.4272  -33.2944 H   0  0  0  0  0  0  0  0  0  0  0  0
   -8.2950   19.2588  -30.4639 H   0  0  0  0  0  0  0  0  0  0  0  0
   -9.2622   19.8054  -31.8754 H   0  0  0  0  0  0  0  0  0  0  0  0
   -8.5183   18.1704  -31.8754 H   0  0  0  0  0  0  0  0  0  0  0  0
   -8.6888   21.6883  -31.0467 H   0  0  0  0  0  0  0  0  0  0  0  0
   -7.9313   23.9820  -30.4680 H   0  0  0  0  0  0  0  0  0  0  0  0
   -4.0495   23.1546  -32.1539 H   0  0  0  0  0  0  0  0  0  0  0  0
  1  2  1  0
  2  3  1  0
  3  4  1  0
  4  5  1  0
  5  6  1  0
  6  7  1  0
  7  8  1  0
  8  9  1  0
  9 10  1  0
 10 11  2  0
 11 12  1  0
 12 13  2  0
 13 14  1  0
 14 15  2  0
 15 16  1  0
 16 17  2  0
 17 18  1  0
 17 19  1  0
 19 20  2  0
 20 21  1  0
 21 22  2  0
 22 23  1  0
 22 24  1  0
 24 25  2  0
 25 10  1  0
 16 11  1  0
 25 19  1  0
  1 26  1  0
  1 27  1  0
  1 28  1  0
  2 29  1  0
  2 30  1  0
  3 31  1  0
  3 32  1  0
  4 33  1  0
  4 34  1  0
  5 35  1  0
  5 36  1  0
  6 37  1  0
  7 38  1  0
  7 39  1  0
  8 40  1  0
  8 41  1  0
  9 42  1  0
 12 43  1  0
 13 44  1  0
 14 45  1  0
 15 46  1  0
 18 47  1  0
 18 48  1  0
 18 49  1  0
 20 50  1  0
 21 51  1  0
 24 52  1  0
M  CHG  2   3   1  17   1
M  END
>  <UniqueID>  (3) 
2

>  <SMILES>  (3) 
CC[NH2+]CCNCCNc1c2ccccc2[n+](C)c2ccc(Cl)cc12

>  <Energy>  (3) 
76.94983865722331

>  <Genealogy>  (3) 
CC[NH2+]CCNCCNc1c2ccccc2[n+](C)c2ccc(Cl)cc12 (protonated)
CC[NH2+]CCNCCNc1c2ccccc2[n+](C)c2ccc(Cl)cc12 (3D coordinates assigned)
CC[NH2+]CCNCCNc1c2ccccc2[n+](C)c2ccc(Cl)cc12 (optimized conformer: 76.94983865722331 kcal/mol)

>  <smiles>  (3) 
CCNCCNCCNc1c2ccccc2[n+](C)c2ccc(Cl)cc12

>  <score_type>  (3) 
oracle

>  <origin>  (3) 
adg

>  <m_score__min__energy>  (3) 
-9

>  <m_primary>  (3) 
energy

$$$$
3:0
     RDKit          3D

 50 52  0  0  0  0  0  0  0  0999 V2000
   -2.6300   23.1200  -29.0800 C   0  0  0  0  0  0  0  0  0  0  0  0
   -2.3850   24.6090  -29.2990 C   0  0  0  0  0  0  0  0  0  0  0  0
   -3.5000   25.2120  -30.0190 N   0  0  0  0  0  0  0  0  0  0  0  0
   -4.5900   24.4630  -30.5660 C   0  0  0  0  0  0  0  0  0  0  0  0
   -4.4160   23.7130  -31.5640 O   0  0  0  0  0  0  0  0  0  0  0  0
   -5.9370   24.5350  -29.9160 C   0  0  0  0  0  0  0  0  0  0  0  0
   -6.5240   23.1280  -29.7420 C   0  0  0  0  0  0  0  0  0  0  0  0
   -7.8630   23.0000  -30.3690 N   0  0  0  0  0  0  0  0  0  0  0  0
   -7.9670   23.6450  -31.7000 C   0  0  0  0  0  0  0  0  0  0  0  0
   -7.0420   22.9810  -32.7330 C   0  0  0  0  0  0  0  0  0  0  0  0
   -6.9450   21.5390  -32.4780 N   0  0  0  0  0  0  0  0  0  0  0  0
   -5.7910   20.8050  -32.9300 C   0  0  0  0  0  0  0  0  0  0  0  0
   -5.9440   19.5420  -33.5160 C   0  0  0  0  0  0  0  0  0  0  0  0
   -4.8230   18.8120  -33.9330 C   0  0  0  0  0  0  0  0  0  0  0  0
   -5.0240   17.4560  -34.5600 C   0  0  0  0  0  0  0  0  0  0  0  0
   -3.5350   19.3650  -33.7450 C   0  0  0  0  0  0  0  0  0  0  0  0
   -2.3590   18.6900  -34.1370 C   0  0  0  0  0  0  0  0  0  0  0  0
   -1.1070   19.2730  -33.9340 C   0  0  0  0  0  0  0  0  0  0  0  0
   -1.0040   20.5300  -33.3400 C   0  0  0  0  0  0  0  0  0  0  0  0
   -2.1540   21.2140  -32.9440 C   0  0  0  0  0  0  0  0  0  0  0  0
   -3.4220   20.6430  -33.1410 C   0  0  0  0  0  0  0  0  0  0  0  0
   -4.5410   21.3180  -32.7500 N   0  0  0  0  0  0  0  0  0  0  0  0
   -8.0400   20.8790  -31.7610 C   0  0  0  0  0  0  0  0  0  0  0  0
   -8.3150   21.5830  -30.4140 C   0  0  0  0  0  0  0  0  0  0  0  0
   -2.6647   22.9089  -28.0010 H   0  0  0  0  0  0  0  0  0  0  0  0
   -3.5872   22.8343  -29.5405 H   0  0  0  0  0  0  0  0  0  0  0  0
   -1.8148   22.5426  -29.5405 H   0  0  0  0  0  0  0  0  0  0  0  0
   -2.2745   25.1045  -28.3232 H   0  0  0  0  0  0  0  0  0  0  0  0
   -1.4690   24.7338  -29.8951 H   0  0  0  0  0  0  0  0  0  0  0  0
   -5.8381   25.0108  -28.9292 H   0  0  0  0  0  0  0  0  0  0  0  0
   -6.6100   25.1254  -30.5551 H   0  0  0  0  0  0  0  0  0  0  0  0
   -5.8434   22.3998  -30.2073 H   0  0  0  0  0  0  0  0  0  0  0  0
   -6.6353   22.9384  -28.6642 H   0  0  0  0  0  0  0  0  0  0  0  0
   -9.0063   23.5682  -32.0521 H   0  0  0  0  0  0  0  0  0  0  0  0
   -7.6606   24.6962  -31.5942 H   0  0  0  0  0  0  0  0  0  0  0  0
   -7.4485   23.1444  -33.7420 H   0  0  0  0  0  0  0  0  0  0  0  0
   -6.0393   23.4264  -32.6537 H   0  0  0  0  0  0  0  0  0  0  0  0
   -6.9511   19.1203  -33.6498 H   0  0  0  0  0  0  0  0  0  0  0  0
   -5.1361   16.6995  -33.7694 H   0  0  0  0  0  0  0  0  0  0  0  0
   -5.9297   17.4712  -35.1841 H   0  0  0  0  0  0  0  0  0  0  0  0
   -4.1528   17.2078  -35.1841 H   0  0  0  0  0  0  0  0  0  0  0  0
   -2.4296   17.6974  -34.6058 H   0  0  0  0  0  0  0  0  0  0  0  0
   -0.1973   18.7380  -34.2442 H   0  0  0  0  0  0  0  0  0  0  0  0
   -0.0142   20.9835  -33.1832 H   0  0  0  0  0  0  0  0  0  0  0  0
   -2.0670   22.2053  -32.4752 H   0  0  0  0  0  0  0  0  0  0  0  0
   -4.4410   22.2630  -32.3130 H   0  0  0  0  0  0  0  0  0  0  0  0
   -8.9493   20.9147  -32.3790 H   0  0  0  0  0  0  0  0  0  0  0  0
   -7.7536   19.8357  -31.5621 H   0  0  0  0  0  0  0  0  0  0  0  0
   -9.3986   21.5593  -30.2261 H   0  0  0  0  0  0  0  0  0  0  0  0
   -7.7407   21.0410  -29.6482 H   0  0  0  0  0  0  0  0  0  0  0  0
  1  2  1  0
  2  3  1  0
  3  4  1  0
  4  5  2  0
  4  6  1  0
  6  7  1  0
  7  8  1  0
  8  9  1  0
  9 10  1  0
 10 11  1  0
 11 12  1  0
 12 13  2  0
 13 14  1  0
 14 15  1  0
 14 16  2  0
 16 17  1  0
 17 18  2  0
 18 19  1  0
 19 20  2  0
 20 21  1  0
 21 22  2  0
 11 23  1  0
 23 24  1  0
 24  8  1  0
 22 12  1  0
 21 16  1  0
  1 25  1  0
  1 26  1  0
  1 27  1  0
  2 28  1  0
  2 29  1  0
  6 30  1  0
  6 31  1  0
  7 32  1  0
  7 33  1  0
  9 34  1  0
  9 35  1  0
 10 36  1  0
 10 37  1  0
 13 38  1  0
 15 39  1  0
 15 40  1  0
 15 41  1  0
 17 42  1  0
 18 43  1  0
 19 44  1  0
 20 45  1  0
 22 46  1  0
 23 47  1  0
 23 48  1  0
 24 49  1  0
 24 50  1  0
M  CHG  2   3  -1  22   1
M  END
>  <UniqueID>  (4) 
3

>  <SMILES>  (4) 
CC[N-]C(=O)CCN1CCN(c2cc(C)c3ccccc3[nH+]2)CC1

>  <Energy>  (4) 
61.098983694348156

>  <Genealogy>  (4) 
CC[N-]C(=O)CCN1CCN(c2cc(C)c3ccccc3[nH+]2)CC1 (protonated)
CC[N-]C(=O)CCN1CCN(c2cc(C)c3ccccc3[nH+]2)CC1 (3D coordinates assigned)
CC[N-]C(=O)CCN1CCN(c2cc(C)c3ccccc3[nH+]2)CC1 (nonaromatic ring conformer: 61.098983694348156 kcal/mol)

>  <smiles>  (4) 
CCNC(=O)CCN1CCN(c2cc(C)c3ccccc3n2)CC1

>  <score_type>  (4) 
oracle

>  <origin>  (4) 
adg

>  <m_score__min__energy>  (4) 
-9.1099999999999994

>  <m_primary>  (4) 
energy

$$$$
4:0
     RDKit          3D

 41 42  0  0  0  0  0  0  0  0999 V2000
   -9.1830   22.9460  -32.0770 C   0  0  0  0  0  0  0  0  0  0  0  0
   -9.4280   21.4870  -31.7070 C   0  0  0  0  0  0  0  0  0  0  0  0
   -8.8340   20.6310  -32.6650 O   0  0  0  0  0  0  0  0  0  0  0  0
   -9.4400   19.3500  -32.6610 C   0  0  0  0  0  0  0  0  0  0  0  0
   -8.6580   18.3740  -31.7710 C   0  0  0  0  0  0  0  0  0  0  0  0
   -7.2560   18.7920  -31.6220 N   0  0  0  0  0  0  0  0  0  0  0  0
   -6.4330   18.1260  -32.6060 C   0  0  0  0  0  0  0  0  0  0  0  0
   -6.2590   16.7300  -32.5430 C   0  0  0  0  0  0  0  0  0  0  0  0
   -5.5080   16.0640  -33.5150 C   0  0  0  0  0  0  0  0  0  0  0  0
   -4.9350   16.7790  -34.5680 C   0  0  0  0  0  0  0  0  0  0  0  0
   -5.1110   18.1610  -34.6530 C   0  0  0  0  0  0  0  0  0  0  0  0
   -5.8530   18.8400  -33.6790 C   0  0  0  0  0  0  0  0  0  0  0  0
   -6.0250   20.2230  -33.8020 O   0  0  0  0  0  0  0  0  0  0  0  0
   -5.3850   21.1670  -32.9870 C   0  0  0  0  0  0  0  0  0  0  0  0
   -6.1670   22.1220  -32.3300 C   0  0  0  0  0  0  0  0  0  0  0  0
   -5.5740   23.0800  -31.5020 C   0  0  0  0  0  0  0  0  0  0  0  0
   -4.1800   23.1010  -31.3200 C   0  0  0  0  0  0  0  0  0  0  0  0
   -3.5650   24.0850  -30.4690 N   0  0  0  0  0  0  0  0  0  0  0  0
   -3.8570   25.2940  -30.5790 O   0  0  0  0  0  0  0  0  0  0  0  0
   -2.6410   23.7100  -29.5200 O   0  0  0  0  0  0  0  0  0  0  0  0
   -3.3940   22.1430  -31.9840 C   0  0  0  0  0  0  0  0  0  0  0  0
   -3.9890   21.1860  -32.8100 C   0  0  0  0  0  0  0  0  0  0  0  0
   -9.0824   23.5449  -31.1599 H   0  0  0  0  0  0  0  0  0  0  0  0
   -8.2592   23.0240  -32.6690 H   0  0  0  0  0  0  0  0  0  0  0  0
  -10.0307   23.3215  -32.6690 H   0  0  0  0  0  0  0  0  0  0  0  0
   -8.9899   21.2848  -30.7185 H   0  0  0  0  0  0  0  0  0  0  0  0
  -10.5119   21.3008  -31.6839 H   0  0  0  0  0  0  0  0  0  0  0  0
  -10.4680   19.4396  -32.2798 H   0  0  0  0  0  0  0  0  0  0  0  0
   -9.4429   18.9606  -33.6898 H   0  0  0  0  0  0  0  0  0  0  0  0
   -9.1289   18.3392  -30.7775 H   0  0  0  0  0  0  0  0  0  0  0  0
   -8.6756   17.3817  -32.2453 H   0  0  0  0  0  0  0  0  0  0  0  0
   -7.1780   19.8280  -31.7320 H   0  0  0  0  0  0  0  0  0  0  0  0
   -6.9160   18.5530  -30.6620 H   0  0  0  0  0  0  0  0  0  0  0  0
   -6.7179   16.1594  -31.7221 H   0  0  0  0  0  0  0  0  0  0  0  0
   -5.3682   14.9748  -33.4503 H   0  0  0  0  0  0  0  0  0  0  0  0
   -4.3439   16.2526  -35.3319 H   0  0  0  0  0  0  0  0  0  0  0  0
   -4.6647   18.7193  -35.4891 H   0  0  0  0  0  0  0  0  0  0  0  0
   -7.2586   22.1196  -32.4658 H   0  0  0  0  0  0  0  0  0  0  0  0
   -6.2028   23.8228  -30.9892 H   0  0  0  0  0  0  0  0  0  0  0  0
   -2.3019   22.1469  -31.8522 H   0  0  0  0  0  0  0  0  0  0  0  0
   -3.3625   20.4429  -33.3251 H   0  0  0  0  0  0  0  0  0  0  0  0
  1  2  1  0
  2  3  1  0
  3  4  1  0
  4  5  1  0
  5  6  1  0
  6  7  1  0
  7  8  2  0
  8  9  1  0
  9 10  2  0
 10 11  1  0
 11 12  2  0
 12 13  1  0
 13 14  1  0
 14 15  2  0
 15 16  1  0
 16 17  2  0
 17 18  1  0
 18 19  2  0
 18 20  1  0
 17 21  1  0
 21 22  2  0
 12  7  1  0
 22 14  1  0
  1 23  1  0
  1 24  1  0
  1 25  1  0
  2 26  1  0
  2 27  1  0
  4 28  1  0
  4 29  1  0
  5 30  1  0
  5 31  1  0
  6 32  1  0
  6 33  1  0
  8 34  1  0
  9 35  1  0
 10 36  1  0
 11 37  1  0
 15 38  1  0
 16 39  1  0
 21 40  1  0
 22 41  1  0
M  CHG  3   6   1  18   1  20  -1
M  END
>  <UniqueID>  (5) 
4

>  <SMILES>  (5) 
CCOCC[NH2+]c1ccccc1Oc1ccc([N+](=O)[O-])cc1

>  <Energy>  (5) 
50.722017143327406

>  <Genealogy>  (5) 
CCOCC[NH2+]c1ccccc1Oc1ccc([N+](=O)[O-])cc1 (protonated)
CCOCC[NH2+]c1ccccc1Oc1ccc([N+](=O)[O-])cc1 (3D coordinates assigned)
CCOCC[NH2+]c1ccccc1Oc1ccc([N+](=O)[O-])cc1 (optimized conformer: 50.722017143327406 kcal/mol)

>  <smiles>  (5) 
CCOCCNc1ccccc1Oc1ccc([N+](=O)[O-])cc1

>  <score_type>  (5) 
oracle

>  <origin>  (5) 
adg

>  <m_score__min__energy>  (5) 
-6.4400000000000004

>  <m_primary>  (5) 
energy

$$$$
5:0
     RDKit          3D

 51 55  0  0  0  0  0  0  0  0999 V2000
   -8.9180   18.8920  -31.2240 C   0  0  0  0  0  0  0  0  0  0  0  0
   -8.0540   19.9700  -31.7370 N   0  0  0  0  0  0  0  0  0  0  0  0
   -8.7460   21.2750  -31.6450 C   0  0  0  0  0  0  0  0  0  0  0  0
   -7.7540   22.3630  -31.3330 C   0  0  0  0  0  0  0  0  0  0  0  0
   -7.1740   23.1230  -32.3590 C   0  0  0  0  0  0  0  0  0  0  0  0
   -6.2700   24.1380  -32.0350 C   0  0  0  0  0  0  0  0  0  0  0  0
   -5.9610   24.3860  -30.7350 N   0  0  0  0  0  0  0  0  0  0  0  0
   -6.5110   23.6680  -29.7200 C   0  0  0  0  0  0  0  0  0  0  0  0
   -7.4200   22.6440  -30.0000 C   0  0  0  0  0  0  0  0  0  0  0  0
   -7.6490   19.6770  -33.1270 C   0  0  0  0  0  0  0  0  0  0  0  0
   -6.1470   19.6260  -33.2310 C   0  0  0  0  0  0  0  0  0  0  0  0
   -5.5410   18.7230  -34.1160 C   0  0  0  0  0  0  0  0  0  0  0  0
   -4.1500   18.6540  -34.2040 C   0  0  0  0  0  0  0  0  0  0  0  0
   -3.3530   19.4810  -33.4110 C   0  0  0  0  0  0  0  0  0  0  0  0
   -3.9390   20.3910  -32.5110 C   0  0  0  0  0  0  0  0  0  0  0  0
   -3.0830   21.2610  -31.6640 C   0  0  0  0  0  0  0  0  0  0  0  0
   -1.6900   21.3610  -31.7060 C   0  0  0  0  0  0  0  0  0  0  0  0
   -1.1620   22.2740  -30.7840 C   0  0  0  0  0  0  0  0  0  0  0  0
   -2.1310   22.8990  -30.0100 C   0  0  0  0  0  0  0  0  0  0  0  0
   -1.8890   23.9020  -28.9660 C   0  0  0  0  0  0  0  0  0  0  0  0
   -2.2710   23.7220  -27.6740 N   0  0  0  0  0  0  0  0  0  0  0  0
   -1.8600   24.8570  -27.0900 C   0  0  0  0  0  0  0  0  0  0  0  0
   -1.9900   25.2240  -25.7530 C   0  0  0  0  0  0  0  0  0  0  0  0
   -1.4760   26.4770  -25.3660 C   0  0  0  0  0  0  0  0  0  0  0  0
   -1.5790   26.8780  -24.0760 F   0  0  0  0  0  0  0  0  0  0  0  0
   -0.8530   27.3170  -26.3170 C   0  0  0  0  0  0  0  0  0  0  0  0
   -0.7400   26.9120  -27.6610 C   0  0  0  0  0  0  0  0  0  0  0  0
   -1.2600   25.6660  -28.0060 C   0  0  0  0  0  0  0  0  0  0  0  0
   -1.2630   25.0840  -29.2130 N   0  0  0  0  0  0  0  0  0  0  0  0
   -3.6400   22.3210  -30.4730 S   0  0  0  0  0  0  0  0  0  0  0  0
   -5.3440   20.4570  -32.4330 C   0  0  0  0  0  0  0  0  0  0  0  0
   -8.9072   18.9055  -30.1241 H   0  0  0  0  0  0  0  0  0  0  0  0
   -9.9467   19.0446  -31.5825 H   0  0  0  0  0  0  0  0  0  0  0  0
   -8.5450   17.9212  -31.5825 H   0  0  0  0  0  0  0  0  0  0  0  0
   -9.2380   21.4948  -32.6040 H   0  0  0  0  0  0  0  0  0  0  0  0
   -9.4966   21.2298  -30.8422 H   0  0  0  0  0  0  0  0  0  0  0  0
   -7.4286   22.9218  -33.4100 H   0  0  0  0  0  0  0  0  0  0  0  0
   -5.8078   24.7372  -32.8333 H   0  0  0  0  0  0  0  0  0  0  0  0
   -6.2404   23.8931  -28.6778 H   0  0  0  0  0  0  0  0  0  0  0  0
   -7.8700   22.0630  -29.1815 H   0  0  0  0  0  0  0  0  0  0  0  0
   -8.0675   18.7060  -33.4305 H   0  0  0  0  0  0  0  0  0  0  0  0
   -8.0279   20.4717  -33.7865 H   0  0  0  0  0  0  0  0  0  0  0  0
   -6.1636   18.0673  -34.7425 H   0  0  0  0  0  0  0  0  0  0  0  0
   -3.6798   17.9449  -34.9012 H   0  0  0  0  0  0  0  0  0  0  0  0
   -2.2575   19.4212  -33.4900 H   0  0  0  0  0  0  0  0  0  0  0  0
   -1.0660   20.7771  -32.3986 H   0  0  0  0  0  0  0  0  0  0  0  0
   -0.0854   22.4761  -30.6830 H   0  0  0  0  0  0  0  0  0  0  0  0
   -2.4770   24.5588  -25.0247 H   0  0  0  0  0  0  0  0  0  0  0  0
   -0.4538   28.2934  -26.0052 H   0  0  0  0  0  0  0  0  0  0  0  0
   -0.2585   27.5561  -28.4116 H   0  0  0  0  0  0  0  0  0  0  0  0
   -5.8174   21.1674  -31.7393 H   0  0  0  0  0  0  0  0  0  0  0  0
  1  2  1  0
  2  3  1  0
  3  4  1  0
  4  5  2  0
  5  6  1  0
  6  7  2  0
  7  8  1  0
  8  9  2  0
  2 10  1  0
 10 11  1  0
 11 12  2  0
 12 13  1  0
 13 14  2  0
 14 15  1  0
 15 16  1  0
 16 17  2  0
 17 18  1  0
 18 19  2  0
 19 20  1  0
 20 21  2  0
 21 22  1  0
 22 23  2  0
 23 24  1  0
 24 25  1  0
 24 26  2  0
 26 27  1  0
 27 28  2  0
 28 29  1  0
 19 30  1  0
 15 31  2  0
  9  4  1  0
 31 11  1  0
 30 16  1  0
 29 20  1  0
 28 22  1  0
  1 32  1  0
  1 33  1  0
  1 34  1  0
  3 35  1  0
  3 36  1  0
  5 37  1  0
  6 38  1  0
  8 39  1  0
  9 40  1  0
 10 41  1  0
 10 42  1  0
 12 43  1  0
 13 44  1  0
 14 45  1  0
 17 46  1  0
 18 47  1  0
 23 48  1  0
 26 49  1  0
 27 50  1  0
 31 51  1  0
M  CHG  1  29  -1
M  END
>  <UniqueID>  (6) 
5

>  <SMILES>  (6) 
CN(Cc1ccncc1)Cc1cccc(-c2ccc(-c3nc4cc(F)ccc4[n-]3)s2)c1

>  <Energy>  (6) 
120.99777597183517

>  <Genealogy>  (6) 
CN(Cc1ccncc1)Cc1cccc(-c2ccc(-c3nc4cc(F)ccc4[n-]3)s2)c1 (protonated)
CN(Cc1ccncc1)Cc1cccc(-c2ccc(-c3nc4cc(F)ccc4[n-]3)s2)c1 (3D coordinates assigned)
CN(Cc1ccncc1)Cc1cccc(-c2ccc(-c3nc4cc(F)ccc4[n-]3)s2)c1 (optimized conformer: 120.99777597183517 kcal/mol)

>  <smiles>  (6) 
CN(Cc1ccncc1)Cc1cccc(-c2ccc(-c3nc4cc(F)ccc4[nH]3)s2)c1

>  <score_type>  (6) 
oracle

>  <origin>  (6) 
adg

>  <m_score__min__energy>  (6) 
-10.630000000000001

>  <m_primary>  (6) 
energy

$$$$
6:0
     RDKit          3D

 87 90  0  0  0  0  0  0  0  0999 V2000
   -0.2470   21.1760  -33.7620 C   0  0  0  0  0  0  0  0  0  0  0  0
   -1.6930   21.2790  -33.2840 C   0  0  0  0  0  0  0  0  0  0  0  0
   -2.2810   19.9330  -33.0840 N   0  0  0  0  0  0  0  0  0  0  0  0
   -3.4930   19.7650  -33.9050 C   0  0  0  0  0  0  0  0  0  0  0  0
   -1.2950   18.8730  -33.3960 C   0  0  0  0  0  0  0  0  0  0  0  0
   -0.8600   18.1710  -32.1030 C   0  0  0  0  0  0  0  0  0  0  0  0
   -0.9480   19.0460  -30.9950 O   0  0  0  0  0  0  0  0  0  0  0  0
    0.2660   19.0710  -30.2690 C   0  0  0  0  0  0  0  0  0  0  0  0
    0.3840   20.4100  -29.5380 C   0  0  0  0  0  0  0  0  0  0  0  0
   -0.7780   21.1970  -29.7260 O   0  0  0  0  0  0  0  0  0  0  0  0
   -1.7170   21.0050  -28.6840 C   0  0  0  0  0  0  0  0  0  0  0  0
   -2.9280   20.1930  -29.1620 C   0  0  0  0  0  0  0  0  0  0  0  0
   -3.1160   20.3120  -30.6180 N   0  0  0  0  0  0  0  0  0  0  0  0
   -4.3560   21.0200  -30.9080 C   0  0  0  0  0  0  0  0  0  0  0  0
   -5.4640   20.3360  -31.4750 C   0  0  0  0  0  0  0  0  0  0  0  0
   -5.4580   18.9290  -31.6600 C   0  0  0  0  0  0  0  0  0  0  0  0
   -6.5110   18.2820  -32.2990 C   0  0  0  0  0  0  0  0  0  0  0  0
   -7.5870   19.0120  -32.7770 C   0  0  0  0  0  0  0  0  0  0  0  0
   -7.6430   20.3880  -32.5740 C   0  0  0  0  0  0  0  0  0  0  0  0
   -6.6160   21.0710  -31.8700 C   0  0  0  0  0  0  0  0  0  0  0  0
   -6.7190   22.4160  -31.5790 N   0  0  0  0  0  0  0  0  0  0  0  0
   -8.0250   23.1000  -31.7220 C   0  0  0  0  0  0  0  0  0  0  0  0
   -5.6280   23.1130  -31.0990 C   0  0  0  0  0  0  0  0  0  0  0  0
   -5.6360   24.5280  -31.0150 C   0  0  0  0  0  0  0  0  0  0  0  0
   -4.5800   25.2240  -30.4380 C   0  0  0  0  0  0  0  0  0  0  0  0
   -3.4800   24.5480  -29.9330 C   0  0  0  0  0  0  0  0  0  0  0  0
   -2.4540   25.3030  -29.3420 O   0  0  0  0  0  0  0  0  0  0  0  0
   -1.2130   24.7710  -28.8810 C   0  0  0  0  0  0  0  0  0  0  0  0
   -1.3960   24.1470  -27.4780 C   0  0  0  0  0  0  0  0  0  0  0  0
   -1.6460   25.1240  -26.3650 N   0  0  0  0  0  0  0  0  0  0  0  0
   -3.1140   25.3100  -26.1950 C   0  0  0  0  0  0  0  0  0  0  0  0
   -1.0400   26.4230  -26.7930 C   0  0  0  0  0  0  0  0  0  0  0  0
   -1.1240   27.5370  -25.7240 C   0  0  0  0  0  0  0  0  0  0  0  0
   -0.9080   27.0210  -24.2960 C   0  0  0  0  0  0  0  0  0  0  0  0
   -0.2120   25.6660  -24.2970 C   0  0  0  0  0  0  0  0  0  0  0  0
   -1.0280   24.6190  -25.0840 C   0  0  0  0  0  0  0  0  0  0  0  0
   -3.4230   23.1500  -30.0470 C   0  0  0  0  0  0  0  0  0  0  0  0
   -4.4590   22.4200  -30.6830 C   0  0  0  0  0  0  0  0  0  0  0  0
    0.4243   21.1282  -32.8919 H   0  0  0  0  0  0  0  0  0  0  0  0
   -0.1254   20.2669  -34.3693 H   0  0  0  0  0  0  0  0  0  0  0  0
    0.0022   22.0587  -34.3693 H   0  0  0  0  0  0  0  0  0  0  0  0
   -1.7192   21.8286  -32.3315 H   0  0  0  0  0  0  0  0  0  0  0  0
   -2.2793   21.8086  -34.0494 H   0  0  0  0  0  0  0  0  0  0  0  0
   -4.3670   19.6439  -33.2481 H   0  0  0  0  0  0  0  0  0  0  0  0
   -3.6317   20.6525  -34.5399 H   0  0  0  0  0  0  0  0  0  0  0  0
   -3.3851   18.8732  -34.5399 H   0  0  0  0  0  0  0  0  0  0  0  0
   -1.7517   18.1378  -34.0748 H   0  0  0  0  0  0  0  0  0  0  0  0
   -0.4154   19.3254  -33.8773 H   0  0  0  0  0  0  0  0  0  0  0  0
   -1.5127   17.3030  -31.9282 H   0  0  0  0  0  0  0  0  0  0  0  0
    0.1866   17.8511  -32.2138 H   0  0  0  0  0  0  0  0  0  0  0  0
    0.2747   18.2497  -29.5373 H   0  0  0  0  0  0  0  0  0  0  0  0
    1.1136   18.9495  -30.9595 H   0  0  0  0  0  0  0  0  0  0  0  0
    0.5204   20.2217  -28.4629 H   0  0  0  0  0  0  0  0  0  0  0  0
    1.2465   20.9567  -29.9469 H   0  0  0  0  0  0  0  0  0  0  0  0
   -1.2293   20.4670  -27.8578 H   0  0  0  0  0  0  0  0  0  0  0  0
   -2.0719   21.9920  -28.3526 H   0  0  0  0  0  0  0  0  0  0  0  0
   -2.7720   19.1344  -28.9069 H   0  0  0  0  0  0  0  0  0  0  0  0
   -3.8264   20.5870  -28.6643 H   0  0  0  0  0  0  0  0  0  0  0  0
   -2.2970   20.7830  -31.0620 H   0  0  0  0  0  0  0  0  0  0  0  0
   -3.1090   19.3720  -31.0680 H   0  0  0  0  0  0  0  0  0  0  0  0
   -4.6056   18.3394  -31.2916 H   0  0  0  0  0  0  0  0  0  0  0  0
   -6.4891   17.1894  -32.4248 H   0  0  0  0  0  0  0  0  0  0  0  0
   -8.3986   18.5034  -33.3179 H   0  0  0  0  0  0  0  0  0  0  0  0
   -8.4988   20.9570  -32.9662 H   0  0  0  0  0  0  0  0  0  0  0  0
   -8.4370   23.3158  -30.7252 H   0  0  0  0  0  0  0  0  0  0  0  0
   -7.8873   24.0417  -32.2735 H   0  0  0  0  0  0  0  0  0  0  0  0
   -8.7207   22.4505  -32.2735 H   0  0  0  0  0  0  0  0  0  0  0  0
   -6.4953   25.0867  -31.4145 H   0  0  0  0  0  0  0  0  0  0  0  0
   -4.6176   26.3219  -30.3816 H   0  0  0  0  0  0  0  0  0  0  0  0
   -0.8651   23.9975  -29.5815 H   0  0  0  0  0  0  0  0  0  0  0  0
   -0.4712   25.5811  -28.8228 H   0  0  0  0  0  0  0  0  0  0  0  0
   -2.2518   23.4573  -27.5225 H   0  0  0  0  0  0  0  0  0  0  0  0
   -0.4421   23.6539  -27.2393 H   0  0  0  0  0  0  0  0  0  0  0  0
   -3.3579   25.3409  -25.1228 H   0  0  0  0  0  0  0  0  0  0  0  0
   -3.4212   26.2542  -26.6683 H   0  0  0  0  0  0  0  0  0  0  0  0
   -3.6470   24.4722  -26.6683 H   0  0  0  0  0  0  0  0  0  0  0  0
    0.0202   26.2492  -27.0293 H   0  0  0  0  0  0  0  0  0  0  0  0
   -1.6154   26.7720  -27.6631 H   0  0  0  0  0  0  0  0  0  0  0  0
   -0.3539   28.2911  -25.9436 H   0  0  0  0  0  0  0  0  0  0  0  0
   -2.1392   27.9581  -25.7695 H   0  0  0  0  0  0  0  0  0  0  0  0
   -0.2873   27.7424  -23.7443 H   0  0  0  0  0  0  0  0  0  0  0  0
   -1.8909   26.9063  -23.8157 H   0  0  0  0  0  0  0  0  0  0  0  0
    0.7790   25.7722  -24.7625 H   0  0  0  0  0  0  0  0  0  0  0  0
   -0.1174   25.3227  -23.2562 H   0  0  0  0  0  0  0  0  0  0  0  0
   -0.3588   23.7826  -25.3344 H   0  0  0  0  0  0  0  0  0  0  0  0
   -1.8651   24.3282  -24.4323 H   0  0  0  0  0  0  0  0  0  0  0  0
   -2.5577   22.6102  -29.6349 H   0  0  0  0  0  0  0  0  0  0  0  0
  1  2  1  0
  2  3  1  0
  3  4  1  0
  3  5  1  0
  5  6  1  0
  6  7  1  0
  7  8  1  0
  8  9  1  0
  9 10  1  0
 10 11  1  0
 11 12  1  0
 12 13  1  0
 13 14  1  0
 14 15  2  0
 15 16  1  0
 16 17  2  0
 17 18  1  0
 18 19  2  0
 19 20  1  0
 20 21  2  0
 21 22  1  0
 21 23  1  0
 23 24  2  0
 24 25  1  0
 25 26  2  0
 26 27  1  0
 27 28  1  0
 28 29  1  0
 29 30  1  0
 30 31  1  0
 30 32  1  0
 32 33  1  0
 33 34  1  0
 34 35  1  0
 35 36  1  0
 26 37  1  0
 37 38  2  0
 38 14  1  0
 20 15  1  0
 38 23  1  0
 36 30  1  0
  1 39  1  0
  1 40  1  0
  1 41  1  0
  2 42  1  0
  2 43  1  0
  4 44  1  0
  4 45  1  0
  4 46  1  0
  5 47  1  0
  5 48  1  0
  6 49  1  0
  6 50  1  0
  8 51  1  0
  8 52  1  0
  9 53  1  0
  9 54  1  0
 11 55  1  0
 11 56  1  0
 12 57  1  0
 12 58  1  0
 13 59  1  0
 13 60  1  0
 16 61  1  0
 17 62  1  0
 18 63  1  0
 19 64  1  0
 22 65  1  0
 22 66  1  0
 22 67  1  0
 24 68  1  0
 25 69  1  0
 28 70  1  0
 28 71  1  0
 29 72  1  0
 29 73  1  0
 31 74  1  0
 31 75  1  0
 31 76  1  0
 32 77  1  0
 32 78  1  0
 33 79  1  0
 33 80  1  0
 34 81  1  0
 34 82  1  0
 35 83  1  0
 35 84  1  0
 36 85  1  0
 36 86  1  0
 37 87  1  0
M  CHG  3  13   1  21   1  30   1
M  END
>  <UniqueID>  (7) 
6

>  <SMILES>  (7) 
CCN(C)CCOCCOCC[NH2+]c1c2ccccc2[n+](C)c2ccc(OCC[N+]3(C)CCCCC3)cc12

>  <Energy>  (7) 
134.31187073137426

>  <Genealogy>  (7) 
CCN(C)CCOCCOCC[NH2+]c1c2ccccc2[n+](C)c2ccc(OCC[N+]3(C)CCCCC3)cc12 (protonated)
CCN(C)CCOCCOCC[NH2+]c1c2ccccc2[n+](C)c2ccc(OCC[N+]3(C)CCCCC3)cc12 (3D coordinates assigned)
CCN(C)CCOCCOCC[NH2+]c1c2ccccc2[n+](C)c2ccc(OCC[N+]3(C)CCCCC3)cc12 (nonaromatic ring conformer: 134.31187073137426 kcal/mol)

>  <smiles>  (7) 
CCN(C)CCOCCOCCNc1c2ccccc2[n+](C)c2ccc(OCC[N+]3(C)CCCCC3)cc12

>  <score_type>  (7) 
oracle

>  <origin>  (7) 
adg

>  <m_score__min__energy>  (7) 
-8.5800000000000001

>  <m_primary>  (7) 
energy

$$$$
7:0
     RDKit          3D

 61 63  0  0  0  0  0  0  0  0999 V2000
   -8.8570   18.2070  -31.7760 C   0  0  0  0  0  0  0  0  0  0  0  0
   -7.3580   18.3700  -31.5370 C   0  0  0  0  0  0  0  0  0  0  0  0
   -6.6610   18.5950  -32.8230 N   0  0  0  0  0  0  0  0  0  0  0  0
   -7.0420   19.8880  -33.4390 C   0  0  0  0  0  0  0  0  0  0  0  0
   -7.3150   20.9260  -32.3510 C   0  0  0  0  0  0  0  0  0  0  0  0
   -6.8660   17.4640  -33.7630 C   0  0  0  0  0  0  0  0  0  0  0  0
   -5.6530   16.5220  -33.7410 C   0  0  0  0  0  0  0  0  0  0  0  0
   -4.5760   17.0690  -32.9020 N   0  0  0  0  0  0  0  0  0  0  0  0
   -3.2670   16.9200  -33.5660 C   0  0  0  0  0  0  0  0  0  0  0  0
   -2.8280   18.2390  -34.2150 C   0  0  0  0  0  0  0  0  0  0  0  0
   -3.7620   19.2830  -33.9310 O   0  0  0  0  0  0  0  0  0  0  0  0
   -3.5580   20.3270  -33.0110 C   0  0  0  0  0  0  0  0  0  0  0  0
   -4.2350   21.5350  -33.2240 C   0  0  0  0  0  0  0  0  0  0  0  0
   -4.0780   22.6090  -32.3430 C   0  0  0  0  0  0  0  0  0  0  0  0
   -3.2460   22.4820  -31.2170 C   0  0  0  0  0  0  0  0  0  0  0  0
   -3.0690   23.5280  -30.2910 C   0  0  0  0  0  0  0  0  0  0  0  0
   -3.6410   24.6390  -30.4660 O   0  0  0  0  0  0  0  0  0  0  0  0
   -2.2320   23.3270  -29.1750 C   0  0  0  0  0  0  0  0  0  0  0  0
   -2.0280   24.3790  -28.1480 C   0  0  0  0  0  0  0  0  0  0  0  0
   -0.9450   25.2680  -28.2470 C   0  0  0  0  0  0  0  0  0  0  0  0
   -0.7480   26.2530  -27.2740 C   0  0  0  0  0  0  0  0  0  0  0  0
   -1.6210   26.3620  -26.1850 C   0  0  0  0  0  0  0  0  0  0  0  0
   -1.3830   27.3670  -25.2350 O   0  0  0  0  0  0  0  0  0  0  0  0
   -0.7350   27.1530  -23.9850 C   0  0  0  0  0  0  0  0  0  0  0  0
   -2.7000   25.4650  -26.0790 C   0  0  0  0  0  0  0  0  0  0  0  0
   -2.9000   24.4820  -27.0510 C   0  0  0  0  0  0  0  0  0  0  0  0
   -1.5850   22.0890  -29.0420 C   0  0  0  0  0  0  0  0  0  0  0  0
   -1.7650   21.1250  -29.9390 O   0  0  0  0  0  0  0  0  0  0  0  0
   -2.5570   21.2680  -30.9970 C   0  0  0  0  0  0  0  0  0  0  0  0
   -2.7070   20.2030  -31.8950 C   0  0  0  0  0  0  0  0  0  0  0  0
   -9.3784   18.1503  -30.8091 H   0  0  0  0  0  0  0  0  0  0  0  0
   -9.2334   19.0695  -32.3456 H   0  0  0  0  0  0  0  0  0  0  0  0
   -9.0392   17.2837  -32.3456 H   0  0  0  0  0  0  0  0  0  0  0  0
   -7.1865   19.2311  -30.8744 H   0  0  0  0  0  0  0  0  0  0  0  0
   -6.9657   17.4549  -31.0694 H   0  0  0  0  0  0  0  0  0  0  0  0
   -6.2218   20.2410  -34.0814 H   0  0  0  0  0  0  0  0  0  0  0  0
   -7.9527   19.7470  -34.0396 H   0  0  0  0  0  0  0  0  0  0  0  0
   -7.1927   20.4610  -31.3616 H   0  0  0  0  0  0  0  0  0  0  0  0
   -6.6058   21.7605  -32.4541 H   0  0  0  0  0  0  0  0  0  0  0  0
   -8.3430   21.3036  -32.4541 H   0  0  0  0  0  0  0  0  0  0  0  0
   -7.7650   16.9041  -33.4657 H   0  0  0  0  0  0  0  0  0  0  0  0
   -6.9886   17.8638  -34.7804 H   0  0  0  0  0  0  0  0  0  0  0  0
   -5.9625   15.5463  -33.3382 H   0  0  0  0  0  0  0  0  0  0  0  0
   -5.2756   16.4126  -34.7684 H   0  0  0  0  0  0  0  0  0  0  0  0
   -4.5680   16.5600  -31.9830 H   0  0  0  0  0  0  0  0  0  0  0  0
   -4.7470   18.0880  -32.7280 H   0  0  0  0  0  0  0  0  0  0  0  0
   -2.5170   16.6189  -32.8198 H   0  0  0  0  0  0  0  0  0  0  0  0
   -3.3568   16.1551  -34.3514 H   0  0  0  0  0  0  0  0  0  0  0  0
   -1.8405   18.5225  -33.8220 H   0  0  0  0  0  0  0  0  0  0  0  0
   -2.7814   18.0960  -35.3047 H   0  0  0  0  0  0  0  0  0  0  0  0
   -4.8983   21.6396  -34.0953 H   0  0  0  0  0  0  0  0  0  0  0  0
   -4.6065   23.5552  -32.5312 H   0  0  0  0  0  0  0  0  0  0  0  0
   -0.2481   25.1890  -29.0944 H   0  0  0  0  0  0  0  0  0  0  0  0
    0.0999   26.9478  -27.3651 H   0  0  0  0  0  0  0  0  0  0  0  0
   -1.4325   27.3834  -23.1662 H   0  0  0  0  0  0  0  0  0  0  0  0
   -0.4176   26.1023  -23.9116 H   0  0  0  0  0  0  0  0  0  0  0  0
    0.1457   27.8080  -23.9116 H   0  0  0  0  0  0  0  0  0  0  0  0
   -3.3901   25.5384  -25.2256 H   0  0  0  0  0  0  0  0  0  0  0  0
   -3.7452   23.7843  -26.9571 H   0  0  0  0  0  0  0  0  0  0  0  0
   -0.9198   21.9140  -28.1836 H   0  0  0  0  0  0  0  0  0  0  0  0
   -2.1574   19.2650  -31.7278 H   0  0  0  0  0  0  0  0  0  0  0  0
  1  2  1  0
  2  3  1  0
  3  4  1  0
  4  5  1  0
  3  6  1  0
  6  7  1  0
  7  8  1  0
  8  9  1  0
  9 10  1  0
 10 11  1  0
 11 12  1  0
 12 13  2  0
 13 14  1  0
 14 15  2  0
 15 16  1  0
 16 17  2  0
 16 18  1  0
 18 19  1  0
 19 20  2  0
 20 21  1  0
 21 22  2  0
 22 23  1  0
 23 24  1  0
 22 25  1  0
 25 26  2  0
 18 27  2  0
 27 28  1  0
 28 29  1  0
 29 30  2  0
 30 12  1  0
 29 15  1  0
 26 19  1  0
  1 31  1  0
  1 32  1  0
  1 33  1  0
  2 34  1  0
  2 35  1  0
  4 36  1  0
  4 37  1  0
  5 38  1  0
  5 39  1  0
  5 40  1  0
  6 41  1  0
  6 42  1  0
  7 43  1  0
  7 44  1  0
  8 45  1  0
  8 46  1  0
  9 47  1  0
  9 48  1  0
 10 49  1  0
 10 50  1  0
 13 51  1  0
 14 52  1  0
 20 53  1  0
 21 54  1  0
 24 55  1  0
 24 56  1  0
 24 57  1  0
 25 58  1  0
 26 59  1  0
 27 60  1  0
 30 61  1  0
M  CHG  1   8   1
M  END
>  <UniqueID>  (8) 
7

>  <SMILES>  (8) 
CCN(CC)CC[NH2+]CCOc1ccc2c(=O)c(-c3ccc(OC)cc3)coc2c1

>  <Energy>  (8) 
69.09564654956573

>  <Genealogy>  (8) 
CCN(CC)CC[NH2+]CCOc1ccc2c(=O)c(-c3ccc(OC)cc3)coc2c1 (protonated)
CCN(CC)CC[NH2+]CCOc1ccc2c(=O)c(-c3ccc(OC)cc3)coc2c1 (3D coordinates assigned)
CCN(CC)CC[NH2+]CCOc1ccc2c(=O)c(-c3ccc(OC)cc3)coc2c1 (optimized conformer: 69.09564654956573 kcal/mol)

>  <smiles>  (8) 
CCN(CC)CCNCCOc1ccc2c(=O)c(-c3ccc(OC)cc3)coc2c1

>  <score_type>  (8) 
oracle

>  <origin>  (8) 
adg

>  <m_score__min__energy>  (8) 
-6.9299999999999997

>  <m_primary>  (8) 
energy

$$$$
8:0
     RDKit          3D

 65 69  0  0  0  0  0  0  0  0999 V2000
   -5.4320   25.6710  -30.5700 C   0  0  0  0  0  0  0  0  0  0  0  0
   -5.7400   24.3880  -29.8060 C   0  0  0  0  0  0  0  0  0  0  0  0
   -4.6580   23.4190  -29.9830 N   0  0  0  0  0  0  0  0  0  0  0  0
   -4.4240   22.6900  -31.0980 C   0  0  0  0  0  0  0  0  0  0  0  0
   -3.2750   21.9180  -30.9420 C   0  0  0  0  0  0  0  0  0  0  0  0
   -2.6950   21.0100  -31.9540 C   0  0  0  0  0  0  0  0  0  0  0  0
   -1.3630   21.1800  -32.4060 C   0  0  0  0  0  0  0  0  0  0  0  0
   -0.8190   20.3150  -33.3670 C   0  0  0  0  0  0  0  0  0  0  0  0
   -1.6400   19.3070  -33.8600 C   0  0  0  0  0  0  0  0  0  0  0  0
   -1.3190   18.3710  -34.7670 N   0  0  0  0  0  0  0  0  0  0  0  0
   -2.3880   17.6060  -34.9410 N   0  0  0  0  0  0  0  0  0  0  0  0
   -3.3610   18.1020  -34.1370 C   0  0  0  0  0  0  0  0  0  0  0  0
   -4.7320   17.4770  -33.9980 C   0  0  0  0  0  0  0  0  0  0  0  0
   -5.7590   18.2360  -34.8700 C   0  0  0  0  0  0  0  0  0  0  0  0
   -6.4230   19.4020  -34.1240 C   0  0  0  0  0  0  0  0  0  0  0  0
   -6.9730   18.9750  -32.8280 N   0  0  0  0  0  0  0  0  0  0  0  0
   -7.8660   19.8570  -32.1230 C   0  0  0  0  0  0  0  0  0  0  0  0
   -8.3950   19.4860  -31.0400 O   0  0  0  0  0  0  0  0  0  0  0  0
   -8.1390   21.1290  -32.6530 O   0  0  0  0  0  0  0  0  0  0  0  0
   -8.0930   22.3750  -31.9420 C   0  0  0  0  0  0  0  0  0  0  0  0
   -7.0560   23.3210  -32.5810 C   0  0  0  0  0  0  0  0  0  0  0  0
   -9.4850   23.0140  -32.0570 C   0  0  0  0  0  0  0  0  0  0  0  0
   -7.7730   22.1440  -30.4530 C   0  0  0  0  0  0  0  0  0  0  0  0
   -6.6340   17.6490  -32.2900 C   0  0  0  0  0  0  0  0  0  0  0  0
   -5.1440   17.3730  -32.5050 C   0  0  0  0  0  0  0  0  0  0  0  0
   -2.9040   19.1670  -33.4410 N   0  0  0  0  0  0  0  0  0  0  0  0
   -3.4750   19.9750  -32.5080 C   0  0  0  0  0  0  0  0  0  0  0  0
   -2.8060   22.1990  -29.6680 C   0  0  0  0  0  0  0  0  0  0  0  0
   -1.7250   21.6880  -28.9440 C   0  0  0  0  0  0  0  0  0  0  0  0
   -1.5130   22.1730  -27.6420 C   0  0  0  0  0  0  0  0  0  0  0  0
   -2.3780   23.1400  -27.0880 C   0  0  0  0  0  0  0  0  0  0  0  0
   -3.4730   23.6220  -27.8260 C   0  0  0  0  0  0  0  0  0  0  0  0
   -3.6660   23.1230  -29.1190 C   0  0  0  0  0  0  0  0  0  0  0  0
   -5.2366   26.4849  -29.8562 H   0  0  0  0  0  0  0  0  0  0  0  0
   -4.5453   25.5172  -31.2025 H   0  0  0  0  0  0  0  0  0  0  0  0
   -6.2919   25.9365  -31.2025 H   0  0  0  0  0  0  0  0  0  0  0  0
   -5.8480   24.6198  -28.7361 H   0  0  0  0  0  0  0  0  0  0  0  0
   -6.6741   23.9560  -30.1943 H   0  0  0  0  0  0  0  0  0  0  0  0
   -5.0524   22.7047  -32.0007 H   0  0  0  0  0  0  0  0  0  0  0  0
   -0.7498   21.9978  -31.9996 H   0  0  0  0  0  0  0  0  0  0  0  0
    0.2174   20.4298  -33.7172 H   0  0  0  0  0  0  0  0  0  0  0  0
   -0.4030   18.2390  -35.2510 H   0  0  0  0  0  0  0  0  0  0  0  0
   -4.7030   16.4443  -34.3757 H   0  0  0  0  0  0  0  0  0  0  0  0
   -5.2426   18.6337  -35.7561 H   0  0  0  0  0  0  0  0  0  0  0  0
   -6.5509   17.5242  -35.1459 H   0  0  0  0  0  0  0  0  0  0  0  0
   -5.6733   20.1882  -33.9516 H   0  0  0  0  0  0  0  0  0  0  0  0
   -7.2521   19.7772  -34.7419 H   0  0  0  0  0  0  0  0  0  0  0  0
   -6.4920   23.8355  -31.7890 H   0  0  0  0  0  0  0  0  0  0  0  0
   -6.3629   22.7376  -33.2049 H   0  0  0  0  0  0  0  0  0  0  0  0
   -7.5735   24.0646  -33.2049 H   0  0  0  0  0  0  0  0  0  0  0  0
   -9.8879   23.1989  -31.0503 H   0  0  0  0  0  0  0  0  0  0  0  0
   -9.4073   23.9666  -32.6015 H   0  0  0  0  0  0  0  0  0  0  0  0
  -10.1567   22.3341  -32.6015 H   0  0  0  0  0  0  0  0  0  0  0  0
   -8.5096   22.6758  -29.8329 H   0  0  0  0  0  0  0  0  0  0  0  0
   -7.8161   21.0674  -30.2314 H   0  0  0  0  0  0  0  0  0  0  0  0
   -6.7647   22.5239  -30.2314 H   0  0  0  0  0  0  0  0  0  0  0  0
   -6.8597   17.6220  -31.2137 H   0  0  0  0  0  0  0  0  0  0  0  0
   -7.2263   16.8816  -32.8099 H   0  0  0  0  0  0  0  0  0  0  0  0
   -4.5620   18.1053  -31.9262 H   0  0  0  0  0  0  0  0  0  0  0  0
   -4.9422   16.3441  -32.1724 H   0  0  0  0  0  0  0  0  0  0  0  0
   -4.5184   19.8247  -32.1939 H   0  0  0  0  0  0  0  0  0  0  0  0
   -1.0597   20.9285  -29.3805 H   0  0  0  0  0  0  0  0  0  0  0  0
   -0.6660   21.7956  -27.0503 H   0  0  0  0  0  0  0  0  0  0  0  0
   -2.1944   23.5193  -26.0719 H   0  0  0  0  0  0  0  0  0  0  0  0
   -4.1581   24.3695  -27.3996 H   0  0  0  0  0  0  0  0  0  0  0  0
  1  2  1  0
  2  3  1  0
  3  4  1  0
  4  5  2  0
  5  6  1  0
  6  7  1  0
  7  8  2  0
  8  9  1  0
  9 10  2  0
 10 11  1  0
 11 12  2  0
 12 13  1  0
 13 14  1  0
 14 15  1  0
 15 16  1  0
 16 17  1  0
 17 18  2  0
 17 19  1  0
 19 20  1  0
 20 21  1  0
 20 22  1  0
 20 23  1  0
 16 24  1  0
 24 25  1  0
 12 26  1  0
 26 27  1  0
  5 28  1  0
 28 29  2  0
 29 30  1  0
 30 31  2  0
 31 32  1  0
 32 33  2  0
 33  3  1  0
 27  6  2  0
 33 28  1  0
 26  9  1  0
 25 13  1  0
  1 34  1  0
  1 35  1  0
  1 36  1  0
  2 37  1  0
  2 38  1  0
  4 39  1  0
  7 40  1  0
  8 41  1  0
 10 42  1  0
 13 43  1  0
 14 44  1  0
 14 45  1  0
 15 46  1  0
 15 47  1  0
 21 48  1  0
 21 49  1  0
 21 50  1  0
 22 51  1  0
 22 52  1  0
 22 53  1  0
 23 54  1  0
 23 55  1  0
 23 56  1  0
 24 57  1  0
 24 58  1  0
 25 59  1  0
 25 60  1  0
 27 61  1  0
 29 62  1  0
 30 63  1  0
 31 64  1  0
 32 65  1  0
M  CHG  1  10   1
M  END
>  <UniqueID>  (9) 
8

>  <SMILES>  (9) 
CCn1cc(-c2ccc3[nH+]nc(C4CCN(C(=O)OC(C)(C)C)CC4)n3c2)c2ccccc21

>  <Energy>  (9) 
143.52876771647064

>  <Genealogy>  (9) 
CCn1cc(-c2ccc3[nH+]nc(C4CCN(C(=O)OC(C)(C)C)CC4)n3c2)c2ccccc21 (protonated)
CCn1cc(-c2ccc3[nH+]nc(C4CCN(C(=O)OC(C)(C)C)CC4)n3c2)c2ccccc21 (3D coordinates assigned)
CCn1cc(-c2ccc3[nH+]nc(C4CCN(C(=O)OC(C)(C)C)CC4)n3c2)c2ccccc21 (nonaromatic ring conformer: 143.52876771647064 kcal/mol)

>  <smiles>  (9) 
CCn1cc(-c2ccc3nnc(C4CCN(C(=O)OC(C)(C)C)CC4)n3c2)c2ccccc21

>  <score_type>  (9) 
oracle

>  <origin>  (9) 
adg

>  <m_score__min__energy>  (9) 
-9.6799999999999997

>  <m_primary>  (9) 
energy

$$$$
9:0
     RDKit          3D

 64 66  0  0  0  0  0  0  0  0999 V2000
   -0.5090   26.8030  -22.9680 C   0  0  0  0  0  0  0  0  0  0  0  0
   -0.1870   26.3720  -24.4070 C   0  0  0  0  0  0  0  0  0  0  0  0
    0.3590   24.9920  -24.4990 N   0  0  0  0  0  0  0  0  0  0  0  0
   -0.6710   23.9240  -24.3270 C   0  0  0  0  0  0  0  0  0  0  0  0
   -0.1520   22.5860  -23.7710 C   0  0  0  0  0  0  0  0  0  0  0  0
    1.2510   24.7530  -25.6660 C   0  0  0  0  0  0  0  0  0  0  0  0
    0.6060   24.0100  -26.8520 C   0  0  0  0  0  0  0  0  0  0  0  0
    0.2760   24.9280  -27.8740 O   0  0  0  0  0  0  0  0  0  0  0  0
   -1.0990   25.2600  -27.8510 C   0  0  0  0  0  0  0  0  0  0  0  0
   -1.8610   24.3780  -28.8440 C   0  0  0  0  0  0  0  0  0  0  0  0
   -2.8740   25.1250  -29.5190 O   0  0  0  0  0  0  0  0  0  0  0  0
   -4.0120   24.5870  -30.1430 C   0  0  0  0  0  0  0  0  0  0  0  0
   -5.1600   25.3840  -30.2220 C   0  0  0  0  0  0  0  0  0  0  0  0
   -6.3400   24.8860  -30.7840 C   0  0  0  0  0  0  0  0  0  0  0  0
   -6.3850   23.5700  -31.2760 C   0  0  0  0  0  0  0  0  0  0  0  0
   -7.5510   23.0120  -31.8260 C   0  0  0  0  0  0  0  0  0  0  0  0
   -8.6190   23.6810  -31.9020 O   0  0  0  0  0  0  0  0  0  0  0  0
   -7.5270   21.6980  -32.2950 C   0  0  0  0  0  0  0  0  0  0  0  0
   -6.3350   20.9600  -32.2110 C   0  0  0  0  0  0  0  0  0  0  0  0
   -6.2490   19.5610  -32.6930 C   0  0  0  0  0  0  0  0  0  0  0  0
   -5.2590   19.2060  -33.6200 C   0  0  0  0  0  0  0  0  0  0  0  0
   -5.1710   17.8990  -34.1030 C   0  0  0  0  0  0  0  0  0  0  0  0
   -6.0860   16.9090  -33.6870 C   0  0  0  0  0  0  0  0  0  0  0  0
   -6.0030   15.5510  -34.1990 N   0  0  0  0  0  0  0  0  0  0  0  0
   -4.6990   14.8940  -34.3730 C   0  0  0  0  0  0  0  0  0  0  0  0
   -7.2190   14.8060  -34.5490 C   0  0  0  0  0  0  0  0  0  0  0  0
   -7.0860   17.2760  -32.7620 C   0  0  0  0  0  0  0  0  0  0  0  0
   -7.1650   18.5830  -32.2720 C   0  0  0  0  0  0  0  0  0  0  0  0
   -5.2490   21.5210  -31.6790 O   0  0  0  0  0  0  0  0  0  0  0  0
   -5.2260   22.7700  -31.2220 C   0  0  0  0  0  0  0  0  0  0  0  0
   -4.0440   23.2850  -30.6790 C   0  0  0  0  0  0  0  0  0  0  0  0
   -0.0044   26.1276  -22.2614 H   0  0  0  0  0  0  0  0  0  0  0  0
   -0.1570   27.8325  -22.8061 H   0  0  0  0  0  0  0  0  0  0  0  0
   -1.5961   26.7574  -22.8061 H   0  0  0  0  0  0  0  0  0  0  0  0
   -1.1110   26.4223  -25.0017 H   0  0  0  0  0  0  0  0  0  0  0  0
    0.5874   27.0549  -24.7863 H   0  0  0  0  0  0  0  0  0  0  0  0
    0.9870   24.8840  -23.6660 H   0  0  0  0  0  0  0  0  0  0  0  0
   -1.4395   24.3024  -23.6369 H   0  0  0  0  0  0  0  0  0  0  0  0
   -1.0501   23.7049  -25.3361 H   0  0  0  0  0  0  0  0  0  0  0  0
   -0.1638   22.6165  -22.6715 H   0  0  0  0  0  0  0  0  0  0  0  0
   -0.7980   21.7678  -24.1221 H   0  0  0  0  0  0  0  0  0  0  0  0
    0.8767   22.4174  -24.1221 H   0  0  0  0  0  0  0  0  0  0  0  0
    1.6033   25.7298  -26.0290 H   0  0  0  0  0  0  0  0  0  0  0  0
    2.0568   24.0988  -25.3016 H   0  0  0  0  0  0  0  0  0  0  0  0
    1.3147   23.2662  -27.2451 H   0  0  0  0  0  0  0  0  0  0  0  0
   -0.3098   23.5067  -26.5085 H   0  0  0  0  0  0  0  0  0  0  0  0
   -1.4971   25.0982  -26.8384 H   0  0  0  0  0  0  0  0  0  0  0  0
   -1.2229   26.3160  -28.1330 H   0  0  0  0  0  0  0  0  0  0  0  0
   -1.1542   23.9782  -29.5860 H   0  0  0  0  0  0  0  0  0  0  0  0
   -2.3410   23.5587  -28.2886 H   0  0  0  0  0  0  0  0  0  0  0  0
   -5.1338   26.4143  -29.8375 H   0  0  0  0  0  0  0  0  0  0  0  0
   -7.2337   25.5248  -30.8410 H   0  0  0  0  0  0  0  0  0  0  0  0
   -8.4320   21.2450  -32.7259 H   0  0  0  0  0  0  0  0  0  0  0  0
   -4.5441   19.9651  -33.9704 H   0  0  0  0  0  0  0  0  0  0  0  0
   -4.3770   17.6375  -34.8180 H   0  0  0  0  0  0  0  0  0  0  0  0
   -4.2643   14.6750  -33.3866 H   0  0  0  0  0  0  0  0  0  0  0  0
   -4.8328   13.9557  -34.9313 H   0  0  0  0  0  0  0  0  0  0  0  0
   -4.0245   15.5599  -34.9313 H   0  0  0  0  0  0  0  0  0  0  0  0
   -7.7334   14.4908  -33.6292 H   0  0  0  0  0  0  0  0  0  0  0  0
   -7.8865   15.4504  -35.1400 H   0  0  0  0  0  0  0  0  0  0  0  0
   -6.9480   13.9187  -35.1400 H   0  0  0  0  0  0  0  0  0  0  0  0
   -7.8131   16.5239  -32.4218 H   0  0  0  0  0  0  0  0  0  0  0  0
   -7.9517   18.8478  -31.5502 H   0  0  0  0  0  0  0  0  0  0  0  0
   -3.1330   22.6685  -30.6706 H   0  0  0  0  0  0  0  0  0  0  0  0
  1  2  1  0
  2  3  1  0
  3  4  1  0
  4  5  1  0
  3  6  1  0
  6  7  1  0
  7  8  1  0
  8  9  1  0
  9 10  1  0
 10 11  1  0
 11 12  1  0
 12 13  2  0
 13 14  1  0
 14 15  2  0
 15 16  1  0
 16 17  2  0
 16 18  1  0
 18 19  2  0
 19 20  1  0
 20 21  2  0
 21 22  1  0
 22 23  2  0
 23 24  1  0
 24 25  1  0
 24 26  1  0
 23 27  1  0
 27 28  2  0
 19 29  1  0
 29 30  1  0
 30 31  2  0
 31 12  1  0
 30 15  1  0
 28 20  1  0
  1 32  1  0
  1 33  1  0
  1 34  1  0
  2 35  1  0
  2 36  1  0
  3 37  1  0
  4 38  1  0
  4 39  1  0
  5 40  1  0
  5 41  1  0
  5 42  1  0
  6 43  1  0
  6 44  1  0
  7 45  1  0
  7 46  1  0
  9 47  1  0
  9 48  1  0
 10 49  1  0
 10 50  1  0
 13 51  1  0
 14 52  1  0
 18 53  1  0
 21 54  1  0
 22 55  1  0
 25 56  1  0
 25 57  1  0
 25 58  1  0
 26 59  1  0
 26 60  1  0
 26 61  1  0
 27 62  1  0
 28 63  1  0
 31 64  1  0
M  CHG  1   3   1
M  END
>  <UniqueID>  (10) 
9

>  <SMILES>  (10) 
CC[NH+](CC)CCOCCOc1ccc2c(=O)cc(-c3ccc(N(C)C)cc3)oc2c1

>  <Energy>  (10) 
81.40111039798069

>  <Genealogy>  (10) 
CC[NH+](CC)CCOCCOc1ccc2c(=O)cc(-c3ccc(N(C)C)cc3)oc2c1 (protonated)
CC[NH+](CC)CCOCCOc1ccc2c(=O)cc(-c3ccc(N(C)C)cc3)oc2c1 (3D coordinates assigned)
CC[NH+](CC)CCOCCOc1ccc2c(=O)cc(-c3ccc(N(C)C)cc3)oc2c1 (optimized conformer: 81.40111039798069 kcal/mol)

>  <smiles>  (10) 
CCN(CC)CCOCCOc1ccc2c(=O)cc(-c3ccc(N(C)C)cc3)oc2c1

>  <score_type>  (10) 
oracle

>  <origin>  (10) 
adg

>  <m_score__min__energy>  (10) 
-9.2300000000000004

>  <m_primary>  (10) 
energy

$$$$
10:0
     RDKit          3D

 34 35  0  0  0  0  0  0  0  0999 V2000
   -3.2590   22.4850  -27.4990 C   0  0  0  0  0  0  0  0  0  0  0  0
   -4.2240   23.5950  -27.0880 C   0  0  0  0  0  0  0  0  0  0  0  0
   -3.6580   24.9200  -27.3920 N   0  0  0  0  0  0  0  0  0  0  0  0
   -2.2280   24.8460  -27.7440 C   0  0  0  0  0  0  0  0  0  0  0  0
   -1.9680   24.7890  -29.2600 C   0  0  0  0  0  0  0  0  0  0  0  0
   -3.1850   24.9180  -30.0020 O   0  0  0  0  0  0  0  0  0  0  0  0
   -3.9860   23.8760  -30.5070 C   0  0  0  0  0  0  0  0  0  0  0  0
   -3.4400   22.6950  -31.0420 C   0  0  0  0  0  0  0  0  0  0  0  0
   -4.2690   21.6910  -31.5400 C   0  0  0  0  0  0  0  0  0  0  0  0
   -5.6600   21.8390  -31.5070 C   0  0  0  0  0  0  0  0  0  0  0  0
   -6.4870   20.8230  -32.0100 C   0  0  0  0  0  0  0  0  0  0  0  0
   -7.8760   20.9660  -31.9790 C   0  0  0  0  0  0  0  0  0  0  0  0
   -8.9950   19.5790  -32.6660 Br  0  0  0  0  0  0  0  0  0  0  0  0
   -8.4470   22.1220  -31.4440 C   0  0  0  0  0  0  0  0  0  0  0  0
   -7.6350   23.1420  -30.9390 C   0  0  0  0  0  0  0  0  0  0  0  0
   -6.2310   23.0170  -30.9630 C   0  0  0  0  0  0  0  0  0  0  0  0
   -5.3820   24.0330  -30.4610 C   0  0  0  0  0  0  0  0  0  0  0  0
   -6.0860   25.6640  -29.7140 Br  0  0  0  0  0  0  0  0  0  0  0  0
   -2.8442   22.0079  -26.5989 H   0  0  0  0  0  0  0  0  0  0  0  0
   -3.7967   21.7345  -28.0971 H   0  0  0  0  0  0  0  0  0  0  0  0
   -2.4411   22.9131  -28.0971 H   0  0  0  0  0  0  0  0  0  0  0  0
   -5.1694   23.4723  -27.6368 H   0  0  0  0  0  0  0  0  0  0  0  0
   -4.3984   23.5267  -26.0041 H   0  0  0  0  0  0  0  0  0  0  0  0
   -3.8040   25.5760  -26.5920 H   0  0  0  0  0  0  0  0  0  0  0  0
   -4.1710   25.3120  -28.2170 H   0  0  0  0  0  0  0  0  0  0  0  0
   -1.7236   25.7352  -27.3380 H   0  0  0  0  0  0  0  0  0  0  0  0
   -1.8384   23.9111  -27.3148 H   0  0  0  0  0  0  0  0  0  0  0  0
   -1.2901   25.6094  -29.5383 H   0  0  0  0  0  0  0  0  0  0  0  0
   -1.5179   23.8140  -29.4984 H   0  0  0  0  0  0  0  0  0  0  0  0
   -2.3483   22.5625  -31.0676 H   0  0  0  0  0  0  0  0  0  0  0  0
   -3.8267   20.7764  -31.9617 H   0  0  0  0  0  0  0  0  0  0  0  0
   -6.0395   19.9103  -32.4304 H   0  0  0  0  0  0  0  0  0  0  0  0
   -9.5413   22.2310  -31.4196 H   0  0  0  0  0  0  0  0  0  0  0  0
   -8.0952   24.0489  -30.5198 H   0  0  0  0  0  0  0  0  0  0  0  0
  1  2  1  0
  2  3  1  0
  3  4  1  0
  4  5  1  0
  5  6  1  0
  6  7  1  0
  7  8  2  0
  8  9  1  0
  9 10  2  0
 10 11  1  0
 11 12  2  0
 12 13  1  0
 12 14  1  0
 14 15  2  0
 15 16  1  0
 16 17  2  0
 17 18  1  0
 17  7  1  0
 16 10  1  0
  1 19  1  0
  1 20  1  0
  1 21  1  0
  2 22  1  0
  2 23  1  0
  3 24  1  0
  3 25  1  0
  4 26  1  0
  4 27  1  0
  5 28  1  0
  5 29  1  0
  8 30  1  0
  9 31  1  0
 11 32  1  0
 14 33  1  0
 15 34  1  0
M  CHG  1   3   1
M  END
>  <UniqueID>  (11) 
10

>  <SMILES>  (11) 
CC[NH2+]CCOc1ccc2cc(Br)ccc2c1Br

>  <Energy>  (11) 
38.143258407400666

>  <Genealogy>  (11) 
CC[NH2+]CCOc1ccc2cc(Br)ccc2c1Br (protonated)
CC[NH2+]CCOc1ccc2cc(Br)ccc2c1Br (3D coordinates assigned)
CC[NH2+]CCOc1ccc2cc(Br)ccc2c1Br (optimized conformer: 38.143258407400666 kcal/mol)

>  <smiles>  (11) 
CCNCCOc1ccc2cc(Br)ccc2c1Br

>  <score_type>  (11) 
oracle

>  <origin>  (11) 
adg

>  <m_score__min__energy>  (11) 
-7.2300000000000004

>  <m_primary>  (11) 
energy

$$$$
11:0
     RDKit          3D

 45 47  0  0  0  0  0  0  0  0999 V2000
   -6.1160   25.5970  -30.0580 C   0  0  0  0  0  0  0  0  0  0  0  0
   -4.9040   25.0920  -30.8440 C   0  0  0  0  0  0  0  0  0  0  0  0
   -4.6660   23.6330  -30.7310 N   0  0  0  0  0  0  0  0  0  0  0  0
   -5.2560   23.0010  -29.5250 C   0  0  0  0  0  0  0  0  0  0  0  0
   -4.3030   22.9040  -28.3220 C   0  0  0  0  0  0  0  0  0  0  0  0
   -3.3090   23.1580  -31.0890 C   0  0  0  0  0  0  0  0  0  0  0  0
   -3.3000   22.2160  -32.3130 C   0  0  0  0  0  0  0  0  0  0  0  0
   -4.5260   22.3010  -33.1300 N   0  0  0  0  0  0  0  0  0  0  0  0
   -5.3730   21.1380  -32.9800 C   0  0  0  0  0  0  0  0  0  0  0  0
   -4.8730   19.8540  -33.3400 C   0  0  0  0  0  0  0  0  0  0  0  0
   -5.6450   18.6910  -33.1520 C   0  0  0  0  0  0  0  0  0  0  0  0
   -6.9240   18.8190  -32.6160 C   0  0  0  0  0  0  0  0  0  0  0  0
   -7.4110   20.0470  -32.3000 C   0  0  0  0  0  0  0  0  0  0  0  0
   -8.6760   19.9840  -31.8080 C   0  0  0  0  0  0  0  0  0  0  0  0
   -9.3450   21.1540  -31.4400 C   0  0  0  0  0  0  0  0  0  0  0  0
   -8.6760   22.3840  -31.5970 C   0  0  0  0  0  0  0  0  0  0  0  0
   -7.3600   22.4310  -32.1100 C   0  0  0  0  0  0  0  0  0  0  0  0
   -6.6970   21.2330  -32.4670 C   0  0  0  0  0  0  0  0  0  0  0  0
   -9.1490   18.5650  -31.7610 C   0  0  0  0  0  0  0  0  0  0  0  0
   -7.9400   17.7620  -32.3190 C   0  0  0  0  0  0  0  0  0  0  0  0
   -5.9147   25.5131  -28.9798 H   0  0  0  0  0  0  0  0  0  0  0  0
   -6.3068   26.6495  -30.3146 H   0  0  0  0  0  0  0  0  0  0  0  0
   -6.9977   24.9914  -30.3146 H   0  0  0  0  0  0  0  0  0  0  0  0
   -5.0572   25.3345  -31.9060 H   0  0  0  0  0  0  0  0  0  0  0  0
   -4.0216   25.5885  -30.4140 H   0  0  0  0  0  0  0  0  0  0  0  0
   -6.1324   23.5925  -29.2216 H   0  0  0  0  0  0  0  0  0  0  0  0
   -5.5090   21.9681  -29.8064 H   0  0  0  0  0  0  0  0  0  0  0  0
   -4.8829   22.9630  -27.3891 H   0  0  0  0  0  0  0  0  0  0  0  0
   -3.7631   21.9463  -28.3582 H   0  0  0  0  0  0  0  0  0  0  0  0
   -3.5813   23.7333  -28.3582 H   0  0  0  0  0  0  0  0  0  0  0  0
   -2.6806   24.0320  -31.3153 H   0  0  0  0  0  0  0  0  0  0  0  0
   -2.9252   22.5855  -30.2317 H   0  0  0  0  0  0  0  0  0  0  0  0
   -2.4401   22.4774  -32.9472 H   0  0  0  0  0  0  0  0  0  0  0  0
   -3.2376   21.1871  -31.9291 H   0  0  0  0  0  0  0  0  0  0  0  0
   -4.2660   22.4410  -34.1350 H   0  0  0  0  0  0  0  0  0  0  0  0
   -5.0660   23.1520  -32.8500 H   0  0  0  0  0  0  0  0  0  0  0  0
   -3.8653   19.7690  -33.7729 H   0  0  0  0  0  0  0  0  0  0  0  0
   -5.2460   17.7023  -33.4229 H   0  0  0  0  0  0  0  0  0  0  0  0
  -10.3681   21.1159  -31.0379 H   0  0  0  0  0  0  0  0  0  0  0  0
   -9.1840   23.3187  -31.3170 H   0  0  0  0  0  0  0  0  0  0  0  0
   -6.8512   23.3986  -32.2317 H   0  0  0  0  0  0  0  0  0  0  0  0
   -9.3804   18.2614  -30.7294 H   0  0  0  0  0  0  0  0  0  0  0  0
  -10.0736   18.4019  -32.3342 H   0  0  0  0  0  0  0  0  0  0  0  0
   -7.5605   17.0517  -31.5696 H   0  0  0  0  0  0  0  0  0  0  0  0
   -8.1984   17.1571  -33.2007 H   0  0  0  0  0  0  0  0  0  0  0  0
  1  2  1  0
  2  3  1  0
  3  4  1  0
  4  5  1  0
  3  6  1  0
  6  7  1  0
  7  8  1  0
  8  9  1  0
  9 10  2  0
 10 11  1  0
 11 12  2  0
 12 13  1  0
 13 14  2  0
 14 15  1  0
 15 16  2  0
 16 17  1  0
 17 18  2  0
 14 19  1  0
 19 20  1  0
 18  9  1  0
 20 12  1  0
 18 13  1  0
  1 21  1  0
  1 22  1  0
  1 23  1  0
  2 24  1  0
  2 25  1  0
  4 26  1  0
  4 27  1  0
  5 28  1  0
  5 29  1  0
  5 30  1  0
  6 31  1  0
  6 32  1  0
  7 33  1  0
  7 34  1  0
  8 35  1  0
  8 36  1  0
 10 37  1  0
 11 38  1  0
 15 39  1  0
 16 40  1  0
 17 41  1  0
 19 42  1  0
 19 43  1  0
 20 44  1  0
 20 45  1  0
M  CHG  1   8   1
M  END
>  <UniqueID>  (12) 
11

>  <SMILES>  (12) 
CCN(CC)CC[NH2+]c1ccc2c3c(cccc13)CC2

>  <Energy>  (12) 
73.76484449819199

>  <Genealogy>  (12) 
CCN(CC)CC[NH2+]c1ccc2c3c(cccc13)CC2 (protonated)
CCN(CC)CC[NH2+]c1ccc2c3c(cccc13)CC2 (3D coordinates assigned)
CCN(CC)CC[NH2+]c1ccc2c3c(cccc13)CC2 (nonaromatic ring conformer: 73.76484449819199 kcal/mol)

>  <smiles>  (12) 
CCN(CC)CCNc1ccc2c3c(cccc13)CC2

>  <score_type>  (12) 
oracle

>  <origin>  (12) 
adg

>  <m_score__min__energy>  (12) 
-8.1600000000000001

>  <m_primary>  (12) 
energy

$$$$
12:0
     RDKit          3D

 79 82  0  0  0  0  0  0  0  0999 V2000
   -6.5000   25.2950  -30.0110 C   0  0  0  0  0  0  0  0  0  0  0  0
   -5.1900   25.2820  -30.7980 C   0  0  0  0  0  0  0  0  0  0  0  0
   -4.2650   24.2030  -30.3880 N   0  0  0  0  0  0  0  0  0  0  0  0
   -3.3460   24.5180  -29.2650 C   0  0  0  0  0  0  0  0  0  0  0  0
   -1.9690   23.8450  -29.3570 C   0  0  0  0  0  0  0  0  0  0  0  0
   -4.8300   22.8360  -30.4450 C   0  0  0  0  0  0  0  0  0  0  0  0
   -3.7780   21.8260  -30.9390 C   0  0  0  0  0  0  0  0  0  0  0  0
   -3.4160   22.0150  -32.4320 C   0  0  0  0  0  0  0  0  0  0  0  0
   -4.5470   21.7560  -33.3490 N   0  0  0  0  0  0  0  0  0  0  0  0
   -5.0850   20.4070  -33.2070 C   0  0  0  0  0  0  0  0  0  0  0  0
   -6.4330   20.1780  -32.7870 C   0  0  0  0  0  0  0  0  0  0  0  0
   -7.2750   21.2130  -32.2970 C   0  0  0  0  0  0  0  0  0  0  0  0
   -8.5680   20.9490  -31.8570 C   0  0  0  0  0  0  0  0  0  0  0  0
   -9.0640   19.6580  -31.8810 C   0  0  0  0  0  0  0  0  0  0  0  0
   -8.2780   18.6210  -32.3720 C   0  0  0  0  0  0  0  0  0  0  0  0
   -6.9660   18.8580  -32.8580 C   0  0  0  0  0  0  0  0  0  0  0  0
   -6.2150   17.8320  -33.3850 N   0  0  0  0  0  0  0  0  0  0  0  0
   -6.8740   16.5730  -33.8050 C   0  0  0  0  0  0  0  0  0  0  0  0
   -4.8580   17.9860  -33.5640 C   0  0  0  0  0  0  0  0  0  0  0  0
   -4.0200   16.8650  -33.7880 C   0  0  0  0  0  0  0  0  0  0  0  0
   -2.6660   17.0200  -34.1150 C   0  0  0  0  0  0  0  0  0  0  0  0
   -1.8240   15.9390  -34.4230 O   0  0  0  0  0  0  0  0  0  0  0  0
   -0.7880   15.4150  -33.5960 C   0  0  0  0  0  0  0  0  0  0  0  0
   -1.3210   14.7000  -32.3370 C   0  0  0  0  0  0  0  0  0  0  0  0
   -2.0240   13.3760  -32.5020 N   0  0  0  0  0  0  0  0  0  0  0  0
   -0.9150   12.3850  -32.6480 C   0  0  0  0  0  0  0  0  0  0  0  0
   -2.7810   12.9720  -31.2560 C   0  0  0  0  0  0  0  0  0  0  0  0
   -4.2890   13.2760  -31.2330 C   0  0  0  0  0  0  0  0  0  0  0  0
   -4.9660   12.9060  -32.5400 C   0  0  0  0  0  0  0  0  0  0  0  0
   -4.3050   13.6840  -33.6610 C   0  0  0  0  0  0  0  0  0  0  0  0
   -2.8220   13.3000  -33.7760 C   0  0  0  0  0  0  0  0  0  0  0  0
   -2.1210   18.2960  -34.1430 C   0  0  0  0  0  0  0  0  0  0  0  0
   -2.9000   19.4070  -33.8400 C   0  0  0  0  0  0  0  0  0  0  0  0
   -4.2770   19.2800  -33.5330 C   0  0  0  0  0  0  0  0  0  0  0  0
   -6.2803   25.2928  -28.9332 H   0  0  0  0  0  0  0  0  0  0  0  0
   -7.0724   26.1989  -30.2667 H   0  0  0  0  0  0  0  0  0  0  0  0
   -7.0902   24.4027  -30.2667 H   0  0  0  0  0  0  0  0  0  0  0  0
   -5.4260   25.1515  -31.8644 H   0  0  0  0  0  0  0  0  0  0  0  0
   -4.6824   26.2368  -30.5963 H   0  0  0  0  0  0  0  0  0  0  0  0
   -3.1945   25.6072  -29.2411 H   0  0  0  0  0  0  0  0  0  0  0  0
   -3.8229   24.1282  -28.3536 H   0  0  0  0  0  0  0  0  0  0  0  0
   -1.5843   23.6570  -28.3437 H   0  0  0  0  0  0  0  0  0  0  0  0
   -2.0625   22.8910  -29.8966 H   0  0  0  0  0  0  0  0  0  0  0  0
   -1.2737   24.5049  -29.8966 H   0  0  0  0  0  0  0  0  0  0  0  0
   -5.1659   22.5431  -29.4393 H   0  0  0  0  0  0  0  0  0  0  0  0
   -5.6756   22.8346  -31.1485 H   0  0  0  0  0  0  0  0  0  0  0  0
   -2.8647   21.9483  -30.3382 H   0  0  0  0  0  0  0  0  0  0  0  0
   -4.2089   20.8200  -30.8286 H   0  0  0  0  0  0  0  0  0  0  0  0
   -3.0776   23.0511  -32.5801 H   0  0  0  0  0  0  0  0  0  0  0  0
   -2.6309   21.2824  -32.6705 H   0  0  0  0  0  0  0  0  0  0  0  0
   -5.3020   22.4540  -33.1720 H   0  0  0  0  0  0  0  0  0  0  0  0
   -4.2490   22.0020  -34.3130 H   0  0  0  0  0  0  0  0  0  0  0  0
   -6.8960   22.2451  -32.2650 H   0  0  0  0  0  0  0  0  0  0  0  0
   -9.1991   21.7710  -31.4882 H   0  0  0  0  0  0  0  0  0  0  0  0
  -10.0795   19.4516  -31.5120 H   0  0  0  0  0  0  0  0  0  0  0  0
   -8.6810   17.5976  -32.3838 H   0  0  0  0  0  0  0  0  0  0  0  0
   -7.1734   16.0010  -32.9144 H   0  0  0  0  0  0  0  0  0  0  0  0
   -7.7646   16.8082  -34.4062 H   0  0  0  0  0  0  0  0  0  0  0  0
   -6.1732   15.9752  -34.4062 H   0  0  0  0  0  0  0  0  0  0  0  0
   -4.4411   15.8523  -33.7034 H   0  0  0  0  0  0  0  0  0  0  0  0
   -0.2005   14.6953  -34.1849 H   0  0  0  0  0  0  0  0  0  0  0  0
   -0.1781   16.2652  -33.2566 H   0  0  0  0  0  0  0  0  0  0  0  0
   -0.4613   14.5300  -31.6722 H   0  0  0  0  0  0  0  0  0  0  0  0
   -2.1033   15.3735  -31.9570 H   0  0  0  0  0  0  0  0  0  0  0  0
   -0.5673   12.0743  -31.6517 H   0  0  0  0  0  0  0  0  0  0  0  0
   -1.2791   11.5059  -33.1999 H   0  0  0  0  0  0  0  0  0  0  0  0
   -0.0822   12.8453  -33.1999 H   0  0  0  0  0  0  0  0  0  0  0  0
   -2.6582   11.8863  -31.1290 H   0  0  0  0  0  0  0  0  0  0  0  0
   -2.3515   13.5815  -30.4472 H   0  0  0  0  0  0  0  0  0  0  0  0
   -4.7541   12.7023  -30.4178 H   0  0  0  0  0  0  0  0  0  0  0  0
   -4.4141   14.3583  -31.0812 H   0  0  0  0  0  0  0  0  0  0  0  0
   -4.8562   11.8268  -32.7223 H   0  0  0  0  0  0  0  0  0  0  0  0
   -6.0374   13.1506  -32.4921 H   0  0  0  0  0  0  0  0  0  0  0  0
   -4.8133   13.4559  -34.6095 H   0  0  0  0  0  0  0  0  0  0  0  0
   -4.3796   14.7594  -33.4419 H   0  0  0  0  0  0  0  0  0  0  0  0
   -2.7692   12.2654  -34.1459 H   0  0  0  0  0  0  0  0  0  0  0  0
   -2.3735   14.0414  -34.4536 H   0  0  0  0  0  0  0  0  0  0  0  0
   -1.0617   18.4298  -34.4077 H   0  0  0  0  0  0  0  0  0  0  0  0
   -2.4376   20.4051  -33.8386 H   0  0  0  0  0  0  0  0  0  0  0  0
  1  2  1  0
  2  3  1  0
  3  4  1  0
  4  5  1  0
  3  6  1  0
  6  7  1  0
  7  8  1  0
  8  9  1  0
  9 10  1  0
 10 11  2  0
 11 12  1  0
 12 13  2  0
 13 14  1  0
 14 15  2  0
 15 16  1  0
 16 17  2  0
 17 18  1  0
 17 19  1  0
 19 20  2  0
 20 21  1  0
 21 22  1  0
 22 23  1  0
 23 24  1  0
 24 25  1  0
 25 26  1  0
 25 27  1  0
 27 28  1  0
 28 29  1  0
 29 30  1  0
 30 31  1  0
 21 32  2  0
 32 33  1  0
 33 34  2  0
 34 10  1  0
 16 11  1  0
 34 19  1  0
 31 25  1  0
  1 35  1  0
  1 36  1  0
  1 37  1  0
  2 38  1  0
  2 39  1  0
  4 40  1  0
  4 41  1  0
  5 42  1  0
  5 43  1  0
  5 44  1  0
  6 45  1  0
  6 46  1  0
  7 47  1  0
  7 48  1  0
  8 49  1  0
  8 50  1  0
  9 51  1  0
  9 52  1  0
 12 53  1  0
 13 54  1  0
 14 55  1  0
 15 56  1  0
 18 57  1  0
 18 58  1  0
 18 59  1  0
 20 60  1  0
 23 61  1  0
 23 62  1  0
 24 63  1  0
 24 64  1  0
 26 65  1  0
 26 66  1  0
 26 67  1  0
 27 68  1  0
 27 69  1  0
 28 70  1  0
 28 71  1  0
 29 72  1  0
 29 73  1  0
 30 74  1  0
 30 75  1  0
 31 76  1  0
 31 77  1  0
 32 78  1  0
 33 79  1  0
M  CHG  3   9   1  17   1  25   1
M  END
>  <UniqueID>  (13) 
12

>  <SMILES>  (13) 
CCN(CC)CCC[NH2+]c1c2ccccc2[n+](C)c2cc(OCC[N+]3(C)CCCCC3)ccc12

>  <Energy>  (13) 
134.35702668190675

>  <Genealogy>  (13) 
CCN(CC)CCC[NH2+]c1c2ccccc2[n+](C)c2cc(OCC[N+]3(C)CCCCC3)ccc12 (protonated)
CCN(CC)CCC[NH2+]c1c2ccccc2[n+](C)c2cc(OCC[N+]3(C)CCCCC3)ccc12 (3D coordinates assigned)
CCN(CC)CCC[NH2+]c1c2ccccc2[n+](C)c2cc(OCC[N+]3(C)CCCCC3)ccc12 (nonaromatic ring conformer: 134.35702668190675 kcal/mol)

>  <smiles>  (13) 
CCN(CC)CCCNc1c2ccccc2[n+](C)c2cc(OCC[N+]3(C)CCCCC3)ccc12

>  <score_type>  (13) 
oracle

>  <origin>  (13) 
adg

>  <m_score__min__energy>  (13) 
-7.9100000000000001

>  <m_primary>  (13) 
energy

$$$$
13:0
     RDKit          3D

 79 83  0  0  0  0  0  0  0  0999 V2000
   -1.6040   17.5950  -33.0800 C   0  0  0  0  0  0  0  0  0  0  0  0
   -0.6950   18.8130  -33.2640 C   0  0  0  0  0  0  0  0  0  0  0  0
   -0.9710   19.8930  -32.2850 N   0  0  0  0  0  0  0  0  0  0  0  0
    0.0490   20.0240  -31.2110 C   0  0  0  0  0  0  0  0  0  0  0  0
   -0.0290   18.9560  -30.1080 C   0  0  0  0  0  0  0  0  0  0  0  0
   -1.2510   21.1730  -32.9790 C   0  0  0  0  0  0  0  0  0  0  0  0
   -2.7380   21.5650  -32.8990 C   0  0  0  0  0  0  0  0  0  0  0  0
   -3.5330   20.6560  -32.0630 N   0  0  0  0  0  0  0  0  0  0  0  0
   -4.9630   20.5360  -32.1410 C   0  0  0  0  0  0  0  0  0  0  0  0
   -5.5980   19.3840  -32.6640 C   0  0  0  0  0  0  0  0  0  0  0  0
   -4.8490   18.3470  -33.2520 C   0  0  0  0  0  0  0  0  0  0  0  0
   -5.4690   17.1840  -33.7000 C   0  0  0  0  0  0  0  0  0  0  0  0
   -6.8460   17.0350  -33.5810 C   0  0  0  0  0  0  0  0  0  0  0  0
   -7.6220   18.0650  -33.0520 C   0  0  0  0  0  0  0  0  0  0  0  0
   -7.0300   19.2780  -32.6200 C   0  0  0  0  0  0  0  0  0  0  0  0
   -7.8000   20.3400  -32.1670 N   0  0  0  0  0  0  0  0  0  0  0  0
   -9.2740   20.2900  -32.2090 C   0  0  0  0  0  0  0  0  0  0  0  0
   -7.1580   21.4460  -31.6730 C   0  0  0  0  0  0  0  0  0  0  0  0
   -7.7420   22.5310  -31.1060 N   0  0  0  0  0  0  0  0  0  0  0  0
   -6.7210   23.3320  -30.7450 C   0  0  0  0  0  0  0  0  0  0  0  0
   -6.8190   24.5540  -30.0850 C   0  0  0  0  0  0  0  0  0  0  0  0
   -5.6300   25.2200  -29.7400 C   0  0  0  0  0  0  0  0  0  0  0  0
   -4.3660   24.6510  -30.0510 C   0  0  0  0  0  0  0  0  0  0  0  0
   -3.1510   25.2710  -29.7170 O   0  0  0  0  0  0  0  0  0  0  0  0
   -2.3170   24.9270  -28.6120 C   0  0  0  0  0  0  0  0  0  0  0  0
   -2.7000   23.5680  -27.9710 C   0  0  0  0  0  0  0  0  0  0  0  0
   -1.8400   22.3880  -28.3260 N   0  0  0  0  0  0  0  0  0  0  0  0
   -1.0010   22.7140  -29.5110 C   0  0  0  0  0  0  0  0  0  0  0  0
   -2.7500   21.2490  -28.7100 C   0  0  0  0  0  0  0  0  0  0  0  0
   -3.1230   20.3510  -27.5190 C   0  0  0  0  0  0  0  0  0  0  0  0
   -1.8710   19.6770  -26.9340 C   0  0  0  0  0  0  0  0  0  0  0  0
   -0.6040   20.5250  -27.1290 C   0  0  0  0  0  0  0  0  0  0  0  0
   -0.9510   22.0220  -27.1710 C   0  0  0  0  0  0  0  0  0  0  0  0
   -4.3050   23.4130  -30.7190 C   0  0  0  0  0  0  0  0  0  0  0  0
   -5.5020   22.7770  -31.0600 C   0  0  0  0  0  0  0  0  0  0  0  0
   -5.7810   21.5580  -31.6620 C   0  0  0  0  0  0  0  0  0  0  0  0
   -1.7472   17.4032  -32.0064 H   0  0  0  0  0  0  0  0  0  0  0  0
   -2.5788   17.7905  -33.5507 H   0  0  0  0  0  0  0  0  0  0  0  0
   -1.1392   16.7161  -33.5507 H   0  0  0  0  0  0  0  0  0  0  0  0
    0.3504   18.4916  -33.1465 H   0  0  0  0  0  0  0  0  0  0  0  0
   -0.8880   19.2201  -34.2675 H   0  0  0  0  0  0  0  0  0  0  0  0
    1.0440   19.9625  -31.6759 H   0  0  0  0  0  0  0  0  0  0  0  0
   -0.1441   20.9888  -30.7193 H   0  0  0  0  0  0  0  0  0  0  0  0
    0.0066   19.4434  -29.1225 H   0  0  0  0  0  0  0  0  0  0  0  0
   -0.9705   18.3956  -30.2061 H   0  0  0  0  0  0  0  0  0  0  0  0
    0.8211   18.2648  -30.2061 H   0  0  0  0  0  0  0  0  0  0  0  0
   -0.6497   21.9675  -32.5130 H   0  0  0  0  0  0  0  0  0  0  0  0
   -0.9921   21.0453  -34.0404 H   0  0  0  0  0  0  0  0  0  0  0  0
   -2.8099   22.5790  -32.4787 H   0  0  0  0  0  0  0  0  0  0  0  0
   -3.1453   21.5102  -33.9193 H   0  0  0  0  0  0  0  0  0  0  0  0
   -3.0210   19.9700  -31.4660 H   0  0  0  0  0  0  0  0  0  0  0  0
   -3.7598   18.4572  -33.3588 H   0  0  0  0  0  0  0  0  0  0  0  0
   -4.8674   16.3803  -34.1496 H   0  0  0  0  0  0  0  0  0  0  0  0
   -7.3255   16.0998  -33.9058 H   0  0  0  0  0  0  0  0  0  0  0  0
   -8.7110   17.9343  -32.9685 H   0  0  0  0  0  0  0  0  0  0  0  0
   -9.6698   20.2766  -31.1828 H   0  0  0  0  0  0  0  0  0  0  0  0
   -9.6560   21.1757  -32.7378 H   0  0  0  0  0  0  0  0  0  0  0  0
   -9.5951   19.3804  -32.7378 H   0  0  0  0  0  0  0  0  0  0  0  0
   -8.7520   22.7200  -30.9230 H   0  0  0  0  0  0  0  0  0  0  0  0
   -7.8003   24.9866  -29.8401 H   0  0  0  0  0  0  0  0  0  0  0  0
   -5.6788   26.1905  -29.2246 H   0  0  0  0  0  0  0  0  0  0  0  0
   -1.2757   24.8696  -28.9619 H   0  0  0  0  0  0  0  0  0  0  0  0
   -2.4469   25.7039  -27.8442 H   0  0  0  0  0  0  0  0  0  0  0  0
   -2.6613   23.6920  -26.8787 H   0  0  0  0  0  0  0  0  0  0  0  0
   -3.6965   23.3302  -28.3715 H   0  0  0  0  0  0  0  0  0  0  0  0
   -0.0245   23.0934  -29.1757 H   0  0  0  0  0  0  0  0  0  0  0  0
   -0.8539   21.8076  -30.1166 H   0  0  0  0  0  0  0  0  0  0  0  0
   -1.5045   23.4819  -30.1166 H   0  0  0  0  0  0  0  0  0  0  0  0
   -3.6737   21.6668  -29.1369 H   0  0  0  0  0  0  0  0  0  0  0  0
   -2.2081   20.6249  -29.4359 H   0  0  0  0  0  0  0  0  0  0  0  0
   -3.6005   20.9638  -26.7402 H   0  0  0  0  0  0  0  0  0  0  0  0
   -3.8149   19.5702  -27.8677 H   0  0  0  0  0  0  0  0  0  0  0  0
   -2.0266   19.5169  -25.8569 H   0  0  0  0  0  0  0  0  0  0  0  0
   -1.7229   18.7255  -27.4656 H   0  0  0  0  0  0  0  0  0  0  0  0
    0.0872   20.3382  -26.2939 H   0  0  0  0  0  0  0  0  0  0  0  0
   -0.1352   20.2445  -28.0837 H   0  0  0  0  0  0  0  0  0  0  0  0
   -1.4645   22.2889  -26.2355 H   0  0  0  0  0  0  0  0  0  0  0  0
   -0.0078   22.5744  -27.2947 H   0  0  0  0  0  0  0  0  0  0  0  0
   -3.3357   22.9560  -30.9673 H   0  0  0  0  0  0  0  0  0  0  0  0
  1  2  1  0
  2  3  1  0
  3  4  1  0
  4  5  1  0
  3  6  1  0
  6  7  1  0
  7  8  1  0
  8  9  1  0
  9 10  2  0
 10 11  1  0
 11 12  2  0
 12 13  1  0
 13 14  2  0
 14 15  1  0
 15 16  2  0
 16 17  1  0
 16 18  1  0
 18 19  1  0
 19 20  1  0
 20 21  2  0
 21 22  1  0
 22 23  2  0
 23 24  1  0
 24 25  1  0
 25 26  1  0
 26 27  1  0
 27 28  1  0
 27 29  1  0
 29 30  1  0
 30 31  1  0
 31 32  1  0
 32 33  1  0
 23 34  1  0
 34 35  2  0
 35 36  1  0
 36  9  1  0
 15 10  1  0
 36 18  2  0
 35 20  1  0
 33 27  1  0
  1 37  1  0
  1 38  1  0
  1 39  1  0
  2 40  1  0
  2 41  1  0
  4 42  1  0
  4 43  1  0
  5 44  1  0
  5 45  1  0
  5 46  1  0
  6 47  1  0
  6 48  1  0
  7 49  1  0
  7 50  1  0
  8 51  1  0
 11 52  1  0
 12 53  1  0
 13 54  1  0
 14 55  1  0
 17 56  1  0
 17 57  1  0
 17 58  1  0
 19 59  1  0
 21 60  1  0
 22 61  1  0
 25 62  1  0
 25 63  1  0
 26 64  1  0
 26 65  1  0
 28 66  1  0
 28 67  1  0
 28 68  1  0
 29 69  1  0
 29 70  1  0
 30 71  1  0
 30 72  1  0
 31 73  1  0
 31 74  1  0
 32 75  1  0
 32 76  1  0
 33 77  1  0
 33 78  1  0
 34 79  1  0
M  CHG  2  16   1  27   1
M  END
>  <UniqueID>  (14) 
13

>  <SMILES>  (14) 
CCN(CC)CCNc1c2ccccc2[n+](C)c2[nH]c3ccc(OCC[N+]4(C)CCCCC4)cc3c12

>  <Energy>  (14) 
155.63814002239147

>  <Genealogy>  (14) 
CCN(CC)CCNc1c2ccccc2[n+](C)c2[nH]c3ccc(OCC[N+]4(C)CCCCC4)cc3c12 (3D coordinates assigned)
CCN(CC)CCNc1c2ccccc2[n+](C)c2[nH]c3ccc(OCC[N+]4(C)CCCCC4)cc3c12 (nonaromatic ring conformer: 155.63814002239147 kcal/mol)

>  <smiles>  (14) 
CCN(CC)CCNc1c2ccccc2[n+](C)c2[nH]c3ccc(OCC[N+]4(C)CCCCC4)cc3c12

>  <score_type>  (14) 
oracle

>  <origin>  (14) 
adg

>  <m_score__min__energy>  (14) 
-9.6699999999999999

>  <m_primary>  (14) 
energy

$$$$
14:0
     RDKit          3D

 59 62  0  0  0  0  0  0  0  0999 V2000
    0.0780   20.7210  -34.2940 C   0  0  0  0  0  0  0  0  0  0  0  0
   -0.0960   19.3360  -34.5760 O   0  0  0  0  0  0  0  0  0  0  0  0
   -1.1950   18.5750  -34.1530 C   0  0  0  0  0  0  0  0  0  0  0  0
   -1.0430   17.3340  -33.4700 C   0  0  0  0  0  0  0  0  0  0  0  0
   -2.1700   16.5980  -33.0610 C   0  0  0  0  0  0  0  0  0  0  0  0
   -3.4310   17.1220  -33.3470 C   0  0  0  0  0  0  0  0  0  0  0  0
   -3.5780   18.3110  -33.9980 C   0  0  0  0  0  0  0  0  0  0  0  0
   -2.4880   19.0690  -34.4190 C   0  0  0  0  0  0  0  0  0  0  0  0
   -4.8820   18.5930  -34.1330 N   0  0  0  0  0  0  0  0  0  0  0  0
   -5.5210   17.5540  -33.5370 C   0  0  0  0  0  0  0  0  0  0  0  0
   -7.0320   17.4860  -33.4440 C   0  0  0  0  0  0  0  0  0  0  0  0
   -7.5840   18.1020  -32.2140 N   0  0  0  0  0  0  0  0  0  0  0  0
   -8.9110   18.7150  -32.4230 C   0  0  0  0  0  0  0  0  0  0  0  0
   -9.1890   19.9170  -31.4960 C   0  0  0  0  0  0  0  0  0  0  0  0
   -8.6470   21.2740  -31.9980 C   0  0  0  0  0  0  0  0  0  0  0  0
   -7.1730   21.4200  -31.9050 N   0  0  0  0  0  0  0  0  0  0  0  0
   -6.6030   22.7110  -32.3530 C   0  0  0  0  0  0  0  0  0  0  0  0
   -5.7250   23.3340  -31.2860 C   0  0  0  0  0  0  0  0  0  0  0  0
   -6.3100   24.2670  -30.4080 C   0  0  0  0  0  0  0  0  0  0  0  0
   -5.5630   24.8560  -29.3900 C   0  0  0  0  0  0  0  0  0  0  0  0
   -4.2190   24.5300  -29.2320 C   0  0  0  0  0  0  0  0  0  0  0  0
   -3.6150   23.6130  -30.0920 C   0  0  0  0  0  0  0  0  0  0  0  0
   -4.3500   22.9940  -31.1260 C   0  0  0  0  0  0  0  0  0  0  0  0
   -3.6450   22.0300  -32.0640 C   0  0  0  0  0  0  0  0  0  0  0  0
   -2.2870   22.2920  -32.0680 F   0  0  0  0  0  0  0  0  0  0  0  0
   -3.8250   20.7120  -31.6780 F   0  0  0  0  0  0  0  0  0  0  0  0
   -4.1400   22.1590  -33.3480 F   0  0  0  0  0  0  0  0  0  0  0  0
   -6.4070   20.2440  -32.3640 C   0  0  0  0  0  0  0  0  0  0  0  0
   -6.6350   18.9890  -31.5150 C   0  0  0  0  0  0  0  0  0  0  0  0
   -4.6480   16.6150  -33.0660 N   0  0  0  0  0  0  0  0  0  0  0  0
   -4.9190   15.3540  -32.3720 C   0  0  0  0  0  0  0  0  0  0  0  0
    0.0972   20.8738  -33.2048 H   0  0  0  0  0  0  0  0  0  0  0  0
    1.0267   21.0675  -34.7297 H   0  0  0  0  0  0  0  0  0  0  0  0
   -0.7555   21.2914  -34.7297 H   0  0  0  0  0  0  0  0  0  0  0  0
   -0.0347   16.9476  -33.2604 H   0  0  0  0  0  0  0  0  0  0  0  0
   -2.0605   15.6396  -32.5324 H   0  0  0  0  0  0  0  0  0  0  0  0
   -2.6320   20.0250  -34.9436 H   0  0  0  0  0  0  0  0  0  0  0  0
   -5.3070   19.4310  -34.5910 H   0  0  0  0  0  0  0  0  0  0  0  0
   -7.4569   18.0080  -34.3140 H   0  0  0  0  0  0  0  0  0  0  0  0
   -7.3038   16.4204  -33.4184 H   0  0  0  0  0  0  0  0  0  0  0  0
   -8.9752   19.0581  -33.4661 H   0  0  0  0  0  0  0  0  0  0  0  0
   -9.6621   17.9463  -32.1886 H   0  0  0  0  0  0  0  0  0  0  0  0
  -10.2785   20.0092  -31.3757 H   0  0  0  0  0  0  0  0  0  0  0  0
   -8.6594   19.7059  -30.5553 H   0  0  0  0  0  0  0  0  0  0  0  0
   -8.9381   21.3915  -33.0522 H   0  0  0  0  0  0  0  0  0  0  0  0
   -9.0798   22.0452  -31.3439 H   0  0  0  0  0  0  0  0  0  0  0  0
   -5.9997   22.5403  -33.2568 H   0  0  0  0  0  0  0  0  0  0  0  0
   -7.4345   23.4007  -32.5600 H   0  0  0  0  0  0  0  0  0  0  0  0
   -7.3704   24.5341  -30.5275 H   0  0  0  0  0  0  0  0  0  0  0  0
   -6.0361   25.5798  -28.7101 H   0  0  0  0  0  0  0  0  0  0  0  0
   -3.6320   24.9966  -28.4272 H   0  0  0  0  0  0  0  0  0  0  0  0
   -2.5503   23.3686  -29.9626 H   0  0  0  0  0  0  0  0  0  0  0  0
   -6.7019   20.0205  -33.3999 H   0  0  0  0  0  0  0  0  0  0  0  0
   -5.3411   20.5013  -32.2765 H   0  0  0  0  0  0  0  0  0  0  0  0
   -5.6794   18.4643  -31.3684 H   0  0  0  0  0  0  0  0  0  0  0  0
   -7.0451   19.2731  -30.5346 H   0  0  0  0  0  0  0  0  0  0  0  0
   -4.8836   15.5188  -31.2850 H   0  0  0  0  0  0  0  0  0  0  0  0
   -5.9166   14.9868  -32.6549 H   0  0  0  0  0  0  0  0  0  0  0  0
   -4.1604   14.6094  -32.6549 H   0  0  0  0  0  0  0  0  0  0  0  0
  1  2  1  0
  2  3  1  0
  3  4  2  0
  4  5  1  0
  5  6  2  0
  6  7  1  0
  7  8  2  0
  7  9  1  0
  9 10  2  0
 10 11  1  0
 11 12  1  0
 12 13  1  0
 13 14  1  0
 14 15  1  0
 15 16  1  0
 16 17  1  0
 17 18  1  0
 18 19  2  0
 19 20  1  0
 20 21  2  0
 21 22  1  0
 22 23  2  0
 23 24  1  0
 24 25  1  0
 24 26  1  0
 24 27  1  0
 16 28  1  0
 28 29  1  0
 10 30  1  0
 30 31  1  0
  8  3  1  0
 29 12  1  0
 30  6  1  0
 23 18  1  0
  1 32  1  0
  1 33  1  0
  1 34  1  0
  4 35  1  0
  5 36  1  0
  8 37  1  0
  9 38  1  0
 11 39  1  0
 11 40  1  0
 13 41  1  0
 13 42  1  0
 14 43  1  0
 14 44  1  0
 15 45  1  0
 15 46  1  0
 17 47  1  0
 17 48  1  0
 19 49  1  0
 20 50  1  0
 21 51  1  0
 22 52  1  0
 28 53  1  0
 28 54  1  0
 29 55  1  0
 29 56  1  0
 31 57  1  0
 31 58  1  0
 31 59  1  0
M  CHG  1   9   1
M  END
>  <UniqueID>  (15) 
14

>  <SMILES>  (15) 
COc1ccc2c(c1)[nH+]c(CN1CCCN(Cc3ccccc3C(F)(F)F)CC1)n2C

>  <Energy>  (15) 
121.60484098114992

>  <Genealogy>  (15) 
COc1ccc2c(c1)[nH+]c(CN1CCCN(Cc3ccccc3C(F)(F)F)CC1)n2C (protonated)
COc1ccc2c(c1)[nH+]c(CN1CCCN(Cc3ccccc3C(F)(F)F)CC1)n2C (3D coordinates assigned)
COc1ccc2c(c1)[nH+]c(CN1CCCN(Cc3ccccc3C(F)(F)F)CC1)n2C (nonaromatic ring conformer: 121.60484098114992 kcal/mol)

>  <smiles>  (15) 
COc1ccc2c(c1)nc(CN1CCCN(Cc3ccccc3C(F)(F)F)CC1)n2C

>  <score_type>  (15) 
oracle

>  <origin>  (15) 
adg

>  <m_score__min__energy>  (15) 
-6.0800000000000001

>  <m_primary>  (15) 
energy

$$$$
15:0
     RDKit          3D

 58 61  0  0  0  0  0  0  0  0999 V2000
   -2.7150   21.1190  -28.2700 C   0  0  0  0  0  0  0  0  0  0  0  0
   -1.7600   19.9600  -28.1860 C   0  0  0  0  0  0  0  0  0  0  0  0
   -0.8840   19.7640  -29.2100 N   0  0  0  0  0  0  0  0  0  0  0  0
    0.0100   18.7410  -29.2070 C   0  0  0  0  0  0  0  0  0  0  0  0
    0.9060   18.5680  -30.4070 C   0  0  0  0  0  0  0  0  0  0  0  0
    0.4830   19.4660  -31.5080 N   0  0  0  0  0  0  0  0  0  0  0  0
    1.5950   19.7870  -32.4360 C   0  0  0  0  0  0  0  0  0  0  0  0
    1.2010   20.6410  -33.6610 C   0  0  0  0  0  0  0  0  0  0  0  0
    0.0750   20.1420  -34.3480 O   0  0  0  0  0  0  0  0  0  0  0  0
   -1.1050   20.8140  -33.9460 C   0  0  0  0  0  0  0  0  0  0  0  0
   -1.7450   20.1570  -32.6710 C   0  0  2  0  0  0  0  0  0  0  0  0
   -3.1160   19.5220  -33.0330 C   0  0  0  0  0  0  0  0  0  0  0  0
   -4.1630   20.5750  -32.7310 C   0  0  0  0  0  0  0  0  0  0  0  0
   -3.5630   21.4500  -31.7410 N   0  0  0  0  0  0  0  0  0  0  0  0
   -4.2950   22.4730  -31.0010 C   0  0  0  0  0  0  0  0  0  0  0  0
   -5.7030   22.4490  -30.9060 C   0  0  0  0  0  0  0  0  0  0  0  0
   -6.3990   23.4380  -30.1840 C   0  0  0  0  0  0  0  0  0  0  0  0
   -5.7010   24.4750  -29.5670 C   0  0  0  0  0  0  0  0  0  0  0  0
   -4.3120   24.5160  -29.6570 C   0  0  0  0  0  0  0  0  0  0  0  0
   -3.6050   23.5230  -30.3600 C   0  0  0  0  0  0  0  0  0  0  0  0
   -2.1270   21.2170  -31.6080 C   0  0  0  0  0  0  0  0  0  0  0  0
   -0.8240   19.0430  -32.0860 C   0  0  0  0  0  0  0  0  0  0  0  0
    0.0330   17.8520  -28.1060 C   0  0  0  0  0  0  0  0  0  0  0  0
    0.9520   16.6610  -28.0690 C   0  0  0  0  0  0  0  0  0  0  0  0
   -0.8530   18.0410  -27.0850 N   0  0  0  0  0  0  0  0  0  0  0  0
   -1.7480   19.0710  -27.0880 C   0  0  0  0  0  0  0  0  0  0  0  0
   -2.6900   19.2460  -25.9250 C   0  0  0  0  0  0  0  0  0  0  0  0
   -2.9846   21.4462  -27.2550 H   0  0  0  0  0  0  0  0  0  0  0  0
   -2.2362   21.9503  -28.8082 H   0  0  0  0  0  0  0  0  0  0  0  0
   -3.6225   20.8080  -28.8082 H   0  0  0  0  0  0  0  0  0  0  0  0
    1.9413   18.8076  -30.1227 H   0  0  0  0  0  0  0  0  0  0  0  0
    0.8378   17.5261  -30.7532 H   0  0  0  0  0  0  0  0  0  0  0  0
    2.3627   20.3359  -31.8708 H   0  0  0  0  0  0  0  0  0  0  0  0
    1.9484   18.8246  -32.8347 H   0  0  0  0  0  0  0  0  0  0  0  0
    0.9769   21.6618  -33.3179 H   0  0  0  0  0  0  0  0  0  0  0  0
    2.0484   20.6169  -34.3620 H   0  0  0  0  0  0  0  0  0  0  0  0
   -0.8587   21.8621  -33.7208 H   0  0  0  0  0  0  0  0  0  0  0  0
   -1.8335   20.7467  -34.7675 H   0  0  0  0  0  0  0  0  0  0  0  0
   -3.1420   19.2533  -34.0994 H   0  0  0  0  0  0  0  0  0  0  0  0
   -3.2957   18.6018  -32.4578 H   0  0  0  0  0  0  0  0  0  0  0  0
   -4.4131   21.1397  -33.6412 H   0  0  0  0  0  0  0  0  0  0  0  0
   -5.0976   20.1258  -32.3639 H   0  0  0  0  0  0  0  0  0  0  0  0
   -6.2656   21.6453  -31.4036 H   0  0  0  0  0  0  0  0  0  0  0  0
   -7.4953   23.3920  -30.1069 H   0  0  0  0  0  0  0  0  0  0  0  0
   -6.2435   25.2553  -29.0130 H   0  0  0  0  0  0  0  0  0  0  0  0
   -3.7604   25.3351  -29.1724 H   0  0  0  0  0  0  0  0  0  0  0  0
   -2.5070   23.5659  -30.4100 H   0  0  0  0  0  0  0  0  0  0  0  0
   -1.5737   22.1505  -31.7882 H   0  0  0  0  0  0  0  0  0  0  0  0
   -1.8759   20.8686  -30.5953 H   0  0  0  0  0  0  0  0  0  0  0  0
   -1.3872   18.5337  -31.2901 H   0  0  0  0  0  0  0  0  0  0  0  0
   -0.5593   18.4152  -32.9496 H   0  0  0  0  0  0  0  0  0  0  0  0
    1.1603   16.3910  -27.0232 H   0  0  0  0  0  0  0  0  0  0  0  0
    0.4726   15.8120  -28.5784 H   0  0  0  0  0  0  0  0  0  0  0  0
    1.8948   16.9094  -28.5784 H   0  0  0  0  0  0  0  0  0  0  0  0
   -0.8530   17.3710  -26.2830 H   0  0  0  0  0  0  0  0  0  0  0  0
   -2.1322   19.1424  -24.9826 H   0  0  0  0  0  0  0  0  0  0  0  0
   -3.1487   20.2447  -25.9717 H   0  0  0  0  0  0  0  0  0  0  0  0
   -3.4768   18.4786  -25.9717 H   0  0  0  0  0  0  0  0  0  0  0  0
  1  2  1  0
  2  3  2  0
  3  4  1  0
  4  5  1  0
  5  6  1  0
  6  7  1  0
  7  8  1  0
  8  9  1  0
  9 10  1  0
 11 10  1  6
 11 12  1  0
 12 13  1  0
 13 14  1  0
 14 15  1  0
 15 16  2  0
 16 17  1  0
 17 18  2  0
 18 19  1  0
 19 20  2  0
 14 21  1  0
 11 22  1  0
  4 23  2  0
 23 24  1  0
 23 25  1  0
 25 26  2  0
 26 27  1  0
 26  2  1  0
 22  6  1  0
 21 11  1  0
 20 15  1  0
  1 28  1  0
  1 29  1  0
  1 30  1  0
  5 31  1  0
  5 32  1  0
  7 33  1  0
  7 34  1  0
  8 35  1  0
  8 36  1  0
 10 37  1  0
 10 38  1  0
 12 39  1  0
 12 40  1  0
 13 41  1  0
 13 42  1  0
 16 43  1  0
 17 44  1  0
 18 45  1  0
 19 46  1  0
 20 47  1  0
 21 48  1  0
 21 49  1  0
 22 50  1  0
 22 51  1  0
 24 52  1  0
 24 53  1  0
 24 54  1  0
 25 55  1  0
 27 56  1  0
 27 57  1  0
 27 58  1  0
M  CHG  1  25   1
M  END
>  <UniqueID>  (16) 
15

>  <SMILES>  (16) 
Cc1nc(CN2CCOC[C@@]3(CCN(c4ccccc4)C3)C2)c(C)[nH+]c1C

>  <Energy>  (16) 
91.3903853307518

>  <Genealogy>  (16) 
Cc1nc(CN2CCOCC3(CCN(c4ccccc4)C3)C2)c(C)[nH+]c1C (protonated)
Cc1nc(CN2CCOC[C@@]3(CCN(c4ccccc4)C3)C2)c(C)[nH+]c1C (chirality)
Cc1nc(CN2CCOC[C@@]3(CCN(c4ccccc4)C3)C2)c(C)[nH+]c1C (3D coordinates assigned)
Cc1nc(CN2CCOC[C@@]3(CCN(c4ccccc4)C3)C2)c(C)[nH+]c1C (nonaromatic ring conformer: 91.3903853307518 kcal/mol)

>  <smiles>  (16) 
Cc1nc(C)c(CN2CCOCC3(CCN(c4ccccc4)C3)C2)nc1C

>  <score_type>  (16) 
oracle

>  <origin>  (16) 
adg

>  <m_score__min__energy>  (16) 
-7.46

>  <m_primary>  (16) 
energy

$$$$
16:0
     RDKit          3D

 46 47  0  0  0  0  0  0  0  0999 V2000
   -4.2440   24.9130  -26.3330 C   0  0  0  0  0  0  0  0  0  0  0  0
   -3.2940   23.9880  -27.0880 C   0  0  0  0  0  0  0  0  0  0  0  0
   -1.9650   24.6230  -27.2310 N   0  0  0  0  0  0  0  0  0  0  0  0
   -1.8100   25.8050  -26.3460 C   0  0  0  0  0  0  0  0  0  0  0  0
   -1.0870   25.5090  -25.0240 C   0  0  0  0  0  0  0  0  0  0  0  0
   -1.6360   24.8850  -28.6520 C   0  0  0  0  0  0  0  0  0  0  0  0
   -2.6630   24.2510  -29.6000 C   0  0  0  0  0  0  0  0  0  0  0  0
   -3.5650   25.2340  -30.0760 O   0  0  0  0  0  0  0  0  0  0  0  0
   -4.8980   24.9430  -29.6950 C   0  0  0  0  0  0  0  0  0  0  0  0
   -5.8160   24.9500  -30.9200 C   0  0  0  0  0  0  0  0  0  0  0  0
   -5.3350   24.0570  -31.9260 O   0  0  0  0  0  0  0  0  0  0  0  0
   -5.7380   22.7230  -32.0980 C   0  0  0  0  0  0  0  0  0  0  0  0
   -4.7950   21.8110  -32.5870 C   0  0  0  0  0  0  0  0  0  0  0  0
   -5.1320   20.4680  -32.7790 C   0  0  0  0  0  0  0  0  0  0  0  0
   -6.4250   20.0170  -32.4870 C   0  0  0  0  0  0  0  0  0  0  0  0
   -6.7730   18.6700  -32.6720 C   0  0  0  0  0  0  0  0  0  0  0  0
   -8.0670   18.2320  -32.3760 C   0  0  0  0  0  0  0  0  0  0  0  0
   -9.0220   19.1330  -31.8970 C   0  0  0  0  0  0  0  0  0  0  0  0
   -8.6880   20.4760  -31.7090 C   0  0  0  0  0  0  0  0  0  0  0  0
   -7.3900   20.9290  -31.9990 C   0  0  0  0  0  0  0  0  0  0  0  0
   -7.0430   22.2760  -31.8100 C   0  0  0  0  0  0  0  0  0  0  0  0
   -4.1046   24.7773  -25.2503 H   0  0  0  0  0  0  0  0  0  0  0  0
   -4.0296   25.9578  -26.6022 H   0  0  0  0  0  0  0  0  0  0  0  0
   -5.2827   24.6708  -26.6022 H   0  0  0  0  0  0  0  0  0  0  0  0
   -3.1876   23.0448  -26.5321 H   0  0  0  0  0  0  0  0  0  0  0  0
   -3.7061   23.7910  -28.0887 H   0  0  0  0  0  0  0  0  0  0  0  0
   -1.2364   26.5703  -26.8894 H   0  0  0  0  0  0  0  0  0  0  0  0
   -2.8245   26.1399  -26.0842 H   0  0  0  0  0  0  0  0  0  0  0  0
   -1.7406   25.7766  -24.1807 H   0  0  0  0  0  0  0  0  0  0  0  0
   -0.8415   24.4380  -24.9721 H   0  0  0  0  0  0  0  0  0  0  0  0
   -0.1609   26.1004  -24.9721 H   0  0  0  0  0  0  0  0  0  0  0  0
   -1.6202   25.9721  -28.8194 H   0  0  0  0  0  0  0  0  0  0  0  0
   -0.6533   24.4385  -28.8638 H   0  0  0  0  0  0  0  0  0  0  0  0
   -2.1376   23.7971  -30.4532 H   0  0  0  0  0  0  0  0  0  0  0  0
   -3.2279   23.4819  -29.0529 H   0  0  0  0  0  0  0  0  0  0  0  0
   -4.9315   23.9502  -29.2225 H   0  0  0  0  0  0  0  0  0  0  0  0
   -5.2425   25.7104  -28.9862 H   0  0  0  0  0  0  0  0  0  0  0  0
   -6.8255   24.6375  -30.6147 H   0  0  0  0  0  0  0  0  0  0  0  0
   -5.8368   25.9680  -31.3363 H   0  0  0  0  0  0  0  0  0  0  0  0
   -3.7772   22.1552  -32.8228 H   0  0  0  0  0  0  0  0  0  0  0  0
   -4.3788   19.7631  -33.1608 H   0  0  0  0  0  0  0  0  0  0  0  0
   -6.0257   17.9573  -33.0508 H   0  0  0  0  0  0  0  0  0  0  0  0
   -8.3345   17.1749  -32.5205 H   0  0  0  0  0  0  0  0  0  0  0  0
  -10.0394   18.7835  -31.6675 H   0  0  0  0  0  0  0  0  0  0  0  0
   -9.4435   21.1814  -31.3327 H   0  0  0  0  0  0  0  0  0  0  0  0
   -7.7941   22.9867  -31.4349 H   0  0  0  0  0  0  0  0  0  0  0  0
  1  2  1  0
  2  3  1  0
  3  4  1  0
  4  5  1  0
  3  6  1  0
  6  7  1  0
  7  8  1  0
  8  9  1  0
  9 10  1  0
 10 11  1  0
 11 12  1  0
 12 13  2  0
 13 14  1  0
 14 15  2  0
 15 16  1  0
 16 17  2  0
 17 18  1  0
 18 19  2  0
 19 20  1  0
 20 21  2  0
 21 12  1  0
 20 15  1  0
  1 22  1  0
  1 23  1  0
  1 24  1  0
  2 25  1  0
  2 26  1  0
  4 27  1  0
  4 28  1  0
  5 29  1  0
  5 30  1  0
  5 31  1  0
  6 32  1  0
  6 33  1  0
  7 34  1  0
  7 35  1  0
  9 36  1  0
  9 37  1  0
 10 38  1  0
 10 39  1  0
 13 40  1  0
 14 41  1  0
 16 42  1  0
 17 43  1  0
 18 44  1  0
 19 45  1  0
 21 46  1  0
M  END
>  <UniqueID>  (17) 
16

>  <SMILES>  (17) 
CCN(CC)CCOCCOc1ccc2ccccc2c1

>  <Energy>  (17) 
50.76606803558838

>  <Genealogy>  (17) 
CCN(CC)CCOCCOc1ccc2ccccc2c1 (3D coordinates assigned)
CCN(CC)CCOCCOc1ccc2ccccc2c1 (optimized conformer: 50.76606803558838 kcal/mol)

>  <smiles>  (17) 
CCN(CC)CCOCCOc1ccc2ccccc2c1

>  <score_type>  (17) 
oracle

>  <origin>  (17) 
adg

>  <m_score__min__energy>  (17) 
-7.75

>  <m_primary>  (17) 
energy

$$$$
17:0
     RDKit          3D

 60 63  0  0  0  0  0  0  0  0999 V2000
   -9.5080   19.7470  -32.7160 C   0  0  0  0  0  0  0  0  0  0  0  0
   -8.1920   19.0140  -32.4740 C   0  0  0  0  0  0  0  0  0  0  0  0
   -7.0590   19.9250  -32.6590 N   0  0  0  0  0  0  0  0  0  0  0  0
   -6.0410   19.8380  -33.5600 C   0  0  0  0  0  0  0  0  0  0  0  0
   -5.9450   18.8040  -34.6470 C   0  0  0  0  0  0  0  0  0  0  0  0
   -5.4420   17.5150  -34.1290 N   0  0  0  0  0  0  0  0  0  0  0  0
   -6.5240   16.5060  -34.1520 C   0  0  0  0  0  0  0  0  0  0  0  0
   -5.9920   15.0540  -34.1210 C   0  0  0  0  0  0  0  0  0  0  0  0
   -4.6500   14.9580  -33.5150 N   0  0  0  0  0  0  0  0  0  0  0  0
   -4.6930   15.1890  -32.0610 C   0  0  0  0  0  0  0  0  0  0  0  0
   -3.6540   15.8190  -34.2000 C   0  0  0  0  0  0  0  0  0  0  0  0
   -4.2770   17.0440  -34.8970 C   0  0  0  0  0  0  0  0  0  0  0  0
   -5.1070   20.8140  -33.4100 N   0  0  0  0  0  0  0  0  0  0  0  0
   -5.5700   21.5250  -32.3670 C   0  0  0  0  0  0  0  0  0  0  0  0
   -4.9860   22.6420  -31.7770 C   0  0  0  0  0  0  0  0  0  0  0  0
   -5.6470   23.2290  -30.6780 C   0  0  0  0  0  0  0  0  0  0  0  0
   -4.9450   24.6210  -29.8600 S   0  0  0  0  0  0  0  0  0  0  0  0
   -4.3170   25.5440  -30.8680 O   0  0  0  0  0  0  0  0  0  0  0  0
   -6.0320   25.3660  -29.1370 O   0  0  0  0  0  0  0  0  0  0  0  0
   -3.7060   24.0680  -28.6870 C   0  0  0  0  0  0  0  0  0  0  0  0
   -2.3000   24.5080  -29.1290 C   0  0  0  0  0  0  0  0  0  0  0  0
   -1.2090   23.9440  -28.1950 C   0  0  0  0  0  0  0  0  0  0  0  0
   -1.6980   23.6960  -26.7530 C   0  0  0  0  0  0  0  0  0  0  0  0
   -2.7920   24.6890  -26.3510 C   0  0  0  0  0  0  0  0  0  0  0  0
   -4.0320   24.5810  -27.2640 C   0  0  0  0  0  0  0  0  0  0  0  0
   -6.8610   22.6760  -30.2040 C   0  0  0  0  0  0  0  0  0  0  0  0
   -7.4250   21.5470  -30.8250 C   0  0  0  0  0  0  0  0  0  0  0  0
   -6.7420   20.9970  -31.9120 C   0  0  0  0  0  0  0  0  0  0  0  0
   -9.9680   20.0032  -31.7502 H   0  0  0  0  0  0  0  0  0  0  0  0
   -9.3154   20.6678  -33.2861 H   0  0  0  0  0  0  0  0  0  0  0  0
  -10.1895   19.0985  -33.2861 H   0  0  0  0  0  0  0  0  0  0  0  0
   -8.1786   18.6228  -31.4460 H   0  0  0  0  0  0  0  0  0  0  0  0
   -8.1064   18.1868  -33.1940 H   0  0  0  0  0  0  0  0  0  0  0  0
   -6.9437   18.6489  -35.0813 H   0  0  0  0  0  0  0  0  0  0  0  0
   -5.2383   19.1686  -35.4070 H   0  0  0  0  0  0  0  0  0  0  0  0
   -7.1689   16.6626  -33.2748 H   0  0  0  0  0  0  0  0  0  0  0  0
   -7.0769   16.6355  -35.0941 H   0  0  0  0  0  0  0  0  0  0  0  0
   -6.6885   14.4353  -33.5361 H   0  0  0  0  0  0  0  0  0  0  0  0
   -5.9157   14.7031  -35.1607 H   0  0  0  0  0  0  0  0  0  0  0  0
   -4.5163   14.2400  -31.5336 H   0  0  0  0  0  0  0  0  0  0  0  0
   -3.9144   15.9141  -31.7818 H   0  0  0  0  0  0  0  0  0  0  0  0
   -5.6804   15.5854  -31.7818 H   0  0  0  0  0  0  0  0  0  0  0  0
   -2.9289   16.1746  -33.4532 H   0  0  0  0  0  0  0  0  0  0  0  0
   -3.1809   15.2073  -34.9823 H   0  0  0  0  0  0  0  0  0  0  0  0
   -3.5298   17.8490  -34.9578 H   0  0  0  0  0  0  0  0  0  0  0  0
   -4.5995   16.7610  -35.9099 H   0  0  0  0  0  0  0  0  0  0  0  0
   -4.0390   23.0540  -32.1557 H   0  0  0  0  0  0  0  0  0  0  0  0
   -3.7210   22.9684  -28.6612 H   0  0  0  0  0  0  0  0  0  0  0  0
   -2.1173   24.1453  -30.1513 H   0  0  0  0  0  0  0  0  0  0  0  0
   -2.2542   25.6063  -29.0880 H   0  0  0  0  0  0  0  0  0  0  0  0
   -0.8546   22.9894  -28.6110 H   0  0  0  0  0  0  0  0  0  0  0  0
   -0.4104   24.6984  -28.1395 H   0  0  0  0  0  0  0  0  0  0  0  0
   -2.0997   22.6744  -26.6829 H   0  0  0  0  0  0  0  0  0  0  0  0
   -0.8445   23.8297  -26.0721 H   0  0  0  0  0  0  0  0  0  0  0  0
   -3.0952   24.4833  -25.3138 H   0  0  0  0  0  0  0  0  0  0  0  0
   -2.3830   25.7052  -26.4508 H   0  0  0  0  0  0  0  0  0  0  0  0
   -4.7478   23.8872  -26.7989 H   0  0  0  0  0  0  0  0  0  0  0  0
   -4.4448   25.5949  -27.3715 H   0  0  0  0  0  0  0  0  0  0  0  0
   -7.3681   23.1337  -29.3418 H   0  0  0  0  0  0  0  0  0  0  0  0
   -8.3702   21.1128  -30.4673 H   0  0  0  0  0  0  0  0  0  0  0  0
  1  2  1  0
  2  3  1  0
  3  4  1  0
  4  5  1  0
  5  6  1  0
  6  7  1  0
  7  8  1  0
  8  9  1  0
  9 10  1  0
  9 11  1  0
 11 12  1  0
  4 13  2  0
 13 14  1  0
 14 15  2  0
 15 16  1  0
 16 17  1  0
 17 18  2  0
 17 19  2  0
 17 20  1  0
 20 21  1  0
 21 22  1  0
 22 23  1  0
 23 24  1  0
 24 25  1  0
 16 26  2  0
 26 27  1  0
 27 28  2  0
 28  3  1  0
 12  6  1  0
 28 14  1  0
 25 20  1  0
  1 29  1  0
  1 30  1  0
  1 31  1  0
  2 32  1  0
  2 33  1  0
  5 34  1  0
  5 35  1  0
  7 36  1  0
  7 37  1  0
  8 38  1  0
  8 39  1  0
 10 40  1  0
 10 41  1  0
 10 42  1  0
 11 43  1  0
 11 44  1  0
 12 45  1  0
 12 46  1  0
 15 47  1  0
 20 48  1  0
 21 49  1  0
 21 50  1  0
 22 51  1  0
 22 52  1  0
 23 53  1  0
 23 54  1  0
 24 55  1  0
 24 56  1  0
 25 57  1  0
 25 58  1  0
 26 59  1  0
 27 60  1  0
M  END
>  <UniqueID>  (18) 
17

>  <SMILES>  (18) 
CCn1c(CN2CCN(C)CC2)nc2cc(S(=O)(=O)C3CCCCC3)ccc21

>  <Energy>  (18) 
102.47541231417271

>  <Genealogy>  (18) 
CCn1c(CN2CCN(C)CC2)nc2cc(S(=O)(=O)C3CCCCC3)ccc21 (3D coordinates assigned)
CCn1c(CN2CCN(C)CC2)nc2cc(S(=O)(=O)C3CCCCC3)ccc21 (nonaromatic ring conformer: 102.47541231417271 kcal/mol)

>  <smiles>  (18) 
CCn1c(CN2CCN(C)CC2)nc2cc(S(=O)(=O)C3CCCCC3)ccc21

>  <score_type>  (18) 
oracle

>  <origin>  (18) 
adg

>  <m_score__min__energy>  (18) 
-10.289999999999999

>  <m_primary>  (18) 
energy

$$$$
18:0
     RDKit          3D

 91 95  0  0  0  0  0  0  0  0999 V2000
    0.4600   18.2820  -28.7000 C   0  0  0  0  0  0  0  0  0  0  0  0
   -0.4720   18.2420  -27.4840 C   0  0  0  0  0  0  0  0  0  0  0  0
   -1.5450   19.2530  -27.5890 N   0  0  0  0  0  0  0  0  0  0  0  0
   -2.2520   19.3920  -26.2950 C   0  0  0  0  0  0  0  0  0  0  0  0
   -3.5680   18.6090  -26.2800 C   0  0  0  0  0  0  0  0  0  0  0  0
   -1.0270   20.5530  -28.0860 C   0  0  0  0  0  0  0  0  0  0  0  0
   -1.9650   21.0560  -29.1720 C   0  0  0  0  0  0  0  0  0  0  0  0
   -1.2210   21.4800  -30.2940 O   0  0  0  0  0  0  0  0  0  0  0  0
   -1.5870   20.7410  -31.4440 C   0  0  0  0  0  0  0  0  0  0  0  0
   -1.2960   21.4900  -32.7570 C   0  0  0  0  0  0  0  0  0  0  0  0
   -2.4250   21.3840  -33.7020 N   0  0  0  0  0  0  0  0  0  0  0  0
   -3.3500   20.3310  -33.2870 C   0  0  0  0  0  0  0  0  0  0  0  0
   -3.0470   18.9730  -33.5390 C   0  0  0  0  0  0  0  0  0  0  0  0
   -1.7100   18.5230  -33.6590 C   0  0  0  0  0  0  0  0  0  0  0  0
   -1.4280   17.1760  -33.8560 C   0  0  0  0  0  0  0  0  0  0  0  0
   -2.4710   16.2530  -33.9290 C   0  0  0  0  0  0  0  0  0  0  0  0
   -3.7960   16.6800  -33.8590 C   0  0  0  0  0  0  0  0  0  0  0  0
   -4.1090   18.0470  -33.6830 C   0  0  0  0  0  0  0  0  0  0  0  0
   -5.4150   18.4970  -33.6710 N   0  0  0  0  0  0  0  0  0  0  0  0
   -6.4920   17.6540  -34.2400 C   0  0  0  0  0  0  0  0  0  0  0  0
   -5.7060   19.7350  -33.1260 C   0  0  0  0  0  0  0  0  0  0  0  0
   -7.0410   20.1420  -32.8710 C   0  0  0  0  0  0  0  0  0  0  0  0
   -7.3240   21.3940  -32.3300 C   0  0  0  0  0  0  0  0  0  0  0  0
   -6.2890   22.2180  -31.8780 C   0  0  0  0  0  0  0  0  0  0  0  0
   -6.5890   23.4510  -31.2780 C   0  0  0  0  0  0  0  0  0  0  0  0
   -5.5530   24.2730  -30.7950 C   0  0  0  0  0  0  0  0  0  0  0  0
   -5.7860   25.5770  -30.3490 O   0  0  0  0  0  0  0  0  0  0  0  0
   -6.5000   25.8860  -29.1520 C   0  0  0  0  0  0  0  0  0  0  0  0
   -4.2450   23.7870  -30.7880 C   0  0  0  0  0  0  0  0  0  0  0  0
   -3.2020   24.6130  -30.3620 O   0  0  0  0  0  0  0  0  0  0  0  0
   -2.1690   24.2490  -29.4420 C   0  0  0  0  0  0  0  0  0  0  0  0
   -2.5340   24.5130  -27.9560 C   0  0  0  0  0  0  0  0  0  0  0  0
   -1.3990   25.0090  -27.1040 N   0  0  0  0  0  0  0  0  0  0  0  0
   -0.7910   26.2200  -27.7260 C   0  0  0  0  0  0  0  0  0  0  0  0
   -0.3420   23.9380  -27.0490 C   0  0  0  0  0  0  0  0  0  0  0  0
   -0.5520   22.9970  -25.8490 C   0  0  0  0  0  0  0  0  0  0  0  0
   -0.4700   23.6620  -24.5850 O   0  0  0  0  0  0  0  0  0  0  0  0
   -0.8110   25.0420  -24.6450 C   0  0  0  0  0  0  0  0  0  0  0  0
   -1.8780   25.3440  -25.7190 C   0  0  0  0  0  0  0  0  0  0  0  0
   -3.9610   22.5380  -31.3290 C   0  0  0  0  0  0  0  0  0  0  0  0
   -4.9470   21.8090  -32.0350 C   0  0  0  0  0  0  0  0  0  0  0  0
   -4.6500   20.6350  -32.7940 C   0  0  0  0  0  0  0  0  0  0  0  0
    1.5051   18.3269  -28.3597 H   0  0  0  0  0  0  0  0  0  0  0  0
    0.3104   17.3766  -29.3065 H   0  0  0  0  0  0  0  0  0  0  0  0
    0.2334   19.1712  -29.3065 H   0  0  0  0  0  0  0  0  0  0  0  0
   -0.9277   17.2432  -27.4159 H   0  0  0  0  0  0  0  0  0  0  0  0
    0.1234   18.4634  -26.5860 H   0  0  0  0  0  0  0  0  0  0  0  0
   -1.6028   19.0130  -25.4919 H   0  0  0  0  0  0  0  0  0  0  0  0
   -2.4853   20.4565  -26.1450 H   0  0  0  0  0  0  0  0  0  0  0  0
   -3.8744   18.4267  -25.2394 H   0  0  0  0  0  0  0  0  0  0  0  0
   -4.3467   19.1908  -26.7949 H   0  0  0  0  0  0  0  0  0  0  0  0
   -3.4282   17.6471  -26.7949 H   0  0  0  0  0  0  0  0  0  0  0  0
   -0.9902   21.2790  -27.2605 H   0  0  0  0  0  0  0  0  0  0  0  0
   -0.0116   20.4273  -28.4900 H   0  0  0  0  0  0  0  0  0  0  0  0
   -2.6446   20.2444  -29.4711 H   0  0  0  0  0  0  0  0  0  0  0  0
   -2.5463   21.9047  -28.7825 H   0  0  0  0  0  0  0  0  0  0  0  0
   -1.0242   19.7959  -31.4473 H   0  0  0  0  0  0  0  0  0  0  0  0
   -2.6728   20.5717  -31.3950 H   0  0  0  0  0  0  0  0  0  0  0  0
   -1.1176   22.5516  -32.5309 H   0  0  0  0  0  0  0  0  0  0  0  0
   -0.4105   21.0351  -33.2249 H   0  0  0  0  0  0  0  0  0  0  0  0
   -1.9640   21.1750  -34.6080 H   0  0  0  0  0  0  0  0  0  0  0  0
   -2.9190   22.2960  -33.8190 H   0  0  0  0  0  0  0  0  0  0  0  0
   -0.8848   19.2476  -33.5956 H   0  0  0  0  0  0  0  0  0  0  0  0
   -0.3854   16.8392  -33.9540 H   0  0  0  0  0  0  0  0  0  0  0  0
   -2.2467   15.1821  -34.0424 H   0  0  0  0  0  0  0  0  0  0  0  0
   -4.6087   15.9434  -33.9418 H   0  0  0  0  0  0  0  0  0  0  0  0
   -7.0723   17.1998  -33.4233 H   0  0  0  0  0  0  0  0  0  0  0  0
   -7.1553   18.2754  -34.8596 H   0  0  0  0  0  0  0  0  0  0  0  0
   -6.0482   16.8609  -34.8596 H   0  0  0  0  0  0  0  0  0  0  0  0
   -7.8683   19.4558  -33.1050 H   0  0  0  0  0  0  0  0  0  0  0  0
   -8.3670   21.7361  -32.2581 H   0  0  0  0  0  0  0  0  0  0  0  0
   -7.6358   23.7758  -31.1850 H   0  0  0  0  0  0  0  0  0  0  0  0
   -5.8853   25.6200  -28.2794 H   0  0  0  0  0  0  0  0  0  0  0  0
   -6.7257   26.9623  -29.1272 H   0  0  0  0  0  0  0  0  0  0  0  0
   -7.4391   25.3138  -29.1272 H   0  0  0  0  0  0  0  0  0  0  0  0
   -1.9591   23.1760  -29.5625 H   0  0  0  0  0  0  0  0  0  0  0  0
   -1.2960   24.8766  -29.6746 H   0  0  0  0  0  0  0  0  0  0  0  0
   -3.3355   25.2659  -27.9296 H   0  0  0  0  0  0  0  0  0  0  0  0
   -2.8345   23.5422  -27.5349 H   0  0  0  0  0  0  0  0  0  0  0  0
   -0.4474   26.9045  -26.9364 H   0  0  0  0  0  0  0  0  0  0  0  0
    0.0641   25.9215  -28.3502 H   0  0  0  0  0  0  0  0  0  0  0  0
   -1.5412   26.7275  -28.3502 H   0  0  0  0  0  0  0  0  0  0  0  0
   -0.3825   23.3483  -27.9767 H   0  0  0  0  0  0  0  0  0  0  0  0
    0.6374   24.4261  -26.9367 H   0  0  0  0  0  0  0  0  0  0  0  0
   -1.5471   22.5364  -25.9369 H   0  0  0  0  0  0  0  0  0  0  0  0
    0.2553   22.2504  -25.8764 H   0  0  0  0  0  0  0  0  0  0  0  0
   -1.2011   25.3514  -23.6641 H   0  0  0  0  0  0  0  0  0  0  0  0
    0.0990   25.5985  -24.9138 H   0  0  0  0  0  0  0  0  0  0  0  0
   -2.7777   24.7496  -25.5017 H   0  0  0  0  0  0  0  0  0  0  0  0
   -2.0938   26.4222  -25.6874 H   0  0  0  0  0  0  0  0  0  0  0  0
   -2.9550   22.1103  -31.2063 H   0  0  0  0  0  0  0  0  0  0  0  0
  1  2  1  0
  2  3  1  0
  3  4  1  0
  4  5  1  0
  3  6  1  0
  6  7  1  0
  7  8  1  0
  8  9  1  0
  9 10  1  0
 10 11  1  0
 11 12  1  0
 12 13  2  0
 13 14  1  0
 14 15  2  0
 15 16  1  0
 16 17  2  0
 17 18  1  0
 18 19  2  0
 19 20  1  0
 19 21  1  0
 21 22  2  0
 22 23  1  0
 23 24  2  0
 24 25  1  0
 25 26  2  0
 26 27  1  0
 27 28  1  0
 26 29  1  0
 29 30  1  0
 30 31  1  0
 31 32  1  0
 32 33  1  0
 33 34  1  0
 33 35  1  0
 35 36  1  0
 36 37  1  0
 37 38  1  0
 38 39  1  0
 29 40  2  0
 40 41  1  0
 41 42  2  0
 42 12  1  0
 18 13  1  0
 42 21  1  0
 41 24  1  0
 39 33  1  0
  1 43  1  0
  1 44  1  0
  1 45  1  0
  2 46  1  0
  2 47  1  0
  4 48  1  0
  4 49  1  0
  5 50  1  0
  5 51  1  0
  5 52  1  0
  6 53  1  0
  6 54  1  0
  7 55  1  0
  7 56  1  0
  9 57  1  0
  9 58  1  0
 10 59  1  0
 10 60  1  0
 11 61  1  0
 11 62  1  0
 14 63  1  0
 15 64  1  0
 16 65  1  0
 17 66  1  0
 20 67  1  0
 20 68  1  0
 20 69  1  0
 22 70  1  0
 23 71  1  0
 25 72  1  0
 28 73  1  0
 28 74  1  0
 28 75  1  0
 31 76  1  0
 31 77  1  0
 32 78  1  0
 32 79  1  0
 34 80  1  0
 34 81  1  0
 34 82  1  0
 35 83  1  0
 35 84  1  0
 36 85  1  0
 36 86  1  0
 38 87  1  0
 38 88  1  0
 39 89  1  0
 39 90  1  0
 40 91  1  0
M  CHG  3  11   1  19   1  33   1
M  END
>  <UniqueID>  (19) 
18

>  <SMILES>  (19) 
CCN(CC)CCOCC[NH2+]c1c2ccccc2[n+](C)c2ccc3cc(OC)c(OCC[N+]4(C)CCOCC4)cc3c12

>  <Energy>  (19) 
176.65280813886642

>  <Genealogy>  (19) 
CCN(CC)CCOCC[NH2+]c1c2ccccc2[n+](C)c2ccc3cc(OC)c(OCC[N+]4(C)CCOCC4)cc3c12 (protonated)
CCN(CC)CCOCC[NH2+]c1c2ccccc2[n+](C)c2ccc3cc(OC)c(OCC[N+]4(C)CCOCC4)cc3c12 (3D coordinates assigned)
CCN(CC)CCOCC[NH2+]c1c2ccccc2[n+](C)c2ccc3cc(OC)c(OCC[N+]4(C)CCOCC4)cc3c12 (nonaromatic ring conformer: 176.65280813886642 kcal/mol)

>  <smiles>  (19) 
CCN(CC)CCOCCNc1c2ccccc2[n+](C)c2ccc3cc(OC)c(OCC[N+]4(C)CCOCC4)cc3c12

>  <score_type>  (19) 
oracle

>  <origin>  (19) 
adg

>  <m_score__min__energy>  (19) 
-8.8599999999999994

>  <m_primary>  (19) 
energy

$$$$
19:0
     RDKit          3D

 33 34  0  0  0  0  0  0  0  0999 V2000
   -3.3730   25.6790  -31.6150 H   0  0  0  0  0  0  0  0  0  0  0  0
   -3.8890   25.2890  -30.8350 O   0  0  0  0  0  0  0  0  0  0  0  0
   -4.4500   24.0280  -30.8740 N   0  0  0  0  0  0  0  0  0  0  0  0
   -5.5010   23.7210  -31.5740 C   0  0  0  0  0  0  0  0  0  0  0  0
   -6.1476   24.5326  -31.9389 H   0  0  0  0  0  0  0  0  0  0  0  0
   -5.8620   22.3280  -31.8990 C   0  0  0  0  0  0  0  0  0  0  0  0
   -5.0640   21.4970  -32.6230 N   0  0  0  0  0  0  0  0  0  0  0  0
   -3.7090   21.7710  -33.1160 C   0  0  0  0  0  0  0  0  0  0  0  0
   -3.6398   21.4603  -34.1689 H   0  0  0  0  0  0  0  0  0  0  0  0
   -3.5121   22.8488  -33.0181 H   0  0  0  0  0  0  0  0  0  0  0  0
   -2.6620   21.0080  -32.2990 C   0  0  0  0  0  0  0  0  0  0  0  0
   -3.1331   20.1194  -31.8535 H   0  0  0  0  0  0  0  0  0  0  0  0
   -1.8412   20.7177  -32.9713 H   0  0  0  0  0  0  0  0  0  0  0  0
   -2.1090   21.8440  -31.2270 C   0  0  0  0  0  0  0  0  0  0  0  0
   -1.6740   22.5030  -30.3800 N   0  0  0  0  0  0  0  0  0  0  0  0
   -5.7660   20.3480  -32.7160 C   0  0  0  0  0  0  0  0  0  0  0  0
   -5.4190   19.1530  -33.3520 C   0  0  0  0  0  0  0  0  0  0  0  0
   -4.4473   19.0380  -33.8546 H   0  0  0  0  0  0  0  0  0  0  0  0
   -6.3530   18.1030  -33.3280 C   0  0  0  0  0  0  0  0  0  0  0  0
   -6.1118   17.1468  -33.8153 H   0  0  0  0  0  0  0  0  0  0  0  0
   -7.5990   18.2660  -32.6830 C   0  0  0  0  0  0  0  0  0  0  0  0
   -8.3229   17.4378  -32.6763 H   0  0  0  0  0  0  0  0  0  0  0  0
   -7.9210   19.4800  -32.0490 C   0  0  0  0  0  0  0  0  0  0  0  0
   -8.8896   19.6201  -31.5469 H   0  0  0  0  0  0  0  0  0  0  0  0
   -6.9680   20.5020  -32.0790 C   0  0  0  0  0  0  0  0  0  0  0  0
   -7.0420   21.7420  -31.5530 N   0  0  0  0  0  0  0  0  0  0  0  0
   -8.2090   22.3690  -30.9240 C   0  0  0  0  0  0  0  0  0  0  0  0
   -7.8697   23.1400  -30.2166 H   0  0  0  0  0  0  0  0  0  0  0  0
   -8.7866   21.5984  -30.3924 H   0  0  0  0  0  0  0  0  0  0  0  0
   -9.0970   23.0130  -31.9820 C   0  0  0  0  0  0  0  0  0  0  0  0
   -9.8935   23.5906  -31.4901 H   0  0  0  0  0  0  0  0  0  0  0  0
   -8.4919   23.6837  -32.6098 H   0  0  0  0  0  0  0  0  0  0  0  0
   -9.5465   22.2295  -32.6098 H   0  0  0  0  0  0  0  0  0  0  0  0
  1  2  1  0
  2  3  1  0
  3  4  2  0
  4  5  1  0
  4  6  1  0
  6  7  1  0
  7  8  1  0
  8  9  1  0
  8 10  1  0
  8 11  1  0
 11 12  1  0
 11 13  1  0
 11 14  1  0
 14 15  3  0
  7 16  1  0
 16 17  2  0
 17 18  1  0
 17 19  1  0
 19 20  1  0
 19 21  2  0
 21 22  1  0
 21 23  1  0
 23 24  1  0
 23 25  2  0
 25 26  1  0
 26 27  1  0
 27 28  1  0
 27 29  1  0
 27 30  1  0
 30 31  1  0
 30 32  1  0
 30 33  1  0
 26  6  2  0
 25 16  1  0
M  CHG  1  26   1
M  END
>  <UniqueID>  (20) 
19

>  <SMILES>  (20) 
CC[n+]1c(/C=N\O)n(CCC#N)c2ccccc21

>  <Energy>  (20) 
73.26579111671585

>  <Genealogy>  (20) 
CC[n+]1c(/C=N\O)n(CCC#N)c2ccccc21 (cis-trans isomerization)
CC[n+]1c(/C=N\O)n(CCC#N)c2ccccc21 (3D coordinates assigned)
CC[n+]1c(/C=N\O)n(CCC#N)c2ccccc21 (optimized conformer: 73.26579111671585 kcal/mol)

>  <smiles>  (20) 
CC[n+]1c(C=NO)n(CCC#N)c2ccccc21

>  <score_type>  (20) 
oracle

>  <origin>  (20) 
adg

>  <m_score__min__energy>  (20) 
-7.29

>  <m_primary>  (20) 
energy

$$$$
20:0
     RDKit          3D

 43 44  0  0  0  0  0  0  0  0999 V2000
   -6.0690   25.3670  -29.5010 C   0  0  0  0  0  0  0  0  0  0  0  0
   -5.3620   25.6100  -30.8290 C   0  0  0  0  0  0  0  0  0  0  0  0
   -4.0110   25.1940  -30.7480 O   0  0  0  0  0  0  0  0  0  0  0  0
   -3.9290   23.7880  -30.6380 C   0  0  0  0  0  0  0  0  0  0  0  0
   -4.9610   23.1590  -31.5880 C   0  0  0  0  0  0  0  0  0  0  0  0
   -4.5780   21.8350  -32.1260 N   0  0  0  0  0  0  0  0  0  0  0  0
   -3.5160   21.8880  -33.1400 C   0  0  0  0  0  0  0  0  0  0  0  0
   -3.1990   20.4830  -33.7020 C   0  0  0  0  0  0  0  0  0  0  0  0
   -4.0830   19.4010  -33.1940 N   0  0  0  0  0  0  0  0  0  0  0  0
   -5.3320   19.2160  -33.9840 C   0  0  0  0  0  0  0  0  0  0  0  0
   -6.6100   19.2800  -33.1760 C   0  0  0  0  0  0  0  0  0  0  0  0
   -7.2390   18.1020  -32.7370 C   0  0  0  0  0  0  0  0  0  0  0  0
   -8.4030   18.1700  -31.9660 C   0  0  0  0  0  0  0  0  0  0  0  0
   -8.9550   19.4100  -31.6360 C   0  0  0  0  0  0  0  0  0  0  0  0
   -8.3500   20.5860  -32.0870 C   0  0  0  0  0  0  0  0  0  0  0  0
   -9.1030   22.2810  -31.6330 Br  0  0  0  0  0  0  0  0  0  0  0  0
   -7.1880   20.5220  -32.8640 C   0  0  0  0  0  0  0  0  0  0  0  0
   -4.2900   19.4220  -31.7190 C   0  0  0  0  0  0  0  0  0  0  0  0
   -4.2720   20.8330  -31.1010 C   0  0  0  0  0  0  0  0  0  0  0  0
   -5.3844   25.6023  -28.6727 H   0  0  0  0  0  0  0  0  0  0  0  0
   -6.9584   26.0110  -29.4359 H   0  0  0  0  0  0  0  0  0  0  0  0
   -6.3745   24.3123  -29.4359 H   0  0  0  0  0  0  0  0  0  0  0  0
   -5.8706   25.0404  -31.6208 H   0  0  0  0  0  0  0  0  0  0  0  0
   -5.3929   26.6850  -31.0602 H   0  0  0  0  0  0  0  0  0  0  0  0
   -2.9184   23.4532  -30.9150 H   0  0  0  0  0  0  0  0  0  0  0  0
   -4.1359   23.4801  -29.6024 H   0  0  0  0  0  0  0  0  0  0  0  0
   -5.9076   23.0454  -31.0393 H   0  0  0  0  0  0  0  0  0  0  0  0
   -5.0409   23.8348  -32.4522 H   0  0  0  0  0  0  0  0  0  0  0  0
   -3.8419   22.5380  -33.9654 H   0  0  0  0  0  0  0  0  0  0  0  0
   -2.6056   22.2838  -32.6661 H   0  0  0  0  0  0  0  0  0  0  0  0
   -3.2972   20.5210  -34.7970 H   0  0  0  0  0  0  0  0  0  0  0  0
   -2.1800   20.2360  -33.3693 H   0  0  0  0  0  0  0  0  0  0  0  0
   -3.5490   18.5170  -33.3790 H   0  0  0  0  0  0  0  0  0  0  0  0
   -5.3720   20.0041  -34.7503 H   0  0  0  0  0  0  0  0  0  0  0  0
   -5.2835   18.2015  -34.4064 H   0  0  0  0  0  0  0  0  0  0  0  0
   -6.8135   17.1227  -33.0013 H   0  0  0  0  0  0  0  0  0  0  0  0
   -8.8855   17.2447  -31.6183 H   0  0  0  0  0  0  0  0  0  0  0  0
   -9.8658   19.4607  -31.0212 H   0  0  0  0  0  0  0  0  0  0  0  0
   -6.7246   21.4491  -33.2325 H   0  0  0  0  0  0  0  0  0  0  0  0
   -5.2648   18.9616  -31.5005 H   0  0  0  0  0  0  0  0  0  0  0  0
   -3.4496   18.8698  -31.2730 H   0  0  0  0  0  0  0  0  0  0  0  0
   -5.0246   20.8894  -30.3007 H   0  0  0  0  0  0  0  0  0  0  0  0
   -3.2720   21.0331  -30.6887 H   0  0  0  0  0  0  0  0  0  0  0  0
  1  2  1  0
  2  3  1  0
  3  4  1  0
  4  5  1  0
  5  6  1  0
  6  7  1  0
  7  8  1  0
  8  9  1  0
  9 10  1  0
 10 11  1  0
 11 12  2  0
 12 13  1  0
 13 14  2  0
 14 15  1  0
 15 16  1  0
 15 17  2  0
  9 18  1  0
 18 19  1  0
 19  6  1  0
 17 11  1  0
  1 20  1  0
  1 21  1  0
  1 22  1  0
  2 23  1  0
  2 24  1  0
  4 25  1  0
  4 26  1  0
  5 27  1  0
  5 28  1  0
  7 29  1  0
  7 30  1  0
  8 31  1  0
  8 32  1  0
  9 33  1  0
 10 34  1  0
 10 35  1  0
 12 36  1  0
 13 37  1  0
 14 38  1  0
 17 39  1  0
 18 40  1  0
 18 41  1  0
 19 42  1  0
 19 43  1  0
M  CHG  1   9   1
M  END
>  <UniqueID>  (21) 
20

>  <SMILES>  (21) 
CCOCCN1CC[NH+](Cc2cccc(Br)c2)CC1

>  <Energy>  (21) 
57.578197299817354

>  <Genealogy>  (21) 
CCOCCN1CC[NH+](Cc2cccc(Br)c2)CC1 (protonated)
CCOCCN1CC[NH+](Cc2cccc(Br)c2)CC1 (3D coordinates assigned)
CCOCCN1CC[NH+](Cc2cccc(Br)c2)CC1 (nonaromatic ring conformer: 57.578197299817354 kcal/mol)

>  <smiles>  (21) 
CCOCCN1CCN(Cc2cccc(Br)c2)CC1

>  <score_type>  (21) 
oracle

>  <origin>  (21) 
adg

>  <m_score__min__energy>  (21) 
-6.96

>  <m_primary>  (21) 
energy

$$$$
21:0
     RDKit          3D

 40 40  0  0  0  0  0  0  0  0999 V2000
   -6.1980   25.2980  -29.6780 C   0  0  0  0  0  0  0  0  0  0  0  0
   -5.2390   25.6760  -30.8020 C   0  0  0  0  0  0  0  0  0  0  0  0
   -3.9020   25.3020  -30.4710 O   0  0  0  0  0  0  0  0  0  0  0  0
   -3.5280   24.1450  -29.7670 C   0  0  0  0  0  0  0  0  0  0  0  0
   -3.1530   24.1760  -28.4080 C   0  0  0  0  0  0  0  0  0  0  0  0
   -2.8090   22.9980  -27.7450 C   0  0  0  0  0  0  0  0  0  0  0  0
   -2.8320   21.7800  -28.4240 C   0  0  0  0  0  0  0  0  0  0  0  0
   -3.1940   21.7360  -29.7720 C   0  0  0  0  0  0  0  0  0  0  0  0
   -3.5450   22.9200  -30.4540 C   0  0  0  0  0  0  0  0  0  0  0  0
   -3.9250   22.9270  -31.8070 O   0  0  0  0  0  0  0  0  0  0  0  0
   -5.2490   22.7200  -32.3070 C   0  0  0  0  0  0  0  0  0  0  0  0
   -5.6340   21.2390  -32.2540 C   0  0  0  0  0  0  0  0  0  0  0  0
   -7.0050   21.0780  -31.7150 N   0  0  0  0  0  0  0  0  0  0  0  0
   -7.9090   20.3590  -32.6450 C   0  0  0  0  0  0  0  0  0  0  0  0
   -8.7140   19.2320  -31.9840 C   0  0  0  0  0  0  0  0  0  0  0  0
   -7.5470   22.3470  -31.1790 C   0  0  0  0  0  0  0  0  0  0  0  0
   -8.7560   22.8370  -31.9760 C   0  0  0  0  0  0  0  0  0  0  0  0
   -5.7175   25.4874  -28.7068 H   0  0  0  0  0  0  0  0  0  0  0  0
   -7.1135   25.9026  -29.7582 H   0  0  0  0  0  0  0  0  0  0  0  0
   -6.4548   24.2314  -29.7582 H   0  0  0  0  0  0  0  0  0  0  0  0
   -5.5412   25.1579  -31.7241 H   0  0  0  0  0  0  0  0  0  0  0  0
   -5.2759   26.7658  -30.9471 H   0  0  0  0  0  0  0  0  0  0  0  0
   -3.1316   25.1341  -27.8680 H   0  0  0  0  0  0  0  0  0  0  0  0
   -2.5190   23.0297  -26.6844 H   0  0  0  0  0  0  0  0  0  0  0  0
   -2.5645   20.8524  -27.8968 H   0  0  0  0  0  0  0  0  0  0  0  0
   -3.2055   20.7736  -30.3046 H   0  0  0  0  0  0  0  0  0  0  0  0
   -5.9581   23.2974  -31.6956 H   0  0  0  0  0  0  0  0  0  0  0  0
   -5.2820   23.0519  -33.3552 H   0  0  0  0  0  0  0  0  0  0  0  0
   -5.5924   20.8176  -33.2692 H   0  0  0  0  0  0  0  0  0  0  0  0
   -4.9286   20.7114  -31.5952 H   0  0  0  0  0  0  0  0  0  0  0  0
   -8.6163   21.0856  -33.0712 H   0  0  0  0  0  0  0  0  0  0  0  0
   -7.2724   19.8901  -33.4098 H   0  0  0  0  0  0  0  0  0  0  0  0
   -8.6467   19.3262  -30.8901 H   0  0  0  0  0  0  0  0  0  0  0  0
   -9.7670   19.3030  -32.2940 H   0  0  0  0  0  0  0  0  0  0  0  0
   -8.3053   18.2589  -32.2940 H   0  0  0  0  0  0  0  0  0  0  0  0
   -7.8512   22.1895  -30.1337 H   0  0  0  0  0  0  0  0  0  0  0  0
   -6.7591   23.1109  -31.2541 H   0  0  0  0  0  0  0  0  0  0  0  0
   -9.5471   23.1576  -31.2822 H   0  0  0  0  0  0  0  0  0  0  0  0
   -8.4581   23.6854  -32.6097 H   0  0  0  0  0  0  0  0  0  0  0  0
   -9.1328   22.0206  -32.6097 H   0  0  0  0  0  0  0  0  0  0  0  0
  1  2  1  0
  2  3  1  0
  3  4  1  0
  4  5  2  0
  5  6  1  0
  6  7  2  0
  7  8  1  0
  8  9  2  0
  9 10  1  0
 10 11  1  0
 11 12  1  0
 12 13  1  0
 13 14  1  0
 14 15  1  0
 13 16  1  0
 16 17  1  0
  9  4  1  0
  1 18  1  0
  1 19  1  0
  1 20  1  0
  2 21  1  0
  2 22  1  0
  5 23  1  0
  6 24  1  0
  7 25  1  0
  8 26  1  0
 11 27  1  0
 11 28  1  0
 12 29  1  0
 12 30  1  0
 14 31  1  0
 14 32  1  0
 15 33  1  0
 15 34  1  0
 15 35  1  0
 16 36  1  0
 16 37  1  0
 17 38  1  0
 17 39  1  0
 17 40  1  0
M  END
>  <UniqueID>  (22) 
21

>  <SMILES>  (22) 
CCOc1ccccc1OCCN(CC)CC

>  <Energy>  (22) 
36.041047536624504

>  <Genealogy>  (22) 
CCOc1ccccc1OCCN(CC)CC (3D coordinates assigned)
CCOc1ccccc1OCCN(CC)CC (optimized conformer: 36.041047536624504 kcal/mol)

>  <smiles>  (22) 
CCOc1ccccc1OCCN(CC)CC

>  <score_type>  (22) 
oracle

>  <origin>  (22) 
adg

>  <m_score__min__energy>  (22) 
-6.29

>  <m_primary>  (22) 
energy

$$$$
22:0
     RDKit          3D

 54 56  0  0  0  0  0  0  0  0999 V2000
   -1.0510   18.5640  -33.1260 C   0  0  0  0  0  0  0  0  0  0  0  0
   -1.1400   19.2510  -34.4910 C   0  0  0  0  0  0  0  0  0  0  0  0
   -1.0690   20.7410  -34.3760 N   0  0  0  0  0  0  0  0  0  0  0  0
   -0.0130   21.2900  -35.2650 C   0  0  0  0  0  0  0  0  0  0  0  0
    1.3690   21.2890  -34.6000 C   0  0  0  0  0  0  0  0  0  0  0  0
   -0.8070   21.1700  -32.9730 C   0  0  0  0  0  0  0  0  0  0  0  0
   -2.0840   21.5910  -32.2140 C   0  0  0  0  0  0  0  0  0  0  0  0
   -3.1780   21.9330  -33.1270 N   0  0  0  0  0  0  0  0  0  0  0  0
   -4.5640   21.6890  -32.8060 C   0  0  0  0  0  0  0  0  0  0  0  0
   -5.3650   22.7420  -32.3500 C   0  0  0  0  0  0  0  0  0  0  0  0
   -6.7100   22.5460  -32.0730 C   0  0  0  0  0  0  0  0  0  0  0  0
   -7.2970   21.2770  -32.2000 C   0  0  0  0  0  0  0  0  0  0  0  0
   -8.6870   21.1240  -32.0610 O   0  0  0  0  0  0  0  0  0  0  0  0
   -9.5140   21.8890  -31.1900 C   0  0  0  0  0  0  0  0  0  0  0  0
   -6.4810   20.1550  -32.5360 C   0  0  0  0  0  0  0  0  0  0  0  0
   -5.1300   20.3930  -32.9250 C   0  0  0  0  0  0  0  0  0  0  0  0
   -4.3900   19.3360  -33.4690 C   0  0  0  0  0  0  0  0  0  0  0  0
   -4.9770   18.0910  -33.6680 C   0  0  0  0  0  0  0  0  0  0  0  0
   -4.2600   17.0740  -34.3200 C   0  0  0  0  0  0  0  0  0  0  0  0
   -4.8480   15.8310  -34.5440 C   0  0  0  0  0  0  0  0  0  0  0  0
   -6.1560   15.5940  -34.1260 C   0  0  0  0  0  0  0  0  0  0  0  0
   -6.8760   16.5940  -33.4670 C   0  0  0  0  0  0  0  0  0  0  0  0
   -6.2920   17.8590  -33.2050 C   0  0  0  0  0  0  0  0  0  0  0  0
   -6.9680   18.8550  -32.5290 N   0  0  0  0  0  0  0  0  0  0  0  0
   -8.1450   18.4950  -31.7090 C   0  0  0  0  0  0  0  0  0  0  0  0
   -1.1485   19.3166  -32.3297 H   0  0  0  0  0  0  0  0  0  0  0  0
   -1.8610   17.8255  -33.0337 H   0  0  0  0  0  0  0  0  0  0  0  0
   -0.0796   18.0563  -33.0337 H   0  0  0  0  0  0  0  0  0  0  0  0
   -0.3059   18.9034  -35.1183 H   0  0  0  0  0  0  0  0  0  0  0  0
   -2.1107   18.9913  -34.9386 H   0  0  0  0  0  0  0  0  0  0  0  0
   -1.9750   21.1770  -34.6730 H   0  0  0  0  0  0  0  0  0  0  0  0
    0.0337   20.6781  -36.1779 H   0  0  0  0  0  0  0  0  0  0  0  0
   -0.2752   22.3338  -35.4927 H   0  0  0  0  0  0  0  0  0  0  0  0
    1.2497   21.2891  -33.5065 H   0  0  0  0  0  0  0  0  0  0  0  0
    1.9236   20.3905  -34.9083 H   0  0  0  0  0  0  0  0  0  0  0  0
    1.9249   22.1867  -34.9083 H   0  0  0  0  0  0  0  0  0  0  0  0
   -0.3402   20.3328  -32.4334 H   0  0  0  0  0  0  0  0  0  0  0  0
   -0.1503   22.0512  -33.0192 H   0  0  0  0  0  0  0  0  0  0  0  0
   -2.4054   20.7586  -31.5707 H   0  0  0  0  0  0  0  0  0  0  0  0
   -1.8462   22.4850  -31.6189 H   0  0  0  0  0  0  0  0  0  0  0  0
   -2.9330   22.1390  -34.1210 H   0  0  0  0  0  0  0  0  0  0  0  0
   -4.9219   23.7389  -32.2093 H   0  0  0  0  0  0  0  0  0  0  0  0
   -7.3260   23.3978  -31.7489 H   0  0  0  0  0  0  0  0  0  0  0  0
   -9.2613   21.6552  -30.1453 H   0  0  0  0  0  0  0  0  0  0  0  0
   -9.3499   22.9607  -31.3760 H   0  0  0  0  0  0  0  0  0  0  0  0
  -10.5697   21.6420  -31.3760 H   0  0  0  0  0  0  0  0  0  0  0  0
   -3.3356   19.4917  -33.7412 H   0  0  0  0  0  0  0  0  0  0  0  0
   -3.2290   17.2600  -34.6554 H   0  0  0  0  0  0  0  0  0  0  0  0
   -4.2799   15.0369  -35.0507 H   0  0  0  0  0  0  0  0  0  0  0  0
   -6.6233   14.6164  -34.3154 H   0  0  0  0  0  0  0  0  0  0  0  0
   -7.9099   16.3970  -33.1472 H   0  0  0  0  0  0  0  0  0  0  0  0
   -7.8869   18.5739  -30.6426 H   0  0  0  0  0  0  0  0  0  0  0  0
   -8.9744   19.1805  -31.9372 H   0  0  0  0  0  0  0  0  0  0  0  0
   -8.4490   17.4628  -31.9372 H   0  0  0  0  0  0  0  0  0  0  0  0
  1  2  1  0
  2  3  1  0
  3  4  1  0
  4  5  1  0
  3  6  1  0
  6  7  1  0
  7  8  1  0
  8  9  1  0
  9 10  2  0
 10 11  1  0
 11 12  2  0
 12 13  1  0
 13 14  1  0
 12 15  1  0
 15 16  2  0
 16 17  1  0
 17 18  2  0
 18 19  1  0
 19 20  2  0
 20 21  1  0
 21 22  2  0
 22 23  1  0
 23 24  2  0
 24 25  1  0
 16  9  1  0
 23 18  1  0
 24 15  1  0
  1 26  1  0
  1 27  1  0
  1 28  1  0
  2 29  1  0
  2 30  1  0
  3 31  1  0
  4 32  1  0
  4 33  1  0
  5 34  1  0
  5 35  1  0
  5 36  1  0
  6 37  1  0
  6 38  1  0
  7 39  1  0
  7 40  1  0
  8 41  1  0
 10 42  1  0
 11 43  1  0
 14 44  1  0
 14 45  1  0
 14 46  1  0
 17 47  1  0
 19 48  1  0
 20 49  1  0
 21 50  1  0
 22 51  1  0
 25 52  1  0
 25 53  1  0
 25 54  1  0
M  CHG  2   3   1  24   1
M  END
>  <UniqueID>  (23) 
22

>  <SMILES>  (23) 
CC[NH+](CC)CCNc1ccc(OC)c2c1cc1ccccc1[n+]2C

>  <Energy>  (23) 
84.23297207338788

>  <Genealogy>  (23) 
CC[NH+](CC)CCNc1ccc(OC)c2c1cc1ccccc1[n+]2C (protonated)
CC[NH+](CC)CCNc1ccc(OC)c2c1cc1ccccc1[n+]2C (3D coordinates assigned)
CC[NH+](CC)CCNc1ccc(OC)c2c1cc1ccccc1[n+]2C (optimized conformer: 84.23297207338788 kcal/mol)

>  <smiles>  (23) 
CCN(CC)CCNc1ccc(OC)c2c1cc1ccccc1[n+]2C

>  <score_type>  (23) 
oracle

>  <origin>  (23) 
adg

>  <m_score__min__energy>  (23) 
-6.6299999999999999

>  <m_primary>  (23) 
energy

$$$$
23:0
     RDKit          3D

 55 57  0  0  0  0  0  0  0  0999 V2000
   -0.1840   19.1110  -29.0490 C   0  0  0  0  0  0  0  0  0  0  0  0
   -0.3880   18.6050  -27.6100 C   0  0  0  0  0  0  0  0  0  0  0  0
   -1.3300   19.4090  -26.7970 N   0  0  0  0  0  0  0  0  0  0  0  0
   -2.7530   19.1640  -27.1140 C   0  0  0  0  0  0  0  0  0  0  0  0
   -3.4960   18.5880  -25.9090 C   0  0  0  0  0  0  0  0  0  0  0  0
   -0.9020   21.1130  -26.7780 S   0  0  0  0  0  0  0  0  0  0  0  0
    0.5510   21.2580  -27.1370 O   0  0  0  0  0  0  0  0  0  0  0  0
   -1.0770   21.6700  -25.3920 O   0  0  0  0  0  0  0  0  0  0  0  0
   -1.8630   22.0780  -27.8980 C   0  0  0  0  0  0  0  0  0  0  0  0
   -1.2910   22.5670  -29.0790 C   0  0  0  0  0  0  0  0  0  0  0  0
   -2.0500   23.3370  -29.9650 C   0  0  0  0  0  0  0  0  0  0  0  0
   -3.4000   23.6170  -29.6850 C   0  0  0  0  0  0  0  0  0  0  0  0
   -4.2110   24.4400  -30.6130 C   0  0  0  0  0  0  0  0  0  0  0  0
   -4.2340   25.6920  -30.4690 O   0  0  0  0  0  0  0  0  0  0  0  0
   -4.9350   23.8600  -31.7050 N   0  0  0  0  0  0  0  0  0  0  0  0
   -5.9910   22.8930  -31.5950 C   0  0  0  0  0  0  0  0  0  0  0  0
   -7.3130   23.2880  -31.3210 C   0  0  0  0  0  0  0  0  0  0  0  0
   -8.3340   22.3350  -31.2490 C   0  0  0  0  0  0  0  0  0  0  0  0
   -8.0480   20.9860  -31.4640 C   0  0  0  0  0  0  0  0  0  0  0  0
   -6.7430   20.5870  -31.7590 C   0  0  0  0  0  0  0  0  0  0  0  0
   -5.7120   21.5340  -31.8290 C   0  0  0  0  0  0  0  0  0  0  0  0
   -4.3780   21.0970  -32.1200 N   0  0  0  0  0  0  0  0  0  0  0  0
   -3.7930   21.3840  -33.4290 C   0  0  0  0  0  0  0  0  0  0  0  0
   -2.2660   21.4230  -33.3070 C   0  0  0  0  0  0  0  0  0  0  0  0
   -1.7800   20.2530  -32.6760 O   0  0  0  0  0  0  0  0  0  0  0  0
   -2.2470   20.1950  -31.3400 C   0  0  0  0  0  0  0  0  0  0  0  0
   -3.7700   20.0490  -31.3020 C   0  0  0  0  0  0  0  0  0  0  0  0
   -3.9690   23.1270  -28.4980 C   0  0  0  0  0  0  0  0  0  0  0  0
   -3.2070   22.3560  -27.6160 C   0  0  0  0  0  0  0  0  0  0  0  0
    0.2272   20.1309  -29.0242 H   0  0  0  0  0  0  0  0  0  0  0  0
    0.5163   18.4460  -29.5757 H   0  0  0  0  0  0  0  0  0  0  0  0
   -1.1497   19.1177  -29.5757 H   0  0  0  0  0  0  0  0  0  0  0  0
   -0.7719   17.5754  -27.6604 H   0  0  0  0  0  0  0  0  0  0  0  0
    0.5909   18.6791  -27.1137 H   0  0  0  0  0  0  0  0  0  0  0  0
   -3.2244   20.1141  -27.4057 H   0  0  0  0  0  0  0  0  0  0  0  0
   -2.8064   18.4360  -27.9369 H   0  0  0  0  0  0  0  0  0  0  0  0
   -3.0280   18.9508  -24.9820 H   0  0  0  0  0  0  0  0  0  0  0  0
   -4.5477   18.9091  -25.9389 H   0  0  0  0  0  0  0  0  0  0  0  0
   -3.4471   17.4895  -25.9389 H   0  0  0  0  0  0  0  0  0  0  0  0
   -0.2390   22.3440  -29.3106 H   0  0  0  0  0  0  0  0  0  0  0  0
   -1.5897   23.7258  -30.8853 H   0  0  0  0  0  0  0  0  0  0  0  0
   -7.5448   24.3516  -31.1626 H   0  0  0  0  0  0  0  0  0  0  0  0
   -9.3636   22.6490  -31.0227 H   0  0  0  0  0  0  0  0  0  0  0  0
   -8.8510   20.2369  -31.4010 H   0  0  0  0  0  0  0  0  0  0  0  0
   -6.5228   19.5241  -31.9374 H   0  0  0  0  0  0  0  0  0  0  0  0
   -4.0842   20.5980  -34.1413 H   0  0  0  0  0  0  0  0  0  0  0  0
   -4.1577   22.3574  -33.7888 H   0  0  0  0  0  0  0  0  0  0  0  0
   -1.8262   21.4992  -34.3123 H   0  0  0  0  0  0  0  0  0  0  0  0
   -1.9841   22.2942  -32.6974 H   0  0  0  0  0  0  0  0  0  0  0  0
   -1.7893   19.3314  -30.8352 H   0  0  0  0  0  0  0  0  0  0  0  0
   -1.9697   21.1287  -30.8289 H   0  0  0  0  0  0  0  0  0  0  0  0
   -4.0543   19.0629  -31.6979 H   0  0  0  0  0  0  0  0  0  0  0  0
   -4.1226   20.1415  -30.2641 H   0  0  0  0  0  0  0  0  0  0  0  0
   -5.0196   23.3512  -28.2615 H   0  0  0  0  0  0  0  0  0  0  0  0
   -3.6649   21.9652  -26.6953 H   0  0  0  0  0  0  0  0  0  0  0  0
  1  2  1  0
  2  3  1  0
  3  4  1  0
  4  5  1  0
  3  6  1  0
  6  7  2  0
  6  8  2  0
  6  9  1  0
  9 10  2  0
 10 11  1  0
 11 12  2  0
 12 13  1  0
 13 14  2  0
 13 15  1  0
 15 16  1  0
 16 17  2  0
 17 18  1  0
 18 19  2  0
 19 20  1  0
 20 21  2  0
 21 22  1  0
 22 23  1  0
 23 24  1  0
 24 25  1  0
 25 26  1  0
 26 27  1  0
 12 28  1  0
 28 29  2  0
 29  9  1  0
 21 16  1  0
 27 22  1  0
  1 30  1  0
  1 31  1  0
  1 32  1  0
  2 33  1  0
  2 34  1  0
  4 35  1  0
  4 36  1  0
  5 37  1  0
  5 38  1  0
  5 39  1  0
 10 40  1  0
 11 41  1  0
 17 42  1  0
 18 43  1  0
 19 44  1  0
 20 45  1  0
 23 46  1  0
 23 47  1  0
 24 48  1  0
 24 49  1  0
 26 50  1  0
 26 51  1  0
 27 52  1  0
 27 53  1  0
 28 54  1  0
 29 55  1  0
M  CHG  1  15  -1
M  END
>  <UniqueID>  (24) 
23

>  <SMILES>  (24) 
CCN(CC)S(=O)(=O)c1ccc(C(=O)[N-]c2ccccc2N2CCOCC2)cc1

>  <Energy>  (24) 
70.98475417288776

>  <Genealogy>  (24) 
CCN(CC)S(=O)(=O)c1ccc(C(=O)[N-]c2ccccc2N2CCOCC2)cc1 (protonated)
CCN(CC)S(=O)(=O)c1ccc(C(=O)[N-]c2ccccc2N2CCOCC2)cc1 (3D coordinates assigned)
CCN(CC)S(=O)(=O)c1ccc(C(=O)[N-]c2ccccc2N2CCOCC2)cc1 (nonaromatic ring conformer: 70.98475417288776 kcal/mol)

>  <smiles>  (24) 
CCN(CC)S(=O)(=O)c1ccc(C(=O)Nc2ccccc2N2CCOCC2)cc1

>  <score_type>  (24) 
oracle

>  <origin>  (24) 
adg

>  <m_score__min__energy>  (24) 
-11.06

>  <m_primary>  (24) 
energy

$$$$
24:0
     RDKit          3D

 22 23  0  0  0  0  0  0  0  0999 V2000
   -1.8140   25.4550  -28.9510 O   0  0  0  0  0  0  0  0  0  0  0  0
   -2.5490   24.5620  -29.4470 C   0  0  0  0  0  0  0  0  0  0  0  0
   -3.4910   24.9290  -30.4630 N   0  0  0  0  0  0  0  0  0  0  0  0
   -4.7300   24.2610  -30.7410 C   0  0  0  0  0  0  0  0  0  0  0  0
   -5.9560   24.7490  -30.2530 C   0  0  0  0  0  0  0  0  0  0  0  0
   -7.1440   24.0620  -30.5210 C   0  0  0  0  0  0  0  0  0  0  0  0
   -7.1150   22.8780  -31.2640 C   0  0  0  0  0  0  0  0  0  0  0  0
   -8.7380   21.9390  -31.6290 Br  0  0  0  0  0  0  0  0  0  0  0  0
   -5.8960   22.3760  -31.7310 C   0  0  0  0  0  0  0  0  0  0  0  0
   -4.7070   23.0620  -31.4640 C   0  0  0  0  0  0  0  0  0  0  0  0
   -2.4690   23.1850  -28.9200 C   0  0  0  0  0  0  0  0  0  0  0  0
   -3.3950   22.5900  -28.0710 C   0  0  0  0  0  0  0  0  0  0  0  0
   -3.0960   21.2550  -27.7720 C   0  0  0  0  0  0  0  0  0  0  0  0
   -1.9430   20.7890  -28.3900 C   0  0  0  0  0  0  0  0  0  0  0  0
   -1.3000   22.0370  -29.3130 S   0  0  0  0  0  0  0  0  0  0  0  0
   -5.9801   25.6742  -29.6585 H   0  0  0  0  0  0  0  0  0  0  0  0
   -8.1017   24.4532  -30.1471 H   0  0  0  0  0  0  0  0  0  0  0  0
   -5.8725   21.4404  -32.3090 H   0  0  0  0  0  0  0  0  0  0  0  0
   -3.7492   22.6579  -31.8236 H   0  0  0  0  0  0  0  0  0  0  0  0
   -4.2756   23.1158  -27.6734 H   0  0  0  0  0  0  0  0  0  0  0  0
   -3.7164   20.6336  -27.1095 H   0  0  0  0  0  0  0  0  0  0  0  0
   -1.5230   19.7771  -28.2921 H   0  0  0  0  0  0  0  0  0  0  0  0
  1  2  2  0
  2  3  1  0
  3  4  1  0
  4  5  2  0
  5  6  1  0
  6  7  2  0
  7  8  1  0
  7  9  1  0
  9 10  2  0
  2 11  1  0
 11 12  2  0
 12 13  1  0
 13 14  2  0
 14 15  1  0
 10  4  1  0
 15 11  1  0
  5 16  1  0
  6 17  1  0
  9 18  1  0
 10 19  1  0
 12 20  1  0
 13 21  1  0
 14 22  1  0
M  CHG  1   3  -1
M  END
>  <UniqueID>  (25) 
24

>  <SMILES>  (25) 
O=C([N-]c1ccc(Br)cc1)c1cccs1

>  <Energy>  (25) 
53.86009073108656

>  <Genealogy>  (25) 
O=C([N-]c1ccc(Br)cc1)c1cccs1 (protonated)
O=C([N-]c1ccc(Br)cc1)c1cccs1 (3D coordinates assigned)
O=C([N-]c1ccc(Br)cc1)c1cccs1 (optimized conformer: 53.86009073108656 kcal/mol)

>  <smiles>  (25) 
O=C(Nc1ccc(Br)cc1)c1cccs1

>  <score_type>  (25) 
oracle

>  <origin>  (25) 
adg

>  <m_score__min__energy>  (25) 
-8.2300000000000004

>  <m_primary>  (25) 
energy

$$$$
25:0
     RDKit          3D

 69 71  0  0  0  0  0  0  0  0999 V2000
   -6.1250   17.0380  -31.7860 C   0  0  0  0  0  0  0  0  0  0  0  0
   -5.3590   16.6220  -33.0410 C   0  0  0  0  0  0  0  0  0  0  0  0
   -4.9060   17.8130  -33.7890 N   0  0  0  0  0  0  0  0  0  0  0  0
   -5.7880   18.0430  -34.9470 C   0  0  0  0  0  0  0  0  0  0  0  0
   -3.4980   17.6810  -34.2300 C   0  0  0  0  0  0  0  0  0  0  0  0
   -2.6960   18.9090  -33.7870 C   0  0  0  0  0  0  0  0  0  0  0  0
   -3.6250   20.0690  -33.4050 C   0  0  0  0  0  0  0  0  0  0  0  0
   -4.1940   19.8720  -32.0600 N   0  0  0  0  0  0  0  0  0  0  0  0
   -4.9460   21.0480  -31.6480 C   0  0  0  0  0  0  0  0  0  0  0  0
   -6.3570   21.1000  -31.7980 C   0  0  0  0  0  0  0  0  0  0  0  0
   -7.0750   20.0780  -32.4690 C   0  0  0  0  0  0  0  0  0  0  0  0
   -8.4660   20.0940  -32.5230 C   0  0  0  0  0  0  0  0  0  0  0  0
   -9.1750   21.1170  -31.9130 C   0  0  0  0  0  0  0  0  0  0  0  0
   -8.4970   22.1620  -31.2930 C   0  0  0  0  0  0  0  0  0  0  0  0
   -7.0780   22.2100  -31.2700 C   0  0  0  0  0  0  0  0  0  0  0  0
   -6.4040   23.2950  -30.7430 N   0  0  0  0  0  0  0  0  0  0  0  0
   -7.1370   24.5540  -30.4720 C   0  0  0  0  0  0  0  0  0  0  0  0
   -5.0420   23.2320  -30.5260 C   0  0  0  0  0  0  0  0  0  0  0  0
   -4.3640   24.2340  -29.7830 C   0  0  0  0  0  0  0  0  0  0  0  0
   -2.9740   24.2480  -29.6660 C   0  0  0  0  0  0  0  0  0  0  0  0
   -2.3750   25.2960  -28.9460 O   0  0  0  0  0  0  0  0  0  0  0  0
   -1.3670   25.1450  -27.9450 C   0  0  0  0  0  0  0  0  0  0  0  0
   -1.9150   25.5700  -26.5630 C   0  0  0  0  0  0  0  0  0  0  0  0
   -0.8800   25.7920  -25.5080 N   0  0  0  0  0  0  0  0  0  0  0  0
    0.3520   26.2810  -26.1730 C   0  0  0  0  0  0  0  0  0  0  0  0
   -0.5570   24.5280  -24.8000 C   0  0  0  0  0  0  0  0  0  0  0  0
   -1.3200   26.8130  -24.5280 C   0  0  0  0  0  0  0  0  0  0  0  0
   -2.2300   23.2290  -30.2670 C   0  0  0  0  0  0  0  0  0  0  0  0
   -2.8710   22.1960  -30.9430 C   0  0  0  0  0  0  0  0  0  0  0  0
   -4.2820   22.1470  -31.0420 C   0  0  0  0  0  0  0  0  0  0  0  0
   -5.5603   16.7313  -30.8932 H   0  0  0  0  0  0  0  0  0  0  0  0
   -6.2544   18.1303  -31.7807 H   0  0  0  0  0  0  0  0  0  0  0  0
   -7.1117   16.5518  -31.7807 H   0  0  0  0  0  0  0  0  0  0  0  0
   -4.4836   16.0233  -32.7491 H   0  0  0  0  0  0  0  0  0  0  0  0
   -6.0257   16.0297  -33.6849 H   0  0  0  0  0  0  0  0  0  0  0  0
   -6.7960   18.3059  -34.5937 H   0  0  0  0  0  0  0  0  0  0  0  0
   -5.3865   18.8665  -35.5558 H   0  0  0  0  0  0  0  0  0  0  0  0
   -5.8398   17.1283  -35.5558 H   0  0  0  0  0  0  0  0  0  0  0  0
   -3.0587   16.7774  -33.7823 H   0  0  0  0  0  0  0  0  0  0  0  0
   -3.4675   17.6047  -35.3269 H   0  0  0  0  0  0  0  0  0  0  0  0
   -2.0802   18.6405  -32.9160 H   0  0  0  0  0  0  0  0  0  0  0  0
   -2.0613   19.2320  -34.6253 H   0  0  0  0  0  0  0  0  0  0  0  0
   -3.0518   21.0078  -33.4187 H   0  0  0  0  0  0  0  0  0  0  0  0
   -4.4503   20.1094  -34.1311 H   0  0  0  0  0  0  0  0  0  0  0  0
   -3.4490   19.6520  -31.3620 H   0  0  0  0  0  0  0  0  0  0  0  0
   -4.7830   19.0100  -32.0430 H   0  0  0  0  0  0  0  0  0  0  0  0
   -6.5240   19.2592  -32.9548 H   0  0  0  0  0  0  0  0  0  0  0  0
   -9.0038   19.2928  -33.0511 H   0  0  0  0  0  0  0  0  0  0  0  0
  -10.2749   21.1027  -31.9191 H   0  0  0  0  0  0  0  0  0  0  0  0
   -9.0716   22.9668  -30.8112 H   0  0  0  0  0  0  0  0  0  0  0  0
   -7.2229   24.7016  -29.3853 H   0  0  0  0  0  0  0  0  0  0  0  0
   -6.5899   25.3994  -30.9147 H   0  0  0  0  0  0  0  0  0  0  0  0
   -8.1423   24.4956  -30.9147 H   0  0  0  0  0  0  0  0  0  0  0  0
   -4.9507   25.0207  -29.2861 H   0  0  0  0  0  0  0  0  0  0  0  0
   -1.0528   24.0917  -27.9025 H   0  0  0  0  0  0  0  0  0  0  0  0
   -0.5093   25.7841  -28.2017 H   0  0  0  0  0  0  0  0  0  0  0  0
   -2.4749   26.5079  -26.6929 H   0  0  0  0  0  0  0  0  0  0  0  0
   -2.5351   24.7327  -26.2103 H   0  0  0  0  0  0  0  0  0  0  0  0
    1.0889   26.5735  -25.4105 H   0  0  0  0  0  0  0  0  0  0  0  0
    0.7718   25.4813  -26.8009 H   0  0  0  0  0  0  0  0  0  0  0  0
    0.1091   27.1509  -26.8009 H   0  0  0  0  0  0  0  0  0  0  0  0
   -0.5997   24.6950  -23.7136 H   0  0  0  0  0  0  0  0  0  0  0  0
   -1.2862   23.7538  -25.0809 H   0  0  0  0  0  0  0  0  0  0  0  0
    0.4542   24.1985  -25.0809 H   0  0  0  0  0  0  0  0  0  0  0  0
   -1.1575   26.4358  -23.5076 H   0  0  0  0  0  0  0  0  0  0  0  0
   -0.7397   27.7359  -24.6745 H   0  0  0  0  0  0  0  0  0  0  0  0
   -2.3894   27.0250  -24.6745 H   0  0  0  0  0  0  0  0  0  0  0  0
   -1.1318   23.2439  -30.2052 H   0  0  0  0  0  0  0  0  0  0  0  0
   -2.2696   21.4019  -31.4096 H   0  0  0  0  0  0  0  0  0  0  0  0
  1  2  1  0
  2  3  1  0
  3  4  1  0
  3  5  1  0
  5  6  1  0
  6  7  1  0
  7  8  1  0
  8  9  1  0
  9 10  2  0
 10 11  1  0
 11 12  2  0
 12 13  1  0
 13 14  2  0
 14 15  1  0
 15 16  2  0
 16 17  1  0
 16 18  1  0
 18 19  2  0
 19 20  1  0
 20 21  1  0
 21 22  1  0
 22 23  1  0
 23 24  1  0
 24 25  1  0
 24 26  1  0
 24 27  1  0
 20 28  2  0
 28 29  1  0
 29 30  2  0
 30  9  1  0
 15 10  1  0
 30 18  1  0
  1 31  1  0
  1 32  1  0
  1 33  1  0
  2 34  1  0
  2 35  1  0
  4 36  1  0
  4 37  1  0
  4 38  1  0
  5 39  1  0
  5 40  1  0
  6 41  1  0
  6 42  1  0
  7 43  1  0
  7 44  1  0
  8 45  1  0
  8 46  1  0
 11 47  1  0
 12 48  1  0
 13 49  1  0
 14 50  1  0
 17 51  1  0
 17 52  1  0
 17 53  1  0
 19 54  1  0
 22 55  1  0
 22 56  1  0
 23 57  1  0
 23 58  1  0
 25 59  1  0
 25 60  1  0
 25 61  1  0
 26 62  1  0
 26 63  1  0
 26 64  1  0
 27 65  1  0
 27 66  1  0
 27 67  1  0
 28 68  1  0
 29 69  1  0
M  CHG  3   8   1  16   1  24   1
M  END
>  <UniqueID>  (26) 
25

>  <SMILES>  (26) 
CCN(C)CCC[NH2+]c1c2ccccc2[n+](C)c2cc(OCC[N+](C)(C)C)ccc12

>  <Energy>  (26) 
100.44302969673187

>  <Genealogy>  (26) 
CCN(C)CCC[NH2+]c1c2ccccc2[n+](C)c2cc(OCC[N+](C)(C)C)ccc12 (protonated)
CCN(C)CCC[NH2+]c1c2ccccc2[n+](C)c2cc(OCC[N+](C)(C)C)ccc12 (3D coordinates assigned)
CCN(C)CCC[NH2+]c1c2ccccc2[n+](C)c2cc(OCC[N+](C)(C)C)ccc12 (optimized conformer: 100.44302969673187 kcal/mol)

>  <smiles>  (26) 
CCN(C)CCCNc1c2ccccc2[n+](C)c2cc(OCC[N+](C)(C)C)ccc12

>  <score_type>  (26) 
oracle

>  <origin>  (26) 
adg

>  <m_score__min__energy>  (26) 
-7.5800000000000001

>  <m_primary>  (26) 
energy

$$$$
26:0
     RDKit          3D

 83 87  0  0  0  0  0  0  0  0999 V2000
    0.5750   27.4160  -23.3440 C   0  0  0  0  0  0  0  0  0  0  0  0
   -0.7280   27.4430  -24.1480 C   0  0  0  0  0  0  0  0  0  0  0  0
   -1.1780   26.0800  -24.5260 N   0  0  0  0  0  0  0  0  0  0  0  0
   -0.0280   25.1540  -24.6840 C   0  0  0  0  0  0  0  0  0  0  0  0
   -0.4510   23.6950  -24.4870 C   0  0  0  0  0  0  0  0  0  0  0  0
   -2.0130   26.1270  -25.7570 C   0  0  0  0  0  0  0  0  0  0  0  0
   -1.2250   26.7310  -26.9220 C   0  0  0  0  0  0  0  0  0  0  0  0
   -1.5400   26.0750  -28.1510 O   0  0  0  0  0  0  0  0  0  0  0  0
   -1.2050   24.7550  -28.4990 C   0  0  0  0  0  0  0  0  0  0  0  0
   -0.1190   24.0710  -27.9220 C   0  0  0  0  0  0  0  0  0  0  0  0
    0.1590   22.7530  -28.2830 C   0  0  0  0  0  0  0  0  0  0  0  0
   -0.6290   22.0880  -29.2350 C   0  0  0  0  0  0  0  0  0  0  0  0
   -0.3430   20.6700  -29.5800 C   0  0  0  0  0  0  0  0  0  0  0  0
   -0.4670   20.0790  -30.8450 C   0  0  0  0  0  0  0  0  0  0  0  0
   -0.1370   18.7190  -30.8430 C   0  0  0  0  0  0  0  0  0  0  0  0
   -0.1600   17.8590  -31.9390 C   0  0  0  0  0  0  0  0  0  0  0  0
    0.1970   16.5180  -31.7440 C   0  0  0  0  0  0  0  0  0  0  0  0
    0.5740   16.0720  -30.4640 C   0  0  0  0  0  0  0  0  0  0  0  0
    0.5970   16.9350  -29.3970 N   0  0  0  0  0  0  0  0  0  0  0  0
    0.9730   16.4620  -28.0620 C   0  0  0  0  0  0  0  0  0  0  0  0
    0.2390   18.2380  -29.6010 C   0  0  0  0  0  0  0  0  0  0  0  0
    0.1720   19.4860  -28.4750 S   0  0  0  0  0  0  0  0  0  0  0  0
   -1.6980   22.7810  -29.8320 C   0  0  0  0  0  0  0  0  0  0  0  0
   -1.9850   24.1120  -29.4710 C   0  0  0  0  0  0  0  0  0  0  0  0
   -3.0410   24.8290  -30.0520 O   0  0  0  0  0  0  0  0  0  0  0  0
   -4.3860   24.8170  -29.5790 C   0  0  0  0  0  0  0  0  0  0  0  0
   -4.7840   23.3800  -29.2390 C   0  0  0  0  0  0  0  0  0  0  0  0
   -6.1800   23.0080  -29.7650 C   0  0  0  0  0  0  0  0  0  0  0  0
   -6.6720   23.9780  -30.8520 C   0  0  0  0  0  0  0  0  0  0  0  0
   -6.5080   23.4050  -32.1510 O   0  0  0  0  0  0  0  0  0  0  0  0
   -6.0370   22.1080  -32.4250 C   0  0  0  0  0  0  0  0  0  0  0  0
   -4.6810   21.8480  -32.7120 C   0  0  0  0  0  0  0  0  0  0  0  0
   -4.2380   20.5410  -32.9820 C   0  0  0  0  0  0  0  0  0  0  0  0
   -2.8970   20.2470  -33.2750 O   0  0  0  0  0  0  0  0  0  0  0  0
   -1.8960   21.2230  -33.5470 C   0  0  0  0  0  0  0  0  0  0  0  0
   -5.1550   19.4880  -32.9630 C   0  0  0  0  0  0  0  0  0  0  0  0
   -6.5070   19.7240  -32.6810 C   0  0  0  0  0  0  0  0  0  0  0  0
   -7.4300   18.6710  -32.6690 C   0  0  0  0  0  0  0  0  0  0  0  0
   -8.7700   18.9250  -32.3840 C   0  0  0  0  0  0  0  0  0  0  0  0
   -9.1790   20.2310  -32.1130 C   0  0  0  0  0  0  0  0  0  0  0  0
   -8.2790   21.2520  -32.1280 N   0  0  0  0  0  0  0  0  0  0  0  0
   -6.9550   21.0370  -32.4040 C   0  0  0  0  0  0  0  0  0  0  0  0
    0.3426   27.4208  -22.2688 H   0  0  0  0  0  0  0  0  0  0  0  0
    1.1406   26.5059  -23.5928 H   0  0  0  0  0  0  0  0  0  0  0  0
    1.1778   28.3018  -23.5928 H   0  0  0  0  0  0  0  0  0  0  0  0
   -1.5108   27.9191  -23.5393 H   0  0  0  0  0  0  0  0  0  0  0  0
   -0.5438   28.0082  -25.0735 H   0  0  0  0  0  0  0  0  0  0  0  0
    0.3895   25.2718  -25.6949 H   0  0  0  0  0  0  0  0  0  0  0  0
    0.7225   25.4021  -23.9191 H   0  0  0  0  0  0  0  0  0  0  0  0
   -0.5151   23.4739  -23.4114 H   0  0  0  0  0  0  0  0  0  0  0  0
   -1.4334   23.5318  -24.9541 H   0  0  0  0  0  0  0  0  0  0  0  0
    0.2918   23.0316  -24.9541 H   0  0  0  0  0  0  0  0  0  0  0  0
   -2.3235   25.1056  -26.0220 H   0  0  0  0  0  0  0  0  0  0  0  0
   -2.8947   26.7554  -25.5627 H   0  0  0  0  0  0  0  0  0  0  0  0
   -1.4756   27.7984  -27.0101 H   0  0  0  0  0  0  0  0  0  0  0  0
   -0.1512   26.6011  -26.7220 H   0  0  0  0  0  0  0  0  0  0  0  0
    0.5152   24.5796  -27.1809 H   0  0  0  0  0  0  0  0  0  0  0  0
    1.0057   22.2285  -27.8161 H   0  0  0  0  0  0  0  0  0  0  0  0
   -0.7893   20.6258  -31.7434 H   0  0  0  0  0  0  0  0  0  0  0  0
   -0.4518   18.2244  -32.9347 H   0  0  0  0  0  0  0  0  0  0  0  0
    0.1825   15.8153  -32.5902 H   0  0  0  0  0  0  0  0  0  0  0  0
    0.8538   15.0185  -30.3165 H   0  0  0  0  0  0  0  0  0  0  0  0
    0.4791   17.0833  -27.3003 H   0  0  0  0  0  0  0  0  0  0  0  0
    0.6580   15.4150  -27.9418 H   0  0  0  0  0  0  0  0  0  0  0  0
    2.0641   16.5327  -27.9418 H   0  0  0  0  0  0  0  0  0  0  0  0
   -2.3168   22.2776  -30.5894 H   0  0  0  0  0  0  0  0  0  0  0  0
   -4.4655   25.4441  -28.6787 H   0  0  0  0  0  0  0  0  0  0  0  0
   -5.0558   25.2130  -30.3565 H   0  0  0  0  0  0  0  0  0  0  0  0
   -4.0467   22.6963  -29.6850 H   0  0  0  0  0  0  0  0  0  0  0  0
   -4.8095   23.2940  -28.1427 H   0  0  0  0  0  0  0  0  0  0  0  0
   -6.1397   21.9935  -30.1882 H   0  0  0  0  0  0  0  0  0  0  0  0
   -6.8833   23.0638  -28.9211 H   0  0  0  0  0  0  0  0  0  0  0  0
   -7.7371   24.1970  -30.6856 H   0  0  0  0  0  0  0  0  0  0  0  0
   -6.0793   24.9030  -30.7957 H   0  0  0  0  0  0  0  0  0  0  0  0
   -3.9601   22.6788  -32.7248 H   0  0  0  0  0  0  0  0  0  0  0  0
   -1.4965   21.6125  -32.5990 H   0  0  0  0  0  0  0  0  0  0  0  0
   -1.0822   20.7621  -34.1260 H   0  0  0  0  0  0  0  0  0  0  0  0
   -2.3362   22.0482  -34.1260 H   0  0  0  0  0  0  0  0  0  0  0  0
   -4.8127   18.4636  -33.1714 H   0  0  0  0  0  0  0  0  0  0  0  0
   -7.0976   17.6448  -32.8843 H   0  0  0  0  0  0  0  0  0  0  0  0
   -9.4998   18.1021  -32.3728 H   0  0  0  0  0  0  0  0  0  0  0  0
  -10.2354   20.4369  -31.8858 H   0  0  0  0  0  0  0  0  0  0  0  0
   -8.6350   22.2120  -31.9220 H   0  0  0  0  0  0  0  0  0  0  0  0
  1  2  1  0
  2  3  1  0
  3  4  1  0
  4  5  1  0
  3  6  1  0
  6  7  1  0
  7  8  1  0
  8  9  1  0
  9 10  2  0
 10 11  1  0
 11 12  2  0
 12 13  1  0
 13 14  2  0
 14 15  1  0
 15 16  2  0
 16 17  1  0
 17 18  2  0
 18 19  1  0
 19 20  1  0
 19 21  2  0
 21 22  1  0
 12 23  1  0
 23 24  2  0
 24 25  1  0
 25 26  1  0
 26 27  1  0
 27 28  1  0
 28 29  1  0
 29 30  1  0
 30 31  1  0
 31 32  2  0
 32 33  1  0
 33 34  1  0
 34 35  1  0
 33 36  2  0
 36 37  1  0
 37 38  2  0
 38 39  1  0
 39 40  2  0
 40 41  1  0
 41 42  2  0
 24  9  1  0
 42 31  1  0
 22 13  1  0
 42 37  1  0
 21 15  1  0
  1 43  1  0
  1 44  1  0
  1 45  1  0
  2 46  1  0
  2 47  1  0
  4 48  1  0
  4 49  1  0
  5 50  1  0
  5 51  1  0
  5 52  1  0
  6 53  1  0
  6 54  1  0
  7 55  1  0
  7 56  1  0
 10 57  1  0
 11 58  1  0
 14 59  1  0
 16 60  1  0
 17 61  1  0
 18 62  1  0
 20 63  1  0
 20 64  1  0
 20 65  1  0
 23 66  1  0
 26 67  1  0
 26 68  1  0
 27 69  1  0
 27 70  1  0
 28 71  1  0
 28 72  1  0
 29 73  1  0
 29 74  1  0
 32 75  1  0
 35 76  1  0
 35 77  1  0
 35 78  1  0
 36 79  1  0
 38 80  1  0
 39 81  1  0
 40 82  1  0
 41 83  1  0
M  CHG  2  19   1  41   1
M  END
>  <UniqueID>  (27) 
26

>  <SMILES>  (27) 
CCN(CC)CCOc1ccc(-c2cc3ccc[n+](C)c3s2)cc1OCCCCOc1cc(OC)cc2ccc[nH+]c12

>  <Energy>  (27) 
120.53052070576608

>  <Genealogy>  (27) 
CCN(CC)CCOc1ccc(-c2cc3ccc[n+](C)c3s2)cc1OCCCCOc1cc(OC)cc2ccc[nH+]c12 (protonated)
CCN(CC)CCOc1ccc(-c2cc3ccc[n+](C)c3s2)cc1OCCCCOc1cc(OC)cc2ccc[nH+]c12 (3D coordinates assigned)
CCN(CC)CCOc1ccc(-c2cc3ccc[n+](C)c3s2)cc1OCCCCOc1cc(OC)cc2ccc[nH+]c12 (optimized conformer: 120.53052070576608 kcal/mol)

>  <smiles>  (27) 
CCN(CC)CCOc1ccc(-c2cc3ccc[n+](C)c3s2)cc1OCCCCOc1cc(OC)cc2cccnc12

>  <score_type>  (27) 
oracle

>  <origin>  (27) 
adg

>  <m_score__min__energy>  (27) 
-8.5

>  <m_primary>  (27) 
energy

$$$$
27:0
     RDKit          3D

 38 40  0  0  0  0  0  0  0  0999 V2000
   -5.9130   15.9050  -33.6450 C   0  0  0  0  0  0  0  0  0  0  0  0
   -5.8060   17.3530  -33.4020 N   0  0  0  0  0  0  0  0  0  0  0  0
   -6.8980   18.0530  -32.9410 C   0  0  0  0  0  0  0  0  0  0  0  0
   -7.9870   17.4710  -32.6860 O   0  0  0  0  0  0  0  0  0  0  0  0
   -6.7740   19.4260  -32.7660 C   0  0  0  0  0  0  0  0  0  0  0  0
   -5.6030   20.0470  -33.0440 C   0  0  0  0  0  0  0  0  0  0  0  0
   -5.6840   21.3650  -32.7790 N   0  0  0  0  0  0  0  0  0  0  0  0
   -6.9560   21.5000  -32.3230 C   0  0  0  0  0  0  0  0  0  0  0  0
   -7.5840   23.0680  -31.7130 S   0  0  0  0  0  0  0  0  0  0  0  0
   -6.0100   23.9700  -31.9540 C   0  0  0  0  0  0  0  0  0  0  0  0
   -5.0640   23.7530  -30.7970 C   0  0  0  0  0  0  0  0  0  0  0  0
   -4.0100   22.8320  -30.9340 C   0  0  0  0  0  0  0  0  0  0  0  0
   -3.0800   22.6590  -29.9070 C   0  0  0  0  0  0  0  0  0  0  0  0
   -3.1940   23.3990  -28.7280 C   0  0  0  0  0  0  0  0  0  0  0  0
   -2.0190   23.1860  -27.4440 Cl  0  0  0  0  0  0  0  0  0  0  0  0
   -4.2430   24.3100  -28.5740 C   0  0  0  0  0  0  0  0  0  0  0  0
   -5.1770   24.4940  -29.6010 C   0  0  0  0  0  0  0  0  0  0  0  0
   -6.4690   25.6640  -29.3540 Cl  0  0  0  0  0  0  0  0  0  0  0  0
   -7.6570   20.3360  -32.3150 N   0  0  0  0  0  0  0  0  0  0  0  0
   -9.0150   20.1040  -31.8250 C   0  0  0  0  0  0  0  0  0  0  0  0
   -4.5100   19.3740  -33.4910 N   0  0  0  0  0  0  0  0  0  0  0  0
   -3.2650   20.0900  -33.8000 C   0  0  0  0  0  0  0  0  0  0  0  0
   -4.6290   18.0180  -33.7060 C   0  0  0  0  0  0  0  0  0  0  0  0
   -3.6520   17.3760  -34.1870 O   0  0  0  0  0  0  0  0  0  0  0  0
   -5.9523   15.3736  -32.6827 H   0  0  0  0  0  0  0  0  0  0  0  0
   -6.8290   15.6959  -34.2170 H   0  0  0  0  0  0  0  0  0  0  0  0
   -5.0376   15.5635  -34.2170 H   0  0  0  0  0  0  0  0  0  0  0  0
   -5.5318   23.6134  -32.8782 H   0  0  0  0  0  0  0  0  0  0  0  0
   -6.2350   25.0448  -32.0185 H   0  0  0  0  0  0  0  0  0  0  0  0
   -3.9175   22.2428  -31.8583 H   0  0  0  0  0  0  0  0  0  0  0  0
   -2.2568   21.9392  -30.0266 H   0  0  0  0  0  0  0  0  0  0  0  0
   -4.3353   24.8854  -27.6411 H   0  0  0  0  0  0  0  0  0  0  0  0
   -9.0130   20.1043  -30.7250 H   0  0  0  0  0  0  0  0  0  0  0  0
   -9.6781   20.9019  -32.1907 H   0  0  0  0  0  0  0  0  0  0  0  0
   -9.3756   19.1312  -32.1907 H   0  0  0  0  0  0  0  0  0  0  0  0
   -2.7652   20.3775  -32.8632 H   0  0  0  0  0  0  0  0  0  0  0  0
   -2.6010   19.4358  -34.3841 H   0  0  0  0  0  0  0  0  0  0  0  0
   -3.4966   20.9929  -34.3841 H   0  0  0  0  0  0  0  0  0  0  0  0
  1  2  1  0
  2  3  1  0
  3  4  2  0
  3  5  1  0
  5  6  2  0
  6  7  1  0
  7  8  2  0
  8  9  1  0
  9 10  1  0
 10 11  1  0
 11 12  2  0
 12 13  1  0
 13 14  2  0
 14 15  1  0
 14 16  1  0
 16 17  2  0
 17 18  1  0
  8 19  1  0
 19 20  1  0
  6 21  1  0
 21 22  1  0
 21 23  1  0
 23 24  2  0
 23  2  1  0
 19  5  1  0
 17 11  1  0
  1 25  1  0
  1 26  1  0
  1 27  1  0
 10 28  1  0
 10 29  1  0
 12 30  1  0
 13 31  1  0
 16 32  1  0
 20 33  1  0
 20 34  1  0
 20 35  1  0
 22 36  1  0
 22 37  1  0
 22 38  1  0
M  END
>  <UniqueID>  (28) 
27

>  <SMILES>  (28) 
Cn1c(=O)c2c(nc(SCc3ccc(Cl)cc3Cl)n2C)n(C)c1=O

>  <Energy>  (28) 
81.02117551140067

>  <Genealogy>  (28) 
Cn1c(=O)c2c(nc(SCc3ccc(Cl)cc3Cl)n2C)n(C)c1=O (3D coordinates assigned)
Cn1c(=O)c2c(nc(SCc3ccc(Cl)cc3Cl)n2C)n(C)c1=O (optimized conformer: 81.02117551140067 kcal/mol)

>  <smiles>  (28) 
Cn1c(=O)c2c(nc(SCc3ccc(Cl)cc3Cl)n2C)n(C)c1=O

>  <score_type>  (28) 
oracle

>  <origin>  (28) 
adg

>  <m_score__min__energy>  (28) 
-7.8799999999999999

>  <m_primary>  (28) 
energy

$$$$
28:0
     RDKit          3D

 56 59  0  0  0  0  0  0  0  0999 V2000
   -3.7670   23.3360  -28.1820 C   0  0  0  0  0  0  0  0  0  0  0  0
   -3.3610   24.5190  -29.0760 C   0  0  0  0  0  0  0  0  0  0  0  0
   -3.8640   24.3720  -30.4680 N   0  0  0  0  0  0  0  0  0  0  0  0
   -4.9970   25.2860  -30.7610 C   0  0  0  0  0  0  0  0  0  0  0  0
   -6.1060   25.2630  -29.7000 C   0  0  0  0  0  0  0  0  0  0  0  0
   -4.2510   22.9680  -30.7710 C   0  0  0  0  0  0  0  0  0  0  0  0
   -3.4740   22.4470  -31.9920 C   0  0  0  0  0  0  0  0  0  0  0  0
   -4.3930   22.0880  -33.0710 N   0  0  0  0  0  0  0  0  0  0  0  0
   -5.4640   21.1590  -32.8230 C   0  0  0  0  0  0  0  0  0  0  0  0
   -6.7600   21.5680  -32.4190 C   0  0  0  0  0  0  0  0  0  0  0  0
   -7.0320   22.9230  -32.1460 C   0  0  0  0  0  0  0  0  0  0  0  0
   -8.3140   23.3360  -31.7910 C   0  0  0  0  0  0  0  0  0  0  0  0
   -9.3470   22.4090  -31.6990 C   0  0  0  0  0  0  0  0  0  0  0  0
   -9.1050   21.0530  -31.9340 C   0  0  0  0  0  0  0  0  0  0  0  0
   -7.8040   20.5840  -32.2680 C   0  0  0  0  0  0  0  0  0  0  0  0
   -7.5240   19.2290  -32.4550 N   0  0  0  0  0  0  0  0  0  0  0  0
   -8.5340   18.1690  -32.2440 C   0  0  0  0  0  0  0  0  0  0  0  0
   -6.2570   18.8820  -32.8620 C   0  0  0  0  0  0  0  0  0  0  0  0
   -5.6760   17.6510  -33.1930 C   0  0  0  0  0  0  0  0  0  0  0  0
   -4.3490   17.9530  -33.4790 C   0  0  0  0  0  0  0  0  0  0  0  0
   -4.1260   19.2370  -33.3920 O   0  0  0  0  0  0  0  0  0  0  0  0
   -5.2500   19.8110  -33.0230 C   0  0  0  0  0  0  0  0  0  0  0  0
   -3.3200   16.9360  -33.8750 C   0  0  0  0  0  0  0  0  0  0  0  0
   -3.7760   15.5160  -33.4950 C   0  0  0  0  0  0  0  0  0  0  0  0
   -5.2440   15.2740  -33.9010 C   0  0  0  0  0  0  0  0  0  0  0  0
   -6.2080   16.2430  -33.1800 C   0  0  0  0  0  0  0  0  0  0  0  0
   -3.6681   23.6243  -27.1251 H   0  0  0  0  0  0  0  0  0  0  0  0
   -4.8112   23.0602  -28.3906 H   0  0  0  0  0  0  0  0  0  0  0  0
   -3.1122   22.4771  -28.3906 H   0  0  0  0  0  0  0  0  0  0  0  0
   -3.7725   25.4445  -28.6469 H   0  0  0  0  0  0  0  0  0  0  0  0
   -2.2622   24.5494  -29.1162 H   0  0  0  0  0  0  0  0  0  0  0  0
   -4.6054   26.3116  -30.8304 H   0  0  0  0  0  0  0  0  0  0  0  0
   -5.4493   24.9416  -31.7027 H   0  0  0  0  0  0  0  0  0  0  0  0
   -5.6542   25.2724  -28.6971 H   0  0  0  0  0  0  0  0  0  0  0  0
   -6.7479   26.1480  -29.8213 H   0  0  0  0  0  0  0  0  0  0  0  0
   -6.7106   24.3521  -29.8213 H   0  0  0  0  0  0  0  0  0  0  0  0
   -4.0251   22.3343  -29.9007 H   0  0  0  0  0  0  0  0  0  0  0  0
   -5.3277   22.9358  -30.9940 H   0  0  0  0  0  0  0  0  0  0  0  0
   -2.7890   23.2313  -32.3464 H   0  0  0  0  0  0  0  0  0  0  0  0
   -2.9068   21.5521  -31.6964 H   0  0  0  0  0  0  0  0  0  0  0  0
   -4.5960   22.8450  -33.7600 H   0  0  0  0  0  0  0  0  0  0  0  0
   -6.2219   23.6641  -32.2140 H   0  0  0  0  0  0  0  0  0  0  0  0
   -8.5101   24.3982  -31.5828 H   0  0  0  0  0  0  0  0  0  0  0  0
  -10.3615   22.7458  -31.4394 H   0  0  0  0  0  0  0  0  0  0  0  0
   -9.9353   20.3353  -31.8594 H   0  0  0  0  0  0  0  0  0  0  0  0
   -8.6823   18.0134  -31.1652 H   0  0  0  0  0  0  0  0  0  0  0  0
   -9.4856   18.4723  -32.7049 H   0  0  0  0  0  0  0  0  0  0  0  0
   -8.1851   17.2331  -32.7049 H   0  0  0  0  0  0  0  0  0  0  0  0
   -3.1650   16.9854  -34.9629 H   0  0  0  0  0  0  0  0  0  0  0  0
   -2.3834   17.1584  -33.3428 H   0  0  0  0  0  0  0  0  0  0  0  0
   -3.1361   14.7840  -34.0095 H   0  0  0  0  0  0  0  0  0  0  0  0
   -3.6935   15.4041  -32.4038 H   0  0  0  0  0  0  0  0  0  0  0  0
   -5.3411   15.4183  -34.9872 H   0  0  0  0  0  0  0  0  0  0  0  0
   -5.5130   14.2473  -33.6120 H   0  0  0  0  0  0  0  0  0  0  0  0
   -7.1832   16.2233  -33.6886 H   0  0  0  0  0  0  0  0  0  0  0  0
   -6.3093   15.9188  -32.1337 H   0  0  0  0  0  0  0  0  0  0  0  0
  1  2  1  0
  2  3  1  0
  3  4  1  0
  4  5  1  0
  3  6  1  0
  6  7  1  0
  7  8  1  0
  8  9  1  0
  9 10  2  0
 10 11  1  0
 11 12  2  0
 12 13  1  0
 13 14  2  0
 14 15  1  0
 15 16  2  0
 16 17  1  0
 16 18  1  0
 18 19  1  0
 19 20  2  0
 20 21  1  0
 21 22  1  0
 20 23  1  0
 23 24  1  0
 24 25  1  0
 25 26  1  0
 22  9  1  0
 15 10  1  0
 22 18  2  0
 26 19  1  0
  1 27  1  0
  1 28  1  0
  1 29  1  0
  2 30  1  0
  2 31  1  0
  4 32  1  0
  4 33  1  0
  5 34  1  0
  5 35  1  0
  5 36  1  0
  6 37  1  0
  6 38  1  0
  7 39  1  0
  7 40  1  0
  8 41  1  0
 11 42  1  0
 12 43  1  0
 13 44  1  0
 14 45  1  0
 17 46  1  0
 17 47  1  0
 17 48  1  0
 23 49  1  0
 23 50  1  0
 24 51  1  0
 24 52  1  0
 25 53  1  0
 25 54  1  0
 26 55  1  0
 26 56  1  0
M  CHG  1  16   1
M  END
>  <UniqueID>  (29) 
28

>  <SMILES>  (29) 
CCN(CC)CCNc1c2ccccc2[n+](C)c2c3c(oc12)CCCC3

>  <Energy>  (29) 
112.30476723124498

>  <Genealogy>  (29) 
CCN(CC)CCNc1c2ccccc2[n+](C)c2c3c(oc12)CCCC3 (3D coordinates assigned)
CCN(CC)CCNc1c2ccccc2[n+](C)c2c3c(oc12)CCCC3 (nonaromatic ring conformer: 112.30476723124498 kcal/mol)

>  <smiles>  (29) 
CCN(CC)CCNc1c2ccccc2[n+](C)c2c3c(oc12)CCCC3

>  <score_type>  (29) 
oracle

>  <origin>  (29) 
adg

>  <m_score__min__energy>  (29) 
-8.8499999999999996

>  <m_primary>  (29) 
energy

$$$$
29:0
     RDKit          3D

 32 33  0  0  1  0  0  0  0  0999 V2000
   -3.9150   24.0580  -28.6640 C   0  0  0  0  0  0  0  0  0  0  0  0
   -3.4890   24.1370  -30.1180 C   0  0  0  0  0  0  0  0  0  0  0  0
   -4.4000   24.9640  -30.8430 N   0  0  0  0  0  0  0  0  0  0  0  0
   -5.5480   25.3930  -30.0980 C   0  0  0  0  0  0  0  0  0  0  0  0
   -6.6970   24.4960  -30.4600 C   0  0  0  0  0  0  0  0  0  0  0  0
   -6.6330   23.9450  -31.7900 N   0  0  0  0  0  0  0  0  0  0  0  0
   -6.2730   22.7750  -32.1240 C   0  0  0  0  0  0  0  0  0  0  0  0
   -4.9740   22.5540  -32.3890 N   0  0  0  0  0  0  0  0  0  0  0  0
   -4.6030   21.3090  -32.7290 C   0  0  0  0  0  0  0  0  0  0  0  0
   -5.5040   20.2810  -32.8090 N   0  0  0  0  0  0  0  0  0  0  0  0
   -6.8080   20.4890  -32.5470 C   0  0  0  0  0  0  0  0  0  0  0  0
   -7.7680   19.5030  -32.6120 C   0  0  0  0  0  0  0  0  0  0  0  0
   -9.1130   19.7760  -32.3320 C   0  0  0  0  0  0  0  0  0  0  0  0
   -9.5140   21.0510  -31.9790 C   0  0  0  0  0  0  0  0  0  0  0  0
   -8.5520   22.0380  -31.9140 C   0  0  0  0  0  0  0  0  0  0  0  0
   -7.2300   21.7580  -32.1930 C   0  0  0  0  0  0  0  0  0  0  0  0
   -3.0407   24.2201  -28.0164 H   0  0  0  0  0  0  0  0  0  0  0  0
   -4.6703   24.8314  -28.4607 H   0  0  0  0  0  0  0  0  0  0  0  0
   -4.3428   23.0652  -28.4607 H   0  0  0  0  0  0  0  0  0  0  0  0
   -2.4778   24.5655  -30.1798 H   0  0  0  0  0  0  0  0  0  0  0  0
   -3.4896   23.1266  -30.5528 H   0  0  0  0  0  0  0  0  0  0  0  0
   -4.6290   24.6880  -31.7970 H   0  0  0  0  0  0  0  0  0  0  0  0
   -5.3423   25.3197  -29.0199 H   0  0  0  0  0  0  0  0  0  0  0  0
   -5.7897   26.4393  -30.3366 H   0  0  0  0  0  0  0  0  0  0  0  0
   -6.7194   23.6614  -29.7438 H   0  0  0  0  0  0  0  0  0  0  0  0
   -7.6022   25.1199  -30.4247 H   0  0  0  0  0  0  0  0  0  0  0  0
   -4.3140   23.3460  -32.3240 H   0  0  0  0  0  0  0  0  0  0  0  0
   -3.5441   21.1091  -32.9498 H   0  0  0  0  0  0  0  0  0  0  0  0
   -7.4722   18.4805  -32.8894 H   0  0  0  0  0  0  0  0  0  0  0  0
   -9.8572   18.9683  -32.3936 H   0  0  0  0  0  0  0  0  0  0  0  0
  -10.5684   21.2720  -31.7566 H   0  0  0  0  0  0  0  0  0  0  0  0
   -8.8429   23.0618  -31.6360 H   0  0  0  0  0  0  0  0  0  0  0  0
  1  2  1  0
  2  3  1  0
  3  4  1  0
  4  5  1  0
  5  6  1  0
  6  7  2  0
  7  8  1  0
  8  9  1  0
  9 10  2  0
 10 11  1  0
 11 12  2  0
 12 13  1  0
 13 14  2  0
 14 15  1  0
 15 16  2  0
 16  7  1  0
 16 11  1  0
  1 17  1  0
  1 18  1  0
  1 19  1  0
  2 20  1  0
  2 21  1  0
  3 22  1  0
  4 23  1  0
  4 24  1  0
  5 25  1  0
  5 26  1  0
  8 27  1  0
  9 28  1  0
 12 29  1  0
 13 30  1  0
 14 31  1  0
 15 32  1  0
M  END
>  <smiles>  (30) 
CCNCCN=c1[nH]cnc2ccccc12

>  <score_type>  (30) 
oracle

>  <origin>  (30) 
adg

>  <m_score__min__energy>  (30) 
-6.4299999999999997

>  <m_primary>  (30) 
energy

$$$$
30:0
     RDKit          3D

 56 59  0  0  0  0  0  0  0  0999 V2000
   -3.1870   24.0710  -27.5950 C   0  0  0  0  0  0  0  0  0  0  0  0
   -2.6330   24.5510  -28.9360 C   0  0  0  0  0  0  0  0  0  0  0  0
   -3.6770   24.5890  -29.9860 N   0  0  0  0  0  0  0  0  0  0  0  0
   -5.0030   24.9260  -29.4220 C   0  0  0  0  0  0  0  0  0  0  0  0
   -5.7390   25.8960  -30.3420 C   0  0  0  0  0  0  0  0  0  0  0  0
   -3.7230   23.3760  -30.8390 C   0  0  0  0  0  0  0  0  0  0  0  0
   -5.1250   22.7490  -30.9670 C   0  0  0  0  0  0  0  0  0  0  0  0
   -5.4010   22.3850  -32.3550 N   0  0  0  0  0  0  0  0  0  0  0  0
   -5.5140   21.0070  -32.7310 C   0  0  0  0  0  0  0  0  0  0  0  0
   -4.4060   20.3240  -33.2570 C   0  0  0  0  0  0  0  0  0  0  0  0
   -4.5450   18.9800  -33.6800 C   0  0  0  0  0  0  0  0  0  0  0  0
   -5.8050   18.4010  -33.6950 N   0  0  0  0  0  0  0  0  0  0  0  0
   -6.0770   17.2150  -34.5320 C   0  0  0  0  0  0  0  0  0  0  0  0
   -6.8390   18.9840  -32.9880 C   0  0  0  0  0  0  0  0  0  0  0  0
   -8.0380   18.2820  -32.7020 C   0  0  0  0  0  0  0  0  0  0  0  0
   -9.0940   18.9060  -32.0370 C   0  0  0  0  0  0  0  0  0  0  0  0
   -8.9820   20.2320  -31.6340 C   0  0  0  0  0  0  0  0  0  0  0  0
   -7.8020   20.9350  -31.8670 C   0  0  0  0  0  0  0  0  0  0  0  0
   -6.7160   20.3170  -32.5200 C   0  0  0  0  0  0  0  0  0  0  0  0
   -3.2840   18.2260  -34.0330 C   0  0  0  0  0  0  0  0  0  0  0  0
   -3.3260   16.9480  -34.5050 N   0  0  0  0  0  0  0  0  0  0  0  0
   -2.2100   16.2330  -34.8030 C   0  0  0  0  0  0  0  0  0  0  0  0
   -0.9510   16.7960  -34.6080 C   0  0  0  0  0  0  0  0  0  0  0  0
   -0.8570   18.0860  -34.0930 C   0  0  0  0  0  0  0  0  0  0  0  0
   -2.0190   18.8150  -33.8040 C   0  0  0  0  0  0  0  0  0  0  0  0
   -1.9080   20.1460  -33.1190 C   0  0  0  0  0  0  0  0  0  0  0  0
   -3.0890   21.0430  -33.4680 C   0  0  0  0  0  0  0  0  0  0  0  0
   -2.6321   24.5517  -26.7758 H   0  0  0  0  0  0  0  0  0  0  0  0
   -4.2519   24.3367  -27.5220 H   0  0  0  0  0  0  0  0  0  0  0  0
   -3.0757   22.9791  -27.5220 H   0  0  0  0  0  0  0  0  0  0  0  0
   -2.2208   25.5628  -28.8083 H   0  0  0  0  0  0  0  0  0  0  0  0
   -1.8552   23.8419  -29.2557 H   0  0  0  0  0  0  0  0  0  0  0  0
   -5.5964   24.0060  -29.3154 H   0  0  0  0  0  0  0  0  0  0  0  0
   -4.8638   25.4006  -28.4395 H   0  0  0  0  0  0  0  0  0  0  0  0
   -6.2937   26.6271  -29.7356 H   0  0  0  0  0  0  0  0  0  0  0  0
   -5.0114   26.4229  -30.9768 H   0  0  0  0  0  0  0  0  0  0  0  0
   -6.4424   25.3371  -30.9768 H   0  0  0  0  0  0  0  0  0  0  0  0
   -3.3732   23.6483  -31.8457 H   0  0  0  0  0  0  0  0  0  0  0  0
   -3.0824   22.6239  -30.3554 H   0  0  0  0  0  0  0  0  0  0  0  0
   -5.1762   21.8469  -30.3397 H   0  0  0  0  0  0  0  0  0  0  0  0
   -5.8737   23.4845  -30.6377 H   0  0  0  0  0  0  0  0  0  0  0  0
   -5.4190   23.1100  -33.1080 H   0  0  0  0  0  0  0  0  0  0  0  0
   -6.2759   16.3477  -33.8853 H   0  0  0  0  0  0  0  0  0  0  0  0
   -6.9543   17.4078  -35.1670 H   0  0  0  0  0  0  0  0  0  0  0  0
   -5.2034   17.0062  -35.1670 H   0  0  0  0  0  0  0  0  0  0  0  0
   -8.1367   17.2303  -33.0090 H   0  0  0  0  0  0  0  0  0  0  0  0
  -10.0186   18.3468  -31.8308 H   0  0  0  0  0  0  0  0  0  0  0  0
   -9.8259   20.7265  -31.1307 H   0  0  0  0  0  0  0  0  0  0  0  0
   -7.7169   21.9814  -31.5386 H   0  0  0  0  0  0  0  0  0  0  0  0
   -2.3005   15.2103  -35.1979 H   0  0  0  0  0  0  0  0  0  0  0  0
   -0.0424   16.2285  -34.8578 H   0  0  0  0  0  0  0  0  0  0  0  0
    0.1312   18.5342  -33.9125 H   0  0  0  0  0  0  0  0  0  0  0  0
   -1.8855   19.9890  -32.0305 H   0  0  0  0  0  0  0  0  0  0  0  0
   -0.9841   20.6373  -33.4581 H   0  0  0  0  0  0  0  0  0  0  0  0
   -3.0619   21.9369  -32.8275 H   0  0  0  0  0  0  0  0  0  0  0  0
   -3.0116   21.3227  -34.5290 H   0  0  0  0  0  0  0  0  0  0  0  0
  1  2  1  0
  2  3  1  0
  3  4  1  0
  4  5  1  0
  3  6  1  0
  6  7  1  0
  7  8  1  0
  8  9  1  0
  9 10  2  0
 10 11  1  0
 11 12  2  0
 12 13  1  0
 12 14  1  0
 14 15  2  0
 15 16  1  0
 16 17  2  0
 17 18  1  0
 18 19  2  0
 11 20  1  0
 20 21  2  0
 21 22  1  0
 22 23  2  0
 23 24  1  0
 24 25  2  0
 25 26  1  0
 26 27  1  0
 19  9  1  0
 25 20  1  0
 27 10  1  0
 19 14  1  0
  1 28  1  0
  1 29  1  0
  1 30  1  0
  2 31  1  0
  2 32  1  0
  4 33  1  0
  4 34  1  0
  5 35  1  0
  5 36  1  0
  5 37  1  0
  6 38  1  0
  6 39  1  0
  7 40  1  0
  7 41  1  0
  8 42  1  0
 13 43  1  0
 13 44  1  0
 13 45  1  0
 15 46  1  0
 16 47  1  0
 17 48  1  0
 18 49  1  0
 22 50  1  0
 23 51  1  0
 24 52  1  0
 26 53  1  0
 26 54  1  0
 27 55  1  0
 27 56  1  0
M  CHG  1  12   1
M  END
>  <UniqueID>  (31) 
29

>  <SMILES>  (31) 
CCN(CC)CCNc1c2c([n+](C)c3ccccc13)-c1ncccc1CC2

>  <Energy>  (31) 
90.28345699304587

>  <Genealogy>  (31) 
CCN(CC)CCNc1c2c([n+](C)c3ccccc13)-c1ncccc1CC2 (3D coordinates assigned)
CCN(CC)CCNc1c2c([n+](C)c3ccccc13)-c1ncccc1CC2 (nonaromatic ring conformer: 90.28345699304587 kcal/mol)

>  <smiles>  (31) 
CCN(CC)CCNc1c2c([n+](C)c3ccccc13)-c1ncccc1CC2

>  <score_type>  (31) 
oracle

>  <origin>  (31) 
adg

>  <m_score__min__energy>  (31) 
-8.8499999999999996

>  <m_primary>  (31) 
energy

$$$$
31:0
     RDKit          3D

 49 48  0  0  0  0  0  0  0  0999 V2000
   -9.2900   19.3750  -32.6320 C   0  0  0  0  0  0  0  0  0  0  0  0
   -8.1960   19.6140  -32.1870 C   0  0  0  0  0  0  0  0  0  0  0  0
   -6.8590   19.9150  -31.6390 C   0  0  0  0  0  0  0  0  0  0  0  0
   -6.2160   21.1060  -32.2530 N   0  0  2  0  0  0  0  0  0  0  0  0
   -4.8790   21.4070  -31.6710 C   0  0  0  0  0  0  0  0  0  0  0  0
   -3.7790   21.5240  -32.7430 C   0  0  0  0  0  0  0  0  0  0  0  0
   -3.5460   20.1830  -33.4460 C   0  0  0  0  0  0  0  0  0  0  0  0
   -4.7820   19.6730  -33.9150 O   0  0  0  0  0  0  0  0  0  0  0  0
   -4.6980   18.2850  -34.1830 C   0  0  0  0  0  0  0  0  0  0  0  0
   -6.0800   17.7280  -34.5460 C   0  0  0  0  0  0  0  0  0  0  0  0
   -6.6110   16.7930  -33.4630 C   0  0  0  0  0  0  0  0  0  0  0  0
   -7.1180   22.2890  -32.3310 C   0  0  0  0  0  0  0  0  0  0  0  0
   -7.6040   22.8400  -30.9740 C   0  0  0  0  0  0  0  0  0  0  0  0
   -6.5710   23.5860  -30.3510 O   0  0  0  0  0  0  0  0  0  0  0  0
   -6.0860   24.6130  -31.1960 C   0  0  0  0  0  0  0  0  0  0  0  0
   -5.2480   25.6210  -30.4000 C   0  0  0  0  0  0  0  0  0  0  0  0
   -3.8780   25.2970  -30.5230 O   0  0  0  0  0  0  0  0  0  0  0  0
   -3.5680   24.1220  -29.8040 C   0  0  0  0  0  0  0  0  0  0  0  0
   -4.1100   24.1770  -28.3760 C   0  0  0  0  0  0  0  0  0  0  0  0
  -10.2887   19.1568  -33.0382 H   0  0  0  0  0  0  0  0  0  0  0  0
   -6.9587   20.0927  -30.5580 H   0  0  0  0  0  0  0  0  0  0  0  0
   -6.2170   19.0508  -31.8648 H   0  0  0  0  0  0  0  0  0  0  0  0
   -6.0530   20.8240  -33.2500 H   0  0  0  0  0  0  0  0  0  0  0  0
   -4.9395   22.3588  -31.1230 H   0  0  0  0  0  0  0  0  0  0  0  0
   -4.6094   20.5728  -31.0066 H   0  0  0  0  0  0  0  0  0  0  0  0
   -4.0836   22.2723  -33.4895 H   0  0  0  0  0  0  0  0  0  0  0  0
   -2.8431   21.8264  -32.2503 H   0  0  0  0  0  0  0  0  0  0  0  0
   -2.8635   20.3287  -34.2962 H   0  0  0  0  0  0  0  0  0  0  0  0
   -3.1015   19.4699  -32.7361 H   0  0  0  0  0  0  0  0  0  0  0  0
   -4.0077   18.1188  -35.0232 H   0  0  0  0  0  0  0  0  0  0  0  0
   -4.3292   17.7689  -33.2843 H   0  0  0  0  0  0  0  0  0  0  0  0
   -6.7816   18.5662  -34.6694 H   0  0  0  0  0  0  0  0  0  0  0  0
   -5.9853   17.1543  -35.4798 H   0  0  0  0  0  0  0  0  0  0  0  0
   -6.3751   17.2083  -32.4721 H   0  0  0  0  0  0  0  0  0  0  0  0
   -7.7013   16.6919  -33.5681 H   0  0  0  0  0  0  0  0  0  0  0  0
   -6.1393   15.8048  -33.5681 H   0  0  0  0  0  0  0  0  0  0  0  0
   -6.5779   23.0941  -32.8507 H   0  0  0  0  0  0  0  0  0  0  0  0
   -8.0198   21.9487  -32.8610 H   0  0  0  0  0  0  0  0  0  0  0  0
   -8.4752   23.4914  -31.1371 H   0  0  0  0  0  0  0  0  0  0  0  0
   -7.8819   21.9980  -30.3230 H   0  0  0  0  0  0  0  0  0  0  0  0
   -5.4614   24.1671  -31.9841 H   0  0  0  0  0  0  0  0  0  0  0  0
   -6.9437   25.1394  -31.6401 H   0  0  0  0  0  0  0  0  0  0  0  0
   -5.4219   26.6336  -30.7930 H   0  0  0  0  0  0  0  0  0  0  0  0
   -5.5395   25.5836  -29.3400 H   0  0  0  0  0  0  0  0  0  0  0  0
   -4.0124   23.2590  -30.3215 H   0  0  0  0  0  0  0  0  0  0  0  0
   -2.4732   24.0284  -29.7532 H   0  0  0  0  0  0  0  0  0  0  0  0
   -3.2760   24.0924  -27.6638 H   0  0  0  0  0  0  0  0  0  0  0  0
   -4.6314   25.1327  -28.2182 H   0  0  0  0  0  0  0  0  0  0  0  0
   -4.8127   23.3456  -28.2182 H   0  0  0  0  0  0  0  0  0  0  0  0
  1  2  3  0
  2  3  1  0
  3  4  1  0
  4  5  1  0
  5  6  1  0
  6  7  1  0
  7  8  1  0
  8  9  1  0
  9 10  1  0
 10 11  1  0
  4 12  1  0
 12 13  1  0
 13 14  1  0
 14 15  1  0
 15 16  1  0
 16 17  1  0
 17 18  1  0
 18 19  1  0
  1 20  1  0
  3 21  1  0
  3 22  1  0
  4 23  1  6
  5 24  1  0
  5 25  1  0
  6 26  1  0
  6 27  1  0
  7 28  1  0
  7 29  1  0
  9 30  1  0
  9 31  1  0
 10 32  1  0
 10 33  1  0
 11 34  1  0
 11 35  1  0
 11 36  1  0
 12 37  1  0
 12 38  1  0
 13 39  1  0
 13 40  1  0
 15 41  1  0
 15 42  1  0
 16 43  1  0
 16 44  1  0
 18 45  1  0
 18 46  1  0
 19 47  1  0
 19 48  1  0
 19 49  1  0
M  CHG  1   4   1
M  END
>  <UniqueID>  (32) 
30

>  <SMILES>  (32) 
C#CC[N@H+](CCCOCCC)CCOCCOCC

>  <Energy>  (32) 
47.873423803082495

>  <Genealogy>  (32) 
C#CC[NH+](CCCOCCC)CCOCCOCC (protonated)
C#CC[N@H+](CCCOCCC)CCOCCOCC (chirality)
C#CC[N@H+](CCCOCCC)CCOCCOCC (3D coordinates assigned)
C#CC[N@H+](CCCOCCC)CCOCCOCC (optimized conformer: 47.873423803082495 kcal/mol)

>  <smiles>  (32) 
C#CCN(CCCOCCC)CCOCCOCC

>  <score_type>  (32) 
oracle

>  <origin>  (32) 
adg

>  <m_score__min__energy>  (32) 
-4.6699999999999999

>  <m_primary>  (32) 
energy

$$$$
32:0
     RDKit          3D

 59 62  0  0  0  0  0  0  0  0999 V2000
   -4.1320   24.1090  -28.3770 C   0  0  0  0  0  0  0  0  0  0  0  0
   -3.5030   24.5860  -29.6940 C   0  0  0  0  0  0  0  0  0  0  0  0
   -4.4670   24.7240  -30.8130 N   0  0  0  0  0  0  0  0  0  0  0  0
   -5.6220   25.5750  -30.4490 C   0  0  0  0  0  0  0  0  0  0  0  0
   -6.8450   24.7130  -30.1540 C   0  0  0  0  0  0  0  0  0  0  0  0
   -4.8990   23.4350  -31.4070 C   0  0  0  0  0  0  0  0  0  0  0  0
   -3.8750   22.3060  -31.1910 C   0  0  0  0  0  0  0  0  0  0  0  0
   -3.3210   21.7250  -32.5020 C   0  0  0  0  0  0  0  0  0  0  0  0
   -4.3980   21.2410  -33.3690 N   0  0  0  0  0  0  0  0  0  0  0  0
   -5.0280   19.9610  -33.1810 C   0  0  0  0  0  0  0  0  0  0  0  0
   -4.2950   18.7670  -33.3510 C   0  0  0  0  0  0  0  0  0  0  0  0
   -4.9380   17.5230  -33.1570 C   0  0  0  0  0  0  0  0  0  0  0  0
   -6.3180   17.4920  -33.0950 N   0  0  0  0  0  0  0  0  0  0  0  0
   -7.0720   16.3470  -33.6420 C   0  0  0  0  0  0  0  0  0  0  0  0
   -7.0120   18.6260  -32.7320 C   0  0  0  0  0  0  0  0  0  0  0  0
   -8.3790   18.5680  -32.3670 C   0  0  0  0  0  0  0  0  0  0  0  0
   -9.0800   19.7260  -32.0340 C   0  0  0  0  0  0  0  0  0  0  0  0
   -8.4430   20.9620  -32.0650 C   0  0  0  0  0  0  0  0  0  0  0  0
   -7.1000   21.0490  -32.4240 C   0  0  0  0  0  0  0  0  0  0  0  0
   -6.3660   19.8890  -32.7520 C   0  0  0  0  0  0  0  0  0  0  0  0
   -4.0760   16.2890  -33.0120 C   0  0  0  0  0  0  0  0  0  0  0  0
   -4.5700   15.0520  -32.5440 C   0  0  0  0  0  0  0  0  0  0  0  0
   -3.7430   13.9310  -32.4780 C   0  0  0  0  0  0  0  0  0  0  0  0
   -2.3980   14.0560  -32.8040 C   0  0  0  0  0  0  0  0  0  0  0  0
   -1.8920   15.2760  -33.1090 N   0  0  0  0  0  0  0  0  0  0  0  0
   -2.6770   16.3850  -33.2060 C   0  0  0  0  0  0  0  0  0  0  0  0
   -2.0000   17.7180  -33.2600 C   0  0  0  0  0  0  0  0  0  0  0  0
   -2.8780   18.7930  -33.8830 C   0  0  0  0  0  0  0  0  0  0  0  0
   -3.5734   24.5326  -27.5293 H   0  0  0  0  0  0  0  0  0  0  0  0
   -5.1793   24.4420  -28.3291 H   0  0  0  0  0  0  0  0  0  0  0  0
   -4.0939   23.0107  -28.3291 H   0  0  0  0  0  0  0  0  0  0  0  0
   -3.0359   25.5662  -29.5181 H   0  0  0  0  0  0  0  0  0  0  0  0
   -2.7773   23.8161  -29.9949 H   0  0  0  0  0  0  0  0  0  0  0  0
   -5.3702   26.1650  -29.5554 H   0  0  0  0  0  0  0  0  0  0  0  0
   -5.8517   26.2443  -31.2912 H   0  0  0  0  0  0  0  0  0  0  0  0
   -6.9751   24.6213  -29.0656 H   0  0  0  0  0  0  0  0  0  0  0  0
   -7.7385   25.1821  -30.5918 H   0  0  0  0  0  0  0  0  0  0  0  0
   -6.7036   23.7138  -30.5918 H   0  0  0  0  0  0  0  0  0  0  0  0
   -5.8525   23.1376  -30.9461 H   0  0  0  0  0  0  0  0  0  0  0  0
   -5.0002   23.5874  -32.4917 H   0  0  0  0  0  0  0  0  0  0  0  0
   -3.0347   22.7051  -30.6039 H   0  0  0  0  0  0  0  0  0  0  0  0
   -4.3965   21.4901  -30.6691 H   0  0  0  0  0  0  0  0  0  0  0  0
   -2.7598   22.5087  -33.0319 H   0  0  0  0  0  0  0  0  0  0  0  0
   -2.6669   20.8757  -32.2553 H   0  0  0  0  0  0  0  0  0  0  0  0
   -4.5690   21.7560  -34.2620 H   0  0  0  0  0  0  0  0  0  0  0  0
   -7.4707   15.7416  -32.8146 H   0  0  0  0  0  0  0  0  0  0  0  0
   -7.9037   16.7170  -34.2595 H   0  0  0  0  0  0  0  0  0  0  0  0
   -6.4035   15.7291  -34.2595 H   0  0  0  0  0  0  0  0  0  0  0  0
   -8.8945   17.5965  -32.3460 H   0  0  0  0  0  0  0  0  0  0  0  0
  -10.1397   19.6621  -31.7460 H   0  0  0  0  0  0  0  0  0  0  0  0
   -9.0014   21.8734  -31.8053 H   0  0  0  0  0  0  0  0  0  0  0  0
   -6.6065   22.0317  -32.4522 H   0  0  0  0  0  0  0  0  0  0  0  0
   -5.6204   14.9714  -32.2274 H   0  0  0  0  0  0  0  0  0  0  0  0
   -4.1516   12.9570  -32.1708 H   0  0  0  0  0  0  0  0  0  0  0  0
   -1.7471   13.1693  -32.8145 H   0  0  0  0  0  0  0  0  0  0  0  0
   -1.7412   18.0239  -32.2356 H   0  0  0  0  0  0  0  0  0  0  0  0
   -1.1040   17.6124  -33.8893 H   0  0  0  0  0  0  0  0  0  0  0  0
   -2.4379   19.7773  -33.6654 H   0  0  0  0  0  0  0  0  0  0  0  0
   -2.9245   18.5999  -34.9649 H   0  0  0  0  0  0  0  0  0  0  0  0
  1  2  1  0
  2  3  1  0
  3  4  1  0
  4  5  1  0
  3  6  1  0
  6  7  1  0
  7  8  1  0
  8  9  1  0
  9 10  1  0
 10 11  2  0
 11 12  1  0
 12 13  2  0
 13 14  1  0
 13 15  1  0
 15 16  2  0
 16 17  1  0
 17 18  2  0
 18 19  1  0
 19 20  2  0
 12 21  1  0
 21 22  2  0
 22 23  1  0
 23 24  2  0
 24 25  1  0
 25 26  2  0
 26 27  1  0
 27 28  1  0
 20 10  1  0
 26 21  1  0
 28 11  1  0
 20 15  1  0
  1 29  1  0
  1 30  1  0
  1 31  1  0
  2 32  1  0
  2 33  1  0
  4 34  1  0
  4 35  1  0
  5 36  1  0
  5 37  1  0
  5 38  1  0
  6 39  1  0
  6 40  1  0
  7 41  1  0
  7 42  1  0
  8 43  1  0
  8 44  1  0
  9 45  1  0
 14 46  1  0
 14 47  1  0
 14 48  1  0
 16 49  1  0
 17 50  1  0
 18 51  1  0
 19 52  1  0
 22 53  1  0
 23 54  1  0
 24 55  1  0
 27 56  1  0
 27 57  1  0
 28 58  1  0
 28 59  1  0
M  CHG  1  13   1
M  END
>  <UniqueID>  (33) 
31

>  <SMILES>  (33) 
CCN(CC)CCCNc1c2c([n+](C)c3ccccc13)-c1cccnc1CC2

>  <Energy>  (33) 
96.78436690465186

>  <Genealogy>  (33) 
CCN(CC)CCCNc1c2c([n+](C)c3ccccc13)-c1cccnc1CC2 (3D coordinates assigned)
CCN(CC)CCCNc1c2c([n+](C)c3ccccc13)-c1cccnc1CC2 (nonaromatic ring conformer: 96.78436690465186 kcal/mol)

>  <smiles>  (33) 
CCN(CC)CCCNc1c2c([n+](C)c3ccccc13)-c1cccnc1CC2

>  <score_type>  (33) 
oracle

>  <origin>  (33) 
adg

>  <m_score__min__energy>  (33) 
-8.8200000000000003

>  <m_primary>  (33) 
energy

$$$$
33:0
     RDKit          3D

 41 43  0  0  0  0  0  0  0  0999 V2000
   -5.0000   25.2130  -30.8370 C   0  0  0  0  0  0  0  0  0  0  0  0
   -5.0980   23.7560  -31.0360 N   0  0  0  0  0  0  0  0  0  0  0  0
   -5.7770   23.1510  -29.8790 C   0  0  0  0  0  0  0  0  0  0  0  0
   -3.7600   23.1520  -31.2170 C   0  0  0  0  0  0  0  0  0  0  0  0
   -3.8340   21.9470  -32.1660 C   0  0  0  0  0  0  0  0  0  0  0  0
   -4.9670   22.0810  -33.0950 N   0  0  0  0  0  0  0  0  0  0  0  0
   -5.9760   21.0850  -32.8030 C   0  0  0  0  0  0  0  0  0  0  0  0
   -5.7830   19.6890  -33.0150 C   0  0  0  0  0  0  0  0  0  0  0  0
   -4.5720   19.1840  -33.5370 C   0  0  0  0  0  0  0  0  0  0  0  0
   -4.3950   17.8180  -33.7400 C   0  0  0  0  0  0  0  0  0  0  0  0
   -5.4150   16.9240  -33.4330 C   0  0  0  0  0  0  0  0  0  0  0  0
   -6.6270   17.3870  -32.9240 C   0  0  0  0  0  0  0  0  0  0  0  0
   -6.8460   18.7690  -32.7000 C   0  0  0  0  0  0  0  0  0  0  0  0
   -8.0550   19.2340  -32.2020 N   0  0  0  0  0  0  0  0  0  0  0  0
   -9.1490   18.3050  -31.8580 C   0  0  0  0  0  0  0  0  0  0  0  0
   -8.2130   20.5850  -32.0520 C   0  0  0  0  0  0  0  0  0  0  0  0
   -9.3050   21.3210  -31.6230 C   0  0  0  0  0  0  0  0  0  0  0  0
   -8.8830   22.6420  -31.6810 C   0  0  0  0  0  0  0  0  0  0  0  0
   -7.6390   22.7060  -32.1110 O   0  0  0  0  0  0  0  0  0  0  0  0
   -7.2260   21.4820  -32.3370 C   0  0  0  0  0  0  0  0  0  0  0  0
   -4.9850   25.4358  -29.7599 H   0  0  0  0  0  0  0  0  0  0  0  0
   -4.0748   25.5851  -31.3013 H   0  0  0  0  0  0  0  0  0  0  0  0
   -5.8670   25.7056  -31.3013 H   0  0  0  0  0  0  0  0  0  0  0  0
   -5.3374   23.5427  -28.9498 H   0  0  0  0  0  0  0  0  0  0  0  0
   -6.8481   23.3996  -29.9112 H   0  0  0  0  0  0  0  0  0  0  0  0
   -5.6531   22.0585  -29.9112 H   0  0  0  0  0  0  0  0  0  0  0  0
   -3.0782   23.9042  -31.6405 H   0  0  0  0  0  0  0  0  0  0  0  0
   -3.3902   22.8105  -30.2389 H   0  0  0  0  0  0  0  0  0  0  0  0
   -2.8998   21.8851  -32.7435 H   0  0  0  0  0  0  0  0  0  0  0  0
   -3.9757   21.0353  -31.5671 H   0  0  0  0  0  0  0  0  0  0  0  0
   -5.3750   23.0420  -33.0540 H   0  0  0  0  0  0  0  0  0  0  0  0
   -4.6210   21.9530  -34.0750 H   0  0  0  0  0  0  0  0  0  0  0  0
   -3.7572   19.8795  -33.7867 H   0  0  0  0  0  0  0  0  0  0  0  0
   -3.4433   17.4439  -34.1454 H   0  0  0  0  0  0  0  0  0  0  0  0
   -5.2645   15.8461  -33.5927 H   0  0  0  0  0  0  0  0  0  0  0  0
   -7.4266   16.6680  -32.6924 H   0  0  0  0  0  0  0  0  0  0  0  0
   -9.2365   18.2307  -30.7640 H   0  0  0  0  0  0  0  0  0  0  0  0
  -10.0943   18.6806  -32.2768 H   0  0  0  0  0  0  0  0  0  0  0  0
   -8.9316   17.3114  -32.2768 H   0  0  0  0  0  0  0  0  0  0  0  0
  -10.2883   20.9427  -31.3066 H   0  0  0  0  0  0  0  0  0  0  0  0
   -9.4989   23.5113  -31.4072 H   0  0  0  0  0  0  0  0  0  0  0  0
  1  2  1  0
  2  3  1  0
  2  4  1  0
  4  5  1  0
  5  6  1  0
  6  7  1  0
  7  8  2  0
  8  9  1  0
  9 10  2  0
 10 11  1  0
 11 12  2  0
 12 13  1  0
 13 14  2  0
 14 15  1  0
 14 16  1  0
 16 17  1  0
 17 18  2  0
 18 19  1  0
 19 20  1  0
 20  7  1  0
 13  8  1  0
 20 16  2  0
  1 21  1  0
  1 22  1  0
  1 23  1  0
  3 24  1  0
  3 25  1  0
  3 26  1  0
  4 27  1  0
  4 28  1  0
  5 29  1  0
  5 30  1  0
  6 31  1  0
  6 32  1  0
  9 33  1  0
 10 34  1  0
 11 35  1  0
 12 36  1  0
 15 37  1  0
 15 38  1  0
 15 39  1  0
 17 40  1  0
 18 41  1  0
M  CHG  2   6   1  14   1
M  END
>  <UniqueID>  (34) 
32

>  <SMILES>  (34) 
CN(C)CC[NH2+]c1c2ccccc2[n+](C)c2ccoc12

>  <Energy>  (34) 
87.94487307793905

>  <Genealogy>  (34) 
CN(C)CC[NH2+]c1c2ccccc2[n+](C)c2ccoc12 (protonated)
CN(C)CC[NH2+]c1c2ccccc2[n+](C)c2ccoc12 (3D coordinates assigned)
CN(C)CC[NH2+]c1c2ccccc2[n+](C)c2ccoc12 (optimized conformer: 87.94487307793905 kcal/mol)

>  <smiles>  (34) 
CN(C)CCNc1c2ccccc2[n+](C)c2ccoc12

>  <score_type>  (34) 
oracle

>  <origin>  (34) 
adg

>  <m_score__min__energy>  (34) 
-6.2599999999999998

>  <m_primary>  (34) 
energy

$$$$
