0:0
     RDKit          3D

 57 59  0  0  0  0  0  0  0  0999 V2000
   -3.5690   18.5920  -26.0090 C   0  0  0  0  0  0  0  0  0  0  0  0
   -2.2910   19.0070  -26.7520 C   0  0  0  0  0  0  0  0  0  0  0  0
   -2.3530   20.3750  -27.3310 N   0  0  1  0  0  0  0  0  0  0  0  0
   -1.4480   21.3020  -26.6170 C   0  0  0  0  0  0  0  0  0  0  0  0
   -1.9740   20.3630  -28.7690 C   0  0  0  0  0  0  0  0  0  0  0  0
   -2.9150   21.1990  -29.6660 C   0  0  0  0  0  0  0  0  0  0  0  0
   -3.8600   21.9340  -28.9070 O   0  0  0  0  0  0  0  0  0  0  0  0
   -4.4200   22.9800  -29.6780 C   0  0  0  0  0  0  0  0  0  0  0  0
   -5.9170   22.7330  -29.8760 C   0  0  0  0  0  0  0  0  0  0  0  0
   -6.5000   23.4900  -31.0790 C   0  0  0  0  0  0  0  0  0  0  0  0
   -6.0650   22.8960  -32.3470 N   0  0  0  0  0  0  0  0  0  0  0  0
   -5.9450   21.4710  -32.5260 C   0  0  0  0  0  0  0  0  0  0  0  0
   -7.0740   20.6350  -32.4270 C   0  0  0  0  0  0  0  0  0  0  0  0
   -8.3740   21.1770  -32.3270 C   0  0  0  0  0  0  0  0  0  0  0  0
   -9.4890   20.3470  -32.2310 C   0  0  0  0  0  0  0  0  0  0  0  0
   -9.3360   18.9680  -32.2630 C   0  0  0  0  0  0  0  0  0  0  0  0
   -8.0660   18.4070  -32.3910 C   0  0  0  0  0  0  0  0  0  0  0  0
   -6.9050   19.2230  -32.4580 C   0  0  0  0  0  0  0  0  0  0  0  0
   -5.6380   18.6770  -32.5690 N   0  0  0  0  0  0  0  0  0  0  0  0
   -5.4400   17.2290  -32.3340 C   0  0  0  0  0  0  0  0  0  0  0  0
   -4.5640   19.4870  -32.8870 C   0  0  0  0  0  0  0  0  0  0  0  0
   -3.3110   18.9450  -33.2800 C   0  0  0  0  0  0  0  0  0  0  0  0
   -2.2150   19.7700  -33.5350 C   0  0  0  0  0  0  0  0  0  0  0  0
   -0.6760   19.0680  -34.0070 Cl  0  0  0  0  0  0  0  0  0  0  0  0
   -2.3420   21.1510  -33.4260 C   0  0  0  0  0  0  0  0  0  0  0  0
   -3.5710   21.7150  -33.0930 C   0  0  0  0  0  0  0  0  0  0  0  0
   -4.6960   20.9010  -32.8370 C   0  0  0  0  0  0  0  0  0  0  0  0
   -3.3969   18.6479  -24.9240 H   0  0  0  0  0  0  0  0  0  0  0  0
   -4.3902   19.2696  -26.2854 H   0  0  0  0  0  0  0  0  0  0  0  0
   -3.8355   17.5612  -26.2854 H   0  0  0  0  0  0  0  0  0  0  0  0
   -1.4497   18.9673  -26.0445 H   0  0  0  0  0  0  0  0  0  0  0  0
   -2.1666   18.3080  -27.5922 H   0  0  0  0  0  0  0  0  0  0  0  0
   -3.3300   20.7450  -27.2360 H   0  0  0  0  0  0  0  0  0  0  0  0
   -1.5734   21.1736  -25.5317 H   0  0  0  0  0  0  0  0  0  0  0  0
   -0.4062   21.0835  -26.8942 H   0  0  0  0  0  0  0  0  0  0  0  0
   -1.6915   22.3383  -26.8942 H   0  0  0  0  0  0  0  0  0  0  0  0
   -0.9551   20.7667  -28.8631 H   0  0  0  0  0  0  0  0  0  0  0  0
   -2.0453   19.3202  -29.1118 H   0  0  0  0  0  0  0  0  0  0  0  0
   -2.3098   21.9026  -30.2566 H   0  0  0  0  0  0  0  0  0  0  0  0
   -3.4681   20.5055  -30.3164 H   0  0  0  0  0  0  0  0  0  0  0  0
   -4.2736   23.9372  -29.1561 H   0  0  0  0  0  0  0  0  0  0  0  0
   -3.9243   23.0136  -30.6594 H   0  0  0  0  0  0  0  0  0  0  0  0
   -6.0765   21.6556  -30.0299 H   0  0  0  0  0  0  0  0  0  0  0  0
   -6.4315   23.1018  -28.9764 H   0  0  0  0  0  0  0  0  0  0  0  0
   -7.5982   23.4553  -31.0257 H   0  0  0  0  0  0  0  0  0  0  0  0
   -6.1400   24.5287  -31.0419 H   0  0  0  0  0  0  0  0  0  0  0  0
   -5.8270   23.5310  -33.1440 H   0  0  0  0  0  0  0  0  0  0  0  0
   -8.5082   22.2688  -32.3249 H   0  0  0  0  0  0  0  0  0  0  0  0
  -10.4926   20.7857  -32.1296 H   0  0  0  0  0  0  0  0  0  0  0  0
  -10.2187   18.3161  -32.1872 H   0  0  0  0  0  0  0  0  0  0  0  0
   -7.9611   17.3132  -32.4410 H   0  0  0  0  0  0  0  0  0  0  0  0
   -5.4133   17.0335  -31.2519 H   0  0  0  0  0  0  0  0  0  0  0  0
   -6.2697   16.6671  -32.7878 H   0  0  0  0  0  0  0  0  0  0  0  0
   -4.4899   16.9104  -32.7878 H   0  0  0  0  0  0  0  0  0  0  0  0
   -3.2029   17.8554  -33.3852 H   0  0  0  0  0  0  0  0  0  0  0  0
   -1.4705   21.7984  -33.6031 H   0  0  0  0  0  0  0  0  0  0  0  0
   -3.6666   22.8089  -33.0286 H   0  0  0  0  0  0  0  0  0  0  0  0
  1  2  1  0
  2  3  1  0
  3  4  1  0
  3  5  1  0
  5  6  1  0
  6  7  1  0
  7  8  1  0
  8  9  1  0
  9 10  1  0
 10 11  1  0
 11 12  1  0
 12 13  2  0
 13 14  1  0
 14 15  2  0
 15 16  1  0
 16 17  2  0
 17 18  1  0
 18 19  2  0
 19 20  1  0
 19 21  1  0
 21 22  2  0
 22 23  1  0
 23 24  1  0
 23 25  2  0
 25 26  1  0
 26 27  2  0
 27 12  1  0
 18 13  1  0
 27 21  1  0
  1 28  1  0
  1 29  1  0
  1 30  1  0
  2 31  1  0
  2 32  1  0
  3 33  1  6
  4 34  1  0
  4 35  1  0
  4 36  1  0
  5 37  1  0
  5 38  1  0
  6 39  1  0
  6 40  1  0
  8 41  1  0
  8 42  1  0
  9 43  1  0
  9 44  1  0
 10 45  1  0
 10 46  1  0
 11 47  1  0
 14 48  1  0
 15 49  1  0
 16 50  1  0
 17 51  1  0
 20 52  1  0
 20 53  1  0
 20 54  1  0
 22 55  1  0
 25 56  1  0
 26 57  1  0
M  CHG  2   3   1  19   1
M  END
>  <UniqueID>  (1) 
1

>  <SMILES>  (1) 
CC[N@@H+](C)CCOCCCNc1c2ccccc2[n+](C)c2cc(Cl)ccc12

>  <Energy>  (1) 
78.0262590943521

>  <Genealogy>  (1) 
CC[NH+](C)CCOCCCNc1c2ccccc2[n+](C)c2cc(Cl)ccc12 (protonated)
CC[N@@H+](C)CCOCCCNc1c2ccccc2[n+](C)c2cc(Cl)ccc12 (chirality)
CC[N@@H+](C)CCOCCCNc1c2ccccc2[n+](C)c2cc(Cl)ccc12 (3D coordinates assigned)
CC[N@@H+](C)CCOCCCNc1c2ccccc2[n+](C)c2cc(Cl)ccc12 (optimized conformer: 78.0262590943521 kcal/mol)

>  <smiles>  (1) 
CCN(C)CCOCCCNc1c2ccccc2[n+](C)c2cc(Cl)ccc12

>  <score_type>  (1) 
oracle

>  <origin>  (1) 
adg

>  <m_score__min__energy>  (1) 
-7.6600000000000001

>  <m_primary>  (1) 
energy

$$$$
1:0
     RDKit          3D

 57 60  0  0  0  0  0  0  0  0999 V2000
   -3.8260   21.9600  -32.7880 C   0  0  0  0  0  0  0  0  0  0  0  0
   -5.2800   21.5950  -32.6850 C   0  0  0  0  0  0  0  0  0  0  0  0
   -5.8250   20.3330  -32.9470 C   0  0  0  0  0  0  0  0  0  0  0  0
   -5.1360   19.1170  -33.4230 C   0  0  0  0  0  0  0  0  0  0  0  0
   -4.0590   19.2390  -34.0700 O   0  0  0  0  0  0  0  0  0  0  0  0
   -5.6410   17.7380  -33.0680 C   0  0  0  0  0  0  0  0  0  0  0  0
   -6.4610   17.0950  -34.1810 C   0  0  0  0  0  0  0  0  0  0  0  0
   -6.3000   15.5900  -33.9920 C   0  0  0  0  0  0  0  0  0  0  0  0
   -5.0910   15.3810  -33.0800 C   0  0  0  0  0  0  0  0  0  0  0  0
   -4.5010   16.7600  -32.8130 C   0  0  0  0  0  0  0  0  0  0  0  0
   -7.1710   20.4420  -32.6480 C   0  0  0  0  0  0  0  0  0  0  0  0
   -8.2020   19.5020  -32.7140 C   0  0  0  0  0  0  0  0  0  0  0  0
   -9.4950   19.9140  -32.3450 C   0  0  0  0  0  0  0  0  0  0  0  0
   -9.7300   21.2400  -31.9270 C   0  0  0  0  0  0  0  0  0  0  0  0
   -8.6760   22.1700  -31.8780 C   0  0  0  0  0  0  0  0  0  0  0  0
   -7.3990   21.7380  -32.2550 C   0  0  0  0  0  0  0  0  0  0  0  0
   -6.2560   22.4570  -32.2900 N   0  0  0  0  0  0  0  0  0  0  0  0
   -6.0930   23.8630  -31.9030 C   0  0  0  0  0  0  0  0  0  0  0  0
   -6.6710   24.0970  -30.5040 C   0  0  0  0  0  0  0  0  0  0  0  0
   -5.6460   24.7940  -29.5900 C   0  0  0  0  0  0  0  0  0  0  0  0
   -4.9860   23.8360  -28.6630 N   0  0  0  0  0  0  0  0  0  0  0  0
   -4.2280   24.5270  -27.5850 C   0  0  0  0  0  0  0  0  0  0  0  0
   -2.7470   24.7580  -27.9560 C   0  0  0  0  0  0  0  0  0  0  0  0
   -2.5930   24.8540  -29.3550 O   0  0  0  0  0  0  0  0  0  0  0  0
   -2.8550   23.6000  -29.9620 C   0  0  0  0  0  0  0  0  0  0  0  0
   -4.1090   22.8940  -29.3920 C   0  0  0  0  0  0  0  0  0  0  0  0
   -3.4023   22.0664  -31.7785 H   0  0  0  0  0  0  0  0  0  0  0  0
   -3.2870   21.1693  -33.3305 H   0  0  0  0  0  0  0  0  0  0  0  0
   -3.7244   22.9115  -33.3305 H   0  0  0  0  0  0  0  0  0  0  0  0
   -6.2539   17.9078  -32.1705 H   0  0  0  0  0  0  0  0  0  0  0  0
   -7.5193   17.3820  -34.0931 H   0  0  0  0  0  0  0  0  0  0  0  0
   -6.1215   17.4189  -35.1759 H   0  0  0  0  0  0  0  0  0  0  0  0
   -7.2027   15.1692  -33.5250 H   0  0  0  0  0  0  0  0  0  0  0  0
   -6.1541   15.0863  -34.9589 H   0  0  0  0  0  0  0  0  0  0  0  0
   -5.4051   14.9135  -32.1351 H   0  0  0  0  0  0  0  0  0  0  0  0
   -4.3502   14.7178  -33.5505 H   0  0  0  0  0  0  0  0  0  0  0  0
   -4.1531   16.8359  -31.7722 H   0  0  0  0  0  0  0  0  0  0  0  0
   -3.6311   16.9663  -33.4538 H   0  0  0  0  0  0  0  0  0  0  0  0
   -8.0085   18.4708  -33.0445 H   0  0  0  0  0  0  0  0  0  0  0  0
  -10.3285   19.1971  -32.3827 H   0  0  0  0  0  0  0  0  0  0  0  0
  -10.7450   21.5493  -31.6371 H   0  0  0  0  0  0  0  0  0  0  0  0
   -8.8501   23.2064  -31.5530 H   0  0  0  0  0  0  0  0  0  0  0  0
   -5.0229   24.1177  -31.9013 H   0  0  0  0  0  0  0  0  0  0  0  0
   -6.6290   24.4981  -32.6236 H   0  0  0  0  0  0  0  0  0  0  0  0
   -7.5671   24.7295  -30.5867 H   0  0  0  0  0  0  0  0  0  0  0  0
   -6.9255   23.1217  -30.0635 H   0  0  0  0  0  0  0  0  0  0  0  0
   -4.8769   25.2696  -30.2163 H   0  0  0  0  0  0  0  0  0  0  0  0
   -6.1818   25.5396  -28.9842 H   0  0  0  0  0  0  0  0  0  0  0  0
   -5.7290   23.2530  -28.2080 H   0  0  0  0  0  0  0  0  0  0  0  0
   -4.6993   25.5020  -27.3921 H   0  0  0  0  0  0  0  0  0  0  0  0
   -4.2520   23.8820  -26.6943 H   0  0  0  0  0  0  0  0  0  0  0  0
   -2.3991   25.6914  -27.4895 H   0  0  0  0  0  0  0  0  0  0  0  0
   -2.1541   23.9058  -27.5924 H   0  0  0  0  0  0  0  0  0  0  0  0
   -3.0033   23.7583  -31.0404 H   0  0  0  0  0  0  0  0  0  0  0  0
   -1.9922   22.9504  -29.7533 H   0  0  0  0  0  0  0  0  0  0  0  0
   -4.6764   22.4500  -30.2232 H   0  0  0  0  0  0  0  0  0  0  0  0
   -3.7743   22.1211  -28.6844 H   0  0  0  0  0  0  0  0  0  0  0  0
  1  2  1  0
  2  3  2  0
  3  4  1  0
  4  5  2  0
  4  6  1  0
  6  7  1  0
  7  8  1  0
  8  9  1  0
  9 10  1  0
  3 11  1  0
 11 12  2  0
 12 13  1  0
 13 14  2  0
 14 15  1  0
 15 16  2  0
 16 17  1  0
 17 18  1  0
 18 19  1  0
 19 20  1  0
 20 21  1  0
 21 22  1  0
 22 23  1  0
 23 24  1  0
 24 25  1  0
 25 26  1  0
 17  2  1  0
 26 21  1  0
 10  6  1  0
 16 11  1  0
  1 27  1  0
  1 28  1  0
  1 29  1  0
  6 30  1  0
  7 31  1  0
  7 32  1  0
  8 33  1  0
  8 34  1  0
  9 35  1  0
  9 36  1  0
 10 37  1  0
 10 38  1  0
 12 39  1  0
 13 40  1  0
 14 41  1  0
 15 42  1  0
 18 43  1  0
 18 44  1  0
 19 45  1  0
 19 46  1  0
 20 47  1  0
 20 48  1  0
 21 49  1  0
 22 50  1  0
 22 51  1  0
 23 52  1  0
 23 53  1  0
 25 54  1  0
 25 55  1  0
 26 56  1  0
 26 57  1  0
M  CHG  1  21   1
M  END
>  <UniqueID>  (2) 
2

>  <SMILES>  (2) 
Cc1c(C(=O)C2CCCC2)c2ccccc2n1CCC[NH+]1CCOCC1

>  <Energy>  (2) 
105.3827430361532

>  <Genealogy>  (2) 
Cc1c(C(=O)C2CCCC2)c2ccccc2n1CCC[NH+]1CCOCC1 (protonated)
Cc1c(C(=O)C2CCCC2)c2ccccc2n1CCC[NH+]1CCOCC1 (3D coordinates assigned)
Cc1c(C(=O)C2CCCC2)c2ccccc2n1CCC[NH+]1CCOCC1 (nonaromatic ring conformer: 105.3827430361532 kcal/mol)

>  <smiles>  (2) 
Cc1c(C(=O)C2CCCC2)c2ccccc2n1CCCN1CCOCC1

>  <score_type>  (2) 
oracle

>  <origin>  (2) 
adg

>  <m_score__min__energy>  (2) 
-9.1099999999999994

>  <m_primary>  (2) 
energy

$$$$
2:0
     RDKit          3D

 83 86  0  0  0  0  0  0  0  0999 V2000
   -0.4440   20.1900  -34.8730 C   0  0  0  0  0  0  0  0  0  0  0  0
   -0.2630   20.8940  -33.5070 C   0  0  0  0  0  0  0  0  0  0  0  0
   -0.8590   20.2170  -32.2920 N   0  0  0  0  0  0  0  0  0  0  0  0
   -0.7180   18.7210  -32.3390 C   0  0  0  0  0  0  0  0  0  0  0  0
    0.0840   18.1100  -31.1730 C   0  0  0  0  0  0  0  0  0  0  0  0
   -0.1330   20.7820  -31.0980 C   0  0  0  0  0  0  0  0  0  0  0  0
   -1.0080   21.2150  -29.9020 C   0  0  0  0  0  0  0  0  0  0  0  0
   -2.3100   20.5890  -32.1340 C   0  0  0  0  0  0  0  0  0  0  0  0
   -2.7510   21.9130  -32.8020 C   0  0  0  0  0  0  0  0  0  0  0  0
   -3.8630   21.7150  -33.7600 N   0  0  0  0  0  0  0  0  0  0  0  0
   -4.9850   21.0710  -33.0820 C   0  0  0  0  0  0  0  0  0  0  0  0
   -5.8510   21.8020  -32.2250 C   0  0  0  0  0  0  0  0  0  0  0  0
   -5.4830   23.0510  -31.6610 C   0  0  0  0  0  0  0  0  0  0  0  0
   -6.3660   23.7580  -30.8520 C   0  0  0  0  0  0  0  0  0  0  0  0
   -7.6110   23.2240  -30.5360 C   0  0  0  0  0  0  0  0  0  0  0  0
   -7.9870   21.9860  -31.0400 C   0  0  0  0  0  0  0  0  0  0  0  0
   -7.1330   21.2610  -31.9090 C   0  0  0  0  0  0  0  0  0  0  0  0
   -7.5390   20.0620  -32.4520 N   0  0  0  0  0  0  0  0  0  0  0  0
   -8.9730   19.6910  -32.4510 C   0  0  0  0  0  0  0  0  0  0  0  0
   -6.6170   19.2360  -33.0490 C   0  0  0  0  0  0  0  0  0  0  0  0
   -6.9330   17.8920  -33.3490 C   0  0  0  0  0  0  0  0  0  0  0  0
   -6.1130   17.1150  -34.1610 C   0  0  0  0  0  0  0  0  0  0  0  0
   -6.5670   15.8310  -34.5110 O   0  0  0  0  0  0  0  0  0  0  0  0
   -5.9870   14.5950  -34.0910 C   0  0  0  0  0  0  0  0  0  0  0  0
   -4.9560   14.7730  -32.9450 C   0  0  0  0  0  0  0  0  0  0  0  0
   -3.5130   14.4750  -33.2680 N   0  0  0  0  0  0  0  0  0  0  0  0
   -2.9730   13.4330  -32.3530 C   0  0  0  0  0  0  0  0  0  0  0  0
   -2.7170   15.7350  -33.0480 C   0  0  0  0  0  0  0  0  0  0  0  0
   -1.4180   15.7760  -33.8700 C   0  0  0  0  0  0  0  0  0  0  0  0
   -1.7180   15.7630  -35.3780 C   0  0  0  0  0  0  0  0  0  0  0  0
   -3.0800   15.1190  -35.6910 C   0  0  0  0  0  0  0  0  0  0  0  0
   -3.3850   13.9930  -34.6890 C   0  0  0  0  0  0  0  0  0  0  0  0
   -4.8950   17.6360  -34.6030 C   0  0  0  0  0  0  0  0  0  0  0  0
   -4.5050   18.9180  -34.2260 C   0  0  0  0  0  0  0  0  0  0  0  0
   -5.3480   19.7420  -33.4390 C   0  0  0  0  0  0  0  0  0  0  0  0
   -0.7149   19.1365  -34.7095 H   0  0  0  0  0  0  0  0  0  0  0  0
   -1.2428   20.6902  -35.4403 H   0  0  0  0  0  0  0  0  0  0  0  0
    0.4970   20.2429  -35.4403 H   0  0  0  0  0  0  0  0  0  0  0  0
    0.8176   20.9985  -33.3300 H   0  0  0  0  0  0  0  0  0  0  0  0
   -0.8157   21.8403  -33.6020 H   0  0  0  0  0  0  0  0  0  0  0  0
   -1.7264   18.2818  -32.3278 H   0  0  0  0  0  0  0  0  0  0  0  0
   -0.1547   18.4919  -33.2556 H   0  0  0  0  0  0  0  0  0  0  0  0
   -0.3493   18.4401  -30.2173 H   0  0  0  0  0  0  0  0  0  0  0  0
    0.0425   17.0125  -31.2348 H   0  0  0  0  0  0  0  0  0  0  0  0
    1.1311   18.4414  -31.2348 H   0  0  0  0  0  0  0  0  0  0  0  0
    0.5679   20.0141  -30.7388 H   0  0  0  0  0  0  0  0  0  0  0  0
    0.3458   21.7046  -31.4579 H   0  0  0  0  0  0  0  0  0  0  0  0
   -0.4957   20.9615  -28.9621 H   0  0  0  0  0  0  0  0  0  0  0  0
   -1.1775   22.3010  -29.9459 H   0  0  0  0  0  0  0  0  0  0  0  0
   -1.9742   20.6910  -29.9459 H   0  0  0  0  0  0  0  0  0  0  0  0
   -2.9138   19.7774  -32.5661 H   0  0  0  0  0  0  0  0  0  0  0  0
   -2.4603   20.7388  -31.0547 H   0  0  0  0  0  0  0  0  0  0  0  0
   -3.0788   22.6125  -32.0189 H   0  0  0  0  0  0  0  0  0  0  0  0
   -1.8914   22.3109  -33.3612 H   0  0  0  0  0  0  0  0  0  0  0  0
   -4.1750   22.6000  -34.2170 H   0  0  0  0  0  0  0  0  0  0  0  0
   -3.4970   21.1800  -34.5700 H   0  0  0  0  0  0  0  0  0  0  0  0
   -4.4852   23.4659  -31.8666 H   0  0  0  0  0  0  0  0  0  0  0  0
   -6.0784   24.7447  -30.4599 H   0  0  0  0  0  0  0  0  0  0  0  0
   -8.2991   23.7837  -29.8854 H   0  0  0  0  0  0  0  0  0  0  0  0
   -8.9625   21.5612  -30.7607 H   0  0  0  0  0  0  0  0  0  0  0  0
   -9.3273   19.5993  -31.4137 H   0  0  0  0  0  0  0  0  0  0  0  0
   -9.5533   20.4686  -32.9693 H   0  0  0  0  0  0  0  0  0  0  0  0
   -9.1034   18.7296  -32.9693 H   0  0  0  0  0  0  0  0  0  0  0  0
   -7.8491   17.4495  -32.9306 H   0  0  0  0  0  0  0  0  0  0  0  0
   -6.7908   13.9308  -33.7406 H   0  0  0  0  0  0  0  0  0  0  0  0
   -5.4531   14.1698  -34.9536 H   0  0  0  0  0  0  0  0  0  0  0  0
   -5.0114   15.8188  -32.6086 H   0  0  0  0  0  0  0  0  0  0  0  0
   -5.2389   14.0262  -32.1885 H   0  0  0  0  0  0  0  0  0  0  0  0
   -3.1334   13.7424  -31.3097 H   0  0  0  0  0  0  0  0  0  0  0  0
   -3.4907   12.4799  -32.5365 H   0  0  0  0  0  0  0  0  0  0  0  0
   -1.8958   13.3064  -32.5365 H   0  0  0  0  0  0  0  0  0  0  0  0
   -3.3390   16.5967  -33.3320 H   0  0  0  0  0  0  0  0  0  0  0  0
   -2.4350   15.7648  -31.9852 H   0  0  0  0  0  0  0  0  0  0  0  0
   -0.8642   16.6934  -33.6215 H   0  0  0  0  0  0  0  0  0  0  0  0
   -0.8203   14.8858  -33.6245 H   0  0  0  0  0  0  0  0  0  0  0  0
   -1.7219   16.7989  -35.7479 H   0  0  0  0  0  0  0  0  0  0  0  0
   -0.9386   15.1656  -35.8736 H   0  0  0  0  0  0  0  0  0  0  0  0
   -3.8666   15.8852  -35.6254 H   0  0  0  0  0  0  0  0  0  0  0  0
   -3.0487   14.6945  -36.7053 H   0  0  0  0  0  0  0  0  0  0  0  0
   -4.3308   13.5133  -34.9809 H   0  0  0  0  0  0  0  0  0  0  0  0
   -2.5370   13.2931  -34.7192 H   0  0  0  0  0  0  0  0  0  0  0  0
   -4.2424   17.0320  -35.2505 H   0  0  0  0  0  0  0  0  0  0  0  0
   -3.5236   19.2989  -34.5450 H   0  0  0  0  0  0  0  0  0  0  0  0
  1  2  1  0
  2  3  1  0
  3  4  1  0
  4  5  1  0
  3  6  1  0
  6  7  1  0
  3  8  1  0
  8  9  1  0
  9 10  1  0
 10 11  1  0
 11 12  2  0
 12 13  1  0
 13 14  2  0
 14 15  1  0
 15 16  2  0
 16 17  1  0
 17 18  2  0
 18 19  1  0
 18 20  1  0
 20 21  2  0
 21 22  1  0
 22 23  1  0
 23 24  1  0
 24 25  1  0
 25 26  1  0
 26 27  1  0
 26 28  1  0
 28 29  1  0
 29 30  1  0
 30 31  1  0
 31 32  1  0
 22 33  2  0
 33 34  1  0
 34 35  2  0
 35 11  1  0
 17 12  1  0
 35 20  1  0
 32 26  1  0
  1 36  1  0
  1 37  1  0
  1 38  1  0
  2 39  1  0
  2 40  1  0
  4 41  1  0
  4 42  1  0
  5 43  1  0
  5 44  1  0
  5 45  1  0
  6 46  1  0
  6 47  1  0
  7 48  1  0
  7 49  1  0
  7 50  1  0
  8 51  1  0
  8 52  1  0
  9 53  1  0
  9 54  1  0
 10 55  1  0
 10 56  1  0
 13 57  1  0
 14 58  1  0
 15 59  1  0
 16 60  1  0
 19 61  1  0
 19 62  1  0
 19 63  1  0
 21 64  1  0
 24 65  1  0
 24 66  1  0
 25 67  1  0
 25 68  1  0
 27 69  1  0
 27 70  1  0
 27 71  1  0
 28 72  1  0
 28 73  1  0
 29 74  1  0
 29 75  1  0
 30 76  1  0
 30 77  1  0
 31 78  1  0
 31 79  1  0
 32 80  1  0
 32 81  1  0
 33 82  1  0
 34 83  1  0
M  CHG  4   3   1  10   1  18   1  26   1
M  END
>  <UniqueID>  (3) 
3

>  <SMILES>  (3) 
CC[N+](CC)(CC)CC[NH2+]c1c2ccccc2[n+](C)c2cc(OCC[N+]3(C)CCCCC3)ccc12

>  <Energy>  (3) 
160.60550180792387

>  <Genealogy>  (3) 
CC[N+](CC)(CC)CC[NH2+]c1c2ccccc2[n+](C)c2cc(OCC[N+]3(C)CCCCC3)ccc12 (protonated)
CC[N+](CC)(CC)CC[NH2+]c1c2ccccc2[n+](C)c2cc(OCC[N+]3(C)CCCCC3)ccc12 (3D coordinates assigned)
CC[N+](CC)(CC)CC[NH2+]c1c2ccccc2[n+](C)c2cc(OCC[N+]3(C)CCCCC3)ccc12 (nonaromatic ring conformer: 160.60550180792387 kcal/mol)

>  <smiles>  (3) 
CC[N+](CC)(CC)CCNc1c2ccccc2[n+](C)c2cc(OCC[N+]3(C)CCCCC3)ccc12

>  <score_type>  (3) 
oracle

>  <origin>  (3) 
adg

>  <m_score__min__energy>  (3) 
-6.6600000000000001

>  <m_primary>  (3) 
energy

$$$$
3:0
     RDKit          3D

 60 62  0  0  0  0  0  0  0  0999 V2000
   -0.9050   24.9070  -28.1960 C   0  0  0  0  0  0  0  0  0  0  0  0
   -1.6510   24.1850  -29.3150 C   0  0  0  0  0  0  0  0  0  0  0  0
   -2.9010   24.8920  -29.6390 N   0  0  0  0  0  0  0  0  0  0  0  0
   -4.0290   24.4880  -28.7800 C   0  0  0  0  0  0  0  0  0  0  0  0
   -5.3830   24.9680  -29.3220 C   0  0  0  0  0  0  0  0  0  0  0  0
   -5.2260   25.3200  -30.6830 O   0  0  0  0  0  0  0  0  0  0  0  0
   -6.0740   24.5510  -31.5170 C   0  0  0  0  0  0  0  0  0  0  0  0
   -5.4270   23.2210  -31.9180 C   0  0  0  0  0  0  0  0  0  0  0  0
   -4.0290   23.2760  -31.6800 O   0  0  0  0  0  0  0  0  0  0  0  0
   -3.5120   22.0190  -31.2900 C   0  0  0  0  0  0  0  0  0  0  0  0
   -3.0820   21.2050  -32.5180 C   0  0  0  0  0  0  0  0  0  0  0  0
   -4.2120   20.9660  -33.4190 N   0  0  0  0  0  0  0  0  0  0  0  0
   -4.8700   19.6880  -33.4970 C   0  0  0  0  0  0  0  0  0  0  0  0
   -4.1520   18.5380  -33.8770 C   0  0  0  0  0  0  0  0  0  0  0  0
   -2.8060   18.6270  -34.2920 C   0  0  0  0  0  0  0  0  0  0  0  0
   -2.0720   17.4790  -34.5780 C   0  0  0  0  0  0  0  0  0  0  0  0
   -2.6660   16.2270  -34.4600 C   0  0  0  0  0  0  0  0  0  0  0  0
   -4.0100   16.1180  -34.1040 C   0  0  0  0  0  0  0  0  0  0  0  0
   -4.7960   17.2720  -33.8550 C   0  0  0  0  0  0  0  0  0  0  0  0
   -6.1510   17.1860  -33.5890 N   0  0  0  0  0  0  0  0  0  0  0  0
   -6.8750   15.9230  -33.8550 C   0  0  0  0  0  0  0  0  0  0  0  0
   -6.8360   18.2910  -33.1160 C   0  0  0  0  0  0  0  0  0  0  0  0
   -8.1550   18.1880  -32.6080 C   0  0  0  0  0  0  0  0  0  0  0  0
   -8.8540   19.3150  -32.1790 C   0  0  0  0  0  0  0  0  0  0  0  0
   -8.2580   20.5750  -32.2170 C   0  0  0  0  0  0  0  0  0  0  0  0
   -9.0280   21.7920  -31.7970 C   0  0  0  0  0  0  0  0  0  0  0  0
   -6.9500   20.7000  -32.6930 C   0  0  0  0  0  0  0  0  0  0  0  0
   -6.2160   19.5680  -33.1110 C   0  0  0  0  0  0  0  0  0  0  0  0
   -1.2721   24.5517  -27.2218 H   0  0  0  0  0  0  0  0  0  0  0  0
    0.1720   24.6994  -28.2799 H   0  0  0  0  0  0  0  0  0  0  0  0
   -1.0773   25.9902  -28.2799 H   0  0  0  0  0  0  0  0  0  0  0  0
   -1.0132   24.1479  -30.2105 H   0  0  0  0  0  0  0  0  0  0  0  0
   -1.8943   23.1655  -28.9812 H   0  0  0  0  0  0  0  0  0  0  0  0
   -3.1440   24.7220  -30.6420 H   0  0  0  0  0  0  0  0  0  0  0  0
   -4.0453   23.3902  -28.7125 H   0  0  0  0  0  0  0  0  0  0  0  0
   -3.8806   24.9520  -27.7938 H   0  0  0  0  0  0  0  0  0  0  0  0
   -6.1254   24.1614  -29.2313 H   0  0  0  0  0  0  0  0  0  0  0  0
   -5.7304   25.8388  -28.7466 H   0  0  0  0  0  0  0  0  0  0  0  0
   -7.0099   24.3430  -30.9777 H   0  0  0  0  0  0  0  0  0  0  0  0
   -6.2649   25.1277  -32.4340 H   0  0  0  0  0  0  0  0  0  0  0  0
   -5.8670   22.4068  -31.3234 H   0  0  0  0  0  0  0  0  0  0  0  0
   -5.6066   23.0374  -32.9876 H   0  0  0  0  0  0  0  0  0  0  0  0
   -2.6410   22.1738  -30.6363 H   0  0  0  0  0  0  0  0  0  0  0  0
   -4.2968   21.4642  -30.7549 H   0  0  0  0  0  0  0  0  0  0  0  0
   -2.3020   21.7593  -33.0604 H   0  0  0  0  0  0  0  0  0  0  0  0
   -2.6997   20.2326  -32.1741 H   0  0  0  0  0  0  0  0  0  0  0  0
   -4.6140   21.7710  -33.9490 H   0  0  0  0  0  0  0  0  0  0  0  0
   -2.3315   19.6145  -34.3906 H   0  0  0  0  0  0  0  0  0  0  0  0
   -1.0226   17.5622  -34.8972 H   0  0  0  0  0  0  0  0  0  0  0  0
   -2.0736   15.3194  -34.6481 H   0  0  0  0  0  0  0  0  0  0  0  0
   -4.4675   15.1216  -34.0150 H   0  0  0  0  0  0  0  0  0  0  0  0
   -7.1471   15.4484  -32.9007 H   0  0  0  0  0  0  0  0  0  0  0  0
   -7.7872   16.1376  -34.4310 H   0  0  0  0  0  0  0  0  0  0  0  0
   -6.2288   15.2443  -34.4310 H   0  0  0  0  0  0  0  0  0  0  0  0
   -8.6360   17.2004  -32.5512 H   0  0  0  0  0  0  0  0  0  0  0  0
   -9.8840   19.2096  -31.8075 H   0  0  0  0  0  0  0  0  0  0  0  0
   -9.0610   21.8441  -30.6987 H   0  0  0  0  0  0  0  0  0  0  0  0
   -8.5348   22.6924  -32.1922 H   0  0  0  0  0  0  0  0  0  0  0  0
  -10.0528   21.7319  -32.1922 H   0  0  0  0  0  0  0  0  0  0  0  0
   -6.4848   21.6956  -32.7429 H   0  0  0  0  0  0  0  0  0  0  0  0
  1  2  1  0
  2  3  1  0
  3  4  1  0
  4  5  1  0
  5  6  1  0
  6  7  1  0
  7  8  1  0
  8  9  1  0
  9 10  1  0
 10 11  1  0
 11 12  1  0
 12 13  1  0
 13 14  2  0
 14 15  1  0
 15 16  2  0
 16 17  1  0
 17 18  2  0
 18 19  1  0
 19 20  2  0
 20 21  1  0
 20 22  1  0
 22 23  2  0
 23 24  1  0
 24 25  2  0
 25 26  1  0
 25 27  1  0
 27 28  2  0
 28 13  1  0
 19 14  1  0
 28 22  1  0
  1 29  1  0
  1 30  1  0
  1 31  1  0
  2 32  1  0
  2 33  1  0
  3 34  1  0
  4 35  1  0
  4 36  1  0
  5 37  1  0
  5 38  1  0
  7 39  1  0
  7 40  1  0
  8 41  1  0
  8 42  1  0
 10 43  1  0
 10 44  1  0
 11 45  1  0
 11 46  1  0
 12 47  1  0
 15 48  1  0
 16 49  1  0
 17 50  1  0
 18 51  1  0
 21 52  1  0
 21 53  1  0
 21 54  1  0
 23 55  1  0
 24 56  1  0
 26 57  1  0
 26 58  1  0
 26 59  1  0
 27 60  1  0
M  CHG  1  20   1
M  END
>  <UniqueID>  (4) 
4

>  <SMILES>  (4) 
CCNCCOCCOCCNc1c2ccccc2[n+](C)c2ccc(C)cc12

>  <Energy>  (4) 
87.20723433648658

>  <Genealogy>  (4) 
CCNCCOCCOCCNc1c2ccccc2[n+](C)c2ccc(C)cc12 (3D coordinates assigned)
CCNCCOCCOCCNc1c2ccccc2[n+](C)c2ccc(C)cc12 (optimized conformer: 87.20723433648658 kcal/mol)

>  <smiles>  (4) 
CCNCCOCCOCCNc1c2ccccc2[n+](C)c2ccc(C)cc12

>  <score_type>  (4) 
oracle

>  <origin>  (4) 
adg

>  <m_score__min__energy>  (4) 
-9.4299999999999997

>  <m_primary>  (4) 
energy

$$$$
4:0
     RDKit          3D

 59 60  0  0  0  0  0  0  0  0999 V2000
   -8.4464   22.5672  -32.2988 H   0  0  0  0  0  0  0  0  0  0  0  0
   -8.0630   21.8670  -31.5420 C   0  0  0  0  0  0  0  0  0  0  0  0
   -7.9840   22.2960  -30.2750 C   0  0  0  0  0  0  0  0  0  0  0  0
   -8.7885   21.9996  -29.5859 H   0  0  0  0  0  0  0  0  0  0  0  0
   -6.8740   23.1550  -29.7240 C   0  0  0  0  0  0  0  0  0  0  0  0
   -6.4317   22.6635  -28.8449 H   0  0  0  0  0  0  0  0  0  0  0  0
   -7.2792   24.1347  -29.4307 H   0  0  0  0  0  0  0  0  0  0  0  0
   -5.8790   23.3330  -30.7160 O   0  0  0  0  0  0  0  0  0  0  0  0
   -6.0220   24.5920  -31.3400 C   0  0  0  0  0  0  0  0  0  0  0  0
   -7.0850   24.8742  -31.3595 H   0  0  0  0  0  0  0  0  0  0  0  0
   -5.6409   24.5389  -32.3705 H   0  0  0  0  0  0  0  0  0  0  0  0
   -5.2320   25.6340  -30.5550 C   0  0  0  0  0  0  0  0  0  0  0  0
   -5.6524   25.7228  -29.5424 H   0  0  0  0  0  0  0  0  0  0  0  0
   -5.2979   26.6021  -31.0730 H   0  0  0  0  0  0  0  0  0  0  0  0
   -3.8740   25.2470  -30.4660 O   0  0  0  0  0  0  0  0  0  0  0  0
   -3.6480   24.4900  -29.2930 C   0  0  0  0  0  0  0  0  0  0  0  0
   -4.4052   23.6955  -29.2193 H   0  0  0  0  0  0  0  0  0  0  0  0
   -3.7171   25.1498  -28.4156 H   0  0  0  0  0  0  0  0  0  0  0  0
   -2.2510   23.8590  -29.3440 C   0  0  0  0  0  0  0  0  0  0  0  0
   -1.6366   24.2956  -28.5428 H   0  0  0  0  0  0  0  0  0  0  0  0
   -1.8251   24.0665  -30.3368 H   0  0  0  0  0  0  0  0  0  0  0  0
   -2.2890   22.3890  -29.1670 N   0  0  0  0  0  0  0  0  0  0  0  0
   -1.0730   21.6730  -29.6310 C   0  0  0  0  0  0  0  0  0  0  0  0
   -1.0580   20.6800  -29.1580 H   0  0  0  0  0  0  0  0  0  0  0  0
   -0.2147   22.2994  -29.3465 H   0  0  0  0  0  0  0  0  0  0  0  0
   -0.9860   21.4800  -31.1550 C   0  0  0  0  0  0  0  0  0  0  0  0
   -0.5431   20.4975  -31.3755 H   0  0  0  0  0  0  0  0  0  0  0  0
   -1.9951   21.5332  -31.5895 H   0  0  0  0  0  0  0  0  0  0  0  0
   -0.3575   22.2713  -31.5895 H   0  0  0  0  0  0  0  0  0  0  0  0
   -2.8440   21.8930  -27.8850 C   0  0  0  0  0  0  0  0  0  0  0  0
   -2.2819   22.3604  -27.0631 H   0  0  0  0  0  0  0  0  0  0  0  0
   -3.9112   22.1597  -27.8811 H   0  0  0  0  0  0  0  0  0  0  0  0
   -2.7730   20.3730  -27.7100 C   0  0  0  0  0  0  0  0  0  0  0  0
   -2.7615   20.1275  -26.6378 H   0  0  0  0  0  0  0  0  0  0  0  0
   -3.6504   19.9080  -28.1833 H   0  0  0  0  0  0  0  0  0  0  0  0
   -1.8561   19.9919  -28.1833 H   0  0  0  0  0  0  0  0  0  0  0  0
   -7.6680   20.5120  -31.9900 C   0  0  0  0  0  0  0  0  0  0  0  0
   -8.5940   19.4800  -31.8070 C   0  0  0  0  0  0  0  0  0  0  0  0
   -9.5514   19.6860  -31.3060 H   0  0  0  0  0  0  0  0  0  0  0  0
   -8.3110   18.1990  -32.2540 C   0  0  0  0  0  0  0  0  0  0  0  0
   -9.0285   17.3834  -32.0808 H   0  0  0  0  0  0  0  0  0  0  0  0
   -7.1160   17.9470  -32.9230 C   0  0  0  0  0  0  0  0  0  0  0  0
   -6.8450   16.6550  -33.3980 C   0  0  0  0  0  0  0  0  0  0  0  0
   -7.5666   15.8438  -33.2209 H   0  0  0  0  0  0  0  0  0  0  0  0
   -5.6660   16.3950  -34.0930 C   0  0  0  0  0  0  0  0  0  0  0  0
   -5.4559   15.3790  -34.4585 H   0  0  0  0  0  0  0  0  0  0  0  0
   -4.7540   17.4200  -34.3250 C   0  0  0  0  0  0  0  0  0  0  0  0
   -3.8286   17.2123  -34.8822 H   0  0  0  0  0  0  0  0  0  0  0  0
   -5.0060   18.7110  -33.8550 C   0  0  0  0  0  0  0  0  0  0  0  0
   -4.2772   19.5111  -34.0517 H   0  0  0  0  0  0  0  0  0  0  0  0
   -6.1890   19.0060  -33.1270 C   0  0  0  0  0  0  0  0  0  0  0  0
   -6.4650   20.2730  -32.6300 N   0  0  0  0  0  0  0  0  0  0  0  0
   -5.4860   21.3780  -32.7660 C   0  0  0  0  0  0  0  0  0  0  0  0
   -5.1521   21.4363  -33.8125 H   0  0  0  0  0  0  0  0  0  0  0  0
   -5.9727   22.3173  -32.4646 H   0  0  0  0  0  0  0  0  0  0  0  0
   -4.2740   21.1470  -31.8670 C   0  0  0  0  0  0  0  0  0  0  0  0
   -4.5828   21.2059  -30.8129 H   0  0  0  0  0  0  0  0  0  0  0  0
   -3.8511   20.1521  -32.0702 H   0  0  0  0  0  0  0  0  0  0  0  0
   -3.5148   21.9166  -32.0702 H   0  0  0  0  0  0  0  0  0  0  0  0
  1  2  1  0
  2  3  2  0
  3  4  1  0
  3  5  1  0
  5  6  1  0
  5  7  1  0
  5  8  1  0
  8  9  1  0
  9 10  1  0
  9 11  1  0
  9 12  1  0
 12 13  1  0
 12 14  1  0
 12 15  1  0
 15 16  1  0
 16 17  1  0
 16 18  1  0
 16 19  1  0
 19 20  1  0
 19 21  1  0
 19 22  1  0
 22 23  1  0
 23 24  1  0
 23 25  1  0
 23 26  1  0
 26 27  1  0
 26 28  1  0
 26 29  1  0
 22 30  1  0
 30 31  1  0
 30 32  1  0
 30 33  1  0
 33 34  1  0
 33 35  1  0
 33 36  1  0
  2 37  1  0
 37 38  2  0
 38 39  1  0
 38 40  1  0
 40 41  1  0
 40 42  2  0
 42 43  1  0
 43 44  1  0
 43 45  2  0
 45 46  1  0
 45 47  1  0
 47 48  1  0
 47 49  2  0
 49 50  1  0
 49 51  1  0
 51 52  2  0
 52 53  1  0
 53 54  1  0
 53 55  1  0
 53 56  1  0
 56 57  1  0
 56 58  1  0
 56 59  1  0
 52 37  1  0
 51 42  1  0
M  CHG  1  52   1
M  END
>  <UniqueID>  (5) 
5

>  <SMILES>  (5) 
CCN(CC)CCOCCOC/C=C\c1ccc2ccccc2[n+]1CC

>  <Energy>  (5) 
81.8424643752899

>  <Genealogy>  (5) 
CCN(CC)CCOCCOC/C=C\c1ccc2ccccc2[n+]1CC (cis-trans isomerization)
CCN(CC)CCOCCOC/C=C\c1ccc2ccccc2[n+]1CC (3D coordinates assigned)
CCN(CC)CCOCCOC/C=C\c1ccc2ccccc2[n+]1CC (optimized conformer: 81.8424643752899 kcal/mol)

>  <smiles>  (5) 
CCN(CC)CCOCCOCC=Cc1ccc2ccccc2[n+]1CC

>  <score_type>  (5) 
oracle

>  <origin>  (5) 
adg

>  <m_score__min__energy>  (5) 
-8.5500000000000007

>  <m_primary>  (5) 
energy

$$$$
5:0
     RDKit          3D

 44 46  0  0  0  0  0  0  0  0999 V2000
   -2.0490   25.7310  -26.1040 C   0  0  0  0  0  0  0  0  0  0  0  0
   -2.5380   24.9780  -27.2700 N   0  0  0  0  0  0  0  0  0  0  0  0
   -3.8640   24.3920  -27.0190 C   0  0  0  0  0  0  0  0  0  0  0  0
   -1.5540   24.0130  -27.8160 C   0  0  0  0  0  0  0  0  0  0  0  0
   -1.6300   23.7740  -29.3420 C   0  0  0  0  0  0  0  0  0  0  0  0
   -2.9230   23.2340  -29.7560 N   0  0  0  0  0  0  0  0  0  0  0  0
   -3.9630   24.0560  -30.3160 C   0  0  0  0  0  0  0  0  0  0  0  0
   -3.7620   25.2910  -30.4770 O   0  0  0  0  0  0  0  0  0  0  0  0
   -5.2620   23.4750  -30.7300 C   0  0  0  0  0  0  0  0  0  0  0  0
   -6.3970   24.3210  -30.8630 C   0  0  0  0  0  0  0  0  0  0  0  0
   -7.6450   23.8000  -31.2520 C   0  0  0  0  0  0  0  0  0  0  0  0
   -7.7360   22.4350  -31.4960 C   0  0  0  0  0  0  0  0  0  0  0  0
   -8.8340   21.7410  -31.8550 N   0  0  0  0  0  0  0  0  0  0  0  0
   -8.4300   20.4530  -31.9370 C   0  0  0  0  0  0  0  0  0  0  0  0
   -7.0770   20.3360  -31.6670 C   0  0  0  0  0  0  0  0  0  0  0  0
   -6.6450   21.6090  -31.3660 C   0  0  0  0  0  0  0  0  0  0  0  0
   -5.3960   22.0880  -30.9770 C   0  0  0  0  0  0  0  0  0  0  0  0
   -6.3380   19.0340  -31.6010 C   0  0  0  0  0  0  0  0  0  0  0  0
   -7.1290   17.9330  -32.3340 C   0  0  0  0  0  0  0  0  0  0  0  0
   -8.6270   17.9620  -31.9640 C   0  0  0  0  0  0  0  0  0  0  0  0
   -9.2890   19.2980  -32.3580 C   0  0  0  0  0  0  0  0  0  0  0  0
   -2.3747   25.2295  -25.1808 H   0  0  0  0  0  0  0  0  0  0  0  0
   -0.9501   25.7740  -26.1298 H   0  0  0  0  0  0  0  0  0  0  0  0
   -2.4566   26.7524  -26.1298 H   0  0  0  0  0  0  0  0  0  0  0  0
   -4.0326   24.3175  -25.9346 H   0  0  0  0  0  0  0  0  0  0  0  0
   -4.6384   25.0317  -27.4674 H   0  0  0  0  0  0  0  0  0  0  0  0
   -3.9123   23.3887  -27.4674 H   0  0  0  0  0  0  0  0  0  0  0  0
   -0.5466   24.3875  -27.5817 H   0  0  0  0  0  0  0  0  0  0  0  0
   -1.7885   23.0458  -27.3474 H   0  0  0  0  0  0  0  0  0  0  0  0
   -1.4649   24.7311  -29.8584 H   0  0  0  0  0  0  0  0  0  0  0  0
   -0.8578   23.0363  -29.6055 H   0  0  0  0  0  0  0  0  0  0  0  0
   -3.0800   22.2120  -29.6190 H   0  0  0  0  0  0  0  0  0  0  0  0
   -6.2982   25.3974  -30.6590 H   0  0  0  0  0  0  0  0  0  0  0  0
   -8.5228   24.4541  -31.3598 H   0  0  0  0  0  0  0  0  0  0  0  0
   -9.7940   22.1150  -32.0260 H   0  0  0  0  0  0  0  0  0  0  0  0
   -4.5388   21.4078  -30.8651 H   0  0  0  0  0  0  0  0  0  0  0  0
   -5.3531   19.1511  -32.0766 H   0  0  0  0  0  0  0  0  0  0  0  0
   -6.2151   18.7451  -30.5468 H   0  0  0  0  0  0  0  0  0  0  0  0
   -7.0270   18.0834  -33.4189 H   0  0  0  0  0  0  0  0  0  0  0  0
   -6.7202   16.9580  -32.0304 H   0  0  0  0  0  0  0  0  0  0  0  0
   -9.1393   17.1424  -32.4891 H   0  0  0  0  0  0  0  0  0  0  0  0
   -8.7119   17.8472  -30.8733 H   0  0  0  0  0  0  0  0  0  0  0  0
   -9.4252   19.3268  -33.4492 H   0  0  0  0  0  0  0  0  0  0  0  0
  -10.2629   19.3756  -31.8526 H   0  0  0  0  0  0  0  0  0  0  0  0
  1  2  1  0
  2  3  1  0
  2  4  1  0
  4  5  1  0
  5  6  1  0
  6  7  1  0
  7  8  2  0
  7  9  1  0
  9 10  2  0
 10 11  1  0
 11 12  2  0
 12 13  1  0
 13 14  1  0
 14 15  2  0
 15 16  1  0
 16 17  2  0
 15 18  1  0
 18 19  1  0
 19 20  1  0
 20 21  1  0
 17  9  1  0
 16 12  1  0
 21 14  1  0
  1 22  1  0
  1 23  1  0
  1 24  1  0
  3 25  1  0
  3 26  1  0
  3 27  1  0
  4 28  1  0
  4 29  1  0
  5 30  1  0
  5 31  1  0
  6 32  1  0
 10 33  1  0
 11 34  1  0
 13 35  1  0
 17 36  1  0
 18 37  1  0
 18 38  1  0
 19 39  1  0
 19 40  1  0
 20 41  1  0
 20 42  1  0
 21 43  1  0
 21 44  1  0
M  END
>  <UniqueID>  (6) 
6

>  <SMILES>  (6) 
CN(C)CCNC(=O)c1ccc2[nH]c3c(c2c1)CCCC3

>  <Energy>  (6) 
80.27968006845185

>  <Genealogy>  (6) 
CN(C)CCNC(=O)c1ccc2[nH]c3c(c2c1)CCCC3 (3D coordinates assigned)
CN(C)CCNC(=O)c1ccc2[nH]c3c(c2c1)CCCC3 (nonaromatic ring conformer: 80.27968006845185 kcal/mol)

>  <smiles>  (6) 
CN(C)CCNC(=O)c1ccc2[nH]c3c(c2c1)CCCC3

>  <score_type>  (6) 
oracle

>  <origin>  (6) 
adg

>  <m_score__min__energy>  (6) 
-8.3499999999999996

>  <m_primary>  (6) 
energy

$$$$
6:0
     RDKit          3D

 38 39  0  0  0  0  0  0  0  0999 V2000
   -5.3931   26.3944  -31.4749 H   0  0  0  0  0  0  0  0  0  0  0  0
   -5.0730   25.4370  -31.0380 C   0  0  0  0  0  0  0  0  0  0  0  0
   -3.8640   25.3380  -30.4460 N   0  0  0  0  0  0  0  0  0  0  0  0
   -3.4160   24.1740  -29.9170 C   0  0  0  0  0  0  0  0  0  0  0  0
   -2.1450   24.1600  -29.3310 C   0  0  0  0  0  0  0  0  0  0  0  0
   -1.5573   25.0884  -29.2791 H   0  0  0  0  0  0  0  0  0  0  0  0
   -1.6200   22.9810  -28.8140 C   0  0  0  0  0  0  0  0  0  0  0  0
   -0.6278   22.9797  -28.3390 H   0  0  0  0  0  0  0  0  0  0  0  0
   -2.3550   21.8030  -28.9000 C   0  0  0  0  0  0  0  0  0  0  0  0
   -1.9333   20.8669  -28.5052 H   0  0  0  0  0  0  0  0  0  0  0  0
   -3.6250   21.7990  -29.4840 C   0  0  0  0  0  0  0  0  0  0  0  0
   -4.1799   20.8523  -29.5609 H   0  0  0  0  0  0  0  0  0  0  0  0
   -4.2120   22.9900  -29.9790 C   0  0  0  0  0  0  0  0  0  0  0  0
   -5.5300   23.1010  -30.5560 C   0  0  0  0  0  0  0  0  0  0  0  0
   -6.4540   22.1720  -30.5980 N   0  0  0  0  0  0  0  0  0  0  0  0
   -7.9110   22.1770  -30.4890 C   0  0  0  0  0  0  0  0  0  0  0  0
   -8.2341   23.1329  -30.0510 H   0  0  0  0  0  0  0  0  0  0  0  0
   -8.2138   21.3337  -29.8509 H   0  0  0  0  0  0  0  0  0  0  0  0
   -8.5750   22.0070  -31.8630 C   0  0  0  0  0  0  0  0  0  0  0  0
   -7.8059   22.0723  -32.6467 H   0  0  0  0  0  0  0  0  0  0  0  0
   -9.3227   22.8027  -31.9964 H   0  0  0  0  0  0  0  0  0  0  0  0
   -9.2230   20.7530  -31.9510 O   0  0  0  0  0  0  0  0  0  0  0  0
   -8.4610   19.7440  -31.3220 C   0  0  0  0  0  0  0  0  0  0  0  0
   -9.1438   19.0193  -30.8545 H   0  0  0  0  0  0  0  0  0  0  0  0
   -7.8167   20.2178  -30.5668 H   0  0  0  0  0  0  0  0  0  0  0  0
   -7.5630   19.0070  -32.3290 C   0  0  0  0  0  0  0  0  0  0  0  0
   -8.0655   18.0806  -32.6440 H   0  0  0  0  0  0  0  0  0  0  0  0
   -6.6040   18.7863  -31.8374 H   0  0  0  0  0  0  0  0  0  0  0  0
   -7.3020   19.8000  -33.4730 O   0  0  0  0  0  0  0  0  0  0  0  0
   -5.9510   19.6780  -33.8630 C   0  0  0  0  0  0  0  0  0  0  0  0
   -5.8575   19.8879  -34.9387 H   0  0  0  0  0  0  0  0  0  0  0  0
   -5.5976   18.6559  -33.6619 H   0  0  0  0  0  0  0  0  0  0  0  0
   -5.1160   20.6730  -33.0760 C   0  0  0  0  0  0  0  0  0  0  0  0
   -5.2599   20.5016  -31.9990 H   0  0  0  0  0  0  0  0  0  0  0  0
   -4.0537   20.5417  -33.3295 H   0  0  0  0  0  0  0  0  0  0  0  0
   -5.4297   21.6964  -33.3295 H   0  0  0  0  0  0  0  0  0  0  0  0
   -5.9140   24.3330  -31.0970 C   0  0  0  0  0  0  0  0  0  0  0  0
   -6.8989   24.4289  -31.5773 H   0  0  0  0  0  0  0  0  0  0  0  0
  1  2  1  0
  2  3  1  0
  3  4  1  0
  4  5  2  0
  5  6  1  0
  5  7  1  0
  7  8  1  0
  7  9  2  0
  9 10  1  0
  9 11  1  0
 11 12  1  0
 11 13  2  0
 13 14  1  0
 14 15  2  0
 15 16  1  0
 16 17  1  0
 16 18  1  0
 16 19  1  0
 19 20  1  0
 19 21  1  0
 19 22  1  0
 22 23  1  0
 23 24  1  0
 23 25  1  0
 23 26  1  0
 26 27  1  0
 26 28  1  0
 26 29  1  0
 29 30  1  0
 30 31  1  0
 30 32  1  0
 30 33  1  0
 33 34  1  0
 33 35  1  0
 33 36  1  0
 14 37  1  0
 37 38  1  0
 37  2  2  0
 13  4  1  0
M  CHG  1   3  -1
M  END
>  <UniqueID>  (7) 
7

>  <SMILES>  (7) 
CCOCCOCC/N=c1/cc[n-]c2ccccc12

>  <Energy>  (7) 
57.382327525180614

>  <Genealogy>  (7) 
CCOCCOCCN=c1cc[n-]c2ccccc12 (protonated)
CCOCCOCC/N=c1/cc[n-]c2ccccc12 (cis-trans isomerization)
CCOCCOCC/N=c1/cc[n-]c2ccccc12 (3D coordinates assigned)
CCOCCOCC/N=c1/cc[n-]c2ccccc12 (optimized conformer: 57.382327525180614 kcal/mol)

>  <smiles>  (7) 
CCOCCOCCN=c1cc[nH]c2ccccc12

>  <score_type>  (7) 
oracle

>  <origin>  (7) 
adg

>  <m_score__min__energy>  (7) 
-7.5099999999999998

>  <m_primary>  (7) 
energy

$$$$
7:0
     RDKit          3D

 83 86  0  0  0  0  0  0  0  0999 V2000
   -9.4650   19.9180  -32.3550 C   0  0  0  0  0  0  0  0  0  0  0  0
   -8.7520   18.6370  -31.9240 C   0  0  0  0  0  0  0  0  0  0  0  0
   -7.3640   18.5820  -32.4340 N   0  0  0  0  0  0  0  0  0  0  0  0
   -6.8770   17.2420  -32.8410 C   0  0  0  0  0  0  0  0  0  0  0  0
   -5.7590   16.6820  -31.9590 C   0  0  0  0  0  0  0  0  0  0  0  0
   -6.9830   19.6820  -33.3550 C   0  0  0  0  0  0  0  0  0  0  0  0
   -6.2040   20.8440  -32.6830 C   0  0  0  0  0  0  0  0  0  0  0  0
   -5.0060   21.2350  -33.4500 N   0  0  0  0  0  0  0  0  0  0  0  0
   -3.7710   20.9260  -32.7360 C   0  0  0  0  0  0  0  0  0  0  0  0
   -3.1090   19.6850  -32.9630 C   0  0  0  0  0  0  0  0  0  0  0  0
   -3.6410   18.7000  -33.8350 C   0  0  0  0  0  0  0  0  0  0  0  0
   -3.0180   17.4640  -33.9970 C   0  0  0  0  0  0  0  0  0  0  0  0
   -1.8630   17.1700  -33.2890 C   0  0  0  0  0  0  0  0  0  0  0  0
   -1.3010   18.1250  -32.4470 C   0  0  0  0  0  0  0  0  0  0  0  0
   -1.8790   19.4140  -32.3030 C   0  0  0  0  0  0  0  0  0  0  0  0
   -1.2730   20.3830  -31.5380 N   0  0  0  0  0  0  0  0  0  0  0  0
    0.1520   20.2360  -31.1610 C   0  0  0  0  0  0  0  0  0  0  0  0
   -1.9750   21.5050  -31.1550 C   0  0  0  0  0  0  0  0  0  0  0  0
   -1.4900   22.3480  -30.1230 C   0  0  0  0  0  0  0  0  0  0  0  0
   -2.1550   23.5250  -29.7650 C   0  0  0  0  0  0  0  0  0  0  0  0
   -1.6940   24.3700  -28.7460 O   0  0  0  0  0  0  0  0  0  0  0  0
   -2.1980   24.4170  -27.4160 C   0  0  0  0  0  0  0  0  0  0  0  0
   -1.6540   25.6480  -26.6530 C   0  0  0  0  0  0  0  0  0  0  0  0
   -0.4330   25.4130  -25.8140 N   0  0  2  0  0  0  0  0  0  0  0  0
    0.3490   24.2650  -26.3420 C   0  0  0  0  0  0  0  0  0  0  0  0
   -0.8510   25.1270  -24.4150 C   0  0  0  0  0  0  0  0  0  0  0  0
   -0.5040   26.3510  -23.5960 C   0  0  0  0  0  0  0  0  0  0  0  0
    0.6270   26.9840  -24.2870 N   0  0  0  0  0  0  0  0  0  0  0  0
    0.6210   28.4520  -24.0750 C   0  0  0  0  0  0  0  0  0  0  0  0
    1.9150   26.4330  -23.7950 C   0  0  0  0  0  0  0  0  0  0  0  0
    0.4180   26.6400  -25.7150 C   0  0  0  0  0  0  0  0  0  0  0  0
   -3.3190   23.8890  -30.4320 C   0  0  0  0  0  0  0  0  0  0  0  0
   -3.9340   25.1010  -30.0680 O   0  0  0  0  0  0  0  0  0  0  0  0
   -5.3360   25.3410  -30.0830 C   0  0  0  0  0  0  0  0  0  0  0  0
   -3.8420   23.0510  -31.4270 C   0  0  0  0  0  0  0  0  0  0  0  0
   -3.2120   21.8310  -31.7820 C   0  0  0  0  0  0  0  0  0  0  0  0
   -9.7783   20.4810  -31.4634 H   0  0  0  0  0  0  0  0  0  0  0  0
   -8.7802   20.5344  -32.9559 H   0  0  0  0  0  0  0  0  0  0  0  0
  -10.3497   19.6608  -32.9559 H   0  0  0  0  0  0  0  0  0  0  0  0
   -8.7294   18.5947  -30.8250 H   0  0  0  0  0  0  0  0  0  0  0  0
   -9.3036   17.7818  -32.3415 H   0  0  0  0  0  0  0  0  0  0  0  0
   -7.7253   16.5425  -32.8070 H   0  0  0  0  0  0  0  0  0  0  0  0
   -6.4546   17.3543  -33.8504 H   0  0  0  0  0  0  0  0  0  0  0  0
   -6.0256   16.8155  -30.9002 H   0  0  0  0  0  0  0  0  0  0  0  0
   -5.6261   15.6109  -32.1714 H   0  0  0  0  0  0  0  0  0  0  0  0
   -4.8216   17.2170  -32.1714 H   0  0  0  0  0  0  0  0  0  0  0  0
   -6.3517   19.2603  -34.1510 H   0  0  0  0  0  0  0  0  0  0  0  0
   -7.9220   20.1126  -33.7330 H   0  0  0  0  0  0  0  0  0  0  0  0
   -6.8706   21.7151  -32.6005 H   0  0  0  0  0  0  0  0  0  0  0  0
   -5.8707   20.4967  -31.6939 H   0  0  0  0  0  0  0  0  0  0  0  0
   -5.0480   22.2580  -33.6560 H   0  0  0  0  0  0  0  0  0  0  0  0
   -5.0550   20.8370  -34.4090 H   0  0  0  0  0  0  0  0  0  0  0  0
   -4.5633   18.9163  -34.3941 H   0  0  0  0  0  0  0  0  0  0  0  0
   -3.4432   16.7208  -34.6875 H   0  0  0  0  0  0  0  0  0  0  0  0
   -1.3907   16.1820  -33.3927 H   0  0  0  0  0  0  0  0  0  0  0  0
   -0.3908   17.8763  -31.8817 H   0  0  0  0  0  0  0  0  0  0  0  0
    0.2422   20.2267  -30.0647 H   0  0  0  0  0  0  0  0  0  0  0  0
    0.5438   19.2927  -31.5692 H   0  0  0  0  0  0  0  0  0  0  0  0
    0.7282   21.0795  -31.5692 H   0  0  0  0  0  0  0  0  0  0  0  0
   -0.5683   22.0694  -29.5911 H   0  0  0  0  0  0  0  0  0  0  0  0
   -3.2960   24.4730  -27.4505 H   0  0  0  0  0  0  0  0  0  0  0  0
   -1.8716   23.5087  -26.8883 H   0  0  0  0  0  0  0  0  0  0  0  0
   -1.4092   26.4227  -27.3945 H   0  0  0  0  0  0  0  0  0  0  0  0
   -2.4481   25.9356  -25.9482 H   0  0  0  0  0  0  0  0  0  0  0  0
    0.7494   23.6772  -25.5029 H   0  0  0  0  0  0  0  0  0  0  0  0
   -0.3041   23.6284  -26.9570 H   0  0  0  0  0  0  0  0  0  0  0  0
    1.1805   24.6396  -26.9570 H   0  0  0  0  0  0  0  0  0  0  0  0
   -1.9340   24.9388  -24.3744 H   0  0  0  0  0  0  0  0  0  0  0  0
   -0.3407   24.2338  -24.0254 H   0  0  0  0  0  0  0  0  0  0  0  0
   -1.3610   27.0393  -23.5530 H   0  0  0  0  0  0  0  0  0  0  0  0
   -0.2498   26.0869  -22.5589 H   0  0  0  0  0  0  0  0  0  0  0  0
    0.6201   28.6667  -22.9962 H   0  0  0  0  0  0  0  0  0  0  0  0
    1.5174   28.8927  -24.5358 H   0  0  0  0  0  0  0  0  0  0  0  0
   -0.2789   28.8853  -24.5358 H   0  0  0  0  0  0  0  0  0  0  0  0
    1.9171   26.4321  -22.6950 H   0  0  0  0  0  0  0  0  0  0  0  0
    2.0378   25.4036  -24.1628 H   0  0  0  0  0  0  0  0  0  0  0  0
    2.7443   27.0551  -24.1628 H   0  0  0  0  0  0  0  0  0  0  0  0
   -0.0839   27.4762  -26.2238 H   0  0  0  0  0  0  0  0  0  0  0  0
    1.3908   26.4506  -26.1923 H   0  0  0  0  0  0  0  0  0  0  0  0
   -5.7082   25.4047  -29.0498 H   0  0  0  0  0  0  0  0  0  0  0  0
   -5.5405   26.2872  -30.6054 H   0  0  0  0  0  0  0  0  0  0  0  0
   -5.8435   24.5167  -30.6054 H   0  0  0  0  0  0  0  0  0  0  0  0
   -4.7654   23.3476  -31.9460 H   0  0  0  0  0  0  0  0  0  0  0  0
  1  2  1  0
  2  3  1  0
  3  4  1  0
  4  5  1  0
  3  6  1  0
  6  7  1  0
  7  8  1  0
  8  9  1  0
  9 10  2  0
 10 11  1  0
 11 12  2  0
 12 13  1  0
 13 14  2  0
 14 15  1  0
 15 16  2  0
 16 17  1  0
 16 18  1  0
 18 19  2  0
 19 20  1  0
 20 21  1  0
 21 22  1  0
 22 23  1  0
 24 23  1  6
 24 25  1  0
 24 26  1  0
 26 27  1  0
 27 28  1  0
 28 29  1  0
 28 30  1  0
 28 31  1  0
 20 32  2  0
 32 33  1  0
 33 34  1  0
 32 35  1  0
 35 36  2  0
 36  9  1  0
 15 10  1  0
 36 18  1  0
 31 24  1  0
  1 37  1  0
  1 38  1  0
  1 39  1  0
  2 40  1  0
  2 41  1  0
  4 42  1  0
  4 43  1  0
  5 44  1  0
  5 45  1  0
  5 46  1  0
  6 47  1  0
  6 48  1  0
  7 49  1  0
  7 50  1  0
  8 51  1  0
  8 52  1  0
 11 53  1  0
 12 54  1  0
 13 55  1  0
 14 56  1  0
 17 57  1  0
 17 58  1  0
 17 59  1  0
 19 60  1  0
 22 61  1  0
 22 62  1  0
 23 63  1  0
 23 64  1  0
 25 65  1  0
 25 66  1  0
 25 67  1  0
 26 68  1  0
 26 69  1  0
 27 70  1  0
 27 71  1  0
 29 72  1  0
 29 73  1  0
 29 74  1  0
 30 75  1  0
 30 76  1  0
 30 77  1  0
 31 78  1  0
 31 79  1  0
 34 80  1  0
 34 81  1  0
 34 82  1  0
 35 83  1  0
M  CHG  4   8   1  16   1  24   1  28   1
M  END
>  <UniqueID>  (8) 
8

>  <SMILES>  (8) 
CCN(CC)CC[NH2+]c1c2ccccc2[n+](C)c2cc(OCC[N@+]3(C)CC[N+](C)(C)C3)c(OC)cc12

>  <Energy>  (8) 
137.92460898329452

>  <Genealogy>  (8) 
CCN(CC)CC[NH2+]c1c2ccccc2[n+](C)c2cc(OCC[N+]3(C)CC[N+](C)(C)C3)c(OC)cc12 (protonated)
CCN(CC)CC[NH2+]c1c2ccccc2[n+](C)c2cc(OCC[N@+]3(C)CC[N+](C)(C)C3)c(OC)cc12 (chirality)
CCN(CC)CC[NH2+]c1c2ccccc2[n+](C)c2cc(OCC[N@+]3(C)CC[N+](C)(C)C3)c(OC)cc12 (3D coordinates assigned)
CCN(CC)CC[NH2+]c1c2ccccc2[n+](C)c2cc(OCC[N@+]3(C)CC[N+](C)(C)C3)c(OC)cc12 (nonaromatic ring conformer: 137.92460898329452 kcal/mol)

>  <smiles>  (8) 
CCN(CC)CCNc1c2ccccc2[n+](C)c2cc(OCC[N+]3(C)CC[N+](C)(C)C3)c(OC)cc12

>  <score_type>  (8) 
oracle

>  <origin>  (8) 
adg

>  <m_score__min__energy>  (8) 
-7.7000000000000002

>  <m_primary>  (8) 
energy

$$$$
8:0
     RDKit          3D

 85 87  0  0  0  0  0  0  0  0999 V2000
   -6.1510   25.6510  -29.7530 C   0  0  0  0  0  0  0  0  0  0  0  0
   -5.2720   24.6600  -30.5150 C   0  0  0  0  0  0  0  0  0  0  0  0
   -5.2110   23.2910  -29.8240 C   0  0  0  0  0  0  0  0  0  0  0  0
   -3.8890   22.6510  -30.0060 N   0  0  0  0  0  0  0  0  0  0  0  0
   -3.2890   22.9070  -31.3350 C   0  0  0  0  0  0  0  0  0  0  0  0
   -3.4300   21.6750  -32.2370 C   0  0  0  0  0  0  0  0  0  0  0  0
   -4.6120   21.7760  -33.0880 N   0  0  0  0  0  0  0  0  0  0  0  0
   -5.7430   20.9090  -32.8840 C   0  0  0  0  0  0  0  0  0  0  0  0
   -6.9790   21.4400  -32.4670 C   0  0  0  0  0  0  0  0  0  0  0  0
   -7.1470   22.8270  -32.2860 C   0  0  0  0  0  0  0  0  0  0  0  0
   -8.3770   23.3570  -31.9070 C   0  0  0  0  0  0  0  0  0  0  0  0
   -9.4720   22.5190  -31.7370 C   0  0  0  0  0  0  0  0  0  0  0  0
   -9.3360   21.1430  -31.9240 C   0  0  0  0  0  0  0  0  0  0  0  0
   -8.0830   20.5680  -32.2590 C   0  0  0  0  0  0  0  0  0  0  0  0
   -7.9260   19.2040  -32.4100 N   0  0  0  0  0  0  0  0  0  0  0  0
   -8.9750   18.2770  -31.9230 C   0  0  0  0  0  0  0  0  0  0  0  0
   -6.7780   18.7000  -32.9950 C   0  0  0  0  0  0  0  0  0  0  0  0
   -6.6940   17.3510  -33.4220 C   0  0  0  0  0  0  0  0  0  0  0  0
   -5.4960   16.8160  -33.9260 C   0  0  0  0  0  0  0  0  0  0  0  0
   -5.3730   15.4740  -34.3310 O   0  0  0  0  0  0  0  0  0  0  0  0
   -5.3280   14.3450  -33.4570 C   0  0  0  0  0  0  0  0  0  0  0  0
   -3.8660   14.0160  -33.0740 C   0  0  0  0  0  0  0  0  0  0  0  0
   -3.7040   13.0070  -31.9820 N   0  0  0  0  0  0  0  0  0  0  0  0
   -3.9650   11.6330  -32.4700 C   0  0  0  0  0  0  0  0  0  0  0  0
   -2.3030   13.0740  -31.4980 C   0  0  0  0  0  0  0  0  0  0  0  0
   -4.6010   13.3080  -30.8390 C   0  0  0  0  0  0  0  0  0  0  0  0
   -4.3790   17.6390  -34.0350 C   0  0  0  0  0  0  0  0  0  0  0  0
   -4.4500   18.9840  -33.6800 C   0  0  0  0  0  0  0  0  0  0  0  0
   -5.6500   19.5390  -33.1900 C   0  0  0  0  0  0  0  0  0  0  0  0
   -2.9500   22.9380  -28.8940 C   0  0  0  0  0  0  0  0  0  0  0  0
   -3.0550   24.3780  -28.3380 C   0  0  0  0  0  0  0  0  0  0  0  0
   -2.2610   25.2880  -29.0780 O   0  0  0  0  0  0  0  0  0  0  0  0
   -0.9600   25.4310  -28.5340 C   0  0  0  0  0  0  0  0  0  0  0  0
   -0.9840   25.8320  -27.0550 C   0  0  0  0  0  0  0  0  0  0  0  0
   -0.7930   27.2280  -26.9270 O   0  0  0  0  0  0  0  0  0  0  0  0
   -0.8630   27.6110  -25.5660 C   0  0  0  0  0  0  0  0  0  0  0  0
   -1.3050   26.4300  -24.7030 C   0  0  0  0  0  0  0  0  0  0  0  0
   -6.0188   25.5019  -28.6712 H   0  0  0  0  0  0  0  0  0  0  0  0
   -5.8616   26.6782  -30.0197 H   0  0  0  0  0  0  0  0  0  0  0  0
   -7.2054   25.4862  -30.0197 H   0  0  0  0  0  0  0  0  0  0  0  0
   -5.6818   24.5282  -31.5273 H   0  0  0  0  0  0  0  0  0  0  0  0
   -4.2512   25.0685  -30.5472 H   0  0  0  0  0  0  0  0  0  0  0  0
   -5.3986   23.4247  -28.7484 H   0  0  0  0  0  0  0  0  0  0  0  0
   -5.9747   22.6413  -30.2764 H   0  0  0  0  0  0  0  0  0  0  0  0
   -3.8013   23.7596  -31.8048 H   0  0  0  0  0  0  0  0  0  0  0  0
   -2.2199   23.1305  -31.2044 H   0  0  0  0  0  0  0  0  0  0  0  0
   -2.5362   21.5917  -32.8728 H   0  0  0  0  0  0  0  0  0  0  0  0
   -3.5359   20.7859  -31.5981 H   0  0  0  0  0  0  0  0  0  0  0  0
   -4.5090   22.2260  -34.0250 H   0  0  0  0  0  0  0  0  0  0  0  0
   -6.2930   23.5015  -32.4467 H   0  0  0  0  0  0  0  0  0  0  0  0
   -8.4821   24.4395  -31.7421 H   0  0  0  0  0  0  0  0  0  0  0  0
  -10.4478   22.9410  -31.4545 H   0  0  0  0  0  0  0  0  0  0  0  0
  -10.2157   20.4926  -31.8097 H   0  0  0  0  0  0  0  0  0  0  0  0
   -8.9792   18.2733  -30.8230 H   0  0  0  0  0  0  0  0  0  0  0  0
   -9.9569   18.6079  -32.2923 H   0  0  0  0  0  0  0  0  0  0  0  0
   -8.7674   17.2618  -32.2923 H   0  0  0  0  0  0  0  0  0  0  0  0
   -7.5851   16.7094  -33.3576 H   0  0  0  0  0  0  0  0  0  0  0  0
   -5.8996   14.5703  -32.5445 H   0  0  0  0  0  0  0  0  0  0  0  0
   -5.7650   13.4774  -33.9729 H   0  0  0  0  0  0  0  0  0  0  0  0
   -3.3580   13.6312  -33.9706 H   0  0  0  0  0  0  0  0  0  0  0  0
   -3.4336   14.9519  -32.6906 H   0  0  0  0  0  0  0  0  0  0  0  0
   -4.0934   10.9572  -31.6116 H   0  0  0  0  0  0  0  0  0  0  0  0
   -4.8801   11.6283  -33.0804 H   0  0  0  0  0  0  0  0  0  0  0  0
   -3.1154   11.2931  -33.0804 H   0  0  0  0  0  0  0  0  0  0  0  0
   -2.2947   13.0744  -30.3980 H   0  0  0  0  0  0  0  0  0  0  0  0
   -1.7449   12.2015  -31.8686 H   0  0  0  0  0  0  0  0  0  0  0  0
   -1.8307   13.9958  -31.8686 H   0  0  0  0  0  0  0  0  0  0  0  0
   -4.0653   13.1282  -29.8952 H   0  0  0  0  0  0  0  0  0  0  0  0
   -4.9156   14.3609  -30.8872 H   0  0  0  0  0  0  0  0  0  0  0  0
   -5.4871   12.6580  -30.8872 H   0  0  0  0  0  0  0  0  0  0  0  0
   -3.4304   17.2230  -34.4053 H   0  0  0  0  0  0  0  0  0  0  0  0
   -3.5591   19.6209  -33.7832 H   0  0  0  0  0  0  0  0  0  0  0  0
   -3.1590   22.2346  -28.0745 H   0  0  0  0  0  0  0  0  0  0  0  0
   -1.9333   22.8264  -29.2989 H   0  0  0  0  0  0  0  0  0  0  0  0
   -4.1051   24.7020  -28.3853 H   0  0  0  0  0  0  0  0  0  0  0  0
   -2.6891   24.3709  -27.3007 H   0  0  0  0  0  0  0  0  0  0  0  0
   -0.4295   24.4723  -28.6312 H   0  0  0  0  0  0  0  0  0  0  0  0
   -0.4512   26.2324  -29.0897 H   0  0  0  0  0  0  0  0  0  0  0  0
   -1.9554   25.5561  -26.6189 H   0  0  0  0  0  0  0  0  0  0  0  0
   -0.1742   25.3077  -26.5264 H   0  0  0  0  0  0  0  0  0  0  0  0
    0.1287   27.9517  -25.2338 H   0  0  0  0  0  0  0  0  0  0  0  0
   -1.5964   28.4241  -25.4611 H   0  0  0  0  0  0  0  0  0  0  0  0
   -1.2058   26.6952  -23.6401 H   0  0  0  0  0  0  0  0  0  0  0  0
   -2.3549   26.1871  -24.9238 H   0  0  0  0  0  0  0  0  0  0  0  0
   -0.6726   25.5575  -24.9238 H   0  0  0  0  0  0  0  0  0  0  0  0
  1  2  1  0
  2  3  1  0
  3  4  1  0
  4  5  1  0
  5  6  1  0
  6  7  1  0
  7  8  1  0
  8  9  2  0
  9 10  1  0
 10 11  2  0
 11 12  1  0
 12 13  2  0
 13 14  1  0
 14 15  2  0
 15 16  1  0
 15 17  1  0
 17 18  2  0
 18 19  1  0
 19 20  1  0
 20 21  1  0
 21 22  1  0
 22 23  1  0
 23 24  1  0
 23 25  1  0
 23 26  1  0
 19 27  2  0
 27 28  1  0
 28 29  2  0
  4 30  1  0
 30 31  1  0
 31 32  1  0
 32 33  1  0
 33 34  1  0
 34 35  1  0
 35 36  1  0
 36 37  1  0
 29  8  1  0
 14  9  1  0
 29 17  1  0
  1 38  1  0
  1 39  1  0
  1 40  1  0
  2 41  1  0
  2 42  1  0
  3 43  1  0
  3 44  1  0
  5 45  1  0
  5 46  1  0
  6 47  1  0
  6 48  1  0
  7 49  1  0
 10 50  1  0
 11 51  1  0
 12 52  1  0
 13 53  1  0
 16 54  1  0
 16 55  1  0
 16 56  1  0
 18 57  1  0
 21 58  1  0
 21 59  1  0
 22 60  1  0
 22 61  1  0
 24 62  1  0
 24 63  1  0
 24 64  1  0
 25 65  1  0
 25 66  1  0
 25 67  1  0
 26 68  1  0
 26 69  1  0
 26 70  1  0
 27 71  1  0
 28 72  1  0
 30 73  1  0
 30 74  1  0
 31 75  1  0
 31 76  1  0
 33 77  1  0
 33 78  1  0
 34 79  1  0
 34 80  1  0
 36 81  1  0
 36 82  1  0
 37 83  1  0
 37 84  1  0
 37 85  1  0
M  CHG  2  15   1  23   1
M  END
>  <UniqueID>  (9) 
9

>  <SMILES>  (9) 
CCCN(CCNc1c2ccccc2[n+](C)c2cc(OCC[N+](C)(C)C)ccc12)CCOCCOCC

>  <Energy>  (9) 
115.81289231294356

>  <Genealogy>  (9) 
CCCN(CCNc1c2ccccc2[n+](C)c2cc(OCC[N+](C)(C)C)ccc12)CCOCCOCC (3D coordinates assigned)
CCCN(CCNc1c2ccccc2[n+](C)c2cc(OCC[N+](C)(C)C)ccc12)CCOCCOCC (optimized conformer: 115.81289231294356 kcal/mol)

>  <smiles>  (9) 
CCCN(CCNc1c2ccccc2[n+](C)c2cc(OCC[N+](C)(C)C)ccc12)CCOCCOCC

>  <score_type>  (9) 
oracle

>  <origin>  (9) 
adg

>  <m_score__min__energy>  (9) 
-9.0299999999999994

>  <m_primary>  (9) 
energy

$$$$
9:0
     RDKit          3D

 60 64  0  0  0  0  0  0  0  0999 V2000
   -0.0940   26.0330  -36.6710 C   0  0  0  0  0  0  0  0  0  0  0  0
    1.3840   25.7310  -36.4460 C   0  0  0  0  0  0  0  0  0  0  0  0
    1.7090   24.4210  -36.9100 O   0  0  0  0  0  0  0  0  0  0  0  0
    1.5700   23.2320  -36.1750 C   0  0  0  0  0  0  0  0  0  0  0  0
    0.2810   22.7800  -35.8960 C   0  0  0  0  0  0  0  0  0  0  0  0
    0.0740   21.6040  -35.1740 C   0  0  0  0  0  0  0  0  0  0  0  0
    1.1650   20.8440  -34.6970 C   0  0  0  0  0  0  0  0  0  0  0  0
    2.4740   21.3010  -34.9860 C   0  0  0  0  0  0  0  0  0  0  0  0
    2.6690   22.4820  -35.7210 C   0  0  0  0  0  0  0  0  0  0  0  0
    3.6340   20.5330  -34.4860 C   0  0  0  0  0  0  0  0  0  0  0  0
    4.7980   20.7890  -34.8980 O   0  0  0  0  0  0  0  0  0  0  0  0
    3.4200   19.4800  -33.5330 N   0  0  0  0  0  0  0  0  0  0  0  0
    4.5070   18.5540  -33.2050 C   0  0  0  0  0  0  0  0  0  0  0  0
    2.0980   19.3540  -32.9110 C   0  0  0  0  0  0  0  0  0  0  0  0
    0.9880   19.4950  -33.9800 C   0  0  1  0  0  0  0  0  0  0  0  0
   -0.3660   19.3500  -33.3870 N   0  0  0  0  0  0  0  0  0  0  0  0
   -0.6670   20.2730  -32.2730 C   0  0  0  0  0  0  0  0  0  0  0  0
   -2.1360   20.6290  -32.1820 C   0  0  0  0  0  0  0  0  0  0  0  0
   -2.8990   20.7890  -33.3510 C   0  0  0  0  0  0  0  0  0  0  0  0
   -4.2700   21.0410  -33.2690 C   0  0  0  0  0  0  0  0  0  0  0  0
   -4.8980   21.1400  -32.0180 C   0  0  0  0  0  0  0  0  0  0  0  0
   -6.3580   21.3560  -31.9310 C   0  0  0  0  0  0  0  0  0  0  0  0
   -7.2110   20.3520  -32.4190 C   0  0  0  0  0  0  0  0  0  0  0  0
   -8.5960   20.4760  -32.2960 C   0  0  0  0  0  0  0  0  0  0  0  0
   -9.1440   21.6040  -31.6870 C   0  0  0  0  0  0  0  0  0  0  0  0
   -8.3120   22.6180  -31.2090 C   0  0  0  0  0  0  0  0  0  0  0  0
   -6.9140   22.5180  -31.3320 C   0  0  0  0  0  0  0  0  0  0  0  0
   -6.0720   23.6550  -30.8800 C   0  0  0  0  0  0  0  0  0  0  0  0
   -5.0700   24.2040  -31.5950 N   0  0  0  0  0  0  0  0  0  0  0  0
   -4.6100   25.1930  -30.8420 N   0  0  0  0  0  0  0  0  0  0  0  0
   -5.2990   25.2590  -29.7130 N   0  0  0  0  0  0  0  0  0  0  0  0
   -6.2190   24.3120  -29.7170 N   0  0  0  0  0  0  0  0  0  0  0  0
   -4.1290   21.0320  -30.8500 C   0  0  0  0  0  0  0  0  0  0  0  0
   -2.7580   20.7770  -30.9310 C   0  0  0  0  0  0  0  0  0  0  0  0
   -0.5992   26.1362  -35.6993 H   0  0  0  0  0  0  0  0  0  0  0  0
   -0.1946   26.9703  -37.2380 H   0  0  0  0  0  0  0  0  0  0  0  0
   -0.5542   25.2103  -37.2380 H   0  0  0  0  0  0  0  0  0  0  0  0
    1.9902   26.4682  -36.9928 H   0  0  0  0  0  0  0  0  0  0  0  0
    1.5955   25.7862  -35.3679 H   0  0  0  0  0  0  0  0  0  0  0  0
   -0.5850   23.3585  -36.2500 H   0  0  0  0  0  0  0  0  0  0  0  0
   -0.9528   21.2641  -34.9735 H   0  0  0  0  0  0  0  0  0  0  0  0
    3.6909   22.8231  -35.9434 H   0  0  0  0  0  0  0  0  0  0  0  0
    4.6023   18.4728  -32.1121 H   0  0  0  0  0  0  0  0  0  0  0  0
    4.2850   17.5633  -33.6283 H   0  0  0  0  0  0  0  0  0  0  0  0
    5.4498   18.9307  -33.6283 H   0  0  0  0  0  0  0  0  0  0  0  0
    2.0155   18.3684  -32.4296 H   0  0  0  0  0  0  0  0  0  0  0  0
    1.9771   20.1498  -32.1613 H   0  0  0  0  0  0  0  0  0  0  0  0
    1.0815   18.6828  -34.7160 H   0  0  0  0  0  0  0  0  0  0  0  0
   -0.4410   18.3930  -32.9740 H   0  0  0  0  0  0  0  0  0  0  0  0
   -0.3627   19.7956  -31.3299 H   0  0  0  0  0  0  0  0  0  0  0  0
   -0.1128   21.2050  -32.4581 H   0  0  0  0  0  0  0  0  0  0  0  0
   -2.4140   20.7154  -34.3355 H   0  0  0  0  0  0  0  0  0  0  0  0
   -4.8604   21.1625  -34.1892 H   0  0  0  0  0  0  0  0  0  0  0  0
   -6.7840   19.4608  -32.9020 H   0  0  0  0  0  0  0  0  0  0  0  0
   -9.2552   19.6834  -32.6797 H   0  0  0  0  0  0  0  0  0  0  0  0
  -10.2352   21.6953  -31.5828 H   0  0  0  0  0  0  0  0  0  0  0  0
   -8.7541   23.5046  -30.7311 H   0  0  0  0  0  0  0  0  0  0  0  0
   -6.8960   24.1290  -28.9450 H   0  0  0  0  0  0  0  0  0  0  0  0
   -4.6074   21.1486  -29.8664 H   0  0  0  0  0  0  0  0  0  0  0  0
   -2.1621   20.6916  -30.0103 H   0  0  0  0  0  0  0  0  0  0  0  0
  1  2  1  0
  2  3  1  0
  3  4  1  0
  4  5  2  0
  5  6  1  0
  6  7  2  0
  7  8  1  0
  8  9  2  0
  8 10  1  0
 10 11  2  0
 10 12  1  0
 12 13  1  0
 12 14  1  0
 14 15  1  0
 15 16  1  0
 16 17  1  0
 17 18  1  0
 18 19  2  0
 19 20  1  0
 20 21  2  0
 21 22  1  0
 22 23  2  0
 23 24  1  0
 24 25  2  0
 25 26  1  0
 26 27  2  0
 27 28  1  0
 28 29  2  0
 29 30  1  0
 30 31  1  0
 31 32  2  0
 21 33  1  0
 33 34  2  0
  9  4  1  0
 34 18  1  0
 15  7  1  0
 27 22  1  0
 32 28  1  0
  1 35  1  0
  1 36  1  0
  1 37  1  0
  2 38  1  0
  2 39  1  0
  5 40  1  0
  6 41  1  0
  9 42  1  0
 13 43  1  0
 13 44  1  0
 13 45  1  0
 14 46  1  0
 14 47  1  0
 15 48  1  6
 16 49  1  0
 17 50  1  0
 17 51  1  0
 19 52  1  0
 20 53  1  0
 23 54  1  0
 24 55  1  0
 25 56  1  0
 26 57  1  0
 32 58  1  0
 33 59  1  0
 34 60  1  0
M  CHG  2  30  -1  32   1
M  END
>  <UniqueID>  (10) 
10

>  <SMILES>  (10) 
CCOc1ccc2c(c1)C(=O)N(C)C[C@H]2NCc1ccc(-c2ccccc2-c2n[n-]n[nH+]2)cc1

>  <Energy>  (10) 
121.00052791197429

>  <Genealogy>  (10) 
CCOc1ccc2c(c1)C(=O)N(C)CC2NCc1ccc(-c2ccccc2-c2n[n-]n[nH+]2)cc1 (protonated)
CCOc1ccc2c(c1)C(=O)N(C)C[C@H]2NCc1ccc(-c2ccccc2-c2n[n-]n[nH+]2)cc1 (chirality)
CCOc1ccc2c(c1)C(=O)N(C)C[C@H]2NCc1ccc(-c2ccccc2-c2n[n-]n[nH+]2)cc1 (3D coordinates assigned)
CCOc1ccc2c(c1)C(=O)N(C)C[C@H]2NCc1ccc(-c2ccccc2-c2n[n-]n[nH+]2)cc1 (nonaromatic ring conformer: 121.00052791197429 kcal/mol)

>  <smiles>  (10) 
CCOc1ccc2c(c1)C(=O)N(C)CC2NCc1ccc(-c2ccccc2-c2nn[nH]n2)cc1

>  <score_type>  (10) 
oracle

>  <origin>  (10) 
adg

>  <m_score__min__energy>  (10) 
-10.949999999999999

>  <m_primary>  (10) 
energy

$$$$
10:0
     RDKit          3D

 55 57  0  0  0  0  0  0  0  0999 V2000
   -2.1720   17.7050  -34.2870 C   0  0  0  0  0  0  0  0  0  0  0  0
   -1.8270   19.0860  -34.2620 O   0  0  0  0  0  0  0  0  0  0  0  0
   -2.4940   20.0630  -33.5040 C   0  0  0  0  0  0  0  0  0  0  0  0
   -3.8910   20.1800  -33.5010 C   0  0  0  0  0  0  0  0  0  0  0  0
   -4.5390   21.1700  -32.7320 C   0  0  0  0  0  0  0  0  0  0  0  0
   -5.9410   21.2690  -32.7490 C   0  0  0  0  0  0  0  0  0  0  0  0
   -6.6000   20.4580  -33.4620 O   0  0  0  0  0  0  0  0  0  0  0  0
   -6.6010   22.2250  -32.0130 N   0  0  0  0  0  0  0  0  0  0  0  0
   -8.0860   22.2530  -32.1190 C   0  0  0  0  0  0  0  0  0  0  0  0
   -8.7340   20.9920  -31.5130 C   0  0  0  0  0  0  0  0  0  0  0  0
   -9.4530   20.0940  -32.5350 C   0  0  0  0  0  0  0  0  0  0  0  0
   -8.5980   18.9780  -32.9790 N   0  0  0  0  0  0  0  0  0  0  0  0
   -7.9510   18.2750  -31.8560 C   0  0  0  0  0  0  0  0  0  0  0  0
   -6.6160   17.5930  -32.2200 C   0  0  0  0  0  0  0  0  0  0  0  0
   -6.5830   17.0680  -33.6610 C   0  0  0  0  0  0  0  0  0  0  0  0
   -6.2120   18.1410  -34.5780 N   0  0  0  0  0  0  0  0  0  0  0  0
   -5.8870   23.1070  -31.2160 C   0  0  0  0  0  0  0  0  0  0  0  0
   -6.5380   24.0850  -30.4150 C   0  0  0  0  0  0  0  0  0  0  0  0
   -5.8210   24.9730  -29.6210 C   0  0  0  0  0  0  0  0  0  0  0  0
   -4.4390   24.9230  -29.5960 C   0  0  0  0  0  0  0  0  0  0  0  0
   -3.7600   23.9780  -30.3570 C   0  0  0  0  0  0  0  0  0  0  0  0
   -4.4570   23.0500  -31.1750 C   0  0  0  0  0  0  0  0  0  0  0  0
   -3.7790   22.0650  -31.9480 C   0  0  0  0  0  0  0  0  0  0  0  0
   -2.3660   21.9310  -31.9660 C   0  0  0  0  0  0  0  0  0  0  0  0
   -1.7290   20.9410  -32.7370 C   0  0  0  0  0  0  0  0  0  0  0  0
   -0.3320   20.7970  -32.7650 O   0  0  0  0  0  0  0  0  0  0  0  0
    0.4850   21.0000  -33.9130 C   0  0  0  0  0  0  0  0  0  0  0  0
   -2.2653   17.3317  -33.2565 H   0  0  0  0  0  0  0  0  0  0  0  0
   -3.1300   17.5758  -34.8119 H   0  0  0  0  0  0  0  0  0  0  0  0
   -1.3873   17.1405  -34.8119 H   0  0  0  0  0  0  0  0  0  0  0  0
   -4.4925   19.4880  -34.1087 H   0  0  0  0  0  0  0  0  0  0  0  0
   -8.4632   23.1374  -31.5847 H   0  0  0  0  0  0  0  0  0  0  0  0
   -8.3490   22.2897  -33.1865 H   0  0  0  0  0  0  0  0  0  0  0  0
   -7.9447   20.3984  -31.0285 H   0  0  0  0  0  0  0  0  0  0  0  0
   -9.5016   21.3416  -30.8069 H   0  0  0  0  0  0  0  0  0  0  0  0
  -10.3621   19.6836  -32.0712 H   0  0  0  0  0  0  0  0  0  0  0  0
   -9.7004   20.7065  -33.4145 H   0  0  0  0  0  0  0  0  0  0  0  0
   -7.8760   19.3290  -33.6500 H   0  0  0  0  0  0  0  0  0  0  0  0
   -9.1740   18.2740  -33.4950 H   0  0  0  0  0  0  0  0  0  0  0  0
   -7.7580   19.0060  -31.0570 H   0  0  0  0  0  0  0  0  0  0  0  0
   -8.6395   17.4752  -31.5458 H   0  0  0  0  0  0  0  0  0  0  0  0
   -5.8036   18.3240  -32.0948 H   0  0  0  0  0  0  0  0  0  0  0  0
   -6.4967   16.7271  -31.5521 H   0  0  0  0  0  0  0  0  0  0  0  0
   -5.8457   16.2551  -33.7351 H   0  0  0  0  0  0  0  0  0  0  0  0
   -7.5816   16.6937  -33.9305 H   0  0  0  0  0  0  0  0  0  0  0  0
   -5.4980   18.7370  -34.0980 H   0  0  0  0  0  0  0  0  0  0  0  0
   -7.0510   18.7490  -34.7270 H   0  0  0  0  0  0  0  0  0  0  0  0
   -7.6366   24.1404  -30.4238 H   0  0  0  0  0  0  0  0  0  0  0  0
   -6.3542   25.7172  -29.0112 H   0  0  0  0  0  0  0  0  0  0  0  0
   -3.8756   25.6327  -28.9724 H   0  0  0  0  0  0  0  0  0  0  0  0
   -2.6609   23.9487  -30.3247 H   0  0  0  0  0  0  0  0  0  0  0  0
   -1.7541   22.6177  -31.3626 H   0  0  0  0  0  0  0  0  0  0  0  0
    1.5071   21.2540  -33.5954 H   0  0  0  0  0  0  0  0  0  0  0  0
    0.5062   20.0798  -34.5153 H   0  0  0  0  0  0  0  0  0  0  0  0
    0.0730   21.8231  -34.5153 H   0  0  0  0  0  0  0  0  0  0  0  0
  1  2  1  0
  2  3  1  0
  3  4  2  0
  4  5  1  0
  5  6  1  0
  6  7  2  0
  6  8  1  0
  8  9  1  0
  9 10  1  0
 10 11  1  0
 11 12  1  0
 12 13  1  0
 13 14  1  0
 14 15  1  0
 15 16  1  0
  8 17  1  0
 17 18  2  0
 18 19  1  0
 19 20  2  0
 20 21  1  0
 21 22  2  0
 22 23  1  0
 23 24  1  0
 24 25  2  0
 25 26  1  0
 26 27  1  0
 25  3  1  0
 23  5  2  0
 22 17  1  0
  1 28  1  0
  1 29  1  0
  1 30  1  0
  4 31  1  0
  9 32  1  0
  9 33  1  0
 10 34  1  0
 10 35  1  0
 11 36  1  0
 11 37  1  0
 12 38  1  0
 12 39  1  0
 13 40  1  0
 13 41  1  0
 14 42  1  0
 14 43  1  0
 15 44  1  0
 15 45  1  0
 16 46  1  0
 16 47  1  0
 18 48  1  0
 19 49  1  0
 20 50  1  0
 21 51  1  0
 24 52  1  0
 27 53  1  0
 27 54  1  0
 27 55  1  0
M  CHG  1  12   1
M  END
>  <UniqueID>  (11) 
11

>  <SMILES>  (11) 
COc1cc2c(=O)n(CCC[NH2+]CCCN)c3ccccc3c2cc1OC

>  <Energy>  (11) 
73.01393281384264

>  <Genealogy>  (11) 
COc1cc2c(=O)n(CCC[NH2+]CCCN)c3ccccc3c2cc1OC (protonated)
COc1cc2c(=O)n(CCC[NH2+]CCCN)c3ccccc3c2cc1OC (3D coordinates assigned)
COc1cc2c(=O)n(CCC[NH2+]CCCN)c3ccccc3c2cc1OC (optimized conformer: 73.01393281384264 kcal/mol)

>  <smiles>  (11) 
COc1cc2c(=O)n(CCCNCCCN)c3ccccc3c2cc1OC

>  <score_type>  (11) 
oracle

>  <origin>  (11) 
adg

>  <m_score__min__energy>  (11) 
-8.3699999999999992

>  <m_primary>  (11) 
energy

$$$$
11:0
     RDKit          3D

 58 60  0  0  0  0  0  0  0  0999 V2000
   -0.1400   19.1330  -29.0930 C   0  0  0  0  0  0  0  0  0  0  0  0
   -0.4490   19.3830  -30.5710 C   0  0  0  0  0  0  0  0  0  0  0  0
   -1.0970   20.6980  -30.7910 N   0  0  0  0  0  0  0  0  0  0  0  0
   -0.9390   21.2040  -32.1670 C   0  0  0  0  0  0  0  0  0  0  0  0
   -2.2940   21.5340  -32.8210 C   0  0  0  0  0  0  0  0  0  0  0  0
   -3.1260   20.3250  -33.2030 C   0  0  0  0  0  0  0  0  0  0  0  0
   -2.5650   19.1130  -33.6270 C   0  0  0  0  0  0  0  0  0  0  0  0
   -3.7730   17.9620  -33.7820 S   0  0  0  0  0  0  0  0  0  0  0  0
   -5.0400   18.9730  -33.3270 C   0  0  0  0  0  0  0  0  0  0  0  0
   -4.5410   20.2450  -33.0600 C   0  0  0  0  0  0  0  0  0  0  0  0
   -5.4430   21.2670  -32.7000 C   0  0  0  0  0  0  0  0  0  0  0  0
   -5.0340   22.6450  -32.6870 N   0  0  0  0  0  0  0  0  0  0  0  0
   -4.8290   23.3610  -31.4240 C   0  0  0  0  0  0  0  0  0  0  0  0
   -4.3160   22.4340  -30.3150 C   0  0  0  0  0  0  0  0  0  0  0  0
   -3.2550   23.1040  -29.4260 C   0  0  0  0  0  0  0  0  0  0  0  0
   -2.2690   22.1140  -28.9400 N   0  0  0  0  0  0  0  0  0  0  0  0
   -1.1720   22.7990  -28.2380 C   0  0  0  0  0  0  0  0  0  0  0  0
   -2.8970   21.1400  -28.0290 C   0  0  0  0  0  0  0  0  0  0  0  0
   -6.7950   20.9180  -32.4640 C   0  0  0  0  0  0  0  0  0  0  0  0
   -7.7030   21.8600  -31.9360 C   0  0  0  0  0  0  0  0  0  0  0  0
   -9.0360   21.5240  -31.7170 C   0  0  0  0  0  0  0  0  0  0  0  0
   -9.4880   20.2410  -32.0030 C   0  0  0  0  0  0  0  0  0  0  0  0
   -8.6090   19.2800  -32.4990 C   0  0  0  0  0  0  0  0  0  0  0  0
   -7.2470   19.5890  -32.7360 C   0  0  0  0  0  0  0  0  0  0  0  0
   -6.3630   18.6390  -33.2110 N   0  0  0  0  0  0  0  0  0  0  0  0
   -6.8210   17.2760  -33.5450 C   0  0  0  0  0  0  0  0  0  0  0  0
   -0.8446   19.7030  -28.4696 H   0  0  0  0  0  0  0  0  0  0  0  0
   -0.2416   18.0599  -28.8736 H   0  0  0  0  0  0  0  0  0  0  0  0
    0.8882   19.4564  -28.8736 H   0  0  0  0  0  0  0  0  0  0  0  0
    0.4918   19.3516  -31.1402 H   0  0  0  0  0  0  0  0  0  0  0  0
   -1.1459   18.6015  -30.9080 H   0  0  0  0  0  0  0  0  0  0  0  0
   -0.6450   21.3930  -30.1510 H   0  0  0  0  0  0  0  0  0  0  0  0
   -2.1120   20.6810  -30.5390 H   0  0  0  0  0  0  0  0  0  0  0  0
   -0.3257   22.1168  -32.1412 H   0  0  0  0  0  0  0  0  0  0  0  0
   -0.4567   20.4165  -32.7647 H   0  0  0  0  0  0  0  0  0  0  0  0
   -2.8772   22.1410  -32.1129 H   0  0  0  0  0  0  0  0  0  0  0  0
   -2.0654   22.0618  -33.7586 H   0  0  0  0  0  0  0  0  0  0  0  0
   -1.4968   18.9433  -33.8272 H   0  0  0  0  0  0  0  0  0  0  0  0
   -4.6710   23.0670  -33.5710 H   0  0  0  0  0  0  0  0  0  0  0  0
   -4.0932   24.1626  -31.5855 H   0  0  0  0  0  0  0  0  0  0  0  0
   -5.7987   23.7698  -31.1038 H   0  0  0  0  0  0  0  0  0  0  0  0
   -5.1663   22.1356  -29.6842 H   0  0  0  0  0  0  0  0  0  0  0  0
   -3.8445   21.5659  -30.7988 H   0  0  0  0  0  0  0  0  0  0  0  0
   -2.7320   23.8760  -30.0096 H   0  0  0  0  0  0  0  0  0  0  0  0
   -3.7584   23.5530  -28.5571 H   0  0  0  0  0  0  0  0  0  0  0  0
   -1.3183   22.7076  -27.1516 H   0  0  0  0  0  0  0  0  0  0  0  0
   -0.2131   22.3389  -28.5188 H   0  0  0  0  0  0  0  0  0  0  0  0
   -1.1645   23.8625  -28.5188 H   0  0  0  0  0  0  0  0  0  0  0  0
   -2.7059   21.4364  -26.9871 H   0  0  0  0  0  0  0  0  0  0  0  0
   -3.9817   21.1151  -28.2101 H   0  0  0  0  0  0  0  0  0  0  0  0
   -2.4720   20.1417  -28.2101 H   0  0  0  0  0  0  0  0  0  0  0  0
   -7.3526   22.8742  -31.6940 H   0  0  0  0  0  0  0  0  0  0  0  0
   -9.7329   22.2751  -31.3169 H   0  0  0  0  0  0  0  0  0  0  0  0
  -10.5444   19.9830  -31.8371 H   0  0  0  0  0  0  0  0  0  0  0  0
   -8.9786   18.2656  -32.7098 H   0  0  0  0  0  0  0  0  0  0  0  0
   -7.0095   16.7150  -32.6178 H   0  0  0  0  0  0  0  0  0  0  0  0
   -7.7488   17.3347  -34.1331 H   0  0  0  0  0  0  0  0  0  0  0  0
   -6.0460   16.7626  -34.1331 H   0  0  0  0  0  0  0  0  0  0  0  0
  1  2  1  0
  2  3  1  0
  3  4  1  0
  4  5  1  0
  5  6  1  0
  6  7  2  0
  7  8  1  0
  8  9  1  0
  9 10  2  0
 10 11  1  0
 11 12  1  0
 12 13  1  0
 13 14  1  0
 14 15  1  0
 15 16  1  0
 16 17  1  0
 16 18  1  0
 11 19  2  0
 19 20  1  0
 20 21  2  0
 21 22  1  0
 22 23  2  0
 23 24  1  0
 24 25  2  0
 25 26  1  0
 10  6  1  0
 24 19  1  0
 25  9  1  0
  1 27  1  0
  1 28  1  0
  1 29  1  0
  2 30  1  0
  2 31  1  0
  3 32  1  0
  3 33  1  0
  4 34  1  0
  4 35  1  0
  5 36  1  0
  5 37  1  0
  7 38  1  0
 12 39  1  0
 13 40  1  0
 13 41  1  0
 14 42  1  0
 14 43  1  0
 15 44  1  0
 15 45  1  0
 17 46  1  0
 17 47  1  0
 17 48  1  0
 18 49  1  0
 18 50  1  0
 18 51  1  0
 20 52  1  0
 21 53  1  0
 22 54  1  0
 23 55  1  0
 26 56  1  0
 26 57  1  0
 26 58  1  0
M  CHG  2   3   1  25   1
M  END
>  <UniqueID>  (12) 
12

>  <SMILES>  (12) 
CC[NH2+]CCc1csc2c1c(NCCCN(C)C)c1ccccc1[n+]2C

>  <Energy>  (12) 
106.64531797816592

>  <Genealogy>  (12) 
CC[NH2+]CCc1csc2c1c(NCCCN(C)C)c1ccccc1[n+]2C (protonated)
CC[NH2+]CCc1csc2c1c(NCCCN(C)C)c1ccccc1[n+]2C (3D coordinates assigned)
CC[NH2+]CCc1csc2c1c(NCCCN(C)C)c1ccccc1[n+]2C (optimized conformer: 106.64531797816592 kcal/mol)

>  <smiles>  (12) 
CCNCCc1csc2c1c(NCCCN(C)C)c1ccccc1[n+]2C

>  <score_type>  (12) 
oracle

>  <origin>  (12) 
adg

>  <m_score__min__energy>  (12) 
-7.7400000000000002

>  <m_primary>  (12) 
energy

$$$$
12:0
     RDKit          3D

 63 65  0  0  0  0  0  0  0  0999 V2000
   -6.2590   25.2330  -29.4870 C   0  0  0  0  0  0  0  0  0  0  0  0
   -5.3760   25.5590  -30.6960 C   0  0  0  0  0  0  0  0  0  0  0  0
   -4.4080   24.4890  -30.9980 N   0  0  0  0  0  0  0  0  0  0  0  0
   -4.2350   23.5300  -29.8940 C   0  0  0  0  0  0  0  0  0  0  0  0
   -4.3440   22.0700  -30.3950 C   0  0  0  0  0  0  0  0  0  0  0  0
   -4.3750   21.9970  -31.8720 N   0  0  0  0  0  0  0  0  0  0  0  0
   -5.4890   21.1650  -32.3180 C   0  0  0  0  0  0  0  0  0  0  0  0
   -6.8210   21.6100  -32.1680 C   0  0  0  0  0  0  0  0  0  0  0  0
   -7.1370   22.9870  -32.1110 C   0  0  0  0  0  0  0  0  0  0  0  0
   -8.4570   23.4120  -31.9960 C   0  0  0  0  0  0  0  0  0  0  0  0
   -9.4860   22.4790  -31.9380 C   0  0  0  0  0  0  0  0  0  0  0  0
   -9.1980   21.1160  -31.9760 C   0  0  0  0  0  0  0  0  0  0  0  0
   -7.8630   20.6530  -32.0730 C   0  0  0  0  0  0  0  0  0  0  0  0
   -7.5610   19.3080  -32.0630 N   0  0  0  0  0  0  0  0  0  0  0  0
   -8.5610   18.3280  -31.5860 C   0  0  0  0  0  0  0  0  0  0  0  0
   -6.3300   18.8840  -32.5260 C   0  0  0  0  0  0  0  0  0  0  0  0
   -6.0840   17.5230  -32.8340 C   0  0  0  0  0  0  0  0  0  0  0  0
   -4.8590   17.1130  -33.3440 C   0  0  0  0  0  0  0  0  0  0  0  0
   -3.8800   18.0470  -33.6500 C   0  0  0  0  0  0  0  0  0  0  0  0
   -4.1030   19.4140  -33.4180 C   0  0  0  0  0  0  0  0  0  0  0  0
   -3.2220   20.3790  -33.9380 O   0  0  0  0  0  0  0  0  0  0  0  0
   -1.8450   20.1680  -34.2340 C   0  0  0  0  0  0  0  0  0  0  0  0
   -0.9670   21.0310  -33.3040 C   0  0  0  0  0  0  0  0  0  0  0  0
   -0.3670   20.3190  -32.1320 N   0  0  0  0  0  0  0  0  0  0  0  0
    1.0600   20.0010  -32.3730 C   0  0  0  0  0  0  0  0  0  0  0  0
   -0.4980   21.1070  -30.8850 C   0  0  0  0  0  0  0  0  0  0  0  0
   -1.0970   19.0390  -31.9540 C   0  0  0  0  0  0  0  0  0  0  0  0
   -5.2830   19.8260  -32.7390 C   0  0  0  0  0  0  0  0  0  0  0  0
   -5.7026   25.4384  -28.5606 H   0  0  0  0  0  0  0  0  0  0  0  0
   -7.1652   25.8558  -29.5162 H   0  0  0  0  0  0  0  0  0  0  0  0
   -6.5431   24.1707  -29.5162 H   0  0  0  0  0  0  0  0  0  0  0  0
   -6.0220   25.7073  -31.5739 H   0  0  0  0  0  0  0  0  0  0  0  0
   -4.8035   26.4667  -30.4544 H   0  0  0  0  0  0  0  0  0  0  0  0
   -3.4790   24.9160  -31.2220 H   0  0  0  0  0  0  0  0  0  0  0  0
   -3.2440   23.6803  -29.4409 H   0  0  0  0  0  0  0  0  0  0  0  0
   -5.0312   23.7038  -29.1552 H   0  0  0  0  0  0  0  0  0  0  0  0
   -3.4761   21.5021  -30.0286 H   0  0  0  0  0  0  0  0  0  0  0  0
   -5.2841   21.6463  -30.0119 H   0  0  0  0  0  0  0  0  0  0  0  0
   -4.4360   22.9530  -32.2890 H   0  0  0  0  0  0  0  0  0  0  0  0
   -3.4620   21.5980  -32.1610 H   0  0  0  0  0  0  0  0  0  0  0  0
   -6.3290   23.7319  -32.1582 H   0  0  0  0  0  0  0  0  0  0  0  0
   -8.6864   24.4869  -31.9510 H   0  0  0  0  0  0  0  0  0  0  0  0
  -10.5299   22.8174  -31.8619 H   0  0  0  0  0  0  0  0  0  0  0  0
  -10.0211   20.3877  -31.9299 H   0  0  0  0  0  0  0  0  0  0  0  0
   -8.5700   18.3192  -30.4861 H   0  0  0  0  0  0  0  0  0  0  0  0
   -9.5570   18.6095  -31.9586 H   0  0  0  0  0  0  0  0  0  0  0  0
   -8.2997   17.3266  -31.9586 H   0  0  0  0  0  0  0  0  0  0  0  0
   -6.8765   16.7788  -32.6664 H   0  0  0  0  0  0  0  0  0  0  0  0
   -4.6641   16.0426  -33.5061 H   0  0  0  0  0  0  0  0  0  0  0  0
   -2.9224   17.7146  -34.0773 H   0  0  0  0  0  0  0  0  0  0  0  0
   -1.5990   19.1062  -34.0853 H   0  0  0  0  0  0  0  0  0  0  0  0
   -1.6526   20.4528  -35.2789 H   0  0  0  0  0  0  0  0  0  0  0  0
   -0.1442   21.4455  -33.9049 H   0  0  0  0  0  0  0  0  0  0  0  0
   -1.6380   21.7927  -32.8803 H   0  0  0  0  0  0  0  0  0  0  0  0
    1.5778   19.8856  -31.4094 H   0  0  0  0  0  0  0  0  0  0  0  0
    1.1354   19.0640  -32.9443 H   0  0  0  0  0  0  0  0  0  0  0  0
    1.5262   20.8173  -32.9443 H   0  0  0  0  0  0  0  0  0  0  0  0
   -0.3872   20.4406  -30.0168 H   0  0  0  0  0  0  0  0  0  0  0  0
    0.2839   21.8801  -30.8560 H   0  0  0  0  0  0  0  0  0  0  0  0
   -1.4880   21.5855  -30.8560 H   0  0  0  0  0  0  0  0  0  0  0  0
   -1.2157   18.8308  -30.8804 H   0  0  0  0  0  0  0  0  0  0  0  0
   -2.0883   19.1137  -32.4248 H   0  0  0  0  0  0  0  0  0  0  0  0
   -0.5280   18.2238  -32.4248 H   0  0  0  0  0  0  0  0  0  0  0  0
  1  2  1  0
  2  3  1  0
  3  4  1  0
  4  5  1  0
  5  6  1  0
  6  7  1  0
  7  8  2  0
  8  9  1  0
  9 10  2  0
 10 11  1  0
 11 12  2  0
 12 13  1  0
 13 14  2  0
 14 15  1  0
 14 16  1  0
 16 17  2  0
 17 18  1  0
 18 19  2  0
 19 20  1  0
 20 21  1  0
 21 22  1  0
 22 23  1  0
 23 24  1  0
 24 25  1  0
 24 26  1  0
 24 27  1  0
 20 28  2  0
 28  7  1  0
 13  8  1  0
 28 16  1  0
  1 29  1  0
  1 30  1  0
  1 31  1  0
  2 32  1  0
  2 33  1  0
  3 34  1  0
  4 35  1  0
  4 36  1  0
  5 37  1  0
  5 38  1  0
  6 39  1  0
  6 40  1  0
  9 41  1  0
 10 42  1  0
 11 43  1  0
 12 44  1  0
 15 45  1  0
 15 46  1  0
 15 47  1  0
 17 48  1  0
 18 49  1  0
 19 50  1  0
 22 51  1  0
 22 52  1  0
 23 53  1  0
 23 54  1  0
 25 55  1  0
 25 56  1  0
 25 57  1  0
 26 58  1  0
 26 59  1  0
 26 60  1  0
 27 61  1  0
 27 62  1  0
 27 63  1  0
M  CHG  3   6   1  14   1  24   1
M  END
>  <UniqueID>  (13) 
13

>  <SMILES>  (13) 
CCNCC[NH2+]c1c2ccccc2[n+](C)c2cccc(OCC[N+](C)(C)C)c12

>  <Energy>  (13) 
106.94601253195691

>  <Genealogy>  (13) 
CCNCC[NH2+]c1c2ccccc2[n+](C)c2cccc(OCC[N+](C)(C)C)c12 (protonated)
CCNCC[NH2+]c1c2ccccc2[n+](C)c2cccc(OCC[N+](C)(C)C)c12 (3D coordinates assigned)
CCNCC[NH2+]c1c2ccccc2[n+](C)c2cccc(OCC[N+](C)(C)C)c12 (optimized conformer: 106.94601253195691 kcal/mol)

>  <smiles>  (13) 
CCNCCNc1c2ccccc2[n+](C)c2cccc(OCC[N+](C)(C)C)c12

>  <score_type>  (13) 
oracle

>  <origin>  (13) 
adg

>  <m_score__min__energy>  (13) 
-6.54

>  <m_primary>  (13) 
energy

$$$$
13:0
     RDKit          3D

 84 83  0  0  0  0  0  0  0  0999 V2000
    1.0440   16.1260  -27.8140 C   0  0  0  0  0  0  0  0  0  0  0  0
    1.0310   15.5940  -29.2600 C   0  0  0  0  0  0  0  0  0  0  0  0
    1.0940   16.6470  -30.3310 N   0  0  2  0  0  0  0  0  0  0  0  0
    2.5320   16.8900  -30.6590 C   0  0  0  0  0  0  0  0  0  0  0  0
    0.5130   17.9700  -29.9130 C   0  0  0  0  0  0  0  0  0  0  0  0
    1.2400   19.2690  -30.3840 C   0  0  0  0  0  0  0  0  0  0  0  0
    0.4850   20.0790  -31.4570 C   0  0  0  0  0  0  0  0  0  0  0  0
   -0.9750   20.0700  -31.2710 N   0  0  0  0  0  0  0  0  0  0  0  0
   -1.3650   20.6040  -29.9570 C   0  0  0  0  0  0  0  0  0  0  0  0
   -1.8700   22.0520  -30.0800 C   0  0  0  0  0  0  0  0  0  0  0  0
   -3.2490   22.1540  -30.7470 C   0  0  0  0  0  0  0  0  0  0  0  0
   -3.1590   21.8450  -32.1810 N   0  0  0  0  0  0  0  0  0  0  0  0
   -4.4750   21.9220  -32.8330 C   0  0  0  0  0  0  0  0  0  0  0  0
   -5.5250   22.4650  -31.8530 C   0  0  0  0  0  0  0  0  0  0  0  0
   -6.9700   22.2620  -32.3400 C   0  0  0  0  0  0  0  0  0  0  0  0
   -7.4400   20.8010  -32.3010 C   0  0  0  0  0  0  0  0  0  0  0  0
   -7.1360   20.1190  -33.5660 N   0  0  0  0  0  0  0  0  0  0  0  0
   -6.5450   18.8020  -33.3010 C   0  0  0  0  0  0  0  0  0  0  0  0
   -5.1230   18.7420  -33.8660 C   0  0  0  0  0  0  0  0  0  0  0  0
   -4.1190   18.3080  -32.7890 C   0  0  0  0  0  0  0  0  0  0  0  0
   -3.0000   19.2450  -32.6920 N   0  0  0  0  0  0  0  0  0  0  0  0
    0.4980   16.1450  -31.6230 C   0  0  0  0  0  0  0  0  0  0  0  0
   -0.7770   16.8180  -32.1910 C   0  0  0  0  0  0  0  0  0  0  0  0
   -0.7580   17.0690  -33.7130 C   0  0  0  0  0  0  0  0  0  0  0  0
   -0.8970   18.5060  -34.0110 N   0  0  0  0  0  0  0  0  0  0  0  0
    0.1450   18.9820  -34.9440 C   0  0  0  0  0  0  0  0  0  0  0  0
    0.6300   20.4160  -34.6350 C   0  0  0  0  0  0  0  0  0  0  0  0
   -0.4870   21.4710  -34.5900 C   0  0  0  0  0  0  0  0  0  0  0  0
   -1.7550   20.8760  -34.1790 N   0  0  0  0  0  0  0  0  0  0  0  0
    1.0233   15.2796  -27.1117 H   0  0  0  0  0  0  0  0  0  0  0  0
    1.9569   16.7172  -27.6490 H   0  0  0  0  0  0  0  0  0  0  0  0
    0.1611   16.7610  -27.6490 H   0  0  0  0  0  0  0  0  0  0  0  0
    1.8981   14.9289  -29.3855 H   0  0  0  0  0  0  0  0  0  0  0  0
    0.0642   15.0855  -29.3890 H   0  0  0  0  0  0  0  0  0  0  0  0
    3.1091   16.9875  -29.7276 H   0  0  0  0  0  0  0  0  0  0  0  0
    2.9222   16.0451  -31.2454 H   0  0  0  0  0  0  0  0  0  0  0  0
    2.6229   17.8162  -31.2454 H   0  0  0  0  0  0  0  0  0  0  0  0
   -0.5162   18.0124  -30.2990 H   0  0  0  0  0  0  0  0  0  0  0  0
    0.6116   17.9806  -28.8175 H   0  0  0  0  0  0  0  0  0  0  0  0
    1.3869   19.9163  -29.5068 H   0  0  0  0  0  0  0  0  0  0  0  0
    2.1838   18.9454  -30.8471 H   0  0  0  0  0  0  0  0  0  0  0  0
    0.8356   21.1209  -31.4193 H   0  0  0  0  0  0  0  0  0  0  0  0
    0.6932   19.6073  -32.4287 H   0  0  0  0  0  0  0  0  0  0  0  0
   -1.3780   20.6980  -32.0060 H   0  0  0  0  0  0  0  0  0  0  0  0
   -2.1660   19.9778  -29.5372 H   0  0  0  0  0  0  0  0  0  0  0  0
   -0.4840   20.5941  -29.2984 H   0  0  0  0  0  0  0  0  0  0  0  0
   -1.9358   22.4867  -29.0717 H   0  0  0  0  0  0  0  0  0  0  0  0
   -1.1565   22.5953  -30.7169 H   0  0  0  0  0  0  0  0  0  0  0  0
   -3.9355   21.4412  -30.2668 H   0  0  0  0  0  0  0  0  0  0  0  0
   -3.6219   23.1823  -30.6305 H   0  0  0  0  0  0  0  0  0  0  0  0
   -2.8180   20.8580  -32.2690 H   0  0  0  0  0  0  0  0  0  0  0  0
   -4.4101   22.5919  -33.7031 H   0  0  0  0  0  0  0  0  0  0  0  0
   -4.7741   20.9136  -33.1549 H   0  0  0  0  0  0  0  0  0  0  0  0
   -5.4047   21.9478  -30.8897 H   0  0  0  0  0  0  0  0  0  0  0  0
   -5.3592   23.5487  -31.7634 H   0  0  0  0  0  0  0  0  0  0  0  0
   -7.6379   22.8579  -31.7006 H   0  0  0  0  0  0  0  0  0  0  0  0
   -6.9996   22.5790  -33.3929 H   0  0  0  0  0  0  0  0  0  0  0  0
   -6.9281   20.2798  -31.4787 H   0  0  0  0  0  0  0  0  0  0  0  0
   -8.5290   20.7860  -32.1463 H   0  0  0  0  0  0  0  0  0  0  0  0
   -8.0390   19.9710  -34.0770 H   0  0  0  0  0  0  0  0  0  0  0  0
   -6.5130   18.6291  -32.2152 H   0  0  0  0  0  0  0  0  0  0  0  0
   -7.1583   18.0274  -33.7846 H   0  0  0  0  0  0  0  0  0  0  0  0
   -5.0958   18.0193  -34.6948 H   0  0  0  0  0  0  0  0  0  0  0  0
   -4.8445   19.7458  -34.2195 H   0  0  0  0  0  0  0  0  0  0  0  0
   -4.6334   18.2635  -31.8177 H   0  0  0  0  0  0  0  0  0  0  0  0
   -3.7202   17.3209  -33.0659 H   0  0  0  0  0  0  0  0  0  0  0  0
   -3.0030   19.6750  -31.7380 H   0  0  0  0  0  0  0  0  0  0  0  0
   -3.1490   20.0150  -33.3850 H   0  0  0  0  0  0  0  0  0  0  0  0
    1.2785   16.2390  -32.3924 H   0  0  0  0  0  0  0  0  0  0  0  0
    0.1619   15.1279  -31.3728 H   0  0  0  0  0  0  0  0  0  0  0  0
   -1.6358   16.1697  -31.9626 H   0  0  0  0  0  0  0  0  0  0  0  0
   -0.8396   17.8084  -31.7165 H   0  0  0  0  0  0  0  0  0  0  0  0
    0.1947   16.7061  -34.1260 H   0  0  0  0  0  0  0  0  0  0  0  0
   -1.6034   16.5323  -34.1683 H   0  0  0  0  0  0  0  0  0  0  0  0
   -0.8770   19.0610  -33.1250 H   0  0  0  0  0  0  0  0  0  0  0  0
   -1.8310   18.6580  -34.4610 H   0  0  0  0  0  0  0  0  0  0  0  0
    1.0065   18.3008  -34.8829 H   0  0  0  0  0  0  0  0  0  0  0  0
   -0.2994   18.9971  -35.9501 H   0  0  0  0  0  0  0  0  0  0  0  0
    1.1322   20.4054  -33.6564 H   0  0  0  0  0  0  0  0  0  0  0  0
    1.2994   20.7041  -35.4589 H   0  0  0  0  0  0  0  0  0  0  0  0
   -0.2098   22.2574  -33.8726 H   0  0  0  0  0  0  0  0  0  0  0  0
   -0.6096   21.8935  -35.5982 H   0  0  0  0  0  0  0  0  0  0  0  0
   -1.6740   20.5840  -33.1780 H   0  0  0  0  0  0  0  0  0  0  0  0
   -2.4810   21.6280  -34.1960 H   0  0  0  0  0  0  0  0  0  0  0  0
  1  2  1  0
  3  2  1  1
  3  4  1  0
  3  5  1  0
  5  6  1  0
  6  7  1  0
  7  8  1  0
  8  9  1  0
  9 10  1  0
 10 11  1  0
 11 12  1  0
 12 13  1  0
 13 14  1  0
 14 15  1  0
 15 16  1  0
 16 17  1  0
 17 18  1  0
 18 19  1  0
 19 20  1  0
 20 21  1  0
  3 22  1  0
 22 23  1  0
 23 24  1  0
 24 25  1  0
 25 26  1  0
 26 27  1  0
 27 28  1  0
 28 29  1  0
  1 30  1  0
  1 31  1  0
  1 32  1  0
  2 33  1  0
  2 34  1  0
  4 35  1  0
  4 36  1  0
  4 37  1  0
  5 38  1  0
  5 39  1  0
  6 40  1  0
  6 41  1  0
  7 42  1  0
  7 43  1  0
  8 44  1  0
  9 45  1  0
  9 46  1  0
 10 47  1  0
 10 48  1  0
 11 49  1  0
 11 50  1  0
 12 51  1  0
 13 52  1  0
 13 53  1  0
 14 54  1  0
 14 55  1  0
 15 56  1  0
 15 57  1  0
 16 58  1  0
 16 59  1  0
 17 60  1  0
 18 61  1  0
 18 62  1  0
 19 63  1  0
 19 64  1  0
 20 65  1  0
 20 66  1  0
 21 67  1  0
 21 68  1  0
 22 69  1  0
 22 70  1  0
 23 71  1  0
 23 72  1  0
 24 73  1  0
 24 74  1  0
 25 75  1  0
 25 76  1  0
 26 77  1  0
 26 78  1  0
 27 79  1  0
 27 80  1  0
 28 81  1  0
 28 82  1  0
 29 83  1  0
 29 84  1  0
M  CHG  2   3   1  25   1
M  END
>  <UniqueID>  (14) 
14

>  <SMILES>  (14) 
CC[N@+](C)(CCCNCCCNCCCCNCCCN)CCC[NH2+]CCCN

>  <Energy>  (14) 
79.5257877572918

>  <Genealogy>  (14) 
CC[N+](C)(CCCNCCCNCCCCNCCCN)CCC[NH2+]CCCN (protonated)
CC[N@+](C)(CCCNCCCNCCCCNCCCN)CCC[NH2+]CCCN (chirality)
CC[N@+](C)(CCCNCCCNCCCCNCCCN)CCC[NH2+]CCCN (3D coordinates assigned)
CC[N@+](C)(CCCNCCCNCCCCNCCCN)CCC[NH2+]CCCN (optimized conformer: 79.5257877572918 kcal/mol)

>  <smiles>  (14) 
CC[N+](C)(CCCNCCCN)CCCNCCCNCCCCNCCCN

>  <score_type>  (14) 
oracle

>  <origin>  (14) 
adg

>  <m_score__min__energy>  (14) 
-4.7999999999999998

>  <m_primary>  (14) 
energy

$$$$
14:0
     RDKit          3D

 41 44  0  0  0  0  0  0  0  0999 V2000
   -4.1090   18.2090  -34.5560 H   0  0  0  0  0  0  0  0  0  0  0  0
   -4.5200   19.0610  -34.1140 N   0  0  0  0  0  0  0  0  0  0  0  0
   -5.0950   19.0100  -32.9560 C   0  0  0  0  0  0  0  0  0  0  0  0
   -5.8760   17.4370  -32.4640 S   0  0  0  0  0  0  0  0  0  0  0  0
   -7.2880   18.2140  -31.6270 C   0  0  2  0  0  0  0  0  0  0  0  0
   -6.8221   18.1600  -30.6320 H   0  0  0  0  0  0  0  0  0  0  0  0
   -8.7420   18.0340  -31.9750 C   0  0  0  0  0  0  0  0  0  0  0  0
   -9.5156   18.2602  -31.2264 H   0  0  0  0  0  0  0  0  0  0  0  0
   -9.3467   17.1966  -32.3532 H   0  0  0  0  0  0  0  0  0  0  0  0
   -7.9650   19.1680  -32.6260 C   0  0  1  0  0  0  0  0  0  0  0  0
   -8.0832   19.5042  -33.6667 H   0  0  0  0  0  0  0  0  0  0  0  0
   -7.6140   20.5020  -32.0670 C   0  0  0  0  0  0  0  0  0  0  0  0
   -6.3180   20.9270  -31.8170 C   0  0  0  0  0  0  0  0  0  0  0  0
   -6.3700   22.1640  -31.2710 N   0  0  0  0  0  0  0  0  0  0  0  0
   -5.2740   22.9630  -30.7970 C   0  0  0  0  0  0  0  0  0  0  0  0
   -5.3740   24.3620  -30.8030 C   0  0  0  0  0  0  0  0  0  0  0  0
   -6.2843   24.8431  -31.1902 H   0  0  0  0  0  0  0  0  0  0  0  0
   -4.3240   25.1490  -30.3200 C   0  0  0  0  0  0  0  0  0  0  0  0
   -4.4081   26.2457  -30.3368 H   0  0  0  0  0  0  0  0  0  0  0  0
   -3.1590   24.5420  -29.8120 C   0  0  0  0  0  0  0  0  0  0  0  0
   -2.0780   25.2860  -29.3180 O   0  0  0  0  0  0  0  0  0  0  0  0
   -1.3900   25.0000  -28.1020 C   0  0  0  0  0  0  0  0  0  0  0  0
   -0.8903   24.0235  -28.1842 H   0  0  0  0  0  0  0  0  0  0  0  0
   -0.6389   25.7811  -27.9129 H   0  0  0  0  0  0  0  0  0  0  0  0
   -2.3850   24.9650  -26.9540 C   0  0  0  0  0  0  0  0  0  0  0  0
   -1.8421   24.9841  -25.9975 H   0  0  0  0  0  0  0  0  0  0  0  0
   -3.0482   25.8404  -27.0167 H   0  0  0  0  0  0  0  0  0  0  0  0
   -2.9850   24.0452  -27.0167 H   0  0  0  0  0  0  0  0  0  0  0  0
   -3.0700   23.1450  -29.7910 C   0  0  0  0  0  0  0  0  0  0  0  0
   -2.1660   22.6616  -29.3921 H   0  0  0  0  0  0  0  0  0  0  0  0
   -4.1210   22.3600  -30.2730 C   0  0  0  0  0  0  0  0  0  0  0  0
   -4.0436   21.2632  -30.2413 H   0  0  0  0  0  0  0  0  0  0  0  0
   -7.6420   22.5370  -31.1910 N   0  0  0  0  0  0  0  0  0  0  0  0
   -7.9750   23.4380  -30.7790 H   0  0  0  0  0  0  0  0  0  0  0  0
   -8.4230   21.5490  -31.6750 C   0  0  0  0  0  0  0  0  0  0  0  0
   -9.9180   21.5640  -31.6590 C   0  0  0  0  0  0  0  0  0  0  0  0
  -10.2735   21.5676  -30.6180 H   0  0  0  0  0  0  0  0  0  0  0  0
  -10.2812   22.4658  -32.1736 H   0  0  0  0  0  0  0  0  0  0  0  0
  -10.2992   20.6696  -32.1736 H   0  0  0  0  0  0  0  0  0  0  0  0
   -5.1080   20.1880  -32.1200 N   0  0  0  0  0  0  0  0  0  0  0  0
   -4.2010   20.6950  -32.0290 H   0  0  0  0  0  0  0  0  0  0  0  0
  1  2  1  0
  2  3  2  0
  3  4  1  0
  4  5  1  0
  5  6  1  1
  5  7  1  0
  7  8  1  0
  7  9  1  0
  7 10  1  0
 10 11  1  6
 10 12  1  0
 12 13  2  0
 13 14  1  0
 14 15  1  0
 15 16  2  0
 16 17  1  0
 16 18  1  0
 18 19  1  0
 18 20  2  0
 20 21  1  0
 21 22  1  0
 22 23  1  0
 22 24  1  0
 22 25  1  0
 25 26  1  0
 25 27  1  0
 25 28  1  0
 20 29  1  0
 29 30  1  0
 29 31  2  0
 31 32  1  0
 14 33  1  0
 33 34  1  0
 33 35  2  0
 35 36  1  0
 36 37  1  0
 36 38  1  0
 36 39  1  0
 13 40  1  0
 40 41  1  0
 40  3  1  0
 10  5  1  0
 35 12  1  0
 31 15  1  0
M  CHG  1  33   1
M  END
>  <UniqueID>  (15) 
15

>  <SMILES>  (15) 
[H]/N=C1\Nc2c(c(C)[nH+]n2-c2ccc(OCC)cc2)[C@@H]2C[C@H]2S1

>  <Energy>  (15) 
372.6487095781909

>  <Genealogy>  (15) 
CCOc1ccc(-n2[nH+]c(C)c3c2NC(=N)SC2CC32)cc1 (protonated)
CCOc1ccc(-n2[nH+]c(C)c3c2NC(=N)S[C@@H]2C[C@@H]32)cc1 (chirality)
[H]/N=C1\Nc2c(c(C)[nH+]n2-c2ccc(OCC)cc2)[C@@H]2C[C@H]2S1 (cis-trans isomerization)
[H]/N=C1\Nc2c(c(C)[nH+]n2-c2ccc(OCC)cc2)[C@@H]2C[C@H]2S1 (3D coordinates assigned)
[H]/N=C1\Nc2c(c(C)[nH+]n2-c2ccc(OCC)cc2)[C@@H]2C[C@H]2S1 (nonaromatic ring conformer: 372.6487095781909 kcal/mol)

>  <smiles>  (15) 
CCOc1ccc(-n2nc(C)c3c2NC(=N)SC2CC32)cc1

>  <score_type>  (15) 
oracle

>  <origin>  (15) 
adg

>  <m_score__min__energy>  (15) 
-7.5700000000000003

>  <m_primary>  (15) 
energy

$$$$
15:0
     RDKit          3D

 50 53  0  0  0  0  0  0  0  0999 V2000
   -6.1470   25.4930  -29.4690 C   0  0  0  0  0  0  0  0  0  0  0  0
   -5.4580   25.6660  -30.8240 C   0  0  0  0  0  0  0  0  0  0  0  0
   -4.0580   25.2140  -30.8030 N   0  0  0  0  0  0  0  0  0  0  0  0
   -3.9160   23.7450  -30.7930 C   0  0  0  0  0  0  0  0  0  0  0  0
   -5.1620   23.0420  -31.3490 C   0  0  0  0  0  0  0  0  0  0  0  0
   -4.8640   22.4340  -32.6440 N   0  0  0  0  0  0  0  0  0  0  0  0
   -5.1480   21.0500  -32.8960 C   0  0  0  0  0  0  0  0  0  0  0  0
   -4.1400   20.1880  -33.3140 C   0  0  0  0  0  0  0  0  0  0  0  0
   -4.3860   18.8460  -33.5460 C   0  0  0  0  0  0  0  0  0  0  0  0
   -5.6570   18.3290  -33.4960 N   0  0  0  0  0  0  0  0  0  0  0  0
   -5.9310   16.9970  -34.0590 C   0  0  0  0  0  0  0  0  0  0  0  0
   -6.6710   19.1180  -32.9750 C   0  0  0  0  0  0  0  0  0  0  0  0
   -7.9500   18.5870  -32.6880 C   0  0  0  0  0  0  0  0  0  0  0  0
   -8.9720   19.3960  -32.1910 C   0  0  0  0  0  0  0  0  0  0  0  0
   -8.7470   20.7510  -31.9400 C   0  0  0  0  0  0  0  0  0  0  0  0
   -9.8630   21.6220  -31.4400 C   0  0  0  0  0  0  0  0  0  0  0  0
   -7.4880   21.3030  -32.2010 C   0  0  0  0  0  0  0  0  0  0  0  0
   -6.4370   20.5050  -32.6950 C   0  0  0  0  0  0  0  0  0  0  0  0
   -3.1020   18.2030  -33.9260 C   0  0  0  0  0  0  0  0  0  0  0  0
   -2.7380   16.8550  -34.0550 C   0  0  0  0  0  0  0  0  0  0  0  0
   -1.3990   16.5440  -34.3520 C   0  0  0  0  0  0  0  0  0  0  0  0
   -0.4370   17.5660  -34.4710 C   0  0  0  0  0  0  0  0  0  0  0  0
   -0.7990   18.9060  -34.2720 C   0  0  0  0  0  0  0  0  0  0  0  0
   -2.1330   19.1940  -33.9920 C   0  0  0  0  0  0  0  0  0  0  0  0
   -2.7390   20.4640  -33.6270 C   0  0  0  0  0  0  0  0  0  0  0  0
   -2.1630   21.5830  -33.6070 O   0  0  0  0  0  0  0  0  0  0  0  0
   -5.4213   25.6752  -28.6627 H   0  0  0  0  0  0  0  0  0  0  0  0
   -6.9763   26.2108  -29.3850 H   0  0  0  0  0  0  0  0  0  0  0  0
   -6.5388   24.4686  -29.3850 H   0  0  0  0  0  0  0  0  0  0  0  0
   -6.0069   25.0810  -31.5767 H   0  0  0  0  0  0  0  0  0  0  0  0
   -5.4605   26.7388  -31.0670 H   0  0  0  0  0  0  0  0  0  0  0  0
   -3.5300   25.6550  -31.5930 H   0  0  0  0  0  0  0  0  0  0  0  0
   -3.0477   23.4681  -31.4090 H   0  0  0  0  0  0  0  0  0  0  0  0
   -3.7827   23.4241  -29.7493 H   0  0  0  0  0  0  0  0  0  0  0  0
   -5.4818   22.2593  -30.6453 H   0  0  0  0  0  0  0  0  0  0  0  0
   -5.9646   23.7832  -31.4772 H   0  0  0  0  0  0  0  0  0  0  0  0
   -4.7210   23.0700  -33.4600 H   0  0  0  0  0  0  0  0  0  0  0  0
   -6.0792   16.2766  -33.2410 H   0  0  0  0  0  0  0  0  0  0  0  0
   -6.8390   17.0404  -34.6784 H   0  0  0  0  0  0  0  0  0  0  0  0
   -5.0796   16.6785  -34.6784 H   0  0  0  0  0  0  0  0  0  0  0  0
   -8.1422   17.5176  -32.8596 H   0  0  0  0  0  0  0  0  0  0  0  0
   -9.9639   18.9626  -31.9951 H   0  0  0  0  0  0  0  0  0  0  0  0
   -9.8633   21.6222  -30.3400 H   0  0  0  0  0  0  0  0  0  0  0  0
   -9.7191   22.6490  -31.8068 H   0  0  0  0  0  0  0  0  0  0  0  0
  -10.8243   21.2329  -31.8068 H   0  0  0  0  0  0  0  0  0  0  0  0
   -7.3165   22.3740  -32.0181 H   0  0  0  0  0  0  0  0  0  0  0  0
   -3.4844   16.0572  -33.9265 H   0  0  0  0  0  0  0  0  0  0  0  0
   -1.1007   15.4946  -34.4925 H   0  0  0  0  0  0  0  0  0  0  0  0
    0.6035   17.3116  -34.7213 H   0  0  0  0  0  0  0  0  0  0  0  0
   -0.0495   19.7086  -34.3353 H   0  0  0  0  0  0  0  0  0  0  0  0
  1  2  1  0
  2  3  1  0
  3  4  1  0
  4  5  1  0
  5  6  1  0
  6  7  1  0
  7  8  2  0
  8  9  1  0
  9 10  2  0
 10 11  1  0
 10 12  1  0
 12 13  2  0
 13 14  1  0
 14 15  2  0
 15 16  1  0
 15 17  1  0
 17 18  2  0
  9 19  1  0
 19 20  2  0
 20 21  1  0
 21 22  2  0
 22 23  1  0
 23 24  2  0
 24 25  1  0
 25 26  2  0
 18  7  1  0
 24 19  1  0
 25  8  1  0
 18 12  1  0
  1 27  1  0
  1 28  1  0
  1 29  1  0
  2 30  1  0
  2 31  1  0
  3 32  1  0
  4 33  1  0
  4 34  1  0
  5 35  1  0
  5 36  1  0
  6 37  1  0
 11 38  1  0
 11 39  1  0
 11 40  1  0
 13 41  1  0
 14 42  1  0
 16 43  1  0
 16 44  1  0
 16 45  1  0
 17 46  1  0
 20 47  1  0
 21 48  1  0
 22 49  1  0
 23 50  1  0
M  CHG  1  10   1
M  END
>  <UniqueID>  (16) 
16

>  <SMILES>  (16) 
CCNCCNc1c2c([n+](C)c3ccc(C)cc13)-c1ccccc1C2=O

>  <Energy>  (16) 
105.18718648085668

>  <Genealogy>  (16) 
CCNCCNc1c2c([n+](C)c3ccc(C)cc13)-c1ccccc1C2=O (3D coordinates assigned)
CCNCCNc1c2c([n+](C)c3ccc(C)cc13)-c1ccccc1C2=O (nonaromatic ring conformer: 105.18718648085668 kcal/mol)

>  <smiles>  (16) 
CCNCCNc1c2c([n+](C)c3ccc(C)cc13)-c1ccccc1C2=O

>  <score_type>  (16) 
oracle

>  <origin>  (16) 
adg

>  <m_score__min__energy>  (16) 
-9.7400000000000002

>  <m_primary>  (16) 
energy

$$$$
16:0
     RDKit          3D

 58 60  0  0  0  0  0  0  0  0999 V2000
    0.0270   19.8940  -32.5670 C   0  0  0  0  0  0  0  0  0  0  0  0
   -0.4980   21.2620  -32.9960 C   0  0  0  0  0  0  0  0  0  0  0  0
   -1.3330   21.1450  -34.1990 N   0  0  0  0  0  0  0  0  0  0  0  0
   -2.1860   19.9500  -34.1460 C   0  0  0  0  0  0  0  0  0  0  0  0
   -3.3420   20.1750  -33.1580 C   0  0  0  0  0  0  0  0  0  0  0  0
   -3.9600   21.5060  -33.3220 N   0  0  0  0  0  0  0  0  0  0  0  0
   -4.6660   21.9360  -32.1220 C   0  0  0  0  0  0  0  0  0  0  0  0
   -3.9890   22.6620  -31.1160 C   0  0  0  0  0  0  0  0  0  0  0  0
   -2.5930   22.5480  -30.9340 C   0  0  0  0  0  0  0  0  0  0  0  0
   -1.9460   23.2540  -29.9230 C   0  0  0  0  0  0  0  0  0  0  0  0
   -2.6740   24.0760  -29.0710 C   0  0  0  0  0  0  0  0  0  0  0  0
   -4.0520   24.2140  -29.2380 C   0  0  0  0  0  0  0  0  0  0  0  0
   -4.7320   23.5310  -30.2760 C   0  0  0  0  0  0  0  0  0  0  0  0
   -6.0820   23.7030  -30.4950 N   0  0  0  0  0  0  0  0  0  0  0  0
   -6.7820   24.8720  -29.9170 C   0  0  0  0  0  0  0  0  0  0  0  0
   -6.7780   22.7720  -31.2410 C   0  0  0  0  0  0  0  0  0  0  0  0
   -8.1930   22.7390  -31.2420 C   0  0  0  0  0  0  0  0  0  0  0  0
   -8.8890   21.7760  -31.9610 C   0  0  0  0  0  0  0  0  0  0  0  0
   -8.2030   20.7730  -32.6280 C   0  0  0  0  0  0  0  0  0  0  0  0
   -6.8030   20.7370  -32.6250 C   0  0  0  0  0  0  0  0  0  0  0  0
   -6.1730   19.4990  -33.0230 N   0  0  0  0  0  0  0  0  0  0  0  0
   -6.1930   18.3910  -32.0530 C   0  0  0  0  0  0  0  0  0  0  0  0
   -7.5840   17.7790  -31.9390 C   0  0  0  0  0  0  0  0  0  0  0  0
   -6.1190   19.1890  -34.4630 C   0  0  0  0  0  0  0  0  0  0  0  0
   -5.4520   17.8390  -34.7360 C   0  0  0  0  0  0  0  0  0  0  0  0
   -6.0730   21.8000  -32.0100 C   0  0  0  0  0  0  0  0  0  0  0  0
    0.0487   19.8375  -31.4687 H   0  0  0  0  0  0  0  0  0  0  0  0
   -0.6332   19.1076  -32.9616 H   0  0  0  0  0  0  0  0  0  0  0  0
    1.0438   19.7512  -32.9616 H   0  0  0  0  0  0  0  0  0  0  0  0
   -1.0987   21.6901  -32.1800 H   0  0  0  0  0  0  0  0  0  0  0  0
    0.3586   21.9138  -33.2227 H   0  0  0  0  0  0  0  0  0  0  0  0
   -1.9640   21.9800  -34.2270 H   0  0  0  0  0  0  0  0  0  0  0  0
   -2.5957   19.7497  -35.1470 H   0  0  0  0  0  0  0  0  0  0  0  0
   -1.5856   19.0913  -33.8110 H   0  0  0  0  0  0  0  0  0  0  0  0
   -4.1086   19.4044  -33.3272 H   0  0  0  0  0  0  0  0  0  0  0  0
   -2.9337   20.1137  -32.1384 H   0  0  0  0  0  0  0  0  0  0  0  0
   -4.6080   21.5000  -34.1400 H   0  0  0  0  0  0  0  0  0  0  0  0
   -3.1810   22.1470  -33.5640 H   0  0  0  0  0  0  0  0  0  0  0  0
   -2.0099   21.8937  -31.5988 H   0  0  0  0  0  0  0  0  0  0  0  0
   -0.8570   23.1609  -29.7985 H   0  0  0  0  0  0  0  0  0  0  0  0
   -2.1622   24.6192  -28.2629 H   0  0  0  0  0  0  0  0  0  0  0  0
   -4.6187   24.8626  -28.5538 H   0  0  0  0  0  0  0  0  0  0  0  0
   -6.7473   24.8141  -28.8191 H   0  0  0  0  0  0  0  0  0  0  0  0
   -6.2889   25.7968  -30.2512 H   0  0  0  0  0  0  0  0  0  0  0  0
   -7.8300   24.8739  -30.2512 H   0  0  0  0  0  0  0  0  0  0  0  0
   -8.7513   23.4894  -30.6630 H   0  0  0  0  0  0  0  0  0  0  0  0
   -9.9878   21.8093  -32.0013 H   0  0  0  0  0  0  0  0  0  0  0  0
   -8.7652   19.9957  -33.1663 H   0  0  0  0  0  0  0  0  0  0  0  0
   -5.4860   17.6148  -32.3812 H   0  0  0  0  0  0  0  0  0  0  0  0
   -5.9066   18.7873  -31.0677 H   0  0  0  0  0  0  0  0  0  0  0  0
   -7.8477   17.6630  -30.8774 H   0  0  0  0  0  0  0  0  0  0  0  0
   -8.3159   18.4382  -32.4287 H   0  0  0  0  0  0  0  0  0  0  0  0
   -7.5925   16.7940  -32.4287 H   0  0  0  0  0  0  0  0  0  0  0  0
   -7.1448   19.1645  -34.8594 H   0  0  0  0  0  0  0  0  0  0  0  0
   -5.5197   19.9690  -34.9554 H   0  0  0  0  0  0  0  0  0  0  0  0
   -5.2102   17.3497  -33.7810 H   0  0  0  0  0  0  0  0  0  0  0  0
   -6.1384   17.2006  -35.3116 H   0  0  0  0  0  0  0  0  0  0  0  0
   -4.5279   17.9963  -35.3116 H   0  0  0  0  0  0  0  0  0  0  0  0
  1  2  1  0
  2  3  1  0
  3  4  1  0
  4  5  1  0
  5  6  1  0
  6  7  1  0
  7  8  2  0
  8  9  1  0
  9 10  2  0
 10 11  1  0
 11 12  2  0
 12 13  1  0
 13 14  2  0
 14 15  1  0
 14 16  1  0
 16 17  2  0
 17 18  1  0
 18 19  2  0
 19 20  1  0
 20 21  1  0
 21 22  1  0
 22 23  1  0
 21 24  1  0
 24 25  1  0
 20 26  2  0
 26  7  1  0
 13  8  1  0
 26 16  1  0
  1 27  1  0
  1 28  1  0
  1 29  1  0
  2 30  1  0
  2 31  1  0
  3 32  1  0
  4 33  1  0
  4 34  1  0
  5 35  1  0
  5 36  1  0
  6 37  1  0
  6 38  1  0
  9 39  1  0
 10 40  1  0
 11 41  1  0
 12 42  1  0
 15 43  1  0
 15 44  1  0
 15 45  1  0
 17 46  1  0
 18 47  1  0
 19 48  1  0
 22 49  1  0
 22 50  1  0
 23 51  1  0
 23 52  1  0
 23 53  1  0
 24 54  1  0
 24 55  1  0
 25 56  1  0
 25 57  1  0
 25 58  1  0
M  CHG  2   6   1  14   1
M  END
>  <UniqueID>  (17) 
17

>  <SMILES>  (17) 
CCNCC[NH2+]c1c2ccccc2[n+](C)c2cccc(N(CC)CC)c12

>  <Energy>  (17) 
92.68934778175046

>  <Genealogy>  (17) 
CCNCC[NH2+]c1c2ccccc2[n+](C)c2cccc(N(CC)CC)c12 (protonated)
CCNCC[NH2+]c1c2ccccc2[n+](C)c2cccc(N(CC)CC)c12 (3D coordinates assigned)
CCNCC[NH2+]c1c2ccccc2[n+](C)c2cccc(N(CC)CC)c12 (optimized conformer: 92.68934778175046 kcal/mol)

>  <smiles>  (17) 
CCNCCNc1c2ccccc2[n+](C)c2cccc(N(CC)CC)c12

>  <score_type>  (17) 
oracle

>  <origin>  (17) 
adg

>  <m_score__min__energy>  (17) 
-7.6600000000000001

>  <m_primary>  (17) 
energy

$$$$
17:0
     RDKit          3D

 45 45  0  0  0  0  0  0  0  0999 V2000
   -2.7260   20.8090  -29.5650 C   0  0  0  0  0  0  0  0  0  0  0  0
   -2.8770   20.7280  -28.0480 C   0  0  0  0  0  0  0  0  0  0  0  0
   -1.8540   19.8340  -27.4670 N   0  0  0  0  0  0  0  0  0  0  0  0
   -2.3060   19.1580  -26.2300 C   0  0  0  0  0  0  0  0  0  0  0  0
   -3.7420   18.6150  -26.3110 C   0  0  0  0  0  0  0  0  0  0  0  0
   -0.5230   20.4710  -27.3260 C   0  0  0  0  0  0  0  0  0  0  0  0
   -0.6650   21.7570  -26.5120 C   0  0  0  0  0  0  0  0  0  0  0  0
   -0.2440   22.8730  -27.2750 O   0  0  0  0  0  0  0  0  0  0  0  0
    0.0170   23.9990  -26.4540 C   0  0  0  0  0  0  0  0  0  0  0  0
    0.0340   25.2740  -27.2930 C   0  0  0  0  0  0  0  0  0  0  0  0
   -0.3690   24.9810  -28.6080 O   0  0  0  0  0  0  0  0  0  0  0  0
   -1.6280   25.4740  -28.7460 N   0  0  0  0  0  0  0  0  0  0  0  0
   -2.7250   24.6330  -29.1120 C   0  0  0  0  0  0  0  0  0  0  0  0
   -2.9770   23.6180  -28.4100 O   0  0  0  0  0  0  0  0  0  0  0  0
   -3.5010   24.9230  -30.2860 N   0  0  0  0  0  0  0  0  0  0  0  0
   -4.7220   24.2490  -30.6370 C   0  0  0  0  0  0  0  0  0  0  0  0
   -5.9440   24.7450  -30.1570 C   0  0  0  0  0  0  0  0  0  0  0  0
   -7.1430   24.0970  -30.4670 C   0  0  0  0  0  0  0  0  0  0  0  0
   -7.1310   22.9360  -31.2450 C   0  0  0  0  0  0  0  0  0  0  0  0
   -8.7700   22.0480  -31.6630 Br  0  0  0  0  0  0  0  0  0  0  0  0
   -5.9180   22.4190  -31.7070 C   0  0  0  0  0  0  0  0  0  0  0  0
   -4.7160   23.0650  -31.4000 C   0  0  0  0  0  0  0  0  0  0  0  0
   -1.7816   21.3156  -29.8129 H   0  0  0  0  0  0  0  0  0  0  0  0
   -2.7192   19.7934  -29.9876 H   0  0  0  0  0  0  0  0  0  0  0  0
   -3.5684   21.3763  -29.9876 H   0  0  0  0  0  0  0  0  0  0  0  0
   -2.7618   21.7346  -27.6196 H   0  0  0  0  0  0  0  0  0  0  0  0
   -3.8730   20.3243  -27.8134 H   0  0  0  0  0  0  0  0  0  0  0  0
   -1.6276   18.3164  -26.0266 H   0  0  0  0  0  0  0  0  0  0  0  0
   -2.2924   19.9116  -25.4288 H   0  0  0  0  0  0  0  0  0  0  0  0
   -4.1356   18.4662  -25.2947 H   0  0  0  0  0  0  0  0  0  0  0  0
   -4.3766   19.3352  -26.8481 H   0  0  0  0  0  0  0  0  0  0  0  0
   -3.7413   17.6551  -26.8481 H   0  0  0  0  0  0  0  0  0  0  0  0
    0.1616   19.7823  -26.8094 H   0  0  0  0  0  0  0  0  0  0  0  0
   -0.1186   20.7065  -28.3215 H   0  0  0  0  0  0  0  0  0  0  0  0
   -1.7187   21.8903  -26.2258 H   0  0  0  0  0  0  0  0  0  0  0  0
   -0.0358   21.6816  -25.6129 H   0  0  0  0  0  0  0  0  0  0  0  0
   -0.7682   24.0792  -25.6878 H   0  0  0  0  0  0  0  0  0  0  0  0
    0.9993   23.8727  -25.9752 H   0  0  0  0  0  0  0  0  0  0  0  0
   -0.6562   26.0097  -26.8543 H   0  0  0  0  0  0  0  0  0  0  0  0
    1.0534   25.6870  -27.3077 H   0  0  0  0  0  0  0  0  0  0  0  0
   -3.1090   25.6020  -30.9770 H   0  0  0  0  0  0  0  0  0  0  0  0
   -5.9583   25.6503  -29.5323 H   0  0  0  0  0  0  0  0  0  0  0  0
   -8.0972   24.5013  -30.0982 H   0  0  0  0  0  0  0  0  0  0  0  0
   -5.9083   21.5015  -32.3138 H   0  0  0  0  0  0  0  0  0  0  0  0
   -3.7627   22.6470  -31.7556 H   0  0  0  0  0  0  0  0  0  0  0  0
  1  2  1  0
  2  3  1  0
  3  4  1  0
  4  5  1  0
  3  6  1  0
  6  7  1  0
  7  8  1  0
  8  9  1  0
  9 10  1  0
 10 11  1  0
 11 12  1  0
 12 13  1  0
 13 14  2  0
 13 15  1  0
 15 16  1  0
 16 17  2  0
 17 18  1  0
 18 19  2  0
 19 20  1  0
 19 21  1  0
 21 22  2  0
 22 16  1  0
  1 23  1  0
  1 24  1  0
  1 25  1  0
  2 26  1  0
  2 27  1  0
  4 28  1  0
  4 29  1  0
  5 30  1  0
  5 31  1  0
  5 32  1  0
  6 33  1  0
  6 34  1  0
  7 35  1  0
  7 36  1  0
  9 37  1  0
  9 38  1  0
 10 39  1  0
 10 40  1  0
 15 41  1  0
 17 42  1  0
 18 43  1  0
 21 44  1  0
 22 45  1  0
M  CHG  1  12  -1
M  END
>  <UniqueID>  (18) 
18

>  <SMILES>  (18) 
CCN(CC)CCOCCO[N-]C(=O)Nc1ccc(Br)cc1

>  <Energy>  (18) 
44.46869055330993

>  <Genealogy>  (18) 
CCN(CC)CCOCCO[N-]C(=O)Nc1ccc(Br)cc1 (protonated)
CCN(CC)CCOCCO[N-]C(=O)Nc1ccc(Br)cc1 (3D coordinates assigned)
CCN(CC)CCOCCO[N-]C(=O)Nc1ccc(Br)cc1 (optimized conformer: 44.46869055330993 kcal/mol)

>  <smiles>  (18) 
CCN(CC)CCOCCONC(=O)Nc1ccc(Br)cc1

>  <score_type>  (18) 
oracle

>  <origin>  (18) 
adg

>  <m_score__min__energy>  (18) 
-8.4399999999999995

>  <m_primary>  (18) 
energy

$$$$
18:0
     RDKit          3D

 70 72  0  0  0  0  0  0  0  0999 V2000
   -3.7080   23.7650  -27.4480 C   0  0  0  0  0  0  0  0  0  0  0  0
   -3.8620   22.3410  -27.9900 C   0  0  0  0  0  0  0  0  0  0  0  0
   -2.6940   21.9350  -28.8120 N   0  0  0  0  0  0  0  0  0  0  0  0
   -1.8210   23.1020  -29.0610 C   0  0  0  0  0  0  0  0  0  0  0  0
   -1.9450   20.8670  -28.1050 C   0  0  0  0  0  0  0  0  0  0  0  0
   -1.2930   19.8550  -29.0590 C   0  0  0  0  0  0  0  0  0  0  0  0
   -1.4400   20.2710  -30.4070 O   0  0  0  0  0  0  0  0  0  0  0  0
   -0.1970   20.6850  -30.9360 C   0  0  0  0  0  0  0  0  0  0  0  0
    0.2610   19.6880  -32.0050 C   0  0  0  0  0  0  0  0  0  0  0  0
   -0.1480   18.2370  -31.6850 C   0  0  0  0  0  0  0  0  0  0  0  0
   -1.3220   17.7400  -32.5370 C   0  0  0  0  0  0  0  0  0  0  0  0
   -2.3850   18.6660  -32.4770 O   0  0  0  0  0  0  0  0  0  0  0  0
   -2.6630   19.1740  -33.7660 C   0  0  0  0  0  0  0  0  0  0  0  0
   -2.1620   20.6210  -33.8760 C   0  0  0  0  0  0  0  0  0  0  0  0
   -2.9650   21.6270  -33.0160 C   0  0  0  0  0  0  0  0  0  0  0  0
   -3.4860   21.0600  -31.7560 N   0  0  0  0  0  0  0  0  0  0  0  0
   -4.9160   21.2930  -31.5780 C   0  0  0  0  0  0  0  0  0  0  0  0
   -5.8730   20.2490  -31.7640 C   0  0  0  0  0  0  0  0  0  0  0  0
   -5.5010   18.9040  -32.0380 C   0  0  0  0  0  0  0  0  0  0  0  0
   -6.4570   17.9000  -32.1670 C   0  0  0  0  0  0  0  0  0  0  0  0
   -7.8010   18.1930  -32.0190 C   0  0  0  0  0  0  0  0  0  0  0  0
   -8.2060   19.5020  -31.7820 C   0  0  0  0  0  0  0  0  0  0  0  0
   -7.2640   20.5590  -31.6950 C   0  0  0  0  0  0  0  0  0  0  0  0
   -7.6820   21.8650  -31.5460 N   0  0  0  0  0  0  0  0  0  0  0  0
   -9.0850   22.2350  -31.8470 C   0  0  0  0  0  0  0  0  0  0  0  0
   -6.7880   22.8370  -31.1570 C   0  0  0  0  0  0  0  0  0  0  0  0
   -7.2370   24.1030  -30.7000 C   0  0  0  0  0  0  0  0  0  0  0  0
   -6.3390   25.1110  -30.3680 C   0  0  0  0  0  0  0  0  0  0  0  0
   -4.9760   24.8870  -30.4730 C   0  0  0  0  0  0  0  0  0  0  0  0
   -4.5010   23.6440  -30.8800 C   0  0  0  0  0  0  0  0  0  0  0  0
   -5.3880   22.5850  -31.2060 C   0  0  0  0  0  0  0  0  0  0  0  0
   -3.7106   23.7410  -26.3483 H   0  0  0  0  0  0  0  0  0  0  0  0
   -2.7585   24.1918  -27.8032 H   0  0  0  0  0  0  0  0  0  0  0  0
   -4.5443   24.3850  -27.8032 H   0  0  0  0  0  0  0  0  0  0  0  0
   -3.9601   21.6462  -27.1429 H   0  0  0  0  0  0  0  0  0  0  0  0
   -4.7566   22.3132  -28.6295 H   0  0  0  0  0  0  0  0  0  0  0  0
   -1.4999   23.5313  -28.1005 H   0  0  0  0  0  0  0  0  0  0  0  0
   -0.9376   22.7835  -29.6339 H   0  0  0  0  0  0  0  0  0  0  0  0
   -2.3760   23.8595  -29.6339 H   0  0  0  0  0  0  0  0  0  0  0  0
   -1.1556   21.3356  -27.4990 H   0  0  0  0  0  0  0  0  0  0  0  0
   -2.6673   20.3152  -27.4855 H   0  0  0  0  0  0  0  0  0  0  0  0
   -0.2222   19.7725  -28.8212 H   0  0  0  0  0  0  0  0  0  0  0  0
   -1.7877   18.8806  -28.9333 H   0  0  0  0  0  0  0  0  0  0  0  0
   -0.3045   21.6825  -31.3871 H   0  0  0  0  0  0  0  0  0  0  0  0
    0.5494   20.7258  -30.1290 H   0  0  0  0  0  0  0  0  0  0  0  0
   -0.1870   19.9749  -32.9678 H   0  0  0  0  0  0  0  0  0  0  0  0
    1.3600   19.7217  -32.0392 H   0  0  0  0  0  0  0  0  0  0  0  0
    0.7170   17.5818  -31.8651 H   0  0  0  0  0  0  0  0  0  0  0  0
   -0.4724   18.2123  -30.6342 H   0  0  0  0  0  0  0  0  0  0  0  0
   -0.9937   17.6288  -33.5809 H   0  0  0  0  0  0  0  0  0  0  0  0
   -1.6651   16.7693  -32.1496 H   0  0  0  0  0  0  0  0  0  0  0  0
   -2.1556   18.5540  -34.5197 H   0  0  0  0  0  0  0  0  0  0  0  0
   -3.7494   19.1526  -33.9374 H   0  0  0  0  0  0  0  0  0  0  0  0
   -1.1110   20.6497  -33.5526 H   0  0  0  0  0  0  0  0  0  0  0  0
   -2.2878   20.9248  -34.9257 H   0  0  0  0  0  0  0  0  0  0  0  0
   -2.3066   22.4727  -32.7683 H   0  0  0  0  0  0  0  0  0  0  0  0
   -3.8379   21.9296  -33.6131 H   0  0  0  0  0  0  0  0  0  0  0  0
   -3.2040   20.0630  -31.6940 H   0  0  0  0  0  0  0  0  0  0  0  0
   -2.9640   21.4790  -30.9530 H   0  0  0  0  0  0  0  0  0  0  0  0
   -4.4362   18.6517  -32.1503 H   0  0  0  0  0  0  0  0  0  0  0  0
   -6.1423   16.8693  -32.3876 H   0  0  0  0  0  0  0  0  0  0  0  0
   -8.5496   17.3901  -32.0888 H   0  0  0  0  0  0  0  0  0  0  0  0
   -9.2768   19.7219  -31.6597 H   0  0  0  0  0  0  0  0  0  0  0  0
   -9.6358   22.3803  -30.9060 H   0  0  0  0  0  0  0  0  0  0  0  0
   -9.1013   23.1681  -32.4292 H   0  0  0  0  0  0  0  0  0  0  0  0
   -9.5593   21.4312  -32.4292 H   0  0  0  0  0  0  0  0  0  0  0  0
   -8.3169   24.2906  -30.6066 H   0  0  0  0  0  0  0  0  0  0  0  0
   -6.7109   26.0867  -30.0219 H   0  0  0  0  0  0  0  0  0  0  0  0
   -4.2674   25.6937  -30.2340 H   0  0  0  0  0  0  0  0  0  0  0  0
   -3.4158   23.4787  -30.9505 H   0  0  0  0  0  0  0  0  0  0  0  0
  1  2  1  0
  2  3  1  0
  3  4  1  0
  3  5  1  0
  5  6  1  0
  6  7  1  0
  7  8  1  0
  8  9  1  0
  9 10  1  0
 10 11  1  0
 11 12  1  0
 12 13  1  0
 13 14  1  0
 14 15  1  0
 15 16  1  0
 16 17  1  0
 17 18  2  0
 18 19  1  0
 19 20  2  0
 20 21  1  0
 21 22  2  0
 22 23  1  0
 23 24  2  0
 24 25  1  0
 24 26  1  0
 26 27  2  0
 27 28  1  0
 28 29  2  0
 29 30  1  0
 30 31  2  0
 31 17  1  0
 23 18  1  0
 31 26  1  0
  1 32  1  0
  1 33  1  0
  1 34  1  0
  2 35  1  0
  2 36  1  0
  4 37  1  0
  4 38  1  0
  4 39  1  0
  5 40  1  0
  5 41  1  0
  6 42  1  0
  6 43  1  0
  8 44  1  0
  8 45  1  0
  9 46  1  0
  9 47  1  0
 10 48  1  0
 10 49  1  0
 11 50  1  0
 11 51  1  0
 13 52  1  0
 13 53  1  0
 14 54  1  0
 14 55  1  0
 15 56  1  0
 15 57  1  0
 16 58  1  0
 16 59  1  0
 19 60  1  0
 20 61  1  0
 21 62  1  0
 22 63  1  0
 25 64  1  0
 25 65  1  0
 25 66  1  0
 27 67  1  0
 28 68  1  0
 29 69  1  0
 30 70  1  0
M  CHG  2  16   1  24   1
M  END
>  <UniqueID>  (19) 
19

>  <SMILES>  (19) 
CCN(C)CCOCCCCOCCC[NH2+]c1c2ccccc2[n+](C)c2ccccc12

>  <Energy>  (19) 
92.00930451376044

>  <Genealogy>  (19) 
CCN(C)CCOCCCCOCCC[NH2+]c1c2ccccc2[n+](C)c2ccccc12 (protonated)
CCN(C)CCOCCCCOCCC[NH2+]c1c2ccccc2[n+](C)c2ccccc12 (3D coordinates assigned)
CCN(C)CCOCCCCOCCC[NH2+]c1c2ccccc2[n+](C)c2ccccc12 (optimized conformer: 92.00930451376044 kcal/mol)

>  <smiles>  (19) 
CCN(C)CCOCCCCOCCCNc1c2ccccc2[n+](C)c2ccccc12

>  <score_type>  (19) 
oracle

>  <origin>  (19) 
adg

>  <m_score__min__energy>  (19) 
-8.6799999999999997

>  <m_primary>  (19) 
energy

$$$$
19:0
     RDKit          3D

 51 54  0  0  0  0  0  0  0  0999 V2000
   -6.4800   25.3480  -29.7020 C   0  0  0  0  0  0  0  0  0  0  0  0
   -5.0500   24.9240  -30.0050 C   0  0  0  0  0  0  0  0  0  0  0  0
   -4.9870   24.2350  -31.2520 O   0  0  0  0  0  0  0  0  0  0  0  0
   -5.5620   22.9750  -31.4450 C   0  0  0  0  0  0  0  0  0  0  0  0
   -6.9120   22.8830  -31.6000 N   0  0  0  0  0  0  0  0  0  0  0  0
   -7.5140   21.6880  -31.8550 C   0  0  0  0  0  0  0  0  0  0  0  0
   -8.9020   21.5990  -32.0390 C   0  0  0  0  0  0  0  0  0  0  0  0
   -9.4940   20.3610  -32.3080 C   0  0  0  0  0  0  0  0  0  0  0  0
   -8.7060   19.2090  -32.3960 C   0  0  0  0  0  0  0  0  0  0  0  0
   -7.3220   19.2880  -32.2140 C   0  0  0  0  0  0  0  0  0  0  0  0
   -6.7240   20.5240  -31.9440 C   0  0  0  0  0  0  0  0  0  0  0  0
   -5.3830   20.6140  -31.7560 N   0  0  0  0  0  0  0  0  0  0  0  0
   -4.7780   21.8030  -31.4920 C   0  0  0  0  0  0  0  0  0  0  0  0
   -3.3630   21.8310  -31.2360 N   0  0  0  0  0  0  0  0  0  0  0  0
   -2.8830   22.4450  -29.9910 C   0  0  0  0  0  0  0  0  0  0  0  0
   -1.3500   22.4650  -29.9310 C   0  0  0  0  0  0  0  0  0  0  0  0
   -0.7630   21.0930  -30.3480 C   0  0  0  0  0  0  0  0  0  0  0  0
   -1.1560   20.0100  -29.4000 N   0  0  0  0  0  0  0  0  0  0  0  0
   -0.1380   18.9470  -29.2900 C   0  0  0  0  0  0  0  0  0  0  0  0
   -0.0440   18.5170  -27.8300 C   0  0  0  0  0  0  0  0  0  0  0  0
   -1.1020   19.3180  -27.1100 C   0  0  0  0  0  0  0  0  0  0  0  0
   -1.3590   20.4920  -28.0260 C   0  0  0  0  0  0  0  0  0  0  0  0
   -1.2010   20.7530  -31.8100 C   0  0  0  0  0  0  0  0  0  0  0  0
   -2.4140   21.5520  -32.3220 C   0  0  0  0  0  0  0  0  0  0  0  0
   -6.6266   25.3915  -28.6127 H   0  0  0  0  0  0  0  0  0  0  0  0
   -6.6682   26.3406  -30.1372 H   0  0  0  0  0  0  0  0  0  0  0  0
   -7.1788   24.6184  -30.1372 H   0  0  0  0  0  0  0  0  0  0  0  0
   -4.4098   25.8173  -30.0522 H   0  0  0  0  0  0  0  0  0  0  0  0
   -4.7023   24.2501  -29.2082 H   0  0  0  0  0  0  0  0  0  0  0  0
   -7.4850   23.7570  -31.5480 H   0  0  0  0  0  0  0  0  0  0  0  0
   -9.5247   22.5033  -31.9717 H   0  0  0  0  0  0  0  0  0  0  0  0
  -10.5826   20.2931  -32.4508 H   0  0  0  0  0  0  0  0  0  0  0  0
   -9.1765   18.2378  -32.6091 H   0  0  0  0  0  0  0  0  0  0  0  0
   -6.7044   18.3803  -32.2829 H   0  0  0  0  0  0  0  0  0  0  0  0
   -3.2568   23.4780  -29.9342 H   0  0  0  0  0  0  0  0  0  0  0  0
   -3.2546   21.8481  -29.1451 H   0  0  0  0  0  0  0  0  0  0  0  0
   -0.9728   23.2407  -30.6137 H   0  0  0  0  0  0  0  0  0  0  0  0
   -1.0413   22.6801  -28.8974 H   0  0  0  0  0  0  0  0  0  0  0  0
    0.3342   21.1618  -30.3117 H   0  0  0  0  0  0  0  0  0  0  0  0
   -0.4298   18.0879  -29.9119 H   0  0  0  0  0  0  0  0  0  0  0  0
    0.8367   19.3210  -29.6365 H   0  0  0  0  0  0  0  0  0  0  0  0
   -0.2432   17.4396  -27.7320 H   0  0  0  0  0  0  0  0  0  0  0  0
    0.9587   18.6944  -27.4139 H   0  0  0  0  0  0  0  0  0  0  0  0
   -2.0165   18.7226  -26.9717 H   0  0  0  0  0  0  0  0  0  0  0  0
   -0.7858   19.6282  -26.1031 H   0  0  0  0  0  0  0  0  0  0  0  0
   -2.3905   20.8525  -27.8995 H   0  0  0  0  0  0  0  0  0  0  0  0
   -0.6818   21.3279  -27.7964 H   0  0  0  0  0  0  0  0  0  0  0  0
   -0.3509   20.9556  -32.4780 H   0  0  0  0  0  0  0  0  0  0  0  0
   -1.5057   19.6961  -31.8046 H   0  0  0  0  0  0  0  0  0  0  0  0
   -2.0633   22.5047  -32.7456 H   0  0  0  0  0  0  0  0  0  0  0  0
   -2.9277   20.9527  -33.0881 H   0  0  0  0  0  0  0  0  0  0  0  0
  1  2  1  0
  2  3  1  0
  3  4  1  0
  4  5  2  0
  5  6  1  0
  6  7  2  0
  7  8  1  0
  8  9  2  0
  9 10  1  0
 10 11  2  0
 11 12  1  0
 12 13  2  0
 13 14  1  0
 14 15  1  0
 15 16  1  0
 16 17  1  0
 17 18  1  0
 18 19  1  0
 19 20  1  0
 20 21  1  0
 21 22  1  0
 17 23  1  0
 23 24  1  0
 13  4  1  0
 24 14  1  0
 11  6  1  0
 22 18  1  0
  1 25  1  0
  1 26  1  0
  1 27  1  0
  2 28  1  0
  2 29  1  0
  5 30  1  0
  7 31  1  0
  8 32  1  0
  9 33  1  0
 10 34  1  0
 15 35  1  0
 15 36  1  0
 16 37  1  0
 16 38  1  0
 17 39  1  0
 19 40  1  0
 19 41  1  0
 20 42  1  0
 20 43  1  0
 21 44  1  0
 21 45  1  0
 22 46  1  0
 22 47  1  0
 23 48  1  0
 23 49  1  0
 24 50  1  0
 24 51  1  0
M  CHG  1   5   1
M  END
>  <UniqueID>  (20) 
20

>  <SMILES>  (20) 
CCOc1[nH+]c2ccccc2nc1N1CCC(N2CCCC2)CC1

>  <Energy>  (20) 
70.12815017095353

>  <Genealogy>  (20) 
CCOc1[nH+]c2ccccc2nc1N1CCC(N2CCCC2)CC1 (protonated)
CCOc1[nH+]c2ccccc2nc1N1CCC(N2CCCC2)CC1 (3D coordinates assigned)
CCOc1[nH+]c2ccccc2nc1N1CCC(N2CCCC2)CC1 (nonaromatic ring conformer: 70.12815017095353 kcal/mol)

>  <smiles>  (20) 
CCOc1nc2ccccc2nc1N1CCC(N2CCCC2)CC1

>  <score_type>  (20) 
oracle

>  <origin>  (20) 
adg

>  <m_score__min__energy>  (20) 
-7.2999999999999998

>  <m_primary>  (20) 
energy

$$$$
20:0
     RDKit          3D

 46 47  0  0  0  0  0  0  0  0999 V2000
   -6.5290   16.2160  -33.8430 C   0  0  0  0  0  0  0  0  0  0  0  0
   -5.8380   17.4270  -34.4810 C   0  0  0  0  0  0  0  0  0  0  0  0
   -6.4710   18.7200  -34.1050 N   0  0  0  0  0  0  0  0  0  0  0  0
   -5.5140   19.8140  -33.7690 C   0  0  0  0  0  0  0  0  0  0  0  0
   -4.4520   19.4630  -32.7180 C   0  0  0  0  0  0  0  0  0  0  0  0
   -7.5390   18.5490  -33.0850 C   0  0  0  0  0  0  0  0  0  0  0  0
   -7.8600   19.7900  -32.3610 C   0  0  0  0  0  0  0  0  0  0  0  0
   -8.0920   20.8260  -31.7910 C   0  0  0  0  0  0  0  0  0  0  0  0
   -8.3330   22.1140  -31.1310 C   0  0  0  0  0  0  0  0  0  0  0  0
   -7.0430   22.7810  -30.8560 N   0  0  0  0  0  0  0  0  0  0  0  0
   -7.2400   24.2090  -30.5070 C   0  0  0  0  0  0  0  0  0  0  0  0
   -5.9100   24.9940  -30.4530 C   0  0  0  0  0  0  0  0  0  0  0  0
   -4.6890   24.0620  -30.4030 C   0  0  0  0  0  0  0  0  0  0  0  0
   -4.7060   23.1210  -31.6270 C   0  0  0  0  0  0  0  0  0  0  0  0
   -6.1260   22.6470  -32.0040 C   0  0  0  0  0  0  0  0  0  0  0  0
   -4.7420   23.2870  -29.2230 O   0  0  0  0  0  0  0  0  0  0  0  0
   -3.7500   23.7950  -28.3910 C   0  0  0  0  0  0  0  0  0  0  0  0
   -2.8080   24.5440  -29.2810 C   0  0  0  0  0  0  0  0  0  0  0  0
   -3.5120   24.8430  -30.4420 O   0  0  0  0  0  0  0  0  0  0  0  0
   -6.4804   16.3012  -32.7474 H   0  0  0  0  0  0  0  0  0  0  0  0
   -7.5813   16.1841  -34.1620 H   0  0  0  0  0  0  0  0  0  0  0  0
   -6.0211   15.2939  -34.1620 H   0  0  0  0  0  0  0  0  0  0  0  0
   -4.7873   17.4430  -34.1558 H   0  0  0  0  0  0  0  0  0  0  0  0
   -5.9275   17.3209  -35.5722 H   0  0  0  0  0  0  0  0  0  0  0  0
   -6.9780   19.0540  -34.9600 H   0  0  0  0  0  0  0  0  0  0  0  0
   -4.9931   20.1044  -34.6933 H   0  0  0  0  0  0  0  0  0  0  0  0
   -6.1193   20.6203  -33.3292 H   0  0  0  0  0  0  0  0  0  0  0  0
   -4.8726   19.6020  -31.7111 H   0  0  0  0  0  0  0  0  0  0  0  0
   -4.1430   18.4149  -32.8448 H   0  0  0  0  0  0  0  0  0  0  0  0
   -3.5793   20.1205  -32.8448 H   0  0  0  0  0  0  0  0  0  0  0  0
   -8.4497   18.1943  -33.5898 H   0  0  0  0  0  0  0  0  0  0  0  0
   -7.1669   17.8271  -32.3431 H   0  0  0  0  0  0  0  0  0  0  0  0
   -8.9426   22.7528  -31.7870 H   0  0  0  0  0  0  0  0  0  0  0  0
   -8.8650   21.9442  -30.1833 H   0  0  0  0  0  0  0  0  0  0  0  0
   -7.8915   24.6704  -31.2637 H   0  0  0  0  0  0  0  0  0  0  0  0
   -7.6925   24.2488  -29.5052 H   0  0  0  0  0  0  0  0  0  0  0  0
   -5.8358   25.6277  -31.3490 H   0  0  0  0  0  0  0  0  0  0  0  0
   -5.9115   25.5992  -29.5345 H   0  0  0  0  0  0  0  0  0  0  0  0
   -4.2754   23.6559  -32.4863 H   0  0  0  0  0  0  0  0  0  0  0  0
   -4.1202   22.2280  -31.3636 H   0  0  0  0  0  0  0  0  0  0  0  0
   -6.5008   23.2578  -32.8386 H   0  0  0  0  0  0  0  0  0  0  0  0
   -6.0789   21.5878  -32.2970 H   0  0  0  0  0  0  0  0  0  0  0  0
   -4.1884   24.4718  -27.6428 H   0  0  0  0  0  0  0  0  0  0  0  0
   -3.2342   22.9927  -27.8430 H   0  0  0  0  0  0  0  0  0  0  0  0
   -2.4764   25.4702  -28.7890 H   0  0  0  0  0  0  0  0  0  0  0  0
   -1.9119   23.9460  -29.5032 H   0  0  0  0  0  0  0  0  0  0  0  0
  1  2  1  0
  2  3  1  0
  3  4  1  0
  4  5  1  0
  3  6  1  0
  6  7  1  0
  7  8  3  0
  8  9  1  0
  9 10  1  0
 10 11  1  0
 11 12  1  0
 12 13  1  0
 13 14  1  0
 14 15  1  0
 13 16  1  0
 16 17  1  0
 17 18  1  0
 18 19  1  0
 15 10  1  0
 19 13  1  0
  1 20  1  0
  1 21  1  0
  1 22  1  0
  2 23  1  0
  2 24  1  0
  3 25  1  0
  4 26  1  0
  4 27  1  0
  5 28  1  0
  5 29  1  0
  5 30  1  0
  6 31  1  0
  6 32  1  0
  9 33  1  0
  9 34  1  0
 11 35  1  0
 11 36  1  0
 12 37  1  0
 12 38  1  0
 14 39  1  0
 14 40  1  0
 15 41  1  0
 15 42  1  0
 17 43  1  0
 17 44  1  0
 18 45  1  0
 18 46  1  0
M  CHG  1   3   1
M  END
>  <UniqueID>  (21) 
21

>  <SMILES>  (21) 
CC[NH+](CC)CC#CCN1CCC2(CC1)OCCO2

>  <Energy>  (21) 
46.08759552815076

>  <Genealogy>  (21) 
CC[NH+](CC)CC#CCN1CCC2(CC1)OCCO2 (protonated)
CC[NH+](CC)CC#CCN1CCC2(CC1)OCCO2 (3D coordinates assigned)
CC[NH+](CC)CC#CCN1CCC2(CC1)OCCO2 (nonaromatic ring conformer: 46.08759552815076 kcal/mol)

>  <smiles>  (21) 
CCN(CC)CC#CCN1CCC2(CC1)OCCO2

>  <score_type>  (21) 
oracle

>  <origin>  (21) 
adg

>  <m_score__min__energy>  (21) 
-6.3399999999999999

>  <m_primary>  (21) 
energy

$$$$
21:0
     RDKit          3D

 45 48  0  0  0  0  0  0  0  0999 V2000
   -1.7620   25.6530  -26.6840 C   0  0  0  0  0  0  0  0  0  0  0  0
   -3.1650   25.2870  -26.2130 C   0  0  0  0  0  0  0  0  0  0  0  0
   -3.8910   24.5900  -27.2830 N   0  0  0  0  0  0  0  0  0  0  0  0
   -2.9740   23.9800  -28.2580 C   0  0  0  0  0  0  0  0  0  0  0  0
   -3.4730   24.1680  -29.6950 C   0  0  0  0  0  0  0  0  0  0  0  0
   -4.8640   24.6430  -29.6830 N   0  0  0  0  0  0  0  0  0  0  0  0
   -5.4490   24.6580  -31.0310 C   0  0  0  0  0  0  0  0  0  0  0  0
   -6.2720   23.4070  -31.2600 C   0  0  0  0  0  0  0  0  0  0  0  0
   -7.6130   23.4020  -30.8370 C   0  0  0  0  0  0  0  0  0  0  0  0
   -8.4430   22.3100  -31.0840 C   0  0  0  0  0  0  0  0  0  0  0  0
   -7.9540   21.1900  -31.7620 C   0  0  0  0  0  0  0  0  0  0  0  0
   -8.7910   20.0950  -32.0270 C   0  0  0  0  0  0  0  0  0  0  0  0
   -8.3010   18.9780  -32.7110 C   0  0  0  0  0  0  0  0  0  0  0  0
   -6.9670   18.9380  -33.1410 C   0  0  0  0  0  0  0  0  0  0  0  0
   -6.4840   17.8520  -33.8130 N   0  0  0  0  0  0  0  0  0  0  0  0
   -5.1920   17.7980  -34.2380 C   0  0  0  0  0  0  0  0  0  0  0  0
   -4.3190   18.8620  -33.9990 C   0  0  0  0  0  0  0  0  0  0  0  0
   -4.7820   19.9920  -33.3120 C   0  0  0  0  0  0  0  0  0  0  0  0
   -3.9370   21.0790  -33.0580 C   0  0  0  0  0  0  0  0  0  0  0  0
   -4.4150   22.2030  -32.3800 C   0  0  0  0  0  0  0  0  0  0  0  0
   -5.7540   22.2700  -31.9360 C   0  0  0  0  0  0  0  0  0  0  0  0
   -6.6070   21.1660  -32.1880 C   0  0  0  0  0  0  0  0  0  0  0  0
   -6.1190   20.0340  -32.8760 C   0  0  0  0  0  0  0  0  0  0  0  0
   -1.1145   25.8219  -25.8109 H   0  0  0  0  0  0  0  0  0  0  0  0
   -1.3529   24.8315  -27.2905 H   0  0  0  0  0  0  0  0  0  0  0  0
   -1.8063   26.5696  -27.2905 H   0  0  0  0  0  0  0  0  0  0  0  0
   -3.0937   24.6298  -25.3338 H   0  0  0  0  0  0  0  0  0  0  0  0
   -3.7077   26.2068  -25.9497 H   0  0  0  0  0  0  0  0  0  0  0  0
   -4.4590   25.3040  -27.7980 H   0  0  0  0  0  0  0  0  0  0  0  0
   -1.9841   24.4494  -28.1594 H   0  0  0  0  0  0  0  0  0  0  0  0
   -2.9191   22.9011  -28.0509 H   0  0  0  0  0  0  0  0  0  0  0  0
   -2.8395   24.9070  -30.2074 H   0  0  0  0  0  0  0  0  0  0  0  0
   -3.4235   23.2052  -30.2246 H   0  0  0  0  0  0  0  0  0  0  0  0
   -4.8710   25.6230  -29.3130 H   0  0  0  0  0  0  0  0  0  0  0  0
   -6.0951   25.5420  -31.1365 H   0  0  0  0  0  0  0  0  0  0  0  0
   -4.6378   24.6939  -31.7731 H   0  0  0  0  0  0  0  0  0  0  0  0
   -8.0140   24.2753  -30.3017 H   0  0  0  0  0  0  0  0  0  0  0  0
   -9.4888   22.3298  -30.7434 H   0  0  0  0  0  0  0  0  0  0  0  0
   -9.8393   20.1155  -31.6945 H   0  0  0  0  0  0  0  0  0  0  0  0
   -8.9662   18.1255  -32.9129 H   0  0  0  0  0  0  0  0  0  0  0  0
   -7.1080   17.0370  -34.0110 H   0  0  0  0  0  0  0  0  0  0  0  0
   -4.8319   16.9080  -34.7748 H   0  0  0  0  0  0  0  0  0  0  0  0
   -3.2767   18.8131  -34.3472 H   0  0  0  0  0  0  0  0  0  0  0  0
   -2.8902   21.0478  -33.3944 H   0  0  0  0  0  0  0  0  0  0  0  0
   -3.7381   23.0488  -32.1890 H   0  0  0  0  0  0  0  0  0  0  0  0
  1  2  1  0
  2  3  1  0
  3  4  1  0
  4  5  1  0
  5  6  1  0
  6  7  1  0
  7  8  1  0
  8  9  2  0
  9 10  1  0
 10 11  2  0
 11 12  1  0
 12 13  2  0
 13 14  1  0
 14 15  2  0
 15 16  1  0
 16 17  2  0
 17 18  1  0
 18 19  2  0
 19 20  1  0
 20 21  2  0
 21 22  1  0
 22 23  2  0
 21  8  1  0
 22 11  1  0
 23 14  1  0
 23 18  1  0
  1 24  1  0
  1 25  1  0
  1 26  1  0
  2 27  1  0
  2 28  1  0
  3 29  1  0
  4 30  1  0
  4 31  1  0
  5 32  1  0
  5 33  1  0
  6 34  1  0
  7 35  1  0
  7 36  1  0
  9 37  1  0
 10 38  1  0
 12 39  1  0
 13 40  1  0
 15 41  1  0
 16 42  1  0
 17 43  1  0
 19 44  1  0
 20 45  1  0
M  CHG  1  15   1
M  END
>  <UniqueID>  (22) 
22

>  <SMILES>  (22) 
CCNCCNCc1ccc2ccc3[nH+]ccc4ccc1c2c43

>  <Energy>  (22) 
52.58622047905311

>  <Genealogy>  (22) 
CCNCCNCc1ccc2ccc3[nH+]ccc4ccc1c2c43 (protonated)
CCNCCNCc1ccc2ccc3[nH+]ccc4ccc1c2c43 (3D coordinates assigned)
CCNCCNCc1ccc2ccc3[nH+]ccc4ccc1c2c43 (optimized conformer: 52.58622047905311 kcal/mol)

>  <smiles>  (22) 
CCNCCNCc1ccc2ccc3nccc4ccc1c2c43

>  <score_type>  (22) 
oracle

>  <origin>  (22) 
adg

>  <m_score__min__energy>  (22) 
-8.4700000000000006

>  <m_primary>  (22) 
energy

$$$$
22:0
     RDKit          3D

 34 36  0  0  0  0  0  0  0  0999 V2000
   -2.8760   23.8340  -28.0940 C   0  0  0  0  0  0  0  0  0  0  0  0
   -2.6270   24.8940  -29.1220 C   0  0  0  0  0  0  0  0  0  0  0  0
   -1.6470   25.6700  -28.9730 O   0  0  0  0  0  0  0  0  0  0  0  0
   -3.4930   25.0800  -30.2510 N   0  0  0  0  0  0  0  0  0  0  0  0
   -4.7890   24.4980  -30.4400 C   0  0  0  0  0  0  0  0  0  0  0  0
   -5.9270   25.2020  -29.9740 C   0  0  0  0  0  0  0  0  0  0  0  0
   -7.2220   24.6840  -30.1630 C   0  0  0  0  0  0  0  0  0  0  0  0
   -7.3370   23.4730  -30.8360 C   0  0  0  0  0  0  0  0  0  0  0  0
   -8.4140   22.8000  -31.1350 O   0  0  0  0  0  0  0  0  0  0  0  0
   -7.9930   21.7250  -31.7820 C   0  0  0  0  0  0  0  0  0  0  0  0
   -8.9140   20.6710  -32.3080 C   0  0  0  0  0  0  0  0  0  0  0  0
   -8.4160   19.3700  -31.9970 O   0  0  0  0  0  0  0  0  0  0  0  0
   -7.3730   18.7180  -32.6740 C   0  0  0  0  0  0  0  0  0  0  0  0
   -6.7750   19.3730  -33.7580 C   0  0  0  0  0  0  0  0  0  0  0  0
   -5.7300   18.7700  -34.4640 C   0  0  0  0  0  0  0  0  0  0  0  0
   -5.2740   17.5020  -34.0940 C   0  0  0  0  0  0  0  0  0  0  0  0
   -3.9630   16.7460  -34.9790 Cl  0  0  0  0  0  0  0  0  0  0  0  0
   -5.8670   16.8360  -33.0150 C   0  0  0  0  0  0  0  0  0  0  0  0
   -6.9120   17.4370  -32.3080 C   0  0  0  0  0  0  0  0  0  0  0  0
   -6.6420   21.6720  -31.9270 N   0  0  0  0  0  0  0  0  0  0  0  0
   -6.2530   22.7980  -31.3080 C   0  0  0  0  0  0  0  0  0  0  0  0
   -4.9580   23.2790  -31.1420 C   0  0  0  0  0  0  0  0  0  0  0  0
   -2.7742   24.2675  -27.0882 H   0  0  0  0  0  0  0  0  0  0  0  0
   -3.8927   23.4333  -28.2193 H   0  0  0  0  0  0  0  0  0  0  0  0
   -2.1440   23.0225  -28.2193 H   0  0  0  0  0  0  0  0  0  0  0  0
   -5.7968   26.1649  -29.4584 H   0  0  0  0  0  0  0  0  0  0  0  0
   -8.1097   25.2173  -29.7921 H   0  0  0  0  0  0  0  0  0  0  0  0
   -9.9067   20.7972  -31.8512 H   0  0  0  0  0  0  0  0  0  0  0  0
   -8.9833   20.7730  -33.4011 H   0  0  0  0  0  0  0  0  0  0  0  0
   -7.1306   20.3703  -34.0563 H   0  0  0  0  0  0  0  0  0  0  0  0
   -5.2659   19.2945  -35.3122 H   0  0  0  0  0  0  0  0  0  0  0  0
   -5.5097   15.8375  -32.7230 H   0  0  0  0  0  0  0  0  0  0  0  0
   -7.3767   16.9084  -31.4626 H   0  0  0  0  0  0  0  0  0  0  0  0
   -4.0930   22.7304  -31.5430 H   0  0  0  0  0  0  0  0  0  0  0  0
  1  2  1  0
  2  3  2  0
  2  4  1  0
  4  5  1  0
  5  6  2  0
  6  7  1  0
  7  8  2  0
  8  9  1  0
  9 10  1  0
 10 11  1  0
 11 12  1  0
 12 13  1  0
 13 14  2  0
 14 15  1  0
 15 16  2  0
 16 17  1  0
 16 18  1  0
 18 19  2  0
 10 20  2  0
 20 21  1  0
 21 22  2  0
 22  5  1  0
 21  8  1  0
 19 13  1  0
  1 23  1  0
  1 24  1  0
  1 25  1  0
  6 26  1  0
  7 27  1  0
 11 28  1  0
 11 29  1  0
 14 30  1  0
 15 31  1  0
 18 32  1  0
 19 33  1  0
 22 34  1  0
M  CHG  1   4  -1
M  END
>  <UniqueID>  (23) 
23

>  <SMILES>  (23) 
CC(=O)[N-]c1ccc2oc(COc3ccc(Cl)cc3)nc2c1

>  <Energy>  (23) 
75.83903277079679

>  <Genealogy>  (23) 
CC(=O)[N-]c1ccc2oc(COc3ccc(Cl)cc3)nc2c1 (protonated)
CC(=O)[N-]c1ccc2oc(COc3ccc(Cl)cc3)nc2c1 (3D coordinates assigned)
CC(=O)[N-]c1ccc2oc(COc3ccc(Cl)cc3)nc2c1 (optimized conformer: 75.83903277079679 kcal/mol)

>  <smiles>  (23) 
CC(=O)Nc1ccc2oc(COc3ccc(Cl)cc3)nc2c1

>  <score_type>  (23) 
oracle

>  <origin>  (23) 
adg

>  <m_score__min__energy>  (23) 
-9.7599999999999998

>  <m_primary>  (23) 
energy

$$$$
23:0
     RDKit          3D

 77 79  0  0  0  0  0  0  0  0999 V2000
    2.3580   24.1910  -27.4250 C   0  0  0  0  0  0  0  0  0  0  0  0
    2.5060   25.5780  -26.8060 C   0  0  0  0  0  0  0  0  0  0  0  0
    1.1720   26.1530  -26.5060 N   0  0  0  0  0  0  0  0  0  0  0  0
    0.1460   25.6480  -27.4510 C   0  0  0  0  0  0  0  0  0  0  0  0
   -0.8630   26.7480  -27.7710 C   0  0  0  0  0  0  0  0  0  0  0  0
    1.2170   27.6330  -26.5100 C   0  0  0  0  0  0  0  0  0  0  0  0
    1.8130   28.1540  -25.1950 C   0  0  0  0  0  0  0  0  0  0  0  0
    1.5780   27.2380  -24.1420 O   0  0  0  0  0  0  0  0  0  0  0  0
    0.3220   27.4670  -23.5280 C   0  0  0  0  0  0  0  0  0  0  0  0
   -0.5230   26.1840  -23.4510 C   0  0  0  0  0  0  0  0  0  0  0  0
    0.1300   25.0230  -24.0920 N   0  0  0  0  0  0  0  0  0  0  0  0
   -0.8550   24.0740  -24.6460 C   0  0  0  0  0  0  0  0  0  0  0  0
   -0.1870   23.0100  -25.5360 C   0  0  0  0  0  0  0  0  0  0  0  0
   -1.2090   22.0770  -26.2030 C   0  0  0  0  0  0  0  0  0  0  0  0
   -1.8860   22.7570  -27.3750 C   0  0  0  0  0  0  0  0  0  0  0  0
   -2.6710   23.8910  -27.1130 C   0  0  0  0  0  0  0  0  0  0  0  0
   -3.3550   24.5420  -28.1350 C   0  0  0  0  0  0  0  0  0  0  0  0
   -3.2740   24.0820  -29.4580 C   0  0  0  0  0  0  0  0  0  0  0  0
   -3.9990   24.6930  -30.4980 O   0  0  0  0  0  0  0  0  0  0  0  0
   -5.3240   25.2200  -30.3990 C   0  0  0  0  0  0  0  0  0  0  0  0
   -6.3890   24.1390  -30.6500 C   0  0  0  0  0  0  0  0  0  0  0  0
   -6.0340   23.1890  -31.8050 C   0  0  0  0  0  0  0  0  0  0  0  0
   -7.0780   22.1210  -32.0000 C   0  0  0  0  0  0  0  0  0  0  0  0
   -6.7230   20.8800  -32.5540 C   0  0  0  0  0  0  0  0  0  0  0  0
   -7.6870   19.8830  -32.7270 C   0  0  0  0  0  0  0  0  0  0  0  0
   -9.0110   20.1160  -32.3420 C   0  0  0  0  0  0  0  0  0  0  0  0
   -9.3700   21.3440  -31.7800 C   0  0  0  0  0  0  0  0  0  0  0  0
   -8.4090   22.3440  -31.6060 C   0  0  0  0  0  0  0  0  0  0  0  0
   -2.4470   22.9800  -29.7560 C   0  0  0  0  0  0  0  0  0  0  0  0
   -2.3160   22.5290  -31.0850 C   0  0  0  0  0  0  0  0  0  0  0  0
   -1.4960   21.4430  -31.3890 C   0  0  0  0  0  0  0  0  0  0  0  0
   -0.8030   20.7850  -30.3770 C   0  0  0  0  0  0  0  0  0  0  0  0
   -0.9240   21.2050  -29.0520 C   0  0  0  0  0  0  0  0  0  0  0  0
   -1.7430   22.3080  -28.7150 C   0  0  0  0  0  0  0  0  0  0  0  0
    2.2778   23.4395  -26.6258 H   0  0  0  0  0  0  0  0  0  0  0  0
    1.4517   24.1622  -28.0477 H   0  0  0  0  0  0  0  0  0  0  0  0
    3.2378   23.9716  -28.0477 H   0  0  0  0  0  0  0  0  0  0  0  0
    3.0852   25.4995  -25.8741 H   0  0  0  0  0  0  0  0  0  0  0  0
    3.0263   26.2343  -27.5191 H   0  0  0  0  0  0  0  0  0  0  0  0
    0.6366   25.3233  -28.3805 H   0  0  0  0  0  0  0  0  0  0  0  0
   -0.3815   24.8005  -26.9889 H   0  0  0  0  0  0  0  0  0  0  0  0
   -1.2523   27.1724  -26.8338 H   0  0  0  0  0  0  0  0  0  0  0  0
   -0.3700   27.5392  -28.3549 H   0  0  0  0  0  0  0  0  0  0  0  0
   -1.6937   26.3250  -28.3549 H   0  0  0  0  0  0  0  0  0  0  0  0
    1.8394   27.9744  -27.3503 H   0  0  0  0  0  0  0  0  0  0  0  0
    0.1931   28.0207  -26.6159 H   0  0  0  0  0  0  0  0  0  0  0  0
    2.8973   28.2910  -25.3192 H   0  0  0  0  0  0  0  0  0  0  0  0
    1.3337   29.1118  -24.9443 H   0  0  0  0  0  0  0  0  0  0  0  0
    0.4885   27.8445  -22.5083 H   0  0  0  0  0  0  0  0  0  0  0  0
   -0.2265   28.1996  -24.1383 H   0  0  0  0  0  0  0  0  0  0  0  0
   -0.7019   25.9451  -22.3923 H   0  0  0  0  0  0  0  0  0  0  0  0
   -1.4609   26.3747  -23.9931 H   0  0  0  0  0  0  0  0  0  0  0  0
    0.7820   25.3370  -24.8490 H   0  0  0  0  0  0  0  0  0  0  0  0
    0.6990   24.5370  -23.3620 H   0  0  0  0  0  0  0  0  0  0  0  0
   -1.3704   23.5703  -23.8149 H   0  0  0  0  0  0  0  0  0  0  0  0
   -1.5647   24.6414  -25.2660 H   0  0  0  0  0  0  0  0  0  0  0  0
    0.3913   23.5190  -26.3211 H   0  0  0  0  0  0  0  0  0  0  0  0
    0.4594   22.3940  -24.8936 H   0  0  0  0  0  0  0  0  0  0  0  0
   -0.6914   21.1749  -26.5613 H   0  0  0  0  0  0  0  0  0  0  0  0
   -1.9772   21.8136  -25.4611 H   0  0  0  0  0  0  0  0  0  0  0  0
   -2.7466   24.2709  -26.0835 H   0  0  0  0  0  0  0  0  0  0  0  0
   -3.9659   25.4269  -27.9032 H   0  0  0  0  0  0  0  0  0  0  0  0
   -5.4680   25.6342  -29.3902 H   0  0  0  0  0  0  0  0  0  0  0  0
   -5.4402   25.9992  -31.1667 H   0  0  0  0  0  0  0  0  0  0  0  0
   -6.5049   23.5439  -29.7321 H   0  0  0  0  0  0  0  0  0  0  0  0
   -7.3181   24.6572  -30.9296 H   0  0  0  0  0  0  0  0  0  0  0  0
   -5.9477   23.7744  -32.7323 H   0  0  0  0  0  0  0  0  0  0  0  0
   -5.0839   22.6933  -31.5567 H   0  0  0  0  0  0  0  0  0  0  0  0
   -5.6813   20.6920  -32.8531 H   0  0  0  0  0  0  0  0  0  0  0  0
   -7.4042   18.9149  -33.1661 H   0  0  0  0  0  0  0  0  0  0  0  0
   -9.7702   19.3323  -32.4816 H   0  0  0  0  0  0  0  0  0  0  0  0
  -10.4111   21.5241  -31.4739 H   0  0  0  0  0  0  0  0  0  0  0  0
   -8.6949   23.3079  -31.1597 H   0  0  0  0  0  0  0  0  0  0  0  0
   -2.8659   23.0386  -31.8899 H   0  0  0  0  0  0  0  0  0  0  0  0
   -1.3965   21.1054  -32.4312 H   0  0  0  0  0  0  0  0  0  0  0  0
   -0.1567   19.9296  -30.6231 H   0  0  0  0  0  0  0  0  0  0  0  0
   -0.3764   20.6724  -28.2605 H   0  0  0  0  0  0  0  0  0  0  0  0
  1  2  1  0
  2  3  1  0
  3  4  1  0
  4  5  1  0
  3  6  1  0
  6  7  1  0
  7  8  1  0
  8  9  1  0
  9 10  1  0
 10 11  1  0
 11 12  1  0
 12 13  1  0
 13 14  1  0
 14 15  1  0
 15 16  2  0
 16 17  1  0
 17 18  2  0
 18 19  1  0
 19 20  1  0
 20 21  1  0
 21 22  1  0
 22 23  1  0
 23 24  2  0
 24 25  1  0
 25 26  2  0
 26 27  1  0
 27 28  2  0
 18 29  1  0
 29 30  2  0
 30 31  1  0
 31 32  2  0
 32 33  1  0
 33 34  2  0
 34 15  1  0
 28 23  1  0
 34 29  1  0
  1 35  1  0
  1 36  1  0
  1 37  1  0
  2 38  1  0
  2 39  1  0
  4 40  1  0
  4 41  1  0
  5 42  1  0
  5 43  1  0
  5 44  1  0
  6 45  1  0
  6 46  1  0
  7 47  1  0
  7 48  1  0
  9 49  1  0
  9 50  1  0
 10 51  1  0
 10 52  1  0
 11 53  1  0
 11 54  1  0
 12 55  1  0
 12 56  1  0
 13 57  1  0
 13 58  1  0
 14 59  1  0
 14 60  1  0
 16 61  1  0
 17 62  1  0
 20 63  1  0
 20 64  1  0
 21 65  1  0
 21 66  1  0
 22 67  1  0
 22 68  1  0
 24 69  1  0
 25 70  1  0
 26 71  1  0
 27 72  1  0
 28 73  1  0
 30 74  1  0
 31 75  1  0
 32 76  1  0
 33 77  1  0
M  CHG  1  11   1
M  END
>  <UniqueID>  (24) 
24

>  <SMILES>  (24) 
CCN(CC)CCOCC[NH2+]CCCc1ccc(OCCCc2ccccc2)c2ccccc12

>  <Energy>  (24) 
77.78334776694021

>  <Genealogy>  (24) 
CCN(CC)CCOCC[NH2+]CCCc1ccc(OCCCc2ccccc2)c2ccccc12 (protonated)
CCN(CC)CCOCC[NH2+]CCCc1ccc(OCCCc2ccccc2)c2ccccc12 (3D coordinates assigned)
CCN(CC)CCOCC[NH2+]CCCc1ccc(OCCCc2ccccc2)c2ccccc12 (optimized conformer: 77.78334776694021 kcal/mol)

>  <smiles>  (24) 
CCN(CC)CCOCCNCCCc1ccc(OCCCc2ccccc2)c2ccccc12

>  <score_type>  (24) 
oracle

>  <origin>  (24) 
adg

>  <m_score__min__energy>  (24) 
-8.3699999999999992

>  <m_primary>  (24) 
energy

$$$$
