0:0
     RDKit          3D

 43 44  0  0  0  0  0  0  0  0999 V2000
   -6.2840   14.2140  -34.2210 C   0  0  0  0  0  0  0  0  0  0  0  0
   -5.7650   15.5880  -33.7850 C   0  0  0  0  0  0  0  0  0  0  0  0
   -4.9880   15.4860  -32.4630 C   0  0  0  0  0  0  0  0  0  0  0  0
   -6.8640   16.6860  -33.7470 C   0  0  0  0  0  0  0  0  0  0  0  0
   -6.4620   17.9530  -33.0680 N   0  0  0  0  0  0  0  0  0  0  0  0
   -6.1140   18.9730  -34.0860 C   0  0  0  0  0  0  0  0  0  0  0  0
   -5.7150   20.3000  -33.4280 C   0  0  0  0  0  0  0  0  0  0  0  0
   -6.7340   20.7400  -32.4700 N   0  0  0  0  0  0  0  0  0  0  0  0
   -6.6180   22.0350  -31.8500 C   0  0  0  0  0  0  0  0  0  0  0  0
   -7.5450   22.5070  -31.0870 N   0  0  0  0  0  0  0  0  0  0  0  0
   -7.2450   23.7900  -30.4790 C   0  0  0  0  0  0  0  0  0  0  0  0
   -5.7130   23.9560  -30.5050 C   0  0  0  0  0  0  0  0  0  0  0  0
   -5.3150   25.4330  -30.6360 C   0  0  0  0  0  0  0  0  0  0  0  0
   -5.0760   23.3460  -29.2460 C   0  0  0  0  0  0  0  0  0  0  0  0
   -5.1340   23.0310  -31.9720 S   0  0  0  0  0  0  0  0  0  0  0  0
   -7.9180   19.8980  -32.2640 C   0  0  0  0  0  0  0  0  0  0  0  0
   -7.5020   18.4260  -32.0960 C   0  0  0  0  0  0  0  0  0  0  0  0
   -6.5125   13.6091  -33.3311 H   0  0  0  0  0  0  0  0  0  0  0  0
   -7.1963   14.3406  -34.8225 H   0  0  0  0  0  0  0  0  0  0  0  0
   -5.5159   13.7058  -34.8225 H   0  0  0  0  0  0  0  0  0  0  0  0
   -5.0635   15.9211  -34.5640 H   0  0  0  0  0  0  0  0  0  0  0  0
   -5.6872   15.5778  -31.6188 H   0  0  0  0  0  0  0  0  0  0  0  0
   -4.4772   14.5131  -32.4120 H   0  0  0  0  0  0  0  0  0  0  0  0
   -4.2434   16.2941  -32.4120 H   0  0  0  0  0  0  0  0  0  0  0  0
   -7.1424   16.9271  -34.7835 H   0  0  0  0  0  0  0  0  0  0  0  0
   -7.6955   16.2706  -33.1587 H   0  0  0  0  0  0  0  0  0  0  0  0
   -5.5840   17.7810  -32.5280 H   0  0  0  0  0  0  0  0  0  0  0  0
   -5.2717   18.6044  -34.6899 H   0  0  0  0  0  0  0  0  0  0  0  0
   -6.9967   19.1493  -34.7183 H   0  0  0  0  0  0  0  0  0  0  0  0
   -4.7592   20.1665  -32.9002 H   0  0  0  0  0  0  0  0  0  0  0  0
   -5.6190   21.0648  -34.2128 H   0  0  0  0  0  0  0  0  0  0  0  0
   -7.7221   24.5995  -31.0510 H   0  0  0  0  0  0  0  0  0  0  0  0
   -7.6263   23.8337  -29.4481 H   0  0  0  0  0  0  0  0  0  0  0  0
   -5.1969   25.8712  -29.6340 H   0  0  0  0  0  0  0  0  0  0  0  0
   -4.3642   25.5093  -31.1839 H   0  0  0  0  0  0  0  0  0  0  0  0
   -6.0987   25.9767  -31.1839 H   0  0  0  0  0  0  0  0  0  0  0  0
   -5.5375   23.7880  -28.3507 H   0  0  0  0  0  0  0  0  0  0  0  0
   -5.2385   22.2581  -29.2432 H   0  0  0  0  0  0  0  0  0  0  0  0
   -3.9961   23.5554  -29.2432 H   0  0  0  0  0  0  0  0  0  0  0  0
   -8.4476   20.2312  -31.3593 H   0  0  0  0  0  0  0  0  0  0  0  0
   -8.5775   19.9864  -33.1399 H   0  0  0  0  0  0  0  0  0  0  0  0
   -7.1041   18.2965  -31.0787 H   0  0  0  0  0  0  0  0  0  0  0  0
   -8.4029   17.8250  -32.2885 H   0  0  0  0  0  0  0  0  0  0  0  0
  1  2  1  0
  2  3  1  0
  2  4  1  0
  4  5  1  0
  5  6  1  0
  6  7  1  0
  7  8  1  0
  8  9  1  0
  9 10  2  0
 10 11  1  0
 11 12  1  0
 12 13  1  0
 12 14  1  0
 12 15  1  0
  8 16  1  0
 16 17  1  0
 17  5  1  0
 15  9  1  0
  1 18  1  0
  1 19  1  0
  1 20  1  0
  2 21  1  0
  3 22  1  0
  3 23  1  0
  3 24  1  0
  4 25  1  0
  4 26  1  0
  5 27  1  0
  6 28  1  0
  6 29  1  0
  7 30  1  0
  7 31  1  0
 11 32  1  0
 11 33  1  0
 13 34  1  0
 13 35  1  0
 13 36  1  0
 14 37  1  0
 14 38  1  0
 14 39  1  0
 16 40  1  0
 16 41  1  0
 17 42  1  0
 17 43  1  0
M  CHG  1   5   1
M  END
>  <UniqueID>  (1) 
1

>  <SMILES>  (1) 
CC(C)C[NH+]1CCN(C2=NCC(C)(C)S2)CC1

>  <Energy>  (1) 
51.00830925298788

>  <Genealogy>  (1) 
CC(C)C[NH+]1CCN(C2=NCC(C)(C)S2)CC1 (protonated)
CC(C)C[NH+]1CCN(C2=NCC(C)(C)S2)CC1 (3D coordinates assigned)
CC(C)C[NH+]1CCN(C2=NCC(C)(C)S2)CC1 (nonaromatic ring conformer: 51.00830925298788 kcal/mol)

>  <smiles>  (1) 
CC(C)CN1CCN(C2=NCC(C)(C)S2)CC1

>  <score_type>  (1) 
oracle

>  <origin>  (1) 
adg

>  <m_score__min__energy>  (1) 
-5.9500000000000002

>  <m_primary>  (1) 
energy

$$$$
1:0
     RDKit          3D

 53 55  0  0  0  0  0  0  0  0999 V2000
   -6.2150   25.3620  -29.6090 C   0  0  0  0  0  0  0  0  0  0  0  0
   -5.3630   25.6530  -30.8340 C   0  0  0  0  0  0  0  0  0  0  0  0
   -4.0190   25.3140  -30.5600 O   0  0  0  0  0  0  0  0  0  0  0  0
   -3.9480   24.3930  -29.4870 C   0  0  0  0  0  0  0  0  0  0  0  0
   -2.6510   23.5930  -29.5690 C   0  0  0  0  0  0  0  0  0  0  0  0
   -2.5970   22.9200  -30.8110 O   0  0  0  0  0  0  0  0  0  0  0  0
   -1.6760   21.8460  -30.7530 C   0  0  0  0  0  0  0  0  0  0  0  0
   -2.2000   20.6540  -31.5610 C   0  0  0  0  0  0  0  0  0  0  0  0
   -3.6600   20.6090  -31.5280 N   0  0  0  0  0  0  0  0  0  0  0  0
   -4.4510   20.4140  -32.7100 C   0  0  0  0  0  0  0  0  0  0  0  0
   -3.9100   20.4500  -33.8490 O   0  0  0  0  0  0  0  0  0  0  0  0
   -5.9030   20.1560  -32.6030 C   0  0  0  0  0  0  0  0  0  0  0  0
   -6.4840   18.8750  -32.6790 C   0  0  0  0  0  0  0  0  0  0  0  0
   -5.8060   17.5950  -32.9830 C   0  0  0  0  0  0  0  0  0  0  0  0
   -5.6460   16.6100  -31.9940 C   0  0  0  0  0  0  0  0  0  0  0  0
   -5.0010   15.4070  -32.2930 C   0  0  0  0  0  0  0  0  0  0  0  0
   -4.4920   15.1710  -33.5750 C   0  0  0  0  0  0  0  0  0  0  0  0
   -3.8460   13.9510  -33.8220 O   0  0  0  0  0  0  0  0  0  0  0  0
   -3.3790   13.0680  -32.8070 C   0  0  0  0  0  0  0  0  0  0  0  0
   -4.6350   16.1640  -34.5630 C   0  0  0  0  0  0  0  0  0  0  0  0
   -5.2830   17.3660  -34.2660 C   0  0  0  0  0  0  0  0  0  0  0  0
   -8.1540   19.0120  -32.4390 S   0  0  0  0  0  0  0  0  0  0  0  0
   -8.1550   20.6760  -32.2490 C   0  0  0  0  0  0  0  0  0  0  0  0
   -9.2450   21.5040  -31.9960 C   0  0  0  0  0  0  0  0  0  0  0  0
   -9.0120   22.8780  -31.8400 C   0  0  0  0  0  0  0  0  0  0  0  0
   -7.7050   23.3910  -31.9330 C   0  0  0  0  0  0  0  0  0  0  0  0
   -6.6210   22.5360  -32.1890 C   0  0  0  0  0  0  0  0  0  0  0  0
   -6.8590   21.1640  -32.3610 C   0  0  0  0  0  0  0  0  0  0  0  0
   -5.6297   25.5619  -28.6994 H   0  0  0  0  0  0  0  0  0  0  0  0
   -7.1062   26.0067  -29.6206 H   0  0  0  0  0  0  0  0  0  0  0  0
   -6.5256   24.3068  -29.6206 H   0  0  0  0  0  0  0  0  0  0  0  0
   -5.7262   25.0569  -31.6841 H   0  0  0  0  0  0  0  0  0  0  0  0
   -5.4296   26.7223  -31.0833 H   0  0  0  0  0  0  0  0  0  0  0  0
   -3.9778   24.9414  -28.5339 H   0  0  0  0  0  0  0  0  0  0  0  0
   -4.8020   23.7024  -29.5476 H   0  0  0  0  0  0  0  0  0  0  0  0
   -1.7922   24.2749  -29.4825 H   0  0  0  0  0  0  0  0  0  0  0  0
   -2.6170   22.8597  -28.7498 H   0  0  0  0  0  0  0  0  0  0  0  0
   -0.7116   22.1716  -31.1700 H   0  0  0  0  0  0  0  0  0  0  0  0
   -1.5480   21.5397  -29.7043 H   0  0  0  0  0  0  0  0  0  0  0  0
   -1.8653   20.7500  -32.6044 H   0  0  0  0  0  0  0  0  0  0  0  0
   -1.8077   19.7268  -31.1179 H   0  0  0  0  0  0  0  0  0  0  0  0
   -4.1340   20.6360  -30.5980 H   0  0  0  0  0  0  0  0  0  0  0  0
   -6.0306   16.7868  -30.9787 H   0  0  0  0  0  0  0  0  0  0  0  0
   -4.8924   14.6385  -31.5135 H   0  0  0  0  0  0  0  0  0  0  0  0
   -3.6043   13.4941  -31.8182 H   0  0  0  0  0  0  0  0  0  0  0  0
   -3.8799   12.0940  -32.9094 H   0  0  0  0  0  0  0  0  0  0  0  0
   -2.2920   12.9338  -32.9094 H   0  0  0  0  0  0  0  0  0  0  0  0
   -4.2348   15.9928  -35.5732 H   0  0  0  0  0  0  0  0  0  0  0  0
   -5.3841   18.1383  -35.0428 H   0  0  0  0  0  0  0  0  0  0  0  0
  -10.2619   21.0915  -31.9205 H   0  0  0  0  0  0  0  0  0  0  0  0
   -9.8545   23.5576  -31.6441 H   0  0  0  0  0  0  0  0  0  0  0  0
   -7.5312   24.4695  -31.8042 H   0  0  0  0  0  0  0  0  0  0  0  0
   -5.5986   22.9366  -32.2539 H   0  0  0  0  0  0  0  0  0  0  0  0
  1  2  1  0
  2  3  1  0
  3  4  1  0
  4  5  1  0
  5  6  1  0
  6  7  1  0
  7  8  1  0
  8  9  1  0
  9 10  1  0
 10 11  2  0
 10 12  1  0
 12 13  2  0
 13 14  1  0
 14 15  2  0
 15 16  1  0
 16 17  2  0
 17 18  1  0
 18 19  1  0
 17 20  1  0
 20 21  2  0
 13 22  1  0
 22 23  1  0
 23 24  2  0
 24 25  1  0
 25 26  2  0
 26 27  1  0
 27 28  2  0
 28 12  1  0
 21 14  1  0
 28 23  1  0
  1 29  1  0
  1 30  1  0
  1 31  1  0
  2 32  1  0
  2 33  1  0
  4 34  1  0
  4 35  1  0
  5 36  1  0
  5 37  1  0
  7 38  1  0
  7 39  1  0
  8 40  1  0
  8 41  1  0
  9 42  1  0
 15 43  1  0
 16 44  1  0
 19 45  1  0
 19 46  1  0
 19 47  1  0
 20 48  1  0
 21 49  1  0
 24 50  1  0
 25 51  1  0
 26 52  1  0
 27 53  1  0
M  END
>  <UniqueID>  (2) 
2

>  <SMILES>  (2) 
CCOCCOCCNC(=O)c1c(-c2ccc(OC)cc2)sc2ccccc12

>  <Energy>  (2) 
88.83359559204564

>  <Genealogy>  (2) 
CCOCCOCCNC(=O)c1c(-c2ccc(OC)cc2)sc2ccccc12 (3D coordinates assigned)
CCOCCOCCNC(=O)c1c(-c2ccc(OC)cc2)sc2ccccc12 (optimized conformer: 88.83359559204564 kcal/mol)

>  <smiles>  (2) 
CCOCCOCCNC(=O)c1c(-c2ccc(OC)cc2)sc2ccccc12

>  <score_type>  (2) 
oracle

>  <origin>  (2) 
adg

>  <m_score__min__energy>  (2) 
-9.2400000000000002

>  <m_primary>  (2) 
energy

$$$$
2:0
     RDKit          3D

 75 77  0  0  0  0  0  0  0  0999 V2000
   -3.1370   18.6440  -25.9620 C   0  0  0  0  0  0  0  0  0  0  0  0
   -3.1220   19.6050  -27.1600 C   0  0  0  0  0  0  0  0  0  0  0  0
   -1.7520   20.1020  -27.4560 N   0  0  1  0  0  0  0  0  0  0  0  0
   -1.2470   20.8700  -26.2990 C   0  0  0  0  0  0  0  0  0  0  0  0
   -0.8140   18.9880  -27.7730 C   0  0  0  0  0  0  0  0  0  0  0  0
    0.0500   19.2950  -29.0100 C   0  0  0  0  0  0  0  0  0  0  0  0
    0.1310   20.6960  -29.1850 O   0  0  0  0  0  0  0  0  0  0  0  0
   -0.1690   21.0650  -30.5210 C   0  0  0  0  0  0  0  0  0  0  0  0
   -1.4300   21.9490  -30.5950 C   0  0  0  0  0  0  0  0  0  0  0  0
   -2.0940   22.0410  -29.3430 O   0  0  0  0  0  0  0  0  0  0  0  0
   -1.8240   23.2770  -28.7080 C   0  0  0  0  0  0  0  0  0  0  0  0
   -3.1180   24.0300  -28.3700 C   0  0  0  0  0  0  0  0  0  0  0  0
   -4.2520   23.3560  -29.0220 N   0  0  0  0  0  0  0  0  0  0  0  0
   -5.4130   24.2410  -29.1860 C   0  0  0  0  0  0  0  0  0  0  0  0
   -5.1160   25.3150  -30.2360 C   0  0  0  0  0  0  0  0  0  0  0  0
   -5.0270   24.7030  -31.5210 O   0  0  0  0  0  0  0  0  0  0  0  0
   -5.4970   23.4120  -31.7540 C   0  0  0  0  0  0  0  0  0  0  0  0
   -4.5870   22.3940  -32.0790 C   0  0  0  0  0  0  0  0  0  0  0  0
   -5.0320   21.0920  -32.3090 C   0  0  0  0  0  0  0  0  0  0  0  0
   -6.4150   20.7960  -32.2890 C   0  0  0  0  0  0  0  0  0  0  0  0
   -7.3330   21.8190  -31.9390 C   0  0  0  0  0  0  0  0  0  0  0  0
   -6.8670   23.1170  -31.6650 C   0  0  0  0  0  0  0  0  0  0  0  0
   -8.8120   21.5230  -31.7700 C   0  0  0  0  0  0  0  0  0  0  0  0
   -9.2330   20.1670  -32.3620 C   0  0  0  0  0  0  0  0  0  0  0  0
   -8.1970   19.0860  -32.0470 C   0  0  0  0  0  0  0  0  0  0  0  0
   -6.9080   19.4770  -32.6350 N   0  0  0  0  0  0  0  0  0  0  0  0
   -6.4770   18.8390  -33.8920 C   0  0  0  0  0  0  0  0  0  0  0  0
   -5.9270   17.4540  -33.6640 C   0  0  0  0  0  0  0  0  0  0  0  0
   -4.7050   17.2670  -32.9930 C   0  0  0  0  0  0  0  0  0  0  0  0
   -4.2080   15.9780  -32.7780 C   0  0  0  0  0  0  0  0  0  0  0  0
   -4.9270   14.8680  -33.2320 C   0  0  0  0  0  0  0  0  0  0  0  0
   -6.1480   15.0410  -33.8930 C   0  0  0  0  0  0  0  0  0  0  0  0
   -6.6510   16.3260  -34.1030 C   0  0  0  0  0  0  0  0  0  0  0  0
   -3.1280   19.2234  -25.0270 H   0  0  0  0  0  0  0  0  0  0  0  0
   -4.0449   18.0242  -26.0005 H   0  0  0  0  0  0  0  0  0  0  0  0
   -2.2489   17.9961  -26.0005 H   0  0  0  0  0  0  0  0  0  0  0  0
   -3.5073   19.0766  -28.0445 H   0  0  0  0  0  0  0  0  0  0  0  0
   -3.7519   20.4713  -26.9096 H   0  0  0  0  0  0  0  0  0  0  0  0
   -1.8100   20.7700  -28.2680 H   0  0  0  0  0  0  0  0  0  0  0  0
   -1.5678   20.3821  -25.3668 H   0  0  0  0  0  0  0  0  0  0  0  0
   -0.1482   20.9064  -26.3345 H   0  0  0  0  0  0  0  0  0  0  0  0
   -1.6491   21.8933  -26.3345 H   0  0  0  0  0  0  0  0  0  0  0  0
   -0.1524   18.8244  -26.9096 H   0  0  0  0  0  0  0  0  0  0  0  0
   -1.4129   18.0915  -27.9912 H   0  0  0  0  0  0  0  0  0  0  0  0
    1.0597   18.8835  -28.8648 H   0  0  0  0  0  0  0  0  0  0  0  0
   -0.4045   18.8371  -29.9009 H   0  0  0  0  0  0  0  0  0  0  0  0
    0.6829   21.6225  -30.9375 H   0  0  0  0  0  0  0  0  0  0  0  0
   -0.3572   20.1475  -31.0978 H   0  0  0  0  0  0  0  0  0  0  0  0
   -1.1361   22.9594  -30.9154 H   0  0  0  0  0  0  0  0  0  0  0  0
   -2.1244   21.4879  -31.3128 H   0  0  0  0  0  0  0  0  0  0  0  0
   -1.2676   23.0872  -27.7783 H   0  0  0  0  0  0  0  0  0  0  0  0
   -1.2335   23.8978  -29.3979 H   0  0  0  0  0  0  0  0  0  0  0  0
   -3.2684   24.0331  -27.2803 H   0  0  0  0  0  0  0  0  0  0  0  0
   -3.0475   25.0674  -28.7290 H   0  0  0  0  0  0  0  0  0  0  0  0
   -3.9370   23.0430  -29.9730 H   0  0  0  0  0  0  0  0  0  0  0  0
   -6.2800   23.6465  -29.5097 H   0  0  0  0  0  0  0  0  0  0  0  0
   -5.6301   24.7296  -28.2247 H   0  0  0  0  0  0  0  0  0  0  0  0
   -5.9250   26.0604  -30.2388 H   0  0  0  0  0  0  0  0  0  0  0  0
   -4.1644   25.8122  -29.9969 H   0  0  0  0  0  0  0  0  0  0  0  0
   -3.5140   22.6247  -32.1530 H   0  0  0  0  0  0  0  0  0  0  0  0
   -4.3038   20.2916  -32.5069 H   0  0  0  0  0  0  0  0  0  0  0  0
   -7.5791   23.9053  -31.3795 H   0  0  0  0  0  0  0  0  0  0  0  0
   -9.0475   21.5230  -30.6955 H   0  0  0  0  0  0  0  0  0  0  0  0
   -9.3645   22.3022  -32.3156 H   0  0  0  0  0  0  0  0  0  0  0  0
  -10.2021   19.8724  -31.9330 H   0  0  0  0  0  0  0  0  0  0  0  0
   -9.3107   20.2704  -33.4544 H   0  0  0  0  0  0  0  0  0  0  0  0
   -8.0899   18.9835  -30.9570 H   0  0  0  0  0  0  0  0  0  0  0  0
   -8.5225   18.1234  -32.4684 H   0  0  0  0  0  0  0  0  0  0  0  0
   -7.3407   18.7708  -34.5697 H   0  0  0  0  0  0  0  0  0  0  0  0
   -5.6762   19.4546  -34.3277 H   0  0  0  0  0  0  0  0  0  0  0  0
   -4.1377   18.1391  -32.6357 H   0  0  0  0  0  0  0  0  0  0  0  0
   -3.2522   15.8372  -32.2521 H   0  0  0  0  0  0  0  0  0  0  0  0
   -4.5311   13.8548  -33.0688 H   0  0  0  0  0  0  0  0  0  0  0  0
   -6.7112   14.1649  -34.2470 H   0  0  0  0  0  0  0  0  0  0  0  0
   -7.6164   16.4595  -34.6132 H   0  0  0  0  0  0  0  0  0  0  0  0
  1  2  1  0
  2  3  1  0
  3  4  1  0
  3  5  1  0
  5  6  1  0
  6  7  1  0
  7  8  1  0
  8  9  1  0
  9 10  1  0
 10 11  1  0
 11 12  1  0
 12 13  1  0
 13 14  1  0
 14 15  1  0
 15 16  1  0
 16 17  1  0
 17 18  2  0
 18 19  1  0
 19 20  2  0
 20 21  1  0
 21 22  2  0
 21 23  1  0
 23 24  1  0
 24 25  1  0
 25 26  1  0
 26 27  1  0
 27 28  1  0
 28 29  2  0
 29 30  1  0
 30 31  2  0
 31 32  1  0
 32 33  2  0
 22 17  1  0
 33 28  1  0
 26 20  1  0
  1 34  1  0
  1 35  1  0
  1 36  1  0
  2 37  1  0
  2 38  1  0
  3 39  1  6
  4 40  1  0
  4 41  1  0
  4 42  1  0
  5 43  1  0
  5 44  1  0
  6 45  1  0
  6 46  1  0
  8 47  1  0
  8 48  1  0
  9 49  1  0
  9 50  1  0
 11 51  1  0
 11 52  1  0
 12 53  1  0
 12 54  1  0
 13 55  1  0
 14 56  1  0
 14 57  1  0
 15 58  1  0
 15 59  1  0
 18 60  1  0
 19 61  1  0
 22 62  1  0
 23 63  1  0
 23 64  1  0
 24 65  1  0
 24 66  1  0
 25 67  1  0
 25 68  1  0
 27 69  1  0
 27 70  1  0
 29 71  1  0
 30 72  1  0
 31 73  1  0
 32 74  1  0
 33 75  1  0
M  CHG  1   3   1
M  END
>  <UniqueID>  (3) 
3

>  <SMILES>  (3) 
CC[N@@H+](C)CCOCCOCCNCCOc1ccc2c(c1)CCCN2Cc1ccccc1

>  <Energy>  (3) 
86.75736469835572

>  <Genealogy>  (3) 
CC[NH+](C)CCOCCOCCNCCOc1ccc2c(c1)CCCN2Cc1ccccc1 (protonated)
CC[N@@H+](C)CCOCCOCCNCCOc1ccc2c(c1)CCCN2Cc1ccccc1 (chirality)
CC[N@@H+](C)CCOCCOCCNCCOc1ccc2c(c1)CCCN2Cc1ccccc1 (3D coordinates assigned)
CC[N@@H+](C)CCOCCOCCNCCOc1ccc2c(c1)CCCN2Cc1ccccc1 (nonaromatic ring conformer: 86.75736469835572 kcal/mol)

>  <smiles>  (3) 
CCN(C)CCOCCOCCNCCOc1ccc2c(c1)CCCN2Cc1ccccc1

>  <score_type>  (3) 
oracle

>  <origin>  (3) 
adg

>  <m_score__min__energy>  (3) 
-10.01

>  <m_primary>  (3) 
energy

$$$$
3:0
     RDKit          3D

 50 53  0  0  0  0  0  0  0  0999 V2000
   -3.3050   15.7890  -33.6660 C   0  0  0  0  0  0  0  0  0  0  0  0
   -4.4660   15.7910  -34.5640 N   0  0  0  0  0  0  0  0  0  0  0  0
   -5.7170   15.4180  -33.8790 C   0  0  0  0  0  0  0  0  0  0  0  0
   -6.8560   16.4270  -34.1160 C   0  0  0  0  0  0  0  0  0  0  0  0
   -6.3590   17.6920  -34.5530 O   0  0  0  0  0  0  0  0  0  0  0  0
   -5.8190   18.6980  -33.7290 C   0  0  0  0  0  0  0  0  0  0  0  0
   -4.4470   19.0020  -33.7360 C   0  0  0  0  0  0  0  0  0  0  0  0
   -3.9330   19.9930  -32.9030 C   0  0  0  0  0  0  0  0  0  0  0  0
   -4.7690   20.7110  -32.0390 C   0  0  0  0  0  0  0  0  0  0  0  0
   -4.1480   21.7140  -31.1450 C   0  0  0  0  0  0  0  0  0  0  0  0
   -4.4880   23.0680  -31.2610 C   0  0  0  0  0  0  0  0  0  0  0  0
   -3.8890   24.0200  -30.4320 C   0  0  0  0  0  0  0  0  0  0  0  0
   -2.9290   23.6350  -29.4800 C   0  0  0  0  0  0  0  0  0  0  0  0
   -2.3080   24.6610  -28.6110 C   0  0  0  0  0  0  0  0  0  0  0  0
   -2.3610   24.7410  -27.2310 C   0  0  0  0  0  0  0  0  0  0  0  0
   -1.6190   25.8670  -26.9440 C   0  0  0  0  0  0  0  0  0  0  0  0
   -1.4070   26.4530  -25.5890 C   0  0  0  0  0  0  0  0  0  0  0  0
   -1.1750   26.4240  -28.0850 N   0  0  0  0  0  0  0  0  0  0  0  0
   -1.5990   25.6740  -29.0590 O   0  0  0  0  0  0  0  0  0  0  0  0
   -2.5800   22.2770  -29.3760 C   0  0  0  0  0  0  0  0  0  0  0  0
   -3.1810   21.3260  -30.2050 C   0  0  0  0  0  0  0  0  0  0  0  0
   -6.1620   20.4440  -32.0340 C   0  0  0  0  0  0  0  0  0  0  0  0
   -7.0560   21.1800  -31.2270 C   0  0  0  0  0  0  0  0  0  0  0  0
   -8.4210   20.8940  -31.2330 C   0  0  0  0  0  0  0  0  0  0  0  0
   -8.9230   19.8810  -32.0460 C   0  0  0  0  0  0  0  0  0  0  0  0
   -8.0640   19.1530  -32.8700 C   0  0  0  0  0  0  0  0  0  0  0  0
   -6.6810   19.4250  -32.8830 C   0  0  0  0  0  0  0  0  0  0  0  0
   -3.6495   15.7896  -32.6213 H   0  0  0  0  0  0  0  0  0  0  0  0
   -2.6993   14.8898  -33.8518 H   0  0  0  0  0  0  0  0  0  0  0  0
   -2.6962   16.6861  -33.8518 H   0  0  0  0  0  0  0  0  0  0  0  0
   -4.5800   16.7600  -34.9430 H   0  0  0  0  0  0  0  0  0  0  0  0
   -4.2850   15.1480  -35.3700 H   0  0  0  0  0  0  0  0  0  0  0  0
   -6.0387   14.4330  -34.2482 H   0  0  0  0  0  0  0  0  0  0  0  0
   -5.5093   15.4036  -32.7989 H   0  0  0  0  0  0  0  0  0  0  0  0
   -7.5336   16.0257  -34.8840 H   0  0  0  0  0  0  0  0  0  0  0  0
   -7.3846   16.5771  -33.1631 H   0  0  0  0  0  0  0  0  0  0  0  0
   -3.7714   18.4511  -34.4069 H   0  0  0  0  0  0  0  0  0  0  0  0
   -2.8558   20.2146  -32.9241 H   0  0  0  0  0  0  0  0  0  0  0  0
   -5.2305   23.3834  -32.0087 H   0  0  0  0  0  0  0  0  0  0  0  0
   -4.1709   25.0792  -30.5251 H   0  0  0  0  0  0  0  0  0  0  0  0
   -2.8734   24.0664  -26.5293 H   0  0  0  0  0  0  0  0  0  0  0  0
   -1.6754   25.7110  -24.8225 H   0  0  0  0  0  0  0  0  0  0  0  0
   -0.3500   26.7345  -25.4725 H   0  0  0  0  0  0  0  0  0  0  0  0
   -2.0392   27.3456  -25.4725 H   0  0  0  0  0  0  0  0  0  0  0  0
   -1.8288   21.9610  -28.6371 H   0  0  0  0  0  0  0  0  0  0  0  0
   -2.8945   20.2674  -30.1202 H   0  0  0  0  0  0  0  0  0  0  0  0
   -6.6721   21.9877  -30.5866 H   0  0  0  0  0  0  0  0  0  0  0  0
   -9.1042   21.4712  -30.5926 H   0  0  0  0  0  0  0  0  0  0  0  0
   -9.9993   19.6542  -32.0386 H   0  0  0  0  0  0  0  0  0  0  0  0
   -8.4697   18.3598  -33.5152 H   0  0  0  0  0  0  0  0  0  0  0  0
  1  2  1  0
  2  3  1  0
  3  4  1  0
  4  5  1  0
  5  6  1  0
  6  7  2  0
  7  8  1  0
  8  9  2  0
  9 10  1  0
 10 11  2  0
 11 12  1  0
 12 13  2  0
 13 14  1  0
 14 15  2  0
 15 16  1  0
 16 17  1  0
 16 18  2  0
 18 19  1  0
 13 20  1  0
 20 21  2  0
  9 22  1  0
 22 23  2  0
 23 24  1  0
 24 25  2  0
 25 26  1  0
 26 27  2  0
 27  6  1  0
 21 10  1  0
 27 22  1  0
 19 14  1  0
  1 28  1  0
  1 29  1  0
  1 30  1  0
  2 31  1  0
  2 32  1  0
  3 33  1  0
  3 34  1  0
  4 35  1  0
  4 36  1  0
  7 37  1  0
  8 38  1  0
 11 39  1  0
 12 40  1  0
 15 41  1  0
 17 42  1  0
 17 43  1  0
 17 44  1  0
 20 45  1  0
 21 46  1  0
 23 47  1  0
 24 48  1  0
 25 49  1  0
 26 50  1  0
M  CHG  1   2   1
M  END
>  <UniqueID>  (4) 
4

>  <SMILES>  (4) 
C[NH2+]CCOc1ccc(-c2ccc(-c3cc(C)no3)cc2)c2ccccc12

>  <Energy>  (4) 
95.5251383230492

>  <Genealogy>  (4) 
C[NH2+]CCOc1ccc(-c2ccc(-c3cc(C)no3)cc2)c2ccccc12 (protonated)
C[NH2+]CCOc1ccc(-c2ccc(-c3cc(C)no3)cc2)c2ccccc12 (3D coordinates assigned)
C[NH2+]CCOc1ccc(-c2ccc(-c3cc(C)no3)cc2)c2ccccc12 (optimized conformer: 95.5251383230492 kcal/mol)

>  <smiles>  (4) 
CNCCOc1ccc(-c2ccc(-c3cc(C)no3)cc2)c2ccccc12

>  <score_type>  (4) 
oracle

>  <origin>  (4) 
adg

>  <m_score__min__energy>  (4) 
-8.9499999999999993

>  <m_primary>  (4) 
energy

$$$$
4:0
     RDKit          3D

 57 58  0  0  0  0  0  0  0  0999 V2000
   -3.4440   18.7640  -26.2250 C   0  0  0  0  0  0  0  0  0  0  0  0
   -1.9990   18.8640  -26.7070 C   0  0  0  0  0  0  0  0  0  0  0  0
   -1.7550   20.1610  -27.3800 N   0  0  0  0  0  0  0  0  0  0  0  0
   -0.7570   20.0360  -28.4730 C   0  0  0  0  0  0  0  0  0  0  0  0
    0.1880   18.8780  -28.1770 C   0  0  0  0  0  0  0  0  0  0  0  0
   -3.0290   20.7490  -27.8580 C   0  0  0  0  0  0  0  0  0  0  0  0
   -3.0740   20.8150  -29.3950 C   0  0  0  0  0  0  0  0  0  0  0  0
   -2.9650   22.1490  -29.8610 O   0  0  0  0  0  0  0  0  0  0  0  0
   -2.7470   23.0570  -28.7970 C   0  0  0  0  0  0  0  0  0  0  0  0
   -2.3930   24.4410  -29.3420 C   0  0  0  0  0  0  0  0  0  0  0  0
   -3.4990   24.9820  -30.0380 O   0  0  0  0  0  0  0  0  0  0  0  0
   -4.7200   24.6540  -29.4000 C   0  0  0  0  0  0  0  0  0  0  0  0
   -5.9000   25.1630  -30.2360 C   0  0  0  0  0  0  0  0  0  0  0  0
   -6.0850   24.3580  -31.5350 C   0  0  0  0  0  0  0  0  0  0  0  0
   -5.1990   23.1910  -31.5820 N   0  0  0  0  0  0  0  0  0  0  0  0
   -5.6030   21.9180  -32.1210 C   0  0  0  0  0  0  0  0  0  0  0  0
   -6.9330   21.4390  -32.0140 C   0  0  0  0  0  0  0  0  0  0  0  0
   -7.2970   20.1740  -32.5420 C   0  0  0  0  0  0  0  0  0  0  0  0
   -8.6930   19.6600  -32.3620 C   0  0  0  0  0  0  0  0  0  0  0  0
   -6.3250   19.3670  -33.1690 C   0  0  0  0  0  0  0  0  0  0  0  0
   -5.0280   19.8620  -33.2620 C   0  0  0  0  0  0  0  0  0  0  0  0
   -3.8900   19.2970  -33.7900 C   0  0  0  0  0  0  0  0  0  0  0  0
   -2.8900   20.1410  -33.6220 O   0  0  0  0  0  0  0  0  0  0  0  0
   -3.3240   21.2250  -33.0070 C   0  0  0  0  0  0  0  0  0  0  0  0
   -4.6780   21.0850  -32.7640 C   0  0  0  0  0  0  0  0  0  0  0  0
   -3.4644   18.7626  -25.1252 H   0  0  0  0  0  0  0  0  0  0  0  0
   -4.0164   19.6247  -26.6012 H   0  0  0  0  0  0  0  0  0  0  0  0
   -3.8924   17.8327  -26.6012 H   0  0  0  0  0  0  0  0  0  0  0  0
   -1.3241   18.7739  -25.8431 H   0  0  0  0  0  0  0  0  0  0  0  0
   -1.8117   18.0537  -27.4269 H   0  0  0  0  0  0  0  0  0  0  0  0
   -1.2777   19.8489  -29.4237 H   0  0  0  0  0  0  0  0  0  0  0  0
   -0.1782   20.9686  -28.5456 H   0  0  0  0  0  0  0  0  0  0  0  0
    0.2880   18.7554  -27.0884 H   0  0  0  0  0  0  0  0  0  0  0  0
   -0.2167   17.9534  -28.6144 H   0  0  0  0  0  0  0  0  0  0  0  0
    1.1749   19.0891  -28.6144 H   0  0  0  0  0  0  0  0  0  0  0  0
   -3.8653   20.1296  -27.5015 H   0  0  0  0  0  0  0  0  0  0  0  0
   -3.1072   21.7733  -27.4646 H   0  0  0  0  0  0  0  0  0  0  0  0
   -2.2401   20.2247  -29.8027 H   0  0  0  0  0  0  0  0  0  0  0  0
   -4.0406   20.4104  -29.7297 H   0  0  0  0  0  0  0  0  0  0  0  0
   -3.6610   23.1296  -28.1893 H   0  0  0  0  0  0  0  0  0  0  0  0
   -1.9120   22.6915  -28.1812 H   0  0  0  0  0  0  0  0  0  0  0  0
   -2.1278   25.1051  -28.5062 H   0  0  0  0  0  0  0  0  0  0  0  0
   -1.5403   24.3515  -30.0311 H   0  0  0  0  0  0  0  0  0  0  0  0
   -4.7934   23.5617  -29.2929 H   0  0  0  0  0  0  0  0  0  0  0  0
   -4.7485   25.1282  -28.4078 H   0  0  0  0  0  0  0  0  0  0  0  0
   -6.8188   25.0834  -29.6365 H   0  0  0  0  0  0  0  0  0  0  0  0
   -5.6909   26.2067  -30.5134 H   0  0  0  0  0  0  0  0  0  0  0  0
   -7.1286   24.0157  -31.5964 H   0  0  0  0  0  0  0  0  0  0  0  0
   -5.8338   25.0129  -32.3823 H   0  0  0  0  0  0  0  0  0  0  0  0
   -4.2350   23.2810  -31.1920 H   0  0  0  0  0  0  0  0  0  0  0  0
   -7.6934   22.0572  -31.5144 H   0  0  0  0  0  0  0  0  0  0  0  0
   -8.9177   19.5773  -31.2884 H   0  0  0  0  0  0  0  0  0  0  0  0
   -9.4034   20.3555  -32.8327 H   0  0  0  0  0  0  0  0  0  0  0  0
   -8.7827   18.6699  -32.8327 H   0  0  0  0  0  0  0  0  0  0  0  0
   -6.5843   18.3769  -33.5720 H   0  0  0  0  0  0  0  0  0  0  0  0
   -3.8250   18.3096  -34.2704 H   0  0  0  0  0  0  0  0  0  0  0  0
   -2.7102   22.0958  -32.7330 H   0  0  0  0  0  0  0  0  0  0  0  0
  1  2  1  0
  2  3  1  0
  3  4  1  0
  4  5  1  0
  3  6  1  0
  6  7  1  0
  7  8  1  0
  8  9  1  0
  9 10  1  0
 10 11  1  0
 11 12  1  0
 12 13  1  0
 13 14  1  0
 14 15  1  0
 15 16  1  0
 16 17  2  0
 17 18  1  0
 18 19  1  0
 18 20  2  0
 20 21  1  0
 21 22  2  0
 22 23  1  0
 23 24  1  0
 24 25  2  0
 25 16  1  0
 25 21  1  0
  1 26  1  0
  1 27  1  0
  1 28  1  0
  2 29  1  0
  2 30  1  0
  4 31  1  0
  4 32  1  0
  5 33  1  0
  5 34  1  0
  5 35  1  0
  6 36  1  0
  6 37  1  0
  7 38  1  0
  7 39  1  0
  9 40  1  0
  9 41  1  0
 10 42  1  0
 10 43  1  0
 12 44  1  0
 12 45  1  0
 13 46  1  0
 13 47  1  0
 14 48  1  0
 14 49  1  0
 15 50  1  0
 17 51  1  0
 19 52  1  0
 19 53  1  0
 19 54  1  0
 20 55  1  0
 22 56  1  0
 24 57  1  0
M  END
>  <UniqueID>  (5) 
5

>  <SMILES>  (5) 
CCN(CC)CCOCCOCCCNc1cc(C)cc2cocc12

>  <Energy>  (5) 
83.15689081563197

>  <Genealogy>  (5) 
CCN(CC)CCOCCOCCCNc1cc(C)cc2cocc12 (3D coordinates assigned)
CCN(CC)CCOCCOCCCNc1cc(C)cc2cocc12 (optimized conformer: 83.15689081563197 kcal/mol)

>  <smiles>  (5) 
CCN(CC)CCOCCOCCCNc1cc(C)cc2cocc12

>  <score_type>  (5) 
oracle

>  <origin>  (5) 
adg

>  <m_score__min__energy>  (5) 
-8.0299999999999994

>  <m_primary>  (5) 
energy

$$$$
5:0
     RDKit          3D

 71 74  0  0  0  0  0  0  0  0999 V2000
   -1.9870   18.5820  -26.7080 C   0  0  0  0  0  0  0  0  0  0  0  0
   -2.8340   19.7950  -27.0940 C   0  0  0  0  0  0  0  0  0  0  0  0
   -2.4470   20.3470  -28.4050 N   0  0  0  0  0  0  0  0  0  0  0  0
   -1.1470   19.8380  -28.8730 C   0  0  0  0  0  0  0  0  0  0  0  0
   -0.5270   20.8140  -29.8760 C   0  0  0  0  0  0  0  0  0  0  0  0
   -1.5000   21.7290  -30.3450 O   0  0  0  0  0  0  0  0  0  0  0  0
   -1.5490   21.7540  -31.7600 C   0  0  0  0  0  0  0  0  0  0  0  0
   -2.7960   21.0190  -32.2510 C   0  0  0  0  0  0  0  0  0  0  0  0
   -3.6290   20.6030  -31.1220 N   0  0  0  0  0  0  0  0  0  0  0  0
   -5.0460   20.8370  -31.1470 C   0  0  0  0  0  0  0  0  0  0  0  0
   -5.8760   19.8610  -31.7290 C   0  0  0  0  0  0  0  0  0  0  0  0
   -5.3750   18.5740  -32.0240 C   0  0  0  0  0  0  0  0  0  0  0  0
   -6.1780   17.6220  -32.6480 C   0  0  0  0  0  0  0  0  0  0  0  0
   -7.4820   17.9400  -33.0070 C   0  0  0  0  0  0  0  0  0  0  0  0
   -8.0000   19.2020  -32.7230 C   0  0  0  0  0  0  0  0  0  0  0  0
   -7.2200   20.1820  -32.0530 C   0  0  0  0  0  0  0  0  0  0  0  0
   -7.7190   21.4380  -31.7680 N   0  0  0  0  0  0  0  0  0  0  0  0
   -9.1670   21.7090  -31.9090 C   0  0  0  0  0  0  0  0  0  0  0  0
   -6.8730   22.4360  -31.3210 C   0  0  0  0  0  0  0  0  0  0  0  0
   -7.2590   23.7950  -31.3630 C   0  0  0  0  0  0  0  0  0  0  0  0
   -6.4140   24.7930  -30.8960 C   0  0  0  0  0  0  0  0  0  0  0  0
   -5.2160   24.4630  -30.2820 C   0  0  0  0  0  0  0  0  0  0  0  0
   -4.8200   23.1200  -30.1460 C   0  0  0  0  0  0  0  0  0  0  0  0
   -3.6880   22.7830  -29.2930 N   0  0  0  0  0  0  0  0  0  0  0  0
   -3.9290   23.0170  -27.8480 C   0  0  0  0  0  0  0  0  0  0  0  0
   -2.6750   23.5950  -27.1370 C   0  0  0  0  0  0  0  0  0  0  0  0
   -1.3770   23.1940  -27.7260 N   0  0  0  0  0  0  0  0  0  0  0  0
   -0.4560   22.4970  -26.8230 C   0  0  0  0  0  0  0  0  0  0  0  0
    0.9280   22.7020  -27.4040 C   0  0  0  0  0  0  0  0  0  0  0  0
    0.8500   24.0570  -28.0800 C   0  0  0  0  0  0  0  0  0  0  0  0
   -0.6290   24.2690  -28.3930 C   0  0  0  0  0  0  0  0  0  0  0  0
   -5.5670   22.1200  -30.8510 C   0  0  0  0  0  0  0  0  0  0  0  0
   -1.9338   18.5058  -25.6119 H   0  0  0  0  0  0  0  0  0  0  0  0
   -2.4453   17.6696  -27.1172 H   0  0  0  0  0  0  0  0  0  0  0  0
   -0.9725   18.6980  -27.1172 H   0  0  0  0  0  0  0  0  0  0  0  0
   -3.8905   19.4914  -27.1349 H   0  0  0  0  0  0  0  0  0  0  0  0
   -2.6722   20.5760  -26.3365 H   0  0  0  0  0  0  0  0  0  0  0  0
   -2.4120   21.3940  -28.3550 H   0  0  0  0  0  0  0  0  0  0  0  0
   -0.4710   19.7227  -28.0129 H   0  0  0  0  0  0  0  0  0  0  0  0
   -1.2983   18.8658  -29.3649 H   0  0  0  0  0  0  0  0  0  0  0  0
    0.2855   21.3698  -29.3851 H   0  0  0  0  0  0  0  0  0  0  0  0
   -0.1344   20.2436  -30.7307 H   0  0  0  0  0  0  0  0  0  0  0  0
   -1.5814   22.7979  -32.1053 H   0  0  0  0  0  0  0  0  0  0  0  0
   -0.6540   21.2566  -32.1620 H   0  0  0  0  0  0  0  0  0  0  0  0
   -3.3775   21.6890  -32.9013 H   0  0  0  0  0  0  0  0  0  0  0  0
   -2.4826   20.1238  -32.8082 H   0  0  0  0  0  0  0  0  0  0  0  0
   -3.2430   19.9470  -30.4050 H   0  0  0  0  0  0  0  0  0  0  0  0
   -4.3383   18.3203  -31.7578 H   0  0  0  0  0  0  0  0  0  0  0  0
   -5.7796   16.6181  -32.8566 H   0  0  0  0  0  0  0  0  0  0  0  0
   -8.1077   17.1929  -33.5172 H   0  0  0  0  0  0  0  0  0  0  0  0
   -9.0305   19.4434  -33.0227 H   0  0  0  0  0  0  0  0  0  0  0  0
   -9.6229   21.7943  -30.9116 H   0  0  0  0  0  0  0  0  0  0  0  0
   -9.3120   22.6499  -32.4601 H   0  0  0  0  0  0  0  0  0  0  0  0
   -9.6424   20.8842  -32.4601 H   0  0  0  0  0  0  0  0  0  0  0  0
   -8.2436   24.0661  -31.7718 H   0  0  0  0  0  0  0  0  0  0  0  0
   -6.6965   25.8496  -31.0138 H   0  0  0  0  0  0  0  0  0  0  0  0
   -4.5661   25.2621  -29.8958 H   0  0  0  0  0  0  0  0  0  0  0  0
   -3.4950   21.7600  -29.3720 H   0  0  0  0  0  0  0  0  0  0  0  0
   -2.8420   23.3010  -29.6230 H   0  0  0  0  0  0  0  0  0  0  0  0
   -4.7603   23.7288  -27.7370 H   0  0  0  0  0  0  0  0  0  0  0  0
   -4.1694   22.0501  -27.3819 H   0  0  0  0  0  0  0  0  0  0  0  0
   -2.7398   24.6926  -27.1710 H   0  0  0  0  0  0  0  0  0  0  0  0
   -2.6868   23.1863  -26.1158 H   0  0  0  0  0  0  0  0  0  0  0  0
   -0.5139   22.9256  -25.8116 H   0  0  0  0  0  0  0  0  0  0  0  0
   -0.7045   21.4288  -26.7376 H   0  0  0  0  0  0  0  0  0  0  0  0
    1.6883   22.7057  -26.6091 H   0  0  0  0  0  0  0  0  0  0  0  0
    1.2163   21.8999  -28.0994 H   0  0  0  0  0  0  0  0  0  0  0  0
    1.2177   24.8450  -27.4063 H   0  0  0  0  0  0  0  0  0  0  0  0
    1.4703   24.0978  -28.9875 H   0  0  0  0  0  0  0  0  0  0  0  0
   -0.9574   25.2476  -28.0129 H   0  0  0  0  0  0  0  0  0  0  0  0
   -0.8034   24.2481  -29.4789 H   0  0  0  0  0  0  0  0  0  0  0  0
  1  2  1  0
  2  3  1  0
  3  4  1  0
  4  5  1  0
  5  6  1  0
  6  7  1  0
  7  8  1  0
  8  9  1  0
  9 10  1  0
 10 11  2  0
 11 12  1  0
 12 13  2  0
 13 14  1  0
 14 15  2  0
 15 16  1  0
 16 17  2  0
 17 18  1  0
 17 19  1  0
 19 20  2  0
 20 21  1  0
 21 22  2  0
 22 23  1  0
 23 24  1  0
 24 25  1  0
 25 26  1  0
 26 27  1  0
 27 28  1  0
 28 29  1  0
 29 30  1  0
 30 31  1  0
 23 32  2  0
 32 10  1  0
 16 11  1  0
 32 19  1  0
 31 27  1  0
  1 33  1  0
  1 34  1  0
  1 35  1  0
  2 36  1  0
  2 37  1  0
  3 38  1  0
  4 39  1  0
  4 40  1  0
  5 41  1  0
  5 42  1  0
  7 43  1  0
  7 44  1  0
  8 45  1  0
  8 46  1  0
  9 47  1  0
 12 48  1  0
 13 49  1  0
 14 50  1  0
 15 51  1  0
 18 52  1  0
 18 53  1  0
 18 54  1  0
 20 55  1  0
 21 56  1  0
 22 57  1  0
 24 58  1  0
 24 59  1  0
 25 60  1  0
 25 61  1  0
 26 62  1  0
 26 63  1  0
 28 64  1  0
 28 65  1  0
 29 66  1  0
 29 67  1  0
 30 68  1  0
 30 69  1  0
 31 70  1  0
 31 71  1  0
M  CHG  2  17   1  24   1
M  END
>  <UniqueID>  (6) 
6

>  <SMILES>  (6) 
CCNCCOCCNc1c2ccccc2[n+](C)c2cccc([NH2+]CCN3CCCC3)c12

>  <Energy>  (6) 
122.70844815785463

>  <Genealogy>  (6) 
CCNCCOCCNc1c2ccccc2[n+](C)c2cccc([NH2+]CCN3CCCC3)c12 (protonated)
CCNCCOCCNc1c2ccccc2[n+](C)c2cccc([NH2+]CCN3CCCC3)c12 (3D coordinates assigned)
CCNCCOCCNc1c2ccccc2[n+](C)c2cccc([NH2+]CCN3CCCC3)c12 (nonaromatic ring conformer: 122.70844815785463 kcal/mol)

>  <smiles>  (6) 
CCNCCOCCNc1c2ccccc2[n+](C)c2cccc(NCCN3CCCC3)c12

>  <score_type>  (6) 
oracle

>  <origin>  (6) 
adg

>  <m_score__min__energy>  (6) 
-8.2599999999999998

>  <m_primary>  (6) 
energy

$$$$
6:0
     RDKit          3D

 50 53  0  0  0  0  0  0  0  0999 V2000
   -2.6930   15.6540  -35.3260 C   0  0  0  0  0  0  0  0  0  0  0  0
   -3.7020   16.6260  -35.7290 N   0  0  0  0  0  0  0  0  0  0  0  0
   -4.3890   17.4440  -34.7730 C   0  0  0  0  0  0  0  0  0  0  0  0
   -3.7720   18.5920  -34.2610 C   0  0  0  0  0  0  0  0  0  0  0  0
   -4.4450   19.3890  -33.3270 C   0  0  0  0  0  0  0  0  0  0  0  0
   -3.7930   20.5540  -32.8080 N   0  0  0  0  0  0  0  0  0  0  0  0
   -4.4970   21.8410  -32.8020 C   0  0  0  0  0  0  0  0  0  0  0  0
   -4.2660   22.5600  -31.4690 C   0  0  0  0  0  0  0  0  0  0  0  0
   -2.8530   22.5050  -31.0650 N   0  0  0  0  0  0  0  0  0  0  0  0
   -2.4600   23.0690  -29.8050 C   0  0  0  0  0  0  0  0  0  0  0  0
   -1.7350   22.2870  -28.8930 C   0  0  0  0  0  0  0  0  0  0  0  0
   -1.3540   22.8150  -27.6580 C   0  0  0  0  0  0  0  0  0  0  0  0
   -1.6910   24.1270  -27.3260 C   0  0  0  0  0  0  0  0  0  0  0  0
   -2.4070   24.9180  -28.2290 C   0  0  0  0  0  0  0  0  0  0  0  0
   -2.7940   24.3980  -29.4800 C   0  0  0  0  0  0  0  0  0  0  0  0
   -3.4910   25.1710  -30.4230 O   0  0  0  0  0  0  0  0  0  0  0  0
   -4.9010   25.3700  -30.4190 C   0  0  0  0  0  0  0  0  0  0  0  0
   -1.8640   21.8040  -31.8900 C   0  0  0  0  0  0  0  0  0  0  0  0
   -2.4140   20.4420  -32.3200 C   0  0  0  0  0  0  0  0  0  0  0  0
   -5.7420   19.0280  -32.9110 C   0  0  0  0  0  0  0  0  0  0  0  0
   -6.4710   19.7930  -31.9820 C   0  0  0  0  0  0  0  0  0  0  0  0
   -7.7560   19.3960  -31.5990 C   0  0  0  0  0  0  0  0  0  0  0  0
   -8.3260   18.2390  -32.1360 C   0  0  0  0  0  0  0  0  0  0  0  0
   -7.6140   17.4710  -33.0620 C   0  0  0  0  0  0  0  0  0  0  0  0
   -6.3270   17.8590  -33.4540 C   0  0  0  0  0  0  0  0  0  0  0  0
   -5.6420   17.1110  -34.3580 N   0  0  0  0  0  0  0  0  0  0  0  0
   -2.6457   15.6084  -34.2280 H   0  0  0  0  0  0  0  0  0  0  0  0
   -2.9591   14.6632  -35.7230 H   0  0  0  0  0  0  0  0  0  0  0  0
   -1.7129   15.9569  -35.7230 H   0  0  0  0  0  0  0  0  0  0  0  0
   -3.9240   16.7220  -36.7460 H   0  0  0  0  0  0  0  0  0  0  0  0
   -2.7598   18.8674  -34.5922 H   0  0  0  0  0  0  0  0  0  0  0  0
   -4.1184   22.4669  -33.6236 H   0  0  0  0  0  0  0  0  0  0  0  0
   -5.5745   21.6631  -32.9336 H   0  0  0  0  0  0  0  0  0  0  0  0
   -4.5671   23.6128  -31.5738 H   0  0  0  0  0  0  0  0  0  0  0  0
   -4.8658   22.0563  -30.6966 H   0  0  0  0  0  0  0  0  0  0  0  0
   -1.4654   21.2526  -29.1524 H   0  0  0  0  0  0  0  0  0  0  0  0
   -0.7878   22.1960  -26.9465 H   0  0  0  0  0  0  0  0  0  0  0  0
   -1.3926   24.5403  -26.3512 H   0  0  0  0  0  0  0  0  0  0  0  0
   -2.6698   25.9521  -27.9615 H   0  0  0  0  0  0  0  0  0  0  0  0
   -5.2612   25.4208  -29.3809 H   0  0  0  0  0  0  0  0  0  0  0  0
   -5.1400   26.3108  -30.9365 H   0  0  0  0  0  0  0  0  0  0  0  0
   -5.3910   24.5321  -30.9365 H   0  0  0  0  0  0  0  0  0  0  0  0
   -1.6421   22.4061  -32.7835 H   0  0  0  0  0  0  0  0  0  0  0  0
   -0.9451   21.6544  -31.3041 H   0  0  0  0  0  0  0  0  0  0  0  0
   -1.7812   20.0375  -33.1237 H   0  0  0  0  0  0  0  0  0  0  0  0
   -2.4080   19.7736  -31.4464 H   0  0  0  0  0  0  0  0  0  0  0  0
   -6.0290   20.7057  -31.5559 H   0  0  0  0  0  0  0  0  0  0  0  0
   -8.3207   19.9975  -30.8715 H   0  0  0  0  0  0  0  0  0  0  0  0
   -9.3368   17.9318  -31.8296 H   0  0  0  0  0  0  0  0  0  0  0  0
   -8.0654   16.5606  -33.4833 H   0  0  0  0  0  0  0  0  0  0  0  0
  1  2  1  0
  2  3  1  0
  3  4  2  0
  4  5  1  0
  5  6  1  0
  6  7  1  0
  7  8  1  0
  8  9  1  0
  9 10  1  0
 10 11  2  0
 11 12  1  0
 12 13  2  0
 13 14  1  0
 14 15  2  0
 15 16  1  0
 16 17  1  0
  9 18  1  0
 18 19  1  0
  5 20  2  0
 20 21  1  0
 21 22  2  0
 22 23  1  0
 23 24  2  0
 24 25  1  0
 25 26  2  0
 26  3  1  0
 19  6  1  0
 25 20  1  0
 15 10  1  0
  1 27  1  0
  1 28  1  0
  1 29  1  0
  2 30  1  0
  4 31  1  0
  7 32  1  0
  7 33  1  0
  8 34  1  0
  8 35  1  0
 11 36  1  0
 12 37  1  0
 13 38  1  0
 14 39  1  0
 17 40  1  0
 17 41  1  0
 17 42  1  0
 18 43  1  0
 18 44  1  0
 19 45  1  0
 19 46  1  0
 21 47  1  0
 22 48  1  0
 23 49  1  0
 24 50  1  0
M  END
>  <UniqueID>  (7) 
7

>  <SMILES>  (7) 
CNc1cc(N2CCN(c3ccccc3OC)CC2)c2ccccc2n1

>  <Energy>  (7) 
64.29923057506588

>  <Genealogy>  (7) 
CNc1cc(N2CCN(c3ccccc3OC)CC2)c2ccccc2n1 (3D coordinates assigned)
CNc1cc(N2CCN(c3ccccc3OC)CC2)c2ccccc2n1 (nonaromatic ring conformer: 64.29923057506588 kcal/mol)

>  <smiles>  (7) 
CNc1cc(N2CCN(c3ccccc3OC)CC2)c2ccccc2n1

>  <score_type>  (7) 
oracle

>  <origin>  (7) 
adg

>  <m_score__min__energy>  (7) 
-8.3399999999999999

>  <m_primary>  (7) 
energy

$$$$
7:0
     RDKit          3D

 50 52  0  0  0  0  0  0  0  0999 V2000
   -3.6310   23.4290  -28.4330 C   0  0  0  0  0  0  0  0  0  0  0  0
   -2.8430   23.9850  -29.6210 C   0  0  0  0  0  0  0  0  0  0  0  0
   -3.6700   24.8220  -30.5030 N   0  0  0  0  0  0  0  0  0  0  0  0
   -4.9290   25.2370  -29.8670 C   0  0  0  0  0  0  0  0  0  0  0  0
   -6.0910   25.1610  -30.8660 C   0  0  0  0  0  0  0  0  0  0  0  0
   -5.8970   24.0910  -31.9520 C   0  0  0  0  0  0  0  0  0  0  0  0
   -5.3850   22.8380  -31.3910 N   0  0  0  0  0  0  0  0  0  0  0  0
   -5.6070   21.5650  -32.0300 C   0  0  0  0  0  0  0  0  0  0  0  0
   -6.9010   21.0120  -32.0870 C   0  0  0  0  0  0  0  0  0  0  0  0
   -8.0290   21.7360  -31.6380 C   0  0  0  0  0  0  0  0  0  0  0  0
   -9.3070   21.1880  -31.7220 C   0  0  0  0  0  0  0  0  0  0  0  0
   -9.4880   19.9210  -32.2610 C   0  0  0  0  0  0  0  0  0  0  0  0
   -8.3900   19.1790  -32.6920 C   0  0  0  0  0  0  0  0  0  0  0  0
   -7.0720   19.6910  -32.5840 C   0  0  0  0  0  0  0  0  0  0  0  0
   -5.9710   18.9400  -32.9470 N   0  0  0  0  0  0  0  0  0  0  0  0
   -6.1020   17.4790  -33.1390 C   0  0  0  0  0  0  0  0  0  0  0  0
   -4.7440   19.5540  -33.1130 C   0  0  0  0  0  0  0  0  0  0  0  0
   -3.6710   18.9030  -33.7760 C   0  0  0  0  0  0  0  0  0  0  0  0
   -2.4230   19.5300  -33.9350 C   0  0  0  0  0  0  0  0  0  0  0  0
   -1.3400   18.9080  -34.5730 O   0  0  0  0  0  0  0  0  0  0  0  0
   -0.0820   19.5280  -34.8210 C   0  0  0  0  0  0  0  0  0  0  0  0
   -2.2460   20.8240  -33.4550 C   0  0  0  0  0  0  0  0  0  0  0  0
   -3.2920   21.4990  -32.8310 C   0  0  0  0  0  0  0  0  0  0  0  0
   -4.5420   20.8770  -32.6420 C   0  0  0  0  0  0  0  0  0  0  0  0
   -3.1619   23.7600  -27.4947 H   0  0  0  0  0  0  0  0  0  0  0  0
   -4.6666   23.7975  -28.4751 H   0  0  0  0  0  0  0  0  0  0  0  0
   -3.6310   22.3298  -28.4751 H   0  0  0  0  0  0  0  0  0  0  0  0
   -2.0094   24.5921  -29.2383 H   0  0  0  0  0  0  0  0  0  0  0  0
   -2.4827   23.1304  -30.2125 H   0  0  0  0  0  0  0  0  0  0  0  0
   -3.1290   25.6750  -30.7840 H   0  0  0  0  0  0  0  0  0  0  0  0
   -5.1401   24.5726  -29.0161 H   0  0  0  0  0  0  0  0  0  0  0  0
   -4.8257   26.2765  -29.5225 H   0  0  0  0  0  0  0  0  0  0  0  0
   -7.0126   24.9309  -30.3112 H   0  0  0  0  0  0  0  0  0  0  0  0
   -6.1431   26.1341  -31.3763 H   0  0  0  0  0  0  0  0  0  0  0  0
   -6.8647   23.8955  -32.4371 H   0  0  0  0  0  0  0  0  0  0  0  0
   -5.1618   24.4680  -32.6782 H   0  0  0  0  0  0  0  0  0  0  0  0
   -4.7090   22.9010  -30.5960 H   0  0  0  0  0  0  0  0  0  0  0  0
   -7.8961   22.7437  -31.2174 H   0  0  0  0  0  0  0  0  0  0  0  0
  -10.1744   21.7599  -31.3607 H   0  0  0  0  0  0  0  0  0  0  0  0
  -10.5013   19.5018  -32.3480 H   0  0  0  0  0  0  0  0  0  0  0  0
   -8.5483   18.1795  -33.1232 H   0  0  0  0  0  0  0  0  0  0  0  0
   -6.1465   16.9828  -32.1583 H   0  0  0  0  0  0  0  0  0  0  0  0
   -7.0230   17.2641  -33.7007 H   0  0  0  0  0  0  0  0  0  0  0  0
   -5.2339   17.1037  -33.7007 H   0  0  0  0  0  0  0  0  0  0  0  0
   -3.8190   17.8879  -34.1732 H   0  0  0  0  0  0  0  0  0  0  0  0
    0.4038   19.7674  -33.8636 H   0  0  0  0  0  0  0  0  0  0  0  0
    0.5579   18.8421  -35.3955 H   0  0  0  0  0  0  0  0  0  0  0  0
   -0.2362   20.4533  -35.3955 H   0  0  0  0  0  0  0  0  0  0  0  0
   -1.2702   21.3186  -33.5696 H   0  0  0  0  0  0  0  0  0  0  0  0
   -3.1404   22.5308  -32.4812 H   0  0  0  0  0  0  0  0  0  0  0  0
  1  2  1  0
  2  3  1  0
  3  4  1  0
  4  5  1  0
  5  6  1  0
  6  7  1  0
  7  8  1  0
  8  9  2  0
  9 10  1  0
 10 11  2  0
 11 12  1  0
 12 13  2  0
 13 14  1  0
 14 15  2  0
 15 16  1  0
 15 17  1  0
 17 18  2  0
 18 19  1  0
 19 20  1  0
 20 21  1  0
 19 22  2  0
 22 23  1  0
 23 24  2  0
 24  8  1  0
 14  9  1  0
 24 17  1  0
  1 25  1  0
  1 26  1  0
  1 27  1  0
  2 28  1  0
  2 29  1  0
  3 30  1  0
  4 31  1  0
  4 32  1  0
  5 33  1  0
  5 34  1  0
  6 35  1  0
  6 36  1  0
  7 37  1  0
 10 38  1  0
 11 39  1  0
 12 40  1  0
 13 41  1  0
 16 42  1  0
 16 43  1  0
 16 44  1  0
 18 45  1  0
 21 46  1  0
 21 47  1  0
 21 48  1  0
 22 49  1  0
 23 50  1  0
M  CHG  1  15   1
M  END
>  <UniqueID>  (8) 
8

>  <SMILES>  (8) 
CCNCCCNc1c2ccccc2[n+](C)c2cc(OC)ccc12

>  <Energy>  (8) 
70.09926318239982

>  <Genealogy>  (8) 
CCNCCCNc1c2ccccc2[n+](C)c2cc(OC)ccc12 (3D coordinates assigned)
CCNCCCNc1c2ccccc2[n+](C)c2cc(OC)ccc12 (optimized conformer: 70.09926318239982 kcal/mol)

>  <smiles>  (8) 
CCNCCCNc1c2ccccc2[n+](C)c2cc(OC)ccc12

>  <score_type>  (8) 
oracle

>  <origin>  (8) 
adg

>  <m_score__min__energy>  (8) 
-8.8000000000000007

>  <m_primary>  (8) 
energy

$$$$
8:0
     RDKit          3D

 62 64  0  0  0  0  0  0  0  0999 V2000
   -1.0930   18.9080  -27.3010 C   0  0  0  0  0  0  0  0  0  0  0  0
   -2.2030   19.7220  -26.7740 N   0  0  0  0  0  0  0  0  0  0  0  0
   -3.1380   18.8550  -26.0370 C   0  0  0  0  0  0  0  0  0  0  0  0
   -2.9090   20.4280  -27.8660 C   0  0  0  0  0  0  0  0  0  0  0  0
   -1.9150   21.0280  -28.8660 C   0  0  0  0  0  0  0  0  0  0  0  0
   -2.0360   20.3820  -30.1220 O   0  0  0  0  0  0  0  0  0  0  0  0
   -0.7870   19.9030  -30.5850 C   0  0  0  0  0  0  0  0  0  0  0  0
   -0.2690   20.7760  -31.7310 C   0  0  0  0  0  0  0  0  0  0  0  0
   -1.3060   21.6060  -32.2200 O   0  0  0  0  0  0  0  0  0  0  0  0
   -1.8020   21.1410  -33.4620 C   0  0  0  0  0  0  0  0  0  0  0  0
   -3.2710   20.7060  -33.3400 C   0  0  0  0  0  0  0  0  0  0  0  0
   -3.7620   20.7210  -31.9470 N   0  0  0  0  0  0  0  0  0  0  0  0
   -5.1350   21.2060  -31.8520 C   0  0  0  0  0  0  0  0  0  0  0  0
   -6.2350   20.4050  -32.2640 C   0  0  0  0  0  0  0  0  0  0  0  0
   -7.5490   20.9020  -32.1330 C   0  0  0  0  0  0  0  0  0  0  0  0
   -7.7730   22.2100  -31.7730 N   0  0  0  0  0  0  0  0  0  0  0  0
   -9.1140   22.8040  -31.9700 C   0  0  0  0  0  0  0  0  0  0  0  0
   -6.7480   22.9660  -31.2460 C   0  0  0  0  0  0  0  0  0  0  0  0
   -7.0030   24.2170  -30.6250 C   0  0  0  0  0  0  0  0  0  0  0  0
   -5.9650   25.0030  -30.1340 C   0  0  0  0  0  0  0  0  0  0  0  0
   -4.6530   24.5680  -30.2390 C   0  0  0  0  0  0  0  0  0  0  0  0
   -4.3710   23.3290  -30.8100 C   0  0  0  0  0  0  0  0  0  0  0  0
   -5.4050   22.4930  -31.3010 C   0  0  0  0  0  0  0  0  0  0  0  0
   -8.6960   19.9440  -32.4290 C   0  0  0  0  0  0  0  0  0  0  0  0
   -8.3990   18.5500  -31.8590 C   0  0  0  0  0  0  0  0  0  0  0  0
   -7.0170   18.0000  -32.2700 C   0  0  0  0  0  0  0  0  0  0  0  0
   -6.1080   19.0430  -32.9370 C   0  0  0  0  0  0  0  0  0  0  0  0
   -0.5178   18.4862  -26.4636 H   0  0  0  0  0  0  0  0  0  0  0  0
   -1.4975   18.0909  -27.9164 H   0  0  0  0  0  0  0  0  0  0  0  0
   -0.4352   19.5394  -27.9164 H   0  0  0  0  0  0  0  0  0  0  0  0
   -2.9902   18.9920  -24.9556 H   0  0  0  0  0  0  0  0  0  0  0  0
   -4.1717   19.1213  -26.3025 H   0  0  0  0  0  0  0  0  0  0  0  0
   -2.9504   17.8041  -26.3025 H   0  0  0  0  0  0  0  0  0  0  0  0
   -3.5620   19.7157  -28.3915 H   0  0  0  0  0  0  0  0  0  0  0  0
   -3.5020   21.2449  -27.4288 H   0  0  0  0  0  0  0  0  0  0  0  0
   -2.1243   22.1011  -28.9874 H   0  0  0  0  0  0  0  0  0  0  0  0
   -0.8926   20.8861  -28.4858 H   0  0  0  0  0  0  0  0  0  0  0  0
   -0.0621   19.9240  -29.7579 H   0  0  0  0  0  0  0  0  0  0  0  0
   -0.9146   18.8738  -30.9516 H   0  0  0  0  0  0  0  0  0  0  0  0
    0.5569   21.4037  -31.3650 H   0  0  0  0  0  0  0  0  0  0  0  0
    0.0853   20.1267  -32.5452 H   0  0  0  0  0  0  0  0  0  0  0  0
   -1.7265   21.9488  -34.2048 H   0  0  0  0  0  0  0  0  0  0  0  0
   -1.2040   20.2725  -33.7753 H   0  0  0  0  0  0  0  0  0  0  0  0
   -3.8905   21.3908  -33.9377 H   0  0  0  0  0  0  0  0  0  0  0  0
   -3.3392   19.6697  -33.7025 H   0  0  0  0  0  0  0  0  0  0  0  0
   -3.1390   21.3290  -31.3710 H   0  0  0  0  0  0  0  0  0  0  0  0
   -3.6200   19.7940  -31.5010 H   0  0  0  0  0  0  0  0  0  0  0  0
   -9.5725   23.0071  -30.9909 H   0  0  0  0  0  0  0  0  0  0  0  0
   -9.0194   23.7444  -32.5327 H   0  0  0  0  0  0  0  0  0  0  0  0
   -9.7469   22.1020  -32.5327 H   0  0  0  0  0  0  0  0  0  0  0  0
   -8.0400   24.5714  -30.5303 H   0  0  0  0  0  0  0  0  0  0  0  0
   -6.1860   25.9715  -29.6616 H   0  0  0  0  0  0  0  0  0  0  0  0
   -3.8331   25.2022  -29.8708 H   0  0  0  0  0  0  0  0  0  0  0  0
   -3.3260   22.9930  -30.8812 H   0  0  0  0  0  0  0  0  0  0  0  0
   -9.6180   20.3323  -31.9717 H   0  0  0  0  0  0  0  0  0  0  0  0
   -8.8162   19.8622  -33.5193 H   0  0  0  0  0  0  0  0  0  0  0  0
   -8.4390   18.6067  -30.7612 H   0  0  0  0  0  0  0  0  0  0  0  0
   -9.1555   17.8645  -32.2685 H   0  0  0  0  0  0  0  0  0  0  0  0
   -6.5109   17.6249  -31.3683 H   0  0  0  0  0  0  0  0  0  0  0  0
   -7.1952   17.2085  -33.0129 H   0  0  0  0  0  0  0  0  0  0  0  0
   -5.0636   18.7049  -32.8660 H   0  0  0  0  0  0  0  0  0  0  0  0
   -6.4146   19.1470  -33.9883 H   0  0  0  0  0  0  0  0  0  0  0  0
  1  2  1  0
  2  3  1  0
  2  4  1  0
  4  5  1  0
  5  6  1  0
  6  7  1  0
  7  8  1  0
  8  9  1  0
  9 10  1  0
 10 11  1  0
 11 12  1  0
 12 13  1  0
 13 14  2  0
 14 15  1  0
 15 16  2  0
 16 17  1  0
 16 18  1  0
 18 19  2  0
 19 20  1  0
 20 21  2  0
 21 22  1  0
 22 23  2  0
 15 24  1  0
 24 25  1  0
 25 26  1  0
 26 27  1  0
 23 13  1  0
 27 14  1  0
 23 18  1  0
  1 28  1  0
  1 29  1  0
  1 30  1  0
  3 31  1  0
  3 32  1  0
  3 33  1  0
  4 34  1  0
  4 35  1  0
  5 36  1  0
  5 37  1  0
  7 38  1  0
  7 39  1  0
  8 40  1  0
  8 41  1  0
 10 42  1  0
 10 43  1  0
 11 44  1  0
 11 45  1  0
 12 46  1  0
 12 47  1  0
 17 48  1  0
 17 49  1  0
 17 50  1  0
 19 51  1  0
 20 52  1  0
 21 53  1  0
 22 54  1  0
 24 55  1  0
 24 56  1  0
 25 57  1  0
 25 58  1  0
 26 59  1  0
 26 60  1  0
 27 61  1  0
 27 62  1  0
M  CHG  2  12   1  16   1
M  END
>  <UniqueID>  (9) 
9

>  <SMILES>  (9) 
CN(C)CCOCCOCC[NH2+]c1c2c([n+](C)c3ccccc13)CCCC2

>  <Energy>  (9) 
94.27463448957913

>  <Genealogy>  (9) 
CN(C)CCOCCOCC[NH2+]c1c2c([n+](C)c3ccccc13)CCCC2 (protonated)
CN(C)CCOCCOCC[NH2+]c1c2c([n+](C)c3ccccc13)CCCC2 (3D coordinates assigned)
CN(C)CCOCCOCC[NH2+]c1c2c([n+](C)c3ccccc13)CCCC2 (nonaromatic ring conformer: 94.27463448957913 kcal/mol)

>  <smiles>  (9) 
CN(C)CCOCCOCCNc1c2c([n+](C)c3ccccc13)CCCC2

>  <score_type>  (9) 
oracle

>  <origin>  (9) 
adg

>  <m_score__min__energy>  (9) 
-8.5700000000000003

>  <m_primary>  (9) 
energy

$$$$
9:0
     RDKit          3D

 32 33  0  0  0  0  0  0  0  0999 V2000
   -6.4870   18.1970  -33.4710 C   0  0  0  0  0  0  0  0  0  0  0  0
   -6.4720   19.6900  -33.7930 C   0  0  0  0  0  0  0  0  0  0  0  0
   -7.4000   20.4270  -32.9090 N   0  0  0  0  0  0  0  0  0  0  0  0
   -8.6980   19.7370  -32.7130 C   0  0  0  0  0  0  0  0  0  0  0  0
   -8.7260   19.0970  -31.3310 C   0  0  0  0  0  0  0  0  0  0  0  0
   -6.7980   20.9070  -31.6360 C   0  0  1  0  0  0  0  0  0  0  0  0
   -5.2380   20.8720  -31.6060 C   0  0  0  0  0  0  0  0  0  0  0  0
   -4.4350   22.2640  -32.4750 S   0  0  0  0  0  0  0  0  0  0  0  0
   -5.2180   23.4710  -31.4230 C   0  0  0  0  0  0  0  0  0  0  0  0
   -4.5830   24.4400  -30.8670 N   0  0  0  0  0  0  0  0  0  0  0  0
   -5.5170   25.2400  -30.0810 C   0  0  0  0  0  0  0  0  0  0  0  0
   -6.8800   24.5440  -30.2440 C   0  0  0  0  0  0  0  0  0  0  0  0
   -6.5910   23.4200  -31.1150 N   0  0  0  0  0  0  0  0  0  0  0  0
   -7.3950   22.2400  -31.2340 C   0  0  0  0  0  0  0  0  0  0  0  0
   -8.6290   22.3040  -30.9810 O   0  0  0  0  0  0  0  0  0  0  0  0
   -6.4884   18.0572  -32.3799 H   0  0  0  0  0  0  0  0  0  0  0  0
   -7.3898   17.7383  -33.9006 H   0  0  0  0  0  0  0  0  0  0  0  0
   -5.5936   17.7203  -33.9006 H   0  0  0  0  0  0  0  0  0  0  0  0
   -5.4530   20.0793  -33.6511 H   0  0  0  0  0  0  0  0  0  0  0  0
   -6.7932   19.8291  -34.8358 H   0  0  0  0  0  0  0  0  0  0  0  0
   -9.5176   20.4658  -32.7968 H   0  0  0  0  0  0  0  0  0  0  0  0
   -8.8208   18.9592  -33.4811 H   0  0  0  0  0  0  0  0  0  0  0  0
   -8.6916   19.8830  -30.5622 H   0  0  0  0  0  0  0  0  0  0  0  0
   -9.6506   18.5122  -31.2164 H   0  0  0  0  0  0  0  0  0  0  0  0
   -7.8560   18.4337  -31.2164 H   0  0  0  0  0  0  0  0  0  0  0  0
   -7.0715   20.1787  -30.8583 H   0  0  0  0  0  0  0  0  0  0  0  0
   -4.9136   20.8895  -30.5551 H   0  0  0  0  0  0  0  0  0  0  0  0
   -4.9344   19.9556  -32.1333 H   0  0  0  0  0  0  0  0  0  0  0  0
   -5.2160   25.2560  -29.0231 H   0  0  0  0  0  0  0  0  0  0  0  0
   -5.5467   26.2867  -30.4179 H   0  0  0  0  0  0  0  0  0  0  0  0
   -7.2627   24.1988  -29.2722 H   0  0  0  0  0  0  0  0  0  0  0  0
   -7.6531   25.2116  -30.6522 H   0  0  0  0  0  0  0  0  0  0  0  0
  1  2  1  0
  2  3  1  0
  3  4  1  0
  4  5  1  0
  3  6  1  0
  6  7  1  0
  7  8  1  0
  8  9  1  0
  9 10  2  0
 10 11  1  0
 11 12  1  0
 12 13  1  0
 13 14  1  0
 14 15  2  0
 14  6  1  0
 13  9  1  0
  1 16  1  0
  1 17  1  0
  1 18  1  0
  2 19  1  0
  2 20  1  0
  4 21  1  0
  4 22  1  0
  5 23  1  0
  5 24  1  0
  5 25  1  0
  6 26  1  1
  7 27  1  0
  7 28  1  0
 11 29  1  0
 11 30  1  0
 12 31  1  0
 12 32  1  0
M  END
>  <UniqueID>  (10) 
10

>  <SMILES>  (10) 
CCN(CC)[C@H]1CSC2=NCCN2C1=O

>  <Energy>  (10) 
51.14363771596026

>  <Genealogy>  (10) 
CCN(CC)[C@H]1CSC2=NCCN2C1=O (chirality)
CCN(CC)[C@H]1CSC2=NCCN2C1=O (3D coordinates assigned)
CCN(CC)[C@H]1CSC2=NCCN2C1=O (nonaromatic ring conformer: 51.14363771596026 kcal/mol)

>  <smiles>  (10) 
CCN(CC)C1CSC2=NCCN2C1=O

>  <score_type>  (10) 
oracle

>  <origin>  (10) 
adg

>  <m_score__min__energy>  (10) 
-6.4100000000000001

>  <m_primary>  (10) 
energy

$$$$
10:0
     RDKit          3D

 46 48  0  0  0  0  0  0  0  0999 V2000
   -0.8930   20.9730  -32.1050 C   0  0  0  0  0  0  0  0  0  0  0  0
   -0.9220   21.6450  -30.7360 C   0  0  0  0  0  0  0  0  0  0  0  0
   -2.1210   22.4830  -30.6010 N   0  0  0  0  0  0  0  0  0  0  0  0
   -2.8020   22.2470  -29.3190 C   0  0  0  0  0  0  0  0  0  0  0  0
   -2.7750   23.5140  -28.4600 C   0  0  0  0  0  0  0  0  0  0  0  0
   -2.6320   24.7380  -29.3110 C   0  0  0  0  0  0  0  0  0  0  0  0
   -1.8430   25.6540  -28.9560 O   0  0  0  0  0  0  0  0  0  0  0  0
   -3.4770   24.9000  -30.4590 N   0  0  0  0  0  0  0  0  0  0  0  0
   -4.8270   24.4350  -30.6010 C   0  0  0  0  0  0  0  0  0  0  0  0
   -5.8520   25.1620  -29.9860 C   0  0  0  0  0  0  0  0  0  0  0  0
   -7.1810   24.7460  -30.1010 C   0  0  0  0  0  0  0  0  0  0  0  0
   -7.4920   23.5830  -30.8100 C   0  0  0  0  0  0  0  0  0  0  0  0
   -6.4720   22.8150  -31.3920 C   0  0  0  0  0  0  0  0  0  0  0  0
   -6.8120   21.5860  -32.1390 C   0  0  0  0  0  0  0  0  0  0  0  0
   -8.0950   21.1190  -32.3920 C   0  0  0  0  0  0  0  0  0  0  0  0
   -8.0130   19.9880  -33.1270 N   0  0  0  0  0  0  0  0  0  0  0  0
   -6.6940   19.7790  -33.2960 C   0  0  0  0  0  0  0  0  0  0  0  0
   -6.1130   18.7090  -33.9740 C   0  0  0  0  0  0  0  0  0  0  0  0
   -4.7070   18.6330  -34.0020 C   0  0  0  0  0  0  0  0  0  0  0  0
   -4.0250   17.5230  -34.7450 C   0  0  0  0  0  0  0  0  0  0  0  0
   -3.9380   19.6340  -33.3670 C   0  0  0  0  0  0  0  0  0  0  0  0
   -4.5800   20.6860  -32.7000 C   0  0  0  0  0  0  0  0  0  0  0  0
   -5.9400   20.7250  -32.7090 N   0  0  0  0  0  0  0  0  0  0  0  0
   -5.1400   23.2500  -31.2930 C   0  0  0  0  0  0  0  0  0  0  0  0
   -0.8459   19.8815  -31.9768 H   0  0  0  0  0  0  0  0  0  0  0  0
   -1.8034   21.2377  -32.6628 H   0  0  0  0  0  0  0  0  0  0  0  0
   -0.0088   21.3152  -32.6628 H   0  0  0  0  0  0  0  0  0  0  0  0
   -0.9301   20.8722  -29.9532 H   0  0  0  0  0  0  0  0  0  0  0  0
   -0.0299   22.2800  -30.6318 H   0  0  0  0  0  0  0  0  0  0  0  0
   -1.8160   23.4840  -30.6160 H   0  0  0  0  0  0  0  0  0  0  0  0
   -3.8468   21.9611  -29.5107 H   0  0  0  0  0  0  0  0  0  0  0  0
   -2.2822   21.4401  -28.7817 H   0  0  0  0  0  0  0  0  0  0  0  0
   -3.7126   23.5810  -27.8886 H   0  0  0  0  0  0  0  0  0  0  0  0
   -1.9119   23.4576  -27.7804 H   0  0  0  0  0  0  0  0  0  0  0  0
   -5.6102   26.0665  -29.4085 H   0  0  0  0  0  0  0  0  0  0  0  0
   -7.9834   25.3349  -29.6327 H   0  0  0  0  0  0  0  0  0  0  0  0
   -8.5410   23.2680  -30.9124 H   0  0  0  0  0  0  0  0  0  0  0  0
   -9.0268   21.5928  -32.0497 H   0  0  0  0  0  0  0  0  0  0  0  0
   -8.8030   19.4020  -33.4770 H   0  0  0  0  0  0  0  0  0  0  0  0
   -6.7327   17.9483  -34.4713 H   0  0  0  0  0  0  0  0  0  0  0  0
   -3.5893   16.8139  -34.0258 H   0  0  0  0  0  0  0  0  0  0  0  0
   -4.7580   17.0003  -35.3771 H   0  0  0  0  0  0  0  0  0  0  0  0
   -3.2275   17.9407  -35.3771 H   0  0  0  0  0  0  0  0  0  0  0  0
   -2.8394   19.5876  -33.3961 H   0  0  0  0  0  0  0  0  0  0  0  0
   -3.9981   21.4621  -32.1813 H   0  0  0  0  0  0  0  0  0  0  0  0
   -4.3365   22.6608  -31.7592 H   0  0  0  0  0  0  0  0  0  0  0  0
  1  2  1  0
  2  3  1  0
  3  4  1  0
  4  5  1  0
  5  6  1  0
  6  7  2  0
  6  8  1  0
  8  9  1  0
  9 10  2  0
 10 11  1  0
 11 12  2  0
 12 13  1  0
 13 14  1  0
 14 15  2  0
 15 16  1  0
 16 17  2  0
 17 18  1  0
 18 19  2  0
 19 20  1  0
 19 21  1  0
 21 22  2  0
 22 23  1  0
 13 24  2  0
 24  9  1  0
 23 14  1  0
 23 17  1  0
  1 25  1  0
  1 26  1  0
  1 27  1  0
  2 28  1  0
  2 29  1  0
  3 30  1  0
  4 31  1  0
  4 32  1  0
  5 33  1  0
  5 34  1  0
 10 35  1  0
 11 36  1  0
 12 37  1  0
 15 38  1  0
 16 39  1  0
 18 40  1  0
 20 41  1  0
 20 42  1  0
 20 43  1  0
 21 44  1  0
 22 45  1  0
 24 46  1  0
M  CHG  2   8  -1  16   1
M  END
>  <UniqueID>  (11) 
11

>  <SMILES>  (11) 
CCNCCC(=O)[N-]c1cccc(-c2c[nH+]c3cc(C)ccn23)c1

>  <Energy>  (11) 
84.98031212941977

>  <Genealogy>  (11) 
CCNCCC(=O)[N-]c1cccc(-c2c[nH+]c3cc(C)ccn23)c1 (protonated)
CCNCCC(=O)[N-]c1cccc(-c2c[nH+]c3cc(C)ccn23)c1 (3D coordinates assigned)
CCNCCC(=O)[N-]c1cccc(-c2c[nH+]c3cc(C)ccn23)c1 (optimized conformer: 84.98031212941977 kcal/mol)

>  <smiles>  (11) 
CCNCCC(=O)Nc1cccc(-c2cnc3cc(C)ccn23)c1

>  <score_type>  (11) 
oracle

>  <origin>  (11) 
adg

>  <m_score__min__energy>  (11) 
-9.8699999999999992

>  <m_primary>  (11) 
energy

$$$$
11:0
     RDKit          3D

 50 52  0  0  0  0  0  0  0  0999 V2000
   -6.1690   25.3170  -29.4670 C   0  0  0  0  0  0  0  0  0  0  0  0
   -5.4230   25.3920  -30.7930 C   0  0  0  0  0  0  0  0  0  0  0  0
   -3.9810   25.2410  -30.5620 N   0  0  0  0  0  0  0  0  0  0  0  0
   -3.6800   24.2180  -29.5480 C   0  0  0  0  0  0  0  0  0  0  0  0
   -3.4900   22.8180  -30.1640 C   0  0  0  0  0  0  0  0  0  0  0  0
   -4.1680   22.6890  -31.4590 N   0  0  0  0  0  0  0  0  0  0  0  0
   -4.8090   21.4810  -31.9140 C   0  0  0  0  0  0  0  0  0  0  0  0
   -6.1590   21.2120  -31.6080 C   0  0  0  0  0  0  0  0  0  0  0  0
   -6.7480   19.9940  -32.0490 C   0  0  0  0  0  0  0  0  0  0  0  0
   -5.9410   19.0140  -32.6010 N   0  0  0  0  0  0  0  0  0  0  0  0
   -6.4250   17.6180  -32.6920 C   0  0  0  0  0  0  0  0  0  0  0  0
   -4.6670   19.3220  -33.0360 C   0  0  0  0  0  0  0  0  0  0  0  0
   -3.9270   18.4370  -33.8620 C   0  0  0  0  0  0  0  0  0  0  0  0
   -2.6240   18.7380  -34.2530 C   0  0  0  0  0  0  0  0  0  0  0  0
   -2.0280   19.9250  -33.8430 C   0  0  0  0  0  0  0  0  0  0  0  0
   -2.7410   20.8290  -33.0600 C   0  0  0  0  0  0  0  0  0  0  0  0
   -4.0690   20.5510  -32.6650 C   0  0  0  0  0  0  0  0  0  0  0  0
   -8.2480   19.7190  -31.8180 C   0  0  0  0  0  0  0  0  0  0  0  0
   -9.2890   20.7150  -32.3990 C   0  0  0  0  0  0  0  0  0  0  0  0
   -9.4030   22.0560  -31.6660 C   0  0  0  0  0  0  0  0  0  0  0  0
   -8.0840   22.8390  -31.6940 C   0  0  0  0  0  0  0  0  0  0  0  0
   -6.9830   22.2110  -30.8240 C   0  0  0  0  0  0  0  0  0  0  0  0
   -5.4503   25.3893  -28.6374 H   0  0  0  0  0  0  0  0  0  0  0  0
   -6.8875   26.1474  -29.4030 H   0  0  0  0  0  0  0  0  0  0  0  0
   -6.7078   24.3602  -29.4030 H   0  0  0  0  0  0  0  0  0  0  0  0
   -5.7731   24.5862  -31.4550 H   0  0  0  0  0  0  0  0  0  0  0  0
   -5.6152   26.3678  -31.2630 H   0  0  0  0  0  0  0  0  0  0  0  0
   -3.5130   24.9860  -31.4630 H   0  0  0  0  0  0  0  0  0  0  0  0
   -2.7555   24.5016  -29.0237 H   0  0  0  0  0  0  0  0  0  0  0  0
   -4.5354   24.1676  -28.8583 H   0  0  0  0  0  0  0  0  0  0  0  0
   -2.4146   22.6361  -30.3068 H   0  0  0  0  0  0  0  0  0  0  0  0
   -3.9308   22.0819  -29.4756 H   0  0  0  0  0  0  0  0  0  0  0  0
   -4.3910   23.5710  -31.9740 H   0  0  0  0  0  0  0  0  0  0  0  0
   -6.5658   17.2120  -31.6794 H   0  0  0  0  0  0  0  0  0  0  0  0
   -7.3830   17.5965  -33.2321 H   0  0  0  0  0  0  0  0  0  0  0  0
   -5.6859   17.0081  -33.2321 H   0  0  0  0  0  0  0  0  0  0  0  0
   -4.3896   17.4977  -34.1993 H   0  0  0  0  0  0  0  0  0  0  0  0
   -2.0654   18.0344  -34.8878 H   0  0  0  0  0  0  0  0  0  0  0  0
   -0.9923   20.1503  -34.1374 H   0  0  0  0  0  0  0  0  0  0  0  0
   -2.2654   21.7697  -32.7455 H   0  0  0  0  0  0  0  0  0  0  0  0
   -8.4666   18.7325  -32.2527 H   0  0  0  0  0  0  0  0  0  0  0  0
   -8.3708   19.8107  -30.7287 H   0  0  0  0  0  0  0  0  0  0  0  0
   -9.0127   20.9225  -33.4433 H   0  0  0  0  0  0  0  0  0  0  0  0
  -10.2682   20.2265  -32.2868 H   0  0  0  0  0  0  0  0  0  0  0  0
  -10.1850   22.6599  -32.1495 H   0  0  0  0  0  0  0  0  0  0  0  0
   -9.6536   21.8491  -30.6151 H   0  0  0  0  0  0  0  0  0  0  0  0
   -7.7256   22.8815  -32.7331 H   0  0  0  0  0  0  0  0  0  0  0  0
   -8.2909   23.8388  -31.2846 H   0  0  0  0  0  0  0  0  0  0  0  0
   -6.3214   23.0082  -30.4542 H   0  0  0  0  0  0  0  0  0  0  0  0
   -7.4635   21.6817  -29.9879 H   0  0  0  0  0  0  0  0  0  0  0  0
  1  2  1  0
  2  3  1  0
  3  4  1  0
  4  5  1  0
  5  6  1  0
  6  7  1  0
  7  8  2  0
  8  9  1  0
  9 10  2  0
 10 11  1  0
 10 12  1  0
 12 13  2  0
 13 14  1  0
 14 15  2  0
 15 16  1  0
 16 17  2  0
  9 18  1  0
 18 19  1  0
 19 20  1  0
 20 21  1  0
 21 22  1  0
 17  7  1  0
 22  8  1  0
 17 12  1  0
  1 23  1  0
  1 24  1  0
  1 25  1  0
  2 26  1  0
  2 27  1  0
  3 28  1  0
  4 29  1  0
  4 30  1  0
  5 31  1  0
  5 32  1  0
  6 33  1  0
 11 34  1  0
 11 35  1  0
 11 36  1  0
 13 37  1  0
 14 38  1  0
 15 39  1  0
 16 40  1  0
 18 41  1  0
 18 42  1  0
 19 43  1  0
 19 44  1  0
 20 45  1  0
 20 46  1  0
 21 47  1  0
 21 48  1  0
 22 49  1  0
 22 50  1  0
M  CHG  1  10   1
M  END
>  <UniqueID>  (12) 
12

>  <SMILES>  (12) 
CCNCCNc1c2c([n+](C)c3ccccc13)CCCCC2

>  <Energy>  (12) 
78.32256575026804

>  <Genealogy>  (12) 
CCNCCNc1c2c([n+](C)c3ccccc13)CCCCC2 (3D coordinates assigned)
CCNCCNc1c2c([n+](C)c3ccccc13)CCCCC2 (nonaromatic ring conformer: 78.32256575026804 kcal/mol)

>  <smiles>  (12) 
CCNCCNc1c2c([n+](C)c3ccccc13)CCCCC2

>  <score_type>  (12) 
oracle

>  <origin>  (12) 
adg

>  <m_score__min__energy>  (12) 
-7.1699999999999999

>  <m_primary>  (12) 
energy

$$$$
12:0
     RDKit          3D

 46 48  0  0  0  0  0  0  0  0999 V2000
   -0.8620   26.7570  -28.0670 C   0  0  0  0  0  0  0  0  0  0  0  0
   -1.4900   25.8390  -28.9560 O   0  0  0  0  0  0  0  0  0  0  0  0
   -1.5790   24.4520  -28.7420 C   0  0  0  0  0  0  0  0  0  0  0  0
   -0.4810   23.7070  -28.2760 C   0  0  0  0  0  0  0  0  0  0  0  0
   -0.5890   22.3300  -28.0790 C   0  0  0  0  0  0  0  0  0  0  0  0
   -1.7940   21.6580  -28.3470 C   0  0  0  0  0  0  0  0  0  0  0  0
   -1.8890   20.1880  -28.1330 C   0  0  0  0  0  0  0  0  0  0  0  0
   -2.7710   19.5960  -27.0730 C   0  0  0  0  0  0  0  0  0  0  0  0
   -1.2150   19.4040  -28.8550 O   0  0  0  0  0  0  0  0  0  0  0  0
   -2.8910   22.4030  -28.8150 C   0  0  0  0  0  0  0  0  0  0  0  0
   -2.7990   23.7930  -28.9990 C   0  0  0  0  0  0  0  0  0  0  0  0
   -4.0080   24.5470  -29.5040 C   0  0  0  0  0  0  0  0  0  0  0  0
   -4.2830   24.2160  -30.8660 O   0  0  0  0  0  0  0  0  0  0  0  0
   -4.9970   23.0860  -31.2960 C   0  0  0  0  0  0  0  0  0  0  0  0
   -6.3790   22.9360  -31.0870 C   0  0  0  0  0  0  0  0  0  0  0  0
   -7.0420   21.7870  -31.5270 C   0  0  0  0  0  0  0  0  0  0  0  0
   -6.3370   20.7610  -32.1900 C   0  0  0  0  0  0  0  0  0  0  0  0
   -6.9600   19.5750  -32.6550 C   0  0  0  0  0  0  0  0  0  0  0  0
   -8.4470   19.3670  -32.4350 C   0  0  0  0  0  0  0  0  0  0  0  0
   -6.1650   18.6050  -33.3210 C   0  0  0  0  0  0  0  0  0  0  0  0
   -6.7630   17.3200  -33.8500 C   0  0  0  0  0  0  0  0  0  0  0  0
   -4.7870   18.8620  -33.4830 C   0  0  0  0  0  0  0  0  0  0  0  0
   -4.0410   18.0300  -34.0640 O   0  0  0  0  0  0  0  0  0  0  0  0
   -4.2490   19.9850  -33.0280 O   0  0  0  0  0  0  0  0  0  0  0  0
   -4.9500   20.9230  -32.4050 C   0  0  0  0  0  0  0  0  0  0  0  0
   -4.2950   22.0760  -31.9600 C   0  0  0  0  0  0  0  0  0  0  0  0
   -1.0659   26.4590  -27.0280 H   0  0  0  0  0  0  0  0  0  0  0  0
    0.2238   26.7535  -28.2431 H   0  0  0  0  0  0  0  0  0  0  0  0
   -1.2588   27.7677  -28.2431 H   0  0  0  0  0  0  0  0  0  0  0  0
    0.4718   24.2146  -28.0649 H   0  0  0  0  0  0  0  0  0  0  0  0
    0.2788   21.7638  -27.7097 H   0  0  0  0  0  0  0  0  0  0  0  0
   -2.3783   19.8596  -26.0799 H   0  0  0  0  0  0  0  0  0  0  0  0
   -3.7912   19.9930  -27.1811 H   0  0  0  0  0  0  0  0  0  0  0  0
   -2.7901   18.5015  -27.1811 H   0  0  0  0  0  0  0  0  0  0  0  0
   -3.8370   21.8890  -29.0408 H   0  0  0  0  0  0  0  0  0  0  0  0
   -4.8798   24.2847  -28.8866 H   0  0  0  0  0  0  0  0  0  0  0  0
   -3.8018   25.6256  -29.4392 H   0  0  0  0  0  0  0  0  0  0  0  0
   -6.9427   23.7287  -30.5734 H   0  0  0  0  0  0  0  0  0  0  0  0
   -8.1233   21.6819  -31.3547 H   0  0  0  0  0  0  0  0  0  0  0  0
   -8.6574   19.3376  -31.3557 H   0  0  0  0  0  0  0  0  0  0  0  0
   -9.0052   20.1958  -32.8949 H   0  0  0  0  0  0  0  0  0  0  0  0
   -8.7563   18.4168  -32.8949 H   0  0  0  0  0  0  0  0  0  0  0  0
   -7.0609   16.6798  -33.0066 H   0  0  0  0  0  0  0  0  0  0  0  0
   -7.6457   17.5519  -34.4640 H   0  0  0  0  0  0  0  0  0  0  0  0
   -6.0171   16.7940  -34.4640 H   0  0  0  0  0  0  0  0  0  0  0  0
   -3.2149   22.1892  -32.1346 H   0  0  0  0  0  0  0  0  0  0  0  0
  1  2  1  0
  2  3  1  0
  3  4  2  0
  4  5  1  0
  5  6  2  0
  6  7  1  0
  7  8  1  0
  7  9  2  0
  6 10  1  0
 10 11  2  0
 11 12  1  0
 12 13  1  0
 13 14  1  0
 14 15  2  0
 15 16  1  0
 16 17  2  0
 17 18  1  0
 18 19  1  0
 18 20  2  0
 20 21  1  0
 20 22  1  0
 22 23  2  0
 22 24  1  0
 24 25  1  0
 25 26  2  0
 11  3  1  0
 26 14  1  0
 25 17  1  0
  1 27  1  0
  1 28  1  0
  1 29  1  0
  4 30  1  0
  5 31  1  0
  8 32  1  0
  8 33  1  0
  8 34  1  0
 10 35  1  0
 12 36  1  0
 12 37  1  0
 15 38  1  0
 16 39  1  0
 19 40  1  0
 19 41  1  0
 19 42  1  0
 21 43  1  0
 21 44  1  0
 21 45  1  0
 26 46  1  0
M  END
>  <UniqueID>  (13) 
13

>  <SMILES>  (13) 
COc1ccc(C(C)=O)cc1COc1ccc2c(C)c(C)c(=O)oc2c1

>  <Energy>  (13) 
57.69527715866562

>  <Genealogy>  (13) 
COc1ccc(C(C)=O)cc1COc1ccc2c(C)c(C)c(=O)oc2c1 (3D coordinates assigned)
COc1ccc(C(C)=O)cc1COc1ccc2c(C)c(C)c(=O)oc2c1 (optimized conformer: 57.69527715866562 kcal/mol)

>  <smiles>  (13) 
COc1ccc(C(C)=O)cc1COc1ccc2c(C)c(C)c(=O)oc2c1

>  <score_type>  (13) 
oracle

>  <origin>  (13) 
adg

>  <m_score__min__energy>  (13) 
-8.9499999999999993

>  <m_primary>  (13) 
energy

$$$$
13:0
     RDKit          3D

 50 53  0  0  0  0  0  0  0  0999 V2000
   -4.4900   13.3770  -31.4650 C   0  0  0  0  0  0  0  0  0  0  0  0
   -4.2940   13.8200  -32.9250 C   0  0  0  0  0  0  0  0  0  0  0  0
   -4.7900   15.1910  -33.2590 N   0  0  1  0  0  0  0  0  0  0  0  0
   -4.9960   15.9250  -31.9810 C   0  0  0  0  0  0  0  0  0  0  0  0
   -5.4910   17.3620  -32.2530 C   0  0  0  0  0  0  0  0  0  0  0  0
   -5.6510   17.6000  -33.7160 N   0  0  1  0  0  0  0  0  0  0  0  0
   -6.1620   19.0010  -33.8950 C   0  0  0  0  0  0  0  0  0  0  0  0
   -7.3960   19.4280  -33.0550 C   0  0  0  0  0  0  0  0  0  0  0  0
   -7.2460   20.7520  -32.3510 C   0  0  0  0  0  0  0  0  0  0  0  0
   -8.3830   21.4650  -31.9360 C   0  0  0  0  0  0  0  0  0  0  0  0
   -8.2520   22.6880  -31.2730 C   0  0  0  0  0  0  0  0  0  0  0  0
   -6.9790   23.2210  -31.0230 C   0  0  0  0  0  0  0  0  0  0  0  0
   -6.8360   24.4460  -30.3530 C   0  0  0  0  0  0  0  0  0  0  0  0
   -5.5620   24.9680  -30.1120 C   0  0  0  0  0  0  0  0  0  0  0  0
   -4.4260   24.2760  -30.5380 C   0  0  0  0  0  0  0  0  0  0  0  0
   -4.5550   23.0550  -31.2060 C   0  0  0  0  0  0  0  0  0  0  0  0
   -5.8280   22.5190  -31.4530 C   0  0  0  0  0  0  0  0  0  0  0  0
   -5.9710   21.2930  -32.1210 C   0  0  0  0  0  0  0  0  0  0  0  0
   -4.3270   17.3860  -34.3620 C   0  0  0  0  0  0  0  0  0  0  0  0
   -3.8030   15.9540  -34.0730 C   0  0  0  0  0  0  0  0  0  0  0  0
   -6.6170   16.5890  -34.2320 C   0  0  0  0  0  0  0  0  0  0  0  0
   -6.0900   15.1510  -33.9810 C   0  0  0  0  0  0  0  0  0  0  0  0
   -4.1385   14.1716  -30.7904 H   0  0  0  0  0  0  0  0  0  0  0  0
   -5.5572   13.1847  -31.2803 H   0  0  0  0  0  0  0  0  0  0  0  0
   -3.9145   12.4579  -31.2803 H   0  0  0  0  0  0  0  0  0  0  0  0
   -3.2170   13.7870  -33.1465 H   0  0  0  0  0  0  0  0  0  0  0  0
   -4.8957   13.1274  -33.5318 H   0  0  0  0  0  0  0  0  0  0  0  0
   -5.7448   15.3933  -31.3754 H   0  0  0  0  0  0  0  0  0  0  0  0
   -4.0379   15.9760  -31.4430 H   0  0  0  0  0  0  0  0  0  0  0  0
   -6.4610   17.5092  -31.7557 H   0  0  0  0  0  0  0  0  0  0  0  0
   -4.7472   18.0709  -31.8602 H   0  0  0  0  0  0  0  0  0  0  0  0
   -5.3392   19.6863  -33.6432 H   0  0  0  0  0  0  0  0  0  0  0  0
   -6.5065   19.0418  -34.9389 H   0  0  0  0  0  0  0  0  0  0  0  0
   -8.2636   19.4933  -33.7280 H   0  0  0  0  0  0  0  0  0  0  0  0
   -7.5170   18.6681  -32.2689 H   0  0  0  0  0  0  0  0  0  0  0  0
   -9.3850   21.0570  -32.1347 H   0  0  0  0  0  0  0  0  0  0  0  0
   -9.1493   23.2340  -30.9464 H   0  0  0  0  0  0  0  0  0  0  0  0
   -7.7276   24.9959  -30.0172 H   0  0  0  0  0  0  0  0  0  0  0  0
   -5.4536   25.9274  -29.5849 H   0  0  0  0  0  0  0  0  0  0  0  0
   -3.4263   24.6934  -30.3471 H   0  0  0  0  0  0  0  0  0  0  0  0
   -3.6572   22.5135  -31.5386 H   0  0  0  0  0  0  0  0  0  0  0  0
   -5.0778   20.7521  -32.4668 H   0  0  0  0  0  0  0  0  0  0  0  0
   -4.4291   17.5211  -35.4489 H   0  0  0  0  0  0  0  0  0  0  0  0
   -3.6113   18.1146  -33.9534 H   0  0  0  0  0  0  0  0  0  0  0  0
   -3.6377   15.4300  -35.0259 H   0  0  0  0  0  0  0  0  0  0  0  0
   -2.8599   16.0271  -33.5115 H   0  0  0  0  0  0  0  0  0  0  0  0
   -7.5813   16.7153  -33.7181 H   0  0  0  0  0  0  0  0  0  0  0  0
   -6.7403   16.7372  -35.3150 H   0  0  0  0  0  0  0  0  0  0  0  0
   -6.8231   14.5973  -33.3761 H   0  0  0  0  0  0  0  0  0  0  0  0
   -5.9434   14.6517  -34.9501 H   0  0  0  0  0  0  0  0  0  0  0  0
  1  2  1  0
  3  2  1  1
  3  4  1  0
  4  5  1  0
  5  6  1  0
  6  7  1  1
  7  8  1  0
  8  9  1  0
  9 10  2  0
 10 11  1  0
 11 12  2  0
 12 13  1  0
 13 14  2  0
 14 15  1  0
 15 16  2  0
 16 17  1  0
 17 18  2  0
  6 19  1  0
 19 20  1  0
  6 21  1  0
 21 22  1  0
 20  3  1  0
 22  3  1  0
 18  9  1  0
 17 12  1  0
  1 23  1  0
  1 24  1  0
  1 25  1  0
  2 26  1  0
  2 27  1  0
  4 28  1  0
  4 29  1  0
  5 30  1  0
  5 31  1  0
  7 32  1  0
  7 33  1  0
  8 34  1  0
  8 35  1  0
 10 36  1  0
 11 37  1  0
 13 38  1  0
 14 39  1  0
 15 40  1  0
 16 41  1  0
 18 42  1  0
 19 43  1  0
 19 44  1  0
 20 45  1  0
 20 46  1  0
 21 47  1  0
 21 48  1  0
 22 49  1  0
 22 50  1  0
M  CHG  2   3   1   6   1
M  END
>  <UniqueID>  (14) 
14

>  <SMILES>  (14) 
CC[N+]12CC[N+](CCc3ccc4ccccc4c3)(CC1)CC2

>  <Energy>  (14) 
84.7559157590518

>  <Genealogy>  (14) 
CC[N+]12CC[N+](CCc3ccc4ccccc4c3)(CC1)CC2 (3D coordinates assigned)
CC[N+]12CC[N+](CCc3ccc4ccccc4c3)(CC1)CC2 (nonaromatic ring conformer: 84.7559157590518 kcal/mol)

>  <smiles>  (14) 
CC[N+]12CC[N+](CCc3ccc4ccccc4c3)(CC1)CC2

>  <score_type>  (14) 
oracle

>  <origin>  (14) 
adg

>  <m_score__min__energy>  (14) 
-6.6600000000000001

>  <m_primary>  (14) 
energy

$$$$
14:0
     RDKit          3D

 64 66  0  0  0  0  0  0  0  0999 V2000
   -8.0210   20.2960  -32.3430 C   0  0  0  0  0  0  0  0  0  0  0  0
   -6.6040   19.7100  -32.2590 C   0  0  0  0  0  0  0  0  0  0  0  0
   -5.8670   19.6910  -33.5460 N   0  0  0  0  0  0  0  0  0  0  0  0
   -6.0310   18.4080  -34.2520 C   0  0  0  0  0  0  0  0  0  0  0  0
   -4.4330   20.0480  -33.4520 C   0  0  0  0  0  0  0  0  0  0  0  0
   -3.6650   19.1340  -32.4910 C   0  0  0  0  0  0  0  0  0  0  0  0
   -2.4890   19.7970  -32.0570 O   0  0  0  0  0  0  0  0  0  0  0  0
   -2.4530   21.1450  -32.4840 C   0  0  0  0  0  0  0  0  0  0  0  0
   -1.0470   21.5250  -32.9410 C   0  0  0  0  0  0  0  0  0  0  0  0
   -0.1290   21.2160  -31.9200 O   0  0  0  0  0  0  0  0  0  0  0  0
    0.7550   20.3330  -32.4510 N   0  0  0  0  0  0  0  0  0  0  0  0
    1.1080   19.1380  -31.7530 C   0  0  0  0  0  0  0  0  0  0  0  0
    2.1100   18.4660  -32.1170 O   0  0  0  0  0  0  0  0  0  0  0  0
    0.2870   18.6840  -30.5840 C   0  0  0  0  0  0  0  0  0  0  0  0
   -0.5040   19.8000  -30.0350 N   0  0  0  0  0  0  0  0  0  0  0  0
   -0.9720   19.5200  -28.6560 C   0  0  0  0  0  0  0  0  0  0  0  0
   -2.2450   20.3140  -28.2990 C   0  0  0  0  0  0  0  0  0  0  0  0
   -2.6670   21.2030  -29.3810 N   0  0  0  0  0  0  0  0  0  0  0  0
   -2.7820   22.5010  -29.5430 C   0  0  0  0  0  0  0  0  0  0  0  0
   -1.7440   23.2930  -28.9830 C   0  0  0  0  0  0  0  0  0  0  0  0
   -0.5670   22.7160  -28.4480 C   0  0  0  0  0  0  0  0  0  0  0  0
    0.4240   23.5170  -27.8770 C   0  0  0  0  0  0  0  0  0  0  0  0
    0.2590   24.9010  -27.8170 C   0  0  0  0  0  0  0  0  0  0  0  0
   -0.8980   25.4880  -28.3250 C   0  0  0  0  0  0  0  0  0  0  0  0
   -1.8940   24.6950  -28.9070 C   0  0  0  0  0  0  0  0  0  0  0  0
   -3.0120   25.2840  -29.3840 N   0  0  0  0  0  0  0  0  0  0  0  0
   -4.0020   24.5860  -29.9850 C   0  0  0  0  0  0  0  0  0  0  0  0
   -5.1040   25.2920  -30.4860 C   0  0  0  0  0  0  0  0  0  0  0  0
   -6.1040   24.6290  -31.1870 C   0  0  0  0  0  0  0  0  0  0  0  0
   -5.9950   23.2620  -31.4190 C   0  0  0  0  0  0  0  0  0  0  0  0
   -4.9060   22.5440  -30.9190 C   0  0  0  0  0  0  0  0  0  0  0  0
   -3.9070   23.1720  -30.1360 C   0  0  0  0  0  0  0  0  0  0  0  0
   -8.4117   20.4576  -31.3275 H   0  0  0  0  0  0  0  0  0  0  0  0
   -7.9899   21.2550  -32.8808 H   0  0  0  0  0  0  0  0  0  0  0  0
   -8.6764   19.5951  -32.8808 H   0  0  0  0  0  0  0  0  0  0  0  0
   -6.0261   20.3109  -31.5414 H   0  0  0  0  0  0  0  0  0  0  0  0
   -6.7182   18.6607  -31.9493 H   0  0  0  0  0  0  0  0  0  0  0  0
   -6.1348   17.5959  -33.5174 H   0  0  0  0  0  0  0  0  0  0  0  0
   -6.9312   18.4491  -34.8828 H   0  0  0  0  0  0  0  0  0  0  0  0
   -5.1494   18.2213  -34.8828 H   0  0  0  0  0  0  0  0  0  0  0  0
   -3.9825   19.9671  -34.4523 H   0  0  0  0  0  0  0  0  0  0  0  0
   -4.3679   21.0746  -33.0624 H   0  0  0  0  0  0  0  0  0  0  0  0
   -4.2972   18.8996  -31.6219 H   0  0  0  0  0  0  0  0  0  0  0  0
   -3.3944   18.2003  -33.0058 H   0  0  0  0  0  0  0  0  0  0  0  0
   -3.1539   21.2781  -33.3213 H   0  0  0  0  0  0  0  0  0  0  0  0
   -2.7399   21.7921  -31.6420 H   0  0  0  0  0  0  0  0  0  0  0  0
   -0.7904   20.9606  -33.8496 H   0  0  0  0  0  0  0  0  0  0  0  0
   -1.0080   22.6024  -33.1593 H   0  0  0  0  0  0  0  0  0  0  0  0
   -0.3949   17.8851  -30.9108 H   0  0  0  0  0  0  0  0  0  0  0  0
    0.9641   18.3128  -29.8006 H   0  0  0  0  0  0  0  0  0  0  0  0
    0.0580   20.6840  -30.0680 H   0  0  0  0  0  0  0  0  0  0  0  0
   -1.3410   19.9390  -30.6490 H   0  0  0  0  0  0  0  0  0  0  0  0
   -1.1885   18.4452  -28.5670 H   0  0  0  0  0  0  0  0  0  0  0  0
   -0.1768   19.8277  -27.9611 H   0  0  0  0  0  0  0  0  0  0  0  0
   -3.0576   19.6032  -28.0880 H   0  0  0  0  0  0  0  0  0  0  0  0
   -2.0178   20.9369  -27.4213 H   0  0  0  0  0  0  0  0  0  0  0  0
   -0.4318   21.6249  -28.4825 H   0  0  0  0  0  0  0  0  0  0  0  0
    1.3373   23.0555  -27.4734 H   0  0  0  0  0  0  0  0  0  0  0  0
    1.0427   25.5291  -27.3684 H   0  0  0  0  0  0  0  0  0  0  0  0
   -1.0293   26.5787  -28.2685 H   0  0  0  0  0  0  0  0  0  0  0  0
   -5.1778   26.3774  -30.3234 H   0  0  0  0  0  0  0  0  0  0  0  0
   -6.9789   25.1835  -31.5572 H   0  0  0  0  0  0  0  0  0  0  0  0
   -6.7714   22.7428  -32.0000 H   0  0  0  0  0  0  0  0  0  0  0  0
   -4.8228   21.4692  -31.1379 H   0  0  0  0  0  0  0  0  0  0  0  0
  1  2  1  0
  2  3  1  0
  3  4  1  0
  3  5  1  0
  5  6  1  0
  6  7  1  0
  7  8  1  0
  8  9  1  0
  9 10  1  0
 10 11  1  0
 11 12  1  0
 12 13  2  0
 12 14  1  0
 14 15  1  0
 15 16  1  0
 16 17  1  0
 17 18  1  0
 18 19  2  3
 19 20  1  0
 20 21  2  0
 21 22  1  0
 22 23  2  0
 23 24  1  0
 24 25  2  0
 25 26  1  0
 26 27  1  0
 27 28  2  0
 28 29  1  0
 29 30  2  0
 30 31  1  0
 31 32  2  0
 32 19  1  0
 25 20  1  0
 32 27  1  0
  1 33  1  0
  1 34  1  0
  1 35  1  0
  2 36  1  0
  2 37  1  0
  4 38  1  0
  4 39  1  0
  4 40  1  0
  5 41  1  0
  5 42  1  0
  6 43  1  0
  6 44  1  0
  8 45  1  0
  8 46  1  0
  9 47  1  0
  9 48  1  0
 14 49  1  0
 14 50  1  0
 15 51  1  0
 15 52  1  0
 16 53  1  0
 16 54  1  0
 17 55  1  0
 17 56  1  0
 21 57  1  0
 22 58  1  0
 23 59  1  0
 24 60  1  0
 28 61  1  0
 29 62  1  0
 30 63  1  0
 31 64  1  0
M  CHG  3  11  -1  15   1  26  -1
M  END
>  <UniqueID>  (15) 
15

>  <SMILES>  (15) 
CCN(C)CCOCCO[N-]C(=O)C[NH2+]CCN=c1c2ccccc2[n-]c2ccccc12

>  <Energy>  (15) 
89.32326536272838

>  <Genealogy>  (15) 
CCN(C)CCOCCO[N-]C(=O)C[NH2+]CCN=c1c2ccccc2[n-]c2ccccc12 (protonated)
CCN(C)CCOCCO[N-]C(=O)C[NH2+]CCN=c1c2ccccc2[n-]c2ccccc12 (3D coordinates assigned)
CCN(C)CCOCCO[N-]C(=O)C[NH2+]CCN=c1c2ccccc2[n-]c2ccccc12 (optimized conformer: 89.32326536272838 kcal/mol)

>  <smiles>  (15) 
CCN(C)CCOCCONC(=O)CNCCN=c1c2ccccc2[nH]c2ccccc12

>  <score_type>  (15) 
oracle

>  <origin>  (15) 
adg

>  <m_score__min__energy>  (15) 
-9.6300000000000008

>  <m_primary>  (15) 
energy

$$$$
15:0
     RDKit          3D

 56 58  0  0  0  0  0  0  0  0999 V2000
   -2.7960   24.9420  -26.4800 C   0  0  0  0  0  0  0  0  0  0  0  0
   -3.9820   24.2130  -27.1120 C   0  0  0  0  0  0  0  0  0  0  0  0
   -3.6120   23.4870  -28.4170 C   0  0  0  0  0  0  0  0  0  0  0  0
   -3.0860   24.4220  -29.5140 C   0  0  0  0  0  0  0  0  0  0  0  0
   -3.1190   23.7490  -30.8200 N   0  0  0  0  0  0  0  0  0  0  0  0
   -2.2590   22.5570  -30.8590 C   0  0  0  0  0  0  0  0  0  0  0  0
   -2.8260   21.4500  -31.7540 C   0  0  0  0  0  0  0  0  0  0  0  0
   -4.0390   21.9150  -32.4260 N   0  0  0  0  0  0  0  0  0  0  0  0
   -5.1920   21.0680  -32.5640 C   0  0  0  0  0  0  0  0  0  0  0  0
   -5.0330   19.7800  -33.1120 C   0  0  0  0  0  0  0  0  0  0  0  0
   -3.7940   19.3720  -33.6550 C   0  0  0  0  0  0  0  0  0  0  0  0
   -3.6450   18.1110  -34.2270 C   0  0  0  0  0  0  0  0  0  0  0  0
   -4.7290   17.2420  -34.2860 C   0  0  0  0  0  0  0  0  0  0  0  0
   -5.9620   17.6240  -33.7610 C   0  0  0  0  0  0  0  0  0  0  0  0
   -6.1350   18.8890  -33.1420 C   0  0  0  0  0  0  0  0  0  0  0  0
   -7.3430   19.2700  -32.5960 N   0  0  0  0  0  0  0  0  0  0  0  0
   -8.3870   18.2520  -32.3370 C   0  0  0  0  0  0  0  0  0  0  0  0
   -7.5720   20.5950  -32.2780 C   0  0  0  0  0  0  0  0  0  0  0  0
   -8.8830   21.0650  -32.0270 C   0  0  0  0  0  0  0  0  0  0  0  0
   -9.1190   22.3800  -31.6590 C   0  0  0  0  0  0  0  0  0  0  0  0
   -8.0660   23.2710  -31.5360 C   0  0  0  0  0  0  0  0  0  0  0  0
   -6.7450   22.8690  -31.8040 C   0  0  0  0  0  0  0  0  0  0  0  0
   -5.6860   23.7900  -31.6900 O   0  0  0  0  0  0  0  0  0  0  0  0
   -5.7720   25.1310  -31.2070 C   0  0  0  0  0  0  0  0  0  0  0  0
   -6.2590   25.1640  -29.7620 C   0  0  0  0  0  0  0  0  0  0  0  0
   -6.4890   21.5230  -32.2130 C   0  0  0  0  0  0  0  0  0  0  0  0
   -2.8768   24.8923  -25.3841 H   0  0  0  0  0  0  0  0  0  0  0  0
   -1.8586   24.4639  -26.8006 H   0  0  0  0  0  0  0  0  0  0  0  0
   -2.7993   25.9942  -26.8006 H   0  0  0  0  0  0  0  0  0  0  0  0
   -4.3617   23.4717  -26.3935 H   0  0  0  0  0  0  0  0  0  0  0  0
   -4.7411   24.9698  -27.3590 H   0  0  0  0  0  0  0  0  0  0  0  0
   -2.8337   22.7429  -28.1920 H   0  0  0  0  0  0  0  0  0  0  0  0
   -4.5339   23.0262  -28.8015 H   0  0  0  0  0  0  0  0  0  0  0  0
   -3.7154   25.3232  -29.5547 H   0  0  0  0  0  0  0  0  0  0  0  0
   -2.0468   24.6970  -29.2804 H   0  0  0  0  0  0  0  0  0  0  0  0
   -4.1060   23.4760  -31.0410 H   0  0  0  0  0  0  0  0  0  0  0  0
   -1.2702   22.8484  -31.2428 H   0  0  0  0  0  0  0  0  0  0  0  0
   -2.1958   22.1583  -29.8357 H   0  0  0  0  0  0  0  0  0  0  0  0
   -2.0756   21.1734  -32.5092 H   0  0  0  0  0  0  0  0  0  0  0  0
   -3.0727   20.5769  -31.1321 H   0  0  0  0  0  0  0  0  0  0  0  0
   -4.0720   22.8910  -32.7980 H   0  0  0  0  0  0  0  0  0  0  0  0
   -2.9358   20.0595  -33.6255 H   0  0  0  0  0  0  0  0  0  0  0  0
   -2.6700   17.8024  -34.6321 H   0  0  0  0  0  0  0  0  0  0  0  0
   -4.6129   16.2506  -34.7482 H   0  0  0  0  0  0  0  0  0  0  0  0
   -6.8155   16.9333  -33.8276 H   0  0  0  0  0  0  0  0  0  0  0  0
   -8.5156   18.1266  -31.2518 H   0  0  0  0  0  0  0  0  0  0  0  0
   -9.3374   18.5797  -32.7834 H   0  0  0  0  0  0  0  0  0  0  0  0
   -8.0834   17.2936  -32.7834 H   0  0  0  0  0  0  0  0  0  0  0  0
   -9.7319   20.3725  -32.1260 H   0  0  0  0  0  0  0  0  0  0  0  0
  -10.1475   22.7177  -31.4637 H   0  0  0  0  0  0  0  0  0  0  0  0
   -8.2653   24.3070  -31.2245 H   0  0  0  0  0  0  0  0  0  0  0  0
   -4.7771   25.5970  -31.2615 H   0  0  0  0  0  0  0  0  0  0  0  0
   -6.4915   25.6816  -31.8308 H   0  0  0  0  0  0  0  0  0  0  0  0
   -5.3958   25.1055  -29.0827 H   0  0  0  0  0  0  0  0  0  0  0  0
   -6.8055   26.1012  -29.5806 H   0  0  0  0  0  0  0  0  0  0  0  0
   -6.9269   24.3091  -29.5806 H   0  0  0  0  0  0  0  0  0  0  0  0
  1  2  1  0
  2  3  1  0
  3  4  1  0
  4  5  1  0
  5  6  1  0
  6  7  1  0
  7  8  1  0
  8  9  1  0
  9 10  2  0
 10 11  1  0
 11 12  2  0
 12 13  1  0
 13 14  2  0
 14 15  1  0
 15 16  2  0
 16 17  1  0
 16 18  1  0
 18 19  2  0
 19 20  1  0
 20 21  2  0
 21 22  1  0
 22 23  1  0
 23 24  1  0
 24 25  1  0
 22 26  2  0
 26  9  1  0
 15 10  1  0
 26 18  1  0
  1 27  1  0
  1 28  1  0
  1 29  1  0
  2 30  1  0
  2 31  1  0
  3 32  1  0
  3 33  1  0
  4 34  1  0
  4 35  1  0
  5 36  1  0
  6 37  1  0
  6 38  1  0
  7 39  1  0
  7 40  1  0
  8 41  1  0
 11 42  1  0
 12 43  1  0
 13 44  1  0
 14 45  1  0
 17 46  1  0
 17 47  1  0
 17 48  1  0
 19 49  1  0
 20 50  1  0
 21 51  1  0
 24 52  1  0
 24 53  1  0
 25 54  1  0
 25 55  1  0
 25 56  1  0
M  CHG  1  16   1
M  END
>  <UniqueID>  (16) 
16

>  <SMILES>  (16) 
CCCCNCCNc1c2ccccc2[n+](C)c2cccc(OCC)c12

>  <Energy>  (16) 
77.58740562070959

>  <Genealogy>  (16) 
CCCCNCCNc1c2ccccc2[n+](C)c2cccc(OCC)c12 (3D coordinates assigned)
CCCCNCCNc1c2ccccc2[n+](C)c2cccc(OCC)c12 (optimized conformer: 77.58740562070959 kcal/mol)

>  <smiles>  (16) 
CCCCNCCNc1c2ccccc2[n+](C)c2cccc(OCC)c12

>  <score_type>  (16) 
oracle

>  <origin>  (16) 
adg

>  <m_score__min__energy>  (16) 
-7.8200000000000003

>  <m_primary>  (16) 
energy

$$$$
16:0
     RDKit          3D

 50 53  0  0  0  0  0  0  0  0999 V2000
   -7.2540   17.4420  -33.0570 C   0  0  0  0  0  0  0  0  0  0  0  0
   -7.2360   18.9070  -32.7310 C   0  0  0  0  0  0  0  0  0  0  0  0
   -8.3880   19.5760  -32.2870 C   0  0  0  0  0  0  0  0  0  0  0  0
   -8.3760   20.9690  -31.9940 C   0  0  0  0  0  0  0  0  0  0  0  0
   -9.6640   21.5970  -31.5170 C   0  0  0  0  0  0  0  0  0  0  0  0
   -7.2160   21.7170  -32.1390 N   0  0  0  0  0  0  0  0  0  0  0  0
   -7.1880   23.1660  -31.8460 C   0  0  0  0  0  0  0  0  0  0  0  0
   -6.1110   23.5030  -30.8420 C   0  0  0  0  0  0  0  0  0  0  0  0
   -5.8970   22.6730  -29.7290 C   0  0  0  0  0  0  0  0  0  0  0  0
   -4.8930   22.9720  -28.8050 C   0  0  0  0  0  0  0  0  0  0  0  0
   -4.0760   24.1000  -28.9800 C   0  0  0  0  0  0  0  0  0  0  0  0
   -3.0320   24.4010  -28.0340 N   0  0  0  0  0  0  0  0  0  0  0  0
   -1.6170   24.2640  -28.4060 C   0  0  0  0  0  0  0  0  0  0  0  0
   -0.8740   25.5910  -28.1880 C   0  0  0  0  0  0  0  0  0  0  0  0
   -1.3600   26.3700  -26.9460 C   0  0  0  0  0  0  0  0  0  0  0  0
   -2.1630   25.4950  -25.9760 C   0  0  0  0  0  0  0  0  0  0  0  0
   -3.3790   24.8860  -26.6880 C   0  0  0  0  0  0  0  0  0  0  0  0
   -4.2720   24.9150  -30.1070 C   0  0  0  0  0  0  0  0  0  0  0  0
   -5.2780   24.6180  -31.0300 C   0  0  0  0  0  0  0  0  0  0  0  0
   -6.0930   21.0710  -32.5790 C   0  0  0  0  0  0  0  0  0  0  0  0
   -4.8230   21.5590  -32.8420 C   0  0  0  0  0  0  0  0  0  0  0  0
   -4.0550   20.4890  -33.2890 C   0  0  0  0  0  0  0  0  0  0  0  0
   -4.8220   19.3300  -33.3140 C   0  0  0  0  0  0  0  0  0  0  0  0
   -6.0860   19.6690  -32.8820 C   0  0  0  0  0  0  0  0  0  0  0  0
   -7.2612   16.8589  -32.1243 H   0  0  0  0  0  0  0  0  0  0  0  0
   -8.1551   17.2078  -33.6428 H   0  0  0  0  0  0  0  0  0  0  0  0
   -6.3589   17.1857  -33.6428 H   0  0  0  0  0  0  0  0  0  0  0  0
   -9.3228   19.0097  -32.1625 H   0  0  0  0  0  0  0  0  0  0  0  0
   -9.6823   21.6059  -30.4172 H   0  0  0  0  0  0  0  0  0  0  0  0
   -9.7303   22.6285  -31.8932 H   0  0  0  0  0  0  0  0  0  0  0  0
  -10.5175   21.0140  -31.8932 H   0  0  0  0  0  0  0  0  0  0  0  0
   -6.9933   23.7163  -32.7784 H   0  0  0  0  0  0  0  0  0  0  0  0
   -8.1610   23.4527  -31.4203 H   0  0  0  0  0  0  0  0  0  0  0  0
   -6.5245   21.7813  -29.5841 H   0  0  0  0  0  0  0  0  0  0  0  0
   -4.7414   22.3184  -27.9333 H   0  0  0  0  0  0  0  0  0  0  0  0
   -1.1533   23.4830  -27.7855 H   0  0  0  0  0  0  0  0  0  0  0  0
   -1.5530   23.9902  -29.4695 H   0  0  0  0  0  0  0  0  0  0  0  0
    0.1976   25.3746  -28.0664 H   0  0  0  0  0  0  0  0  0  0  0  0
   -1.0739   26.2228  -29.0660 H   0  0  0  0  0  0  0  0  0  0  0  0
   -0.4830   26.7697  -26.4158 H   0  0  0  0  0  0  0  0  0  0  0  0
   -2.0243   27.1736  -27.2966 H   0  0  0  0  0  0  0  0  0  0  0  0
   -1.5198   24.6856  -25.6003 H   0  0  0  0  0  0  0  0  0  0  0  0
   -2.5134   26.1176  -25.1396 H   0  0  0  0  0  0  0  0  0  0  0  0
   -3.7569   24.0428  -26.0911 H   0  0  0  0  0  0  0  0  0  0  0  0
   -4.1450   25.6687  -26.7911 H   0  0  0  0  0  0  0  0  0  0  0  0
   -3.6288   25.7934  -30.2641 H   0  0  0  0  0  0  0  0  0  0  0  0
   -5.4186   25.2622  -31.9104 H   0  0  0  0  0  0  0  0  0  0  0  0
   -4.4852   22.5987  -32.7200 H   0  0  0  0  0  0  0  0  0  0  0  0
   -2.9960   20.5509  -33.5800 H   0  0  0  0  0  0  0  0  0  0  0  0
   -4.4834   18.3295  -33.6211 H   0  0  0  0  0  0  0  0  0  0  0  0
  1  2  1  0
  2  3  1  0
  3  4  2  0
  4  5  1  0
  4  6  1  0
  6  7  1  0
  7  8  1  0
  8  9  2  0
  9 10  1  0
 10 11  2  0
 11 12  1  0
 12 13  1  0
 13 14  1  0
 14 15  1  0
 15 16  1  0
 16 17  1  0
 11 18  1  0
 18 19  2  0
  6 20  1  0
 20 21  2  0
 21 22  1  0
 22 23  2  0
 23 24  1  0
 24  2  2  0
 19  8  1  0
 24 20  1  0
 17 12  1  0
  1 25  1  0
  1 26  1  0
  1 27  1  0
  3 28  1  0
  5 29  1  0
  5 30  1  0
  5 31  1  0
  7 32  1  0
  7 33  1  0
  9 34  1  0
 10 35  1  0
 13 36  1  0
 13 37  1  0
 14 38  1  0
 14 39  1  0
 15 40  1  0
 15 41  1  0
 16 42  1  0
 16 43  1  0
 17 44  1  0
 17 45  1  0
 18 46  1  0
 19 47  1  0
 21 48  1  0
 22 49  1  0
 23 50  1  0
M  END
>  <UniqueID>  (17) 
17

>  <SMILES>  (17) 
Cc1cc(C)n(Cc2ccc(N3CCCCC3)cc2)c2cccc1-2

>  <Energy>  (17) 
90.13799514988531

>  <Genealogy>  (17) 
Cc1cc(C)n(Cc2ccc(N3CCCCC3)cc2)c2cccc1-2 (3D coordinates assigned)
Cc1cc(C)n(Cc2ccc(N3CCCCC3)cc2)c2cccc1-2 (nonaromatic ring conformer: 90.13799514988531 kcal/mol)

>  <smiles>  (17) 
Cc1cc(C)n(Cc2ccc(N3CCCCC3)cc2)c2cccc1-2

>  <score_type>  (17) 
oracle

>  <origin>  (17) 
adg

>  <m_score__min__energy>  (17) 
-9.0999999999999996

>  <m_primary>  (17) 
energy

$$$$
17:0
     RDKit          3D

 67 70  0  0  0  0  0  0  0  0999 V2000
   -0.7450   21.3880  -31.7320 C   0  0  0  0  0  0  0  0  0  0  0  0
   -1.8670   22.2460  -31.1530 C   0  0  0  0  0  0  0  0  0  0  0  0
   -3.1940   21.7080  -31.5350 N   0  0  0  0  0  0  0  0  0  0  0  0
   -3.6870   20.7320  -30.5350 C   0  0  0  0  0  0  0  0  0  0  0  0
   -2.9550   20.8960  -29.2020 C   0  0  0  0  0  0  0  0  0  0  0  0
   -3.1850   21.1380  -32.9070 C   0  0  0  0  0  0  0  0  0  0  0  0
   -4.5260   21.2230  -33.4820 N   0  0  0  0  0  0  0  0  0  0  0  0
   -5.6170   20.4720  -32.9220 C   0  0  0  0  0  0  0  0  0  0  0  0
   -5.7000   19.0920  -33.1990 C   0  0  0  0  0  0  0  0  0  0  0  0
   -4.6300   18.4140  -33.8250 C   0  0  0  0  0  0  0  0  0  0  0  0
   -4.7160   17.0540  -34.1120 C   0  0  0  0  0  0  0  0  0  0  0  0
   -5.8740   16.3490  -33.8060 C   0  0  0  0  0  0  0  0  0  0  0  0
   -6.9500   17.0000  -33.2060 C   0  0  0  0  0  0  0  0  0  0  0  0
   -6.8830   18.3790  -32.8710 C   0  0  0  0  0  0  0  0  0  0  0  0
   -7.9540   19.0390  -32.3010 N   0  0  0  0  0  0  0  0  0  0  0  0
   -9.1070   18.2680  -31.7820 C   0  0  0  0  0  0  0  0  0  0  0  0
   -7.9340   20.4150  -32.1790 C   0  0  0  0  0  0  0  0  0  0  0  0
   -9.1220   21.1490  -31.9510 C   0  0  0  0  0  0  0  0  0  0  0  0
   -9.0880   22.5250  -31.7580 C   0  0  0  0  0  0  0  0  0  0  0  0
   -7.8710   23.1870  -31.6860 C   0  0  0  0  0  0  0  0  0  0  0  0
   -6.6620   22.4900  -31.8630 C   0  0  0  0  0  0  0  0  0  0  0  0
   -5.4280   23.1320  -31.4430 N   0  0  0  0  0  0  0  0  0  0  0  0
   -5.6060   24.5530  -31.0750 C   0  0  0  0  0  0  0  0  0  0  0  0
   -5.3260   24.8570  -29.5830 C   0  0  0  0  0  0  0  0  0  0  0  0
   -4.2350   24.0170  -29.0390 N   0  0  0  0  0  0  0  0  0  0  0  0
   -2.9170   24.5560  -29.4090 C   0  0  0  0  0  0  0  0  0  0  0  0
   -1.9470   24.2390  -28.2780 C   0  0  0  0  0  0  0  0  0  0  0  0
   -2.7990   23.6980  -27.1460 C   0  0  0  0  0  0  0  0  0  0  0  0
   -4.2330   23.9450  -27.5730 C   0  0  0  0  0  0  0  0  0  0  0  0
   -6.7130   21.1320  -32.3130 C   0  0  0  0  0  0  0  0  0  0  0  0
   -0.1630   20.9430  -30.9115 H   0  0  0  0  0  0  0  0  0  0  0  0
   -1.1773   20.5879  -32.3509 H   0  0  0  0  0  0  0  0  0  0  0  0
   -0.0862   22.0148  -32.3509 H   0  0  0  0  0  0  0  0  0  0  0  0
   -1.7841   22.2552  -30.0562 H   0  0  0  0  0  0  0  0  0  0  0  0
   -1.7723   23.2661  -31.5537 H   0  0  0  0  0  0  0  0  0  0  0  0
   -4.7636   20.8923  -30.3763 H   0  0  0  0  0  0  0  0  0  0  0  0
   -3.5005   19.7166  -30.9147 H   0  0  0  0  0  0  0  0  0  0  0  0
   -3.6615   20.7377  -28.3738 H   0  0  0  0  0  0  0  0  0  0  0  0
   -2.1422   20.1577  -29.1368 H   0  0  0  0  0  0  0  0  0  0  0  0
   -2.5349   21.9105  -29.1368 H   0  0  0  0  0  0  0  0  0  0  0  0
   -2.4811   21.7047  -33.5342 H   0  0  0  0  0  0  0  0  0  0  0  0
   -2.8726   20.0842  -32.8628 H   0  0  0  0  0  0  0  0  0  0  0  0
   -4.7410   21.9900  -34.1610 H   0  0  0  0  0  0  0  0  0  0  0  0
   -3.7170   18.9677  -34.0891 H   0  0  0  0  0  0  0  0  0  0  0  0
   -3.8662   16.5370  -34.5816 H   0  0  0  0  0  0  0  0  0  0  0  0
   -5.9412   15.2758  -34.0378 H   0  0  0  0  0  0  0  0  0  0  0  0
   -7.8686   16.4356  -32.9876 H   0  0  0  0  0  0  0  0  0  0  0  0
   -9.0903   18.2791  -30.6822 H   0  0  0  0  0  0  0  0  0  0  0  0
  -10.0428   18.7227  -32.1392 H   0  0  0  0  0  0  0  0  0  0  0  0
   -9.0443   17.2295  -32.1392 H   0  0  0  0  0  0  0  0  0  0  0  0
  -10.0875   20.6224  -31.9261 H   0  0  0  0  0  0  0  0  0  0  0  0
  -10.0271   23.0897  -31.6622 H   0  0  0  0  0  0  0  0  0  0  0  0
   -7.8512   24.2689  -31.4883 H   0  0  0  0  0  0  0  0  0  0  0  0
   -4.7450   23.0790  -32.2360 H   0  0  0  0  0  0  0  0  0  0  0  0
   -4.9970   22.6710  -30.6220 H   0  0  0  0  0  0  0  0  0  0  0  0
   -4.9191   25.1572  -31.6859 H   0  0  0  0  0  0  0  0  0  0  0  0
   -6.6626   24.7989  -31.2570 H   0  0  0  0  0  0  0  0  0  0  0  0
   -5.0422   25.9151  -29.4838 H   0  0  0  0  0  0  0  0  0  0  0  0
   -6.2409   24.6343  -29.0143 H   0  0  0  0  0  0  0  0  0  0  0  0
   -2.5699   24.0871  -30.3415 H   0  0  0  0  0  0  0  0  0  0  0  0
   -2.9784   25.6428  -29.5678 H   0  0  0  0  0  0  0  0  0  0  0  0
   -1.2146   23.4846  -28.6011 H   0  0  0  0  0  0  0  0  0  0  0  0
   -1.3789   25.1289  -27.9690 H   0  0  0  0  0  0  0  0  0  0  0  0
   -2.6179   22.6219  -27.0075 H   0  0  0  0  0  0  0  0  0  0  0  0
   -2.5661   24.1853  -26.1877 H   0  0  0  0  0  0  0  0  0  0  0  0
   -4.8762   23.1195  -27.2339 H   0  0  0  0  0  0  0  0  0  0  0  0
   -4.6202   24.8757  -27.1326 H   0  0  0  0  0  0  0  0  0  0  0  0
  1  2  1  0
  2  3  1  0
  3  4  1  0
  4  5  1  0
  3  6  1  0
  6  7  1  0
  7  8  1  0
  8  9  2  0
  9 10  1  0
 10 11  2  0
 11 12  1  0
 12 13  2  0
 13 14  1  0
 14 15  2  0
 15 16  1  0
 15 17  1  0
 17 18  2  0
 18 19  1  0
 19 20  2  0
 20 21  1  0
 21 22  1  0
 22 23  1  0
 23 24  1  0
 24 25  1  0
 25 26  1  0
 26 27  1  0
 27 28  1  0
 28 29  1  0
 21 30  2  0
 30  8  1  0
 14  9  1  0
 30 17  1  0
 29 25  1  0
  1 31  1  0
  1 32  1  0
  1 33  1  0
  2 34  1  0
  2 35  1  0
  4 36  1  0
  4 37  1  0
  5 38  1  0
  5 39  1  0
  5 40  1  0
  6 41  1  0
  6 42  1  0
  7 43  1  0
 10 44  1  0
 11 45  1  0
 12 46  1  0
 13 47  1  0
 16 48  1  0
 16 49  1  0
 16 50  1  0
 18 51  1  0
 19 52  1  0
 20 53  1  0
 22 54  1  0
 22 55  1  0
 23 56  1  0
 23 57  1  0
 24 58  1  0
 24 59  1  0
 26 60  1  0
 26 61  1  0
 27 62  1  0
 27 63  1  0
 28 64  1  0
 28 65  1  0
 29 66  1  0
 29 67  1  0
M  CHG  2  15   1  22   1
M  END
>  <UniqueID>  (18) 
18

>  <SMILES>  (18) 
CCN(CC)CNc1c2ccccc2[n+](C)c2cccc([NH2+]CCN3CCCC3)c12

>  <Energy>  (18) 
112.9932521710785

>  <Genealogy>  (18) 
CCN(CC)CNc1c2ccccc2[n+](C)c2cccc([NH2+]CCN3CCCC3)c12 (protonated)
CCN(CC)CNc1c2ccccc2[n+](C)c2cccc([NH2+]CCN3CCCC3)c12 (3D coordinates assigned)
CCN(CC)CNc1c2ccccc2[n+](C)c2cccc([NH2+]CCN3CCCC3)c12 (nonaromatic ring conformer: 112.9932521710785 kcal/mol)

>  <smiles>  (18) 
CCN(CC)CNc1c2ccccc2[n+](C)c2cccc(NCCN3CCCC3)c12

>  <score_type>  (18) 
oracle

>  <origin>  (18) 
adg

>  <m_score__min__energy>  (18) 
-8.0600000000000005

>  <m_primary>  (18) 
energy

$$$$
18:0
     RDKit          3D

 47 49  0  0  0  0  0  0  0  0999 V2000
   -5.7560   25.5230  -30.3600 C   0  0  0  0  0  0  0  0  0  0  0  0
   -4.9400   24.2640  -30.0840 C   0  0  0  0  0  0  0  0  0  0  0  0
   -4.3560   23.7820  -31.2810 O   0  0  0  0  0  0  0  0  0  0  0  0
   -3.5550   22.6400  -31.0410 C   0  0  0  0  0  0  0  0  0  0  0  0
   -3.4290   21.8050  -32.3240 C   0  0  0  0  0  0  0  0  0  0  0  0
   -4.5580   22.0160  -33.2530 N   0  0  0  0  0  0  0  0  0  0  0  0
   -5.6470   21.0810  -33.0040 C   0  0  0  0  0  0  0  0  0  0  0  0
   -5.4660   19.6990  -33.2730 C   0  0  0  0  0  0  0  0  0  0  0  0
   -6.5260   18.7990  -33.0610 C   0  0  0  0  0  0  0  0  0  0  0  0
   -7.6800   19.2050  -32.4350 N   0  0  0  0  0  0  0  0  0  0  0  0
   -8.6170   18.1900  -31.9080 C   0  0  0  0  0  0  0  0  0  0  0  0
   -7.9400   20.5510  -32.2770 C   0  0  0  0  0  0  0  0  0  0  0  0
   -9.2280   21.0070  -31.8940 C   0  0  0  0  0  0  0  0  0  0  0  0
   -9.4820   22.3590  -31.6860 C   0  0  0  0  0  0  0  0  0  0  0  0
   -8.4730   23.2900  -31.8630 C   0  0  0  0  0  0  0  0  0  0  0  0
   -7.2100   22.8850  -32.2830 C   0  0  0  0  0  0  0  0  0  0  0  0
   -6.9180   21.5170  -32.5250 C   0  0  0  0  0  0  0  0  0  0  0  0
   -6.3490   17.3990  -33.6310 C   0  0  0  0  0  0  0  0  0  0  0  0
   -5.0270   16.7820  -33.1590 C   0  0  0  0  0  0  0  0  0  0  0  0
   -3.8420   17.7760  -33.1800 C   0  0  0  0  0  0  0  0  0  0  0  0
   -4.1770   19.1230  -33.8450 C   0  0  0  0  0  0  0  0  0  0  0  0
   -6.0542   25.9831  -29.4064 H   0  0  0  0  0  0  0  0  0  0  0  0
   -5.1474   26.2354  -30.9363 H   0  0  0  0  0  0  0  0  0  0  0  0
   -6.6548   25.2584  -30.9363 H   0  0  0  0  0  0  0  0  0  0  0  0
   -4.1445   24.4988  -29.3615 H   0  0  0  0  0  0  0  0  0  0  0  0
   -5.6057   23.4898  -29.6748 H   0  0  0  0  0  0  0  0  0  0  0  0
   -2.5542   22.9595  -30.7150 H   0  0  0  0  0  0  0  0  0  0  0  0
   -4.0259   22.0279  -30.2577 H   0  0  0  0  0  0  0  0  0  0  0  0
   -2.4956   22.0834  -32.8351 H   0  0  0  0  0  0  0  0  0  0  0  0
   -3.4315   20.7443  -32.0325 H   0  0  0  0  0  0  0  0  0  0  0  0
   -4.2170   21.9010  -34.2330 H   0  0  0  0  0  0  0  0  0  0  0  0
   -4.8580   23.0130  -33.2420 H   0  0  0  0  0  0  0  0  0  0  0  0
   -8.5986   18.2099  -30.8083 H   0  0  0  0  0  0  0  0  0  0  0  0
   -9.6347   18.4117  -32.2618 H   0  0  0  0  0  0  0  0  0  0  0  0
   -8.3148   17.1932  -32.2618 H   0  0  0  0  0  0  0  0  0  0  0  0
  -10.0407   20.2781  -31.7591 H   0  0  0  0  0  0  0  0  0  0  0  0
  -10.4860   22.6886  -31.3805 H   0  0  0  0  0  0  0  0  0  0  0  0
   -8.6707   24.3549  -31.6707 H   0  0  0  0  0  0  0  0  0  0  0  0
   -6.4228   23.6391  -32.4303 H   0  0  0  0  0  0  0  0  0  0  0  0
   -7.1830   16.7650  -33.2956 H   0  0  0  0  0  0  0  0  0  0  0  0
   -6.3353   17.4645  -34.7290 H   0  0  0  0  0  0  0  0  0  0  0  0
   -5.1597   16.4196  -32.1289 H   0  0  0  0  0  0  0  0  0  0  0  0
   -4.7808   15.9690  -33.8578 H   0  0  0  0  0  0  0  0  0  0  0  0
   -3.5316   17.9685  -32.1424 H   0  0  0  0  0  0  0  0  0  0  0  0
   -3.0434   17.3120  -33.7774 H   0  0  0  0  0  0  0  0  0  0  0  0
   -3.3539   19.8299  -33.6640 H   0  0  0  0  0  0  0  0  0  0  0  0
   -4.3101   18.9613  -34.9249 H   0  0  0  0  0  0  0  0  0  0  0  0
  1  2  1  0
  2  3  1  0
  3  4  1  0
  4  5  1  0
  5  6  1  0
  6  7  1  0
  7  8  2  0
  8  9  1  0
  9 10  2  0
 10 11  1  0
 10 12  1  0
 12 13  2  0
 13 14  1  0
 14 15  2  0
 15 16  1  0
 16 17  2  0
  9 18  1  0
 18 19  1  0
 19 20  1  0
 20 21  1  0
 17  7  1  0
 21  8  1  0
 17 12  1  0
  1 22  1  0
  1 23  1  0
  1 24  1  0
  2 25  1  0
  2 26  1  0
  4 27  1  0
  4 28  1  0
  5 29  1  0
  5 30  1  0
  6 31  1  0
  6 32  1  0
 11 33  1  0
 11 34  1  0
 11 35  1  0
 13 36  1  0
 14 37  1  0
 15 38  1  0
 16 39  1  0
 18 40  1  0
 18 41  1  0
 19 42  1  0
 19 43  1  0
 20 44  1  0
 20 45  1  0
 21 46  1  0
 21 47  1  0
M  CHG  2   6   1  10   1
M  END
>  <UniqueID>  (19) 
19

>  <SMILES>  (19) 
CCOCC[NH2+]c1c2c([n+](C)c3ccccc13)CCCC2

>  <Energy>  (19) 
76.51775217231855

>  <Genealogy>  (19) 
CCOCC[NH2+]c1c2c([n+](C)c3ccccc13)CCCC2 (protonated)
CCOCC[NH2+]c1c2c([n+](C)c3ccccc13)CCCC2 (3D coordinates assigned)
CCOCC[NH2+]c1c2c([n+](C)c3ccccc13)CCCC2 (nonaromatic ring conformer: 76.51775217231855 kcal/mol)

>  <smiles>  (19) 
CCOCCNc1c2c([n+](C)c3ccccc13)CCCC2

>  <score_type>  (19) 
oracle

>  <origin>  (19) 
adg

>  <m_score__min__energy>  (19) 
-7.4500000000000002

>  <m_primary>  (19) 
energy

$$$$
19:0
     RDKit          3D

 49 50  0  0  0  0  0  0  0  0999 V2000
   -6.3780   25.4130  -29.5890 C   0  0  0  0  0  0  0  0  0  0  0  0
   -5.4470   25.6510  -30.7790 C   0  0  0  0  0  0  0  0  0  0  0  0
   -4.2850   24.7430  -30.7640 N   0  0  0  0  0  0  0  0  0  0  0  0
   -3.7800   24.4430  -29.4140 C   0  0  0  0  0  0  0  0  0  0  0  0
   -4.2010   23.0590  -28.8850 C   0  0  0  0  0  0  0  0  0  0  0  0
   -3.5650   21.8970  -29.6740 C   0  0  0  0  0  0  0  0  0  0  0  0
   -2.9710   22.3450  -30.9470 N   0  0  0  0  0  0  0  0  0  0  0  0
   -1.8460   21.5020  -31.3840 C   0  0  0  0  0  0  0  0  0  0  0  0
   -2.1420   20.8270  -32.7360 C   0  0  0  0  0  0  0  0  0  0  0  0
   -3.2810   21.4310  -33.4520 N   0  0  0  0  0  0  0  0  0  0  0  0
   -4.4710   20.6120  -33.3610 C   0  0  0  0  0  0  0  0  0  0  0  0
   -4.4500   19.2910  -33.8420 C   0  0  0  0  0  0  0  0  0  0  0  0
   -5.5860   18.4650  -33.7410 C   0  0  0  0  0  0  0  0  0  0  0  0
   -5.5940   17.1400  -34.2040 O   0  0  0  0  0  0  0  0  0  0  0  0
   -6.5450   16.1560  -33.8100 C   0  0  0  0  0  0  0  0  0  0  0  0
   -6.7520   18.9690  -33.1590 C   0  0  0  0  0  0  0  0  0  0  0  0
   -6.7960   20.2820  -32.6750 C   0  0  0  0  0  0  0  0  0  0  0  0
   -7.9600   20.7960  -32.0870 C   0  0  0  0  0  0  0  0  0  0  0  0
   -7.9780   22.1070  -31.6100 C   0  0  0  0  0  0  0  0  0  0  0  0
   -6.8310   22.8950  -31.7250 C   0  0  0  0  0  0  0  0  0  0  0  0
   -5.7090   22.3850  -32.2970 N   0  0  0  0  0  0  0  0  0  0  0  0
   -5.6540   21.1100  -32.7720 C   0  0  0  0  0  0  0  0  0  0  0  0
   -5.8195   25.5558  -28.6522 H   0  0  0  0  0  0  0  0  0  0  0  0
   -7.2145   26.1262  -29.6295 H   0  0  0  0  0  0  0  0  0  0  0  0
   -6.7696   24.3859  -29.6295 H   0  0  0  0  0  0  0  0  0  0  0  0
   -6.0116   25.4893  -31.7091 H   0  0  0  0  0  0  0  0  0  0  0  0
   -5.0716   26.6830  -30.7146 H   0  0  0  0  0  0  0  0  0  0  0  0
   -4.4520   23.8660  -31.3080 H   0  0  0  0  0  0  0  0  0  0  0  0
   -2.6811   24.4854  -29.4376 H   0  0  0  0  0  0  0  0  0  0  0  0
   -4.2163   25.1910  -28.7357 H   0  0  0  0  0  0  0  0  0  0  0  0
   -3.8944   22.9775  -27.8317 H   0  0  0  0  0  0  0  0  0  0  0  0
   -5.2920   22.9789  -29.0008 H   0  0  0  0  0  0  0  0  0  0  0  0
   -2.7771   21.4399  -29.0573 H   0  0  0  0  0  0  0  0  0  0  0  0
   -4.3603   21.1744  -29.9092 H   0  0  0  0  0  0  0  0  0  0  0  0
   -2.6440   23.3340  -30.8550 H   0  0  0  0  0  0  0  0  0  0  0  0
   -0.9477   22.1286  -31.4859 H   0  0  0  0  0  0  0  0  0  0  0  0
   -1.6898   20.7154  -30.6311 H   0  0  0  0  0  0  0  0  0  0  0  0
   -1.2473   20.9091  -33.3707 H   0  0  0  0  0  0  0  0  0  0  0  0
   -2.4067   19.7800  -32.5267 H   0  0  0  0  0  0  0  0  0  0  0  0
   -3.0250   21.6030  -34.4520 H   0  0  0  0  0  0  0  0  0  0  0  0
   -3.4760   22.3710  -33.0360 H   0  0  0  0  0  0  0  0  0  0  0  0
   -3.5328   18.8970  -34.3040 H   0  0  0  0  0  0  0  0  0  0  0  0
   -6.5905   16.1090  -32.7119 H   0  0  0  0  0  0  0  0  0  0  0  0
   -7.5354   16.4236  -34.2069 H   0  0  0  0  0  0  0  0  0  0  0  0
   -6.2438   15.1753  -34.2069 H   0  0  0  0  0  0  0  0  0  0  0  0
   -7.6430   18.3287  -33.0804 H   0  0  0  0  0  0  0  0  0  0  0  0
   -8.8581   20.1666  -32.0018 H   0  0  0  0  0  0  0  0  0  0  0  0
   -8.8881   22.5164  -31.1472 H   0  0  0  0  0  0  0  0  0  0  0  0
   -6.8358   23.9298  -31.3521 H   0  0  0  0  0  0  0  0  0  0  0  0
  1  2  1  0
  2  3  1  0
  3  4  1  0
  4  5  1  0
  5  6  1  0
  6  7  1  0
  7  8  1  0
  8  9  1  0
  9 10  1  0
 10 11  1  0
 11 12  2  0
 12 13  1  0
 13 14  1  0
 14 15  1  0
 13 16  2  0
 16 17  1  0
 17 18  2  0
 18 19  1  0
 19 20  2  0
 20 21  1  0
 21 22  2  0
 22 11  1  0
 22 17  1  0
  1 23  1  0
  1 24  1  0
  1 25  1  0
  2 26  1  0
  2 27  1  0
  3 28  1  0
  4 29  1  0
  4 30  1  0
  5 31  1  0
  5 32  1  0
  6 33  1  0
  6 34  1  0
  7 35  1  0
  8 36  1  0
  8 37  1  0
  9 38  1  0
  9 39  1  0
 10 40  1  0
 10 41  1  0
 12 42  1  0
 15 43  1  0
 15 44  1  0
 15 45  1  0
 16 46  1  0
 18 47  1  0
 19 48  1  0
 20 49  1  0
M  CHG  1  10   1
M  END
>  <UniqueID>  (20) 
20

>  <SMILES>  (20) 
CCNCCCNCC[NH2+]c1cc(OC)cc2cccnc12

>  <Energy>  (20) 
50.5829180880107

>  <Genealogy>  (20) 
CCNCCCNCC[NH2+]c1cc(OC)cc2cccnc12 (protonated)
CCNCCCNCC[NH2+]c1cc(OC)cc2cccnc12 (3D coordinates assigned)
CCNCCCNCC[NH2+]c1cc(OC)cc2cccnc12 (optimized conformer: 50.5829180880107 kcal/mol)

>  <smiles>  (20) 
CCNCCCNCCNc1cc(OC)cc2cccnc12

>  <score_type>  (20) 
oracle

>  <origin>  (20) 
adg

>  <m_score__min__energy>  (20) 
-6.75

>  <m_primary>  (20) 
energy

$$$$
20:0
     RDKit          3D

 86 89  0  0  0  0  0  0  0  0999 V2000
   -1.8890   18.5660  -34.1390 C   0  0  0  0  0  0  0  0  0  0  0  0
   -0.7800   19.5220  -34.6090 C   0  0  0  0  0  0  0  0  0  0  0  0
   -1.0450   20.9410  -34.2360 N   0  0  0  0  0  0  0  0  0  0  0  0
   -0.1050   21.8520  -34.9430 C   0  0  0  0  0  0  0  0  0  0  0  0
    0.5840   21.1820  -36.1440 C   0  0  0  0  0  0  0  0  0  0  0  0
   -0.9170   21.1200  -32.7610 C   0  0  0  0  0  0  0  0  0  0  0  0
   -2.2550   20.9410  -32.0260 C   0  0  0  0  0  0  0  0  0  0  0  0
   -3.1430   22.0790  -32.2860 N   0  0  0  0  0  0  0  0  0  0  0  0
   -4.5300   21.9930  -31.9400 C   0  0  0  0  0  0  0  0  0  0  0  0
   -5.3090   20.9830  -32.5270 C   0  0  0  0  0  0  0  0  0  0  0  0
   -6.7080   21.0080  -32.3890 C   0  0  0  0  0  0  0  0  0  0  0  0
   -7.3140   21.9390  -31.5790 N   0  0  0  0  0  0  0  0  0  0  0  0
   -8.7410   21.7790  -31.2260 C   0  0  0  0  0  0  0  0  0  0  0  0
   -6.5810   22.9980  -31.0760 C   0  0  0  0  0  0  0  0  0  0  0  0
   -7.2200   24.1180  -30.4980 C   0  0  0  0  0  0  0  0  0  0  0  0
   -6.4860   25.1640  -29.9540 C   0  0  0  0  0  0  0  0  0  0  0  0
   -5.1010   25.1130  -29.9400 C   0  0  0  0  0  0  0  0  0  0  0  0
   -4.4090   24.0310  -30.5200 C   0  0  0  0  0  0  0  0  0  0  0  0
   -3.0030   23.9510  -30.4150 O   0  0  0  0  0  0  0  0  0  0  0  0
   -2.3150   23.6750  -29.1920 C   0  0  0  0  0  0  0  0  0  0  0  0
   -1.8190   24.9500  -28.4720 C   0  0  0  0  0  0  0  0  0  0  0  0
   -0.9190   24.7490  -27.2850 N   0  0  0  0  0  0  0  0  0  0  0  0
   -0.2190   23.4390  -27.3780 C   0  0  0  0  0  0  0  0  0  0  0  0
   -1.7680   24.7170  -26.0440 C   0  0  0  0  0  0  0  0  0  0  0  0
   -1.9860   26.1230  -25.4540 C   0  0  0  0  0  0  0  0  0  0  0  0
   -0.6990   26.7240  -24.9740 N   0  0  0  0  0  0  0  0  0  0  0  0
   -0.7910   28.2060  -25.0690 C   0  0  0  0  0  0  0  0  0  0  0  0
   -0.4900   26.3760  -23.5460 C   0  0  0  0  0  0  0  0  0  0  0  0
    0.4780   26.2370  -25.7690 C   0  0  0  0  0  0  0  0  0  0  0  0
    0.0930   25.8570  -27.2150 C   0  0  0  0  0  0  0  0  0  0  0  0
   -5.1550   23.0050  -31.1760 C   0  0  0  0  0  0  0  0  0  0  0  0
   -7.4820   20.0570  -33.2860 C   0  0  0  0  0  0  0  0  0  0  0  0
   -6.9340   18.6300  -33.1600 C   0  0  0  0  0  0  0  0  0  0  0  0
   -5.3880   18.5540  -33.1840 C   0  0  0  0  0  0  0  0  0  0  0  0
   -4.6990   19.9120  -33.4120 C   0  0  0  0  0  0  0  0  0  0  0  0
   -1.9133   18.5450  -33.0395 H   0  0  0  0  0  0  0  0  0  0  0  0
   -2.8599   18.9148  -34.5207 H   0  0  0  0  0  0  0  0  0  0  0  0
   -1.6871   17.5543  -34.5207 H   0  0  0  0  0  0  0  0  0  0  0  0
    0.1705   19.2099  -34.1516 H   0  0  0  0  0  0  0  0  0  0  0  0
   -0.7406   19.4697  -35.7070 H   0  0  0  0  0  0  0  0  0  0  0  0
   -2.0230   21.1830  -34.5240 H   0  0  0  0  0  0  0  0  0  0  0  0
   -0.6669   22.7264  -35.3030 H   0  0  0  0  0  0  0  0  0  0  0  0
    0.6802   22.1379  -34.2277 H   0  0  0  0  0  0  0  0  0  0  0  0
    1.3288   20.4578  -35.7823 H   0  0  0  0  0  0  0  0  0  0  0  0
   -0.1682   20.6606  -36.7543 H   0  0  0  0  0  0  0  0  0  0  0  0
    1.0841   21.9484  -36.7543 H   0  0  0  0  0  0  0  0  0  0  0  0
   -0.2018   20.3778  -32.3767 H   0  0  0  0  0  0  0  0  0  0  0  0
   -0.5715   22.1483  -32.5787 H   0  0  0  0  0  0  0  0  0  0  0  0
   -2.7391   20.0174  -32.3761 H   0  0  0  0  0  0  0  0  0  0  0  0
   -2.0607   20.8825  -30.9449 H   0  0  0  0  0  0  0  0  0  0  0  0
   -2.7350   23.0340  -32.4030 H   0  0  0  0  0  0  0  0  0  0  0  0
   -8.8488   21.7669  -30.1314 H   0  0  0  0  0  0  0  0  0  0  0  0
   -9.3179   22.6181  -31.6420 H   0  0  0  0  0  0  0  0  0  0  0  0
   -9.1178   20.8330  -31.6420 H   0  0  0  0  0  0  0  0  0  0  0  0
   -8.3189   24.1622  -30.4786 H   0  0  0  0  0  0  0  0  0  0  0  0
   -7.0061   26.0368  -29.5324 H   0  0  0  0  0  0  0  0  0  0  0  0
   -4.5335   25.9292  -29.4692 H   0  0  0  0  0  0  0  0  0  0  0  0
   -2.9994   23.1373  -28.5193 H   0  0  0  0  0  0  0  0  0  0  0  0
   -1.4279   23.0753  -29.4438 H   0  0  0  0  0  0  0  0  0  0  0  0
   -1.2698   25.5558  -29.2078 H   0  0  0  0  0  0  0  0  0  0  0  0
   -2.7256   25.4256  -28.0697 H   0  0  0  0  0  0  0  0  0  0  0  0
   -0.0160   23.0591  -26.3658 H   0  0  0  0  0  0  0  0  0  0  0  0
   -0.8539   22.7215  -27.9184 H   0  0  0  0  0  0  0  0  0  0  0  0
    0.7303   23.5681  -27.9184 H   0  0  0  0  0  0  0  0  0  0  0  0
   -2.7467   24.2822  -26.2951 H   0  0  0  0  0  0  0  0  0  0  0  0
   -1.2433   24.1113  -25.2904 H   0  0  0  0  0  0  0  0  0  0  0  0
   -2.4165   26.7732  -26.2298 H   0  0  0  0  0  0  0  0  0  0  0  0
   -2.6668   26.0345  -24.5946 H   0  0  0  0  0  0  0  0  0  0  0  0
   -0.8178   28.6373  -24.0574 H   0  0  0  0  0  0  0  0  0  0  0  0
    0.0848   28.5938  -25.6099 H   0  0  0  0  0  0  0  0  0  0  0  0
   -1.7080   28.4825  -25.6099 H   0  0  0  0  0  0  0  0  0  0  0  0
   -0.9520   27.1452  -22.9097 H   0  0  0  0  0  0  0  0  0  0  0  0
   -0.9515   25.4000  -23.3351 H   0  0  0  0  0  0  0  0  0  0  0  0
    0.5884   26.3249  -23.3351 H   0  0  0  0  0  0  0  0  0  0  0  0
    1.2359   27.0336  -25.8027 H   0  0  0  0  0  0  0  0  0  0  0  0
    0.8658   25.3333  -25.2760 H   0  0  0  0  0  0  0  0  0  0  0  0
   -0.3260   26.7453  -27.7104 H   0  0  0  0  0  0  0  0  0  0  0  0
    1.0058   25.4987  -27.7134 H   0  0  0  0  0  0  0  0  0  0  0  0
   -8.5419   20.0645  -32.9918 H   0  0  0  0  0  0  0  0  0  0  0  0
   -7.3745   20.3873  -34.3297 H   0  0  0  0  0  0  0  0  0  0  0  0
   -7.2881   18.2044  -32.2095 H   0  0  0  0  0  0  0  0  0  0  0  0
   -7.2976   18.0673  -34.0324 H   0  0  0  0  0  0  0  0  0  0  0  0
   -5.0463   18.1501  -32.2196 H   0  0  0  0  0  0  0  0  0  0  0  0
   -5.1135   17.9107  -34.0330 H   0  0  0  0  0  0  0  0  0  0  0  0
   -3.6286   19.8169  -33.1769 H   0  0  0  0  0  0  0  0  0  0  0  0
   -4.8365   20.2041  -34.4635 H   0  0  0  0  0  0  0  0  0  0  0  0
  1  2  1  0
  2  3  1  0
  3  4  1  0
  4  5  1  0
  3  6  1  0
  6  7  1  0
  7  8  1  0
  8  9  1  0
  9 10  2  0
 10 11  1  0
 11 12  2  0
 12 13  1  0
 12 14  1  0
 14 15  2  0
 15 16  1  0
 16 17  2  0
 17 18  1  0
 18 19  1  0
 19 20  1  0
 20 21  1  0
 21 22  1  0
 22 23  1  0
 22 24  1  0
 24 25  1  0
 25 26  1  0
 26 27  1  0
 26 28  1  0
 26 29  1  0
 29 30  1  0
 18 31  2  0
 11 32  1  0
 32 33  1  0
 33 34  1  0
 34 35  1  0
 31  9  1  0
 35 10  1  0
 31 14  1  0
 30 22  1  0
  1 36  1  0
  1 37  1  0
  1 38  1  0
  2 39  1  0
  2 40  1  0
  3 41  1  0
  4 42  1  0
  4 43  1  0
  5 44  1  0
  5 45  1  0
  5 46  1  0
  6 47  1  0
  6 48  1  0
  7 49  1  0
  7 50  1  0
  8 51  1  0
 13 52  1  0
 13 53  1  0
 13 54  1  0
 15 55  1  0
 16 56  1  0
 17 57  1  0
 20 58  1  0
 20 59  1  0
 21 60  1  0
 21 61  1  0
 23 62  1  0
 23 63  1  0
 23 64  1  0
 24 65  1  0
 24 66  1  0
 25 67  1  0
 25 68  1  0
 27 69  1  0
 27 70  1  0
 27 71  1  0
 28 72  1  0
 28 73  1  0
 28 74  1  0
 29 75  1  0
 29 76  1  0
 30 77  1  0
 30 78  1  0
 32 79  1  0
 32 80  1  0
 33 81  1  0
 33 82  1  0
 34 83  1  0
 34 84  1  0
 35 85  1  0
 35 86  1  0
M  CHG  4   3   1  12   1  22   1  26   1
M  END
>  <UniqueID>  (21) 
21

>  <SMILES>  (21) 
CC[NH+](CC)CCNc1c2c([n+](C)c3cccc(OCC[N+]4(C)CC[N+](C)(C)CC4)c13)CCCC2

>  <Energy>  (21) 
143.93037876067035

>  <Genealogy>  (21) 
CC[NH+](CC)CCNc1c2c([n+](C)c3cccc(OCC[N+]4(C)CC[N+](C)(C)CC4)c13)CCCC2 (protonated)
CC[NH+](CC)CCNc1c2c([n+](C)c3cccc(OCC[N+]4(C)CC[N+](C)(C)CC4)c13)CCCC2 (3D coordinates assigned)
CC[NH+](CC)CCNc1c2c([n+](C)c3cccc(OCC[N+]4(C)CC[N+](C)(C)CC4)c13)CCCC2 (nonaromatic ring conformer: 143.93037876067035 kcal/mol)

>  <smiles>  (21) 
CCN(CC)CCNc1c2c([n+](C)c3cccc(OCC[N+]4(C)CC[N+](C)(C)CC4)c13)CCCC2

>  <score_type>  (21) 
oracle

>  <origin>  (21) 
adg

>  <m_score__min__energy>  (21) 
-7.3499999999999996

>  <m_primary>  (21) 
energy

$$$$
21:0
     RDKit          3D

 65 67  0  0  0  0  0  0  0  0999 V2000
   -6.0320   25.2540  -29.7410 C   0  0  0  0  0  0  0  0  0  0  0  0
   -4.9760   25.2460  -30.8420 C   0  0  0  0  0  0  0  0  0  0  0  0
   -4.2410   24.0370  -30.8190 O   0  0  0  0  0  0  0  0  0  0  0  0
   -4.4090   23.3770  -29.5810 C   0  0  0  0  0  0  0  0  0  0  0  0
   -3.1180   22.6580  -29.2120 C   0  0  0  0  0  0  0  0  0  0  0  0
   -2.5640   22.0670  -30.3700 O   0  0  0  0  0  0  0  0  0  0  0  0
   -1.1550   22.2030  -30.3740 C   0  0  0  0  0  0  0  0  0  0  0  0
   -0.5770   21.5390  -31.6240 C   0  0  0  0  0  0  0  0  0  0  0  0
   -1.6230   20.7850  -32.3240 N   0  0  0  0  0  0  0  0  0  0  0  0
   -2.1270   21.5480  -33.4720 C   0  0  0  0  0  0  0  0  0  0  0  0
   -3.6520   21.7090  -33.3860 C   0  0  0  0  0  0  0  0  0  0  0  0
   -4.1820   21.1590  -32.1200 N   0  0  0  0  0  0  0  0  0  0  0  0
   -5.4520   20.4800  -32.3250 C   0  0  0  0  0  0  0  0  0  0  0  0
   -6.6650   21.2110  -32.1710 C   0  0  0  0  0  0  0  0  0  0  0  0
   -6.6780   22.6240  -32.0450 C   0  0  0  0  0  0  0  0  0  0  0  0
   -7.8740   23.3300  -31.9440 C   0  0  0  0  0  0  0  0  0  0  0  0
   -9.0840   22.6550  -31.9770 C   0  0  0  0  0  0  0  0  0  0  0  0
   -9.1040   21.2680  -32.0770 C   0  0  0  0  0  0  0  0  0  0  0  0
   -7.9010   20.5180  -32.1380 C   0  0  0  0  0  0  0  0  0  0  0  0
   -7.9210   19.1430  -32.1600 N   0  0  0  0  0  0  0  0  0  0  0  0
   -9.1430   18.4190  -31.7360 C   0  0  0  0  0  0  0  0  0  0  0  0
   -6.8050   18.4400  -32.5620 C   0  0  0  0  0  0  0  0  0  0  0  0
   -6.9120   17.0720  -32.9070 C   0  0  0  0  0  0  0  0  0  0  0  0
   -5.8020   16.3290  -33.2640 C   0  0  0  0  0  0  0  0  0  0  0  0
   -4.5590   16.9270  -33.3330 C   0  0  0  0  0  0  0  0  0  0  0  0
   -4.3970   18.3000  -33.0720 C   0  0  0  0  0  0  0  0  0  0  0  0
   -3.1340   18.8890  -33.2500 O   0  0  0  0  0  0  0  0  0  0  0  0
   -2.0690   18.4060  -34.0730 C   0  0  0  0  0  0  0  0  0  0  0  0
   -1.1410   17.4910  -33.2820 C   0  0  0  0  0  0  0  0  0  0  0  0
   -5.5280   19.0830  -32.6510 C   0  0  0  0  0  0  0  0  0  0  0  0
   -5.5374   25.2503  -28.7585 H   0  0  0  0  0  0  0  0  0  0  0  0
   -6.6532   26.1569  -29.8353 H   0  0  0  0  0  0  0  0  0  0  0  0
   -6.6668   24.3606  -29.8353 H   0  0  0  0  0  0  0  0  0  0  0  0
   -5.4714   25.3493  -31.8187 H   0  0  0  0  0  0  0  0  0  0  0  0
   -4.2840   26.0847  -30.6755 H   0  0  0  0  0  0  0  0  0  0  0  0
   -4.6540   24.1143  -28.8023 H   0  0  0  0  0  0  0  0  0  0  0  0
   -5.2266   22.6457  -29.6624 H   0  0  0  0  0  0  0  0  0  0  0  0
   -2.4032   23.3799  -28.7903 H   0  0  0  0  0  0  0  0  0  0  0  0
   -3.3314   21.8777  -28.4667 H   0  0  0  0  0  0  0  0  0  0  0  0
   -0.8907   23.2708  -30.3717 H   0  0  0  0  0  0  0  0  0  0  0  0
   -0.7395   21.7178  -29.4785 H   0  0  0  0  0  0  0  0  0  0  0  0
   -0.1759   22.3131  -32.2947 H   0  0  0  0  0  0  0  0  0  0  0  0
    0.2262   20.8488  -31.3263 H   0  0  0  0  0  0  0  0  0  0  0  0
   -1.1880   19.9090  -32.6980 H   0  0  0  0  0  0  0  0  0  0  0  0
   -1.6582   22.5431  -33.4788 H   0  0  0  0  0  0  0  0  0  0  0  0
   -1.8791   21.0045  -34.3957 H   0  0  0  0  0  0  0  0  0  0  0  0
   -3.9028   22.7784  -33.4444 H   0  0  0  0  0  0  0  0  0  0  0  0
   -4.1062   21.1554  -34.2210 H   0  0  0  0  0  0  0  0  0  0  0  0
   -4.3040   21.9260  -31.4210 H   0  0  0  0  0  0  0  0  0  0  0  0
   -3.4910   20.5410  -31.6460 H   0  0  0  0  0  0  0  0  0  0  0  0
   -5.7247   23.1726  -32.0267 H   0  0  0  0  0  0  0  0  0  0  0  0
   -7.8584   24.4248  -31.8379 H   0  0  0  0  0  0  0  0  0  0  0  0
  -10.0285   23.2163  -31.9241 H   0  0  0  0  0  0  0  0  0  0  0  0
  -10.0700   20.7428  -32.1094 H   0  0  0  0  0  0  0  0  0  0  0  0
   -9.1901   18.3911  -30.6374 H   0  0  0  0  0  0  0  0  0  0  0  0
  -10.0307   18.9370  -32.1280 H   0  0  0  0  0  0  0  0  0  0  0  0
   -9.1151   17.3916  -32.1280 H   0  0  0  0  0  0  0  0  0  0  0  0
   -7.9001   16.5889  -32.8908 H   0  0  0  0  0  0  0  0  0  0  0  0
   -5.9092   15.2586  -33.4937 H   0  0  0  0  0  0  0  0  0  0  0  0
   -3.6807   16.3195  -33.5965 H   0  0  0  0  0  0  0  0  0  0  0  0
   -2.4935   17.8445  -34.9183 H   0  0  0  0  0  0  0  0  0  0  0  0
   -1.4878   19.2665  -34.4359 H   0  0  0  0  0  0  0  0  0  0  0  0
   -1.3010   17.6487  -32.2052 H   0  0  0  0  0  0  0  0  0  0  0  0
   -1.3568   16.4425  -33.5350 H   0  0  0  0  0  0  0  0  0  0  0  0
   -0.0956   17.7216  -33.5350 H   0  0  0  0  0  0  0  0  0  0  0  0
  1  2  1  0
  2  3  1  0
  3  4  1  0
  4  5  1  0
  5  6  1  0
  6  7  1  0
  7  8  1  0
  8  9  1  0
  9 10  1  0
 10 11  1  0
 11 12  1  0
 12 13  1  0
 13 14  2  0
 14 15  1  0
 15 16  2  0
 16 17  1  0
 17 18  2  0
 18 19  1  0
 19 20  2  0
 20 21  1  0
 20 22  1  0
 22 23  2  0
 23 24  1  0
 24 25  2  0
 25 26  1  0
 26 27  1  0
 27 28  1  0
 28 29  1  0
 26 30  2  0
 30 13  1  0
 19 14  1  0
 30 22  1  0
  1 31  1  0
  1 32  1  0
  1 33  1  0
  2 34  1  0
  2 35  1  0
  4 36  1  0
  4 37  1  0
  5 38  1  0
  5 39  1  0
  7 40  1  0
  7 41  1  0
  8 42  1  0
  8 43  1  0
  9 44  1  0
 10 45  1  0
 10 46  1  0
 11 47  1  0
 11 48  1  0
 12 49  1  0
 12 50  1  0
 15 51  1  0
 16 52  1  0
 17 53  1  0
 18 54  1  0
 21 55  1  0
 21 56  1  0
 21 57  1  0
 23 58  1  0
 24 59  1  0
 25 60  1  0
 28 61  1  0
 28 62  1  0
 29 63  1  0
 29 64  1  0
 29 65  1  0
M  CHG  2  12   1  20   1
M  END
>  <UniqueID>  (22) 
22

>  <SMILES>  (22) 
CCOCCOCCNCC[NH2+]c1c2ccccc2[n+](C)c2cccc(OCC)c12

>  <Energy>  (22) 
91.21181072421197

>  <Genealogy>  (22) 
CCOCCOCCNCC[NH2+]c1c2ccccc2[n+](C)c2cccc(OCC)c12 (protonated)
CCOCCOCCNCC[NH2+]c1c2ccccc2[n+](C)c2cccc(OCC)c12 (3D coordinates assigned)
CCOCCOCCNCC[NH2+]c1c2ccccc2[n+](C)c2cccc(OCC)c12 (optimized conformer: 91.21181072421197 kcal/mol)

>  <smiles>  (22) 
CCOCCOCCNCCNc1c2ccccc2[n+](C)c2cccc(OCC)c12

>  <score_type>  (22) 
oracle

>  <origin>  (22) 
adg

>  <m_score__min__energy>  (22) 
-8.1500000000000004

>  <m_primary>  (22) 
energy

$$$$
