0:0
     RDKit          3D

 37 40  0  0  0  0  0  0  0  0999 V2000
   -8.3240   18.9800  -32.4760 C   0  0  0  0  0  0  0  0  0  0  0  0
   -7.4280   20.1690  -32.3810 C   0  0  0  0  0  0  0  0  0  0  0  0
   -6.3620   20.4480  -33.2150 C   0  0  0  0  0  0  0  0  0  0  0  0
   -5.7960   21.5850  -32.6770 C   0  0  0  0  0  0  0  0  0  0  0  0
   -6.5110   21.9470  -31.5940 N   0  0  0  0  0  0  0  0  0  0  0  0
   -6.1730   23.0050  -30.6920 C   0  0  0  0  0  0  0  0  0  0  0  0
   -7.0550   24.0310  -30.5000 N   0  0  0  0  0  0  0  0  0  0  0  0
   -6.7650   25.0940  -29.6880 C   0  0  0  0  0  0  0  0  0  0  0  0
   -5.5630   25.1650  -29.0450 N   0  0  0  0  0  0  0  0  0  0  0  0
   -4.6710   24.1610  -29.2380 C   0  0  0  0  0  0  0  0  0  0  0  0
   -3.4500   23.9130  -28.6390 C   0  0  0  0  0  0  0  0  0  0  0  0
   -2.6960   24.7770  -27.7080 C   0  0  0  0  0  0  0  0  0  0  0  0
   -3.1160   24.9270  -26.3740 C   0  0  0  0  0  0  0  0  0  0  0  0
   -2.4110   25.7600  -25.5000 C   0  0  0  0  0  0  0  0  0  0  0  0
   -1.2880   26.4580  -25.9500 C   0  0  0  0  0  0  0  0  0  0  0  0
   -0.8720   26.3300  -27.2770 C   0  0  0  0  0  0  0  0  0  0  0  0
   -1.5730   25.4990  -28.1580 C   0  0  0  0  0  0  0  0  0  0  0  0
   -1.1420   25.3830  -29.4390 F   0  0  0  0  0  0  0  0  0  0  0  0
   -3.0370   22.6850  -29.0340 N   0  0  0  0  0  0  0  0  0  0  0  0
   -3.9470   22.1740  -29.8580 N   0  0  0  0  0  0  0  0  0  0  0  0
   -3.8410   20.8240  -30.4020 C   0  0  0  0  0  0  0  0  0  0  0  0
   -4.9470   23.0730  -30.0110 C   0  0  0  0  0  0  0  0  0  0  0  0
   -7.4850   21.0750  -31.3850 N   0  0  0  0  0  0  0  0  0  0  0  0
   -8.5840   18.6350  -31.4644 H   0  0  0  0  0  0  0  0  0  0  0  0
   -9.2416   19.2547  -33.0168 H   0  0  0  0  0  0  0  0  0  0  0  0
   -7.8071   18.1736  -33.0168 H   0  0  0  0  0  0  0  0  0  0  0  0
   -6.0383   19.8899  -34.1059 H   0  0  0  0  0  0  0  0  0  0  0  0
   -4.9102   22.1080  -33.0665 H   0  0  0  0  0  0  0  0  0  0  0  0
   -7.5053   25.8962  -29.5527 H   0  0  0  0  0  0  0  0  0  0  0  0
   -5.3670   25.9560  -28.3930 H   0  0  0  0  0  0  0  0  0  0  0  0
   -4.0043   24.3858  -26.0163 H   0  0  0  0  0  0  0  0  0  0  0  0
   -2.7413   25.8658  -24.4561 H   0  0  0  0  0  0  0  0  0  0  0  0
   -0.7313   27.1084  -25.2593 H   0  0  0  0  0  0  0  0  0  0  0  0
    0.0097   26.8843  -27.6309 H   0  0  0  0  0  0  0  0  0  0  0  0
   -3.7841   20.0994  -29.5763 H   0  0  0  0  0  0  0  0  0  0  0  0
   -4.7249   20.6072  -31.0199 H   0  0  0  0  0  0  0  0  0  0  0  0
   -2.9341   20.7478  -31.0199 H   0  0  0  0  0  0  0  0  0  0  0  0
  1  2  1  0
  2  3  1  0
  3  4  2  0
  4  5  1  0
  5  6  1  0
  6  7  2  0
  7  8  1  0
  8  9  2  0
  9 10  1  0
 10 11  1  0
 11 12  1  0
 12 13  2  0
 13 14  1  0
 14 15  2  0
 15 16  1  0
 16 17  2  0
 17 18  1  0
 11 19  2  0
 19 20  1  0
 20 21  1  0
 20 22  1  0
  5 23  1  0
 23  2  2  0
 22  6  1  0
 22 10  2  0
 17 12  1  0
  1 24  1  0
  1 25  1  0
  1 26  1  0
  3 27  1  0
  4 28  1  0
  8 29  1  0
  9 30  1  0
 13 31  1  0
 14 32  1  0
 15 33  1  0
 16 34  1  0
 21 35  1  0
 21 36  1  0
 21 37  1  0
M  CHG  1   9   1
M  END
>  <UniqueID>  (1) 
1

>  <SMILES>  (1) 
Cc1ccn(-c2nc[nH+]c3c(-c4ccccc4F)nn(C)c23)n1

>  <Energy>  (1) 
122.99986962055435

>  <Genealogy>  (1) 
Cc1ccn(-c2nc[nH+]c3c(-c4ccccc4F)nn(C)c23)n1 (protonated)
Cc1ccn(-c2nc[nH+]c3c(-c4ccccc4F)nn(C)c23)n1 (3D coordinates assigned)
Cc1ccn(-c2nc[nH+]c3c(-c4ccccc4F)nn(C)c23)n1 (optimized conformer: 122.99986962055435 kcal/mol)

>  <smiles>  (1) 
Cc1ccn(-c2ncnc3c(-c4ccccc4F)nn(C)c23)n1

>  <score_type>  (1) 
oracle

>  <origin>  (1) 
adg

>  <m_score__min__energy>  (1) 
-7.0899999999999999

>  <m_primary>  (1) 
energy

$$$$
1:0
     RDKit          3D

 49 50  0  0  0  0  0  0  0  0999 V2000
   -6.1700   25.6450  -29.7360 C   0  0  0  0  0  0  0  0  0  0  0  0
   -5.2050   25.2670  -30.8520 C   0  0  0  0  0  0  0  0  0  0  0  0
   -3.8590   25.2760  -30.3790 O   0  0  0  0  0  0  0  0  0  0  0  0
   -3.4110   24.4920  -29.3100 C   0  0  0  0  0  0  0  0  0  0  0  0
   -4.1770   24.2290  -28.3420 O   0  0  0  0  0  0  0  0  0  0  0  0
   -2.0390   23.9590  -29.3200 C   0  0  0  0  0  0  0  0  0  0  0  0
   -1.0620   24.7550  -29.3440 O   0  0  0  0  0  0  0  0  0  0  0  0
   -1.7860   22.4790  -29.2840 C   0  0  0  0  0  0  0  0  0  0  0  0
   -1.7060   21.9200  -30.6780 C   0  0  0  0  0  0  0  0  0  0  0  0
   -0.5700   21.6740  -31.1580 O   0  0  0  0  0  0  0  0  0  0  0  0
   -2.9330   21.6570  -31.4750 C   0  0  0  0  0  0  0  0  0  0  0  0
   -4.2210   21.7300  -30.9690 C   0  0  0  0  0  0  0  0  0  0  0  0
   -5.0730   21.4130  -32.0100 C   0  0  0  0  0  0  0  0  0  0  0  0
   -6.5540   21.4080  -31.9530 C   0  0  0  0  0  0  0  0  0  0  0  0
   -7.2140   22.6120  -31.6480 C   0  0  0  0  0  0  0  0  0  0  0  0
   -8.6080   22.6700  -31.6130 C   0  0  0  0  0  0  0  0  0  0  0  0
   -9.3620   21.5290  -31.8810 C   0  0  0  0  0  0  0  0  0  0  0  0
   -8.7250   20.3210  -32.1670 C   0  0  0  0  0  0  0  0  0  0  0  0
   -7.3220   20.2370  -32.1860 C   0  0  0  0  0  0  0  0  0  0  0  0
   -6.6860   18.8970  -32.4560 C   0  0  0  0  0  0  0  0  0  0  0  0
   -4.2810   21.1830  -33.1170 C   0  0  0  0  0  0  0  0  0  0  0  0
   -2.9800   21.3300  -32.7940 N   0  0  0  0  0  0  0  0  0  0  0  0
   -1.8810   21.1640  -33.7510 C   0  0  0  0  0  0  0  0  0  0  0  0
   -1.5220   19.6850  -33.9150 C   0  0  0  0  0  0  0  0  0  0  0  0
   -2.6360   18.9520  -34.3880 O   0  0  0  0  0  0  0  0  0  0  0  0
   -3.0280   17.9850  -33.4370 C   0  0  0  0  0  0  0  0  0  0  0  0
   -5.6947   25.4588  -28.7616 H   0  0  0  0  0  0  0  0  0  0  0  0
   -6.4285   26.7109  -29.8202 H   0  0  0  0  0  0  0  0  0  0  0  0
   -7.0837   25.0383  -29.8202 H   0  0  0  0  0  0  0  0  0  0  0  0
   -5.4526   24.2595  -31.2177 H   0  0  0  0  0  0  0  0  0  0  0  0
   -5.2992   26.0018  -31.6651 H   0  0  0  0  0  0  0  0  0  0  0  0
   -0.8364   22.2874  -28.7630 H   0  0  0  0  0  0  0  0  0  0  0  0
   -2.6170   21.9906  -28.7540 H   0  0  0  0  0  0  0  0  0  0  0  0
   -4.5091   21.9896  -29.9396 H   0  0  0  0  0  0  0  0  0  0  0  0
   -6.6257   23.5167  -31.4350 H   0  0  0  0  0  0  0  0  0  0  0  0
   -9.1123   23.6178  -31.3735 H   0  0  0  0  0  0  0  0  0  0  0  0
  -10.4607   21.5808  -31.8670 H   0  0  0  0  0  0  0  0  0  0  0  0
   -9.3269   19.4252  -32.3798 H   0  0  0  0  0  0  0  0  0  0  0  0
   -6.4517   18.4033  -31.5013 H   0  0  0  0  0  0  0  0  0  0  0  0
   -7.3825   18.2699  -33.0318 H   0  0  0  0  0  0  0  0  0  0  0  0
   -5.7597   19.0401  -33.0318 H   0  0  0  0  0  0  0  0  0  0  0  0
   -4.6563   20.9185  -34.1166 H   0  0  0  0  0  0  0  0  0  0  0  0
   -2.1872   21.5711  -34.7260 H   0  0  0  0  0  0  0  0  0  0  0  0
   -0.9991   21.7010  -33.3718 H   0  0  0  0  0  0  0  0  0  0  0  0
   -0.6954   19.5912  -34.6347 H   0  0  0  0  0  0  0  0  0  0  0  0
   -1.2218   19.2821  -32.9364 H   0  0  0  0  0  0  0  0  0  0  0  0
   -2.8674   18.3813  -32.4235 H   0  0  0  0  0  0  0  0  0  0  0  0
   -4.0934   17.7476  -33.5733 H   0  0  0  0  0  0  0  0  0  0  0  0
   -2.4287   17.0727  -33.5733 H   0  0  0  0  0  0  0  0  0  0  0  0
  1  2  1  0
  2  3  1  0
  3  4  1  0
  4  5  2  0
  4  6  1  0
  6  7  2  0
  6  8  1  0
  8  9  1  0
  9 10  2  0
  9 11  1  0
 11 12  2  0
 12 13  1  0
 13 14  1  0
 14 15  2  0
 15 16  1  0
 16 17  2  0
 17 18  1  0
 18 19  2  0
 19 20  1  0
 13 21  2  0
 21 22  1  0
 22 23  1  0
 23 24  1  0
 24 25  1  0
 25 26  1  0
 22 11  1  0
 19 14  1  0
  1 27  1  0
  1 28  1  0
  1 29  1  0
  2 30  1  0
  2 31  1  0
  8 32  1  0
  8 33  1  0
 12 34  1  0
 15 35  1  0
 16 36  1  0
 17 37  1  0
 18 38  1  0
 20 39  1  0
 20 40  1  0
 20 41  1  0
 21 42  1  0
 23 43  1  0
 23 44  1  0
 24 45  1  0
 24 46  1  0
 26 47  1  0
 26 48  1  0
 26 49  1  0
M  END
>  <UniqueID>  (2) 
2

>  <SMILES>  (2) 
CCOC(=O)C(=O)CC(=O)c1cc(-c2ccccc2C)cn1CCOC

>  <Energy>  (2) 
74.77516616679681

>  <Genealogy>  (2) 
CCOC(=O)C(=O)CC(=O)c1cc(-c2ccccc2C)cn1CCOC (3D coordinates assigned)
CCOC(=O)C(=O)CC(=O)c1cc(-c2ccccc2C)cn1CCOC (optimized conformer: 74.77516616679681 kcal/mol)

>  <smiles>  (2) 
CCOC(=O)C(=O)CC(=O)c1cc(-c2ccccc2C)cn1CCOC

>  <score_type>  (2) 
oracle

>  <origin>  (2) 
adg

>  <m_score__min__energy>  (2) 
-8.4800000000000004

>  <m_primary>  (2) 
energy

$$$$
2:0
     RDKit          3D

 34 35  0  0  0  0  0  0  0  0999 V2000
   -2.7660   23.4440  -29.8970 C   0  0  0  0  0  0  0  0  0  0  0  0
   -4.2010   23.7690  -29.4660 C   0  0  0  0  0  0  0  0  0  0  0  0
   -4.2430   24.1730  -27.9870 C   0  0  0  0  0  0  0  0  0  0  0  0
   -4.8560   24.8430  -30.3590 C   0  0  0  0  0  0  0  0  0  0  0  0
   -5.3560   24.2940  -31.5840 O   0  0  0  0  0  0  0  0  0  0  0  0
   -6.2110   23.1840  -31.7350 C   0  0  0  0  0  0  0  0  0  0  0  0
   -7.5730   23.2750  -31.4000 C   0  0  0  0  0  0  0  0  0  0  0  0
   -8.4090   22.1770  -31.5500 C   0  0  0  0  0  0  0  0  0  0  0  0
   -9.6270   22.2830  -31.2370 O   0  0  0  0  0  0  0  0  0  0  0  0
   -7.8950   20.9720  -32.0450 C   0  0  0  0  0  0  0  0  0  0  0  0
   -8.7250   19.8440  -32.2030 C   0  0  0  0  0  0  0  0  0  0  0  0
   -8.2070   18.6490  -32.6970 C   0  0  0  0  0  0  0  0  0  0  0  0
   -6.8620   18.5600  -33.0390 C   0  0  0  0  0  0  0  0  0  0  0  0
   -6.0230   19.6660  -32.8920 C   0  0  0  0  0  0  0  0  0  0  0  0
   -6.5190   20.8970  -32.3910 C   0  0  0  0  0  0  0  0  0  0  0  0
   -5.7050   22.0050  -32.2340 N   0  0  0  0  0  0  0  0  0  0  0  0
   -4.2720   21.9270  -32.5870 C   0  0  0  0  0  0  0  0  0  0  0  0
   -2.1385   23.3019  -29.0048 H   0  0  0  0  0  0  0  0  0  0  0  0
   -2.7634   22.5225  -30.4977 H   0  0  0  0  0  0  0  0  0  0  0  0
   -2.3666   24.2744  -30.4977 H   0  0  0  0  0  0  0  0  0  0  0  0
   -4.7947   22.8519  -29.5940 H   0  0  0  0  0  0  0  0  0  0  0  0
   -4.1496   23.2749  -27.3588 H   0  0  0  0  0  0  0  0  0  0  0  0
   -3.4114   24.8598  -27.7707 H   0  0  0  0  0  0  0  0  0  0  0  0
   -5.1981   24.6741  -27.7707 H   0  0  0  0  0  0  0  0  0  0  0  0
   -5.6912   25.3007  -29.8086 H   0  0  0  0  0  0  0  0  0  0  0  0
   -4.0875   25.5886  -30.6109 H   0  0  0  0  0  0  0  0  0  0  0  0
   -7.9792   24.2226  -31.0164 H   0  0  0  0  0  0  0  0  0  0  0  0
   -9.7898   19.9077  -31.9342 H   0  0  0  0  0  0  0  0  0  0  0  0
   -8.8630   17.7742  -32.8168 H   0  0  0  0  0  0  0  0  0  0  0  0
   -6.4573   17.6137  -33.4272 H   0  0  0  0  0  0  0  0  0  0  0  0
   -4.9617   19.5817  -33.1687 H   0  0  0  0  0  0  0  0  0  0  0  0
   -3.6691   21.8942  -31.6675 H   0  0  0  0  0  0  0  0  0  0  0  0
   -4.0890   21.0176  -33.1781 H   0  0  0  0  0  0  0  0  0  0  0  0
   -3.9913   22.8112  -33.1781 H   0  0  0  0  0  0  0  0  0  0  0  0
  1  2  1  0
  2  3  1  0
  2  4  1  0
  4  5  1  0
  5  6  1  0
  6  7  2  0
  7  8  1  0
  8  9  2  0
  8 10  1  0
 10 11  2  0
 11 12  1  0
 12 13  2  0
 13 14  1  0
 14 15  2  0
 15 16  1  0
 16 17  1  0
 16  6  1  0
 15 10  1  0
  1 18  1  0
  1 19  1  0
  1 20  1  0
  2 21  1  0
  3 22  1  0
  3 23  1  0
  3 24  1  0
  4 25  1  0
  4 26  1  0
  7 27  1  0
 11 28  1  0
 12 29  1  0
 13 30  1  0
 14 31  1  0
 17 32  1  0
 17 33  1  0
 17 34  1  0
M  END
>  <UniqueID>  (3) 
3

>  <SMILES>  (3) 
CC(C)COc1cc(=O)c2ccccc2n1C

>  <Energy>  (3) 
41.84410663326407

>  <Genealogy>  (3) 
CC(C)COc1cc(=O)c2ccccc2n1C (3D coordinates assigned)
CC(C)COc1cc(=O)c2ccccc2n1C (optimized conformer: 41.84410663326407 kcal/mol)

>  <smiles>  (3) 
CC(C)COc1cc(=O)c2ccccc2n1C

>  <score_type>  (3) 
oracle

>  <origin>  (3) 
adg

>  <m_score__min__energy>  (3) 
-6.7400000000000002

>  <m_primary>  (3) 
energy

$$$$
3:0
     RDKit          3D

 31 33  0  0  0  0  0  0  0  0999 V2000
   -5.9450   25.0100  -29.6620 O   0  0  0  0  0  0  0  0  0  0  0  0
   -4.8110   24.4500  -30.4710 S   0  0  0  0  0  0  0  0  0  0  0  0
   -3.8750   25.5670  -30.8430 O   0  0  0  0  0  0  0  0  0  0  0  0
   -5.4470   23.7400  -31.9200 N   0  0  0  0  0  0  0  0  0  0  0  0
   -6.5420   22.8120  -31.9840 C   0  0  0  0  0  0  0  0  0  0  0  0
   -7.8360   23.1750  -31.5600 C   0  0  0  0  0  0  0  0  0  0  0  0
   -8.8920   22.2640  -31.6340 C   0  0  0  0  0  0  0  0  0  0  0  0
   -8.6790   20.9770  -32.1300 C   0  0  0  0  0  0  0  0  0  0  0  0
   -7.4050   20.5930  -32.5550 C   0  0  0  0  0  0  0  0  0  0  0  0
   -7.2030   19.3360  -33.0360 N   0  0  0  0  0  0  0  0  0  0  0  0
   -5.9830   18.9180  -33.4610 C   0  0  0  0  0  0  0  0  0  0  0  0
   -4.8890   19.7840  -33.4110 C   0  0  0  0  0  0  0  0  0  0  0  0
   -5.0600   21.0800  -32.9230 C   0  0  0  0  0  0  0  0  0  0  0  0
   -6.3250   21.5080  -32.4840 C   0  0  0  0  0  0  0  0  0  0  0  0
   -3.9770   23.2300  -29.5150 C   0  0  0  0  0  0  0  0  0  0  0  0
   -3.5420   23.5330  -28.2170 C   0  0  0  0  0  0  0  0  0  0  0  0
   -2.8880   22.5630  -27.4510 C   0  0  0  0  0  0  0  0  0  0  0  0
   -2.6630   21.2880  -27.9790 C   0  0  0  0  0  0  0  0  0  0  0  0
   -1.8440   20.0700  -27.0180 Cl  0  0  0  0  0  0  0  0  0  0  0  0
   -3.0910   20.9840  -29.2760 C   0  0  0  0  0  0  0  0  0  0  0  0
   -3.7450   21.9530  -30.0440 C   0  0  0  0  0  0  0  0  0  0  0  0
   -8.0162   24.1864  -31.1667 H   0  0  0  0  0  0  0  0  0  0  0  0
   -9.8966   22.5624  -31.2997 H   0  0  0  0  0  0  0  0  0  0  0  0
   -9.5151   20.2644  -32.1863 H   0  0  0  0  0  0  0  0  0  0  0  0
   -5.8564   17.8952  -33.8454 H   0  0  0  0  0  0  0  0  0  0  0  0
   -3.8996   19.4471  -33.7538 H   0  0  0  0  0  0  0  0  0  0  0  0
   -4.2030   21.7683  -32.8817 H   0  0  0  0  0  0  0  0  0  0  0  0
   -3.7156   24.5361  -27.8003 H   0  0  0  0  0  0  0  0  0  0  0  0
   -2.5502   22.8032  -26.4321 H   0  0  0  0  0  0  0  0  0  0  0  0
   -2.9129   19.9815  -29.6923 H   0  0  0  0  0  0  0  0  0  0  0  0
   -4.0777   21.7125  -31.0645 H   0  0  0  0  0  0  0  0  0  0  0  0
  1  2  2  0
  2  3  2  0
  2  4  1  0
  4  5  1  0
  5  6  2  0
  6  7  1  0
  7  8  2  0
  8  9  1  0
  9 10  2  0
 10 11  1  0
 11 12  2  0
 12 13  1  0
 13 14  2  0
  2 15  1  0
 15 16  2  0
 16 17  1  0
 17 18  2  0
 18 19  1  0
 18 20  1  0
 20 21  2  0
 14  5  1  0
 21 15  1  0
 14  9  1  0
  6 22  1  0
  7 23  1  0
  8 24  1  0
 11 25  1  0
 12 26  1  0
 13 27  1  0
 16 28  1  0
 17 29  1  0
 20 30  1  0
 21 31  1  0
M  CHG  1   4  -1
M  END
>  <UniqueID>  (4) 
4

>  <SMILES>  (4) 
O=S(=O)([N-]c1cccc2ncccc12)c1ccc(Cl)cc1

>  <Energy>  (4) 
41.28902886215036

>  <Genealogy>  (4) 
O=S(=O)([N-]c1cccc2ncccc12)c1ccc(Cl)cc1 (protonated)
O=S(=O)([N-]c1cccc2ncccc12)c1ccc(Cl)cc1 (3D coordinates assigned)
O=S(=O)([N-]c1cccc2ncccc12)c1ccc(Cl)cc1 (optimized conformer: 41.28902886215036 kcal/mol)

>  <smiles>  (4) 
O=S(=O)(Nc1cccc2ncccc12)c1ccc(Cl)cc1

>  <score_type>  (4) 
oracle

>  <origin>  (4) 
adg

>  <m_score__min__energy>  (4) 
-9.0500000000000007

>  <m_primary>  (4) 
energy

$$$$
4:0
     RDKit          3D

 42 45  0  0  0  0  0  0  0  0999 V2000
   -7.6846   25.7258  -29.9387 H   0  0  0  0  0  0  0  0  0  0  0  0
   -6.8810   25.0190  -30.1930 C   0  0  0  0  0  0  0  0  0  0  0  0
   -5.5460   25.3890  -30.0160 C   0  0  0  0  0  0  0  0  0  0  0  0
   -5.3040   26.3874  -29.6226 H   0  0  0  0  0  0  0  0  0  0  0  0
   -4.5140   24.5000  -30.3350 C   0  0  0  0  0  0  0  0  0  0  0  0
   -3.1900   24.9210  -30.1410 O   0  0  0  0  0  0  0  0  0  0  0  0
   -2.2460   24.2510  -29.3140 C   0  0  0  0  0  0  0  0  0  0  0  0
   -2.4943   24.4273  -28.2570 H   0  0  0  0  0  0  0  0  0  0  0  0
   -2.2767   23.1714  -29.5228 H   0  0  0  0  0  0  0  0  0  0  0  0
   -1.2371   24.6363  -29.5228 H   0  0  0  0  0  0  0  0  0  0  0  0
   -4.8350   23.2240  -30.8380 C   0  0  0  0  0  0  0  0  0  0  0  0
   -4.0292   22.5195  -31.0917 H   0  0  0  0  0  0  0  0  0  0  0  0
   -6.1790   22.8420  -31.0190 C   0  0  0  0  0  0  0  0  0  0  0  0
   -6.5150   21.4950  -31.5470 C   0  0  0  0  0  0  0  0  0  0  0  0
   -7.8280   20.9970  -31.4450 C   0  0  0  0  0  0  0  0  0  0  0  0
   -8.6078   21.6101  -30.9696 H   0  0  0  0  0  0  0  0  0  0  0  0
   -8.1500   19.7310  -31.9420 C   0  0  0  0  0  0  0  0  0  0  0  0
   -9.1800   19.3543  -31.8574 H   0  0  0  0  0  0  0  0  0  0  0  0
   -7.1640   18.9400  -32.5480 C   0  0  0  0  0  0  0  0  0  0  0  0
   -7.4720   17.6690  -33.0490 C   0  0  0  0  0  0  0  0  0  0  0  0
   -8.5007   17.2849  -32.9833 H   0  0  0  0  0  0  0  0  0  0  0  0
   -6.4670   16.8880  -33.6340 C   0  0  0  0  0  0  0  0  0  0  0  0
   -6.7870   15.7080  -34.0890 N   0  0  0  0  0  0  0  0  0  0  0  0
   -5.9370   14.5620  -34.2350 C   0  0  0  0  0  0  0  0  0  0  0  0
   -4.6930   14.7130  -34.1070 O   0  0  0  0  0  0  0  0  0  0  0  0
   -6.5090   13.2290  -34.6570 C   0  0  0  0  0  0  0  0  0  0  0  0
   -5.5526   12.6900  -34.5880 H   0  0  0  0  0  0  0  0  0  0  0  0
   -7.9360   12.9220  -34.2210 C   0  0  0  0  0  0  0  0  0  0  0  0
   -8.2272   11.8890  -33.9798 H   0  0  0  0  0  0  0  0  0  0  0  0
   -8.6056   13.2950  -33.4320 H   0  0  0  0  0  0  0  0  0  0  0  0
   -7.6490   13.3140  -35.6610 C   0  0  0  0  0  0  0  0  0  0  0  0
   -7.7331   12.5646  -36.4619 H   0  0  0  0  0  0  0  0  0  0  0  0
   -8.0256   14.0884  -36.3454 H   0  0  0  0  0  0  0  0  0  0  0  0
   -5.1990   17.3950  -33.7480 N   0  0  0  0  0  0  0  0  0  0  0  0
   -4.4470   16.8710  -34.2440 H   0  0  0  0  0  0  0  0  0  0  0  0
   -4.8750   18.6270  -33.2680 C   0  0  0  0  0  0  0  0  0  0  0  0
   -3.8433   18.9964  -33.3632 H   0  0  0  0  0  0  0  0  0  0  0  0
   -5.8460   19.4270  -32.6540 C   0  0  0  0  0  0  0  0  0  0  0  0
   -5.5280   20.6990  -32.1570 C   0  0  0  0  0  0  0  0  0  0  0  0
   -4.4989   21.0775  -32.2447 H   0  0  0  0  0  0  0  0  0  0  0  0
   -7.1980   23.7540  -30.6920 C   0  0  0  0  0  0  0  0  0  0  0  0
   -8.2515   23.4692  -30.8301 H   0  0  0  0  0  0  0  0  0  0  0  0
  1  2  1  0
  2  3  2  0
  3  4  1  0
  3  5  1  0
  5  6  1  0
  6  7  1  0
  7  8  1  0
  7  9  1  0
  7 10  1  0
  5 11  2  0
 11 12  1  0
 11 13  1  0
 13 14  1  0
 14 15  1  0
 15 16  1  0
 15 17  2  0
 17 18  1  0
 17 19  1  0
 19 20  2  0
 20 21  1  0
 20 22  1  0
 22 23  2  0
 23 24  1  0
 24 25  2  0
 24 26  1  0
 26 27  1  0
 26 28  1  0
 28 29  1  0
 28 30  1  0
 28 31  1  0
 31 32  1  0
 31 33  1  0
 22 34  1  0
 34 35  1  0
 34 36  1  0
 36 37  1  0
 36 38  2  0
 38 39  1  0
 39 40  1  0
 13 41  2  0
 41 42  1  0
 41  2  1  0
 39 14  2  0
 38 19  1  0
 31 26  1  0
M  END
>  <UniqueID>  (5) 
5

>  <SMILES>  (5) 
COc1cccc(-c2ccc3c/c(=N/C(=O)C4CC4)[nH]cc3c2)c1

>  <Energy>  (5) 
326.26750261935797

>  <Genealogy>  (5) 
COc1cccc(-c2ccc3c/c(=N/C(=O)C4CC4)[nH]cc3c2)c1 (cis-trans isomerization)
COc1cccc(-c2ccc3c/c(=N/C(=O)C4CC4)[nH]cc3c2)c1 (3D coordinates assigned)
COc1cccc(-c2ccc3c/c(=N/C(=O)C4CC4)[nH]cc3c2)c1 (nonaromatic ring conformer: 326.26750261935797 kcal/mol)

>  <smiles>  (5) 
COc1cccc(-c2ccc3cc(=NC(=O)C4CC4)[nH]cc3c2)c1

>  <score_type>  (5) 
oracle

>  <origin>  (5) 
adg

>  <m_score__min__energy>  (5) 
-8.5299999999999994

>  <m_primary>  (5) 
energy

$$$$
5:0
     RDKit          3D

 34 35  0  0  0  0  0  0  0  0999 V2000
   -5.3100   24.7950  -31.5770 O   0  0  0  0  0  0  0  0  0  0  0  0
   -5.8210   23.7830  -31.0190 C   0  0  0  0  0  0  0  0  0  0  0  0
   -6.9030   23.1150  -31.6090 O   0  0  0  0  0  0  0  0  0  0  0  0
   -6.8710   21.8030  -32.1090 C   0  0  0  0  0  0  0  0  0  0  0  0
   -5.7100   21.2580  -32.6920 C   0  0  0  0  0  0  0  0  0  0  0  0
   -5.7110   19.9430  -33.1670 C   0  0  0  0  0  0  0  0  0  0  0  0
   -6.8620   19.1590  -33.0570 C   0  0  0  0  0  0  0  0  0  0  0  0
   -6.8600   17.8840  -33.5180 F   0  0  0  0  0  0  0  0  0  0  0  0
   -8.0120   19.6860  -32.4640 C   0  0  0  0  0  0  0  0  0  0  0  0
   -8.0160   21.0010  -31.9840 C   0  0  0  0  0  0  0  0  0  0  0  0
   -9.4750   21.6400  -31.2410 Cl  0  0  0  0  0  0  0  0  0  0  0  0
   -5.3540   23.3600  -29.7190 N   0  0  2  0  0  0  0  0  0  0  0  0
   -5.0300   24.5520  -28.8960 C   0  0  0  0  0  0  0  0  0  0  0  0
   -4.1280   24.1900  -27.7090 C   0  0  0  0  0  0  0  0  0  0  0  0
   -2.7710   23.6000  -28.1800 C   0  0  2  0  0  0  0  0  0  0  0  0
   -1.6300   24.6320  -28.0870 C   0  0  0  0  0  0  0  0  0  0  0  0
   -1.8610   25.6740  -28.9680 F   0  0  0  0  0  0  0  0  0  0  0  0
   -0.4270   24.0360  -28.4220 F   0  0  0  0  0  0  0  0  0  0  0  0
   -1.5370   25.1420  -26.8030 F   0  0  0  0  0  0  0  0  0  0  0  0
   -2.8630   23.0020  -29.6040 C   0  0  0  0  0  0  0  0  0  0  0  0
   -4.2430   22.3730  -29.8420 C   0  0  0  0  0  0  0  0  0  0  0  0
   -4.7992   21.8694  -32.7738 H   0  0  0  0  0  0  0  0  0  0  0  0
   -4.8040   19.5251  -33.6281 H   0  0  0  0  0  0  0  0  0  0  0  0
   -8.9163   19.0662  -32.3741 H   0  0  0  0  0  0  0  0  0  0  0  0
   -6.1530   22.8670  -29.2530 H   0  0  0  0  0  0  0  0  0  0  0  0
   -4.5123   25.2906  -29.5256 H   0  0  0  0  0  0  0  0  0  0  0  0
   -5.9705   24.9634  -28.5008 H   0  0  0  0  0  0  0  0  0  0  0  0
   -3.9364   25.0970  -27.1168 H   0  0  0  0  0  0  0  0  0  0  0  0
   -4.6432   23.4279  -27.1058 H   0  0  0  0  0  0  0  0  0  0  0  0
   -2.5316   22.7778  -27.4896 H   0  0  0  0  0  0  0  0  0  0  0  0
   -2.6984   23.8008  -30.3421 H   0  0  0  0  0  0  0  0  0  0  0  0
   -2.0960   22.2205  -29.7089 H   0  0  0  0  0  0  0  0  0  0  0  0
   -4.2642   21.9436  -30.8545 H   0  0  0  0  0  0  0  0  0  0  0  0
   -4.3951   21.6036  -29.0707 H   0  0  0  0  0  0  0  0  0  0  0  0
  1  2  2  0
  2  3  1  0
  3  4  1  0
  4  5  2  0
  5  6  1  0
  6  7  2  0
  7  8  1  0
  7  9  1  0
  9 10  2  0
 10 11  1  0
  2 12  1  0
 12 13  1  0
 13 14  1  0
 14 15  1  0
 15 16  1  0
 16 17  1  0
 16 18  1  0
 16 19  1  0
 15 20  1  0
 20 21  1  0
 10  4  1  0
 21 12  1  0
  5 22  1  0
  6 23  1  0
  9 24  1  0
 12 25  1  1
 13 26  1  0
 13 27  1  0
 14 28  1  0
 14 29  1  0
 15 30  1  1
 20 31  1  0
 20 32  1  0
 21 33  1  0
 21 34  1  0
M  CHG  1  12   1
M  END
>  <UniqueID>  (6) 
6

>  <SMILES>  (6) 
O=C(Oc1ccc(F)cc1Cl)[NH+]1CCC(C(F)(F)F)CC1

>  <Energy>  (6) 
46.40469275069588

>  <Genealogy>  (6) 
O=C(Oc1ccc(F)cc1Cl)[NH+]1CCC(C(F)(F)F)CC1 (protonated)
O=C(Oc1ccc(F)cc1Cl)[NH+]1CCC(C(F)(F)F)CC1 (3D coordinates assigned)
O=C(Oc1ccc(F)cc1Cl)[NH+]1CCC(C(F)(F)F)CC1 (nonaromatic ring conformer: 46.40469275069588 kcal/mol)

>  <smiles>  (6) 
O=C(Oc1ccc(F)cc1Cl)N1CCC(C(F)(F)F)CC1

>  <score_type>  (6) 
oracle

>  <origin>  (6) 
adg

>  <m_score__min__energy>  (6) 
-6.04

>  <m_primary>  (6) 
energy

$$$$
6:0
     RDKit          3D

 33 35  0  0  0  0  0  0  0  0999 V2000
   -9.1270   18.2260  -31.5330 C   0  0  0  0  0  0  0  0  0  0  0  0
   -9.0720   19.5280  -32.3220 C   0  0  0  0  0  0  0  0  0  0  0  0
   -7.6920   20.0220  -32.3970 N   0  0  0  0  0  0  0  0  0  0  0  0
   -7.4110   21.2110  -31.8570 N   0  0  0  0  0  0  0  0  0  0  0  0
   -6.1530   21.7450  -31.8570 C   0  0  0  0  0  0  0  0  0  0  0  0
   -5.9070   23.0740  -31.2460 C   0  0  0  0  0  0  0  0  0  0  0  0
   -6.9560   23.8080  -30.6650 C   0  0  0  0  0  0  0  0  0  0  0  0
   -6.7080   25.0580  -30.0950 C   0  0  0  0  0  0  0  0  0  0  0  0
   -5.4110   25.5710  -30.1070 C   0  0  0  0  0  0  0  0  0  0  0  0
   -4.4030   24.8550  -30.6710 N   0  0  0  0  0  0  0  0  0  0  0  0
   -4.6170   23.6360  -31.2340 C   0  0  0  0  0  0  0  0  0  0  0  0
   -5.1260   21.0480  -32.4160 N   0  0  0  0  0  0  0  0  0  0  0  0
   -5.3420   19.8320  -32.9690 C   0  0  0  0  0  0  0  0  0  0  0  0
   -4.3260   19.0750  -33.5470 C   0  0  0  0  0  0  0  0  0  0  0  0
   -3.1540   19.5420  -33.5840 O   0  0  0  0  0  0  0  0  0  0  0  0
   -4.6070   17.8360  -34.0710 N   0  0  0  0  0  0  0  0  0  0  0  0
   -3.5330   17.0510  -34.7040 C   0  0  0  0  0  0  0  0  0  0  0  0
   -5.8980   17.3530  -34.0720 C   0  0  0  0  0  0  0  0  0  0  0  0
   -6.1630   16.2360  -34.5930 O   0  0  0  0  0  0  0  0  0  0  0  0
   -6.9120   18.0680  -33.5170 N   0  0  0  0  0  0  0  0  0  0  0  0
   -6.6940   19.2830  -32.9610 C   0  0  0  0  0  0  0  0  0  0  0  0
   -9.1176   18.4493  -30.4559 H   0  0  0  0  0  0  0  0  0  0  0  0
  -10.0489   17.6822  -31.7867 H   0  0  0  0  0  0  0  0  0  0  0  0
   -8.2542   17.6064  -31.7867 H   0  0  0  0  0  0  0  0  0  0  0  0
   -9.4497   19.3514  -33.3399 H   0  0  0  0  0  0  0  0  0  0  0  0
   -9.6934   20.2801  -31.8139 H   0  0  0  0  0  0  0  0  0  0  0  0
   -7.9758   23.3958  -30.6595 H   0  0  0  0  0  0  0  0  0  0  0  0
   -7.5281   25.6332  -29.6405 H   0  0  0  0  0  0  0  0  0  0  0  0
   -5.2042   26.5546  -29.6602 H   0  0  0  0  0  0  0  0  0  0  0  0
   -3.7768   23.0859  -31.6827 H   0  0  0  0  0  0  0  0  0  0  0  0
   -2.9059   16.5927  -33.9251 H   0  0  0  0  0  0  0  0  0  0  0  0
   -3.9756   16.2620  -35.3298 H   0  0  0  0  0  0  0  0  0  0  0  0
   -2.9156   17.7122  -35.3298 H   0  0  0  0  0  0  0  0  0  0  0  0
  1  2  1  0
  2  3  1  0
  3  4  1  0
  4  5  2  0
  5  6  1  0
  6  7  2  0
  7  8  1  0
  8  9  2  0
  9 10  1  0
 10 11  2  0
  5 12  1  0
 12 13  2  0
 13 14  1  0
 14 15  2  0
 14 16  1  0
 16 17  1  0
 16 18  1  0
 18 19  2  0
 18 20  1  0
 20 21  2  0
 21  3  1  0
 11  6  1  0
 21 13  1  0
  1 22  1  0
  1 23  1  0
  1 24  1  0
  2 25  1  0
  2 26  1  0
  7 27  1  0
  8 28  1  0
  9 29  1  0
 11 30  1  0
 17 31  1  0
 17 32  1  0
 17 33  1  0
M  END
>  <UniqueID>  (7) 
7

>  <SMILES>  (7) 
CCn1nc(-c2cccnc2)nc2c(=O)n(C)c(=O)nc1-2

>  <Energy>  (7) 
42.72323090855643

>  <Genealogy>  (7) 
CCn1nc(-c2cccnc2)nc2c(=O)n(C)c(=O)nc1-2 (3D coordinates assigned)
CCn1nc(-c2cccnc2)nc2c(=O)n(C)c(=O)nc1-2 (optimized conformer: 42.72323090855643 kcal/mol)

>  <smiles>  (7) 
CCn1nc(-c2cccnc2)nc2c(=O)n(C)c(=O)nc1-2

>  <score_type>  (7) 
oracle

>  <origin>  (7) 
adg

>  <m_score__min__energy>  (7) 
-7.6500000000000004

>  <m_primary>  (7) 
energy

$$$$
7:0
     RDKit          3D

 43 45  0  0  0  0  0  0  0  0999 V2000
   -2.4550   24.5000  -29.0180 C   0  0  0  0  0  0  0  0  0  0  0  0
   -3.4400   24.1350  -30.0800 C   0  0  0  0  0  0  0  0  0  0  0  0
   -4.1530   25.0380  -30.7820 N   0  0  0  0  0  0  0  0  0  0  0  0
   -4.9860   24.3890  -31.5820 N   0  0  0  0  0  0  0  0  0  0  0  0
   -4.8020   23.0680  -31.3950 C   0  0  0  0  0  0  0  0  0  0  0  0
   -5.5800   22.0620  -32.0560 N   0  0  0  0  0  0  0  0  0  0  0  0
   -5.0980   21.1560  -32.9380 C   0  0  0  0  0  0  0  0  0  0  0  0
   -6.1290   20.3280  -33.3700 C   0  0  0  0  0  0  0  0  0  0  0  0
   -6.0290   19.2420  -34.3020 N   0  0  0  0  0  0  0  0  0  0  0  0
   -4.9970   18.2160  -34.1760 C   0  0  0  0  0  0  0  0  0  0  0  0
   -5.6090   16.8400  -34.1820 C   0  0  0  0  0  0  0  0  0  0  0  0
   -6.7950   16.7140  -34.5930 O   0  0  0  0  0  0  0  0  0  0  0  0
   -4.8630   15.6720  -33.7750 N   0  0  0  0  0  0  0  0  0  0  0  0
   -5.4980   14.3530  -33.8700 C   0  0  0  0  0  0  0  0  0  0  0  0
   -3.4890   15.7910  -33.2730 C   0  0  0  0  0  0  0  0  0  0  0  0
   -7.2670   20.7410  -32.7090 C   0  0  0  0  0  0  0  0  0  0  0  0
   -8.5740   20.2510  -32.7280 C   0  0  0  0  0  0  0  0  0  0  0  0
   -9.5170   20.8650  -31.8860 C   0  0  0  0  0  0  0  0  0  0  0  0
   -9.1360   21.9310  -31.0420 C   0  0  0  0  0  0  0  0  0  0  0  0
   -7.8120   22.4010  -31.0410 C   0  0  0  0  0  0  0  0  0  0  0  0
   -6.8970   21.7960  -31.9080 C   0  0  0  0  0  0  0  0  0  0  0  0
   -3.8440   22.8580  -30.4210 C   0  0  0  0  0  0  0  0  0  0  0  0
   -3.3990   21.5690  -29.8040 C   0  0  0  0  0  0  0  0  0  0  0  0
   -2.9046   24.3334  -28.0280 H   0  0  0  0  0  0  0  0  0  0  0  0
   -1.5554   23.8755  -29.1220 H   0  0  0  0  0  0  0  0  0  0  0  0
   -2.1796   25.5599  -29.1220 H   0  0  0  0  0  0  0  0  0  0  0  0
   -4.0498   21.0850  -33.2640 H   0  0  0  0  0  0  0  0  0  0  0  0
   -6.7130   19.1950  -35.0910 H   0  0  0  0  0  0  0  0  0  0  0  0
   -4.2966   18.3031  -35.0197 H   0  0  0  0  0  0  0  0  0  0  0  0
   -4.4676   18.3628  -33.2230 H   0  0  0  0  0  0  0  0  0  0  0  0
   -5.6858   13.9628  -32.8588 H   0  0  0  0  0  0  0  0  0  0  0  0
   -6.4514   14.4432  -34.4112 H   0  0  0  0  0  0  0  0  0  0  0  0
   -4.8329   13.6640  -34.4112 H   0  0  0  0  0  0  0  0  0  0  0  0
   -3.4991   15.7901  -32.1730 H   0  0  0  0  0  0  0  0  0  0  0  0
   -2.8915   14.9412  -33.6349 H   0  0  0  0  0  0  0  0  0  0  0  0
   -3.0465   16.7308  -33.6349 H   0  0  0  0  0  0  0  0  0  0  0  0
   -8.8566   19.4118  -33.3806 H   0  0  0  0  0  0  0  0  0  0  0  0
  -10.5591   20.5127  -31.8845 H   0  0  0  0  0  0  0  0  0  0  0  0
   -9.8812   22.3968  -30.3805 H   0  0  0  0  0  0  0  0  0  0  0  0
   -7.5039   23.2219  -30.3768 H   0  0  0  0  0  0  0  0  0  0  0  0
   -3.4295   21.6573  -28.7080 H   0  0  0  0  0  0  0  0  0  0  0  0
   -4.0692   20.7581  -30.1253 H   0  0  0  0  0  0  0  0  0  0  0  0
   -2.3713   21.3443  -30.1253 H   0  0  0  0  0  0  0  0  0  0  0  0
  1  2  1  0
  2  3  2  0
  3  4  1  0
  4  5  1  0
  5  6  1  0
  6  7  1  0
  7  8  2  0
  8  9  1  0
  9 10  1  0
 10 11  1  0
 11 12  2  0
 11 13  1  0
 13 14  1  0
 13 15  1  0
  8 16  1  0
 16 17  2  0
 17 18  1  0
 18 19  2  0
 19 20  1  0
 20 21  2  0
  5 22  2  0
 22 23  1  0
 22  2  1  0
 21  6  1  0
 21 16  1  0
  1 24  1  0
  1 25  1  0
  1 26  1  0
  7 27  1  0
  9 28  1  0
 10 29  1  0
 10 30  1  0
 14 31  1  0
 14 32  1  0
 14 33  1  0
 15 34  1  0
 15 35  1  0
 15 36  1  0
 17 37  1  0
 18 38  1  0
 19 39  1  0
 20 40  1  0
 23 41  1  0
 23 42  1  0
 23 43  1  0
M  CHG  1   4  -1
M  END
>  <UniqueID>  (8) 
8

>  <SMILES>  (8) 
Cc1n[n-]c(-n2cc(NCC(=O)N(C)C)c3ccccc32)c1C

>  <Energy>  (8) 
108.3964226134359

>  <Genealogy>  (8) 
Cc1n[n-]c(-n2cc(NCC(=O)N(C)C)c3ccccc32)c1C (protonated)
Cc1n[n-]c(-n2cc(NCC(=O)N(C)C)c3ccccc32)c1C (3D coordinates assigned)
Cc1n[n-]c(-n2cc(NCC(=O)N(C)C)c3ccccc32)c1C (optimized conformer: 108.3964226134359 kcal/mol)

>  <smiles>  (8) 
Cc1n[nH]c(-n2cc(NCC(=O)N(C)C)c3ccccc32)c1C

>  <score_type>  (8) 
oracle

>  <origin>  (8) 
adg

>  <m_score__min__energy>  (8) 
-9.1999999999999993

>  <m_primary>  (8) 
energy

$$$$
8:0
     RDKit          3D

 48 50  0  0  0  0  0  0  0  0999 V2000
   -2.0220   25.0980  -27.5870 C   0  0  0  0  0  0  0  0  0  0  0  0
   -2.3870   25.2920  -28.9490 O   0  0  0  0  0  0  0  0  0  0  0  0
   -2.8410   24.2730  -29.8000 C   0  0  0  0  0  0  0  0  0  0  0  0
   -2.0680   23.1340  -30.0950 C   0  0  0  0  0  0  0  0  0  0  0  0
   -2.5650   22.1460  -30.9510 C   0  0  0  0  0  0  0  0  0  0  0  0
   -3.8340   22.2860  -31.5380 C   0  0  0  0  0  0  0  0  0  0  0  0
   -4.3770   21.2740  -32.4030 N   0  0  0  0  0  0  0  0  0  0  0  0
   -3.5760   20.3990  -33.2150 C   0  0  0  0  0  0  0  0  0  0  0  0
   -2.3550   20.6510  -33.4100 O   0  0  0  0  0  0  0  0  0  0  0  0
   -4.2010   19.1940  -33.8740 C   0  0  0  0  0  0  0  0  0  0  0  0
   -3.9890   17.9150  -33.0280 C   0  0  0  0  0  0  0  0  0  0  0  0
   -5.2280   17.5920  -32.1830 C   0  0  0  0  0  0  0  0  0  0  0  0
   -6.4280   17.3380  -33.0240 N   0  0  0  0  0  0  0  0  0  0  0  0
   -7.6740   17.5040  -32.2440 C   0  0  0  0  0  0  0  0  0  0  0  0
   -8.0160   18.9630  -32.0750 C   0  0  0  0  0  0  0  0  0  0  0  0
   -9.2590   19.4490  -32.5140 C   0  0  0  0  0  0  0  0  0  0  0  0
   -9.5910   20.7960  -32.3360 C   0  0  0  0  0  0  0  0  0  0  0  0
   -8.6880   21.6640  -31.7160 C   0  0  0  0  0  0  0  0  0  0  0  0
   -7.4520   21.1860  -31.2700 C   0  0  0  0  0  0  0  0  0  0  0  0
   -7.1160   19.8400  -31.4460 C   0  0  0  0  0  0  0  0  0  0  0  0
   -6.4660   18.1360  -34.2810 C   0  0  0  0  0  0  0  0  0  0  0  0
   -5.6950   19.4570  -34.1660 C   0  0  0  0  0  0  0  0  0  0  0  0
   -4.6100   23.4110  -31.2250 C   0  0  0  0  0  0  0  0  0  0  0  0
   -4.1130   24.3990  -30.3700 C   0  0  0  0  0  0  0  0  0  0  0  0
   -2.8043   25.5138  -26.9350 H   0  0  0  0  0  0  0  0  0  0  0  0
   -1.9113   24.0221  -27.3867 H   0  0  0  0  0  0  0  0  0  0  0  0
   -1.0683   25.6082  -27.3867 H   0  0  0  0  0  0  0  0  0  0  0  0
   -1.0684   23.0206  -29.6501 H   0  0  0  0  0  0  0  0  0  0  0  0
   -1.9587   21.2537  -31.1661 H   0  0  0  0  0  0  0  0  0  0  0  0
   -5.4150   21.2280  -32.5090 H   0  0  0  0  0  0  0  0  0  0  0  0
   -3.6970   19.0212  -34.8363 H   0  0  0  0  0  0  0  0  0  0  0  0
   -3.7849   17.0698  -33.7018 H   0  0  0  0  0  0  0  0  0  0  0  0
   -3.1410   18.0856  -32.3485 H   0  0  0  0  0  0  0  0  0  0  0  0
   -5.0218   16.6959  -31.5793 H   0  0  0  0  0  0  0  0  0  0  0  0
   -5.4395   18.4629  -31.5452 H   0  0  0  0  0  0  0  0  0  0  0  0
   -8.4978   17.0002  -32.7707 H   0  0  0  0  0  0  0  0  0  0  0  0
   -7.5253   17.0615  -31.2480 H   0  0  0  0  0  0  0  0  0  0  0  0
   -9.9735   18.7679  -32.9993 H   0  0  0  0  0  0  0  0  0  0  0  0
  -10.5640   21.1726  -32.6844 H   0  0  0  0  0  0  0  0  0  0  0  0
   -8.9497   22.7236  -31.5788 H   0  0  0  0  0  0  0  0  0  0  0  0
   -6.7430   21.8696  -30.7801 H   0  0  0  0  0  0  0  0  0  0  0  0
   -6.1442   19.4666  -31.0910 H   0  0  0  0  0  0  0  0  0  0  0  0
   -6.0220   17.5385  -35.0909 H   0  0  0  0  0  0  0  0  0  0  0  0
   -7.5182   18.3818  -34.4873 H   0  0  0  0  0  0  0  0  0  0  0  0
   -5.7859   20.0116  -35.1116 H   0  0  0  0  0  0  0  0  0  0  0  0
   -6.1193   20.0430  -33.3374 H   0  0  0  0  0  0  0  0  0  0  0  0
   -5.6168   23.5169  -31.6552 H   0  0  0  0  0  0  0  0  0  0  0  0
   -4.7270   25.2831  -30.1433 H   0  0  0  0  0  0  0  0  0  0  0  0
  1  2  1  0
  2  3  1  0
  3  4  2  0
  4  5  1  0
  5  6  2  0
  6  7  1  0
  7  8  1  0
  8  9  2  0
  8 10  1  0
 10 11  1  0
 11 12  1  0
 12 13  1  0
 13 14  1  0
 14 15  1  0
 15 16  2  0
 16 17  1  0
 17 18  2  0
 18 19  1  0
 19 20  2  0
 13 21  1  0
 21 22  1  0
  6 23  1  0
 23 24  2  0
 24  3  1  0
 22 10  1  0
 20 15  1  0
  1 25  1  0
  1 26  1  0
  1 27  1  0
  4 28  1  0
  5 29  1  0
  7 30  1  0
 10 31  1  0
 11 32  1  0
 11 33  1  0
 12 34  1  0
 12 35  1  0
 14 36  1  0
 14 37  1  0
 16 38  1  0
 17 39  1  0
 18 40  1  0
 19 41  1  0
 20 42  1  0
 21 43  1  0
 21 44  1  0
 22 45  1  0
 22 46  1  0
 23 47  1  0
 24 48  1  0
M  END
>  <UniqueID>  (9) 
9

>  <SMILES>  (9) 
COc1ccc(NC(=O)C2CCN(Cc3ccccc3)CC2)cc1

>  <Energy>  (9) 
60.03583369617738

>  <Genealogy>  (9) 
COc1ccc(NC(=O)C2CCN(Cc3ccccc3)CC2)cc1 (3D coordinates assigned)
COc1ccc(NC(=O)C2CCN(Cc3ccccc3)CC2)cc1 (nonaromatic ring conformer: 60.03583369617738 kcal/mol)

>  <smiles>  (9) 
COc1ccc(NC(=O)C2CCN(Cc3ccccc3)CC2)cc1

>  <score_type>  (9) 
oracle

>  <origin>  (9) 
adg

>  <m_score__min__energy>  (9) 
-9.1899999999999995

>  <m_primary>  (9) 
energy

$$$$
9:0
     RDKit          3D

 60 63  0  0  0  0  0  0  0  0999 V2000
    0.4380   18.6060  -28.5770 C   0  0  0  0  0  0  0  0  0  0  0  0
   -0.4820   19.0590  -29.7150 C   0  0  0  0  0  0  0  0  0  0  0  0
    0.1890   18.8580  -31.0790 C   0  0  0  0  0  0  0  0  0  0  0  0
   -0.9150   20.4990  -29.5140 C   0  0  0  0  0  0  0  0  0  0  0  0
   -1.0590   21.3510  -30.6260 C   0  0  0  0  0  0  0  0  0  0  0  0
   -1.4850   22.6720  -30.4560 C   0  0  0  0  0  0  0  0  0  0  0  0
   -1.7770   23.1610  -29.1760 C   0  0  0  0  0  0  0  0  0  0  0  0
   -2.3670   24.8090  -28.9760 S   0  0  0  0  0  0  0  0  0  0  0  0
   -3.0510   24.9250  -27.6420 O   0  0  0  0  0  0  0  0  0  0  0  0
   -1.2010   25.7560  -28.9950 O   0  0  0  0  0  0  0  0  0  0  0  0
   -3.4910   25.2680  -30.2180 N   0  0  0  0  0  0  0  0  0  0  0  0
   -4.7410   24.6180  -30.4660 C   0  0  0  0  0  0  0  0  0  0  0  0
   -5.9610   25.2470  -30.1830 C   0  0  0  0  0  0  0  0  0  0  0  0
   -7.1650   24.5940  -30.4480 C   0  0  0  0  0  0  0  0  0  0  0  0
   -7.1620   23.3200  -31.0190 C   0  0  0  0  0  0  0  0  0  0  0  0
   -5.9500   22.6840  -31.3450 C   0  0  0  0  0  0  0  0  0  0  0  0
   -5.9680   21.3410  -31.9870 C   0  0  0  0  0  0  0  0  0  0  0  0
   -7.1540   20.7500  -32.4500 C   0  0  0  0  0  0  0  0  0  0  0  0
   -7.1110   19.4840  -33.0290 C   0  0  0  0  0  0  0  0  0  0  0  0
   -5.8790   18.8190  -33.1570 C   0  0  0  0  0  0  0  0  0  0  0  0
   -5.7820   17.4980  -33.7480 N   0  0  0  0  0  0  0  0  0  0  0  0
   -4.8420   17.2360  -34.8480 C   0  0  0  0  0  0  0  0  0  0  0  0
   -4.1530   15.8810  -34.6330 C   0  0  0  0  0  0  0  0  0  0  0  0
   -5.0920   14.7670  -34.3350 N   0  0  0  0  0  0  0  0  0  0  0  0
   -4.6480   13.9830  -33.1700 C   0  0  0  0  0  0  0  0  0  0  0  0
   -6.5110   15.1680  -34.2130 C   0  0  0  0  0  0  0  0  0  0  0  0
   -6.6910   16.4170  -33.3390 C   0  0  0  0  0  0  0  0  0  0  0  0
   -4.7570   19.4490  -32.7060 N   0  0  0  0  0  0  0  0  0  0  0  0
   -4.8000   20.6580  -32.1460 N   0  0  0  0  0  0  0  0  0  0  0  0
   -4.7400   23.3590  -31.0780 C   0  0  0  0  0  0  0  0  0  0  0  0
   -1.6400   22.3170  -28.0650 C   0  0  0  0  0  0  0  0  0  0  0  0
   -1.2170   20.9970  -28.2320 C   0  0  0  0  0  0  0  0  0  0  0  0
   -0.0330   18.8379  -27.6104 H   0  0  0  0  0  0  0  0  0  0  0  0
    0.6071   17.5216  -28.6517 H   0  0  0  0  0  0  0  0  0  0  0  0
    1.4006   19.1332  -28.6517 H   0  0  0  0  0  0  0  0  0  0  0  0
   -1.3856   18.4319  -29.6980 H   0  0  0  0  0  0  0  0  0  0  0  0
    1.2332   18.5452  -30.9314 H   0  0  0  0  0  0  0  0  0  0  0  0
   -0.3501   18.0819  -31.6421 H   0  0  0  0  0  0  0  0  0  0  0  0
    0.1653   19.8027  -31.6421 H   0  0  0  0  0  0  0  0  0  0  0  0
   -0.8349   20.9748  -31.6351 H   0  0  0  0  0  0  0  0  0  0  0  0
   -1.5913   23.3300  -31.3310 H   0  0  0  0  0  0  0  0  0  0  0  0
   -5.9693   26.2585  -29.7507 H   0  0  0  0  0  0  0  0  0  0  0  0
   -8.1195   25.0844  -30.2063 H   0  0  0  0  0  0  0  0  0  0  0  0
   -8.1159   22.8088  -31.2158 H   0  0  0  0  0  0  0  0  0  0  0  0
   -8.1114   21.2834  -32.3561 H   0  0  0  0  0  0  0  0  0  0  0  0
   -8.0363   19.0069  -33.3843 H   0  0  0  0  0  0  0  0  0  0  0  0
   -5.3910   17.2192  -35.8011 H   0  0  0  0  0  0  0  0  0  0  0  0
   -4.0812   18.0301  -34.8719 H   0  0  0  0  0  0  0  0  0  0  0  0
   -3.5944   15.6279  -35.5462 H   0  0  0  0  0  0  0  0  0  0  0  0
   -3.5000   15.9912  -33.7547 H   0  0  0  0  0  0  0  0  0  0  0  0
   -4.9417   14.5017  -32.2455 H   0  0  0  0  0  0  0  0  0  0  0  0
   -5.1168   12.9883  -33.1972 H   0  0  0  0  0  0  0  0  0  0  0  0
   -3.5538   13.8735  -33.1972 H   0  0  0  0  0  0  0  0  0  0  0  0
   -6.9064   15.3793  -35.2175 H   0  0  0  0  0  0  0  0  0  0  0  0
   -7.0542   14.3406  -33.7330 H   0  0  0  0  0  0  0  0  0  0  0  0
   -7.7290   16.7697  -33.4295 H   0  0  0  0  0  0  0  0  0  0  0  0
   -6.4581   16.1461  -32.2986 H   0  0  0  0  0  0  0  0  0  0  0  0
   -3.7841   22.8901  -31.3542 H   0  0  0  0  0  0  0  0  0  0  0  0
   -1.8667   22.6963  -27.0577 H   0  0  0  0  0  0  0  0  0  0  0  0
   -1.1188   20.3406  -27.3548 H   0  0  0  0  0  0  0  0  0  0  0  0
  1  2  1  0
  2  3  1  0
  2  4  1  0
  4  5  2  0
  5  6  1  0
  6  7  2  0
  7  8  1  0
  8  9  2  0
  8 10  2  0
  8 11  1  0
 11 12  1  0
 12 13  2  0
 13 14  1  0
 14 15  2  0
 15 16  1  0
 16 17  1  0
 17 18  2  0
 18 19  1  0
 19 20  2  0
 20 21  1  0
 21 22  1  0
 22 23  1  0
 23 24  1  0
 24 25  1  0
 24 26  1  0
 26 27  1  0
 20 28  1  0
 28 29  2  0
 16 30  2  0
  7 31  1  0
 31 32  2  0
 32  4  1  0
 30 12  1  0
 29 17  1  0
 27 21  1  0
  1 33  1  0
  1 34  1  0
  1 35  1  0
  2 36  1  0
  3 37  1  0
  3 38  1  0
  3 39  1  0
  5 40  1  0
  6 41  1  0
 13 42  1  0
 14 43  1  0
 15 44  1  0
 18 45  1  0
 19 46  1  0
 22 47  1  0
 22 48  1  0
 23 49  1  0
 23 50  1  0
 25 51  1  0
 25 52  1  0
 25 53  1  0
 26 54  1  0
 26 55  1  0
 27 56  1  0
 27 57  1  0
 30 58  1  0
 31 59  1  0
 32 60  1  0
M  CHG  1  11  -1
M  END
>  <UniqueID>  (10) 
10

>  <SMILES>  (10) 
CC(C)c1ccc(S(=O)(=O)[N-]c2cccc(-c3ccc(N4CCN(C)CC4)nn3)c2)cc1

>  <Energy>  (10) 
82.56542228501432

>  <Genealogy>  (10) 
CC(C)c1ccc(S(=O)(=O)[N-]c2cccc(-c3ccc(N4CCN(C)CC4)nn3)c2)cc1 (protonated)
CC(C)c1ccc(S(=O)(=O)[N-]c2cccc(-c3ccc(N4CCN(C)CC4)nn3)c2)cc1 (3D coordinates assigned)
CC(C)c1ccc(S(=O)(=O)[N-]c2cccc(-c3ccc(N4CCN(C)CC4)nn3)c2)cc1 (nonaromatic ring conformer: 82.56542228501432 kcal/mol)

>  <smiles>  (10) 
CC(C)c1ccc(S(=O)(=O)Nc2cccc(-c3ccc(N4CCN(C)CC4)nn3)c2)cc1

>  <score_type>  (10) 
oracle

>  <origin>  (10) 
adg

>  <m_score__min__energy>  (10) 
-11.65

>  <m_primary>  (10) 
energy

$$$$
10:0
     RDKit          3D

 44 47  0  0  0  0  0  0  0  0999 V2000
   -2.5370   20.6220  -33.6580 C   0  0  0  0  0  0  0  0  0  0  0  0
   -3.9440   20.2390  -33.4770 N   0  0  0  0  0  0  0  0  0  0  0  0
   -4.8710   21.1380  -32.9950 C   0  0  0  0  0  0  0  0  0  0  0  0
   -4.5010   22.3090  -32.7010 O   0  0  0  0  0  0  0  0  0  0  0  0
   -6.1980   20.7680  -32.8160 N   0  0  0  0  0  0  0  0  0  0  0  0
   -7.1800   21.7700  -32.3470 C   0  0  0  0  0  0  0  0  0  0  0  0
   -6.9070   22.2770  -30.9040 C   0  0  0  0  0  0  0  0  0  0  0  0
   -5.8680   23.3270  -30.7400 N   0  0  0  0  0  0  0  0  0  0  0  0
   -4.9990   23.1360  -29.5620 C   0  0  0  0  0  0  0  0  0  0  0  0
   -3.8390   24.1610  -29.5770 C   0  0  0  0  0  0  0  0  0  0  0  0
   -4.0620   25.2370  -30.4750 O   0  0  0  0  0  0  0  0  0  0  0  0
   -5.3730   25.7390  -30.3170 C   0  0  0  0  0  0  0  0  0  0  0  0
   -6.4130   24.7040  -30.7950 C   0  0  0  0  0  0  0  0  0  0  0  0
   -6.5830   19.4620  -33.0350 C   0  0  0  0  0  0  0  0  0  0  0  0
   -7.7640   19.0810  -32.8170 O   0  0  0  0  0  0  0  0  0  0  0  0
   -5.6320   18.5640  -33.4990 C   0  0  0  0  0  0  0  0  0  0  0  0
   -4.3490   18.9620  -33.7090 C   0  0  0  0  0  0  0  0  0  0  0  0
   -3.5800   17.9360  -34.1420 N   0  0  0  0  0  0  0  0  0  0  0  0
   -4.4700   16.9130  -34.1830 C   0  0  0  0  0  0  0  0  0  0  0  0
   -4.1800   15.6070  -34.5740 C   0  0  0  0  0  0  0  0  0  0  0  0
   -5.2260   14.6710  -34.5560 C   0  0  0  0  0  0  0  0  0  0  0  0
   -6.5190   15.0540  -34.1530 C   0  0  0  0  0  0  0  0  0  0  0  0
   -6.7600   16.3810  -33.7680 C   0  0  0  0  0  0  0  0  0  0  0  0
   -5.7200   17.2570  -33.7990 N   0  0  0  0  0  0  0  0  0  0  0  0
   -2.0626   20.7511  -32.6740 H   0  0  0  0  0  0  0  0  0  0  0  0
   -2.0116   19.8342  -34.2178 H   0  0  0  0  0  0  0  0  0  0  0  0
   -2.4834   21.5674  -34.2178 H   0  0  0  0  0  0  0  0  0  0  0  0
   -7.1514   22.6317  -33.0301 H   0  0  0  0  0  0  0  0  0  0  0  0
   -8.1640   21.2784  -32.3365 H   0  0  0  0  0  0  0  0  0  0  0  0
   -7.8514   22.6812  -30.5107 H   0  0  0  0  0  0  0  0  0  0  0  0
   -6.5148   21.4022  -30.3647 H   0  0  0  0  0  0  0  0  0  0  0  0
   -5.2480   23.2270  -31.5810 H   0  0  0  0  0  0  0  0  0  0  0  0
   -5.5933   23.2741  -28.6467 H   0  0  0  0  0  0  0  0  0  0  0  0
   -4.5785   22.1199  -29.5891 H   0  0  0  0  0  0  0  0  0  0  0  0
   -3.7192   24.5698  -28.5628 H   0  0  0  0  0  0  0  0  0  0  0  0
   -2.9361   23.6315  -29.9153 H   0  0  0  0  0  0  0  0  0  0  0  0
   -5.5484   25.9634  -29.2545 H   0  0  0  0  0  0  0  0  0  0  0  0
   -5.4780   26.6520  -30.9215 H   0  0  0  0  0  0  0  0  0  0  0  0
   -7.3011   24.7638  -30.1486 H   0  0  0  0  0  0  0  0  0  0  0  0
   -6.6748   24.9320  -31.8388 H   0  0  0  0  0  0  0  0  0  0  0  0
   -3.1653   15.3193  -34.8863 H   0  0  0  0  0  0  0  0  0  0  0  0
   -5.0338   13.6311  -34.8589 H   0  0  0  0  0  0  0  0  0  0  0  0
   -7.3356   14.3171  -34.1401 H   0  0  0  0  0  0  0  0  0  0  0  0
   -7.7622   16.7042  -33.4499 H   0  0  0  0  0  0  0  0  0  0  0  0
  1  2  1  0
  2  3  1  0
  3  4  2  0
  3  5  1  0
  5  6  1  0
  6  7  1  0
  7  8  1  0
  8  9  1  0
  9 10  1  0
 10 11  1  0
 11 12  1  0
 12 13  1  0
  5 14  1  0
 14 15  2  0
 14 16  1  0
 16 17  2  0
 17 18  1  0
 18 19  2  0
 19 20  1  0
 20 21  2  0
 21 22  1  0
 22 23  2  0
 23 24  1  0
 17  2  1  0
 24 19  1  0
 13  8  1  0
 24 16  1  0
  1 25  1  0
  1 26  1  0
  1 27  1  0
  6 28  1  0
  6 29  1  0
  7 30  1  0
  7 31  1  0
  8 32  1  0
  9 33  1  0
  9 34  1  0
 10 35  1  0
 10 36  1  0
 12 37  1  0
 12 38  1  0
 13 39  1  0
 13 40  1  0
 20 41  1  0
 21 42  1  0
 22 43  1  0
 23 44  1  0
M  CHG  1   8   1
M  END
>  <UniqueID>  (11) 
11

>  <SMILES>  (11) 
Cn1c(=O)n(CC[NH+]2CCOCC2)c(=O)c2c1nc1ccccn12

>  <Energy>  (11) 
114.2503023508514

>  <Genealogy>  (11) 
Cn1c(=O)n(CC[NH+]2CCOCC2)c(=O)c2c1nc1ccccn12 (protonated)
Cn1c(=O)n(CC[NH+]2CCOCC2)c(=O)c2c1nc1ccccn12 (3D coordinates assigned)
Cn1c(=O)n(CC[NH+]2CCOCC2)c(=O)c2c1nc1ccccn12 (nonaromatic ring conformer: 114.2503023508514 kcal/mol)

>  <smiles>  (11) 
Cn1c(=O)n(CCN2CCOCC2)c(=O)c2c1nc1ccccn12

>  <score_type>  (11) 
oracle

>  <origin>  (11) 
adg

>  <m_score__min__energy>  (11) 
-6.96

>  <m_primary>  (11) 
energy

$$$$
11:0
     RDKit          3D

 36 38  0  0  0  0  0  0  0  0999 V2000
   -4.2380   25.5340  -31.5830 H   0  0  0  0  0  0  0  0  0  0  0  0
   -3.8790   25.3300  -30.6250 N   0  0  0  0  0  0  0  0  0  0  0  0
   -4.1040   24.2110  -30.0100 C   0  0  0  0  0  0  0  0  0  0  0  0
   -4.9850   23.2290  -30.4330 C   0  0  0  0  0  0  0  0  0  0  0  0
   -5.8040   23.1770  -31.6630 C   0  0  0  0  0  0  0  0  0  0  0  0
   -5.7210   24.1290  -32.4840 O   0  0  0  0  0  0  0  0  0  0  0  0
   -6.7210   22.0520  -31.9560 C   0  0  0  0  0  0  0  0  0  0  0  0
   -8.0870   22.1570  -31.6360 C   0  0  0  0  0  0  0  0  0  0  0  0
   -8.4730   23.0812  -31.1812 H   0  0  0  0  0  0  0  0  0  0  0  0
   -8.9560   21.0930  -31.8930 C   0  0  0  0  0  0  0  0  0  0  0  0
  -10.0244   21.1860  -31.6484 H   0  0  0  0  0  0  0  0  0  0  0  0
   -8.4710   19.9110  -32.4600 C   0  0  0  0  0  0  0  0  0  0  0  0
   -9.1582   19.0774  -32.6668 H   0  0  0  0  0  0  0  0  0  0  0  0
   -7.1120   19.7890  -32.7640 C   0  0  0  0  0  0  0  0  0  0  0  0
   -6.5010   18.3000  -33.4610 Cl  0  0  0  0  0  0  0  0  0  0  0  0
   -6.2380   20.8500  -32.5070 C   0  0  0  0  0  0  0  0  0  0  0  0
   -5.1674   20.7448  -32.7366 H   0  0  0  0  0  0  0  0  0  0  0  0
   -5.0210   22.3230  -29.3860 C   0  0  0  0  0  0  0  0  0  0  0  0
   -5.6332   21.4098  -29.3507 H   0  0  0  0  0  0  0  0  0  0  0  0
   -4.1820   22.7440  -28.4160 N   0  0  0  0  0  0  0  0  0  0  0  0
   -3.9960   22.2490  -27.5150 H   0  0  0  0  0  0  0  0  0  0  0  0
   -3.6180   23.8820  -28.7910 N   0  0  0  0  0  0  0  0  0  0  0  0
   -2.6570   24.5950  -27.9940 C   0  0  0  0  0  0  0  0  0  0  0  0
   -2.9500   24.9130  -26.6590 C   0  0  0  0  0  0  0  0  0  0  0  0
   -3.9238   24.6328  -26.2310 H   0  0  0  0  0  0  0  0  0  0  0  0
   -2.0110   25.5840  -25.8700 C   0  0  0  0  0  0  0  0  0  0  0  0
   -2.2500   25.8301  -24.8249 H   0  0  0  0  0  0  0  0  0  0  0  0
   -0.7650   25.9450  -26.4050 C   0  0  0  0  0  0  0  0  0  0  0  0
    0.2570   26.6280  -25.5460 C   0  0  0  0  0  0  0  0  0  0  0  0
    0.0130   26.4649  -24.4859 H   0  0  0  0  0  0  0  0  0  0  0  0
    1.2529   26.2133  -25.7610 H   0  0  0  0  0  0  0  0  0  0  0  0
    0.2548   27.7068  -25.7610 H   0  0  0  0  0  0  0  0  0  0  0  0
   -0.4580   25.5950  -27.7280 C   0  0  0  0  0  0  0  0  0  0  0  0
    0.5271   25.8491  -28.1464 H   0  0  0  0  0  0  0  0  0  0  0  0
   -1.3970   24.9250  -28.5180 C   0  0  0  0  0  0  0  0  0  0  0  0
   -1.1474   24.6552  -29.5548 H   0  0  0  0  0  0  0  0  0  0  0  0
  1  2  1  0
  2  3  2  0
  3  4  1  0
  4  5  1  0
  5  6  2  0
  5  7  1  0
  7  8  2  0
  8  9  1  0
  8 10  1  0
 10 11  1  0
 10 12  2  0
 12 13  1  0
 12 14  1  0
 14 15  1  0
 14 16  2  0
 16 17  1  0
  4 18  2  0
 18 19  1  0
 18 20  1  0
 20 21  1  0
 20 22  1  0
 22 23  1  0
 23 24  2  0
 24 25  1  0
 24 26  1  0
 26 27  1  0
 26 28  2  0
 28 29  1  0
 29 30  1  0
 29 31  1  0
 29 32  1  0
 28 33  1  0
 33 34  1  0
 33 35  2  0
 35 36  1  0
 22  3  1  0
 35 23  1  0
 16  7  1  0
M  END
>  <UniqueID>  (12) 
12

>  <SMILES>  (12) 
[H]/N=c1/c(C(=O)c2cccc(Cl)c2)c[nH]n1-c1ccc(C)cc1

>  <Energy>  (12) 
81.86911563666463

>  <Genealogy>  (12) 
[H]/N=c1/c(C(=O)c2cccc(Cl)c2)c[nH]n1-c1ccc(C)cc1 (cis-trans isomerization)
[H]/N=c1/c(C(=O)c2cccc(Cl)c2)c[nH]n1-c1ccc(C)cc1 (3D coordinates assigned)
[H]/N=c1/c(C(=O)c2cccc(Cl)c2)c[nH]n1-c1ccc(C)cc1 (optimized conformer: 81.86911563666463 kcal/mol)

>  <smiles>  (12) 
Cc1ccc(-n2[nH]cc(C(=O)c3cccc(Cl)c3)c2=N)cc1

>  <score_type>  (12) 
oracle

>  <origin>  (12) 
adg

>  <m_score__min__energy>  (12) 
-8.5800000000000001

>  <m_primary>  (12) 
energy

$$$$
12:0
     RDKit          3D

 50 52  0  0  0  0  0  0  0  0999 V2000
   -0.8640   26.7070  -27.8230 C   0  0  0  0  0  0  0  0  0  0  0  0
   -1.6020   26.0120  -28.8190 O   0  0  0  0  0  0  0  0  0  0  0  0
   -2.0540   24.7000  -28.6480 C   0  0  0  0  0  0  0  0  0  0  0  0
   -1.6710   23.7800  -29.4220 O   0  0  0  0  0  0  0  0  0  0  0  0
   -3.0450   24.4000  -27.5690 C   0  0  0  0  0  0  0  0  0  0  0  0
   -4.1980   23.5640  -28.1240 C   0  0  0  0  0  0  0  0  0  0  0  0
   -4.7940   24.2210  -29.2850 N   0  0  0  0  0  0  0  0  0  0  0  0
   -5.5760   25.2840  -29.2200 N   0  0  0  0  0  0  0  0  0  0  0  0
   -5.8970   25.6520  -30.4510 N   0  0  0  0  0  0  0  0  0  0  0  0
   -5.3250   24.8440  -31.3330 N   0  0  0  0  0  0  0  0  0  0  0  0
   -4.6340   23.9520  -30.5970 C   0  0  0  0  0  0  0  0  0  0  0  0
   -3.7950   22.8530  -31.1850 C   0  0  0  0  0  0  0  0  0  0  0  0
   -4.6230   21.6680  -31.4950 N   0  0  0  0  0  0  0  0  0  0  0  0
   -3.7790   20.4940  -31.8090 C   0  0  0  0  0  0  0  0  0  0  0  0
   -4.0070   20.0520  -33.2580 C   0  0  0  0  0  0  0  0  0  0  0  0
   -4.9820   18.9080  -33.3220 C   0  0  0  0  0  0  0  0  0  0  0  0
   -5.2300   18.2550  -34.5420 C   0  0  0  0  0  0  0  0  0  0  0  0
   -6.1140   17.1730  -34.5930 C   0  0  0  0  0  0  0  0  0  0  0  0
   -6.7480   16.7290  -33.4290 C   0  0  0  0  0  0  0  0  0  0  0  0
   -6.4970   17.3670  -32.2110 C   0  0  0  0  0  0  0  0  0  0  0  0
   -5.6140   18.4500  -32.1550 C   0  0  0  0  0  0  0  0  0  0  0  0
   -5.5710   21.9540  -32.5930 C   0  0  0  0  0  0  0  0  0  0  0  0
   -6.9680   21.6710  -32.1390 C   0  0  0  0  0  0  0  0  0  0  0  0
   -7.8280   20.7190  -32.6740 C   0  0  0  0  0  0  0  0  0  0  0  0
   -9.0530   20.6450  -32.0000 C   0  0  0  0  0  0  0  0  0  0  0  0
   -9.1560   21.5290  -30.9330 C   0  0  0  0  0  0  0  0  0  0  0  0
   -7.7220   22.4010  -30.8260 S   0  0  0  0  0  0  0  0  0  0  0  0
   -1.2027   26.3880  -26.8263 H   0  0  0  0  0  0  0  0  0  0  0  0
    0.2067   26.4816  -27.9359 H   0  0  0  0  0  0  0  0  0  0  0  0
   -1.0248   27.7893  -27.9359 H   0  0  0  0  0  0  0  0  0  0  0  0
   -2.5463   23.8407  -26.7637 H   0  0  0  0  0  0  0  0  0  0  0  0
   -3.4458   25.3470  -27.1784 H   0  0  0  0  0  0  0  0  0  0  0  0
   -3.8177   22.5760  -28.4228 H   0  0  0  0  0  0  0  0  0  0  0  0
   -4.9659   23.4548  -27.3440 H   0  0  0  0  0  0  0  0  0  0  0  0
   -3.3234   23.2153  -32.1104 H   0  0  0  0  0  0  0  0  0  0  0  0
   -3.0278   22.5645  -30.4513 H   0  0  0  0  0  0  0  0  0  0  0  0
   -2.7205   20.7603  -31.6725 H   0  0  0  0  0  0  0  0  0  0  0  0
   -4.0479   19.6675  -31.1347 H   0  0  0  0  0  0  0  0  0  0  0  0
   -4.4071   20.8991  -33.8345 H   0  0  0  0  0  0  0  0  0  0  0  0
   -3.0469   19.7202  -33.6800 H   0  0  0  0  0  0  0  0  0  0  0  0
   -4.7272   18.5962  -35.4589 H   0  0  0  0  0  0  0  0  0  0  0  0
   -6.3110   16.6700  -35.5512 H   0  0  0  0  0  0  0  0  0  0  0  0
   -7.4439   15.8782  -33.4716 H   0  0  0  0  0  0  0  0  0  0  0  0
   -6.9949   17.0166  -31.2948 H   0  0  0  0  0  0  0  0  0  0  0  0
   -5.4139   18.9448  -31.1932 H   0  0  0  0  0  0  0  0  0  0  0  0
   -5.4876   23.0121  -32.8818 H   0  0  0  0  0  0  0  0  0  0  0  0
   -5.3320   21.3157  -33.4564 H   0  0  0  0  0  0  0  0  0  0  0  0
   -7.5724   20.0884  -33.5383 H   0  0  0  0  0  0  0  0  0  0  0  0
   -9.8577   19.9525  -32.2880 H   0  0  0  0  0  0  0  0  0  0  0  0
  -10.0274   21.6397  -30.2708 H   0  0  0  0  0  0  0  0  0  0  0  0
  1  2  1  0
  2  3  1  0
  3  4  2  0
  3  5  1  0
  5  6  1  0
  6  7  1  0
  7  8  1  0
  8  9  2  0
  9 10  1  0
 10 11  2  0
 11 12  1  0
 12 13  1  0
 13 14  1  0
 14 15  1  0
 15 16  1  0
 16 17  2  0
 17 18  1  0
 18 19  2  0
 19 20  1  0
 20 21  2  0
 13 22  1  0
 22 23  1  0
 23 24  2  0
 24 25  1  0
 25 26  2  0
 26 27  1  0
 11  7  1  0
 21 16  1  0
 27 23  1  0
  1 28  1  0
  1 29  1  0
  1 30  1  0
  5 31  1  0
  5 32  1  0
  6 33  1  0
  6 34  1  0
 12 35  1  0
 12 36  1  0
 14 37  1  0
 14 38  1  0
 15 39  1  0
 15 40  1  0
 17 41  1  0
 18 42  1  0
 19 43  1  0
 20 44  1  0
 21 45  1  0
 22 46  1  0
 22 47  1  0
 24 48  1  0
 25 49  1  0
 26 50  1  0
M  END
>  <UniqueID>  (13) 
13

>  <SMILES>  (13) 
COC(=O)CCn1nnnc1CN(CCc1ccccc1)Cc1cccs1

>  <Energy>  (13) 
106.12364630381488

>  <Genealogy>  (13) 
COC(=O)CCn1nnnc1CN(CCc1ccccc1)Cc1cccs1 (3D coordinates assigned)
COC(=O)CCn1nnnc1CN(CCc1ccccc1)Cc1cccs1 (optimized conformer: 106.12364630381488 kcal/mol)

>  <smiles>  (13) 
COC(=O)CCn1nnnc1CN(CCc1ccccc1)Cc1cccs1

>  <score_type>  (13) 
oracle

>  <origin>  (13) 
adg

>  <m_score__min__energy>  (13) 
-9.25

>  <m_primary>  (13) 
energy

$$$$
13:0
     RDKit          3D

 55 57  0  0  0  0  0  0  0  0999 V2000
   -1.8120   19.9650  -26.7270 C   0  0  0  0  0  0  0  0  0  0  0  0
   -1.5750   21.4130  -26.7220 N   0  0  0  0  0  0  0  0  0  0  0  0
   -0.4780   21.9690  -25.9160 C   0  0  0  0  0  0  0  0  0  0  0  0
   -2.4300   22.2690  -27.5180 C   0  0  0  0  0  0  0  0  0  0  0  0
   -2.8780   21.8870  -28.7980 C   0  0  0  0  0  0  0  0  0  0  0  0
   -3.6960   22.7510  -29.5290 C   0  0  0  0  0  0  0  0  0  0  0  0
   -4.0620   23.9940  -28.9980 C   0  0  0  0  0  0  0  0  0  0  0  0
   -4.9620   24.9230  -29.7660 C   0  0  0  0  0  0  0  0  0  0  0  0
   -4.7500   24.7270  -31.2090 N   0  0  0  0  0  0  0  0  0  0  0  0
   -5.8250   23.9920  -31.9110 C   0  0  0  0  0  0  0  0  0  0  0  0
   -5.4490   22.5190  -32.2260 C   0  0  0  0  0  0  0  0  0  0  0  0
   -6.2230   21.5150  -31.3500 C   0  0  0  0  0  0  0  0  0  0  0  0
   -7.6940   21.7060  -31.4130 N   0  0  0  0  0  0  0  0  0  0  0  0
   -8.4350   20.6210  -32.0930 C   0  0  0  0  0  0  0  0  0  0  0  0
   -8.0350   19.2050  -31.6330 C   0  0  0  0  0  0  0  0  0  0  0  0
   -7.1210   18.5700  -32.6480 C   0  0  0  0  0  0  0  0  0  0  0  0
   -6.4900   19.3580  -33.6270 C   0  0  0  0  0  0  0  0  0  0  0  0
   -5.6770   18.7590  -34.5940 C   0  0  0  0  0  0  0  0  0  0  0  0
   -5.4950   17.3730  -34.5990 C   0  0  0  0  0  0  0  0  0  0  0  0
   -6.1300   16.5830  -33.6370 C   0  0  0  0  0  0  0  0  0  0  0  0
   -6.9430   17.1770  -32.6670 C   0  0  0  0  0  0  0  0  0  0  0  0
   -8.1610   23.0650  -31.7720 C   0  0  0  0  0  0  0  0  0  0  0  0
   -7.2060   24.1300  -31.2260 C   0  0  0  0  0  0  0  0  0  0  0  0
   -3.6160   24.3330  -27.7150 C   0  0  0  0  0  0  0  0  0  0  0  0
   -2.8200   23.4780  -27.0200 N   0  0  0  0  0  0  0  0  0  0  0  0
   -1.8718   19.5997  -25.6912 H   0  0  0  0  0  0  0  0  0  0  0  0
   -2.7573   19.7500  -27.2468 H   0  0  0  0  0  0  0  0  0  0  0  0
   -0.9846   19.4598  -27.2468 H   0  0  0  0  0  0  0  0  0  0  0  0
   -0.7115   21.8506  -24.8476 H   0  0  0  0  0  0  0  0  0  0  0  0
    0.4551   21.4350  -26.1487 H   0  0  0  0  0  0  0  0  0  0  0  0
   -0.3570   23.0373  -26.1487 H   0  0  0  0  0  0  0  0  0  0  0  0
   -2.5851   20.9139  -29.2190 H   0  0  0  0  0  0  0  0  0  0  0  0
   -4.0542   22.4541  -30.5257 H   0  0  0  0  0  0  0  0  0  0  0  0
   -6.0113   24.7069  -29.5166 H   0  0  0  0  0  0  0  0  0  0  0  0
   -4.7294   25.9643  -29.4986 H   0  0  0  0  0  0  0  0  0  0  0  0
   -4.6510   25.6690  -31.6570 H   0  0  0  0  0  0  0  0  0  0  0  0
   -5.9296   24.4879  -32.8873 H   0  0  0  0  0  0  0  0  0  0  0  0
   -5.6764   22.3146  -33.2826 H   0  0  0  0  0  0  0  0  0  0  0  0
   -4.3772   22.3935  -32.0128 H   0  0  0  0  0  0  0  0  0  0  0  0
   -5.9866   20.4964  -31.6914 H   0  0  0  0  0  0  0  0  0  0  0  0
   -5.9135   21.6800  -30.3074 H   0  0  0  0  0  0  0  0  0  0  0  0
   -9.5084   20.7586  -31.8956 H   0  0  0  0  0  0  0  0  0  0  0  0
   -8.1891   20.6895  -33.1630 H   0  0  0  0  0  0  0  0  0  0  0  0
   -7.5153   19.2699  -30.6657 H   0  0  0  0  0  0  0  0  0  0  0  0
   -8.9414   18.5903  -31.5303 H   0  0  0  0  0  0  0  0  0  0  0  0
   -6.6364   20.4482  -33.6320 H   0  0  0  0  0  0  0  0  0  0  0  0
   -5.1791   19.3802  -35.3531 H   0  0  0  0  0  0  0  0  0  0  0  0
   -4.8526   16.9048  -35.3593 H   0  0  0  0  0  0  0  0  0  0  0  0
   -5.9900   15.4920  -33.6429 H   0  0  0  0  0  0  0  0  0  0  0  0
   -7.4455   16.5505  -31.9153 H   0  0  0  0  0  0  0  0  0  0  0  0
   -8.2098   23.1519  -32.8675 H   0  0  0  0  0  0  0  0  0  0  0  0
   -9.1559   23.2240  -31.3306 H   0  0  0  0  0  0  0  0  0  0  0  0
   -7.6174   25.1295  -31.4304 H   0  0  0  0  0  0  0  0  0  0  0  0
   -7.0898   23.9935  -30.1407 H   0  0  0  0  0  0  0  0  0  0  0  0
   -3.9106   25.2940  -27.2681 H   0  0  0  0  0  0  0  0  0  0  0  0
  1  2  1  0
  2  3  1  0
  2  4  1  0
  4  5  2  0
  5  6  1  0
  6  7  2  0
  7  8  1  0
  8  9  1  0
  9 10  1  0
 10 11  1  0
 11 12  1  0
 12 13  1  0
 13 14  1  0
 14 15  1  0
 15 16  1  0
 16 17  2  0
 17 18  1  0
 18 19  2  0
 19 20  1  0
 20 21  2  0
 13 22  1  0
 22 23  1  0
  7 24  1  0
 24 25  2  0
 25  4  1  0
 23 10  1  0
 21 16  1  0
  1 26  1  0
  1 27  1  0
  1 28  1  0
  3 29  1  0
  3 30  1  0
  3 31  1  0
  5 32  1  0
  6 33  1  0
  8 34  1  0
  8 35  1  0
  9 36  1  0
 10 37  1  0
 11 38  1  0
 11 39  1  0
 12 40  1  0
 12 41  1  0
 14 42  1  0
 14 43  1  0
 15 44  1  0
 15 45  1  0
 17 46  1  0
 18 47  1  0
 19 48  1  0
 20 49  1  0
 21 50  1  0
 22 51  1  0
 22 52  1  0
 23 53  1  0
 23 54  1  0
 24 55  1  0
M  END
>  <UniqueID>  (14) 
14

>  <SMILES>  (14) 
CN(C)c1ccc(CNC2CCN(CCc3ccccc3)CC2)cn1

>  <Energy>  (14) 
68.04207449317643

>  <Genealogy>  (14) 
CN(C)c1ccc(CNC2CCN(CCc3ccccc3)CC2)cn1 (3D coordinates assigned)
CN(C)c1ccc(CNC2CCN(CCc3ccccc3)CC2)cn1 (nonaromatic ring conformer: 68.04207449317643 kcal/mol)

>  <smiles>  (14) 
CN(C)c1ccc(CNC2CCN(CCc3ccccc3)CC2)cn1

>  <score_type>  (14) 
oracle

>  <origin>  (14) 
adg

>  <m_score__min__energy>  (14) 
-9.2300000000000004

>  <m_primary>  (14) 
energy

$$$$
14:0
     RDKit          3D

 41 45  0  0  0  0  0  0  0  0999 V2000
   -2.6860   15.2830  -35.5510 C   0  0  0  0  0  0  0  0  0  0  0  0
   -3.5860   16.3070  -35.0560 N   0  0  0  0  0  0  0  0  0  0  0  0
   -3.2050   17.5080  -34.6080 C   0  0  0  0  0  0  0  0  0  0  0  0
   -4.3480   18.2060  -34.2220 C   0  0  0  0  0  0  0  0  0  0  0  0
   -4.2810   19.5600  -33.6800 C   0  0  0  0  0  0  0  0  0  0  0  0
   -3.2000   20.3760  -33.8440 N   0  0  0  0  0  0  0  0  0  0  0  0
   -3.4660   21.5510  -33.2200 C   0  0  0  0  0  0  0  0  0  0  0  0
   -4.7060   21.4700  -32.6700 N   0  0  0  0  0  0  0  0  0  0  0  0
   -5.3260   22.5200  -31.9310 C   0  0  0  0  0  0  0  0  0  0  0  0
   -6.6760   22.7900  -32.1600 C   0  0  0  0  0  0  0  0  0  0  0  0
   -7.2880   23.8030  -31.4540 C   0  0  0  0  0  0  0  0  0  0  0  0
   -6.6350   24.5710  -30.5240 C   0  0  0  0  0  0  0  0  0  0  0  0
   -5.2940   24.2890  -30.3080 C   0  0  0  0  0  0  0  0  0  0  0  0
   -4.4070   24.8640  -29.4720 N   0  0  0  0  0  0  0  0  0  0  0  0
   -3.2400   24.2360  -29.6320 N   0  0  0  0  0  0  0  0  0  0  0  0
   -3.3660   23.2690  -30.5580 C   0  0  0  0  0  0  0  0  0  0  0  0
   -4.6510   23.2820  -30.9990 C   0  0  0  0  0  0  0  0  0  0  0  0
   -5.2300   20.2460  -32.9430 C   0  0  0  0  0  0  0  0  0  0  0  0
   -6.5330   19.7700  -32.5310 C   0  0  0  0  0  0  0  0  0  0  0  0
   -6.7380   18.7710  -31.6030 C   0  0  0  0  0  0  0  0  0  0  0  0
   -8.0250   18.4050  -31.2980 C   0  0  0  0  0  0  0  0  0  0  0  0
   -9.0740   19.0210  -31.9070 C   0  0  0  0  0  0  0  0  0  0  0  0
   -8.8760   20.0210  -32.8370 C   0  0  0  0  0  0  0  0  0  0  0  0
   -7.6100   20.3610  -33.1170 N   0  0  0  0  0  0  0  0  0  0  0  0
   -5.3980   17.3810  -34.4580 C   0  0  0  0  0  0  0  0  0  0  0  0
   -4.8980   16.2300  -34.9670 N   0  0  0  0  0  0  0  0  0  0  0  0
   -2.2248   14.7583  -34.7013 H   0  0  0  0  0  0  0  0  0  0  0  0
   -3.2499   14.5641  -36.1636 H   0  0  0  0  0  0  0  0  0  0  0  0
   -1.9007   15.7500  -36.1636 H   0  0  0  0  0  0  0  0  0  0  0  0
   -2.1711   17.8797  -34.5537 H   0  0  0  0  0  0  0  0  0  0  0  0
   -2.7935   22.4199  -33.1682 H   0  0  0  0  0  0  0  0  0  0  0  0
   -7.2446   22.2014  -32.8950 H   0  0  0  0  0  0  0  0  0  0  0  0
   -8.3521   24.0055  -31.6457 H   0  0  0  0  0  0  0  0  0  0  0  0
   -7.1504   25.3729  -29.9751 H   0  0  0  0  0  0  0  0  0  0  0  0
   -4.6290   25.6570  -28.8270 H   0  0  0  0  0  0  0  0  0  0  0  0
   -2.5708   22.5890  -30.8977 H   0  0  0  0  0  0  0  0  0  0  0  0
   -5.8850   18.2761  -31.1157 H   0  0  0  0  0  0  0  0  0  0  0  0
   -8.2089   17.6113  -30.5590 H   0  0  0  0  0  0  0  0  0  0  0  0
  -10.0999   18.7160  -31.6531 H   0  0  0  0  0  0  0  0  0  0  0  0
   -9.7239   20.5196  -33.3293 H   0  0  0  0  0  0  0  0  0  0  0  0
   -6.4586   17.6050  -34.2708 H   0  0  0  0  0  0  0  0  0  0  0  0
  1  2  1  0
  2  3  1  0
  3  4  2  0
  4  5  1  0
  5  6  1  0
  6  7  2  0
  7  8  1  0
  8  9  1  0
  9 10  2  0
 10 11  1  0
 11 12  2  0
 12 13  1  0
 13 14  1  0
 14 15  1  0
 15 16  2  0
 16 17  1  0
  8 18  1  0
 18 19  1  0
 19 20  2  0
 20 21  1  0
 21 22  2  0
 22 23  1  0
 23 24  2  0
  4 25  1  0
 25 26  2  0
 26  2  1  0
 18  5  2  0
 24 19  1  0
 17  9  1  0
 17 13  2  0
  1 27  1  0
  1 28  1  0
  1 29  1  0
  3 30  1  0
  7 31  1  0
 10 32  1  0
 11 33  1  0
 12 34  1  0
 14 35  1  0
 16 36  1  0
 20 37  1  0
 21 38  1  0
 22 39  1  0
 23 40  1  0
 25 41  1  0
M  END
>  <smiles>  (15) 
Cn1cc(-c2ncn(-c3cccc4[nH]ncc34)c2-c2ccccn2)cn1

>  <score_type>  (15) 
oracle

>  <origin>  (15) 
adg

>  <m_score__min__energy>  (15) 
-9.0299999999999994

>  <m_primary>  (15) 
energy

$$$$
15:0
     RDKit          3D

 32 33  0  0  0  0  0  0  0  0999 V2000
   -6.4750   25.5160  -29.3450 C   0  0  0  0  0  0  0  0  0  0  0  0
   -6.3590   24.2660  -30.0970 N   0  0  0  0  0  0  0  0  0  0  0  0
   -7.2340   23.1440  -29.7500 C   0  0  0  0  0  0  0  0  0  0  0  0
   -5.3970   24.1840  -31.1660 C   0  0  0  0  0  0  0  0  0  0  0  0
   -4.2960   24.7870  -31.0500 O   0  0  0  0  0  0  0  0  0  0  0  0
   -5.6760   23.4250  -32.4370 C   0  0  0  0  0  0  0  0  0  0  0  0
   -4.9710   22.1340  -32.4470 N   0  0  0  0  0  0  0  0  0  0  0  0
   -3.5050   22.0990  -32.3200 C   0  0  0  0  0  0  0  0  0  0  0  0
   -2.9130   21.1770  -33.3870 C   0  0  0  0  0  0  0  0  0  0  0  0
   -3.5380   19.8970  -33.3260 O   0  0  0  0  0  0  0  0  0  0  0  0
   -4.9110   19.7630  -33.0910 C   0  0  0  0  0  0  0  0  0  0  0  0
   -5.5280   18.5220  -33.2720 C   0  0  0  0  0  0  0  0  0  0  0  0
   -6.9020   18.3860  -33.0620 C   0  0  0  0  0  0  0  0  0  0  0  0
   -7.6630   19.4910  -32.6660 C   0  0  0  0  0  0  0  0  0  0  0  0
   -9.3890   19.3160  -32.4070 Cl  0  0  0  0  0  0  0  0  0  0  0  0
   -7.0480   20.7330  -32.4710 C   0  0  0  0  0  0  0  0  0  0  0  0
   -5.6610   20.8790  -32.6690 C   0  0  0  0  0  0  0  0  0  0  0  0
   -6.4548   25.2985  -28.2669 H   0  0  0  0  0  0  0  0  0  0  0  0
   -5.6344   26.1775  -29.6014 H   0  0  0  0  0  0  0  0  0  0  0  0
   -7.4230   26.0115  -29.6014 H   0  0  0  0  0  0  0  0  0  0  0  0
   -7.3020   23.0569  -28.6556 H   0  0  0  0  0  0  0  0  0  0  0  0
   -8.2369   23.3185  -30.1669 H   0  0  0  0  0  0  0  0  0  0  0  0
   -6.8204   22.2139  -30.1669 H   0  0  0  0  0  0  0  0  0  0  0  0
   -6.7581   23.2443  -32.5177 H   0  0  0  0  0  0  0  0  0  0  0  0
   -5.3203   24.0246  -33.2879 H   0  0  0  0  0  0  0  0  0  0  0  0
   -3.1030   23.1144  -32.4513 H   0  0  0  0  0  0  0  0  0  0  0  0
   -3.2364   21.7193  -31.3232 H   0  0  0  0  0  0  0  0  0  0  0  0
   -3.0794   21.6167  -34.3815 H   0  0  0  0  0  0  0  0  0  0  0  0
   -1.8341   21.0612  -33.2063 H   0  0  0  0  0  0  0  0  0  0  0  0
   -4.9306   17.6513  -33.5802 H   0  0  0  0  0  0  0  0  0  0  0  0
   -7.3862   17.4092  -33.2081 H   0  0  0  0  0  0  0  0  0  0  0  0
   -7.6508   21.5995  -32.1616 H   0  0  0  0  0  0  0  0  0  0  0  0
  1  2  1  0
  2  3  1  0
  2  4  1  0
  4  5  2  0
  4  6  1  0
  6  7  1  0
  7  8  1  0
  8  9  1  0
  9 10  1  0
 10 11  1  0
 11 12  2  0
 12 13  1  0
 13 14  2  0
 14 15  1  0
 14 16  1  0
 16 17  2  0
 17  7  1  0
 17 11  1  0
  1 18  1  0
  1 19  1  0
  1 20  1  0
  3 21  1  0
  3 22  1  0
  3 23  1  0
  6 24  1  0
  6 25  1  0
  8 26  1  0
  8 27  1  0
  9 28  1  0
  9 29  1  0
 12 30  1  0
 13 31  1  0
 16 32  1  0
M  END
>  <UniqueID>  (16) 
15

>  <SMILES>  (16) 
CN(C)C(=O)CN1CCOc2ccc(Cl)cc21

>  <Energy>  (16) 
32.24579158296681

>  <Genealogy>  (16) 
CN(C)C(=O)CN1CCOc2ccc(Cl)cc21 (3D coordinates assigned)
CN(C)C(=O)CN1CCOc2ccc(Cl)cc21 (nonaromatic ring conformer: 32.24579158296681 kcal/mol)

>  <smiles>  (16) 
CN(C)C(=O)CN1CCOc2ccc(Cl)cc21

>  <score_type>  (16) 
oracle

>  <origin>  (16) 
adg

>  <m_score__min__energy>  (16) 
-6.7199999999999998

>  <m_primary>  (16) 
energy

$$$$
16:0
     RDKit          3D

 41 44  0  0  0  0  0  0  0  0999 V2000
   -1.2590   25.6590  -28.0130 C   0  0  0  0  0  0  0  0  0  0  0  0
   -1.7300   24.6190  -28.9390 N   0  0  0  0  0  0  0  0  0  0  0  0
   -1.1300   23.3190  -28.6040 C   0  0  0  0  0  0  0  0  0  0  0  0
   -1.3850   22.3510  -29.7590 C   0  0  0  0  0  0  0  0  0  0  0  0
   -2.7550   22.4880  -30.2710 N   0  0  0  0  0  0  0  0  0  0  0  0
   -3.2060   21.5910  -31.3000 C   0  0  0  0  0  0  0  0  0  0  0  0
   -4.5060   21.1870  -31.3120 N   0  0  0  0  0  0  0  0  0  0  0  0
   -4.9880   20.3360  -32.2600 C   0  0  0  0  0  0  0  0  0  0  0  0
   -6.4120   19.9150  -32.2320 C   0  0  0  0  0  0  0  0  0  0  0  0
   -7.4430   20.8660  -32.3640 C   0  0  0  0  0  0  0  0  0  0  0  0
   -8.7830   20.4660  -32.3380 C   0  0  0  0  0  0  0  0  0  0  0  0
   -9.1100   19.1180  -32.1810 C   0  0  0  0  0  0  0  0  0  0  0  0
   -8.0980   18.1660  -32.0490 C   0  0  0  0  0  0  0  0  0  0  0  0
   -6.7560   18.5580  -32.0740 C   0  0  0  0  0  0  0  0  0  0  0  0
   -4.1550   19.8770  -33.2330 N   0  0  0  0  0  0  0  0  0  0  0  0
   -2.8530   20.2590  -33.2760 C   0  0  0  0  0  0  0  0  0  0  0  0
   -2.0010   19.8070  -34.2840 C   0  0  0  0  0  0  0  0  0  0  0  0
   -0.7100   20.2310  -34.3130 N   0  0  0  0  0  0  0  0  0  0  0  0
   -0.2340   21.0910  -33.3750 C   0  0  0  0  0  0  0  0  0  0  0  0
   -1.0470   21.5410  -32.3830 N   0  0  0  0  0  0  0  0  0  0  0  0
   -2.3430   21.1350  -32.3070 C   0  0  0  0  0  0  0  0  0  0  0  0
   -3.7610   23.2140  -29.4850 C   0  0  0  0  0  0  0  0  0  0  0  0
   -3.2090   24.5460  -28.9280 C   0  0  0  0  0  0  0  0  0  0  0  0
   -1.4110   25.3233  -26.9766 H   0  0  0  0  0  0  0  0  0  0  0  0
   -0.1886   25.8454  -28.1848 H   0  0  0  0  0  0  0  0  0  0  0  0
   -1.8249   26.5865  -28.1848 H   0  0  0  0  0  0  0  0  0  0  0  0
   -0.0470   23.4387  -28.4533 H   0  0  0  0  0  0  0  0  0  0  0  0
   -1.5776   22.9261  -27.6792 H   0  0  0  0  0  0  0  0  0  0  0  0
   -0.6748   22.5656  -30.5711 H   0  0  0  0  0  0  0  0  0  0  0  0
   -1.2510   21.3235  -29.3898 H   0  0  0  0  0  0  0  0  0  0  0  0
   -7.1925   21.9299  -32.4883 H   0  0  0  0  0  0  0  0  0  0  0  0
   -9.5813   21.2156  -32.4415 H   0  0  0  0  0  0  0  0  0  0  0  0
  -10.1647   18.8063  -32.1613 H   0  0  0  0  0  0  0  0  0  0  0  0
   -8.3569   17.1041  -31.9249 H   0  0  0  0  0  0  0  0  0  0  0  0
   -5.9638   17.8020  -31.9696 H   0  0  0  0  0  0  0  0  0  0  0  0
   -2.3720   19.1113  -35.0511 H   0  0  0  0  0  0  0  0  0  0  0  0
    0.8134   21.4244  -33.4186 H   0  0  0  0  0  0  0  0  0  0  0  0
   -4.6267   23.4296  -30.1284 H   0  0  0  0  0  0  0  0  0  0  0  0
   -4.0474   22.5814  -28.6319 H   0  0  0  0  0  0  0  0  0  0  0  0
   -3.6035   25.3703  -29.5402 H   0  0  0  0  0  0  0  0  0  0  0  0
   -3.5303   24.6176  -27.8784 H   0  0  0  0  0  0  0  0  0  0  0  0
  1  2  1  0
  2  3  1  0
  3  4  1  0
  4  5  1  0
  5  6  1  0
  6  7  2  0
  7  8  1  0
  8  9  1  0
  9 10  2  0
 10 11  1  0
 11 12  2  0
 12 13  1  0
 13 14  2  0
  8 15  2  0
 15 16  1  0
 16 17  2  0
 17 18  1  0
 18 19  2  0
 19 20  1  0
 20 21  2  0
  5 22  1  0
 22 23  1  0
 23  2  1  0
 21  6  1  0
 14  9  1  0
 21 16  1  0
  1 24  1  0
  1 25  1  0
  1 26  1  0
  3 27  1  0
  3 28  1  0
  4 29  1  0
  4 30  1  0
 10 31  1  0
 11 32  1  0
 12 33  1  0
 13 34  1  0
 14 35  1  0
 17 36  1  0
 19 37  1  0
 22 38  1  0
 22 39  1  0
 23 40  1  0
 23 41  1  0
M  END
>  <UniqueID>  (17) 
16

>  <SMILES>  (17) 
CN1CCN(c2nc(-c3ccccc3)nc3cncnc23)CC1

>  <Energy>  (17) 
59.66949667340066

>  <Genealogy>  (17) 
CN1CCN(c2nc(-c3ccccc3)nc3cncnc23)CC1 (3D coordinates assigned)
CN1CCN(c2nc(-c3ccccc3)nc3cncnc23)CC1 (nonaromatic ring conformer: 59.66949667340066 kcal/mol)

>  <smiles>  (17) 
CN1CCN(c2nc(-c3ccccc3)nc3cncnc23)CC1

>  <score_type>  (17) 
oracle

>  <origin>  (17) 
adg

>  <m_score__min__energy>  (17) 
-7.1299999999999999

>  <m_primary>  (17) 
energy

$$$$
17:0
     RDKit          3D

 37 40  0  0  0  0  0  0  0  0999 V2000
   -6.1230   17.4270  -34.9670 F   0  0  0  0  0  0  0  0  0  0  0  0
   -4.9970   17.9060  -34.3830 C   0  0  0  0  0  0  0  0  0  0  0  0
   -3.7540   17.4340  -34.8150 C   0  0  0  0  0  0  0  0  0  0  0  0
   -2.5810   17.8880  -34.2070 C   0  0  0  0  0  0  0  0  0  0  0  0
   -2.6480   18.8160  -33.1650 C   0  0  0  0  0  0  0  0  0  0  0  0
   -3.8880   19.2920  -32.7270 C   0  0  0  0  0  0  0  0  0  0  0  0
   -3.9280   20.2170  -31.7330 F   0  0  0  0  0  0  0  0  0  0  0  0
   -5.0750   18.8390  -33.3330 C   0  0  0  0  0  0  0  0  0  0  0  0
   -6.3840   19.3450  -32.8770 C   0  0  0  0  0  0  0  0  0  0  0  0
   -6.4880   20.5870  -32.4920 N   0  0  0  0  0  0  0  0  0  0  0  0
   -7.7080   21.1060  -32.0270 N   0  0  0  0  0  0  0  0  0  0  0  0
   -8.7860   20.3880  -31.6980 C   0  0  0  0  0  0  0  0  0  0  0  0
   -9.8590   21.1740  -31.4760 N   0  0  0  0  0  0  0  0  0  0  0  0
   -9.4330   22.4200  -31.6570 N   0  0  0  0  0  0  0  0  0  0  0  0
   -8.1250   22.3810  -31.9860 C   0  0  0  0  0  0  0  0  0  0  0  0
   -7.3060   23.5750  -32.3680 C   0  0  0  0  0  0  0  0  0  0  0  0
   -6.2120   23.8080  -31.3620 C   0  0  0  0  0  0  0  0  0  0  0  0
   -6.4010   24.7100  -30.3000 C   0  0  0  0  0  0  0  0  0  0  0  0
   -5.3880   24.9110  -29.3570 C   0  0  0  0  0  0  0  0  0  0  0  0
   -4.1810   24.2160  -29.4680 C   0  0  0  0  0  0  0  0  0  0  0  0
   -3.9830   23.3190  -30.5210 C   0  0  0  0  0  0  0  0  0  0  0  0
   -4.9940   23.1160  -31.4660 C   0  0  0  0  0  0  0  0  0  0  0  0
   -8.7450   18.6090  -31.5890 S   0  0  0  0  0  0  0  0  0  0  0  0
   -7.6210   18.4740  -33.0280 C   0  0  0  0  0  0  0  0  0  0  0  0
   -3.6994   16.7034  -35.6356 H   0  0  0  0  0  0  0  0  0  0  0  0
   -1.6044   17.5146  -34.5489 H   0  0  0  0  0  0  0  0  0  0  0  0
   -1.7234   19.1732  -32.6879 H   0  0  0  0  0  0  0  0  0  0  0  0
  -10.0340   23.2690  -31.5760 H   0  0  0  0  0  0  0  0  0  0  0  0
   -6.8572   23.4044  -33.3577 H   0  0  0  0  0  0  0  0  0  0  0  0
   -7.9587   24.4600  -32.3947 H   0  0  0  0  0  0  0  0  0  0  0  0
   -7.3495   25.2598  -30.2106 H   0  0  0  0  0  0  0  0  0  0  0  0
   -5.5416   25.6167  -28.5273 H   0  0  0  0  0  0  0  0  0  0  0  0
   -3.3854   24.3752  -28.7253 H   0  0  0  0  0  0  0  0  0  0  0  0
   -3.0322   22.7726  -30.6067 H   0  0  0  0  0  0  0  0  0  0  0  0
   -4.8345   22.4108  -32.2950 H   0  0  0  0  0  0  0  0  0  0  0  0
   -7.3049   17.4256  -33.1330 H   0  0  0  0  0  0  0  0  0  0  0  0
   -8.1693   18.8190  -33.9171 H   0  0  0  0  0  0  0  0  0  0  0  0
  1  2  1  0
  2  3  2  0
  3  4  1  0
  4  5  2  0
  5  6  1  0
  6  7  1  0
  6  8  2  0
  8  9  1  0
  9 10  2  0
 10 11  1  0
 11 12  1  0
 12 13  2  0
 13 14  1  0
 14 15  2  0
 15 16  1  0
 16 17  1  0
 17 18  2  0
 18 19  1  0
 19 20  2  0
 20 21  1  0
 21 22  2  0
 12 23  1  0
 23 24  1  0
  8  2  1  0
 24  9  1  0
 15 11  1  0
 22 17  1  0
  3 25  1  0
  4 26  1  0
  5 27  1  0
 14 28  1  0
 16 29  1  0
 16 30  1  0
 18 31  1  0
 19 32  1  0
 20 33  1  0
 21 34  1  0
 22 35  1  0
 24 36  1  0
 24 37  1  0
M  CHG  1  14   1
M  END
>  <UniqueID>  (18) 
17

>  <SMILES>  (18) 
Fc1cccc(F)c1C1=Nn2c(n[nH+]c2Cc2ccccc2)SC1

>  <Energy>  (18) 
88.97513336667606

>  <Genealogy>  (18) 
Fc1cccc(F)c1C1=Nn2c(n[nH+]c2Cc2ccccc2)SC1 (protonated)
Fc1cccc(F)c1C1=Nn2c(n[nH+]c2Cc2ccccc2)SC1 (3D coordinates assigned)
Fc1cccc(F)c1C1=Nn2c(n[nH+]c2Cc2ccccc2)SC1 (nonaromatic ring conformer: 88.97513336667606 kcal/mol)

>  <smiles>  (18) 
Fc1cccc(F)c1C1=Nn2c(Cc3ccccc3)nnc2SC1

>  <score_type>  (18) 
oracle

>  <origin>  (18) 
adg

>  <m_score__min__energy>  (18) 
-8.1699999999999999

>  <m_primary>  (18) 
energy

$$$$
18:0
     RDKit          3D

 23 24  0  0  0  0  0  0  0  0999 V2000
   -5.4610   24.9770  -30.5230 C   0  0  0  0  0  0  0  0  0  0  0  0
   -6.2010   23.7760  -31.0360 C   0  0  0  0  0  0  0  0  0  0  0  0
   -7.6020   23.7990  -31.1320 C   0  0  0  0  0  0  0  0  0  0  0  0
   -8.2950   22.6970  -31.6430 C   0  0  0  0  0  0  0  0  0  0  0  0
   -7.5890   21.5610  -32.0790 C   0  0  0  0  0  0  0  0  0  0  0  0
   -8.2330   20.4290  -32.6010 C   0  0  0  0  0  0  0  0  0  0  0  0
   -9.4900   20.3880  -32.6950 O   0  0  0  0  0  0  0  0  0  0  0  0
   -7.4960   19.3600  -33.0110 N   0  0  0  0  0  0  0  0  0  0  0  0
   -6.1330   19.3640  -32.9270 C   0  0  0  0  0  0  0  0  0  0  0  0
   -5.3400   18.1650  -33.3890 C   0  0  0  0  0  0  0  0  0  0  0  0
   -5.7240   17.8130  -35.0940 Cl  0  0  0  0  0  0  0  0  0  0  0  0
   -5.7600   16.7460  -32.3960 Cl  0  0  0  0  0  0  0  0  0  0  0  0
   -3.5770   18.4300  -33.2620 Cl  0  0  0  0  0  0  0  0  0  0  0  0
   -5.4950   20.4550  -32.4220 N   0  0  0  0  0  0  0  0  0  0  0  0
   -6.1830   21.5450  -31.9990 C   0  0  0  0  0  0  0  0  0  0  0  0
   -5.4950   22.6510  -31.4860 C   0  0  0  0  0  0  0  0  0  0  0  0
   -5.4662   24.9686  -29.4230 H   0  0  0  0  0  0  0  0  0  0  0  0
   -4.4226   24.9501  -30.8850 H   0  0  0  0  0  0  0  0  0  0  0  0
   -5.9519   25.8924  -30.8850 H   0  0  0  0  0  0  0  0  0  0  0  0
   -8.1577   24.6895  -30.8032 H   0  0  0  0  0  0  0  0  0  0  0  0
   -9.3931   22.7185  -31.7041 H   0  0  0  0  0  0  0  0  0  0  0  0
   -7.9890   18.5220  -33.3980 H   0  0  0  0  0  0  0  0  0  0  0  0
   -4.3962   22.6375  -31.4357 H   0  0  0  0  0  0  0  0  0  0  0  0
  1  2  1  0
  2  3  2  0
  3  4  1  0
  4  5  2  0
  5  6  1  0
  6  7  2  0
  6  8  1  0
  8  9  1  0
  9 10  1  0
 10 11  1  0
 10 12  1  0
 10 13  1  0
  9 14  2  0
 14 15  1  0
 15 16  2  0
 16  2  1  0
 15  5  1  0
  1 17  1  0
  1 18  1  0
  1 19  1  0
  3 20  1  0
  4 21  1  0
  8 22  1  0
 16 23  1  0
M  END
>  <UniqueID>  (19) 
18

>  <SMILES>  (19) 
Cc1ccc2c(=O)[nH]c(C(Cl)(Cl)Cl)nc2c1

>  <Energy>  (19) 
27.324608053000862

>  <Genealogy>  (19) 
Cc1ccc2c(=O)[nH]c(C(Cl)(Cl)Cl)nc2c1 (3D coordinates assigned)
Cc1ccc2c(=O)[nH]c(C(Cl)(Cl)Cl)nc2c1 (optimized conformer: 27.324608053000862 kcal/mol)

>  <smiles>  (19) 
Cc1ccc2c(=O)[nH]c(C(Cl)(Cl)Cl)nc2c1

>  <score_type>  (19) 
oracle

>  <origin>  (19) 
adg

>  <m_score__min__energy>  (19) 
-6.5999999999999996

>  <m_primary>  (19) 
energy

$$$$
19:0
     RDKit          3D

 45 47  0  0  0  0  0  0  0  0999 V2000
   -0.8680   26.4390  -27.8970 C   0  0  0  0  0  0  0  0  0  0  0  0
   -1.5870   25.8520  -28.9590 O   0  0  0  0  0  0  0  0  0  0  0  0
   -1.6350   24.4460  -28.8080 C   0  0  0  0  0  0  0  0  0  0  0  0
   -3.0790   23.9610  -28.6310 C   0  0  0  0  0  0  0  0  0  0  0  0
   -3.6690   23.5770  -29.9220 N   0  0  0  0  0  0  0  0  0  0  0  0
   -4.8440   24.0200  -30.4470 C   0  0  0  0  0  0  0  0  0  0  0  0
   -5.7840   24.9980  -29.8030 C   0  0  0  0  0  0  0  0  0  0  0  0
   -5.0960   23.3310  -31.6280 C   0  0  0  0  0  0  0  0  0  0  0  0
   -6.3370   23.3540  -32.4750 C   0  0  0  0  0  0  0  0  0  0  0  0
   -7.2910   22.3490  -32.0010 N   0  0  0  0  0  0  0  0  0  0  0  0
   -8.5000   22.6700  -31.2380 C   0  0  0  0  0  0  0  0  0  0  0  0
   -9.2770   21.3410  -31.0850 C   0  0  0  0  0  0  0  0  0  0  0  0
   -8.4260   20.3590  -31.8120 C   0  0  0  0  0  0  0  0  0  0  0  0
   -8.6590   18.9940  -31.9920 C   0  0  0  0  0  0  0  0  0  0  0  0
   -7.7110   18.2410  -32.7040 C   0  0  0  0  0  0  0  0  0  0  0  0
   -6.5530   18.8580  -33.2120 C   0  0  0  0  0  0  0  0  0  0  0  0
   -6.3390   20.2320  -33.0140 C   0  0  0  0  0  0  0  0  0  0  0  0
   -7.3060   20.9650  -32.3140 C   0  0  0  0  0  0  0  0  0  0  0  0
   -4.0200   22.4780  -31.7620 C   0  0  0  0  0  0  0  0  0  0  0  0
   -3.8570   21.6450  -32.6940 O   0  0  0  0  0  0  0  0  0  0  0  0
   -3.1710   22.6430  -30.7300 N   0  0  0  0  0  0  0  0  0  0  0  0
   -1.9090   21.9270  -30.5320 C   0  0  0  0  0  0  0  0  0  0  0  0
   -1.2860   26.0978  -26.9384 H   0  0  0  0  0  0  0  0  0  0  0  0
    0.1894   26.1428  -27.9622 H   0  0  0  0  0  0  0  0  0  0  0  0
   -0.9466   27.5342  -27.9622 H   0  0  0  0  0  0  0  0  0  0  0  0
   -1.2039   23.9732  -29.7028 H   0  0  0  0  0  0  0  0  0  0  0  0
   -1.0604   24.1701  -27.9115 H   0  0  0  0  0  0  0  0  0  0  0  0
   -3.0859   23.0900  -27.9593 H   0  0  0  0  0  0  0  0  0  0  0  0
   -3.6741   24.7819  -28.2046 H   0  0  0  0  0  0  0  0  0  0  0  0
   -5.7053   24.9161  -28.7089 H   0  0  0  0  0  0  0  0  0  0  0  0
   -5.5201   26.0195  -30.1142 H   0  0  0  0  0  0  0  0  0  0  0  0
   -6.8152   24.7748  -30.1142 H   0  0  0  0  0  0  0  0  0  0  0  0
   -6.7992   24.3504  -32.4155 H   0  0  0  0  0  0  0  0  0  0  0  0
   -6.0651   23.1280  -33.5166 H   0  0  0  0  0  0  0  0  0  0  0  0
   -8.2321   23.0715  -30.2495 H   0  0  0  0  0  0  0  0  0  0  0  0
   -9.1061   23.4331  -31.7482 H   0  0  0  0  0  0  0  0  0  0  0  0
   -9.3795   21.0646  -30.0252 H   0  0  0  0  0  0  0  0  0  0  0  0
  -10.3027   21.3951  -31.4786 H   0  0  0  0  0  0  0  0  0  0  0  0
   -9.5642   18.5194  -31.5855 H   0  0  0  0  0  0  0  0  0  0  0  0
   -7.8744   17.1652  -32.8650 H   0  0  0  0  0  0  0  0  0  0  0  0
   -5.8127   18.2623  -33.7661 H   0  0  0  0  0  0  0  0  0  0  0  0
   -5.4326   20.7214  -33.3999 H   0  0  0  0  0  0  0  0  0  0  0  0
   -1.7150   21.8169  -29.4549 H   0  0  0  0  0  0  0  0  0  0  0  0
   -1.9752   20.9320  -30.9962 H   0  0  0  0  0  0  0  0  0  0  0  0
   -1.0888   22.4943  -30.9962 H   0  0  0  0  0  0  0  0  0  0  0  0
  1  2  1  0
  2  3  1  0
  3  4  1  0
  4  5  1  0
  5  6  1  0
  6  7  1  0
  6  8  2  0
  8  9  1  0
  9 10  1  0
 10 11  1  0
 11 12  1  0
 12 13  1  0
 13 14  2  0
 14 15  1  0
 15 16  2  0
 16 17  1  0
 17 18  2  0
  8 19  1  0
 19 20  2  0
 19 21  1  0
 21 22  1  0
 21  5  1  0
 18 10  1  0
 18 13  1  0
  1 23  1  0
  1 24  1  0
  1 25  1  0
  3 26  1  0
  3 27  1  0
  4 28  1  0
  4 29  1  0
  7 30  1  0
  7 31  1  0
  7 32  1  0
  9 33  1  0
  9 34  1  0
 11 35  1  0
 11 36  1  0
 12 37  1  0
 12 38  1  0
 14 39  1  0
 15 40  1  0
 16 41  1  0
 17 42  1  0
 22 43  1  0
 22 44  1  0
 22 45  1  0
M  END
>  <UniqueID>  (20) 
19

>  <SMILES>  (20) 
COCCn1c(C)c(CN2CCc3ccccc32)c(=O)n1C

>  <Energy>  (20) 
90.93142229789748

>  <Genealogy>  (20) 
COCCn1c(C)c(CN2CCc3ccccc32)c(=O)n1C (3D coordinates assigned)
COCCn1c(C)c(CN2CCc3ccccc32)c(=O)n1C (nonaromatic ring conformer: 90.93142229789748 kcal/mol)

>  <smiles>  (20) 
COCCn1c(C)c(CN2CCc3ccccc32)c(=O)n1C

>  <score_type>  (20) 
oracle

>  <origin>  (20) 
adg

>  <m_score__min__energy>  (20) 
-8.0999999999999996

>  <m_primary>  (20) 
energy

$$$$
20:0
     RDKit          3D

 43 45  0  0  0  0  0  0  0  0999 V2000
   -1.5590   23.4160  -29.6860 C   0  0  0  0  0  0  0  0  0  0  0  0
   -2.3670   24.5380  -29.1810 N   0  0  0  0  0  0  0  0  0  0  0  0
   -1.8980   24.9140  -27.8370 C   0  0  0  0  0  0  0  0  0  0  0  0
   -3.8010   24.1710  -29.1640 C   0  0  0  0  0  0  0  0  0  0  0  0
   -4.5160   24.6510  -30.4340 C   0  0  0  0  0  0  0  0  0  0  0  0
   -5.5400   23.6490  -30.9000 C   0  0  0  0  0  0  0  0  0  0  0  0
   -5.2190   22.2670  -30.9340 C   0  0  0  0  0  0  0  0  0  0  0  0
   -6.1820   21.3170  -31.3170 C   0  0  0  0  0  0  0  0  0  0  0  0
   -7.4560   21.7780  -31.6540 C   0  0  0  0  0  0  0  0  0  0  0  0
   -7.7710   23.1100  -31.6170 C   0  0  0  0  0  0  0  0  0  0  0  0
   -9.0960   23.2370  -31.9790 C   0  0  0  0  0  0  0  0  0  0  0  0
   -9.5370   21.9400  -32.2230 C   0  0  0  0  0  0  0  0  0  0  0  0
   -8.5310   21.0570  -32.0240 N   0  0  0  0  0  0  0  0  0  0  0  0
   -8.6440   19.3320  -32.1620 S   0  0  0  0  0  0  0  0  0  0  0  0
   -8.8730   18.7250  -30.8070 O   0  0  0  0  0  0  0  0  0  0  0  0
   -9.8050   18.9930  -33.0560 O   0  0  0  0  0  0  0  0  0  0  0  0
   -7.1460   18.6940  -32.8310 C   0  0  0  0  0  0  0  0  0  0  0  0
   -6.4880   19.3700  -33.8690 C   0  0  0  0  0  0  0  0  0  0  0  0
   -5.2920   18.8640  -34.3890 C   0  0  0  0  0  0  0  0  0  0  0  0
   -4.7510   17.6820  -33.8760 C   0  0  0  0  0  0  0  0  0  0  0  0
   -5.4060   17.0030  -32.8440 C   0  0  0  0  0  0  0  0  0  0  0  0
   -6.6020   17.5060  -32.3240 C   0  0  0  0  0  0  0  0  0  0  0  0
   -6.8410   24.0770  -31.2420 C   0  0  0  0  0  0  0  0  0  0  0  0
   -1.1498   22.8478  -28.8376 H   0  0  0  0  0  0  0  0  0  0  0  0
   -2.1905   22.7560  -30.2989 H   0  0  0  0  0  0  0  0  0  0  0  0
   -0.7329   23.8057  -30.2989 H   0  0  0  0  0  0  0  0  0  0  0  0
   -2.5198   24.4155  -27.0789 H   0  0  0  0  0  0  0  0  0  0  0  0
   -0.8501   24.6030  -27.7140 H   0  0  0  0  0  0  0  0  0  0  0  0
   -1.9737   26.0045  -27.7140 H   0  0  0  0  0  0  0  0  0  0  0  0
   -3.8897   23.0768  -29.0950 H   0  0  0  0  0  0  0  0  0  0  0  0
   -4.2726   24.6559  -28.2965 H   0  0  0  0  0  0  0  0  0  0  0  0
   -5.0199   25.6056  -30.2220 H   0  0  0  0  0  0  0  0  0  0  0  0
   -3.7653   24.7741  -31.2286 H   0  0  0  0  0  0  0  0  0  0  0  0
   -4.2070   21.9359  -30.6580 H   0  0  0  0  0  0  0  0  0  0  0  0
   -5.9394   20.2446  -31.3501 H   0  0  0  0  0  0  0  0  0  0  0  0
   -9.6798   24.1660  -32.0580 H   0  0  0  0  0  0  0  0  0  0  0  0
  -10.5574   21.6709  -32.5333 H   0  0  0  0  0  0  0  0  0  0  0  0
   -6.9132   20.2998  -34.2749 H   0  0  0  0  0  0  0  0  0  0  0  0
   -4.7771   19.3967  -35.2021 H   0  0  0  0  0  0  0  0  0  0  0  0
   -3.8096   17.2857  -34.2842 H   0  0  0  0  0  0  0  0  0  0  0  0
   -4.9798   16.0724  -32.4411 H   0  0  0  0  0  0  0  0  0  0  0  0
   -7.1176   16.9681  -31.5148 H   0  0  0  0  0  0  0  0  0  0  0  0
   -7.1124   25.1426  -31.2132 H   0  0  0  0  0  0  0  0  0  0  0  0
  1  2  1  0
  2  3  1  0
  2  4  1  0
  4  5  1  0
  5  6  1  0
  6  7  2  0
  7  8  1  0
  8  9  2  0
  9 10  1  0
 10 11  1  0
 11 12  2  0
 12 13  1  0
 13 14  1  0
 14 15  2  0
 14 16  2  0
 14 17  1  0
 17 18  2  0
 18 19  1  0
 19 20  2  0
 20 21  1  0
 21 22  2  0
 10 23  2  0
 23  6  1  0
 13  9  1  0
 22 17  1  0
  1 24  1  0
  1 25  1  0
  1 26  1  0
  3 27  1  0
  3 28  1  0
  3 29  1  0
  4 30  1  0
  4 31  1  0
  5 32  1  0
  5 33  1  0
  7 34  1  0
  8 35  1  0
 11 36  1  0
 12 37  1  0
 18 38  1  0
 19 39  1  0
 20 40  1  0
 21 41  1  0
 22 42  1  0
 23 43  1  0
M  END
>  <UniqueID>  (21) 
20

>  <SMILES>  (21) 
CN(C)CCc1ccc2c(ccn2S(=O)(=O)c2ccccc2)c1

>  <Energy>  (21) 
77.33054019922996

>  <Genealogy>  (21) 
CN(C)CCc1ccc2c(ccn2S(=O)(=O)c2ccccc2)c1 (3D coordinates assigned)
CN(C)CCc1ccc2c(ccn2S(=O)(=O)c2ccccc2)c1 (optimized conformer: 77.33054019922996 kcal/mol)

>  <smiles>  (21) 
CN(C)CCc1ccc2c(ccn2S(=O)(=O)c2ccccc2)c1

>  <score_type>  (21) 
oracle

>  <origin>  (21) 
adg

>  <m_score__min__energy>  (21) 
-8.5299999999999994

>  <m_primary>  (21) 
energy

$$$$
21:0
     RDKit          3D

 47 50  0  0  0  0  0  0  0  0999 V2000
   -0.4700   26.6160  -27.4900 C   0  0  0  0  0  0  0  0  0  0  0  0
   -0.9580   25.4860  -28.2640 N   0  0  0  0  0  0  0  0  0  0  0  0
   -2.2370   25.2960  -28.5550 N   0  0  0  0  0  0  0  0  0  0  0  0
   -2.2940   24.1470  -29.2520 C   0  0  0  0  0  0  0  0  0  0  0  0
   -1.0070   23.6590  -29.3480 C   0  0  0  0  0  0  0  0  0  0  0  0
   -0.5640   22.4180  -30.0630 C   0  0  0  0  0  0  0  0  0  0  0  0
   -1.6300   21.9170  -30.9540 N   0  0  0  0  0  0  0  0  0  0  0  0
   -2.7170   21.2720  -30.1860 C   0  0  0  0  0  0  0  0  0  0  0  0
   -3.6830   20.4800  -31.0980 C   0  0  0  0  0  0  0  0  0  0  0  0
   -3.5450   20.8400  -32.5240 N   0  0  0  0  0  0  0  0  0  0  0  0
   -4.0700   22.1900  -32.8410 C   0  0  0  0  0  0  0  0  0  0  0  0
   -5.3190   22.4630  -32.0880 N   0  0  0  0  0  0  0  0  0  0  0  0
   -5.3520   23.5610  -31.2520 C   0  0  0  0  0  0  0  0  0  0  0  0
   -4.3500   24.3200  -31.1350 O   0  0  0  0  0  0  0  0  0  0  0  0
   -6.4880   23.8660  -30.5080 C   0  0  0  0  0  0  0  0  0  0  0  0
   -7.6100   23.0650  -30.5970 C   0  0  0  0  0  0  0  0  0  0  0  0
   -7.6050   21.9510  -31.4340 C   0  0  0  0  0  0  0  0  0  0  0  0
   -8.7530   21.1480  -31.5150 C   0  0  0  0  0  0  0  0  0  0  0  0
   -8.7730   20.0330  -32.3430 C   0  0  0  0  0  0  0  0  0  0  0  0
   -7.6520   19.7070  -33.0990 C   0  0  0  0  0  0  0  0  0  0  0  0
   -6.4940   20.4900  -33.0370 C   0  0  0  0  0  0  0  0  0  0  0  0
   -5.4610   20.0880  -33.8160 F   0  0  0  0  0  0  0  0  0  0  0  0
   -6.4390   21.6430  -32.1960 C   0  0  0  0  0  0  0  0  0  0  0  0
   -2.1560   20.6420  -33.0060 C   0  0  0  0  0  0  0  0  0  0  0  0
   -1.0860   20.9780  -31.9450 C   0  0  0  0  0  0  0  0  0  0  0  0
   -0.1810   24.5180  -28.7270 N   0  0  0  0  0  0  0  0  0  0  0  0
   -0.5658   26.3941  -26.4169 H   0  0  0  0  0  0  0  0  0  0  0  0
    0.5870   26.7983  -27.7338 H   0  0  0  0  0  0  0  0  0  0  0  0
   -1.0620   27.5105  -27.7338 H   0  0  0  0  0  0  0  0  0  0  0  0
   -3.1997   23.6821  -29.6687 H   0  0  0  0  0  0  0  0  0  0  0  0
    0.3293   22.6468  -30.6627 H   0  0  0  0  0  0  0  0  0  0  0  0
   -0.3358   21.6433  -29.3161 H   0  0  0  0  0  0  0  0  0  0  0  0
   -2.2727   20.5807  -29.4547 H   0  0  0  0  0  0  0  0  0  0  0  0
   -3.2950   22.0637  -29.6868 H   0  0  0  0  0  0  0  0  0  0  0  0
   -3.4733   19.4062  -30.9843 H   0  0  0  0  0  0  0  0  0  0  0  0
   -4.7093   20.7290  -30.7904 H   0  0  0  0  0  0  0  0  0  0  0  0
   -3.3148   22.9427  -32.5707 H   0  0  0  0  0  0  0  0  0  0  0  0
   -4.2914   22.2370  -33.9175 H   0  0  0  0  0  0  0  0  0  0  0  0
   -6.4924   24.7461  -29.8482 H   0  0  0  0  0  0  0  0  0  0  0  0
   -8.5068   23.3065  -30.0075 H   0  0  0  0  0  0  0  0  0  0  0  0
   -9.6420   21.4030  -30.9194 H   0  0  0  0  0  0  0  0  0  0  0  0
   -9.6759   19.4074  -32.4009 H   0  0  0  0  0  0  0  0  0  0  0  0
   -7.6760   18.8232  -33.7534 H   0  0  0  0  0  0  0  0  0  0  0  0
   -2.0360   19.5892  -33.3013 H   0  0  0  0  0  0  0  0  0  0  0  0
   -2.0037   21.3302  -33.8505 H   0  0  0  0  0  0  0  0  0  0  0  0
   -0.7755   20.0532  -31.4368 H   0  0  0  0  0  0  0  0  0  0  0  0
   -0.2215   21.4423  -32.4421 H   0  0  0  0  0  0  0  0  0  0  0  0
  1  2  1  0
  2  3  1  0
  3  4  2  0
  4  5  1  0
  5  6  1  0
  6  7  1  0
  7  8  1  0
  8  9  1  0
  9 10  1  0
 10 11  1  0
 11 12  1  0
 12 13  1  0
 13 14  2  0
 13 15  1  0
 15 16  2  0
 16 17  1  0
 17 18  2  0
 18 19  1  0
 19 20  2  0
 20 21  1  0
 21 22  1  0
 21 23  2  0
 10 24  1  0
 24 25  1  0
  5 26  2  0
 26  2  1  0
 25  7  1  0
 23 12  1  0
 23 17  1  0
  1 27  1  0
  1 28  1  0
  1 29  1  0
  4 30  1  0
  6 31  1  0
  6 32  1  0
  8 33  1  0
  8 34  1  0
  9 35  1  0
  9 36  1  0
 11 37  1  0
 11 38  1  0
 15 39  1  0
 16 40  1  0
 18 41  1  0
 19 42  1  0
 20 43  1  0
 24 44  1  0
 24 45  1  0
 25 46  1  0
 25 47  1  0
M  END
>  <UniqueID>  (22) 
21

>  <SMILES>  (22) 
Cn1ncc(CN2CCN(Cn3c(=O)ccc4cccc(F)c43)CC2)n1

>  <Energy>  (22) 
107.40228513115198

>  <Genealogy>  (22) 
Cn1ncc(CN2CCN(Cn3c(=O)ccc4cccc(F)c43)CC2)n1 (3D coordinates assigned)
Cn1ncc(CN2CCN(Cn3c(=O)ccc4cccc(F)c43)CC2)n1 (nonaromatic ring conformer: 107.40228513115198 kcal/mol)

>  <smiles>  (22) 
Cn1ncc(CN2CCN(Cn3c(=O)ccc4cccc(F)c43)CC2)n1

>  <score_type>  (22) 
oracle

>  <origin>  (22) 
adg

>  <m_score__min__energy>  (22) 
-8.8399999999999999

>  <m_primary>  (22) 
energy

$$$$
22:0
     RDKit          3D

 43 45  0  0  0  0  0  0  0  0999 V2000
   -9.0610   21.8620  -31.4460 C   0  0  0  0  0  0  0  0  0  0  0  0
   -8.2310   23.0370  -31.9570 C   0  0  0  0  0  0  0  0  0  0  0  0
   -6.8050   22.8450  -31.6220 N   0  0  0  0  0  0  0  0  0  0  0  0
   -6.2180   23.6290  -30.6630 C   0  0  0  0  0  0  0  0  0  0  0  0
   -6.8850   24.5140  -30.0560 O   0  0  0  0  0  0  0  0  0  0  0  0
   -4.8740   23.4540  -30.3470 C   0  0  0  0  0  0  0  0  0  0  0  0
   -4.2760   24.1970  -29.3780 N   0  0  0  0  0  0  0  0  0  0  0  0
   -2.9640   24.0310  -29.0520 C   0  0  0  0  0  0  0  0  0  0  0  0
   -2.3640   24.8670  -27.9810 C   0  0  0  0  0  0  0  0  0  0  0  0
   -2.9480   24.8910  -26.7040 C   0  0  0  0  0  0  0  0  0  0  0  0
   -2.4050   25.6760  -25.6840 C   0  0  0  0  0  0  0  0  0  0  0  0
   -1.2620   26.4680  -25.9120 C   0  0  0  0  0  0  0  0  0  0  0  0
   -0.6950   27.2840  -24.8530 N   0  0  0  0  0  0  0  0  0  0  0  0
   -0.3220   28.6820  -25.1060 C   0  0  0  0  0  0  0  0  0  0  0  0
   -0.4830   26.7250  -23.5120 C   0  0  0  0  0  0  0  0  0  0  0  0
   -0.6860   26.4510  -27.1980 C   0  0  0  0  0  0  0  0  0  0  0  0
   -1.2320   25.6650  -28.2170 C   0  0  0  0  0  0  0  0  0  0  0  0
   -2.2240   23.0490  -29.7340 C   0  0  0  0  0  0  0  0  0  0  0  0
   -2.8230   22.3100  -30.7040 N   0  0  0  0  0  0  0  0  0  0  0  0
   -4.1320   22.4900  -31.0390 C   0  0  0  0  0  0  0  0  0  0  0  0
   -4.7190   21.7490  -32.0280 N   0  0  0  0  0  0  0  0  0  0  0  0
   -3.9350   20.7240  -32.7410 C   0  0  0  0  0  0  0  0  0  0  0  0
   -6.0560   21.9140  -32.3040 C   0  0  0  0  0  0  0  0  0  0  0  0
   -6.6030   21.2030  -33.1940 O   0  0  0  0  0  0  0  0  0  0  0  0
   -9.0601   21.8633  -30.3460 H   0  0  0  0  0  0  0  0  0  0  0  0
  -10.0941   21.9562  -31.8119 H   0  0  0  0  0  0  0  0  0  0  0  0
   -8.6269   20.9198  -31.8119 H   0  0  0  0  0  0  0  0  0  0  0  0
   -8.3400   23.1099  -33.0492 H   0  0  0  0  0  0  0  0  0  0  0  0
   -8.5885   23.9609  -31.4788 H   0  0  0  0  0  0  0  0  0  0  0  0
   -3.8437   24.2844  -26.5046 H   0  0  0  0  0  0  0  0  0  0  0  0
   -2.8758   25.6759  -24.6899 H   0  0  0  0  0  0  0  0  0  0  0  0
   -0.1828   29.2036  -24.1476 H   0  0  0  0  0  0  0  0  0  0  0  0
    0.6159   28.7131  -25.6800 H   0  0  0  0  0  0  0  0  0  0  0  0
   -1.1197   29.1762  -25.6800 H   0  0  0  0  0  0  0  0  0  0  0  0
   -0.7659   27.4711  -22.7548 H   0  0  0  0  0  0  0  0  0  0  0  0
   -1.1019   25.8241  -23.3883 H   0  0  0  0  0  0  0  0  0  0  0  0
    0.5777   26.4611  -23.3883 H   0  0  0  0  0  0  0  0  0  0  0  0
    0.2043   27.0638  -27.4026 H   0  0  0  0  0  0  0  0  0  0  0  0
   -0.7700   25.6714  -29.2152 H   0  0  0  0  0  0  0  0  0  0  0  0
   -1.1663   22.8801  -29.4836 H   0  0  0  0  0  0  0  0  0  0  0  0
   -3.4353   20.0707  -32.0106 H   0  0  0  0  0  0  0  0  0  0  0  0
   -4.6058   20.1226  -33.3722 H   0  0  0  0  0  0  0  0  0  0  0  0
   -3.1790   21.2139  -33.3722 H   0  0  0  0  0  0  0  0  0  0  0  0
  1  2  1  0
  2  3  1  0
  3  4  1  0
  4  5  2  0
  4  6  1  0
  6  7  2  0
  7  8  1  0
  8  9  1  0
  9 10  2  0
 10 11  1  0
 11 12  2  0
 12 13  1  0
 13 14  1  0
 13 15  1  0
 12 16  1  0
 16 17  2  0
  8 18  2  0
 18 19  1  0
 19 20  2  0
 20 21  1  0
 21 22  1  0
 21 23  1  0
 23 24  2  0
 23  3  1  0
 20  6  1  0
 17  9  1  0
  1 25  1  0
  1 26  1  0
  1 27  1  0
  2 28  1  0
  2 29  1  0
 10 30  1  0
 11 31  1  0
 14 32  1  0
 14 33  1  0
 14 34  1  0
 15 35  1  0
 15 36  1  0
 15 37  1  0
 16 38  1  0
 17 39  1  0
 18 40  1  0
 22 41  1  0
 22 42  1  0
 22 43  1  0
M  END
>  <UniqueID>  (23) 
22

>  <SMILES>  (23) 
CCn1c(=O)c2nc(-c3ccc(N(C)C)cc3)cnc2n(C)c1=O

>  <Energy>  (23) 
59.722400071581546

>  <Genealogy>  (23) 
CCn1c(=O)c2nc(-c3ccc(N(C)C)cc3)cnc2n(C)c1=O (3D coordinates assigned)
CCn1c(=O)c2nc(-c3ccc(N(C)C)cc3)cnc2n(C)c1=O (optimized conformer: 59.722400071581546 kcal/mol)

>  <smiles>  (23) 
CCn1c(=O)c2nc(-c3ccc(N(C)C)cc3)cnc2n(C)c1=O

>  <score_type>  (23) 
oracle

>  <origin>  (23) 
adg

>  <m_score__min__energy>  (23) 
-6.79

>  <m_primary>  (23) 
energy

$$$$
23:0
     RDKit          3D

 48 51  0  0  0  0  0  0  0  0999 V2000
   -0.7080   20.1120  -27.8940 C   0  0  0  0  0  0  0  0  0  0  0  0
   -0.7900   20.1650  -29.3130 O   0  0  0  0  0  0  0  0  0  0  0  0
   -1.8370   20.7720  -30.0240 C   0  0  0  0  0  0  0  0  0  0  0  0
   -3.1280   20.9250  -29.4840 C   0  0  0  0  0  0  0  0  0  0  0  0
   -4.1380   21.5360  -30.2330 C   0  0  0  0  0  0  0  0  0  0  0  0
   -3.8770   21.9990  -31.5330 C   0  0  0  0  0  0  0  0  0  0  0  0
   -4.9620   22.6490  -32.3460 C   0  0  0  0  0  0  0  0  0  0  0  0
   -6.2820   22.2970  -31.8180 N   0  0  0  0  0  0  0  0  0  0  0  0
   -7.0560   22.9670  -30.9160 C   0  0  0  0  0  0  0  0  0  0  0  0
   -6.6970   24.2910  -30.3040 C   0  0  0  0  0  0  0  0  0  0  0  0
   -5.5820   24.1440  -29.3710 N   0  0  0  0  0  0  0  0  0  0  0  0
   -4.2620   24.6310  -29.6670 C   0  0  0  0  0  0  0  0  0  0  0  0
   -4.0210   25.1250  -30.8030 O   0  0  0  0  0  0  0  0  0  0  0  0
   -3.1700   24.5440  -28.6690 C   0  0  0  0  0  0  0  0  0  0  0  0
   -3.4440   24.4700  -27.2900 C   0  0  0  0  0  0  0  0  0  0  0  0
   -2.3990   24.3920  -26.3640 C   0  0  0  0  0  0  0  0  0  0  0  0
   -1.0720   24.3940  -26.8000 C   0  0  0  0  0  0  0  0  0  0  0  0
   -0.7870   24.4800  -28.1640 C   0  0  0  0  0  0  0  0  0  0  0  0
   -1.8270   24.5590  -29.0950 C   0  0  0  0  0  0  0  0  0  0  0  0
   -8.2170   22.3220  -30.6130 N   0  0  0  0  0  0  0  0  0  0  0  0
   -8.1440   21.2040  -31.3570 C   0  0  0  0  0  0  0  0  0  0  0  0
   -9.0570   20.1590  -31.4410 C   0  0  0  0  0  0  0  0  0  0  0  0
   -8.7310   19.0880  -32.2930 C   0  0  0  0  0  0  0  0  0  0  0  0
   -7.5170   19.1090  -33.0190 C   0  0  0  0  0  0  0  0  0  0  0  0
   -6.6540   20.1650  -32.8980 N   0  0  0  0  0  0  0  0  0  0  0  0
   -6.9890   21.1870  -32.0720 C   0  0  0  0  0  0  0  0  0  0  0  0
   -2.5880   21.8500  -32.0680 C   0  0  0  0  0  0  0  0  0  0  0  0
   -1.5790   21.2400  -31.3180 C   0  0  0  0  0  0  0  0  0  0  0  0
   -1.5558   20.6600  -27.4570 H   0  0  0  0  0  0  0  0  0  0  0  0
   -0.7399   19.0632  -27.5638 H   0  0  0  0  0  0  0  0  0  0  0  0
    0.2352   20.5718  -27.5638 H   0  0  0  0  0  0  0  0  0  0  0  0
   -3.3431   20.5621  -28.4681 H   0  0  0  0  0  0  0  0  0  0  0  0
   -5.1429   21.6548  -29.8017 H   0  0  0  0  0  0  0  0  0  0  0  0
   -4.8370   23.7412  -32.3084 H   0  0  0  0  0  0  0  0  0  0  0  0
   -4.8888   22.2935  -33.3844 H   0  0  0  0  0  0  0  0  0  0  0  0
   -6.4100   24.9916  -31.1020 H   0  0  0  0  0  0  0  0  0  0  0  0
   -7.5694   24.6745  -29.7546 H   0  0  0  0  0  0  0  0  0  0  0  0
   -5.7670   23.6500  -28.4700 H   0  0  0  0  0  0  0  0  0  0  0  0
   -4.4864   24.4736  -26.9388 H   0  0  0  0  0  0  0  0  0  0  0  0
   -2.6227   24.3289  -25.2888 H   0  0  0  0  0  0  0  0  0  0  0  0
   -0.2523   24.3279  -26.0694 H   0  0  0  0  0  0  0  0  0  0  0  0
    0.2582   24.4856  -28.5070 H   0  0  0  0  0  0  0  0  0  0  0  0
   -1.5952   24.6334  -30.1677 H   0  0  0  0  0  0  0  0  0  0  0  0
   -9.9945   20.1691  -30.8657 H   0  0  0  0  0  0  0  0  0  0  0  0
   -9.4189   18.2357  -32.3945 H   0  0  0  0  0  0  0  0  0  0  0  0
   -7.2646   18.2710  -33.6854 H   0  0  0  0  0  0  0  0  0  0  0  0
   -2.3710   22.2152  -33.0827 H   0  0  0  0  0  0  0  0  0  0  0  0
   -0.5730   21.1265  -31.7482 H   0  0  0  0  0  0  0  0  0  0  0  0
  1  2  1  0
  2  3  1  0
  3  4  2  0
  4  5  1  0
  5  6  2  0
  6  7  1  0
  7  8  1  0
  8  9  1  0
  9 10  1  0
 10 11  1  0
 11 12  1  0
 12 13  2  0
 12 14  1  0
 14 15  2  0
 15 16  1  0
 16 17  2  0
 17 18  1  0
 18 19  2  0
  9 20  2  0
 20 21  1  0
 21 22  2  0
 22 23  1  0
 23 24  2  0
 24 25  1  0
 25 26  2  0
  6 27  1  0
 27 28  2  0
 28  3  1  0
 26  8  1  0
 19 14  1  0
 26 21  1  0
  1 29  1  0
  1 30  1  0
  1 31  1  0
  4 32  1  0
  5 33  1  0
  7 34  1  0
  7 35  1  0
 10 36  1  0
 10 37  1  0
 11 38  1  0
 15 39  1  0
 16 40  1  0
 17 41  1  0
 18 42  1  0
 19 43  1  0
 22 44  1  0
 23 45  1  0
 24 46  1  0
 27 47  1  0
 28 48  1  0
M  END
>  <UniqueID>  (24) 
23

>  <SMILES>  (24) 
COc1ccc(Cn2c(CNC(=O)c3ccccc3)nc3cccnc32)cc1

>  <Energy>  (24) 
89.44682629726299

>  <Genealogy>  (24) 
COc1ccc(Cn2c(CNC(=O)c3ccccc3)nc3cccnc32)cc1 (3D coordinates assigned)
COc1ccc(Cn2c(CNC(=O)c3ccccc3)nc3cccnc32)cc1 (optimized conformer: 89.44682629726299 kcal/mol)

>  <smiles>  (24) 
COc1ccc(Cn2c(CNC(=O)c3ccccc3)nc3cccnc32)cc1

>  <score_type>  (24) 
oracle

>  <origin>  (24) 
adg

>  <m_score__min__energy>  (24) 
-8.5399999999999991

>  <m_primary>  (24) 
energy

$$$$
24:0
     RDKit          3D

 47 49  0  0  0  0  0  0  0  0999 V2000
   -1.7160   19.0530  -34.0650 C   0  0  0  0  0  0  0  0  0  0  0  0
   -3.0830   19.5310  -33.8560 N   0  0  0  0  0  0  0  0  0  0  0  0
   -4.2460   18.7750  -34.3350 C   0  0  0  0  0  0  0  0  0  0  0  0
   -5.3720   18.8850  -33.3400 C   0  0  0  0  0  0  0  0  0  0  0  0
   -6.5080   19.6530  -33.6430 C   0  0  0  0  0  0  0  0  0  0  0  0
   -7.6010   19.6690  -32.7690 C   0  0  0  0  0  0  0  0  0  0  0  0
   -7.5720   18.9100  -31.5960 C   0  0  0  0  0  0  0  0  0  0  0  0
   -6.4480   18.1380  -31.2900 C   0  0  0  0  0  0  0  0  0  0  0  0
   -5.3520   18.1230  -32.1580 C   0  0  0  0  0  0  0  0  0  0  0  0
   -3.2950   20.7550  -33.1400 C   0  0  0  0  0  0  0  0  0  0  0  0
   -4.3260   21.5840  -33.3800 N   0  0  0  0  0  0  0  0  0  0  0  0
   -4.4330   22.4260  -32.3640 N   0  0  0  0  0  0  0  0  0  0  0  0
   -5.5160   23.3940  -32.2220 C   0  0  0  0  0  0  0  0  0  0  0  0
   -3.4840   22.1290  -31.4450 C   0  0  0  0  0  0  0  0  0  0  0  0
   -3.4270   22.6920  -30.0830 C   0  0  0  0  0  0  0  0  0  0  0  0
   -4.3560   22.2990  -29.1100 C   0  0  0  0  0  0  0  0  0  0  0  0
   -4.2810   22.8240  -27.8150 C   0  0  0  0  0  0  0  0  0  0  0  0
   -3.2760   23.7370  -27.4850 C   0  0  0  0  0  0  0  0  0  0  0  0
   -2.3410   24.1340  -28.4510 C   0  0  0  0  0  0  0  0  0  0  0  0
   -1.0580   25.2730  -28.0550 S   0  0  0  0  0  0  0  0  0  0  0  0
   -1.2170   25.7800  -26.3570 C   0  0  0  0  0  0  0  0  0  0  0  0
   -1.1460   26.4870  -28.9380 O   0  0  0  0  0  0  0  0  0  0  0  0
    0.2760   24.6130  -28.2640 O   0  0  0  0  0  0  0  0  0  0  0  0
   -2.4190   23.6080  -29.7460 C   0  0  0  0  0  0  0  0  0  0  0  0
   -2.7350   21.0580  -31.9120 C   0  0  0  0  0  0  0  0  0  0  0  0
   -1.3770   20.0810  -30.9810 Br  0  0  0  0  0  0  0  0  0  0  0  0
   -1.2336   18.8843  -33.0909 H   0  0  0  0  0  0  0  0  0  0  0  0
   -1.7398   18.1099  -34.6306 H   0  0  0  0  0  0  0  0  0  0  0  0
   -1.1469   19.8055  -34.6306 H   0  0  0  0  0  0  0  0  0  0  0  0
   -4.5730   19.1827  -35.3029 H   0  0  0  0  0  0  0  0  0  0  0  0
   -3.9679   17.7173  -34.4529 H   0  0  0  0  0  0  0  0  0  0  0  0
   -6.5389   20.2439  -34.5703 H   0  0  0  0  0  0  0  0  0  0  0  0
   -8.4844   20.2801  -33.0058 H   0  0  0  0  0  0  0  0  0  0  0  0
   -8.4343   18.9202  -30.9132 H   0  0  0  0  0  0  0  0  0  0  0  0
   -6.4255   17.5419  -30.3658 H   0  0  0  0  0  0  0  0  0  0  0  0
   -4.4699   17.5123  -31.9153 H   0  0  0  0  0  0  0  0  0  0  0  0
   -4.9900   21.5270  -34.1850 H   0  0  0  0  0  0  0  0  0  0  0  0
   -5.7128   23.5699  -31.1542 H   0  0  0  0  0  0  0  0  0  0  0  0
   -5.2272   24.3405  -32.7024 H   0  0  0  0  0  0  0  0  0  0  0  0
   -6.4242   23.0012  -32.7024 H   0  0  0  0  0  0  0  0  0  0  0  0
   -5.1455   21.5766  -29.3647 H   0  0  0  0  0  0  0  0  0  0  0  0
   -5.0148   22.5173  -27.0551 H   0  0  0  0  0  0  0  0  0  0  0  0
   -3.2184   24.1450  -26.4651 H   0  0  0  0  0  0  0  0  0  0  0  0
   -0.9536   24.9401  -25.6973 H   0  0  0  0  0  0  0  0  0  0  0  0
   -0.5409   26.6255  -26.1619 H   0  0  0  0  0  0  0  0  0  0  0  0
   -2.2548   26.0879  -26.1619 H   0  0  0  0  0  0  0  0  0  0  0  0
   -1.6845   23.9151  -30.5051 H   0  0  0  0  0  0  0  0  0  0  0  0
  1  2  1  0
  2  3  1  0
  3  4  1  0
  4  5  2  0
  5  6  1  0
  6  7  2  0
  7  8  1  0
  8  9  2  0
  2 10  1  0
 10 11  2  0
 11 12  1  0
 12 13  1  0
 12 14  1  0
 14 15  1  0
 15 16  2  0
 16 17  1  0
 17 18  2  0
 18 19  1  0
 19 20  1  0
 20 21  1  0
 20 22  2  0
 20 23  2  0
 19 24  2  0
 14 25  2  0
 25 26  1  0
  9  4  1  0
 25 10  1  0
 24 15  1  0
  1 27  1  0
  1 28  1  0
  1 29  1  0
  3 30  1  0
  3 31  1  0
  5 32  1  0
  6 33  1  0
  7 34  1  0
  8 35  1  0
  9 36  1  0
 11 37  1  0
 13 38  1  0
 13 39  1  0
 13 40  1  0
 16 41  1  0
 17 42  1  0
 18 43  1  0
 21 44  1  0
 21 45  1  0
 21 46  1  0
 24 47  1  0
M  CHG  1  11   1
M  END
>  <UniqueID>  (25) 
24

>  <SMILES>  (25) 
CN(Cc1ccccc1)c1[nH+]n(C)c(-c2cccc(S(C)(=O)=O)c2)c1Br

>  <Energy>  (25) 
83.52445884834

>  <Genealogy>  (25) 
CN(Cc1ccccc1)c1[nH+]n(C)c(-c2cccc(S(C)(=O)=O)c2)c1Br (protonated)
CN(Cc1ccccc1)c1[nH+]n(C)c(-c2cccc(S(C)(=O)=O)c2)c1Br (3D coordinates assigned)
CN(Cc1ccccc1)c1[nH+]n(C)c(-c2cccc(S(C)(=O)=O)c2)c1Br (optimized conformer: 83.52445884834 kcal/mol)

>  <smiles>  (25) 
CN(Cc1ccccc1)c1nn(C)c(-c2cccc(S(C)(=O)=O)c2)c1Br

>  <score_type>  (25) 
oracle

>  <origin>  (25) 
adg

>  <m_score__min__energy>  (25) 
-9.0199999999999996

>  <m_primary>  (25) 
energy

$$$$
25:0
     RDKit          3D

 33 34  0  0  0  0  0  0  0  0999 V2000
   -5.2670   25.4950  -30.6070 C   0  0  0  0  0  0  0  0  0  0  0  0
   -4.6580   24.1800  -30.8200 N   0  0  0  0  0  0  0  0  0  0  0  0
   -5.6320   23.0890  -30.6490 C   0  0  0  0  0  0  0  0  0  0  0  0
   -6.6650   23.0080  -31.7900 C   0  0  0  0  0  0  0  0  0  0  0  0
   -6.7240   21.6580  -32.3630 N   0  0  0  0  0  0  0  0  0  0  0  0
   -7.8330   20.8770  -32.4690 C   0  0  0  0  0  0  0  0  0  0  0  0
   -9.4450   21.3680  -31.9700 Cl  0  0  0  0  0  0  0  0  0  0  0  0
   -7.5740   19.6680  -33.0190 N   0  0  0  0  0  0  0  0  0  0  0  0
   -6.2510   19.6950  -33.2600 C   0  0  0  0  0  0  0  0  0  0  0  0
   -5.7310   20.8880  -32.8720 C   0  0  0  0  0  0  0  0  0  0  0  0
   -4.3730   21.1410  -33.0470 C   0  0  0  0  0  0  0  0  0  0  0  0
   -3.8750   22.2500  -32.7160 O   0  0  0  0  0  0  0  0  0  0  0  0
   -3.5890   20.1520  -33.5980 N   0  0  0  0  0  0  0  0  0  0  0  0
   -2.1540   20.3980  -33.8230 C   0  0  0  0  0  0  0  0  0  0  0  0
   -4.1540   18.9570  -34.0120 C   0  0  0  0  0  0  0  0  0  0  0  0
   -3.4320   18.0840  -34.5700 O   0  0  0  0  0  0  0  0  0  0  0  0
   -5.4980   18.7120  -33.8250 N   0  0  0  0  0  0  0  0  0  0  0  0
   -6.1300   17.4540  -34.2470 C   0  0  0  0  0  0  0  0  0  0  0  0
   -5.3561   25.6873  -29.5276 H   0  0  0  0  0  0  0  0  0  0  0  0
   -4.6362   26.2700  -31.0667 H   0  0  0  0  0  0  0  0  0  0  0  0
   -6.2661   25.5152  -31.0667 H   0  0  0  0  0  0  0  0  0  0  0  0
   -4.2350   24.1490  -31.7740 H   0  0  0  0  0  0  0  0  0  0  0  0
   -5.0844   22.1360  -30.6058 H   0  0  0  0  0  0  0  0  0  0  0  0
   -6.1873   23.2911  -29.7212 H   0  0  0  0  0  0  0  0  0  0  0  0
   -7.6567   23.2728  -31.3946 H   0  0  0  0  0  0  0  0  0  0  0  0
   -6.3616   23.7079  -32.5825 H   0  0  0  0  0  0  0  0  0  0  0  0
   -8.2570   18.9030  -33.2120 H   0  0  0  0  0  0  0  0  0  0  0  0
   -1.6407   20.4860  -32.8541 H   0  0  0  0  0  0  0  0  0  0  0  0
   -1.7231   19.5606  -34.3915 H   0  0  0  0  0  0  0  0  0  0  0  0
   -2.0267   21.3311  -34.3915 H   0  0  0  0  0  0  0  0  0  0  0  0
   -6.4213   16.8741  -33.3589 H   0  0  0  0  0  0  0  0  0  0  0  0
   -7.0234   17.6764  -34.8490 H   0  0  0  0  0  0  0  0  0  0  0  0
   -5.4183   16.8700  -34.8490 H   0  0  0  0  0  0  0  0  0  0  0  0
  1  2  1  0
  2  3  1  0
  3  4  1  0
  4  5  1  0
  5  6  1  0
  6  7  1  0
  6  8  2  0
  8  9  1  0
  9 10  2  0
 10 11  1  0
 11 12  2  0
 11 13  1  0
 13 14  1  0
 13 15  1  0
 15 16  2  0
 15 17  1  0
 17 18  1  0
 10  5  1  0
 17  9  1  0
  1 19  1  0
  1 20  1  0
  1 21  1  0
  2 22  1  0
  3 23  1  0
  3 24  1  0
  4 25  1  0
  4 26  1  0
  8 27  1  0
 14 28  1  0
 14 29  1  0
 14 30  1  0
 18 31  1  0
 18 32  1  0
 18 33  1  0
M  CHG  1   8   1
M  END
>  <UniqueID>  (26) 
25

>  <SMILES>  (26) 
CNCCn1c(Cl)[nH+]c2c1c(=O)n(C)c(=O)n2C

>  <Energy>  (26) 
79.64949122543707

>  <Genealogy>  (26) 
CNCCn1c(Cl)[nH+]c2c1c(=O)n(C)c(=O)n2C (protonated)
CNCCn1c(Cl)[nH+]c2c1c(=O)n(C)c(=O)n2C (3D coordinates assigned)
CNCCn1c(Cl)[nH+]c2c1c(=O)n(C)c(=O)n2C (optimized conformer: 79.64949122543707 kcal/mol)

>  <smiles>  (26) 
CNCCn1c(Cl)nc2c1c(=O)n(C)c(=O)n2C

>  <score_type>  (26) 
oracle

>  <origin>  (26) 
adg

>  <m_score__min__energy>  (26) 
-6.4800000000000004

>  <m_primary>  (26) 
energy

$$$$
26:0
     RDKit          3D

 38 40  0  0  0  0  0  0  0  0999 V2000
   -7.9890   22.3070  -30.2140 C   0  0  0  0  0  0  0  0  0  0  0  0
   -7.2840   21.7970  -31.4040 N   0  0  0  0  0  0  0  0  0  0  0  0
   -8.1810   21.0150  -32.2780 C   0  0  0  0  0  0  0  0  0  0  0  0
   -7.5010   19.7600  -32.7360 C   0  0  0  0  0  0  0  0  0  0  0  0
   -7.8300   18.4950  -32.2550 C   0  0  0  0  0  0  0  0  0  0  0  0
   -6.8050   17.3910  -32.9970 S   0  0  0  0  0  0  0  0  0  0  0  0
   -5.9890   18.5570  -33.8890 C   0  0  0  0  0  0  0  0  0  0  0  0
   -6.4790   19.7890  -33.6340 N   0  0  0  0  0  0  0  0  0  0  0  0
   -6.5830   22.8760  -32.1370 C   0  0  0  0  0  0  0  0  0  0  0  0
   -5.4390   23.4810  -31.3670 C   0  0  0  0  0  0  0  0  0  0  0  0
   -5.3230   24.8140  -30.9860 C   0  0  0  0  0  0  0  0  0  0  0  0
   -4.1850   25.1150  -30.3050 N   0  0  0  0  0  0  0  0  0  0  0  0
   -3.3910   24.0330  -30.1380 C   0  0  0  0  0  0  0  0  0  0  0  0
   -2.1250   24.0810  -29.4490 N   0  0  0  0  0  0  0  0  0  0  0  0
   -1.7310   25.2900  -28.7120 C   0  0  0  0  0  0  0  0  0  0  0  0
   -0.6770   24.9550  -27.6530 C   0  0  0  0  0  0  0  0  0  0  0  0
    0.3870   24.2150  -28.2180 O   0  0  0  0  0  0  0  0  0  0  0  0
   -0.0890   22.9520  -28.6370 C   0  0  0  0  0  0  0  0  0  0  0  0
   -1.0850   23.1020  -29.7900 C   0  0  0  0  0  0  0  0  0  0  0  0
   -4.0750   22.6540  -30.8310 S   0  0  0  0  0  0  0  0  0  0  0  0
   -7.4861   21.9432  -29.3059 H   0  0  0  0  0  0  0  0  0  0  0  0
   -7.9771   23.4069  -30.2241 H   0  0  0  0  0  0  0  0  0  0  0  0
   -9.0299   21.9515  -30.2241 H   0  0  0  0  0  0  0  0  0  0  0  0
   -9.0913   20.7509  -31.7198 H   0  0  0  0  0  0  0  0  0  0  0  0
   -8.4399   21.6220  -33.1581 H   0  0  0  0  0  0  0  0  0  0  0  0
   -8.6172   18.2618  -31.5230 H   0  0  0  0  0  0  0  0  0  0  0  0
   -5.1658   18.3453  -34.5873 H   0  0  0  0  0  0  0  0  0  0  0  0
   -6.1891   22.4599  -33.0760 H   0  0  0  0  0  0  0  0  0  0  0  0
   -7.3158   23.6778  -32.3106 H   0  0  0  0  0  0  0  0  0  0  0  0
   -6.0918   25.5659  -31.2175 H   0  0  0  0  0  0  0  0  0  0  0  0
   -1.3143   26.0239  -29.4175 H   0  0  0  0  0  0  0  0  0  0  0  0
   -2.6180   25.7053  -28.2112 H   0  0  0  0  0  0  0  0  0  0  0  0
   -0.2810   25.8901  -27.2303 H   0  0  0  0  0  0  0  0  0  0  0  0
   -1.1490   24.3480  -26.8664 H   0  0  0  0  0  0  0  0  0  0  0  0
    0.7609   22.3392  -28.9719 H   0  0  0  0  0  0  0  0  0  0  0  0
   -0.5992   22.4688  -27.7907 H   0  0  0  0  0  0  0  0  0  0  0  0
   -0.5494   23.4415  -30.6888 H   0  0  0  0  0  0  0  0  0  0  0  0
   -1.5614   22.1283  -29.9767 H   0  0  0  0  0  0  0  0  0  0  0  0
  1  2  1  0
  2  3  1  0
  3  4  1  0
  4  5  2  0
  5  6  1  0
  6  7  1  0
  7  8  2  0
  2  9  1  0
  9 10  1  0
 10 11  2  0
 11 12  1  0
 12 13  2  0
 13 14  1  0
 14 15  1  0
 15 16  1  0
 16 17  1  0
 17 18  1  0
 18 19  1  0
 13 20  1  0
  8  4  1  0
 20 10  1  0
 19 14  1  0
  1 21  1  0
  1 22  1  0
  1 23  1  0
  3 24  1  0
  3 25  1  0
  5 26  1  0
  7 27  1  0
  9 28  1  0
  9 29  1  0
 11 30  1  0
 15 31  1  0
 15 32  1  0
 16 33  1  0
 16 34  1  0
 18 35  1  0
 18 36  1  0
 19 37  1  0
 19 38  1  0
M  END
>  <UniqueID>  (27) 
26

>  <SMILES>  (27) 
CN(Cc1cscn1)Cc1cnc(N2CCOCC2)s1

>  <Energy>  (27) 
100.87177403012772

>  <Genealogy>  (27) 
CN(Cc1cscn1)Cc1cnc(N2CCOCC2)s1 (3D coordinates assigned)
CN(Cc1cscn1)Cc1cnc(N2CCOCC2)s1 (nonaromatic ring conformer: 100.87177403012772 kcal/mol)

>  <smiles>  (27) 
CN(Cc1cscn1)Cc1cnc(N2CCOCC2)s1

>  <score_type>  (27) 
oracle

>  <origin>  (27) 
adg

>  <m_score__min__energy>  (27) 
-7.1500000000000004

>  <m_primary>  (27) 
energy

$$$$
27:0
     RDKit          3D

 35 36  0  0  0  0  0  0  0  0999 V2000
   -4.0910   24.5610  -26.8480 C   0  0  0  0  0  0  0  0  0  0  0  0
   -4.2280   23.5020  -27.9430 C   0  0  0  0  0  0  0  0  0  0  0  0
   -3.5840   23.9340  -29.1940 N   0  0  0  0  0  0  0  0  0  0  0  0
   -2.1430   23.7260  -29.3740 C   0  0  0  0  0  0  0  0  0  0  0  0
   -4.3730   24.2950  -30.3470 C   0  0  0  0  0  0  0  0  0  0  0  0
   -4.2410   25.4440  -30.8520 O   0  0  0  0  0  0  0  0  0  0  0  0
   -5.3470   23.3700  -30.9620 C   0  0  0  0  0  0  0  0  0  0  0  0
   -6.6460   23.6460  -31.3390 C   0  0  0  0  0  0  0  0  0  0  0  0
   -7.1420   22.5610  -31.8890 O   0  0  0  0  0  0  0  0  0  0  0  0
   -6.2020   21.6390  -31.8740 C   0  0  0  0  0  0  0  0  0  0  0  0
   -6.3930   20.2720  -32.4150 C   0  0  0  0  0  0  0  0  0  0  0  0
   -7.3860   19.4110  -31.9130 C   0  0  0  0  0  0  0  0  0  0  0  0
   -7.5440   18.1270  -32.4420 C   0  0  0  0  0  0  0  0  0  0  0  0
   -6.7240   17.6850  -33.4890 C   0  0  0  0  0  0  0  0  0  0  0  0
   -6.8690   16.2930  -34.0280 C   0  0  0  0  0  0  0  0  0  0  0  0
   -5.7210   18.5320  -33.9810 C   0  0  0  0  0  0  0  0  0  0  0  0
   -5.5620   19.8170  -33.4530 C   0  0  0  0  0  0  0  0  0  0  0  0
   -5.0630   22.1030  -31.3130 N   0  0  0  0  0  0  0  0  0  0  0  0
   -4.1534   24.0785  -25.8614 H   0  0  0  0  0  0  0  0  0  0  0  0
   -3.1198   25.0678  -26.9475 H   0  0  0  0  0  0  0  0  0  0  0  0
   -4.9012   25.2983  -26.9475 H   0  0  0  0  0  0  0  0  0  0  0  0
   -3.7545   22.5701  -27.6004 H   0  0  0  0  0  0  0  0  0  0  0  0
   -5.2988   23.3469  -28.1414 H   0  0  0  0  0  0  0  0  0  0  0  0
   -1.6569   23.6558  -28.3897 H   0  0  0  0  0  0  0  0  0  0  0  0
   -1.9741   22.7942  -29.9336 H   0  0  0  0  0  0  0  0  0  0  0  0
   -1.7175   24.5720  -29.9336 H   0  0  0  0  0  0  0  0  0  0  0  0
   -7.1715   24.6028  -31.2032 H   0  0  0  0  0  0  0  0  0  0  0  0
   -8.0426   19.7507  -31.0985 H   0  0  0  0  0  0  0  0  0  0  0  0
   -8.3169   17.4591  -32.0339 H   0  0  0  0  0  0  0  0  0  0  0  0
   -6.9431   15.5820  -33.1920 H   0  0  0  0  0  0  0  0  0  0  0  0
   -7.7785   16.2311  -34.6437 H   0  0  0  0  0  0  0  0  0  0  0  0
   -5.9918   16.0450  -34.6437 H   0  0  0  0  0  0  0  0  0  0  0  0
   -5.0564   18.1843  -34.7856 H   0  0  0  0  0  0  0  0  0  0  0  0
   -4.7793   20.4778  -33.8538 H   0  0  0  0  0  0  0  0  0  0  0  0
   -4.1570   21.6060  -31.1720 H   0  0  0  0  0  0  0  0  0  0  0  0
  1  2  1  0
  2  3  1  0
  3  4  1  0
  3  5  1  0
  5  6  2  0
  5  7  1  0
  7  8  2  0
  8  9  1  0
  9 10  1  0
 10 11  1  0
 11 12  2  0
 12 13  1  0
 13 14  2  0
 14 15  1  0
 14 16  1  0
 16 17  2  0
 10 18  2  0
 18  7  1  0
 17 11  1  0
  1 19  1  0
  1 20  1  0
  1 21  1  0
  2 22  1  0
  2 23  1  0
  4 24  1  0
  4 25  1  0
  4 26  1  0
  8 27  1  0
 12 28  1  0
 13 29  1  0
 15 30  1  0
 15 31  1  0
 15 32  1  0
 16 33  1  0
 17 34  1  0
 18 35  1  0
M  CHG  1  18   1
M  END
>  <UniqueID>  (28) 
27

>  <SMILES>  (28) 
CCN(C)C(=O)c1coc(-c2ccc(C)cc2)[nH+]1

>  <Energy>  (28) 
66.43970703378127

>  <Genealogy>  (28) 
CCN(C)C(=O)c1coc(-c2ccc(C)cc2)[nH+]1 (protonated)
CCN(C)C(=O)c1coc(-c2ccc(C)cc2)[nH+]1 (3D coordinates assigned)
CCN(C)C(=O)c1coc(-c2ccc(C)cc2)[nH+]1 (optimized conformer: 66.43970703378127 kcal/mol)

>  <smiles>  (28) 
CCN(C)C(=O)c1coc(-c2ccc(C)cc2)n1

>  <score_type>  (28) 
oracle

>  <origin>  (28) 
adg

>  <m_score__min__energy>  (28) 
-5.8799999999999999

>  <m_primary>  (28) 
energy

$$$$
28:0
     RDKit          3D

 38 40  0  0  0  0  0  0  0  0999 V2000
    0.5823   20.4866  -28.5113 H   0  0  0  0  0  0  0  0  0  0  0  0
   -0.3330   20.2700  -27.9410 C   0  0  0  0  0  0  0  0  0  0  0  0
   -0.7100   18.8120  -27.1950 S   0  0  0  0  0  0  0  0  0  0  0  0
   -2.1980   19.3560  -26.6380 C   0  0  0  0  0  0  0  0  0  0  0  0
   -3.1300   18.5630  -25.7870 C   0  0  0  0  0  0  0  0  0  0  0  0
   -2.9083   18.7516  -24.7262 H   0  0  0  0  0  0  0  0  0  0  0  0
   -4.1668   18.8601  -26.0034 H   0  0  0  0  0  0  0  0  0  0  0  0
   -3.0027   17.4920  -26.0034 H   0  0  0  0  0  0  0  0  0  0  0  0
   -2.4190   20.6400  -26.9900 N   0  0  0  0  0  0  0  0  0  0  0  0
   -1.3850   21.1580  -27.7100 C   0  0  0  0  0  0  0  0  0  0  0  0
   -1.4350   22.5340  -28.2480 C   0  0  0  0  0  0  0  0  0  0  0  0
   -0.4780   23.5130  -27.9130 C   0  0  0  0  0  0  0  0  0  0  0  0
    0.8040   23.2250  -26.7410 Cl  0  0  0  0  0  0  0  0  0  0  0  0
   -0.5840   24.7870  -28.4750 C   0  0  0  0  0  0  0  0  0  0  0  0
    0.1639   25.5543  -28.2261 H   0  0  0  0  0  0  0  0  0  0  0  0
   -1.6000   25.0910  -29.3260 N   0  0  0  0  0  0  0  0  0  0  0  0
   -1.6060   26.0550  -29.7190 H   0  0  0  0  0  0  0  0  0  0  0  0
   -2.5600   24.1710  -29.6500 C   0  0  0  0  0  0  0  0  0  0  0  0
   -3.5530   24.4430  -30.4550 N   0  0  0  0  0  0  0  0  0  0  0  0
   -4.8730   23.8100  -30.5840 C   0  0  0  0  0  0  0  0  0  0  0  0
   -5.1149   23.3459  -29.6165 H   0  0  0  0  0  0  0  0  0  0  0  0
   -5.9840   24.8510  -30.8310 C   0  0  0  0  0  0  0  0  0  0  0  0
   -5.9661   25.5922  -30.0184 H   0  0  0  0  0  0  0  0  0  0  0  0
   -5.7972   25.3304  -31.8032 H   0  0  0  0  0  0  0  0  0  0  0  0
   -7.3770   24.1920  -30.8770 C   0  0  0  0  0  0  0  0  0  0  0  0
   -7.7425   24.0831  -29.8452 H   0  0  0  0  0  0  0  0  0  0  0  0
   -8.0185   24.8454  -31.4865 H   0  0  0  0  0  0  0  0  0  0  0  0
   -7.3910   22.8000  -31.5470 C   0  0  0  0  0  0  0  0  0  0  0  0
   -7.4195   22.0310  -30.7610 H   0  0  0  0  0  0  0  0  0  0  0  0
   -8.2786   22.7511  -32.1949 H   0  0  0  0  0  0  0  0  0  0  0  0
   -6.1600   22.5570  -32.4270 C   0  0  0  0  0  0  0  0  0  0  0  0
   -6.2362   21.5599  -32.8852 H   0  0  0  0  0  0  0  0  0  0  0  0
   -6.1242   23.3353  -33.2035 H   0  0  0  0  0  0  0  0  0  0  0  0
   -4.8680   22.6320  -31.5970 C   0  0  0  0  0  0  0  0  0  0  0  0
   -4.7520   21.6901  -31.0407 H   0  0  0  0  0  0  0  0  0  0  0  0
   -4.0341   22.7979  -32.2950 H   0  0  0  0  0  0  0  0  0  0  0  0
   -2.4840   22.8820  -29.1110 C   0  0  0  0  0  0  0  0  0  0  0  0
   -3.2520   22.1369  -29.3659 H   0  0  0  0  0  0  0  0  0  0  0  0
  1  2  1  0
  2  3  1  0
  3  4  1  0
  4  5  1  0
  5  6  1  0
  5  7  1  0
  5  8  1  0
  4  9  2  0
  9 10  1  0
 10 11  1  0
 11 12  1  0
 12 13  1  0
 12 14  2  0
 14 15  1  0
 14 16  1  0
 16 17  1  0
 16 18  1  0
 18 19  2  0
 19 20  1  0
 20 21  1  0
 20 22  1  0
 22 23  1  0
 22 24  1  0
 22 25  1  0
 25 26  1  0
 25 27  1  0
 25 28  1  0
 28 29  1  0
 28 30  1  0
 28 31  1  0
 31 32  1  0
 31 33  1  0
 31 34  1  0
 34 35  1  0
 34 36  1  0
 18 37  1  0
 37 38  1  0
 10  2  2  0
 37 11  2  0
 34 20  1  0
M  END
>  <UniqueID>  (29) 
28

>  <SMILES>  (29) 
Cc1nc(-c2c/c(=N/C3CCCCC3)[nH]cc2Cl)cs1

>  <Energy>  (29) 
80.79624749424762

>  <Genealogy>  (29) 
Cc1nc(-c2c/c(=N/C3CCCCC3)[nH]cc2Cl)cs1 (cis-trans isomerization)
Cc1nc(-c2c/c(=N/C3CCCCC3)[nH]cc2Cl)cs1 (3D coordinates assigned)
Cc1nc(-c2c/c(=N/C3CCCCC3)[nH]cc2Cl)cs1 (nonaromatic ring conformer: 80.79624749424762 kcal/mol)

>  <smiles>  (29) 
Cc1nc(-c2cc(=NC3CCCCC3)[nH]cc2Cl)cs1

>  <score_type>  (29) 
oracle

>  <origin>  (29) 
adg

>  <m_score__min__energy>  (29) 
-8.1999999999999993

>  <m_primary>  (29) 
energy

$$$$
29:0
     RDKit          3D

 40 41  0  0  0  0  0  0  0  0999 V2000
   -1.6360   21.3240  -30.6330 C   0  0  0  0  0  0  0  0  0  0  0  0
   -2.7950   21.9440  -29.8490 C   0  0  2  0  0  0  0  0  0  0  0  0
   -4.0830   21.8310  -30.6160 C   0  0  0  0  0  0  0  0  0  0  0  0
   -4.6130   20.7330  -30.9360 O   0  0  0  0  0  0  0  0  0  0  0  0
   -4.6510   23.0920  -30.9590 N   0  0  0  0  0  0  0  0  0  0  0  0
   -5.6900   23.3180  -31.9610 C   0  0  0  0  0  0  0  0  0  0  0  0
   -7.0700   23.0160  -31.3720 C   0  0  0  0  0  0  0  0  0  0  0  0
   -7.5400   21.6520  -31.7960 C   0  0  0  0  0  0  0  0  0  0  0  0
   -8.6830   21.0810  -31.2080 C   0  0  0  0  0  0  0  0  0  0  0  0
   -9.1000   19.7990  -31.5790 C   0  0  0  0  0  0  0  0  0  0  0  0
   -8.3760   19.0750  -32.5310 C   0  0  0  0  0  0  0  0  0  0  0  0
   -7.2320   19.6300  -33.1100 C   0  0  0  0  0  0  0  0  0  0  0  0
   -6.8110   20.9120  -32.7410 C   0  0  0  0  0  0  0  0  0  0  0  0
   -3.7560   24.0690  -30.4560 C   0  0  0  0  0  0  0  0  0  0  0  0
   -3.8840   25.3040  -30.6730 O   0  0  0  0  0  0  0  0  0  0  0  0
   -2.6510   23.4420  -29.7290 C   0  0  0  0  0  0  0  0  0  0  0  0
   -1.6680   24.0580  -29.0580 C   0  0  0  0  0  0  0  0  0  0  0  0
   -1.9270   25.0880  -28.0950 N   0  0  0  0  0  0  0  0  0  0  0  0
   -0.8740   26.0670  -27.8430 C   0  0  0  0  0  0  0  0  0  0  0  0
   -2.9010   24.8360  -27.0320 C   0  0  0  0  0  0  0  0  0  0  0  0
   -0.8899   20.9249  -29.9301 H   0  0  0  0  0  0  0  0  0  0  0  0
   -2.0162   20.5088  -31.2662 H   0  0  0  0  0  0  0  0  0  0  0  0
   -1.1689   22.0927  -31.2662 H   0  0  0  0  0  0  0  0  0  0  0  0
   -2.7908   21.4191  -28.8823 H   0  0  0  0  0  0  0  0  0  0  0  0
   -5.6567   24.3678  -32.2880 H   0  0  0  0  0  0  0  0  0  0  0  0
   -5.5125   22.6510  -32.8175 H   0  0  0  0  0  0  0  0  0  0  0  0
   -7.0103   23.0526  -30.2742 H   0  0  0  0  0  0  0  0  0  0  0  0
   -7.7844   23.7672  -31.7398 H   0  0  0  0  0  0  0  0  0  0  0  0
   -9.2509   21.6451  -30.4535 H   0  0  0  0  0  0  0  0  0  0  0  0
   -9.9986   19.3596  -31.1214 H   0  0  0  0  0  0  0  0  0  0  0  0
   -8.7072   18.0679  -32.8243 H   0  0  0  0  0  0  0  0  0  0  0  0
   -6.6617   19.0582  -33.8569 H   0  0  0  0  0  0  0  0  0  0  0  0
   -5.9051   21.3422  -33.1930 H   0  0  0  0  0  0  0  0  0  0  0  0
   -0.6263   23.7631  -29.2529 H   0  0  0  0  0  0  0  0  0  0  0  0
   -0.7406   26.1910  -26.7582 H   0  0  0  0  0  0  0  0  0  0  0  0
    0.0676   25.7161  -28.2905 H   0  0  0  0  0  0  0  0  0  0  0  0
   -1.1555   27.0316  -28.2905 H   0  0  0  0  0  0  0  0  0  0  0  0
   -2.4158   24.9615  -26.0528 H   0  0  0  0  0  0  0  0  0  0  0  0
   -3.7346   25.5480  -27.1221 H   0  0  0  0  0  0  0  0  0  0  0  0
   -3.2847   23.8090  -27.1221 H   0  0  0  0  0  0  0  0  0  0  0  0
  1  2  1  0
  2  3  1  0
  3  4  2  0
  3  5  1  0
  5  6  1  0
  6  7  1  0
  7  8  1  0
  8  9  2  0
  9 10  1  0
 10 11  2  0
 11 12  1  0
 12 13  2  0
  5 14  1  0
 14 15  2  0
 14 16  1  0
 16 17  2  3
 17 18  1  0
 18 19  1  0
 18 20  1  0
 16  2  1  0
 13  8  1  0
  1 21  1  0
  1 22  1  0
  1 23  1  0
  2 24  1  1
  6 25  1  0
  6 26  1  0
  7 27  1  0
  7 28  1  0
  9 29  1  0
 10 30  1  0
 11 31  1  0
 12 32  1  0
 13 33  1  0
 17 34  1  0
 19 35  1  0
 19 36  1  0
 19 37  1  0
 20 38  1  0
 20 39  1  0
 20 40  1  0
M  END
>  <UniqueID>  (30) 
29

>  <SMILES>  (30) 
C[C@@H]1C(=O)N(CCc2ccccc2)C(=O)C1=CN(C)C

>  <Energy>  (30) 
53.336047862265204

>  <Genealogy>  (30) 
C[C@@H]1C(=O)N(CCc2ccccc2)C(=O)C1=CN(C)C (chirality)
C[C@@H]1C(=O)N(CCc2ccccc2)C(=O)C1=CN(C)C (3D coordinates assigned)
C[C@@H]1C(=O)N(CCc2ccccc2)C(=O)C1=CN(C)C (nonaromatic ring conformer: 53.336047862265204 kcal/mol)

>  <smiles>  (30) 
CC1C(=O)N(CCc2ccccc2)C(=O)C1=CN(C)C

>  <score_type>  (30) 
oracle

>  <origin>  (30) 
adg

>  <m_score__min__energy>  (30) 
-7.3300000000000001

>  <m_primary>  (30) 
energy

$$$$
30:0
     RDKit          3D

 33 34  0  0  0  0  0  0  0  0999 V2000
   -2.5970   18.2831  -34.2347 H   0  0  0  0  0  0  0  0  0  0  0  0
   -3.6430   18.6170  -34.1690 C   0  0  0  0  0  0  0  0  0  0  0  0
   -3.8800   19.6019  -33.7404 H   0  0  0  0  0  0  0  0  0  0  0  0
   -4.6260   17.8260  -34.6100 C   0  0  0  0  0  0  0  0  0  0  0  0
   -4.3722   16.8441  -35.0359 H   0  0  0  0  0  0  0  0  0  0  0  0
   -6.0670   18.2410  -34.5400 C   0  0  0  0  0  0  0  0  0  0  0  0
   -6.1261   19.3380  -34.4848 H   0  0  0  0  0  0  0  0  0  0  0  0
   -6.5869   17.8797  -35.4395 H   0  0  0  0  0  0  0  0  0  0  0  0
   -6.8640   17.5210  -33.0660 S   0  0  0  0  0  0  0  0  0  0  0  0
   -7.7760   19.0110  -32.6530 C   0  0  0  0  0  0  0  0  0  0  0  0
   -9.1180   19.1000  -32.7240 N   0  0  0  0  0  0  0  0  0  0  0  0
   -9.4400   20.3400  -32.3840 N   0  0  0  0  0  0  0  0  0  0  0  0
   -8.2890   20.9890  -32.1110 C   0  0  0  0  0  0  0  0  0  0  0  0
   -8.2140   22.4130  -31.7270 C   0  0  0  0  0  0  0  0  0  0  0  0
   -8.5408   23.1785  -32.4462 H   0  0  0  0  0  0  0  0  0  0  0  0
   -7.7590   22.7990  -30.5270 C   0  0  0  0  0  0  0  0  0  0  0  0
   -8.4110   22.6515  -29.6534 H   0  0  0  0  0  0  0  0  0  0  0  0
   -6.4260   23.4140  -30.3090 C   0  0  0  0  0  0  0  0  0  0  0  0
   -6.2250   24.7430  -30.7200 C   0  0  0  0  0  0  0  0  0  0  0  0
   -7.0471   25.2965  -31.1974 H   0  0  0  0  0  0  0  0  0  0  0  0
   -4.9880   25.3680  -30.5270 C   0  0  0  0  0  0  0  0  0  0  0  0
   -4.8385   26.4054  -30.8608 H   0  0  0  0  0  0  0  0  0  0  0  0
   -3.9430   24.6760  -29.9110 C   0  0  0  0  0  0  0  0  0  0  0  0
   -2.7150   25.2980  -29.7210 O   0  0  0  0  0  0  0  0  0  0  0  0
   -4.1330   23.3600  -29.4840 C   0  0  0  0  0  0  0  0  0  0  0  0
   -3.3102   22.8173  -28.9957 H   0  0  0  0  0  0  0  0  0  0  0  0
   -5.3680   22.7300  -29.6760 C   0  0  0  0  0  0  0  0  0  0  0  0
   -5.5140   21.6957  -29.3312 H   0  0  0  0  0  0  0  0  0  0  0  0
   -7.2230   20.1750  -32.2570 N   0  0  0  0  0  0  0  0  0  0  0  0
   -5.8060   20.5100  -32.1270 C   0  0  0  0  0  0  0  0  0  0  0  0
   -5.5403   20.5728  -31.0614 H   0  0  0  0  0  0  0  0  0  0  0  0
   -5.1991   19.7306  -32.6109 H   0  0  0  0  0  0  0  0  0  0  0  0
   -5.6123   21.4787  -32.6109 H   0  0  0  0  0  0  0  0  0  0  0  0
  1  2  1  0
  2  3  1  0
  2  4  2  0
  4  5  1  0
  4  6  1  0
  6  7  1  0
  6  8  1  0
  6  9  1  0
  9 10  1  0
 10 11  2  0
 11 12  1  0
 12 13  2  0
 13 14  1  0
 14 15  1  0
 14 16  2  0
 16 17  1  0
 16 18  1  0
 18 19  2  0
 19 20  1  0
 19 21  1  0
 21 22  1  0
 21 23  2  0
 23 24  1  0
 23 25  1  0
 25 26  1  0
 25 27  2  0
 27 28  1  0
 13 29  1  0
 29 30  1  0
 30 31  1  0
 30 32  1  0
 30 33  1  0
 29 10  1  0
 27 18  1  0
M  CHG  1  24  -1
M  END
>  <UniqueID>  (31) 
30

>  <SMILES>  (31) 
C=CCSc1nnc(/C=C/c2ccc([O-])cc2)n1C

>  <Energy>  (31) 
63.39963300379724

>  <Genealogy>  (31) 
C=CCSc1nnc(C=Cc2ccc([O-])cc2)n1C (protonated)
C=CCSc1nnc(/C=C/c2ccc([O-])cc2)n1C (cis-trans isomerization)
C=CCSc1nnc(/C=C/c2ccc([O-])cc2)n1C (3D coordinates assigned)
C=CCSc1nnc(/C=C/c2ccc([O-])cc2)n1C (optimized conformer: 63.39963300379724 kcal/mol)

>  <smiles>  (31) 
C=CCSc1nnc(C=Cc2ccc(O)cc2)n1C

>  <score_type>  (31) 
oracle

>  <origin>  (31) 
adg

>  <m_score__min__energy>  (31) 
-10.67

>  <m_primary>  (31) 
energy

$$$$
31:0
     RDKit          3D

 49 52  0  0  0  0  0  0  0  0999 V2000
   -9.3762   23.1589  -31.5186 H   0  0  0  0  0  0  0  0  0  0  0  0
   -8.8110   22.2610  -31.8090 C   0  0  0  0  0  0  0  0  0  0  0  0
   -9.4530   21.0250  -31.8750 C   0  0  0  0  0  0  0  0  0  0  0  0
  -10.5208   20.9464  -31.6227 H   0  0  0  0  0  0  0  0  0  0  0  0
   -8.7420   19.8870  -32.2610 C   0  0  0  0  0  0  0  0  0  0  0  0
   -9.2563   18.9164  -32.3196 H   0  0  0  0  0  0  0  0  0  0  0  0
   -7.3760   19.9710  -32.5750 C   0  0  0  0  0  0  0  0  0  0  0  0
   -6.6860   18.8020  -33.0520 N   0  0  0  0  0  0  0  0  0  0  0  0
   -6.5870   17.6290  -32.1750 C   0  0  0  0  0  0  0  0  0  0  0  0
   -6.0307   17.9022  -31.2662 H   0  0  0  0  0  0  0  0  0  0  0  0
   -7.6014   17.2944  -31.9121 H   0  0  0  0  0  0  0  0  0  0  0  0
   -5.8590   16.4890  -32.8870 C   0  0  0  0  0  0  0  0  0  0  0  0
   -4.7731   16.6565  -32.8352 H   0  0  0  0  0  0  0  0  0  0  0  0
   -6.1023   15.5332  -32.3999 H   0  0  0  0  0  0  0  0  0  0  0  0
   -6.2670   16.4510  -34.2370 O   0  0  0  0  0  0  0  0  0  0  0  0
   -5.6790   17.5250  -34.9480 C   0  0  0  0  0  0  0  0  0  0  0  0
   -4.6031   17.3226  -35.0551 H   0  0  0  0  0  0  0  0  0  0  0  0
   -6.1935   17.5876  -35.9182 H   0  0  0  0  0  0  0  0  0  0  0  0
   -5.8510   18.8990  -34.2560 C   0  0  0  0  0  0  0  0  0  0  0  0
   -4.8595   19.2813  -33.9719 H   0  0  0  0  0  0  0  0  0  0  0  0
   -6.3486   19.5785  -34.9636 H   0  0  0  0  0  0  0  0  0  0  0  0
   -6.7180   21.2210  -32.4700 C   0  0  0  0  0  0  0  0  0  0  0  0
   -5.3160   21.3700  -32.7240 N   0  0  0  0  0  0  0  0  0  0  0  0
   -4.2820   21.0160  -31.8010 C   0  0  0  0  0  0  0  0  0  0  0  0
   -4.1630   19.8280  -31.3990 O   0  0  0  0  0  0  0  0  0  0  0  0
   -3.3690   22.0230  -31.3550 N   0  0  0  0  0  0  0  0  0  0  0  0
   -3.6590   23.1860  -30.8390 C   0  0  0  0  0  0  0  0  0  0  0  0
   -4.8310   23.8590  -31.1070 C   0  0  0  0  0  0  0  0  0  0  0  0
   -5.6837   23.5223  -31.7149 H   0  0  0  0  0  0  0  0  0  0  0  0
   -4.6840   25.0560  -30.4330 C   0  0  0  0  0  0  0  0  0  0  0  0
   -5.6460   26.1960  -30.4650 C   0  0  0  0  0  0  0  0  0  0  0  0
   -5.8968   26.4932  -29.4360 H   0  0  0  0  0  0  0  0  0  0  0  0
   -5.1888   27.0469  -30.9913 H   0  0  0  0  0  0  0  0  0  0  0  0
   -6.5617   25.8884  -30.9913 H   0  0  0  0  0  0  0  0  0  0  0  0
   -3.5030   25.0860  -29.7860 N   0  0  0  0  0  0  0  0  0  0  0  0
   -2.8800   23.9410  -30.0200 N   0  0  0  0  0  0  0  0  0  0  0  0
   -1.6930   23.5720  -29.3020 C   0  0  0  0  0  0  0  0  0  0  0  0
   -0.8570   24.5670  -28.7750 C   0  0  0  0  0  0  0  0  0  0  0  0
   -1.1117   25.6279  -28.9152 H   0  0  0  0  0  0  0  0  0  0  0  0
    0.2990   24.2150  -28.0720 C   0  0  0  0  0  0  0  0  0  0  0  0
    0.9579   24.9992  -27.6708 H   0  0  0  0  0  0  0  0  0  0  0  0
    0.6190   22.8680  -27.8780 C   0  0  0  0  0  0  0  0  0  0  0  0
    1.5351   22.5932  -27.3346 H   0  0  0  0  0  0  0  0  0  0  0  0
   -0.2260   21.8690  -28.3750 C   0  0  0  0  0  0  0  0  0  0  0  0
    0.1750   20.1790  -28.1340 Cl  0  0  0  0  0  0  0  0  0  0  0  0
   -1.3870   22.2200  -29.0710 C   0  0  0  0  0  0  0  0  0  0  0  0
   -2.0635   21.4346  -29.4392 H   0  0  0  0  0  0  0  0  0  0  0  0
   -7.4520   22.3600  -32.1110 C   0  0  0  0  0  0  0  0  0  0  0  0
   -6.9531   23.3393  -32.0670 H   0  0  0  0  0  0  0  0  0  0  0  0
  1  2  1  0
  2  3  2  0
  3  4  1  0
  3  5  1  0
  5  6  1  0
  5  7  2  0
  7  8  1  0
  8  9  1  0
  9 10  1  0
  9 11  1  0
  9 12  1  0
 12 13  1  0
 12 14  1  0
 12 15  1  0
 15 16  1  0
 16 17  1  0
 16 18  1  0
 16 19  1  0
 19 20  1  0
 19 21  1  0
  7 22  1  0
 22 23  1  0
 23 24  1  0
 24 25  2  0
 24 26  1  0
 26 27  2  0
 27 28  1  0
 28 29  1  0
 28 30  2  0
 30 31  1  0
 31 32  1  0
 31 33  1  0
 31 34  1  0
 30 35  1  0
 35 36  1  0
 36 37  1  0
 37 38  2  0
 38 39  1  0
 38 40  1  0
 40 41  1  0
 40 42  2  0
 42 43  1  0
 42 44  1  0
 44 45  1  0
 44 46  2  0
 46 47  1  0
 22 48  2  0
 48 49  1  0
 48  2  1  0
 19  8  1  0
 36 27  1  0
 46 37  1  0
M  CHG  2  23  -1  35  -1
M  END
>  <UniqueID>  (32) 
31

>  <SMILES>  (32) 
Cc1c/c(=N/C(=O)[N-]c2ccccc2N2CCOCC2)n(-c2cccc(Cl)c2)[n-]1

>  <Energy>  (32) 
112.48702264165732

>  <Genealogy>  (32) 
Cc1cc(=NC(=O)[N-]c2ccccc2N2CCOCC2)n(-c2cccc(Cl)c2)[n-]1 (protonated)
Cc1c/c(=N/C(=O)[N-]c2ccccc2N2CCOCC2)n(-c2cccc(Cl)c2)[n-]1 (cis-trans isomerization)
Cc1c/c(=N/C(=O)[N-]c2ccccc2N2CCOCC2)n(-c2cccc(Cl)c2)[n-]1 (3D coordinates assigned)
Cc1c/c(=N/C(=O)[N-]c2ccccc2N2CCOCC2)n(-c2cccc(Cl)c2)[n-]1 (nonaromatic ring conformer: 112.48702264165732 kcal/mol)

>  <smiles>  (32) 
Cc1cc(=NC(=O)Nc2ccccc2N2CCOCC2)n(-c2cccc(Cl)c2)[nH]1

>  <score_type>  (32) 
oracle

>  <origin>  (32) 
adg

>  <m_score__min__energy>  (32) 
-10.460000000000001

>  <m_primary>  (32) 
energy

$$$$
32:0
     RDKit          3D

 41 44  0  0  0  0  0  0  0  0999 V2000
   -4.7830   26.1110  -29.7020 H   0  0  0  0  0  0  0  0  0  0  0  0
   -4.2510   25.6730  -30.4880 N   0  0  0  0  0  0  0  0  0  0  0  0
   -3.9680   24.4100  -30.4890 C   0  0  0  0  0  0  0  0  0  0  0  0
   -4.7440   23.5190  -31.1690 N   0  0  0  0  0  0  0  0  0  0  0  0
   -4.4380   22.1820  -31.1650 C   0  0  0  0  0  0  0  0  0  0  0  0
   -5.2620   21.2540  -31.8850 N   0  0  0  0  0  0  0  0  0  0  0  0
   -4.8860   20.6630  -33.1540 C   0  0  0  0  0  0  0  0  0  0  0  0
   -4.6037   21.4443  -33.8750 H   0  0  0  0  0  0  0  0  0  0  0  0
   -4.0181   19.9944  -33.0555 H   0  0  0  0  0  0  0  0  0  0  0  0
   -6.1260   19.9200  -33.6300 C   0  0  0  0  0  0  0  0  0  0  0  0
   -6.6814   20.5287  -34.3587 H   0  0  0  0  0  0  0  0  0  0  0  0
   -5.8656   18.9752  -34.1295 H   0  0  0  0  0  0  0  0  0  0  0  0
   -6.9780   19.6800  -32.3720 C   0  0  2  0  0  0  0  0  0  0  0  0
   -6.7975   18.6893  -31.9293 H   0  0  0  0  0  0  0  0  0  0  0  0
   -8.4370   19.6720  -32.6610 N   0  0  0  0  0  0  0  0  0  0  0  0
   -9.1060   18.5610  -31.9560 C   0  0  0  0  0  0  0  0  0  0  0  0
   -9.0167   18.7094  -30.8697 H   0  0  0  0  0  0  0  0  0  0  0  0
  -10.1694   18.5362  -32.2365 H   0  0  0  0  0  0  0  0  0  0  0  0
   -8.6305   17.6095  -32.2365 H   0  0  0  0  0  0  0  0  0  0  0  0
   -9.0600   20.9390  -32.2300 C   0  0  0  0  0  0  0  0  0  0  0  0
   -9.0811   20.9820  -31.1310 H   0  0  0  0  0  0  0  0  0  0  0  0
   -8.4756   21.7859  -32.6189 H   0  0  0  0  0  0  0  0  0  0  0  0
  -10.0875   20.9933  -32.6189 H   0  0  0  0  0  0  0  0  0  0  0  0
   -6.5730   20.8260  -31.4330 C   0  0  0  0  0  0  0  0  0  0  0  0
   -7.2934   21.6542  -31.5045 H   0  0  0  0  0  0  0  0  0  0  0  0
   -6.5568   20.5047  -30.3811 H   0  0  0  0  0  0  0  0  0  0  0  0
   -3.3460   21.7320  -30.4740 N   0  0  0  0  0  0  0  0  0  0  0  0
   -2.5950   22.6400  -29.8090 C   0  0  0  0  0  0  0  0  0  0  0  0
   -2.8960   23.9350  -29.8160 N   0  0  0  0  0  0  0  0  0  0  0  0
   -2.0070   24.5920  -29.0930 N   0  0  0  0  0  0  0  0  0  0  0  0
   -1.1550   23.6320  -28.6500 C   0  0  0  0  0  0  0  0  0  0  0  0
    0.0040   23.9190  -27.7970 C   0  0  0  0  0  0  0  0  0  0  0  0
    1.0800   24.5460  -28.2160 O   0  0  0  0  0  0  0  0  0  0  0  0
    1.9240   24.6430  -27.2150 C   0  0  0  0  0  0  0  0  0  0  0  0
    2.9138   25.1202  -27.2655 H   0  0  0  0  0  0  0  0  0  0  0  0
    1.3820   24.0560  -26.0900 C   0  0  0  0  0  0  0  0  0  0  0  0
    1.8469   23.9787  -25.0961 H   0  0  0  0  0  0  0  0  0  0  0  0
    0.1410   23.5860  -26.4620 C   0  0  0  0  0  0  0  0  0  0  0  0
   -0.5874   23.0571  -25.8298 H   0  0  0  0  0  0  0  0  0  0  0  0
   -1.4970   22.3890  -29.0820 N   0  0  0  0  0  0  0  0  0  0  0  0
   -1.0330   21.4720  -28.9020 H   0  0  0  0  0  0  0  0  0  0  0  0
  1  2  1  0
  2  3  2  0
  3  4  1  0
  4  5  1  0
  5  6  1  0
  6  7  1  0
  7  8  1  0
  7  9  1  0
  7 10  1  0
 10 11  1  0
 10 12  1  0
 10 13  1  0
 13 14  1  1
 13 15  1  0
 15 16  1  0
 16 17  1  0
 16 18  1  0
 16 19  1  0
 15 20  1  0
 20 21  1  0
 20 22  1  0
 20 23  1  0
 13 24  1  0
 24 25  1  0
 24 26  1  0
  5 27  2  0
 27 28  1  0
 28 29  1  0
 29 30  1  0
 30 31  2  0
 31 32  1  0
 32 33  1  0
 33 34  1  0
 34 35  1  0
 34 36  2  0
 36 37  1  0
 36 38  1  0
 38 39  1  0
 31 40  1  0
 40 41  1  0
 29  3  1  0
 38 32  2  0
 24  6  1  0
 40 28  2  0
M  CHG  2   4  -1  40   1
M  END
>  <UniqueID>  (33) 
32

>  <SMILES>  (33) 
[H]/N=c1\[n-]c(N2CC[C@H](N(C)C)C2)nc2[nH+]c(-c3ccco3)nn12

>  <Energy>  (33) 
114.23682108705434

>  <Genealogy>  (33) 
CN(C)C1CCN(c2nc3[nH+]c(-c4ccco4)nn3c(=N)[n-]2)C1 (protonated)
CN(C)[C@H]1CCN(c2nc3[nH+]c(-c4ccco4)nn3c(=N)[n-]2)C1 (chirality)
[H]/N=c1\[n-]c(N2CC[C@H](N(C)C)C2)nc2[nH+]c(-c3ccco3)nn12 (cis-trans isomerization)
[H]/N=c1\[n-]c(N2CC[C@H](N(C)C)C2)nc2[nH+]c(-c3ccco3)nn12 (3D coordinates assigned)
[H]/N=c1\[n-]c(N2CC[C@H](N(C)C)C2)nc2[nH+]c(-c3ccco3)nn12 (nonaromatic ring conformer: 114.23682108705434 kcal/mol)

>  <smiles>  (33) 
CN(C)C1CCN(c2nc3nc(-c4ccco4)nn3c(=N)[nH]2)C1

>  <score_type>  (33) 
oracle

>  <origin>  (33) 
adg

>  <m_score__min__energy>  (33) 
-7.29

>  <m_primary>  (33) 
energy

$$$$
33:0
     RDKit          3D

 24 25  0  0  0  0  0  0  0  0999 V2000
   -2.6590   24.5500  -29.3750 C   0  0  0  0  0  0  0  0  0  0  0  0
   -3.5250   24.9020  -30.4470 O   0  0  0  0  0  0  0  0  0  0  0  0
   -4.6330   24.1290  -30.8120 C   0  0  0  0  0  0  0  0  0  0  0  0
   -4.4700   23.0090  -31.5720 N   0  0  0  0  0  0  0  0  0  0  0  0
   -5.5190   22.2310  -31.9470 C   0  0  0  0  0  0  0  0  0  0  0  0
   -5.3050   21.0900  -32.7290 C   0  0  0  0  0  0  0  0  0  0  0  0
   -6.3870   20.2930  -33.1130 C   0  0  0  0  0  0  0  0  0  0  0  0
   -7.6860   20.6320  -32.7200 C   0  0  0  0  0  0  0  0  0  0  0  0
   -7.9090   21.7720  -31.9390 C   0  0  0  0  0  0  0  0  0  0  0  0
   -6.8280   22.5770  -31.5490 C   0  0  0  0  0  0  0  0  0  0  0  0
   -7.0200   23.7230  -30.7680 C   0  0  0  0  0  0  0  0  0  0  0  0
   -5.9210   24.5090  -30.3930 C   0  0  0  0  0  0  0  0  0  0  0  0
   -6.1140   25.7410  -29.5550 C   0  0  0  0  0  0  0  0  0  0  0  0
   -3.1599   24.7536  -28.4170 H   0  0  0  0  0  0  0  0  0  0  0  0
   -2.4119   23.4801  -29.4395 H   0  0  0  0  0  0  0  0  0  0  0  0
   -1.7355   25.1441  -29.4395 H   0  0  0  0  0  0  0  0  0  0  0  0
   -4.2853   20.8206  -33.0413 H   0  0  0  0  0  0  0  0  0  0  0  0
   -6.2165   19.3960  -33.7264 H   0  0  0  0  0  0  0  0  0  0  0  0
   -8.5340   20.0014  -33.0254 H   0  0  0  0  0  0  0  0  0  0  0  0
   -8.9313   22.0367  -31.6311 H   0  0  0  0  0  0  0  0  0  0  0  0
   -8.0335   24.0070  -30.4484 H   0  0  0  0  0  0  0  0  0  0  0  0
   -6.0716   25.4702  -28.4897 H   0  0  0  0  0  0  0  0  0  0  0  0
   -5.3185   26.4664  -29.7809 H   0  0  0  0  0  0  0  0  0  0  0  0
   -7.0932   26.1884  -29.7809 H   0  0  0  0  0  0  0  0  0  0  0  0
  1  2  1  0
  2  3  1  0
  3  4  2  0
  4  5  1  0
  5  6  2  0
  6  7  1  0
  7  8  2  0
  8  9  1  0
  9 10  2  0
 10 11  1  0
 11 12  2  0
 12 13  1  0
 12  3  1  0
 10  5  1  0
  1 14  1  0
  1 15  1  0
  1 16  1  0
  6 17  1  0
  7 18  1  0
  8 19  1  0
  9 20  1  0
 11 21  1  0
 13 22  1  0
 13 23  1  0
 13 24  1  0
M  END
>  <UniqueID>  (34) 
33

>  <SMILES>  (34) 
COc1nc2ccccc2cc1C

>  <Energy>  (34) 
24.987151538056835

>  <Genealogy>  (34) 
COc1nc2ccccc2cc1C (3D coordinates assigned)
COc1nc2ccccc2cc1C (optimized conformer: 24.987151538056835 kcal/mol)

>  <smiles>  (34) 
COc1nc2ccccc2cc1C

>  <score_type>  (34) 
oracle

>  <origin>  (34) 
adg

>  <m_score__min__energy>  (34) 
-6.5099999999999998

>  <m_primary>  (34) 
energy

$$$$
34:0
     RDKit          3D

 40 40  0  0  0  0  0  0  0  0999 V2000
   -7.4170   20.1810  -32.6270 C   0  0  0  0  0  0  0  0  0  0  0  0
   -6.1410   20.3830  -33.4350 C   0  0  0  0  0  0  0  0  0  0  0  0
   -5.1340   21.1630  -32.6480 C   0  0  0  0  0  0  0  0  0  0  0  0
   -4.7740   20.9410  -31.3340 C   0  0  0  0  0  0  0  0  0  0  0  0
   -3.8840   21.9650  -31.0630 C   0  0  0  0  0  0  0  0  0  0  0  0
   -3.1660   22.1950  -29.7680 C   0  0  0  0  0  0  0  0  0  0  0  0
   -3.5530   23.4870  -29.1810 N   0  0  0  0  0  0  0  0  0  0  0  0
   -3.2430   23.7700  -27.7720 C   0  0  0  0  0  0  0  0  0  0  0  0
   -2.3380   24.9980  -27.6390 C   0  0  0  0  0  0  0  0  0  0  0  0
   -1.6680   25.2260  -28.8610 O   0  0  0  0  0  0  0  0  0  0  0  0
   -0.5800   24.3390  -28.9720 C   0  0  0  0  0  0  0  0  0  0  0  0
   -4.3970   24.3960  -29.9170 C   0  0  0  0  0  0  0  0  0  0  0  0
   -3.8760   25.2150  -30.7240 O   0  0  0  0  0  0  0  0  0  0  0  0
   -5.8230   24.3930  -29.7400 N   0  0  0  0  0  0  0  0  0  0  0  0
   -6.5480   25.6640  -29.7250 C   0  0  0  0  0  0  0  0  0  0  0  0
   -6.5740   23.1370  -29.7160 C   0  0  0  0  0  0  0  0  0  0  0  0
   -3.7470   22.7100  -32.1370 O   0  0  0  0  0  0  0  0  0  0  0  0
   -4.4930   22.2570  -33.1000 N   0  0  0  0  0  0  0  0  0  0  0  0
   -7.1809   20.2184  -31.5533 H   0  0  0  0  0  0  0  0  0  0  0  0
   -8.1361   20.9765  -32.8722 H   0  0  0  0  0  0  0  0  0  0  0  0
   -7.8552   19.2023  -32.8722 H   0  0  0  0  0  0  0  0  0  0  0  0
   -5.7168   19.4010  -33.6915 H   0  0  0  0  0  0  0  0  0  0  0  0
   -6.3864   20.9434  -34.3492 H   0  0  0  0  0  0  0  0  0  0  0  0
   -5.1142   20.1397  -30.6616 H   0  0  0  0  0  0  0  0  0  0  0  0
   -3.4215   21.3882  -29.0653 H   0  0  0  0  0  0  0  0  0  0  0  0
   -2.0831   22.2046  -29.9610 H   0  0  0  0  0  0  0  0  0  0  0  0
   -4.1813   23.9554  -27.2286 H   0  0  0  0  0  0  0  0  0  0  0  0
   -2.7153   22.9017  -27.3507 H   0  0  0  0  0  0  0  0  0  0  0  0
   -2.9486   25.8774  -27.3864 H   0  0  0  0  0  0  0  0  0  0  0  0
   -1.5986   24.8230  -26.8436 H   0  0  0  0  0  0  0  0  0  0  0  0
   -0.2333   24.0564  -27.9670 H   0  0  0  0  0  0  0  0  0  0  0  0
   -0.8959   23.4377  -29.5178 H   0  0  0  0  0  0  0  0  0  0  0  0
    0.2391   24.8300  -29.5178 H   0  0  0  0  0  0  0  0  0  0  0  0
   -6.7244   25.9732  -28.6842 H   0  0  0  0  0  0  0  0  0  0  0  0
   -5.9522   26.4321  -30.2398 H   0  0  0  0  0  0  0  0  0  0  0  0
   -7.5124   25.5421  -30.2398 H   0  0  0  0  0  0  0  0  0  0  0  0
   -6.7534   22.8369  -28.6730 H   0  0  0  0  0  0  0  0  0  0  0  0
   -7.5374   23.2760  -30.2285 H   0  0  0  0  0  0  0  0  0  0  0  0
   -5.9957   22.3541  -30.2285 H   0  0  0  0  0  0  0  0  0  0  0  0
   -4.5720   22.6860  -34.0480 H   0  0  0  0  0  0  0  0  0  0  0  0
  1  2  1  0
  2  3  1  0
  3  4  1  0
  4  5  2  0
  5  6  1  0
  6  7  1  0
  7  8  1  0
  8  9  1  0
  9 10  1  0
 10 11  1  0
  7 12  1  0
 12 13  2  0
 12 14  1  0
 14 15  1  0
 14 16  1  0
  5 17  1  0
 17 18  1  0
 18  3  2  0
  1 19  1  0
  1 20  1  0
  1 21  1  0
  2 22  1  0
  2 23  1  0
  4 24  1  0
  6 25  1  0
  6 26  1  0
  8 27  1  0
  8 28  1  0
  9 29  1  0
  9 30  1  0
 11 31  1  0
 11 32  1  0
 11 33  1  0
 15 34  1  0
 15 35  1  0
 15 36  1  0
 16 37  1  0
 16 38  1  0
 16 39  1  0
 18 40  1  0
M  CHG  1  18   1
M  END
>  <UniqueID>  (35) 
34

>  <SMILES>  (35) 
CCc1cc(CN(CCOC)C(=O)N(C)C)o[nH+]1

>  <Energy>  (35) 
60.90866905021416

>  <Genealogy>  (35) 
CCc1cc(CN(CCOC)C(=O)N(C)C)o[nH+]1 (protonated)
CCc1cc(CN(CCOC)C(=O)N(C)C)o[nH+]1 (3D coordinates assigned)
CCc1cc(CN(CCOC)C(=O)N(C)C)o[nH+]1 (optimized conformer: 60.90866905021416 kcal/mol)

>  <smiles>  (35) 
CCc1cc(CN(CCOC)C(=O)N(C)C)on1

>  <score_type>  (35) 
oracle

>  <origin>  (35) 
adg

>  <m_score__min__energy>  (35) 
-6.0499999999999998

>  <m_primary>  (35) 
energy

$$$$
35:0
     RDKit          3D

 46 48  0  0  0  0  0  0  0  0999 V2000
   -5.6430   25.8310  -30.1520 O   0  0  0  0  0  0  0  0  0  0  0  0
   -4.9030   24.8360  -30.3800 C   0  0  0  0  0  0  0  0  0  0  0  0
   -5.5160   23.4770  -30.5240 C   0  0  0  0  0  0  0  0  0  0  0  0
   -5.3170   22.9410  -31.8840 N   0  0  0  0  0  0  0  0  0  0  0  0
   -6.5410   22.8500  -32.7160 C   0  0  0  0  0  0  0  0  0  0  0  0
   -7.6510   22.0390  -32.1050 C   0  0  0  0  0  0  0  0  0  0  0  0
   -8.3120   22.3300  -30.9260 C   0  0  0  0  0  0  0  0  0  0  0  0
   -9.2420   21.3270  -30.7640 C   0  0  0  0  0  0  0  0  0  0  0  0
   -9.0980   20.4920  -31.8540 C   0  0  0  0  0  0  0  0  0  0  0  0
   -8.1460   20.9460  -32.6350 O   0  0  0  0  0  0  0  0  0  0  0  0
   -4.3940   21.4530  -31.8600 S   0  0  0  0  0  0  0  0  0  0  0  0
   -3.9760   21.1560  -30.4470 O   0  0  0  0  0  0  0  0  0  0  0  0
   -3.1450   21.6360  -32.6780 O   0  0  0  0  0  0  0  0  0  0  0  0
   -5.3000   20.0660  -32.4730 C   0  0  0  0  0  0  0  0  0  0  0  0
   -5.9070   19.1720  -31.5780 C   0  0  0  0  0  0  0  0  0  0  0  0
   -6.6210   18.0710  -32.0600 C   0  0  0  0  0  0  0  0  0  0  0  0
   -6.7190   17.8470  -33.4350 C   0  0  0  0  0  0  0  0  0  0  0  0
   -6.0950   18.7190  -34.3310 C   0  0  0  0  0  0  0  0  0  0  0  0
   -5.3800   19.8210  -33.8530 C   0  0  0  0  0  0  0  0  0  0  0  0
   -3.4840   24.9950  -30.4660 N   0  0  0  0  0  0  0  0  0  0  0  0
   -2.5950   24.8580  -29.3190 C   0  0  0  0  0  0  0  0  0  0  0  0
   -2.3310   23.4020  -29.0500 C   0  0  0  0  0  0  0  0  0  0  0  0
   -1.3490   22.7180  -29.7860 C   0  0  0  0  0  0  0  0  0  0  0  0
   -1.0520   21.3840  -29.4950 C   0  0  0  0  0  0  0  0  0  0  0  0
   -1.7290   20.7240  -28.4660 C   0  0  0  0  0  0  0  0  0  0  0  0
   -2.7020   21.3980  -27.7250 C   0  0  0  0  0  0  0  0  0  0  0  0
   -3.0030   22.7340  -28.0120 C   0  0  0  0  0  0  0  0  0  0  0  0
   -5.0496   22.7947  -29.7981 H   0  0  0  0  0  0  0  0  0  0  0  0
   -6.5970   23.5621  -30.3389 H   0  0  0  0  0  0  0  0  0  0  0  0
   -6.9155   23.8697  -32.8891 H   0  0  0  0  0  0  0  0  0  0  0  0
   -6.2513   22.3352  -33.6439 H   0  0  0  0  0  0  0  0  0  0  0  0
   -8.1326   23.1844  -30.2569 H   0  0  0  0  0  0  0  0  0  0  0  0
   -9.9551   21.2141  -29.9341 H   0  0  0  0  0  0  0  0  0  0  0  0
   -9.6910   19.5843  -32.0396 H   0  0  0  0  0  0  0  0  0  0  0  0
   -5.8208   19.3379  -30.4940 H   0  0  0  0  0  0  0  0  0  0  0  0
   -7.1064   17.3800  -31.3551 H   0  0  0  0  0  0  0  0  0  0  0  0
   -7.2873   16.9842  -33.8126 H   0  0  0  0  0  0  0  0  0  0  0  0
   -6.1665   18.5381  -35.4137 H   0  0  0  0  0  0  0  0  0  0  0  0
   -4.8786   20.4981  -34.5602 H   0  0  0  0  0  0  0  0  0  0  0  0
   -1.6440   25.3685  -29.5311 H   0  0  0  0  0  0  0  0  0  0  0  0
   -3.0695   25.3103  -28.4357 H   0  0  0  0  0  0  0  0  0  0  0  0
   -0.8117   23.2348  -30.5948 H   0  0  0  0  0  0  0  0  0  0  0  0
   -0.2843   20.8527  -30.0767 H   0  0  0  0  0  0  0  0  0  0  0  0
   -1.4954   19.6732  -28.2396 H   0  0  0  0  0  0  0  0  0  0  0  0
   -3.2328   20.8776  -26.9142 H   0  0  0  0  0  0  0  0  0  0  0  0
   -3.7675   23.2628  -27.4238 H   0  0  0  0  0  0  0  0  0  0  0  0
  1  2  2  0
  2  3  1  0
  3  4  1  0
  4  5  1  0
  5  6  1  0
  6  7  2  0
  7  8  1  0
  8  9  2  0
  9 10  1  0
  4 11  1  0
 11 12  2  0
 11 13  2  0
 11 14  1  0
 14 15  2  0
 15 16  1  0
 16 17  2  0
 17 18  1  0
 18 19  2  0
  2 20  1  0
 20 21  1  0
 21 22  1  0
 22 23  2  0
 23 24  1  0
 24 25  2  0
 25 26  1  0
 26 27  2  0
 10  6  1  0
 19 14  1  0
 27 22  1  0
  3 28  1  0
  3 29  1  0
  5 30  1  0
  5 31  1  0
  7 32  1  0
  8 33  1  0
  9 34  1  0
 15 35  1  0
 16 36  1  0
 17 37  1  0
 18 38  1  0
 19 39  1  0
 21 40  1  0
 21 41  1  0
 23 42  1  0
 24 43  1  0
 25 44  1  0
 26 45  1  0
 27 46  1  0
M  CHG  1  20  -1
M  END
>  <UniqueID>  (36) 
35

>  <SMILES>  (36) 
O=C(CN(Cc1ccco1)S(=O)(=O)c1ccccc1)[N-]Cc1ccccc1

>  <Energy>  (36) 
71.63927537894219

>  <Genealogy>  (36) 
O=C(CN(Cc1ccco1)S(=O)(=O)c1ccccc1)[N-]Cc1ccccc1 (protonated)
O=C(CN(Cc1ccco1)S(=O)(=O)c1ccccc1)[N-]Cc1ccccc1 (3D coordinates assigned)
O=C(CN(Cc1ccco1)S(=O)(=O)c1ccccc1)[N-]Cc1ccccc1 (optimized conformer: 71.63927537894219 kcal/mol)

>  <smiles>  (36) 
O=C(CN(Cc1ccco1)S(=O)(=O)c1ccccc1)NCc1ccccc1

>  <score_type>  (36) 
oracle

>  <origin>  (36) 
adg

>  <m_score__min__energy>  (36) 
-10.640000000000001

>  <m_primary>  (36) 
energy

$$$$
36:0
     RDKit          3D

 38 39  0  0  0  0  0  0  0  0999 V2000
   -8.7560   18.3710  -31.9540 C   0  0  0  0  0  0  0  0  0  0  0  0
   -8.9710   19.5970  -31.4700 C   0  0  0  0  0  0  0  0  0  0  0  0
   -8.8940   20.8170  -32.3450 C   0  0  0  0  0  0  0  0  0  0  0  0
   -7.5840   21.4580  -32.2140 N   0  0  0  0  0  0  0  0  0  0  0  0
   -7.3650   22.6970  -31.7130 C   0  0  0  0  0  0  0  0  0  0  0  0
   -6.0120   23.0120  -31.7780 C   0  0  0  0  0  0  0  0  0  0  0  0
   -5.3690   24.2700  -31.2700 C   0  0  0  0  0  0  0  0  0  0  0  0
   -6.2700   25.0110  -30.2710 C   0  0  0  0  0  0  0  0  0  0  0  0
   -5.6970   25.0080  -28.9130 N   0  0  0  0  0  0  0  0  0  0  0  0
   -4.4880   24.1680  -28.8220 C   0  0  0  0  0  0  0  0  0  0  0  0
   -3.8770   24.1740  -27.4180 C   0  0  0  0  0  0  0  0  0  0  0  0
   -5.3950   21.9090  -32.3380 C   0  0  0  0  0  0  0  0  0  0  0  0
   -4.0530   21.6580  -32.6240 C   0  0  0  0  0  0  0  0  0  0  0  0
   -3.7240   20.4200  -33.2050 C   0  0  0  0  0  0  0  0  0  0  0  0
   -4.7310   19.4710  -33.4790 C   0  0  0  0  0  0  0  0  0  0  0  0
   -6.0750   19.7470  -33.1760 C   0  0  0  0  0  0  0  0  0  0  0  0
   -6.3780   20.9850  -32.5980 C   0  0  0  0  0  0  0  0  0  0  0  0
   -8.8196   17.4978  -31.2880 H   0  0  0  0  0  0  0  0  0  0  0  0
   -8.5153   18.2344  -33.0186 H   0  0  0  0  0  0  0  0  0  0  0  0
   -9.2107   19.7173  -30.4032 H   0  0  0  0  0  0  0  0  0  0  0  0
   -9.0496   20.5216  -33.3931 H   0  0  0  0  0  0  0  0  0  0  0  0
   -9.6722   21.5291  -32.0331 H   0  0  0  0  0  0  0  0  0  0  0  0
   -8.1459   23.3597  -31.3118 H   0  0  0  0  0  0  0  0  0  0  0  0
   -4.4238   24.0098  -30.7711 H   0  0  0  0  0  0  0  0  0  0  0  0
   -5.1943   24.9344  -32.1291 H   0  0  0  0  0  0  0  0  0  0  0  0
   -6.3909   26.0522  -30.6045 H   0  0  0  0  0  0  0  0  0  0  0  0
   -7.2398   24.4932  -30.2348 H   0  0  0  0  0  0  0  0  0  0  0  0
   -6.4130   24.6830  -28.2200 H   0  0  0  0  0  0  0  0  0  0  0  0
   -5.4200   25.9840  -28.6620 H   0  0  0  0  0  0  0  0  0  0  0  0
   -4.7554   23.1343  -29.0864 H   0  0  0  0  0  0  0  0  0  0  0  0
   -3.7400   24.5808  -29.5149 H   0  0  0  0  0  0  0  0  0  0  0  0
   -4.6816   24.1661  -26.6679 H   0  0  0  0  0  0  0  0  0  0  0  0
   -3.2464   23.2820  -27.2887 H   0  0  0  0  0  0  0  0  0  0  0  0
   -3.2641   25.0782  -27.2887 H   0  0  0  0  0  0  0  0  0  0  0  0
   -3.2764   22.4048  -32.4021 H   0  0  0  0  0  0  0  0  0  0  0  0
   -2.6758   20.1906  -33.4470 H   0  0  0  0  0  0  0  0  0  0  0  0
   -4.4617   18.5063  -33.9339 H   0  0  0  0  0  0  0  0  0  0  0  0
   -6.8656   19.0118  -33.3869 H   0  0  0  0  0  0  0  0  0  0  0  0
  1  2  2  0
  2  3  1  0
  3  4  1  0
  4  5  1  0
  5  6  2  0
  6  7  1  0
  7  8  1  0
  8  9  1  0
  9 10  1  0
 10 11  1  0
  6 12  1  0
 12 13  2  0
 13 14  1  0
 14 15  2  0
 15 16  1  0
 16 17  2  0
 17  4  1  0
 17 12  1  0
  1 18  1  0
  1 19  1  0
  2 20  1  0
  3 21  1  0
  3 22  1  0
  5 23  1  0
  7 24  1  0
  7 25  1  0
  8 26  1  0
  8 27  1  0
  9 28  1  0
  9 29  1  0
 10 30  1  0
 10 31  1  0
 11 32  1  0
 11 33  1  0
 11 34  1  0
 13 35  1  0
 14 36  1  0
 15 37  1  0
 16 38  1  0
M  CHG  1   9   1
M  END
>  <UniqueID>  (37) 
36

>  <SMILES>  (37) 
C=CCn1cc(CC[NH2+]CC)c2ccccc21

>  <Energy>  (37) 
62.920941552037114

>  <Genealogy>  (37) 
C=CCn1cc(CC[NH2+]CC)c2ccccc21 (protonated)
C=CCn1cc(CC[NH2+]CC)c2ccccc21 (3D coordinates assigned)
C=CCn1cc(CC[NH2+]CC)c2ccccc21 (optimized conformer: 62.920941552037114 kcal/mol)

>  <smiles>  (37) 
C=CCn1cc(CCNCC)c2ccccc21

>  <score_type>  (37) 
oracle

>  <origin>  (37) 
adg

>  <m_score__min__energy>  (37) 
-6.3600000000000003

>  <m_primary>  (37) 
energy

$$$$
37:0
     RDKit          3D

 22 23  0  0  0  0  0  0  0  0999 V2000
   -2.3130   24.3310  -29.0860 C   0  0  0  0  0  0  0  0  0  0  0  0
   -3.1330   24.9190  -30.0910 O   0  0  0  0  0  0  0  0  0  0  0  0
   -4.4670   24.5570  -30.3490 C   0  0  0  0  0  0  0  0  0  0  0  0
   -5.5460   25.3010  -29.8320 C   0  0  0  0  0  0  0  0  0  0  0  0
   -6.8620   24.9240  -30.1000 C   0  0  0  0  0  0  0  0  0  0  0  0
   -7.1290   23.8030  -30.8860 C   0  0  0  0  0  0  0  0  0  0  0  0
   -6.0740   23.0450  -31.4130 C   0  0  0  0  0  0  0  0  0  0  0  0
   -6.3390   21.9180  -32.2040 C   0  0  0  0  0  0  0  0  0  0  0  0
   -5.2880   21.1630  -32.7290 C   0  0  0  0  0  0  0  0  0  0  0  0
   -3.9640   21.5270  -32.4690 C   0  0  0  0  0  0  0  0  0  0  0  0
   -2.5330   20.4890  -33.1920 Br  0  0  0  0  0  0  0  0  0  0  0  0
   -3.6840   22.6490  -31.6830 C   0  0  0  0  0  0  0  0  0  0  0  0
   -4.7320   23.4210  -31.1450 C   0  0  0  0  0  0  0  0  0  0  0  0
   -2.6966   24.6061  -28.0924 H   0  0  0  0  0  0  0  0  0  0  0  0
   -2.3279   23.2365  -29.1946 H   0  0  0  0  0  0  0  0  0  0  0  0
   -1.2811   24.6963  -29.1946 H   0  0  0  0  0  0  0  0  0  0  0  0
   -5.3488   26.1874  -29.2112 H   0  0  0  0  0  0  0  0  0  0  0  0
   -7.6943   25.5143  -29.6890 H   0  0  0  0  0  0  0  0  0  0  0  0
   -8.1698   23.5131  -31.0928 H   0  0  0  0  0  0  0  0  0  0  0  0
   -7.3793   21.6273  -32.4119 H   0  0  0  0  0  0  0  0  0  0  0  0
   -5.5028   20.2798  -33.3486 H   0  0  0  0  0  0  0  0  0  0  0  0
   -2.6394   22.9303  -31.4837 H   0  0  0  0  0  0  0  0  0  0  0  0
  1  2  1  0
  2  3  1  0
  3  4  2  0
  4  5  1  0
  5  6  2  0
  6  7  1  0
  7  8  2  0
  8  9  1  0
  9 10  2  0
 10 11  1  0
 10 12  1  0
 12 13  2  0
 13  3  1  0
 13  7  1  0
  1 14  1  0
  1 15  1  0
  1 16  1  0
  4 17  1  0
  5 18  1  0
  6 19  1  0
  8 20  1  0
  9 21  1  0
 12 22  1  0
M  END
>  <UniqueID>  (38) 
37

>  <SMILES>  (38) 
COc1cccc2ccc(Br)cc12

>  <Energy>  (38) 
25.761251182937748

>  <Genealogy>  (38) 
COc1cccc2ccc(Br)cc12 (3D coordinates assigned)
COc1cccc2ccc(Br)cc12 (optimized conformer: 25.761251182937748 kcal/mol)

>  <smiles>  (38) 
COc1cccc2ccc(Br)cc12

>  <score_type>  (38) 
oracle

>  <origin>  (38) 
adg

>  <m_score__min__energy>  (38) 
-6.3799999999999999

>  <m_primary>  (38) 
energy

$$$$
38:0
     RDKit          3D

 55 57  0  0  1  0  0  0  0  0999 V2000
   -6.8360   16.9710  -33.2530 C   0  0  0  0  0  0  0  0  0  0  0  0
   -7.0350   18.3660  -32.8460 C   0  0  0  0  0  0  0  0  0  0  0  0
   -8.1800   18.6900  -32.1400 C   0  0  0  0  0  0  0  0  0  0  0  0
   -8.3880   19.9960  -31.7470 C   0  0  0  0  0  0  0  0  0  0  0  0
   -7.5040   21.0170  -32.0230 C   0  0  0  0  0  0  0  0  0  0  0  0
   -7.7080   22.3650  -31.6290 N   0  0  0  0  0  0  0  0  0  0  0  0
   -8.9650   23.0470  -31.9670 C   0  0  0  0  0  0  0  0  0  0  0  0
   -6.7590   23.1270  -30.9000 C   0  0  0  0  0  0  0  0  0  0  0  0
   -6.5070   24.4130  -31.4020 C   0  0  0  0  0  0  0  0  0  0  0  0
   -5.5990   25.2470  -30.7790 C   0  0  0  0  0  0  0  0  0  0  0  0
   -4.9880   24.7540  -29.6820 N   0  0  0  0  0  0  0  0  0  0  0  0
   -5.2480   23.5100  -29.2150 C   0  0  0  0  0  0  0  0  0  0  0  0
   -4.6130   23.1420  -28.1700 N   0  0  0  0  0  0  0  0  0  0  0  0
   -3.1930   23.0500  -28.0920 C   0  0  0  0  0  0  0  0  0  0  0  0
   -2.6810   21.7770  -27.8820 C   0  0  0  0  0  0  0  0  0  0  0  0
   -1.3270   21.5250  -27.7830 C   0  0  0  0  0  0  0  0  0  0  0  0
   -0.4860   22.6270  -27.9050 C   0  0  0  0  0  0  0  0  0  0  0  0
    0.8680   22.4290  -27.8120 F   0  0  0  0  0  0  0  0  0  0  0  0
   -0.9990   23.9060  -28.1160 C   0  0  0  0  0  0  0  0  0  0  0  0
   -0.0700   24.9270  -28.2210 O   0  0  0  0  0  0  0  0  0  0  0  0
    0.5640   25.5290  -27.1170 C   0  0  0  0  0  0  0  0  0  0  0  0
   -0.4760   26.4160  -26.4640 C   0  0  0  0  0  0  0  0  0  0  0  0
   -1.0460   25.8610  -25.2770 N   0  0  0  0  0  0  0  0  0  0  0  0
   -1.2120   26.8060  -24.2130 C   0  0  0  0  0  0  0  0  0  0  0  0
   -0.4500   24.6270  -24.8680 C   0  0  0  0  0  0  0  0  0  0  0  0
   -2.3550   24.1380  -28.2120 C   0  0  0  0  0  0  0  0  0  0  0  0
   -6.1250   22.6780  -29.8030 N   0  0  0  0  0  0  0  0  0  0  0  0
   -6.3660   20.6880  -32.7270 C   0  0  0  0  0  0  0  0  0  0  0  0
   -6.1240   19.3850  -33.1370 C   0  0  0  0  0  0  0  0  0  0  0  0
   -6.7456   16.3374  -32.3584 H   0  0  0  0  0  0  0  0  0  0  0  0
   -7.6957   16.6379  -33.8529 H   0  0  0  0  0  0  0  0  0  0  0  0
   -5.9174   16.8915  -33.8529 H   0  0  0  0  0  0  0  0  0  0  0  0
   -8.9184   17.9126  -31.8941 H   0  0  0  0  0  0  0  0  0  0  0  0
   -9.3038   20.2341  -31.1861 H   0  0  0  0  0  0  0  0  0  0  0  0
   -9.4883   23.3309  -31.0421 H   0  0  0  0  0  0  0  0  0  0  0  0
   -8.7455   23.9497  -32.5560 H   0  0  0  0  0  0  0  0  0  0  0  0
   -9.6021   22.3709  -32.5560 H   0  0  0  0  0  0  0  0  0  0  0  0
   -7.0379   24.7604  -32.3006 H   0  0  0  0  0  0  0  0  0  0  0  0
   -5.3858   26.2579  -31.1568 H   0  0  0  0  0  0  0  0  0  0  0  0
   -4.3010   25.3910  -29.2160 H   0  0  0  0  0  0  0  0  0  0  0  0
   -3.3825   20.9346  -27.7907 H   0  0  0  0  0  0  0  0  0  0  0  0
   -0.9353   20.5106  -27.6171 H   0  0  0  0  0  0  0  0  0  0  0  0
    0.9083   24.7605  -26.4093 H   0  0  0  0  0  0  0  0  0  0  0  0
    1.4461   26.1079  -27.4281 H   0  0  0  0  0  0  0  0  0  0  0  0
   -0.0013   27.3740  -26.2053 H   0  0  0  0  0  0  0  0  0  0  0  0
   -1.2960   26.5335  -27.1878 H   0  0  0  0  0  0  0  0  0  0  0  0
   -1.1212   26.2893  -23.2462 H   0  0  0  0  0  0  0  0  0  0  0  0
   -0.4365   27.5825  -24.2880 H   0  0  0  0  0  0  0  0  0  0  0  0
   -2.2057   27.2717  -24.2880 H   0  0  0  0  0  0  0  0  0  0  0  0
   -0.4262   24.5777  -23.7694 H   0  0  0  0  0  0  0  0  0  0  0  0
   -1.0414   23.7865  -25.2600 H   0  0  0  0  0  0  0  0  0  0  0  0
    0.5761   24.5677  -25.2600 H   0  0  0  0  0  0  0  0  0  0  0  0
   -2.7519   25.1504  -28.3777 H   0  0  0  0  0  0  0  0  0  0  0  0
   -5.6352   21.4739  -32.9686 H   0  0  0  0  0  0  0  0  0  0  0  0
   -5.2062   19.1516  -33.6966 H   0  0  0  0  0  0  0  0  0  0  0  0
  1  2  1  0
  2  3  2  0
  3  4  1  0
  4  5  2  0
  5  6  1  0
  6  7  1  0
  6  8  1  0
  8  9  1  0
  9 10  2  0
 10 11  1  0
 11 12  1  0
 12 13  2  0
 13 14  1  0
 14 15  2  0
 15 16  1  0
 16 17  2  0
 17 18  1  0
 17 19  1  0
 19 20  1  0
 20 21  1  0
 21 22  1  0
 22 23  1  0
 23 24  1  0
 23 25  1  0
 19 26  2  0
 12 27  1  0
  5 28  1  0
 28 29  2  0
 29  2  1  0
 27  8  2  0
 26 14  1  0
  1 30  1  0
  1 31  1  0
  1 32  1  0
  3 33  1  0
  4 34  1  0
  7 35  1  0
  7 36  1  0
  7 37  1  0
  9 38  1  0
 10 39  1  0
 11 40  1  0
 15 41  1  0
 16 42  1  0
 21 43  1  0
 21 44  1  0
 22 45  1  0
 22 46  1  0
 24 47  1  0
 24 48  1  0
 24 49  1  0
 25 50  1  0
 25 51  1  0
 25 52  1  0
 26 53  1  0
 28 54  1  0
 29 55  1  0
M  END
>  <smiles>  (39) 
Cc1ccc(N(C)c2cc[nH]c(=Nc3ccc(F)c(OCCN(C)C)c3)n2)cc1

>  <score_type>  (39) 
oracle

>  <origin>  (39) 
adg

>  <m_score__min__energy>  (39) 
-8.6400000000000006

>  <m_primary>  (39) 
energy

$$$$
39:0
     RDKit          3D

 41 42  0  0  0  0  0  0  0  0999 V2000
   -9.4070   20.4830  -32.3270 C   0  0  0  0  0  0  0  0  0  0  0  0
   -8.8220   21.7580  -32.0800 O   0  0  0  0  0  0  0  0  0  0  0  0
   -7.4430   21.9950  -32.0000 C   0  0  0  0  0  0  0  0  0  0  0  0
   -6.5020   21.2200  -32.6990 C   0  0  0  0  0  0  0  0  0  0  0  0
   -5.1380   21.5010  -32.5930 C   0  0  0  0  0  0  0  0  0  0  0  0
   -4.6860   22.5580  -31.7810 C   0  0  0  0  0  0  0  0  0  0  0  0
   -3.3220   22.8730  -31.6670 O   0  0  0  0  0  0  0  0  0  0  0  0
   -2.2940   21.9250  -31.4010 C   0  0  0  0  0  0  0  0  0  0  0  0
   -5.6260   23.3250  -31.0660 C   0  0  0  0  0  0  0  0  0  0  0  0
   -5.1020   24.6610  -30.0360 S   0  0  0  0  0  0  0  0  0  0  0  0
   -3.8700   25.3040  -30.6130 O   0  0  0  0  0  0  0  0  0  0  0  0
   -6.2040   25.6790  -29.9620 O   0  0  0  0  0  0  0  0  0  0  0  0
   -4.7500   24.0880  -28.4320 N   0  0  0  0  0  0  0  0  0  0  0  0
   -3.3600   24.3990  -28.0760 C   0  0  0  0  0  0  0  0  0  0  0  0
   -2.5590   23.1130  -27.8400 C   0  0  0  0  0  0  0  0  0  0  0  0
   -3.4080   21.8330  -27.9110 C   0  0  0  0  0  0  0  0  0  0  0  0
   -2.6390   20.6450  -27.5380 N   0  0  0  0  0  0  0  0  0  0  0  0
   -3.1070   19.5400  -26.9360 C   0  0  0  0  0  0  0  0  0  0  0  0
   -2.0410   18.7000  -26.7060 C   0  0  0  0  0  0  0  0  0  0  0  0
   -0.9050   19.2810  -27.1440 N   0  0  0  0  0  0  0  0  0  0  0  0
   -1.3070   20.4690  -27.6400 C   0  0  0  0  0  0  0  0  0  0  0  0
   -6.9960   23.0450  -31.1920 C   0  0  0  0  0  0  0  0  0  0  0  0
   -9.6326   19.9913  -31.3692 H   0  0  0  0  0  0  0  0  0  0  0  0
  -10.3364   20.6111  -32.9013 H   0  0  0  0  0  0  0  0  0  0  0  0
   -8.7038   19.8620  -32.9013 H   0  0  0  0  0  0  0  0  0  0  0  0
   -6.8415   20.3876  -33.3330 H   0  0  0  0  0  0  0  0  0  0  0  0
   -4.4108   20.8910  -33.1489 H   0  0  0  0  0  0  0  0  0  0  0  0
   -2.1717   21.8122  -30.3137 H   0  0  0  0  0  0  0  0  0  0  0  0
   -2.5668   20.9549  -31.8419 H   0  0  0  0  0  0  0  0  0  0  0  0
   -1.3491   22.2754  -31.8419 H   0  0  0  0  0  0  0  0  0  0  0  0
   -5.3760   24.6240  -27.7900 H   0  0  0  0  0  0  0  0  0  0  0  0
   -2.8962   24.9678  -28.8954 H   0  0  0  0  0  0  0  0  0  0  0  0
   -3.3569   24.9920  -27.1495 H   0  0  0  0  0  0  0  0  0  0  0  0
   -1.7709   23.0497  -28.6048 H   0  0  0  0  0  0  0  0  0  0  0  0
   -2.1511   23.1715  -26.8201 H   0  0  0  0  0  0  0  0  0  0  0  0
   -4.2613   21.9340  -27.2242 H   0  0  0  0  0  0  0  0  0  0  0  0
   -3.7469   21.7066  -28.9498 H   0  0  0  0  0  0  0  0  0  0  0  0
   -4.1564   19.3411  -26.6731 H   0  0  0  0  0  0  0  0  0  0  0  0
   -2.1056   17.7071  -26.2369 H   0  0  0  0  0  0  0  0  0  0  0  0
   -0.6239   21.2112  -28.0787 H   0  0  0  0  0  0  0  0  0  0  0  0
   -7.7277   23.6600  -30.6476 H   0  0  0  0  0  0  0  0  0  0  0  0
  1  2  1  0
  2  3  1  0
  3  4  2  0
  4  5  1  0
  5  6  2  0
  6  7  1  0
  7  8  1  0
  6  9  1  0
  9 10  1  0
 10 11  2  0
 10 12  2  0
 10 13  1  0
 13 14  1  0
 14 15  1  0
 15 16  1  0
 16 17  1  0
 17 18  1  0
 18 19  2  0
 19 20  1  0
 20 21  2  0
  9 22  2  0
 22  3  1  0
 21 17  1  0
  1 23  1  0
  1 24  1  0
  1 25  1  0
  4 26  1  0
  5 27  1  0
  8 28  1  0
  8 29  1  0
  8 30  1  0
 13 31  1  0
 14 32  1  0
 14 33  1  0
 15 34  1  0
 15 35  1  0
 16 36  1  0
 16 37  1  0
 18 38  1  0
 19 39  1  0
 21 40  1  0
 22 41  1  0
M  END
>  <UniqueID>  (40) 
38

>  <SMILES>  (40) 
COc1ccc(OC)c(S(=O)(=O)NCCCn2ccnc2)c1

>  <Energy>  (40) 
63.8891964267214

>  <Genealogy>  (40) 
COc1ccc(OC)c(S(=O)(=O)NCCCn2ccnc2)c1 (3D coordinates assigned)
COc1ccc(OC)c(S(=O)(=O)NCCCn2ccnc2)c1 (optimized conformer: 63.8891964267214 kcal/mol)

>  <smiles>  (40) 
COc1ccc(OC)c(S(=O)(=O)NCCCn2ccnc2)c1

>  <score_type>  (40) 
oracle

>  <origin>  (40) 
adg

>  <m_score__min__energy>  (40) 
-7.75

>  <m_primary>  (40) 
energy

$$$$
40:0
     RDKit          3D

 40 42  0  0  0  0  0  0  0  0999 V2000
   -4.3860   14.9360  -34.5290 C   0  0  0  0  0  0  0  0  0  0  0  0
   -3.8660   16.2100  -34.8910 O   0  0  0  0  0  0  0  0  0  0  0  0
   -4.2470   17.4200  -34.2930 C   0  0  0  0  0  0  0  0  0  0  0  0
   -3.6140   17.9270  -33.1440 C   0  0  0  0  0  0  0  0  0  0  0  0
   -4.0320   19.1350  -32.5810 C   0  0  0  0  0  0  0  0  0  0  0  0
   -5.1160   19.8540  -33.1300 C   0  0  0  0  0  0  0  0  0  0  0  0
   -5.5580   21.2040  -32.5620 C   0  0  2  0  0  0  0  0  0  0  0  0
   -4.7230   21.7480  -31.3770 C   0  0  0  0  0  0  0  0  0  0  0  0
   -4.7780   23.2400  -31.1750 C   0  0  0  0  0  0  0  0  0  0  0  0
   -3.6990   23.8930  -31.1980 O   0  0  0  0  0  0  0  0  0  0  0  0
   -6.0260   23.9450  -31.0800 N   0  0  0  0  0  0  0  0  0  0  0  0
   -6.3300   24.6740  -29.8470 C   0  0  0  0  0  0  0  0  0  0  0  0
   -7.0380   23.8030  -32.1290 C   0  0  0  0  0  0  0  0  0  0  0  0
   -7.7370   22.4730  -32.0200 C   0  0  0  0  0  0  0  0  0  0  0  0
   -9.1140   22.4480  -31.7320 C   0  0  0  0  0  0  0  0  0  0  0  0
   -9.7940   21.2360  -31.6150 C   0  0  0  0  0  0  0  0  0  0  0  0
   -9.1130   20.0330  -31.7890 C   0  0  0  0  0  0  0  0  0  0  0  0
   -7.7490   20.0370  -32.0840 C   0  0  0  0  0  0  0  0  0  0  0  0
   -7.0410   21.2500  -32.2070 C   0  0  0  0  0  0  0  0  0  0  0  0
   -5.7090   19.3570  -34.3090 C   0  0  0  0  0  0  0  0  0  0  0  0
   -5.2890   18.1490  -34.8700 C   0  0  0  0  0  0  0  0  0  0  0  0
   -4.4203   14.8520  -33.4327 H   0  0  0  0  0  0  0  0  0  0  0  0
   -5.4014   14.8250  -34.9372 H   0  0  0  0  0  0  0  0  0  0  0  0
   -3.7383   14.1461  -34.9372 H   0  0  0  0  0  0  0  0  0  0  0  0
   -2.7844   17.3686  -32.6858 H   0  0  0  0  0  0  0  0  0  0  0  0
   -3.5096   19.5315  -31.6979 H   0  0  0  0  0  0  0  0  0  0  0  0
   -5.3638   21.8800  -33.4078 H   0  0  0  0  0  0  0  0  0  0  0  0
   -5.0877   21.2679  -30.4570 H   0  0  0  0  0  0  0  0  0  0  0  0
   -3.6746   21.5140  -31.6140 H   0  0  0  0  0  0  0  0  0  0  0  0
   -6.0700   24.0505  -28.9788 H   0  0  0  0  0  0  0  0  0  0  0  0
   -5.7452   25.6052  -29.8180 H   0  0  0  0  0  0  0  0  0  0  0  0
   -7.4031   24.9139  -29.8180 H   0  0  0  0  0  0  0  0  0  0  0  0
   -7.7790   24.6095  -32.0270 H   0  0  0  0  0  0  0  0  0  0  0  0
   -6.5415   23.8616  -33.1088 H   0  0  0  0  0  0  0  0  0  0  0  0
   -9.6596   23.3937  -31.5978 H   0  0  0  0  0  0  0  0  0  0  0  0
  -10.8697   21.2298  -31.3850 H   0  0  0  0  0  0  0  0  0  0  0  0
   -9.6514   19.0785  -31.6937 H   0  0  0  0  0  0  0  0  0  0  0  0
   -7.2200   19.0825  -32.2222 H   0  0  0  0  0  0  0  0  0  0  0  0
   -6.5139   19.9290  -34.7937 H   0  0  0  0  0  0  0  0  0  0  0  0
   -5.7839   17.7679  -35.7754 H   0  0  0  0  0  0  0  0  0  0  0  0
  1  2  1  0
  2  3  1  0
  3  4  2  0
  4  5  1  0
  5  6  2  0
  6  7  1  0
  7  8  1  0
  8  9  1  0
  9 10  2  0
  9 11  1  0
 11 12  1  0
 11 13  1  0
 13 14  1  0
 14 15  2  0
 15 16  1  0
 16 17  2  0
 17 18  1  0
 18 19  2  0
  6 20  1  0
 20 21  2  0
 21  3  1  0
 19  7  1  0
 19 14  1  0
  1 22  1  0
  1 23  1  0
  1 24  1  0
  4 25  1  0
  5 26  1  0
  7 27  1  6
  8 28  1  0
  8 29  1  0
 12 30  1  0
 12 31  1  0
 12 32  1  0
 13 33  1  0
 13 34  1  0
 15 35  1  0
 16 36  1  0
 17 37  1  0
 18 38  1  0
 20 39  1  0
 21 40  1  0
M  END
>  <UniqueID>  (41) 
39

>  <SMILES>  (41) 
COc1ccc([C@@H]2CC(=O)N(C)Cc3ccccc32)cc1

>  <Energy>  (41) 
52.293860100241

>  <Genealogy>  (41) 
COc1ccc([C@@H]2CC(=O)N(C)Cc3ccccc32)cc1 (chirality)
COc1ccc([C@@H]2CC(=O)N(C)Cc3ccccc32)cc1 (3D coordinates assigned)
COc1ccc([C@@H]2CC(=O)N(C)Cc3ccccc32)cc1 (nonaromatic ring conformer: 52.293860100241 kcal/mol)

>  <smiles>  (41) 
COc1ccc(C2CC(=O)N(C)Cc3ccccc32)cc1

>  <score_type>  (41) 
oracle

>  <origin>  (41) 
adg

>  <m_score__min__energy>  (41) 
-6.4199999999999999

>  <m_primary>  (41) 
energy

$$$$
41:0
     RDKit          3D

 67 71  0  0  0  0  0  0  0  0999 V2000
   -9.1860   22.2120  -31.8590 C   0  0  0  0  0  0  0  0  0  0  0  0
   -8.6560   20.8930  -31.2970 C   0  0  0  0  0  0  0  0  0  0  0  0
   -9.0860   19.6770  -32.1310 C   0  0  0  0  0  0  0  0  0  0  0  0
   -8.1750   18.4600  -31.9160 C   0  0  0  0  0  0  0  0  0  0  0  0
   -7.1970   18.2950  -33.0840 C   0  0  0  0  0  0  0  0  0  0  0  0
   -5.9070   17.5970  -32.6370 C   0  0  0  0  0  0  0  0  0  0  0  0
   -4.7530   18.4920  -32.8110 N   0  0  0  0  0  0  0  0  0  0  0  0
   -3.6570   18.0270  -33.6830 C   0  0  0  0  0  0  0  0  0  0  0  0
   -2.4800   19.0070  -33.7730 C   0  0  1  0  0  0  0  0  0  0  0  0
   -3.0190   20.4520  -33.8260 C   0  0  0  0  0  0  0  0  0  0  0  0
   -3.6850   20.8320  -32.4720 C   0  0  1  0  0  0  0  0  0  0  0  0
   -4.2080   22.3020  -32.6060 C   0  0  0  0  0  0  0  0  0  0  0  0
   -5.7110   22.5460  -32.3220 C   0  0  0  0  0  0  0  0  0  0  0  0
   -6.0180   23.3220  -31.0190 C   0  0  0  0  0  0  0  0  0  0  0  0
   -4.9960   23.1080  -29.9030 C   0  0  0  0  0  0  0  0  0  0  0  0
   -5.0750   24.3570  -29.0230 C   0  0  0  0  0  0  0  0  0  0  0  0
   -5.9520   25.3710  -29.7580 C   0  0  0  0  0  0  0  0  0  0  0  0
   -6.1370   24.8340  -31.1680 C   0  0  0  0  0  0  0  0  0  0  0  0
   -4.7640   19.7950  -32.1750 C   0  0  0  0  0  0  0  0  0  0  0  0
   -5.6080   20.0180  -31.2630 O   0  0  0  0  0  0  0  0  0  0  0  0
   -2.6100   20.6830  -31.4120 C   0  0  0  0  0  0  0  0  0  0  0  0
   -2.4270   21.3960  -30.2730 N   0  0  0  0  0  0  0  0  0  0  0  0
   -1.3580   20.8330  -29.6680 C   0  0  0  0  0  0  0  0  0  0  0  0
   -0.7570   21.2340  -28.4770 C   0  0  0  0  0  0  0  0  0  0  0  0
    0.3740   20.5210  -28.0360 C   0  0  0  0  0  0  0  0  0  0  0  0
    0.8800   19.4360  -28.7920 C   0  0  0  0  0  0  0  0  0  0  0  0
    2.4210   18.4900  -28.1800 Br  0  0  0  0  0  0  0  0  0  0  0  0
    0.2550   19.0530  -29.9940 C   0  0  0  0  0  0  0  0  0  0  0  0
   -0.8660   19.7740  -30.3960 C   0  0  0  0  0  0  0  0  0  0  0  0
   -1.6740   19.6770  -31.5000 C   0  0  0  0  0  0  0  0  0  0  0  0
   -1.5600   18.8220  -32.6370 N   0  0  0  0  0  0  0  0  0  0  0  0
   -9.4553   22.8822  -31.0294 H   0  0  0  0  0  0  0  0  0  0  0  0
   -8.4087   22.6864  -32.4760 H   0  0  0  0  0  0  0  0  0  0  0  0
  -10.0754   22.0166  -32.4760 H   0  0  0  0  0  0  0  0  0  0  0  0
   -7.5570   20.9353  -31.2775 H   0  0  0  0  0  0  0  0  0  0  0  0
   -9.0767   20.7691  -30.2882 H   0  0  0  0  0  0  0  0  0  0  0  0
  -10.1131   19.4021  -31.8490 H   0  0  0  0  0  0  0  0  0  0  0  0
   -9.0178   19.9603  -33.1917 H   0  0  0  0  0  0  0  0  0  0  0  0
   -7.6046   18.5972  -30.9855 H   0  0  0  0  0  0  0  0  0  0  0  0
   -8.8023   17.5586  -31.8532 H   0  0  0  0  0  0  0  0  0  0  0  0
   -7.6762   17.6929  -33.8701 H   0  0  0  0  0  0  0  0  0  0  0  0
   -6.9373   19.2945  -33.4628 H   0  0  0  0  0  0  0  0  0  0  0  0
   -5.9939   17.3197  -31.5761 H   0  0  0  0  0  0  0  0  0  0  0  0
   -5.7567   16.6973  -33.2518 H   0  0  0  0  0  0  0  0  0  0  0  0
   -3.2827   17.0704  -33.2895 H   0  0  0  0  0  0  0  0  0  0  0  0
   -4.0726   17.9310  -34.6969 H   0  0  0  0  0  0  0  0  0  0  0  0
   -1.9108   18.8079  -34.6930 H   0  0  0  0  0  0  0  0  0  0  0  0
   -2.1865   21.1423  -34.0269 H   0  0  0  0  0  0  0  0  0  0  0  0
   -3.7705   20.5236  -34.6260 H   0  0  0  0  0  0  0  0  0  0  0  0
   -3.6331   22.9233  -31.9035 H   0  0  0  0  0  0  0  0  0  0  0  0
   -4.0749   22.5552  -33.6682 H   0  0  0  0  0  0  0  0  0  0  0  0
   -6.1281   23.1172  -33.1645 H   0  0  0  0  0  0  0  0  0  0  0  0
   -6.1637   21.5511  -32.1985 H   0  0  0  0  0  0  0  0  0  0  0  0
   -6.9948   22.8879  -30.7594 H   0  0  0  0  0  0  0  0  0  0  0  0
   -5.2485   22.2108  -29.3188 H   0  0  0  0  0  0  0  0  0  0  0  0
   -3.9828   22.9578  -30.3041 H   0  0  0  0  0  0  0  0  0  0  0  0
   -5.5233   24.1055  -28.0505 H   0  0  0  0  0  0  0  0  0  0  0  0
   -4.0721   24.7690  -28.8376 H   0  0  0  0  0  0  0  0  0  0  0  0
   -6.9262   25.4663  -29.2561 H   0  0  0  0  0  0  0  0  0  0  0  0
   -5.4871   26.3679  -29.7681 H   0  0  0  0  0  0  0  0  0  0  0  0
   -7.1264   25.1092  -31.5622 H   0  0  0  0  0  0  0  0  0  0  0  0
   -5.3983   25.2444  -31.8722 H   0  0  0  0  0  0  0  0  0  0  0  0
   -2.9580   22.2240  -29.9320 H   0  0  0  0  0  0  0  0  0  0  0  0
   -1.1539   22.0816  -27.8989 H   0  0  0  0  0  0  0  0  0  0  0  0
    0.8685   20.8091  -27.0966 H   0  0  0  0  0  0  0  0  0  0  0  0
    0.6385   18.2144  -30.5938 H   0  0  0  0  0  0  0  0  0  0  0  0
   -0.8560   18.0510  -32.6520 H   0  0  0  0  0  0  0  0  0  0  0  0
  1  2  1  0
  2  3  1  0
  3  4  1  0
  4  5  1  0
  5  6  1  0
  6  7  1  0
  7  8  1  0
  8  9  1  0
  9 10  1  0
 10 11  1  0
 11 12  1  6
 12 13  1  0
 13 14  1  0
 14 15  1  0
 15 16  1  0
 16 17  1  0
 17 18  1  0
 11 19  1  0
 19 20  2  0
 11 21  1  0
 21 22  1  0
 22 23  1  0
 23 24  2  0
 24 25  1  0
 25 26  2  0
 26 27  1  0
 26 28  1  0
 28 29  2  0
 29 30  1  0
 30 31  1  0
 19  7  1  0
 30 21  2  0
 31  9  1  0
 18 14  1  0
 29 23  1  0
  1 32  1  0
  1 33  1  0
  1 34  1  0
  2 35  1  0
  2 36  1  0
  3 37  1  0
  3 38  1  0
  4 39  1  0
  4 40  1  0
  5 41  1  0
  5 42  1  0
  6 43  1  0
  6 44  1  0
  8 45  1  0
  8 46  1  0
  9 47  1  6
 10 48  1  0
 10 49  1  0
 12 50  1  0
 12 51  1  0
 13 52  1  0
 13 53  1  0
 14 54  1  0
 15 55  1  0
 15 56  1  0
 16 57  1  0
 16 58  1  0
 17 59  1  0
 17 60  1  0
 18 61  1  0
 18 62  1  0
 22 63  1  0
 24 64  1  0
 25 65  1  0
 28 66  1  0
 31 67  1  0
M  END
>  <UniqueID>  (42) 
40

>  <SMILES>  (42) 
CCCCCCN1C[C@H]2C[C@@](CCC3CCCC3)(C1=O)c1[nH]c3ccc(Br)cc3c1N2

>  <Energy>  (42) 
107.56948487757356

>  <Genealogy>  (42) 
CCCCCCN1C[C@H]2C[C@@](CCC3CCCC3)(C1=O)c1[nH]c3ccc(Br)cc3c1N2 (chirality)
CCCCCCN1C[C@H]2C[C@@](CCC3CCCC3)(C1=O)c1[nH]c3ccc(Br)cc3c1N2 (3D coordinates assigned)
CCCCCCN1C[C@H]2C[C@@](CCC3CCCC3)(C1=O)c1[nH]c3ccc(Br)cc3c1N2 (nonaromatic ring conformer: 107.56948487757356 kcal/mol)

>  <smiles>  (42) 
CCCCCCN1CC2CC(CCC3CCCC3)(C1=O)c1[nH]c3ccc(Br)cc3c1N2

>  <score_type>  (42) 
oracle

>  <origin>  (42) 
adg

>  <m_score__min__energy>  (42) 
-9.4800000000000004

>  <m_primary>  (42) 
energy

$$$$
42:0
     RDKit          3D

 37 39  0  0  0  0  0  0  0  0999 V2000
   -2.6510   24.5400  -29.3730 C   0  0  0  0  0  0  0  0  0  0  0  0
   -3.4910   24.9280  -30.4560 O   0  0  0  0  0  0  0  0  0  0  0  0
   -4.7510   24.3720  -30.7180 C   0  0  0  0  0  0  0  0  0  0  0  0
   -5.8950   25.0580  -30.2510 C   0  0  0  0  0  0  0  0  0  0  0  0
   -7.1850   24.5440  -30.4690 C   0  0  0  0  0  0  0  0  0  0  0  0
   -7.3000   23.3460  -31.1710 C   0  0  0  0  0  0  0  0  0  0  0  0
   -8.4310   22.6760  -31.4480 N   0  0  0  0  0  0  0  0  0  0  0  0
   -8.0530   21.5620  -32.1120 C   0  0  0  0  0  0  0  0  0  0  0  0
   -6.6680   21.5320  -32.2700 C   0  0  0  0  0  0  0  0  0  0  0  0
   -5.8900   20.4680  -32.9420 C   0  0  0  0  0  0  0  0  0  0  0  0
   -4.5690   20.3640  -32.7280 C   0  0  0  0  0  0  0  0  0  0  0  0
   -3.7190   19.3240  -33.4100 C   0  0  0  0  0  0  0  0  0  0  0  0
   -4.4960   18.1480  -33.8550 N   0  0  1  0  0  0  0  0  0  0  0  0
   -4.8360   17.2580  -32.7270 C   0  0  0  0  0  0  0  0  0  0  0  0
   -5.6880   18.5680  -34.6190 C   0  0  0  0  0  0  0  0  0  0  0  0
   -6.6280   19.4610  -33.7930 C   0  0  0  0  0  0  0  0  0  0  0  0
   -6.2000   22.6810  -31.6490 C   0  0  0  0  0  0  0  0  0  0  0  0
   -4.9060   23.1540  -31.4260 C   0  0  0  0  0  0  0  0  0  0  0  0
   -3.1506   24.7708  -28.4206 H   0  0  0  0  0  0  0  0  0  0  0  0
   -2.4535   23.4594  -29.4311 H   0  0  0  0  0  0  0  0  0  0  0  0
   -1.7002   25.0902  -29.4311 H   0  0  0  0  0  0  0  0  0  0  0  0
   -5.7742   26.0077  -29.7092 H   0  0  0  0  0  0  0  0  0  0  0  0
   -8.0759   25.0711  -30.0970 H   0  0  0  0  0  0  0  0  0  0  0  0
   -9.4050   22.9510  -31.1950 H   0  0  0  0  0  0  0  0  0  0  0  0
   -8.7421   20.7863  -32.4773 H   0  0  0  0  0  0  0  0  0  0  0  0
   -4.0892   21.0643  -32.0285 H   0  0  0  0  0  0  0  0  0  0  0  0
   -3.2414   19.7821  -34.2886 H   0  0  0  0  0  0  0  0  0  0  0  0
   -2.9772   18.9719  -32.6780 H   0  0  0  0  0  0  0  0  0  0  0  0
   -3.8860   17.5970  -34.5060 H   0  0  0  0  0  0  0  0  0  0  0  0
   -4.6377   17.7771  -31.7777 H   0  0  0  0  0  0  0  0  0  0  0  0
   -5.9008   16.9874  -32.7815 H   0  0  0  0  0  0  0  0  0  0  0  0
   -4.2228   16.3464  -32.7815 H   0  0  0  0  0  0  0  0  0  0  0  0
   -5.3594   19.1273  -35.5074 H   0  0  0  0  0  0  0  0  0  0  0  0
   -6.2450   17.6612  -34.8973 H   0  0  0  0  0  0  0  0  0  0  0  0
   -7.2912   20.0039  -34.4825 H   0  0  0  0  0  0  0  0  0  0  0  0
   -7.1908   18.8051  -33.1125 H   0  0  0  0  0  0  0  0  0  0  0  0
   -4.0302   22.5966  -31.7898 H   0  0  0  0  0  0  0  0  0  0  0  0
  1  2  1  0
  2  3  1  0
  3  4  2  0
  4  5  1  0
  5  6  2  0
  6  7  1  0
  7  8  1  0
  8  9  2  0
  9 10  1  0
 10 11  2  0
 11 12  1  0
 12 13  1  0
 13 14  1  0
 13 15  1  0
 15 16  1  0
  9 17  1  0
 17 18  2  0
 18  3  1  0
 17  6  1  0
 16 10  1  0
  1 19  1  0
  1 20  1  0
  1 21  1  0
  4 22  1  0
  5 23  1  0
  7 24  1  0
  8 25  1  0
 11 26  1  0
 12 27  1  0
 12 28  1  0
 13 29  1  6
 14 30  1  0
 14 31  1  0
 14 32  1  0
 15 33  1  0
 15 34  1  0
 16 35  1  0
 16 36  1  0
 18 37  1  0
M  CHG  1  13   1
M  END
>  <UniqueID>  (43) 
41

>  <SMILES>  (43) 
COc1ccc2[nH]cc(C3=CC[N@@H+](C)CC3)c2c1

>  <Energy>  (43) 
78.4648008398898

>  <Genealogy>  (43) 
COc1ccc2[nH]cc(C3=CC[NH+](C)CC3)c2c1 (protonated)
COc1ccc2[nH]cc(C3=CC[N@@H+](C)CC3)c2c1 (chirality)
COc1ccc2[nH]cc(C3=CC[N@@H+](C)CC3)c2c1 (3D coordinates assigned)
COc1ccc2[nH]cc(C3=CC[N@@H+](C)CC3)c2c1 (nonaromatic ring conformer: 78.4648008398898 kcal/mol)

>  <smiles>  (43) 
COc1ccc2[nH]cc(C3=CCN(C)CC3)c2c1

>  <score_type>  (43) 
oracle

>  <origin>  (43) 
adg

>  <m_score__min__energy>  (43) 
-6.8200000000000003

>  <m_primary>  (43) 
energy

$$$$
43:0
     RDKit          3D

 50 53  0  0  0  0  0  0  0  0999 V2000
   -0.7130   19.4740  -32.3820 C   0  0  0  0  0  0  0  0  0  0  0  0
   -1.6280   20.6740  -32.6830 C   0  0  2  0  0  0  0  0  0  0  0  0
   -1.7830   21.5830  -31.4960 C   0  0  0  0  0  0  0  0  0  0  0  0
   -0.8700   21.8080  -30.5310 N   0  0  0  0  0  0  0  0  0  0  0  0
   -1.3970   22.7130  -29.7160 N   0  0  0  0  0  0  0  0  0  0  0  0
   -2.6120   23.0320  -30.2070 C   0  0  0  0  0  0  0  0  0  0  0  0
   -3.5430   24.0110  -29.5560 C   0  0  0  0  0  0  0  0  0  0  0  0
   -3.8890   25.0440  -30.4610 O   0  0  0  0  0  0  0  0  0  0  0  0
   -5.2410   25.4280  -30.3010 C   0  0  0  0  0  0  0  0  0  0  0  0
   -6.1580   24.3270  -30.7350 C   0  0  0  0  0  0  0  0  0  0  0  0
   -6.6310   24.1240  -32.0240 C   0  0  0  0  0  0  0  0  0  0  0  0
   -7.5190   23.0470  -32.1190 C   0  0  0  0  0  0  0  0  0  0  0  0
   -7.7510   22.4080  -30.9080 C   0  0  0  0  0  0  0  0  0  0  0  0
   -6.8490   23.1800  -29.7180 S   0  0  0  0  0  0  0  0  0  0  0  0
   -2.8680   22.3520  -31.3410 N   0  0  0  0  0  0  0  0  0  0  0  0
   -4.0500   22.3330  -32.1990 C   0  0  0  0  0  0  0  0  0  0  0  0
   -3.7650   21.5160  -33.4810 C   0  0  0  0  0  0  0  0  0  0  0  0
   -2.9690   20.2850  -33.2130 N   0  0  0  0  0  0  0  0  0  0  0  0
   -3.6880   19.3130  -32.3470 C   0  0  0  0  0  0  0  0  0  0  0  0
   -4.6590   18.4210  -33.1430 C   0  0  0  0  0  0  0  0  0  0  0  0
   -6.0860   18.7270  -32.7690 C   0  0  0  0  0  0  0  0  0  0  0  0
   -6.7750   19.7820  -33.3940 C   0  0  0  0  0  0  0  0  0  0  0  0
   -8.1100   20.0430  -33.0690 C   0  0  0  0  0  0  0  0  0  0  0  0
   -8.7670   19.2520  -32.1220 C   0  0  0  0  0  0  0  0  0  0  0  0
   -8.0930   18.1960  -31.5040 C   0  0  0  0  0  0  0  0  0  0  0  0
   -6.7600   17.9280  -31.8290 C   0  0  0  0  0  0  0  0  0  0  0  0
   -0.6180   19.3494  -31.2932 H   0  0  0  0  0  0  0  0  0  0  0  0
   -1.1477   18.5628  -32.8188 H   0  0  0  0  0  0  0  0  0  0  0  0
    0.2807   19.6520  -32.8188 H   0  0  0  0  0  0  0  0  0  0  0  0
   -1.1126   21.2264  -33.4825 H   0  0  0  0  0  0  0  0  0  0  0  0
   -4.4564   23.4862  -29.2394 H   0  0  0  0  0  0  0  0  0  0  0  0
   -3.0394   24.4553  -28.6848 H   0  0  0  0  0  0  0  0  0  0  0  0
   -5.4283   25.6577  -29.2417 H   0  0  0  0  0  0  0  0  0  0  0  0
   -5.4331   26.3146  -30.9231 H   0  0  0  0  0  0  0  0  0  0  0  0
   -6.3378   24.7459  -32.8826 H   0  0  0  0  0  0  0  0  0  0  0  0
   -7.9890   22.7358  -33.0636 H   0  0  0  0  0  0  0  0  0  0  0  0
   -8.4129   21.5431  -30.7537 H   0  0  0  0  0  0  0  0  0  0  0  0
   -4.8876   21.8735  -31.6538 H   0  0  0  0  0  0  0  0  0  0  0  0
   -4.3066   23.3650  -32.4802 H   0  0  0  0  0  0  0  0  0  0  0  0
   -4.7245   21.2234  -33.9325 H   0  0  0  0  0  0  0  0  0  0  0  0
   -3.1751   22.1528  -34.1567 H   0  0  0  0  0  0  0  0  0  0  0  0
   -2.9479   18.6708  -31.8473 H   0  0  0  0  0  0  0  0  0  0  0  0
   -4.2809   19.8874  -31.6200 H   0  0  0  0  0  0  0  0  0  0  0  0
   -4.5196   18.6046  -34.2186 H   0  0  0  0  0  0  0  0  0  0  0  0
   -4.4481   17.3675  -32.9069 H   0  0  0  0  0  0  0  0  0  0  0  0
   -6.2616   20.4045  -34.1416 H   0  0  0  0  0  0  0  0  0  0  0  0
   -8.6433   20.8711  -33.5588 H   0  0  0  0  0  0  0  0  0  0  0  0
   -9.8155   19.4613  -31.8633 H   0  0  0  0  0  0  0  0  0  0  0  0
   -8.6122   17.5740  -30.7600 H   0  0  0  0  0  0  0  0  0  0  0  0
   -6.2366   17.0889  -31.3474 H   0  0  0  0  0  0  0  0  0  0  0  0
  1  2  1  0
  2  3  1  0
  3  4  2  0
  4  5  1  0
  5  6  2  0
  6  7  1  0
  7  8  1  0
  8  9  1  0
  9 10  1  0
 10 11  2  0
 11 12  1  0
 12 13  2  0
 13 14  1  0
  6 15  1  0
 15 16  1  0
 16 17  1  0
 17 18  1  0
 18 19  1  0
 19 20  1  0
 20 21  1  0
 21 22  2  0
 22 23  1  0
 23 24  2  0
 24 25  1  0
 25 26  2  0
 18  2  1  0
 26 21  1  0
 15  3  1  0
 14 10  1  0
  1 27  1  0
  1 28  1  0
  1 29  1  0
  2 30  1  6
  7 31  1  0
  7 32  1  0
  9 33  1  0
  9 34  1  0
 11 35  1  0
 12 36  1  0
 13 37  1  0
 16 38  1  0
 16 39  1  0
 17 40  1  0
 17 41  1  0
 19 42  1  0
 19 43  1  0
 20 44  1  0
 20 45  1  0
 22 46  1  0
 23 47  1  0
 24 48  1  0
 25 49  1  0
 26 50  1  0
M  END
>  <UniqueID>  (44) 
42

>  <SMILES>  (44) 
C[C@@H]1c2nnc(COCc3cccs3)n2CCN1CCc1ccccc1

>  <Energy>  (44) 
122.52227078565468

>  <Genealogy>  (44) 
C[C@@H]1c2nnc(COCc3cccs3)n2CCN1CCc1ccccc1 (chirality)
C[C@@H]1c2nnc(COCc3cccs3)n2CCN1CCc1ccccc1 (3D coordinates assigned)
C[C@@H]1c2nnc(COCc3cccs3)n2CCN1CCc1ccccc1 (nonaromatic ring conformer: 122.52227078565468 kcal/mol)

>  <smiles>  (44) 
CC1c2nnc(COCc3cccs3)n2CCN1CCc1ccccc1

>  <score_type>  (44) 
oracle

>  <origin>  (44) 
adg

>  <m_score__min__energy>  (44) 
-8.8200000000000003

>  <m_primary>  (44) 
energy

$$$$
44:0
     RDKit          3D

 49 52  0  0  0  0  0  0  0  0999 V2000
   -1.3140   24.8710  -28.3410 C   0  0  0  0  0  0  0  0  0  0  0  0
   -2.2390   25.2800  -29.3420 O   0  0  0  0  0  0  0  0  0  0  0  0
   -3.3660   24.5270  -29.6810 C   0  0  0  0  0  0  0  0  0  0  0  0
   -4.1140   24.8940  -30.7550 N   0  0  0  0  0  0  0  0  0  0  0  0
   -5.2160   24.1870  -31.1170 C   0  0  0  0  0  0  0  0  0  0  0  0
   -5.5910   23.0540  -30.3870 C   0  0  0  0  0  0  0  0  0  0  0  0
   -6.7990   22.2860  -30.7610 C   0  0  0  0  0  0  0  0  0  0  0  0
   -7.9800   22.5850  -30.1500 N   0  0  0  0  0  0  0  0  0  0  0  0
   -9.1170   21.9050  -30.4450 C   0  0  0  0  0  0  0  0  0  0  0  0
   -9.0980   20.9150  -31.3690 N   0  0  0  0  0  0  0  0  0  0  0  0
   -7.9530   20.5720  -32.0150 C   0  0  0  0  0  0  0  0  0  0  0  0
   -6.7610   21.2710  -31.7450 C   0  0  0  0  0  0  0  0  0  0  0  0
   -5.4780   20.9120  -32.4640 C   0  0  0  0  0  0  0  0  0  0  0  0
   -5.7120   19.9950  -33.6740 C   0  0  0  0  0  0  0  0  0  0  0  0
   -6.7030   18.9310  -33.4010 N   0  0  0  0  0  0  0  0  0  0  0  0
   -6.2740   17.9660  -32.3620 C   0  0  0  0  0  0  0  0  0  0  0  0
   -5.9610   16.6220  -32.9670 C   0  0  0  0  0  0  0  0  0  0  0  0
   -6.8720   16.0020  -33.8380 C   0  0  0  0  0  0  0  0  0  0  0  0
   -6.5840   14.7450  -34.3790 C   0  0  0  0  0  0  0  0  0  0  0  0
   -5.3840   14.0990  -34.0550 C   0  0  0  0  0  0  0  0  0  0  0  0
   -5.0190   12.4850  -34.7460 S   0  0  0  0  0  0  0  0  0  0  0  0
   -3.6090   13.0870  -35.7260 C   0  0  0  0  0  0  0  0  0  0  0  0
   -4.4780   14.7100  -33.1820 C   0  0  0  0  0  0  0  0  0  0  0  0
   -4.7640   15.9660  -32.6410 C   0  0  0  0  0  0  0  0  0  0  0  0
   -8.0200   19.5200  -33.0930 C   0  0  0  0  0  0  0  0  0  0  0  0
   -4.8200   22.7020  -29.2750 C   0  0  0  0  0  0  0  0  0  0  0  0
   -3.7270   23.4390  -28.9470 N   0  0  0  0  0  0  0  0  0  0  0  0
   -1.7429   25.0606  -27.3460 H   0  0  0  0  0  0  0  0  0  0  0  0
   -1.1052   23.7967  -28.4516 H   0  0  0  0  0  0  0  0  0  0  0  0
   -0.3788   25.4395  -28.4516 H   0  0  0  0  0  0  0  0  0  0  0  0
   -5.8134   24.5053  -31.9840 H   0  0  0  0  0  0  0  0  0  0  0  0
   -8.0210   23.3420  -29.4290 H   0  0  0  0  0  0  0  0  0  0  0  0
  -10.0565   22.1587  -29.9322 H   0  0  0  0  0  0  0  0  0  0  0  0
   -4.9989   21.8388  -32.8125 H   0  0  0  0  0  0  0  0  0  0  0  0
   -4.8404   20.3666  -31.7527 H   0  0  0  0  0  0  0  0  0  0  0  0
   -6.0742   20.6061  -34.5138 H   0  0  0  0  0  0  0  0  0  0  0  0
   -4.7555   19.5055  -33.9098 H   0  0  0  0  0  0  0  0  0  0  0  0
   -5.3742   18.3532  -31.8615 H   0  0  0  0  0  0  0  0  0  0  0  0
   -7.0945   17.8419  -31.6399 H   0  0  0  0  0  0  0  0  0  0  0  0
   -7.8149   16.5067  -34.0954 H   0  0  0  0  0  0  0  0  0  0  0  0
   -7.3008   14.2628  -35.0600 H   0  0  0  0  0  0  0  0  0  0  0  0
   -2.8112   13.4276  -35.0497 H   0  0  0  0  0  0  0  0  0  0  0  0
   -3.2291   12.2726  -36.3604 H   0  0  0  0  0  0  0  0  0  0  0  0
   -3.9344   13.9247  -36.3604 H   0  0  0  0  0  0  0  0  0  0  0  0
   -3.5386   14.2007  -32.9209 H   0  0  0  0  0  0  0  0  0  0  0  0
   -4.0474   16.4430  -31.9562 H   0  0  0  0  0  0  0  0  0  0  0  0
   -8.4218   19.9797  -34.0080 H   0  0  0  0  0  0  0  0  0  0  0  0
   -8.6667   18.7099  -32.7248 H   0  0  0  0  0  0  0  0  0  0  0  0
   -5.0982   21.8291  -28.6663 H   0  0  0  0  0  0  0  0  0  0  0  0
  1  2  1  0
  2  3  1  0
  3  4  2  0
  4  5  1  0
  5  6  2  0
  6  7  1  0
  7  8  2  0
  8  9  1  0
  9 10  2  0
 10 11  1  0
 11 12  2  0
 12 13  1  0
 13 14  1  0
 14 15  1  0
 15 16  1  0
 16 17  1  0
 17 18  2  0
 18 19  1  0
 19 20  2  0
 20 21  1  0
 21 22  1  0
 20 23  1  0
 23 24  2  0
 15 25  1  0
  6 26  1  0
 26 27  2  0
 27  3  1  0
 12  7  1  0
 24 17  1  0
 25 11  1  0
  1 28  1  0
  1 29  1  0
  1 30  1  0
  5 31  1  0
  8 32  1  0
  9 33  1  0
 13 34  1  0
 13 35  1  0
 14 36  1  0
 14 37  1  0
 16 38  1  0
 16 39  1  0
 18 40  1  0
 19 41  1  0
 22 42  1  0
 22 43  1  0
 22 44  1  0
 23 45  1  0
 24 46  1  0
 25 47  1  0
 25 48  1  0
 26 49  1  0
M  CHG  1   8   1
M  END
>  <UniqueID>  (45) 
43

>  <SMILES>  (45) 
COc1ncc(-c2[nH+]cnc3c2CCN(Cc2ccc(SC)cc2)C3)cn1

>  <Energy>  (45) 
61.13426455711562

>  <Genealogy>  (45) 
COc1ncc(-c2[nH+]cnc3c2CCN(Cc2ccc(SC)cc2)C3)cn1 (protonated)
COc1ncc(-c2[nH+]cnc3c2CCN(Cc2ccc(SC)cc2)C3)cn1 (3D coordinates assigned)
COc1ncc(-c2[nH+]cnc3c2CCN(Cc2ccc(SC)cc2)C3)cn1 (nonaromatic ring conformer: 61.13426455711562 kcal/mol)

>  <smiles>  (45) 
COc1ncc(-c2ncnc3c2CCN(Cc2ccc(SC)cc2)C3)cn1

>  <score_type>  (45) 
oracle

>  <origin>  (45) 
adg

>  <m_score__min__energy>  (45) 
-8.4399999999999995

>  <m_primary>  (45) 
energy

$$$$
45:0
     RDKit          3D

 36 38  0  0  0  0  0  0  0  0999 V2000
   -5.7240   17.8110  -34.5680 C   0  0  0  0  0  0  0  0  0  0  0  0
   -6.0610   19.2560  -34.2150 C   0  0  0  0  0  0  0  0  0  0  0  0
   -7.0620   19.3120  -33.0910 C   0  0  0  0  0  0  0  0  0  0  0  0
   -7.7410   18.1540  -32.6860 C   0  0  0  0  0  0  0  0  0  0  0  0
   -8.6920   18.2360  -31.6680 C   0  0  0  0  0  0  0  0  0  0  0  0
   -8.9690   19.4330  -31.0870 N   0  0  0  0  0  0  0  0  0  0  0  0
   -8.3330   20.5770  -31.4620 C   0  0  0  0  0  0  0  0  0  0  0  0
   -8.7230   21.8810  -30.8280 C   0  0  0  0  0  0  0  0  0  0  0  0
   -8.5000   23.2680  -31.9960 S   0  0  0  0  0  0  0  0  0  0  0  0
   -6.8060   23.6120  -31.5170 C   0  0  0  0  0  0  0  0  0  0  0  0
   -6.5120   24.7140  -30.7110 C   0  0  0  0  0  0  0  0  0  0  0  0
   -5.1810   24.9540  -30.3750 C   0  0  0  0  0  0  0  0  0  0  0  0
   -4.2070   24.1240  -30.8310 N   0  0  0  0  0  0  0  0  0  0  0  0
   -4.5090   23.0510  -31.6130 C   0  0  0  0  0  0  0  0  0  0  0  0
   -3.4380   22.1700  -32.0980 C   0  0  0  0  0  0  0  0  0  0  0  0
   -3.4600   21.4230  -33.2700 C   0  0  0  0  0  0  0  0  0  0  0  0
   -2.2910   20.6780  -33.4720 C   0  0  0  0  0  0  0  0  0  0  0  0
   -1.3480   20.8340  -32.4640 C   0  0  0  0  0  0  0  0  0  0  0  0
   -1.9690   21.9000  -31.3220 S   0  0  0  0  0  0  0  0  0  0  0  0
   -5.8040   22.8030  -31.9460 N   0  0  0  0  0  0  0  0  0  0  0  0
   -7.3670   20.5330  -32.4780 C   0  0  0  0  0  0  0  0  0  0  0  0
   -5.5885   17.2299  -33.6439 H   0  0  0  0  0  0  0  0  0  0  0  0
   -6.5449   17.3765  -35.1573 H   0  0  0  0  0  0  0  0  0  0  0  0
   -4.7956   17.7845  -35.1573 H   0  0  0  0  0  0  0  0  0  0  0  0
   -5.1420   19.7755  -33.9058 H   0  0  0  0  0  0  0  0  0  0  0  0
   -6.4966   19.7429  -35.0999 H   0  0  0  0  0  0  0  0  0  0  0  0
   -7.5257   17.1884  -33.1670 H   0  0  0  0  0  0  0  0  0  0  0  0
   -9.2187   17.3296  -31.3350 H   0  0  0  0  0  0  0  0  0  0  0  0
   -9.7793   21.8321  -30.5248 H   0  0  0  0  0  0  0  0  0  0  0  0
   -8.0789   22.0522  -29.9529 H   0  0  0  0  0  0  0  0  0  0  0  0
   -7.3121   25.3769  -30.3499 H   0  0  0  0  0  0  0  0  0  0  0  0
   -4.9194   25.8143  -29.7414 H   0  0  0  0  0  0  0  0  0  0  0  0
   -4.3097   21.4174  -33.9685 H   0  0  0  0  0  0  0  0  0  0  0  0
   -2.1344   20.0300  -34.3470 H   0  0  0  0  0  0  0  0  0  0  0  0
   -0.3640   20.3442  -32.4205 H   0  0  0  0  0  0  0  0  0  0  0  0
   -6.8519   21.4530  -32.7914 H   0  0  0  0  0  0  0  0  0  0  0  0
  1  2  1  0
  2  3  1  0
  3  4  2  0
  4  5  1  0
  5  6  2  0
  6  7  1  0
  7  8  1  0
  8  9  1  0
  9 10  1  0
 10 11  2  0
 11 12  1  0
 12 13  2  0
 13 14  1  0
 14 15  1  0
 15 16  2  0
 16 17  1  0
 17 18  2  0
 18 19  1  0
 14 20  2  0
  7 21  2  0
 21  3  1  0
 20 10  1  0
 19 15  1  0
  1 22  1  0
  1 23  1  0
  1 24  1  0
  2 25  1  0
  2 26  1  0
  4 27  1  0
  5 28  1  0
  8 29  1  0
  8 30  1  0
 11 31  1  0
 12 32  1  0
 16 33  1  0
 17 34  1  0
 18 35  1  0
 21 36  1  0
M  END
>  <UniqueID>  (46) 
44

>  <SMILES>  (46) 
CCc1ccnc(CSc2ccnc(-c3cccs3)n2)c1

>  <Energy>  (46) 
55.50717332783019

>  <Genealogy>  (46) 
CCc1ccnc(CSc2ccnc(-c3cccs3)n2)c1 (3D coordinates assigned)
CCc1ccnc(CSc2ccnc(-c3cccs3)n2)c1 (optimized conformer: 55.50717332783019 kcal/mol)

>  <smiles>  (46) 
CCc1ccnc(CSc2ccnc(-c3cccs3)n2)c1

>  <score_type>  (46) 
oracle

>  <origin>  (46) 
adg

>  <m_score__min__energy>  (46) 
-8.1999999999999993

>  <m_primary>  (46) 
energy

$$$$
46:0
     RDKit          3D

 76 79  0  0  0  0  0  0  0  0999 V2000
   -6.6830   15.5690  -34.2220 C   0  0  0  0  0  0  0  0  0  0  0  0
   -6.1480   16.4630  -33.2500 O   0  0  0  0  0  0  0  0  0  0  0  0
   -6.6260   17.7620  -33.0120 C   0  0  0  0  0  0  0  0  0  0  0  0
   -7.6240   18.0250  -32.0550 C   0  0  0  0  0  0  0  0  0  0  0  0
   -8.0710   19.3290  -31.8350 C   0  0  0  0  0  0  0  0  0  0  0  0
   -7.5220   20.3840  -32.5630 C   0  0  0  0  0  0  0  0  0  0  0  0
   -6.5350   20.1340  -33.5180 C   0  0  0  0  0  0  0  0  0  0  0  0
   -6.0830   18.8230  -33.7560 C   0  0  0  0  0  0  0  0  0  0  0  0
   -5.1020   18.5340  -34.7180 O   0  0  0  0  0  0  0  0  0  0  0  0
   -3.7400   18.2430  -34.4220 C   0  0  0  0  0  0  0  0  0  0  0  0
   -3.1430   19.3890  -33.6750 C   0  0  0  0  0  0  0  0  0  0  0  0
   -3.2480   19.6390  -32.3240 C   0  0  0  0  0  0  0  0  0  0  0  0
   -2.5370   20.7620  -32.0970 N   0  0  0  0  0  0  0  0  0  0  0  0
   -2.3770   21.4600  -30.8490 C   0  0  0  0  0  0  0  0  0  0  0  0
   -1.1010   21.7150  -30.3240 C   0  0  0  0  0  0  0  0  0  0  0  0
   -0.9540   22.3960  -29.1150 C   0  0  0  0  0  0  0  0  0  0  0  0
   -2.0810   22.8200  -28.3910 C   0  0  0  0  0  0  0  0  0  0  0  0
   -1.9580   23.5330  -27.1820 O   0  0  0  0  0  0  0  0  0  0  0  0
   -1.6130   24.9260  -27.0580 C   0  0  1  0  0  0  0  0  0  0  0  0
   -1.7010   25.5830  -28.4160 C   0  0  0  0  0  0  0  0  0  0  0  0
   -0.8670   26.4780  -28.7240 O   0  0  0  0  0  0  0  0  0  0  0  0
   -2.7190   25.2720  -29.3110 O   0  0  0  0  0  0  0  0  0  0  0  0
   -2.5500   25.6200  -26.0070 C   0  0  0  0  0  0  0  0  0  0  0  0
   -1.7570   26.5510  -25.0820 C   0  0  2  0  0  0  0  0  0  0  0  0
   -1.1760   27.5890  -25.8300 O   0  0  0  0  0  0  0  0  0  0  0  0
   -0.6690   25.7280  -24.3550 C   0  0  2  0  0  0  0  0  0  0  0  0
    0.2830   26.6360  -23.6920 N   0  0  0  0  0  0  0  0  0  0  0  0
    1.2030   27.4660  -24.4230 C   0  0  0  0  0  0  0  0  0  0  0  0
    2.2480   28.2430  -23.6840 C   0  0  0  0  0  0  0  0  0  0  0  0
    1.1350   27.5570  -25.6840 O   0  0  0  0  0  0  0  0  0  0  0  0
   -0.0180   24.6710  -25.3240 C   0  0  2  0  0  0  0  0  0  0  0  0
    1.4840   24.2820  -25.1130 C   0  0  2  0  0  0  0  0  0  0  0  0
    2.0360   24.9420  -24.0030 O   0  0  0  0  0  0  0  0  0  0  0  0
    2.4020   24.4070  -26.3640 C   0  0  2  0  0  0  0  0  0  0  0  0
    2.5160   25.7690  -26.7000 O   0  0  0  0  0  0  0  0  0  0  0  0
    1.8990   23.6260  -27.5870 C   0  0  0  0  0  0  0  0  0  0  0  0
    1.3900   24.5070  -28.5530 O   0  0  0  0  0  0  0  0  0  0  0  0
   -0.2420   25.0260  -26.6800 O   0  0  0  0  0  0  0  0  0  0  0  0
   -3.3700   22.5370  -28.8930 C   0  0  0  0  0  0  0  0  0  0  0  0
   -4.6030   22.9880  -28.1510 C   0  0  0  0  0  0  0  0  0  0  0  0
   -5.6960   22.9160  -29.0020 F   0  0  0  0  0  0  0  0  0  0  0  0
   -4.4540   24.2950  -27.6970 F   0  0  0  0  0  0  0  0  0  0  0  0
   -3.5040   21.8870  -30.1300 C   0  0  0  0  0  0  0  0  0  0  0  0
   -2.0160   21.1630  -33.2500 N   0  0  0  0  0  0  0  0  0  0  0  0
   -2.3620   20.3380  -34.2290 N   0  0  0  0  0  0  0  0  0  0  0  0
   -7.1840   14.7319  -33.7138 H   0  0  0  0  0  0  0  0  0  0  0  0
   -7.4097   16.1037  -34.8513 H   0  0  0  0  0  0  0  0  0  0  0  0
   -5.8683   15.1813  -34.8513 H   0  0  0  0  0  0  0  0  0  0  0  0
   -8.0555   17.1957  -31.4753 H   0  0  0  0  0  0  0  0  0  0  0  0
   -8.8551   19.5240  -31.0885 H   0  0  0  0  0  0  0  0  0  0  0  0
   -7.8667   21.4133  -32.3847 H   0  0  0  0  0  0  0  0  0  0  0  0
   -6.1064   20.9701  -34.0901 H   0  0  0  0  0  0  0  0  0  0  0  0
   -3.6839   17.3334  -33.8060 H   0  0  0  0  0  0  0  0  0  0  0  0
   -3.1849   18.0835  -35.3582 H   0  0  0  0  0  0  0  0  0  0  0  0
   -3.7997   19.0435  -31.5816 H   0  0  0  0  0  0  0  0  0  0  0  0
   -0.2088   21.3751  -30.8703 H   0  0  0  0  0  0  0  0  0  0  0  0
    0.0536   22.6028  -28.7251 H   0  0  0  0  0  0  0  0  0  0  0  0
   -3.3119   26.2081  -26.5395 H   0  0  0  0  0  0  0  0  0  0  0  0
   -3.0206   24.8386  -25.3923 H   0  0  0  0  0  0  0  0  0  0  0  0
   -2.4296   27.0002  -24.3364 H   0  0  0  0  0  0  0  0  0  0  0  0
   -0.7630   27.1680  -26.6320 H   0  0  0  0  0  0  0  0  0  0  0  0
   -1.1183   25.1249  -23.5523 H   0  0  0  0  0  0  0  0  0  0  0  0
    0.3810   26.6150  -22.6580 H   0  0  0  0  0  0  0  0  0  0  0  0
    2.0931   28.1279  -22.6011 H   0  0  0  0  0  0  0  0  0  0  0  0
    3.2452   27.8652  -23.9540 H   0  0  0  0  0  0  0  0  0  0  0  0
    2.1734   29.3067  -23.9540 H   0  0  0  0  0  0  0  0  0  0  0  0
   -0.5493   23.7497  -25.0430 H   0  0  0  0  0  0  0  0  0  0  0  0
    1.4522   23.2009  -24.9126 H   0  0  0  0  0  0  0  0  0  0  0  0
    1.7630   24.4390  -23.1920 H   0  0  0  0  0  0  0  0  0  0  0  0
    3.3736   23.9668  -26.0951 H   0  0  0  0  0  0  0  0  0  0  0  0
    1.6300   26.0580  -27.0490 H   0  0  0  0  0  0  0  0  0  0  0  0
    2.7330   23.0548  -28.0207 H   0  0  0  0  0  0  0  0  0  0  0  0
    1.0980   22.9422  -27.2696 H   0  0  0  0  0  0  0  0  0  0  0  0
    0.8860   25.2120  -28.0590 H   0  0  0  0  0  0  0  0  0  0  0  0
   -4.7555   22.3317  -27.2815 H   0  0  0  0  0  0  0  0  0  0  0  0
   -4.5083   21.7096  -30.5422 H   0  0  0  0  0  0  0  0  0  0  0  0
  1  2  1  0
  2  3  1  0
  3  4  2  0
  4  5  1  0
  5  6  2  0
  6  7  1  0
  7  8  2  0
  8  9  1  0
  9 10  1  0
 10 11  1  0
 11 12  2  0
 12 13  1  0
 13 14  1  0
 14 15  2  0
 15 16  1  0
 16 17  2  0
 17 18  1  0
 19 18  1  6
 19 20  1  0
 20 21  2  0
 20 22  1  0
 19 23  1  0
 23 24  1  0
 24 25  1  0
 24 26  1  0
 26 27  1  0
 27 28  1  0
 28 29  1  0
 28 30  2  0
 26 31  1  0
 31 32  1  0
 32 33  1  0
 32 34  1  0
 34 35  1  0
 34 36  1  0
 36 37  1  0
 31 38  1  0
 17 39  1  0
 39 40  1  0
 40 41  1  0
 40 42  1  0
 39 43  2  0
 13 44  1  0
 44 45  2  0
  8  3  1  0
 45 11  1  0
 43 14  1  0
 38 19  1  0
  1 46  1  0
  1 47  1  0
  1 48  1  0
  4 49  1  0
  5 50  1  0
  6 51  1  0
  7 52  1  0
 10 53  1  0
 10 54  1  0
 12 55  1  0
 15 56  1  0
 16 57  1  0
 23 58  1  0
 23 59  1  0
 24 60  1  1
 25 61  1  0
 26 62  1  1
 27 63  1  0
 29 64  1  0
 29 65  1  0
 29 66  1  0
 31 67  1  1
 32 68  1  1
 33 69  1  0
 34 70  1  1
 35 71  1  0
 36 72  1  0
 36 73  1  0
 37 74  1  0
 40 75  1  0
 43 76  1  0
M  CHG  1  22  -1
M  END
>  <UniqueID>  (47) 
45

>  <SMILES>  (47) 
COc1ccccc1OCc1cn(-c2ccc(O[C@@]3(C(=O)[O-])C[C@H](O)C(NC(C)=O)C(C(O)C(O)CO)O3)c(C(F)F)c2)nn1

>  <Energy>  (47) 
139.58387916172262

>  <Genealogy>  (47) 
COc1ccccc1OCc1cn(-c2ccc(OC3(C(=O)[O-])CC(O)C(NC(C)=O)C(C(O)C(O)CO)O3)c(C(F)F)c2)nn1 (protonated)
COc1ccccc1OCc1cn(-c2ccc(O[C@@]3(C(=O)[O-])C[C@H](O)C(NC(C)=O)C(C(O)C(O)CO)O3)c(C(F)F)c2)nn1 (chirality)
COc1ccccc1OCc1cn(-c2ccc(O[C@@]3(C(=O)[O-])C[C@H](O)C(NC(C)=O)C(C(O)C(O)CO)O3)c(C(F)F)c2)nn1 (3D coordinates assigned)
COc1ccccc1OCc1cn(-c2ccc(O[C@@]3(C(=O)[O-])C[C@H](O)C(NC(C)=O)C(C(O)C(O)CO)O3)c(C(F)F)c2)nn1 (nonaromatic ring conformer: 139.58387916172262 kcal/mol)

>  <smiles>  (47) 
COc1ccccc1OCc1cn(-c2ccc(OC3(C(=O)O)CC(O)C(NC(C)=O)C(C(O)C(O)CO)O3)c(C(F)F)c2)nn1

>  <score_type>  (47) 
oracle

>  <origin>  (47) 
adg

>  <m_score__min__energy>  (47) 
-9.5299999999999994

>  <m_primary>  (47) 
energy

$$$$
47:0
     RDKit          3D

 55 58  0  0  0  0  0  0  0  0999 V2000
   -1.2390   26.7800  -24.3320 C   0  0  0  0  0  0  0  0  0  0  0  0
   -1.2700   25.7700  -25.4020 N   0  0  0  0  0  0  0  0  0  0  0  0
   -0.2770   24.7070  -25.1640 C   0  0  0  0  0  0  0  0  0  0  0  0
   -1.1740   26.3580  -26.7580 C   0  0  0  0  0  0  0  0  0  0  0  0
   -1.0900   25.3080  -27.8990 C   0  0  0  0  0  0  0  0  0  0  0  0
   -2.4040   24.7550  -28.3340 N   0  0  0  0  0  0  0  0  0  0  0  0
   -3.0300   23.8520  -27.3420 C   0  0  0  0  0  0  0  0  0  0  0  0
   -2.4380   22.4670  -27.4150 C   0  0  0  0  0  0  0  0  0  0  0  0
   -1.0650   22.2610  -27.2190 C   0  0  0  0  0  0  0  0  0  0  0  0
   -0.5510   20.9620  -27.2730 C   0  0  0  0  0  0  0  0  0  0  0  0
   -1.3790   19.9100  -27.5130 N   0  0  0  0  0  0  0  0  0  0  0  0
   -2.7140   20.0820  -27.7080 C   0  0  0  0  0  0  0  0  0  0  0  0
   -3.2680   21.3640  -27.6660 C   0  0  0  0  0  0  0  0  0  0  0  0
   -2.3860   24.1390  -29.6800 C   0  0  0  0  0  0  0  0  0  0  0  0
   -3.7770   23.7940  -30.1460 C   0  0  0  0  0  0  0  0  0  0  0  0
   -4.8080   24.7450  -30.0790 C   0  0  0  0  0  0  0  0  0  0  0  0
   -6.1070   24.4060  -30.4670 C   0  0  0  0  0  0  0  0  0  0  0  0
   -6.3920   23.1120  -30.9250 C   0  0  0  0  0  0  0  0  0  0  0  0
   -7.6890   22.7560  -31.3120 C   0  0  0  0  0  0  0  0  0  0  0  0
   -7.9510   21.4560  -31.7620 C   0  0  0  0  0  0  0  0  0  0  0  0
   -9.2440   21.0780  -32.1580 C   0  0  0  0  0  0  0  0  0  0  0  0
   -9.4850   19.7740  -32.6050 C   0  0  0  0  0  0  0  0  0  0  0  0
   -8.4430   18.8440  -32.6580 C   0  0  0  0  0  0  0  0  0  0  0  0
   -7.1520   19.2120  -32.2650 C   0  0  0  0  0  0  0  0  0  0  0  0
   -6.8930   20.5180  -31.8160 C   0  0  0  0  0  0  0  0  0  0  0  0
   -5.6340   20.8840  -31.4340 N   0  0  0  0  0  0  0  0  0  0  0  0
   -5.3610   22.1470  -30.9940 C   0  0  0  0  0  0  0  0  0  0  0  0
   -4.0590   22.4970  -30.6020 C   0  0  0  0  0  0  0  0  0  0  0  0
   -1.2544   26.2780  -23.3534 H   0  0  0  0  0  0  0  0  0  0  0  0
   -0.3220   27.3809  -24.4214 H   0  0  0  0  0  0  0  0  0  0  0  0
   -2.1174   27.4360  -24.4214 H   0  0  0  0  0  0  0  0  0  0  0  0
   -0.1443   24.5649  -24.0813 H   0  0  0  0  0  0  0  0  0  0  0  0
   -0.6292   23.7683  -25.6165 H   0  0  0  0  0  0  0  0  0  0  0  0
    0.6835   24.9945  -25.6165 H   0  0  0  0  0  0  0  0  0  0  0  0
   -2.0636   26.9824  -26.9277 H   0  0  0  0  0  0  0  0  0  0  0  0
   -0.2382   26.9354  -26.7882 H   0  0  0  0  0  0  0  0  0  0  0  0
   -0.6138   25.7843  -28.7687 H   0  0  0  0  0  0  0  0  0  0  0  0
   -0.5130   24.4608  -27.4999 H   0  0  0  0  0  0  0  0  0  0  0  0
   -2.8670   24.2591  -26.3332 H   0  0  0  0  0  0  0  0  0  0  0  0
   -4.1053   23.7832  -27.5636 H   0  0  0  0  0  0  0  0  0  0  0  0
   -0.3982   23.1139  -27.0245 H   0  0  0  0  0  0  0  0  0  0  0  0
    0.5249   20.7905  -27.1211 H   0  0  0  0  0  0  0  0  0  0  0  0
   -3.3581   19.2110  -27.8990 H   0  0  0  0  0  0  0  0  0  0  0  0
   -4.3464   21.5074  -27.8285 H   0  0  0  0  0  0  0  0  0  0  0  0
   -1.9356   24.8468  -30.3914 H   0  0  0  0  0  0  0  0  0  0  0  0
   -1.7984   23.2106  -29.6278 H   0  0  0  0  0  0  0  0  0  0  0  0
   -4.5921   25.7619  -29.7193 H   0  0  0  0  0  0  0  0  0  0  0  0
   -6.9088   25.1572  -30.4129 H   0  0  0  0  0  0  0  0  0  0  0  0
   -8.5013   23.4961  -31.2628 H   0  0  0  0  0  0  0  0  0  0  0  0
  -10.0671   21.8065  -32.1169 H   0  0  0  0  0  0  0  0  0  0  0  0
  -10.4983   19.4798  -32.9158 H   0  0  0  0  0  0  0  0  0  0  0  0
   -8.6386   17.8202  -33.0096 H   0  0  0  0  0  0  0  0  0  0  0  0
   -6.3359   18.4757  -32.3076 H   0  0  0  0  0  0  0  0  0  0  0  0
   -4.8620   20.1790  -31.4800 H   0  0  0  0  0  0  0  0  0  0  0  0
   -3.2540   21.7491  -30.6527 H   0  0  0  0  0  0  0  0  0  0  0  0
  1  2  1  0
  2  3  1  0
  2  4  1  0
  4  5  1  0
  5  6  1  0
  6  7  1  0
  7  8  1  0
  8  9  2  0
  9 10  1  0
 10 11  2  0
 11 12  1  0
 12 13  2  0
  6 14  1  0
 14 15  1  0
 15 16  2  0
 16 17  1  0
 17 18  2  0
 18 19  1  0
 19 20  2  0
 20 21  1  0
 21 22  2  0
 22 23  1  0
 23 24  2  0
 24 25  1  0
 25 26  2  0
 26 27  1  0
 27 28  2  0
 13  8  1  0
 28 15  1  0
 27 18  1  0
 25 20  1  0
  1 29  1  0
  1 30  1  0
  1 31  1  0
  3 32  1  0
  3 33  1  0
  3 34  1  0
  4 35  1  0
  4 36  1  0
  5 37  1  0
  5 38  1  0
  7 39  1  0
  7 40  1  0
  9 41  1  0
 10 42  1  0
 12 43  1  0
 13 44  1  0
 14 45  1  0
 14 46  1  0
 16 47  1  0
 17 48  1  0
 19 49  1  0
 21 50  1  0
 22 51  1  0
 23 52  1  0
 24 53  1  0
 26 54  1  0
 28 55  1  0
M  CHG  1  26   1
M  END
>  <UniqueID>  (48) 
46

>  <SMILES>  (48) 
CN(C)CCN(Cc1ccncc1)Cc1ccc2cc3ccccc3[nH+]c2c1

>  <Energy>  (48) 
72.00395503231539

>  <Genealogy>  (48) 
CN(C)CCN(Cc1ccncc1)Cc1ccc2cc3ccccc3[nH+]c2c1 (protonated)
CN(C)CCN(Cc1ccncc1)Cc1ccc2cc3ccccc3[nH+]c2c1 (3D coordinates assigned)
CN(C)CCN(Cc1ccncc1)Cc1ccc2cc3ccccc3[nH+]c2c1 (optimized conformer: 72.00395503231539 kcal/mol)

>  <smiles>  (48) 
CN(C)CCN(Cc1ccncc1)Cc1ccc2cc3ccccc3nc2c1

>  <score_type>  (48) 
oracle

>  <origin>  (48) 
adg

>  <m_score__min__energy>  (48) 
-7.79

>  <m_primary>  (48) 
energy

$$$$
48:0
     RDKit          3D

 31 33  0  0  0  0  0  0  0  0999 V2000
   -5.7990   16.2960  -33.8490 C   0  0  0  0  0  0  0  0  0  0  0  0
   -5.0870   17.6830  -34.7860 S   0  0  0  0  0  0  0  0  0  0  0  0
   -5.9220   18.9280  -33.7980 C   0  0  0  0  0  0  0  0  0  0  0  0
   -7.2430   18.7920  -33.4690 N   0  0  0  0  0  0  0  0  0  0  0  0
   -7.8850   19.7320  -32.6990 C   0  0  0  0  0  0  0  0  0  0  0  0
   -9.3200   19.5420  -32.3240 C   0  0  0  0  0  0  0  0  0  0  0  0
   -7.2070   20.8280  -32.2390 N   0  0  0  0  0  0  0  0  0  0  0  0
   -5.9040   20.9680  -32.5850 C   0  0  0  0  0  0  0  0  0  0  0  0
   -5.2520   20.0520  -33.3350 C   0  0  0  0  0  0  0  0  0  0  0  0
   -3.9590   20.3940  -33.4810 N   0  0  0  0  0  0  0  0  0  0  0  0
   -3.8750   21.5570  -32.7780 C   0  0  0  0  0  0  0  0  0  0  0  0
   -5.0540   21.9380  -32.2160 N   0  0  0  0  0  0  0  0  0  0  0  0
   -5.3030   23.1010  -31.4030 C   0  0  0  0  0  0  0  0  0  0  0  0
   -6.6190   23.5490  -31.1890 C   0  0  0  0  0  0  0  0  0  0  0  0
   -6.8630   24.6750  -30.3970 C   0  0  0  0  0  0  0  0  0  0  0  0
   -5.8000   25.3620  -29.8070 C   0  0  0  0  0  0  0  0  0  0  0  0
   -4.4900   24.9220  -30.0060 C   0  0  0  0  0  0  0  0  0  0  0  0
   -4.2390   23.7960  -30.7970 C   0  0  0  0  0  0  0  0  0  0  0  0
   -5.6985   16.4917  -32.7712 H   0  0  0  0  0  0  0  0  0  0  0  0
   -6.8635   16.1889  -34.1046 H   0  0  0  0  0  0  0  0  0  0  0  0
   -5.2655   15.3686  -34.1046 H   0  0  0  0  0  0  0  0  0  0  0  0
   -7.7660   17.9500  -33.8040 H   0  0  0  0  0  0  0  0  0  0  0  0
   -9.4140   19.5295  -31.2281 H   0  0  0  0  0  0  0  0  0  0  0  0
   -9.9187   20.3687  -32.7340 H   0  0  0  0  0  0  0  0  0  0  0  0
   -9.6829   18.5880  -32.7340 H   0  0  0  0  0  0  0  0  0  0  0  0
   -2.9436   22.1330  -32.6744 H   0  0  0  0  0  0  0  0  0  0  0  0
   -7.4613   23.0102  -31.6475 H   0  0  0  0  0  0  0  0  0  0  0  0
   -7.8951   25.0207  -30.2382 H   0  0  0  0  0  0  0  0  0  0  0  0
   -5.9946   26.2489  -29.1861 H   0  0  0  0  0  0  0  0  0  0  0  0
   -3.6531   25.4623  -29.5395 H   0  0  0  0  0  0  0  0  0  0  0  0
   -3.2050   23.4517  -30.9464 H   0  0  0  0  0  0  0  0  0  0  0  0
  1  2  1  0
  2  3  1  0
  3  4  2  0
  4  5  1  0
  5  6  1  0
  5  7  2  0
  7  8  1  0
  8  9  2  0
  9 10  1  0
 10 11  2  0
 11 12  1  0
 12 13  1  0
 13 14  2  0
 14 15  1  0
 15 16  2  0
 16 17  1  0
 17 18  2  0
  9  3  1  0
 18 13  1  0
 12  8  1  0
  1 19  1  0
  1 20  1  0
  1 21  1  0
  4 22  1  0
  6 23  1  0
  6 24  1  0
  6 25  1  0
 11 26  1  0
 14 27  1  0
 15 28  1  0
 16 29  1  0
 17 30  1  0
 18 31  1  0
M  CHG  1   4   1
M  END
>  <UniqueID>  (49) 
47

>  <SMILES>  (49) 
CSc1[nH+]c(C)nc2c1ncn2-c1ccccc1

>  <Energy>  (49) 
72.1619649655857

>  <Genealogy>  (49) 
CSc1[nH+]c(C)nc2c1ncn2-c1ccccc1 (protonated)
CSc1[nH+]c(C)nc2c1ncn2-c1ccccc1 (3D coordinates assigned)
CSc1[nH+]c(C)nc2c1ncn2-c1ccccc1 (optimized conformer: 72.1619649655857 kcal/mol)

>  <smiles>  (49) 
CSc1nc(C)nc2c1ncn2-c1ccccc1

>  <score_type>  (49) 
oracle

>  <origin>  (49) 
adg

>  <m_score__min__energy>  (49) 
-6.5199999999999996

>  <m_primary>  (49) 
energy

$$$$
49:0
     RDKit          3D

 21 22  0  0  0  0  0  0  0  0999 V2000
   -9.2318   20.0487  -32.6862 H   0  0  0  0  0  0  0  0  0  0  0  0
   -8.4420   20.7280  -32.3330 C   0  0  0  0  0  0  0  0  0  0  0  0
   -7.1160   20.5140  -32.7130 C   0  0  0  0  0  0  0  0  0  0  0  0
   -6.8620   19.6655  -33.3654 H   0  0  0  0  0  0  0  0  0  0  0  0
   -6.1100   21.3760  -32.2660 C   0  0  0  0  0  0  0  0  0  0  0  0
   -5.0670   21.2023  -32.5694 H   0  0  0  0  0  0  0  0  0  0  0  0
   -6.4230   22.4650  -31.4300 C   0  0  0  0  0  0  0  0  0  0  0  0
   -5.3520   23.3750  -30.9610 C   0  0  0  0  0  0  0  0  0  0  0  0
   -5.2210   24.6550  -31.3840 N   0  0  0  0  0  0  0  0  0  0  0  0
   -4.1900   25.2990  -30.8380 N   0  0  0  0  0  0  0  0  0  0  0  0
   -3.4890   24.5370  -29.9750 C   0  0  0  0  0  0  0  0  0  0  0  0
   -2.4480   24.9810  -29.3390 N   0  0  0  0  0  0  0  0  0  0  0  0
   -1.3190   24.1480  -28.9410 C   0  0  0  0  0  0  0  0  0  0  0  0
   -1.2629   24.1066  -27.8432 H   0  0  0  0  0  0  0  0  0  0  0  0
   -1.4545   23.1318  -29.3398 H   0  0  0  0  0  0  0  0  0  0  0  0
   -0.3880   24.5773  -29.3398 H   0  0  0  0  0  0  0  0  0  0  0  0
   -4.1400   22.9840  -29.8490 S   0  0  0  0  0  0  0  0  0  0  0  0
   -7.7640   22.6700  -31.0540 C   0  0  0  0  0  0  0  0  0  0  0  0
   -8.0253   23.5164  -30.4018 H   0  0  0  0  0  0  0  0  0  0  0  0
   -8.7660   21.8050  -31.5040 C   0  0  0  0  0  0  0  0  0  0  0  0
   -9.8112   21.9726  -31.2049 H   0  0  0  0  0  0  0  0  0  0  0  0
  1  2  1  0
  2  3  2  0
  3  4  1  0
  3  5  1  0
  5  6  1  0
  5  7  2  0
  7  8  1  0
  8  9  2  0
  9 10  1  0
 10 11  1  0
 11 12  2  0
 12 13  1  0
 13 14  1  0
 13 15  1  0
 13 16  1  0
 11 17  1  0
  7 18  1  0
 18 19  1  0
 18 20  2  0
 20 21  1  0
 20  2  1  0
 17  8  1  0
M  CHG  1  10  -1
M  END
>  <UniqueID>  (50) 
48

>  <SMILES>  (50) 
C/N=c1/[n-]nc(-c2ccccc2)s1

>  <Energy>  (50) 
55.8741690155311

>  <Genealogy>  (50) 
CN=c1[n-]nc(-c2ccccc2)s1 (protonated)
C/N=c1/[n-]nc(-c2ccccc2)s1 (cis-trans isomerization)
C/N=c1/[n-]nc(-c2ccccc2)s1 (3D coordinates assigned)
C/N=c1/[n-]nc(-c2ccccc2)s1 (optimized conformer: 55.8741690155311 kcal/mol)

>  <smiles>  (50) 
CN=c1[nH]nc(-c2ccccc2)s1

>  <score_type>  (50) 
oracle

>  <origin>  (50) 
adg

>  <m_score__min__energy>  (50) 
-8.2200000000000006

>  <m_primary>  (50) 
energy

$$$$
