0:0
     RDKit          3D

 85 90  0  0  0  0  0  0  0  0999 V2000
    1.2810   15.0420  -36.9220 C   0  0  0  0  0  0  0  0  0  0  0  0
   -0.1310   15.2190  -37.4720 C   0  0  0  0  0  0  0  0  0  0  0  0
   -0.8940   16.0940  -36.6420 O   0  0  0  0  0  0  0  0  0  0  0  0
   -0.3920   17.2780  -36.0960 C   0  0  0  0  0  0  0  0  0  0  0  0
    0.2770   18.0710  -36.8150 O   0  0  0  0  0  0  0  0  0  0  0  0
   -0.7230   17.6690  -34.7010 C   0  0  0  0  0  0  0  0  0  0  0  0
   -0.8120   16.7530  -33.6900 C   0  0  0  0  0  0  0  0  0  0  0  0
   -0.5700   15.2710  -33.9260 C   0  0  0  0  0  0  0  0  0  0  0  0
   -2.1110   14.3200  -33.7060 S   0  0  0  0  0  0  0  0  0  0  0  0
   -3.1690   15.7240  -34.0620 C   0  0  0  0  0  0  0  0  0  0  0  0
   -3.1690   16.3820  -35.2320 N   0  0  0  0  0  0  0  0  0  0  0  0
   -4.1380   17.2820  -35.1980 N   0  0  0  0  0  0  0  0  0  0  0  0
   -4.7110   17.1700  -33.9820 C   0  0  0  0  0  0  0  0  0  0  0  0
   -5.8750   17.9670  -33.5650 C   0  0  0  0  0  0  0  0  0  0  0  0
   -5.9880   19.3130  -33.9450 C   0  0  0  0  0  0  0  0  0  0  0  0
   -7.0840   20.0710  -33.5250 C   0  0  0  0  0  0  0  0  0  0  0  0
   -8.0740   19.4950  -32.7080 C   0  0  0  0  0  0  0  0  0  0  0  0
   -9.2690   20.2940  -32.2860 C   0  0  0  0  0  0  0  0  0  0  0  0
   -7.9760   18.1380  -32.3560 C   0  0  0  0  0  0  0  0  0  0  0  0
   -6.8820   17.3820  -32.7840 C   0  0  0  0  0  0  0  0  0  0  0  0
   -4.1250   16.2020  -33.2410 N   0  0  0  0  0  0  0  0  0  0  0  0
   -4.5740   15.6290  -31.9700 C   0  0  0  0  0  0  0  0  0  0  0  0
   -4.7620   14.1220  -32.0990 C   0  0  0  0  0  0  0  0  0  0  0  0
   -1.1620   17.1370  -32.2520 C   0  0  1  0  0  0  0  0  0  0  0  0
   -0.0030   16.8720  -31.3450 C   0  0  0  0  0  0  0  0  0  0  0  0
    0.4700   17.9690  -30.7810 C   0  0  0  0  0  0  0  0  0  0  0  0
   -0.2600   19.1820  -31.2240 C   0  0  0  0  0  0  0  0  0  0  0  0
   -1.4790   18.6220  -31.9810 C   0  0  1  0  0  0  0  0  0  0  0  0
   -1.9330   19.3810  -33.2410 C   0  0  1  0  0  0  0  0  0  0  0  0
   -2.2550   20.8390  -32.9890 C   0  0  0  0  0  0  0  0  0  0  0  0
   -1.3740   21.5800  -32.4770 O   0  0  0  0  0  0  0  0  0  0  0  0
   -3.5620   21.3560  -33.2840 N   0  0  0  0  0  0  0  0  0  0  0  0
   -4.2590   22.1470  -32.5270 C   0  0  0  0  0  0  0  0  0  0  0  0
   -3.7250   22.9690  -31.5940 N   0  0  0  0  0  0  0  0  0  0  0  0
   -4.8150   23.5480  -31.0550 C   0  0  0  0  0  0  0  0  0  0  0  0
   -4.7710   24.5280  -29.9280 C   0  0  0  0  0  0  0  0  0  0  0  0
   -5.9470   23.0550  -31.6680 C   0  0  0  0  0  0  0  0  0  0  0  0
   -7.3640   23.4070  -31.3640 C   0  0  0  0  0  0  0  0  0  0  0  0
   -5.5710   22.1900  -32.5750 O   0  0  0  0  0  0  0  0  0  0  0  0
   -1.0300   19.1440  -34.4820 C   0  0  1  0  0  0  0  0  0  0  0  0
    0.1640   20.1080  -34.6380 C   0  0  0  0  0  0  0  0  0  0  0  0
   -0.1110   21.3680  -35.2160 C   0  0  0  0  0  0  0  0  0  0  0  0
    0.8860   22.3330  -35.3660 C   0  0  0  0  0  0  0  0  0  0  0  0
    2.1890   22.0560  -34.9660 C   0  0  0  0  0  0  0  0  0  0  0  0
    2.5010   20.8090  -34.4260 C   0  0  0  0  0  0  0  0  0  0  0  0
    1.5130   19.8290  -34.2640 C   0  0  0  0  0  0  0  0  0  0  0  0
    2.0660   18.2920  -33.6180 Cl  0  0  0  0  0  0  0  0  0  0  0  0
    1.2494   15.0460  -35.8225 H   0  0  0  0  0  0  0  0  0  0  0  0
    1.6941   14.0850  -37.2735 H   0  0  0  0  0  0  0  0  0  0  0  0
    1.9176   15.8674  -37.2735 H   0  0  0  0  0  0  0  0  0  0  0  0
   -0.0725   15.6434  -38.4851 H   0  0  0  0  0  0  0  0  0  0  0  0
   -0.6252   14.2365  -37.4954 H   0  0  0  0  0  0  0  0  0  0  0  0
   -0.1993   15.1249  -34.9513 H   0  0  0  0  0  0  0  0  0  0  0  0
    0.1717   14.9142  -33.1962 H   0  0  0  0  0  0  0  0  0  0  0  0
   -2.5450   16.2100  -36.0540 H   0  0  0  0  0  0  0  0  0  0  0  0
   -5.2120   19.7724  -34.5749 H   0  0  0  0  0  0  0  0  0  0  0  0
   -7.1732   21.1228  -33.8345 H   0  0  0  0  0  0  0  0  0  0  0  0
   -9.3186   20.3272  -31.1876 H   0  0  0  0  0  0  0  0  0  0  0  0
   -9.1837   21.3174  -32.6803 H   0  0  0  0  0  0  0  0  0  0  0  0
  -10.1821   19.8241  -32.6803 H   0  0  0  0  0  0  0  0  0  0  0  0
   -8.7611   17.6709  -31.7432 H   0  0  0  0  0  0  0  0  0  0  0  0
   -6.8100   16.3201  -32.5063 H   0  0  0  0  0  0  0  0  0  0  0  0
   -3.8214   15.8346  -31.1946 H   0  0  0  0  0  0  0  0  0  0  0  0
   -5.5367   16.0848  -31.6953 H   0  0  0  0  0  0  0  0  0  0  0  0
   -4.8181   13.6724  -31.0967 H   0  0  0  0  0  0  0  0  0  0  0  0
   -5.6930   13.9142  -32.6467 H   0  0  0  0  0  0  0  0  0  0  0  0
   -3.9106   13.6918  -32.6467 H   0  0  0  0  0  0  0  0  0  0  0  0
   -2.0640   16.5333  -32.0732 H   0  0  0  0  0  0  0  0  0  0  0  0
    0.4121   15.8691  -31.1662 H   0  0  0  0  0  0  0  0  0  0  0  0
    1.3067   17.9815  -30.0670 H   0  0  0  0  0  0  0  0  0  0  0  0
   -0.5781   19.7850  -30.3607 H   0  0  0  0  0  0  0  0  0  0  0  0
    0.3578   19.8468  -31.8456 H   0  0  0  0  0  0  0  0  0  0  0  0
   -2.3666   18.7562  -31.3453 H   0  0  0  0  0  0  0  0  0  0  0  0
   -2.8953   18.9211  -33.5104 H   0  0  0  0  0  0  0  0  0  0  0  0
   -4.7953   23.9870  -28.9705 H   0  0  0  0  0  0  0  0  0  0  0  0
   -3.8454   25.1189  -29.9919 H   0  0  0  0  0  0  0  0  0  0  0  0
   -5.6399   25.1995  -29.9919 H   0  0  0  0  0  0  0  0  0  0  0  0
   -7.5072   23.4426  -30.2739 H   0  0  0  0  0  0  0  0  0  0  0  0
   -7.5984   24.3907  -31.7969 H   0  0  0  0  0  0  0  0  0  0  0  0
   -8.0315   22.6474  -31.7969 H   0  0  0  0  0  0  0  0  0  0  0  0
   -1.6439   19.4418  -35.3448 H   0  0  0  0  0  0  0  0  0  0  0  0
   -1.1330   21.5930  -35.5550 H   0  0  0  0  0  0  0  0  0  0  0  0
    0.6412   23.3133  -35.8009 H   0  0  0  0  0  0  0  0  0  0  0  0
    2.9727   22.8201  -35.0756 H   0  0  0  0  0  0  0  0  0  0  0  0
    3.5360   20.5919  -34.1233 H   0  0  0  0  0  0  0  0  0  0  0  0
  1  2  1  0
  2  3  1  0
  3  4  1  0
  4  5  2  0
  4  6  1  0
  6  7  2  0
  7  8  1  0
  8  9  1  0
  9 10  1  0
 10 11  2  0
 11 12  1  0
 12 13  2  0
 13 14  1  0
 14 15  2  0
 15 16  1  0
 16 17  2  0
 17 18  1  0
 17 19  1  0
 19 20  2  0
 13 21  1  0
 21 22  1  0
 22 23  1  0
  7 24  1  0
 24 25  1  0
 25 26  2  0
 26 27  1  0
 27 28  1  0
 28 29  1  0
 29 30  1  0
 30 31  2  0
 30 32  1  0
 32 33  2  3
 33 34  1  0
 34 35  1  0
 35 36  1  0
 35 37  2  0
 37 38  1  0
 37 39  1  0
 29 40  1  0
 40 41  1  0
 41 42  2  0
 42 43  1  0
 43 44  2  0
 44 45  1  0
 45 46  2  0
 46 47  1  0
 40  6  1  0
 46 41  1  0
 21 10  1  0
 28 24  1  0
 39 33  1  0
 20 14  1  0
  1 48  1  0
  1 49  1  0
  1 50  1  0
  2 51  1  0
  2 52  1  0
  8 53  1  0
  8 54  1  0
 11 55  1  0
 15 56  1  0
 16 57  1  0
 18 58  1  0
 18 59  1  0
 18 60  1  0
 19 61  1  0
 20 62  1  0
 22 63  1  0
 22 64  1  0
 23 65  1  0
 23 66  1  0
 23 67  1  0
 24 68  1  1
 25 69  1  0
 26 70  1  0
 27 71  1  0
 27 72  1  0
 28 73  1  1
 29 74  1  6
 36 75  1  0
 36 76  1  0
 36 77  1  0
 38 78  1  0
 38 79  1  0
 38 80  1  0
 40 81  1  6
 42 82  1  0
 43 83  1  0
 44 84  1  0
 45 85  1  0
M  CHG  2  11   1  34  -1
M  END
>  <UniqueID>  (1) 
1

>  <SMILES>  (1) 
CCOC(=O)C1=C(CSc2[nH+]nc(-c3ccc(C)cc3)n2CC)[C@H]2C=CC[C@H]2C(C(=O)N=c2[n-]c(C)c(C)o2)C1c1ccccc1Cl

>  <Energy>  (1) 
176.21351877081696

>  <Genealogy>  (1) 
CCOC(=O)C1=C(CSc2[nH+]nc(-c3ccc(C)cc3)n2CC)C2C=CCC2C(C(=O)N=c2[n-]c(C)c(C)o2)C1c1ccccc1Cl (protonated)
CCOC(=O)C1=C(CSc2[nH+]nc(-c3ccc(C)cc3)n2CC)[C@H]2C=CC[C@H]2C(C(=O)N=c2[n-]c(C)c(C)o2)C1c1ccccc1Cl (chirality)
CCOC(=O)C1=C(CSc2[nH+]nc(-c3ccc(C)cc3)n2CC)[C@H]2C=CC[C@H]2C(C(=O)N=c2[n-]c(C)c(C)o2)C1c1ccccc1Cl (3D coordinates assigned)
CCOC(=O)C1=C(CSc2[nH+]nc(-c3ccc(C)cc3)n2CC)[C@H]2C=CC[C@H]2C(C(=O)N=c2[n-]c(C)c(C)o2)C1c1ccccc1Cl (nonaromatic ring conformer: 176.21351877081696 kcal/mol)

>  <smiles>  (1) 
CCOC(=O)C1=C(CSc2nnc(-c3ccc(C)cc3)n2CC)C2C=CCC2C(C(=O)N=c2[nH]c(C)c(C)o2)C1c1ccccc1Cl

>  <score_type>  (1) 
oracle

>  <origin>  (1) 
adg

>  <m_score__min__energy>  (1) 
-11.74

>  <m_primary>  (1) 
energy

$$$$
1:0
     RDKit          3D

 46 47  0  0  0  0  0  0  0  0999 V2000
    0.6740   16.5880  -27.4730 C   0  0  0  0  0  0  0  0  0  0  0  0
   -0.0480   17.8300  -27.7610 N   0  0  0  0  0  0  0  0  0  0  0  0
    0.8450   18.8590  -28.3110 C   0  0  0  0  0  0  0  0  0  0  0  0
    0.2100   20.2470  -28.1880 C   0  0  0  0  0  0  0  0  0  0  0  0
   -1.0740   20.1480  -27.4810 N   0  0  0  0  0  0  0  0  0  0  0  0
   -1.4190   21.4150  -26.8220 C   0  0  0  0  0  0  0  0  0  0  0  0
   -2.0220   22.3780  -27.8110 C   0  0  0  0  0  0  0  0  0  0  0  0
   -3.1020   21.9910  -28.6130 C   0  0  0  0  0  0  0  0  0  0  0  0
   -3.6760   22.8960  -29.5080 C   0  0  0  0  0  0  0  0  0  0  0  0
   -3.1810   24.2100  -29.6090 C   0  0  0  0  0  0  0  0  0  0  0  0
   -3.7360   25.1550  -30.4880 O   0  0  0  0  0  0  0  0  0  0  0  0
   -5.1110   25.5400  -30.5290 C   0  0  0  0  0  0  0  0  0  0  0  0
   -5.9900   24.3530  -30.8220 C   0  0  0  0  0  0  0  0  0  0  0  0
   -5.9890   23.7740  -32.1020 C   0  0  0  0  0  0  0  0  0  0  0  0
   -6.7980   22.6680  -32.3770 C   0  0  0  0  0  0  0  0  0  0  0  0
   -7.6080   22.1260  -31.3740 C   0  0  0  0  0  0  0  0  0  0  0  0
   -7.6050   22.6890  -30.0950 C   0  0  0  0  0  0  0  0  0  0  0  0
   -6.7960   23.7950  -29.8160 C   0  0  0  0  0  0  0  0  0  0  0  0
   -2.0970   24.6050  -28.8090 C   0  0  0  0  0  0  0  0  0  0  0  0
   -1.6230   25.9210  -28.9320 O   0  0  0  0  0  0  0  0  0  0  0  0
   -0.8610   26.6000  -27.9400 C   0  0  0  0  0  0  0  0  0  0  0  0
   -1.5230   23.6850  -27.9090 C   0  0  0  0  0  0  0  0  0  0  0  0
    0.7522   16.4534  -26.3841 H   0  0  0  0  0  0  0  0  0  0  0  0
    0.1294   15.7377  -27.9094 H   0  0  0  0  0  0  0  0  0  0  0  0
    1.6824   16.6404  -27.9094 H   0  0  0  0  0  0  0  0  0  0  0  0
   -0.4220   18.1850  -26.8480 H   0  0  0  0  0  0  0  0  0  0  0  0
    1.7954   18.8461  -27.7573 H   0  0  0  0  0  0  0  0  0  0  0  0
    1.0210   18.6431  -29.3751 H   0  0  0  0  0  0  0  0  0  0  0  0
    0.8857   20.9088  -27.6263 H   0  0  0  0  0  0  0  0  0  0  0  0
    0.0390   20.6577  -29.1940 H   0  0  0  0  0  0  0  0  0  0  0  0
   -0.9670   19.4240  -26.7310 H   0  0  0  0  0  0  0  0  0  0  0  0
   -2.1448   21.2193  -26.0190 H   0  0  0  0  0  0  0  0  0  0  0  0
   -0.5032   21.8600  -26.4058 H   0  0  0  0  0  0  0  0  0  0  0  0
   -3.5006   20.9685  -28.5377 H   0  0  0  0  0  0  0  0  0  0  0  0
   -4.5204   22.5802  -30.1382 H   0  0  0  0  0  0  0  0  0  0  0  0
   -5.3949   25.9676  -29.5561 H   0  0  0  0  0  0  0  0  0  0  0  0
   -5.2452   26.2840  -31.3280 H   0  0  0  0  0  0  0  0  0  0  0  0
   -5.3483   24.1932  -32.8918 H   0  0  0  0  0  0  0  0  0  0  0  0
   -6.7976   22.2235  -33.3832 H   0  0  0  0  0  0  0  0  0  0  0  0
   -8.2468   21.2574  -31.5917 H   0  0  0  0  0  0  0  0  0  0  0  0
   -8.2406   22.2611  -29.3057 H   0  0  0  0  0  0  0  0  0  0  0  0
   -6.7908   24.2294  -28.8054 H   0  0  0  0  0  0  0  0  0  0  0  0
   -1.2044   26.2940  -26.9408 H   0  0  0  0  0  0  0  0  0  0  0  0
    0.2027   26.3448  -28.0563 H   0  0  0  0  0  0  0  0  0  0  0  0
   -0.9924   27.6859  -28.0563 H   0  0  0  0  0  0  0  0  0  0  0  0
   -0.6767   23.9945  -27.2782 H   0  0  0  0  0  0  0  0  0  0  0  0
  1  2  1  0
  2  3  1  0
  3  4  1  0
  4  5  1  0
  5  6  1  0
  6  7  1  0
  7  8  2  0
  8  9  1  0
  9 10  2  0
 10 11  1  0
 11 12  1  0
 12 13  1  0
 13 14  2  0
 14 15  1  0
 15 16  2  0
 16 17  1  0
 17 18  2  0
 10 19  1  0
 19 20  1  0
 20 21  1  0
 19 22  2  0
 22  7  1  0
 18 13  1  0
  1 23  1  0
  1 24  1  0
  1 25  1  0
  2 26  1  0
  3 27  1  0
  3 28  1  0
  4 29  1  0
  4 30  1  0
  5 31  1  0
  6 32  1  0
  6 33  1  0
  8 34  1  0
  9 35  1  0
 12 36  1  0
 12 37  1  0
 14 38  1  0
 15 39  1  0
 16 40  1  0
 17 41  1  0
 18 42  1  0
 21 43  1  0
 21 44  1  0
 21 45  1  0
 22 46  1  0
M  END
>  <UniqueID>  (2) 
2

>  <SMILES>  (2) 
CNCCNCc1ccc(OCc2ccccc2)c(OC)c1

>  <Energy>  (2) 
40.55779399434736

>  <Genealogy>  (2) 
CNCCNCc1ccc(OCc2ccccc2)c(OC)c1 (3D coordinates assigned)
CNCCNCc1ccc(OCc2ccccc2)c(OC)c1 (optimized conformer: 40.55779399434736 kcal/mol)

>  <smiles>  (2) 
CNCCNCc1ccc(OCc2ccccc2)c(OC)c1

>  <score_type>  (2) 
oracle

>  <origin>  (2) 
adg

>  <m_score__min__energy>  (2) 
-7.4500000000000002

>  <m_primary>  (2) 
energy

$$$$
2:0
     RDKit          3D

 46 49  0  0  0  0  0  0  0  0999 V2000
   -5.5410   17.8170  -35.5700 O   0  0  0  0  0  0  0  0  0  0  0  0
   -5.2560   17.6130  -34.1080 S   0  0  0  0  0  0  0  0  0  0  0  0
   -3.9540   18.2800  -33.7620 O   0  0  0  0  0  0  0  0  0  0  0  0
   -5.1700   15.8860  -33.7780 C   0  0  0  0  0  0  0  0  0  0  0  0
   -6.2030   15.0360  -34.1930 C   0  0  0  0  0  0  0  0  0  0  0  0
   -6.1120   13.6690  -33.9310 C   0  0  0  0  0  0  0  0  0  0  0  0
   -4.9980   13.1630  -33.2590 C   0  0  0  0  0  0  0  0  0  0  0  0
   -3.9890   14.0400  -32.8550 C   0  0  0  0  0  0  0  0  0  0  0  0
   -4.0930   15.3710  -33.1170 N   0  0  0  0  0  0  0  0  0  0  0  0
   -6.5190   18.3230  -33.1560 N   0  0  0  0  0  0  0  0  0  0  0  0
   -7.5800   17.6730  -32.6260 C   0  0  0  0  0  0  0  0  0  0  0  0
   -8.3740   18.5550  -31.9020 C   0  0  0  0  0  0  0  0  0  0  0  0
   -7.7500   19.7810  -32.0100 C   0  0  0  0  0  0  0  0  0  0  0  0
   -8.0990   21.0200  -31.4790 C   0  0  0  0  0  0  0  0  0  0  0  0
   -7.2680   22.1260  -31.7660 C   0  0  0  0  0  0  0  0  0  0  0  0
   -7.6160   23.4930  -31.2220 C   0  0  0  0  0  0  0  0  0  0  0  0
   -6.8120   23.8850  -30.0440 N   0  0  0  0  0  0  0  0  0  0  0  0
   -6.6470   25.3380  -29.8290 C   0  0  0  0  0  0  0  0  0  0  0  0
   -5.3520   25.9100  -30.4570 C   0  0  0  0  0  0  0  0  0  0  0  0
   -4.2690   24.9260  -30.6090 N   0  0  0  0  0  0  0  0  0  0  0  0
   -4.3420   23.8740  -29.5930 C   0  0  0  0  0  0  0  0  0  0  0  0
   -5.6240   23.0480  -29.7660 C   0  0  0  0  0  0  0  0  0  0  0  0
   -6.0930   21.9370  -32.5390 C   0  0  0  0  0  0  0  0  0  0  0  0
   -5.7690   20.6710  -33.0580 C   0  0  0  0  0  0  0  0  0  0  0  0
   -6.6280   19.6090  -32.7760 C   0  0  0  0  0  0  0  0  0  0  0  0
   -7.0782   15.4428  -34.7208 H   0  0  0  0  0  0  0  0  0  0  0  0
   -6.9163   12.9912  -34.2532 H   0  0  0  0  0  0  0  0  0  0  0  0
   -4.9159   12.0861  -33.0501 H   0  0  0  0  0  0  0  0  0  0  0  0
   -3.1072   13.6533  -32.3231 H   0  0  0  0  0  0  0  0  0  0  0  0
   -3.3250   16.0050  -32.8020 H   0  0  0  0  0  0  0  0  0  0  0  0
   -7.7854   16.5995  -32.7501 H   0  0  0  0  0  0  0  0  0  0  0  0
   -9.3022   18.3246  -31.3586 H   0  0  0  0  0  0  0  0  0  0  0  0
   -8.9966   21.1345  -30.8535 H   0  0  0  0  0  0  0  0  0  0  0  0
   -7.4524   24.2354  -32.0170 H   0  0  0  0  0  0  0  0  0  0  0  0
   -8.6659   23.4523  -30.8963 H   0  0  0  0  0  0  0  0  0  0  0  0
   -7.5089   25.8564  -30.2744 H   0  0  0  0  0  0  0  0  0  0  0  0
   -6.5800   25.4998  -28.7430 H   0  0  0  0  0  0  0  0  0  0  0  0
   -5.5982   26.3083  -31.4524 H   0  0  0  0  0  0  0  0  0  0  0  0
   -4.9817   26.6832  -29.7678 H   0  0  0  0  0  0  0  0  0  0  0  0
   -4.3320   24.4850  -31.5570 H   0  0  0  0  0  0  0  0  0  0  0  0
   -3.4688   23.2125  -29.6934 H   0  0  0  0  0  0  0  0  0  0  0  0
   -4.3513   24.3411  -28.5971 H   0  0  0  0  0  0  0  0  0  0  0  0
   -5.4819   22.3499  -30.6042 H   0  0  0  0  0  0  0  0  0  0  0  0
   -5.8065   22.5176  -28.8198 H   0  0  0  0  0  0  0  0  0  0  0  0
   -5.4278   22.7910  -32.7345 H   0  0  0  0  0  0  0  0  0  0  0  0
   -4.8656   20.5227  -33.6678 H   0  0  0  0  0  0  0  0  0  0  0  0
  1  2  2  0
  2  3  2  0
  2  4  1  0
  4  5  2  0
  5  6  1  0
  6  7  2  0
  7  8  1  0
  8  9  2  0
  2 10  1  0
 10 11  1  0
 11 12  2  0
 12 13  1  0
 13 14  2  0
 14 15  1  0
 15 16  1  0
 16 17  1  0
 17 18  1  0
 18 19  1  0
 19 20  1  0
 20 21  1  0
 21 22  1  0
 15 23  2  0
 23 24  1  0
 24 25  2  0
  9  4  1  0
 25 10  1  0
 25 13  1  0
 22 17  1  0
  5 26  1  0
  6 27  1  0
  7 28  1  0
  8 29  1  0
  9 30  1  0
 11 31  1  0
 12 32  1  0
 14 33  1  0
 16 34  1  0
 16 35  1  0
 18 36  1  0
 18 37  1  0
 19 38  1  0
 19 39  1  0
 20 40  1  0
 21 41  1  0
 21 42  1  0
 22 43  1  0
 22 44  1  0
 23 45  1  0
 24 46  1  0
M  CHG  1   9   1
M  END
>  <UniqueID>  (3) 
3

>  <SMILES>  (3) 
O=S(=O)(c1cccc[nH+]1)n1ccc2cc(CN3CCNCC3)ccc21

>  <Energy>  (3) 
97.91966496818264

>  <Genealogy>  (3) 
O=S(=O)(c1cccc[nH+]1)n1ccc2cc(CN3CCNCC3)ccc21 (protonated)
O=S(=O)(c1cccc[nH+]1)n1ccc2cc(CN3CCNCC3)ccc21 (3D coordinates assigned)
O=S(=O)(c1cccc[nH+]1)n1ccc2cc(CN3CCNCC3)ccc21 (nonaromatic ring conformer: 97.91966496818264 kcal/mol)

>  <smiles>  (3) 
O=S(=O)(c1ccccn1)n1ccc2cc(CN3CCNCC3)ccc21

>  <score_type>  (3) 
oracle

>  <origin>  (3) 
adg

>  <m_score__min__energy>  (3) 
-8.9499999999999993

>  <m_primary>  (3) 
energy

$$$$
3:0
     RDKit          2D

 46 49  0  0  0  0  0  0  0  0999 V2000
    0.2861   11.7308    0.0000 C   0  0  0  0  0  0  0  0  0  0  0  0
    0.7496   10.3042    0.0000 C   0  0  0  0  0  0  0  0  0  0  0  0
    1.2131    8.8776    0.0000 N   0  0  0  0  0  0  0  0  0  0  0  0
    2.6804    8.5658    0.0000 C   0  0  0  0  0  0  0  0  0  0  0  0
    0.2095    7.7629    0.0000 C   0  0  0  0  0  0  0  0  0  0  0  0
   -0.7942    6.6482    0.0000 C   0  0  0  0  0  0  0  0  0  0  0  0
   -1.7979    5.5335    0.0000 N   0  0  0  0  0  0  0  0  0  0  0  0
   -1.3344    4.1069    0.0000 C   0  0  0  0  0  0  0  0  0  0  0  0
    0.1520    3.9056    0.0000 C   0  0  0  0  0  0  0  0  0  0  0  0
    0.9214    2.6179    0.0000 C   0  0  0  0  0  0  0  0  0  0  0  0
    0.3943    1.2135    0.0000 C   0  0  0  0  0  0  0  0  0  0  0  0
    1.2760    0.0000    0.0000 N   0  0  0  0  0  0  0  0  0  0  0  0
    0.3943   -1.2135    0.0000 C   0  0  0  0  0  0  0  0  0  0  0  0
   -1.0323   -0.7500    0.0000 N   0  0  0  0  0  0  0  0  0  0  0  0
   -2.5208   -0.9351    0.0000 C   0  0  0  0  0  0  0  0  0  0  0  0
   -2.8924   -2.3883    0.0000 C   0  0  0  0  0  0  0  0  0  0  0  0
   -4.3367   -2.7932    0.0000 C   0  0  0  0  0  0  0  0  0  0  0  0
   -5.4095   -1.7448    0.0000 C   0  0  0  0  0  0  0  0  0  0  0  0
   -5.0379   -0.2916    0.0000 C   0  0  0  0  0  0  0  0  0  0  0  0
   -3.5936    0.1133    0.0000 C   0  0  0  0  0  0  0  0  0  0  0  0
   -3.4428    1.6057    0.0000 C   0  0  0  0  0  0  0  0  0  0  0  0
   -4.7220    2.3891    0.0000 O   0  0  0  0  0  0  0  0  0  0  0  0
   -2.4186    3.0703    0.0000 C   0  0  0  0  0  0  0  0  0  0  0  0
   -2.2841    1.5763    0.0000 C   0  0  0  0  0  0  0  0  0  0  0  0
   -3.0593    0.8050    0.0000 O   0  0  0  0  0  0  0  0  0  0  0  0
   -1.0323    0.7500    0.0000 C   0  0  0  0  0  0  0  0  0  0  0  0
   -0.1774   13.1574    0.0000 H   0  0  0  0  0  0  0  0  0  0  0  0
   -1.1405   11.2673    0.0000 H   0  0  0  0  0  0  0  0  0  0  0  0
    1.7127   12.1943    0.0000 H   0  0  0  0  0  0  0  0  0  0  0  0
   -0.6770    9.8407    0.0000 H   0  0  0  0  0  0  0  0  0  0  0  0
    2.1762   10.7677    0.0000 H   0  0  0  0  0  0  0  0  0  0  0  0
    4.1476    8.2539    0.0000 H   0  0  0  0  0  0  0  0  0  0  0  0
    2.9922   10.0330    0.0000 H   0  0  0  0  0  0  0  0  0  0  0  0
    2.3685    7.0985    0.0000 H   0  0  0  0  0  0  0  0  0  0  0  0
    1.3242    6.7592    0.0000 H   0  0  0  0  0  0  0  0  0  0  0  0
   -0.9053    8.7666    0.0000 H   0  0  0  0  0  0  0  0  0  0  0  0
    0.4345    5.7879    0.0000 H   0  0  0  0  0  0  0  0  0  0  0  0
   -1.9090    7.6519    0.0000 H   0  0  0  0  0  0  0  0  0  0  0  0
   -3.2652    5.8454    0.0000 H   0  0  0  0  0  0  0  0  0  0  0  0
    1.1248    5.0473    0.0000 H   0  0  0  0  0  0  0  0  0  0  0  0
    2.4153    2.7523    0.0000 H   0  0  0  0  0  0  0  0  0  0  0  0
    0.8578   -2.6401    0.0000 H   0  0  0  0  0  0  0  0  0  0  0  0
   -1.8196   -3.4367    0.0000 H   0  0  0  0  0  0  0  0  0  0  0  0
   -4.7082   -4.2465    0.0000 H   0  0  0  0  0  0  0  0  0  0  0  0
   -6.8538   -2.1497    0.0000 H   0  0  0  0  0  0  0  0  0  0  0  0
   -6.1107    0.7568    0.0000 H   0  0  0  0  0  0  0  0  0  0  0  0
  1  2  1  0
  2  3  1  0
  3  4  1  0
  3  5  1  0
  5  6  1  0
  6  7  1  0
  7  8  1  0
  8  9  1  0
  9 10  2  0
 10 11  1  0
 11 12  1  0
 12 13  2  0
 13 14  1  0
 14 15  1  0
 15 16  2  0
 16 17  1  0
 17 18  2  0
 18 19  1  0
 19 20  2  0
 20 21  1  0
 21 22  2  0
 21 23  1  0
 23 24  1  0
 24 25  2  0
 24 26  1  0
 23  8  2  0
 26 11  2  0
 26 14  1  0
 20 15  1  0
  1 27  1  0
  1 28  1  0
  1 29  1  0
  2 30  1  0
  2 31  1  0
  4 32  1  0
  4 33  1  0
  4 34  1  0
  5 35  1  0
  5 36  1  0
  6 37  1  0
  6 38  1  0
  7 39  1  0
  9 40  1  0
 10 41  1  0
 13 42  1  0
 16 43  1  0
 17 44  1  0
 18 45  1  0
 19 46  1  0
M  END
>  <smiles>  (4) 
CCN(C)CCNc1ccc2ncn3c4ccccc4c(=O)c1c(=O)c23

>  <m_score__min__energy>  (4) 
nan

>  <m_primary>  (4) 
energy

$$$$
4:0
     RDKit          3D

 27 28  0  0  0  0  0  0  0  0999 V2000
   -2.9180   24.2210  -29.6860 C   0  0  0  0  0  0  0  0  0  0  0  0
   -3.9970   24.7630  -30.4400 O   0  0  0  0  0  0  0  0  0  0  0  0
   -5.2000   24.0900  -30.6970 C   0  0  0  0  0  0  0  0  0  0  0  0
   -5.7500   24.1750  -31.9830 C   0  0  0  0  0  0  0  0  0  0  0  0
   -6.9470   23.5210  -32.2880 C   0  0  0  0  0  0  0  0  0  0  0  0
   -7.6060   22.7700  -31.3090 C   0  0  0  0  0  0  0  0  0  0  0  0
   -9.1370   21.9250  -31.7020 S   0  0  0  0  0  0  0  0  0  0  0  0
   -8.2900   20.4230  -32.1910 C   0  0  0  0  0  0  0  0  0  0  0  0
   -7.2090   20.4830  -33.0790 C   0  0  0  0  0  0  0  0  0  0  0  0
   -6.5520   19.3100  -33.4640 C   0  0  0  0  0  0  0  0  0  0  0  0
   -6.9730   18.0730  -32.9590 C   0  0  0  0  0  0  0  0  0  0  0  0
   -6.1490   16.6020  -33.4440 Cl  0  0  0  0  0  0  0  0  0  0  0  0
   -8.0510   18.0130  -32.0700 C   0  0  0  0  0  0  0  0  0  0  0  0
   -8.7080   19.1850  -31.6840 C   0  0  0  0  0  0  0  0  0  0  0  0
   -7.0670   22.6840  -30.0200 C   0  0  0  0  0  0  0  0  0  0  0  0
   -5.8700   23.3370  -29.7120 C   0  0  0  0  0  0  0  0  0  0  0  0
   -3.1309   24.3280  -28.6121 H   0  0  0  0  0  0  0  0  0  0  0  0
   -2.7978   23.1555  -29.9316 H   0  0  0  0  0  0  0  0  0  0  0  0
   -1.9915   24.7607  -29.9316 H   0  0  0  0  0  0  0  0  0  0  0  0
   -5.2356   24.7612  -32.7587 H   0  0  0  0  0  0  0  0  0  0  0  0
   -7.3717   23.5970  -33.2999 H   0  0  0  0  0  0  0  0  0  0  0  0
   -6.8761   21.4541  -33.4743 H   0  0  0  0  0  0  0  0  0  0  0  0
   -5.7045   19.3587  -34.1635 H   0  0  0  0  0  0  0  0  0  0  0  0
   -8.3825   17.0418  -31.6738 H   0  0  0  0  0  0  0  0  0  0  0  0
   -9.5534   19.1356  -30.9820 H   0  0  0  0  0  0  0  0  0  0  0  0
   -7.5874   22.1003  -29.2464 H   0  0  0  0  0  0  0  0  0  0  0  0
   -5.4499   23.2629  -28.6981 H   0  0  0  0  0  0  0  0  0  0  0  0
  1  2  1  0
  2  3  1  0
  3  4  2  0
  4  5  1  0
  5  6  2  0
  6  7  1  0
  7  8  1  0
  8  9  2  0
  9 10  1  0
 10 11  2  0
 11 12  1  0
 11 13  1  0
 13 14  2  0
  6 15  1  0
 15 16  2  0
 16  3  1  0
 14  8  1  0
  1 17  1  0
  1 18  1  0
  1 19  1  0
  4 20  1  0
  5 21  1  0
  9 22  1  0
 10 23  1  0
 13 24  1  0
 14 25  1  0
 15 26  1  0
 16 27  1  0
M  END
>  <UniqueID>  (5) 
4

>  <SMILES>  (5) 
COc1ccc(Sc2ccc(Cl)cc2)cc1

>  <Energy>  (5) 
22.175196922140156

>  <Genealogy>  (5) 
COc1ccc(Sc2ccc(Cl)cc2)cc1 (3D coordinates assigned)
COc1ccc(Sc2ccc(Cl)cc2)cc1 (optimized conformer: 22.175196922140156 kcal/mol)

>  <smiles>  (5) 
COc1ccc(Sc2ccc(Cl)cc2)cc1

>  <score_type>  (5) 
oracle

>  <origin>  (5) 
adg

>  <m_score__min__energy>  (5) 
-7.7000000000000002

>  <m_primary>  (5) 
energy

$$$$
5:0
     RDKit          3D

 53 55  0  0  0  0  0  0  0  0999 V2000
   -0.7490   18.8200  -34.1850 C   0  0  0  0  0  0  0  0  0  0  0  0
   -0.4550   20.3020  -33.9250 C   0  0  0  0  0  0  0  0  0  0  0  0
   -1.6330   21.1500  -34.1780 N   0  0  0  0  0  0  0  0  0  0  0  0
   -2.5500   21.1760  -33.0270 C   0  0  0  0  0  0  0  0  0  0  0  0
   -3.9410   21.7210  -33.4120 C   0  0  0  0  0  0  0  0  0  0  0  0
   -4.9320   21.6820  -32.3190 N   0  0  0  0  0  0  0  0  0  0  0  0
   -5.2760   20.3400  -31.8110 C   0  0  0  0  0  0  0  0  0  0  0  0
   -6.7450   19.9910  -31.9730 C   0  0  0  0  0  0  0  0  0  0  0  0
   -7.6540   21.0330  -32.2400 C   0  0  0  0  0  0  0  0  0  0  0  0
   -9.0160   20.7710  -32.3950 C   0  0  0  0  0  0  0  0  0  0  0  0
   -9.4970   19.4710  -32.2570 C   0  0  0  0  0  0  0  0  0  0  0  0
   -8.6180   18.4300  -31.9590 C   0  0  0  0  0  0  0  0  0  0  0  0
   -7.2420   18.6720  -31.8260 C   0  0  0  0  0  0  0  0  0  0  0  0
   -6.1920   17.2820  -31.3600 S   0  0  0  0  0  0  0  0  0  0  0  0
   -5.3180   17.2330  -32.9250 C   0  0  0  0  0  0  0  0  0  0  0  0
   -5.8910   17.7950  -34.0740 C   0  0  0  0  0  0  0  0  0  0  0  0
   -5.2170   17.7320  -35.2970 C   0  0  0  0  0  0  0  0  0  0  0  0
   -3.9780   17.0920  -35.3800 C   0  0  0  0  0  0  0  0  0  0  0  0
   -3.4140   16.5090  -34.2410 C   0  0  0  0  0  0  0  0  0  0  0  0
   -4.0830   16.5810  -33.0140 C   0  0  0  0  0  0  0  0  0  0  0  0
   -5.0480   22.8110  -31.4290 C   0  0  0  0  0  0  0  0  0  0  0  0
   -5.9990   23.8110  -31.6850 C   0  0  0  0  0  0  0  0  0  0  0  0
   -6.1170   24.9060  -30.8240 C   0  0  0  0  0  0  0  0  0  0  0  0
   -5.2900   25.0060  -29.7010 C   0  0  0  0  0  0  0  0  0  0  0  0
   -4.3470   24.0070  -29.4360 C   0  0  0  0  0  0  0  0  0  0  0  0
   -4.2270   22.9110  -30.2940 C   0  0  0  0  0  0  0  0  0  0  0  0
   -0.8535   18.2930  -33.2251 H   0  0  0  0  0  0  0  0  0  0  0  0
   -1.6832   18.7266  -34.7582 H   0  0  0  0  0  0  0  0  0  0  0  0
    0.0788   18.3770  -34.7582 H   0  0  0  0  0  0  0  0  0  0  0  0
   -0.1477   20.4246  -32.8759 H   0  0  0  0  0  0  0  0  0  0  0  0
    0.3442   20.6160  -34.6125 H   0  0  0  0  0  0  0  0  0  0  0  0
   -2.1500   20.7620  -35.0030 H   0  0  0  0  0  0  0  0  0  0  0  0
   -1.3240   22.1180  -34.4150 H   0  0  0  0  0  0  0  0  0  0  0  0
   -2.6637   20.1527  -32.6397 H   0  0  0  0  0  0  0  0  0  0  0  0
   -2.1214   21.8432  -32.2646 H   0  0  0  0  0  0  0  0  0  0  0  0
   -3.8244   22.7662  -33.7343 H   0  0  0  0  0  0  0  0  0  0  0  0
   -4.3256   21.0683  -34.2095 H   0  0  0  0  0  0  0  0  0  0  0  0
   -4.6787   19.5963  -32.3588 H   0  0  0  0  0  0  0  0  0  0  0  0
   -5.0587   20.3359  -30.7327 H   0  0  0  0  0  0  0  0  0  0  0  0
   -7.2860   22.0659  -32.3274 H   0  0  0  0  0  0  0  0  0  0  0  0
   -9.7105   21.5920  -32.6264 H   0  0  0  0  0  0  0  0  0  0  0  0
  -10.5702   19.2655  -32.3831 H   0  0  0  0  0  0  0  0  0  0  0  0
   -9.0069   17.4096  -31.8269 H   0  0  0  0  0  0  0  0  0  0  0  0
   -6.8731   18.2867  -34.0132 H   0  0  0  0  0  0  0  0  0  0  0  0
   -5.6623   18.1865  -36.1943 H   0  0  0  0  0  0  0  0  0  0  0  0
   -3.4459   17.0467  -36.3417 H   0  0  0  0  0  0  0  0  0  0  0  0
   -2.4445   15.9938  -34.3095 H   0  0  0  0  0  0  0  0  0  0  0  0
   -3.6373   16.1243  -32.1180 H   0  0  0  0  0  0  0  0  0  0  0  0
   -6.6534   23.7329  -32.5657 H   0  0  0  0  0  0  0  0  0  0  0  0
   -6.8610   25.6895  -31.0301 H   0  0  0  0  0  0  0  0  0  0  0  0
   -5.3808   25.8699  -29.0261 H   0  0  0  0  0  0  0  0  0  0  0  0
   -3.6990   24.0847  -28.5506 H   0  0  0  0  0  0  0  0  0  0  0  0
   -3.4880   22.1248  -30.0801 H   0  0  0  0  0  0  0  0  0  0  0  0
  1  2  1  0
  2  3  1  0
  3  4  1  0
  4  5  1  0
  5  6  1  0
  6  7  1  0
  7  8  1  0
  8  9  2  0
  9 10  1  0
 10 11  2  0
 11 12  1  0
 12 13  2  0
 13 14  1  0
 14 15  1  0
 15 16  2  0
 16 17  1  0
 17 18  2  0
 18 19  1  0
 19 20  2  0
  6 21  1  0
 21 22  2  0
 22 23  1  0
 23 24  2  0
 24 25  1  0
 25 26  2  0
 13  8  1  0
 20 15  1  0
 26 21  1  0
  1 27  1  0
  1 28  1  0
  1 29  1  0
  2 30  1  0
  2 31  1  0
  3 32  1  0
  3 33  1  0
  4 34  1  0
  4 35  1  0
  5 36  1  0
  5 37  1  0
  7 38  1  0
  7 39  1  0
  9 40  1  0
 10 41  1  0
 11 42  1  0
 12 43  1  0
 16 44  1  0
 17 45  1  0
 18 46  1  0
 19 47  1  0
 20 48  1  0
 22 49  1  0
 23 50  1  0
 24 51  1  0
 25 52  1  0
 26 53  1  0
M  CHG  1   3   1
M  END
>  <UniqueID>  (6) 
5

>  <SMILES>  (6) 
CC[NH2+]CCN(Cc1ccccc1Sc1ccccc1)c1ccccc1

>  <Energy>  (6) 
52.61114848928669

>  <Genealogy>  (6) 
CC[NH2+]CCN(Cc1ccccc1Sc1ccccc1)c1ccccc1 (protonated)
CC[NH2+]CCN(Cc1ccccc1Sc1ccccc1)c1ccccc1 (3D coordinates assigned)
CC[NH2+]CCN(Cc1ccccc1Sc1ccccc1)c1ccccc1 (optimized conformer: 52.61114848928669 kcal/mol)

>  <smiles>  (6) 
CCNCCN(Cc1ccccc1Sc1ccccc1)c1ccccc1

>  <score_type>  (6) 
oracle

>  <origin>  (6) 
adg

>  <m_score__min__energy>  (6) 
-7.9199999999999999

>  <m_primary>  (6) 
energy

$$$$
6:0
     RDKit          3D

 57 60  0  0  0  0  0  0  0  0999 V2000
   -3.4390   24.1590  -28.1890 C   0  0  0  0  0  0  0  0  0  0  0  0
   -2.9460   24.4190  -29.6060 C   0  0  0  0  0  0  0  0  0  0  0  0
   -4.0380   24.1480  -30.5750 N   0  0  0  0  0  0  0  0  0  0  0  0
   -4.9730   25.2900  -30.6950 C   0  0  0  0  0  0  0  0  0  0  0  0
   -6.3280   24.9720  -30.0620 C   0  0  0  0  0  0  0  0  0  0  0  0
   -4.7740   22.9080  -30.2370 C   0  0  0  0  0  0  0  0  0  0  0  0
   -4.1580   21.6830  -30.9350 C   0  0  0  0  0  0  0  0  0  0  0  0
   -3.3110   22.0380  -32.1710 C   0  0  0  0  0  0  0  0  0  0  0  0
   -4.0320   21.7840  -33.4290 N   0  0  0  0  0  0  0  0  0  0  0  0
   -4.5870   20.4460  -33.4300 C   0  0  0  0  0  0  0  0  0  0  0  0
   -3.8030   19.3100  -33.7860 C   0  0  0  0  0  0  0  0  0  0  0  0
   -2.4080   19.4160  -34.0060 C   0  0  0  0  0  0  0  0  0  0  0  0
   -1.6600   18.3170  -34.4160 C   0  0  0  0  0  0  0  0  0  0  0  0
   -2.2730   17.0900  -34.6190 C   0  0  0  0  0  0  0  0  0  0  0  0
   -3.6380   16.9390  -34.3840 C   0  0  0  0  0  0  0  0  0  0  0  0
   -4.4300   18.0250  -33.9320 C   0  0  0  0  0  0  0  0  0  0  0  0
   -5.7760   17.8620  -33.6480 N   0  0  0  0  0  0  0  0  0  0  0  0
   -6.4090   16.5290  -33.7070 C   0  0  0  0  0  0  0  0  0  0  0  0
   -6.5100   18.9640  -33.2970 C   0  0  0  0  0  0  0  0  0  0  0  0
   -7.8440   18.9920  -33.0570 N   0  0  0  0  0  0  0  0  0  0  0  0
   -8.1190   20.2610  -32.7090 C   0  0  0  0  0  0  0  0  0  0  0  0
   -9.3680   20.7620  -32.3430 C   0  0  0  0  0  0  0  0  0  0  0  0
   -9.4550   22.1120  -31.9690 C   0  0  0  0  0  0  0  0  0  0  0  0
   -8.3030   22.9210  -31.9530 C   0  0  0  0  0  0  0  0  0  0  0  0
   -7.0530   22.3960  -32.3240 C   0  0  0  0  0  0  0  0  0  0  0  0
   -6.9870   21.0530  -32.7280 C   0  0  0  0  0  0  0  0  0  0  0  0
   -5.9450   20.2210  -33.1420 C   0  0  0  0  0  0  0  0  0  0  0  0
   -2.7040   24.5466  -27.4682 H   0  0  0  0  0  0  0  0  0  0  0  0
   -4.4035   24.6657  -28.0376 H   0  0  0  0  0  0  0  0  0  0  0  0
   -3.5656   23.0768  -28.0376 H   0  0  0  0  0  0  0  0  0  0  0  0
   -2.6298   25.4687  -29.6960 H   0  0  0  0  0  0  0  0  0  0  0  0
   -2.0951   23.7563  -29.8223 H   0  0  0  0  0  0  0  0  0  0  0  0
   -4.5375   26.1636  -30.1879 H   0  0  0  0  0  0  0  0  0  0  0  0
   -5.1307   25.4968  -31.7638 H   0  0  0  0  0  0  0  0  0  0  0  0
   -6.2349   24.9938  -28.9662 H   0  0  0  0  0  0  0  0  0  0  0  0
   -7.0671   25.7211  -30.3822 H   0  0  0  0  0  0  0  0  0  0  0  0
   -6.6567   23.9723  -30.3822 H   0  0  0  0  0  0  0  0  0  0  0  0
   -4.7378   22.7556  -29.1482 H   0  0  0  0  0  0  0  0  0  0  0  0
   -5.8131   23.0169  -30.5810 H   0  0  0  0  0  0  0  0  0  0  0  0
   -3.5158   21.1578  -30.2127 H   0  0  0  0  0  0  0  0  0  0  0  0
   -4.9927   21.0580  -31.2851 H   0  0  0  0  0  0  0  0  0  0  0  0
   -3.0448   23.1043  -32.1240 H   0  0  0  0  0  0  0  0  0  0  0  0
   -2.4140   21.4014  -32.1607 H   0  0  0  0  0  0  0  0  0  0  0  0
   -3.4040   21.9110  -34.2500 H   0  0  0  0  0  0  0  0  0  0  0  0
   -4.7850   22.4870  -33.5830 H   0  0  0  0  0  0  0  0  0  0  0  0
   -1.9077   20.3832  -33.8501 H   0  0  0  0  0  0  0  0  0  0  0  0
   -0.5773   18.4219  -34.5799 H   0  0  0  0  0  0  0  0  0  0  0  0
   -1.6791   16.2321  -34.9671 H   0  0  0  0  0  0  0  0  0  0  0  0
   -4.1099   15.9597  -34.5521 H   0  0  0  0  0  0  0  0  0  0  0  0
   -6.5839   16.1606  -32.6854 H   0  0  0  0  0  0  0  0  0  0  0  0
   -7.3686   16.6020  -34.2398 H   0  0  0  0  0  0  0  0  0  0  0  0
   -5.7460   15.8315  -34.2398 H   0  0  0  0  0  0  0  0  0  0  0  0
   -8.5490   18.2270  -33.1310 H   0  0  0  0  0  0  0  0  0  0  0  0
  -10.2595   20.1176  -32.3473 H   0  0  0  0  0  0  0  0  0  0  0  0
  -10.4282   22.5401  -31.6870 H   0  0  0  0  0  0  0  0  0  0  0  0
   -8.3819   23.9747  -31.6471 H   0  0  0  0  0  0  0  0  0  0  0  0
   -6.1488   23.0219  -32.2984 H   0  0  0  0  0  0  0  0  0  0  0  0
  1  2  1  0
  2  3  1  0
  3  4  1  0
  4  5  1  0
  3  6  1  0
  6  7  1  0
  7  8  1  0
  8  9  1  0
  9 10  1  0
 10 11  2  0
 11 12  1  0
 12 13  2  0
 13 14  1  0
 14 15  2  0
 15 16  1  0
 16 17  2  0
 17 18  1  0
 17 19  1  0
 19 20  1  0
 20 21  1  0
 21 22  2  0
 22 23  1  0
 23 24  2  0
 24 25  1  0
 25 26  2  0
 26 27  1  0
 27 10  1  0
 16 11  1  0
 27 19  2  0
 26 21  1  0
  1 28  1  0
  1 29  1  0
  1 30  1  0
  2 31  1  0
  2 32  1  0
  4 33  1  0
  4 34  1  0
  5 35  1  0
  5 36  1  0
  5 37  1  0
  6 38  1  0
  6 39  1  0
  7 40  1  0
  7 41  1  0
  8 42  1  0
  8 43  1  0
  9 44  1  0
  9 45  1  0
 12 46  1  0
 13 47  1  0
 14 48  1  0
 15 49  1  0
 18 50  1  0
 18 51  1  0
 18 52  1  0
 20 53  1  0
 22 54  1  0
 23 55  1  0
 24 56  1  0
 25 57  1  0
M  CHG  2   9   1  17   1
M  END
>  <UniqueID>  (7) 
6

>  <SMILES>  (7) 
CCN(CC)CCC[NH2+]c1c2ccccc2[n+](C)c2[nH]c3ccccc3c12

>  <Energy>  (7) 
114.44721795131396

>  <Genealogy>  (7) 
CCN(CC)CCC[NH2+]c1c2ccccc2[n+](C)c2[nH]c3ccccc3c12 (protonated)
CCN(CC)CCC[NH2+]c1c2ccccc2[n+](C)c2[nH]c3ccccc3c12 (3D coordinates assigned)
CCN(CC)CCC[NH2+]c1c2ccccc2[n+](C)c2[nH]c3ccccc3c12 (optimized conformer: 114.44721795131396 kcal/mol)

>  <smiles>  (7) 
CCN(CC)CCCNc1c2ccccc2[n+](C)c2[nH]c3ccccc3c12

>  <score_type>  (7) 
oracle

>  <origin>  (7) 
adg

>  <m_score__min__energy>  (7) 
-8.7300000000000004

>  <m_primary>  (7) 
energy

$$$$
7:0
     RDKit          3D

 64 67  0  0  0  0  0  0  0  0999 V2000
   -1.7400   21.7670  -30.1000 C   0  0  0  0  0  0  0  0  0  0  0  0
   -3.1600   21.4760  -29.6000 C   0  0  0  0  0  0  0  0  0  0  0  0
   -3.9410   22.7100  -29.3160 N   0  0  0  0  0  0  0  0  0  0  0  0
   -3.2490   23.5500  -28.3000 C   0  0  0  0  0  0  0  0  0  0  0  0
   -4.1820   24.2110  -27.2740 C   0  0  0  0  0  0  0  0  0  0  0  0
   -4.2540   23.4410  -30.5730 C   0  0  0  0  0  0  0  0  0  0  0  0
   -5.7080   23.2530  -31.0380 C   0  0  0  0  0  0  0  0  0  0  0  0
   -5.7410   22.7500  -32.4100 N   0  0  0  0  0  0  0  0  0  0  0  0
   -5.7190   21.3380  -32.6800 C   0  0  0  0  0  0  0  0  0  0  0  0
   -6.8690   20.5570  -32.4660 C   0  0  0  0  0  0  0  0  0  0  0  0
   -8.0350   21.1180  -31.9020 C   0  0  0  0  0  0  0  0  0  0  0  0
   -9.1590   20.3340  -31.6650 C   0  0  0  0  0  0  0  0  0  0  0  0
   -9.1390   18.9780  -31.9710 C   0  0  0  0  0  0  0  0  0  0  0  0
   -8.0010   18.4030  -32.5380 C   0  0  0  0  0  0  0  0  0  0  0  0
   -6.8540   19.1840  -32.8300 C   0  0  0  0  0  0  0  0  0  0  0  0
   -5.7400   18.6410  -33.4410 N   0  0  0  0  0  0  0  0  0  0  0  0
   -5.8290   17.3190  -34.1000 C   0  0  0  0  0  0  0  0  0  0  0  0
   -4.5490   19.3450  -33.4580 C   0  0  0  0  0  0  0  0  0  0  0  0
   -3.3220   18.7190  -33.7920 C   0  0  0  0  0  0  0  0  0  0  0  0
   -2.1160   19.4390  -33.8450 C   0  0  0  0  0  0  0  0  0  0  0  0
   -0.8970   18.7960  -34.1750 C   0  0  0  0  0  0  0  0  0  0  0  0
   -0.9350   17.4090  -34.4250 O   0  0  0  0  0  0  0  0  0  0  0  0
   -0.4700   16.7400  -35.5930 C   0  0  0  0  0  0  0  0  0  0  0  0
    0.2980   19.5570  -34.2380 C   0  0  0  0  0  0  0  0  0  0  0  0
    1.5040   18.9430  -34.6120 O   0  0  0  0  0  0  0  0  0  0  0  0
    2.3960   18.2790  -33.7210 C   0  0  0  0  0  0  0  0  0  0  0  0
    0.2560   20.9310  -33.9330 C   0  0  0  0  0  0  0  0  0  0  0  0
   -0.9400   21.5490  -33.5820 C   0  0  0  0  0  0  0  0  0  0  0  0
   -2.1290   20.8160  -33.5400 C   0  0  0  0  0  0  0  0  0  0  0  0
   -3.3250   21.4400  -33.1700 C   0  0  0  0  0  0  0  0  0  0  0  0
   -4.5320   20.7180  -33.1130 C   0  0  0  0  0  0  0  0  0  0  0  0
   -1.0691   21.9045  -29.2392 H   0  0  0  0  0  0  0  0  0  0  0  0
   -1.3858   20.9228  -30.7098 H   0  0  0  0  0  0  0  0  0  0  0  0
   -1.7464   22.6825  -30.7098 H   0  0  0  0  0  0  0  0  0  0  0  0
   -3.6901   20.8950  -30.3690 H   0  0  0  0  0  0  0  0  0  0  0  0
   -3.0685   20.9200  -28.6553 H   0  0  0  0  0  0  0  0  0  0  0  0
   -4.8500   22.4200  -28.8820 H   0  0  0  0  0  0  0  0  0  0  0  0
   -2.5367   22.9127  -27.7555 H   0  0  0  0  0  0  0  0  0  0  0  0
   -2.7621   24.3680  -28.8511 H   0  0  0  0  0  0  0  0  0  0  0  0
   -3.8395   23.9684  -26.2572 H   0  0  0  0  0  0  0  0  0  0  0  0
   -4.1681   25.3018  -27.4151 H   0  0  0  0  0  0  0  0  0  0  0  0
   -5.2065   23.8361  -27.4151 H   0  0  0  0  0  0  0  0  0  0  0  0
   -4.0761   24.5138  -30.4070 H   0  0  0  0  0  0  0  0  0  0  0  0
   -3.6038   23.0309  -31.3598 H   0  0  0  0  0  0  0  0  0  0  0  0
   -6.2106   22.5330  -30.3754 H   0  0  0  0  0  0  0  0  0  0  0  0
   -6.2240   24.2238  -31.0004 H   0  0  0  0  0  0  0  0  0  0  0  0
   -5.5410   23.4140  -33.1890 H   0  0  0  0  0  0  0  0  0  0  0  0
   -8.0549   22.1878  -31.6469 H   0  0  0  0  0  0  0  0  0  0  0  0
  -10.0645   20.7871  -31.2351 H   0  0  0  0  0  0  0  0  0  0  0  0
  -10.0230   18.3564  -31.7655 H   0  0  0  0  0  0  0  0  0  0  0  0
   -7.9935   17.3261  -32.7622 H   0  0  0  0  0  0  0  0  0  0  0  0
   -5.8821   16.5306  -33.3347 H   0  0  0  0  0  0  0  0  0  0  0  0
   -6.7317   17.2822  -34.7276 H   0  0  0  0  0  0  0  0  0  0  0  0
   -4.9394   17.1615  -34.7276 H   0  0  0  0  0  0  0  0  0  0  0  0
   -3.3133   17.6420  -34.0155 H   0  0  0  0  0  0  0  0  0  0  0  0
    0.1352   15.8693  -35.3004 H   0  0  0  0  0  0  0  0  0  0  0  0
   -1.3305   16.4044  -36.1904 H   0  0  0  0  0  0  0  0  0  0  0  0
    0.1445   17.4296  -36.1904 H   0  0  0  0  0  0  0  0  0  0  0  0
    2.1053   18.4954  -32.6824 H   0  0  0  0  0  0  0  0  0  0  0  0
    2.3493   17.1941  -33.8964 H   0  0  0  0  0  0  0  0  0  0  0  0
    3.4219   18.6350  -33.8964 H   0  0  0  0  0  0  0  0  0  0  0  0
    1.1816   21.5240  -33.9728 H   0  0  0  0  0  0  0  0  0  0  0  0
   -0.9498   22.6211  -33.3361 H   0  0  0  0  0  0  0  0  0  0  0  0
   -3.3222   22.5112  -32.9198 H   0  0  0  0  0  0  0  0  0  0  0  0
  1  2  1  0
  2  3  1  0
  3  4  1  0
  4  5  1  0
  3  6  1  0
  6  7  1  0
  7  8  1  0
  8  9  1  0
  9 10  2  0
 10 11  1  0
 11 12  2  0
 12 13  1  0
 13 14  2  0
 14 15  1  0
 15 16  2  0
 16 17  1  0
 16 18  1  0
 18 19  2  0
 19 20  1  0
 20 21  2  0
 21 22  1  0
 22 23  1  0
 21 24  1  0
 24 25  1  0
 25 26  1  0
 24 27  2  0
 27 28  1  0
 28 29  2  0
 29 30  1  0
 30 31  2  0
 31  9  1  0
 15 10  1  0
 31 18  1  0
 29 20  1  0
  1 32  1  0
  1 33  1  0
  1 34  1  0
  2 35  1  0
  2 36  1  0
  3 37  1  0
  4 38  1  0
  4 39  1  0
  5 40  1  0
  5 41  1  0
  5 42  1  0
  6 43  1  0
  6 44  1  0
  7 45  1  0
  7 46  1  0
  8 47  1  0
 11 48  1  0
 12 49  1  0
 13 50  1  0
 14 51  1  0
 17 52  1  0
 17 53  1  0
 17 54  1  0
 19 55  1  0
 23 56  1  0
 23 57  1  0
 23 58  1  0
 26 59  1  0
 26 60  1  0
 26 61  1  0
 27 62  1  0
 28 63  1  0
 30 64  1  0
M  CHG  2   3   1  16   1
M  END
>  <UniqueID>  (8) 
7

>  <SMILES>  (8) 
CC[NH+](CC)CCNc1c2ccccc2[n+](C)c2cc3c(OC)c(OC)ccc3cc12

>  <Energy>  (8) 
101.39278448241527

>  <Genealogy>  (8) 
CC[NH+](CC)CCNc1c2ccccc2[n+](C)c2cc3c(OC)c(OC)ccc3cc12 (protonated)
CC[NH+](CC)CCNc1c2ccccc2[n+](C)c2cc3c(OC)c(OC)ccc3cc12 (3D coordinates assigned)
CC[NH+](CC)CCNc1c2ccccc2[n+](C)c2cc3c(OC)c(OC)ccc3cc12 (optimized conformer: 101.39278448241527 kcal/mol)

>  <smiles>  (8) 
CCN(CC)CCNc1c2ccccc2[n+](C)c2cc3c(OC)c(OC)ccc3cc12

>  <score_type>  (8) 
oracle

>  <origin>  (8) 
adg

>  <m_score__min__energy>  (8) 
-7.4299999999999997

>  <m_primary>  (8) 
energy

$$$$
8:0
     RDKit          3D

 48 49  0  0  0  0  0  0  0  0999 V2000
   -6.4530   25.5200  -29.7070 C   0  0  0  0  0  0  0  0  0  0  0  0
   -5.3830   25.6560  -30.7880 C   0  0  0  0  0  0  0  0  0  0  0  0
   -4.5570   24.4320  -30.8490 N   0  0  0  0  0  0  0  0  0  0  0  0
   -5.4070   23.2250  -30.8720 C   0  0  0  0  0  0  0  0  0  0  0  0
   -4.5980   21.9250  -30.6520 C   0  0  0  0  0  0  0  0  0  0  0  0
   -3.1340   22.1130  -30.7500 N   0  0  0  0  0  0  0  0  0  0  0  0
   -2.5570   21.9140  -32.0980 C   0  0  0  0  0  0  0  0  0  0  0  0
   -2.2070   20.4470  -32.4120 C   0  0  0  0  0  0  0  0  0  0  0  0
   -2.9740   19.9320  -33.6350 C   0  0  0  0  0  0  0  0  0  0  0  0
   -4.2980   19.4320  -33.2370 N   0  0  0  0  0  0  0  0  0  0  0  0
   -5.3540   20.4300  -33.4660 C   0  0  0  0  0  0  0  0  0  0  0  0
   -6.7000   19.9660  -32.9400 C   0  0  0  0  0  0  0  0  0  0  0  0
   -7.5400   20.9170  -32.3350 C   0  0  0  0  0  0  0  0  0  0  0  0
   -8.7430   20.5320  -31.7400 C   0  0  0  0  0  0  0  0  0  0  0  0
   -9.1180   19.1890  -31.7310 C   0  0  0  0  0  0  0  0  0  0  0  0
   -8.2970   18.2300  -32.3260 C   0  0  0  0  0  0  0  0  0  0  0  0
   -7.0910   18.6020  -32.9440 C   0  0  0  0  0  0  0  0  0  0  0  0
   -6.2890   17.5900  -33.5680 N   0  0  0  0  0  0  0  0  0  0  0  0
   -6.1610   17.5800  -34.8100 O   0  0  0  0  0  0  0  0  0  0  0  0
   -5.4300   16.8340  -32.8060 O   0  0  0  0  0  0  0  0  0  0  0  0
   -2.5820   23.2560  -29.9880 C   0  0  0  0  0  0  0  0  0  0  0  0
   -3.6180   24.3560  -29.7190 C   0  0  0  0  0  0  0  0  0  0  0  0
   -5.9816   25.5799  -28.7149 H   0  0  0  0  0  0  0  0  0  0  0  0
   -7.1873   26.3320  -29.8137 H   0  0  0  0  0  0  0  0  0  0  0  0
   -6.9608   24.5501  -29.8137 H   0  0  0  0  0  0  0  0  0  0  0  0
   -5.8692   25.8146  -31.7619 H   0  0  0  0  0  0  0  0  0  0  0  0
   -4.7364   26.5123  -30.5457 H   0  0  0  0  0  0  0  0  0  0  0  0
   -6.1613   23.3098  -30.0759 H   0  0  0  0  0  0  0  0  0  0  0  0
   -5.8729   23.1638  -31.8666 H   0  0  0  0  0  0  0  0  0  0  0  0
   -4.8320   21.5355  -29.6503 H   0  0  0  0  0  0  0  0  0  0  0  0
   -4.8871   21.2268  -31.4513 H   0  0  0  0  0  0  0  0  0  0  0  0
   -3.2866   22.2640  -32.8431 H   0  0  0  0  0  0  0  0  0  0  0  0
   -1.6162   22.4830  -32.1319 H   0  0  0  0  0  0  0  0  0  0  0  0
   -1.1276   20.3724  -32.6104 H   0  0  0  0  0  0  0  0  0  0  0  0
   -2.4910   19.8329  -31.5447 H   0  0  0  0  0  0  0  0  0  0  0  0
   -3.0985   20.7528  -34.3566 H   0  0  0  0  0  0  0  0  0  0  0  0
   -2.4048   19.1093  -34.0924 H   0  0  0  0  0  0  0  0  0  0  0  0
   -4.5140   18.5670  -33.7880 H   0  0  0  0  0  0  0  0  0  0  0  0
   -5.0763   21.3641  -32.9557 H   0  0  0  0  0  0  0  0  0  0  0  0
   -5.4479   20.5817  -34.5514 H   0  0  0  0  0  0  0  0  0  0  0  0
   -7.2461   21.9770  -32.3303 H   0  0  0  0  0  0  0  0  0  0  0  0
   -9.3950   21.2882  -31.2783 H   0  0  0  0  0  0  0  0  0  0  0  0
  -10.0617   18.8852  -31.2545 H   0  0  0  0  0  0  0  0  0  0  0  0
   -8.5971   17.1718  -32.3111 H   0  0  0  0  0  0  0  0  0  0  0  0
   -2.2066   22.8849  -29.0229 H   0  0  0  0  0  0  0  0  0  0  0  0
   -1.7815   23.7009  -30.5974 H   0  0  0  0  0  0  0  0  0  0  0  0
   -4.1712   24.1213  -28.7977 H   0  0  0  0  0  0  0  0  0  0  0  0
   -3.1052   25.3222  -29.6027 H   0  0  0  0  0  0  0  0  0  0  0  0
  1  2  1  0
  2  3  1  0
  3  4  1  0
  4  5  1  0
  5  6  1  0
  6  7  1  0
  7  8  1  0
  8  9  1  0
  9 10  1  0
 10 11  1  0
 11 12  1  0
 12 13  2  0
 13 14  1  0
 14 15  2  0
 15 16  1  0
 16 17  2  0
 17 18  1  0
 18 19  2  0
 18 20  1  0
  6 21  1  0
 21 22  1  0
 22  3  1  0
 17 12  1  0
  1 23  1  0
  1 24  1  0
  1 25  1  0
  2 26  1  0
  2 27  1  0
  4 28  1  0
  4 29  1  0
  5 30  1  0
  5 31  1  0
  7 32  1  0
  7 33  1  0
  8 34  1  0
  8 35  1  0
  9 36  1  0
  9 37  1  0
 10 38  1  0
 11 39  1  0
 11 40  1  0
 13 41  1  0
 14 42  1  0
 15 43  1  0
 16 44  1  0
 21 45  1  0
 21 46  1  0
 22 47  1  0
 22 48  1  0
M  CHG  2  18   1  20  -1
M  END
>  <UniqueID>  (9) 
8

>  <SMILES>  (9) 
CCN1CCN(CCCNCc2ccccc2[N+](=O)[O-])CC1

>  <Energy>  (9) 
63.25672910102832

>  <Genealogy>  (9) 
CCN1CCN(CCCNCc2ccccc2[N+](=O)[O-])CC1 (3D coordinates assigned)
CCN1CCN(CCCNCc2ccccc2[N+](=O)[O-])CC1 (nonaromatic ring conformer: 63.25672910102832 kcal/mol)

>  <smiles>  (9) 
CCN1CCN(CCCNCc2ccccc2[N+](=O)[O-])CC1

>  <score_type>  (9) 
oracle

>  <origin>  (9) 
adg

>  <m_score__min__energy>  (9) 
-9.0199999999999996

>  <m_primary>  (9) 
energy

$$$$
9:0
     RDKit          3D

 31 32  0  0  0  0  0  0  0  0999 V2000
   -9.2060   23.6460  -32.3450 C   0  0  0  0  0  0  0  0  0  0  0  0
   -9.4960   22.2950  -31.6980 C   0  0  0  0  0  0  0  0  0  0  0  0
   -8.2540   21.6920  -31.1850 N   0  0  0  0  0  0  0  0  0  0  0  0
   -7.6680   22.2160  -29.9380 C   0  0  0  0  0  0  0  0  0  0  0  0
   -6.6720   23.3060  -30.2340 C   0  0  0  0  0  0  0  0  0  0  0  0
   -6.8800   24.6170  -29.7810 C   0  0  0  0  0  0  0  0  0  0  0  0
   -5.9420   25.6120  -30.0690 C   0  0  0  0  0  0  0  0  0  0  0  0
   -4.8020   25.2850  -30.8020 C   0  0  0  0  0  0  0  0  0  0  0  0
   -4.6070   24.0090  -31.2260 N   0  0  0  0  0  0  0  0  0  0  0  0
   -5.5050   23.0220  -30.9600 C   0  0  0  0  0  0  0  0  0  0  0  0
   -7.6770   20.5560  -31.8770 C   0  0  0  0  0  0  0  0  0  0  0  0
   -8.1140   19.2380  -31.6360 C   0  0  0  0  0  0  0  0  0  0  0  0
   -7.5280   18.1780  -32.3310 C   0  0  0  0  0  0  0  0  0  0  0  0
   -6.5110   18.4260  -33.2540 C   0  0  0  0  0  0  0  0  0  0  0  0
   -5.7000   16.9850  -34.2100 Br  0  0  0  0  0  0  0  0  0  0  0  0
   -6.0930   19.7390  -33.4660 C   0  0  0  0  0  0  0  0  0  0  0  0
   -6.6760   20.7580  -32.7820 N   0  0  0  0  0  0  0  0  0  0  0  0
   -9.0440   24.4007  -31.5613 H   0  0  0  0  0  0  0  0  0  0  0  0
   -8.3043   23.5672  -32.9701 H   0  0  0  0  0  0  0  0  0  0  0  0
  -10.0606   23.9442  -32.9701 H   0  0  0  0  0  0  0  0  0  0  0  0
  -10.2008   22.4362  -30.8653 H   0  0  0  0  0  0  0  0  0  0  0  0
   -9.9315   21.6246  -32.4536 H   0  0  0  0  0  0  0  0  0  0  0  0
   -8.4705   22.6225  -29.3050 H   0  0  0  0  0  0  0  0  0  0  0  0
   -7.1504   21.3959  -29.4189 H   0  0  0  0  0  0  0  0  0  0  0  0
   -7.7810   24.8618  -29.1994 H   0  0  0  0  0  0  0  0  0  0  0  0
   -6.1015   26.6432  -29.7208 H   0  0  0  0  0  0  0  0  0  0  0  0
   -4.0592   26.0614  -31.0374 H   0  0  0  0  0  0  0  0  0  0  0  0
   -5.3157   21.9982  -31.3151 H   0  0  0  0  0  0  0  0  0  0  0  0
   -8.9124   19.0453  -30.9043 H   0  0  0  0  0  0  0  0  0  0  0  0
   -7.8680   17.1475  -32.1510 H   0  0  0  0  0  0  0  0  0  0  0  0
   -5.2903   19.9502  -34.1878 H   0  0  0  0  0  0  0  0  0  0  0  0
  1  2  1  0
  2  3  1  0
  3  4  1  0
  4  5  1  0
  5  6  2  0
  6  7  1  0
  7  8  2  0
  8  9  1  0
  9 10  2  0
  3 11  1  0
 11 12  2  0
 12 13  1  0
 13 14  2  0
 14 15  1  0
 14 16  1  0
 16 17  2  0
 10  5  1  0
 17 11  1  0
  1 18  1  0
  1 19  1  0
  1 20  1  0
  2 21  1  0
  2 22  1  0
  4 23  1  0
  4 24  1  0
  6 25  1  0
  7 26  1  0
  8 27  1  0
 10 28  1  0
 12 29  1  0
 13 30  1  0
 16 31  1  0
M  END
>  <UniqueID>  (10) 
9

>  <SMILES>  (10) 
CCN(Cc1cccnc1)c1ccc(Br)cn1

>  <Energy>  (10) 
30.22946431386503

>  <Genealogy>  (10) 
CCN(Cc1cccnc1)c1ccc(Br)cn1 (3D coordinates assigned)
CCN(Cc1cccnc1)c1ccc(Br)cn1 (optimized conformer: 30.22946431386503 kcal/mol)

>  <smiles>  (10) 
CCN(Cc1cccnc1)c1ccc(Br)cn1

>  <score_type>  (10) 
oracle

>  <origin>  (10) 
adg

>  <m_score__min__energy>  (10) 
-6.7599999999999998

>  <m_primary>  (10) 
energy

$$$$
10:0
     RDKit          3D

 51 54  0  0  0  0  0  0  0  0999 V2000
   -0.6030   26.6860  -23.4370 C   0  0  0  0  0  0  0  0  0  0  0  0
    0.0450   26.8670  -24.8120 C   0  0  0  0  0  0  0  0  0  0  0  0
   -0.4600   25.9000  -25.8150 N   0  0  0  0  0  0  0  0  0  0  0  0
   -1.7770   26.3320  -26.3380 C   0  0  0  0  0  0  0  0  0  0  0  0
   -2.8910   25.3480  -25.9780 C   0  0  0  0  0  0  0  0  0  0  0  0
   -0.4060   24.4740  -25.3890 C   0  0  0  0  0  0  0  0  0  0  0  0
    0.3470   23.5170  -26.3370 C   0  0  0  0  0  0  0  0  0  0  0  0
    0.0920   23.8410  -27.7430 N   0  0  0  0  0  0  0  0  0  0  0  0
   -1.1550   23.5390  -28.3940 C   0  0  0  0  0  0  0  0  0  0  0  0
   -1.9210   24.5700  -28.9710 C   0  0  0  0  0  0  0  0  0  0  0  0
   -3.1200   24.2830  -29.6280 C   0  0  0  0  0  0  0  0  0  0  0  0
   -3.8600   25.2920  -30.1840 N   0  0  0  0  0  0  0  0  0  0  0  0
   -5.0310   25.0300  -30.8310 C   0  0  0  0  0  0  0  0  0  0  0  0
   -5.4480   23.7440  -30.9130 N   0  0  0  0  0  0  0  0  0  0  0  0
   -6.5390   23.2860  -31.4910 N   0  0  0  0  0  0  0  0  0  0  0  0
   -6.4880   21.9440  -31.2960 C   0  0  0  0  0  0  0  0  0  0  0  0
   -7.5240   21.0090  -31.7840 C   0  0  0  0  0  0  0  0  0  0  0  0
   -8.8570   21.4340  -31.9330 C   0  0  0  0  0  0  0  0  0  0  0  0
   -9.8350   20.5480  -32.3940 C   0  0  0  0  0  0  0  0  0  0  0  0
   -9.4940   19.2320  -32.7110 C   0  0  0  0  0  0  0  0  0  0  0  0
   -8.1740   18.7980  -32.5670 C   0  0  0  0  0  0  0  0  0  0  0  0
   -7.8440   17.5190  -32.8740 F   0  0  0  0  0  0  0  0  0  0  0  0
   -7.1920   19.6810  -32.1060 C   0  0  0  0  0  0  0  0  0  0  0  0
   -5.3830   21.5480  -30.6070 N   0  0  0  0  0  0  0  0  0  0  0  0
   -4.7650   22.7240  -30.3910 C   0  0  0  0  0  0  0  0  0  0  0  0
   -3.5620   22.9410  -29.7210 C   0  0  0  0  0  0  0  0  0  0  0  0
   -2.8010   21.9090  -29.1600 C   0  0  0  0  0  0  0  0  0  0  0  0
   -1.6000   22.2020  -28.5030 C   0  0  0  0  0  0  0  0  0  0  0  0
   -0.6220   20.7450  -27.7300 Br  0  0  0  0  0  0  0  0  0  0  0  0
    0.1390   26.8933  -22.6518 H   0  0  0  0  0  0  0  0  0  0  0  0
   -1.4484   27.3824  -23.3356 H   0  0  0  0  0  0  0  0  0  0  0  0
   -0.9652   25.6523  -23.3356 H   0  0  0  0  0  0  0  0  0  0  0  0
   -0.1656   27.8860  -25.1687 H   0  0  0  0  0  0  0  0  0  0  0  0
    1.1246   26.6912  -24.6958 H   0  0  0  0  0  0  0  0  0  0  0  0
   -2.0220   27.3162  -25.9122 H   0  0  0  0  0  0  0  0  0  0  0  0
   -1.7071   26.3773  -27.4348 H   0  0  0  0  0  0  0  0  0  0  0  0
   -2.9751   25.2737  -24.8837 H   0  0  0  0  0  0  0  0  0  0  0  0
   -3.8442   25.7044  -26.3957 H   0  0  0  0  0  0  0  0  0  0  0  0
   -2.6550   24.3581  -26.3957 H   0  0  0  0  0  0  0  0  0  0  0  0
    0.0879   24.4338  -24.4070 H   0  0  0  0  0  0  0  0  0  0  0  0
   -1.4493   24.1255  -25.3802 H   0  0  0  0  0  0  0  0  0  0  0  0
    1.4266   23.5974  -26.1421 H   0  0  0  0  0  0  0  0  0  0  0  0
   -0.0105   22.4939  -26.1489 H   0  0  0  0  0  0  0  0  0  0  0  0
    0.9260   24.0510  -28.3350 H   0  0  0  0  0  0  0  0  0  0  0  0
   -1.5721   25.6110  -28.9038 H   0  0  0  0  0  0  0  0  0  0  0  0
   -5.6230   25.8435  -31.2758 H   0  0  0  0  0  0  0  0  0  0  0  0
   -9.1313   22.4700  -31.6851 H   0  0  0  0  0  0  0  0  0  0  0  0
  -10.8749   20.8883  -32.5071 H   0  0  0  0  0  0  0  0  0  0  0  0
  -10.2649   18.5365  -33.0743 H   0  0  0  0  0  0  0  0  0  0  0  0
   -6.1539   19.3346  -31.9947 H   0  0  0  0  0  0  0  0  0  0  0  0
   -3.1466   20.8674  -29.2353 H   0  0  0  0  0  0  0  0  0  0  0  0
  1  2  1  0
  2  3  1  0
  3  4  1  0
  4  5  1  0
  3  6  1  0
  6  7  1  0
  7  8  1  0
  8  9  1  0
  9 10  2  0
 10 11  1  0
 11 12  1  0
 12 13  2  0
 13 14  1  0
 14 15  1  0
 15 16  2  0
 16 17  1  0
 17 18  2  0
 18 19  1  0
 19 20  2  0
 20 21  1  0
 21 22  1  0
 21 23  2  0
 16 24  1  0
 24 25  2  0
 25 26  1  0
 26 27  1  0
 27 28  2  0
 28 29  1  0
 28  9  1  0
 26 11  2  0
 25 14  1  0
 23 17  1  0
  1 30  1  0
  1 31  1  0
  1 32  1  0
  2 33  1  0
  2 34  1  0
  4 35  1  0
  4 36  1  0
  5 37  1  0
  5 38  1  0
  5 39  1  0
  6 40  1  0
  6 41  1  0
  7 42  1  0
  7 43  1  0
  8 44  1  0
 10 45  1  0
 13 46  1  0
 18 47  1  0
 19 48  1  0
 20 49  1  0
 23 50  1  0
 27 51  1  0
M  END
>  <UniqueID>  (11) 
10

>  <SMILES>  (11) 
CCN(CC)CCNc1cc2ncn3nc(-c4cccc(F)c4)nc3c2cc1Br

>  <Energy>  (11) 
103.81488691796007

>  <Genealogy>  (11) 
CCN(CC)CCNc1cc2ncn3nc(-c4cccc(F)c4)nc3c2cc1Br (3D coordinates assigned)
CCN(CC)CCNc1cc2ncn3nc(-c4cccc(F)c4)nc3c2cc1Br (optimized conformer: 103.81488691796007 kcal/mol)

>  <smiles>  (11) 
CCN(CC)CCNc1cc2ncn3nc(-c4cccc(F)c4)nc3c2cc1Br

>  <score_type>  (11) 
oracle

>  <origin>  (11) 
adg

>  <m_score__min__energy>  (11) 
-8.6199999999999992

>  <m_primary>  (11) 
energy

$$$$
11:0
     RDKit          3D

 49 52  0  0  0  0  0  0  0  0999 V2000
   -8.8680   18.8620  -31.6410 C   0  0  0  0  0  0  0  0  0  0  0  0
   -8.4150   19.9380  -32.6200 C   0  0  0  0  0  0  0  0  0  0  0  0
   -6.9990   19.7690  -32.9400 N   0  0  0  0  0  0  0  0  0  0  0  0
   -6.4720   18.9180  -33.8520 C   0  0  0  0  0  0  0  0  0  0  0  0
   -5.0890   19.0660  -33.9120 C   0  0  0  0  0  0  0  0  0  0  0  0
   -4.7850   20.0680  -33.0090 C   0  0  0  0  0  0  0  0  0  0  0  0
   -3.5860   20.6570  -32.5950 C   0  0  0  0  0  0  0  0  0  0  0  0
   -2.3070   20.2920  -33.1470 N   0  0  0  0  0  0  0  0  0  0  0  0
   -1.9170   18.8830  -33.1620 C   0  0  0  0  0  0  0  0  0  0  0  0
   -1.3770   21.3010  -33.6570 C   0  0  0  0  0  0  0  0  0  0  0  0
   -3.6580   21.6000  -31.6080 N   0  0  0  0  0  0  0  0  0  0  0  0
   -4.8530   21.9810  -31.0530 C   0  0  0  0  0  0  0  0  0  0  0  0
   -4.8780   23.0060  -30.0010 C   0  0  0  0  0  0  0  0  0  0  0  0
   -5.3540   24.3020  -30.1050 C   0  0  0  0  0  0  0  0  0  0  0  0
   -5.1690   24.9170  -28.9220 N   0  0  0  0  0  0  0  0  0  0  0  0
   -4.6070   24.0630  -28.0820 N   0  0  0  0  0  0  0  0  0  0  0  0
   -4.1760   24.4000  -26.7290 C   0  0  0  0  0  0  0  0  0  0  0  0
   -2.7950   24.9910  -26.7670 C   0  0  0  0  0  0  0  0  0  0  0  0
   -2.3070   25.7180  -25.6690 C   0  0  0  0  0  0  0  0  0  0  0  0
   -1.0370   26.3020  -25.7190 C   0  0  0  0  0  0  0  0  0  0  0  0
   -0.2500   26.1700  -26.8670 C   0  0  0  0  0  0  0  0  0  0  0  0
   -0.7350   25.4600  -27.9680 C   0  0  0  0  0  0  0  0  0  0  0  0
   -2.0060   24.8770  -27.9240 C   0  0  0  0  0  0  0  0  0  0  0  0
   -4.4040   22.8870  -28.7080 C   0  0  0  0  0  0  0  0  0  0  0  0
   -6.0170   21.4060  -31.4740 N   0  0  0  0  0  0  0  0  0  0  0  0
   -5.9620   20.4600  -32.4410 C   0  0  0  0  0  0  0  0  0  0  0  0
   -8.7184   19.2172  -30.6107 H   0  0  0  0  0  0  0  0  0  0  0  0
   -9.9341   18.6445  -31.8027 H   0  0  0  0  0  0  0  0  0  0  0  0
   -8.2785   17.9475  -31.8027 H   0  0  0  0  0  0  0  0  0  0  0  0
   -9.0075   19.8609  -33.5436 H   0  0  0  0  0  0  0  0  0  0  0  0
   -8.5623   20.9259  -32.1592 H   0  0  0  0  0  0  0  0  0  0  0  0
   -7.0544   18.2098  -34.4596 H   0  0  0  0  0  0  0  0  0  0  0  0
   -4.3861   18.5041  -34.5446 H   0  0  0  0  0  0  0  0  0  0  0  0
   -1.8164   18.5194  -32.1287 H   0  0  0  0  0  0  0  0  0  0  0  0
   -2.6862   18.2952  -33.6843 H   0  0  0  0  0  0  0  0  0  0  0  0
   -0.9550   18.7744  -33.6843 H   0  0  0  0  0  0  0  0  0  0  0  0
   -0.8992   21.8194  -32.8126 H   0  0  0  0  0  0  0  0  0  0  0  0
   -0.6061   20.8122  -34.2708 H   0  0  0  0  0  0  0  0  0  0  0  0
   -1.9269   22.0296  -34.2708 H   0  0  0  0  0  0  0  0  0  0  0  0
   -5.8061   24.7521  -31.0011 H   0  0  0  0  0  0  0  0  0  0  0  0
   -5.4070   25.9100  -28.7000 H   0  0  0  0  0  0  0  0  0  0  0  0
   -4.8741   25.1308  -26.2947 H   0  0  0  0  0  0  0  0  0  0  0  0
   -4.1640   23.4881  -26.1140 H   0  0  0  0  0  0  0  0  0  0  0  0
   -2.9258   25.8286  -24.7663 H   0  0  0  0  0  0  0  0  0  0  0  0
   -0.6570   26.8657  -24.8542 H   0  0  0  0  0  0  0  0  0  0  0  0
    0.7508   26.6251  -26.9033 H   0  0  0  0  0  0  0  0  0  0  0  0
   -0.1161   25.3591  -28.8717 H   0  0  0  0  0  0  0  0  0  0  0  0
   -2.3885   24.3281  -28.7972 H   0  0  0  0  0  0  0  0  0  0  0  0
   -3.9426   21.9907  -28.2678 H   0  0  0  0  0  0  0  0  0  0  0  0
  1  2  1  0
  2  3  1  0
  3  4  1  0
  4  5  2  0
  5  6  1  0
  6  7  2  0
  7  8  1  0
  8  9  1  0
  8 10  1  0
  7 11  1  0
 11 12  2  0
 12 13  1  0
 13 14  1  0
 14 15  2  0
 15 16  1  0
 16 17  1  0
 17 18  1  0
 18 19  2  0
 19 20  1  0
 20 21  2  0
 21 22  1  0
 22 23  2  0
 16 24  1  0
 12 25  1  0
 25 26  2  0
 26  3  1  0
 26  6  1  0
 24 13  2  0
 23 18  1  0
  1 27  1  0
  1 28  1  0
  1 29  1  0
  2 30  1  0
  2 31  1  0
  4 32  1  0
  5 33  1  0
  9 34  1  0
  9 35  1  0
  9 36  1  0
 10 37  1  0
 10 38  1  0
 10 39  1  0
 14 40  1  0
 15 41  1  0
 17 42  1  0
 17 43  1  0
 19 44  1  0
 20 45  1  0
 21 46  1  0
 22 47  1  0
 23 48  1  0
 24 49  1  0
M  CHG  1  15   1
M  END
>  <UniqueID>  (12) 
11

>  <SMILES>  (12) 
CCn1ccc2c(N(C)C)nc(-c3c[nH+]n(Cc4ccccc4)c3)nc21

>  <Energy>  (12) 
114.89322813523191

>  <Genealogy>  (12) 
CCn1ccc2c(N(C)C)nc(-c3c[nH+]n(Cc4ccccc4)c3)nc21 (protonated)
CCn1ccc2c(N(C)C)nc(-c3c[nH+]n(Cc4ccccc4)c3)nc21 (3D coordinates assigned)
CCn1ccc2c(N(C)C)nc(-c3c[nH+]n(Cc4ccccc4)c3)nc21 (optimized conformer: 114.89322813523191 kcal/mol)

>  <smiles>  (12) 
CCn1ccc2c(N(C)C)nc(-c3cnn(Cc4ccccc4)c3)nc21

>  <score_type>  (12) 
oracle

>  <origin>  (12) 
adg

>  <m_score__min__energy>  (12) 
-7.2400000000000002

>  <m_primary>  (12) 
energy

$$$$
12:0
     RDKit          3D

 68 72  0  0  0  0  0  0  0  0999 V2000
   -2.7060   18.9170  -26.3890 C   0  0  0  0  0  0  0  0  0  0  0  0
   -1.3580   18.7170  -27.0780 C   0  0  0  0  0  0  0  0  0  0  0  0
   -0.7230   20.0280  -27.3510 N   0  0  0  0  0  0  0  0  0  0  0  0
   -1.6830   20.9650  -27.9810 C   0  0  0  0  0  0  0  0  0  0  0  0
   -1.6540   22.3150  -27.2680 C   0  0  0  0  0  0  0  0  0  0  0  0
    0.4900   19.8630  -28.1870 C   0  0  0  0  0  0  0  0  0  0  0  0
    0.1100   19.3650  -29.5860 C   0  0  0  0  0  0  0  0  0  0  0  0
    1.1970   19.6590  -30.5270 N   0  0  0  0  0  0  0  0  0  0  0  0
    0.6620   20.1680  -31.7940 C   0  0  0  0  0  0  0  0  0  0  0  0
   -0.5380   19.3460  -32.2130 C   0  0  0  0  0  0  0  0  0  0  0  0
   -1.8150   19.9240  -32.1730 C   0  0  0  0  0  0  0  0  0  0  0  0
   -2.9260   19.1940  -32.5120 C   0  0  0  0  0  0  0  0  0  0  0  0
   -2.8640   17.8960  -32.8900 N   0  0  0  0  0  0  0  0  0  0  0  0
   -1.6520   17.2650  -32.9320 C   0  0  0  0  0  0  0  0  0  0  0  0
   -1.5840   15.9140  -33.3030 C   0  0  0  0  0  0  0  0  0  0  0  0
   -0.3600   15.2470  -33.3230 C   0  0  0  0  0  0  0  0  0  0  0  0
    0.8090   15.9170  -32.9650 C   0  0  0  0  0  0  0  0  0  0  0  0
    0.7690   17.2620  -32.5940 C   0  0  0  0  0  0  0  0  0  0  0  0
   -0.4540   17.9690  -32.5810 C   0  0  0  0  0  0  0  0  0  0  0  0
   -4.0850   20.0360  -32.3230 C   0  0  0  0  0  0  0  0  0  0  0  0
   -5.4260   19.7320  -32.5240 C   0  0  0  0  0  0  0  0  0  0  0  0
   -6.3970   20.7130  -32.2290 C   0  0  0  0  0  0  0  0  0  0  0  0
   -5.9670   21.9980  -31.7950 C   0  0  0  0  0  0  0  0  0  0  0  0
   -4.5850   22.2470  -31.6310 C   0  0  0  0  0  0  0  0  0  0  0  0
   -4.1710   23.3820  -31.2670 O   0  0  0  0  0  0  0  0  0  0  0  0
   -3.6960   21.2480  -31.8820 N   0  0  0  0  0  0  0  0  0  0  0  0
   -2.2360   21.3080  -31.7530 C   0  0  0  0  0  0  0  0  0  0  0  0
   -6.9510   23.1300  -31.6630 C   0  0  0  0  0  0  0  0  0  0  0  0
   -8.2650   22.6670  -31.3850 O   0  0  0  0  0  0  0  0  0  0  0  0
   -8.7870   21.5060  -31.9490 C   0  0  0  0  0  0  0  0  0  0  0  0
  -10.0380   21.3790  -32.0300 O   0  0  0  0  0  0  0  0  0  0  0  0
   -7.8820   20.3770  -32.4050 C   0  0  1  0  0  0  0  0  0  0  0  0
   -8.1330   20.1180  -33.7650 O   0  0  0  0  0  0  0  0  0  0  0  0
   -8.2560   19.0980  -31.6000 C   0  0  0  0  0  0  0  0  0  0  0  0
   -7.9250   17.7890  -32.3270 C   0  0  0  0  0  0  0  0  0  0  0  0
   -2.5668   18.8963  -25.2980 H   0  0  0  0  0  0  0  0  0  0  0  0
   -3.1293   19.8878  -26.6863 H   0  0  0  0  0  0  0  0  0  0  0  0
   -3.3929   18.1109  -26.6863 H   0  0  0  0  0  0  0  0  0  0  0  0
   -0.7007   18.1239  -26.4251 H   0  0  0  0  0  0  0  0  0  0  0  0
   -1.5165   18.1898  -28.0303 H   0  0  0  0  0  0  0  0  0  0  0  0
   -1.4110   21.1070  -29.0373 H   0  0  0  0  0  0  0  0  0  0  0  0
   -2.6960   20.5429  -27.9053 H   0  0  0  0  0  0  0  0  0  0  0  0
   -1.6574   22.1550  -26.1797 H   0  0  0  0  0  0  0  0  0  0  0  0
   -0.7439   22.8619  -27.5553 H   0  0  0  0  0  0  0  0  0  0  0  0
   -2.5398   22.9005  -27.5553 H   0  0  0  0  0  0  0  0  0  0  0  0
    1.0048   20.8312  -28.2742 H   0  0  0  0  0  0  0  0  0  0  0  0
    1.1529   19.1243  -27.7127 H   0  0  0  0  0  0  0  0  0  0  0  0
   -0.0620   18.2790  -29.5535 H   0  0  0  0  0  0  0  0  0  0  0  0
   -0.8070   19.8740  -29.9176 H   0  0  0  0  0  0  0  0  0  0  0  0
    1.7940   20.4060  -30.0990 H   0  0  0  0  0  0  0  0  0  0  0  0
    0.3587   21.2177  -31.6666 H   0  0  0  0  0  0  0  0  0  0  0  0
    1.4386   20.0973  -32.5699 H   0  0  0  0  0  0  0  0  0  0  0  0
   -3.7420   17.3820  -33.1280 H   0  0  0  0  0  0  0  0  0  0  0  0
   -2.5031   15.3769  -33.5802 H   0  0  0  0  0  0  0  0  0  0  0  0
   -0.3165   14.1893  -33.6220 H   0  0  0  0  0  0  0  0  0  0  0  0
    1.7699   15.3817  -32.9750 H   0  0  0  0  0  0  0  0  0  0  0  0
    1.6986   17.7764  -32.3090 H   0  0  0  0  0  0  0  0  0  0  0  0
   -5.7253   18.7448  -32.9060 H   0  0  0  0  0  0  0  0  0  0  0  0
   -1.8091   22.0726  -32.4187 H   0  0  0  0  0  0  0  0  0  0  0  0
   -1.8957   21.5827  -30.7437 H   0  0  0  0  0  0  0  0  0  0  0  0
   -6.6263   23.7883  -30.8438 H   0  0  0  0  0  0  0  0  0  0  0  0
   -6.9777   23.6687  -32.6217 H   0  0  0  0  0  0  0  0  0  0  0  0
   -9.1190   20.0540  -33.8850 H   0  0  0  0  0  0  0  0  0  0  0  0
   -7.7055   19.1144  -30.6478 H   0  0  0  0  0  0  0  0  0  0  0  0
   -9.3465   19.1175  -31.4569 H   0  0  0  0  0  0  0  0  0  0  0  0
   -7.7253   16.9993  -31.5877 H   0  0  0  0  0  0  0  0  0  0  0  0
   -8.7769   17.4942  -32.9574 H   0  0  0  0  0  0  0  0  0  0  0  0
   -7.0354   17.9345  -32.9574 H   0  0  0  0  0  0  0  0  0  0  0  0
  1  2  1  0
  2  3  1  0
  3  4  1  0
  4  5  1  0
  3  6  1  0
  6  7  1  0
  7  8  1  0
  8  9  1  0
  9 10  1  0
 10 11  2  0
 11 12  1  0
 12 13  2  0
 13 14  1  0
 14 15  2  0
 15 16  1  0
 16 17  2  0
 17 18  1  0
 18 19  2  0
 12 20  1  0
 20 21  2  0
 21 22  1  0
 22 23  2  0
 23 24  1  0
 24 25  2  0
 24 26  1  0
 26 27  1  0
 23 28  1  0
 28 29  1  0
 29 30  1  0
 30 31  2  0
 30 32  1  0
 32 33  1  6
 32 34  1  0
 34 35  1  0
 19 10  1  0
 26 20  1  0
 27 11  1  0
 19 14  1  0
 32 22  1  0
  1 36  1  0
  1 37  1  0
  1 38  1  0
  2 39  1  0
  2 40  1  0
  4 41  1  0
  4 42  1  0
  5 43  1  0
  5 44  1  0
  5 45  1  0
  6 46  1  0
  6 47  1  0
  7 48  1  0
  7 49  1  0
  8 50  1  0
  9 51  1  0
  9 52  1  0
 13 53  1  0
 15 54  1  0
 16 55  1  0
 17 56  1  0
 18 57  1  0
 21 58  1  0
 27 59  1  0
 27 60  1  0
 28 61  1  0
 28 62  1  0
 33 63  1  0
 34 64  1  0
 34 65  1  0
 35 66  1  0
 35 67  1  0
 35 68  1  0
M  CHG  1  13   1
M  END
>  <UniqueID>  (13) 
12

>  <SMILES>  (13) 
CCN(CC)CCNCc1c2c([nH+]c3ccccc13)-c1cc3c(c(=O)n1C2)COC(=O)[C@]3(O)CC

>  <Energy>  (13) 
105.17184035964345

>  <Genealogy>  (13) 
CCN(CC)CCNCc1c2c([nH+]c3ccccc13)-c1cc3c(c(=O)n1C2)COC(=O)C3(O)CC (protonated)
CCN(CC)CCNCc1c2c([nH+]c3ccccc13)-c1cc3c(c(=O)n1C2)COC(=O)[C@]3(O)CC (chirality)
CCN(CC)CCNCc1c2c([nH+]c3ccccc13)-c1cc3c(c(=O)n1C2)COC(=O)[C@]3(O)CC (3D coordinates assigned)
CCN(CC)CCNCc1c2c([nH+]c3ccccc13)-c1cc3c(c(=O)n1C2)COC(=O)[C@]3(O)CC (nonaromatic ring conformer: 105.17184035964345 kcal/mol)

>  <smiles>  (13) 
CCN(CC)CCNCc1c2c(nc3ccccc13)-c1cc3c(c(=O)n1C2)COC(=O)C3(O)CC

>  <score_type>  (13) 
oracle

>  <origin>  (13) 
adg

>  <m_score__min__energy>  (13) 
-8.4900000000000002

>  <m_primary>  (13) 
energy

$$$$
13:0
     RDKit          3D

 64 67  0  0  0  0  0  0  0  0999 V2000
   -1.9810   24.2960  -28.7790 C   0  0  0  0  0  0  0  0  0  0  0  0
   -3.4720   24.5500  -29.0480 C   0  0  0  0  0  0  0  0  0  0  0  0
   -3.8590   24.5400  -30.4830 N   0  0  0  0  0  0  0  0  0  0  0  0
   -5.0870   25.3060  -30.7970 C   0  0  0  0  0  0  0  0  0  0  0  0
   -6.1120   25.3210  -29.6600 C   0  0  0  0  0  0  0  0  0  0  0  0
   -3.7490   23.2510  -31.2080 C   0  0  0  0  0  0  0  0  0  0  0  0
   -5.1250   22.5870  -31.4290 C   0  0  0  0  0  0  0  0  0  0  0  0
   -5.3410   22.1380  -32.8190 N   0  0  0  0  0  0  0  0  0  0  0  0
   -5.5010   20.6920  -32.9180 C   0  0  0  0  0  0  0  0  0  0  0  0
   -6.7330   20.0530  -32.5830 C   0  0  0  0  0  0  0  0  0  0  0  0
   -7.8360   20.7580  -32.0280 C   0  0  0  0  0  0  0  0  0  0  0  0
   -9.0090   20.1000  -31.6640 C   0  0  0  0  0  0  0  0  0  0  0  0
   -9.1200   18.7300  -31.8330 C   0  0  0  0  0  0  0  0  0  0  0  0
   -8.0740   18.0120  -32.3990 C   0  0  0  0  0  0  0  0  0  0  0  0
   -6.8810   18.6560  -32.8220 C   0  0  0  0  0  0  0  0  0  0  0  0
   -5.8800   17.9450  -33.4480 N   0  0  0  0  0  0  0  0  0  0  0  0
   -6.1670   16.6070  -34.0150 C   0  0  0  0  0  0  0  0  0  0  0  0
   -4.6220   18.4910  -33.5780 C   0  0  0  0  0  0  0  0  0  0  0  0
   -3.5090   17.6850  -33.9250 C   0  0  0  0  0  0  0  0  0  0  0  0
   -2.2520   18.2380  -34.1330 C   0  0  0  0  0  0  0  0  0  0  0  0
   -2.0480   19.6110  -33.9920 C   0  0  0  0  0  0  0  0  0  0  0  0
   -0.7040   20.1970  -34.2320 C   0  0  0  0  0  0  0  0  0  0  0  0
    0.3700   19.9000  -33.3740 C   0  0  0  0  0  0  0  0  0  0  0  0
    1.6360   20.4480  -33.6040 C   0  0  0  0  0  0  0  0  0  0  0  0
    1.8500   21.3050  -34.7000 C   0  0  0  0  0  0  0  0  0  0  0  0
    3.1020   21.8780  -34.9730 O   0  0  0  0  0  0  0  0  0  0  0  0
    3.2870   23.1700  -35.5410 C   0  0  0  0  0  0  0  0  0  0  0  0
    0.7820   21.6020  -35.5520 C   0  0  0  0  0  0  0  0  0  0  0  0
   -0.4840   21.0550  -35.3240 C   0  0  0  0  0  0  0  0  0  0  0  0
   -3.1250   20.4200  -33.6030 C   0  0  0  0  0  0  0  0  0  0  0  0
   -4.4150   19.8800  -33.3600 C   0  0  0  0  0  0  0  0  0  0  0  0
   -1.8042   24.2659  -27.6937 H   0  0  0  0  0  0  0  0  0  0  0  0
   -1.6864   23.3347  -29.2253 H   0  0  0  0  0  0  0  0  0  0  0  0
   -1.3848   25.1055  -29.2253 H   0  0  0  0  0  0  0  0  0  0  0  0
   -4.0502   23.7690  -28.5326 H   0  0  0  0  0  0  0  0  0  0  0  0
   -3.6841   25.5640  -28.6781 H   0  0  0  0  0  0  0  0  0  0  0  0
   -4.8008   26.3444  -31.0199 H   0  0  0  0  0  0  0  0  0  0  0  0
   -5.5652   24.8086  -31.6537 H   0  0  0  0  0  0  0  0  0  0  0  0
   -5.5873   25.3133  -28.6932 H   0  0  0  0  0  0  0  0  0  0  0  0
   -6.7294   26.2283  -29.7349 H   0  0  0  0  0  0  0  0  0  0  0  0
   -6.7557   24.4322  -29.7349 H   0  0  0  0  0  0  0  0  0  0  0  0
   -3.2826   23.4340  -32.1873 H   0  0  0  0  0  0  0  0  0  0  0  0
   -3.1399   22.5700  -30.5955 H   0  0  0  0  0  0  0  0  0  0  0  0
   -5.2021   21.7140  -30.7643 H   0  0  0  0  0  0  0  0  0  0  0  0
   -5.8913   23.3449  -31.2089 H   0  0  0  0  0  0  0  0  0  0  0  0
   -4.5930   22.5290  -33.4240 H   0  0  0  0  0  0  0  0  0  0  0  0
   -6.1860   22.6130  -33.2080 H   0  0  0  0  0  0  0  0  0  0  0  0
   -7.7617   21.8459  -31.8829 H   0  0  0  0  0  0  0  0  0  0  0  0
   -9.8492   20.6703  -31.2412 H   0  0  0  0  0  0  0  0  0  0  0  0
  -10.0370   18.2100  -31.5189 H   0  0  0  0  0  0  0  0  0  0  0  0
   -8.1717   16.9233  -32.5219 H   0  0  0  0  0  0  0  0  0  0  0  0
   -6.3213   15.8876  -33.1972 H   0  0  0  0  0  0  0  0  0  0  0  0
   -7.0746   16.6582  -34.6344 H   0  0  0  0  0  0  0  0  0  0  0  0
   -5.3182   16.2815  -34.6344 H   0  0  0  0  0  0  0  0  0  0  0  0
   -3.6436   16.5985  -34.0318 H   0  0  0  0  0  0  0  0  0  0  0  0
   -1.4097   17.5876  -34.4114 H   0  0  0  0  0  0  0  0  0  0  0  0
    0.2130   19.2312  -32.5149 H   0  0  0  0  0  0  0  0  0  0  0  0
    2.4680   20.2083  -32.9256 H   0  0  0  0  0  0  0  0  0  0  0  0
    3.3933   23.9125  -34.7364 H   0  0  0  0  0  0  0  0  0  0  0  0
    4.1944   23.1707  -36.1628 H   0  0  0  0  0  0  0  0  0  0  0  0
    2.4162   23.4253  -36.1628 H   0  0  0  0  0  0  0  0  0  0  0  0
    0.9395   22.2724  -36.4098 H   0  0  0  0  0  0  0  0  0  0  0  0
   -1.3141   21.2975  -36.0038 H   0  0  0  0  0  0  0  0  0  0  0  0
   -2.9661   21.5018  -33.4829 H   0  0  0  0  0  0  0  0  0  0  0  0
  1  2  1  0
  2  3  1  0
  3  4  1  0
  4  5  1  0
  3  6  1  0
  6  7  1  0
  7  8  1  0
  8  9  1  0
  9 10  2  0
 10 11  1  0
 11 12  2  0
 12 13  1  0
 13 14  2  0
 14 15  1  0
 15 16  2  0
 16 17  1  0
 16 18  1  0
 18 19  2  0
 19 20  1  0
 20 21  2  0
 21 22  1  0
 22 23  2  0
 23 24  1  0
 24 25  2  0
 25 26  1  0
 26 27  1  0
 25 28  1  0
 28 29  2  0
 21 30  1  0
 30 31  2  0
 31  9  1  0
 15 10  1  0
 31 18  1  0
 29 22  1  0
  1 32  1  0
  1 33  1  0
  1 34  1  0
  2 35  1  0
  2 36  1  0
  4 37  1  0
  4 38  1  0
  5 39  1  0
  5 40  1  0
  5 41  1  0
  6 42  1  0
  6 43  1  0
  7 44  1  0
  7 45  1  0
  8 46  1  0
  8 47  1  0
 11 48  1  0
 12 49  1  0
 13 50  1  0
 14 51  1  0
 17 52  1  0
 17 53  1  0
 17 54  1  0
 19 55  1  0
 20 56  1  0
 23 57  1  0
 24 58  1  0
 27 59  1  0
 27 60  1  0
 27 61  1  0
 28 62  1  0
 29 63  1  0
 30 64  1  0
M  CHG  2   8   1  16   1
M  END
>  <UniqueID>  (14) 
13

>  <SMILES>  (14) 
CCN(CC)CC[NH2+]c1c2ccccc2[n+](C)c2ccc(-c3ccc(OC)cc3)cc12

>  <Energy>  (14) 
105.50841103058006

>  <Genealogy>  (14) 
CCN(CC)CC[NH2+]c1c2ccccc2[n+](C)c2ccc(-c3ccc(OC)cc3)cc12 (protonated)
CCN(CC)CC[NH2+]c1c2ccccc2[n+](C)c2ccc(-c3ccc(OC)cc3)cc12 (3D coordinates assigned)
CCN(CC)CC[NH2+]c1c2ccccc2[n+](C)c2ccc(-c3ccc(OC)cc3)cc12 (optimized conformer: 105.50841103058006 kcal/mol)

>  <smiles>  (14) 
CCN(CC)CCNc1c2ccccc2[n+](C)c2ccc(-c3ccc(OC)cc3)cc12

>  <score_type>  (14) 
oracle

>  <origin>  (14) 
adg

>  <m_score__min__energy>  (14) 
-8.7799999999999994

>  <m_primary>  (14) 
energy

$$$$
14:0
     RDKit          3D

 55 57  0  0  0  0  0  0  0  0999 V2000
   -0.4530   23.2840  -25.3500 C   0  0  0  0  0  0  0  0  0  0  0  0
   -0.4640   24.6710  -24.7160 C   0  0  0  0  0  0  0  0  0  0  0  0
   -1.1480   25.6370  -25.5910 N   0  0  0  0  0  0  0  0  0  0  0  0
   -0.9090   27.0770  -25.4100 C   0  0  0  0  0  0  0  0  0  0  0  0
   -0.4830   27.3870  -23.9760 C   0  0  0  0  0  0  0  0  0  0  0  0
   -2.0340   25.1790  -26.6360 C   0  0  0  0  0  0  0  0  0  0  0  0
   -3.3790   24.8990  -26.3540 C   0  0  0  0  0  0  0  0  0  0  0  0
   -4.2390   24.4530  -27.3610 C   0  0  0  0  0  0  0  0  0  0  0  0
   -3.7740   24.2770  -28.6760 C   0  0  0  0  0  0  0  0  0  0  0  0
   -4.7020   23.8180  -29.7440 C   0  0  0  0  0  0  0  0  0  0  0  0
   -4.6080   22.6360  -30.3990 N   0  0  0  0  0  0  0  0  0  0  0  0
   -5.5770   22.4700  -31.3460 C   0  0  0  0  0  0  0  0  0  0  0  0
   -5.6290   21.2730  -32.2210 C   0  0  0  0  0  0  0  0  0  0  0  0
   -6.8720   20.8480  -32.6980 C   0  0  0  0  0  0  0  0  0  0  0  0
   -6.9780   19.7150  -33.4910 C   0  0  0  0  0  0  0  0  0  0  0  0
   -5.8410   18.9620  -33.8280 C   0  0  0  0  0  0  0  0  0  0  0  0
   -5.9580   17.8130  -34.6270 O   0  0  0  0  0  0  0  0  0  0  0  0
   -6.4790   16.5610  -34.1920 C   0  0  0  0  0  0  0  0  0  0  0  0
   -4.5640   19.3790  -33.3600 C   0  0  0  0  0  0  0  0  0  0  0  0
   -3.3860   18.6660  -33.6530 O   0  0  0  0  0  0  0  0  0  0  0  0
   -3.1600   17.2690  -33.4940 C   0  0  0  0  0  0  0  0  0  0  0  0
   -4.4620   20.5590  -32.5680 C   0  0  0  0  0  0  0  0  0  0  0  0
   -3.2320   21.0820  -32.1140 O   0  0  0  0  0  0  0  0  0  0  0  0
   -2.0100   21.1680  -32.8380 C   0  0  0  0  0  0  0  0  0  0  0  0
   -6.4650   23.5400  -31.4580 C   0  0  0  0  0  0  0  0  0  0  0  0
   -6.0110   24.7020  -30.3340 S   0  0  0  0  0  0  0  0  0  0  0  0
   -2.4260   24.5670  -28.9580 C   0  0  0  0  0  0  0  0  0  0  0  0
   -1.5670   25.0100  -27.9480 C   0  0  0  0  0  0  0  0  0  0  0  0
   -0.4469   22.5194  -24.5592 H   0  0  0  0  0  0  0  0  0  0  0  0
   -1.3502   23.1590  -25.9740 H   0  0  0  0  0  0  0  0  0  0  0  0
    0.4461   23.1732  -25.9740 H   0  0  0  0  0  0  0  0  0  0  0  0
   -0.9895   24.6228  -23.7508 H   0  0  0  0  0  0  0  0  0  0  0  0
    0.5749   25.0010  -24.5685 H   0  0  0  0  0  0  0  0  0  0  0  0
   -0.1139   27.3987  -26.0987 H   0  0  0  0  0  0  0  0  0  0  0  0
   -1.8443   27.6160  -25.6213 H   0  0  0  0  0  0  0  0  0  0  0  0
   -1.1679   26.8886  -23.2742 H   0  0  0  0  0  0  0  0  0  0  0  0
    0.5413   27.0216  -23.8107 H   0  0  0  0  0  0  0  0  0  0  0  0
   -0.5157   28.4740  -23.8107 H   0  0  0  0  0  0  0  0  0  0  0  0
   -3.7604   25.0317  -25.3308 H   0  0  0  0  0  0  0  0  0  0  0  0
   -5.2909   24.2373  -27.1223 H   0  0  0  0  0  0  0  0  0  0  0  0
   -3.8920   21.9050  -30.1950 H   0  0  0  0  0  0  0  0  0  0  0  0
   -7.7768   21.4187  -32.4416 H   0  0  0  0  0  0  0  0  0  0  0  0
   -7.9655   19.4019  -33.8609 H   0  0  0  0  0  0  0  0  0  0  0  0
   -6.4914   16.5311  -33.0925 H   0  0  0  0  0  0  0  0  0  0  0  0
   -7.5032   16.4375  -34.5738 H   0  0  0  0  0  0  0  0  0  0  0  0
   -5.8448   15.7474  -34.5738 H   0  0  0  0  0  0  0  0  0  0  0  0
   -3.1203   17.0236  -32.4225 H   0  0  0  0  0  0  0  0  0  0  0  0
   -3.9792   16.7087  -33.9684 H   0  0  0  0  0  0  0  0  0  0  0  0
   -2.2059   16.9956  -33.9684 H   0  0  0  0  0  0  0  0  0  0  0  0
   -1.1688   21.2272  -32.1317 H   0  0  0  0  0  0  0  0  0  0  0  0
   -1.8952   20.2757  -33.4710 H   0  0  0  0  0  0  0  0  0  0  0  0
   -2.0214   22.0676  -33.4710 H   0  0  0  0  0  0  0  0  0  0  0  0
   -7.3111   23.6100  -32.1574 H   0  0  0  0  0  0  0  0  0  0  0  0
   -2.0449   24.4440  -29.9825 H   0  0  0  0  0  0  0  0  0  0  0  0
   -0.5150   25.2281  -28.1842 H   0  0  0  0  0  0  0  0  0  0  0  0
  1  2  1  0
  2  3  1  0
  3  4  1  0
  4  5  1  0
  3  6  1  0
  6  7  2  0
  7  8  1  0
  8  9  2  0
  9 10  1  0
 10 11  2  0
 11 12  1  0
 12 13  1  0
 13 14  2  0
 14 15  1  0
 15 16  2  0
 16 17  1  0
 17 18  1  0
 16 19  1  0
 19 20  1  0
 20 21  1  0
 19 22  2  0
 22 23  1  0
 23 24  1  0
 12 25  2  0
 25 26  1  0
  9 27  1  0
 27 28  2  0
 28  6  1  0
 26 10  1  0
 22 13  1  0
  1 29  1  0
  1 30  1  0
  1 31  1  0
  2 32  1  0
  2 33  1  0
  4 34  1  0
  4 35  1  0
  5 36  1  0
  5 37  1  0
  5 38  1  0
  7 39  1  0
  8 40  1  0
 11 41  1  0
 14 42  1  0
 15 43  1  0
 18 44  1  0
 18 45  1  0
 18 46  1  0
 21 47  1  0
 21 48  1  0
 21 49  1  0
 24 50  1  0
 24 51  1  0
 24 52  1  0
 25 53  1  0
 27 54  1  0
 28 55  1  0
M  CHG  1  11   1
M  END
>  <UniqueID>  (15) 
14

>  <SMILES>  (15) 
CCN(CC)c1ccc(-c2[nH+]c(-c3ccc(OC)c(OC)c3OC)cs2)cc1

>  <Energy>  (15) 
96.29431907354142

>  <Genealogy>  (15) 
CCN(CC)c1ccc(-c2[nH+]c(-c3ccc(OC)c(OC)c3OC)cs2)cc1 (protonated)
CCN(CC)c1ccc(-c2[nH+]c(-c3ccc(OC)c(OC)c3OC)cs2)cc1 (3D coordinates assigned)
CCN(CC)c1ccc(-c2[nH+]c(-c3ccc(OC)c(OC)c3OC)cs2)cc1 (optimized conformer: 96.29431907354142 kcal/mol)

>  <smiles>  (15) 
CCN(CC)c1ccc(-c2nc(-c3ccc(OC)c(OC)c3OC)cs2)cc1

>  <score_type>  (15) 
oracle

>  <origin>  (15) 
adg

>  <m_score__min__energy>  (15) 
-6.29

>  <m_primary>  (15) 
energy

$$$$
15:0
     RDKit          3D

 59 60  0  0  0  0  0  0  0  0999 V2000
   -1.0420   25.7860  -26.0210 C   0  0  0  0  0  0  0  0  0  0  0  0
   -0.6430   26.1240  -27.4660 C   0  0  0  0  0  0  0  0  0  0  0  0
   -0.2560   24.9510  -28.2880 N   0  0  0  0  0  0  0  0  0  0  0  0
    0.5970   23.9530  -27.6050 C   0  0  0  0  0  0  0  0  0  0  0  0
    0.0370   22.5390  -27.7590 C   0  0  0  0  0  0  0  0  0  0  0  0
   -1.3260   24.4070  -29.1600 C   0  0  0  0  0  0  0  0  0  0  0  0
   -2.7580   24.6870  -28.6780 C   0  0  0  0  0  0  0  0  0  0  0  0
   -3.5070   25.2710  -29.7230 O   0  0  0  0  0  0  0  0  0  0  0  0
   -4.7990   24.7030  -29.7590 C   0  0  0  0  0  0  0  0  0  0  0  0
   -4.7280   23.3670  -30.4950 C   0  0  0  0  0  0  0  0  0  0  0  0
   -3.5160   23.2940  -31.3120 N   0  0  0  0  0  0  0  0  0  0  0  0
   -2.8910   22.0630  -31.7380 C   0  0  0  0  0  0  0  0  0  0  0  0
   -1.6410   21.6610  -31.2200 C   0  0  0  0  0  0  0  0  0  0  0  0
   -1.0250   20.4890  -31.6640 C   0  0  0  0  0  0  0  0  0  0  0  0
   -1.6460   19.6950  -32.6260 C   0  0  0  0  0  0  0  0  0  0  0  0
   -2.8850   20.0680  -33.1460 C   0  0  0  0  0  0  0  0  0  0  0  0
   -3.5130   21.2500  -32.7180 C   0  0  0  0  0  0  0  0  0  0  0  0
   -4.8170   21.5820  -33.2270 N   0  0  0  0  0  0  0  0  0  0  0  0
   -6.0190   20.8780  -32.8690 C   0  0  0  0  0  0  0  0  0  0  0  0
   -7.1330   21.5560  -32.3400 C   0  0  0  0  0  0  0  0  0  0  0  0
   -8.2910   20.8510  -31.9810 C   0  0  0  0  0  0  0  0  0  0  0  0
   -9.4580   21.5780  -31.3810 C   0  0  0  0  0  0  0  0  0  0  0  0
   -8.3210   19.4560  -32.1140 C   0  0  0  0  0  0  0  0  0  0  0  0
   -7.2180   18.7680  -32.6390 C   0  0  0  0  0  0  0  0  0  0  0  0
   -7.2430   17.2710  -32.7450 C   0  0  0  0  0  0  0  0  0  0  0  0
   -6.0640   19.4820  -32.9960 C   0  0  0  0  0  0  0  0  0  0  0  0
   -0.3931   26.3357  -25.3233 H   0  0  0  0  0  0  0  0  0  0  0  0
   -2.0898   26.0755  -25.8527 H   0  0  0  0  0  0  0  0  0  0  0  0
   -0.9287   24.7049  -25.8527 H   0  0  0  0  0  0  0  0  0  0  0  0
   -1.4978   26.6171  -27.9520 H   0  0  0  0  0  0  0  0  0  0  0  0
    0.2462   26.7684  -27.4024 H   0  0  0  0  0  0  0  0  0  0  0  0
    1.6064   23.9872  -28.0409 H   0  0  0  0  0  0  0  0  0  0  0  0
    0.6251   24.1985  -26.5331 H   0  0  0  0  0  0  0  0  0  0  0  0
   -0.1358   22.1027  -26.7641 H   0  0  0  0  0  0  0  0  0  0  0  0
   -0.9131   22.5791  -28.3118 H   0  0  0  0  0  0  0  0  0  0  0  0
    0.7570   21.9177  -28.3118 H   0  0  0  0  0  0  0  0  0  0  0  0
   -1.2095   24.8494  -30.1604 H   0  0  0  0  0  0  0  0  0  0  0  0
   -1.2055   23.3137  -29.1508 H   0  0  0  0  0  0  0  0  0  0  0  0
   -3.2319   23.7426  -28.3721 H   0  0  0  0  0  0  0  0  0  0  0  0
   -2.7256   25.3783  -27.8230 H   0  0  0  0  0  0  0  0  0  0  0  0
   -5.1606   24.5412  -28.7328 H   0  0  0  0  0  0  0  0  0  0  0  0
   -5.4912   25.3808  -30.2800 H   0  0  0  0  0  0  0  0  0  0  0  0
   -4.7183   22.5490  -29.7596 H   0  0  0  0  0  0  0  0  0  0  0  0
   -5.6053   23.2766  -31.1524 H   0  0  0  0  0  0  0  0  0  0  0  0
   -3.0950   24.2080  -31.5880 H   0  0  0  0  0  0  0  0  0  0  0  0
   -1.1456   22.2790  -30.4566 H   0  0  0  0  0  0  0  0  0  0  0  0
   -0.0484   20.1923  -31.2538 H   0  0  0  0  0  0  0  0  0  0  0  0
   -1.1584   18.7730  -32.9756 H   0  0  0  0  0  0  0  0  0  0  0  0
   -3.3749   19.4316  -33.8976 H   0  0  0  0  0  0  0  0  0  0  0  0
   -4.9000   22.4240  -33.8420 H   0  0  0  0  0  0  0  0  0  0  0  0
   -7.0952   22.6473  -32.2071 H   0  0  0  0  0  0  0  0  0  0  0  0
   -9.3912   21.5364  -30.2838 H   0  0  0  0  0  0  0  0  0  0  0  0
   -9.4444   22.6277  -31.7096 H   0  0  0  0  0  0  0  0  0  0  0  0
  -10.3942   21.1030  -31.7096 H   0  0  0  0  0  0  0  0  0  0  0  0
   -9.2163   18.8970  -31.8043 H   0  0  0  0  0  0  0  0  0  0  0  0
   -7.2503   16.8321  -31.7364 H   0  0  0  0  0  0  0  0  0  0  0  0
   -8.1465   16.9569  -33.2881 H   0  0  0  0  0  0  0  0  0  0  0  0
   -6.3505   16.9269  -33.2881 H   0  0  0  0  0  0  0  0  0  0  0  0
   -5.1860   18.9415  -33.3793 H   0  0  0  0  0  0  0  0  0  0  0  0
  1  2  1  0
  2  3  1  0
  3  4  1  0
  4  5  1  0
  3  6  1  0
  6  7  1  0
  7  8  1  0
  8  9  1  0
  9 10  1  0
 10 11  1  0
 11 12  1  0
 12 13  2  0
 13 14  1  0
 14 15  2  0
 15 16  1  0
 16 17  2  0
 17 18  1  0
 18 19  1  0
 19 20  2  0
 20 21  1  0
 21 22  1  0
 21 23  2  0
 23 24  1  0
 24 25  1  0
 24 26  2  0
 17 12  1  0
 26 19  1  0
  1 27  1  0
  1 28  1  0
  1 29  1  0
  2 30  1  0
  2 31  1  0
  4 32  1  0
  4 33  1  0
  5 34  1  0
  5 35  1  0
  5 36  1  0
  6 37  1  0
  6 38  1  0
  7 39  1  0
  7 40  1  0
  9 41  1  0
  9 42  1  0
 10 43  1  0
 10 44  1  0
 11 45  1  0
 13 46  1  0
 14 47  1  0
 15 48  1  0
 16 49  1  0
 18 50  1  0
 20 51  1  0
 22 52  1  0
 22 53  1  0
 22 54  1  0
 23 55  1  0
 25 56  1  0
 25 57  1  0
 25 58  1  0
 26 59  1  0
M  END
>  <UniqueID>  (16) 
15

>  <SMILES>  (16) 
CCN(CC)CCOCCNc1ccccc1Nc1cc(C)cc(C)c1

>  <Energy>  (16) 
67.60232290580696

>  <Genealogy>  (16) 
CCN(CC)CCOCCNc1ccccc1Nc1cc(C)cc(C)c1 (3D coordinates assigned)
CCN(CC)CCOCCNc1ccccc1Nc1cc(C)cc(C)c1 (optimized conformer: 67.60232290580696 kcal/mol)

>  <smiles>  (16) 
CCN(CC)CCOCCNc1ccccc1Nc1cc(C)cc(C)c1

>  <score_type>  (16) 
oracle

>  <origin>  (16) 
adg

>  <m_score__min__energy>  (16) 
-8.0199999999999996

>  <m_primary>  (16) 
energy

$$$$
16:0
     RDKit          3D

 32 33  0  0  0  0  0  0  0  0999 V2000
   -2.7540   20.1360  -33.4290 Br  0  0  0  0  0  0  0  0  0  0  0  0
   -3.1910   21.6220  -32.2660 C   0  0  0  0  0  0  0  0  0  0  0  0
   -4.4960   22.2750  -32.7170 C   0  0  0  0  0  0  0  0  0  0  0  0
   -5.4360   22.4140  -31.5940 N   0  0  0  0  0  0  0  0  0  0  0  0
   -4.9570   22.7390  -30.2420 C   0  0  0  0  0  0  0  0  0  0  0  0
   -4.5700   24.2130  -30.1190 C   0  0  0  0  0  0  0  0  0  0  0  0
   -6.1130   25.3170  -29.7210 Br  0  0  0  0  0  0  0  0  0  0  0  0
   -6.8020   21.9930  -31.7690 C   0  0  0  0  0  0  0  0  0  0  0  0
   -7.8160   22.9610  -31.7760 C   0  0  0  0  0  0  0  0  0  0  0  0
   -9.1510   22.5920  -31.9440 C   0  0  0  0  0  0  0  0  0  0  0  0
   -9.4930   21.2490  -32.1080 C   0  0  0  0  0  0  0  0  0  0  0  0
   -8.4980   20.2610  -32.1060 C   0  0  0  0  0  0  0  0  0  0  0  0
   -8.8440   18.9110  -32.2730 C   0  0  0  0  0  0  0  0  0  0  0  0
   -7.8530   17.9270  -32.2730 C   0  0  0  0  0  0  0  0  0  0  0  0
   -6.5130   18.2800  -32.1070 C   0  0  0  0  0  0  0  0  0  0  0  0
   -6.1530   19.6200  -31.9400 C   0  0  0  0  0  0  0  0  0  0  0  0
   -7.1370   20.6280  -31.9370 C   0  0  0  0  0  0  0  0  0  0  0  0
   -3.3046   21.2559  -31.2349 H   0  0  0  0  0  0  0  0  0  0  0  0
   -2.3816   22.3655  -32.3120 H   0  0  0  0  0  0  0  0  0  0  0  0
   -4.2758   23.2720  -33.1264 H   0  0  0  0  0  0  0  0  0  0  0  0
   -4.9595   21.6356  -33.4827 H   0  0  0  0  0  0  0  0  0  0  0  0
   -5.7554   22.5183  -29.5182 H   0  0  0  0  0  0  0  0  0  0  0  0
   -4.0627   22.1313  -30.0395 H   0  0  0  0  0  0  0  0  0  0  0  0
   -3.8325   24.3233  -29.3103 H   0  0  0  0  0  0  0  0  0  0  0  0
   -4.1470   24.5417  -31.0797 H   0  0  0  0  0  0  0  0  0  0  0  0
   -7.5565   24.0222  -31.6477 H   0  0  0  0  0  0  0  0  0  0  0  0
   -9.9364   23.3621  -31.9472 H   0  0  0  0  0  0  0  0  0  0  0  0
  -10.5474   20.9643  -32.2394 H   0  0  0  0  0  0  0  0  0  0  0  0
   -9.8986   18.6273  -32.4042 H   0  0  0  0  0  0  0  0  0  0  0  0
   -8.1295   16.8704  -32.4042 H   0  0  0  0  0  0  0  0  0  0  0  0
   -5.7370   17.5003  -32.1076 H   0  0  0  0  0  0  0  0  0  0  0  0
   -5.0944   19.8893  -31.8101 H   0  0  0  0  0  0  0  0  0  0  0  0
  1  2  1  0
  2  3  1  0
  3  4  1  0
  4  5  1  0
  5  6  1  0
  6  7  1  0
  4  8  1  0
  8  9  2  0
  9 10  1  0
 10 11  2  0
 11 12  1  0
 12 13  2  0
 13 14  1  0
 14 15  2  0
 15 16  1  0
 16 17  2  0
 17  8  1  0
 17 12  1  0
  2 18  1  0
  2 19  1  0
  3 20  1  0
  3 21  1  0
  5 22  1  0
  5 23  1  0
  6 24  1  0
  6 25  1  0
  9 26  1  0
 10 27  1  0
 11 28  1  0
 13 29  1  0
 14 30  1  0
 15 31  1  0
 16 32  1  0
M  END
>  <UniqueID>  (17) 
16

>  <SMILES>  (17) 
BrCCN(CCBr)c1cccc2ccccc12

>  <Energy>  (17) 
34.49870979705042

>  <Genealogy>  (17) 
BrCCN(CCBr)c1cccc2ccccc12 (3D coordinates assigned)
BrCCN(CCBr)c1cccc2ccccc12 (optimized conformer: 34.49870979705042 kcal/mol)

>  <smiles>  (17) 
BrCCN(CCBr)c1cccc2ccccc12

>  <score_type>  (17) 
oracle

>  <origin>  (17) 
adg

>  <m_score__min__energy>  (17) 
-7.0800000000000001

>  <m_primary>  (17) 
energy

$$$$
17:0
     RDKit          3D

 45 48  0  0  1  0  0  0  0  0999 V2000
   -0.7750   18.9400  -34.2720 N   0  0  0  0  0  0  0  0  0  0  0  0
   -1.8270   19.4900  -33.8090 C   0  0  0  0  0  0  0  0  0  0  0  0
   -1.7260   20.6370  -33.0920 N   0  0  0  0  0  0  0  0  0  0  0  0
   -2.8190   21.2520  -32.5810 C   0  0  0  0  0  0  0  0  0  0  0  0
   -4.0480   20.7380  -32.7730 N   0  0  0  0  0  0  0  0  0  0  0  0
   -4.2300   19.6020  -33.4740 C   0  0  0  0  0  0  0  0  0  0  0  0
   -3.1060   18.9710  -33.9980 C   0  0  0  0  0  0  0  0  0  0  0  0
   -3.5320   17.8670  -34.6510 N   0  0  0  0  0  0  0  0  0  0  0  0
   -4.8800   17.8000  -34.5440 C   0  0  0  0  0  0  0  0  0  0  0  0
   -5.3060   18.8570  -33.8270 N   0  0  0  0  0  0  0  0  0  0  0  0
   -6.6480   19.1900  -33.4670 C   0  0  2  0  0  0  0  0  0  0  0  0
   -6.8290   20.5350  -33.1230 O   0  0  0  0  0  0  0  0  0  0  0  0
   -8.1810   20.5500  -32.6930 C   0  0  2  0  0  0  0  0  0  0  0  0
   -8.4710   21.8060  -31.9480 C   0  0  0  0  0  0  0  0  0  0  0  0
   -7.6350   22.9250  -32.1140 N   0  0  0  0  0  0  0  0  0  0  0  0
   -7.3780   23.7950  -31.0470 C   0  0  0  0  0  0  0  0  0  0  0  0
   -5.9120   23.7550  -30.6340 C   0  0  0  0  0  0  0  0  0  0  0  0
   -5.3570   22.6110  -30.1050 C   0  0  0  0  0  0  0  0  0  0  0  0
   -4.0120   22.6860  -29.7610 C   0  0  0  0  0  0  0  0  0  0  0  0
   -3.2730   23.8410  -29.9390 C   0  0  0  0  0  0  0  0  0  0  0  0
   -3.8580   24.9430  -30.4620 N   0  0  0  0  0  0  0  0  0  0  0  0
   -5.1650   24.9090  -30.8100 C   0  0  0  0  0  0  0  0  0  0  0  0
   -8.3270   19.3370  -31.8380 C   0  0  1  0  0  0  0  0  0  0  0  0
   -9.3330   18.5150  -32.3880 O   0  0  0  0  0  0  0  0  0  0  0  0
   -7.0370   18.5460  -32.1550 C   0  0  2  0  0  0  0  0  0  0  0  0
   -6.0450   18.8890  -31.2220 O   0  0  0  0  0  0  0  0  0  0  0  0
   -0.8360   18.0390  -34.7790 H   0  0  0  0  0  0  0  0  0  0  0  0
   -0.7940   21.0500  -32.9340 H   0  0  0  0  0  0  0  0  0  0  0  0
   -2.7012   22.1807  -32.0034 H   0  0  0  0  0  0  0  0  0  0  0  0
   -5.5199   17.0138  -34.9712 H   0  0  0  0  0  0  0  0  0  0  0  0
   -7.2179   18.8788  -34.3549 H   0  0  0  0  0  0  0  0  0  0  0  0
   -8.8965   20.5288  -33.5282 H   0  0  0  0  0  0  0  0  0  0  0  0
   -9.4851   22.1203  -32.2357 H   0  0  0  0  0  0  0  0  0  0  0  0
   -8.3124   21.5222  -30.8971 H   0  0  0  0  0  0  0  0  0  0  0  0
   -6.9060   22.8680  -32.8540 H   0  0  0  0  0  0  0  0  0  0  0  0
   -7.6356   24.8201  -31.3517 H   0  0  0  0  0  0  0  0  0  0  0  0
   -7.9871   23.4768  -30.1881 H   0  0  0  0  0  0  0  0  0  0  0  0
   -5.9437   21.6914  -29.9629 H   0  0  0  0  0  0  0  0  0  0  0  0
   -3.5207   21.7992  -29.3341 H   0  0  0  0  0  0  0  0  0  0  0  0
   -2.2104   23.8638  -29.6556 H   0  0  0  0  0  0  0  0  0  0  0  0
   -5.6390   25.8054  -31.2365 H   0  0  0  0  0  0  0  0  0  0  0  0
   -8.5244   19.5900  -30.7858 H   0  0  0  0  0  0  0  0  0  0  0  0
   -9.3510   18.5800  -33.3730 H   0  0  0  0  0  0  0  0  0  0  0  0
   -7.1566   17.4525  -32.1568 H   0  0  0  0  0  0  0  0  0  0  0  0
   -5.5790   19.6740  -31.6520 H   0  0  0  0  0  0  0  0  0  0  0  0
  1  2  2  3
  2  3  1  0
  3  4  1  0
  4  5  2  0
  5  6  1  0
  6  7  2  0
  7  8  1  0
  8  9  2  0
  9 10  1  0
 10 11  1  0
 11 12  1  0
 12 13  1  0
 13 14  1  0
 14 15  1  0
 15 16  1  0
 16 17  1  0
 17 18  2  0
 18 19  1  0
 19 20  2  0
 20 21  1  0
 21 22  2  0
 13 23  1  0
 23 24  1  0
 23 25  1  0
 25 26  1  0
  7  2  1  0
 25 11  1  0
 10  6  1  0
 22 17  1  0
  1 27  1  0
  3 28  1  0
  4 29  1  0
  9 30  1  0
 11 31  1  6
 13 32  1  6
 14 33  1  0
 14 34  1  0
 15 35  1  0
 16 36  1  0
 16 37  1  0
 18 38  1  0
 19 39  1  0
 20 40  1  0
 22 41  1  0
 23 42  1  1
 24 43  1  0
 25 44  1  6
 26 45  1  0
M  END
>  <smiles>  (18) 
N=c1[nH]cnc2c1ncn2C1OC(CNCc2cccnc2)C(O)C1O

>  <score_type>  (18) 
oracle

>  <origin>  (18) 
adg

>  <m_score__min__energy>  (18) 
-8.9299999999999997

>  <m_primary>  (18) 
energy

$$$$
18:0
     RDKit          3D

 53 55  0  0  0  0  0  0  0  0999 V2000
   -6.2080   25.3150  -29.6000 C   0  0  0  0  0  0  0  0  0  0  0  0
   -5.3050   25.5980  -30.7890 C   0  0  0  0  0  0  0  0  0  0  0  0
   -4.0170   25.0830  -30.5250 O   0  0  0  0  0  0  0  0  0  0  0  0
   -3.9860   24.4410  -29.2630 C   0  0  0  0  0  0  0  0  0  0  0  0
   -3.7980   22.9200  -29.4110 C   0  0  0  0  0  0  0  0  0  0  0  0
   -4.1570   22.4010  -30.7470 N   0  0  0  0  0  0  0  0  0  0  0  0
   -3.2860   21.3240  -31.2580 C   0  0  0  0  0  0  0  0  0  0  0  0
   -3.0910   21.3840  -32.7800 C   0  0  0  0  0  0  0  0  0  0  0  0
   -4.3870   21.4530  -33.4560 N   0  0  0  0  0  0  0  0  0  0  0  0
   -5.4940   20.6360  -33.0300 C   0  0  0  0  0  0  0  0  0  0  0  0
   -6.6450   21.2330  -32.4830 C   0  0  0  0  0  0  0  0  0  0  0  0
   -6.7490   22.6360  -32.3660 C   0  0  0  0  0  0  0  0  0  0  0  0
   -7.8560   23.2210  -31.7550 C   0  0  0  0  0  0  0  0  0  0  0  0
   -8.8690   22.4230  -31.2410 C   0  0  0  0  0  0  0  0  0  0  0  0
   -8.7980   21.0360  -31.3610 C   0  0  0  0  0  0  0  0  0  0  0  0
   -7.7060   20.4100  -32.0170 C   0  0  0  0  0  0  0  0  0  0  0  0
   -7.6510   19.0390  -32.1870 N   0  0  0  0  0  0  0  0  0  0  0  0
   -8.8640   18.2180  -31.9700 C   0  0  0  0  0  0  0  0  0  0  0  0
   -6.4760   18.4400  -32.6040 C   0  0  0  0  0  0  0  0  0  0  0  0
   -6.2980   17.0330  -32.5520 C   0  0  0  0  0  0  0  0  0  0  0  0
   -5.1410   16.4180  -33.0610 C   0  0  0  0  0  0  0  0  0  0  0  0
   -4.9810   14.9880  -33.0090 N   0  0  0  0  0  0  0  0  0  0  0  0
   -4.5840   14.4280  -31.9650 O   0  0  0  0  0  0  0  0  0  0  0  0
   -5.2690   14.2100  -34.1070 O   0  0  0  0  0  0  0  0  0  0  0  0
   -4.1420   17.2180  -33.6250 C   0  0  0  0  0  0  0  0  0  0  0  0
   -4.2680   18.6030  -33.6380 C   0  0  0  0  0  0  0  0  0  0  0  0
   -5.4040   19.2320  -33.0890 C   0  0  0  0  0  0  0  0  0  0  0  0
   -5.6516   25.4894  -28.6673 H   0  0  0  0  0  0  0  0  0  0  0  0
   -7.0816   25.9824  -29.6360 H   0  0  0  0  0  0  0  0  0  0  0  0
   -6.5445   24.2683  -29.6360 H   0  0  0  0  0  0  0  0  0  0  0  0
   -5.7173   25.1157  -31.6875 H   0  0  0  0  0  0  0  0  0  0  0  0
   -5.2426   26.6834  -30.9564 H   0  0  0  0  0  0  0  0  0  0  0  0
   -3.1513   24.8492  -28.6742 H   0  0  0  0  0  0  0  0  0  0  0  0
   -4.9460   24.6237  -28.7580 H   0  0  0  0  0  0  0  0  0  0  0  0
   -2.7417   22.6810  -29.2187 H   0  0  0  0  0  0  0  0  0  0  0  0
   -4.4766   22.4420  -28.6891 H   0  0  0  0  0  0  0  0  0  0  0  0
   -4.1400   23.1980  -31.4260 H   0  0  0  0  0  0  0  0  0  0  0  0
   -5.1410   22.0430  -30.7170 H   0  0  0  0  0  0  0  0  0  0  0  0
   -2.3017   21.4096  -30.7745 H   0  0  0  0  0  0  0  0  0  0  0  0
   -3.7746   20.3663  -31.0255 H   0  0  0  0  0  0  0  0  0  0  0  0
   -2.5007   22.2764  -33.0353 H   0  0  0  0  0  0  0  0  0  0  0  0
   -2.5638   20.4764  -33.1091 H   0  0  0  0  0  0  0  0  0  0  0  0
   -4.5840   22.2900  -34.0510 H   0  0  0  0  0  0  0  0  0  0  0  0
   -5.9462   23.2752  -32.7621 H   0  0  0  0  0  0  0  0  0  0  0  0
   -7.9274   24.3161  -31.6798 H   0  0  0  0  0  0  0  0  0  0  0  0
   -9.7302   22.8865  -30.7376 H   0  0  0  0  0  0  0  0  0  0  0  0
   -9.6027   20.4155  -30.9397 H   0  0  0  0  0  0  0  0  0  0  0  0
   -9.0385   18.0999  -30.8904 H   0  0  0  0  0  0  0  0  0  0  0  0
   -9.7307   18.7159  -32.4292 H   0  0  0  0  0  0  0  0  0  0  0  0
   -8.7239   17.2283  -32.4292 H   0  0  0  0  0  0  0  0  0  0  0  0
   -7.0843   16.4087  -32.1026 H   0  0  0  0  0  0  0  0  0  0  0  0
   -3.2488   16.7477  -34.0621 H   0  0  0  0  0  0  0  0  0  0  0  0
   -3.4703   19.2161  -34.0828 H   0  0  0  0  0  0  0  0  0  0  0  0
  1  2  1  0
  2  3  1  0
  3  4  1  0
  4  5  1  0
  5  6  1  0
  6  7  1  0
  7  8  1  0
  8  9  1  0
  9 10  1  0
 10 11  2  0
 11 12  1  0
 12 13  2  0
 13 14  1  0
 14 15  2  0
 15 16  1  0
 16 17  2  0
 17 18  1  0
 17 19  1  0
 19 20  2  0
 20 21  1  0
 21 22  1  0
 22 23  2  0
 22 24  1  0
 21 25  2  0
 25 26  1  0
 26 27  2  0
 27 10  1  0
 16 11  1  0
 27 19  1  0
  1 28  1  0
  1 29  1  0
  1 30  1  0
  2 31  1  0
  2 32  1  0
  4 33  1  0
  4 34  1  0
  5 35  1  0
  5 36  1  0
  6 37  1  0
  6 38  1  0
  7 39  1  0
  7 40  1  0
  8 41  1  0
  8 42  1  0
  9 43  1  0
 12 44  1  0
 13 45  1  0
 14 46  1  0
 15 47  1  0
 18 48  1  0
 18 49  1  0
 18 50  1  0
 20 51  1  0
 25 52  1  0
 26 53  1  0
M  CHG  4   6   1  17   1  22   1  24  -1
M  END
>  <UniqueID>  (19) 
17

>  <SMILES>  (19) 
CCOCC[NH2+]CCNc1c2ccccc2[n+](C)c2cc([N+](=O)[O-])ccc12

>  <Energy>  (19) 
80.16507451063164

>  <Genealogy>  (19) 
CCOCC[NH2+]CCNc1c2ccccc2[n+](C)c2cc([N+](=O)[O-])ccc12 (protonated)
CCOCC[NH2+]CCNc1c2ccccc2[n+](C)c2cc([N+](=O)[O-])ccc12 (3D coordinates assigned)
CCOCC[NH2+]CCNc1c2ccccc2[n+](C)c2cc([N+](=O)[O-])ccc12 (optimized conformer: 80.16507451063164 kcal/mol)

>  <smiles>  (19) 
CCOCCNCCNc1c2ccccc2[n+](C)c2cc([N+](=O)[O-])ccc12

>  <score_type>  (19) 
oracle

>  <origin>  (19) 
adg

>  <m_score__min__energy>  (19) 
-7.7999999999999998

>  <m_primary>  (19) 
energy

$$$$
19:0
     RDKit          3D

 50 52  0  0  0  0  0  0  0  0999 V2000
   -0.5070   18.4920  -33.2780 C   0  0  0  0  0  0  0  0  0  0  0  0
   -1.2820   19.2670  -34.3530 C   0  0  0  0  0  0  0  0  0  0  0  0
   -0.9650   20.7220  -34.4320 N   0  0  0  0  0  0  0  0  0  0  0  0
    0.3990   20.9970  -34.9530 C   0  0  0  0  0  0  0  0  0  0  0  0
    0.5010   22.3160  -35.7290 C   0  0  0  0  0  0  0  0  0  0  0  0
   -1.1490   21.4460  -33.1430 C   0  0  0  0  0  0  0  0  0  0  0  0
   -2.4840   21.1610  -32.4300 C   0  0  0  0  0  0  0  0  0  0  0  0
   -3.6220   21.3550  -33.3300 N   0  0  0  0  0  0  0  0  0  0  0  0
   -4.9550   20.9880  -32.9340 C   0  0  0  0  0  0  0  0  0  0  0  0
   -5.4530   19.7030  -33.2180 C   0  0  0  0  0  0  0  0  0  0  0  0
   -4.6390   18.7310  -33.8370 C   0  0  0  0  0  0  0  0  0  0  0  0
   -5.1220   17.4480  -34.0800 C   0  0  0  0  0  0  0  0  0  0  0  0
   -6.4150   17.1070  -33.7020 C   0  0  0  0  0  0  0  0  0  0  0  0
   -7.2440   18.0560  -33.1050 C   0  0  0  0  0  0  0  0  0  0  0  0
   -6.7960   19.3840  -32.8820 C   0  0  0  0  0  0  0  0  0  0  0  0
   -7.6260   20.3510  -32.3440 N   0  0  0  0  0  0  0  0  0  0  0  0
   -9.0860   20.1160  -32.2720 C   0  0  0  0  0  0  0  0  0  0  0  0
   -7.0940   21.5440  -31.8940 C   0  0  0  0  0  0  0  0  0  0  0  0
   -7.8470   22.4410  -31.0930 C   0  0  0  0  0  0  0  0  0  0  0  0
   -7.3090   23.6560  -30.6710 C   0  0  0  0  0  0  0  0  0  0  0  0
   -6.0060   24.0020  -31.0140 C   0  0  0  0  0  0  0  0  0  0  0  0
   -5.3320   25.5270  -30.4680 Cl  0  0  0  0  0  0  0  0  0  0  0  0
   -5.2280   23.1250  -31.7670 C   0  0  0  0  0  0  0  0  0  0  0  0
   -5.7540   21.8920  -32.2100 C   0  0  0  0  0  0  0  0  0  0  0  0
   -0.8354   18.8204  -32.2809 H   0  0  0  0  0  0  0  0  0  0  0  0
   -0.7002   17.4151  -33.3914 H   0  0  0  0  0  0  0  0  0  0  0  0
    0.5699   18.6852  -33.3914 H   0  0  0  0  0  0  0  0  0  0  0  0
   -1.0554   18.8148  -35.3298 H   0  0  0  0  0  0  0  0  0  0  0  0
   -2.3443   19.1982  -34.0760 H   0  0  0  0  0  0  0  0  0  0  0  0
   -1.6350   21.1360  -35.1200 H   0  0  0  0  0  0  0  0  0  0  0  0
    1.0952   21.0383  -34.1024 H   0  0  0  0  0  0  0  0  0  0  0  0
    0.6474   20.1875  -35.6552 H   0  0  0  0  0  0  0  0  0  0  0  0
    0.5658   23.1545  -35.0200 H   0  0  0  0  0  0  0  0  0  0  0  0
    1.4006   22.3005  -36.3618 H   0  0  0  0  0  0  0  0  0  0  0  0
   -0.3903   22.4390  -36.3618 H   0  0  0  0  0  0  0  0  0  0  0  0
   -0.3309   21.1560  -32.4673 H   0  0  0  0  0  0  0  0  0  0  0  0
   -1.1495   22.5187  -33.3864 H   0  0  0  0  0  0  0  0  0  0  0  0
   -2.4838   20.1208  -32.0723 H   0  0  0  0  0  0  0  0  0  0  0  0
   -2.5841   21.8628  -31.5889 H   0  0  0  0  0  0  0  0  0  0  0  0
   -3.4850   21.8790  -34.2220 H   0  0  0  0  0  0  0  0  0  0  0  0
   -3.6111   18.9898  -34.1310 H   0  0  0  0  0  0  0  0  0  0  0  0
   -4.4791   16.7032  -34.5719 H   0  0  0  0  0  0  0  0  0  0  0  0
   -6.7855   16.0857  -33.8742 H   0  0  0  0  0  0  0  0  0  0  0  0
   -8.2621   17.7706  -32.8018 H   0  0  0  0  0  0  0  0  0  0  0  0
   -9.3978   20.0658  -31.2183 H   0  0  0  0  0  0  0  0  0  0  0  0
   -9.6152   20.9405  -32.7721 H   0  0  0  0  0  0  0  0  0  0  0  0
   -9.3298   19.1671  -32.7721 H   0  0  0  0  0  0  0  0  0  0  0  0
   -8.8729   22.1732  -30.7999 H   0  0  0  0  0  0  0  0  0  0  0  0
   -7.9170   24.3435  -30.0647 H   0  0  0  0  0  0  0  0  0  0  0  0
   -4.1923   23.3964  -32.0192 H   0  0  0  0  0  0  0  0  0  0  0  0
  1  2  1  0
  2  3  1  0
  3  4  1  0
  4  5  1  0
  3  6  1  0
  6  7  1  0
  7  8  1  0
  8  9  1  0
  9 10  2  0
 10 11  1  0
 11 12  2  0
 12 13  1  0
 13 14  2  0
 14 15  1  0
 15 16  2  0
 16 17  1  0
 16 18  1  0
 18 19  2  0
 19 20  1  0
 20 21  2  0
 21 22  1  0
 21 23  1  0
 23 24  2  0
 24  9  1  0
 15 10  1  0
 24 18  1  0
  1 25  1  0
  1 26  1  0
  1 27  1  0
  2 28  1  0
  2 29  1  0
  3 30  1  0
  4 31  1  0
  4 32  1  0
  5 33  1  0
  5 34  1  0
  5 35  1  0
  6 36  1  0
  6 37  1  0
  7 38  1  0
  7 39  1  0
  8 40  1  0
 11 41  1  0
 12 42  1  0
 13 43  1  0
 14 44  1  0
 17 45  1  0
 17 46  1  0
 17 47  1  0
 19 48  1  0
 20 49  1  0
 23 50  1  0
M  CHG  2   3   1  16   1
M  END
>  <UniqueID>  (20) 
18

>  <SMILES>  (20) 
CC[NH+](CC)CCNc1c2ccccc2[n+](C)c2ccc(Cl)cc12

>  <Energy>  (20) 
80.44062799898867

>  <Genealogy>  (20) 
CC[NH+](CC)CCNc1c2ccccc2[n+](C)c2ccc(Cl)cc12 (protonated)
CC[NH+](CC)CCNc1c2ccccc2[n+](C)c2ccc(Cl)cc12 (3D coordinates assigned)
CC[NH+](CC)CCNc1c2ccccc2[n+](C)c2ccc(Cl)cc12 (optimized conformer: 80.44062799898867 kcal/mol)

>  <smiles>  (20) 
CCN(CC)CCNc1c2ccccc2[n+](C)c2ccc(Cl)cc12

>  <score_type>  (20) 
oracle

>  <origin>  (20) 
adg

>  <m_score__min__energy>  (20) 
-7.5599999999999996

>  <m_primary>  (20) 
energy

$$$$
20:0
     RDKit          3D

 33 35  0  0  0  0  0  0  0  0999 V2000
   -9.0360   18.2660  -31.6930 C   0  0  0  0  0  0  0  0  0  0  0  0
   -9.2970   19.6650  -31.7170 O   0  0  0  0  0  0  0  0  0  0  0  0
   -8.3050   20.6540  -31.7910 C   0  0  0  0  0  0  0  0  0  0  0  0
   -8.6560   21.9720  -31.4800 C   0  0  0  0  0  0  0  0  0  0  0  0
   -7.7040   22.9930  -31.5380 C   0  0  0  0  0  0  0  0  0  0  0  0
   -6.3800   22.7170  -31.9230 C   0  0  0  0  0  0  0  0  0  0  0  0
   -5.3610   23.8420  -31.9390 C   0  0  1  0  0  0  0  0  0  0  0  0
   -5.9040   25.1050  -31.2400 C   0  0  0  0  0  0  0  0  0  0  0  0
   -5.7650   25.0120  -29.7490 C   0  0  0  0  0  0  0  0  0  0  0  0
   -6.6170   25.5670  -29.0040 O   0  0  0  0  0  0  0  0  0  0  0  0
   -4.5870   24.3380  -29.1760 C   0  0  0  0  0  0  0  0  0  0  0  0
   -4.2590   24.4460  -27.8150 C   0  0  0  0  0  0  0  0  0  0  0  0
   -3.1120   23.8190  -27.3190 C   0  0  0  0  0  0  0  0  0  0  0  0
   -2.2880   23.0830  -28.1760 C   0  0  0  0  0  0  0  0  0  0  0  0
   -2.6160   22.9640  -29.5300 C   0  0  0  0  0  0  0  0  0  0  0  0
   -3.7680   23.5800  -30.0310 C   0  0  0  0  0  0  0  0  0  0  0  0
   -4.1070   23.4220  -31.3810 O   0  0  0  0  0  0  0  0  0  0  0  0
   -6.0250   21.3880  -32.2200 C   0  0  0  0  0  0  0  0  0  0  0  0
   -6.9790   20.3680  -32.1600 C   0  0  0  0  0  0  0  0  0  0  0  0
   -8.9720   17.9228  -30.6499 H   0  0  0  0  0  0  0  0  0  0  0  0
   -9.8501   17.7323  -32.2053 H   0  0  0  0  0  0  0  0  0  0  0  0
   -8.0842   18.0617  -32.2053 H   0  0  0  0  0  0  0  0  0  0  0  0
   -9.6901   22.2065  -31.1874 H   0  0  0  0  0  0  0  0  0  0  0  0
   -7.9929   24.0225  -31.2800 H   0  0  0  0  0  0  0  0  0  0  0  0
   -5.1763   24.1070  -32.9905 H   0  0  0  0  0  0  0  0  0  0  0  0
   -5.3421   25.9806  -31.5973 H   0  0  0  0  0  0  0  0  0  0  0  0
   -6.9730   25.2000  -31.4814 H   0  0  0  0  0  0  0  0  0  0  0  0
   -4.9051   25.0245  -27.1383 H   0  0  0  0  0  0  0  0  0  0  0  0
   -2.8573   23.9049  -26.2523 H   0  0  0  0  0  0  0  0  0  0  0  0
   -1.3817   22.5976  -27.7850 H   0  0  0  0  0  0  0  0  0  0  0  0
   -1.9668   22.3847  -30.2029 H   0  0  0  0  0  0  0  0  0  0  0  0
   -4.9886   21.1500  -32.5016 H   0  0  0  0  0  0  0  0  0  0  0  0
   -6.6902   19.3348  -32.4031 H   0  0  0  0  0  0  0  0  0  0  0  0
  1  2  1  0
  2  3  1  0
  3  4  2  0
  4  5  1  0
  5  6  2  0
  6  7  1  0
  7  8  1  0
  8  9  1  0
  9 10  2  0
  9 11  1  0
 11 12  2  0
 12 13  1  0
 13 14  2  0
 14 15  1  0
 15 16  2  0
 16 17  1  0
  6 18  1  0
 18 19  2  0
 19  3  1  0
 17  7  1  0
 16 11  1  0
  1 20  1  0
  1 21  1  0
  1 22  1  0
  4 23  1  0
  5 24  1  0
  7 25  1  6
  8 26  1  0
  8 27  1  0
 12 28  1  0
 13 29  1  0
 14 30  1  0
 15 31  1  0
 18 32  1  0
 19 33  1  0
M  END
>  <UniqueID>  (21) 
19

>  <SMILES>  (21) 
COc1ccc([C@H]2CC(=O)c3ccccc3O2)cc1

>  <Energy>  (21) 
37.70283291591859

>  <Genealogy>  (21) 
COc1ccc([C@H]2CC(=O)c3ccccc3O2)cc1 (chirality)
COc1ccc([C@H]2CC(=O)c3ccccc3O2)cc1 (3D coordinates assigned)
COc1ccc([C@H]2CC(=O)c3ccccc3O2)cc1 (nonaromatic ring conformer: 37.70283291591859 kcal/mol)

>  <smiles>  (21) 
COc1ccc(C2CC(=O)c3ccccc3O2)cc1

>  <score_type>  (21) 
oracle

>  <origin>  (21) 
adg

>  <m_score__min__energy>  (21) 
-6.8700000000000001

>  <m_primary>  (21) 
energy

$$$$
21:0
     RDKit          3D

 51 54  0  0  0  0  0  0  0  0999 V2000
   -5.5010   16.0520  -32.6610 C   0  0  0  0  0  0  0  0  0  0  0  0
   -5.8720   17.3780  -33.1500 N   0  0  0  0  0  0  0  0  0  0  0  0
   -5.2210   18.1510  -34.0620 C   0  0  0  0  0  0  0  0  0  0  0  0
   -4.0180   17.7070  -34.8420 C   0  0  0  0  0  0  0  0  0  0  0  0
   -2.7840   18.2130  -34.2100 N   0  0  0  0  0  0  0  0  0  0  0  0
   -2.6800   17.7840  -32.8090 C   0  0  0  0  0  0  0  0  0  0  0  0
   -2.0640   18.9370  -32.0430 C   0  0  0  0  0  0  0  0  0  0  0  0
   -2.5910   20.1780  -32.7650 C   0  0  0  0  0  0  0  0  0  0  0  0
   -1.6070   21.3830  -32.6450 C   0  0  0  0  0  0  0  0  0  0  0  0
   -2.0020   22.3060  -31.4900 C   0  0  0  0  0  0  0  0  0  0  0  0
   -3.3180   22.9320  -31.7390 N   0  0  0  0  0  0  0  0  0  0  0  0
   -3.9540   23.6270  -30.2660 S   0  0  0  0  0  0  0  0  0  0  0  0
   -5.5880   23.0160  -29.8930 C   0  0  0  0  0  0  0  0  0  0  0  0
   -4.0200   25.1220  -30.4150 O   0  0  0  0  0  0  0  0  0  0  0  0
   -3.0400   23.2980  -29.1200 O   0  0  0  0  0  0  0  0  0  0  0  0
   -4.3090   22.0510  -32.4060 C   0  0  0  0  0  0  0  0  0  0  0  0
   -4.0060   20.5560  -32.2140 C   0  0  0  0  0  0  0  0  0  0  0  0
   -2.6920   19.6860  -34.2240 C   0  0  0  0  0  0  0  0  0  0  0  0
   -5.7850   19.3770  -34.2310 N   0  0  0  0  0  0  0  0  0  0  0  0
   -6.8130   19.3590  -33.3640 C   0  0  0  0  0  0  0  0  0  0  0  0
   -7.7250   20.3810  -33.1090 C   0  0  0  0  0  0  0  0  0  0  0  0
   -8.7140   20.1490  -32.1350 C   0  0  0  0  0  0  0  0  0  0  0  0
   -8.7640   18.9160  -31.4450 C   0  0  0  0  0  0  0  0  0  0  0  0
   -7.8270   17.9040  -31.7260 C   0  0  0  0  0  0  0  0  0  0  0  0
   -6.8660   18.1650  -32.7040 C   0  0  0  0  0  0  0  0  0  0  0  0
   -5.5014   16.0535  -31.5610 H   0  0  0  0  0  0  0  0  0  0  0  0
   -6.2261   15.3101  -33.0269 H   0  0  0  0  0  0  0  0  0  0  0  0
   -4.4962   15.7941  -33.0269 H   0  0  0  0  0  0  0  0  0  0  0  0
   -3.9879   16.6077  -34.8686 H   0  0  0  0  0  0  0  0  0  0  0  0
   -4.0866   18.1063  -35.8647 H   0  0  0  0  0  0  0  0  0  0  0  0
   -3.6782   17.5535  -32.4084 H   0  0  0  0  0  0  0  0  0  0  0  0
   -2.0649   16.8765  -32.7186 H   0  0  0  0  0  0  0  0  0  0  0  0
   -2.3891   18.9274  -30.9922 H   0  0  0  0  0  0  0  0  0  0  0  0
   -0.9651   18.8932  -32.0195 H   0  0  0  0  0  0  0  0  0  0  0  0
   -0.5910   21.0005  -32.4675 H   0  0  0  0  0  0  0  0  0  0  0  0
   -1.6459   21.9595  -33.5810 H   0  0  0  0  0  0  0  0  0  0  0  0
   -2.0529   21.7187  -30.5613 H   0  0  0  0  0  0  0  0  0  0  0  0
   -1.2466   23.1008  -31.4021 H   0  0  0  0  0  0  0  0  0  0  0  0
   -5.7207   22.9664  -28.8022 H   0  0  0  0  0  0  0  0  0  0  0  0
   -6.3400   23.6937  -30.3234 H   0  0  0  0  0  0  0  0  0  0  0  0
   -5.7108   22.0112  -30.3234 H   0  0  0  0  0  0  0  0  0  0  0  0
   -5.3044   22.2637  -31.9889 H   0  0  0  0  0  0  0  0  0  0  0  0
   -4.2636   22.2609  -33.4848 H   0  0  0  0  0  0  0  0  0  0  0  0
   -4.0458   20.3190  -31.1406 H   0  0  0  0  0  0  0  0  0  0  0  0
   -4.7575   19.9788  -32.7727 H   0  0  0  0  0  0  0  0  0  0  0  0
   -3.5890   20.1104  -34.6986 H   0  0  0  0  0  0  0  0  0  0  0  0
   -1.8073   20.0055  -34.7942 H   0  0  0  0  0  0  0  0  0  0  0  0
   -7.6737   21.3370  -33.6507 H   0  0  0  0  0  0  0  0  0  0  0  0
   -9.4528   20.9320  -31.9091 H   0  0  0  0  0  0  0  0  0  0  0  0
   -9.5399   18.7466  -30.6839 H   0  0  0  0  0  0  0  0  0  0  0  0
   -7.8512   16.9416  -31.1938 H   0  0  0  0  0  0  0  0  0  0  0  0
  1  2  1  0
  2  3  1  0
  3  4  1  0
  4  5  1  0
  5  6  1  0
  6  7  1  0
  7  8  1  0
  8  9  1  0
  9 10  1  0
 10 11  1  0
 11 12  1  0
 12 13  1  0
 12 14  2  0
 12 15  2  0
 11 16  1  0
 16 17  1  0
  8 18  1  0
  3 19  2  0
 19 20  1  0
 20 21  2  0
 21 22  1  0
 22 23  2  0
 23 24  1  0
 24 25  2  0
 25  2  1  0
 18  5  1  0
 25 20  1  0
 17  8  1  0
  1 26  1  0
  1 27  1  0
  1 28  1  0
  4 29  1  0
  4 30  1  0
  6 31  1  0
  6 32  1  0
  7 33  1  0
  7 34  1  0
  9 35  1  0
  9 36  1  0
 10 37  1  0
 10 38  1  0
 13 39  1  0
 13 40  1  0
 13 41  1  0
 16 42  1  0
 16 43  1  0
 17 44  1  0
 17 45  1  0
 18 46  1  0
 18 47  1  0
 21 48  1  0
 22 49  1  0
 23 50  1  0
 24 51  1  0
M  END
>  <UniqueID>  (22) 
20

>  <SMILES>  (22) 
Cn1c(CN2CCC3(CCN(S(C)(=O)=O)CC3)C2)nc2ccccc21

>  <Energy>  (22) 
97.83649205639118

>  <Genealogy>  (22) 
Cn1c(CN2CCC3(CCN(S(C)(=O)=O)CC3)C2)nc2ccccc21 (3D coordinates assigned)
Cn1c(CN2CCC3(CCN(S(C)(=O)=O)CC3)C2)nc2ccccc21 (nonaromatic ring conformer: 97.83649205639118 kcal/mol)

>  <smiles>  (22) 
Cn1c(CN2CCC3(CCN(S(C)(=O)=O)CC3)C2)nc2ccccc21

>  <score_type>  (22) 
oracle

>  <origin>  (22) 
adg

>  <m_score__min__energy>  (22) 
-9.9499999999999993

>  <m_primary>  (22) 
energy

$$$$
22:0
     RDKit          3D

 48 50  0  0  0  0  0  0  0  0999 V2000
   -2.6910   21.9550  -29.9870 C   0  0  0  0  0  0  0  0  0  0  0  0
   -2.6930   23.3150  -30.4020 O   0  0  0  0  0  0  0  0  0  0  0  0
   -3.8690   24.0030  -30.7170 C   0  0  0  0  0  0  0  0  0  0  0  0
   -3.8700   25.2630  -30.8010 O   0  0  0  0  0  0  0  0  0  0  0  0
   -5.1410   23.2300  -30.9350 C   0  0  0  0  0  0  0  0  0  0  0  0
   -5.8730   22.9790  -29.5950 C   0  0  0  0  0  0  0  0  0  0  0  0
   -7.4070   22.9870  -29.7460 C   0  0  0  0  0  0  0  0  0  0  0  0
   -7.8490   22.3910  -31.0240 N   0  0  0  0  0  0  0  0  0  0  0  0
   -7.6040   20.9330  -31.0830 C   0  0  0  0  0  0  0  0  0  0  0  0
   -8.3640   20.3200  -32.2650 C   0  0  0  0  0  0  0  0  0  0  0  0
   -7.4620   20.0660  -33.4840 C   0  0  0  0  0  0  0  0  0  0  0  0
   -6.2850   19.2530  -33.1270 N   0  0  0  0  0  0  0  0  0  0  0  0
   -6.4820   17.8690  -32.7640 C   0  0  0  0  0  0  0  0  0  0  0  0
   -7.6270   17.3450  -32.8190 O   0  0  0  0  0  0  0  0  0  0  0  0
   -5.3350   17.0530  -32.2480 C   0  0  0  0  0  0  0  0  0  0  0  0
   -4.0990   17.5120  -32.7890 O   0  0  0  0  0  0  0  0  0  0  0  0
   -3.8550   18.8640  -33.0330 C   0  0  0  0  0  0  0  0  0  0  0  0
   -2.5420   19.3200  -33.1530 C   0  0  0  0  0  0  0  0  0  0  0  0
   -2.2970   20.6750  -33.3650 C   0  0  0  0  0  0  0  0  0  0  0  0
   -3.3730   21.5560  -33.4560 C   0  0  0  0  0  0  0  0  0  0  0  0
   -4.6510   21.0970  -33.3610 N   0  0  0  0  0  0  0  0  0  0  0  0
   -4.9260   19.7670  -33.1690 C   0  0  0  0  0  0  0  0  0  0  0  0
   -7.3300   23.1200  -32.2140 C   0  0  0  0  0  0  0  0  0  0  0  0
   -6.0510   23.9420  -31.9440 C   0  0  0  0  0  0  0  0  0  0  0  0
   -2.6909   21.9070  -28.8880 H   0  0  0  0  0  0  0  0  0  0  0  0
   -3.5884   21.4516  -30.3760 H   0  0  0  0  0  0  0  0  0  0  0  0
   -1.7921   21.4543  -30.3760 H   0  0  0  0  0  0  0  0  0  0  0  0
   -4.8759   22.2503  -31.3591 H   0  0  0  0  0  0  0  0  0  0  0  0
   -5.5629   21.9993  -29.2025 H   0  0  0  0  0  0  0  0  0  0  0  0
   -5.6018   23.7955  -28.9096 H   0  0  0  0  0  0  0  0  0  0  0  0
   -7.8468   22.4127  -28.9173 H   0  0  0  0  0  0  0  0  0  0  0  0
   -7.7407   24.0351  -29.7308 H   0  0  0  0  0  0  0  0  0  0  0  0
   -6.5267   20.7496  -31.2083 H   0  0  0  0  0  0  0  0  0  0  0  0
   -7.9555   20.4701  -30.1491 H   0  0  0  0  0  0  0  0  0  0  0  0
   -8.7999   19.3623  -31.9443 H   0  0  0  0  0  0  0  0  0  0  0  0
   -9.1392   21.0385  -32.5697 H   0  0  0  0  0  0  0  0  0  0  0  0
   -8.0423   19.5357  -34.2534 H   0  0  0  0  0  0  0  0  0  0  0  0
   -7.1085   21.0377  -33.8594 H   0  0  0  0  0  0  0  0  0  0  0  0
   -5.3002   17.1340  -31.1515 H   0  0  0  0  0  0  0  0  0  0  0  0
   -5.4841   16.0064  -32.5520 H   0  0  0  0  0  0  0  0  0  0  0  0
   -1.7031   18.6122  -33.0805 H   0  0  0  0  0  0  0  0  0  0  0  0
   -1.2656   21.0454  -33.4595 H   0  0  0  0  0  0  0  0  0  0  0  0
   -3.1882   22.6300  -33.6057 H   0  0  0  0  0  0  0  0  0  0  0  0
   -5.4070   21.8090  -33.4270 H   0  0  0  0  0  0  0  0  0  0  0  0
   -7.1072   22.3833  -32.9999 H   0  0  0  0  0  0  0  0  0  0  0  0
   -8.1099   23.8367  -32.5108 H   0  0  0  0  0  0  0  0  0  0  0  0
   -5.5040   24.0765  -32.8888 H   0  0  0  0  0  0  0  0  0  0  0  0
   -6.3432   24.9162  -31.5249 H   0  0  0  0  0  0  0  0  0  0  0  0
  1  2  1  0
  2  3  1  0
  3  4  2  0
  3  5  1  0
  5  6  1  0
  6  7  1  0
  7  8  1  0
  8  9  1  0
  9 10  1  0
 10 11  1  0
 11 12  1  0
 12 13  1  0
 13 14  2  0
 13 15  1  0
 15 16  1  0
 16 17  1  0
 17 18  2  0
 18 19  1  0
 19 20  2  0
 20 21  1  0
 21 22  2  0
  8 23  1  0
 23 24  1  0
 24  5  1  0
 22 12  1  0
 22 17  1  0
  1 25  1  0
  1 26  1  0
  1 27  1  0
  5 28  1  0
  6 29  1  0
  6 30  1  0
  7 31  1  0
  7 32  1  0
  9 33  1  0
  9 34  1  0
 10 35  1  0
 10 36  1  0
 11 37  1  0
 11 38  1  0
 15 39  1  0
 15 40  1  0
 18 41  1  0
 19 42  1  0
 20 43  1  0
 21 44  1  0
 23 45  1  0
 23 46  1  0
 24 47  1  0
 24 48  1  0
M  CHG  1  21   1
M  END
>  <UniqueID>  (23) 
21

>  <SMILES>  (23) 
COC(=O)C1CCN(CCCN2C(=O)COc3ccc[nH+]c32)CC1

>  <Energy>  (23) 
56.84291216759279

>  <Genealogy>  (23) 
COC(=O)C1CCN(CCCN2C(=O)COc3ccc[nH+]c32)CC1 (protonated)
COC(=O)C1CCN(CCCN2C(=O)COc3ccc[nH+]c32)CC1 (3D coordinates assigned)
COC(=O)C1CCN(CCCN2C(=O)COc3ccc[nH+]c32)CC1 (nonaromatic ring conformer: 56.84291216759279 kcal/mol)

>  <smiles>  (23) 
COC(=O)C1CCN(CCCN2C(=O)COc3cccnc32)CC1

>  <score_type>  (23) 
oracle

>  <origin>  (23) 
adg

>  <m_score__min__energy>  (23) 
-7.1900000000000004

>  <m_primary>  (23) 
energy

$$$$
23:0
     RDKit          3D

 47 51  0  0  0  0  0  0  0  0999 V2000
   -7.7065   17.0560  -33.8397 H   0  0  0  0  0  0  0  0  0  0  0  0
   -6.8240   17.5980  -33.4690 C   0  0  0  0  0  0  0  0  0  0  0  0
   -5.5910   18.2380  -34.4170 S   0  0  0  0  0  0  0  0  0  0  0  0
   -4.6990   18.8840  -33.1450 C   0  0  0  0  0  0  0  0  0  0  0  0
   -3.3760   19.5810  -33.2680 C   0  0  0  0  0  0  0  0  0  0  0  0
   -2.9821   19.4216  -34.2826 H   0  0  0  0  0  0  0  0  0  0  0  0
   -2.6965   19.1626  -32.5109 H   0  0  0  0  0  0  0  0  0  0  0  0
   -3.4970   21.0190  -33.0270 N   0  0  0  0  0  0  0  0  0  0  0  0
   -3.7730   21.7470  -31.9720 C   0  0  0  0  0  0  0  0  0  0  0  0
   -2.6520   22.1540  -31.2280 C   0  0  0  0  0  0  0  0  0  0  0  0
   -1.6611   21.7227  -31.4333 H   0  0  0  0  0  0  0  0  0  0  0  0
   -2.8100   23.1040  -30.2340 C   0  0  0  0  0  0  0  0  0  0  0  0
   -1.8620   23.6870  -29.4190 C   0  0  0  0  0  0  0  0  0  0  0  0
   -0.4860   23.5210  -29.2890 C   0  0  0  0  0  0  0  0  0  0  0  0
    0.0600   22.8009  -29.9162 H   0  0  0  0  0  0  0  0  0  0  0  0
    0.1860   24.3040  -28.3290 C   0  0  0  0  0  0  0  0  0  0  0  0
    1.5720   24.1410  -28.1950 O   0  0  0  0  0  0  0  0  0  0  0  0
    2.3930   24.9150  -27.3280 C   0  0  0  0  0  0  0  0  0  0  0  0
    2.1448   24.6810  -26.2822 H   0  0  0  0  0  0  0  0  0  0  0  0
    3.4506   24.6777  -27.5158 H   0  0  0  0  0  0  0  0  0  0  0  0
    2.2183   25.9847  -27.5158 H   0  0  0  0  0  0  0  0  0  0  0  0
   -0.5500   25.2290  -27.5320 C   0  0  0  0  0  0  0  0  0  0  0  0
   -0.0247   25.8394  -26.7827 H   0  0  0  0  0  0  0  0  0  0  0  0
   -1.9410   25.3700  -27.6930 C   0  0  0  0  0  0  0  0  0  0  0  0
   -2.5147   26.0821  -27.0815 H   0  0  0  0  0  0  0  0  0  0  0  0
   -2.5660   24.5790  -28.6510 C   0  0  0  0  0  0  0  0  0  0  0  0
   -3.8730   24.5460  -28.9810 N   0  0  0  0  0  0  0  0  0  0  0  0
   -4.6260   25.1210  -28.5470 H   0  0  0  0  0  0  0  0  0  0  0  0
   -4.0110   23.6440  -29.9510 N   0  0  0  0  0  0  0  0  0  0  0  0
   -5.1590   23.2530  -30.5820 C   0  0  0  0  0  0  0  0  0  0  0  0
   -6.4050   23.8130  -30.2430 C   0  0  0  0  0  0  0  0  0  0  0  0
   -6.4542   24.6252  -29.5028 H   0  0  0  0  0  0  0  0  0  0  0  0
   -7.5740   23.3490  -30.8350 C   0  0  0  0  0  0  0  0  0  0  0  0
   -8.5373   23.8192  -30.5879 H   0  0  0  0  0  0  0  0  0  0  0  0
   -7.5300   22.2850  -31.7450 C   0  0  0  0  0  0  0  0  0  0  0  0
   -8.6890   21.7440  -32.3230 O   0  0  0  0  0  0  0  0  0  0  0  0
   -8.8330   20.3830  -32.7150 C   0  0  0  0  0  0  0  0  0  0  0  0
   -8.9001   19.7485  -31.8190 H   0  0  0  0  0  0  0  0  0  0  0  0
   -9.7482   20.2690  -33.3145 H   0  0  0  0  0  0  0  0  0  0  0  0
   -7.9619   20.0800  -33.3145 H   0  0  0  0  0  0  0  0  0  0  0  0
   -6.2960   21.7270  -32.0920 C   0  0  0  0  0  0  0  0  0  0  0  0
   -6.2724   20.8668  -32.7772 H   0  0  0  0  0  0  0  0  0  0  0  0
   -5.0790   22.2360  -31.5880 C   0  0  0  0  0  0  0  0  0  0  0  0
   -5.3440   18.5790  -31.9530 C   0  0  0  0  0  0  0  0  0  0  0  0
   -4.9564   18.8650  -30.9641 H   0  0  0  0  0  0  0  0  0  0  0  0
   -6.5370   17.8710  -32.1380 C   0  0  0  0  0  0  0  0  0  0  0  0
   -7.1867   17.5598  -31.3067 H   0  0  0  0  0  0  0  0  0  0  0  0
  1  2  1  0
  2  3  1  0
  3  4  1  0
  4  5  1  0
  5  6  1  0
  5  7  1  0
  5  8  1  0
  8  9  2  0
  9 10  1  0
 10 11  1  0
 10 12  2  0
 12 13  1  0
 13 14  2  0
 14 15  1  0
 14 16  1  0
 16 17  1  0
 17 18  1  0
 18 19  1  0
 18 20  1  0
 18 21  1  0
 16 22  2  0
 22 23  1  0
 22 24  1  0
 24 25  1  0
 24 26  2  0
 26 27  1  0
 27 28  1  0
 27 29  1  0
 29 30  1  0
 30 31  2  0
 31 32  1  0
 31 33  1  0
 33 34  1  0
 33 35  2  0
 35 36  1  0
 36 37  1  0
 37 38  1  0
 37 39  1  0
 37 40  1  0
 35 41  1  0
 41 42  1  0
 41 43  2  0
  4 44  2  0
 44 45  1  0
 44 46  1  0
 46 47  1  0
 46  2  2  0
 43  9  1  0
 29 12  1  0
 43 30  1  0
 26 13  1  0
M  END
>  <UniqueID>  (24) 
22

>  <SMILES>  (24) 
COc1ccc2c(c1)/c(=N\Cc1cccs1)cc1c3cc(OC)ccc3[nH]n21

>  <Energy>  (24) 
142.950466892823

>  <Genealogy>  (24) 
COc1ccc2c(c1)/c(=N\Cc1cccs1)cc1c3cc(OC)ccc3[nH]n21 (cis-trans isomerization)
COc1ccc2c(c1)/c(=N\Cc1cccs1)cc1c3cc(OC)ccc3[nH]n21 (3D coordinates assigned)
COc1ccc2c(c1)/c(=N\Cc1cccs1)cc1c3cc(OC)ccc3[nH]n21 (optimized conformer: 142.950466892823 kcal/mol)

>  <smiles>  (24) 
COc1ccc2c(c1)c(=NCc1cccs1)cc1c3cc(OC)ccc3[nH]n21

>  <score_type>  (24) 
oracle

>  <origin>  (24) 
adg

>  <m_score__min__energy>  (24) 
-8.7200000000000006

>  <m_primary>  (24) 
energy

$$$$
24:0
     RDKit          3D

 39 42  0  0  0  0  0  0  0  0999 V2000
   -6.2830   25.5540  -29.4070 C   0  0  0  0  0  0  0  0  0  0  0  0
   -5.1950   25.6100  -30.4820 C   0  0  0  0  0  0  0  0  0  0  0  0
   -4.6900   24.2740  -30.8440 N   0  0  0  0  0  0  0  0  0  0  0  0
   -5.4850   23.6340  -31.9090 C   0  0  1  0  0  0  0  0  0  0  0  0
   -4.6240   22.6550  -32.7430 C   0  0  0  0  0  0  0  0  0  0  0  0
   -4.8840   21.2570  -32.1540 C   0  0  2  0  0  0  0  0  0  0  0  0
   -5.1490   20.2050  -33.1710 C   0  0  0  0  0  0  0  0  0  0  0  0
   -6.3930   19.6810  -33.0060 C   0  0  0  0  0  0  0  0  0  0  0  0
   -6.3240   18.3770  -33.4390 C   0  0  0  0  0  0  0  0  0  0  0  0
   -7.2290   17.3260  -33.3210 C   0  0  0  0  0  0  0  0  0  0  0  0
   -6.8100   16.0510  -33.7380 C   0  0  0  0  0  0  0  0  0  0  0  0
   -5.4960   15.8500  -34.2170 C   0  0  0  0  0  0  0  0  0  0  0  0
   -4.5830   16.9200  -34.2750 C   0  0  0  0  0  0  0  0  0  0  0  0
   -5.0300   18.1870  -33.8860 C   0  0  0  0  0  0  0  0  0  0  0  0
   -4.2910   19.3100  -33.7130 N   0  0  0  0  0  0  0  0  0  0  0  0
   -2.8340   19.4170  -33.7400 C   0  0  0  0  0  0  0  0  0  0  0  0
   -7.1170   20.3250  -31.8850 C   0  0  0  0  0  0  0  0  0  0  0  0
   -6.1580   21.3480  -31.4470 N   0  0  0  0  0  0  0  0  0  0  0  0
   -6.4970   22.7170  -31.3150 C   0  0  0  0  0  0  0  0  0  0  0  0
   -7.5830   23.1000  -30.8030 O   0  0  0  0  0  0  0  0  0  0  0  0
   -5.8162   25.5780  -28.4113 H   0  0  0  0  0  0  0  0  0  0  0  0
   -6.9536   26.4188  -29.5186 H   0  0  0  0  0  0  0  0  0  0  0  0
   -6.8612   24.6249  -29.5186 H   0  0  0  0  0  0  0  0  0  0  0  0
   -5.6125   26.0851  -31.3820 H   0  0  0  0  0  0  0  0  0  0  0  0
   -4.3518   26.1868  -30.0743 H   0  0  0  0  0  0  0  0  0  0  0  0
   -3.6910   24.3660  -31.1450 H   0  0  0  0  0  0  0  0  0  0  0  0
   -5.9069   24.4605  -32.4996 H   0  0  0  0  0  0  0  0  0  0  0  0
   -4.9249   22.6865  -33.8006 H   0  0  0  0  0  0  0  0  0  0  0  0
   -3.5570   22.9189  -32.7004 H   0  0  0  0  0  0  0  0  0  0  0  0
   -3.9932   20.9912  -31.5659 H   0  0  0  0  0  0  0  0  0  0  0  0
   -8.2384   17.4880  -32.9149 H   0  0  0  0  0  0  0  0  0  0  0  0
   -7.5099   15.2037  -33.6912 H   0  0  0  0  0  0  0  0  0  0  0  0
   -5.1836   14.8484  -34.5476 H   0  0  0  0  0  0  0  0  0  0  0  0
   -3.5489   16.7643  -34.6161 H   0  0  0  0  0  0  0  0  0  0  0  0
   -2.4493   19.4453  -32.7099 H   0  0  0  0  0  0  0  0  0  0  0  0
   -2.4122   18.5474  -34.2652 H   0  0  0  0  0  0  0  0  0  0  0  0
   -2.5437   20.3389  -34.2652 H   0  0  0  0  0  0  0  0  0  0  0  0
   -8.0583   20.7802  -32.2266 H   0  0  0  0  0  0  0  0  0  0  0  0
   -7.4127   19.6257  -31.0891 H   0  0  0  0  0  0  0  0  0  0  0  0
  1  2  1  0
  2  3  1  0
  3  4  1  0
  4  5  1  0
  5  6  1  0
  6  7  1  0
  7  8  2  0
  8  9  1  0
  9 10  2  0
 10 11  1  0
 11 12  2  0
 12 13  1  0
 13 14  2  0
 14 15  1  0
 15 16  1  0
  8 17  1  0
 17 18  1  0
 18 19  1  0
 19 20  2  0
 19  4  1  0
 18  6  1  0
 15  7  1  0
 14  9  1  0
  1 21  1  0
  1 22  1  0
  1 23  1  0
  2 24  1  0
  2 25  1  0
  3 26  1  0
  4 27  1  6
  5 28  1  0
  5 29  1  0
  6 30  1  1
 10 31  1  0
 11 32  1  0
 12 33  1  0
 13 34  1  0
 16 35  1  0
 16 36  1  0
 16 37  1  0
 17 38  1  0
 17 39  1  0
M  END
>  <UniqueID>  (25) 
23

>  <SMILES>  (25) 
CCN[C@H]1C[C@@H]2c3c(c4ccccc4n3C)CN2C1=O

>  <Energy>  (25) 
114.60736931695642

>  <Genealogy>  (25) 
CCN[C@H]1C[C@@H]2c3c(c4ccccc4n3C)CN2C1=O (chirality)
CCN[C@H]1C[C@@H]2c3c(c4ccccc4n3C)CN2C1=O (3D coordinates assigned)
CCN[C@H]1C[C@@H]2c3c(c4ccccc4n3C)CN2C1=O (nonaromatic ring conformer: 114.60736931695642 kcal/mol)

>  <smiles>  (25) 
CCNC1CC2c3c(c4ccccc4n3C)CN2C1=O

>  <score_type>  (25) 
oracle

>  <origin>  (25) 
adg

>  <m_score__min__energy>  (25) 
-7.7300000000000004

>  <m_primary>  (25) 
energy

$$$$
25:0
     RDKit          3D

 24 25  0  0  0  0  0  0  0  0999 V2000
   -7.8319   23.8976  -32.4031 H   0  0  0  0  0  0  0  0  0  0  0  0
   -7.0820   23.7800  -31.6070 C   0  0  0  0  0  0  0  0  0  0  0  0
   -7.2790   22.8070  -30.6040 C   0  0  0  0  0  0  0  0  0  0  0  0
   -8.4370   22.0190  -30.6620 O   0  0  0  0  0  0  0  0  0  0  0  0
   -8.8270   21.2470  -31.7920 C   0  0  0  0  0  0  0  0  0  0  0  0
   -9.2988   20.3130  -31.4528 H   0  0  0  0  0  0  0  0  0  0  0  0
   -9.5435   21.8206  -32.3983 H   0  0  0  0  0  0  0  0  0  0  0  0
   -7.9402   21.0106  -32.3983 H   0  0  0  0  0  0  0  0  0  0  0  0
   -6.3150   22.6570  -29.5800 C   0  0  0  0  0  0  0  0  0  0  0  0
   -6.4470   21.9067  -28.7865 H   0  0  0  0  0  0  0  0  0  0  0  0
   -5.1950   23.4830  -29.6020 C   0  0  0  0  0  0  0  0  0  0  0  0
   -3.9040   23.5280  -28.5280 S   0  0  0  0  0  0  0  0  0  0  0  0
   -3.1520   24.7790  -29.3840 C   0  0  0  0  0  0  0  0  0  0  0  0
   -2.0160   25.2980  -29.0210 N   0  0  0  0  0  0  0  0  0  0  0  0
   -1.0340   24.7500  -28.1250 C   0  0  0  0  0  0  0  0  0  0  0  0
    0.1230   24.5270  -28.5680 O   0  0  0  0  0  0  0  0  0  0  0  0
   -1.3220   24.4340  -26.6870 C   0  0  0  0  0  0  0  0  0  0  0  0
   -0.7228   25.0915  -26.0400 H   0  0  0  0  0  0  0  0  0  0  0  0
   -2.3910   24.5944  -26.4833 H   0  0  0  0  0  0  0  0  0  0  0  0
   -1.0634   23.3844  -26.4833 H   0  0  0  0  0  0  0  0  0  0  0  0
   -3.8620   25.1670  -30.4720 N   0  0  0  0  0  0  0  0  0  0  0  0
   -5.0020   24.4380  -30.5870 C   0  0  0  0  0  0  0  0  0  0  0  0
   -5.9410   24.6010  -31.6030 C   0  0  0  0  0  0  0  0  0  0  0  0
   -5.7924   25.3578  -32.3873 H   0  0  0  0  0  0  0  0  0  0  0  0
  1  2  1  0
  2  3  2  0
  3  4  1  0
  4  5  1  0
  5  6  1  0
  5  7  1  0
  5  8  1  0
  3  9  1  0
  9 10  1  0
  9 11  2  0
 11 12  1  0
 12 13  1  0
 13 14  2  0
 14 15  1  0
 15 16  2  0
 15 17  1  0
 17 18  1  0
 17 19  1  0
 17 20  1  0
 13 21  1  0
 21 22  1  0
 22 23  2  0
 23 24  1  0
 23  2  1  0
 22 11  1  0
M  CHG  1  21  -1
M  END
>  <UniqueID>  (26) 
24

>  <SMILES>  (26) 
COc1ccc2[n-]/c(=N\C(C)=O)sc2c1

>  <Energy>  (26) 
60.188790729395855

>  <Genealogy>  (26) 
COc1ccc2[n-]c(=NC(C)=O)sc2c1 (protonated)
COc1ccc2[n-]/c(=N\C(C)=O)sc2c1 (cis-trans isomerization)
COc1ccc2[n-]/c(=N\C(C)=O)sc2c1 (3D coordinates assigned)
COc1ccc2[n-]/c(=N\C(C)=O)sc2c1 (optimized conformer: 60.188790729395855 kcal/mol)

>  <smiles>  (26) 
COc1ccc2[nH]c(=NC(C)=O)sc2c1

>  <score_type>  (26) 
oracle

>  <origin>  (26) 
adg

>  <m_score__min__energy>  (26) 
-7.4800000000000004

>  <m_primary>  (26) 
energy

$$$$
26:0
     RDKit          3D

 42 44  0  0  0  0  0  0  0  0999 V2000
   -1.9990   19.1500  -26.9800 C   0  0  0  0  0  0  0  0  0  0  0  0
   -1.8320   19.8620  -28.2020 O   0  0  0  0  0  0  0  0  0  0  0  0
   -2.6100   20.9620  -28.5890 C   0  0  0  0  0  0  0  0  0  0  0  0
   -2.5010   21.4240  -29.9060 C   0  0  0  0  0  0  0  0  0  0  0  0
   -3.2620   22.5120  -30.3430 C   0  0  0  0  0  0  0  0  0  0  0  0
   -4.1550   23.1460  -29.4680 C   0  0  0  0  0  0  0  0  0  0  0  0
   -5.1310   24.5060  -30.0250 S   0  0  0  0  0  0  0  0  0  0  0  0
   -5.6160   25.2760  -28.8280 O   0  0  0  0  0  0  0  0  0  0  0  0
   -4.2700   25.4280  -30.8440 O   0  0  0  0  0  0  0  0  0  0  0  0
   -6.5090   24.0020  -30.9810 N   0  0  0  0  0  0  0  0  0  0  0  0
   -6.1520   23.6320  -32.3660 C   0  0  0  0  0  0  0  0  0  0  0  0
   -5.6800   22.1720  -32.5270 C   0  0  0  0  0  0  0  0  0  0  0  0
   -6.3590   21.1910  -31.5470 C   0  0  0  0  0  0  0  0  0  0  0  0
   -6.5500   19.8240  -32.1630 C   0  0  0  0  0  0  0  0  0  0  0  0
   -7.4860   18.9060  -31.6590 C   0  0  0  0  0  0  0  0  0  0  0  0
   -7.6210   17.6920  -32.2540 N   0  0  0  0  0  0  0  0  0  0  0  0
   -6.8690   17.3460  -33.3300 C   0  0  0  0  0  0  0  0  0  0  0  0
   -5.9400   18.2550  -33.8370 C   0  0  0  0  0  0  0  0  0  0  0  0
   -5.8020   19.4700  -33.2450 N   0  0  0  0  0  0  0  0  0  0  0  0
   -7.6780   21.7610  -31.0170 C   0  0  0  0  0  0  0  0  0  0  0  0
   -7.4110   23.0700  -30.2610 C   0  0  0  0  0  0  0  0  0  0  0  0
   -4.2500   22.7030  -28.1410 C   0  0  0  0  0  0  0  0  0  0  0  0
   -3.4900   21.6150  -27.7050 C   0  0  0  0  0  0  0  0  0  0  0  0
   -1.8388   19.8331  -26.1328 H   0  0  0  0  0  0  0  0  0  0  0  0
   -3.0180   18.7386  -26.9317 H   0  0  0  0  0  0  0  0  0  0  0  0
   -1.2692   18.3284  -26.9317 H   0  0  0  0  0  0  0  0  0  0  0  0
   -1.8105   20.9265  -30.6030 H   0  0  0  0  0  0  0  0  0  0  0  0
   -3.1597   22.8720  -31.3774 H   0  0  0  0  0  0  0  0  0  0  0  0
   -7.0369   23.7810  -33.0022 H   0  0  0  0  0  0  0  0  0  0  0  0
   -5.3063   24.2724  -32.6571 H   0  0  0  0  0  0  0  0  0  0  0  0
   -5.9012   21.8463  -33.5541 H   0  0  0  0  0  0  0  0  0  0  0  0
   -4.6027   22.1551  -32.3055 H   0  0  0  0  0  0  0  0  0  0  0  0
   -5.6834   21.0638  -30.6883 H   0  0  0  0  0  0  0  0  0  0  0  0
   -8.1054   19.1681  -30.7886 H   0  0  0  0  0  0  0  0  0  0  0  0
   -6.9910   16.3580  -33.7978 H   0  0  0  0  0  0  0  0  0  0  0  0
   -5.3242   17.9901  -34.7091 H   0  0  0  0  0  0  0  0  0  0  0  0
   -8.3561   21.9580  -31.8605 H   0  0  0  0  0  0  0  0  0  0  0  0
   -8.1397   21.0337  -30.3330 H   0  0  0  0  0  0  0  0  0  0  0  0
   -8.3728   23.5771  -30.0944 H   0  0  0  0  0  0  0  0  0  0  0  0
   -6.9095   22.8007  -29.3197 H   0  0  0  0  0  0  0  0  0  0  0  0
   -4.9261   23.2145  -27.4401 H   0  0  0  0  0  0  0  0  0  0  0  0
   -3.5796   21.2666  -26.6655 H   0  0  0  0  0  0  0  0  0  0  0  0
  1  2  1  0
  2  3  1  0
  3  4  2  0
  4  5  1  0
  5  6  2  0
  6  7  1  0
  7  8  2  0
  7  9  2  0
  7 10  1  0
 10 11  1  0
 11 12  1  0
 12 13  1  0
 13 14  1  0
 14 15  2  0
 15 16  1  0
 16 17  2  0
 17 18  1  0
 18 19  2  0
 13 20  1  0
 20 21  1  0
  6 22  1  0
 22 23  2  0
 23  3  1  0
 21 10  1  0
 19 14  1  0
  1 24  1  0
  1 25  1  0
  1 26  1  0
  4 27  1  0
  5 28  1  0
 11 29  1  0
 11 30  1  0
 12 31  1  0
 12 32  1  0
 13 33  1  0
 15 34  1  0
 17 35  1  0
 18 36  1  0
 20 37  1  0
 20 38  1  0
 21 39  1  0
 21 40  1  0
 22 41  1  0
 23 42  1  0
M  END
>  <UniqueID>  (27) 
25

>  <SMILES>  (27) 
COc1ccc(S(=O)(=O)N2CCC(c3cnccn3)CC2)cc1

>  <Energy>  (27) 
53.35704667042754

>  <Genealogy>  (27) 
COc1ccc(S(=O)(=O)N2CCC(c3cnccn3)CC2)cc1 (3D coordinates assigned)
COc1ccc(S(=O)(=O)N2CCC(c3cnccn3)CC2)cc1 (nonaromatic ring conformer: 53.35704667042754 kcal/mol)

>  <smiles>  (27) 
COc1ccc(S(=O)(=O)N2CCC(c3cnccn3)CC2)cc1

>  <score_type>  (27) 
oracle

>  <origin>  (27) 
adg

>  <m_score__min__energy>  (27) 
-8.3399999999999999

>  <m_primary>  (27) 
energy

$$$$
27:0
     RDKit          3D

 56 58  0  0  0  0  0  0  0  0999 V2000
   -1.6710   21.1910  -33.7310 C   0  0  0  0  0  0  0  0  0  0  0  0
   -1.0230   21.5040  -32.5190 O   0  0  0  0  0  0  0  0  0  0  0  0
    0.1770   20.7690  -32.4260 C   0  0  0  0  0  0  0  0  0  0  0  0
    0.4660   20.4200  -30.9670 C   0  0  0  0  0  0  0  0  0  0  0  0
   -0.4370   21.0980  -30.0920 O   0  0  0  0  0  0  0  0  0  0  0  0
   -1.0920   20.5450  -28.9760 C   0  0  0  0  0  0  0  0  0  0  0  0
   -0.9230   19.2000  -28.5870 C   0  0  0  0  0  0  0  0  0  0  0  0
   -1.5920   18.6980  -27.4680 C   0  0  0  0  0  0  0  0  0  0  0  0
   -2.4380   19.5240  -26.7270 C   0  0  0  0  0  0  0  0  0  0  0  0
   -2.6200   20.8550  -27.1050 C   0  0  0  0  0  0  0  0  0  0  0  0
   -1.9530   21.3710  -28.2260 C   0  0  0  0  0  0  0  0  0  0  0  0
   -2.1590   22.7810  -28.6130 C   0  0  0  0  0  0  0  0  0  0  0  0
   -1.3450   23.8410  -28.2260 C   0  0  0  0  0  0  0  0  0  0  0  0
   -0.1570   23.7610  -27.3590 C   0  0  0  0  0  0  0  0  0  0  0  0
    0.9480   23.4130  -27.8580 O   0  0  0  0  0  0  0  0  0  0  0  0
   -0.2230   24.2170  -25.9230 C   0  0  0  0  0  0  0  0  0  0  0  0
   -1.5100   25.0040  -25.6530 C   0  0  0  0  0  0  0  0  0  0  0  0
   -0.1140   23.0070  -24.9920 C   0  0  0  0  0  0  0  0  0  0  0  0
   -1.7640   24.9340  -28.9650 C   0  0  0  0  0  0  0  0  0  0  0  0
   -1.2560   26.2300  -28.9200 O   0  0  0  0  0  0  0  0  0  0  0  0
   -2.7970   24.5050  -29.7640 C   0  0  0  0  0  0  0  0  0  0  0  0
   -3.5050   25.3060  -30.6540 O   0  0  0  0  0  0  0  0  0  0  0  0
   -3.0400   23.1930  -29.5600 N   0  0  0  0  0  0  0  0  0  0  0  0
   -4.0130   22.3890  -30.2510 C   0  0  0  0  0  0  0  0  0  0  0  0
   -5.3790   22.7040  -30.1730 C   0  0  0  0  0  0  0  0  0  0  0  0
   -6.3250   21.8980  -30.8080 C   0  0  0  0  0  0  0  0  0  0  0  0
   -5.9180   20.7730  -31.5300 C   0  0  0  0  0  0  0  0  0  0  0  0
   -4.5550   20.4570  -31.6340 C   0  0  0  0  0  0  0  0  0  0  0  0
   -4.1200   19.2220  -32.3670 C   0  0  0  0  0  0  0  0  0  0  0  0
   -3.6070   21.2610  -30.9820 C   0  0  0  0  0  0  0  0  0  0  0  0
   -2.6425   20.7217  -33.5168 H   0  0  0  0  0  0  0  0  0  0  0  0
   -1.8287   22.1122  -34.3110 H   0  0  0  0  0  0  0  0  0  0  0  0
   -1.0474   20.4948  -34.3110 H   0  0  0  0  0  0  0  0  0  0  0  0
    0.0821   19.8418  -33.0102 H   0  0  0  0  0  0  0  0  0  0  0  0
    1.0038   21.3772  -32.8217 H   0  0  0  0  0  0  0  0  0  0  0  0
    0.3556   19.3345  -30.8277 H   0  0  0  0  0  0  0  0  0  0  0  0
    1.4919   20.7359  -30.7267 H   0  0  0  0  0  0  0  0  0  0  0  0
   -0.2603   18.5421  -29.1683 H   0  0  0  0  0  0  0  0  0  0  0  0
   -1.4514   17.6485  -27.1702 H   0  0  0  0  0  0  0  0  0  0  0  0
   -2.9614   19.1261  -25.8451 H   0  0  0  0  0  0  0  0  0  0  0  0
   -3.2900   21.5029  -26.5208 H   0  0  0  0  0  0  0  0  0  0  0  0
    0.6225   24.8929  -25.7273 H   0  0  0  0  0  0  0  0  0  0  0  0
   -1.6620   25.0970  -24.5675 H   0  0  0  0  0  0  0  0  0  0  0  0
   -1.4273   26.0062  -26.0988 H   0  0  0  0  0  0  0  0  0  0  0  0
   -2.3644   24.4737  -26.0988 H   0  0  0  0  0  0  0  0  0  0  0  0
   -0.1445   23.3454  -23.9458 H   0  0  0  0  0  0  0  0  0  0  0  0
   -0.9541   22.3224  -25.1806 H   0  0  0  0  0  0  0  0  0  0  0  0
    0.8349   22.4836  -25.1806 H   0  0  0  0  0  0  0  0  0  0  0  0
   -1.2360   26.8160  -29.7440 H   0  0  0  0  0  0  0  0  0  0  0  0
   -5.7051   23.5902  -29.6088 H   0  0  0  0  0  0  0  0  0  0  0  0
   -7.3938   22.1490  -30.7399 H   0  0  0  0  0  0  0  0  0  0  0  0
   -6.6682   20.1335  -32.0181 H   0  0  0  0  0  0  0  0  0  0  0  0
   -3.8454   18.4424  -31.6412 H   0  0  0  0  0  0  0  0  0  0  0  0
   -4.9450   18.8608  -32.9986 H   0  0  0  0  0  0  0  0  0  0  0  0
   -3.2507   19.4575  -32.9986 H   0  0  0  0  0  0  0  0  0  0  0  0
   -2.5388   21.0057  -31.0441 H   0  0  0  0  0  0  0  0  0  0  0  0
  1  2  1  0
  2  3  1  0
  3  4  1  0
  4  5  1  0
  5  6  1  0
  6  7  2  0
  7  8  1  0
  8  9  2  0
  9 10  1  0
 10 11  2  0
 11 12  1  0
 12 13  2  0
 13 14  1  0
 14 15  2  0
 14 16  1  0
 16 17  1  0
 16 18  1  0
 13 19  1  0
 19 20  1  0
 19 21  2  0
 21 22  1  0
 21 23  1  0
 23 24  1  0
 24 25  2  0
 25 26  1  0
 26 27  2  0
 27 28  1  0
 28 29  1  0
 28 30  2  0
 11  6  1  0
 23 12  1  0
 30 24  1  0
  1 31  1  0
  1 32  1  0
  1 33  1  0
  3 34  1  0
  3 35  1  0
  4 36  1  0
  4 37  1  0
  7 38  1  0
  8 39  1  0
  9 40  1  0
 10 41  1  0
 16 42  1  0
 17 43  1  0
 17 44  1  0
 17 45  1  0
 18 46  1  0
 18 47  1  0
 18 48  1  0
 20 49  1  0
 25 50  1  0
 26 51  1  0
 27 52  1  0
 29 53  1  0
 29 54  1  0
 29 55  1  0
 30 56  1  0
M  CHG  1  22  -1
M  END
>  <UniqueID>  (28) 
26

>  <SMILES>  (28) 
COCCOc1ccccc1-c1c(C(=O)C(C)C)c(O)c([O-])n1-c1cccc(C)c1

>  <Energy>  (28) 
94.48936443804133

>  <Genealogy>  (28) 
COCCOc1ccccc1-c1c(C(=O)C(C)C)c(O)c([O-])n1-c1cccc(C)c1 (protonated)
COCCOc1ccccc1-c1c(C(=O)C(C)C)c(O)c([O-])n1-c1cccc(C)c1 (3D coordinates assigned)
COCCOc1ccccc1-c1c(C(=O)C(C)C)c(O)c([O-])n1-c1cccc(C)c1 (optimized conformer: 94.48936443804133 kcal/mol)

>  <smiles>  (28) 
COCCOc1ccccc1-c1c(C(=O)C(C)C)c(O)c(O)n1-c1cccc(C)c1

>  <score_type>  (28) 
oracle

>  <origin>  (28) 
adg

>  <m_score__min__energy>  (28) 
-11.41

>  <m_primary>  (28) 
energy

$$$$
28:0
     RDKit          3D

 40 42  0  0  0  0  0  0  0  0999 V2000
   -2.5190   24.5740  -28.9680 C   0  0  0  0  0  0  0  0  0  0  0  0
   -3.3980   24.9980  -30.0050 O   0  0  0  0  0  0  0  0  0  0  0  0
   -4.4950   24.2560  -30.4650 C   0  0  0  0  0  0  0  0  0  0  0  0
   -4.2490   23.0630  -31.1540 C   0  0  0  0  0  0  0  0  0  0  0  0
   -5.3090   22.2870  -31.6330 C   0  0  0  0  0  0  0  0  0  0  0  0
   -6.6360   22.6940  -31.4230 C   0  0  0  0  0  0  0  0  0  0  0  0
   -7.7790   21.8820  -31.9760 C   0  0  0  0  0  0  0  0  0  0  0  0
   -7.2790   20.8080  -32.9470 C   0  0  0  0  0  0  0  0  0  0  0  0
   -8.0900   19.5890  -32.8280 N   0  0  0  0  0  0  0  0  0  0  0  0
   -7.3830   18.5150  -32.1020 C   0  0  1  0  0  0  0  0  0  0  0  0
   -7.2210   17.2890  -33.0270 C   0  0  0  0  0  0  0  0  0  0  0  0
   -6.3250   17.5850  -34.2440 C   0  0  0  0  0  0  0  0  0  0  0  0
   -5.1040   18.3400  -33.8230 C   0  0  0  0  0  0  0  0  0  0  0  0
   -4.0070   18.5190  -34.5820 N   0  0  0  0  0  0  0  0  0  0  0  0
   -3.2470   19.3130  -33.7930 C   0  0  0  0  0  0  0  0  0  0  0  0
   -3.8470   19.6140  -32.6210 N   0  0  0  0  0  0  0  0  0  0  0  0
   -5.0200   19.0130  -32.6680 N   0  0  0  0  0  0  0  0  0  0  0  0
   -5.9980   18.9800  -31.5820 C   0  0  0  0  0  0  0  0  0  0  0  0
   -6.8860   23.8950  -30.7420 C   0  0  0  0  0  0  0  0  0  0  0  0
   -5.8260   24.6700  -30.2630 C   0  0  0  0  0  0  0  0  0  0  0  0
   -2.9729   24.7929  -27.9902 H   0  0  0  0  0  0  0  0  0  0  0  0
   -2.3428   23.4918  -29.0564 H   0  0  0  0  0  0  0  0  0  0  0  0
   -1.5623   25.1097  -29.0564 H   0  0  0  0  0  0  0  0  0  0  0  0
   -3.2129   22.7329  -31.3202 H   0  0  0  0  0  0  0  0  0  0  0  0
   -5.1021   21.3535  -32.1768 H   0  0  0  0  0  0  0  0  0  0  0  0
   -8.3081   21.3946  -31.1438 H   0  0  0  0  0  0  0  0  0  0  0  0
   -8.4531   22.5580  -32.5225 H   0  0  0  0  0  0  0  0  0  0  0  0
   -7.3484   21.1899  -33.9762 H   0  0  0  0  0  0  0  0  0  0  0  0
   -6.2344   20.5656  -32.7021 H   0  0  0  0  0  0  0  0  0  0  0  0
   -8.3520   19.2610  -33.7880 H   0  0  0  0  0  0  0  0  0  0  0  0
   -7.9869   18.2436  -31.2235 H   0  0  0  0  0  0  0  0  0  0  0  0
   -6.7719   16.4677  -32.4493 H   0  0  0  0  0  0  0  0  0  0  0  0
   -8.2188   17.0191  -33.4033 H   0  0  0  0  0  0  0  0  0  0  0  0
   -6.0213   16.6358  -34.7096 H   0  0  0  0  0  0  0  0  0  0  0  0
   -6.8910   18.1954  -34.9630 H   0  0  0  0  0  0  0  0  0  0  0  0
   -2.2474   19.6747  -34.0758 H   0  0  0  0  0  0  0  0  0  0  0  0
   -5.6514   18.2820  -30.8056 H   0  0  0  0  0  0  0  0  0  0  0  0
   -6.0992   19.9940  -31.1678 H   0  0  0  0  0  0  0  0  0  0  0  0
   -7.9222   24.2286  -30.5842 H   0  0  0  0  0  0  0  0  0  0  0  0
   -6.0322   25.6075  -29.7258 H   0  0  0  0  0  0  0  0  0  0  0  0
  1  2  1  0
  2  3  1  0
  3  4  2  0
  4  5  1  0
  5  6  2  0
  6  7  1  0
  7  8  1  0
  8  9  1  0
  9 10  1  0
 10 11  1  0
 11 12  1  0
 12 13  1  0
 13 14  2  0
 14 15  1  0
 15 16  2  0
 16 17  1  0
 17 18  1  0
  6 19  1  0
 19 20  2  0
 20  3  1  0
 18 10  1  0
 17 13  1  0
  1 21  1  0
  1 22  1  0
  1 23  1  0
  4 24  1  0
  5 25  1  0
  7 26  1  0
  7 27  1  0
  8 28  1  0
  8 29  1  0
  9 30  1  0
 10 31  1  1
 11 32  1  0
 11 33  1  0
 12 34  1  0
 12 35  1  0
 15 36  1  0
 18 37  1  0
 18 38  1  0
 19 39  1  0
 20 40  1  0
M  END
>  <UniqueID>  (29) 
27

>  <SMILES>  (29) 
COc1ccc(CCN[C@H]2CCc3ncnn3C2)cc1

>  <Energy>  (29) 
70.67970062618397

>  <Genealogy>  (29) 
COc1ccc(CCN[C@H]2CCc3ncnn3C2)cc1 (chirality)
COc1ccc(CCN[C@H]2CCc3ncnn3C2)cc1 (3D coordinates assigned)
COc1ccc(CCN[C@H]2CCc3ncnn3C2)cc1 (nonaromatic ring conformer: 70.67970062618397 kcal/mol)

>  <smiles>  (29) 
COc1ccc(CCNC2CCc3ncnn3C2)cc1

>  <score_type>  (29) 
oracle

>  <origin>  (29) 
adg

>  <m_score__min__energy>  (29) 
-7.5499999999999998

>  <m_primary>  (29) 
energy

$$$$
29:0
     RDKit          3D

 51 54  0  0  0  0  0  0  0  0999 V2000
    1.2920   18.4120  -34.5080 C   0  0  0  0  0  0  0  0  0  0  0  0
   -0.0870   18.2520  -34.8190 O   0  0  0  0  0  0  0  0  0  0  0  0
   -1.1190   19.0260  -34.2670 C   0  0  0  0  0  0  0  0  0  0  0  0
   -0.9280   20.3610  -33.8700 C   0  0  0  0  0  0  0  0  0  0  0  0
   -1.9860   21.0920  -33.3250 C   0  0  0  0  0  0  0  0  0  0  0  0
   -3.2510   20.5030  -33.1690 C   0  0  0  0  0  0  0  0  0  0  0  0
   -4.3040   21.2440  -32.6270 C   0  0  0  0  0  0  0  0  0  0  0  0
   -5.5820   20.6860  -32.4600 C   0  0  0  0  0  0  0  0  0  0  0  0
   -6.6640   21.6000  -31.9160 C   0  0  0  0  0  0  0  0  0  0  0  0
   -6.1770   23.0530  -31.7200 C   0  0  0  0  0  0  0  0  0  0  0  0
   -6.2320   23.5070  -30.2990 N   0  0  0  0  0  0  0  0  0  0  0  0
   -4.9570   23.2420  -29.5930 C   0  0  0  0  0  0  0  0  0  0  0  0
   -3.7940   24.0960  -30.1450 C   0  0  0  0  0  0  0  0  0  0  0  0
   -4.2660   25.3170  -30.8180 N   0  0  0  0  0  0  0  0  0  0  0  0
   -5.4090   25.8960  -30.1080 C   0  0  0  0  0  0  0  0  0  0  0  0
   -6.6180   24.9410  -30.1710 C   0  0  0  0  0  0  0  0  0  0  0  0
   -5.8050   19.3350  -32.8530 C   0  0  0  0  0  0  0  0  0  0  0  0
   -7.0570   18.6950  -32.7230 C   0  0  0  0  0  0  0  0  0  0  0  0
   -7.2260   17.3740  -33.1340 C   0  0  0  0  0  0  0  0  0  0  0  0
   -6.1460   16.6770  -33.6750 C   0  0  0  0  0  0  0  0  0  0  0  0
   -6.3070   15.2580  -34.1190 C   0  0  0  0  0  0  0  0  0  0  0  0
   -4.9430   17.2920  -33.7940 N   0  0  0  0  0  0  0  0  0  0  0  0
   -4.7330   18.5830  -33.4070 C   0  0  0  0  0  0  0  0  0  0  0  0
   -3.4570   19.1640  -33.5640 C   0  0  0  0  0  0  0  0  0  0  0  0
   -2.3800   18.4380  -34.1130 C   0  0  0  0  0  0  0  0  0  0  0  0
    1.4222   18.4271  -33.4158 H   0  0  0  0  0  0  0  0  0  0  0  0
    1.8635   17.5741  -34.9338 H   0  0  0  0  0  0  0  0  0  0  0  0
    1.6565   19.3585  -34.9338 H   0  0  0  0  0  0  0  0  0  0  0  0
    0.0589   20.8319  -33.9891 H   0  0  0  0  0  0  0  0  0  0  0  0
   -1.8272   22.1357  -33.0160 H   0  0  0  0  0  0  0  0  0  0  0  0
   -4.1284   22.2869  -32.3245 H   0  0  0  0  0  0  0  0  0  0  0  0
   -7.5080   21.6043  -32.6214 H   0  0  0  0  0  0  0  0  0  0  0  0
   -6.9591   21.2135  -30.9293 H   0  0  0  0  0  0  0  0  0  0  0  0
   -5.1361   23.1225  -32.0688 H   0  0  0  0  0  0  0  0  0  0  0  0
   -6.8513   23.7034  -32.2964 H   0  0  0  0  0  0  0  0  0  0  0  0
   -6.9530   22.9400  -29.7960 H   0  0  0  0  0  0  0  0  0  0  0  0
   -5.0892   23.4718  -28.5254 H   0  0  0  0  0  0  0  0  0  0  0  0
   -4.7003   22.1835  -29.7467 H   0  0  0  0  0  0  0  0  0  0  0  0
   -3.1391   24.3837  -29.3093 H   0  0  0  0  0  0  0  0  0  0  0  0
   -3.2554   23.4897  -30.8882 H   0  0  0  0  0  0  0  0  0  0  0  0
   -3.4870   26.0160  -30.8100 H   0  0  0  0  0  0  0  0  0  0  0  0
   -5.1349   26.0654  -29.0563 H   0  0  0  0  0  0  0  0  0  0  0  0
   -5.6809   26.8492  -30.5849 H   0  0  0  0  0  0  0  0  0  0  0  0
   -7.2073   25.0629  -29.2502 H   0  0  0  0  0  0  0  0  0  0  0  0
   -7.1940   25.2043  -31.0704 H   0  0  0  0  0  0  0  0  0  0  0  0
   -7.9074   19.2445  -32.2931 H   0  0  0  0  0  0  0  0  0  0  0  0
   -8.2056   16.8840  -33.0322 H   0  0  0  0  0  0  0  0  0  0  0  0
   -6.3812   14.6042  -33.2375 H   0  0  0  0  0  0  0  0  0  0  0  0
   -7.2215   15.1643  -34.7230 H   0  0  0  0  0  0  0  0  0  0  0  0
   -5.4367   14.9618  -34.7230 H   0  0  0  0  0  0  0  0  0  0  0  0
   -2.5330   17.3943  -34.4248 H   0  0  0  0  0  0  0  0  0  0  0  0
  1  2  1  0
  2  3  1  0
  3  4  2  0
  4  5  1  0
  5  6  2  0
  6  7  1  0
  7  8  2  0
  8  9  1  0
  9 10  1  0
 10 11  1  0
 11 12  1  0
 12 13  1  0
 13 14  1  0
 14 15  1  0
 15 16  1  0
  8 17  1  0
 17 18  2  0
 18 19  1  0
 19 20  2  0
 20 21  1  0
 20 22  1  0
 22 23  2  0
 23 24  1  0
 24 25  2  0
 25  3  1  0
 24  6  1  0
 16 11  1  0
 23 17  1  0
  1 26  1  0
  1 27  1  0
  1 28  1  0
  4 29  1  0
  5 30  1  0
  7 31  1  0
  9 32  1  0
  9 33  1  0
 10 34  1  0
 10 35  1  0
 11 36  1  0
 12 37  1  0
 12 38  1  0
 13 39  1  0
 13 40  1  0
 14 41  1  0
 15 42  1  0
 15 43  1  0
 16 44  1  0
 16 45  1  0
 18 46  1  0
 19 47  1  0
 21 48  1  0
 21 49  1  0
 21 50  1  0
 25 51  1  0
M  CHG  1  11   1
M  END
>  <UniqueID>  (30) 
28

>  <SMILES>  (30) 
COc1ccc2cc(CC[NH+]3CCNCC3)c3ccc(C)nc3c2c1

>  <Energy>  (30) 
73.11444270209812

>  <Genealogy>  (30) 
COc1ccc2cc(CC[NH+]3CCNCC3)c3ccc(C)nc3c2c1 (protonated)
COc1ccc2cc(CC[NH+]3CCNCC3)c3ccc(C)nc3c2c1 (3D coordinates assigned)
COc1ccc2cc(CC[NH+]3CCNCC3)c3ccc(C)nc3c2c1 (nonaromatic ring conformer: 73.11444270209812 kcal/mol)

>  <smiles>  (30) 
COc1ccc2cc(CCN3CCNCC3)c3ccc(C)nc3c2c1

>  <score_type>  (30) 
oracle

>  <origin>  (30) 
adg

>  <m_score__min__energy>  (30) 
-8.1400000000000006

>  <m_primary>  (30) 
energy

$$$$
30:0
     RDKit          3D

 43 45  0  0  0  0  0  0  0  0999 V2000
   -4.1850   24.1500  -28.4000 C   0  0  0  0  0  0  0  0  0  0  0  0
   -3.4900   24.5270  -29.7050 C   0  0  0  0  0  0  0  0  0  0  0  0
   -4.4310   24.4100  -30.8430 N   0  0  0  0  0  0  0  0  0  0  0  0
   -5.5800   25.3160  -30.6620 C   0  0  0  0  0  0  0  0  0  0  0  0
   -4.9020   23.0190  -31.0130 C   0  0  0  0  0  0  0  0  0  0  0  0
   -4.9780   22.6610  -32.5020 C   0  0  0  0  0  0  0  0  0  0  0  0
   -5.4920   21.2990  -32.6760 N   0  0  0  0  0  0  0  0  0  0  0  0
   -4.8310   20.1650  -33.0500 C   0  0  0  0  0  0  0  0  0  0  0  0
   -3.4370   20.1050  -33.3930 N   0  0  0  0  0  0  0  0  0  0  0  0
   -2.7840   19.0120  -33.8420 C   0  0  0  0  0  0  0  0  0  0  0  0
   -1.5100   19.2890  -34.1760 N   0  0  0  0  0  0  0  0  0  0  0  0
   -1.3580   20.6050  -33.9350 C   0  0  0  0  0  0  0  0  0  0  0  0
   -0.1310   21.3870  -34.2650 C   0  0  0  0  0  0  0  0  0  0  0  0
   -2.5500   21.1180  -33.4720 C   0  0  0  0  0  0  0  0  0  0  0  0
   -5.6090   19.0510  -33.0250 N   0  0  0  0  0  0  0  0  0  0  0  0
   -6.8060   19.5260  -32.6370 C   0  0  0  0  0  0  0  0  0  0  0  0
   -7.9800   18.8030  -32.4400 C   0  0  0  0  0  0  0  0  0  0  0  0
   -9.1200   19.5080  -32.0100 C   0  0  0  0  0  0  0  0  0  0  0  0
   -9.0560   20.9020  -31.7850 C   0  0  0  0  0  0  0  0  0  0  0  0
  -10.1590   21.5690  -31.3660 F   0  0  0  0  0  0  0  0  0  0  0  0
   -7.8520   21.6020  -31.9900 C   0  0  0  0  0  0  0  0  0  0  0  0
   -6.7430   20.8730  -32.4250 C   0  0  0  0  0  0  0  0  0  0  0  0
   -3.5723   24.4823  -27.5490 H   0  0  0  0  0  0  0  0  0  0  0  0
   -5.1701   24.6374  -28.3551 H   0  0  0  0  0  0  0  0  0  0  0  0
   -4.3136   23.0585  -28.3551 H   0  0  0  0  0  0  0  0  0  0  0  0
   -3.1299   25.5642  -29.6375 H   0  0  0  0  0  0  0  0  0  0  0  0
   -2.6440   23.8434  -29.8694 H   0  0  0  0  0  0  0  0  0  0  0  0
   -5.7658   25.4625  -29.5877 H   0  0  0  0  0  0  0  0  0  0  0  0
   -5.3596   26.2860  -31.1316 H   0  0  0  0  0  0  0  0  0  0  0  0
   -6.4718   24.8755  -31.1316 H   0  0  0  0  0  0  0  0  0  0  0  0
   -4.2022   22.3350  -30.5106 H   0  0  0  0  0  0  0  0  0  0  0  0
   -5.9047   22.9242  -30.5706 H   0  0  0  0  0  0  0  0  0  0  0  0
   -5.6486   23.3690  -33.0110 H   0  0  0  0  0  0  0  0  0  0  0  0
   -3.9681   22.7185  -32.9342 H   0  0  0  0  0  0  0  0  0  0  0  0
   -3.2390   18.0140  -33.9250 H   0  0  0  0  0  0  0  0  0  0  0  0
   -0.8040   18.6280  -34.5700 H   0  0  0  0  0  0  0  0  0  0  0  0
    0.3640   21.7025  -33.3347 H   0  0  0  0  0  0  0  0  0  0  0  0
    0.5565   20.7601  -34.8518 H   0  0  0  0  0  0  0  0  0  0  0  0
   -0.4089   22.2749  -34.8518 H   0  0  0  0  0  0  0  0  0  0  0  0
   -2.7442   22.1691  -33.2124 H   0  0  0  0  0  0  0  0  0  0  0  0
   -8.0152   17.7175  -32.6146 H   0  0  0  0  0  0  0  0  0  0  0  0
  -10.0662   18.9709  -31.8481 H   0  0  0  0  0  0  0  0  0  0  0  0
   -7.7869   22.6858  -31.8137 H   0  0  0  0  0  0  0  0  0  0  0  0
  1  2  1  0
  2  3  1  0
  3  4  1  0
  3  5  1  0
  5  6  1  0
  6  7  1  0
  7  8  1  0
  8  9  1  0
  9 10  1  0
 10 11  2  0
 11 12  1  0
 12 13  1  0
 12 14  2  0
  8 15  2  0
 15 16  1  0
 16 17  2  0
 17 18  1  0
 18 19  2  0
 19 20  1  0
 19 21  1  0
 21 22  2  0
 22  7  1  0
 14  9  1  0
 22 16  1  0
  1 23  1  0
  1 24  1  0
  1 25  1  0
  2 26  1  0
  2 27  1  0
  4 28  1  0
  4 29  1  0
  4 30  1  0
  5 31  1  0
  5 32  1  0
  6 33  1  0
  6 34  1  0
 10 35  1  0
 11 36  1  0
 13 37  1  0
 13 38  1  0
 13 39  1  0
 14 40  1  0
 17 41  1  0
 18 42  1  0
 21 43  1  0
M  CHG  1  11   1
M  END
>  <UniqueID>  (31) 
29

>  <SMILES>  (31) 
CCN(C)CCn1c(-n2c[nH+]c(C)c2)nc2ccc(F)cc21

>  <Energy>  (31) 
112.61670896139205

>  <Genealogy>  (31) 
CCN(C)CCn1c(-n2c[nH+]c(C)c2)nc2ccc(F)cc21 (protonated)
CCN(C)CCn1c(-n2c[nH+]c(C)c2)nc2ccc(F)cc21 (3D coordinates assigned)
CCN(C)CCn1c(-n2c[nH+]c(C)c2)nc2ccc(F)cc21 (optimized conformer: 112.61670896139205 kcal/mol)

>  <smiles>  (31) 
CCN(C)CCn1c(-n2cnc(C)c2)nc2ccc(F)cc21

>  <score_type>  (31) 
oracle

>  <origin>  (31) 
adg

>  <m_score__min__energy>  (31) 
-6.6799999999999997

>  <m_primary>  (31) 
energy

$$$$
31:0
     RDKit          3D

 31 32  0  0  0  0  0  0  0  0999 V2000
   -2.5960   24.7910  -28.8900 C   0  0  0  0  0  0  0  0  0  0  0  0
   -3.4800   25.2970  -29.8800 O   0  0  0  0  0  0  0  0  0  0  0  0
   -4.4750   24.5050  -30.4530 C   0  0  0  0  0  0  0  0  0  0  0  0
   -4.2490   23.4780  -31.2390 O   0  0  0  0  0  0  0  0  0  0  0  0
   -5.4090   22.9580  -31.5760 C   0  0  0  0  0  0  0  0  0  0  0  0
   -5.5500   21.7720  -32.4360 C   0  0  0  0  0  0  0  0  0  0  0  0
   -4.6980   21.5690  -33.3430 O   0  0  0  0  0  0  0  0  0  0  0  0
   -6.6200   20.8340  -32.2400 N   0  0  0  0  0  0  0  0  0  0  0  0
   -6.3570   19.4020  -32.3990 C   0  0  0  0  0  0  0  0  0  0  0  0
   -7.3910   18.6000  -31.6020 C   0  0  0  0  0  0  0  0  0  0  0  0
   -8.7080   18.9960  -31.9390 O   0  0  0  0  0  0  0  0  0  0  0  0
   -8.9170   20.3430  -31.5550 C   0  0  0  0  0  0  0  0  0  0  0  0
   -8.0100   21.2810  -32.3560 C   0  0  0  0  0  0  0  0  0  0  0  0
   -6.4420   23.6670  -30.9820 C   0  0  0  0  0  0  0  0  0  0  0  0
   -5.8310   24.6780  -30.2700 C   0  0  0  0  0  0  0  0  0  0  0  0
   -6.5000   25.6730  -29.3800 C   0  0  0  0  0  0  0  0  0  0  0  0
   -2.9951   25.0195  -27.8908 H   0  0  0  0  0  0  0  0  0  0  0  0
   -2.5003   23.7014  -29.0063 H   0  0  0  0  0  0  0  0  0  0  0  0
   -1.6080   25.2603  -29.0063 H   0  0  0  0  0  0  0  0  0  0  0  0
   -6.4256   19.1328  -33.4633 H   0  0  0  0  0  0  0  0  0  0  0  0
   -5.3482   19.1714  -32.0261 H   0  0  0  0  0  0  0  0  0  0  0  0
   -7.2681   17.5303  -31.8270 H   0  0  0  0  0  0  0  0  0  0  0  0
   -7.2312   18.7886  -30.5301 H   0  0  0  0  0  0  0  0  0  0  0  0
   -9.9675   20.6121  -31.7392 H   0  0  0  0  0  0  0  0  0  0  0  0
   -8.6780   20.4473  -30.4863 H   0  0  0  0  0  0  0  0  0  0  0  0
   -8.3121   21.2682  -33.4136 H   0  0  0  0  0  0  0  0  0  0  0  0
   -8.1002   22.3036  -31.9609 H   0  0  0  0  0  0  0  0  0  0  0  0
   -7.5205   23.4658  -31.0617 H   0  0  0  0  0  0  0  0  0  0  0  0
   -6.3194   25.4044  -28.3287 H   0  0  0  0  0  0  0  0  0  0  0  0
   -6.0914   26.6749  -29.5778 H   0  0  0  0  0  0  0  0  0  0  0  0
   -7.5821   25.6727  -29.5778 H   0  0  0  0  0  0  0  0  0  0  0  0
  1  2  1  0
  2  3  1  0
  3  4  1  0
  4  5  1  0
  5  6  1  0
  6  7  2  0
  6  8  1  0
  8  9  1  0
  9 10  1  0
 10 11  1  0
 11 12  1  0
 12 13  1  0
  5 14  2  0
 14 15  1  0
 15 16  1  0
 15  3  2  0
 13  8  1  0
  1 17  1  0
  1 18  1  0
  1 19  1  0
  9 20  1  0
  9 21  1  0
 10 22  1  0
 10 23  1  0
 12 24  1  0
 12 25  1  0
 13 26  1  0
 13 27  1  0
 14 28  1  0
 16 29  1  0
 16 30  1  0
 16 31  1  0
M  END
>  <UniqueID>  (32) 
30

>  <SMILES>  (32) 
COc1oc(C(=O)N2CCOCC2)cc1C

>  <Energy>  (32) 
56.73063521118216

>  <Genealogy>  (32) 
COc1oc(C(=O)N2CCOCC2)cc1C (3D coordinates assigned)
COc1oc(C(=O)N2CCOCC2)cc1C (nonaromatic ring conformer: 56.73063521118216 kcal/mol)

>  <smiles>  (32) 
COc1oc(C(=O)N2CCOCC2)cc1C

>  <score_type>  (32) 
oracle

>  <origin>  (32) 
adg

>  <m_score__min__energy>  (32) 
-6.6500000000000004

>  <m_primary>  (32) 
energy

$$$$
32:0
     RDKit          3D

 59 61  0  0  0  0  0  0  0  0999 V2000
   -6.1930   24.9690  -29.6750 C   0  0  0  0  0  0  0  0  0  0  0  0
   -5.2890   25.6760  -30.6800 C   0  0  0  0  0  0  0  0  0  0  0  0
   -3.8890   25.3010  -30.4480 N   0  0  0  0  0  0  0  0  0  0  0  0
   -3.8130   23.9760  -29.8190 C   0  0  0  0  0  0  0  0  0  0  0  0
   -3.4030   22.9030  -30.8390 C   0  0  0  0  0  0  0  0  0  0  0  0
   -1.8980   22.5600  -30.8250 C   0  0  0  0  0  0  0  0  0  0  0  0
   -1.6110   21.1930  -31.3170 N   0  0  0  0  0  0  0  0  0  0  0  0
   -1.6340   20.1990  -30.2160 C   0  0  0  0  0  0  0  0  0  0  0  0
   -1.3850   20.8770  -28.8690 C   0  0  0  0  0  0  0  0  0  0  0  0
   -0.3270   21.1440  -32.0660 C   0  0  0  0  0  0  0  0  0  0  0  0
   -0.5920   21.1840  -33.5770 C   0  0  0  0  0  0  0  0  0  0  0  0
   -1.5660   20.0910  -34.0370 C   0  0  0  0  0  0  0  0  0  0  0  0
   -2.8940   20.2810  -33.4490 N   0  0  0  0  0  0  0  0  0  0  0  0
   -3.9420   19.2860  -33.4360 C   0  0  0  0  0  0  0  0  0  0  0  0
   -3.6810   17.9420  -33.7680 C   0  0  0  0  0  0  0  0  0  0  0  0
   -4.6930   16.9850  -33.7170 C   0  0  0  0  0  0  0  0  0  0  0  0
   -5.9830   17.3430  -33.3330 C   0  0  0  0  0  0  0  0  0  0  0  0
   -6.2810   18.6750  -33.0020 C   0  0  0  0  0  0  0  0  0  0  0  0
   -7.5790   19.0640  -32.6160 C   0  0  0  0  0  0  0  0  0  0  0  0
   -8.5060   18.2080  -32.5480 O   0  0  0  0  0  0  0  0  0  0  0  0
   -7.8410   20.4120  -32.3060 C   0  0  0  0  0  0  0  0  0  0  0  0
   -9.1230   20.8530  -31.9200 C   0  0  0  0  0  0  0  0  0  0  0  0
   -9.3440   22.2000  -31.6270 C   0  0  0  0  0  0  0  0  0  0  0  0
   -8.2960   23.1200  -31.7140 C   0  0  0  0  0  0  0  0  0  0  0  0
   -7.0180   22.6960  -32.0900 C   0  0  0  0  0  0  0  0  0  0  0  0
   -6.7860   21.3480  -32.3870 C   0  0  0  0  0  0  0  0  0  0  0  0
   -5.5430   20.9440  -32.7540 N   0  0  0  0  0  0  0  0  0  0  0  0
   -5.2550   19.6510  -33.0590 C   0  0  0  0  0  0  0  0  0  0  0  0
   -5.8721   25.2200  -28.6532 H   0  0  0  0  0  0  0  0  0  0  0  0
   -7.2327   25.2961  -29.8235 H   0  0  0  0  0  0  0  0  0  0  0  0
   -6.1261   23.8811  -29.8235 H   0  0  0  0  0  0  0  0  0  0  0  0
   -5.5800   25.3839  -31.6998 H   0  0  0  0  0  0  0  0  0  0  0  0
   -5.3959   26.7640  -30.5582 H   0  0  0  0  0  0  0  0  0  0  0  0
   -3.4950   26.0020  -29.7810 H   0  0  0  0  0  0  0  0  0  0  0  0
   -3.0692   24.0048  -29.0091 H   0  0  0  0  0  0  0  0  0  0  0  0
   -4.8064   23.7198  -29.4222 H   0  0  0  0  0  0  0  0  0  0  0  0
   -3.9682   21.9850  -30.6203 H   0  0  0  0  0  0  0  0  0  0  0  0
   -3.6250   23.3124  -31.8355 H   0  0  0  0  0  0  0  0  0  0  0  0
   -1.3683   23.2811  -31.4648 H   0  0  0  0  0  0  0  0  0  0  0  0
   -1.5588   22.6113  -29.7799 H   0  0  0  0  0  0  0  0  0  0  0  0
   -2.6171   19.7059  -30.1955 H   0  0  0  0  0  0  0  0  0  0  0  0
   -0.8389   19.4594  -30.3914 H   0  0  0  0  0  0  0  0  0  0  0  0
   -1.6404   20.1817  -28.0558 H   0  0  0  0  0  0  0  0  0  0  0  0
   -0.3246   21.1590  -28.7909 H   0  0  0  0  0  0  0  0  0  0  0  0
   -2.0108   21.7783  -28.7909 H   0  0  0  0  0  0  0  0  0  0  0  0
    0.2919   22.0082  -31.7828 H   0  0  0  0  0  0  0  0  0  0  0  0
    0.1970   20.2090  -31.8185 H   0  0  0  0  0  0  0  0  0  0  0  0
   -1.0176   22.1653  -33.8337 H   0  0  0  0  0  0  0  0  0  0  0  0
    0.3670   21.0103  -34.0870 H   0  0  0  0  0  0  0  0  0  0  0  0
   -1.6511   20.1249  -35.1332 H   0  0  0  0  0  0  0  0  0  0  0  0
   -1.1760   19.1167  -33.7073 H   0  0  0  0  0  0  0  0  0  0  0  0
   -3.0490   21.1870  -32.9500 H   0  0  0  0  0  0  0  0  0  0  0  0
   -2.6664   17.6443  -34.0711 H   0  0  0  0  0  0  0  0  0  0  0  0
   -4.4715   15.9405  -33.9817 H   0  0  0  0  0  0  0  0  0  0  0  0
   -6.7726   16.5785  -33.2887 H   0  0  0  0  0  0  0  0  0  0  0  0
   -9.9520   20.1335  -31.8494 H   0  0  0  0  0  0  0  0  0  0  0  0
  -10.3467   22.5382  -31.3266 H   0  0  0  0  0  0  0  0  0  0  0  0
   -8.4770   24.1808  -31.4860 H   0  0  0  0  0  0  0  0  0  0  0  0
   -6.1942   23.4223  -32.1525 H   0  0  0  0  0  0  0  0  0  0  0  0
  1  2  1  0
  2  3  1  0
  3  4  1  0
  4  5  1  0
  5  6  1  0
  6  7  1  0
  7  8  1  0
  8  9  1  0
  7 10  1  0
 10 11  1  0
 11 12  1  0
 12 13  1  0
 13 14  1  0
 14 15  2  0
 15 16  1  0
 16 17  2  0
 17 18  1  0
 18 19  1  0
 19 20  2  0
 19 21  1  0
 21 22  2  0
 22 23  1  0
 23 24  2  0
 24 25  1  0
 25 26  2  0
 26 27  1  0
 27 28  1  0
 28 14  1  0
 28 18  2  0
 26 21  1  0
  1 29  1  0
  1 30  1  0
  1 31  1  0
  2 32  1  0
  2 33  1  0
  3 34  1  0
  4 35  1  0
  4 36  1  0
  5 37  1  0
  5 38  1  0
  6 39  1  0
  6 40  1  0
  8 41  1  0
  8 42  1  0
  9 43  1  0
  9 44  1  0
  9 45  1  0
 10 46  1  0
 10 47  1  0
 11 48  1  0
 11 49  1  0
 12 50  1  0
 12 51  1  0
 13 52  1  0
 15 53  1  0
 16 54  1  0
 17 55  1  0
 22 56  1  0
 23 57  1  0
 24 58  1  0
 25 59  1  0
M  CHG  1  27  -1
M  END
>  <UniqueID>  (33) 
31

>  <SMILES>  (33) 
CCNCCCN(CC)CCCNc1cccc2c(=O)c3ccccc3[n-]c12

>  <Energy>  (33) 
61.74431371067116

>  <Genealogy>  (33) 
CCNCCCN(CC)CCCNc1cccc2c(=O)c3ccccc3[n-]c12 (protonated)
CCNCCCN(CC)CCCNc1cccc2c(=O)c3ccccc3[n-]c12 (3D coordinates assigned)
CCNCCCN(CC)CCCNc1cccc2c(=O)c3ccccc3[n-]c12 (optimized conformer: 61.74431371067116 kcal/mol)

>  <smiles>  (33) 
CCNCCCN(CC)CCCNc1cccc2c(=O)c3ccccc3[nH]c12

>  <score_type>  (33) 
oracle

>  <origin>  (33) 
adg

>  <m_score__min__energy>  (33) 
-10.550000000000001

>  <m_primary>  (33) 
energy

$$$$
33:0
     RDKit          3D

 56 58  0  0  0  0  0  0  0  0999 V2000
   -6.0401   26.3285  -31.3465 H   0  0  0  0  0  0  0  0  0  0  0  0
   -5.5110   25.4680  -30.9110 C   0  0  0  0  0  0  0  0  0  0  0  0
   -4.2350   25.6120  -30.4640 N   0  0  0  0  0  0  0  0  0  0  0  0
   -3.5380   24.5800  -29.9100 C   0  0  0  0  0  0  0  0  0  0  0  0
   -2.3080   24.7320  -29.5100 N   0  0  0  0  0  0  0  0  0  0  0  0
   -1.8720   25.2350  -28.2360 C   0  0  0  0  0  0  0  0  0  0  0  0
   -0.8610   26.2100  -28.1260 C   0  0  0  0  0  0  0  0  0  0  0  0
   -0.3612   26.5862  -29.0308 H   0  0  0  0  0  0  0  0  0  0  0  0
   -0.4910   26.7010  -26.8700 C   0  0  0  0  0  0  0  0  0  0  0  0
    0.3099   27.4506  -26.7877 H   0  0  0  0  0  0  0  0  0  0  0  0
   -1.1370   26.2410  -25.7190 C   0  0  0  0  0  0  0  0  0  0  0  0
   -0.6310   26.9160  -24.0050 Br  0  0  0  0  0  0  0  0  0  0  0  0
   -2.1620   25.2960  -25.8250 C   0  0  0  0  0  0  0  0  0  0  0  0
   -2.6754   24.9386  -24.9202 H   0  0  0  0  0  0  0  0  0  0  0  0
   -2.5350   24.8050  -27.0790 C   0  0  0  0  0  0  0  0  0  0  0  0
   -3.3548   24.0759  -27.1583 H   0  0  0  0  0  0  0  0  0  0  0  0
   -4.1400   23.3220  -29.8110 C   0  0  0  0  0  0  0  0  0  0  0  0
   -3.5849   22.4753  -29.3809 H   0  0  0  0  0  0  0  0  0  0  0  0
   -5.4490   23.1470  -30.2610 C   0  0  0  0  0  0  0  0  0  0  0  0
   -5.9288   22.1606  -30.1784 H   0  0  0  0  0  0  0  0  0  0  0  0
   -6.1560   24.2220  -30.8180 C   0  0  0  0  0  0  0  0  0  0  0  0
   -7.5070   24.0240  -31.2770 N   0  0  0  0  0  0  0  0  0  0  0  0
   -8.2620   24.6100  -30.8510 H   0  0  0  0  0  0  0  0  0  0  0  0
   -7.8650   23.0510  -32.3120 C   0  0  0  0  0  0  0  0  0  0  0  0
   -6.9462   22.6789  -32.7889 H   0  0  0  0  0  0  0  0  0  0  0  0
   -8.5097   23.5481  -33.0518 H   0  0  0  0  0  0  0  0  0  0  0  0
   -8.6340   21.8660  -31.7120 C   0  0  0  0  0  0  0  0  0  0  0  0
   -9.6068   21.7775  -32.2179 H   0  0  0  0  0  0  0  0  0  0  0  0
   -8.7691   22.0499  -30.6359 H   0  0  0  0  0  0  0  0  0  0  0  0
   -7.8880   20.5990  -31.8780 N   0  0  0  0  0  0  0  0  0  0  0  0
   -6.8150   20.7290  -32.9000 C   0  0  0  0  0  0  0  0  0  0  0  0
   -5.9487   21.2228  -32.4356 H   0  0  0  0  0  0  0  0  0  0  0  0
   -7.2290   21.3151  -33.7338 H   0  0  0  0  0  0  0  0  0  0  0  0
   -6.3540   19.3730  -33.4790 C   0  0  0  0  0  0  0  0  0  0  0  0
   -5.2787   19.4260  -33.7047 H   0  0  0  0  0  0  0  0  0  0  0  0
   -6.9321   19.1693  -34.3924 H   0  0  0  0  0  0  0  0  0  0  0  0
   -6.6020   18.2270  -32.4780 C   0  0  0  0  0  0  0  0  0  0  0  0
   -6.0535   18.4699  -31.5559 H   0  0  0  0  0  0  0  0  0  0  0  0
   -6.0120   16.9310  -32.9160 N   0  0  0  0  0  0  0  0  0  0  0  0
   -6.8380   16.1950  -33.8870 C   0  0  0  0  0  0  0  0  0  0  0  0
   -7.5545   15.5566  -33.3494 H   0  0  0  0  0  0  0  0  0  0  0  0
   -7.3859   16.9098  -34.5186 H   0  0  0  0  0  0  0  0  0  0  0  0
   -6.1909   15.5687  -34.5186 H   0  0  0  0  0  0  0  0  0  0  0  0
   -4.5570   16.8560  -33.1950 C   0  0  0  0  0  0  0  0  0  0  0  0
   -4.1984   15.8650  -32.8799 H   0  0  0  0  0  0  0  0  0  0  0  0
   -4.0910   17.6822  -32.6380 H   0  0  0  0  0  0  0  0  0  0  0  0
   -4.1760   17.0560  -34.6640 C   0  0  0  0  0  0  0  0  0  0  0  0
   -3.2035   17.5665  -34.7243 H   0  0  0  0  0  0  0  0  0  0  0  0
   -4.1079   16.0774  -35.1617 H   0  0  0  0  0  0  0  0  0  0  0  0
   -4.9428   17.6679  -35.1617 H   0  0  0  0  0  0  0  0  0  0  0  0
   -8.1000   18.1430  -32.0780 C   0  0  0  0  0  0  0  0  0  0  0  0
   -8.1693   17.8086  -31.0324 H   0  0  0  0  0  0  0  0  0  0  0  0
   -8.5922   17.4327  -32.7587 H   0  0  0  0  0  0  0  0  0  0  0  0
   -8.8140   19.4990  -32.2130 C   0  0  0  0  0  0  0  0  0  0  0  0
   -9.6739   19.5266  -31.5276 H   0  0  0  0  0  0  0  0  0  0  0  0
   -9.1567   19.6222  -33.2510 H   0  0  0  0  0  0  0  0  0  0  0  0
  1  2  1  0
  2  3  1  0
  3  4  1  0
  4  5  2  0
  5  6  1  0
  6  7  2  0
  7  8  1  0
  7  9  1  0
  9 10  1  0
  9 11  2  0
 11 12  1  0
 11 13  1  0
 13 14  1  0
 13 15  2  0
 15 16  1  0
  4 17  1  0
 17 18  1  0
 17 19  2  0
 19 20  1  0
 19 21  1  0
 21 22  1  0
 22 23  1  0
 22 24  1  0
 24 25  1  0
 24 26  1  0
 24 27  1  0
 27 28  1  0
 27 29  1  0
 27 30  1  0
 30 31  1  0
 31 32  1  0
 31 33  1  0
 31 34  1  0
 34 35  1  0
 34 36  1  0
 34 37  1  0
 37 38  1  0
 37 39  1  0
 39 40  1  0
 40 41  1  0
 40 42  1  0
 40 43  1  0
 39 44  1  0
 44 45  1  0
 44 46  1  0
 44 47  1  0
 47 48  1  0
 47 49  1  0
 47 50  1  0
 37 51  1  0
 51 52  1  0
 51 53  1  0
 51 54  1  0
 54 55  1  0
 54 56  1  0
 21  2  2  0
 54 30  1  0
 15  6  1  0
M  CHG  1   3  -1
M  END
>  <UniqueID>  (34) 
32

>  <SMILES>  (34) 
CCN(C)C1CCN(CCNc2cc/c(=N/c3ccc(Br)cc3)[n-]c2)CC1

>  <Energy>  (34) 
78.40160806312143

>  <Genealogy>  (34) 
CCN(C)C1CCN(CCNc2ccc(=Nc3ccc(Br)cc3)[n-]c2)CC1 (protonated)
CCN(C)C1CCN(CCNc2cc/c(=N/c3ccc(Br)cc3)[n-]c2)CC1 (cis-trans isomerization)
CCN(C)C1CCN(CCNc2cc/c(=N/c3ccc(Br)cc3)[n-]c2)CC1 (3D coordinates assigned)
CCN(C)C1CCN(CCNc2cc/c(=N/c3ccc(Br)cc3)[n-]c2)CC1 (nonaromatic ring conformer: 78.40160806312143 kcal/mol)

>  <smiles>  (34) 
CCN(C)C1CCN(CCNc2ccc(=Nc3ccc(Br)cc3)[nH]c2)CC1

>  <score_type>  (34) 
oracle

>  <origin>  (34) 
adg

>  <m_score__min__energy>  (34) 
-11.31

>  <m_primary>  (34) 
energy

$$$$
34:0
     RDKit          3D

 52 54  0  0  0  0  0  0  0  0999 V2000
   -3.4830   24.3700  -29.8440 C   0  0  0  0  0  0  0  0  0  0  0  0
   -4.6680   24.4170  -30.7150 N   0  0  0  0  0  0  0  0  0  0  0  0
   -5.4030   25.6700  -30.4720 C   0  0  0  0  0  0  0  0  0  0  0  0
   -5.5240   23.2350  -30.4660 C   0  0  0  0  0  0  0  0  0  0  0  0
   -6.8180   23.2800  -31.2890 C   0  0  0  0  0  0  0  0  0  0  0  0
   -6.6330   22.6550  -32.6000 N   0  0  0  0  0  0  0  0  0  0  0  0
   -6.2540   21.2720  -32.7250 C   0  0  0  0  0  0  0  0  0  0  0  0
   -7.2040   20.2530  -32.5200 C   0  0  0  0  0  0  0  0  0  0  0  0
   -8.5540   20.5650  -32.2470 C   0  0  0  0  0  0  0  0  0  0  0  0
   -9.4770   19.5590  -31.9770 C   0  0  0  0  0  0  0  0  0  0  0  0
   -9.0730   18.2300  -31.9670 C   0  0  0  0  0  0  0  0  0  0  0  0
   -7.7550   17.8950  -32.2700 C   0  0  0  0  0  0  0  0  0  0  0  0
   -6.8020   18.8930  -32.6030 C   0  0  0  0  0  0  0  0  0  0  0  0
   -5.5150   18.5720  -32.9910 N   0  0  0  0  0  0  0  0  0  0  0  0
   -5.1820   17.1760  -33.3590 C   0  0  0  0  0  0  0  0  0  0  0  0
   -4.5490   19.5580  -33.0780 C   0  0  0  0  0  0  0  0  0  0  0  0
   -3.1740   19.2430  -33.2260 C   0  0  0  0  0  0  0  0  0  0  0  0
   -2.2060   20.2400  -33.3700 C   0  0  0  0  0  0  0  0  0  0  0  0
   -0.8680   19.8490  -33.5200 O   0  0  0  0  0  0  0  0  0  0  0  0
   -0.2720   19.4630  -34.7560 C   0  0  0  0  0  0  0  0  0  0  0  0
    0.4110   20.6680  -35.4080 C   0  0  0  0  0  0  0  0  0  0  0  0
    0.0690   21.9180  -34.7300 N   0  0  0  0  0  0  0  0  0  0  0  0
   -2.5980   21.5830  -33.3560 C   0  0  0  0  0  0  0  0  0  0  0  0
   -3.9340   21.9210  -33.1660 C   0  0  0  0  0  0  0  0  0  0  0  0
   -4.9180   20.9270  -32.9970 C   0  0  0  0  0  0  0  0  0  0  0  0
   -3.8011   24.3826  -28.7911 H   0  0  0  0  0  0  0  0  0  0  0  0
   -2.9166   23.4487  -30.0449 H   0  0  0  0  0  0  0  0  0  0  0  0
   -2.8454   25.2436  -30.0449 H   0  0  0  0  0  0  0  0  0  0  0  0
   -5.4994   25.8343  -29.3886 H   0  0  0  0  0  0  0  0  0  0  0  0
   -4.8546   26.5102  -30.9229 H   0  0  0  0  0  0  0  0  0  0  0  0
   -6.4040   25.6013  -30.9229 H   0  0  0  0  0  0  0  0  0  0  0  0
   -4.9635   22.3274  -30.7346 H   0  0  0  0  0  0  0  0  0  0  0  0
   -5.7983   23.2320  -29.4008 H   0  0  0  0  0  0  0  0  0  0  0  0
   -7.6088   22.7436  -30.7441 H   0  0  0  0  0  0  0  0  0  0  0  0
   -7.0979   24.3329  -31.4412 H   0  0  0  0  0  0  0  0  0  0  0  0
   -6.5640   23.2720  -33.4390 H   0  0  0  0  0  0  0  0  0  0  0  0
   -8.8799   21.6156  -32.2478 H   0  0  0  0  0  0  0  0  0  0  0  0
  -10.5266   19.8163  -31.7715 H   0  0  0  0  0  0  0  0  0  0  0  0
   -9.7963   17.4392  -31.7190 H   0  0  0  0  0  0  0  0  0  0  0  0
   -7.4476   16.8390  -32.2509 H   0  0  0  0  0  0  0  0  0  0  0  0
   -5.0398   16.5800  -32.4455 H   0  0  0  0  0  0  0  0  0  0  0  0
   -6.0031   16.7474  -33.9524 H   0  0  0  0  0  0  0  0  0  0  0  0
   -4.2558   17.1642  -33.9524 H   0  0  0  0  0  0  0  0  0  0  0  0
   -2.8622   18.1881  -33.2274 H   0  0  0  0  0  0  0  0  0  0  0  0
    0.4752   18.6774  -34.5702 H   0  0  0  0  0  0  0  0  0  0  0  0
   -1.0537   19.0831  -35.4302 H   0  0  0  0  0  0  0  0  0  0  0  0
    1.5009   20.5261  -35.3648 H   0  0  0  0  0  0  0  0  0  0  0  0
    0.0625   20.7370  -36.4491 H   0  0  0  0  0  0  0  0  0  0  0  0
   -0.9150   22.1790  -34.9720 H   0  0  0  0  0  0  0  0  0  0  0  0
    0.1160   21.7680  -33.6970 H   0  0  0  0  0  0  0  0  0  0  0  0
   -1.8470   22.3745  -33.4957 H   0  0  0  0  0  0  0  0  0  0  0  0
   -4.2268   22.9812  -33.1474 H   0  0  0  0  0  0  0  0  0  0  0  0
  1  2  1  0
  2  3  1  0
  2  4  1  0
  4  5  1  0
  5  6  1  0
  6  7  1  0
  7  8  2  0
  8  9  1  0
  9 10  2  0
 10 11  1  0
 11 12  2  0
 12 13  1  0
 13 14  2  0
 14 15  1  0
 14 16  1  0
 16 17  2  0
 17 18  1  0
 18 19  1  0
 19 20  1  0
 20 21  1  0
 21 22  1  0
 18 23  2  0
 23 24  1  0
 24 25  2  0
 25  7  1  0
 13  8  1  0
 25 16  1  0
  1 26  1  0
  1 27  1  0
  1 28  1  0
  3 29  1  0
  3 30  1  0
  3 31  1  0
  4 32  1  0
  4 33  1  0
  5 34  1  0
  5 35  1  0
  6 36  1  0
  9 37  1  0
 10 38  1  0
 11 39  1  0
 12 40  1  0
 15 41  1  0
 15 42  1  0
 15 43  1  0
 17 44  1  0
 20 45  1  0
 20 46  1  0
 21 47  1  0
 21 48  1  0
 22 49  1  0
 22 50  1  0
 23 51  1  0
 24 52  1  0
M  CHG  1  14   1
M  END
>  <UniqueID>  (35) 
33

>  <SMILES>  (35) 
CN(C)CCNc1c2ccccc2[n+](C)c2cc(OCCN)ccc12

>  <Energy>  (35) 
74.5226122317608

>  <Genealogy>  (35) 
CN(C)CCNc1c2ccccc2[n+](C)c2cc(OCCN)ccc12 (3D coordinates assigned)
CN(C)CCNc1c2ccccc2[n+](C)c2cc(OCCN)ccc12 (optimized conformer: 74.5226122317608 kcal/mol)

>  <smiles>  (35) 
CN(C)CCNc1c2ccccc2[n+](C)c2cc(OCCN)ccc12

>  <score_type>  (35) 
oracle

>  <origin>  (35) 
adg

>  <m_score__min__energy>  (35) 
-7.9900000000000002

>  <m_primary>  (35) 
energy

$$$$
35:0
     RDKit          3D

 50 51  0  0  0  0  0  0  0  0999 V2000
   -9.0780   19.0110  -32.4440 C   0  0  0  0  0  0  0  0  0  0  0  0
   -7.9230   18.0890  -32.0330 C   0  0  0  0  0  0  0  0  0  0  0  0
   -6.7460   18.2150  -32.9380 N   0  0  0  0  0  0  0  0  0  0  0  0
   -6.4990   16.9440  -33.6660 C   0  0  0  0  0  0  0  0  0  0  0  0
   -5.2780   17.0210  -34.5930 C   0  0  0  0  0  0  0  0  0  0  0  0
   -6.8360   19.4180  -33.8210 C   0  0  0  0  0  0  0  0  0  0  0  0
   -5.5990   20.3440  -33.8470 C   0  0  0  0  0  0  0  0  0  0  0  0
   -4.6020   19.9010  -32.9380 O   0  0  0  0  0  0  0  0  0  0  0  0
   -4.7220   20.0410  -31.5520 C   0  0  0  0  0  0  0  0  0  0  0  0
   -5.3810   19.2020  -30.8780 O   0  0  0  0  0  0  0  0  0  0  0  0
   -4.1060   21.2350  -30.8660 C   0  0  1  0  0  0  0  0  0  0  0  0
   -3.3060   22.1130  -31.8190 C   0  0  0  0  0  0  0  0  0  0  0  0
   -2.5100   21.5200  -32.9480 C   0  0  0  0  0  0  0  0  0  0  0  0
   -3.1410   23.3790  -31.5730 N   0  0  0  0  0  0  0  0  0  0  0  0
   -3.7430   24.0630  -30.4690 C   0  0  0  0  0  0  0  0  0  0  0  0
   -3.5190   25.2910  -30.3050 O   0  0  0  0  0  0  0  0  0  0  0  0
   -4.5990   23.3280  -29.4830 C   0  0  0  0  0  0  0  0  0  0  0  0
   -5.1850   22.0340  -30.0830 C   0  0  1  0  0  0  0  0  0  0  0  0
   -6.4680   22.2870  -30.8770 C   0  0  0  0  0  0  0  0  0  0  0  0
   -7.6930   21.6810  -30.5420 C   0  0  0  0  0  0  0  0  0  0  0  0
   -8.8400   21.9760  -31.2820 C   0  0  0  0  0  0  0  0  0  0  0  0
   -8.7810   22.8610  -32.3100 N   0  0  0  0  0  0  0  0  0  0  0  0
   -7.6200   23.4750  -32.6530 C   0  0  0  0  0  0  0  0  0  0  0  0
   -6.4470   23.2010  -31.9460 C   0  0  0  0  0  0  0  0  0  0  0  0
   -9.5712   19.4047  -31.5431 H   0  0  0  0  0  0  0  0  0  0  0  0
   -8.6852   19.8466  -33.0418 H   0  0  0  0  0  0  0  0  0  0  0  0
   -9.8058   18.4428  -33.0418 H   0  0  0  0  0  0  0  0  0  0  0  0
   -7.6114   18.3475  -31.0102 H   0  0  0  0  0  0  0  0  0  0  0  0
   -8.2838   17.0517  -32.0944 H   0  0  0  0  0  0  0  0  0  0  0  0
   -5.9080   18.3600  -32.3260 H   0  0  0  0  0  0  0  0  0  0  0  0
   -6.3325   16.1434  -32.9302 H   0  0  0  0  0  0  0  0  0  0  0  0
   -7.3803   16.7430  -34.2928 H   0  0  0  0  0  0  0  0  0  0  0  0
   -4.3613   17.0788  -33.9878 H   0  0  0  0  0  0  0  0  0  0  0  0
   -5.2423   16.1233  -35.2277 H   0  0  0  0  0  0  0  0  0  0  0  0
   -5.3554   17.9160  -35.2277 H   0  0  0  0  0  0  0  0  0  0  0  0
   -7.0131   19.0669  -34.8483 H   0  0  0  0  0  0  0  0  0  0  0  0
   -7.6497   20.0283  -33.4022 H   0  0  0  0  0  0  0  0  0  0  0  0
   -5.1788   20.3517  -34.8635 H   0  0  0  0  0  0  0  0  0  0  0  0
   -5.9159   21.3542  -33.5485 H   0  0  0  0  0  0  0  0  0  0  0  0
   -3.3754   20.8564  -30.1360 H   0  0  0  0  0  0  0  0  0  0  0  0
   -1.6913   20.9101  -32.5386 H   0  0  0  0  0  0  0  0  0  0  0  0
   -3.1647   20.8878  -33.5658 H   0  0  0  0  0  0  0  0  0  0  0  0
   -2.0916   22.3283  -33.5658 H   0  0  0  0  0  0  0  0  0  0  0  0
   -3.9883   23.0685  -28.6057 H   0  0  0  0  0  0  0  0  0  0  0  0
   -5.4365   23.9838  -29.2030 H   0  0  0  0  0  0  0  0  0  0  0  0
   -5.4953   21.3881  -29.2485 H   0  0  0  0  0  0  0  0  0  0  0  0
   -7.7470   20.9764  -29.6990 H   0  0  0  0  0  0  0  0  0  0  0  0
   -9.7943   21.4898  -31.0312 H   0  0  0  0  0  0  0  0  0  0  0  0
   -7.6029   24.1895  -33.4891 H   0  0  0  0  0  0  0  0  0  0  0  0
   -5.5071   23.6998  -32.2251 H   0  0  0  0  0  0  0  0  0  0  0  0
  1  2  1  0
  2  3  1  0
  3  4  1  0
  4  5  1  0
  3  6  1  0
  6  7  1  0
  7  8  1  0
  8  9  1  0
  9 10  2  0
  9 11  1  0
 11 12  1  0
 12 13  1  0
 12 14  2  0
 14 15  1  0
 15 16  2  0
 15 17  1  0
 17 18  1  0
 18 19  1  0
 19 20  2  0
 20 21  1  0
 21 22  2  0
 22 23  1  0
 23 24  2  0
 18 11  1  0
 24 19  1  0
  1 25  1  0
  1 26  1  0
  1 27  1  0
  2 28  1  0
  2 29  1  0
  3 30  1  0
  4 31  1  0
  4 32  1  0
  5 33  1  0
  5 34  1  0
  5 35  1  0
  6 36  1  0
  6 37  1  0
  7 38  1  0
  7 39  1  0
 11 40  1  1
 13 41  1  0
 13 42  1  0
 13 43  1  0
 17 44  1  0
 17 45  1  0
 18 46  1  1
 20 47  1  0
 21 48  1  0
 23 49  1  0
 24 50  1  0
M  CHG  1   3   1
M  END
>  <UniqueID>  (36) 
34

>  <SMILES>  (36) 
CC[NH+](CC)CCOC(=O)[C@H]1C(C)=NC(=O)C[C@H]1c1ccncc1

>  <Energy>  (36) 
50.853277838603674

>  <Genealogy>  (36) 
CC[NH+](CC)CCOC(=O)C1C(C)=NC(=O)CC1c1ccncc1 (protonated)
CC[NH+](CC)CCOC(=O)[C@H]1C(C)=NC(=O)C[C@H]1c1ccncc1 (chirality)
CC[NH+](CC)CCOC(=O)[C@H]1C(C)=NC(=O)C[C@H]1c1ccncc1 (3D coordinates assigned)
CC[NH+](CC)CCOC(=O)[C@H]1C(C)=NC(=O)C[C@H]1c1ccncc1 (nonaromatic ring conformer: 50.853277838603674 kcal/mol)

>  <smiles>  (36) 
CCN(CC)CCOC(=O)C1C(C)=NC(=O)CC1c1ccncc1

>  <score_type>  (36) 
oracle

>  <origin>  (36) 
adg

>  <m_score__min__energy>  (36) 
-5.4500000000000002

>  <m_primary>  (36) 
energy

$$$$
36:0
     RDKit          3D

 46 49  0  0  0  0  0  0  0  0999 V2000
   -5.5330   24.7460  -30.8790 C   0  0  0  0  0  0  0  0  0  0  0  0
   -4.1730   24.1790  -30.8420 N   0  0  0  0  0  0  0  0  0  0  0  0
   -3.5390   24.5020  -29.5550 C   0  0  0  0  0  0  0  0  0  0  0  0
   -4.2020   22.7140  -31.0500 C   0  0  0  0  0  0  0  0  0  0  0  0
   -3.3250   22.2910  -32.2420 C   0  0  0  0  0  0  0  0  0  0  0  0
   -2.9090   20.8090  -32.1870 C   0  0  0  0  0  0  0  0  0  0  0  0
   -3.0720   20.1020  -33.5380 C   0  0  0  0  0  0  0  0  0  0  0  0
   -4.2970   19.3040  -33.5410 N   0  0  0  0  0  0  0  0  0  0  0  0
   -4.4290   17.9740  -33.7990 C   0  0  0  0  0  0  0  0  0  0  0  0
   -3.4330   17.0700  -34.1770 C   0  0  0  0  0  0  0  0  0  0  0  0
   -3.8020   15.7260  -34.3750 C   0  0  0  0  0  0  0  0  0  0  0  0
   -5.1400   15.3100  -34.1890 C   0  0  0  0  0  0  0  0  0  0  0  0
   -6.1280   16.2310  -33.8000 C   0  0  0  0  0  0  0  0  0  0  0  0
   -5.7380   17.5540  -33.6150 C   0  0  0  0  0  0  0  0  0  0  0  0
   -6.4320   18.6690  -33.2170 C   0  0  0  0  0  0  0  0  0  0  0  0
   -7.7310   18.8220  -32.8710 N   0  0  0  0  0  0  0  0  0  0  0  0
   -8.1460   20.0630  -32.4730 C   0  0  0  0  0  0  0  0  0  0  0  0
   -9.4790   20.2790  -32.1080 C   0  0  0  0  0  0  0  0  0  0  0  0
   -9.8940   21.5510  -31.7010 C   0  0  0  0  0  0  0  0  0  0  0  0
   -8.9830   22.6120  -31.6530 C   0  0  0  0  0  0  0  0  0  0  0  0
   -7.6460   22.4130  -32.0140 C   0  0  0  0  0  0  0  0  0  0  0  0
   -7.2140   21.1480  -32.4260 C   0  0  0  0  0  0  0  0  0  0  0  0
   -5.9080   20.9450  -32.7780 N   0  0  0  0  0  0  0  0  0  0  0  0
   -5.5350   19.7030  -33.1750 C   0  0  0  0  0  0  0  0  0  0  0  0
   -5.8954   24.8971  -29.8514 H   0  0  0  0  0  0  0  0  0  0  0  0
   -5.5137   25.7110  -31.4066 H   0  0  0  0  0  0  0  0  0  0  0  0
   -6.2049   24.0531  -31.4066 H   0  0  0  0  0  0  0  0  0  0  0  0
   -4.1896   24.1705  -28.7323 H   0  0  0  0  0  0  0  0  0  0  0  0
   -2.5689   23.9883  -29.4850 H   0  0  0  0  0  0  0  0  0  0  0  0
   -3.3843   25.5888  -29.4850 H   0  0  0  0  0  0  0  0  0  0  0  0
   -3.8317   22.2174  -30.1410 H   0  0  0  0  0  0  0  0  0  0  0  0
   -5.2394   22.4187  -31.2656 H   0  0  0  0  0  0  0  0  0  0  0  0
   -3.8892   22.4625  -33.1706 H   0  0  0  0  0  0  0  0  0  0  0  0
   -2.4050   22.8927  -32.2035 H   0  0  0  0  0  0  0  0  0  0  0  0
   -1.8534   20.7501  -31.8833 H   0  0  0  0  0  0  0  0  0  0  0  0
   -3.5669   20.3041  -31.4644 H   0  0  0  0  0  0  0  0  0  0  0  0
   -3.1256   20.8544  -34.3386 H   0  0  0  0  0  0  0  0  0  0  0  0
   -2.2097   19.4398  -33.7050 H   0  0  0  0  0  0  0  0  0  0  0  0
   -2.3924   17.3984  -34.3156 H   0  0  0  0  0  0  0  0  0  0  0  0
   -3.0410   14.9917  -34.6777 H   0  0  0  0  0  0  0  0  0  0  0  0
   -5.4105   14.2560  -34.3501 H   0  0  0  0  0  0  0  0  0  0  0  0
   -7.1713   15.9175  -33.6474 H   0  0  0  0  0  0  0  0  0  0  0  0
  -10.2002   19.4491  -32.1411 H   0  0  0  0  0  0  0  0  0  0  0  0
  -10.9434   21.7185  -31.4168 H   0  0  0  0  0  0  0  0  0  0  0  0
   -9.3199   23.6080  -31.3297 H   0  0  0  0  0  0  0  0  0  0  0  0
   -6.9347   23.2511  -31.9738 H   0  0  0  0  0  0  0  0  0  0  0  0
  1  2  1  0
  2  3  1  0
  2  4  1  0
  4  5  1  0
  5  6  1  0
  6  7  1  0
  7  8  1  0
  8  9  1  0
  9 10  2  0
 10 11  1  0
 11 12  2  0
 12 13  1  0
 13 14  2  0
 14 15  1  0
 15 16  2  0
 16 17  1  0
 17 18  2  0
 18 19  1  0
 19 20  2  0
 20 21  1  0
 21 22  2  0
 22 23  1  0
 23 24  2  0
 24  8  1  0
 14  9  1  0
 24 15  1  0
 22 17  1  0
  1 25  1  0
  1 26  1  0
  1 27  1  0
  3 28  1  0
  3 29  1  0
  3 30  1  0
  4 31  1  0
  4 32  1  0
  5 33  1  0
  5 34  1  0
  6 35  1  0
  6 36  1  0
  7 37  1  0
  7 38  1  0
 10 39  1  0
 11 40  1  0
 12 41  1  0
 13 42  1  0
 18 43  1  0
 19 44  1  0
 20 45  1  0
 21 46  1  0
M  END
>  <UniqueID>  (37) 
35

>  <SMILES>  (37) 
CN(C)CCCCn1c2ccccc2c2nc3ccccc3nc21

>  <Energy>  (37) 
93.34984760715331

>  <Genealogy>  (37) 
CN(C)CCCCn1c2ccccc2c2nc3ccccc3nc21 (3D coordinates assigned)
CN(C)CCCCn1c2ccccc2c2nc3ccccc3nc21 (optimized conformer: 93.34984760715331 kcal/mol)

>  <smiles>  (37) 
CN(C)CCCCn1c2ccccc2c2nc3ccccc3nc21

>  <score_type>  (37) 
oracle

>  <origin>  (37) 
adg

>  <m_score__min__energy>  (37) 
-8.5399999999999991

>  <m_primary>  (37) 
energy

$$$$
37:0
     RDKit          3D

 39 41  0  0  0  0  0  0  0  0999 V2000
   -2.9480   23.6830  -28.1870 C   0  0  0  0  0  0  0  0  0  0  0  0
   -2.2130   24.3550  -29.3420 C   0  0  0  0  0  0  0  0  0  0  0  0
   -3.1400   24.9240  -30.2680 O   0  0  0  0  0  0  0  0  0  0  0  0
   -4.5180   24.6450  -30.3410 C   0  0  0  0  0  0  0  0  0  0  0  0
   -5.4730   25.4920  -29.7550 C   0  0  0  0  0  0  0  0  0  0  0  0
   -6.8260   25.1930  -29.8430 C   0  0  0  0  0  0  0  0  0  0  0  0
   -7.2530   24.0510  -30.5160 C   0  0  0  0  0  0  0  0  0  0  0  0
   -6.3240   23.1720  -31.1240 C   0  0  0  0  0  0  0  0  0  0  0  0
   -6.7280   21.9950  -31.8210 C   0  0  0  0  0  0  0  0  0  0  0  0
   -8.3400   21.6200  -31.8680 S   0  0  0  0  0  0  0  0  0  0  0  0
   -5.7370   21.1560  -32.4360 C   0  0  0  0  0  0  0  0  0  0  0  0
   -6.0340   19.9680  -33.1940 C   0  0  0  0  0  0  0  0  0  0  0  0
   -7.3810   19.6050  -33.4020 O   0  0  0  0  0  0  0  0  0  0  0  0
   -8.1390   18.6130  -32.7190 C   0  0  0  0  0  0  0  0  0  0  0  0
   -4.9700   19.1870  -33.7300 C   0  0  0  0  0  0  0  0  0  0  0  0
   -5.2480   18.0120  -34.4470 O   0  0  0  0  0  0  0  0  0  0  0  0
   -5.5220   16.7390  -33.8700 C   0  0  0  0  0  0  0  0  0  0  0  0
   -3.6450   19.5960  -33.5380 C   0  0  0  0  0  0  0  0  0  0  0  0
   -3.3550   20.7500  -32.8330 C   0  0  0  0  0  0  0  0  0  0  0  0
   -4.3740   21.5320  -32.2830 C   0  0  0  0  0  0  0  0  0  0  0  0
   -4.0290   22.6580  -31.6010 N   0  0  0  0  0  0  0  0  0  0  0  0
   -4.9460   23.4840  -31.0300 C   0  0  0  0  0  0  0  0  0  0  0  0
   -2.5450   24.0514  -27.2321 H   0  0  0  0  0  0  0  0  0  0  0  0
   -4.0206   23.9193  -28.2479 H   0  0  0  0  0  0  0  0  0  0  0  0
   -2.8085   22.5936  -28.2479 H   0  0  0  0  0  0  0  0  0  0  0  0
   -1.5659   25.1505  -28.9440 H   0  0  0  0  0  0  0  0  0  0  0  0
   -1.6100   23.5983  -29.8653 H   0  0  0  0  0  0  0  0  0  0  0  0
   -5.1469   26.3979  -29.2230 H   0  0  0  0  0  0  0  0  0  0  0  0
   -7.5651   25.8622  -29.3783 H   0  0  0  0  0  0  0  0  0  0  0  0
   -8.3285   23.8283  -30.5762 H   0  0  0  0  0  0  0  0  0  0  0  0
   -8.0321   18.7529  -31.6332 H   0  0  0  0  0  0  0  0  0  0  0  0
   -9.1991   18.7050  -32.9979 H   0  0  0  0  0  0  0  0  0  0  0  0
   -7.7718   17.6143  -32.9979 H   0  0  0  0  0  0  0  0  0  0  0  0
   -5.5041   16.8220  -32.7733 H   0  0  0  0  0  0  0  0  0  0  0  0
   -6.5148   16.3949  -34.1955 H   0  0  0  0  0  0  0  0  0  0  0  0
   -4.7587   16.0169  -34.1955 H   0  0  0  0  0  0  0  0  0  0  0  0
   -2.8245   18.9922  -33.9529 H   0  0  0  0  0  0  0  0  0  0  0  0
   -2.3066   21.0567  -32.7033 H   0  0  0  0  0  0  0  0  0  0  0  0
   -3.0120   22.8920  -31.5190 H   0  0  0  0  0  0  0  0  0  0  0  0
  1  2  1  0
  2  3  1  0
  3  4  1  0
  4  5  2  0
  5  6  1  0
  6  7  2  0
  7  8  1  0
  8  9  1  0
  9 10  2  0
  9 11  1  0
 11 12  2  0
 12 13  1  0
 13 14  1  0
 12 15  1  0
 15 16  1  0
 16 17  1  0
 15 18  2  0
 18 19  1  0
 19 20  2  0
 20 21  1  0
 21 22  1  0
 22  4  1  0
 22  8  2  0
 20 11  1  0
  1 23  1  0
  1 24  1  0
  1 25  1  0
  2 26  1  0
  2 27  1  0
  5 28  1  0
  6 29  1  0
  7 30  1  0
 14 31  1  0
 14 32  1  0
 14 33  1  0
 17 34  1  0
 17 35  1  0
 17 36  1  0
 18 37  1  0
 19 38  1  0
 21 39  1  0
M  END
>  <UniqueID>  (38) 
36

>  <SMILES>  (38) 
CCOc1cccc2c(=S)c3c(OC)c(OC)ccc3[nH]c12

>  <Energy>  (38) 
63.247324355098435

>  <Genealogy>  (38) 
CCOc1cccc2c(=S)c3c(OC)c(OC)ccc3[nH]c12 (3D coordinates assigned)
CCOc1cccc2c(=S)c3c(OC)c(OC)ccc3[nH]c12 (optimized conformer: 63.247324355098435 kcal/mol)

>  <smiles>  (38) 
CCOc1cccc2c(=S)c3c(OC)c(OC)ccc3[nH]c12

>  <score_type>  (38) 
oracle

>  <origin>  (38) 
adg

>  <m_score__min__energy>  (38) 
-7.6500000000000004

>  <m_primary>  (38) 
energy

$$$$
38:0
     RDKit          3D

 30 31  0  0  0  0  0  0  0  0999 V2000
   -5.7560   17.5850  -34.3860 Br  0  0  0  0  0  0  0  0  0  0  0  0
   -6.7290   17.4380  -32.7200 C   0  0  0  0  0  0  0  0  0  0  0  0
   -7.3760   18.7420  -32.4030 C   0  0  0  0  0  0  0  0  0  0  0  0
   -8.6090   18.8530  -31.8600 N   0  0  0  0  0  0  0  0  0  0  0  0
   -8.9480   20.1130  -31.5940 N   0  0  0  0  0  0  0  0  0  0  0  0
   -7.9890   21.0160  -31.9030 C   0  0  0  0  0  0  0  0  0  0  0  0
   -8.1120   22.4890  -31.6660 C   0  0  0  0  0  0  0  0  0  0  0  0
   -7.1130   23.3240  -32.4990 C   0  0  0  0  0  0  0  0  0  0  0  0
   -6.0280   23.9890  -31.7410 N   0  0  0  0  0  0  0  0  0  0  0  0
   -4.9000   23.1060  -31.3880 C   0  0  0  0  0  0  0  0  0  0  0  0
   -3.8900   23.8490  -30.4920 C   0  0  0  0  0  0  0  0  0  0  0  0
   -4.0390   25.2490  -30.6270 O   0  0  0  0  0  0  0  0  0  0  0  0
   -5.2860   25.6590  -30.0880 C   0  0  0  0  0  0  0  0  0  0  0  0
   -6.4680   24.8080  -30.6010 C   0  0  0  0  0  0  0  0  0  0  0  0
   -6.6330   20.2490  -32.5470 S   0  0  0  0  0  0  0  0  0  0  0  0
   -7.5006   16.6597  -32.8140 H   0  0  0  0  0  0  0  0  0  0  0  0
   -6.0322   17.1697  -31.9122 H   0  0  0  0  0  0  0  0  0  0  0  0
   -9.8710   20.3630  -31.1760 H   0  0  0  0  0  0  0  0  0  0  0  0
   -9.1335   22.8015  -31.9286 H   0  0  0  0  0  0  0  0  0  0  0  0
   -7.8852   22.6700  -30.6050 H   0  0  0  0  0  0  0  0  0  0  0  0
   -6.6462   22.6531  -33.2352 H   0  0  0  0  0  0  0  0  0  0  0  0
   -7.7057   24.1380  -32.9418 H   0  0  0  0  0  0  0  0  0  0  0  0
   -5.2836   22.2273  -30.8488 H   0  0  0  0  0  0  0  0  0  0  0  0
   -4.3916   22.7932  -32.3120 H   0  0  0  0  0  0  0  0  0  0  0  0
   -4.0619   23.5669  -29.4428 H   0  0  0  0  0  0  0  0  0  0  0  0
   -2.8714   23.5700  -30.7996 H   0  0  0  0  0  0  0  0  0  0  0  0
   -5.2406   25.5733  -28.9923 H   0  0  0  0  0  0  0  0  0  0  0  0
   -5.4607   26.6965  -30.4090 H   0  0  0  0  0  0  0  0  0  0  0  0
   -6.8236   24.1509  -29.7937 H   0  0  0  0  0  0  0  0  0  0  0  0
   -7.2843   25.4720  -30.9216 H   0  0  0  0  0  0  0  0  0  0  0  0
  1  2  1  0
  2  3  1  0
  3  4  2  0
  4  5  1  0
  5  6  2  0
  6  7  1  0
  7  8  1  0
  8  9  1  0
  9 10  1  0
 10 11  1  0
 11 12  1  0
 12 13  1  0
 13 14  1  0
  6 15  1  0
 15  3  1  0
 14  9  1  0
  2 16  1  0
  2 17  1  0
  5 18  1  0
  7 19  1  0
  7 20  1  0
  8 21  1  0
  8 22  1  0
 10 23  1  0
 10 24  1  0
 11 25  1  0
 11 26  1  0
 13 27  1  0
 13 28  1  0
 14 29  1  0
 14 30  1  0
M  CHG  1   5   1
M  END
>  <UniqueID>  (39) 
37

>  <SMILES>  (39) 
BrCc1n[nH+]c(CCN2CCOCC2)s1

>  <Energy>  (39) 
71.59757764846572

>  <Genealogy>  (39) 
BrCc1n[nH+]c(CCN2CCOCC2)s1 (protonated)
BrCc1n[nH+]c(CCN2CCOCC2)s1 (3D coordinates assigned)
BrCc1n[nH+]c(CCN2CCOCC2)s1 (nonaromatic ring conformer: 71.59757764846572 kcal/mol)

>  <smiles>  (39) 
BrCc1nnc(CCN2CCOCC2)s1

>  <score_type>  (39) 
oracle

>  <origin>  (39) 
adg

>  <m_score__min__energy>  (39) 
-7.0099999999999998

>  <m_primary>  (39) 
energy

$$$$
39:0
     RDKit          3D

 35 37  0  0  0  0  0  0  0  0999 V2000
   -3.5250   21.5180  -29.7860 C   0  0  0  0  0  0  0  0  0  0  0  0
   -2.8340   21.3540  -31.1140 C   0  0  0  0  0  0  0  0  0  0  0  0
   -1.4660   21.6570  -31.2290 C   0  0  0  0  0  0  0  0  0  0  0  0
   -0.8040   21.4930  -32.4490 C   0  0  0  0  0  0  0  0  0  0  0  0
   -1.4990   21.0250  -33.5660 C   0  0  0  0  0  0  0  0  0  0  0  0
   -2.8600   20.7280  -33.4700 C   0  0  0  0  0  0  0  0  0  0  0  0
   -3.5390   20.9020  -32.2550 C   0  0  0  0  0  0  0  0  0  0  0  0
   -4.9780   20.5990  -32.1960 C   0  0  0  0  0  0  0  0  0  0  0  0
   -5.4500   19.3270  -32.1420 N   0  0  0  0  0  0  0  0  0  0  0  0
   -6.7830   19.5030  -32.1030 C   0  0  0  0  0  0  0  0  0  0  0  0
   -7.7650   18.5160  -32.0500 C   0  0  0  0  0  0  0  0  0  0  0  0
   -9.1100   18.9300  -32.0320 C   0  0  0  0  0  0  0  0  0  0  0  0
   -9.4350   20.3050  -32.0690 C   0  0  0  0  0  0  0  0  0  0  0  0
   -8.4190   21.2780  -32.1230 C   0  0  0  0  0  0  0  0  0  0  0  0
   -7.0960   20.8310  -32.1370 C   0  0  0  0  0  0  0  0  0  0  0  0
   -5.9560   21.5450  -32.1920 N   0  0  0  0  0  0  0  0  0  0  0  0
   -5.8030   22.9970  -32.3390 C   0  0  0  0  0  0  0  0  0  0  0  0
   -5.9760   23.7120  -30.9960 C   0  0  0  0  0  0  0  0  0  0  0  0
   -4.8420   24.6000  -30.7090 C   0  0  0  0  0  0  0  0  0  0  0  0
   -3.9480   25.2980  -30.4830 N   0  0  0  0  0  0  0  0  0  0  0  0
   -2.8034   21.3467  -28.9736 H   0  0  0  0  0  0  0  0  0  0  0  0
   -3.9307   22.5374  -29.7072 H   0  0  0  0  0  0  0  0  0  0  0  0
   -4.3455   20.7897  -29.7072 H   0  0  0  0  0  0  0  0  0  0  0  0
   -0.9127   22.0257  -30.3527 H   0  0  0  0  0  0  0  0  0  0  0  0
    0.2665   21.7331  -32.5294 H   0  0  0  0  0  0  0  0  0  0  0  0
   -0.9736   20.8901  -34.5229 H   0  0  0  0  0  0  0  0  0  0  0  0
   -3.4024   20.3557  -34.3516 H   0  0  0  0  0  0  0  0  0  0  0  0
   -7.4981   17.4492  -32.0231 H   0  0  0  0  0  0  0  0  0  0  0  0
   -9.9128   18.1792  -31.9889 H   0  0  0  0  0  0  0  0  0  0  0  0
  -10.4897   20.6172  -32.0555 H   0  0  0  0  0  0  0  0  0  0  0  0
   -8.6585   22.3512  -32.1531 H   0  0  0  0  0  0  0  0  0  0  0  0
   -4.7995   23.2137  -32.7339 H   0  0  0  0  0  0  0  0  0  0  0  0
   -6.5788   23.3604  -33.0290 H   0  0  0  0  0  0  0  0  0  0  0  0
   -6.8992   24.3093  -31.0254 H   0  0  0  0  0  0  0  0  0  0  0  0
   -6.0273   22.9506  -30.2037 H   0  0  0  0  0  0  0  0  0  0  0  0
  1  2  1  0
  2  3  2  0
  3  4  1  0
  4  5  2  0
  5  6  1  0
  6  7  2  0
  7  8  1  0
  8  9  2  0
  9 10  1  0
 10 11  2  0
 11 12  1  0
 12 13  2  0
 13 14  1  0
 14 15  2  0
 15 16  1  0
 16 17  1  0
 17 18  1  0
 18 19  1  0
 19 20  3  0
  7  2  1  0
 16  8  1  0
 15 10  1  0
  1 21  1  0
  1 22  1  0
  1 23  1  0
  3 24  1  0
  4 25  1  0
  5 26  1  0
  6 27  1  0
 11 28  1  0
 12 29  1  0
 13 30  1  0
 14 31  1  0
 17 32  1  0
 17 33  1  0
 18 34  1  0
 18 35  1  0
M  END
>  <UniqueID>  (40) 
38

>  <SMILES>  (40) 
Cc1ccccc1-c1nc2ccccc2n1CCC#N

>  <Energy>  (40) 
77.85053542842341

>  <Genealogy>  (40) 
Cc1ccccc1-c1nc2ccccc2n1CCC#N (3D coordinates assigned)
Cc1ccccc1-c1nc2ccccc2n1CCC#N (optimized conformer: 77.85053542842341 kcal/mol)

>  <smiles>  (40) 
Cc1ccccc1-c1nc2ccccc2n1CCC#N

>  <score_type>  (40) 
oracle

>  <origin>  (40) 
adg

>  <m_score__min__energy>  (40) 
-7.3799999999999999

>  <m_primary>  (40) 
energy

$$$$
40:0
     RDKit          3D

 37 37  0  0  0  0  0  0  0  0999 V2000
   -3.8140   24.5430  -27.0760 C   0  0  0  0  0  0  0  0  0  0  0  0
   -3.2840   23.5750  -28.1310 C   0  0  0  0  0  0  0  0  0  0  0  0
   -2.3550   24.2770  -29.0470 N   0  0  0  0  0  0  0  0  0  0  0  0
   -1.5740   25.3080  -28.3230 C   0  0  0  0  0  0  0  0  0  0  0  0
   -0.2590   24.7240  -27.8130 C   0  0  0  0  0  0  0  0  0  0  0  0
   -1.4600   23.3200  -29.7380 C   0  0  0  0  0  0  0  0  0  0  0  0
   -2.2360   22.5050  -30.7720 C   0  0  0  0  0  0  0  0  0  0  0  0
   -3.2610   23.3140  -31.3440 O   0  0  0  0  0  0  0  0  0  0  0  0
   -4.6160   22.9590  -31.4660 C   0  0  0  0  0  0  0  0  0  0  0  0
   -5.0620   21.7770  -32.1180 C   0  0  0  0  0  0  0  0  0  0  0  0
   -3.9140   20.5790  -33.0790 Br  0  0  0  0  0  0  0  0  0  0  0  0
   -6.4290   21.4770  -32.1510 C   0  0  0  0  0  0  0  0  0  0  0  0
   -7.3600   22.3310  -31.5640 C   0  0  0  0  0  0  0  0  0  0  0  0
   -9.2200   21.8980  -31.6150 Br  0  0  0  0  0  0  0  0  0  0  0  0
   -6.9350   23.5090  -30.9530 C   0  0  0  0  0  0  0  0  0  0  0  0
   -5.5730   23.8410  -30.9170 C   0  0  0  0  0  0  0  0  0  0  0  0
   -5.1430   25.1010  -30.2080 C   0  0  0  0  0  0  0  0  0  0  0  0
   -4.0500   25.6760  -30.8700 O   0  0  0  0  0  0  0  0  0  0  0  0
   -3.5971   24.1469  -26.0730 H   0  0  0  0  0  0  0  0  0  0  0  0
   -3.3256   25.5211  -27.1975 H   0  0  0  0  0  0  0  0  0  0  0  0
   -4.9012   24.6584  -27.1975 H   0  0  0  0  0  0  0  0  0  0  0  0
   -2.7510   22.7513  -27.6336 H   0  0  0  0  0  0  0  0  0  0  0  0
   -4.1297   23.1778  -28.7116 H   0  0  0  0  0  0  0  0  0  0  0  0
   -1.3584   26.1437  -29.0050 H   0  0  0  0  0  0  0  0  0  0  0  0
   -2.1628   25.6613  -27.4637 H   0  0  0  0  0  0  0  0  0  0  0  0
   -0.2598   24.7244  -26.7130 H   0  0  0  0  0  0  0  0  0  0  0  0
   -0.1494   23.6926  -28.1793 H   0  0  0  0  0  0  0  0  0  0  0  0
    0.5797   25.3343  -28.1793 H   0  0  0  0  0  0  0  0  0  0  0  0
   -0.6582   23.8769  -30.2449 H   0  0  0  0  0  0  0  0  0  0  0  0
   -1.0344   22.6322  -28.9925 H   0  0  0  0  0  0  0  0  0  0  0  0
   -1.5500   22.1687  -31.5634 H   0  0  0  0  0  0  0  0  0  0  0  0
   -2.6897   21.6302  -30.2833 H   0  0  0  0  0  0  0  0  0  0  0  0
   -6.7719   20.5565  -32.6461 H   0  0  0  0  0  0  0  0  0  0  0  0
   -7.6735   24.1837  -30.4954 H   0  0  0  0  0  0  0  0  0  0  0  0
   -5.9790   25.8158  -30.1970 H   0  0  0  0  0  0  0  0  0  0  0  0
   -4.8500   24.8525  -29.1773 H   0  0  0  0  0  0  0  0  0  0  0  0
   -3.4900   24.9240  -31.1970 H   0  0  0  0  0  0  0  0  0  0  0  0
  1  2  1  0
  2  3  1  0
  3  4  1  0
  4  5  1  0
  3  6  1  0
  6  7  1  0
  7  8  1  0
  8  9  1  0
  9 10  2  0
 10 11  1  0
 10 12  1  0
 12 13  2  0
 13 14  1  0
 13 15  1  0
 15 16  2  0
 16 17  1  0
 17 18  1  0
 16  9  1  0
  1 19  1  0
  1 20  1  0
  1 21  1  0
  2 22  1  0
  2 23  1  0
  4 24  1  0
  4 25  1  0
  5 26  1  0
  5 27  1  0
  5 28  1  0
  6 29  1  0
  6 30  1  0
  7 31  1  0
  7 32  1  0
 12 33  1  0
 15 34  1  0
 17 35  1  0
 17 36  1  0
 18 37  1  0
M  END
>  <UniqueID>  (41) 
39

>  <SMILES>  (41) 
CCN(CC)CCOc1c(Br)cc(Br)cc1CO

>  <Energy>  (41) 
36.36022332090499

>  <Genealogy>  (41) 
CCN(CC)CCOc1c(Br)cc(Br)cc1CO (3D coordinates assigned)
CCN(CC)CCOc1c(Br)cc(Br)cc1CO (optimized conformer: 36.36022332090499 kcal/mol)

>  <smiles>  (41) 
CCN(CC)CCOc1c(Br)cc(Br)cc1CO

>  <score_type>  (41) 
oracle

>  <origin>  (41) 
adg

>  <m_score__min__energy>  (41) 
-7.5

>  <m_primary>  (41) 
energy

$$$$
41:0
     RDKit          3D

 49 51  0  0  0  0  0  0  0  0999 V2000
   -6.4690   17.7990  -31.2510 C   0  0  0  0  0  0  0  0  0  0  0  0
   -6.8120   17.7720  -32.5420 C   0  0  0  0  0  0  0  0  0  0  0  0
   -6.5510   18.9370  -33.4560 C   0  0  0  0  0  0  0  0  0  0  0  0
   -6.9500   20.1880  -32.8010 N   0  0  0  0  0  0  0  0  0  0  0  0
   -8.2040   20.5190  -32.4180 C   0  0  0  0  0  0  0  0  0  0  0  0
   -9.4230   19.6790  -32.6460 C   0  0  0  0  0  0  0  0  0  0  0  0
   -8.2060   21.7480  -31.7920 C   0  0  0  0  0  0  0  0  0  0  0  0
   -6.8950   22.1930  -31.7820 C   0  0  0  0  0  0  0  0  0  0  0  0
   -6.4760   23.4890  -31.2000 C   0  0  0  0  0  0  0  0  0  0  0  0
   -6.3210   24.4750  -31.9710 O   0  0  0  0  0  0  0  0  0  0  0  0
   -6.1520   23.6690  -29.7420 C   0  0  0  0  0  0  0  0  0  0  0  0
   -4.7110   23.7880  -29.5170 N   0  0  0  0  0  0  0  0  0  0  0  0
   -3.8920   24.8460  -29.9870 C   0  0  0  0  0  0  0  0  0  0  0  0
   -4.2410   25.6420  -30.8990 O   0  0  0  0  0  0  0  0  0  0  0  0
   -2.6410   24.9430  -29.3200 N   0  0  0  0  0  0  0  0  0  0  0  0
   -2.6080   23.9020  -28.2890 C   0  0  0  0  0  0  0  0  0  0  0  0
   -2.4430   24.5440  -26.8840 C   0  0  0  0  0  0  0  0  0  0  0  0
   -0.9790   24.5980  -26.4010 C   0  0  0  0  0  0  0  0  0  0  0  0
    0.0020   24.7470  -27.5680 C   0  0  0  0  0  0  0  0  0  0  0  0
   -0.0860   23.5570  -28.5450 C   0  0  0  0  0  0  0  0  0  0  0  0
   -1.4790   22.8980  -28.5960 C   0  0  0  0  0  0  0  0  0  0  0  0
   -3.9570   23.2450  -28.4380 C   0  0  0  0  0  0  0  0  0  0  0  0
   -4.3780   22.3180  -27.6950 O   0  0  0  0  0  0  0  0  0  0  0  0
   -6.1350   21.1930  -32.3930 C   0  0  0  0  0  0  0  0  0  0  0  0
   -4.6360   21.1680  -32.5050 C   0  0  0  0  0  0  0  0  0  0  0  0
   -6.6741   16.9296  -30.6091 H   0  0  0  0  0  0  0  0  0  0  0  0
   -5.9815   18.6907  -30.8300 H   0  0  0  0  0  0  0  0  0  0  0  0
   -7.2987   16.8727  -32.9474 H   0  0  0  0  0  0  0  0  0  0  0  0
   -5.4785   18.9779  -33.6968 H   0  0  0  0  0  0  0  0  0  0  0  0
   -7.1360   18.8101  -34.3788 H   0  0  0  0  0  0  0  0  0  0  0  0
   -9.8514   19.3838  -31.6768 H   0  0  0  0  0  0  0  0  0  0  0  0
  -10.1660   20.2577  -33.2143 H   0  0  0  0  0  0  0  0  0  0  0  0
   -9.1468   18.7786  -33.2143 H   0  0  0  0  0  0  0  0  0  0  0  0
   -9.0804   22.2732  -31.3802 H   0  0  0  0  0  0  0  0  0  0  0  0
   -6.6460   24.5817  -29.3774 H   0  0  0  0  0  0  0  0  0  0  0  0
   -6.5110   22.7819  -29.1996 H   0  0  0  0  0  0  0  0  0  0  0  0
   -2.8353   25.5710  -26.9221 H   0  0  0  0  0  0  0  0  0  0  0  0
   -2.9957   23.9128  -26.1726 H   0  0  0  0  0  0  0  0  0  0  0  0
   -0.8593   25.4566  -25.7239 H   0  0  0  0  0  0  0  0  0  0  0  0
   -0.7548   23.6524  -25.8856 H   0  0  0  0  0  0  0  0  0  0  0  0
   -0.2312   25.6735  -28.1132 H   0  0  0  0  0  0  0  0  0  0  0  0
    1.0216   24.7769  -27.1562 H   0  0  0  0  0  0  0  0  0  0  0  0
    0.1651   23.9167  -29.5538 H   0  0  0  0  0  0  0  0  0  0  0  0
    0.6180   22.7926  -28.1844 H   0  0  0  0  0  0  0  0  0  0  0  0
   -1.6380   22.4824  -29.6020 H   0  0  0  0  0  0  0  0  0  0  0  0
   -1.5089   22.1102  -27.8289 H   0  0  0  0  0  0  0  0  0  0  0  0
   -4.1932   21.1606  -31.4981 H   0  0  0  0  0  0  0  0  0  0  0  0
   -4.3240   20.2645  -33.0494 H   0  0  0  0  0  0  0  0  0  0  0  0
   -4.2940   22.0606  -33.0494 H   0  0  0  0  0  0  0  0  0  0  0  0
  1  2  2  0
  2  3  1  0
  3  4  1  0
  4  5  1  0
  5  6  1  0
  5  7  2  0
  7  8  1  0
  8  9  1  0
  9 10  2  0
  9 11  1  0
 11 12  1  0
 12 13  1  0
 13 14  2  0
 13 15  1  0
 15 16  1  0
 16 17  1  0
 17 18  1  0
 18 19  1  0
 19 20  1  0
 20 21  1  0
 16 22  1  0
 22 23  2  0
  8 24  2  0
 24 25  1  0
 24  4  1  0
 22 12  1  0
 21 16  1  0
  1 26  1  0
  1 27  1  0
  2 28  1  0
  3 29  1  0
  3 30  1  0
  6 31  1  0
  6 32  1  0
  6 33  1  0
  7 34  1  0
 11 35  1  0
 11 36  1  0
 17 37  1  0
 17 38  1  0
 18 39  1  0
 18 40  1  0
 19 41  1  0
 19 42  1  0
 20 43  1  0
 20 44  1  0
 21 45  1  0
 21 46  1  0
 25 47  1  0
 25 48  1  0
 25 49  1  0
M  CHG  1  15  -1
M  END
>  <UniqueID>  (42) 
40

>  <SMILES>  (42) 
C=CCn1c(C)cc(C(=O)CN2C(=O)[N-]C3(CCCCC3)C2=O)c1C

>  <Energy>  (42) 
96.09268389554154

>  <Genealogy>  (42) 
C=CCn1c(C)cc(C(=O)CN2C(=O)[N-]C3(CCCCC3)C2=O)c1C (protonated)
C=CCn1c(C)cc(C(=O)CN2C(=O)[N-]C3(CCCCC3)C2=O)c1C (3D coordinates assigned)
C=CCn1c(C)cc(C(=O)CN2C(=O)[N-]C3(CCCCC3)C2=O)c1C (nonaromatic ring conformer: 96.09268389554154 kcal/mol)

>  <smiles>  (42) 
C=CCn1c(C)cc(C(=O)CN2C(=O)NC3(CCCCC3)C2=O)c1C

>  <score_type>  (42) 
oracle

>  <origin>  (42) 
adg

>  <m_score__min__energy>  (42) 
-10.58

>  <m_primary>  (42) 
energy

$$$$
42:0
     RDKit          3D

 34 35  0  0  0  0  0  0  0  0999 V2000
   -5.5730   18.0700  -34.9210 C   0  0  0  0  0  0  0  0  0  0  0  0
   -5.8460   18.8070  -33.6350 C   0  0  0  0  0  0  0  0  0  0  0  0
   -7.2380   18.9200  -33.3830 N   0  0  0  0  0  0  0  0  0  0  0  0
   -7.6570   18.8120  -32.0080 C   0  0  0  0  0  0  0  0  0  0  0  0
   -9.1100   19.2070  -31.8460 C   0  0  0  0  0  0  0  0  0  0  0  0
   -9.2350   20.6830  -31.8940 C   0  0  0  0  0  0  0  0  0  0  0  0
   -7.9850   21.4310  -31.7210 C   0  0  0  0  0  0  0  0  0  0  0  0
   -7.7880   22.2410  -30.6330 N   0  0  0  0  0  0  0  0  0  0  0  0
   -6.5760   22.7760  -30.6690 C   0  0  0  0  0  0  0  0  0  0  0  0
   -5.9620   23.6220  -29.8250 N   0  0  0  0  0  0  0  0  0  0  0  0
   -4.7070   24.0320  -30.0880 C   0  0  0  0  0  0  0  0  0  0  0  0
   -4.0810   24.8550  -29.2810 N   0  0  0  0  0  0  0  0  0  0  0  0
   -4.0590   23.5950  -31.2010 N   0  0  0  0  0  0  0  0  0  0  0  0
   -4.6810   22.7390  -32.0570 C   0  0  0  0  0  0  0  0  0  0  0  0
   -4.0880   22.3120  -33.1170 N   0  0  0  0  0  0  0  0  0  0  0  0
   -5.9540   22.3150  -31.8020 C   0  0  0  0  0  0  0  0  0  0  0  0
   -6.8500   21.4880  -32.4260 N   0  0  0  0  0  0  0  0  0  0  0  0
   -5.1992   17.0609  -34.6930 H   0  0  0  0  0  0  0  0  0  0  0  0
   -6.5025   17.9936  -35.5043 H   0  0  0  0  0  0  0  0  0  0  0  0
   -4.8181   18.6176  -35.5043 H   0  0  0  0  0  0  0  0  0  0  0  0
   -5.3759   18.2609  -32.8039 H   0  0  0  0  0  0  0  0  0  0  0  0
   -5.4291   19.8210  -33.7244 H   0  0  0  0  0  0  0  0  0  0  0  0
   -7.7450   19.6270  -33.9190 H   0  0  0  0  0  0  0  0  0  0  0  0
   -7.5286   17.7717  -31.6743 H   0  0  0  0  0  0  0  0  0  0  0  0
   -7.0412   19.4925  -31.4016 H   0  0  0  0  0  0  0  0  0  0  0  0
   -9.7024   18.7633  -32.6597 H   0  0  0  0  0  0  0  0  0  0  0  0
   -9.4809   18.8414  -30.8771 H   0  0  0  0  0  0  0  0  0  0  0  0
   -9.6596   20.9550  -32.8716 H   0  0  0  0  0  0  0  0  0  0  0  0
   -9.8714   20.9590  -31.0403 H   0  0  0  0  0  0  0  0  0  0  0  0
   -6.4800   23.9460  -28.9710 H   0  0  0  0  0  0  0  0  0  0  0  0
   -4.6180   25.4560  -28.6230 H   0  0  0  0  0  0  0  0  0  0  0  0
   -3.0680   23.9290  -31.3960 H   0  0  0  0  0  0  0  0  0  0  0  0
   -4.3380   22.6300  -34.0720 H   0  0  0  0  0  0  0  0  0  0  0  0
   -6.5760   21.0080  -33.3040 H   0  0  0  0  0  0  0  0  0  0  0  0
  1  2  1  0
  2  3  1  0
  3  4  1  0
  4  5  1  0
  5  6  1  0
  6  7  1  0
  7  8  2  0
  8  9  1  0
  9 10  1  0
 10 11  1  0
 11 12  2  3
 11 13  1  0
 13 14  1  0
 14 15  2  3
 14 16  1  0
 16 17  1  0
 17  7  1  0
 16  9  2  0
  1 18  1  0
  1 19  1  0
  1 20  1  0
  2 21  1  0
  2 22  1  0
  3 23  1  0
  4 24  1  0
  4 25  1  0
  5 26  1  0
  5 27  1  0
  6 28  1  0
  6 29  1  0
 10 30  1  0
 12 31  1  0
 13 32  1  0
 15 33  1  0
 17 34  1  0
M  END
>  <smiles>  (43) 
CCNCCCc1nc2[nH]c(=N)[nH]c(=N)c2[nH]1

>  <score_type>  (43) 
oracle

>  <origin>  (43) 
adg

>  <m_score__min__energy>  (43) 
-5.9500000000000002

>  <m_primary>  (43) 
energy

$$$$
43:0
     RDKit          3D

 44 46  0  0  0  0  0  0  0  0999 V2000
   -4.6390   21.3880  -33.0710 C   0  0  0  0  0  0  0  0  0  0  0  0
   -4.2590   22.3260  -32.0020 N   0  0  0  0  0  0  0  0  0  0  0  0
   -3.9320   21.5850  -30.7670 C   0  0  0  0  0  0  0  0  0  0  0  0
   -5.2690   23.4100  -31.8550 C   0  0  2  0  0  0  0  0  0  0  0  0
   -5.4050   23.8830  -30.4170 C   0  0  0  0  0  0  0  0  0  0  0  0
   -6.8660   24.2640  -30.2900 C   0  0  0  0  0  0  0  0  0  0  0  0
   -7.6360   23.4460  -31.2430 N   0  0  0  0  0  0  0  0  0  0  0  0
   -8.2370   22.2640  -30.5900 C   0  0  0  0  0  0  0  0  0  0  0  0
   -8.2690   21.1070  -31.5390 C   0  0  0  0  0  0  0  0  0  0  0  0
   -7.3390   20.1290  -31.5660 N   0  0  0  0  0  0  0  0  0  0  0  0
   -7.7960   19.3510  -32.5710 C   0  0  0  0  0  0  0  0  0  0  0  0
   -7.1170   18.0970  -33.0480 C   0  0  0  0  0  0  0  0  0  0  0  0
   -6.3240   17.4040  -31.9470 C   0  0  0  0  0  0  0  0  0  0  0  0
   -5.2430   16.6100  -32.6700 C   0  0  0  0  0  0  0  0  0  0  0  0
   -5.0950   17.2260  -34.0620 C   0  0  0  0  0  0  0  0  0  0  0  0
   -6.1010   18.3670  -34.1500 C   0  0  0  0  0  0  0  0  0  0  0  0
   -8.9280   19.8420  -33.1060 N   0  0  0  0  0  0  0  0  0  0  0  0
   -9.1960   20.9260  -32.4480 O   0  0  0  0  0  0  0  0  0  0  0  0
   -6.6970   23.0580  -32.3120 C   0  0  0  0  0  0  0  0  0  0  0  0
   -5.0164   20.4563  -32.6243 H   0  0  0  0  0  0  0  0  0  0  0  0
   -5.4247   21.8406  -33.6938 H   0  0  0  0  0  0  0  0  0  0  0  0
   -3.7598   21.1661  -33.6938 H   0  0  0  0  0  0  0  0  0  0  0  0
   -4.2009   22.1944  -29.8916 H   0  0  0  0  0  0  0  0  0  0  0  0
   -4.4974   20.6417  -30.7448 H   0  0  0  0  0  0  0  0  0  0  0  0
   -2.8541   21.3669  -30.7448 H   0  0  0  0  0  0  0  0  0  0  0  0
   -4.8615   24.1873  -32.5182 H   0  0  0  0  0  0  0  0  0  0  0  0
   -5.1494   23.0759  -29.7146 H   0  0  0  0  0  0  0  0  0  0  0  0
   -4.7289   24.7181  -30.1815 H   0  0  0  0  0  0  0  0  0  0  0  0
   -7.2144   24.0695  -29.2649 H   0  0  0  0  0  0  0  0  0  0  0  0
   -7.0017   25.3335  -30.5087 H   0  0  0  0  0  0  0  0  0  0  0  0
   -7.6385   21.9933  -29.7077 H   0  0  0  0  0  0  0  0  0  0  0  0
   -9.2661   22.5070  -30.2869 H   0  0  0  0  0  0  0  0  0  0  0  0
   -7.9471   17.4695  -33.4047 H   0  0  0  0  0  0  0  0  0  0  0  0
   -5.8714   18.1459  -31.2727 H   0  0  0  0  0  0  0  0  0  0  0  0
   -6.9620   16.7577  -31.3263 H   0  0  0  0  0  0  0  0  0  0  0  0
   -4.2917   16.6804  -32.1221 H   0  0  0  0  0  0  0  0  0  0  0  0
   -5.5145   15.5461  -32.7372 H   0  0  0  0  0  0  0  0  0  0  0  0
   -4.0736   17.6108  -34.1988 H   0  0  0  0  0  0  0  0  0  0  0  0
   -5.2797   16.4768  -34.8459 H   0  0  0  0  0  0  0  0  0  0  0  0
   -5.6021   19.3334  -33.9850 H   0  0  0  0  0  0  0  0  0  0  0  0
   -6.5762   18.4176  -35.1408 H   0  0  0  0  0  0  0  0  0  0  0  0
   -9.4930   19.4510  -33.8920 H   0  0  0  0  0  0  0  0  0  0  0  0
   -6.7717   21.9764  -32.4978 H   0  0  0  0  0  0  0  0  0  0  0  0
   -6.9396   23.5939  -33.2415 H   0  0  0  0  0  0  0  0  0  0  0  0
  1  2  1  0
  2  3  1  0
  2  4  1  0
  4  5  1  0
  5  6  1  0
  6  7  1  0
  7  8  1  0
  8  9  1  0
  9 10  2  0
 10 11  1  0
 11 12  1  0
 12 13  1  0
 13 14  1  0
 14 15  1  0
 15 16  1  0
 11 17  2  0
 17 18  1  0
  7 19  1  0
 19  4  1  0
 18  9  1  0
 16 12  1  0
  1 20  1  0
  1 21  1  0
  1 22  1  0
  3 23  1  0
  3 24  1  0
  3 25  1  0
  4 26  1  6
  5 27  1  0
  5 28  1  0
  6 29  1  0
  6 30  1  0
  8 31  1  0
  8 32  1  0
 12 33  1  0
 13 34  1  0
 13 35  1  0
 14 36  1  0
 14 37  1  0
 15 38  1  0
 15 39  1  0
 16 40  1  0
 16 41  1  0
 17 42  1  0
 19 43  1  0
 19 44  1  0
M  CHG  1  17   1
M  END
>  <UniqueID>  (44) 
41

>  <SMILES>  (44) 
CN(C)[C@@H]1CCN(Cc2nc(C3CCCC3)[nH+]o2)C1

>  <Energy>  (44) 
86.96263383714395

>  <Genealogy>  (44) 
CN(C)C1CCN(Cc2nc(C3CCCC3)[nH+]o2)C1 (protonated)
CN(C)[C@@H]1CCN(Cc2nc(C3CCCC3)[nH+]o2)C1 (chirality)
CN(C)[C@@H]1CCN(Cc2nc(C3CCCC3)[nH+]o2)C1 (3D coordinates assigned)
CN(C)[C@@H]1CCN(Cc2nc(C3CCCC3)[nH+]o2)C1 (nonaromatic ring conformer: 86.96263383714395 kcal/mol)

>  <smiles>  (44) 
CN(C)C1CCN(Cc2nc(C3CCCC3)no2)C1

>  <score_type>  (44) 
oracle

>  <origin>  (44) 
adg

>  <m_score__min__energy>  (44) 
-7.5

>  <m_primary>  (44) 
energy

$$$$
44:0
     RDKit          3D

 54 57  0  0  0  0  0  0  0  0999 V2000
   -1.1230   18.3220  -34.5080 C   0  0  0  0  0  0  0  0  0  0  0  0
   -1.1380   19.0000  -33.1440 C   0  0  0  0  0  0  0  0  0  0  0  0
   -1.7840   20.3300  -33.2620 N   0  0  0  0  0  0  0  0  0  0  0  0
   -0.9470   21.3150  -33.9850 C   0  0  0  0  0  0  0  0  0  0  0  0
    0.5630   21.0930  -33.8060 C   0  0  0  0  0  0  0  0  0  0  0  0
   -2.2960   20.8500  -31.9760 C   0  0  0  0  0  0  0  0  0  0  0  0
   -3.3020   21.9890  -32.2120 C   0  0  0  0  0  0  0  0  0  0  0  0
   -4.1310   21.7670  -33.4100 N   0  0  0  0  0  0  0  0  0  0  0  0
   -5.3000   20.9580  -33.1090 C   0  0  0  0  0  0  0  0  0  0  0  0
   -6.5180   21.4950  -32.5850 C   0  0  0  0  0  0  0  0  0  0  0  0
   -6.6810   22.8780  -32.3360 C   0  0  0  0  0  0  0  0  0  0  0  0
   -7.8930   23.3880  -31.8780 C   0  0  0  0  0  0  0  0  0  0  0  0
   -8.9760   22.5450  -31.6720 C   0  0  0  0  0  0  0  0  0  0  0  0
   -8.8480   21.1750  -31.8840 C   0  0  0  0  0  0  0  0  0  0  0  0
   -7.6190   20.6080  -32.3010 C   0  0  0  0  0  0  0  0  0  0  0  0
   -7.4760   19.2370  -32.4490 N   0  0  0  0  0  0  0  0  0  0  0  0
   -8.4590   18.2930  -31.8880 C   0  0  0  0  0  0  0  0  0  0  0  0
   -6.3460   18.7680  -33.0610 C   0  0  0  0  0  0  0  0  0  0  0  0
   -5.2690   19.5790  -33.3460 C   0  0  0  0  0  0  0  0  0  0  0  0
   -4.2480   18.8670  -33.8810 N   0  0  0  0  0  0  0  0  0  0  0  0
   -4.7000   17.6020  -33.9640 C   0  0  0  0  0  0  0  0  0  0  0  0
   -4.0150   16.5150  -34.5050 C   0  0  0  0  0  0  0  0  0  0  0  0
   -4.6820   15.2820  -34.5760 C   0  0  0  0  0  0  0  0  0  0  0  0
   -6.0150   15.1660  -34.1310 C   0  0  0  0  0  0  0  0  0  0  0  0
   -6.6900   16.2770  -33.5950 C   0  0  0  0  0  0  0  0  0  0  0  0
   -5.9920   17.4880  -33.4890 C   0  0  0  0  0  0  0  0  0  0  0  0
   -1.0988   17.2304  -34.3746 H   0  0  0  0  0  0  0  0  0  0  0  0
   -2.0276   18.6031  -35.0672 H   0  0  0  0  0  0  0  0  0  0  0  0
   -0.2317   18.6429  -35.0672 H   0  0  0  0  0  0  0  0  0  0  0  0
   -1.7023   18.3798  -32.4321 H   0  0  0  0  0  0  0  0  0  0  0  0
   -0.1060   19.1234  -32.7837 H   0  0  0  0  0  0  0  0  0  0  0  0
   -1.1827   21.2501  -35.0575 H   0  0  0  0  0  0  0  0  0  0  0  0
   -1.1784   22.3042  -33.5632 H   0  0  0  0  0  0  0  0  0  0  0  0
    0.8038   21.0576  -32.7333 H   0  0  0  0  0  0  0  0  0  0  0  0
    0.8524   20.1427  -34.2783 H   0  0  0  0  0  0  0  0  0  0  0  0
    1.1137   21.9198  -34.2783 H   0  0  0  0  0  0  0  0  0  0  0  0
   -2.7943   20.0355  -31.4299 H   0  0  0  0  0  0  0  0  0  0  0  0
   -1.4505   21.2406  -31.3907 H   0  0  0  0  0  0  0  0  0  0  0  0
   -3.9617   22.0650  -31.3350 H   0  0  0  0  0  0  0  0  0  0  0  0
   -2.7295   22.9154  -32.3672 H   0  0  0  0  0  0  0  0  0  0  0  0
   -3.5500   21.2700  -34.1210 H   0  0  0  0  0  0  0  0  0  0  0  0
   -4.3640   22.6730  -33.8680 H   0  0  0  0  0  0  0  0  0  0  0  0
   -5.8364   23.5617  -32.5070 H   0  0  0  0  0  0  0  0  0  0  0  0
   -7.9926   24.4651  -31.6783 H   0  0  0  0  0  0  0  0  0  0  0  0
   -9.9388   22.9607  -31.3401 H   0  0  0  0  0  0  0  0  0  0  0  0
   -9.7177   20.5206  -31.7246 H   0  0  0  0  0  0  0  0  0  0  0  0
   -8.4188   18.3316  -30.7894 H   0  0  0  0  0  0  0  0  0  0  0  0
   -9.4680   18.5692  -32.2279 H   0  0  0  0  0  0  0  0  0  0  0  0
   -8.2238   17.2736  -32.2279 H   0  0  0  0  0  0  0  0  0  0  0  0
   -3.3120   19.2110  -34.1900 H   0  0  0  0  0  0  0  0  0  0  0  0
   -2.9813   16.6206  -34.8659 H   0  0  0  0  0  0  0  0  0  0  0  0
   -4.1620   14.4014  -34.9810 H   0  0  0  0  0  0  0  0  0  0  0  0
   -6.5315   14.1976  -34.2038 H   0  0  0  0  0  0  0  0  0  0  0  0
   -7.7372   16.1980  -33.2678 H   0  0  0  0  0  0  0  0  0  0  0  0
  1  2  1  0
  2  3  1  0
  3  4  1  0
  4  5  1  0
  3  6  1  0
  6  7  1  0
  7  8  1  0
  8  9  1  0
  9 10  2  0
 10 11  1  0
 11 12  2  0
 12 13  1  0
 13 14  2  0
 14 15  1  0
 15 16  2  0
 16 17  1  0
 16 18  1  0
 18 19  2  0
 19 20  1  0
 20 21  1  0
 21 22  2  0
 22 23  1  0
 23 24  2  0
 24 25  1  0
 25 26  2  0
 19  9  1  0
 26 21  1  0
 15 10  1  0
 26 18  1  0
  1 27  1  0
  1 28  1  0
  1 29  1  0
  2 30  1  0
  2 31  1  0
  4 32  1  0
  4 33  1  0
  5 34  1  0
  5 35  1  0
  5 36  1  0
  6 37  1  0
  6 38  1  0
  7 39  1  0
  7 40  1  0
  8 41  1  0
  8 42  1  0
 11 43  1  0
 12 44  1  0
 13 45  1  0
 14 46  1  0
 17 47  1  0
 17 48  1  0
 17 49  1  0
 20 50  1  0
 22 51  1  0
 23 52  1  0
 24 53  1  0
 25 54  1  0
M  CHG  2   8   1  16   1
M  END
>  <UniqueID>  (45) 
42

>  <SMILES>  (45) 
CCN(CC)CC[NH2+]c1c2ccccc2[n+](C)c2c1[nH]c1ccccc12

>  <Energy>  (45) 
118.13928119350113

>  <Genealogy>  (45) 
CCN(CC)CC[NH2+]c1c2ccccc2[n+](C)c2c1[nH]c1ccccc12 (protonated)
CCN(CC)CC[NH2+]c1c2ccccc2[n+](C)c2c1[nH]c1ccccc12 (3D coordinates assigned)
CCN(CC)CC[NH2+]c1c2ccccc2[n+](C)c2c1[nH]c1ccccc12 (optimized conformer: 118.13928119350113 kcal/mol)

>  <smiles>  (45) 
CCN(CC)CCNc1c2ccccc2[n+](C)c2c1[nH]c1ccccc12

>  <score_type>  (45) 
oracle

>  <origin>  (45) 
adg

>  <m_score__min__energy>  (45) 
-8.5

>  <m_primary>  (45) 
energy

$$$$
