0:0
     RDKit          3D

 59 62  0  0  0  0  0  0  0  0999 V2000
   -0.8840   24.2160  -28.9420 C   0  0  0  0  0  0  0  0  0  0  0  0
   -1.3650   23.0360  -29.8000 C   0  0  0  0  0  0  0  0  0  0  0  0
   -2.7980   22.7090  -29.6220 N   0  0  0  0  0  0  0  0  0  0  0  0
   -3.0510   21.2520  -29.5250 C   0  0  0  0  0  0  0  0  0  0  0  0
   -1.7320   20.4990  -29.6560 C   0  0  0  0  0  0  0  0  0  0  0  0
   -3.4460   23.4930  -28.5500 C   0  0  0  0  0  0  0  0  0  0  0  0
   -4.5080   24.4280  -29.1380 C   0  0  0  0  0  0  0  0  0  0  0  0
   -4.2620   24.6330  -30.5150 O   0  0  0  0  0  0  0  0  0  0  0  0
   -5.4640   24.9200  -31.2000 C   0  0  0  0  0  0  0  0  0  0  0  0
   -5.7890   23.7700  -32.1510 C   0  0  0  0  0  0  0  0  0  0  0  0
   -5.1020   22.5450  -31.7440 N   0  0  0  0  0  0  0  0  0  0  0  0
   -5.4920   21.2850  -32.2970 C   0  0  0  0  0  0  0  0  0  0  0  0
   -6.8310   20.8520  -32.2420 C   0  0  0  0  0  0  0  0  0  0  0  0
   -7.8370   21.6670  -31.6870 C   0  0  0  0  0  0  0  0  0  0  0  0
   -9.1570   21.2230  -31.6360 C   0  0  0  0  0  0  0  0  0  0  0  0
   -9.4950   19.9680  -32.1380 C   0  0  0  0  0  0  0  0  0  0  0  0
   -8.5150   19.1440  -32.6960 C   0  0  0  0  0  0  0  0  0  0  0  0
   -7.1650   19.5640  -32.7630 C   0  0  0  0  0  0  0  0  0  0  0  0
   -6.1800   18.7620  -33.3140 N   0  0  0  0  0  0  0  0  0  0  0  0
   -6.4900   17.4240  -33.8510 C   0  0  0  0  0  0  0  0  0  0  0  0
   -4.8970   19.2380  -33.3550 C   0  0  0  0  0  0  0  0  0  0  0  0
   -3.8390   18.5620  -33.8780 N   0  0  0  0  0  0  0  0  0  0  0  0
   -2.8210   19.4270  -33.7040 C   0  0  0  0  0  0  0  0  0  0  0  0
   -1.4920   19.2450  -34.0790 C   0  0  0  0  0  0  0  0  0  0  0  0
   -0.5890   20.2930  -33.8260 C   0  0  0  0  0  0  0  0  0  0  0  0
   -1.0320   21.4860  -33.2140 C   0  0  0  0  0  0  0  0  0  0  0  0
   -2.3810   21.6430  -32.8440 C   0  0  0  0  0  0  0  0  0  0  0  0
   -3.2540   20.5790  -33.0980 C   0  0  0  0  0  0  0  0  0  0  0  0
   -4.5770   20.4580  -32.8700 N   0  0  0  0  0  0  0  0  0  0  0  0
   -0.9878   23.9613  -27.8770 H   0  0  0  0  0  0  0  0  0  0  0  0
    0.1718   24.4268  -29.1673 H   0  0  0  0  0  0  0  0  0  0  0  0
   -1.4916   25.1049  -29.1673 H   0  0  0  0  0  0  0  0  0  0  0  0
   -1.1956   23.2854  -30.8579 H   0  0  0  0  0  0  0  0  0  0  0  0
   -0.7938   22.1531  -29.4772 H   0  0  0  0  0  0  0  0  0  0  0  0
   -3.5091   21.0231  -28.5515 H   0  0  0  0  0  0  0  0  0  0  0  0
   -3.7321   20.9429  -30.3316 H   0  0  0  0  0  0  0  0  0  0  0  0
   -1.3374   20.2737  -28.6543 H   0  0  0  0  0  0  0  0  0  0  0  0
   -1.8987   19.5600  -30.2041 H   0  0  0  0  0  0  0  0  0  0  0  0
   -1.0082   21.1200  -30.2041 H   0  0  0  0  0  0  0  0  0  0  0  0
   -3.9237   22.8054  -27.8365 H   0  0  0  0  0  0  0  0  0  0  0  0
   -2.6822   24.0978  -28.0393 H   0  0  0  0  0  0  0  0  0  0  0  0
   -5.5027   23.9765  -29.0088 H   0  0  0  0  0  0  0  0  0  0  0  0
   -4.4669   25.3952  -28.6157 H   0  0  0  0  0  0  0  0  0  0  0  0
   -6.2816   25.0387  -30.4738 H   0  0  0  0  0  0  0  0  0  0  0  0
   -5.3483   25.8515  -31.7736 H   0  0  0  0  0  0  0  0  0  0  0  0
   -6.8747   23.5931  -32.1441 H   0  0  0  0  0  0  0  0  0  0  0  0
   -5.4501   24.0434  -33.1612 H   0  0  0  0  0  0  0  0  0  0  0  0
   -4.2890   22.5720  -31.0870 H   0  0  0  0  0  0  0  0  0  0  0  0
   -7.5790   22.6604  -31.2913 H   0  0  0  0  0  0  0  0  0  0  0  0
   -9.9348   21.8657  -31.1979 H   0  0  0  0  0  0  0  0  0  0  0  0
  -10.5391   19.6244  -32.0946 H   0  0  0  0  0  0  0  0  0  0  0  0
   -8.7960   18.1556  -33.0886 H   0  0  0  0  0  0  0  0  0  0  0  0
   -6.6523   16.7234  -33.0186 H   0  0  0  0  0  0  0  0  0  0  0  0
   -7.3994   17.4780  -34.4675 H   0  0  0  0  0  0  0  0  0  0  0  0
   -5.6495   17.0726  -34.4675 H   0  0  0  0  0  0  0  0  0  0  0  0
   -1.1596   18.3120  -34.5574 H   0  0  0  0  0  0  0  0  0  0  0  0
    0.4689   20.1827  -34.1066 H   0  0  0  0  0  0  0  0  0  0  0  0
   -0.3166   22.2998  -33.0247 H   0  0  0  0  0  0  0  0  0  0  0  0
   -2.7369   22.5703  -32.3713 H   0  0  0  0  0  0  0  0  0  0  0  0
  1  2  1  0
  2  3  1  0
  3  4  1  0
  4  5  1  0
  3  6  1  0
  6  7  1  0
  7  8  1  0
  8  9  1  0
  9 10  1  0
 10 11  1  0
 11 12  1  0
 12 13  2  0
 13 14  1  0
 14 15  2  0
 15 16  1  0
 16 17  2  0
 17 18  1  0
 18 19  2  0
 19 20  1  0
 19 21  1  0
 21 22  2  0
 22 23  1  0
 23 24  2  0
 24 25  1  0
 25 26  2  0
 26 27  1  0
 27 28  2  0
 28 29  1  0
 29 12  1  0
 18 13  1  0
 29 21  1  0
 28 23  1  0
  1 30  1  0
  1 31  1  0
  1 32  1  0
  2 33  1  0
  2 34  1  0
  4 35  1  0
  4 36  1  0
  5 37  1  0
  5 38  1  0
  5 39  1  0
  6 40  1  0
  6 41  1  0
  7 42  1  0
  7 43  1  0
  9 44  1  0
  9 45  1  0
 10 46  1  0
 10 47  1  0
 11 48  1  0
 14 49  1  0
 15 50  1  0
 16 51  1  0
 17 52  1  0
 20 53  1  0
 20 54  1  0
 20 55  1  0
 24 56  1  0
 25 57  1  0
 26 58  1  0
 27 59  1  0
M  CHG  1  19   1
M  END
>  <UniqueID>  (1) 
1

>  <SMILES>  (1) 
CCN(CC)CCOCCNc1c2ccccc2[n+](C)c2nc3ccccc3n12

>  <Energy>  (1) 
120.27377349906163

>  <Genealogy>  (1) 
CCN(CC)CCOCCNc1c2ccccc2[n+](C)c2nc3ccccc3n12 (3D coordinates assigned)
CCN(CC)CCOCCNc1c2ccccc2[n+](C)c2nc3ccccc3n12 (optimized conformer: 120.27377349906163 kcal/mol)

>  <smiles>  (1) 
CCN(CC)CCOCCNc1c2ccccc2[n+](C)c2nc3ccccc3n12

>  <score_type>  (1) 
oracle

>  <origin>  (1) 
adg

>  <m_score__min__energy>  (1) 
-8.7899999999999991

>  <m_primary>  (1) 
energy

$$$$
1:0
     RDKit          3D

 52 54  0  0  0  0  0  0  0  0999 V2000
   -1.9400   21.1690  -33.4020 C   0  0  0  0  0  0  0  0  0  0  0  0
   -1.3020   19.8740  -32.9110 C   0  0  0  0  0  0  0  0  0  0  0  0
   -1.2640   18.9170  -33.9550 O   0  0  0  0  0  0  0  0  0  0  0  0
   -1.9980   17.7570  -33.6150 C   0  0  0  0  0  0  0  0  0  0  0  0
   -3.4370   17.9260  -33.9830 C   0  0  0  0  0  0  0  0  0  0  0  0
   -4.2450   18.8560  -33.4320 N   0  0  0  0  0  0  0  0  0  0  0  0
   -5.4930   18.8280  -33.9740 C   0  0  0  0  0  0  0  0  0  0  0  0
   -6.5780   19.7620  -33.5070 C   0  0  0  0  0  0  0  0  0  0  0  0
   -6.1960   20.4860  -32.2680 N   0  0  2  0  0  0  0  0  0  0  0  0
   -7.4110   20.9000  -31.5150 C   0  0  0  0  0  0  0  0  0  0  0  0
   -8.1190   22.1700  -32.0630 C   0  0  0  0  0  0  0  0  0  0  0  0
   -7.6470   23.5130  -31.4750 C   0  0  0  0  0  0  0  0  0  0  0  0
   -6.2190   23.8500  -31.7240 N   0  0  0  0  0  0  0  0  0  0  0  0
   -5.7950   25.0810  -31.0250 C   0  0  0  0  0  0  0  0  0  0  0  0
   -4.7000   24.7780  -30.0500 C   0  0  0  0  0  0  0  0  0  0  0  0
   -4.8710   24.2600  -28.7810 C   0  0  0  0  0  0  0  0  0  0  0  0
   -3.6020   24.1220  -28.2600 C   0  0  0  0  0  0  0  0  0  0  0  0
   -2.7420   24.5590  -29.2490 C   0  0  0  0  0  0  0  0  0  0  0  0
   -1.2550   24.6030  -29.1490 C   0  0  0  0  0  0  0  0  0  0  0  0
   -3.4230   24.9440  -30.3040 O   0  0  0  0  0  0  0  0  0  0  0  0
   -5.2400   22.7500  -31.5690 C   0  0  0  0  0  0  0  0  0  0  0  0
   -5.3420   21.6420  -32.6390 C   0  0  0  0  0  0  0  0  0  0  0  0
   -5.6820   17.8760  -34.9730 C   0  0  0  0  0  0  0  0  0  0  0  0
   -4.2330   17.0490  -35.1760 S   0  0  0  0  0  0  0  0  0  0  0  0
   -2.2410   21.7800  -32.5382 H   0  0  0  0  0  0  0  0  0  0  0  0
   -1.2139   21.7275  -34.0110 H   0  0  0  0  0  0  0  0  0  0  0  0
   -2.8253   20.9337  -34.0110 H   0  0  0  0  0  0  0  0  0  0  0  0
   -0.2765   20.0810  -32.5712 H   0  0  0  0  0  0  0  0  0  0  0  0
   -1.9010   19.4730  -32.0801 H   0  0  0  0  0  0  0  0  0  0  0  0
   -1.5840   16.8940  -34.1570 H   0  0  0  0  0  0  0  0  0  0  0  0
   -1.9236   17.5922  -32.5300 H   0  0  0  0  0  0  0  0  0  0  0  0
   -6.7787   20.4974  -34.3001 H   0  0  0  0  0  0  0  0  0  0  0  0
   -7.4716   19.1599  -33.2859 H   0  0  0  0  0  0  0  0  0  0  0  0
   -5.6230   19.8200  -31.7020 H   0  0  0  0  0  0  0  0  0  0  0  0
   -8.1305   20.0685  -31.5435 H   0  0  0  0  0  0  0  0  0  0  0  0
   -7.0738   21.1493  -30.4981 H   0  0  0  0  0  0  0  0  0  0  0  0
   -7.9566   22.2031  -33.1504 H   0  0  0  0  0  0  0  0  0  0  0  0
   -9.1742   22.0717  -31.7682 H   0  0  0  0  0  0  0  0  0  0  0  0
   -8.2655   24.3111  -31.9114 H   0  0  0  0  0  0  0  0  0  0  0  0
   -7.7517   23.4207  -30.3839 H   0  0  0  0  0  0  0  0  0  0  0  0
   -5.4307   25.8099  -31.7639 H   0  0  0  0  0  0  0  0  0  0  0  0
   -6.6551   25.4943  -30.4778 H   0  0  0  0  0  0  0  0  0  0  0  0
   -5.8221   24.0096  -28.2884 H   0  0  0  0  0  0  0  0  0  0  0  0
   -3.3306   23.7427  -27.2638 H   0  0  0  0  0  0  0  0  0  0  0  0
   -0.9588   24.6118  -28.0897 H   0  0  0  0  0  0  0  0  0  0  0  0
   -0.8280   23.7171  -29.6418 H   0  0  0  0  0  0  0  0  0  0  0  0
   -0.8811   25.5126  -29.6418 H   0  0  0  0  0  0  0  0  0  0  0  0
   -4.2292   23.1812  -31.6172 H   0  0  0  0  0  0  0  0  0  0  0  0
   -5.4599   22.2714  -30.6033 H   0  0  0  0  0  0  0  0  0  0  0  0
   -5.7539   22.0899  -33.5554 H   0  0  0  0  0  0  0  0  0  0  0  0
   -4.3246   21.2435  -32.7657 H   0  0  0  0  0  0  0  0  0  0  0  0
   -6.6136   17.6973  -35.5299 H   0  0  0  0  0  0  0  0  0  0  0  0
  1  2  1  0
  2  3  1  0
  3  4  1  0
  4  5  1  0
  5  6  2  0
  6  7  1  0
  7  8  1  0
  8  9  1  0
  9 10  1  0
 10 11  1  0
 11 12  1  0
 12 13  1  0
 13 14  1  0
 14 15  1  0
 15 16  2  0
 16 17  1  0
 17 18  2  0
 18 19  1  0
 18 20  1  0
 13 21  1  0
 21 22  1  0
  7 23  2  0
 23 24  1  0
 24  5  1  0
 22  9  1  0
 20 15  1  0
  1 25  1  0
  1 26  1  0
  1 27  1  0
  2 28  1  0
  2 29  1  0
  4 30  1  0
  4 31  1  0
  8 32  1  0
  8 33  1  0
  9 34  1  1
 10 35  1  0
 10 36  1  0
 11 37  1  0
 11 38  1  0
 12 39  1  0
 12 40  1  0
 14 41  1  0
 14 42  1  0
 16 43  1  0
 17 44  1  0
 19 45  1  0
 19 46  1  0
 19 47  1  0
 21 48  1  0
 21 49  1  0
 22 50  1  0
 22 51  1  0
 23 52  1  0
M  CHG  1   9   1
M  END
>  <UniqueID>  (2) 
2

>  <SMILES>  (2) 
CCOCc1nc(C[N@@H+]2CCCN(Cc3ccc(C)o3)CC2)cs1

>  <Energy>  (2) 
125.9207725755199

>  <Genealogy>  (2) 
CCOCc1nc(C[NH+]2CCCN(Cc3ccc(C)o3)CC2)cs1 (protonated)
CCOCc1nc(C[N@@H+]2CCCN(Cc3ccc(C)o3)CC2)cs1 (chirality)
CCOCc1nc(C[N@@H+]2CCCN(Cc3ccc(C)o3)CC2)cs1 (3D coordinates assigned)
CCOCc1nc(C[N@@H+]2CCCN(Cc3ccc(C)o3)CC2)cs1 (nonaromatic ring conformer: 125.9207725755199 kcal/mol)

>  <smiles>  (2) 
CCOCc1nc(CN2CCCN(Cc3ccc(C)o3)CC2)cs1

>  <score_type>  (2) 
oracle

>  <origin>  (2) 
adg

>  <m_score__min__energy>  (2) 
-5.2699999999999996

>  <m_primary>  (2) 
energy

$$$$
2:0
     RDKit          3D

 49 51  0  0  0  0  0  0  0  0999 V2000
   -2.3770   20.8100  -30.1640 C   0  0  0  0  0  0  0  0  0  0  0  0
   -1.6820   21.8750  -30.9950 C   0  0  0  0  0  0  0  0  0  0  0  0
   -2.1870   23.1590  -30.6400 O   0  0  0  0  0  0  0  0  0  0  0  0
   -2.2480   23.6620  -29.3310 C   0  0  0  0  0  0  0  0  0  0  0  0
   -1.0920   23.7910  -28.5340 C   0  0  0  0  0  0  0  0  0  0  0  0
   -1.1800   24.2970  -27.2350 C   0  0  0  0  0  0  0  0  0  0  0  0
   -2.4160   24.6730  -26.7120 C   0  0  0  0  0  0  0  0  0  0  0  0
   -3.5710   24.5480  -27.4870 C   0  0  0  0  0  0  0  0  0  0  0  0
   -3.4990   24.0500  -28.7990 C   0  0  0  0  0  0  0  0  0  0  0  0
   -4.7690   23.9260  -29.6160 C   0  0  0  0  0  0  0  0  0  0  0  0
   -4.6740   24.5760  -30.9360 N   0  0  0  0  0  0  0  0  0  0  0  0
   -5.7280   24.1640  -31.8810 C   0  0  0  0  0  0  0  0  0  0  0  0
   -5.6850   22.6780  -32.2340 C   0  0  0  0  0  0  0  0  0  0  0  0
   -4.4780   22.1440  -32.7120 C   0  0  0  0  0  0  0  0  0  0  0  0
   -4.3940   20.8150  -33.0950 C   0  0  0  0  0  0  0  0  0  0  0  0
   -3.3020   20.3740  -33.5470 O   0  0  0  0  0  0  0  0  0  0  0  0
   -5.5160   19.9890  -32.9830 C   0  0  0  0  0  0  0  0  0  0  0  0
   -5.4610   18.6470  -33.4110 C   0  0  0  0  0  0  0  0  0  0  0  0
   -6.5770   17.8220  -33.3010 C   0  0  0  0  0  0  0  0  0  0  0  0
   -6.4960   16.1560  -33.8450 Cl  0  0  0  0  0  0  0  0  0  0  0  0
   -7.7600   18.3210  -32.7640 C   0  0  0  0  0  0  0  0  0  0  0  0
   -7.8330   19.6450  -32.3280 C   0  0  0  0  0  0  0  0  0  0  0  0
   -6.7140   20.5140  -32.4220 C   0  0  0  0  0  0  0  0  0  0  0  0
   -6.7620   21.8360  -31.9990 N   0  0  0  0  0  0  0  0  0  0  0  0
   -7.9450   22.3420  -31.2570 C   0  0  0  0  0  0  0  0  0  0  0  0
   -7.6960   22.3610  -29.7490 C   0  0  0  0  0  0  0  0  0  0  0  0
   -2.2347   21.0280  -29.0953 H   0  0  0  0  0  0  0  0  0  0  0  0
   -3.4519   20.8062  -30.3975 H   0  0  0  0  0  0  0  0  0  0  0  0
   -1.9476   19.8246  -30.3975 H   0  0  0  0  0  0  0  0  0  0  0  0
   -0.5993   21.8410  -30.8034 H   0  0  0  0  0  0  0  0  0  0  0  0
   -1.8715   21.6888  -32.0624 H   0  0  0  0  0  0  0  0  0  0  0  0
   -0.1139   23.4910  -28.9381 H   0  0  0  0  0  0  0  0  0  0  0  0
   -0.2715   24.3990  -26.6233 H   0  0  0  0  0  0  0  0  0  0  0  0
   -2.4818   25.0686  -25.6877 H   0  0  0  0  0  0  0  0  0  0  0  0
   -4.5444   24.8416  -27.0672 H   0  0  0  0  0  0  0  0  0  0  0  0
   -4.9854   22.8581  -29.7665 H   0  0  0  0  0  0  0  0  0  0  0  0
   -5.5690   24.4339  -29.0574 H   0  0  0  0  0  0  0  0  0  0  0  0
   -3.7450   24.3490  -31.3600 H   0  0  0  0  0  0  0  0  0  0  0  0
   -6.7062   24.3862  -31.4297 H   0  0  0  0  0  0  0  0  0  0  0  0
   -5.5617   24.7225  -32.8139 H   0  0  0  0  0  0  0  0  0  0  0  0
   -3.5889   22.7878  -32.7833 H   0  0  0  0  0  0  0  0  0  0  0  0
   -4.5280   18.2481  -33.8357 H   0  0  0  0  0  0  0  0  0  0  0  0
   -8.6420   17.6687  -32.6827 H   0  0  0  0  0  0  0  0  0  0  0  0
   -8.7751   20.0223  -31.9036 H   0  0  0  0  0  0  0  0  0  0  0  0
   -8.1681   23.3647  -31.5951 H   0  0  0  0  0  0  0  0  0  0  0  0
   -8.7915   21.6690  -31.4580 H   0  0  0  0  0  0  0  0  0  0  0  0
   -8.6565   22.2877  -29.2178 H   0  0  0  0  0  0  0  0  0  0  0  0
   -7.0578   21.5089  -29.4720 H   0  0  0  0  0  0  0  0  0  0  0  0
   -7.1945   23.3000  -29.4720 H   0  0  0  0  0  0  0  0  0  0  0  0
  1  2  1  0
  2  3  1  0
  3  4  1  0
  4  5  2  0
  5  6  1  0
  6  7  2  0
  7  8  1  0
  8  9  2  0
  9 10  1  0
 10 11  1  0
 11 12  1  0
 12 13  1  0
 13 14  2  0
 14 15  1  0
 15 16  2  0
 15 17  1  0
 17 18  2  0
 18 19  1  0
 19 20  1  0
 19 21  2  0
 21 22  1  0
 22 23  2  0
 23 24  1  0
 24 25  1  0
 25 26  1  0
  9  4  1  0
 24 13  1  0
 23 17  1  0
  1 27  1  0
  1 28  1  0
  1 29  1  0
  2 30  1  0
  2 31  1  0
  5 32  1  0
  6 33  1  0
  7 34  1  0
  8 35  1  0
 10 36  1  0
 10 37  1  0
 11 38  1  0
 12 39  1  0
 12 40  1  0
 14 41  1  0
 18 42  1  0
 21 43  1  0
 22 44  1  0
 25 45  1  0
 25 46  1  0
 26 47  1  0
 26 48  1  0
 26 49  1  0
M  END
>  <UniqueID>  (3) 
3

>  <SMILES>  (3) 
CCOc1ccccc1CNCc1cc(=O)c2cc(Cl)ccc2n1CC

>  <Energy>  (3) 
59.32193270345737

>  <Genealogy>  (3) 
CCOc1ccccc1CNCc1cc(=O)c2cc(Cl)ccc2n1CC (3D coordinates assigned)
CCOc1ccccc1CNCc1cc(=O)c2cc(Cl)ccc2n1CC (optimized conformer: 59.32193270345737 kcal/mol)

>  <smiles>  (3) 
CCOc1ccccc1CNCc1cc(=O)c2cc(Cl)ccc2n1CC

>  <score_type>  (3) 
oracle

>  <origin>  (3) 
adg

>  <m_score__min__energy>  (3) 
-9.7300000000000004

>  <m_primary>  (3) 
energy

$$$$
3:0
     RDKit          3D

 34 36  0  0  0  0  0  0  0  0999 V2000
   -6.4770   17.7520  -30.8690 C   0  0  0  0  0  0  0  0  0  0  0  0
   -6.0850   17.6770  -32.3190 C   0  0  0  0  0  0  0  0  0  0  0  0
   -5.8330   16.4200  -32.8960 C   0  0  0  0  0  0  0  0  0  0  0  0
   -5.4550   16.3190  -34.2370 C   0  0  0  0  0  0  0  0  0  0  0  0
   -5.3290   17.4690  -35.0180 C   0  0  0  0  0  0  0  0  0  0  0  0
   -5.5960   18.7220  -34.4640 C   0  0  0  0  0  0  0  0  0  0  0  0
   -5.9930   18.8370  -33.1240 C   0  0  0  0  0  0  0  0  0  0  0  0
   -6.2750   20.1370  -32.5910 N   0  0  0  0  0  0  0  0  0  0  0  0
   -5.3310   21.0030  -32.2320 N   0  0  0  0  0  0  0  0  0  0  0  0
   -5.9480   22.1150  -31.7970 C   0  0  0  0  0  0  0  0  0  0  0  0
   -5.3960   23.2930  -31.3120 C   0  0  0  0  0  0  0  0  0  0  0  0
   -4.1450   23.4330  -31.2270 O   0  0  0  0  0  0  0  0  0  0  0  0
   -6.2570   24.2940  -30.9270 N   0  0  0  0  0  0  0  0  0  0  0  0
   -5.7410   25.5600  -30.4070 C   0  0  0  0  0  0  0  0  0  0  0  0
   -7.5900   24.1310  -31.0240 N   0  0  0  0  0  0  0  0  0  0  0  0
   -8.1540   22.9820  -31.4990 C   0  0  0  0  0  0  0  0  0  0  0  0
   -7.2970   21.9650  -31.8880 C   0  0  0  0  0  0  0  0  0  0  0  0
   -7.4980   20.7010  -32.4080 C   0  0  0  0  0  0  0  0  0  0  0  0
   -8.8210   20.0650  -32.7130 C   0  0  0  0  0  0  0  0  0  0  0  0
   -5.5905   17.5824  -30.2403 H   0  0  0  0  0  0  0  0  0  0  0  0
   -6.8948   18.7464  -30.6531 H   0  0  0  0  0  0  0  0  0  0  0  0
   -7.2324   16.9821  -30.6531 H   0  0  0  0  0  0  0  0  0  0  0  0
   -5.9342   15.5095  -32.2871 H   0  0  0  0  0  0  0  0  0  0  0  0
   -5.2562   15.3312  -34.6784 H   0  0  0  0  0  0  0  0  0  0  0  0
   -5.0192   17.3878  -36.0703 H   0  0  0  0  0  0  0  0  0  0  0  0
   -5.4943   19.6257  -35.0829 H   0  0  0  0  0  0  0  0  0  0  0  0
   -4.3030   20.8290  -32.2800 H   0  0  0  0  0  0  0  0  0  0  0  0
   -5.7508   25.5359  -29.3073 H   0  0  0  0  0  0  0  0  0  0  0  0
   -4.7104   25.7091  -30.7613 H   0  0  0  0  0  0  0  0  0  0  0  0
   -6.3738   26.3871  -30.7613 H   0  0  0  0  0  0  0  0  0  0  0  0
   -9.2458   22.8681  -31.5701 H   0  0  0  0  0  0  0  0  0  0  0  0
   -9.3347   19.8181  -31.7722 H   0  0  0  0  0  0  0  0  0  0  0  0
   -9.4386   20.7646  -33.2953 H   0  0  0  0  0  0  0  0  0  0  0  0
   -8.6604   19.1457  -33.2953 H   0  0  0  0  0  0  0  0  0  0  0  0
  1  2  1  0
  2  3  2  0
  3  4  1  0
  4  5  2  0
  5  6  1  0
  6  7  2  0
  7  8  1  0
  8  9  1  0
  9 10  2  0
 10 11  1  0
 11 12  2  0
 11 13  1  0
 13 14  1  0
 13 15  1  0
 15 16  2  0
 16 17  1  0
 17 18  2  0
 18 19  1  0
  7  2  1  0
 18  8  1  0
 17 10  1  0
  1 20  1  0
  1 21  1  0
  1 22  1  0
  3 23  1  0
  4 24  1  0
  5 25  1  0
  6 26  1  0
  9 27  1  0
 14 28  1  0
 14 29  1  0
 14 30  1  0
 16 31  1  0
 19 32  1  0
 19 33  1  0
 19 34  1  0
M  CHG  1   9   1
M  END
>  <UniqueID>  (4) 
4

>  <SMILES>  (4) 
Cc1ccccc1-n1[nH+]c2c(=O)n(C)ncc2c1C

>  <Energy>  (4) 
84.2577755223618

>  <Genealogy>  (4) 
Cc1ccccc1-n1[nH+]c2c(=O)n(C)ncc2c1C (protonated)
Cc1ccccc1-n1[nH+]c2c(=O)n(C)ncc2c1C (3D coordinates assigned)
Cc1ccccc1-n1[nH+]c2c(=O)n(C)ncc2c1C (optimized conformer: 84.2577755223618 kcal/mol)

>  <smiles>  (4) 
Cc1ccccc1-n1nc2c(=O)n(C)ncc2c1C

>  <score_type>  (4) 
oracle

>  <origin>  (4) 
adg

>  <m_score__min__energy>  (4) 
-7.0700000000000003

>  <m_primary>  (4) 
energy

$$$$
4:0
     RDKit          3D

 49 51  0  0  0  0  0  0  0  0999 V2000
   -4.2630   22.8410  -28.5970 C   0  0  0  0  0  0  0  0  0  0  0  0
   -5.2680   22.9440  -29.7430 C   0  0  0  0  0  0  0  0  0  0  0  0
   -4.6500   23.5840  -30.9290 N   0  0  0  0  0  0  0  0  0  0  0  0
   -4.6460   25.0600  -30.8070 C   0  0  0  0  0  0  0  0  0  0  0  0
   -5.9180   25.5440  -30.1140 C   0  0  0  0  0  0  0  0  0  0  0  0
   -3.2910   23.0490  -31.1980 C   0  0  0  0  0  0  0  0  0  0  0  0
   -3.3800   21.8160  -32.1000 C   0  0  0  0  0  0  0  0  0  0  0  0
   -4.5320   21.8960  -32.9930 N   0  0  0  0  0  0  0  0  0  0  0  0
   -5.6250   20.9780  -32.8370 C   0  0  0  0  0  0  0  0  0  0  0  0
   -6.9020   21.4450  -32.4770 C   0  0  0  0  0  0  0  0  0  0  0  0
   -7.1400   22.8220  -32.2770 C   0  0  0  0  0  0  0  0  0  0  0  0
   -8.4180   23.2860  -31.9750 C   0  0  0  0  0  0  0  0  0  0  0  0
   -9.4770   22.3930  -31.8740 C   0  0  0  0  0  0  0  0  0  0  0  0
   -9.2620   21.0260  -32.0410 C   0  0  0  0  0  0  0  0  0  0  0  0
   -7.9640   20.5150  -32.3040 C   0  0  0  0  0  0  0  0  0  0  0  0
   -7.7200   19.1570  -32.3990 N   0  0  0  0  0  0  0  0  0  0  0  0
   -8.7420   18.1870  -31.9470 C   0  0  0  0  0  0  0  0  0  0  0  0
   -6.5100   18.7060  -32.8930 C   0  0  0  0  0  0  0  0  0  0  0  0
   -6.2930   17.3500  -33.2340 C   0  0  0  0  0  0  0  0  0  0  0  0
   -5.0500   16.9190  -33.6880 C   0  0  0  0  0  0  0  0  0  0  0  0
   -4.0200   17.8380  -33.8320 C   0  0  0  0  0  0  0  0  0  0  0  0
   -4.2290   19.1480  -33.5490 N   0  0  0  0  0  0  0  0  0  0  0  0
   -5.4350   19.6100  -33.0920 C   0  0  0  0  0  0  0  0  0  0  0  0
   -4.7957   22.8956  -27.6361 H   0  0  0  0  0  0  0  0  0  0  0  0
   -3.7264   21.8832  -28.6649 H   0  0  0  0  0  0  0  0  0  0  0  0
   -3.5433   23.6701  -28.6649 H   0  0  0  0  0  0  0  0  0  0  0  0
   -5.6096   21.9344  -30.0150 H   0  0  0  0  0  0  0  0  0  0  0  0
   -6.1177   23.5596  -29.4127 H   0  0  0  0  0  0  0  0  0  0  0  0
   -3.7715   25.3719  -30.2171 H   0  0  0  0  0  0  0  0  0  0  0  0
   -4.6009   25.4996  -31.8143 H   0  0  0  0  0  0  0  0  0  0  0  0
   -5.7836   25.4928  -29.0234 H   0  0  0  0  0  0  0  0  0  0  0  0
   -6.1239   26.5833  -30.4097 H   0  0  0  0  0  0  0  0  0  0  0  0
   -6.7627   24.9044  -30.4097 H   0  0  0  0  0  0  0  0  0  0  0  0
   -2.6879   23.8219  -31.6969 H   0  0  0  0  0  0  0  0  0  0  0  0
   -2.8210   22.7646  -30.2450 H   0  0  0  0  0  0  0  0  0  0  0  0
   -2.4628   21.7460  -32.7032 H   0  0  0  0  0  0  0  0  0  0  0  0
   -3.4947   20.9266  -31.4630 H   0  0  0  0  0  0  0  0  0  0  0  0
   -4.7240   22.8060  -33.4720 H   0  0  0  0  0  0  0  0  0  0  0  0
   -6.3074   23.5360  -32.3605 H   0  0  0  0  0  0  0  0  0  0  0  0
   -8.5889   24.3610  -31.8163 H   0  0  0  0  0  0  0  0  0  0  0  0
  -10.4897   22.7662  -31.6613 H   0  0  0  0  0  0  0  0  0  0  0  0
  -10.1121   20.3318  -31.9678 H   0  0  0  0  0  0  0  0  0  0  0  0
   -8.7655   18.1647  -30.8475 H   0  0  0  0  0  0  0  0  0  0  0  0
   -9.7284   18.4890  -32.3288 H   0  0  0  0  0  0  0  0  0  0  0  0
   -8.4918   17.1862  -32.3288 H   0  0  0  0  0  0  0  0  0  0  0  0
   -7.1170   16.6275  -33.1391 H   0  0  0  0  0  0  0  0  0  0  0  0
   -4.8853   15.8588  -33.9307 H   0  0  0  0  0  0  0  0  0  0  0  0
   -3.0307   17.5028  -34.1768 H   0  0  0  0  0  0  0  0  0  0  0  0
   -3.4300   19.7970  -33.7090 H   0  0  0  0  0  0  0  0  0  0  0  0
  1  2  1  0
  2  3  1  0
  3  4  1  0
  4  5  1  0
  3  6  1  0
  6  7  1  0
  7  8  1  0
  8  9  1  0
  9 10  2  0
 10 11  1  0
 11 12  2  0
 12 13  1  0
 13 14  2  0
 14 15  1  0
 15 16  2  0
 16 17  1  0
 16 18  1  0
 18 19  2  0
 19 20  1  0
 20 21  2  0
 21 22  1  0
 22 23  2  0
 23  9  1  0
 15 10  1  0
 23 18  1  0
  1 24  1  0
  1 25  1  0
  1 26  1  0
  2 27  1  0
  2 28  1  0
  4 29  1  0
  4 30  1  0
  5 31  1  0
  5 32  1  0
  5 33  1  0
  6 34  1  0
  6 35  1  0
  7 36  1  0
  7 37  1  0
  8 38  1  0
 11 39  1  0
 12 40  1  0
 13 41  1  0
 14 42  1  0
 17 43  1  0
 17 44  1  0
 17 45  1  0
 19 46  1  0
 20 47  1  0
 21 48  1  0
 22 49  1  0
M  CHG  2  16   1  22   1
M  END
>  <UniqueID>  (5) 
5

>  <SMILES>  (5) 
CCN(CC)CCNc1c2ccccc2[n+](C)c2ccc[nH+]c12

>  <Energy>  (5) 
73.50353707116284

>  <Genealogy>  (5) 
CCN(CC)CCNc1c2ccccc2[n+](C)c2ccc[nH+]c12 (protonated)
CCN(CC)CCNc1c2ccccc2[n+](C)c2ccc[nH+]c12 (3D coordinates assigned)
CCN(CC)CCNc1c2ccccc2[n+](C)c2ccc[nH+]c12 (optimized conformer: 73.50353707116284 kcal/mol)

>  <smiles>  (5) 
CCN(CC)CCNc1c2ccccc2[n+](C)c2cccnc12

>  <score_type>  (5) 
oracle

>  <origin>  (5) 
adg

>  <m_score__min__energy>  (5) 
-7.7599999999999998

>  <m_primary>  (5) 
energy

$$$$
5:0
     RDKit          3D

 46 48  0  0  0  0  0  0  0  0999 V2000
   -8.8670   23.0600  -31.9680 C   0  0  0  0  0  0  0  0  0  0  0  0
   -7.8210   22.5850  -30.9600 C   0  0  0  0  0  0  0  0  0  0  0  0
   -6.6210   22.0550  -31.6470 N   0  0  0  0  0  0  0  0  0  0  0  0
   -5.5070   22.8640  -31.8200 C   0  0  0  0  0  0  0  0  0  0  0  0
   -5.3480   24.2440  -31.1960 C   0  0  0  0  0  0  0  0  0  0  0  0
   -3.9550   24.4500  -30.7690 N   0  0  0  0  0  0  0  0  0  0  0  0
   -3.5430   23.5380  -29.6900 C   0  0  0  0  0  0  0  0  0  0  0  0
   -3.1340   24.2840  -28.4390 C   0  0  0  0  0  0  0  0  0  0  0  0
   -1.8540   24.8510  -28.3450 C   0  0  0  0  0  0  0  0  0  0  0  0
   -1.4640   25.5320  -27.1890 C   0  0  0  0  0  0  0  0  0  0  0  0
   -2.3450   25.6620  -26.1090 C   0  0  0  0  0  0  0  0  0  0  0  0
   -1.9060   26.3540  -24.9710 O   0  0  0  0  0  0  0  0  0  0  0  0
   -0.7350   26.0220  -24.2300 C   0  0  0  0  0  0  0  0  0  0  0  0
   -3.6330   25.1020  -26.2040 C   0  0  0  0  0  0  0  0  0  0  0  0
   -4.0230   24.4210  -27.3610 C   0  0  0  0  0  0  0  0  0  0  0  0
   -4.4150   22.4070  -32.5680 C   0  0  0  0  0  0  0  0  0  0  0  0
   -4.4170   21.1390  -33.1230 C   0  0  0  0  0  0  0  0  0  0  0  0
   -3.4250   20.7660  -33.8080 O   0  0  0  0  0  0  0  0  0  0  0  0
   -5.5030   20.2860  -32.8990 C   0  0  0  0  0  0  0  0  0  0  0  0
   -5.5010   18.9770  -33.4200 C   0  0  0  0  0  0  0  0  0  0  0  0
   -6.5610   18.1100  -33.1640 C   0  0  0  0  0  0  0  0  0  0  0  0
   -6.5410   16.4790  -33.8120 Cl  0  0  0  0  0  0  0  0  0  0  0  0
   -7.6270   18.5320  -32.3760 C   0  0  0  0  0  0  0  0  0  0  0  0
   -7.6520   19.8280  -31.8560 C   0  0  0  0  0  0  0  0  0  0  0  0
   -6.6040   20.7490  -32.1240 C   0  0  0  0  0  0  0  0  0  0  0  0
   -9.7407   23.4568  -31.4303 H   0  0  0  0  0  0  0  0  0  0  0  0
   -8.4352   23.8503  -32.5996 H   0  0  0  0  0  0  0  0  0  0  0  0
   -9.1779   22.2148  -32.5996 H   0  0  0  0  0  0  0  0  0  0  0  0
   -7.5257   23.4316  -30.3228 H   0  0  0  0  0  0  0  0  0  0  0  0
   -8.2607   21.7796  -30.3534 H   0  0  0  0  0  0  0  0  0  0  0  0
   -5.6185   25.0112  -31.9365 H   0  0  0  0  0  0  0  0  0  0  0  0
   -6.0077   24.3201  -30.3191 H   0  0  0  0  0  0  0  0  0  0  0  0
   -3.3200   24.3330  -31.5930 H   0  0  0  0  0  0  0  0  0  0  0  0
   -4.3848   22.8729  -29.4470 H   0  0  0  0  0  0  0  0  0  0  0  0
   -2.6720   22.9668  -30.0436 H   0  0  0  0  0  0  0  0  0  0  0  0
   -1.1526   24.7587  -29.1873 H   0  0  0  0  0  0  0  0  0  0  0  0
   -0.4566   25.9695  -27.1271 H   0  0  0  0  0  0  0  0  0  0  0  0
   -0.9525   26.0837  -23.1535 H   0  0  0  0  0  0  0  0  0  0  0  0
   -0.4192   24.9989  -24.4822 H   0  0  0  0  0  0  0  0  0  0  0  0
    0.0707   26.7271  -24.4822 H   0  0  0  0  0  0  0  0  0  0  0  0
   -4.3361   25.2007  -25.3638 H   0  0  0  0  0  0  0  0  0  0  0  0
   -5.0328   23.9898  -27.4272 H   0  0  0  0  0  0  0  0  0  0  0  0
   -3.5451   23.0637  -32.7163 H   0  0  0  0  0  0  0  0  0  0  0  0
   -4.6547   18.6364  -34.0346 H   0  0  0  0  0  0  0  0  0  0  0  0
   -8.4552   17.8407  -32.1612 H   0  0  0  0  0  0  0  0  0  0  0  0
   -8.4986   20.1414  -31.2275 H   0  0  0  0  0  0  0  0  0  0  0  0
  1  2  1  0
  2  3  1  0
  3  4  1  0
  4  5  1  0
  5  6  1  0
  6  7  1  0
  7  8  1  0
  8  9  2  0
  9 10  1  0
 10 11  2  0
 11 12  1  0
 12 13  1  0
 11 14  1  0
 14 15  2  0
  4 16  2  0
 16 17  1  0
 17 18  2  0
 17 19  1  0
 19 20  2  0
 20 21  1  0
 21 22  1  0
 21 23  2  0
 23 24  1  0
 24 25  2  0
 25  3  1  0
 15  8  1  0
 25 19  1  0
  1 26  1  0
  1 27  1  0
  1 28  1  0
  2 29  1  0
  2 30  1  0
  5 31  1  0
  5 32  1  0
  6 33  1  0
  7 34  1  0
  7 35  1  0
  9 36  1  0
 10 37  1  0
 13 38  1  0
 13 39  1  0
 13 40  1  0
 14 41  1  0
 15 42  1  0
 16 43  1  0
 20 44  1  0
 23 45  1  0
 24 46  1  0
M  END
>  <UniqueID>  (6) 
6

>  <SMILES>  (6) 
CCn1c(CNCc2ccc(OC)cc2)cc(=O)c2cc(Cl)ccc21

>  <Energy>  (6) 
62.30026717270847

>  <Genealogy>  (6) 
CCn1c(CNCc2ccc(OC)cc2)cc(=O)c2cc(Cl)ccc21 (3D coordinates assigned)
CCn1c(CNCc2ccc(OC)cc2)cc(=O)c2cc(Cl)ccc21 (optimized conformer: 62.30026717270847 kcal/mol)

>  <smiles>  (6) 
CCn1c(CNCc2ccc(OC)cc2)cc(=O)c2cc(Cl)ccc21

>  <score_type>  (6) 
oracle

>  <origin>  (6) 
adg

>  <m_score__min__energy>  (6) 
-8.9199999999999999

>  <m_primary>  (6) 
energy

$$$$
6:0
     RDKit          3D

 35 35  0  0  0  0  0  0  0  0999 V2000
   -3.9330   24.1250  -28.6800 C   0  0  0  0  0  0  0  0  0  0  0  0
   -3.7570   23.8550  -30.1720 C   0  0  0  0  0  0  0  0  0  0  0  0
   -4.7300   24.6520  -30.9550 N   0  0  0  0  0  0  0  0  0  0  0  0
   -5.4030   25.6610  -30.1050 C   0  0  0  0  0  0  0  0  0  0  0  0
   -6.8170   25.2010  -29.7600 C   0  0  0  0  0  0  0  0  0  0  0  0
   -5.7170   23.7770  -31.6300 C   0  0  0  0  0  0  0  0  0  0  0  0
   -5.2810   22.3110  -31.5240 C   0  0  0  0  0  0  0  0  0  0  0  0
   -5.6230   21.5690  -32.7400 N   0  0  0  0  0  0  0  0  0  0  0  0
   -6.3060   20.2940  -32.7240 C   0  0  0  0  0  0  0  0  0  0  0  0
   -5.6370   19.1100  -33.0990 C   0  0  0  0  0  0  0  0  0  0  0  0
   -6.3000   17.8810  -33.0830 C   0  0  0  0  0  0  0  0  0  0  0  0
   -7.6370   17.8100  -32.6930 C   0  0  0  0  0  0  0  0  0  0  0  0
   -8.3170   18.9680  -32.3170 C   0  0  0  0  0  0  0  0  0  0  0  0
   -7.6650   20.2090  -32.3300 C   0  0  0  0  0  0  0  0  0  0  0  0
   -8.4120   21.3780  -31.9320 C   0  0  0  0  0  0  0  0  0  0  0  0
   -9.0100   22.3170  -31.6150 N   0  0  0  0  0  0  0  0  0  0  0  0
   -3.4217   23.3406  -28.1026 H   0  0  0  0  0  0  0  0  0  0  0  0
   -3.4997   25.1049  -28.4311 H   0  0  0  0  0  0  0  0  0  0  0  0
   -5.0045   24.1240  -28.4311 H   0  0  0  0  0  0  0  0  0  0  0  0
   -2.7356   24.1309  -30.4731 H   0  0  0  0  0  0  0  0  0  0  0  0
   -3.9302   22.7862  -30.3660 H   0  0  0  0  0  0  0  0  0  0  0  0
   -4.8282   25.7959  -29.1769 H   0  0  0  0  0  0  0  0  0  0  0  0
   -5.4590   26.6127  -30.6537 H   0  0  0  0  0  0  0  0  0  0  0  0
   -6.9338   25.1630  -28.6669 H   0  0  0  0  0  0  0  0  0  0  0  0
   -7.5460   25.9083  -30.1823 H   0  0  0  0  0  0  0  0  0  0  0  0
   -6.9903   24.2002  -30.1823 H   0  0  0  0  0  0  0  0  0  0  0  0
   -6.6996   23.8999  -31.1510 H   0  0  0  0  0  0  0  0  0  0  0  0
   -5.7803   24.0579  -32.6917 H   0  0  0  0  0  0  0  0  0  0  0  0
   -4.1922   22.2702  -31.3727 H   0  0  0  0  0  0  0  0  0  0  0  0
   -5.8073   21.8509  -30.6747 H   0  0  0  0  0  0  0  0  0  0  0  0
   -5.3570   21.9890  -33.6590 H   0  0  0  0  0  0  0  0  0  0  0  0
   -4.5820   19.1553  -33.4072 H   0  0  0  0  0  0  0  0  0  0  0  0
   -5.7659   16.9660  -33.3790 H   0  0  0  0  0  0  0  0  0  0  0  0
   -8.1556   16.8400  -32.6819 H   0  0  0  0  0  0  0  0  0  0  0  0
   -9.3711   18.9073  -32.0084 H   0  0  0  0  0  0  0  0  0  0  0  0
  1  2  1  0
  2  3  1  0
  3  4  1  0
  4  5  1  0
  3  6  1  0
  6  7  1  0
  7  8  1  0
  8  9  1  0
  9 10  2  0
 10 11  1  0
 11 12  2  0
 12 13  1  0
 13 14  2  0
 14 15  1  0
 15 16  3  0
 14  9  1  0
  1 17  1  0
  1 18  1  0
  1 19  1  0
  2 20  1  0
  2 21  1  0
  4 22  1  0
  4 23  1  0
  5 24  1  0
  5 25  1  0
  5 26  1  0
  6 27  1  0
  6 28  1  0
  7 29  1  0
  7 30  1  0
  8 31  1  0
 10 32  1  0
 11 33  1  0
 12 34  1  0
 13 35  1  0
M  END
>  <UniqueID>  (7) 
7

>  <SMILES>  (7) 
CCN(CC)CCNc1ccccc1C#N

>  <Energy>  (7) 
30.405284641137325

>  <Genealogy>  (7) 
CCN(CC)CCNc1ccccc1C#N (3D coordinates assigned)
CCN(CC)CCNc1ccccc1C#N (optimized conformer: 30.405284641137325 kcal/mol)

>  <smiles>  (7) 
CCN(CC)CCNc1ccccc1C#N

>  <score_type>  (7) 
oracle

>  <origin>  (7) 
adg

>  <m_score__min__energy>  (7) 
-6.3099999999999996

>  <m_primary>  (7) 
energy

$$$$
7:0
     RDKit          3D

 59 61  0  0  0  0  0  0  0  0999 V2000
   -3.0890   19.2970  -26.7830 C   0  0  0  0  0  0  0  0  0  0  0  0
   -2.0620   20.0180  -27.6710 C   0  0  0  0  0  0  0  0  0  0  0  0
   -2.6520   20.9080  -28.6970 N   0  0  0  0  0  0  0  0  0  0  0  0
   -1.7360   21.3180  -29.7870 C   0  0  0  0  0  0  0  0  0  0  0  0
   -0.6660   20.2800  -30.1340 C   0  0  0  0  0  0  0  0  0  0  0  0
   -3.5570   21.9670  -28.1960 C   0  0  0  0  0  0  0  0  0  0  0  0
   -3.9200   22.9730  -29.3040 C   0  0  0  0  0  0  0  0  0  0  0  0
   -4.8740   22.3770  -30.3640 C   0  0  0  0  0  0  0  0  0  0  0  0
   -5.4130   23.4350  -31.3640 C   0  0  2  0  0  0  0  0  0  0  0  0
   -6.7000   24.0810  -30.8170 C   0  0  0  0  0  0  0  0  0  0  0  0
   -5.6790   22.8590  -32.7080 N   0  0  0  0  0  0  0  0  0  0  0  0
   -5.6190   21.4000  -32.7240 C   0  0  0  0  0  0  0  0  0  0  0  0
   -6.7670   20.6030  -32.4360 C   0  0  0  0  0  0  0  0  0  0  0  0
   -8.0200   21.1720  -32.0780 C   0  0  0  0  0  0  0  0  0  0  0  0
   -9.1090   20.3740  -31.7410 C   0  0  0  0  0  0  0  0  0  0  0  0
   -8.9880   18.9950  -31.7350 C   0  0  0  0  0  0  0  0  0  0  0  0
   -7.7840   18.4010  -32.0950 C   0  0  0  0  0  0  0  0  0  0  0  0
   -6.6650   19.1810  -32.4930 C   0  0  0  0  0  0  0  0  0  0  0  0
   -5.4940   18.5790  -32.9040 N   0  0  0  0  0  0  0  0  0  0  0  0
   -5.4880   17.1420  -33.2640 C   0  0  0  0  0  0  0  0  0  0  0  0
   -4.3370   19.3170  -33.0140 C   0  0  0  0  0  0  0  0  0  0  0  0
   -3.0720   18.6850  -33.1380 C   0  0  0  0  0  0  0  0  0  0  0  0
   -1.9090   19.4230  -33.3310 C   0  0  0  0  0  0  0  0  0  0  0  0
   -1.9720   20.8060  -33.4060 C   0  0  0  0  0  0  0  0  0  0  0  0
   -3.1890   21.4610  -33.2400 C   0  0  0  0  0  0  0  0  0  0  0  0
   -4.3860   20.7390  -32.9930 C   0  0  0  0  0  0  0  0  0  0  0  0
   -2.8436   19.4693  -25.7246 H   0  0  0  0  0  0  0  0  0  0  0  0
   -4.0952   19.6880  -26.9945 H   0  0  0  0  0  0  0  0  0  0  0  0
   -3.0631   18.2178  -26.9945 H   0  0  0  0  0  0  0  0  0  0  0  0
   -1.4134   20.6249  -27.0222 H   0  0  0  0  0  0  0  0  0  0  0  0
   -1.5152   19.2339  -28.2153 H   0  0  0  0  0  0  0  0  0  0  0  0
   -2.3367   21.5082  -30.6886 H   0  0  0  0  0  0  0  0  0  0  0  0
   -1.2037   22.2126  -29.4315 H   0  0  0  0  0  0  0  0  0  0  0  0
   -0.2409   19.8676  -29.2070 H   0  0  0  0  0  0  0  0  0  0  0  0
   -1.1194   19.4685  -30.7222 H   0  0  0  0  0  0  0  0  0  0  0  0
    0.1313   20.7578  -30.7222 H   0  0  0  0  0  0  0  0  0  0  0  0
   -4.4799   21.5002  -27.8213 H   0  0  0  0  0  0  0  0  0  0  0  0
   -3.0384   22.5115  -27.3932 H   0  0  0  0  0  0  0  0  0  0  0  0
   -4.4078   23.8440  -28.8420 H   0  0  0  0  0  0  0  0  0  0  0  0
   -2.9877   23.2522  -29.8167 H   0  0  0  0  0  0  0  0  0  0  0  0
   -4.3304   21.6060  -30.9297 H   0  0  0  0  0  0  0  0  0  0  0  0
   -5.7403   21.9618  -29.8282 H   0  0  0  0  0  0  0  0  0  0  0  0
   -4.6290   24.1984  -31.4756 H   0  0  0  0  0  0  0  0  0  0  0  0
   -6.6772   24.0696  -29.7173 H   0  0  0  0  0  0  0  0  0  0  0  0
   -6.7680   25.1201  -31.1715 H   0  0  0  0  0  0  0  0  0  0  0  0
   -7.5738   23.5147  -31.1715 H   0  0  0  0  0  0  0  0  0  0  0  0
   -6.5670   23.2400  -33.0890 H   0  0  0  0  0  0  0  0  0  0  0  0
   -4.9780   23.2180  -33.3970 H   0  0  0  0  0  0  0  0  0  0  0  0
   -8.1308   22.2664  -32.0672 H   0  0  0  0  0  0  0  0  0  0  0  0
  -10.0698   20.8408  -31.4783 H   0  0  0  0  0  0  0  0  0  0  0  0
   -9.8449   18.3691  -31.4453 H   0  0  0  0  0  0  0  0  0  0  0  0
   -7.6957   17.3048  -32.0713 H   0  0  0  0  0  0  0  0  0  0  0  0
   -5.4855   16.5343  -32.3471 H   0  0  0  0  0  0  0  0  0  0  0  0
   -6.3852   16.9086  -33.8561 H   0  0  0  0  0  0  0  0  0  0  0  0
   -4.5889   16.9161  -33.8561 H   0  0  0  0  0  0  0  0  0  0  0  0
   -3.0102   17.5883  -33.0802 H   0  0  0  0  0  0  0  0  0  0  0  0
   -0.9404   18.9100  -33.4240 H   0  0  0  0  0  0  0  0  0  0  0  0
   -1.0579   21.3872  -33.5972 H   0  0  0  0  0  0  0  0  0  0  0  0
   -3.2238   22.5587  -33.3014 H   0  0  0  0  0  0  0  0  0  0  0  0
  1  2  1  0
  2  3  1  0
  3  4  1  0
  4  5  1  0
  3  6  1  0
  6  7  1  0
  7  8  1  0
  8  9  1  0
  9 10  1  0
  9 11  1  0
 11 12  1  0
 12 13  2  0
 13 14  1  0
 14 15  2  0
 15 16  1  0
 16 17  2  0
 17 18  1  0
 18 19  2  0
 19 20  1  0
 19 21  1  0
 21 22  2  0
 22 23  1  0
 23 24  2  0
 24 25  1  0
 25 26  2  0
 26 12  1  0
 18 13  1  0
 26 21  1  0
  1 27  1  0
  1 28  1  0
  1 29  1  0
  2 30  1  0
  2 31  1  0
  4 32  1  0
  4 33  1  0
  5 34  1  0
  5 35  1  0
  5 36  1  0
  6 37  1  0
  6 38  1  0
  7 39  1  0
  7 40  1  0
  8 41  1  0
  8 42  1  0
  9 43  1  6
 10 44  1  0
 10 45  1  0
 10 46  1  0
 11 47  1  0
 11 48  1  0
 14 49  1  0
 15 50  1  0
 16 51  1  0
 17 52  1  0
 20 53  1  0
 20 54  1  0
 20 55  1  0
 22 56  1  0
 23 57  1  0
 24 58  1  0
 25 59  1  0
M  CHG  2  11   1  19   1
M  END
>  <UniqueID>  (8) 
8

>  <SMILES>  (8) 
CCN(CC)CCC[C@H](C)[NH2+]c1c2ccccc2[n+](C)c2ccccc12

>  <Energy>  (8) 
90.30953678467543

>  <Genealogy>  (8) 
CCN(CC)CCCC(C)[NH2+]c1c2ccccc2[n+](C)c2ccccc12 (protonated)
CCN(CC)CCC[C@H](C)[NH2+]c1c2ccccc2[n+](C)c2ccccc12 (chirality)
CCN(CC)CCC[C@H](C)[NH2+]c1c2ccccc2[n+](C)c2ccccc12 (3D coordinates assigned)
CCN(CC)CCC[C@H](C)[NH2+]c1c2ccccc2[n+](C)c2ccccc12 (optimized conformer: 90.30953678467543 kcal/mol)

>  <smiles>  (8) 
CCN(CC)CCCC(C)Nc1c2ccccc2[n+](C)c2ccccc12

>  <score_type>  (8) 
oracle

>  <origin>  (8) 
adg

>  <m_score__min__energy>  (8) 
-8.3200000000000003

>  <m_primary>  (8) 
energy

$$$$
8:0
     RDKit          3D

 37 39  0  0  0  0  0  0  0  0999 V2000
   -9.8920   21.3670  -31.9420 C   0  0  0  0  0  0  0  0  0  0  0  0
   -8.4020   21.3230  -31.9970 C   0  0  0  0  0  0  0  0  0  0  0  0
   -7.7750   20.2860  -32.6100 N   0  0  0  0  0  0  0  0  0  0  0  0
   -6.4170   20.1940  -32.6450 C   0  0  0  0  0  0  0  0  0  0  0  0
   -5.7840   19.0340  -33.3210 C   0  0  0  0  0  0  0  0  0  0  0  0
   -4.4520   19.1240  -33.7680 C   0  0  0  0  0  0  0  0  0  0  0  0
   -3.8390   18.0370  -34.4000 C   0  0  0  0  0  0  0  0  0  0  0  0
   -4.5430   16.8460  -34.5860 C   0  0  0  0  0  0  0  0  0  0  0  0
   -5.8610   16.7380  -34.1360 C   0  0  0  0  0  0  0  0  0  0  0  0
   -6.4790   17.8210  -33.5050 C   0  0  0  0  0  0  0  0  0  0  0  0
   -5.6530   21.1880  -32.0120 C   0  0  0  0  0  0  0  0  0  0  0  0
   -6.3110   22.2570  -31.3860 C   0  0  0  0  0  0  0  0  0  0  0  0
   -5.5730   23.2880  -30.7020 N   0  0  0  0  0  0  0  0  0  0  0  0
   -4.1080   23.2150  -30.6650 C   0  0  0  0  0  0  0  0  0  0  0  0
   -3.5130   24.4950  -30.0630 C   0  0  0  0  0  0  0  0  0  0  0  0
   -4.2370   25.6750  -30.5530 N   0  0  0  0  0  0  0  0  0  0  0  0
   -5.6490   25.6950  -30.1210 C   0  0  0  0  0  0  0  0  0  0  0  0
   -6.2500   24.2960  -29.8760 C   0  0  0  0  0  0  0  0  0  0  0  0
   -7.6710   22.2870  -31.3810 N   0  0  0  0  0  0  0  0  0  0  0  0
  -10.2200   21.3767  -30.8921 H   0  0  0  0  0  0  0  0  0  0  0  0
  -10.2509   22.2761  -32.4467 H   0  0  0  0  0  0  0  0  0  0  0  0
  -10.3039   20.4806  -32.4467 H   0  0  0  0  0  0  0  0  0  0  0  0
   -3.8886   20.0569  -33.6190 H   0  0  0  0  0  0  0  0  0  0  0  0
   -2.7999   18.1209  -34.7512 H   0  0  0  0  0  0  0  0  0  0  0  0
   -4.0604   15.9935  -35.0864 H   0  0  0  0  0  0  0  0  0  0  0  0
   -6.4140   15.7979  -34.2787 H   0  0  0  0  0  0  0  0  0  0  0  0
   -7.5155   17.7265  -33.1491 H   0  0  0  0  0  0  0  0  0  0  0  0
   -4.5546   21.1291  -32.0072 H   0  0  0  0  0  0  0  0  0  0  0  0
   -3.8053   22.3536  -30.0515 H   0  0  0  0  0  0  0  0  0  0  0  0
   -3.7348   23.1029  -31.6937 H   0  0  0  0  0  0  0  0  0  0  0  0
   -3.5918   24.4507  -28.9667 H   0  0  0  0  0  0  0  0  0  0  0  0
   -2.4576   24.5736  -30.3629 H   0  0  0  0  0  0  0  0  0  0  0  0
   -4.2030   25.6730  -31.6010 H   0  0  0  0  0  0  0  0  0  0  0  0
   -5.7163   26.2691  -29.1851 H   0  0  0  0  0  0  0  0  0  0  0  0
   -6.2258   26.1502  -30.9396 H   0  0  0  0  0  0  0  0  0  0  0  0
   -6.1306   24.0326  -28.8147 H   0  0  0  0  0  0  0  0  0  0  0  0
   -7.3160   24.3168  -30.1466 H   0  0  0  0  0  0  0  0  0  0  0  0
  1  2  1  0
  2  3  2  0
  3  4  1  0
  4  5  1  0
  5  6  2  0
  6  7  1  0
  7  8  2  0
  8  9  1  0
  9 10  2  0
  4 11  2  0
 11 12  1  0
 12 13  1  0
 13 14  1  0
 14 15  1  0
 15 16  1  0
 16 17  1  0
 17 18  1  0
 12 19  2  0
 19  2  1  0
 10  5  1  0
 18 13  1  0
  1 20  1  0
  1 21  1  0
  1 22  1  0
  6 23  1  0
  7 24  1  0
  8 25  1  0
  9 26  1  0
 10 27  1  0
 11 28  1  0
 14 29  1  0
 14 30  1  0
 15 31  1  0
 15 32  1  0
 16 33  1  0
 17 34  1  0
 17 35  1  0
 18 36  1  0
 18 37  1  0
M  END
>  <UniqueID>  (9) 
9

>  <SMILES>  (9) 
Cc1nc(-c2ccccc2)cc(N2CCNCC2)n1

>  <Energy>  (9) 
48.707640583873015

>  <Genealogy>  (9) 
Cc1nc(-c2ccccc2)cc(N2CCNCC2)n1 (3D coordinates assigned)
Cc1nc(-c2ccccc2)cc(N2CCNCC2)n1 (nonaromatic ring conformer: 48.707640583873015 kcal/mol)

>  <smiles>  (9) 
Cc1nc(-c2ccccc2)cc(N2CCNCC2)n1

>  <score_type>  (9) 
oracle

>  <origin>  (9) 
adg

>  <m_score__min__energy>  (9) 
-8.2100000000000009

>  <m_primary>  (9) 
energy

$$$$
9:0
     RDKit          3D

 57 59  0  0  1  0  0  0  0  0999 V2000
   -1.6400   24.9600  -28.4650 C   0  0  0  0  0  0  0  0  0  0  0  0
   -1.7560   23.7640  -29.3860 C   0  0  0  0  0  0  0  0  0  0  0  0
   -3.1190   23.3020  -29.4030 N   0  0  0  0  0  0  0  0  0  0  0  0
   -3.1930   21.8630  -29.2340 C   0  0  0  0  0  0  0  0  0  0  0  0
   -1.7810   21.3160  -29.2610 C   0  0  0  0  0  0  0  0  0  0  0  0
   -4.0140   24.0360  -28.5750 C   0  0  0  0  0  0  0  0  0  0  0  0
   -4.9990   24.9110  -29.3540 C   0  0  0  0  0  0  0  0  0  0  0  0
   -4.7160   24.7930  -30.6840 O   0  0  0  0  0  0  0  0  0  0  0  0
   -5.7690   24.2930  -31.4220 C   0  0  0  0  0  0  0  0  0  0  0  0
   -5.3820   23.1890  -32.3830 C   0  0  0  0  0  0  0  0  0  0  0  0
   -4.0430   22.6840  -32.1450 N   0  0  0  0  0  0  0  0  0  0  0  0
   -3.5520   21.4610  -32.6750 C   0  0  0  0  0  0  0  0  0  0  0  0
   -2.2330   21.1140  -32.6970 C   0  0  0  0  0  0  0  0  0  0  0  0
   -1.7280   19.9450  -33.2180 C   0  0  0  0  0  0  0  0  0  0  0  0
   -2.6120   19.0580  -33.7560 C   0  0  0  0  0  0  0  0  0  0  0  0
   -2.0930   17.9130  -34.2650 N   0  0  0  0  0  0  0  0  0  0  0  0
   -2.9140   17.0040  -34.8050 C   0  0  0  0  0  0  0  0  0  0  0  0
   -4.2220   17.2680  -34.8210 N   0  0  0  0  0  0  0  0  0  0  0  0
   -4.7790   18.4060  -34.3210 C   0  0  0  0  0  0  0  0  0  0  0  0
   -5.9920   18.5350  -34.3790 N   0  0  0  0  0  0  0  0  0  0  0  0
   -6.9410   18.8040  -33.4540 C   0  0  0  0  0  0  0  0  0  0  0  0
   -7.4380   17.8040  -32.5790 C   0  0  0  0  0  0  0  0  0  0  0  0
   -8.3180   18.1620  -31.5850 C   0  0  0  0  0  0  0  0  0  0  0  0
   -8.7390   19.4660  -31.4070 C   0  0  0  0  0  0  0  0  0  0  0  0
   -8.2590   20.4490  -32.2570 C   0  0  0  0  0  0  0  0  0  0  0  0
   -8.8740   22.2300  -31.9610 Br  0  0  0  0  0  0  0  0  0  0  0  0
   -7.3740   20.1400  -33.2680 C   0  0  0  0  0  0  0  0  0  0  0  0
   -3.9580   19.3440  -33.7650 C   0  0  0  0  0  0  0  0  0  0  0  0
   -4.4330   20.5140  -33.2410 C   0  0  0  0  0  0  0  0  0  0  0  0
   -1.6728   24.6217  -27.4188 H   0  0  0  0  0  0  0  0  0  0  0  0
   -0.6875   25.4769  -28.6535 H   0  0  0  0  0  0  0  0  0  0  0  0
   -2.4754   25.6503  -28.6535 H   0  0  0  0  0  0  0  0  0  0  0  0
   -1.4544   24.0540  -30.4033 H   0  0  0  0  0  0  0  0  0  0  0  0
   -1.1002   22.9581  -29.0249 H   0  0  0  0  0  0  0  0  0  0  0  0
   -3.6677   21.6241  -28.2709 H   0  0  0  0  0  0  0  0  0  0  0  0
   -3.7926   21.4137  -30.0394 H   0  0  0  0  0  0  0  0  0  0  0  0
   -1.4219   21.1769  -28.2306 H   0  0  0  0  0  0  0  0  0  0  0  0
   -1.7722   20.3494  -29.7860 H   0  0  0  0  0  0  0  0  0  0  0  0
   -1.1233   22.0244  -29.7860 H   0  0  0  0  0  0  0  0  0  0  0  0
   -4.5896   23.3218  -27.9679 H   0  0  0  0  0  0  0  0  0  0  0  0
   -3.4010   24.7122  -27.9610 H   0  0  0  0  0  0  0  0  0  0  0  0
   -6.0285   24.5748  -29.1613 H   0  0  0  0  0  0  0  0  0  0  0  0
   -4.9065   25.9605  -29.0379 H   0  0  0  0  0  0  0  0  0  0  0  0
   -6.5215   23.8959  -30.7248 H   0  0  0  0  0  0  0  0  0  0  0  0
   -6.1515   25.1246  -32.0321 H   0  0  0  0  0  0  0  0  0  0  0  0
   -6.0959   22.3595  -32.2721 H   0  0  0  0  0  0  0  0  0  0  0  0
   -5.4027   23.6102  -33.3990 H   0  0  0  0  0  0  0  0  0  0  0  0
   -3.3900   23.2670  -31.5370 H   0  0  0  0  0  0  0  0  0  0  0  0
   -1.5154   21.8260  -32.2633 H   0  0  0  0  0  0  0  0  0  0  0  0
   -0.6486   19.7337  -33.2009 H   0  0  0  0  0  0  0  0  0  0  0  0
   -2.5214   16.0657  -35.2238 H   0  0  0  0  0  0  0  0  0  0  0  0
   -4.8340   16.5190  -35.2590 H   0  0  0  0  0  0  0  0  0  0  0  0
   -7.1236   16.7562  -32.6942 H   0  0  0  0  0  0  0  0  0  0  0  0
   -8.7000   17.3835  -30.9082 H   0  0  0  0  0  0  0  0  0  0  0  0
   -9.4448   19.7198  -30.6023 H   0  0  0  0  0  0  0  0  0  0  0  0
   -7.0027   20.9339  -33.9328 H   0  0  0  0  0  0  0  0  0  0  0  0
   -5.5134   20.7198  -33.2606 H   0  0  0  0  0  0  0  0  0  0  0  0
  1  2  1  0
  2  3  1  0
  3  4  1  0
  4  5  1  0
  3  6  1  0
  6  7  1  0
  7  8  1  0
  8  9  1  0
  9 10  1  0
 10 11  1  0
 11 12  1  0
 12 13  2  0
 13 14  1  0
 14 15  2  0
 15 16  1  0
 16 17  2  0
 17 18  1  0
 18 19  1  0
 19 20  2  0
 20 21  1  0
 21 22  2  0
 22 23  1  0
 23 24  2  0
 24 25  1  0
 25 26  1  0
 25 27  2  0
 19 28  1  0
 28 29  2  0
 29 12  1  0
 28 15  1  0
 27 21  1  0
  1 30  1  0
  1 31  1  0
  1 32  1  0
  2 33  1  0
  2 34  1  0
  4 35  1  0
  4 36  1  0
  5 37  1  0
  5 38  1  0
  5 39  1  0
  6 40  1  0
  6 41  1  0
  7 42  1  0
  7 43  1  0
  9 44  1  0
  9 45  1  0
 10 46  1  0
 10 47  1  0
 11 48  1  0
 13 49  1  0
 14 50  1  0
 17 51  1  0
 18 52  1  0
 22 53  1  0
 23 54  1  0
 24 55  1  0
 27 56  1  0
 29 57  1  0
M  END
>  <smiles>  (10) 
CCN(CC)CCOCCNc1ccc2nc[nH]c(=Nc3cccc(Br)c3)c2c1

>  <score_type>  (10) 
oracle

>  <origin>  (10) 
adg

>  <m_score__min__energy>  (10) 
-8.7100000000000009

>  <m_primary>  (10) 
energy

$$$$
10:0
     RDKit          3D

 67 69  0  0  0  0  0  0  0  0999 V2000
   -6.2920   25.6810  -29.4890 C   0  0  0  0  0  0  0  0  0  0  0  0
   -5.1160   25.7200  -30.4760 C   0  0  0  0  0  0  0  0  0  0  0  0
   -4.2330   24.5220  -30.4580 N   0  0  0  0  0  0  0  0  0  0  0  0
   -3.0800   24.5500  -29.5290 C   0  0  0  0  0  0  0  0  0  0  0  0
   -2.2060   23.3070  -29.7060 C   0  0  0  0  0  0  0  0  0  0  0  0
   -4.9480   23.2280  -30.5030 C   0  0  0  0  0  0  0  0  0  0  0  0
   -6.0860   23.1890  -31.5330 C   0  0  0  0  0  0  0  0  0  0  0  0
   -5.6840   22.4010  -32.6980 N   0  0  0  0  0  0  0  0  0  0  0  0
   -5.5950   20.9650  -32.6650 C   0  0  0  0  0  0  0  0  0  0  0  0
   -6.7590   20.1850  -32.5130 C   0  0  0  0  0  0  0  0  0  0  0  0
   -8.0350   20.7900  -32.4220 C   0  0  0  0  0  0  0  0  0  0  0  0
   -9.1860   20.0170  -32.3020 C   0  0  0  0  0  0  0  0  0  0  0  0
   -9.0970   18.6310  -32.3030 C   0  0  0  0  0  0  0  0  0  0  0  0
   -7.8550   18.0070  -32.4180 C   0  0  0  0  0  0  0  0  0  0  0  0
   -6.6570   18.7660  -32.5010 C   0  0  0  0  0  0  0  0  0  0  0  0
   -5.4180   18.1560  -32.6080 N   0  0  0  0  0  0  0  0  0  0  0  0
   -5.2810   16.7070  -32.3410 C   0  0  0  0  0  0  0  0  0  0  0  0
   -4.3040   18.9070  -32.9480 C   0  0  0  0  0  0  0  0  0  0  0  0
   -3.0880   18.2980  -33.3460 C   0  0  0  0  0  0  0  0  0  0  0  0
   -1.9540   19.0570  -33.6490 C   0  0  0  0  0  0  0  0  0  0  0  0
   -0.7620   18.3970  -34.1080 N   0  0  0  0  0  0  0  0  0  0  0  0
    0.4040   18.3280  -33.2170 C   0  0  0  0  0  0  0  0  0  0  0  0
   -0.0230   18.4210  -31.7560 C   0  0  0  0  0  0  0  0  0  0  0  0
   -0.8330   17.5480  -35.3090 C   0  0  0  0  0  0  0  0  0  0  0  0
   -1.1310   16.0960  -34.9430 C   0  0  0  0  0  0  0  0  0  0  0  0
   -1.9950   20.4510  -33.5480 C   0  0  0  0  0  0  0  0  0  0  0  0
   -0.8310   21.1820  -33.8470 O   0  0  0  0  0  0  0  0  0  0  0  0
   -0.1680   21.1850  -35.1070 C   0  0  0  0  0  0  0  0  0  0  0  0
   -3.1960   21.0760  -33.1800 C   0  0  0  0  0  0  0  0  0  0  0  0
   -4.3650   20.3240  -32.9300 C   0  0  0  0  0  0  0  0  0  0  0  0
   -5.9066   25.6938  -28.4588 H   0  0  0  0  0  0  0  0  0  0  0  0
   -6.9356   26.5583  -29.6506 H   0  0  0  0  0  0  0  0  0  0  0  0
   -6.8761   24.7630  -29.6506 H   0  0  0  0  0  0  0  0  0  0  0  0
   -5.5270   25.8245  -31.4910 H   0  0  0  0  0  0  0  0  0  0  0  0
   -4.4865   26.5676  -30.1672 H   0  0  0  0  0  0  0  0  0  0  0  0
   -2.4760   25.4468  -29.7315 H   0  0  0  0  0  0  0  0  0  0  0  0
   -3.4605   24.5680  -28.4971 H   0  0  0  0  0  0  0  0  0  0  0  0
   -1.9275   22.9109  -28.7183 H   0  0  0  0  0  0  0  0  0  0  0  0
   -2.7657   22.5416  -30.2635 H   0  0  0  0  0  0  0  0  0  0  0  0
   -1.2963   23.5747  -30.2635 H   0  0  0  0  0  0  0  0  0  0  0  0
   -4.2238   22.4393  -30.7551 H   0  0  0  0  0  0  0  0  0  0  0  0
   -5.4039   23.0772  -29.5133 H   0  0  0  0  0  0  0  0  0  0  0  0
   -6.9758   22.7326  -31.0747 H   0  0  0  0  0  0  0  0  0  0  0  0
   -6.3151   24.2156  -31.8549 H   0  0  0  0  0  0  0  0  0  0  0  0
   -5.2530   22.9160  -33.5020 H   0  0  0  0  0  0  0  0  0  0  0  0
   -8.1183   21.8866  -32.4465 H   0  0  0  0  0  0  0  0  0  0  0  0
  -10.1675   20.5044  -32.2062 H   0  0  0  0  0  0  0  0  0  0  0  0
  -10.0094   18.0232  -32.2128 H   0  0  0  0  0  0  0  0  0  0  0  0
   -7.8022   16.9086  -32.4449 H   0  0  0  0  0  0  0  0  0  0  0  0
   -5.2647   16.5343  -31.2548 H   0  0  0  0  0  0  0  0  0  0  0  0
   -6.1324   16.1703  -32.7849 H   0  0  0  0  0  0  0  0  0  0  0  0
   -4.3441   16.3393  -32.7849 H   0  0  0  0  0  0  0  0  0  0  0  0
   -3.0352   17.2016  -33.4182 H   0  0  0  0  0  0  0  0  0  0  0  0
    0.9260   17.3736  -33.3798 H   0  0  0  0  0  0  0  0  0  0  0  0
    1.0706   19.1732  -33.4434 H   0  0  0  0  0  0  0  0  0  0  0  0
    0.8452   18.2319  -31.1075 H   0  0  0  0  0  0  0  0  0  0  0  0
   -0.4200   19.4267  -31.5533 H   0  0  0  0  0  0  0  0  0  0  0  0
   -0.8022   17.6715  -31.5533 H   0  0  0  0  0  0  0  0  0  0  0  0
   -1.6310   17.9231  -35.9667 H   0  0  0  0  0  0  0  0  0  0  0  0
    0.1406   17.5853  -35.8195 H   0  0  0  0  0  0  0  0  0  0  0  0
   -1.1526   15.9908  -33.8483 H   0  0  0  0  0  0  0  0  0  0  0  0
   -2.1074   15.8061  -35.3585 H   0  0  0  0  0  0  0  0  0  0  0  0
   -0.3478   15.4450  -35.3585 H   0  0  0  0  0  0  0  0  0  0  0  0
    0.9205   21.1899  -34.9485 H   0  0  0  0  0  0  0  0  0  0  0  0
   -0.4521   20.2856  -35.6730 H   0  0  0  0  0  0  0  0  0  0  0  0
   -0.4602   22.0818  -35.6730 H   0  0  0  0  0  0  0  0  0  0  0  0
   -3.2277   22.1714  -33.0845 H   0  0  0  0  0  0  0  0  0  0  0  0
  1  2  1  0
  2  3  1  0
  3  4  1  0
  4  5  1  0
  3  6  1  0
  6  7  1  0
  7  8  1  0
  8  9  1  0
  9 10  2  0
 10 11  1  0
 11 12  2  0
 12 13  1  0
 13 14  2  0
 14 15  1  0
 15 16  2  0
 16 17  1  0
 16 18  1  0
 18 19  2  0
 19 20  1  0
 20 21  1  0
 21 22  1  0
 22 23  1  0
 21 24  1  0
 24 25  1  0
 20 26  2  0
 26 27  1  0
 27 28  1  0
 26 29  1  0
 29 30  2  0
 30  9  1  0
 15 10  1  0
 30 18  1  0
  1 31  1  0
  1 32  1  0
  1 33  1  0
  2 34  1  0
  2 35  1  0
  4 36  1  0
  4 37  1  0
  5 38  1  0
  5 39  1  0
  5 40  1  0
  6 41  1  0
  6 42  1  0
  7 43  1  0
  7 44  1  0
  8 45  1  0
 11 46  1  0
 12 47  1  0
 13 48  1  0
 14 49  1  0
 17 50  1  0
 17 51  1  0
 17 52  1  0
 19 53  1  0
 22 54  1  0
 22 55  1  0
 23 56  1  0
 23 57  1  0
 23 58  1  0
 24 59  1  0
 24 60  1  0
 25 61  1  0
 25 62  1  0
 25 63  1  0
 28 64  1  0
 28 65  1  0
 28 66  1  0
 29 67  1  0
M  CHG  1  16   1
M  END
>  <UniqueID>  (11) 
10

>  <SMILES>  (11) 
CCN(CC)CCNc1c2ccccc2[n+](C)c2cc(N(CC)CC)c(OC)cc12

>  <Energy>  (11) 
97.37291695196103

>  <Genealogy>  (11) 
CCN(CC)CCNc1c2ccccc2[n+](C)c2cc(N(CC)CC)c(OC)cc12 (3D coordinates assigned)
CCN(CC)CCNc1c2ccccc2[n+](C)c2cc(N(CC)CC)c(OC)cc12 (optimized conformer: 97.37291695196103 kcal/mol)

>  <smiles>  (11) 
CCN(CC)CCNc1c2ccccc2[n+](C)c2cc(N(CC)CC)c(OC)cc12

>  <score_type>  (11) 
oracle

>  <origin>  (11) 
adg

>  <m_score__min__energy>  (11) 
-8.4499999999999993

>  <m_primary>  (11) 
energy

$$$$
11:0
     RDKit          3D

 51 53  0  0  0  0  0  0  0  0999 V2000
   -5.8700   14.0940  -33.9020 C   0  0  0  0  0  0  0  0  0  0  0  0
   -6.4260   15.2980  -34.4200 O   0  0  0  0  0  0  0  0  0  0  0  0
   -6.1670   16.5810  -33.9110 C   0  0  0  0  0  0  0  0  0  0  0  0
   -7.1960   17.4630  -33.5520 C   0  0  0  0  0  0  0  0  0  0  0  0
   -6.9050   18.7390  -33.0450 C   0  0  0  0  0  0  0  0  0  0  0  0
   -7.9530   19.5900  -32.6960 C   0  0  0  0  0  0  0  0  0  0  0  0
   -7.7210   20.8390  -32.2000 N   0  0  0  0  0  0  0  0  0  0  0  0
   -8.8930   21.6640  -31.8540 C   0  0  0  0  0  0  0  0  0  0  0  0
   -6.4320   21.3010  -32.0300 C   0  0  0  0  0  0  0  0  0  0  0  0
   -6.1850   22.5980  -31.5200 C   0  0  0  0  0  0  0  0  0  0  0  0
   -4.8820   23.0780  -31.3320 C   0  0  0  0  0  0  0  0  0  0  0  0
   -4.6160   24.3610  -30.8190 O   0  0  0  0  0  0  0  0  0  0  0  0
   -5.1820   24.9240  -29.6340 C   0  0  0  0  0  0  0  0  0  0  0  0
   -4.6200   24.2270  -28.3870 C   0  0  0  0  0  0  0  0  0  0  0  0
   -3.0840   24.1410  -28.4010 C   0  0  0  0  0  0  0  0  0  0  0  0
   -2.4960   24.8470  -29.5390 N   0  0  0  0  0  0  0  0  0  0  0  0
   -3.7950   22.2710  -31.6640 C   0  0  0  0  0  0  0  0  0  0  0  0
   -2.5040   22.7890  -31.4670 O   0  0  0  0  0  0  0  0  0  0  0  0
   -1.3940   22.0460  -30.9710 C   0  0  0  0  0  0  0  0  0  0  0  0
   -4.0130   20.9820  -32.1780 C   0  0  0  0  0  0  0  0  0  0  0  0
   -5.3210   20.4710  -32.3690 C   0  0  0  0  0  0  0  0  0  0  0  0
   -5.5680   19.1640  -32.8870 C   0  0  0  0  0  0  0  0  0  0  0  0
   -4.5400   18.2590  -33.2550 C   0  0  0  0  0  0  0  0  0  0  0  0
   -4.8360   16.9800  -33.7630 C   0  0  0  0  0  0  0  0  0  0  0  0
   -3.8300   16.0700  -34.1330 O   0  0  0  0  0  0  0  0  0  0  0  0
   -3.2240   16.0060  -35.4200 C   0  0  0  0  0  0  0  0  0  0  0  0
   -5.8850   14.1265  -32.8026 H   0  0  0  0  0  0  0  0  0  0  0  0
   -6.4631   13.2361  -34.2516 H   0  0  0  0  0  0  0  0  0  0  0  0
   -4.8323   13.9892  -34.2516 H   0  0  0  0  0  0  0  0  0  0  0  0
   -8.2443   17.1511  -33.6691 H   0  0  0  0  0  0  0  0  0  0  0  0
   -8.9901   19.2462  -32.8236 H   0  0  0  0  0  0  0  0  0  0  0  0
   -8.9854   21.7291  -30.7598 H   0  0  0  0  0  0  0  0  0  0  0  0
   -8.7670   22.6736  -32.2720 H   0  0  0  0  0  0  0  0  0  0  0  0
   -9.8010   21.2048  -32.2720 H   0  0  0  0  0  0  0  0  0  0  0  0
   -7.0370   23.2453  -31.2649 H   0  0  0  0  0  0  0  0  0  0  0  0
   -4.9386   25.9959  -29.5904 H   0  0  0  0  0  0  0  0  0  0  0  0
   -6.2727   24.7839  -29.6591 H   0  0  0  0  0  0  0  0  0  0  0  0
   -4.9335   24.7912  -27.4963 H   0  0  0  0  0  0  0  0  0  0  0  0
   -5.0118   23.1992  -28.3739 H   0  0  0  0  0  0  0  0  0  0  0  0
   -2.6969   24.5847  -27.4718 H   0  0  0  0  0  0  0  0  0  0  0  0
   -2.8085   23.0795  -28.4863 H   0  0  0  0  0  0  0  0  0  0  0  0
   -3.0910   25.6710  -29.7830 H   0  0  0  0  0  0  0  0  0  0  0  0
   -2.4680   24.2080  -30.3650 H   0  0  0  0  0  0  0  0  0  0  0  0
   -1.4084   22.0556  -29.8711 H   0  0  0  0  0  0  0  0  0  0  0  0
   -1.4579   21.0080  -31.3295 H   0  0  0  0  0  0  0  0  0  0  0  0
   -0.4587   22.5008  -31.3295 H   0  0  0  0  0  0  0  0  0  0  0  0
   -3.1480   20.3544  -32.4384 H   0  0  0  0  0  0  0  0  0  0  0  0
   -3.4890   18.5630  -33.1410 H   0  0  0  0  0  0  0  0  0  0  0  0
   -2.1358   15.8911  -35.3076 H   0  0  0  0  0  0  0  0  0  0  0  0
   -3.6284   15.1456  -35.9733 H   0  0  0  0  0  0  0  0  0  0  0  0
   -3.4397   16.9319  -35.9733 H   0  0  0  0  0  0  0  0  0  0  0  0
  1  2  1  0
  2  3  1  0
  3  4  2  0
  4  5  1  0
  5  6  2  0
  6  7  1  0
  7  8  1  0
  7  9  2  0
  9 10  1  0
 10 11  2  0
 11 12  1  0
 12 13  1  0
 13 14  1  0
 14 15  1  0
 15 16  1  0
 11 17  1  0
 17 18  1  0
 18 19  1  0
 17 20  2  0
 20 21  1  0
 21 22  2  0
 22 23  1  0
 23 24  2  0
 24 25  1  0
 25 26  1  0
 24  3  1  0
 22  5  1  0
 21  9  1  0
  1 27  1  0
  1 28  1  0
  1 29  1  0
  4 30  1  0
  6 31  1  0
  8 32  1  0
  8 33  1  0
  8 34  1  0
 10 35  1  0
 13 36  1  0
 13 37  1  0
 14 38  1  0
 14 39  1  0
 15 40  1  0
 15 41  1  0
 16 42  1  0
 16 43  1  0
 19 44  1  0
 19 45  1  0
 19 46  1  0
 20 47  1  0
 23 48  1  0
 26 49  1  0
 26 50  1  0
 26 51  1  0
M  CHG  1   7   1
M  END
>  <UniqueID>  (12) 
11

>  <SMILES>  (12) 
COc1cc2c[n+](C)c3cc(OCCCN)c(OC)cc3c2cc1OC

>  <Energy>  (12) 
64.16649621577432

>  <Genealogy>  (12) 
COc1cc2c[n+](C)c3cc(OCCCN)c(OC)cc3c2cc1OC (3D coordinates assigned)
COc1cc2c[n+](C)c3cc(OCCCN)c(OC)cc3c2cc1OC (optimized conformer: 64.16649621577432 kcal/mol)

>  <smiles>  (12) 
COc1cc2c[n+](C)c3cc(OCCCN)c(OC)cc3c2cc1OC

>  <score_type>  (12) 
oracle

>  <origin>  (12) 
adg

>  <m_score__min__energy>  (12) 
-6.8399999999999999

>  <m_primary>  (12) 
energy

$$$$
12:0
     RDKit          3D

 42 43  0  0  0  0  0  0  0  0999 V2000
   -3.1750   14.6410  -32.7840 C   0  0  0  0  0  0  0  0  0  0  0  0
   -2.9370   15.6590  -33.9040 C   0  0  0  0  0  0  0  0  0  0  0  0
   -3.5260   16.9900  -33.6010 N   0  0  0  0  0  0  0  0  0  0  0  0
   -2.5260   18.0960  -33.6970 C   0  0  0  0  0  0  0  0  0  0  0  0
   -3.1830   19.4800  -33.6380 C   0  0  0  0  0  0  0  0  0  0  0  0
   -4.7180   17.2530  -34.4490 C   0  0  0  0  0  0  0  0  0  0  0  0
   -5.9560   16.4160  -34.0680 C   0  0  0  0  0  0  0  0  0  0  0  0
   -6.5200   16.8070  -32.4200 S   0  0  0  0  0  0  0  0  0  0  0  0
   -5.3870   16.4590  -31.2270 O   0  0  0  0  0  0  0  0  0  0  0  0
   -7.2040   18.4160  -32.2510 C   0  0  0  0  0  0  0  0  0  0  0  0
   -8.5780   18.5860  -32.0390 C   0  0  0  0  0  0  0  0  0  0  0  0
   -9.1160   19.8680  -31.8990 C   0  0  0  0  0  0  0  0  0  0  0  0
   -8.2850   20.9940  -31.9780 C   0  0  0  0  0  0  0  0  0  0  0  0
   -8.8140   22.2870  -31.8390 C   0  0  0  0  0  0  0  0  0  0  0  0
   -7.9750   23.4010  -31.9200 C   0  0  0  0  0  0  0  0  0  0  0  0
   -6.6040   23.2350  -32.1390 C   0  0  0  0  0  0  0  0  0  0  0  0
   -6.0630   21.9530  -32.2790 C   0  0  0  0  0  0  0  0  0  0  0  0
   -6.8960   20.8260  -32.2000 C   0  0  0  0  0  0  0  0  0  0  0  0
   -6.3660   19.5340  -32.3380 C   0  0  0  0  0  0  0  0  0  0  0  0
   -3.0594   15.1356  -31.8083 H   0  0  0  0  0  0  0  0  0  0  0  0
   -4.1928   14.2327  -32.8698 H   0  0  0  0  0  0  0  0  0  0  0  0
   -2.4437   13.8238  -32.8698 H   0  0  0  0  0  0  0  0  0  0  0  0
   -1.8529   15.7778  -34.0476 H   0  0  0  0  0  0  0  0  0  0  0  0
   -3.4268   15.2766  -34.8116 H   0  0  0  0  0  0  0  0  0  0  0  0
   -3.8990   16.9460  -32.6220 H   0  0  0  0  0  0  0  0  0  0  0  0
   -1.8165   18.0051  -32.8613 H   0  0  0  0  0  0  0  0  0  0  0  0
   -2.0164   18.0061  -34.6677 H   0  0  0  0  0  0  0  0  0  0  0  0
   -3.3230   19.7749  -32.5876 H   0  0  0  0  0  0  0  0  0  0  0  0
   -2.5373   20.2142  -34.1421 H   0  0  0  0  0  0  0  0  0  0  0  0
   -4.1600   19.4439  -34.1421 H   0  0  0  0  0  0  0  0  0  0  0  0
   -4.9790   18.3177  -34.3581 H   0  0  0  0  0  0  0  0  0  0  0  0
   -4.4463   16.9696  -35.4766 H   0  0  0  0  0  0  0  0  0  0  0  0
   -6.7649   16.6265  -34.7831 H   0  0  0  0  0  0  0  0  0  0  0  0
   -5.6785   15.3520  -34.0971 H   0  0  0  0  0  0  0  0  0  0  0  0
   -5.8970   16.0030  -30.5130 H   0  0  0  0  0  0  0  0  0  0  0  0
   -9.2364   17.7066  -31.9825 H   0  0  0  0  0  0  0  0  0  0  0  0
  -10.1950   19.9939  -31.7263 H   0  0  0  0  0  0  0  0  0  0  0  0
   -9.8917   22.4232  -31.6659 H   0  0  0  0  0  0  0  0  0  0  0  0
   -8.3943   24.4121  -31.8111 H   0  0  0  0  0  0  0  0  0  0  0  0
   -5.9485   24.1161  -32.2014 H   0  0  0  0  0  0  0  0  0  0  0  0
   -4.9838   21.8277  -32.4512 H   0  0  0  0  0  0  0  0  0  0  0  0
   -5.2887   19.3993  -32.5151 H   0  0  0  0  0  0  0  0  0  0  0  0
  1  2  1  0
  2  3  1  0
  3  4  1  0
  4  5  1  0
  3  6  1  0
  6  7  1  0
  7  8  1  0
  8  9  1  1
  8 10  1  0
 10 11  2  0
 11 12  1  0
 12 13  2  0
 13 14  1  0
 14 15  2  0
 15 16  1  0
 16 17  2  0
 17 18  1  0
 18 19  2  0
 19 10  1  0
 18 13  1  0
  1 20  1  0
  1 21  1  0
  1 22  1  0
  2 23  1  0
  2 24  1  0
  3 25  1  0
  4 26  1  0
  4 27  1  0
  5 28  1  0
  5 29  1  0
  5 30  1  0
  6 31  1  0
  6 32  1  0
  7 33  1  0
  7 34  1  0
  9 35  1  0
 11 36  1  0
 12 37  1  0
 14 38  1  0
 15 39  1  0
 16 40  1  0
 17 41  1  0
 19 42  1  0
M  CHG  2   3   1   8   1
M  END
>  <UniqueID>  (13) 
12

>  <SMILES>  (13) 
CC[NH+](CC)CC[S@@+](O)c1ccc2ccccc2c1

>  <Energy>  (13) 
43.02647079651892

>  <Genealogy>  (13) 
CC[NH+](CC)CC[S+](O)c1ccc2ccccc2c1 (protonated)
CC[NH+](CC)CC[S@@+](O)c1ccc2ccccc2c1 (chirality)
CC[NH+](CC)CC[S@@+](O)c1ccc2ccccc2c1 (3D coordinates assigned)
CC[NH+](CC)CC[S@@+](O)c1ccc2ccccc2c1 (optimized conformer: 43.02647079651892 kcal/mol)

>  <smiles>  (13) 
CCN(CC)CC[S+]([O-])c1ccc2ccccc2c1

>  <score_type>  (13) 
oracle

>  <origin>  (13) 
adg

>  <m_score__min__energy>  (13) 
-6.2699999999999996

>  <m_primary>  (13) 
energy

$$$$
13:0
     RDKit          3D

 36 39  0  0  0  0  0  0  0  0999 V2000
    0.1240   21.3320  -35.0030 C   0  0  0  0  0  0  0  0  0  0  0  0
   -0.8830   21.7670  -34.0950 O   0  0  0  0  0  0  0  0  0  0  0  0
   -1.9800   20.9880  -33.6940 C   0  0  0  0  0  0  0  0  0  0  0  0
   -2.0260   19.5980  -33.8920 C   0  0  0  0  0  0  0  0  0  0  0  0
   -3.1600   18.8740  -33.5250 C   0  0  0  0  0  0  0  0  0  0  0  0
   -4.2500   19.5210  -32.9260 C   0  0  0  0  0  0  0  0  0  0  0  0
   -5.4150   18.8060  -32.6470 C   0  0  0  0  0  0  0  0  0  0  0  0
   -6.5270   19.4740  -32.1470 C   0  0  0  0  0  0  0  0  0  0  0  0
   -6.4740   20.8090  -31.8640 N   0  0  0  0  0  0  0  0  0  0  0  0
   -5.2950   21.5130  -31.9780 C   0  0  0  0  0  0  0  0  0  0  0  0
   -4.1870   20.9050  -32.6360 C   0  0  0  0  0  0  0  0  0  0  0  0
   -3.0610   21.6310  -33.0840 C   0  0  0  0  0  0  0  0  0  0  0  0
   -5.2590   22.9050  -31.4270 C   0  0  0  0  0  0  0  0  0  0  0  0
   -4.1140   23.4550  -30.8170 C   0  0  0  0  0  0  0  0  0  0  0  0
   -4.1470   24.7510  -30.2920 C   0  0  0  0  0  0  0  0  0  0  0  0
   -3.0010   25.2970  -29.7260 O   0  0  0  0  0  0  0  0  0  0  0  0
   -5.3290   25.4930  -30.3270 C   0  0  0  0  0  0  0  0  0  0  0  0
   -6.4960   24.9220  -30.8420 C   0  0  0  0  0  0  0  0  0  0  0  0
   -6.4730   23.6170  -31.3540 C   0  0  0  0  0  0  0  0  0  0  0  0
   -7.7410   22.9400  -31.7920 C   0  0  0  0  0  0  0  0  0  0  0  0
   -7.6970   21.4670  -31.3650 C   0  0  0  0  0  0  0  0  0  0  0  0
    0.9904   20.9578  -34.4379 H   0  0  0  0  0  0  0  0  0  0  0  0
   -0.2764   20.5266  -35.6363 H   0  0  0  0  0  0  0  0  0  0  0  0
    0.4359   22.1756  -35.6363 H   0  0  0  0  0  0  0  0  0  0  0  0
   -1.1648   19.0790  -34.3380 H   0  0  0  0  0  0  0  0  0  0  0  0
   -3.1994   17.7898  -33.7064 H   0  0  0  0  0  0  0  0  0  0  0  0
   -5.4535   17.7206  -32.8215 H   0  0  0  0  0  0  0  0  0  0  0  0
   -7.4619   18.9199  -31.9771 H   0  0  0  0  0  0  0  0  0  0  0  0
   -3.0344   22.7225  -32.9504 H   0  0  0  0  0  0  0  0  0  0  0  0
   -3.1896   22.8621  -30.7534 H   0  0  0  0  0  0  0  0  0  0  0  0
   -5.3418   26.5261  -29.9496 H   0  0  0  0  0  0  0  0  0  0  0  0
   -7.4337   25.4971  -30.8457 H   0  0  0  0  0  0  0  0  0  0  0  0
   -8.6039   23.4342  -31.3217 H   0  0  0  0  0  0  0  0  0  0  0  0
   -7.8376   23.0060  -32.8858 H   0  0  0  0  0  0  0  0  0  0  0  0
   -7.7137   21.4100  -30.2666 H   0  0  0  0  0  0  0  0  0  0  0  0
   -8.5710   20.9521  -31.7905 H   0  0  0  0  0  0  0  0  0  0  0  0
  1  2  1  0
  2  3  1  0
  3  4  2  0
  4  5  1  0
  5  6  2  0
  6  7  1  0
  7  8  2  0
  8  9  1  0
  9 10  2  0
 10 11  1  0
 11 12  2  0
 10 13  1  0
 13 14  2  0
 14 15  1  0
 15 16  1  0
 15 17  2  0
 17 18  1  0
 18 19  2  0
 19 20  1  0
 20 21  1  0
 12  3  1  0
 19 13  1  0
 11  6  1  0
 21  9  1  0
  1 22  1  0
  1 23  1  0
  1 24  1  0
  4 25  1  0
  5 26  1  0
  7 27  1  0
  8 28  1  0
 12 29  1  0
 14 30  1  0
 17 31  1  0
 18 32  1  0
 20 33  1  0
 20 34  1  0
 21 35  1  0
 21 36  1  0
M  CHG  2   9   1  16  -1
M  END
>  <UniqueID>  (14) 
13

>  <SMILES>  (14) 
COc1ccc2cc[n+]3c(c2c1)-c1cc([O-])ccc1CC3

>  <Energy>  (14) 
57.86714352720775

>  <Genealogy>  (14) 
COc1ccc2cc[n+]3c(c2c1)-c1cc([O-])ccc1CC3 (protonated)
COc1ccc2cc[n+]3c(c2c1)-c1cc([O-])ccc1CC3 (3D coordinates assigned)
COc1ccc2cc[n+]3c(c2c1)-c1cc([O-])ccc1CC3 (nonaromatic ring conformer: 57.86714352720775 kcal/mol)

>  <smiles>  (14) 
COc1ccc2cc[n+]3c(c2c1)-c1cc(O)ccc1CC3

>  <score_type>  (14) 
oracle

>  <origin>  (14) 
adg

>  <m_score__min__energy>  (14) 
-10.6

>  <m_primary>  (14) 
energy

$$$$
14:0
     RDKit          3D

 29 30  0  0  0  0  0  0  0  0999 V2000
   -4.6680   23.0370  -32.8070 O   0  0  0  0  0  0  0  0  0  0  0  0
   -5.7680   22.8140  -31.9750 C   0  0  0  0  0  0  0  0  0  0  0  0
   -6.1200   23.7110  -30.9340 C   0  0  0  0  0  0  0  0  0  0  0  0
   -5.2990   24.9440  -30.6230 C   0  0  0  0  0  0  0  0  0  0  0  0
   -3.8530   24.6650  -30.6140 N   0  0  0  0  0  0  0  0  0  0  0  0
   -3.4570   23.6460  -29.6230 C   0  0  0  0  0  0  0  0  0  0  0  0
   -3.1830   24.2540  -28.2430 C   0  0  0  0  0  0  0  0  0  0  0  0
   -1.4470   25.1110  -28.2250 Br  0  0  0  0  0  0  0  0  0  0  0  0
   -7.2430   23.4300  -30.1360 C   0  0  0  0  0  0  0  0  0  0  0  0
   -8.0100   22.2850  -30.3530 C   0  0  0  0  0  0  0  0  0  0  0  0
   -7.6660   21.3960  -31.3750 C   0  0  0  0  0  0  0  0  0  0  0  0
   -8.4180   20.2380  -31.6110 C   0  0  0  0  0  0  0  0  0  0  0  0
   -8.0490   19.3690  -32.6400 C   0  0  0  0  0  0  0  0  0  0  0  0
   -6.9330   19.6660  -33.4240 C   0  0  0  0  0  0  0  0  0  0  0  0
   -6.2100   20.7930  -33.1840 N   0  0  0  0  0  0  0  0  0  0  0  0
   -6.5420   21.6620  -32.1890 C   0  0  0  0  0  0  0  0  0  0  0  0
   -4.5940   22.6770  -33.7490 H   0  0  0  0  0  0  0  0  0  0  0  0
   -5.5069   25.7090  -31.3856 H   0  0  0  0  0  0  0  0  0  0  0  0
   -5.5810   25.2914  -29.6181 H   0  0  0  0  0  0  0  0  0  0  0  0
   -3.5210   24.4130  -31.5740 H   0  0  0  0  0  0  0  0  0  0  0  0
   -4.2679   22.9086  -29.5302 H   0  0  0  0  0  0  0  0  0  0  0  0
   -2.5265   23.1769  -29.9754 H   0  0  0  0  0  0  0  0  0  0  0  0
   -3.9588   24.9992  -28.0134 H   0  0  0  0  0  0  0  0  0  0  0  0
   -3.1969   23.4539  -27.4883 H   0  0  0  0  0  0  0  0  0  0  0  0
   -7.5210   24.1233  -29.3285 H   0  0  0  0  0  0  0  0  0  0  0  0
   -8.8859   22.0818  -29.7194 H   0  0  0  0  0  0  0  0  0  0  0  0
   -9.2963   20.0139  -30.9878 H   0  0  0  0  0  0  0  0  0  0  0  0
   -8.6336   18.4570  -32.8313 H   0  0  0  0  0  0  0  0  0  0  0  0
   -6.6375   18.9873  -34.2377 H   0  0  0  0  0  0  0  0  0  0  0  0
  1  2  1  0
  2  3  2  0
  3  4  1  0
  4  5  1  0
  5  6  1  0
  6  7  1  0
  7  8  1  0
  3  9  1  0
  9 10  2  0
 10 11  1  0
 11 12  2  0
 12 13  1  0
 13 14  2  0
 14 15  1  0
 15 16  2  0
 16  2  1  0
 16 11  1  0
  1 17  1  0
  4 18  1  0
  4 19  1  0
  5 20  1  0
  6 21  1  0
  6 22  1  0
  7 23  1  0
  7 24  1  0
  9 25  1  0
 10 26  1  0
 12 27  1  0
 13 28  1  0
 14 29  1  0
M  END
>  <UniqueID>  (15) 
14

>  <SMILES>  (15) 
Oc1c(CNCCBr)ccc2cccnc12

>  <Energy>  (15) 
33.68230541679756

>  <Genealogy>  (15) 
Oc1c(CNCCBr)ccc2cccnc12 (3D coordinates assigned)
Oc1c(CNCCBr)ccc2cccnc12 (optimized conformer: 33.68230541679756 kcal/mol)

>  <smiles>  (15) 
Oc1c(CNCCBr)ccc2cccnc12

>  <score_type>  (15) 
oracle

>  <origin>  (15) 
adg

>  <m_score__min__energy>  (15) 
-6.9699999999999998

>  <m_primary>  (15) 
energy

$$$$
15:0
     RDKit          3D

 47 48  0  0  0  0  0  0  0  0999 V2000
   -6.0340   17.7680  -34.2210 C   0  0  0  0  0  0  0  0  0  0  0  0
   -6.3170   17.9810  -32.7310 C   0  0  0  0  0  0  0  0  0  0  0  0
   -6.6390   19.3780  -32.3710 N   0  0  0  0  0  0  0  0  0  0  0  0
   -7.8030   19.9170  -33.1020 C   0  0  0  0  0  0  0  0  0  0  0  0
   -9.0640   19.8320  -32.2480 C   0  0  0  0  0  0  0  0  0  0  0  0
   -5.2380   20.4400  -32.3890 S   0  0  0  0  0  0  0  0  0  0  0  0
   -4.0890   19.7340  -31.7250 O   0  0  0  0  0  0  0  0  0  0  0  0
   -4.8330   20.7180  -33.8100 O   0  0  0  0  0  0  0  0  0  0  0  0
   -5.4920   21.9830  -31.5560 C   0  0  0  0  0  0  0  0  0  0  0  0
   -6.7830   22.4050  -31.2190 C   0  0  0  0  0  0  0  0  0  0  0  0
   -6.9790   23.6200  -30.5620 C   0  0  0  0  0  0  0  0  0  0  0  0
   -5.8890   24.4450  -30.2460 C   0  0  0  0  0  0  0  0  0  0  0  0
   -6.1390   25.7590  -29.5610 C   0  0  0  0  0  0  0  0  0  0  0  0
   -4.5920   24.0670  -30.6530 C   0  0  0  0  0  0  0  0  0  0  0  0
   -3.4790   24.9260  -30.3510 N   0  0  0  0  0  0  0  0  0  0  0  0
   -2.4830   24.7290  -29.3400 C   0  0  0  0  0  0  0  0  0  0  0  0
   -1.7300   25.6730  -28.9790 O   0  0  0  0  0  0  0  0  0  0  0  0
   -2.3920   23.4070  -28.6490 C   0  0  0  0  0  0  0  0  0  0  0  0
   -1.5460   22.1750  -29.6980 S   0  0  0  0  0  0  0  0  0  0  0  0
   -1.7390   20.8270  -28.5350 C   0  0  0  0  0  0  0  0  0  0  0  0
   -0.7040   19.9760  -28.3070 N   0  0  0  0  0  0  0  0  0  0  0  0
   -0.8270   18.9490  -27.4260 C   0  0  0  0  0  0  0  0  0  0  0  0
   -2.0260   18.7620  -26.7390 C   0  0  0  0  0  0  0  0  0  0  0  0
   -3.0770   19.6430  -26.9870 C   0  0  0  0  0  0  0  0  0  0  0  0
   -2.9170   20.6550  -27.8800 N   0  0  0  0  0  0  0  0  0  0  0  0
   -4.4040   22.8260  -31.2900 C   0  0  0  0  0  0  0  0  0  0  0  0
   -5.1601   17.1103  -34.3379 H   0  0  0  0  0  0  0  0  0  0  0  0
   -6.9094   17.3028  -34.6977 H   0  0  0  0  0  0  0  0  0  0  0  0
   -5.8292   18.7380  -34.6977 H   0  0  0  0  0  0  0  0  0  0  0  0
   -7.1692   17.3460  -32.4471 H   0  0  0  0  0  0  0  0  0  0  0  0
   -5.3941   17.7196  -32.1926 H   0  0  0  0  0  0  0  0  0  0  0  0
   -7.6118   20.9692  -33.3595 H   0  0  0  0  0  0  0  0  0  0  0  0
   -7.9536   19.3215  -34.0145 H   0  0  0  0  0  0  0  0  0  0  0  0
   -8.7878   19.8506  -31.1834 H   0  0  0  0  0  0  0  0  0  0  0  0
   -9.7172   20.6882  -32.4724 H   0  0  0  0  0  0  0  0  0  0  0  0
   -9.5964   18.8959  -32.4724 H   0  0  0  0  0  0  0  0  0  0  0  0
   -7.6481   21.7751  -31.4736 H   0  0  0  0  0  0  0  0  0  0  0  0
   -7.9973   23.9340  -30.2892 H   0  0  0  0  0  0  0  0  0  0  0  0
   -6.1116   25.6152  -28.4708 H   0  0  0  0  0  0  0  0  0  0  0  0
   -5.3619   26.4797  -29.8554 H   0  0  0  0  0  0  0  0  0  0  0  0
   -7.1265   26.1439  -29.8554 H   0  0  0  0  0  0  0  0  0  0  0  0
   -1.8284   23.5291  -27.7123 H   0  0  0  0  0  0  0  0  0  0  0  0
   -3.4115   23.0494  -28.4425 H   0  0  0  0  0  0  0  0  0  0  0  0
    0.0181   18.2660  -27.2549 H   0  0  0  0  0  0  0  0  0  0  0  0
   -2.1396   17.9387  -26.0184 H   0  0  0  0  0  0  0  0  0  0  0  0
   -4.0349   19.5194  -26.4606 H   0  0  0  0  0  0  0  0  0  0  0  0
   -3.3907   22.5137  -31.5827 H   0  0  0  0  0  0  0  0  0  0  0  0
  1  2  1  0
  2  3  1  0
  3  4  1  0
  4  5  1  0
  3  6  1  0
  6  7  2  0
  6  8  2  0
  6  9  1  0
  9 10  2  0
 10 11  1  0
 11 12  2  0
 12 13  1  0
 12 14  1  0
 14 15  1  0
 15 16  1  0
 16 17  2  0
 16 18  1  0
 18 19  1  0
 19 20  1  0
 20 21  2  0
 21 22  1  0
 22 23  2  0
 23 24  1  0
 24 25  2  0
 14 26  2  0
 26  9  1  0
 25 20  1  0
  1 27  1  0
  1 28  1  0
  1 29  1  0
  2 30  1  0
  2 31  1  0
  4 32  1  0
  4 33  1  0
  5 34  1  0
  5 35  1  0
  5 36  1  0
 10 37  1  0
 11 38  1  0
 13 39  1  0
 13 40  1  0
 13 41  1  0
 18 42  1  0
 18 43  1  0
 22 44  1  0
 23 45  1  0
 24 46  1  0
 26 47  1  0
M  CHG  1  15  -1
M  END
>  <UniqueID>  (16) 
15

>  <SMILES>  (16) 
CCN(CC)S(=O)(=O)c1ccc(C)c([N-]C(=O)CSc2ncccn2)c1

>  <Energy>  (16) 
45.858683866867196

>  <Genealogy>  (16) 
CCN(CC)S(=O)(=O)c1ccc(C)c([N-]C(=O)CSc2ncccn2)c1 (protonated)
CCN(CC)S(=O)(=O)c1ccc(C)c([N-]C(=O)CSc2ncccn2)c1 (3D coordinates assigned)
CCN(CC)S(=O)(=O)c1ccc(C)c([N-]C(=O)CSc2ncccn2)c1 (optimized conformer: 45.858683866867196 kcal/mol)

>  <smiles>  (16) 
CCN(CC)S(=O)(=O)c1ccc(C)c(NC(=O)CSc2ncccn2)c1

>  <score_type>  (16) 
oracle

>  <origin>  (16) 
adg

>  <m_score__min__energy>  (16) 
-10.43

>  <m_primary>  (16) 
energy

$$$$
16:0
     RDKit          3D

 62 65  0  0  0  0  0  0  0  0999 V2000
   -0.6450   19.9550  -29.0400 C   0  0  0  0  0  0  0  0  0  0  0  0
   -0.4360   19.9120  -27.5260 C   0  0  0  0  0  0  0  0  0  0  0  0
   -1.7270   20.0400  -26.8080 N   0  0  0  0  0  0  0  0  0  0  0  0
   -2.5880   18.8430  -27.0070 C   0  0  0  0  0  0  0  0  0  0  0  0
   -3.3790   18.5630  -25.7340 C   0  0  0  0  0  0  0  0  0  0  0  0
   -2.4230   21.2890  -27.2030 C   0  0  0  0  0  0  0  0  0  0  0  0
   -1.6470   22.5230  -26.7160 C   0  0  0  0  0  0  0  0  0  0  0  0
   -2.4900   23.7370  -26.8280 N   0  0  0  0  0  0  0  0  0  0  0  0
   -1.7790   24.8600  -27.4690 C   0  0  0  0  0  0  0  0  0  0  0  0
   -1.5710   24.6260  -28.9800 C   0  0  0  0  0  0  0  0  0  0  0  0
   -2.7380   23.9930  -29.6470 N   0  0  0  0  0  0  0  0  0  0  0  0
   -2.4870   22.6340  -30.1850 C   0  0  0  0  0  0  0  0  0  0  0  0
   -2.9990   22.5350  -31.6250 C   0  0  0  0  0  0  0  0  0  0  0  0
   -4.3670   21.9920  -31.6660 N   0  0  0  0  0  0  0  0  0  0  0  0
   -5.4980   22.8870  -31.6800 C   0  0  0  0  0  0  0  0  0  0  0  0
   -5.3210   24.1330  -31.5870 O   0  0  0  0  0  0  0  0  0  0  0  0
   -6.8690   22.3440  -31.8070 C   0  0  0  0  0  0  0  0  0  0  0  0
   -7.9790   23.2070  -31.8130 C   0  0  0  0  0  0  0  0  0  0  0  0
   -9.2740   22.6990  -31.9330 C   0  0  0  0  0  0  0  0  0  0  0  0
   -9.4820   21.3250  -32.0540 C   0  0  0  0  0  0  0  0  0  0  0  0
   -8.3910   20.4440  -32.0530 C   0  0  0  0  0  0  0  0  0  0  0  0
   -8.5990   19.0640  -32.1800 C   0  0  0  0  0  0  0  0  0  0  0  0
   -7.5140   18.1870  -32.1810 C   0  0  0  0  0  0  0  0  0  0  0  0
   -6.2110   18.6760  -32.0540 C   0  0  0  0  0  0  0  0  0  0  0  0
   -5.9760   20.0560  -31.9240 C   0  0  0  0  0  0  0  0  0  0  0  0
   -7.0700   20.9510  -31.9260 C   0  0  0  0  0  0  0  0  0  0  0  0
   -4.5940   20.5750  -31.7970 C   0  0  0  0  0  0  0  0  0  0  0  0
   -3.6170   19.7770  -31.8200 O   0  0  0  0  0  0  0  0  0  0  0  0
   -3.9810   24.0820  -28.8550 C   0  0  0  0  0  0  0  0  0  0  0  0
   -3.8150   23.4730  -27.4450 C   0  0  0  0  0  0  0  0  0  0  0  0
   -1.7010   20.1723  -29.2583 H   0  0  0  0  0  0  0  0  0  0  0  0
   -0.0112   20.7416  -29.4754 H   0  0  0  0  0  0  0  0  0  0  0  0
   -0.3732   18.9821  -29.4754 H   0  0  0  0  0  0  0  0  0  0  0  0
    0.0333   18.9549  -27.2546 H   0  0  0  0  0  0  0  0  0  0  0  0
    0.2108   20.7536  -27.2373 H   0  0  0  0  0  0  0  0  0  0  0  0
   -3.2850   19.0277  -27.8377 H   0  0  0  0  0  0  0  0  0  0  0  0
   -1.9559   17.9740  -27.2422 H   0  0  0  0  0  0  0  0  0  0  0  0
   -2.7530   18.7846  -24.8571 H   0  0  0  0  0  0  0  0  0  0  0  0
   -4.2771   19.1979  -25.7132 H   0  0  0  0  0  0  0  0  0  0  0  0
   -3.6777   17.5045  -25.7132 H   0  0  0  0  0  0  0  0  0  0  0  0
   -2.5059   21.3245  -28.2993 H   0  0  0  0  0  0  0  0  0  0  0  0
   -3.4223   21.2966  -26.7433 H   0  0  0  0  0  0  0  0  0  0  0  0
   -1.3571   22.3780  -25.6648 H   0  0  0  0  0  0  0  0  0  0  0  0
   -0.7499   22.6511  -27.3396 H   0  0  0  0  0  0  0  0  0  0  0  0
   -2.3677   25.7787  -27.3297 H   0  0  0  0  0  0  0  0  0  0  0  0
   -0.7881   24.9470  -26.9993 H   0  0  0  0  0  0  0  0  0  0  0  0
   -1.3801   25.5972  -29.4599 H   0  0  0  0  0  0  0  0  0  0  0  0
   -0.7223   23.9344  -29.0869 H   0  0  0  0  0  0  0  0  0  0  0  0
   -1.4062   22.4300  -30.1683 H   0  0  0  0  0  0  0  0  0  0  0  0
   -3.0166   21.8972  -29.5632 H   0  0  0  0  0  0  0  0  0  0  0  0
   -2.9971   23.5381  -32.0765 H   0  0  0  0  0  0  0  0  0  0  0  0
   -2.3376   21.8573  -32.1847 H   0  0  0  0  0  0  0  0  0  0  0  0
   -7.8257   24.2925  -31.7223 H   0  0  0  0  0  0  0  0  0  0  0  0
  -10.1338   23.3851  -31.9321 H   0  0  0  0  0  0  0  0  0  0  0  0
  -10.5047   20.9315  -32.1505 H   0  0  0  0  0  0  0  0  0  0  0  0
   -9.6215   18.6708  -32.2793 H   0  0  0  0  0  0  0  0  0  0  0  0
   -7.6850   17.1051  -32.2823 H   0  0  0  0  0  0  0  0  0  0  0  0
   -5.3627   17.9757  -32.0558 H   0  0  0  0  0  0  0  0  0  0  0  0
   -4.2622   25.1406  -28.7535 H   0  0  0  0  0  0  0  0  0  0  0  0
   -4.7603   23.5114  -29.3814 H   0  0  0  0  0  0  0  0  0  0  0  0
   -4.5920   23.8960  -26.7913 H   0  0  0  0  0  0  0  0  0  0  0  0
   -3.9043   22.3822  -27.5556 H   0  0  0  0  0  0  0  0  0  0  0  0
  1  2  1  0
  2  3  1  0
  3  4  1  0
  4  5  1  0
  3  6  1  0
  6  7  1  0
  7  8  1  0
  8  9  1  0
  9 10  1  0
 10 11  1  0
 11 12  1  0
 12 13  1  0
 13 14  1  0
 14 15  1  0
 15 16  2  0
 15 17  1  0
 17 18  2  0
 18 19  1  0
 19 20  2  0
 20 21  1  0
 21 22  2  0
 22 23  1  0
 23 24  2  0
 24 25  1  0
 25 26  2  0
 25 27  1  0
 27 28  2  0
 11 29  1  0
 29 30  1  0
 30  8  1  0
 27 14  1  0
 26 17  1  0
 26 21  1  0
  1 31  1  0
  1 32  1  0
  1 33  1  0
  2 34  1  0
  2 35  1  0
  4 36  1  0
  4 37  1  0
  5 38  1  0
  5 39  1  0
  5 40  1  0
  6 41  1  0
  6 42  1  0
  7 43  1  0
  7 44  1  0
  9 45  1  0
  9 46  1  0
 10 47  1  0
 10 48  1  0
 12 49  1  0
 12 50  1  0
 13 51  1  0
 13 52  1  0
 18 53  1  0
 19 54  1  0
 20 55  1  0
 22 56  1  0
 23 57  1  0
 24 58  1  0
 29 59  1  0
 29 60  1  0
 30 61  1  0
 30 62  1  0
M  END
>  <UniqueID>  (17) 
16

>  <SMILES>  (17) 
CCN(CC)CCN1CCN(CCN2C(=O)c3cccc4cccc(c34)C2=O)CC1

>  <Energy>  (17) 
84.37357515430337

>  <Genealogy>  (17) 
CCN(CC)CCN1CCN(CCN2C(=O)c3cccc4cccc(c34)C2=O)CC1 (3D coordinates assigned)
CCN(CC)CCN1CCN(CCN2C(=O)c3cccc4cccc(c34)C2=O)CC1 (nonaromatic ring conformer: 84.37357515430337 kcal/mol)

>  <smiles>  (17) 
CCN(CC)CCN1CCN(CCN2C(=O)c3cccc4cccc(c34)C2=O)CC1

>  <score_type>  (17) 
oracle

>  <origin>  (17) 
adg

>  <m_score__min__energy>  (17) 
-9.6400000000000006

>  <m_primary>  (17) 
energy

$$$$
17:0
     RDKit          3D

 44 44  0  0  0  0  0  0  0  0999 V2000
   -6.4440   25.3060  -29.7510 C   0  0  0  0  0  0  0  0  0  0  0  0
   -5.1550   25.1340  -30.5670 C   0  0  0  0  0  0  0  0  0  0  0  0
   -4.0050   24.6020  -29.7930 N   0  0  0  0  0  0  0  0  0  0  0  0
   -4.2970   24.3950  -28.3540 C   0  0  0  0  0  0  0  0  0  0  0  0
   -3.0220   24.1840  -27.5380 C   0  0  0  0  0  0  0  0  0  0  0  0
   -3.4330   23.3870  -30.4190 C   0  0  0  0  0  0  0  0  0  0  0  0
   -4.3700   22.1830  -30.2780 C   0  0  0  0  0  0  0  0  0  0  0  0
   -4.9620   21.6270  -31.8690 S   0  0  0  0  0  0  0  0  0  0  0  0
   -4.4950   22.6750  -33.0960 O   0  0  0  0  0  0  0  0  0  0  0  0
   -6.7080   21.3900  -31.8890 C   0  0  0  0  0  0  0  0  0  0  0  0
   -7.5220   22.4780  -31.5430 C   0  0  0  0  0  0  0  0  0  0  0  0
   -8.9110   22.3680  -31.5830 C   0  0  0  0  0  0  0  0  0  0  0  0
   -9.5030   21.1740  -31.9860 C   0  0  0  0  0  0  0  0  0  0  0  0
   -8.7080   20.0800  -32.3390 C   0  0  0  0  0  0  0  0  0  0  0  0
   -7.3000   20.1550  -32.2660 C   0  0  0  0  0  0  0  0  0  0  0  0
   -6.4460   18.9600  -32.6860 C   0  0  0  0  0  0  0  0  0  0  0  0
   -6.0850   19.0670  -34.1710 C   0  0  0  0  0  0  0  0  0  0  0  0
   -7.1160   17.6090  -32.3840 C   0  0  0  0  0  0  0  0  0  0  0  0
   -6.2055   25.2742  -28.6776 H   0  0  0  0  0  0  0  0  0  0  0  0
   -6.9063   26.2738  -29.9953 H   0  0  0  0  0  0  0  0  0  0  0  0
   -7.1438   24.4933  -29.9953 H   0  0  0  0  0  0  0  0  0  0  0  0
   -5.3623   24.4406  -31.3954 H   0  0  0  0  0  0  0  0  0  0  0  0
   -4.8646   26.1379  -30.9102 H   0  0  0  0  0  0  0  0  0  0  0  0
   -4.8243   25.2796  -27.9674 H   0  0  0  0  0  0  0  0  0  0  0  0
   -4.9162   23.4908  -28.2586 H   0  0  0  0  0  0  0  0  0  0  0  0
   -3.2624   24.2238  -26.4653 H   0  0  0  0  0  0  0  0  0  0  0  0
   -2.5896   23.2021  -27.7807 H   0  0  0  0  0  0  0  0  0  0  0  0
   -2.2964   24.9743  -27.7807 H   0  0  0  0  0  0  0  0  0  0  0  0
   -3.2627   23.5831  -31.4879 H   0  0  0  0  0  0  0  0  0  0  0  0
   -2.4890   23.1490  -29.9069 H   0  0  0  0  0  0  0  0  0  0  0  0
   -3.8250   21.3605  -29.7917 H   0  0  0  0  0  0  0  0  0  0  0  0
   -5.2370   22.4883  -29.6737 H   0  0  0  0  0  0  0  0  0  0  0  0
   -4.6150   22.1480  -33.9270 H   0  0  0  0  0  0  0  0  0  0  0  0
   -7.0597   23.4281  -31.2369 H   0  0  0  0  0  0  0  0  0  0  0  0
   -9.5392   23.2242  -31.2963 H   0  0  0  0  0  0  0  0  0  0  0  0
  -10.5991   21.0915  -32.0267 H   0  0  0  0  0  0  0  0  0  0  0  0
   -9.1853   19.1487  -32.6780 H   0  0  0  0  0  0  0  0  0  0  0  0
   -5.5267   18.9919  -32.0828 H   0  0  0  0  0  0  0  0  0  0  0  0
   -5.0348   19.3783  -34.2715 H   0  0  0  0  0  0  0  0  0  0  0  0
   -6.2253   18.0887  -34.6539 H   0  0  0  0  0  0  0  0  0  0  0  0
   -6.7357   19.8109  -34.6539 H   0  0  0  0  0  0  0  0  0  0  0  0
   -7.1853   17.4694  -31.2951 H   0  0  0  0  0  0  0  0  0  0  0  0
   -8.1256   17.5947  -32.8204 H   0  0  0  0  0  0  0  0  0  0  0  0
   -6.5163   16.7966  -32.8204 H   0  0  0  0  0  0  0  0  0  0  0  0
  1  2  1  0
  2  3  1  0
  3  4  1  0
  4  5  1  0
  3  6  1  0
  6  7  1  0
  7  8  1  0
  8  9  1  6
  8 10  1  0
 10 11  2  0
 11 12  1  0
 12 13  2  0
 13 14  1  0
 14 15  2  0
 15 16  1  0
 16 17  1  0
 16 18  1  0
 15 10  1  0
  1 19  1  0
  1 20  1  0
  1 21  1  0
  2 22  1  0
  2 23  1  0
  4 24  1  0
  4 25  1  0
  5 26  1  0
  5 27  1  0
  5 28  1  0
  6 29  1  0
  6 30  1  0
  7 31  1  0
  7 32  1  0
  9 33  1  0
 11 34  1  0
 12 35  1  0
 13 36  1  0
 14 37  1  0
 16 38  1  0
 17 39  1  0
 17 40  1  0
 17 41  1  0
 18 42  1  0
 18 43  1  0
 18 44  1  0
M  CHG  1   8   1
M  END
>  <UniqueID>  (18) 
17

>  <SMILES>  (18) 
CCN(CC)CC[S@@+](O)c1ccccc1C(C)C

>  <Energy>  (18) 
32.12423905908291

>  <Genealogy>  (18) 
CCN(CC)CC[S+](O)c1ccccc1C(C)C (protonated)
CCN(CC)CC[S@@+](O)c1ccccc1C(C)C (chirality)
CCN(CC)CC[S@@+](O)c1ccccc1C(C)C (3D coordinates assigned)
CCN(CC)CC[S@@+](O)c1ccccc1C(C)C (optimized conformer: 32.12423905908291 kcal/mol)

>  <smiles>  (18) 
CCN(CC)CC[S+]([O-])c1ccccc1C(C)C

>  <score_type>  (18) 
oracle

>  <origin>  (18) 
adg

>  <m_score__min__energy>  (18) 
-7.0700000000000003

>  <m_primary>  (18) 
energy

$$$$
18:0
     RDKit          3D

 29 30  0  0  0  0  0  0  0  0999 V2000
   -2.4090   21.6010  -31.8010 C   0  0  0  0  0  0  0  0  0  0  0  0
   -1.4420   21.2750  -32.9390 C   0  0  0  0  0  0  0  0  0  0  0  0
   -2.1760   20.8860  -34.1540 N   0  0  0  0  0  0  0  0  0  0  0  0
   -2.4030   19.4310  -34.2180 C   0  0  0  0  0  0  0  0  0  0  0  0
   -3.8150   19.0690  -33.8350 C   0  0  0  0  0  0  0  0  0  0  0  0
   -4.2560   17.7390  -33.8890 C   0  0  0  0  0  0  0  0  0  0  0  0
   -5.5620   17.4290  -33.5060 C   0  0  0  0  0  0  0  0  0  0  0  0
   -6.4190   18.4440  -33.0680 C   0  0  0  0  0  0  0  0  0  0  0  0
   -7.7370   18.1690  -32.6740 C   0  0  0  0  0  0  0  0  0  0  0  0
   -8.5690   19.2050  -32.2390 C   0  0  0  0  0  0  0  0  0  0  0  0
   -8.0900   20.5200  -32.1930 C   0  0  0  0  0  0  0  0  0  0  0  0
   -9.2320   21.9300  -31.5960 Br  0  0  0  0  0  0  0  0  0  0  0  0
   -6.7770   20.8030  -32.5840 C   0  0  0  0  0  0  0  0  0  0  0  0
   -5.9380   19.7720  -33.0220 C   0  0  0  0  0  0  0  0  0  0  0  0
   -4.6600   20.0440  -33.4010 N   0  0  0  0  0  0  0  0  0  0  0  0
   -1.9093   21.4325  -30.8356 H   0  0  0  0  0  0  0  0  0  0  0  0
   -2.7199   22.6536  -31.8742 H   0  0  0  0  0  0  0  0  0  0  0  0
   -3.2937   20.9515  -31.8742 H   0  0  0  0  0  0  0  0  0  0  0  0
   -0.8291   22.1621  -33.1566 H   0  0  0  0  0  0  0  0  0  0  0  0
   -0.8034   20.4347  -32.6289 H   0  0  0  0  0  0  0  0  0  0  0  0
   -3.0940   21.3890  -34.1960 H   0  0  0  0  0  0  0  0  0  0  0  0
   -1.6120   21.1590  -34.9940 H   0  0  0  0  0  0  0  0  0  0  0  0
   -2.2126   19.0855  -35.2448 H   0  0  0  0  0  0  0  0  0  0  0  0
   -1.7197   18.9460  -33.5054 H   0  0  0  0  0  0  0  0  0  0  0  0
   -3.5766   16.9445  -34.2312 H   0  0  0  0  0  0  0  0  0  0  0  0
   -5.9165   16.3886  -33.5485 H   0  0  0  0  0  0  0  0  0  0  0  0
   -8.1163   17.1370  -32.7073 H   0  0  0  0  0  0  0  0  0  0  0  0
   -9.6025   18.9865  -31.9321 H   0  0  0  0  0  0  0  0  0  0  0  0
   -6.4036   21.8370  -32.5472 H   0  0  0  0  0  0  0  0  0  0  0  0
  1  2  1  0
  2  3  1  0
  3  4  1  0
  4  5  1  0
  5  6  2  0
  6  7  1  0
  7  8  2  0
  8  9  1  0
  9 10  2  0
 10 11  1  0
 11 12  1  0
 11 13  2  0
 13 14  1  0
 14 15  2  0
 15  5  1  0
 14  8  1  0
  1 16  1  0
  1 17  1  0
  1 18  1  0
  2 19  1  0
  2 20  1  0
  3 21  1  0
  3 22  1  0
  4 23  1  0
  4 24  1  0
  6 25  1  0
  7 26  1  0
  9 27  1  0
 10 28  1  0
 13 29  1  0
M  CHG  1   3   1
M  END
>  <UniqueID>  (19) 
18

>  <SMILES>  (19) 
CC[NH2+]Cc1ccc2ccc(Br)cc2n1

>  <Energy>  (19) 
28.48206395879797

>  <Genealogy>  (19) 
CC[NH2+]Cc1ccc2ccc(Br)cc2n1 (protonated)
CC[NH2+]Cc1ccc2ccc(Br)cc2n1 (3D coordinates assigned)
CC[NH2+]Cc1ccc2ccc(Br)cc2n1 (optimized conformer: 28.48206395879797 kcal/mol)

>  <smiles>  (19) 
CCNCc1ccc2ccc(Br)cc2n1

>  <score_type>  (19) 
oracle

>  <origin>  (19) 
adg

>  <m_score__min__energy>  (19) 
-5.9100000000000001

>  <m_primary>  (19) 
energy

$$$$
19:0
     RDKit          3D

 41 43  0  0  1  0  0  0  0  0999 V2000
   -4.0270   24.1610  -28.2980 C   0  0  0  0  0  0  0  0  0  0  0  0
   -3.3180   24.3990  -29.6160 C   0  0  0  0  0  0  0  0  0  0  0  0
   -4.2600   24.5250  -30.7110 N   0  0  0  0  0  0  0  0  0  0  0  0
   -5.2560   25.5080  -30.4540 C   0  0  0  0  0  0  0  0  0  0  0  0
   -6.6150   24.9780  -30.1060 C   0  0  0  0  0  0  0  0  0  0  0  0
   -4.7310   23.2610  -31.1930 C   0  0  0  0  0  0  0  0  0  0  0  0
   -3.6760   22.1790  -31.0870 C   0  0  0  0  0  0  0  0  0  0  0  0
   -3.6870   21.4460  -32.4400 C   0  0  0  0  0  0  0  0  0  0  0  0
   -4.9730   21.6150  -33.0900 N   0  0  0  0  0  0  0  0  0  0  0  0
   -5.7870   20.6180  -33.1180 C   0  0  0  0  0  0  0  0  0  0  0  0
   -7.0650   20.8630  -32.6030 C   0  0  0  0  0  0  0  0  0  0  0  0
   -7.7870   22.3260  -31.8990 S   0  0  0  0  0  0  0  0  0  0  0  0
   -9.4360   21.5100  -31.5890 C   0  0  0  0  0  0  0  0  0  0  0  0
   -9.2420   20.2190  -32.0580 C   0  0  0  0  0  0  0  0  0  0  0  0
   -8.0600   19.8920  -32.5660 C   0  0  0  0  0  0  0  0  0  0  0  0
   -7.6580   18.6810  -33.0810 N   0  0  0  0  0  0  0  0  0  0  0  0
   -6.4480   18.4790  -33.5580 C   0  0  0  0  0  0  0  0  0  0  0  0
   -5.8910   17.3760  -34.0910 N   0  0  0  0  0  0  0  0  0  0  0  0
   -4.6150   17.6360  -34.4470 C   0  0  0  0  0  0  0  0  0  0  0  0
   -4.3760   18.9180  -34.1300 N   0  0  0  0  0  0  0  0  0  0  0  0
   -5.4660   19.4120  -33.6040 N   0  0  0  0  0  0  0  0  0  0  0  0
   -3.3434   24.3905  -27.4673 H   0  0  0  0  0  0  0  0  0  0  0  0
   -4.9119   24.8113  -28.2350 H   0  0  0  0  0  0  0  0  0  0  0  0
   -4.3403   23.1084  -28.2350 H   0  0  0  0  0  0  0  0  0  0  0  0
   -2.7290   25.3251  -29.5429 H   0  0  0  0  0  0  0  0  0  0  0  0
   -2.6669   23.5358  -29.8184 H   0  0  0  0  0  0  0  0  0  0  0  0
   -4.9099   26.1291  -29.6147 H   0  0  0  0  0  0  0  0  0  0  0  0
   -5.3814   26.0626  -31.3956 H   0  0  0  0  0  0  0  0  0  0  0  0
   -6.7231   24.9359  -29.0121 H   0  0  0  0  0  0  0  0  0  0  0  0
   -7.3857   25.6415  -30.5253 H   0  0  0  0  0  0  0  0  0  0  0  0
   -6.7331   23.9679  -30.5253 H   0  0  0  0  0  0  0  0  0  0  0  0
   -5.6076   22.9603  -30.6005 H   0  0  0  0  0  0  0  0  0  0  0  0
   -4.9878   23.3793  -32.2560 H   0  0  0  0  0  0  0  0  0  0  0  0
   -2.6877   22.6250  -30.9014 H   0  0  0  0  0  0  0  0  0  0  0  0
   -3.8841   21.4920  -30.2535 H   0  0  0  0  0  0  0  0  0  0  0  0
   -2.8970   21.8597  -33.0840 H   0  0  0  0  0  0  0  0  0  0  0  0
   -3.5088   20.3740  -32.2693 H   0  0  0  0  0  0  0  0  0  0  0  0
  -10.3418   21.9465  -31.1428 H   0  0  0  0  0  0  0  0  0  0  0  0
  -10.0541   19.4786  -32.0097 H   0  0  0  0  0  0  0  0  0  0  0  0
   -8.3310   17.8610  -33.1050 H   0  0  0  0  0  0  0  0  0  0  0  0
   -3.9069   16.9320  -34.9085 H   0  0  0  0  0  0  0  0  0  0  0  0
  1  2  1  0
  2  3  1  0
  3  4  1  0
  4  5  1  0
  3  6  1  0
  6  7  1  0
  7  8  1  0
  8  9  1  0
  9 10  2  0
 10 11  1  0
 11 12  1  0
 12 13  1  0
 13 14  2  0
 14 15  1  0
 15 16  1  0
 16 17  1  0
 17 18  2  0
 18 19  1  0
 19 20  2  0
 20 21  1  0
 21 10  1  0
 15 11  2  0
 21 17  1  0
  1 22  1  0
  1 23  1  0
  1 24  1  0
  2 25  1  0
  2 26  1  0
  4 27  1  0
  4 28  1  0
  5 29  1  0
  5 30  1  0
  5 31  1  0
  6 32  1  0
  6 33  1  0
  7 34  1  0
  7 35  1  0
  8 36  1  0
  8 37  1  0
 13 38  1  0
 14 39  1  0
 16 40  1  0
 19 41  1  0
M  END
>  <smiles>  (20) 
CCN(CC)CCCN=c1c2sccc2[nH]c2ncnn12

>  <score_type>  (20) 
oracle

>  <origin>  (20) 
adg

>  <m_score__min__energy>  (20) 
-7.1600000000000001

>  <m_primary>  (20) 
energy

$$$$
20:0
     RDKit          3D

 57 60  0  0  0  0  0  0  0  0999 V2000
   -5.3680   26.0760  -30.4620 C   0  0  0  0  0  0  0  0  0  0  0  0
   -4.0850   25.4640  -30.4710 O   0  0  0  0  0  0  0  0  0  0  0  0
   -3.7450   24.2910  -29.7880 C   0  0  0  0  0  0  0  0  0  0  0  0
   -2.8990   24.3380  -28.6600 C   0  0  0  0  0  0  0  0  0  0  0  0
   -2.5580   23.1750  -27.9730 C   0  0  0  0  0  0  0  0  0  0  0  0
   -3.0450   21.9470  -28.4030 C   0  0  0  0  0  0  0  0  0  0  0  0
   -3.8770   21.8770  -29.5180 C   0  0  0  0  0  0  0  0  0  0  0  0
   -4.2630   23.0410  -30.2220 C   0  0  0  0  0  0  0  0  0  0  0  0
   -5.1760   22.8480  -31.4490 C   0  0  2  0  0  0  0  0  0  0  0  0
   -6.6500   23.2440  -31.1650 C   0  0  0  0  0  0  0  0  0  0  0  0
   -7.6240   22.0810  -30.9510 C   0  0  0  0  0  0  0  0  0  0  0  0
   -7.6180   21.0780  -32.1150 C   0  0  0  0  0  0  0  0  0  0  0  0
   -6.6910   19.8720  -31.9100 C   0  0  0  0  0  0  0  0  0  0  0  0
   -5.2260   20.2770  -31.7240 C   0  0  0  0  0  0  0  0  0  0  0  0
   -4.9510   21.6220  -32.2830 N   0  0  0  0  0  0  0  0  0  0  0  0
   -3.7310   21.6490  -33.1250 C   0  0  0  0  0  0  0  0  0  0  0  0
   -2.6620   20.7380  -32.5830 C   0  0  0  0  0  0  0  0  0  0  0  0
   -1.9260   21.0300  -31.4920 N   0  0  0  0  0  0  0  0  0  0  0  0
   -1.0790   19.9950  -31.3410 C   0  0  0  0  0  0  0  0  0  0  0  0
   -1.3120   19.0820  -32.3470 C   0  0  0  0  0  0  0  0  0  0  0  0
   -2.3010   19.5550  -33.1300 N   0  0  0  0  0  0  0  0  0  0  0  0
   -2.8900   18.8680  -34.2800 C   0  0  0  0  0  0  0  0  0  0  0  0
   -4.1280   18.1300  -33.8670 C   0  0  0  0  0  0  0  0  0  0  0  0
   -5.2950   18.2080  -34.6390 C   0  0  0  0  0  0  0  0  0  0  0  0
   -6.4280   17.4950  -34.2400 C   0  0  0  0  0  0  0  0  0  0  0  0
   -6.3860   16.7120  -33.0840 C   0  0  0  0  0  0  0  0  0  0  0  0
   -5.2040   16.6540  -32.3420 C   0  0  0  0  0  0  0  0  0  0  0  0
   -4.1110   17.3540  -32.7470 N   0  0  0  0  0  0  0  0  0  0  0  0
   -5.6930   26.2310  -29.4226 H   0  0  0  0  0  0  0  0  0  0  0  0
   -5.3152   27.0459  -30.9782 H   0  0  0  0  0  0  0  0  0  0  0  0
   -6.0886   25.4246  -30.9782 H   0  0  0  0  0  0  0  0  0  0  0  0
   -2.5033   25.3059  -28.3184 H   0  0  0  0  0  0  0  0  0  0  0  0
   -1.9035   23.2290  -27.0906 H   0  0  0  0  0  0  0  0  0  0  0  0
   -2.7732   21.0285  -27.8621 H   0  0  0  0  0  0  0  0  0  0  0  0
   -4.2412   20.8962  -29.8578 H   0  0  0  0  0  0  0  0  0  0  0  0
   -4.8213   23.5965  -32.1729 H   0  0  0  0  0  0  0  0  0  0  0  0
   -6.6634   23.8665  -30.2582 H   0  0  0  0  0  0  0  0  0  0  0  0
   -6.9992   23.7632  -32.0697 H   0  0  0  0  0  0  0  0  0  0  0  0
   -7.3419   21.5513  -30.0291 H   0  0  0  0  0  0  0  0  0  0  0  0
   -8.6368   22.5050  -30.8841 H   0  0  0  0  0  0  0  0  0  0  0  0
   -8.6434   20.7040  -32.2518 H   0  0  0  0  0  0  0  0  0  0  0  0
   -7.2375   21.6198  -32.9934 H   0  0  0  0  0  0  0  0  0  0  0  0
   -7.0205   19.3230  -31.0156 H   0  0  0  0  0  0  0  0  0  0  0  0
   -6.7511   19.2494  -32.8149 H   0  0  0  0  0  0  0  0  0  0  0  0
   -4.9922   20.2836  -30.6492 H   0  0  0  0  0  0  0  0  0  0  0  0
   -4.5995   19.5493  -32.2606 H   0  0  0  0  0  0  0  0  0  0  0  0
   -3.9930   21.3254  -34.1432 H   0  0  0  0  0  0  0  0  0  0  0  0
   -3.3380   22.6764  -33.1276 H   0  0  0  0  0  0  0  0  0  0  0  0
   -1.9930   21.8790  -30.8890 H   0  0  0  0  0  0  0  0  0  0  0  0
   -0.3253   19.8943  -30.5461 H   0  0  0  0  0  0  0  0  0  0  0  0
   -0.7807   18.1290  -32.4868 H   0  0  0  0  0  0  0  0  0  0  0  0
   -3.1491   19.6082  -35.0513 H   0  0  0  0  0  0  0  0  0  0  0  0
   -2.1604   18.1479  -34.6789 H   0  0  0  0  0  0  0  0  0  0  0  0
   -5.3186   18.8244  -35.5498 H   0  0  0  0  0  0  0  0  0  0  0  0
   -7.3515   17.5500  -34.8350 H   0  0  0  0  0  0  0  0  0  0  0  0
   -7.2735   16.1476  -32.7617 H   0  0  0  0  0  0  0  0  0  0  0  0
   -5.1574   16.0416  -31.4294 H   0  0  0  0  0  0  0  0  0  0  0  0
  1  2  1  0
  2  3  1  0
  3  4  2  0
  4  5  1  0
  5  6  2  0
  6  7  1  0
  7  8  2  0
  8  9  1  0
  9 10  1  0
 10 11  1  0
 11 12  1  0
 12 13  1  0
 13 14  1  0
 14 15  1  0
 15 16  1  0
 16 17  1  0
 17 18  2  0
 18 19  1  0
 19 20  2  0
 20 21  1  0
 21 22  1  0
 22 23  1  0
 23 24  2  0
 24 25  1  0
 25 26  2  0
 26 27  1  0
 27 28  2  0
  8  3  1  0
 15  9  1  0
 21 17  1  0
 28 23  1  0
  1 29  1  0
  1 30  1  0
  1 31  1  0
  4 32  1  0
  5 33  1  0
  6 34  1  0
  7 35  1  0
  9 36  1  6
 10 37  1  0
 10 38  1  0
 11 39  1  0
 11 40  1  0
 12 41  1  0
 12 42  1  0
 13 43  1  0
 13 44  1  0
 14 45  1  0
 14 46  1  0
 16 47  1  0
 16 48  1  0
 18 49  1  0
 19 50  1  0
 20 51  1  0
 22 52  1  0
 22 53  1  0
 24 54  1  0
 25 55  1  0
 26 56  1  0
 27 57  1  0
M  CHG  1  18   1
M  END
>  <UniqueID>  (21) 
19

>  <SMILES>  (21) 
COc1ccccc1[C@@H]1CCCCCN1Cc1[nH+]ccn1Cc1ccccn1

>  <Energy>  (21) 
111.80484399015506

>  <Genealogy>  (21) 
COc1ccccc1C1CCCCCN1Cc1[nH+]ccn1Cc1ccccn1 (protonated)
COc1ccccc1[C@@H]1CCCCCN1Cc1[nH+]ccn1Cc1ccccn1 (chirality)
COc1ccccc1[C@@H]1CCCCCN1Cc1[nH+]ccn1Cc1ccccn1 (3D coordinates assigned)
COc1ccccc1[C@@H]1CCCCCN1Cc1[nH+]ccn1Cc1ccccn1 (nonaromatic ring conformer: 111.80484399015506 kcal/mol)

>  <smiles>  (21) 
COc1ccccc1C1CCCCCN1Cc1nccn1Cc1ccccn1

>  <score_type>  (21) 
oracle

>  <origin>  (21) 
adg

>  <m_score__min__energy>  (21) 
-5.8899999999999997

>  <m_primary>  (21) 
energy

$$$$
21:0
     RDKit          3D

 42 44  0  0  0  0  0  0  0  0999 V2000
   -3.1269   16.5562  -34.6577 H   0  0  0  0  0  0  0  0  0  0  0  0
   -3.6690   17.4340  -34.2760 C   0  0  0  0  0  0  0  0  0  0  0  0
   -4.8830   17.8070  -34.8530 C   0  0  0  0  0  0  0  0  0  0  0  0
   -5.2985   17.2212  -35.6862 H   0  0  0  0  0  0  0  0  0  0  0  0
   -5.5710   18.9230  -34.3740 C   0  0  0  0  0  0  0  0  0  0  0  0
   -6.5328   19.2083  -34.8253 H   0  0  0  0  0  0  0  0  0  0  0  0
   -5.0410   19.6840  -33.3180 C   0  0  0  0  0  0  0  0  0  0  0  0
   -5.7980   20.8450  -32.7950 C   0  0  0  0  0  0  0  0  0  0  0  0
   -5.1040   21.9890  -32.5640 N   0  0  0  0  0  0  0  0  0  0  0  0
   -5.7090   23.0860  -32.0550 C   0  0  0  0  0  0  0  0  0  0  0  0
   -5.0050   24.1610  -31.8520 N   0  0  0  0  0  0  0  0  0  0  0  0
   -4.6220   24.7140  -30.5810 C   0  0  0  0  0  0  0  0  0  0  0  0
   -3.5140   25.2980  -30.4280 O   0  0  0  0  0  0  0  0  0  0  0  0
   -5.5350   24.5500  -29.4080 C   0  0  0  0  0  0  0  0  0  0  0  0
   -5.7503   23.4809  -29.2641 H   0  0  0  0  0  0  0  0  0  0  0  0
   -5.0428   24.9624  -28.5149 H   0  0  0  0  0  0  0  0  0  0  0  0
   -6.8430   25.2980  -29.6380 C   0  0  0  0  0  0  0  0  0  0  0  0
   -7.2935   25.5556  -28.6681 H   0  0  0  0  0  0  0  0  0  0  0  0
   -6.6439   26.2188  -30.2059 H   0  0  0  0  0  0  0  0  0  0  0  0
   -7.5356   24.6594  -30.2059 H   0  0  0  0  0  0  0  0  0  0  0  0
   -7.0320   23.0380  -31.7640 N   0  0  0  0  0  0  0  0  0  0  0  0
   -7.7530   21.9140  -31.9940 C   0  0  0  0  0  0  0  0  0  0  0  0
   -9.1190   21.9110  -31.6940 C   0  0  0  0  0  0  0  0  0  0  0  0
   -9.5911   22.8020  -31.2544 H   0  0  0  0  0  0  0  0  0  0  0  0
   -9.8770   20.7740  -31.9550 C   0  0  0  0  0  0  0  0  0  0  0  0
  -10.9504   20.7588  -31.7149 H   0  0  0  0  0  0  0  0  0  0  0  0
   -9.2720   19.6560  -32.5210 C   0  0  0  0  0  0  0  0  0  0  0  0
   -9.8658   18.7564  -32.7402 H   0  0  0  0  0  0  0  0  0  0  0  0
   -7.9050   19.6840  -32.8090 C   0  0  0  0  0  0  0  0  0  0  0  0
   -7.4286   18.8045  -33.2666 H   0  0  0  0  0  0  0  0  0  0  0  0
   -7.1480   20.7960  -32.5280 N   0  0  0  0  0  0  0  0  0  0  0  0
   -3.8230   19.3020  -32.7210 C   0  0  0  0  0  0  0  0  0  0  0  0
   -3.3230   20.0670  -31.6550 O   0  0  0  0  0  0  0  0  0  0  0  0
   -2.2210   20.9650  -31.7490 C   0  0  0  0  0  0  0  0  0  0  0  0
   -2.2294   21.4546  -32.7340 H   0  0  0  0  0  0  0  0  0  0  0  0
   -1.2808   20.4074  -31.6260 H   0  0  0  0  0  0  0  0  0  0  0  0
   -2.3340   22.0180  -30.6580 C   0  0  0  0  0  0  0  0  0  0  0  0
   -2.2818   21.5320  -29.6726 H   0  0  0  0  0  0  0  0  0  0  0  0
   -1.5079   22.7377  -30.7561 H   0  0  0  0  0  0  0  0  0  0  0  0
   -3.2940   22.5461  -30.7561 H   0  0  0  0  0  0  0  0  0  0  0  0
   -3.1400   18.1720  -33.2150 C   0  0  0  0  0  0  0  0  0  0  0  0
   -2.1843   17.8697  -32.7619 H   0  0  0  0  0  0  0  0  0  0  0  0
  1  2  1  0
  2  3  2  0
  3  4  1  0
  3  5  1  0
  5  6  1  0
  5  7  2  0
  7  8  1  0
  8  9  2  0
  9 10  1  0
 10 11  2  0
 11 12  1  0
 12 13  2  0
 12 14  1  0
 14 15  1  0
 14 16  1  0
 14 17  1  0
 17 18  1  0
 17 19  1  0
 17 20  1  0
 10 21  1  0
 21 22  2  0
 22 23  1  0
 23 24  1  0
 23 25  2  0
 25 26  1  0
 25 27  1  0
 27 28  1  0
 27 29  2  0
 29 30  1  0
 29 31  1  0
  7 32  1  0
 32 33  1  0
 33 34  1  0
 34 35  1  0
 34 36  1  0
 34 37  1  0
 37 38  1  0
 37 39  1  0
 37 40  1  0
 32 41  2  0
 41 42  1  0
 41  2  1  0
 31  8  1  0
 31 22  1  0
M  END
>  <UniqueID>  (22) 
20

>  <SMILES>  (22) 
CCOc1ccccc1-c1n/c(=N/C(=O)CC)nc2ccccn12

>  <Energy>  (22) 
51.56937154284569

>  <Genealogy>  (22) 
CCOc1ccccc1-c1n/c(=N/C(=O)CC)nc2ccccn12 (cis-trans isomerization)
CCOc1ccccc1-c1n/c(=N/C(=O)CC)nc2ccccn12 (3D coordinates assigned)
CCOc1ccccc1-c1n/c(=N/C(=O)CC)nc2ccccn12 (optimized conformer: 51.56937154284569 kcal/mol)

>  <smiles>  (22) 
CCOc1ccccc1-c1nc(=NC(=O)CC)nc2ccccn12

>  <score_type>  (22) 
oracle

>  <origin>  (22) 
adg

>  <m_score__min__energy>  (22) 
-8.3900000000000006

>  <m_primary>  (22) 
energy

$$$$
22:0
     RDKit          3D

 63 66  0  0  0  0  0  0  0  0999 V2000
   -0.4620   19.4770  -35.3380 O   0  0  0  0  0  0  0  0  0  0  0  0
   -0.7900   19.4800  -34.1200 C   0  0  0  0  0  0  0  0  0  0  0  0
    0.2340   19.5120  -33.1160 N   0  0  0  0  0  0  0  0  0  0  0  0
    0.2820   20.4850  -32.0280 C   0  0  0  0  0  0  0  0  0  0  0  0
   -0.3830   19.9160  -30.7680 C   0  0  0  0  0  0  0  0  0  0  0  0
   -1.5140   20.7640  -30.3370 N   0  0  0  0  0  0  0  0  0  0  0  0
   -1.8610   20.4960  -28.9250 C   0  0  0  0  0  0  0  0  0  0  0  0
   -2.6970   21.6480  -28.3450 C   0  0  0  0  0  0  0  0  0  0  0  0
   -2.0410   22.9090  -28.3600 O   0  0  0  0  0  0  0  0  0  0  0  0
   -0.9950   22.9970  -29.3180 C   0  0  0  0  0  0  0  0  0  0  0  0
   -1.2800   22.2050  -30.6060 C   0  0  0  0  0  0  0  0  0  0  0  0
   -2.2260   19.4440  -33.7230 C   0  0  0  0  0  0  0  0  0  0  0  0
   -2.9150   18.2220  -33.7310 C   0  0  0  0  0  0  0  0  0  0  0  0
   -4.2310   18.1300  -33.3630 N   0  0  0  0  0  0  0  0  0  0  0  0
   -4.8450   16.7860  -33.4000 C   0  0  0  0  0  0  0  0  0  0  0  0
   -5.8250   16.6710  -34.5670 C   0  0  0  0  0  0  0  0  0  0  0  0
   -5.6860   17.7840  -35.4040 O   0  0  0  0  0  0  0  0  0  0  0  0
   -4.9380   19.2640  -33.0110 C   0  0  0  0  0  0  0  0  0  0  0  0
   -6.3150   19.2200  -32.6820 C   0  0  0  0  0  0  0  0  0  0  0  0
   -7.0060   20.3770  -32.3240 C   0  0  0  0  0  0  0  0  0  0  0  0
   -6.3520   21.6080  -32.2850 C   0  0  0  0  0  0  0  0  0  0  0  0
   -7.2190   23.0710  -31.8220 S   0  0  0  0  0  0  0  0  0  0  0  0
   -8.7010   22.8350  -31.9290 O   0  0  0  0  0  0  0  0  0  0  0  0
   -6.8420   24.1710  -32.7750 O   0  0  0  0  0  0  0  0  0  0  0  0
   -6.7760   23.5070  -30.1850 N   0  0  0  0  0  0  0  0  0  0  0  0
   -6.8630   24.9680  -29.9610 C   0  0  0  0  0  0  0  0  0  0  0  0
   -5.4950   25.6680  -30.0630 C   0  0  0  0  0  0  0  0  0  0  0  0
   -4.6720   25.0040  -30.9960 O   0  0  0  0  0  0  0  0  0  0  0  0
   -4.2980   23.7310  -30.5010 C   0  0  0  0  0  0  0  0  0  0  0  0
   -5.4570   22.9660  -29.8160 C   0  0  0  0  0  0  0  0  0  0  0  0
   -4.9960   21.6790  -32.6060 C   0  0  0  0  0  0  0  0  0  0  0  0
   -4.2810   20.5230  -32.9800 C   0  0  0  0  0  0  0  0  0  0  0  0
   -2.9230   20.6030  -33.3330 C   0  0  0  0  0  0  0  0  0  0  0  0
   -2.3320   21.7190  -33.3060 O   0  0  0  0  0  0  0  0  0  0  0  0
    1.3316   20.7274  -31.8053 H   0  0  0  0  0  0  0  0  0  0  0  0
   -0.2593   21.3913  -32.3373 H   0  0  0  0  0  0  0  0  0  0  0  0
   -0.7544   18.9033  -30.9834 H   0  0  0  0  0  0  0  0  0  0  0  0
    0.3628   19.8892  -29.9598 H   0  0  0  0  0  0  0  0  0  0  0  0
   -2.4410   19.5632  -28.8661 H   0  0  0  0  0  0  0  0  0  0  0  0
   -0.9321   20.4041  -28.3430 H   0  0  0  0  0  0  0  0  0  0  0  0
   -3.6221   21.7334  -28.9339 H   0  0  0  0  0  0  0  0  0  0  0  0
   -2.8849   21.4020  -27.2895 H   0  0  0  0  0  0  0  0  0  0  0  0
   -0.8527   24.0550  -29.5832 H   0  0  0  0  0  0  0  0  0  0  0  0
   -0.0959   22.5597  -28.8593 H   0  0  0  0  0  0  0  0  0  0  0  0
   -2.1742   22.6250  -31.0898 H   0  0  0  0  0  0  0  0  0  0  0  0
   -0.3969   22.2884  -31.2566 H   0  0  0  0  0  0  0  0  0  0  0  0
   -2.3827   17.3110  -34.0420 H   0  0  0  0  0  0  0  0  0  0  0  0
   -4.0538   16.0308  -33.5173 H   0  0  0  0  0  0  0  0  0  0  0  0
   -5.3934   16.6221  -32.4606 H   0  0  0  0  0  0  0  0  0  0  0  0
   -5.6109   15.7547  -35.1367 H   0  0  0  0  0  0  0  0  0  0  0  0
   -6.8536   16.6297  -34.1794 H   0  0  0  0  0  0  0  0  0  0  0  0
   -6.5640   18.2490  -35.3910 H   0  0  0  0  0  0  0  0  0  0  0  0
   -6.8476   18.2579  -32.7093 H   0  0  0  0  0  0  0  0  0  0  0  0
   -8.0748   20.3183  -32.0705 H   0  0  0  0  0  0  0  0  0  0  0  0
   -7.5365   25.4002  -30.7158 H   0  0  0  0  0  0  0  0  0  0  0  0
   -7.2412   25.1254  -28.9401 H   0  0  0  0  0  0  0  0  0  0  0  0
   -5.6435   26.7088  -30.3867 H   0  0  0  0  0  0  0  0  0  0  0  0
   -5.0077   25.6450  -29.0771 H   0  0  0  0  0  0  0  0  0  0  0  0
   -3.9310   23.1250  -31.3425 H   0  0  0  0  0  0  0  0  0  0  0  0
   -3.5252   23.8972  -29.7360 H   0  0  0  0  0  0  0  0  0  0  0  0
   -5.4107   21.9091  -30.1175 H   0  0  0  0  0  0  0  0  0  0  0  0
   -5.3387   23.0778  -28.7281 H   0  0  0  0  0  0  0  0  0  0  0  0
   -4.4785   22.6489  -32.5668 H   0  0  0  0  0  0  0  0  0  0  0  0
  1  2  2  0
  2  3  1  0
  3  4  1  0
  4  5  1  0
  5  6  1  0
  6  7  1  0
  7  8  1  0
  8  9  1  0
  9 10  1  0
 10 11  1  0
  2 12  1  0
 12 13  2  0
 13 14  1  0
 14 15  1  0
 15 16  1  0
 16 17  1  0
 14 18  1  0
 18 19  2  0
 19 20  1  0
 20 21  2  0
 21 22  1  0
 22 23  2  0
 22 24  2  0
 22 25  1  0
 25 26  1  0
 26 27  1  0
 27 28  1  0
 28 29  1  0
 29 30  1  0
 21 31  1  0
 31 32  2  0
 32 33  1  0
 33 34  2  0
 11  6  1  0
 33 12  1  0
 32 18  1  0
 30 25  1  0
  4 35  1  0
  4 36  1  0
  5 37  1  0
  5 38  1  0
  7 39  1  0
  7 40  1  0
  8 41  1  0
  8 42  1  0
 10 43  1  0
 10 44  1  0
 11 45  1  0
 11 46  1  0
 13 47  1  0
 15 48  1  0
 15 49  1  0
 16 50  1  0
 16 51  1  0
 17 52  1  0
 19 53  1  0
 20 54  1  0
 26 55  1  0
 26 56  1  0
 27 57  1  0
 27 58  1  0
 29 59  1  0
 29 60  1  0
 30 61  1  0
 30 62  1  0
 31 63  1  0
M  CHG  1   3  -1
M  END
>  <UniqueID>  (23) 
21

>  <SMILES>  (23) 
O=C([N-]CCN1CCOCC1)c1cn(CCO)c2ccc(S(=O)(=O)N3CCOCC3)cc2c1=O

>  <Energy>  (23) 
96.87605840279588

>  <Genealogy>  (23) 
O=C([N-]CCN1CCOCC1)c1cn(CCO)c2ccc(S(=O)(=O)N3CCOCC3)cc2c1=O (protonated)
O=C([N-]CCN1CCOCC1)c1cn(CCO)c2ccc(S(=O)(=O)N3CCOCC3)cc2c1=O (3D coordinates assigned)
O=C([N-]CCN1CCOCC1)c1cn(CCO)c2ccc(S(=O)(=O)N3CCOCC3)cc2c1=O (nonaromatic ring conformer: 96.87605840279588 kcal/mol)

>  <smiles>  (23) 
O=C(NCCN1CCOCC1)c1cn(CCO)c2ccc(S(=O)(=O)N3CCOCC3)cc2c1=O

>  <score_type>  (23) 
oracle

>  <origin>  (23) 
adg

>  <m_score__min__energy>  (23) 
-10.800000000000001

>  <m_primary>  (23) 
energy

$$$$
23:0
     RDKit          3D

 45 46  0  0  0  0  0  0  0  0999 V2000
   -6.3270   16.9360  -33.2780 C   0  0  0  0  0  0  0  0  0  0  0  0
   -7.4380   17.4330  -32.3590 C   0  0  0  0  0  0  0  0  0  0  0  0
   -8.3260   18.2870  -33.0630 O   0  0  0  0  0  0  0  0  0  0  0  0
   -9.1210   19.0560  -32.1740 C   0  0  0  0  0  0  0  0  0  0  0  0
   -8.8210   20.5540  -32.3200 C   0  0  0  0  0  0  0  0  0  0  0  0
   -7.5130   20.8990  -31.7190 N   0  0  0  0  0  0  0  0  0  0  0  0
   -6.3770   20.2740  -32.4570 C   0  0  0  0  0  0  0  0  0  0  0  0
   -5.1810   21.2140  -32.7120 C   0  0  0  0  0  0  0  0  0  0  0  0
   -4.9350   22.0700  -31.5470 N   0  0  0  0  0  0  0  0  0  0  0  0
   -3.5960   22.5260  -31.2660 C   0  0  0  0  0  0  0  0  0  0  0  0
   -2.7490   22.5920  -32.2000 O   0  0  0  0  0  0  0  0  0  0  0  0
   -3.1890   22.9080  -29.8960 C   0  0  0  0  0  0  0  0  0  0  0  0
   -2.7390   21.9160  -29.0070 C   0  0  0  0  0  0  0  0  0  0  0  0
   -2.3310   22.2530  -27.7150 C   0  0  0  0  0  0  0  0  0  0  0  0
   -1.8980   21.2880  -26.8680 F   0  0  0  0  0  0  0  0  0  0  0  0
   -2.3640   23.5860  -27.2990 C   0  0  0  0  0  0  0  0  0  0  0  0
   -2.8040   24.5840  -28.1740 C   0  0  0  0  0  0  0  0  0  0  0  0
   -3.2210   24.2570  -29.4810 C   0  0  0  0  0  0  0  0  0  0  0  0
   -3.6850   25.2380  -30.3740 O   0  0  0  0  0  0  0  0  0  0  0  0
   -5.0400   25.6700  -30.4690 C   0  0  0  0  0  0  0  0  0  0  0  0
   -6.0720   22.6950  -30.8580 C   0  0  0  0  0  0  0  0  0  0  0  0
   -7.3840   22.3620  -31.5670 C   0  0  0  0  0  0  0  0  0  0  0  0
   -5.4894   16.5613  -32.6713 H   0  0  0  0  0  0  0  0  0  0  0  0
   -6.7119   16.1243  -33.9128 H   0  0  0  0  0  0  0  0  0  0  0  0
   -5.9784   17.7640  -33.9128 H   0  0  0  0  0  0  0  0  0  0  0  0
   -7.9987   16.5700  -31.9707 H   0  0  0  0  0  0  0  0  0  0  0  0
   -6.9858   17.9980  -31.5306 H   0  0  0  0  0  0  0  0  0  0  0  0
  -10.1834   18.8789  -32.3974 H   0  0  0  0  0  0  0  0  0  0  0  0
   -8.8868   18.7515  -31.1433 H   0  0  0  0  0  0  0  0  0  0  0  0
   -8.8046   20.8142  -33.3887 H   0  0  0  0  0  0  0  0  0  0  0  0
   -9.6054   21.1191  -31.7952 H   0  0  0  0  0  0  0  0  0  0  0  0
   -6.0189   19.4146  -31.8712 H   0  0  0  0  0  0  0  0  0  0  0  0
   -6.7665   19.9905  -33.4459 H   0  0  0  0  0  0  0  0  0  0  0  0
   -4.2836   20.6100  -32.9119 H   0  0  0  0  0  0  0  0  0  0  0  0
   -5.4124   21.8530  -33.5770 H   0  0  0  0  0  0  0  0  0  0  0  0
   -2.7081   20.8656  -29.3321 H   0  0  0  0  0  0  0  0  0  0  0  0
   -2.0431   23.8512  -26.2808 H   0  0  0  0  0  0  0  0  0  0  0  0
   -2.8251   25.6320  -27.8404 H   0  0  0  0  0  0  0  0  0  0  0  0
   -5.4544   25.8021  -29.4587 H   0  0  0  0  0  0  0  0  0  0  0  0
   -5.0828   26.6263  -31.0108 H   0  0  0  0  0  0  0  0  0  0  0  0
   -5.6285   24.9149  -31.0108 H   0  0  0  0  0  0  0  0  0  0  0  0
   -6.1161   22.3229  -29.8238 H   0  0  0  0  0  0  0  0  0  0  0  0
   -5.9333   23.7862  -30.8660 H   0  0  0  0  0  0  0  0  0  0  0  0
   -8.2273   22.7432  -30.9725 H   0  0  0  0  0  0  0  0  0  0  0  0
   -7.3890   22.8323  -32.5614 H   0  0  0  0  0  0  0  0  0  0  0  0
  1  2  1  0
  2  3  1  0
  3  4  1  0
  4  5  1  0
  5  6  1  0
  6  7  1  0
  7  8  1  0
  8  9  1  0
  9 10  1  0
 10 11  2  0
 10 12  1  0
 12 13  2  0
 13 14  1  0
 14 15  1  0
 14 16  2  0
 16 17  1  0
 17 18  2  0
 18 19  1  0
 19 20  1  0
  9 21  1  0
 21 22  1  0
 22  6  1  0
 18 12  1  0
  1 23  1  0
  1 24  1  0
  1 25  1  0
  2 26  1  0
  2 27  1  0
  4 28  1  0
  4 29  1  0
  5 30  1  0
  5 31  1  0
  7 32  1  0
  7 33  1  0
  8 34  1  0
  8 35  1  0
 13 36  1  0
 16 37  1  0
 17 38  1  0
 20 39  1  0
 20 40  1  0
 20 41  1  0
 21 42  1  0
 21 43  1  0
 22 44  1  0
 22 45  1  0
M  END
>  <UniqueID>  (24) 
22

>  <SMILES>  (24) 
CCOCCN1CCN(C(=O)c2cc(F)ccc2OC)CC1

>  <Energy>  (24) 
55.162449293696035

>  <Genealogy>  (24) 
CCOCCN1CCN(C(=O)c2cc(F)ccc2OC)CC1 (3D coordinates assigned)
CCOCCN1CCN(C(=O)c2cc(F)ccc2OC)CC1 (nonaromatic ring conformer: 55.162449293696035 kcal/mol)

>  <smiles>  (24) 
CCOCCN1CCN(C(=O)c2cc(F)ccc2OC)CC1

>  <score_type>  (24) 
oracle

>  <origin>  (24) 
adg

>  <m_score__min__energy>  (24) 
-7.5700000000000003

>  <m_primary>  (24) 
energy

$$$$
24:0
     RDKit          3D

 60 63  0  0  0  0  0  0  0  0999 V2000
   -6.1450   12.8290  -34.8630 C   0  0  0  0  0  0  0  0  0  0  0  0
   -5.2160   13.8930  -35.0450 O   0  0  0  0  0  0  0  0  0  0  0  0
   -5.3830   15.1850  -34.5250 C   0  0  0  0  0  0  0  0  0  0  0  0
   -6.6300   15.5210  -33.9580 C   0  0  0  0  0  0  0  0  0  0  0  0
   -6.8590   16.7970  -33.4190 C   0  0  0  0  0  0  0  0  0  0  0  0
   -5.8410   17.7550  -33.4980 C   0  0  0  0  0  0  0  0  0  0  0  0
   -4.6020   17.4080  -34.0120 C   0  0  0  0  0  0  0  0  0  0  0  0
   -4.3450   16.1420  -34.5370 C   0  0  0  0  0  0  0  0  0  0  0  0
   -3.6820   18.5100  -33.7920 C   0  0  0  0  0  0  0  0  0  0  0  0
   -2.4620   18.5310  -34.0980 O   0  0  0  0  0  0  0  0  0  0  0  0
   -4.4360   19.5590  -33.1070 C   0  0  0  0  0  0  0  0  0  0  0  0
   -4.0300   20.8190  -32.6790 C   0  0  0  0  0  0  0  0  0  0  0  0
   -2.7050   21.2730  -32.9850 N   0  0  0  0  0  0  0  0  0  0  0  0
   -1.5430   20.5490  -32.4700 C   0  0  0  0  0  0  0  0  0  0  0  0
   -0.3120   21.0510  -33.1150 N   0  0  0  0  0  0  0  0  0  0  0  0
    0.8180   20.1520  -32.8370 C   0  0  0  0  0  0  0  0  0  0  0  0
   -0.4980   21.1710  -34.5710 C   0  0  0  0  0  0  0  0  0  0  0  0
   -4.9720   21.6190  -31.9730 C   0  0  0  0  0  0  0  0  0  0  0  0
   -4.5970   22.8370  -31.3350 C   0  0  0  0  0  0  0  0  0  0  0  0
   -3.2540   23.2550  -31.3840 O   0  0  0  0  0  0  0  0  0  0  0  0
   -2.2840   23.0030  -30.3710 C   0  0  0  0  0  0  0  0  0  0  0  0
   -5.5670   23.5840  -30.6240 C   0  0  0  0  0  0  0  0  0  0  0  0
   -5.2050   24.7340  -29.8470 N   0  0  0  0  0  0  0  0  0  0  0  0
   -4.5990   24.5400  -28.5290 C   0  0  0  0  0  0  0  0  0  0  0  0
   -5.7400   26.0460  -30.2150 C   0  0  0  0  0  0  0  0  0  0  0  0
   -6.8820   23.1270  -30.5550 C   0  0  0  0  0  0  0  0  0  0  0  0
   -7.2610   21.9410  -31.1670 C   0  0  0  0  0  0  0  0  0  0  0  0
   -6.3340   21.1650  -31.8920 C   0  0  0  0  0  0  0  0  0  0  0  0
   -6.7170   19.9750  -32.4950 N   0  0  0  0  0  0  0  0  0  0  0  0
   -8.1360   19.6330  -32.6920 C   0  0  0  0  0  0  0  0  0  0  0  0
   -5.7430   19.1360  -32.9640 C   0  0  0  0  0  0  0  0  0  0  0  0
   -6.2970   12.6549  -33.7876 H   0  0  0  0  0  0  0  0  0  0  0  0
   -7.1043   13.0959  -35.3304 H   0  0  0  0  0  0  0  0  0  0  0  0
   -5.7512   11.9144  -35.3304 H   0  0  0  0  0  0  0  0  0  0  0  0
   -7.4353   14.7720  -33.9378 H   0  0  0  0  0  0  0  0  0  0  0  0
   -7.8207   17.0397  -32.9433 H   0  0  0  0  0  0  0  0  0  0  0  0
   -3.3563   15.8946  -34.9510 H   0  0  0  0  0  0  0  0  0  0  0  0
   -2.5790   22.2670  -33.2800 H   0  0  0  0  0  0  0  0  0  0  0  0
   -1.4723   20.6989  -31.3826 H   0  0  0  0  0  0  0  0  0  0  0  0
   -1.6567   19.4774  -32.6907 H   0  0  0  0  0  0  0  0  0  0  0  0
    0.9463   20.0499  -31.7493 H   0  0  0  0  0  0  0  0  0  0  0  0
    0.6173   19.1640  -33.2769 H   0  0  0  0  0  0  0  0  0  0  0  0
    1.7356   20.5697  -33.2769 H   0  0  0  0  0  0  0  0  0  0  0  0
   -1.4059   21.7567  -34.7776 H   0  0  0  0  0  0  0  0  0  0  0  0
    0.3734   21.6777  -35.0114 H   0  0  0  0  0  0  0  0  0  0  0  0
   -0.6004   20.1682  -35.0114 H   0  0  0  0  0  0  0  0  0  0  0  0
   -2.7480   23.1235  -29.3810 H   0  0  0  0  0  0  0  0  0  0  0  0
   -1.9035   21.9762  -30.4750 H   0  0  0  0  0  0  0  0  0  0  0  0
   -1.4518   23.7148  -30.4750 H   0  0  0  0  0  0  0  0  0  0  0  0
   -5.3367   24.7761  -27.7479 H   0  0  0  0  0  0  0  0  0  0  0  0
   -4.2763   23.4936  -28.4242 H   0  0  0  0  0  0  0  0  0  0  0  0
   -3.7286   25.2044  -28.4242 H   0  0  0  0  0  0  0  0  0  0  0  0
   -5.9724   26.6160  -29.3034 H   0  0  0  0  0  0  0  0  0  0  0  0
   -4.9931   26.5930  -30.8091 H   0  0  0  0  0  0  0  0  0  0  0  0
   -6.6564   25.9148  -30.8091 H   0  0  0  0  0  0  0  0  0  0  0  0
   -7.6315   23.7163  -30.0064 H   0  0  0  0  0  0  0  0  0  0  0  0
   -8.3036   21.6001  -31.0850 H   0  0  0  0  0  0  0  0  0  0  0  0
   -8.6241   19.5154  -31.7133 H   0  0  0  0  0  0  0  0  0  0  0  0
   -8.6323   20.4373  -33.2549 H   0  0  0  0  0  0  0  0  0  0  0  0
   -8.2114   18.6910  -33.2549 H   0  0  0  0  0  0  0  0  0  0  0  0
  1  2  1  0
  2  3  1  0
  3  4  2  0
  4  5  1  0
  5  6  2  0
  6  7  1  0
  7  8  2  0
  7  9  1  0
  9 10  2  0
  9 11  1  0
 11 12  2  0
 12 13  1  0
 13 14  1  0
 14 15  1  0
 15 16  1  0
 15 17  1  0
 12 18  1  0
 18 19  2  0
 19 20  1  0
 20 21  1  0
 19 22  1  0
 22 23  1  0
 23 24  1  0
 23 25  1  0
 22 26  2  0
 26 27  1  0
 27 28  2  0
 28 29  1  0
 29 30  1  0
 29 31  2  0
  8  3  1  0
 31 11  1  0
 31  6  1  0
 28 18  1  0
  1 32  1  0
  1 33  1  0
  1 34  1  0
  4 35  1  0
  5 36  1  0
  8 37  1  0
 13 38  1  0
 14 39  1  0
 14 40  1  0
 16 41  1  0
 16 42  1  0
 16 43  1  0
 17 44  1  0
 17 45  1  0
 17 46  1  0
 21 47  1  0
 21 48  1  0
 21 49  1  0
 24 50  1  0
 24 51  1  0
 24 52  1  0
 25 53  1  0
 25 54  1  0
 25 55  1  0
 26 56  1  0
 27 57  1  0
 30 58  1  0
 30 59  1  0
 30 60  1  0
M  CHG  1  29   1
M  END
>  <UniqueID>  (25) 
23

>  <SMILES>  (25) 
COc1ccc2c(c1)C(=O)c1c(NCN(C)C)c3c(OC)c(N(C)C)ccc3[n+](C)c1-2

>  <Energy>  (25) 
128.15682144511567

>  <Genealogy>  (25) 
COc1ccc2c(c1)C(=O)c1c(NCN(C)C)c3c(OC)c(N(C)C)ccc3[n+](C)c1-2 (3D coordinates assigned)
COc1ccc2c(c1)C(=O)c1c(NCN(C)C)c3c(OC)c(N(C)C)ccc3[n+](C)c1-2 (nonaromatic ring conformer: 128.15682144511567 kcal/mol)

>  <smiles>  (25) 
COc1ccc2c(c1)C(=O)c1c(NCN(C)C)c3c(OC)c(N(C)C)ccc3[n+](C)c1-2

>  <score_type>  (25) 
oracle

>  <origin>  (25) 
adg

>  <m_score__min__energy>  (25) 
-7.1799999999999997

>  <m_primary>  (25) 
energy

$$$$
25:0
     RDKit          3D

 43 45  0  0  0  0  0  0  0  0999 V2000
   -6.8180   22.6790  -29.3790 C   0  0  0  0  0  0  0  0  0  0  0  0
   -6.8740   23.7990  -30.3300 N   0  0  0  0  0  0  0  0  0  0  0  0
   -6.2210   25.0450  -29.8680 C   0  0  0  0  0  0  0  0  0  0  0  0
   -5.1730   25.6100  -30.8420 C   0  0  0  0  0  0  0  0  0  0  0  0
   -3.8660   25.2910  -30.3690 O   0  0  0  0  0  0  0  0  0  0  0  0
   -3.5210   24.0760  -29.7590 C   0  0  0  0  0  0  0  0  0  0  0  0
   -3.6850   23.8480  -28.3780 C   0  0  0  0  0  0  0  0  0  0  0  0
   -3.3340   22.6140  -27.8210 C   0  0  0  0  0  0  0  0  0  0  0  0
   -2.8180   21.6010  -28.6330 C   0  0  0  0  0  0  0  0  0  0  0  0
   -2.6480   21.8200  -30.0030 C   0  0  0  0  0  0  0  0  0  0  0  0
   -2.0030   20.5460  -31.0220 Cl  0  0  0  0  0  0  0  0  0  0  0  0
   -2.9990   23.0530  -30.5630 C   0  0  0  0  0  0  0  0  0  0  0  0
   -6.6330   23.4260  -31.7450 C   0  0  0  0  0  0  0  0  0  0  0  0
   -7.2100   22.0740  -32.1400 C   0  0  0  0  0  0  0  0  0  0  0  0
   -8.5880   21.8710  -31.9500 C   0  0  0  0  0  0  0  0  0  0  0  0
   -9.1890   20.6840  -32.3580 C   0  0  0  0  0  0  0  0  0  0  0  0
   -8.4500   19.7010  -32.9300 N   0  0  0  0  0  0  0  0  0  0  0  0
   -7.1040   19.8290  -33.1050 C   0  0  0  0  0  0  0  0  0  0  0  0
   -6.3750   18.7770  -33.6810 C   0  0  0  0  0  0  0  0  0  0  0  0
   -4.9950   18.8830  -33.8480 C   0  0  0  0  0  0  0  0  0  0  0  0
   -4.3280   20.0360  -33.4340 C   0  0  0  0  0  0  0  0  0  0  0  0
   -5.0370   21.0930  -32.8600 C   0  0  0  0  0  0  0  0  0  0  0  0
   -6.4380   21.0180  -32.7000 C   0  0  0  0  0  0  0  0  0  0  0  0
   -6.8375   23.0696  -28.3509 H   0  0  0  0  0  0  0  0  0  0  0  0
   -7.6843   22.0199  -29.5373 H   0  0  0  0  0  0  0  0  0  0  0  0
   -5.8903   22.1096  -29.5373 H   0  0  0  0  0  0  0  0  0  0  0  0
   -6.9999   25.8075  -29.7199 H   0  0  0  0  0  0  0  0  0  0  0  0
   -5.6856   24.7944  -28.9403 H   0  0  0  0  0  0  0  0  0  0  0  0
   -5.3211   25.1670  -31.8379 H   0  0  0  0  0  0  0  0  0  0  0  0
   -5.2835   26.7025  -30.9074 H   0  0  0  0  0  0  0  0  0  0  0  0
   -4.0906   24.6436  -27.7357 H   0  0  0  0  0  0  0  0  0  0  0  0
   -3.4644   22.4409  -26.7425 H   0  0  0  0  0  0  0  0  0  0  0  0
   -2.5452   20.6301  -28.1938 H   0  0  0  0  0  0  0  0  0  0  0  0
   -2.8645   23.2210  -31.6417 H   0  0  0  0  0  0  0  0  0  0  0  0
   -7.0866   24.1956  -32.3868 H   0  0  0  0  0  0  0  0  0  0  0  0
   -5.5427   23.3541  -31.8720 H   0  0  0  0  0  0  0  0  0  0  0  0
   -9.1954   22.6558  -31.4756 H   0  0  0  0  0  0  0  0  0  0  0  0
  -10.2705   20.5421  -32.2157 H   0  0  0  0  0  0  0  0  0  0  0  0
   -8.9400   18.8260  -33.2280 H   0  0  0  0  0  0  0  0  0  0  0  0
   -6.8958   17.8631  -34.0027 H   0  0  0  0  0  0  0  0  0  0  0  0
   -4.4318   18.0569  -34.3065 H   0  0  0  0  0  0  0  0  0  0  0  0
   -3.2380   20.1129  -33.5604 H   0  0  0  0  0  0  0  0  0  0  0  0
   -4.4987   21.9934  -32.5290 H   0  0  0  0  0  0  0  0  0  0  0  0
  1  2  1  0
  2  3  1  0
  3  4  1  0
  4  5  1  0
  5  6  1  0
  6  7  2  0
  7  8  1  0
  8  9  2  0
  9 10  1  0
 10 11  1  0
 10 12  2  0
  2 13  1  0
 13 14  1  0
 14 15  2  0
 15 16  1  0
 16 17  2  0
 17 18  1  0
 18 19  2  0
 19 20  1  0
 20 21  2  0
 21 22  1  0
 22 23  2  0
 12  6  1  0
 23 14  1  0
 23 18  1  0
  1 24  1  0
  1 25  1  0
  1 26  1  0
  3 27  1  0
  3 28  1  0
  4 29  1  0
  4 30  1  0
  7 31  1  0
  8 32  1  0
  9 33  1  0
 12 34  1  0
 13 35  1  0
 13 36  1  0
 15 37  1  0
 16 38  1  0
 17 39  1  0
 19 40  1  0
 20 41  1  0
 21 42  1  0
 22 43  1  0
M  CHG  1  17   1
M  END
>  <UniqueID>  (26) 
24

>  <SMILES>  (26) 
CN(CCOc1cccc(Cl)c1)Cc1cc[nH+]c2ccccc12

>  <Energy>  (26) 
57.25502942947381

>  <Genealogy>  (26) 
CN(CCOc1cccc(Cl)c1)Cc1cc[nH+]c2ccccc12 (protonated)
CN(CCOc1cccc(Cl)c1)Cc1cc[nH+]c2ccccc12 (3D coordinates assigned)
CN(CCOc1cccc(Cl)c1)Cc1cc[nH+]c2ccccc12 (optimized conformer: 57.25502942947381 kcal/mol)

>  <smiles>  (26) 
CN(CCOc1cccc(Cl)c1)Cc1ccnc2ccccc12

>  <score_type>  (26) 
oracle

>  <origin>  (26) 
adg

>  <m_score__min__energy>  (26) 
-8.4800000000000004

>  <m_primary>  (26) 
energy

$$$$
26:0
     RDKit          3D

 38 40  0  0  0  0  0  0  0  0999 V2000
   -9.1440   20.8900  -32.1260 C   0  0  0  0  0  0  0  0  0  0  0  0
   -8.6820   19.5370  -31.5900 C   0  0  0  0  0  0  0  0  0  0  0  0
   -8.6060   18.5430  -32.6690 N   0  0  0  0  0  0  0  0  0  0  0  0
   -7.2290   18.3200  -33.0350 C   0  0  0  0  0  0  0  0  0  0  0  0
   -6.8510   17.1190  -33.6900 C   0  0  0  0  0  0  0  0  0  0  0  0
   -5.5110   16.8830  -34.0400 C   0  0  0  0  0  0  0  0  0  0  0  0
   -4.5690   17.8520  -33.7050 C   0  0  0  0  0  0  0  0  0  0  0  0
   -3.2110   17.9120  -33.9390 C   0  0  0  0  0  0  0  0  0  0  0  0
   -2.4000   16.9340  -34.6100 C   0  0  0  0  0  0  0  0  0  0  0  0
   -1.7470   16.1460  -35.1510 N   0  0  0  0  0  0  0  0  0  0  0  0
   -2.7780   19.1160  -33.4030 C   0  0  0  0  0  0  0  0  0  0  0  0
   -3.8210   19.7800  -32.8460 N   0  0  0  0  0  0  0  0  0  0  0  0
   -3.7400   21.0500  -32.1760 C   0  0  0  0  0  0  0  0  0  0  0  0
   -2.5770   21.4190  -31.4830 C   0  0  0  0  0  0  0  0  0  0  0  0
   -2.4960   22.6610  -30.8480 C   0  0  0  0  0  0  0  0  0  0  0  0
   -3.5740   23.5610  -30.9040 C   0  0  0  0  0  0  0  0  0  0  0  0
   -3.4860   24.8750  -30.2290 C   0  0  0  0  0  0  0  0  0  0  0  0
   -4.3350   25.7750  -30.4650 O   0  0  0  0  0  0  0  0  0  0  0  0
   -2.4620   25.1360  -29.3240 O   0  0  0  0  0  0  0  0  0  0  0  0
   -4.7310   23.1960  -31.6130 C   0  0  0  0  0  0  0  0  0  0  0  0
   -4.8100   21.9530  -32.2480 C   0  0  0  0  0  0  0  0  0  0  0  0
   -4.9120   19.0040  -33.0410 C   0  0  0  0  0  0  0  0  0  0  0  0
   -6.2410   19.2770  -32.7050 C   0  0  0  0  0  0  0  0  0  0  0  0
   -9.3726   21.5594  -31.2836 H   0  0  0  0  0  0  0  0  0  0  0  0
   -8.3462   21.3329  -32.7403 H   0  0  0  0  0  0  0  0  0  0  0  0
  -10.0461   20.7524  -32.7403 H   0  0  0  0  0  0  0  0  0  0  0  0
   -7.6872   19.6508  -31.1347 H   0  0  0  0  0  0  0  0  0  0  0  0
   -9.4096   19.1886  -30.8423 H   0  0  0  0  0  0  0  0  0  0  0  0
   -9.1410   18.8850  -33.5030 H   0  0  0  0  0  0  0  0  0  0  0  0
   -9.0390   17.6430  -32.3550 H   0  0  0  0  0  0  0  0  0  0  0  0
   -7.6158   16.3645  -33.9263 H   0  0  0  0  0  0  0  0  0  0  0  0
   -5.2152   15.9613  -34.5625 H   0  0  0  0  0  0  0  0  0  0  0  0
   -1.7399   19.4792  -33.4264 H   0  0  0  0  0  0  0  0  0  0  0  0
   -1.7237   20.7262  -31.4394 H   0  0  0  0  0  0  0  0  0  0  0  0
   -1.5824   22.9362  -30.3006 H   0  0  0  0  0  0  0  0  0  0  0  0
   -5.5802   23.8929  -31.6688 H   0  0  0  0  0  0  0  0  0  0  0  0
   -5.7174   21.6818  -32.8076 H   0  0  0  0  0  0  0  0  0  0  0  0
   -6.5121   20.2137  -32.1961 H   0  0  0  0  0  0  0  0  0  0  0  0
  1  2  1  0
  2  3  1  0
  3  4  1  0
  4  5  2  0
  5  6  1  0
  6  7  2  0
  7  8  1  0
  8  9  1  0
  9 10  3  0
  8 11  2  0
 11 12  1  0
 12 13  1  0
 13 14  2  0
 14 15  1  0
 15 16  2  0
 16 17  1  0
 17 18  2  0
 17 19  1  0
 16 20  1  0
 20 21  2  0
 12 22  1  0
 22 23  2  0
 23  4  1  0
 22  7  1  0
 21 13  1  0
  1 24  1  0
  1 25  1  0
  1 26  1  0
  2 27  1  0
  2 28  1  0
  3 29  1  0
  3 30  1  0
  5 31  1  0
  6 32  1  0
 11 33  1  0
 14 34  1  0
 15 35  1  0
 20 36  1  0
 21 37  1  0
 23 38  1  0
M  CHG  2   3   1  19  -1
M  END
>  <UniqueID>  (27) 
25

>  <SMILES>  (27) 
CC[NH2+]c1ccc2c(C#N)cn(-c3ccc(C(=O)[O-])cc3)c2c1

>  <Energy>  (27) 
77.81946128152678

>  <Genealogy>  (27) 
CC[NH2+]c1ccc2c(C#N)cn(-c3ccc(C(=O)[O-])cc3)c2c1 (protonated)
CC[NH2+]c1ccc2c(C#N)cn(-c3ccc(C(=O)[O-])cc3)c2c1 (3D coordinates assigned)
CC[NH2+]c1ccc2c(C#N)cn(-c3ccc(C(=O)[O-])cc3)c2c1 (optimized conformer: 77.81946128152678 kcal/mol)

>  <smiles>  (27) 
CCNc1ccc2c(C#N)cn(-c3ccc(C(=O)O)cc3)c2c1

>  <score_type>  (27) 
oracle

>  <origin>  (27) 
adg

>  <m_score__min__energy>  (27) 
-9.0500000000000007

>  <m_primary>  (27) 
energy

$$$$
27:0
     RDKit          3D

 59 62  0  0  0  0  0  0  0  0999 V2000
   -2.7270   19.2320  -26.6940 C   0  0  0  0  0  0  0  0  0  0  0  0
   -2.2870   20.5800  -27.2650 C   0  0  0  0  0  0  0  0  0  0  0  0
   -3.0100   20.9340  -28.5730 C   0  0  0  0  0  0  0  0  0  0  0  0
   -3.8270   22.2390  -28.4730 C   0  0  0  0  0  0  0  0  0  0  0  0
   -3.4790   23.2080  -29.5500 N   0  0  2  0  0  0  0  0  0  0  0  0
   -2.0160   23.4940  -29.5610 C   0  0  0  0  0  0  0  0  0  0  0  0
   -1.5570   24.5710  -28.5630 C   0  0  0  0  0  0  0  0  0  0  0  0
   -4.3130   24.4410  -29.4660 C   0  0  0  0  0  0  0  0  0  0  0  0
   -5.7690   24.2340  -29.9490 C   0  0  0  0  0  0  0  0  0  0  0  0
   -5.8310   23.9320  -31.3840 N   0  0  0  0  0  0  0  0  0  0  0  0
   -5.8960   22.5890  -31.8830 C   0  0  0  0  0  0  0  0  0  0  0  0
   -7.1080   21.8720  -32.0150 C   0  0  0  0  0  0  0  0  0  0  0  0
   -8.3050   22.3680  -31.4650 C   0  0  0  0  0  0  0  0  0  0  0  0
   -9.4920   21.6480  -31.5820 C   0  0  0  0  0  0  0  0  0  0  0  0
   -9.5020   20.4120  -32.2190 C   0  0  0  0  0  0  0  0  0  0  0  0
   -8.3270   19.8810  -32.7510 C   0  0  0  0  0  0  0  0  0  0  0  0
   -7.1070   20.5970  -32.6810 C   0  0  0  0  0  0  0  0  0  0  0  0
   -5.9300   20.0850  -33.2090 N   0  0  0  0  0  0  0  0  0  0  0  0
   -5.9250   18.9410  -34.1360 C   0  0  0  0  0  0  0  0  0  0  0  0
   -4.7580   20.7210  -32.8930 C   0  0  0  0  0  0  0  0  0  0  0  0
   -4.7320   21.9510  -32.2790 C   0  0  0  0  0  0  0  0  0  0  0  0
   -3.5020   22.4100  -32.1680 O   0  0  0  0  0  0  0  0  0  0  0  0
   -2.7090   21.4950  -32.6830 C   0  0  0  0  0  0  0  0  0  0  0  0
   -1.3210   21.5490  -32.7670 C   0  0  0  0  0  0  0  0  0  0  0  0
   -0.6490   20.4460  -33.3200 C   0  0  0  0  0  0  0  0  0  0  0  0
   -1.3710   19.3150  -33.7580 C   0  0  0  0  0  0  0  0  0  0  0  0
   -2.7740   19.2820  -33.6640 C   0  0  0  0  0  0  0  0  0  0  0  0
   -3.4260   20.4070  -33.1460 C   0  0  0  0  0  0  0  0  0  0  0  0
   -2.7123   19.2769  -25.5950 H   0  0  0  0  0  0  0  0  0  0  0  0
   -3.7465   19.0032  -27.0380 H   0  0  0  0  0  0  0  0  0  0  0  0
   -2.0388   18.4458  -27.0380 H   0  0  0  0  0  0  0  0  0  0  0  0
   -2.4996   21.3631  -26.5223 H   0  0  0  0  0  0  0  0  0  0  0  0
   -1.2119   20.5116  -27.4876 H   0  0  0  0  0  0  0  0  0  0  0  0
   -2.2594   21.0499  -29.3687 H   0  0  0  0  0  0  0  0  0  0  0  0
   -3.7154   20.1187  -28.7914 H   0  0  0  0  0  0  0  0  0  0  0  0
   -4.8965   21.9936  -28.5500 H   0  0  0  0  0  0  0  0  0  0  0  0
   -3.5915   22.7103  -27.5074 H   0  0  0  0  0  0  0  0  0  0  0  0
   -3.6750   22.7410  -30.4660 H   0  0  0  0  0  0  0  0  0  0  0  0
   -1.4840   22.5607  -29.3246 H   0  0  0  0  0  0  0  0  0  0  0  0
   -1.7866   23.8854  -30.5631 H   0  0  0  0  0  0  0  0  0  0  0  0
   -1.7114   24.2088  -27.5359 H   0  0  0  0  0  0  0  0  0  0  0  0
   -0.4895   24.7850  -28.7197 H   0  0  0  0  0  0  0  0  0  0  0  0
   -2.1419   25.4893  -28.7197 H   0  0  0  0  0  0  0  0  0  0  0  0
   -4.3376   24.7743  -28.4180 H   0  0  0  0  0  0  0  0  0  0  0  0
   -3.8544   25.1884  -30.1301 H   0  0  0  0  0  0  0  0  0  0  0  0
   -6.2138   23.3976  -29.3899 H   0  0  0  0  0  0  0  0  0  0  0  0
   -6.3231   25.1677  -29.7725 H   0  0  0  0  0  0  0  0  0  0  0  0
   -6.1060   24.7070  -32.0290 H   0  0  0  0  0  0  0  0  0  0  0  0
   -8.3032   23.3334  -30.9377 H   0  0  0  0  0  0  0  0  0  0  0  0
  -10.4250   22.0589  -31.1688 H   0  0  0  0  0  0  0  0  0  0  0  0
  -10.4432   19.8490  -32.3040 H   0  0  0  0  0  0  0  0  0  0  0  0
   -8.3482   18.8919  -33.2318 H   0  0  0  0  0  0  0  0  0  0  0  0
   -5.9209   18.0032  -33.5611 H   0  0  0  0  0  0  0  0  0  0  0  0
   -6.8233   18.9787  -34.7697 H   0  0  0  0  0  0  0  0  0  0  0  0
   -5.0270   18.9865  -34.7697 H   0  0  0  0  0  0  0  0  0  0  0  0
   -0.7662   22.4295  -32.4108 H   0  0  0  0  0  0  0  0  0  0  0  0
    0.4470   20.4640  -33.4122 H   0  0  0  0  0  0  0  0  0  0  0  0
   -0.8319   18.4522  -34.1763 H   0  0  0  0  0  0  0  0  0  0  0  0
   -3.3423   18.3977  -33.9882 H   0  0  0  0  0  0  0  0  0  0  0  0
  1  2  1  0
  2  3  1  0
  3  4  1  0
  4  5  1  0
  5  6  1  0
  6  7  1  0
  5  8  1  0
  8  9  1  0
  9 10  1  0
 10 11  1  0
 11 12  2  0
 12 13  1  0
 13 14  2  0
 14 15  1  0
 15 16  2  0
 16 17  1  0
 17 18  2  0
 18 19  1  0
 18 20  1  0
 20 21  2  0
 21 22  1  0
 22 23  1  0
 23 24  2  0
 24 25  1  0
 25 26  2  0
 26 27  1  0
 27 28  2  0
 21 11  1  0
 28 23  1  0
 17 12  1  0
 28 20  1  0
  1 29  1  0
  1 30  1  0
  1 31  1  0
  2 32  1  0
  2 33  1  0
  3 34  1  0
  3 35  1  0
  4 36  1  0
  4 37  1  0
  5 38  1  6
  6 39  1  0
  6 40  1  0
  7 41  1  0
  7 42  1  0
  7 43  1  0
  8 44  1  0
  8 45  1  0
  9 46  1  0
  9 47  1  0
 10 48  1  0
 13 49  1  0
 14 50  1  0
 15 51  1  0
 16 52  1  0
 19 53  1  0
 19 54  1  0
 19 55  1  0
 24 56  1  0
 25 57  1  0
 26 58  1  0
 27 59  1  0
M  CHG  2   5   1  18   1
M  END
>  <UniqueID>  (28) 
26

>  <SMILES>  (28) 
CCCC[N@H+](CC)CCNc1c2ccccc2[n+](C)c2c1oc1ccccc12

>  <Energy>  (28) 
121.17697792889632

>  <Genealogy>  (28) 
CCCC[NH+](CC)CCNc1c2ccccc2[n+](C)c2c1oc1ccccc12 (protonated)
CCCC[N@H+](CC)CCNc1c2ccccc2[n+](C)c2c1oc1ccccc12 (chirality)
CCCC[N@H+](CC)CCNc1c2ccccc2[n+](C)c2c1oc1ccccc12 (3D coordinates assigned)
CCCC[N@H+](CC)CCNc1c2ccccc2[n+](C)c2c1oc1ccccc12 (optimized conformer: 121.17697792889632 kcal/mol)

>  <smiles>  (28) 
CCCCN(CC)CCNc1c2ccccc2[n+](C)c2c1oc1ccccc12

>  <score_type>  (28) 
oracle

>  <origin>  (28) 
adg

>  <m_score__min__energy>  (28) 
-7

>  <m_primary>  (28) 
energy

$$$$
28:0
     RDKit          3D

 39 41  0  0  0  0  0  0  0  0999 V2000
   -8.7100   20.5300  -32.3200 C   0  0  0  0  0  0  0  0  0  0  0  0
   -7.4050   20.2980  -31.5650 C   0  0  0  0  0  0  0  0  0  0  0  0
   -6.3210   21.0810  -32.1660 N   0  0  0  0  0  0  0  0  0  0  0  0
   -5.9640   22.3440  -31.8540 C   0  0  0  0  0  0  0  0  0  0  0  0
   -6.8830   23.4310  -30.7580 S   0  0  0  0  0  0  0  0  0  0  0  0
   -6.1230   24.9770  -31.3710 C   0  0  0  0  0  0  0  0  0  0  0  0
   -5.1440   25.5760  -30.3600 C   0  0  0  0  0  0  0  0  0  0  0  0
   -3.8580   24.9600  -30.4530 O   0  0  0  0  0  0  0  0  0  0  0  0
   -3.4190   23.8270  -29.7490 C   0  0  0  0  0  0  0  0  0  0  0  0
   -3.9200   23.4620  -28.4820 C   0  0  0  0  0  0  0  0  0  0  0  0
   -3.4480   22.3110  -27.8420 C   0  0  0  0  0  0  0  0  0  0  0  0
   -2.4690   21.5200  -28.4500 C   0  0  0  0  0  0  0  0  0  0  0  0
   -1.8290   19.9480  -27.5760 Br  0  0  0  0  0  0  0  0  0  0  0  0
   -1.9580   21.8820  -29.6990 C   0  0  0  0  0  0  0  0  0  0  0  0
   -2.4300   23.0320  -30.3420 C   0  0  0  0  0  0  0  0  0  0  0  0
   -4.7870   22.6800  -32.4110 N   0  0  0  0  0  0  0  0  0  0  0  0
   -4.3630   21.6240  -33.0860 N   0  0  0  0  0  0  0  0  0  0  0  0
   -5.2930   20.6590  -32.9370 C   0  0  0  0  0  0  0  0  0  0  0  0
   -5.1310   19.3070  -33.4990 C   0  0  0  0  0  0  0  0  0  0  0  0
   -3.9870   18.5130  -33.3230 C   0  0  0  0  0  0  0  0  0  0  0  0
   -4.0840   17.2600  -33.9110 C   0  0  0  0  0  0  0  0  0  0  0  0
   -5.6000   17.1360  -34.6260 S   0  0  0  0  0  0  0  0  0  0  0  0
   -6.1470   18.6660  -34.2010 C   0  0  0  0  0  0  0  0  0  0  0  0
   -9.5291   20.6756  -31.6003 H   0  0  0  0  0  0  0  0  0  0  0  0
   -8.6138   21.4251  -32.9521 H   0  0  0  0  0  0  0  0  0  0  0  0
   -8.9282   19.6566  -32.9521 H   0  0  0  0  0  0  0  0  0  0  0  0
   -7.5340   20.6030  -30.5160 H   0  0  0  0  0  0  0  0  0  0  0  0
   -7.1464   19.2302  -31.6190 H   0  0  0  0  0  0  0  0  0  0  0  0
   -5.5817   24.7607  -32.3039 H   0  0  0  0  0  0  0  0  0  0  0  0
   -6.9281   25.7079  -31.5375 H   0  0  0  0  0  0  0  0  0  0  0  0
   -5.0401   26.6532  -30.5571 H   0  0  0  0  0  0  0  0  0  0  0  0
   -5.5398   25.4011  -29.3487 H   0  0  0  0  0  0  0  0  0  0  0  0
   -4.6849   24.0848  -27.9952 H   0  0  0  0  0  0  0  0  0  0  0  0
   -3.8485   22.0277  -26.8574 H   0  0  0  0  0  0  0  0  0  0  0  0
   -1.1845   21.2630  -30.1771 H   0  0  0  0  0  0  0  0  0  0  0  0
   -2.0201   23.3143  -31.3230 H   0  0  0  0  0  0  0  0  0  0  0  0
   -3.0978   18.8520  -32.7712 H   0  0  0  0  0  0  0  0  0  0  0  0
   -3.3049   16.4835  -33.9095 H   0  0  0  0  0  0  0  0  0  0  0  0
   -7.1354   19.0875  -34.4364 H   0  0  0  0  0  0  0  0  0  0  0  0
  1  2  1  0
  2  3  1  0
  3  4  1  0
  4  5  1  0
  5  6  1  0
  6  7  1  0
  7  8  1  0
  8  9  1  0
  9 10  2  0
 10 11  1  0
 11 12  2  0
 12 13  1  0
 12 14  1  0
 14 15  2  0
  4 16  2  0
 16 17  1  0
 17 18  2  0
 18 19  1  0
 19 20  1  0
 20 21  2  0
 21 22  1  0
 22 23  1  0
 18  3  1  0
 23 19  2  0
 15  9  1  0
  1 24  1  0
  1 25  1  0
  1 26  1  0
  2 27  1  0
  2 28  1  0
  6 29  1  0
  6 30  1  0
  7 31  1  0
  7 32  1  0
 10 33  1  0
 11 34  1  0
 14 35  1  0
 15 36  1  0
 20 37  1  0
 21 38  1  0
 23 39  1  0
M  END
>  <UniqueID>  (29) 
27

>  <SMILES>  (29) 
CCn1c(SCCOc2ccc(Br)cc2)nnc1-c1ccsc1

>  <Energy>  (29) 
99.93008502393529

>  <Genealogy>  (29) 
CCn1c(SCCOc2ccc(Br)cc2)nnc1-c1ccsc1 (3D coordinates assigned)
CCn1c(SCCOc2ccc(Br)cc2)nnc1-c1ccsc1 (optimized conformer: 99.93008502393529 kcal/mol)

>  <smiles>  (29) 
CCn1c(SCCOc2ccc(Br)cc2)nnc1-c1ccsc1

>  <score_type>  (29) 
oracle

>  <origin>  (29) 
adg

>  <m_score__min__energy>  (29) 
-8.7899999999999991

>  <m_primary>  (29) 
energy

$$$$
29:0
     RDKit          3D

 43 44  0  0  0  0  0  0  0  0999 V2000
   -9.0940   20.0020  -32.3220 C   0  0  0  0  0  0  0  0  0  0  0  0
   -7.8260   19.8920  -31.5800 N   0  0  0  0  0  0  0  0  0  0  0  0
   -7.0670   18.7130  -32.0400 C   0  0  0  0  0  0  0  0  0  0  0  0
   -7.0750   21.1780  -31.5850 C   0  0  0  0  0  0  0  0  0  0  0  0
   -7.9340   22.4250  -31.9220 C   0  0  0  0  0  0  0  0  0  0  0  0
   -7.0880   23.5830  -32.4980 C   0  0  0  0  0  0  0  0  0  0  0  0
   -5.6990   23.6020  -31.9840 N   0  0  0  0  0  0  0  0  0  0  0  0
   -5.6150   24.0190  -30.5640 C   0  0  0  0  0  0  0  0  0  0  0  0
   -4.9490   25.3940  -30.4460 C   0  0  0  0  0  0  0  0  0  0  0  0
   -3.5310   25.2560  -30.3410 O   0  0  0  0  0  0  0  0  0  0  0  0
   -2.8560   24.5480  -29.3320 C   0  0  0  0  0  0  0  0  0  0  0  0
   -1.8740   25.2220  -28.5980 C   0  0  0  0  0  0  0  0  0  0  0  0
   -1.1660   24.5650  -27.5890 C   0  0  0  0  0  0  0  0  0  0  0  0
   -1.4320   23.2240  -27.2980 C   0  0  0  0  0  0  0  0  0  0  0  0
   -0.5140   22.4340  -26.0190 Cl  0  0  0  0  0  0  0  0  0  0  0  0
   -2.4200   22.5350  -28.0250 C   0  0  0  0  0  0  0  0  0  0  0  0
   -2.7160   21.1510  -27.7480 C   0  0  0  0  0  0  0  0  0  0  0  0
   -2.9550   20.0410  -27.5260 N   0  0  0  0  0  0  0  0  0  0  0  0
   -3.1310   23.1980  -29.0340 C   0  0  0  0  0  0  0  0  0  0  0  0
   -4.9470   22.3550  -32.2940 C   0  0  0  0  0  0  0  0  0  0  0  0
   -5.8400   21.1110  -32.4930 C   0  0  0  0  0  0  0  0  0  0  0  0
   -9.9300   20.0745  -31.6107 H   0  0  0  0  0  0  0  0  0  0  0  0
   -9.0718   20.9016  -32.9546 H   0  0  0  0  0  0  0  0  0  0  0  0
   -9.2270   19.1120  -32.9546 H   0  0  0  0  0  0  0  0  0  0  0  0
   -6.7034   18.1482  -31.1689 H   0  0  0  0  0  0  0  0  0  0  0  0
   -7.7211   18.0698  -32.6470 H   0  0  0  0  0  0  0  0  0  0  0  0
   -6.2107   19.0421  -32.6470 H   0  0  0  0  0  0  0  0  0  0  0  0
   -6.7477   21.3116  -30.5433 H   0  0  0  0  0  0  0  0  0  0  0  0
   -8.6950   22.1402  -32.6635 H   0  0  0  0  0  0  0  0  0  0  0  0
   -8.3950   22.7780  -30.9877 H   0  0  0  0  0  0  0  0  0  0  0  0
   -7.0544   23.4806  -33.5927 H   0  0  0  0  0  0  0  0  0  0  0  0
   -7.5653   24.5236  -32.1857 H   0  0  0  0  0  0  0  0  0  0  0  0
   -6.6293   24.0708  -30.1415 H   0  0  0  0  0  0  0  0  0  0  0  0
   -5.0112   23.2832  -30.0127 H   0  0  0  0  0  0  0  0  0  0  0  0
   -5.1895   25.9904  -31.3384 H   0  0  0  0  0  0  0  0  0  0  0  0
   -5.3255   25.8951  -29.5420 H   0  0  0  0  0  0  0  0  0  0  0  0
   -1.6577   26.2780  -28.8173 H   0  0  0  0  0  0  0  0  0  0  0  0
   -0.3951   25.1058  -27.0204 H   0  0  0  0  0  0  0  0  0  0  0  0
   -3.9088   22.6615  -29.5972 H   0  0  0  0  0  0  0  0  0  0  0  0
   -4.3728   22.5189  -33.2178 H   0  0  0  0  0  0  0  0  0  0  0  0
   -4.3054   22.1481  -31.4248 H   0  0  0  0  0  0  0  0  0  0  0  0
   -6.1658   21.0648  -33.5426 H   0  0  0  0  0  0  0  0  0  0  0  0
   -5.2589   20.2138  -32.2334 H   0  0  0  0  0  0  0  0  0  0  0  0
  1  2  1  0
  2  3  1  0
  2  4  1  0
  4  5  1  0
  5  6  1  0
  6  7  1  0
  7  8  1  0
  8  9  1  0
  9 10  1  0
 10 11  1  0
 11 12  2  0
 12 13  1  0
 13 14  2  0
 14 15  1  0
 14 16  1  0
 16 17  1  0
 17 18  3  0
 16 19  2  0
  7 20  1  0
 20 21  1  0
 21  4  1  0
 19 11  1  0
  1 22  1  0
  1 23  1  0
  1 24  1  0
  3 25  1  0
  3 26  1  0
  3 27  1  0
  4 28  1  0
  5 29  1  0
  5 30  1  0
  6 31  1  0
  6 32  1  0
  8 33  1  0
  8 34  1  0
  9 35  1  0
  9 36  1  0
 12 37  1  0
 13 38  1  0
 19 39  1  0
 20 40  1  0
 20 41  1  0
 21 42  1  0
 21 43  1  0
M  END
>  <UniqueID>  (30) 
28

>  <SMILES>  (30) 
CN(C)C1CCN(CCOc2ccc(Cl)c(C#N)c2)CC1

>  <Energy>  (30) 
57.14068972247857

>  <Genealogy>  (30) 
CN(C)C1CCN(CCOc2ccc(Cl)c(C#N)c2)CC1 (3D coordinates assigned)
CN(C)C1CCN(CCOc2ccc(Cl)c(C#N)c2)CC1 (nonaromatic ring conformer: 57.14068972247857 kcal/mol)

>  <smiles>  (30) 
CN(C)C1CCN(CCOc2ccc(Cl)c(C#N)c2)CC1

>  <score_type>  (30) 
oracle

>  <origin>  (30) 
adg

>  <m_score__min__energy>  (30) 
-7.8200000000000003

>  <m_primary>  (30) 
energy

$$$$
30:0
     RDKit          3D

 54 55  0  0  0  0  0  0  0  0999 V2000
   -5.5590   17.8650  -34.8900 C   0  0  0  0  0  0  0  0  0  0  0  0
   -6.4790   18.8650  -34.1940 C   0  0  0  0  0  0  0  0  0  0  0  0
   -7.0280   18.2780  -32.9540 N   0  0  0  0  0  0  0  0  0  0  0  0
   -6.6590   16.8540  -32.7850 C   0  0  0  0  0  0  0  0  0  0  0  0
   -5.7440   16.6700  -31.5780 C   0  0  0  0  0  0  0  0  0  0  0  0
   -6.8000   19.1110  -31.7450 C   0  0  0  0  0  0  0  0  0  0  0  0
   -7.3850   20.5220  -31.8170 C   0  0  0  0  0  0  0  0  0  0  0  0
   -8.7550   20.7050  -31.5480 C   0  0  0  0  0  0  0  0  0  0  0  0
   -9.3410   21.9690  -31.6290 C   0  0  0  0  0  0  0  0  0  0  0  0
   -8.5660   23.0810  -31.9490 C   0  0  0  0  0  0  0  0  0  0  0  0
   -7.2010   22.9340  -32.1780 C   0  0  0  0  0  0  0  0  0  0  0  0
   -6.5920   21.6680  -32.1180 C   0  0  0  0  0  0  0  0  0  0  0  0
   -5.1180   21.6020  -32.2860 C   0  0  0  0  0  0  0  0  0  0  0  0
   -4.6010   20.9850  -33.4370 C   0  0  0  0  0  0  0  0  0  0  0  0
   -3.2250   20.8790  -33.6310 C   0  0  0  0  0  0  0  0  0  0  0  0
   -2.3330   21.3610  -32.6650 C   0  0  0  0  0  0  0  0  0  0  0  0
   -0.8420   21.2360  -32.8860 C   0  0  0  0  0  0  0  0  0  0  0  0
   -0.5140   20.9880  -34.3090 N   0  0  0  0  0  0  0  0  0  0  0  0
   -0.4900   19.5430  -34.6090 C   0  0  0  0  0  0  0  0  0  0  0  0
    0.7930   21.5860  -34.6400 C   0  0  0  0  0  0  0  0  0  0  0  0
   -2.8390   21.9440  -31.4930 C   0  0  0  0  0  0  0  0  0  0  0  0
   -4.2240   22.0770  -31.2950 C   0  0  0  0  0  0  0  0  0  0  0  0
   -4.7190   22.6890  -30.0090 C   0  0  0  0  0  0  0  0  0  0  0  0
   -5.0179   17.2769  -34.1341 H   0  0  0  0  0  0  0  0  0  0  0  0
   -6.1591   17.1907  -35.5187 H   0  0  0  0  0  0  0  0  0  0  0  0
   -4.8371   18.4069  -35.5187 H   0  0  0  0  0  0  0  0  0  0  0  0
   -5.9078   19.7714  -33.9447 H   0  0  0  0  0  0  0  0  0  0  0  0
   -7.3098   19.1177  -34.8692 H   0  0  0  0  0  0  0  0  0  0  0  0
   -7.5730   16.2597  -32.6384 H   0  0  0  0  0  0  0  0  0  0  0  0
   -6.1246   16.5193  -33.6863 H   0  0  0  0  0  0  0  0  0  0  0  0
   -6.3284   16.7875  -30.6535 H   0  0  0  0  0  0  0  0  0  0  0  0
   -5.2990   15.6644  -31.6051 H   0  0  0  0  0  0  0  0  0  0  0  0
   -4.9449   17.4254  -31.6051 H   0  0  0  0  0  0  0  0  0  0  0  0
   -7.2532   18.5965  -30.8848 H   0  0  0  0  0  0  0  0  0  0  0  0
   -5.7105   19.2325  -31.6544 H   0  0  0  0  0  0  0  0  0  0  0  0
   -9.3728   19.8384  -31.2698 H   0  0  0  0  0  0  0  0  0  0  0  0
  -10.4181   22.0873  -31.4396 H   0  0  0  0  0  0  0  0  0  0  0  0
   -9.0323   24.0747  -32.0207 H   0  0  0  0  0  0  0  0  0  0  0  0
   -6.5908   23.8196  -32.4089 H   0  0  0  0  0  0  0  0  0  0  0  0
   -5.2897   20.5810  -34.1936 H   0  0  0  0  0  0  0  0  0  0  0  0
   -2.8370   20.4136  -34.5491 H   0  0  0  0  0  0  0  0  0  0  0  0
   -0.3555   22.1693  -32.5662 H   0  0  0  0  0  0  0  0  0  0  0  0
   -0.4806   20.3793  -32.2983 H   0  0  0  0  0  0  0  0  0  0  0  0
   -1.2330   21.4420  -34.9210 H   0  0  0  0  0  0  0  0  0  0  0  0
   -0.4805   18.9733  -33.6681 H   0  0  0  0  0  0  0  0  0  0  0  0
   -1.3838   19.2745  -35.1912 H   0  0  0  0  0  0  0  0  0  0  0  0
    0.4122   19.3043  -35.1912 H   0  0  0  0  0  0  0  0  0  0  0  0
    1.3296   21.8315  -33.7116 H   0  0  0  0  0  0  0  0  0  0  0  0
    1.3858   20.8695  -35.2276 H   0  0  0  0  0  0  0  0  0  0  0  0
    0.6384   22.5030  -35.2276 H   0  0  0  0  0  0  0  0  0  0  0  0
   -2.1430   22.3013  -30.7198 H   0  0  0  0  0  0  0  0  0  0  0  0
   -4.2831   22.1501  -29.1549 H   0  0  0  0  0  0  0  0  0  0  0  0
   -4.4192   23.7465  -29.9670 H   0  0  0  0  0  0  0  0  0  0  0  0
   -5.8158   22.6169  -29.9670 H   0  0  0  0  0  0  0  0  0  0  0  0
  1  2  1  0
  2  3  1  0
  3  4  1  0
  4  5  1  0
  3  6  1  0
  6  7  1  0
  7  8  2  0
  8  9  1  0
  9 10  2  0
 10 11  1  0
 11 12  2  0
 12 13  1  0
 13 14  2  0
 14 15  1  0
 15 16  2  0
 16 17  1  0
 17 18  1  0
 18 19  1  0
 18 20  1  0
 16 21  1  0
 21 22  2  0
 22 23  1  0
 12  7  1  0
 22 13  1  0
  1 24  1  0
  1 25  1  0
  1 26  1  0
  2 27  1  0
  2 28  1  0
  4 29  1  0
  4 30  1  0
  5 31  1  0
  5 32  1  0
  5 33  1  0
  6 34  1  0
  6 35  1  0
  8 36  1  0
  9 37  1  0
 10 38  1  0
 11 39  1  0
 14 40  1  0
 15 41  1  0
 17 42  1  0
 17 43  1  0
 18 44  1  0
 19 45  1  0
 19 46  1  0
 19 47  1  0
 20 48  1  0
 20 49  1  0
 20 50  1  0
 21 51  1  0
 23 52  1  0
 23 53  1  0
 23 54  1  0
M  CHG  1  18   1
M  END
>  <UniqueID>  (31) 
29

>  <SMILES>  (31) 
CCN(CC)Cc1ccccc1-c1ccc(C[NH+](C)C)cc1C

>  <Energy>  (31) 
64.31379258695775

>  <Genealogy>  (31) 
CCN(CC)Cc1ccccc1-c1ccc(C[NH+](C)C)cc1C (protonated)
CCN(CC)Cc1ccccc1-c1ccc(C[NH+](C)C)cc1C (3D coordinates assigned)
CCN(CC)Cc1ccccc1-c1ccc(C[NH+](C)C)cc1C (optimized conformer: 64.31379258695775 kcal/mol)

>  <smiles>  (31) 
CCN(CC)Cc1ccccc1-c1ccc(CN(C)C)cc1C

>  <score_type>  (31) 
oracle

>  <origin>  (31) 
adg

>  <m_score__min__energy>  (31) 
-7.3600000000000003

>  <m_primary>  (31) 
energy

$$$$
31:0
     RDKit          3D

 56 58  0  0  0  0  0  0  0  0999 V2000
   -5.1859   26.0442  -31.2395 H   0  0  0  0  0  0  0  0  0  0  0  0
   -4.6820   25.1540  -30.8350 C   0  0  0  0  0  0  0  0  0  0  0  0
   -3.5210   25.2940  -30.1530 N   0  0  0  0  0  0  0  0  0  0  0  0
   -2.8550   24.2310  -29.6400 C   0  0  0  0  0  0  0  0  0  0  0  0
   -1.6540   24.4410  -28.9590 C   0  0  0  0  0  0  0  0  0  0  0  0
   -1.2683   25.4645  -28.8418 H   0  0  0  0  0  0  0  0  0  0  0  0
   -0.9310   23.3610  -28.4210 C   0  0  0  0  0  0  0  0  0  0  0  0
    0.3130   23.5710  -27.7170 N   0  0  0  0  0  0  0  0  0  0  0  0
    0.8480   22.7400  -27.3780 H   0  0  0  0  0  0  0  0  0  0  0  0
    0.9150   24.8820  -27.4650 C   0  0  0  0  0  0  0  0  0  0  0  0
    0.1261   25.6486  -27.4656 H   0  0  0  0  0  0  0  0  0  0  0  0
    1.6503   25.0934  -28.2554 H   0  0  0  0  0  0  0  0  0  0  0  0
    1.6300   24.8940  -26.1060 C   0  0  0  0  0  0  0  0  0  0  0  0
    2.0829   25.8854  -25.9578 H   0  0  0  0  0  0  0  0  0  0  0  0
    2.3849   24.0942  -26.1263 H   0  0  0  0  0  0  0  0  0  0  0  0
    0.6860   24.6040  -24.9210 C   0  0  0  0  0  0  0  0  0  0  0  0
    1.0879   23.7450  -24.3636 H   0  0  0  0  0  0  0  0  0  0  0  0
   -0.3072   24.4099  -25.3521 H   0  0  0  0  0  0  0  0  0  0  0  0
    0.5220   25.7360  -23.9740 N   0  0  1  0  0  0  0  0  0  0  0  0
    0.6850   25.3730  -23.0050 H   0  0  0  0  0  0  0  0  0  0  0  0
    1.5780   26.7410  -24.2050 C   0  0  0  0  0  0  0  0  0  0  0  0
    1.9579   27.1026  -23.2381 H   0  0  0  0  0  0  0  0  0  0  0  0
    2.4007   26.2841  -24.7745 H   0  0  0  0  0  0  0  0  0  0  0  0
    1.1624   27.5853  -24.7745 H   0  0  0  0  0  0  0  0  0  0  0  0
   -0.8280   26.3600  -23.9810 C   0  0  0  0  0  0  0  0  0  0  0  0
   -0.7026   27.4484  -23.8823 H   0  0  0  0  0  0  0  0  0  0  0  0
   -1.3820   25.9098  -23.1442 H   0  0  0  0  0  0  0  0  0  0  0  0
   -1.6560   26.0870  -25.2450 C   0  0  0  0  0  0  0  0  0  0  0  0
   -2.6645   25.7545  -24.9580 H   0  0  0  0  0  0  0  0  0  0  0  0
   -1.7296   27.0084  -25.8413 H   0  0  0  0  0  0  0  0  0  0  0  0
   -1.1671   25.3025  -25.8413 H   0  0  0  0  0  0  0  0  0  0  0  0
   -1.4390   22.0550  -28.5600 C   0  0  0  0  0  0  0  0  0  0  0  0
   -0.7080   20.9850  -28.0170 O   0  0  0  0  0  0  0  0  0  0  0  0
   -1.2800   19.8610  -27.3540 C   0  0  0  0  0  0  0  0  0  0  0  0
   -1.2083   20.0018  -26.2654 H   0  0  0  0  0  0  0  0  0  0  0  0
   -2.3371   19.7641  -27.6424 H   0  0  0  0  0  0  0  0  0  0  0  0
   -0.7362   18.9494  -27.6424 H   0  0  0  0  0  0  0  0  0  0  0  0
   -2.6540   21.8470  -29.2440 C   0  0  0  0  0  0  0  0  0  0  0  0
   -3.0473   20.8252  -29.3503 H   0  0  0  0  0  0  0  0  0  0  0  0
   -3.3730   22.9280  -29.7940 C   0  0  0  0  0  0  0  0  0  0  0  0
   -4.6050   22.7440  -30.4740 C   0  0  0  0  0  0  0  0  0  0  0  0
   -5.0820   21.5270  -30.5680 N   0  0  0  0  0  0  0  0  0  0  0  0
   -5.3350   20.7330  -31.7330 C   0  0  0  0  0  0  0  0  0  0  0  0
   -6.6470   20.5450  -32.1940 C   0  0  0  0  0  0  0  0  0  0  0  0
   -7.4847   21.0471  -31.6879 H   0  0  0  0  0  0  0  0  0  0  0  0
   -6.8900   19.7200  -33.2960 C   0  0  0  0  0  0  0  0  0  0  0  0
   -7.9170   19.5894  -33.6679 H   0  0  0  0  0  0  0  0  0  0  0  0
   -5.8300   19.0600  -33.9270 C   0  0  0  0  0  0  0  0  0  0  0  0
   -6.0770   18.2610  -34.9950 F   0  0  0  0  0  0  0  0  0  0  0  0
   -4.5230   19.2190  -33.4480 C   0  0  0  0  0  0  0  0  0  0  0  0
   -3.1870   18.3810  -34.2190 Cl  0  0  0  0  0  0  0  0  0  0  0  0
   -4.2790   20.0450  -32.3440 C   0  0  0  0  0  0  0  0  0  0  0  0
   -3.2556   20.1538  -31.9557 H   0  0  0  0  0  0  0  0  0  0  0  0
   -5.2480   23.8900  -31.0310 C   0  0  0  0  0  0  0  0  0  0  0  0
   -6.4050   23.8270  -31.8930 C   0  0  0  0  0  0  0  0  0  0  0  0
   -7.3320   23.7670  -32.5830 N   0  0  0  0  0  0  0  0  0  0  0  0
  1  2  1  0
  2  3  1  0
  3  4  1  0
  4  5  2  0
  5  6  1  0
  5  7  1  0
  7  8  1  0
  8  9  1  0
  8 10  1  0
 10 11  1  0
 10 12  1  0
 10 13  1  0
 13 14  1  0
 13 15  1  0
 13 16  1  0
 16 17  1  0
 16 18  1  0
 16 19  1  0
 19 20  1  1
 19 21  1  0
 21 22  1  0
 21 23  1  0
 21 24  1  0
 19 25  1  0
 25 26  1  0
 25 27  1  0
 25 28  1  0
 28 29  1  0
 28 30  1  0
 28 31  1  0
  7 32  2  0
 32 33  1  0
 33 34  1  0
 34 35  1  0
 34 36  1  0
 34 37  1  0
 32 38  1  0
 38 39  1  0
 38 40  2  0
 40 41  1  0
 41 42  2  0
 42 43  1  0
 43 44  2  0
 44 45  1  0
 44 46  1  0
 46 47  1  0
 46 48  2  0
 48 49  1  0
 48 50  1  0
 50 51  1  0
 50 52  2  0
 52 53  1  0
 41 54  1  0
 54 55  1  0
 55 56  3  0
 54  2  2  0
 40  4  1  0
 52 43  1  0
M  CHG  2   3  -1  19   1
M  END
>  <UniqueID>  (32) 
30

>  <SMILES>  (32) 
CC[N@H+](C)CCCNc1cc2[n-]cc(C#N)/c(=N\c3ccc(F)c(Cl)c3)c2cc1OC

>  <Energy>  (32) 
78.68532891178397

>  <Genealogy>  (32) 
CC[NH+](C)CCCNc1cc2[n-]cc(C#N)c(=Nc3ccc(F)c(Cl)c3)c2cc1OC (protonated)
CC[N@H+](C)CCCNc1cc2[n-]cc(C#N)c(=Nc3ccc(F)c(Cl)c3)c2cc1OC (chirality)
CC[N@H+](C)CCCNc1cc2[n-]cc(C#N)/c(=N\c3ccc(F)c(Cl)c3)c2cc1OC (cis-trans isomerization)
CC[N@H+](C)CCCNc1cc2[n-]cc(C#N)/c(=N\c3ccc(F)c(Cl)c3)c2cc1OC (3D coordinates assigned)
CC[N@H+](C)CCCNc1cc2[n-]cc(C#N)/c(=N\c3ccc(F)c(Cl)c3)c2cc1OC (optimized conformer: 78.68532891178397 kcal/mol)

>  <smiles>  (32) 
CCN(C)CCCNc1cc2[nH]cc(C#N)c(=Nc3ccc(F)c(Cl)c3)c2cc1OC

>  <score_type>  (32) 
oracle

>  <origin>  (32) 
adg

>  <m_score__min__energy>  (32) 
-9.8100000000000005

>  <m_primary>  (32) 
energy

$$$$
