0:0
     RDKit          3D

 26 28  0  0  0  0  0  0  0  0999 V2000
   -8.4000   19.6210  -33.8430 H   0  0  0  0  0  0  0  0  0  0  0  0
   -7.9900   20.1790  -33.0630 N   0  0  0  0  0  0  0  0  0  0  0  0
   -6.2430   21.8330  -32.4800 C   0  0  0  0  0  0  0  0  0  0  0  0
   -6.9040   22.7110  -31.7110 C   0  0  0  0  0  0  0  0  0  0  0  0
   -6.7730   20.6220  -33.0940 C   0  0  0  0  0  0  0  0  0  0  0  0
   -7.9834   22.5560  -31.5665 H   0  0  0  0  0  0  0  0  0  0  0  0
   -6.2810   23.8690  -31.0470 C   0  0  0  0  0  0  0  0  0  0  0  0
   -5.0180   24.1900  -31.2100 O   0  0  0  0  0  0  0  0  0  0  0  0
   -4.7480   25.2370  -30.4650 C   0  0  0  0  0  0  0  0  0  0  0  0
   -3.7691   25.7348  -30.4027 H   0  0  0  0  0  0  0  0  0  0  0  0
   -5.8790   25.6180  -29.7720 C   0  0  0  0  0  0  0  0  0  0  0  0
   -5.9709   26.4580  -29.0678 H   0  0  0  0  0  0  0  0  0  0  0  0
   -6.8700   24.7340  -30.1400 C   0  0  0  0  0  0  0  0  0  0  0  0
   -7.9117   24.7186  -29.7869 H   0  0  0  0  0  0  0  0  0  0  0  0
   -4.8340   21.8200  -32.7290 N   0  0  0  0  0  0  0  0  0  0  0  0
   -4.1050   22.3580  -32.2110 H   0  0  0  0  0  0  0  0  0  0  0  0
   -4.5810   20.7840  -33.4690 C   0  0  0  0  0  0  0  0  0  0  0  0
   -3.0470   19.8820  -33.4370 S   0  0  0  0  0  0  0  0  0  0  0  0
   -4.0380   18.4020  -33.4880 N   0  0  0  0  0  0  0  0  0  0  0  0
   -5.3080   18.6100  -33.6510 C   0  0  0  0  0  0  0  0  0  0  0  0
   -6.4790   17.2550  -33.7080 S   0  0  0  0  0  0  0  0  0  0  0  0
   -6.9310   17.4100  -31.9520 C   0  0  0  0  0  0  0  0  0  0  0  0
   -6.0755   17.1166  -31.3259 H   0  0  0  0  0  0  0  0  0  0  0  0
   -7.2040   18.4531  -31.7344 H   0  0  0  0  0  0  0  0  0  0  0  0
   -7.7867   16.7540  -31.7344 H   0  0  0  0  0  0  0  0  0  0  0  0
   -5.7010   19.9720  -33.7550 N   0  0  0  0  0  0  0  0  0  0  0  0
  1  2  1  0
  2  3  2  0
  3  4  1  0
  4  5  2  0
  5  6  1  0
  5  7  1  0
  7  8  1  0
  8  9  1  0
  9 10  1  0
  9 11  2  0
 11 12  1  0
 11 13  1  0
 13 14  1  0
  4 15  1  0
 15 16  1  0
 15 17  2  0
 17 18  1  0
 18 19  1  0
 19 20  2  0
 20 21  1  0
 21 22  1  0
 22 23  1  0
 22 24  1  0
 22 25  1  0
 20 26  1  0
 26  3  1  0
 13  7  2  0
 26 17  1  0
M  CHG  1  15   1
M  END
>  <UniqueID>  (1) 
1

>  <SMILES>  (1) 
[H]/N=C1C(=C\c2ccco2)\[NH+]=C2SN=C(SC)N2\1

>  <Energy>  (1) 
115.35333812813016

>  <Genealogy>  (1) 
CSC1=NSC2=[NH+]C(=Cc3ccco3)C(=N)N12 (protonated)
[H]/N=C1C(=C\c2ccco2)\[NH+]=C2SN=C(SC)N2\1 (cis-trans isomerization)
[H]/N=C1C(=C\c2ccco2)\[NH+]=C2SN=C(SC)N2\1 (3D coordinates assigned)
[H]/N=C1C(=C\c2ccco2)\[NH+]=C2SN=C(SC)N2\1 (nonaromatic ring conformer: 115.35333812813016 kcal/mol)

>  <smiles>  (1) 
CSC1=NSC2=NC(=Cc3ccco3)C(=N)N12

>  <score_type>  (1) 
oracle

>  <origin>  (1) 
adg

>  <m_score__min__energy>  (1) 
-6.6100000000000003

>  <m_primary>  (1) 
energy

$$$$
1:0
     RDKit          3D

 19 20  0  0  1  0  0  0  0  0999 V2000
   -4.3420   24.0900  -29.1680 C   0  0  0  0  0  0  0  0  0  0  0  0
   -5.4190   23.4970  -29.7870 C   0  0  0  0  0  0  0  0  0  0  0  0
   -5.5770   24.1550  -30.9870 C   0  0  0  0  0  0  0  0  0  0  0  0
   -6.4560   23.9560  -31.9190 N   0  0  0  0  0  0  0  0  0  0  0  0
   -7.1180   22.6960  -32.0100 C   0  0  0  0  0  0  0  0  0  0  0  0
   -6.5690   21.6180  -32.3850 N   0  0  0  0  0  0  0  0  0  0  0  0
   -7.3450   20.4490  -32.4260 C   0  0  0  0  0  0  0  0  0  0  0  0
   -8.5800   20.5350  -31.6110 C   0  0  0  0  0  0  0  0  0  0  0  0
   -8.8560   22.3520  -31.6170 S   0  0  0  0  0  0  0  0  0  0  0  0
   -4.6350   25.1100  -31.0930 N   0  0  0  0  0  0  0  0  0  0  0  0
   -3.8920   25.0670  -29.9930 N   0  0  0  0  0  0  0  0  0  0  0  0
   -3.9242   23.8211  -28.1866 H   0  0  0  0  0  0  0  0  0  0  0  0
   -6.0293   22.6668  -29.4019 H   0  0  0  0  0  0  0  0  0  0  0  0
   -7.6292   20.2553  -33.4708 H   0  0  0  0  0  0  0  0  0  0  0  0
   -6.7333   19.6375  -32.0050 H   0  0  0  0  0  0  0  0  0  0  0  0
   -9.4155   19.9954  -32.0809 H   0  0  0  0  0  0  0  0  0  0  0  0
   -8.5019   20.0856  -30.6100 H   0  0  0  0  0  0  0  0  0  0  0  0
   -4.4970   25.7820  -31.9020 H   0  0  0  0  0  0  0  0  0  0  0  0
   -3.0710   25.6750  -29.7500 H   0  0  0  0  0  0  0  0  0  0  0  0
  1  2  2  0
  2  3  1  0
  3  4  2  0
  4  5  1  0
  5  6  2  0
  6  7  1  0
  7  8  1  0
  8  9  1  0
  3 10  1  0
 10 11  1  0
 11  1  1  0
  9  5  1  0
  1 12  1  0
  2 13  1  0
  7 14  1  0
  7 15  1  0
  8 16  1  0
  8 17  1  0
 10 18  1  0
 11 19  1  0
M  END
>  <smiles>  (2) 
c1cc(=NC2=NCCS2)[nH][nH]1

>  <score_type>  (2) 
oracle

>  <origin>  (2) 
adg

>  <m_score__min__energy>  (2) 
-5.4299999999999997

>  <m_primary>  (2) 
energy

$$$$
2:0
     RDKit          3D

 18 18  0  0  0  0  0  0  0  0999 V2000
    2.3670   28.3620  -23.0720 C   0  0  0  0  0  0  0  0  0  0  0  0
    1.0600   27.9550  -22.5530 N   0  0  0  0  0  0  0  0  0  0  0  0
    0.2070   27.5250  -23.6340 C   0  0  0  0  0  0  0  0  0  0  0  0
    0.0180   28.3470  -24.7600 C   0  0  0  0  0  0  0  0  0  0  0  0
   -0.7880   27.9180  -25.8200 C   0  0  0  0  0  0  0  0  0  0  0  0
   -1.4040   26.6650  -25.7680 C   0  0  0  0  0  0  0  0  0  0  0  0
   -1.2130   25.8370  -24.6590 C   0  0  0  0  0  0  0  0  0  0  0  0
   -0.4090   26.2610  -23.5970 C   0  0  0  0  0  0  0  0  0  0  0  0
    3.0454   28.5732  -22.2323 H   0  0  0  0  0  0  0  0  0  0  0  0
    2.7859   27.5518  -23.6869 H   0  0  0  0  0  0  0  0  0  0  0  0
    2.2518   29.2668  -23.6869 H   0  0  0  0  0  0  0  0  0  0  0  0
    1.1910   27.1740  -21.8670 H   0  0  0  0  0  0  0  0  0  0  0  0
    0.6230   28.7600  -22.0480 H   0  0  0  0  0  0  0  0  0  0  0  0
    0.5062   29.3316  -24.8072 H   0  0  0  0  0  0  0  0  0  0  0  0
   -0.9369   28.5677  -26.6951 H   0  0  0  0  0  0  0  0  0  0  0  0
   -2.0398   26.3302  -26.6008 H   0  0  0  0  0  0  0  0  0  0  0  0
   -1.6962   24.8495  -24.6215 H   0  0  0  0  0  0  0  0  0  0  0  0
   -0.2574   25.6032  -22.7285 H   0  0  0  0  0  0  0  0  0  0  0  0
  1  2  1  0
  2  3  1  0
  3  4  2  0
  4  5  1  0
  5  6  2  0
  6  7  1  0
  7  8  2  0
  8  3  1  0
  1  9  1  0
  1 10  1  0
  1 11  1  0
  2 12  1  0
  2 13  1  0
  4 14  1  0
  5 15  1  0
  6 16  1  0
  7 17  1  0
  8 18  1  0
M  CHG  1   2   1
M  END
>  <UniqueID>  (3) 
2

>  <SMILES>  (3) 
C[NH2+]c1ccccc1

>  <Energy>  (3) 
15.994444747979571

>  <Genealogy>  (3) 
C[NH2+]c1ccccc1 (protonated)
C[NH2+]c1ccccc1 (3D coordinates assigned)
C[NH2+]c1ccccc1 (optimized conformer: 15.994444747979571 kcal/mol)

>  <smiles>  (3) 
CNc1ccccc1

>  <score_type>  (3) 
oracle

>  <origin>  (3) 
adg

>  <m_score__min__energy>  (3) 
-4.2000000000000002

>  <m_primary>  (3) 
energy

$$$$
3:0
     RDKit          3D

 55 58  0  0  0  0  0  0  0  0999 V2000
   -1.8880   25.2040  -26.2310 C   0  0  0  0  0  0  0  0  0  0  0  0
   -2.8870   24.2420  -26.7250 N   0  0  0  0  0  0  0  0  0  0  0  0
   -4.2190   24.8730  -26.7210 C   0  0  0  0  0  0  0  0  0  0  0  0
   -2.5310   23.7610  -28.0800 C   0  0  0  0  0  0  0  0  0  0  0  0
   -2.4620   24.9150  -29.0480 C   0  0  0  0  0  0  0  0  0  0  0  0
   -1.4850   25.7100  -29.0010 O   0  0  0  0  0  0  0  0  0  0  0  0
   -3.5000   25.1610  -30.0070 N   0  0  0  0  0  0  0  0  0  0  0  0
   -4.6840   24.3750  -30.2010 C   0  0  0  0  0  0  0  0  0  0  0  0
   -5.9650   24.9460  -30.1370 C   0  0  0  0  0  0  0  0  0  0  0  0
   -7.1000   24.1530  -30.3260 C   0  0  0  0  0  0  0  0  0  0  0  0
   -6.9700   22.7740  -30.5560 C   0  0  0  0  0  0  0  0  0  0  0  0
   -8.1880   21.9340  -30.8330 C   0  0  0  0  0  0  0  0  0  0  0  0
   -7.8300   20.8040  -31.7590 C   0  0  0  0  0  0  0  0  0  0  0  0
   -7.1970   21.0660  -32.9840 C   0  0  0  0  0  0  0  0  0  0  0  0
   -6.8030   20.0130  -33.8140 C   0  0  0  0  0  0  0  0  0  0  0  0
   -7.0280   18.6790  -33.4290 C   0  0  0  0  0  0  0  0  0  0  0  0
   -6.5650   17.5940  -34.2580 N   0  0  0  0  0  0  0  0  0  0  0  0
   -5.3050   17.1110  -33.7590 C   0  0  0  0  0  0  0  0  0  0  0  0
   -4.1650   17.7800  -33.6320 C   0  0  0  0  0  0  0  0  0  0  0  0
   -3.9040   19.1400  -33.8170 C   0  0  0  0  0  0  0  0  0  0  0  0
   -2.5900   19.5960  -33.6150 C   0  0  0  0  0  0  0  0  0  0  0  0
   -1.5700   18.6990  -33.2400 C   0  0  0  0  0  0  0  0  0  0  0  0
   -1.8510   17.3330  -33.0600 C   0  0  0  0  0  0  0  0  0  0  0  0
   -3.1600   16.8930  -33.2620 C   0  0  0  0  0  0  0  0  0  0  0  0
   -3.5570   15.6640  -33.1410 N   0  0  0  0  0  0  0  0  0  0  0  0
   -4.9440   15.7350  -33.4580 C   0  0  0  0  0  0  0  0  0  0  0  0
   -5.7210   14.7450  -33.4560 O   0  0  0  0  0  0  0  0  0  0  0  0
   -7.6590   18.4210  -32.2000 C   0  0  0  0  0  0  0  0  0  0  0  0
   -8.0540   19.4750  -31.3720 C   0  0  0  0  0  0  0  0  0  0  0  0
   -5.6910   22.2010  -30.5940 C   0  0  0  0  0  0  0  0  0  0  0  0
   -4.5560   22.9950  -30.4020 C   0  0  0  0  0  0  0  0  0  0  0  0
   -1.8899   25.2022  -25.1310 H   0  0  0  0  0  0  0  0  0  0  0  0
   -0.8909   24.9173  -26.5965 H   0  0  0  0  0  0  0  0  0  0  0  0
   -2.1369   26.2112  -26.5965 H   0  0  0  0  0  0  0  0  0  0  0  0
   -4.5478   25.0288  -25.6829 H   0  0  0  0  0  0  0  0  0  0  0  0
   -4.1671   25.8423  -27.2385 H   0  0  0  0  0  0  0  0  0  0  0  0
   -4.9361   24.2189  -27.2385 H   0  0  0  0  0  0  0  0  0  0  0  0
   -1.5516   23.2617  -28.0413 H   0  0  0  0  0  0  0  0  0  0  0  0
   -3.3027   23.0554  -28.4215 H   0  0  0  0  0  0  0  0  0  0  0  0
   -6.0757   26.0220  -29.9373 H   0  0  0  0  0  0  0  0  0  0  0  0
   -8.0996   24.6111  -30.2945 H   0  0  0  0  0  0  0  0  0  0  0  0
   -8.5707   21.5232  -29.8871 H   0  0  0  0  0  0  0  0  0  0  0  0
   -8.9597   22.5593  -31.3057 H   0  0  0  0  0  0  0  0  0  0  0  0
   -7.0101   22.1053  -33.2923 H   0  0  0  0  0  0  0  0  0  0  0  0
   -6.3135   20.2289  -34.7751 H   0  0  0  0  0  0  0  0  0  0  0  0
   -7.2680   16.8200  -34.2810 H   0  0  0  0  0  0  0  0  0  0  0  0
   -6.4350   17.9270  -35.2420 H   0  0  0  0  0  0  0  0  0  0  0  0
   -4.7044   19.8343  -34.1124 H   0  0  0  0  0  0  0  0  0  0  0  0
   -2.3558   20.6622  -33.7508 H   0  0  0  0  0  0  0  0  0  0  0  0
   -0.5459   19.0703  -33.0869 H   0  0  0  0  0  0  0  0  0  0  0  0
   -1.0586   16.6285  -32.7672 H   0  0  0  0  0  0  0  0  0  0  0  0
   -7.8432   17.3824  -31.8878 H   0  0  0  0  0  0  0  0  0  0  0  0
   -8.5437   19.2608  -30.4106 H   0  0  0  0  0  0  0  0  0  0  0  0
   -5.5798   21.1218  -30.7757 H   0  0  0  0  0  0  0  0  0  0  0  0
   -3.5576   22.5333  -30.4089 H   0  0  0  0  0  0  0  0  0  0  0  0
  1  2  1  0
  2  3  1  0
  2  4  1  0
  4  5  1  0
  5  6  2  0
  5  7  1  0
  7  8  1  0
  8  9  2  0
  9 10  1  0
 10 11  2  0
 11 12  1  0
 12 13  1  0
 13 14  2  0
 14 15  1  0
 15 16  2  0
 16 17  1  0
 17 18  1  0
 18 19  2  0
 19 20  1  0
 20 21  2  0
 21 22  1  0
 22 23  2  0
 23 24  1  0
 24 25  2  0
 25 26  1  0
 26 27  2  0
 16 28  1  0
 28 29  2  0
 11 30  1  0
 30 31  2  0
 31  8  1  0
 29 13  1  0
 26 18  1  0
 24 19  1  0
  1 32  1  0
  1 33  1  0
  1 34  1  0
  3 35  1  0
  3 36  1  0
  3 37  1  0
  4 38  1  0
  4 39  1  0
  9 40  1  0
 10 41  1  0
 12 42  1  0
 12 43  1  0
 14 44  1  0
 15 45  1  0
 17 46  1  0
 17 47  1  0
 20 48  1  0
 21 49  1  0
 22 50  1  0
 23 51  1  0
 28 52  1  0
 29 53  1  0
 30 54  1  0
 31 55  1  0
M  CHG  2   7  -1  17   1
M  END
>  <UniqueID>  (4) 
3

>  <SMILES>  (4) 
CN(C)CC(=O)[N-]c1ccc(Cc2ccc([NH2+]C3=c4ccccc4=NC3=O)cc2)cc1

>  <Energy>  (4) 
98.10788661650533

>  <Genealogy>  (4) 
CN(C)CC(=O)[N-]c1ccc(Cc2ccc([NH2+]C3=c4ccccc4=NC3=O)cc2)cc1 (protonated)
CN(C)CC(=O)[N-]c1ccc(Cc2ccc([NH2+]C3=c4ccccc4=NC3=O)cc2)cc1 (3D coordinates assigned)
CN(C)CC(=O)[N-]c1ccc(Cc2ccc([NH2+]C3=c4ccccc4=NC3=O)cc2)cc1 (nonaromatic ring conformer: 98.10788661650533 kcal/mol)

>  <smiles>  (4) 
CN(C)CC(=O)Nc1ccc(Cc2ccc(NC3=c4ccccc4=NC3=O)cc2)cc1

>  <score_type>  (4) 
oracle

>  <origin>  (4) 
adg

>  <m_score__min__energy>  (4) 
-10.93

>  <m_primary>  (4) 
energy

$$$$
4:0
     RDKit          3D

 23 24  0  0  0  0  0  0  0  0999 V2000
   -1.0620   20.0070  -28.5480 C   0  0  0  0  0  0  0  0  0  0  0  0
   -1.9090   21.2340  -28.4930 C   0  0  0  0  0  0  0  0  0  0  0  0
   -3.1060   21.3570  -27.8150 C   0  0  0  0  0  0  0  0  0  0  0  0
   -3.5400   22.6440  -28.0560 C   0  0  0  0  0  0  0  0  0  0  0  0
   -2.5820   23.2190  -28.8710 C   0  0  0  0  0  0  0  0  0  0  0  0
   -2.6110   24.5950  -29.3980 C   0  0  0  0  0  0  0  0  0  0  0  0
   -1.8050   25.4490  -28.9430 O   0  0  0  0  0  0  0  0  0  0  0  0
   -3.4880   24.9710  -30.4660 N   0  0  0  0  0  0  0  0  0  0  0  0
   -4.7520   24.3650  -30.7610 C   0  0  0  0  0  0  0  0  0  0  0  0
   -6.2190   24.9400  -30.1810 S   0  0  0  0  0  0  0  0  0  0  0  0
   -7.1630   23.7050  -30.8280 C   0  0  0  0  0  0  0  0  0  0  0  0
   -6.3280   22.8080  -31.4840 C   0  0  0  0  0  0  0  0  0  0  0  0
   -4.9750   23.1670  -31.4400 C   0  0  0  0  0  0  0  0  0  0  0  0
   -3.9360   22.3200  -31.9670 C   0  0  0  0  0  0  0  0  0  0  0  0
   -3.1020   21.6390  -32.3900 N   0  0  0  0  0  0  0  0  0  0  0  0
   -1.6220   22.3550  -29.1120 O   0  0  0  0  0  0  0  0  0  0  0  0
   -0.8321   19.6740  -27.5251 H   0  0  0  0  0  0  0  0  0  0  0  0
   -1.6038   19.2110  -29.0797 H   0  0  0  0  0  0  0  0  0  0  0  0
   -0.1256   20.2314  -29.0797 H   0  0  0  0  0  0  0  0  0  0  0  0
   -3.6086   20.5887  -27.2091 H   0  0  0  0  0  0  0  0  0  0  0  0
   -4.4589   23.1158  -27.6778 H   0  0  0  0  0  0  0  0  0  0  0  0
   -8.2567   23.6220  -30.7454 H   0  0  0  0  0  0  0  0  0  0  0  0
   -6.6949   21.9025  -31.9895 H   0  0  0  0  0  0  0  0  0  0  0  0
  1  2  1  0
  2  3  2  0
  3  4  1  0
  4  5  2  0
  5  6  1  0
  6  7  2  0
  6  8  1  0
  8  9  1  0
  9 10  1  0
 10 11  1  0
 11 12  2  0
 12 13  1  0
 13 14  1  0
 14 15  3  0
  5 16  1  0
 16  2  1  0
 13  9  2  0
  1 17  1  0
  1 18  1  0
  1 19  1  0
  3 20  1  0
  4 21  1  0
 11 22  1  0
 12 23  1  0
M  CHG  1   8  -1
M  END
>  <UniqueID>  (5) 
4

>  <SMILES>  (5) 
Cc1ccc(C(=O)[N-]c2sccc2C#N)o1

>  <Energy>  (5) 
78.36088058774895

>  <Genealogy>  (5) 
Cc1ccc(C(=O)[N-]c2sccc2C#N)o1 (protonated)
Cc1ccc(C(=O)[N-]c2sccc2C#N)o1 (3D coordinates assigned)
Cc1ccc(C(=O)[N-]c2sccc2C#N)o1 (optimized conformer: 78.36088058774895 kcal/mol)

>  <smiles>  (5) 
Cc1ccc(C(=O)Nc2sccc2C#N)o1

>  <score_type>  (5) 
oracle

>  <origin>  (5) 
adg

>  <m_score__min__energy>  (5) 
-7.0700000000000003

>  <m_primary>  (5) 
energy

$$$$
5:0
     RDKit          3D

 38 40  0  0  0  0  0  0  0  0999 V2000
   -3.8880   21.9250  -33.0760 C   0  0  0  0  0  0  0  0  0  0  0  0
   -4.2450   22.2120  -31.6240 C   0  0  0  0  0  0  0  0  0  0  0  0
   -5.6830   22.4760  -31.4940 N   0  0  0  0  0  0  0  0  0  0  0  0
   -6.2830   23.5670  -30.9410 C   0  0  0  0  0  0  0  0  0  0  0  0
   -5.5700   24.7990  -30.4390 C   0  0  0  0  0  0  0  0  0  0  0  0
   -5.2710   24.7070  -29.0010 N   0  0  0  0  0  0  0  0  0  0  0  0
   -4.1150   23.8790  -28.7550 C   0  0  0  0  0  0  0  0  0  0  0  0
   -2.8570   24.2360  -29.2780 C   0  0  0  0  0  0  0  0  0  0  0  0
   -1.7490   23.4070  -29.0820 C   0  0  0  0  0  0  0  0  0  0  0  0
   -1.8850   22.2160  -28.3640 C   0  0  0  0  0  0  0  0  0  0  0  0
   -3.1280   21.8520  -27.8410 C   0  0  0  0  0  0  0  0  0  0  0  0
   -4.2400   22.6760  -28.0360 C   0  0  0  0  0  0  0  0  0  0  0  0
   -7.6670   23.4310  -30.9550 C   0  0  0  0  0  0  0  0  0  0  0  0
   -7.9030   22.1970  -31.5190 C   0  0  0  0  0  0  0  0  0  0  0  0
   -9.1060   21.5380  -31.7650 C   0  0  0  0  0  0  0  0  0  0  0  0
   -9.0460   20.2590  -32.3460 C   0  0  0  0  0  0  0  0  0  0  0  0
   -7.8010   19.6740  -32.6600 C   0  0  0  0  0  0  0  0  0  0  0  0
   -6.6020   20.3640  -32.4000 C   0  0  0  0  0  0  0  0  0  0  0  0
   -6.6890   21.6380  -31.8270 C   0  0  0  0  0  0  0  0  0  0  0  0
   -3.0312   21.2362  -33.1137 H   0  0  0  0  0  0  0  0  0  0  0  0
   -4.7502   21.4657  -33.5817 H   0  0  0  0  0  0  0  0  0  0  0  0
   -3.6247   22.8657  -33.5817 H   0  0  0  0  0  0  0  0  0  0  0  0
   -3.9789   21.3416  -31.0063 H   0  0  0  0  0  0  0  0  0  0  0  0
   -3.6873   23.0985  -31.2876 H   0  0  0  0  0  0  0  0  0  0  0  0
   -4.6266   24.9153  -30.9925 H   0  0  0  0  0  0  0  0  0  0  0  0
   -6.2293   25.6651  -30.5974 H   0  0  0  0  0  0  0  0  0  0  0  0
   -6.1000   24.2940  -28.5130 H   0  0  0  0  0  0  0  0  0  0  0  0
   -5.1260   25.6640  -28.6010 H   0  0  0  0  0  0  0  0  0  0  0  0
   -2.7459   25.1727  -29.8440 H   0  0  0  0  0  0  0  0  0  0  0  0
   -0.7694   23.6922  -29.4932 H   0  0  0  0  0  0  0  0  0  0  0  0
   -1.0122   21.5643  -28.2105 H   0  0  0  0  0  0  0  0  0  0  0  0
   -3.2319   20.9149  -27.2745 H   0  0  0  0  0  0  0  0  0  0  0  0
   -5.2174   22.3827  -27.6255 H   0  0  0  0  0  0  0  0  0  0  0  0
   -8.4130   24.1539  -30.5932 H   0  0  0  0  0  0  0  0  0  0  0  0
  -10.0705   22.0030  -31.5130 H   0  0  0  0  0  0  0  0  0  0  0  0
   -9.9760   19.7108  -32.5572 H   0  0  0  0  0  0  0  0  0  0  0  0
   -7.7671   18.6714  -33.1113 H   0  0  0  0  0  0  0  0  0  0  0  0
   -5.6265   19.9157  -32.6398 H   0  0  0  0  0  0  0  0  0  0  0  0
  1  2  1  0
  2  3  1  0
  3  4  1  0
  4  5  1  0
  5  6  1  0
  6  7  1  0
  7  8  2  0
  8  9  1  0
  9 10  2  0
 10 11  1  0
 11 12  2  0
  4 13  2  0
 13 14  1  0
 14 15  2  0
 15 16  1  0
 16 17  2  0
 17 18  1  0
 18 19  2  0
 19  3  1  0
 12  7  1  0
 19 14  1  0
  1 20  1  0
  1 21  1  0
  1 22  1  0
  2 23  1  0
  2 24  1  0
  5 25  1  0
  5 26  1  0
  6 27  1  0
  6 28  1  0
  8 29  1  0
  9 30  1  0
 10 31  1  0
 11 32  1  0
 12 33  1  0
 13 34  1  0
 15 35  1  0
 16 36  1  0
 17 37  1  0
 18 38  1  0
M  CHG  1   6   1
M  END
>  <UniqueID>  (6) 
5

>  <SMILES>  (6) 
CCn1c(C[NH2+]c2ccccc2)cc2ccccc21

>  <Energy>  (6) 
69.57953019058783

>  <Genealogy>  (6) 
CCn1c(C[NH2+]c2ccccc2)cc2ccccc21 (protonated)
CCn1c(C[NH2+]c2ccccc2)cc2ccccc21 (3D coordinates assigned)
CCn1c(C[NH2+]c2ccccc2)cc2ccccc21 (optimized conformer: 69.57953019058783 kcal/mol)

>  <smiles>  (6) 
CCn1c(CNc2ccccc2)cc2ccccc21

>  <score_type>  (6) 
oracle

>  <origin>  (6) 
adg

>  <m_score__min__energy>  (6) 
-6.9100000000000001

>  <m_primary>  (6) 
energy

$$$$
6:0
     RDKit          3D

 35 36  0  0  0  0  0  0  0  0999 V2000
   -6.5170   25.0820  -29.7690 C   0  0  0  0  0  0  0  0  0  0  0  0
   -5.3570   25.7510  -30.4980 C   0  0  0  0  0  0  0  0  0  0  0  0
   -4.4400   24.7740  -30.9880 O   0  0  0  0  0  0  0  0  0  0  0  0
   -4.7460   23.4120  -31.0880 C   0  0  0  0  0  0  0  0  0  0  0  0
   -4.6140   22.6500  -30.0910 O   0  0  0  0  0  0  0  0  0  0  0  0
   -5.2120   22.8920  -32.3360 N   0  0  0  0  0  0  0  0  0  0  0  0
   -5.4970   21.4700  -32.5160 C   0  0  0  0  0  0  0  0  0  0  0  0
   -6.9750   21.1990  -32.3570 C   0  0  0  0  0  0  0  0  0  0  0  0
   -7.8060   22.2380  -31.9000 C   0  0  0  0  0  0  0  0  0  0  0  0
   -9.1740   22.0280  -31.7210 C   0  0  0  0  0  0  0  0  0  0  0  0
   -9.7330   20.7800  -31.9990 C   0  0  0  0  0  0  0  0  0  0  0  0
   -8.9270   19.7420  -32.4700 C   0  0  0  0  0  0  0  0  0  0  0  0
   -7.5510   19.9390  -32.6700 C   0  0  0  0  0  0  0  0  0  0  0  0
   -6.7450   18.8160  -33.1930 C   0  0  0  0  0  0  0  0  0  0  0  0
   -6.5930   17.6340  -32.4540 C   0  0  0  0  0  0  0  0  0  0  0  0
   -5.8290   16.5840  -32.9650 C   0  0  0  0  0  0  0  0  0  0  0  0
   -5.2130   16.7300  -34.2100 C   0  0  0  0  0  0  0  0  0  0  0  0
   -5.3570   17.8870  -34.9100 N   0  0  0  0  0  0  0  0  0  0  0  0
   -6.0970   18.9230  -34.4330 C   0  0  0  0  0  0  0  0  0  0  0  0
   -6.3664   25.1688  -28.6828 H   0  0  0  0  0  0  0  0  0  0  0  0
   -7.4595   25.5753  -30.0491 H   0  0  0  0  0  0  0  0  0  0  0  0
   -6.5620   24.0192  -30.0491 H   0  0  0  0  0  0  0  0  0  0  0  0
   -5.7500   26.3340  -31.3440 H   0  0  0  0  0  0  0  0  0  0  0  0
   -4.8290   26.4103  -29.7934 H   0  0  0  0  0  0  0  0  0  0  0  0
   -5.3310   23.5570  -33.1340 H   0  0  0  0  0  0  0  0  0  0  0  0
   -5.1795   21.1624  -33.5233 H   0  0  0  0  0  0  0  0  0  0  0  0
   -4.9479   20.8991  -31.7527 H   0  0  0  0  0  0  0  0  0  0  0  0
   -7.3733   23.2255  -31.6816 H   0  0  0  0  0  0  0  0  0  0  0  0
   -9.8127   22.8476  -31.3602 H   0  0  0  0  0  0  0  0  0  0  0  0
  -10.8097   20.6140  -31.8469 H   0  0  0  0  0  0  0  0  0  0  0  0
   -9.3740   18.7605  -32.6865 H   0  0  0  0  0  0  0  0  0  0  0  0
   -7.0763   17.5344  -31.4709 H   0  0  0  0  0  0  0  0  0  0  0  0
   -5.7131   15.6513  -32.3934 H   0  0  0  0  0  0  0  0  0  0  0  0
   -4.6107   15.9083  -34.6247 H   0  0  0  0  0  0  0  0  0  0  0  0
   -6.1880   19.8481  -35.0211 H   0  0  0  0  0  0  0  0  0  0  0  0
  1  2  1  0
  2  3  1  0
  3  4  1  0
  4  5  2  0
  4  6  1  0
  6  7  1  0
  7  8  1  0
  8  9  2  0
  9 10  1  0
 10 11  2  0
 11 12  1  0
 12 13  2  0
 13 14  1  0
 14 15  2  0
 15 16  1  0
 16 17  2  0
 17 18  1  0
 18 19  2  0
 13  8  1  0
 19 14  1  0
  1 20  1  0
  1 21  1  0
  1 22  1  0
  2 23  1  0
  2 24  1  0
  6 25  1  0
  7 26  1  0
  7 27  1  0
  9 28  1  0
 10 29  1  0
 11 30  1  0
 12 31  1  0
 15 32  1  0
 16 33  1  0
 17 34  1  0
 19 35  1  0
M  END
>  <UniqueID>  (7) 
6

>  <SMILES>  (7) 
CCOC(=O)NCc1ccccc1-c1cccnc1

>  <Energy>  (7) 
37.12021862646206

>  <Genealogy>  (7) 
CCOC(=O)NCc1ccccc1-c1cccnc1 (3D coordinates assigned)
CCOC(=O)NCc1ccccc1-c1cccnc1 (optimized conformer: 37.12021862646206 kcal/mol)

>  <smiles>  (7) 
CCOC(=O)NCc1ccccc1-c1cccnc1

>  <score_type>  (7) 
oracle

>  <origin>  (7) 
adg

>  <m_score__min__energy>  (7) 
-7.9199999999999999

>  <m_primary>  (7) 
energy

$$$$
7:0
     RDKit          3D

 22 23  0  0  0  0  0  0  0  0999 V2000
   -9.4150   21.2742  -30.4661 H   0  0  0  0  0  0  0  0  0  0  0  0
   -8.5220   21.7980  -30.8380 C   0  0  0  0  0  0  0  0  0  0  0  0
   -7.5430   22.4040  -30.0750 C   0  0  0  0  0  0  0  0  0  0  0  0
   -7.5005   22.4591  -28.9772 H   0  0  0  0  0  0  0  0  0  0  0  0
   -6.6280   22.9270  -30.9680 C   0  0  0  0  0  0  0  0  0  0  0  0
   -5.4100   23.6650  -30.6050 C   0  0  0  0  0  0  0  0  0  0  0  0
   -4.9980   24.7870  -31.2400 N   0  0  0  0  0  0  0  0  0  0  0  0
   -3.8690   25.2920  -30.7460 N   0  0  0  0  0  0  0  0  0  0  0  0
   -3.3770   24.5750  -29.7160 C   0  0  0  0  0  0  0  0  0  0  0  0
   -2.2830   24.9040  -29.0980 N   0  0  0  0  0  0  0  0  0  0  0  0
   -1.9000   24.3930  -27.7850 C   0  0  0  0  0  0  0  0  0  0  0  0
   -0.8739   24.7141  -27.5527 H   0  0  0  0  0  0  0  0  0  0  0  0
   -1.9503   23.2942  -27.7929 H   0  0  0  0  0  0  0  0  0  0  0  0
   -2.8500   24.9330  -26.7280 C   0  0  0  0  0  0  0  0  0  0  0  0
   -2.4523   24.7069  -25.7277 H   0  0  0  0  0  0  0  0  0  0  0  0
   -2.9487   26.0222  -26.8458 H   0  0  0  0  0  0  0  0  0  0  0  0
   -3.8364   24.4606  -26.8458 H   0  0  0  0  0  0  0  0  0  0  0  0
   -4.3510   23.2410  -29.3610 S   0  0  0  0  0  0  0  0  0  0  0  0
   -7.0080   22.6660  -32.2340 N   0  0  0  0  0  0  0  0  0  0  0  0
   -6.5110   22.9390  -33.1110 H   0  0  0  0  0  0  0  0  0  0  0  0
   -8.1610   21.9780  -32.1590 C   0  0  0  0  0  0  0  0  0  0  0  0
   -8.7334   21.6118  -33.0240 H   0  0  0  0  0  0  0  0  0  0  0  0
  1  2  1  0
  2  3  1  0
  3  4  1  0
  3  5  2  0
  5  6  1  0
  6  7  2  0
  7  8  1  0
  8  9  1  0
  9 10  2  0
 10 11  1  0
 11 12  1  0
 11 13  1  0
 11 14  1  0
 14 15  1  0
 14 16  1  0
 14 17  1  0
  9 18  1  0
  5 19  1  0
 19 20  1  0
 19 21  1  0
 21 22  1  0
 21  2  2  0
 18  6  1  0
M  CHG  1   8  -1
M  END
>  <UniqueID>  (8) 
7

>  <SMILES>  (8) 
CC/N=c1/[n-]nc(-c2ccc[nH]2)s1

>  <Energy>  (8) 
77.03156927809636

>  <Genealogy>  (8) 
CCN=c1[n-]nc(-c2ccc[nH]2)s1 (protonated)
CC/N=c1/[n-]nc(-c2ccc[nH]2)s1 (cis-trans isomerization)
CC/N=c1/[n-]nc(-c2ccc[nH]2)s1 (3D coordinates assigned)
CC/N=c1/[n-]nc(-c2ccc[nH]2)s1 (optimized conformer: 77.03156927809636 kcal/mol)

>  <smiles>  (8) 
CCN=c1[nH]nc(-c2ccc[nH]2)s1

>  <score_type>  (8) 
oracle

>  <origin>  (8) 
adg

>  <m_score__min__energy>  (8) 
-7.5899999999999999

>  <m_primary>  (8) 
energy

$$$$
8:0
     RDKit          3D

 59 63  0  0  0  0  0  0  0  0999 V2000
   -2.6660   24.6560  -28.9510 C   0  0  0  0  0  0  0  0  0  0  0  0
   -3.6010   24.9500  -29.9810 O   0  0  0  0  0  0  0  0  0  0  0  0
   -4.5040   24.0120  -30.4800 C   0  0  0  0  0  0  0  0  0  0  0  0
   -5.2990   23.2860  -29.5900 C   0  0  0  0  0  0  0  0  0  0  0  0
   -6.2120   22.3550  -30.0880 C   0  0  0  0  0  0  0  0  0  0  0  0
   -6.3160   22.1450  -31.4670 C   0  0  0  0  0  0  0  0  0  0  0  0
   -7.2780   21.1640  -32.0060 C   0  0  0  0  0  0  0  0  0  0  0  0
   -6.9950   20.0180  -32.7360 C   0  0  0  0  0  0  0  0  0  0  0  0
   -5.6620   19.4550  -33.0430 C   0  0  0  0  0  0  0  0  0  0  0  0
   -4.5000   20.0750  -32.5730 C   0  0  0  0  0  0  0  0  0  0  0  0
   -3.2570   19.5240  -32.9050 C   0  0  0  0  0  0  0  0  0  0  0  0
   -2.0480   20.1460  -32.4370 N   0  0  0  0  0  0  0  0  0  0  0  0
   -0.7440   19.5890  -32.7920 C   0  0  0  0  0  0  0  0  0  0  0  0
    0.2360   19.8220  -31.6430 C   0  0  0  0  0  0  0  0  0  0  0  0
    0.2690   21.1850  -31.2520 O   0  0  0  0  0  0  0  0  0  0  0  0
   -0.9990   21.6340  -30.7910 C   0  0  2  0  0  0  0  0  0  0  0  0
   -1.3870   20.9770  -29.4800 C   0  0  0  0  0  0  0  0  0  0  0  0
   -2.7190   21.0190  -29.0440 C   0  0  0  0  0  0  0  0  0  0  0  0
   -3.0610   20.4360  -27.8220 C   0  0  0  0  0  0  0  0  0  0  0  0
   -2.0780   19.8210  -27.0460 C   0  0  0  0  0  0  0  0  0  0  0  0
   -0.7600   19.8030  -27.5030 C   0  0  0  0  0  0  0  0  0  0  0  0
   -0.4460   20.3750  -28.6960 N   0  0  0  0  0  0  0  0  0  0  0  0
   -2.0700   21.5020  -31.8920 C   0  0  0  0  0  0  0  0  0  0  0  0
   -3.2020   18.4110  -33.6880 N   0  0  0  0  0  0  0  0  0  0  0  0
   -4.3430   17.8220  -34.1460 C   0  0  0  0  0  0  0  0  0  0  0  0
   -4.2730   16.5820  -34.9790 C   0  0  0  0  0  0  0  0  0  0  0  0
   -5.5520   18.3440  -33.8180 N   0  0  0  0  0  0  0  0  0  0  0  0
   -8.1530   19.4090  -33.0740 N   0  0  0  0  0  0  0  0  0  0  0  0
   -9.1180   20.1930  -32.5500 C   0  0  0  0  0  0  0  0  0  0  0  0
   -8.6180   21.2640  -31.9030 N   0  0  0  0  0  0  0  0  0  0  0  0
   -9.3890   22.3010  -31.2250 C   0  0  0  0  0  0  0  0  0  0  0  0
   -5.5010   22.8910  -32.3280 C   0  0  0  0  0  0  0  0  0  0  0  0
   -4.6230   23.7980  -31.8200 N   0  0  0  0  0  0  0  0  0  0  0  0
   -3.1416   24.8055  -27.9705 H   0  0  0  0  0  0  0  0  0  0  0  0
   -2.3359   23.6107  -29.0428 H   0  0  0  0  0  0  0  0  0  0  0  0
   -1.7971   25.3243  -29.0428 H   0  0  0  0  0  0  0  0  0  0  0  0
   -5.2063   23.4466  -28.5057 H   0  0  0  0  0  0  0  0  0  0  0  0
   -6.8500   21.7862  -29.3957 H   0  0  0  0  0  0  0  0  0  0  0  0
   -4.5619   20.9811  -31.9524 H   0  0  0  0  0  0  0  0  0  0  0  0
   -0.8438   18.5091  -32.9762 H   0  0  0  0  0  0  0  0  0  0  0  0
   -0.3687   20.0815  -33.7012 H   0  0  0  0  0  0  0  0  0  0  0  0
   -0.0722   19.2111  -30.7817 H   0  0  0  0  0  0  0  0  0  0  0  0
    1.2418   19.5386  -31.9864 H   0  0  0  0  0  0  0  0  0  0  0  0
   -0.9233   22.7083  -30.5669 H   0  0  0  0  0  0  0  0  0  0  0  0
   -3.4886   21.5074  -29.6598 H   0  0  0  0  0  0  0  0  0  0  0  0
   -4.1035   20.4616  -27.4719 H   0  0  0  0  0  0  0  0  0  0  0  0
   -2.3394   19.3554  -26.0843 H   0  0  0  0  0  0  0  0  0  0  0  0
    0.0253   19.3260  -26.8982 H   0  0  0  0  0  0  0  0  0  0  0  0
   -3.0622   21.7087  -31.4643 H   0  0  0  0  0  0  0  0  0  0  0  0
   -1.8584   22.2224  -32.6959 H   0  0  0  0  0  0  0  0  0  0  0  0
   -2.2760   17.9920  -33.9310 H   0  0  0  0  0  0  0  0  0  0  0  0
   -4.2233   15.7012  -34.3219 H   0  0  0  0  0  0  0  0  0  0  0  0
   -5.1688   16.5157  -35.6139 H   0  0  0  0  0  0  0  0  0  0  0  0
   -3.3754   16.6170  -35.6139 H   0  0  0  0  0  0  0  0  0  0  0  0
  -10.1936   19.9813  -32.6409 H   0  0  0  0  0  0  0  0  0  0  0  0
   -9.2952   22.1749  -30.1363 H   0  0  0  0  0  0  0  0  0  0  0  0
   -9.0057   23.2908  -31.5138 H   0  0  0  0  0  0  0  0  0  0  0  0
  -10.4472   22.2190  -31.5138 H   0  0  0  0  0  0  0  0  0  0  0  0
   -5.5708   22.7435  -33.4158 H   0  0  0  0  0  0  0  0  0  0  0  0
  1  2  1  0
  2  3  1  0
  3  4  2  0
  4  5  1  0
  5  6  2  0
  6  7  1  0
  7  8  2  0
  8  9  1  0
  9 10  2  0
 10 11  1  0
 11 12  1  0
 12 13  1  0
 13 14  1  0
 14 15  1  0
 15 16  1  0
 16 17  1  0
 17 18  2  0
 18 19  1  0
 19 20  2  0
 20 21  1  0
 21 22  2  0
 16 23  1  0
 11 24  2  0
 24 25  1  0
 25 26  1  0
 25 27  2  0
  8 28  1  0
 28 29  2  0
 29 30  1  0
 30 31  1  0
  6 32  1  0
 32 33  2  0
 33  3  1  0
 30  7  1  0
 27  9  1  0
 23 12  1  0
 22 17  1  0
  1 34  1  0
  1 35  1  0
  1 36  1  0
  4 37  1  0
  5 38  1  0
 10 39  1  0
 13 40  1  0
 13 41  1  0
 14 42  1  0
 14 43  1  0
 16 44  1  1
 18 45  1  0
 19 46  1  0
 20 47  1  0
 21 48  1  0
 23 49  1  0
 23 50  1  0
 24 51  1  0
 26 52  1  0
 26 53  1  0
 26 54  1  0
 29 55  1  0
 31 56  1  0
 31 57  1  0
 31 58  1  0
 32 59  1  0
M  CHG  1  24   1
M  END
>  <UniqueID>  (9) 
8

>  <SMILES>  (9) 
COc1ccc(-c2c(-c3cc(N4CCO[C@H](c5ccccn5)C4)[nH+]c(C)n3)ncn2C)cn1

>  <Energy>  (9) 
106.29185273081373

>  <Genealogy>  (9) 
COc1ccc(-c2c(-c3cc(N4CCOC(c5ccccn5)C4)[nH+]c(C)n3)ncn2C)cn1 (protonated)
COc1ccc(-c2c(-c3cc(N4CCO[C@H](c5ccccn5)C4)[nH+]c(C)n3)ncn2C)cn1 (chirality)
COc1ccc(-c2c(-c3cc(N4CCO[C@H](c5ccccn5)C4)[nH+]c(C)n3)ncn2C)cn1 (3D coordinates assigned)
COc1ccc(-c2c(-c3cc(N4CCO[C@H](c5ccccn5)C4)[nH+]c(C)n3)ncn2C)cn1 (nonaromatic ring conformer: 106.29185273081373 kcal/mol)

>  <smiles>  (9) 
COc1ccc(-c2c(-c3cc(N4CCOC(c5ccccn5)C4)nc(C)n3)ncn2C)cn1

>  <score_type>  (9) 
oracle

>  <origin>  (9) 
adg

>  <m_score__min__energy>  (9) 
-8.7899999999999991

>  <m_primary>  (9) 
energy

$$$$
9:0
     RDKit          3D

 48 52  0  0  0  0  0  0  0  0999 V2000
   -5.7110   26.2170  -30.8130 O   0  0  0  0  0  0  0  0  0  0  0  0
   -4.9790   25.1920  -30.8170 C   0  0  0  0  0  0  0  0  0  0  0  0
   -3.6480   25.3000  -30.2880 N   0  0  0  0  0  0  0  0  0  0  0  0
   -3.0270   24.3930  -29.3650 C   0  0  0  0  0  0  0  0  0  0  0  0
   -3.8290   23.7140  -28.4390 C   0  0  0  0  0  0  0  0  0  0  0  0
   -3.2560   22.8130  -27.5350 C   0  0  0  0  0  0  0  0  0  0  0  0
   -1.8750   22.5980  -27.5430 C   0  0  0  0  0  0  0  0  0  0  0  0
   -1.0640   23.2910  -28.4460 C   0  0  0  0  0  0  0  0  0  0  0  0
   -1.6350   24.1920  -29.3500 C   0  0  0  0  0  0  0  0  0  0  0  0
   -5.5300   23.9080  -31.3110 C   0  0  0  0  0  0  0  0  0  0  0  0
   -6.9310   23.7520  -31.4720 C   0  0  0  0  0  0  0  0  0  0  0  0
   -7.4690   22.5520  -31.9670 C   0  0  0  0  0  0  0  0  0  0  0  0
   -6.5890   21.5190  -32.2800 C   0  0  0  0  0  0  0  0  0  0  0  0
   -6.8970   20.3260  -32.8130 N   0  0  0  0  0  0  0  0  0  0  0  0
   -5.7210   19.6720  -32.9780 C   0  0  0  0  0  0  0  0  0  0  0  0
   -5.6320   18.2990  -33.5240 C   0  0  0  0  0  0  0  0  0  0  0  0
   -6.5430   17.3050  -33.1310 C   0  0  0  0  0  0  0  0  0  0  0  0
   -6.4380   16.0200  -33.6700 C   0  0  0  0  0  0  0  0  0  0  0  0
   -5.4650   15.7390  -34.5760 N   0  0  0  0  0  0  0  0  0  0  0  0
   -4.5780   16.6830  -34.9850 C   0  0  0  0  0  0  0  0  0  0  0  0
   -4.6480   17.9800  -34.4710 C   0  0  0  0  0  0  0  0  0  0  0  0
   -4.6540   20.4710  -32.5400 C   0  0  0  0  0  0  0  0  0  0  0  0
   -3.2070   20.2040  -32.6660 C   0  0  0  0  0  0  0  0  0  0  0  0
   -2.6040   20.1420  -33.9330 C   0  0  0  0  0  0  0  0  0  0  0  0
   -1.2320   19.9030  -34.0500 C   0  0  0  0  0  0  0  0  0  0  0  0
   -0.4520   19.7270  -32.9040 C   0  0  0  0  0  0  0  0  0  0  0  0
   -1.0430   19.7880  -31.6400 C   0  0  0  0  0  0  0  0  0  0  0  0
   -2.4160   20.0260  -31.5190 C   0  0  0  0  0  0  0  0  0  0  0  0
   -5.2380   21.6460  -32.0990 C   0  0  0  0  0  0  0  0  0  0  0  0
   -4.6710   22.8250  -31.6150 C   0  0  0  0  0  0  0  0  0  0  0  0
   -4.9147   23.8900  -28.4224 H   0  0  0  0  0  0  0  0  0  0  0  0
   -3.8924   22.2738  -26.8179 H   0  0  0  0  0  0  0  0  0  0  0  0
   -1.4261   21.8828  -26.8380 H   0  0  0  0  0  0  0  0  0  0  0  0
    0.0238   23.1276  -28.4455 H   0  0  0  0  0  0  0  0  0  0  0  0
   -0.9935   24.7454  -30.0517 H   0  0  0  0  0  0  0  0  0  0  0  0
   -7.6041   24.5804  -31.2061 H   0  0  0  0  0  0  0  0  0  0  0  0
   -8.5539   22.4320  -32.1033 H   0  0  0  0  0  0  0  0  0  0  0  0
   -7.8530   19.9740  -33.0450 H   0  0  0  0  0  0  0  0  0  0  0  0
   -7.3346   17.5366  -32.4031 H   0  0  0  0  0  0  0  0  0  0  0  0
   -7.1438   15.2351  -33.3605 H   0  0  0  0  0  0  0  0  0  0  0  0
   -3.8032   16.4257  -35.7222 H   0  0  0  0  0  0  0  0  0  0  0  0
   -3.9350   18.7472  -34.8073 H   0  0  0  0  0  0  0  0  0  0  0  0
   -3.2144   20.2822  -34.8373 H   0  0  0  0  0  0  0  0  0  0  0  0
   -0.7657   19.8534  -35.0451 H   0  0  0  0  0  0  0  0  0  0  0  0
    0.6280   19.5403  -32.9974 H   0  0  0  0  0  0  0  0  0  0  0  0
   -0.4280   19.6487  -30.7387 H   0  0  0  0  0  0  0  0  0  0  0  0
   -2.8780   20.0740  -30.5219 H   0  0  0  0  0  0  0  0  0  0  0  0
   -3.5836   22.9109  -31.4732 H   0  0  0  0  0  0  0  0  0  0  0  0
  1  2  2  0
  2  3  1  0
  3  4  1  0
  4  5  2  0
  5  6  1  0
  6  7  2  0
  7  8  1  0
  8  9  2  0
  2 10  1  0
 10 11  2  0
 11 12  1  0
 12 13  2  0
 13 14  1  0
 14 15  1  0
 15 16  1  0
 16 17  2  0
 17 18  1  0
 18 19  2  0
 19 20  1  0
 20 21  2  0
 15 22  2  0
 22 23  1  0
 23 24  2  0
 24 25  1  0
 25 26  2  0
 26 27  1  0
 27 28  2  0
 22 29  1  0
 29 30  2  0
  9  4  1  0
 30 10  1  0
 29 13  1  0
 21 16  1  0
 28 23  1  0
  5 31  1  0
  6 32  1  0
  7 33  1  0
  8 34  1  0
  9 35  1  0
 11 36  1  0
 12 37  1  0
 14 38  1  0
 17 39  1  0
 18 40  1  0
 20 41  1  0
 21 42  1  0
 24 43  1  0
 25 44  1  0
 26 45  1  0
 27 46  1  0
 28 47  1  0
 30 48  1  0
M  CHG  1   3  -1
M  END
>  <UniqueID>  (10) 
9

>  <SMILES>  (10) 
O=C([N-]c1ccccc1)c1ccc2[nH]c(-c3ccncc3)c(-c3ccccc3)c2c1

>  <Energy>  (10) 
103.34846215525246

>  <Genealogy>  (10) 
O=C([N-]c1ccccc1)c1ccc2[nH]c(-c3ccncc3)c(-c3ccccc3)c2c1 (protonated)
O=C([N-]c1ccccc1)c1ccc2[nH]c(-c3ccncc3)c(-c3ccccc3)c2c1 (3D coordinates assigned)
O=C([N-]c1ccccc1)c1ccc2[nH]c(-c3ccncc3)c(-c3ccccc3)c2c1 (optimized conformer: 103.34846215525246 kcal/mol)

>  <smiles>  (10) 
O=C(Nc1ccccc1)c1ccc2[nH]c(-c3ccncc3)c(-c3ccccc3)c2c1

>  <score_type>  (10) 
oracle

>  <origin>  (10) 
adg

>  <m_score__min__energy>  (10) 
-11.539999999999999

>  <m_primary>  (10) 
energy

$$$$
10:0
     RDKit          3D

 33 35  0  0  0  0  0  0  0  0999 V2000
   -6.8040   25.3130  -29.6860 C   0  0  0  0  0  0  0  0  0  0  0  0
   -5.3050   25.4410  -30.7100 S   0  0  0  0  0  0  0  0  0  0  0  0
   -5.4380   23.7590  -31.3080 C   0  0  0  0  0  0  0  0  0  0  0  0
   -4.3860   23.0540  -31.7710 N   0  0  0  0  0  0  0  0  0  0  0  0
   -4.9140   21.8580  -32.1090 C   0  0  0  0  0  0  0  0  0  0  0  0
   -4.1170   20.7850  -32.7400 C   0  0  0  0  0  0  0  0  0  0  0  0
   -4.7150   19.8500  -33.6040 C   0  0  0  0  0  0  0  0  0  0  0  0
   -3.9430   18.8510  -34.2060 C   0  0  0  0  0  0  0  0  0  0  0  0
   -2.5680   18.7870  -33.9640 C   0  0  0  0  0  0  0  0  0  0  0  0
   -1.9630   19.7260  -33.1250 C   0  0  0  0  0  0  0  0  0  0  0  0
   -2.7310   20.7260  -32.5210 C   0  0  0  0  0  0  0  0  0  0  0  0
   -6.2770   21.8650  -31.8300 C   0  0  0  0  0  0  0  0  0  0  0  0
   -7.2400   20.7470  -31.9340 C   0  0  0  0  0  0  0  0  0  0  0  0
   -8.5610   20.9990  -32.3400 C   0  0  0  0  0  0  0  0  0  0  0  0
   -9.4840   19.9510  -32.4280 C   0  0  0  0  0  0  0  0  0  0  0  0
   -9.0980   18.6480  -32.1000 C   0  0  0  0  0  0  0  0  0  0  0  0
   -7.7910   18.3930  -31.6770 C   0  0  0  0  0  0  0  0  0  0  0  0
   -6.8660   19.4370  -31.5870 C   0  0  0  0  0  0  0  0  0  0  0  0
   -6.5950   23.0730  -31.3350 N   0  0  0  0  0  0  0  0  0  0  0  0
   -6.5246   25.3369  -28.6223 H   0  0  0  0  0  0  0  0  0  0  0  0
   -7.4731   26.1573  -29.9084 H   0  0  0  0  0  0  0  0  0  0  0  0
   -7.3203   24.3675  -29.9084 H   0  0  0  0  0  0  0  0  0  0  0  0
   -5.7947   19.9047  -33.8072 H   0  0  0  0  0  0  0  0  0  0  0  0
   -4.4186   18.1148  -34.8707 H   0  0  0  0  0  0  0  0  0  0  0  0
   -1.9626   17.9978  -34.4338 H   0  0  0  0  0  0  0  0  0  0  0  0
   -0.8799   19.6785  -32.9392 H   0  0  0  0  0  0  0  0  0  0  0  0
   -2.2474   21.4702  -31.8711 H   0  0  0  0  0  0  0  0  0  0  0  0
   -8.8711   22.0244  -32.5898 H   0  0  0  0  0  0  0  0  0  0  0  0
  -10.5145   20.1526  -32.7557 H   0  0  0  0  0  0  0  0  0  0  0  0
   -9.8228   17.8240  -32.1749 H   0  0  0  0  0  0  0  0  0  0  0  0
   -7.4893   17.3683  -31.4142 H   0  0  0  0  0  0  0  0  0  0  0  0
   -5.8412   19.2328  -31.2433 H   0  0  0  0  0  0  0  0  0  0  0  0
   -7.5290   23.4010  -31.0030 H   0  0  0  0  0  0  0  0  0  0  0  0
  1  2  1  0
  2  3  1  0
  3  4  2  0
  4  5  1  0
  5  6  1  0
  6  7  2  0
  7  8  1  0
  8  9  2  0
  9 10  1  0
 10 11  2  0
  5 12  2  0
 12 13  1  0
 13 14  2  0
 14 15  1  0
 15 16  2  0
 16 17  1  0
 17 18  2  0
 12 19  1  0
 19  3  1  0
 11  6  1  0
 18 13  1  0
  1 20  1  0
  1 21  1  0
  1 22  1  0
  7 23  1  0
  8 24  1  0
  9 25  1  0
 10 26  1  0
 11 27  1  0
 14 28  1  0
 15 29  1  0
 16 30  1  0
 17 31  1  0
 18 32  1  0
 19 33  1  0
M  END
>  <UniqueID>  (11) 
10

>  <SMILES>  (11) 
CSc1nc(-c2ccccc2)c(-c2ccccc2)[nH]1

>  <Energy>  (11) 
68.1198124430779

>  <Genealogy>  (11) 
CSc1nc(-c2ccccc2)c(-c2ccccc2)[nH]1 (3D coordinates assigned)
CSc1nc(-c2ccccc2)c(-c2ccccc2)[nH]1 (optimized conformer: 68.1198124430779 kcal/mol)

>  <smiles>  (11) 
CSc1nc(-c2ccccc2)c(-c2ccccc2)[nH]1

>  <score_type>  (11) 
oracle

>  <origin>  (11) 
adg

>  <m_score__min__energy>  (11) 
-7.4500000000000002

>  <m_primary>  (11) 
energy

$$$$
11:0
     RDKit          3D

 27 28  0  0  0  0  0  0  0  0999 V2000
   -2.9320   24.2020  -29.5940 C   0  0  0  0  0  0  0  0  0  0  0  0
   -3.9290   24.7330  -30.4610 O   0  0  0  0  0  0  0  0  0  0  0  0
   -5.1390   24.0910  -30.7620 C   0  0  0  0  0  0  0  0  0  0  0  0
   -5.7640   23.3440  -29.7540 C   0  0  0  0  0  0  0  0  0  0  0  0
   -6.9710   22.6850  -30.0050 C   0  0  0  0  0  0  0  0  0  0  0  0
   -7.5650   22.7650  -31.2690 C   0  0  0  0  0  0  0  0  0  0  0  0
   -9.1100   21.9150  -31.5920 S   0  0  0  0  0  0  0  0  0  0  0  0
   -8.2820   20.4060  -32.0980 C   0  0  0  0  0  0  0  0  0  0  0  0
   -8.7030   19.1710  -31.5920 C   0  0  0  0  0  0  0  0  0  0  0  0
   -8.0540   17.9960  -31.9840 C   0  0  0  0  0  0  0  0  0  0  0  0
   -6.9850   18.0530  -32.8840 C   0  0  0  0  0  0  0  0  0  0  0  0
   -6.5650   19.2870  -33.3930 C   0  0  0  0  0  0  0  0  0  0  0  0
   -7.2140   20.4620  -33.0020 C   0  0  0  0  0  0  0  0  0  0  0  0
   -6.9510   23.5120  -32.2800 C   0  0  0  0  0  0  0  0  0  0  0  0
   -5.7430   24.1710  -32.0320 C   0  0  0  0  0  0  0  0  0  0  0  0
   -3.2326   24.3621  -28.5481 H   0  0  0  0  0  0  0  0  0  0  0  0
   -2.8188   23.1241  -29.7821 H   0  0  0  0  0  0  0  0  0  0  0  0
   -1.9744   24.7096  -29.7821 H   0  0  0  0  0  0  0  0  0  0  0  0
   -5.3014   23.2758  -28.7583 H   0  0  0  0  0  0  0  0  0  0  0  0
   -7.4546   22.1024  -29.2071 H   0  0  0  0  0  0  0  0  0  0  0  0
   -9.5449   19.1245  -30.8855 H   0  0  0  0  0  0  0  0  0  0  0  0
   -8.3846   17.0260  -31.5841 H   0  0  0  0  0  0  0  0  0  0  0  0
   -6.4747   17.1284  -33.1916 H   0  0  0  0  0  0  0  0  0  0  0  0
   -5.7242   19.3325  -34.1008 H   0  0  0  0  0  0  0  0  0  0  0  0
   -6.8854   21.4314  -33.4049 H   0  0  0  0  0  0  0  0  0  0  0  0
   -7.4198   23.5811  -33.2727 H   0  0  0  0  0  0  0  0  0  0  0  0
   -5.2626   24.7540  -32.8316 H   0  0  0  0  0  0  0  0  0  0  0  0
  1  2  1  0
  2  3  1  0
  3  4  2  0
  4  5  1  0
  5  6  2  0
  6  7  1  0
  7  8  1  0
  8  9  2  0
  9 10  1  0
 10 11  2  0
 11 12  1  0
 12 13  2  0
  6 14  1  0
 14 15  2  0
 15  3  1  0
 13  8  1  0
  1 16  1  0
  1 17  1  0
  1 18  1  0
  4 19  1  0
  5 20  1  0
  9 21  1  0
 10 22  1  0
 11 23  1  0
 12 24  1  0
 13 25  1  0
 14 26  1  0
 15 27  1  0
M  END
>  <UniqueID>  (12) 
11

>  <SMILES>  (12) 
COc1ccc(Sc2ccccc2)cc1

>  <Energy>  (12) 
22.26472553753174

>  <Genealogy>  (12) 
COc1ccc(Sc2ccccc2)cc1 (3D coordinates assigned)
COc1ccc(Sc2ccccc2)cc1 (optimized conformer: 22.26472553753174 kcal/mol)

>  <smiles>  (12) 
COc1ccc(Sc2ccccc2)cc1

>  <score_type>  (12) 
oracle

>  <origin>  (12) 
adg

>  <m_score__min__energy>  (12) 
-7.1500000000000004

>  <m_primary>  (12) 
energy

$$$$
12:0
     RDKit          3D

 39 42  0  0  0  0  0  0  0  0999 V2000
   -8.9940   18.1640  -31.6720 O   0  0  0  0  0  0  0  0  0  0  0  0
   -7.6360   18.7690  -31.8950 S   0  0  0  0  0  0  0  0  0  0  0  0
   -6.6850   18.1970  -30.8800 O   0  0  0  0  0  0  0  0  0  0  0  0
   -7.7540   20.5120  -31.6700 C   0  0  0  0  0  0  0  0  0  0  0  0
   -8.9550   21.1740  -31.9650 C   0  0  0  0  0  0  0  0  0  0  0  0
   -9.0520   22.5600  -31.8030 C   0  0  0  0  0  0  0  0  0  0  0  0
   -7.9500   23.2900  -31.3500 C   0  0  0  0  0  0  0  0  0  0  0  0
   -6.7490   22.6370  -31.0610 C   0  0  0  0  0  0  0  0  0  0  0  0
   -6.6480   21.2510  -31.2210 C   0  0  0  0  0  0  0  0  0  0  0  0
   -7.0840   18.4310  -33.5240 N   0  0  2  0  0  0  0  0  0  0  0  0
   -6.1920   17.2420  -33.5740 C   0  0  0  0  0  0  0  0  0  0  0  0
   -4.8400   17.4550  -32.8580 C   0  0  0  0  0  0  0  0  0  0  0  0
   -4.3040   18.8120  -33.1740 C   0  0  0  0  0  0  0  0  0  0  0  0
   -5.0660   19.8320  -33.7020 C   0  0  0  0  0  0  0  0  0  0  0  0
   -4.3510   20.9740  -33.8120 N   0  0  0  0  0  0  0  0  0  0  0  0
   -3.1340   20.6760  -33.3150 C   0  0  0  0  0  0  0  0  0  0  0  0
   -2.0410   21.5310  -33.1870 C   0  0  0  0  0  0  0  0  0  0  0  0
   -0.8630   21.0110  -32.6190 C   0  0  0  0  0  0  0  0  0  0  0  0
   -0.8030   19.6650  -32.1950 C   0  0  0  0  0  0  0  0  0  0  0  0
   -1.9210   18.8220  -32.3370 C   0  0  0  0  0  0  0  0  0  0  0  0
   -3.0710   19.3630  -32.9080 C   0  0  0  0  0  0  0  0  0  0  0  0
   -6.4790   19.6310  -34.1530 C   0  0  0  0  0  0  0  0  0  0  0  0
   -9.8228   20.6017  -32.3247 H   0  0  0  0  0  0  0  0  0  0  0  0
   -9.9963   23.0755  -32.0323 H   0  0  0  0  0  0  0  0  0  0  0  0
   -8.0280   24.3796  -31.2208 H   0  0  0  0  0  0  0  0  0  0  0  0
   -5.8817   23.2136  -30.7072 H   0  0  0  0  0  0  0  0  0  0  0  0
   -5.7008   20.7395  -30.9947 H   0  0  0  0  0  0  0  0  0  0  0  0
   -7.9430   18.1920  -34.0760 H   0  0  0  0  0  0  0  0  0  0  0  0
   -6.7101   16.3978  -33.0956 H   0  0  0  0  0  0  0  0  0  0  0  0
   -5.9697   17.0488  -34.6339 H   0  0  0  0  0  0  0  0  0  0  0  0
   -4.9849   17.3644  -31.7714 H   0  0  0  0  0  0  0  0  0  0  0  0
   -4.1244   16.6943  -33.2033 H   0  0  0  0  0  0  0  0  0  0  0  0
   -4.6760   21.8910  -34.1930 H   0  0  0  0  0  0  0  0  0  0  0  0
   -2.0971   22.5782  -33.5191 H   0  0  0  0  0  0  0  0  0  0  0  0
    0.0188   21.6585  -32.5042 H   0  0  0  0  0  0  0  0  0  0  0  0
    0.1238   19.2730  -31.7508 H   0  0  0  0  0  0  0  0  0  0  0  0
   -1.8880   17.7727  -32.0087 H   0  0  0  0  0  0  0  0  0  0  0  0
   -7.0715   20.5161  -33.8780 H   0  0  0  0  0  0  0  0  0  0  0  0
   -6.4764   19.4855  -35.2433 H   0  0  0  0  0  0  0  0  0  0  0  0
  1  2  2  0
  2  3  2  0
  2  4  1  0
  4  5  2  0
  5  6  1  0
  6  7  2  0
  7  8  1  0
  8  9  2  0
  2 10  1  0
 10 11  1  0
 11 12  1  0
 12 13  1  0
 13 14  2  0
 14 15  1  0
 15 16  1  0
 16 17  2  0
 17 18  1  0
 18 19  2  0
 19 20  1  0
 20 21  2  0
 14 22  1  0
  9  4  1  0
 22 10  1  0
 21 13  1  0
 21 16  1  0
  5 23  1  0
  6 24  1  0
  7 25  1  0
  8 26  1  0
  9 27  1  0
 10 28  1  6
 11 29  1  0
 11 30  1  0
 12 31  1  0
 12 32  1  0
 15 33  1  0
 17 34  1  0
 18 35  1  0
 19 36  1  0
 20 37  1  0
 22 38  1  0
 22 39  1  0
M  CHG  1  10   1
M  END
>  <UniqueID>  (13) 
12

>  <SMILES>  (13) 
O=S(=O)(c1ccccc1)[N@@H+]1CCc2c([nH]c3ccccc23)C1

>  <Energy>  (13) 
80.83174251468422

>  <Genealogy>  (13) 
O=S(=O)(c1ccccc1)[NH+]1CCc2c([nH]c3ccccc23)C1 (protonated)
O=S(=O)(c1ccccc1)[N@@H+]1CCc2c([nH]c3ccccc23)C1 (chirality)
O=S(=O)(c1ccccc1)[N@@H+]1CCc2c([nH]c3ccccc23)C1 (3D coordinates assigned)
O=S(=O)(c1ccccc1)[N@@H+]1CCc2c([nH]c3ccccc23)C1 (nonaromatic ring conformer: 80.83174251468422 kcal/mol)

>  <smiles>  (13) 
O=S(=O)(c1ccccc1)N1CCc2c([nH]c3ccccc23)C1

>  <score_type>  (13) 
oracle

>  <origin>  (13) 
adg

>  <m_score__min__energy>  (13) 
-8.1600000000000001

>  <m_primary>  (13) 
energy

$$$$
13:0
     RDKit          3D

 44 46  0  0  0  0  0  0  0  0999 V2000
   -2.1740   24.9470  -29.5190 N   0  0  0  0  0  0  0  0  0  0  0  0
   -3.3990   24.4660  -30.0710 C   0  0  0  0  0  0  0  0  0  0  0  0
   -4.2550   25.3040  -30.4690 O   0  0  0  0  0  0  0  0  0  0  0  0
   -3.7310   22.9690  -30.0690 C   0  0  0  0  0  0  0  0  0  0  0  0
   -2.7690   22.1970  -31.0270 C   0  0  0  0  0  0  0  0  0  0  0  0
   -3.2760   21.3320  -32.0270 C   0  0  0  0  0  0  0  0  0  0  0  0
   -2.4200   20.6050  -32.8570 C   0  0  0  0  0  0  0  0  0  0  0  0
   -1.0390   20.7140  -32.7080 C   0  0  0  0  0  0  0  0  0  0  0  0
   -0.5110   21.5520  -31.7290 C   0  0  0  0  0  0  0  0  0  0  0  0
   -1.3610   22.2830  -30.8950 C   0  0  0  0  0  0  0  0  0  0  0  0
   -5.1910   22.9560  -30.6090 C   0  0  0  0  0  0  0  0  0  0  0  0
   -5.4590   23.3780  -31.9360 C   0  0  0  0  0  0  0  0  0  0  0  0
   -6.7640   23.4580  -32.4260 C   0  0  0  0  0  0  0  0  0  0  0  0
   -7.8420   23.1700  -31.5930 C   0  0  0  0  0  0  0  0  0  0  0  0
   -7.6170   22.8340  -30.2610 C   0  0  0  0  0  0  0  0  0  0  0  0
   -6.3130   22.7550  -29.7640 C   0  0  0  0  0  0  0  0  0  0  0  0
   -3.6150   22.4020  -28.6640 N   0  0  0  0  0  0  0  0  0  0  0  0
   -2.8980   21.0900  -28.5970 C   0  0  0  0  0  0  0  0  0  0  0  0
   -2.5850   20.6900  -27.1500 C   0  0  0  0  0  0  0  0  0  0  0  0
   -1.6110   21.6920  -26.5030 C   0  0  0  0  0  0  0  0  0  0  0  0
   -1.6730   23.0780  -27.1630 C   0  0  0  0  0  0  0  0  0  0  0  0
   -3.0970   23.3870  -27.6540 C   0  0  0  0  0  0  0  0  0  0  0  0
   -1.6090   25.6720  -30.0150 H   0  0  0  0  0  0  0  0  0  0  0  0
   -4.3641   21.2309  -32.1523 H   0  0  0  0  0  0  0  0  0  0  0  0
   -2.8374   19.9441  -33.6310 H   0  0  0  0  0  0  0  0  0  0  0  0
   -0.3671   20.1393  -33.3624 H   0  0  0  0  0  0  0  0  0  0  0  0
    0.5793   21.6388  -31.6118 H   0  0  0  0  0  0  0  0  0  0  0  0
   -0.9295   22.9366  -30.1226 H   0  0  0  0  0  0  0  0  0  0  0  0
   -4.6200   23.6484  -32.5941 H   0  0  0  0  0  0  0  0  0  0  0  0
   -6.9408   23.7491  -33.4720 H   0  0  0  0  0  0  0  0  0  0  0  0
   -8.8685   23.2079  -31.9864 H   0  0  0  0  0  0  0  0  0  0  0  0
   -8.4694   22.6297  -29.5965 H   0  0  0  0  0  0  0  0  0  0  0  0
   -6.1537   22.5330  -28.6985 H   0  0  0  0  0  0  0  0  0  0  0  0
   -4.5840   22.1920  -28.3310 H   0  0  0  0  0  0  0  0  0  0  0  0
   -3.5305   20.3140  -29.0528 H   0  0  0  0  0  0  0  0  0  0  0  0
   -1.9463   21.1904  -29.1394 H   0  0  0  0  0  0  0  0  0  0  0  0
   -3.5201   20.6711  -26.5710 H   0  0  0  0  0  0  0  0  0  0  0  0
   -2.1159   19.6950  -27.1533 H   0  0  0  0  0  0  0  0  0  0  0  0
   -1.8667   21.7960  -25.4382 H   0  0  0  0  0  0  0  0  0  0  0  0
   -0.5910   21.3022  -26.6363 H   0  0  0  0  0  0  0  0  0  0  0  0
   -1.3713   23.8403  -26.4296 H   0  0  0  0  0  0  0  0  0  0  0  0
   -0.9928   23.0871  -28.0274 H   0  0  0  0  0  0  0  0  0  0  0  0
   -3.7724   23.3818  -26.7858 H   0  0  0  0  0  0  0  0  0  0  0  0
   -3.0599   24.3676  -28.1511 H   0  0  0  0  0  0  0  0  0  0  0  0
  1  2  1  0
  2  3  2  0
  2  4  1  0
  4  5  1  0
  5  6  2  0
  6  7  1  0
  7  8  2  0
  8  9  1  0
  9 10  2  0
  4 11  1  0
 11 12  2  0
 12 13  1  0
 13 14  2  0
 14 15  1  0
 15 16  2  0
  4 17  1  0
 17 18  1  0
 18 19  1  0
 19 20  1  0
 20 21  1  0
 21 22  1  0
 10  5  1  0
 16 11  1  0
 22 17  1  0
  1 23  1  0
  6 24  1  0
  7 25  1  0
  8 26  1  0
  9 27  1  0
 10 28  1  0
 12 29  1  0
 13 30  1  0
 14 31  1  0
 15 32  1  0
 16 33  1  0
 17 34  1  0
 18 35  1  0
 18 36  1  0
 19 37  1  0
 19 38  1  0
 20 39  1  0
 20 40  1  0
 21 41  1  0
 21 42  1  0
 22 43  1  0
 22 44  1  0
M  CHG  2   1  -1  17   1
M  END
>  <UniqueID>  (14) 
13

>  <SMILES>  (14) 
[NH-]C(=O)C(c1ccccc1)(c1ccccc1)[NH+]1CCCCC1

>  <Energy>  (14) 
77.75955366617609

>  <Genealogy>  (14) 
[NH-]C(=O)C(c1ccccc1)(c1ccccc1)[NH+]1CCCCC1 (protonated)
[NH-]C(=O)C(c1ccccc1)(c1ccccc1)[NH+]1CCCCC1 (3D coordinates assigned)
[NH-]C(=O)C(c1ccccc1)(c1ccccc1)[NH+]1CCCCC1 (nonaromatic ring conformer: 77.75955366617609 kcal/mol)

>  <smiles>  (14) 
NC(=O)C(c1ccccc1)(c1ccccc1)N1CCCCC1

>  <score_type>  (14) 
oracle

>  <origin>  (14) 
adg

>  <m_score__min__energy>  (14) 
-9.25

>  <m_primary>  (14) 
energy

$$$$
14:0
     RDKit          3D

 39 42  0  0  0  0  0  0  0  0999 V2000
   -0.9250   25.2500  -28.3390 C   0  0  0  0  0  0  0  0  0  0  0  0
   -1.9380   25.2940  -29.3380 O   0  0  0  0  0  0  0  0  0  0  0  0
   -3.0920   24.4960  -29.3310 C   0  0  0  0  0  0  0  0  0  0  0  0
   -3.4370   23.6780  -28.2390 C   0  0  0  0  0  0  0  0  0  0  0  0
   -4.5980   22.9020  -28.2830 C   0  0  0  0  0  0  0  0  0  0  0  0
   -5.4210   22.9310  -29.4100 C   0  0  0  0  0  0  0  0  0  0  0  0
   -5.0900   23.7390  -30.5080 C   0  0  0  0  0  0  0  0  0  0  0  0
   -5.9680   23.7520  -31.7320 C   0  0  0  0  0  0  0  0  0  0  0  0
   -6.1930   22.3830  -32.2130 N   0  0  0  0  0  0  0  0  0  0  0  0
   -5.2600   21.5240  -32.6970 C   0  0  0  0  0  0  0  0  0  0  0  0
   -3.8970   21.7600  -32.9050 C   0  0  0  0  0  0  0  0  0  0  0  0
   -3.1130   20.7100  -33.4160 C   0  0  0  0  0  0  0  0  0  0  0  0
   -3.6920   19.4550  -33.7070 C   0  0  0  0  0  0  0  0  0  0  0  0
   -5.0640   19.2370  -33.4920 C   0  0  0  0  0  0  0  0  0  0  0  0
   -5.8180   20.2930  -32.9870 C   0  0  0  0  0  0  0  0  0  0  0  0
   -7.1530   20.3880  -32.6650 C   0  0  0  0  0  0  0  0  0  0  0  0
   -8.1850   19.4560  -32.7410 C   0  0  0  0  0  0  0  0  0  0  0  0
   -9.4630   19.8590  -32.3180 C   0  0  0  0  0  0  0  0  0  0  0  0
   -9.6770   21.1670  -31.8330 C   0  0  0  0  0  0  0  0  0  0  0  0
   -8.6170   22.0890  -31.7660 C   0  0  0  0  0  0  0  0  0  0  0  0
   -7.3500   21.6710  -32.1920 C   0  0  0  0  0  0  0  0  0  0  0  0
   -3.9230   24.5210  -30.4590 C   0  0  0  0  0  0  0  0  0  0  0  0
   -1.3912   25.2703  -27.3429 H   0  0  0  0  0  0  0  0  0  0  0  0
   -0.3394   24.3256  -28.4510 H   0  0  0  0  0  0  0  0  0  0  0  0
   -0.2615   26.1202  -28.4510 H   0  0  0  0  0  0  0  0  0  0  0  0
   -2.7912   23.6495  -27.3490 H   0  0  0  0  0  0  0  0  0  0  0  0
   -4.8645   22.2657  -27.4262 H   0  0  0  0  0  0  0  0  0  0  0  0
   -6.3335   22.3173  -29.4373 H   0  0  0  0  0  0  0  0  0  0  0  0
   -6.9351   24.2115  -31.4799 H   0  0  0  0  0  0  0  0  0  0  0  0
   -5.4700   24.3317  -32.5232 H   0  0  0  0  0  0  0  0  0  0  0  0
   -3.4510   22.7390  -32.6754 H   0  0  0  0  0  0  0  0  0  0  0  0
   -2.0385   20.8677  -33.5907 H   0  0  0  0  0  0  0  0  0  0  0  0
   -3.0653   18.6430  -34.1044 H   0  0  0  0  0  0  0  0  0  0  0  0
   -5.5266   18.2643  -33.7153 H   0  0  0  0  0  0  0  0  0  0  0  0
   -8.0058   18.4388  -33.1194 H   0  0  0  0  0  0  0  0  0  0  0  0
  -10.3026   19.1499  -32.3652 H   0  0  0  0  0  0  0  0  0  0  0  0
  -10.6825   21.4683  -31.5042 H   0  0  0  0  0  0  0  0  0  0  0  0
   -8.7786   23.1099  -31.3895 H   0  0  0  0  0  0  0  0  0  0  0  0
   -3.6593   25.1593  -31.3152 H   0  0  0  0  0  0  0  0  0  0  0  0
  1  2  1  0
  2  3  1  0
  3  4  2  0
  4  5  1  0
  5  6  2  0
  6  7  1  0
  7  8  1  0
  8  9  1  0
  9 10  1  0
 10 11  2  0
 11 12  1  0
 12 13  2  0
 13 14  1  0
 14 15  2  0
 15 16  1  0
 16 17  2  0
 17 18  1  0
 18 19  2  0
 19 20  1  0
 20 21  2  0
  7 22  2  0
 22  3  1  0
 21  9  1  0
 15 10  1  0
 21 16  1  0
  1 23  1  0
  1 24  1  0
  1 25  1  0
  4 26  1  0
  5 27  1  0
  6 28  1  0
  8 29  1  0
  8 30  1  0
 11 31  1  0
 12 32  1  0
 13 33  1  0
 14 34  1  0
 17 35  1  0
 18 36  1  0
 19 37  1  0
 20 38  1  0
 22 39  1  0
M  END
>  <UniqueID>  (15) 
14

>  <SMILES>  (15) 
COc1cccc(Cn2c3ccccc3c3ccccc32)c1

>  <Energy>  (15) 
83.46728436489556

>  <Genealogy>  (15) 
COc1cccc(Cn2c3ccccc3c3ccccc32)c1 (3D coordinates assigned)
COc1cccc(Cn2c3ccccc3c3ccccc32)c1 (optimized conformer: 83.46728436489556 kcal/mol)

>  <smiles>  (15) 
COc1cccc(Cn2c3ccccc3c3ccccc32)c1

>  <score_type>  (15) 
oracle

>  <origin>  (15) 
adg

>  <m_score__min__energy>  (15) 
-9.1099999999999994

>  <m_primary>  (15) 
energy

$$$$
15:0
     RDKit          3D

 26 26  0  0  0  0  0  0  0  0999 V2000
   -4.5920   22.7170  -28.9240 C   0  0  0  0  0  0  0  0  0  0  0  0
   -5.6800   23.1340  -29.7990 N   0  0  0  0  0  0  0  0  0  0  0  0
   -5.4820   24.1070  -30.8340 C   0  0  0  0  0  0  0  0  0  0  0  0
   -4.4300   24.8010  -30.8490 O   0  0  0  0  0  0  0  0  0  0  0  0
   -6.4820   24.3350  -31.8390 N   0  0  0  0  0  0  0  0  0  0  0  0
   -7.4820   23.3780  -32.2170 C   0  0  0  0  0  0  0  0  0  0  0  0
   -8.5930   23.7930  -32.6440 O   0  0  0  0  0  0  0  0  0  0  0  0
   -7.2450   21.9170  -32.1370 C   0  0  0  0  0  0  0  0  0  0  0  0
   -6.0280   21.4130  -32.6300 C   0  0  0  0  0  0  0  0  0  0  0  0
   -5.7730   20.0410  -32.6220 C   0  0  0  0  0  0  0  0  0  0  0  0
   -6.7220   19.1550  -32.1150 C   0  0  0  0  0  0  0  0  0  0  0  0
   -7.9230   19.6400  -31.5960 C   0  0  0  0  0  0  0  0  0  0  0  0
   -8.1900   21.0200  -31.5750 C   0  0  0  0  0  0  0  0  0  0  0  0
   -9.4810   21.4920  -30.9580 C   0  0  0  0  0  0  0  0  0  0  0  0
   -4.8997   22.8349  -27.8745 H   0  0  0  0  0  0  0  0  0  0  0  0
   -4.3489   21.6620  -29.1185 H   0  0  0  0  0  0  0  0  0  0  0  0
   -3.7060   23.3393  -29.1185 H   0  0  0  0  0  0  0  0  0  0  0  0
   -6.6280   22.7260  -29.6420 H   0  0  0  0  0  0  0  0  0  0  0  0
   -6.4980   25.2690  -32.3070 H   0  0  0  0  0  0  0  0  0  0  0  0
   -5.2708   22.1061  -33.0252 H   0  0  0  0  0  0  0  0  0  0  0  0
   -4.8205   19.6578  -33.0169 H   0  0  0  0  0  0  0  0  0  0  0  0
   -6.5241   18.0730  -32.1240 H   0  0  0  0  0  0  0  0  0  0  0  0
   -8.6685   18.9352  -31.1992 H   0  0  0  0  0  0  0  0  0  0  0  0
   -9.3963   21.4610  -29.8617 H   0  0  0  0  0  0  0  0  0  0  0  0
   -9.6862   22.5233  -31.2809 H   0  0  0  0  0  0  0  0  0  0  0  0
  -10.3030   20.8362  -31.2809 H   0  0  0  0  0  0  0  0  0  0  0  0
  1  2  1  0
  2  3  1  0
  3  4  2  0
  3  5  1  0
  5  6  1  0
  6  7  2  0
  6  8  1  0
  8  9  2  0
  9 10  1  0
 10 11  2  0
 11 12  1  0
 12 13  2  0
 13 14  1  0
 13  8  1  0
  1 15  1  0
  1 16  1  0
  1 17  1  0
  2 18  1  0
  5 19  1  0
  9 20  1  0
 10 21  1  0
 11 22  1  0
 12 23  1  0
 14 24  1  0
 14 25  1  0
 14 26  1  0
M  END
>  <UniqueID>  (16) 
15

>  <SMILES>  (16) 
CNC(=O)NC(=O)c1ccccc1C

>  <Energy>  (16) 
28.909545663630734

>  <Genealogy>  (16) 
CNC(=O)NC(=O)c1ccccc1C (3D coordinates assigned)
CNC(=O)NC(=O)c1ccccc1C (optimized conformer: 28.909545663630734 kcal/mol)

>  <smiles>  (16) 
CNC(=O)NC(=O)c1ccccc1C

>  <score_type>  (16) 
oracle

>  <origin>  (16) 
adg

>  <m_score__min__energy>  (16) 
-5.9500000000000002

>  <m_primary>  (16) 
energy

$$$$
16:0
     RDKit          3D

 39 40  0  0  0  0  0  0  0  0999 V2000
   -3.0733   25.0077  -28.4740 H   0  0  0  0  0  0  0  0  0  0  0  0
   -3.3170   24.5540  -29.4460 C   0  0  0  0  0  0  0  0  0  0  0  0
   -3.8770   25.3290  -30.4620 O   0  0  0  0  0  0  0  0  0  0  0  0
   -5.2700   25.6050  -30.5010 C   0  0  0  0  0  0  0  0  0  0  0  0
   -5.6575   25.6818  -29.4744 H   0  0  0  0  0  0  0  0  0  0  0  0
   -5.4410   26.5545  -31.0294 H   0  0  0  0  0  0  0  0  0  0  0  0
   -5.7901   24.7925  -31.0294 H   0  0  0  0  0  0  0  0  0  0  0  0
   -3.0790   23.2590  -29.6610 C   0  0  0  0  0  0  0  0  0  0  0  0
   -2.5176   22.7018  -28.8966 H   0  0  0  0  0  0  0  0  0  0  0  0
   -3.5270   22.5270  -30.8700 C   0  0  0  0  0  0  0  0  0  0  0  0
   -2.5660   21.8650  -31.6500 C   0  0  0  0  0  0  0  0  0  0  0  0
   -1.5075   21.8933  -31.3519 H   0  0  0  0  0  0  0  0  0  0  0  0
   -2.9430   21.1710  -32.8010 C   0  0  0  0  0  0  0  0  0  0  0  0
   -2.1809   20.6577  -33.4057 H   0  0  0  0  0  0  0  0  0  0  0  0
   -4.2820   21.1260  -33.1870 C   0  0  0  0  0  0  0  0  0  0  0  0
   -4.5719   20.5789  -34.0962 H   0  0  0  0  0  0  0  0  0  0  0  0
   -5.2630   21.7770  -32.4190 C   0  0  0  0  0  0  0  0  0  0  0  0
   -6.6500   21.7370  -32.7930 N   0  0  0  0  0  0  0  0  0  0  0  0
   -7.0600   22.5600  -33.2900 H   0  0  0  0  0  0  0  0  0  0  0  0
   -7.5280   20.6720  -32.4130 C   0  0  0  0  0  0  0  0  0  0  0  0
   -8.9410   21.0310  -31.6690 S   0  0  0  0  0  0  0  0  0  0  0  0
   -7.2400   19.3100  -32.7610 N   0  0  0  0  0  0  0  0  0  0  0  0
   -7.7760   18.5510  -32.2820 H   0  0  0  0  0  0  0  0  0  0  0  0
   -6.4750   18.9480  -33.9550 C   0  0  0  0  0  0  0  0  0  0  0  0
   -7.1739   18.7160  -34.7721 H   0  0  0  0  0  0  0  0  0  0  0  0
   -5.8296   19.7967  -34.2255 H   0  0  0  0  0  0  0  0  0  0  0  0
   -5.6020   17.7480  -33.7000 C   0  0  0  0  0  0  0  0  0  0  0  0
   -5.7970   16.9570  -32.5580 C   0  0  0  0  0  0  0  0  0  0  0  0
   -6.5937   17.2057  -31.8415 H   0  0  0  0  0  0  0  0  0  0  0  0
   -4.9730   15.8520  -32.3370 C   0  0  0  0  0  0  0  0  0  0  0  0
   -5.1276   15.2223  -31.4484 H   0  0  0  0  0  0  0  0  0  0  0  0
   -3.9800   15.5510  -33.2160 N   0  0  0  0  0  0  0  0  0  0  0  0
   -3.3760   14.7180  -33.0380 H   0  0  0  0  0  0  0  0  0  0  0  0
   -3.7540   16.3150  -34.3180 C   0  0  0  0  0  0  0  0  0  0  0  0
   -2.9383   16.0535  -35.0081 H   0  0  0  0  0  0  0  0  0  0  0  0
   -4.5540   17.4310  -34.5770 C   0  0  0  0  0  0  0  0  0  0  0  0
   -4.3635   18.0562  -35.4618 H   0  0  0  0  0  0  0  0  0  0  0  0
   -4.8820   22.4530  -31.2500 C   0  0  0  0  0  0  0  0  0  0  0  0
   -5.6495   22.9305  -30.6232 H   0  0  0  0  0  0  0  0  0  0  0  0
  1  2  1  0
  2  3  1  0
  3  4  1  0
  4  5  1  0
  4  6  1  0
  4  7  1  0
  2  8  2  0
  8  9  1  0
  8 10  1  0
 10 11  2  0
 11 12  1  0
 11 13  1  0
 13 14  1  0
 13 15  2  0
 15 16  1  0
 15 17  1  0
 17 18  1  0
 18 19  1  0
 18 20  1  0
 20 21  2  0
 20 22  1  0
 22 23  1  0
 22 24  1  0
 24 25  1  0
 24 26  1  0
 24 27  1  0
 27 28  2  0
 28 29  1  0
 28 30  1  0
 30 31  1  0
 30 32  2  0
 32 33  1  0
 32 34  1  0
 34 35  1  0
 34 36  2  0
 36 37  1  0
 17 38  2  0
 38 39  1  0
 38 10  1  0
 36 27  1  0
M  CHG  1  32   1
M  END
>  <UniqueID>  (17) 
16

>  <SMILES>  (17) 
CO/C=C/c1cccc(NC(=S)NCc2cc[nH+]cc2)c1

>  <Energy>  (17) 
38.45813828196327

>  <Genealogy>  (17) 
COC=Cc1cccc(NC(=S)NCc2cc[nH+]cc2)c1 (protonated)
CO/C=C/c1cccc(NC(=S)NCc2cc[nH+]cc2)c1 (cis-trans isomerization)
CO/C=C/c1cccc(NC(=S)NCc2cc[nH+]cc2)c1 (3D coordinates assigned)
CO/C=C/c1cccc(NC(=S)NCc2cc[nH+]cc2)c1 (optimized conformer: 38.45813828196327 kcal/mol)

>  <smiles>  (17) 
COC=Cc1cccc(NC(=S)NCc2ccncc2)c1

>  <score_type>  (17) 
oracle

>  <origin>  (17) 
adg

>  <m_score__min__energy>  (17) 
-7.1900000000000004

>  <m_primary>  (17) 
energy

$$$$
17:0
     RDKit          3D

 36 37  0  0  0  0  0  0  0  0999 V2000
   -4.9570   15.4140  -32.9790 C   0  0  0  0  0  0  0  0  0  0  0  0
   -5.0620   16.5190  -32.0880 O   0  0  0  0  0  0  0  0  0  0  0  0
   -5.8990   17.6260  -32.2960 C   0  0  0  0  0  0  0  0  0  0  0  0
   -5.6710   18.5630  -33.3210 C   0  0  0  0  0  0  0  0  0  0  0  0
   -6.5310   19.6530  -33.4850 C   0  0  0  0  0  0  0  0  0  0  0  0
   -7.6290   19.8260  -32.6230 C   0  0  0  0  0  0  0  0  0  0  0  0
   -8.5270   20.9390  -32.7440 N   0  0  0  0  0  0  0  0  0  0  0  0
   -8.7260   22.1940  -31.5630 S   0  0  0  0  0  0  0  0  0  0  0  0
   -9.2160   21.5900  -30.2790 O   0  0  0  0  0  0  0  0  0  0  0  0
   -9.7470   23.1780  -32.0610 O   0  0  0  0  0  0  0  0  0  0  0  0
   -7.1820   22.9870  -31.2690 C   0  0  0  0  0  0  0  0  0  0  0  0
   -6.0160   22.5360  -31.9010 C   0  0  0  0  0  0  0  0  0  0  0  0
   -4.7900   23.1560  -31.6450 C   0  0  0  0  0  0  0  0  0  0  0  0
   -4.7170   24.2340  -30.7420 C   0  0  0  0  0  0  0  0  0  0  0  0
   -3.4830   24.9100  -30.4590 N   0  0  0  0  0  0  0  0  0  0  0  0
   -2.6690   24.7510  -29.2900 C   0  0  0  0  0  0  0  0  0  0  0  0
   -2.7760   23.4980  -28.4890 C   0  0  0  0  0  0  0  0  0  0  0  0
   -1.8010   25.6130  -28.9850 O   0  0  0  0  0  0  0  0  0  0  0  0
   -5.8910   24.7010  -30.1390 C   0  0  0  0  0  0  0  0  0  0  0  0
   -7.1160   24.0770  -30.3930 C   0  0  0  0  0  0  0  0  0  0  0  0
   -7.8540   18.8900  -31.6080 C   0  0  0  0  0  0  0  0  0  0  0  0
   -6.9980   17.7970  -31.4480 C   0  0  0  0  0  0  0  0  0  0  0  0
   -4.8685   14.4831  -32.3998 H   0  0  0  0  0  0  0  0  0  0  0  0
   -5.8548   15.3675  -33.6129 H   0  0  0  0  0  0  0  0  0  0  0  0
   -4.0665   15.5374  -33.6129 H   0  0  0  0  0  0  0  0  0  0  0  0
   -4.8119   18.4372  -33.9964 H   0  0  0  0  0  0  0  0  0  0  0  0
   -6.3482   20.3784  -34.2915 H   0  0  0  0  0  0  0  0  0  0  0  0
   -6.0657   21.6898  -32.6021 H   0  0  0  0  0  0  0  0  0  0  0  0
   -3.8797   22.8010  -32.1502 H   0  0  0  0  0  0  0  0  0  0  0  0
   -2.7549   23.7450  -27.4173 H   0  0  0  0  0  0  0  0  0  0  0  0
   -3.7209   22.9887  -28.7294 H   0  0  0  0  0  0  0  0  0  0  0  0
   -1.9311   22.8359  -28.7294 H   0  0  0  0  0  0  0  0  0  0  0  0
   -5.8493   25.5655  -29.4602 H   0  0  0  0  0  0  0  0  0  0  0  0
   -8.0303   24.4434  -29.9033 H   0  0  0  0  0  0  0  0  0  0  0  0
   -8.7115   19.0153  -30.9305 H   0  0  0  0  0  0  0  0  0  0  0  0
   -7.1900   17.0656  -30.6491 H   0  0  0  0  0  0  0  0  0  0  0  0
  1  2  1  0
  2  3  1  0
  3  4  2  0
  4  5  1  0
  5  6  2  0
  6  7  1  0
  7  8  1  0
  8  9  2  0
  8 10  2  0
  8 11  1  0
 11 12  2  0
 12 13  1  0
 13 14  2  0
 14 15  1  0
 15 16  1  0
 16 17  1  0
 16 18  2  0
 14 19  1  0
 19 20  2  0
  6 21  1  0
 21 22  2  0
 22  3  1  0
 20 11  1  0
  1 23  1  0
  1 24  1  0
  1 25  1  0
  4 26  1  0
  5 27  1  0
 12 28  1  0
 13 29  1  0
 17 30  1  0
 17 31  1  0
 17 32  1  0
 19 33  1  0
 20 34  1  0
 21 35  1  0
 22 36  1  0
M  CHG  2   7  -1  15  -1
M  END
>  <UniqueID>  (18) 
17

>  <SMILES>  (18) 
COc1ccc([N-]S(=O)(=O)c2ccc([N-]C(C)=O)cc2)cc1

>  <Energy>  (18) 
40.28628621116963

>  <Genealogy>  (18) 
COc1ccc([N-]S(=O)(=O)c2ccc([N-]C(C)=O)cc2)cc1 (protonated)
COc1ccc([N-]S(=O)(=O)c2ccc([N-]C(C)=O)cc2)cc1 (3D coordinates assigned)
COc1ccc([N-]S(=O)(=O)c2ccc([N-]C(C)=O)cc2)cc1 (optimized conformer: 40.28628621116963 kcal/mol)

>  <smiles>  (18) 
COc1ccc(NS(=O)(=O)c2ccc(NC(C)=O)cc2)cc1

>  <score_type>  (18) 
oracle

>  <origin>  (18) 
adg

>  <m_score__min__energy>  (18) 
-9.5999999999999996

>  <m_primary>  (18) 
energy

$$$$
18:0
     RDKit          3D

 25 26  0  0  0  0  0  0  0  0999 V2000
   -3.8410   25.2870  -30.5510 N   0  0  0  0  0  0  0  0  0  0  0  0
   -4.9020   24.5580  -30.7070 C   0  0  0  0  0  0  0  0  0  0  0  0
   -5.7250   24.2440  -29.6160 C   0  0  0  0  0  0  0  0  0  0  0  0
   -6.8600   23.4560  -29.8200 C   0  0  0  0  0  0  0  0  0  0  0  0
   -7.1670   22.9920  -31.1040 C   0  0  0  0  0  0  0  0  0  0  0  0
   -8.5790   21.9790  -31.3730 S   0  0  0  0  0  0  0  0  0  0  0  0
   -9.3190   21.7800  -30.0790 O   0  0  0  0  0  0  0  0  0  0  0  0
   -9.5110   22.6450  -32.3460 O   0  0  0  0  0  0  0  0  0  0  0  0
   -8.0570   20.4250  -32.0110 C   0  0  0  0  0  0  0  0  0  0  0  0
   -8.6580   19.2400  -31.5610 C   0  0  0  0  0  0  0  0  0  0  0  0
   -8.2290   18.0030  -32.0540 C   0  0  0  0  0  0  0  0  0  0  0  0
   -7.1960   17.9460  -32.9950 C   0  0  0  0  0  0  0  0  0  0  0  0
   -6.5880   19.1230  -33.4390 C   0  0  0  0  0  0  0  0  0  0  0  0
   -7.0140   20.3600  -32.9470 C   0  0  0  0  0  0  0  0  0  0  0  0
   -6.3140   23.3200  -32.1650 C   0  0  0  0  0  0  0  0  0  0  0  0
   -5.2140   24.0890  -31.9440 N   0  0  0  0  0  0  0  0  0  0  0  0
   -3.3690   25.7670  -31.3510 H   0  0  0  0  0  0  0  0  0  0  0  0
   -5.4793   24.6145  -28.6098 H   0  0  0  0  0  0  0  0  0  0  0  0
   -7.5122   23.2003  -28.9719 H   0  0  0  0  0  0  0  0  0  0  0  0
   -9.4686   19.2835  -30.8187 H   0  0  0  0  0  0  0  0  0  0  0  0
   -8.7040   17.0756  -31.7016 H   0  0  0  0  0  0  0  0  0  0  0  0
   -6.8619   16.9736  -33.3859 H   0  0  0  0  0  0  0  0  0  0  0  0
   -5.7732   19.0761  -34.1765 H   0  0  0  0  0  0  0  0  0  0  0  0
   -6.5303   21.2848  -33.2946 H   0  0  0  0  0  0  0  0  0  0  0  0
   -6.5339   22.9551  -33.1791 H   0  0  0  0  0  0  0  0  0  0  0  0
  1  2  2  3
  2  3  1  0
  3  4  2  0
  4  5  1  0
  5  6  1  0
  6  7  2  0
  6  8  2  0
  6  9  1  0
  9 10  2  0
 10 11  1  0
 11 12  2  0
 12 13  1  0
 13 14  2  0
  5 15  2  0
 15 16  1  0
 16  2  1  0
 14  9  1  0
  1 17  1  0
  3 18  1  0
  4 19  1  0
 10 20  1  0
 11 21  1  0
 12 22  1  0
 13 23  1  0
 14 24  1  0
 15 25  1  0
M  CHG  1  16  -1
M  END
>  <UniqueID>  (19) 
18

>  <SMILES>  (19) 
N=c1ccc(S(=O)(=O)c2ccccc2)c[n-]1

>  <Energy>  (19) 
28.782705068361505

>  <Genealogy>  (19) 
N=c1ccc(S(=O)(=O)c2ccccc2)c[n-]1 (protonated)
N=c1ccc(S(=O)(=O)c2ccccc2)c[n-]1 (3D coordinates assigned)
N=c1ccc(S(=O)(=O)c2ccccc2)c[n-]1 (optimized conformer: 28.782705068361505 kcal/mol)

>  <smiles>  (19) 
N=c1ccc(S(=O)(=O)c2ccccc2)c[nH]1

>  <score_type>  (19) 
oracle

>  <origin>  (19) 
adg

>  <m_score__min__energy>  (19) 
-9.5500000000000007

>  <m_primary>  (19) 
energy

$$$$
19:0
     RDKit          3D

 72 72  0  0  0  0  0  0  0  0999 V2000
   -2.7390   21.5860  -32.2240 C   0  0  0  0  0  0  0  0  0  0  0  0
   -3.9030   20.9020  -32.9360 C   0  0  0  0  0  0  0  0  0  0  0  0
   -4.7470   20.0900  -31.9460 C   0  0  0  0  0  0  0  0  0  0  0  0
   -5.8340   19.2450  -32.6310 C   0  0  0  0  0  0  0  0  0  0  0  0
   -6.7970   18.5330  -31.6640 C   0  0  0  0  0  0  0  0  0  0  0  0
   -8.1700   18.2390  -32.2960 C   0  0  0  0  0  0  0  0  0  0  0  0
   -9.0580   19.4890  -32.3930 C   0  0  0  0  0  0  0  0  0  0  0  0
   -8.7690   20.5080  -31.2760 C   0  0  0  0  0  0  0  0  0  0  0  0
   -9.3190   21.9110  -31.5850 C   0  0  0  0  0  0  0  0  0  0  0  0
   -8.2650   23.0300  -31.7050 C   0  0  0  0  0  0  0  0  0  0  0  0
   -6.9190   22.5780  -32.3080 C   0  0  0  0  0  0  0  0  0  0  0  0
   -5.7680   23.5430  -31.9780 C   0  0  0  0  0  0  0  0  0  0  0  0
   -6.1220   24.4450  -30.7880 C   0  0  0  0  0  0  0  0  0  0  0  0
   -5.4950   23.9600  -29.4680 C   0  0  0  0  0  0  0  0  0  0  0  0
   -3.9560   23.8560  -29.5100 C   0  0  0  0  0  0  0  0  0  0  0  0
   -3.3520   23.4000  -28.1720 C   0  0  0  0  0  0  0  0  0  0  0  0
   -3.6830   21.9990  -27.9030 N   0  0  0  0  0  0  0  0  0  0  0  0
   -2.7090   20.9390  -27.9140 C   0  0  0  0  0  0  0  0  0  0  0  0
   -1.6900   20.9540  -28.8770 C   0  0  0  0  0  0  0  0  0  0  0  0
   -0.7020   19.9650  -28.8840 C   0  0  0  0  0  0  0  0  0  0  0  0
   -0.7130   18.9360  -27.9270 C   0  0  0  0  0  0  0  0  0  0  0  0
    0.3690   17.9220  -27.9210 C   0  0  0  0  0  0  0  0  0  0  0  0
    1.3730   18.0900  -28.6630 O   0  0  0  0  0  0  0  0  0  0  0  0
    0.2880   16.7490  -27.0910 N   0  0  0  0  0  0  0  0  0  0  0  0
    1.3920   15.8000  -26.9690 C   0  0  0  0  0  0  0  0  0  0  0  0
    1.4750   14.9090  -28.2030 C   0  0  0  0  0  0  0  0  0  0  0  0
   -1.7380   18.9170  -26.9640 C   0  0  0  0  0  0  0  0  0  0  0  0
   -2.7300   19.9020  -26.9620 C   0  0  0  0  0  0  0  0  0  0  0  0
   -2.8765   21.5052  -31.1356 H   0  0  0  0  0  0  0  0  0  0  0  0
   -1.7958   21.0985  -32.5116 H   0  0  0  0  0  0  0  0  0  0  0  0
   -2.7059   22.6472  -32.5116 H   0  0  0  0  0  0  0  0  0  0  0  0
   -4.5372   21.6674  -33.4072 H   0  0  0  0  0  0  0  0  0  0  0  0
   -3.4978   20.2184  -33.6966 H   0  0  0  0  0  0  0  0  0  0  0  0
   -4.0802   19.4166  -31.3876 H   0  0  0  0  0  0  0  0  0  0  0  0
   -5.2566   20.8064  -31.2849 H   0  0  0  0  0  0  0  0  0  0  0  0
   -6.4263   19.9079  -33.2788 H   0  0  0  0  0  0  0  0  0  0  0  0
   -5.3095   18.4540  -33.1870 H   0  0  0  0  0  0  0  0  0  0  0  0
   -6.3423   17.5808  -31.3532 H   0  0  0  0  0  0  0  0  0  0  0  0
   -6.9636   19.2047  -30.8090 H   0  0  0  0  0  0  0  0  0  0  0  0
   -8.0129   17.8395  -33.3088 H   0  0  0  0  0  0  0  0  0  0  0  0
   -8.6856   17.5146  -31.6484 H   0  0  0  0  0  0  0  0  0  0  0  0
   -8.8812   19.9723  -33.3652 H   0  0  0  0  0  0  0  0  0  0  0  0
  -10.1035   19.1643  -32.2857 H   0  0  0  0  0  0  0  0  0  0  0  0
   -9.2308   20.1478  -30.3449 H   0  0  0  0  0  0  0  0  0  0  0  0
   -7.6762   20.5957  -31.1854 H   0  0  0  0  0  0  0  0  0  0  0  0
   -9.8654   21.8576  -32.5382 H   0  0  0  0  0  0  0  0  0  0  0  0
   -9.9487   22.1827  -30.7250 H   0  0  0  0  0  0  0  0  0  0  0  0
   -8.6783   23.8244  -32.3438 H   0  0  0  0  0  0  0  0  0  0  0  0
   -8.0510   23.3698  -30.6809 H   0  0  0  0  0  0  0  0  0  0  0  0
   -6.6704   21.5837  -31.9084 H   0  0  0  0  0  0  0  0  0  0  0  0
   -7.0341   22.5592  -33.4018 H   0  0  0  0  0  0  0  0  0  0  0  0
   -4.8699   22.9583  -31.7300 H   0  0  0  0  0  0  0  0  0  0  0  0
   -5.5864   24.1807  -32.8557 H   0  0  0  0  0  0  0  0  0  0  0  0
   -5.7592   25.4622  -30.9972 H   0  0  0  0  0  0  0  0  0  0  0  0
   -7.2149   24.4202  -30.6657 H   0  0  0  0  0  0  0  0  0  0  0  0
   -5.7731   24.6664  -28.6720 H   0  0  0  0  0  0  0  0  0  0  0  0
   -5.8795   22.9458  -29.2847 H   0  0  0  0  0  0  0  0  0  0  0  0
   -3.6740   23.1312  -30.2879 H   0  0  0  0  0  0  0  0  0  0  0  0
   -3.5624   24.8603  -29.7254 H   0  0  0  0  0  0  0  0  0  0  0  0
   -2.2584   23.5107  -28.2136 H   0  0  0  0  0  0  0  0  0  0  0  0
   -3.7693   24.0220  -27.3664 H   0  0  0  0  0  0  0  0  0  0  0  0
   -4.6790   21.7450  -27.7090 H   0  0  0  0  0  0  0  0  0  0  0  0
   -1.6678   21.7516  -29.6342 H   0  0  0  0  0  0  0  0  0  0  0  0
    0.0913   19.9925  -29.6456 H   0  0  0  0  0  0  0  0  0  0  0  0
   -0.5840   16.5480  -26.5540 H   0  0  0  0  0  0  0  0  0  0  0  0
    2.3353   16.3553  -26.8604 H   0  0  0  0  0  0  0  0  0  0  0  0
    1.2183   15.1668  -26.0865 H   0  0  0  0  0  0  0  0  0  0  0  0
    1.5728   13.8587  -27.8910 H   0  0  0  0  0  0  0  0  0  0  0  0
    0.5618   15.0293  -28.8042 H   0  0  0  0  0  0  0  0  0  0  0  0
    2.3503   15.1960  -28.8042 H   0  0  0  0  0  0  0  0  0  0  0  0
   -1.7592   18.1202  -26.2059 H   0  0  0  0  0  0  0  0  0  0  0  0
   -3.5330   19.8666  -26.2110 H   0  0  0  0  0  0  0  0  0  0  0  0
  1  2  1  0
  2  3  1  0
  3  4  1  0
  4  5  1  0
  5  6  1  0
  6  7  1  0
  7  8  1  0
  8  9  1  0
  9 10  1  0
 10 11  1  0
 11 12  1  0
 12 13  1  0
 13 14  1  0
 14 15  1  0
 15 16  1  0
 16 17  1  0
 17 18  1  0
 18 19  2  0
 19 20  1  0
 20 21  2  0
 21 22  1  0
 22 23  2  0
 22 24  1  0
 24 25  1  0
 25 26  1  0
 21 27  1  0
 27 28  2  0
 28 18  1  0
  1 29  1  0
  1 30  1  0
  1 31  1  0
  2 32  1  0
  2 33  1  0
  3 34  1  0
  3 35  1  0
  4 36  1  0
  4 37  1  0
  5 38  1  0
  5 39  1  0
  6 40  1  0
  6 41  1  0
  7 42  1  0
  7 43  1  0
  8 44  1  0
  8 45  1  0
  9 46  1  0
  9 47  1  0
 10 48  1  0
 10 49  1  0
 11 50  1  0
 11 51  1  0
 12 52  1  0
 12 53  1  0
 13 54  1  0
 13 55  1  0
 14 56  1  0
 14 57  1  0
 15 58  1  0
 15 59  1  0
 16 60  1  0
 16 61  1  0
 17 62  1  0
 19 63  1  0
 20 64  1  0
 24 65  1  0
 25 66  1  0
 25 67  1  0
 26 68  1  0
 26 69  1  0
 26 70  1  0
 27 71  1  0
 28 72  1  0
M  END
>  <UniqueID>  (20) 
19

>  <SMILES>  (20) 
CCCCCCCCCCCCCCCCNc1ccc(C(=O)NCC)cc1

>  <Energy>  (20) 
38.335727843334105

>  <Genealogy>  (20) 
CCCCCCCCCCCCCCCCNc1ccc(C(=O)NCC)cc1 (3D coordinates assigned)
CCCCCCCCCCCCCCCCNc1ccc(C(=O)NCC)cc1 (optimized conformer: 38.335727843334105 kcal/mol)

>  <smiles>  (20) 
CCCCCCCCCCCCCCCCNc1ccc(C(=O)NCC)cc1

>  <score_type>  (20) 
oracle

>  <origin>  (20) 
adg

>  <m_score__min__energy>  (20) 
-8.1400000000000006

>  <m_primary>  (20) 
energy

$$$$
20:0
     RDKit          3D

 27 29  0  0  0  0  0  0  0  0999 V2000
   -7.8960   18.1270  -32.3620 C   0  0  0  0  0  0  0  0  0  0  0  0
   -6.6550   18.6770  -31.9680 C   0  0  0  0  0  0  0  0  0  0  0  0
   -6.5530   20.0380  -31.6280 C   0  0  0  0  0  0  0  0  0  0  0  0
   -7.7120   20.8120  -31.7110 C   0  0  0  0  0  0  0  0  0  0  0  0
   -8.9160   20.2760  -32.0710 C   0  0  0  0  0  0  0  0  0  0  0  0
   -9.0490   18.9330  -32.4110 C   0  0  0  0  0  0  0  0  0  0  0  0
   -9.8870   21.2100  -32.0170 N   0  0  0  0  0  0  0  0  0  0  0  0
   -9.2240   22.3240  -31.6100 C   0  0  0  0  0  0  0  0  0  0  0  0
   -7.9010   22.1070  -31.4200 N   0  0  0  0  0  0  0  0  0  0  0  0
   -6.9350   23.0590  -31.0490 N   0  0  0  0  0  0  0  0  0  0  0  0
   -6.8770   23.6380  -29.7190 C   0  0  0  0  0  0  0  0  0  0  0  0
   -6.0450   24.9070  -29.8590 C   0  0  0  0  0  0  0  0  0  0  0  0
   -5.3540   24.8120  -31.2200 C   0  0  0  0  0  0  0  0  0  0  0  0
   -6.1550   23.7980  -32.0250 C   0  0  0  0  0  0  0  0  0  0  0  0
   -7.9612   17.0626  -32.6320 H   0  0  0  0  0  0  0  0  0  0  0  0
   -5.7622   18.0358  -31.9270 H   0  0  0  0  0  0  0  0  0  0  0  0
   -5.5959   20.4762  -31.3087 H   0  0  0  0  0  0  0  0  0  0  0  0
  -10.0224   18.5154  -32.7080 H   0  0  0  0  0  0  0  0  0  0  0  0
   -9.7101   23.2980  -31.4518 H   0  0  0  0  0  0  0  0  0  0  0  0
   -7.8887   23.8799  -29.3613 H   0  0  0  0  0  0  0  0  0  0  0  0
   -6.4360   22.9410  -28.9911 H   0  0  0  0  0  0  0  0  0  0  0  0
   -6.6933   25.7949  -29.8210 H   0  0  0  0  0  0  0  0  0  0  0  0
   -5.3140   25.0008  -29.0424 H   0  0  0  0  0  0  0  0  0  0  0  0
   -5.3614   25.7908  -31.7220 H   0  0  0  0  0  0  0  0  0  0  0  0
   -4.3021   24.5066  -31.1184 H   0  0  0  0  0  0  0  0  0  0  0  0
   -6.8172   24.3101  -32.7386 H   0  0  0  0  0  0  0  0  0  0  0  0
   -5.5025   23.1356  -32.6128 H   0  0  0  0  0  0  0  0  0  0  0  0
  1  2  2  0
  2  3  1  0
  3  4  2  0
  4  5  1  0
  5  6  2  0
  5  7  1  0
  7  8  2  0
  8  9  1  0
  9 10  1  0
 10 11  1  0
 11 12  1  0
 12 13  1  0
 13 14  1  0
  6  1  1  0
 14 10  1  0
  9  4  1  0
  1 15  1  0
  2 16  1  0
  3 17  1  0
  6 18  1  0
  8 19  1  0
 11 20  1  0
 11 21  1  0
 12 22  1  0
 12 23  1  0
 13 24  1  0
 13 25  1  0
 14 26  1  0
 14 27  1  0
M  END
>  <UniqueID>  (21) 
20

>  <SMILES>  (21) 
c1ccc2c(c1)ncn2N1CCCC1

>  <Energy>  (21) 
71.69183895706651

>  <Genealogy>  (21) 
c1ccc2c(c1)ncn2N1CCCC1 (3D coordinates assigned)
c1ccc2c(c1)ncn2N1CCCC1 (nonaromatic ring conformer: 71.69183895706651 kcal/mol)

>  <smiles>  (21) 
c1ccc2c(c1)ncn2N1CCCC1

>  <score_type>  (21) 
oracle

>  <origin>  (21) 
adg

>  <m_score__min__energy>  (21) 
-5.9100000000000001

>  <m_primary>  (21) 
energy

$$$$
21:0
     RDKit          3D

 23 24  0  0  0  0  0  0  0  0999 V2000
   -6.8297   21.5310  -33.0691 H   0  0  0  0  0  0  0  0  0  0  0  0
   -6.4410   22.2680  -32.3510 C   0  0  0  0  0  0  0  0  0  0  0  0
   -7.3460   23.1220  -31.6560 C   0  0  0  0  0  0  0  0  0  0  0  0
   -8.7330   23.0610  -31.8530 O   0  0  0  0  0  0  0  0  0  0  0  0
   -9.5160   21.8830  -31.6940 C   0  0  0  0  0  0  0  0  0  0  0  0
   -9.6536   21.6760  -30.6224 H   0  0  0  0  0  0  0  0  0  0  0  0
  -10.4978   22.0285  -32.1683 H   0  0  0  0  0  0  0  0  0  0  0  0
   -9.0018   21.0341  -32.1683 H   0  0  0  0  0  0  0  0  0  0  0  0
   -6.8440   24.0660  -30.7380 C   0  0  0  0  0  0  0  0  0  0  0  0
   -7.5208   24.7374  -30.1892 H   0  0  0  0  0  0  0  0  0  0  0  0
   -5.4660   24.1240  -30.5460 C   0  0  0  0  0  0  0  0  0  0  0  0
   -4.6050   23.3050  -31.2120 C   0  0  0  0  0  0  0  0  0  0  0  0
   -3.3340   23.5590  -30.8500 N   0  0  0  0  0  0  0  0  0  0  0  0
   -3.4830   24.5610  -29.9440 C   0  0  0  0  0  0  0  0  0  0  0  0
   -2.4660   25.1020  -29.3440 N   0  0  0  0  0  0  0  0  0  0  0  0
   -1.8980   24.6170  -28.0910 C   0  0  0  0  0  0  0  0  0  0  0  0
   -2.4327   25.0736  -27.2450 H   0  0  0  0  0  0  0  0  0  0  0  0
   -1.9997   23.5228  -28.0415 H   0  0  0  0  0  0  0  0  0  0  0  0
   -0.8333   24.8889  -28.0415 H   0  0  0  0  0  0  0  0  0  0  0  0
   -4.7740   24.9320  -29.7340 N   0  0  0  0  0  0  0  0  0  0  0  0
   -5.1520   25.6680  -29.0950 H   0  0  0  0  0  0  0  0  0  0  0  0
   -5.0550   22.3590  -32.1270 C   0  0  0  0  0  0  0  0  0  0  0  0
   -4.3498   21.7030  -32.6585 H   0  0  0  0  0  0  0  0  0  0  0  0
  1  2  1  0
  2  3  2  0
  3  4  1  0
  4  5  1  0
  5  6  1  0
  5  7  1  0
  5  8  1  0
  3  9  1  0
  9 10  1  0
  9 11  2  0
 11 12  1  0
 12 13  1  0
 13 14  1  0
 14 15  2  0
 15 16  1  0
 16 17  1  0
 16 18  1  0
 16 19  1  0
 14 20  1  0
 20 21  1  0
 12 22  2  0
 22 23  1  0
 22  2  1  0
 20 11  1  0
M  CHG  1  13  -1
M  END
>  <UniqueID>  (22) 
21

>  <SMILES>  (22) 
C/N=c1/[n-]c2ccc(OC)cc2[nH]1

>  <Energy>  (22) 
58.20068443242955

>  <Genealogy>  (22) 
CN=c1[n-]c2ccc(OC)cc2[nH]1 (protonated)
C/N=c1/[n-]c2ccc(OC)cc2[nH]1 (cis-trans isomerization)
C/N=c1/[n-]c2ccc(OC)cc2[nH]1 (3D coordinates assigned)
C/N=c1/[n-]c2ccc(OC)cc2[nH]1 (optimized conformer: 58.20068443242955 kcal/mol)

>  <smiles>  (22) 
CN=c1[nH]c2ccc(OC)cc2[nH]1

>  <score_type>  (22) 
oracle

>  <origin>  (22) 
adg

>  <m_score__min__energy>  (22) 
-6.4500000000000002

>  <m_primary>  (22) 
energy

$$$$
22:0
     RDKit          3D

 57 60  0  0  0  0  0  0  0  0999 V2000
   -2.8280   21.1680  -33.4440 C   0  0  0  0  0  0  0  0  0  0  0  0
   -2.1140   20.4200  -32.3170 C   0  0  0  0  0  0  0  0  0  0  0  0
   -1.2230   21.3280  -31.4390 C   0  0  0  0  0  0  0  0  0  0  0  0
   -1.8690   21.8580  -30.1280 C   0  0  1  0  0  0  0  0  0  0  0  0
   -1.7550   20.8210  -29.0060 C   0  0  0  0  0  0  0  0  0  0  0  0
   -2.7710   20.6550  -28.0380 C   0  0  0  0  0  0  0  0  0  0  0  0
   -2.6500   19.6900  -27.0330 C   0  0  0  0  0  0  0  0  0  0  0  0
   -1.5180   18.8750  -26.9770 C   0  0  0  0  0  0  0  0  0  0  0  0
   -0.5070   19.0200  -27.9260 C   0  0  0  0  0  0  0  0  0  0  0  0
   -0.6220   19.9820  -28.9340 C   0  0  0  0  0  0  0  0  0  0  0  0
   -1.2470   23.1250  -29.7360 N   0  0  0  0  0  0  0  0  0  0  0  0
   -2.2740   24.1010  -29.6410 C   0  0  0  0  0  0  0  0  0  0  0  0
   -2.0380   25.2950  -29.3230 O   0  0  0  0  0  0  0  0  0  0  0  0
   -3.5640   23.6090  -29.9900 N   0  0  0  0  0  0  0  0  0  0  0  0
   -4.8960   24.1520  -29.6670 C   0  0  0  0  0  0  0  0  0  0  0  0
   -5.9080   23.0610  -29.2320 C   0  0  0  0  0  0  0  0  0  0  0  0
   -6.9370   22.7220  -30.3250 C   0  0  0  0  0  0  0  0  0  0  0  0
   -6.3040   22.7920  -31.6530 N   0  0  0  0  0  0  0  0  0  0  0  0
   -7.0550   22.0840  -32.7140 C   0  0  0  0  0  0  0  0  0  0  0  0
   -7.2260   20.6010  -32.4600 C   0  0  0  0  0  0  0  0  0  0  0  0
   -8.4990   20.0660  -32.1910 C   0  0  0  0  0  0  0  0  0  0  0  0
   -8.6560   18.6960  -31.9610 C   0  0  0  0  0  0  0  0  0  0  0  0
   -7.5480   17.8460  -32.0060 C   0  0  0  0  0  0  0  0  0  0  0  0
   -6.2810   18.3650  -32.2880 C   0  0  0  0  0  0  0  0  0  0  0  0
   -6.1200   19.7340  -32.5190 C   0  0  0  0  0  0  0  0  0  0  0  0
   -5.8960   24.1630  -32.0340 C   0  0  0  0  0  0  0  0  0  0  0  0
   -5.4360   25.0070  -30.8280 C   0  0  0  0  0  0  0  0  0  0  0  0
   -3.3140   22.2440  -30.3070 C   0  0  0  0  0  0  0  0  0  0  0  0
   -4.2210   21.4520  -30.6840 O   0  0  0  0  0  0  0  0  0  0  0  0
   -3.5268   21.9001  -33.0130 H   0  0  0  0  0  0  0  0  0  0  0  0
   -2.0857   21.6911  -34.0647 H   0  0  0  0  0  0  0  0  0  0  0  0
   -3.3850   20.4508  -34.0647 H   0  0  0  0  0  0  0  0  0  0  0  0
   -2.8741   19.9521  -31.6740 H   0  0  0  0  0  0  0  0  0  0  0  0
   -1.4526   19.6792  -32.7900 H   0  0  0  0  0  0  0  0  0  0  0  0
   -0.3261   20.7538  -31.1635 H   0  0  0  0  0  0  0  0  0  0  0  0
   -1.0180   22.2200  -32.0491 H   0  0  0  0  0  0  0  0  0  0  0  0
   -3.6671   21.2919  -28.0754 H   0  0  0  0  0  0  0  0  0  0  0  0
   -3.4483   19.5730  -26.2853 H   0  0  0  0  0  0  0  0  0  0  0  0
   -1.4237   18.1184  -26.1841 H   0  0  0  0  0  0  0  0  0  0  0  0
    0.3835   18.3758  -27.8816 H   0  0  0  0  0  0  0  0  0  0  0  0
    0.1798   20.0863  -29.6798 H   0  0  0  0  0  0  0  0  0  0  0  0
   -4.7696   24.8054  -28.7912 H   0  0  0  0  0  0  0  0  0  0  0  0
   -5.3505   22.1467  -28.9803 H   0  0  0  0  0  0  0  0  0  0  0  0
   -6.4642   23.4550  -28.3686 H   0  0  0  0  0  0  0  0  0  0  0  0
   -7.3232   21.7055  -30.1588 H   0  0  0  0  0  0  0  0  0  0  0  0
   -7.7629   23.4472  -30.2804 H   0  0  0  0  0  0  0  0  0  0  0  0
   -8.0533   22.5390  -32.7940 H   0  0  0  0  0  0  0  0  0  0  0  0
   -6.4697   22.1837  -33.6400 H   0  0  0  0  0  0  0  0  0  0  0  0
   -9.3759   20.7295  -32.1615 H   0  0  0  0  0  0  0  0  0  0  0  0
   -9.6537   18.2865  -31.7442 H   0  0  0  0  0  0  0  0  0  0  0  0
   -7.6726   16.7691  -31.8196 H   0  0  0  0  0  0  0  0  0  0  0  0
   -5.4095   17.6950  -32.3281 H   0  0  0  0  0  0  0  0  0  0  0  0
   -5.1221   20.1359  -32.7484 H   0  0  0  0  0  0  0  0  0  0  0  0
   -5.0660   24.0956  -32.7528 H   0  0  0  0  0  0  0  0  0  0  0  0
   -6.7746   24.6606  -32.4704 H   0  0  0  0  0  0  0  0  0  0  0  0
   -4.6399   25.6893  -31.1608 H   0  0  0  0  0  0  0  0  0  0  0  0
   -6.3146   25.5530  -30.4539 H   0  0  0  0  0  0  0  0  0  0  0  0
  1  2  1  0
  2  3  1  0
  4  3  1  6
  4  5  1  0
  5  6  2  0
  6  7  1  0
  7  8  2  0
  8  9  1  0
  9 10  2  0
  4 11  1  0
 11 12  1  0
 12 13  2  0
 12 14  1  0
 14 15  1  0
 15 16  1  0
 16 17  1  0
 17 18  1  0
 18 19  1  0
 19 20  1  0
 20 21  2  0
 21 22  1  0
 22 23  2  0
 23 24  1  0
 24 25  2  0
 18 26  1  0
 26 27  1  0
 14 28  1  0
 28 29  2  0
 28  4  1  0
 10  5  1  0
 27 15  1  0
 25 20  1  0
  1 30  1  0
  1 31  1  0
  1 32  1  0
  2 33  1  0
  2 34  1  0
  3 35  1  0
  3 36  1  0
  6 37  1  0
  7 38  1  0
  8 39  1  0
  9 40  1  0
 10 41  1  0
 15 42  1  0
 16 43  1  0
 16 44  1  0
 17 45  1  0
 17 46  1  0
 19 47  1  0
 19 48  1  0
 21 49  1  0
 22 50  1  0
 23 51  1  0
 24 52  1  0
 25 53  1  0
 26 54  1  0
 26 55  1  0
 27 56  1  0
 27 57  1  0
M  CHG  1  11  -1
M  END
>  <UniqueID>  (23) 
22

>  <SMILES>  (23) 
CCC[C@@]1(c2ccccc2)[N-]C(=O)N(C2CCN(Cc3ccccc3)CC2)C1=O

>  <Energy>  (23) 
90.94282403235775

>  <Genealogy>  (23) 
CCCC1(c2ccccc2)[N-]C(=O)N(C2CCN(Cc3ccccc3)CC2)C1=O (protonated)
CCC[C@@]1(c2ccccc2)[N-]C(=O)N(C2CCN(Cc3ccccc3)CC2)C1=O (chirality)
CCC[C@@]1(c2ccccc2)[N-]C(=O)N(C2CCN(Cc3ccccc3)CC2)C1=O (3D coordinates assigned)
CCC[C@@]1(c2ccccc2)[N-]C(=O)N(C2CCN(Cc3ccccc3)CC2)C1=O (nonaromatic ring conformer: 90.94282403235775 kcal/mol)

>  <smiles>  (23) 
CCCC1(c2ccccc2)NC(=O)N(C2CCN(Cc3ccccc3)CC2)C1=O

>  <score_type>  (23) 
oracle

>  <origin>  (23) 
adg

>  <m_score__min__energy>  (23) 
-10.220000000000001

>  <m_primary>  (23) 
energy

$$$$
23:0
     RDKit          3D

 52 55  0  0  0  0  0  0  0  0999 V2000
   -9.0610   19.3740  -31.9860 C   0  0  0  0  0  0  0  0  0  0  0  0
   -7.6290   19.3070  -32.4270 C   0  0  0  0  0  0  0  0  0  0  0  0
   -7.2390   18.2790  -33.0460 O   0  0  0  0  0  0  0  0  0  0  0  0
   -6.7060   20.3880  -32.1750 N   0  0  0  0  0  0  0  0  0  0  0  0
   -5.2400   20.0650  -32.1420 C   0  0  0  0  0  0  0  0  0  0  0  0
   -4.4580   21.3510  -31.8160 C   0  0  2  0  0  0  0  0  0  0  0  0
   -3.7000   22.0270  -30.7030 C   0  0  0  0  0  0  0  0  0  0  0  0
   -4.2570   23.1530  -30.1560 C   0  0  0  0  0  0  0  0  0  0  0  0
   -3.5750   23.8060  -29.0090 C   0  0  0  0  0  0  0  0  0  0  0  0
   -4.2600   24.0340  -27.8060 C   0  0  0  0  0  0  0  0  0  0  0  0
   -3.6170   24.6480  -26.7290 C   0  0  0  0  0  0  0  0  0  0  0  0
   -2.2720   25.0520  -26.8300 C   0  0  0  0  0  0  0  0  0  0  0  0
   -1.5690   25.7040  -25.6900 C   0  0  0  0  0  0  0  0  0  0  0  0
   -1.4360   27.0140  -25.5290 C   0  0  0  0  0  0  0  0  0  0  0  0
   -0.6740   27.3670  -24.3080 C   0  0  0  0  0  0  0  0  0  0  0  0
   -0.4430   26.0300  -23.6040 C   0  0  0  0  0  0  0  0  0  0  0  0
   -0.8870   24.9530  -24.5950 C   0  0  0  0  0  0  0  0  0  0  0  0
   -1.5860   24.8070  -28.0350 C   0  0  0  0  0  0  0  0  0  0  0  0
   -2.2300   24.1930  -29.1120 C   0  0  0  0  0  0  0  0  0  0  0  0
   -5.6830   23.6070  -30.6230 C   0  0  1  0  0  0  0  0  0  0  0  0
   -5.7270   25.1470  -30.7560 C   0  0  0  0  0  0  0  0  0  0  0  0
   -4.4330   25.6760  -30.8600 O   0  0  0  0  0  0  0  0  0  0  0  0
   -6.1610   22.9330  -31.9960 C   0  0  2  0  0  0  0  0  0  0  0  0
   -7.2280   21.7660  -31.8600 C   0  0  0  0  0  0  0  0  0  0  0  0
   -4.9910   22.4100  -32.6870 N   0  0  0  0  0  0  0  0  0  0  0  0
   -9.1065   19.3761  -30.8869 H   0  0  0  0  0  0  0  0  0  0  0  0
   -9.5214   20.2947  -32.3738 H   0  0  0  0  0  0  0  0  0  0  0  0
   -9.6054   18.5003  -32.3738 H   0  0  0  0  0  0  0  0  0  0  0  0
   -4.9241   19.6782  -33.1221 H   0  0  0  0  0  0  0  0  0  0  0  0
   -5.0417   19.3014  -31.3754 H   0  0  0  0  0  0  0  0  0  0  0  0
   -3.6507   20.6176  -31.6729 H   0  0  0  0  0  0  0  0  0  0  0  0
   -2.7380   21.6324  -30.3440 H   0  0  0  0  0  0  0  0  0  0  0  0
   -5.3119   23.7267  -27.7103 H   0  0  0  0  0  0  0  0  0  0  0  0
   -4.1672   24.8178  -25.7918 H   0  0  0  0  0  0  0  0  0  0  0  0
   -1.8472   27.7583  -26.2268 H   0  0  0  0  0  0  0  0  0  0  0  0
    0.2841   27.8395  -24.5702 H   0  0  0  0  0  0  0  0  0  0  0  0
   -1.2099   28.0880  -23.6732 H   0  0  0  0  0  0  0  0  0  0  0  0
    0.6217   25.9068  -23.3564 H   0  0  0  0  0  0  0  0  0  0  0  0
   -1.0052   25.9676  -22.6606 H   0  0  0  0  0  0  0  0  0  0  0  0
   -0.0181   24.4026  -24.9848 H   0  0  0  0  0  0  0  0  0  0  0  0
   -1.5462   24.2054  -24.1297 H   0  0  0  0  0  0  0  0  0  0  0  0
   -0.5307   25.1025  -28.1294 H   0  0  0  0  0  0  0  0  0  0  0  0
   -1.6793   24.0117  -30.0468 H   0  0  0  0  0  0  0  0  0  0  0  0
   -6.3837   23.2636  -29.8477 H   0  0  0  0  0  0  0  0  0  0  0  0
   -6.2993   25.4148  -31.6565 H   0  0  0  0  0  0  0  0  0  0  0  0
   -6.2068   25.5643  -29.8584 H   0  0  0  0  0  0  0  0  0  0  0  0
   -4.2270   25.7370  -31.8290 H   0  0  0  0  0  0  0  0  0  0  0  0
   -6.6712   23.7335  -32.5518 H   0  0  0  0  0  0  0  0  0  0  0  0
   -8.0594   21.9816  -32.5472 H   0  0  0  0  0  0  0  0  0  0  0  0
   -7.5303   21.7467  -30.8025 H   0  0  0  0  0  0  0  0  0  0  0  0
   -4.2870   23.1700  -32.8510 H   0  0  0  0  0  0  0  0  0  0  0  0
   -5.2550   22.0520  -33.6370 H   0  0  0  0  0  0  0  0  0  0  0  0
  1  2  1  0
  2  3  2  0
  2  4  1  0
  4  5  1  0
  5  6  1  0
  6  7  1  0
  7  8  2  0
  8  9  1  0
  9 10  2  0
 10 11  1  0
 11 12  2  0
 12 13  1  0
 13 14  2  0
 14 15  1  0
 15 16  1  0
 16 17  1  0
 12 18  1  0
 18 19  2  0
  8 20  1  0
 20 21  1  0
 21 22  1  0
 20 23  1  0
 23 24  1  0
 23 25  1  0
 24  4  1  0
 25  6  1  0
 19  9  1  0
 17 13  1  0
  1 26  1  0
  1 27  1  0
  1 28  1  0
  5 29  1  0
  5 30  1  0
  6 31  1  6
  7 32  1  0
 10 33  1  0
 11 34  1  0
 14 35  1  0
 15 36  1  0
 15 37  1  0
 16 38  1  0
 16 39  1  0
 17 40  1  0
 17 41  1  0
 18 42  1  0
 19 43  1  0
 20 44  1  1
 21 45  1  0
 21 46  1  0
 22 47  1  0
 23 48  1  6
 24 49  1  0
 24 50  1  0
 25 51  1  0
 25 52  1  0
M  CHG  1  25   1
M  END
>  <UniqueID>  (24) 
23

>  <SMILES>  (24) 
CC(=O)N1CC2[NH2+][C@H](C=C(c3ccc(C4=CCCC4)cc3)[C@H]2CO)C1

>  <Energy>  (24) 
176.49034327189196

>  <Genealogy>  (24) 
CC(=O)N1CC2C=C(c3ccc(C4=CCCC4)cc3)C(CO)C(C1)[NH2+]2 (protonated)
CC(=O)N1CC2[NH2+][C@H](C=C(c3ccc(C4=CCCC4)cc3)[C@H]2CO)C1 (chirality)
CC(=O)N1CC2[NH2+][C@H](C=C(c3ccc(C4=CCCC4)cc3)[C@H]2CO)C1 (3D coordinates assigned)
CC(=O)N1CC2[NH2+][C@H](C=C(c3ccc(C4=CCCC4)cc3)[C@H]2CO)C1 (nonaromatic ring conformer: 176.49034327189196 kcal/mol)

>  <smiles>  (24) 
CC(=O)N1CC2C=C(c3ccc(C4=CCCC4)cc3)C(CO)C(C1)N2

>  <score_type>  (24) 
oracle

>  <origin>  (24) 
adg

>  <m_score__min__energy>  (24) 
-9.8900000000000006

>  <m_primary>  (24) 
energy

$$$$
24:0
     RDKit          3D

 27 28  0  0  0  0  0  0  0  0999 V2000
   -2.5520   19.6700  -26.9350 C   0  0  0  0  0  0  0  0  0  0  0  0
   -2.1130   21.0270  -27.4740 C   0  0  0  0  0  0  0  0  0  0  0  0
   -3.0640   21.5160  -28.4700 N   0  0  0  0  0  0  0  0  0  0  0  0
   -3.0060   22.8400  -29.0230 C   0  0  0  0  0  0  0  0  0  0  0  0
   -2.0870   23.8270  -28.7060 C   0  0  0  0  0  0  0  0  0  0  0  0
   -2.4070   24.9360  -29.3370 O   0  0  0  0  0  0  0  0  0  0  0  0
   -3.4920   24.7160  -30.0430 C   0  0  0  0  0  0  0  0  0  0  0  0
   -4.0910   25.6760  -30.8490 O   0  0  0  0  0  0  0  0  0  0  0  0
   -3.9250   23.4110  -29.8890 C   0  0  0  0  0  0  0  0  0  0  0  0
   -5.0890   22.7740  -30.5410 C   0  0  0  0  0  0  0  0  0  0  0  0
   -6.3910   23.0390  -30.0840 C   0  0  0  0  0  0  0  0  0  0  0  0
   -7.4930   22.4450  -30.7070 C   0  0  0  0  0  0  0  0  0  0  0  0
   -7.3050   21.5870  -31.7940 C   0  0  0  0  0  0  0  0  0  0  0  0
   -6.0140   21.3250  -32.2610 C   0  0  0  0  0  0  0  0  0  0  0  0
   -4.9100   21.9170  -31.6410 C   0  0  0  0  0  0  0  0  0  0  0  0
   -2.5447   19.6925  -25.8353 H   0  0  0  0  0  0  0  0  0  0  0  0
   -3.5685   19.4457  -27.2904 H   0  0  0  0  0  0  0  0  0  0  0  0
   -1.8595   18.8928  -27.2904 H   0  0  0  0  0  0  0  0  0  0  0  0
   -2.0580   21.7456  -26.6430 H   0  0  0  0  0  0  0  0  0  0  0  0
   -1.1265   20.9183  -27.9484 H   0  0  0  0  0  0  0  0  0  0  0  0
   -3.8530   20.8870  -28.7420 H   0  0  0  0  0  0  0  0  0  0  0  0
   -1.2258   23.7029  -28.0330 H   0  0  0  0  0  0  0  0  0  0  0  0
   -6.5442   23.7173  -29.2317 H   0  0  0  0  0  0  0  0  0  0  0  0
   -8.5092   22.6533  -30.3410 H   0  0  0  0  0  0  0  0  0  0  0  0
   -8.1724   21.1182  -32.2817 H   0  0  0  0  0  0  0  0  0  0  0  0
   -5.8665   20.6516  -33.1182 H   0  0  0  0  0  0  0  0  0  0  0  0
   -3.8964   21.7114  -32.0155 H   0  0  0  0  0  0  0  0  0  0  0  0
  1  2  1  0
  2  3  1  0
  3  4  1  0
  4  5  2  0
  5  6  1  0
  6  7  1  0
  7  8  1  0
  7  9  2  0
  9 10  1  0
 10 11  2  0
 11 12  1  0
 12 13  2  0
 13 14  1  0
 14 15  2  0
  9  4  1  0
 15 10  1  0
  1 16  1  0
  1 17  1  0
  1 18  1  0
  2 19  1  0
  2 20  1  0
  3 21  1  0
  5 22  1  0
 11 23  1  0
 12 24  1  0
 13 25  1  0
 14 26  1  0
 15 27  1  0
M  CHG  1   8  -1
M  END
>  <UniqueID>  (25) 
24

>  <SMILES>  (25) 
CCNc1coc([O-])c1-c1ccccc1

>  <Energy>  (25) 
56.52323736682245

>  <Genealogy>  (25) 
CCNc1coc([O-])c1-c1ccccc1 (protonated)
CCNc1coc([O-])c1-c1ccccc1 (3D coordinates assigned)
CCNc1coc([O-])c1-c1ccccc1 (optimized conformer: 56.52323736682245 kcal/mol)

>  <smiles>  (25) 
CCNc1coc(O)c1-c1ccccc1

>  <score_type>  (25) 
oracle

>  <origin>  (25) 
adg

>  <m_score__min__energy>  (25) 
-7.8899999999999997

>  <m_primary>  (25) 
energy

$$$$
25:0
     RDKit          3D

 39 41  0  0  0  0  0  0  0  0999 V2000
   -1.5830   25.1980  -28.1610 C   0  0  0  0  0  0  0  0  0  0  0  0
   -2.3410   25.2910  -29.3630 O   0  0  0  0  0  0  0  0  0  0  0  0
   -3.2060   24.2930  -29.8340 C   0  0  0  0  0  0  0  0  0  0  0  0
   -2.7450   23.0260  -30.2400 C   0  0  0  0  0  0  0  0  0  0  0  0
   -3.6430   22.0610  -30.7030 C   0  0  0  0  0  0  0  0  0  0  0  0
   -5.0140   22.3450  -30.7690 C   0  0  0  0  0  0  0  0  0  0  0  0
   -5.9230   21.3830  -31.2340 C   0  0  0  0  0  0  0  0  0  0  0  0
   -7.2910   21.6800  -31.3050 C   0  0  0  0  0  0  0  0  0  0  0  0
   -8.4300   20.4800  -31.9080 S   0  0  0  0  0  0  0  0  0  0  0  0
   -9.0590   19.8040  -30.7230 O   0  0  0  0  0  0  0  0  0  0  0  0
   -9.5190   21.1230  -32.7200 O   0  0  0  0  0  0  0  0  0  0  0  0
   -7.6220   19.2690  -32.8540 N   0  0  0  0  0  0  0  0  0  0  0  0
   -6.8900   18.2610  -32.4700 C   0  0  0  0  0  0  0  0  0  0  0  0
   -6.8980   17.8470  -31.2240 O   0  0  0  0  0  0  0  0  0  0  0  0
   -6.1010   16.8350  -31.0690 N   0  0  0  0  0  0  0  0  0  0  0  0
   -5.5390   16.5560  -32.2590 C   0  0  0  0  0  0  0  0  0  0  0  0
   -4.5840   15.4260  -32.4870 C   0  0  0  0  0  0  0  0  0  0  0  0
   -6.0100   17.4550  -33.2060 C   0  0  0  0  0  0  0  0  0  0  0  0
   -5.6960   17.4180  -34.6730 C   0  0  0  0  0  0  0  0  0  0  0  0
   -7.7530   22.9370  -30.8950 C   0  0  0  0  0  0  0  0  0  0  0  0
   -6.8560   23.9010  -30.4280 C   0  0  0  0  0  0  0  0  0  0  0  0
   -5.4840   23.6170  -30.3630 C   0  0  0  0  0  0  0  0  0  0  0  0
   -4.5750   24.5780  -29.8980 C   0  0  0  0  0  0  0  0  0  0  0  0
   -2.2567   25.2807  -27.2954 H   0  0  0  0  0  0  0  0  0  0  0  0
   -1.0628   24.2293  -28.1296 H   0  0  0  0  0  0  0  0  0  0  0  0
   -0.8440   26.0122  -28.1296 H   0  0  0  0  0  0  0  0  0  0  0  0
   -1.6707   22.7944  -30.1923 H   0  0  0  0  0  0  0  0  0  0  0  0
   -3.2725   21.0741  -31.0171 H   0  0  0  0  0  0  0  0  0  0  0  0
   -5.5608   20.3917  -31.5441 H   0  0  0  0  0  0  0  0  0  0  0  0
   -5.9460   16.3310  -30.1680 H   0  0  0  0  0  0  0  0  0  0  0  0
   -4.2481   15.0286  -31.5179 H   0  0  0  0  0  0  0  0  0  0  0  0
   -5.0870   14.6298  -33.0553 H   0  0  0  0  0  0  0  0  0  0  0  0
   -3.7151   15.7893  -33.0553 H   0  0  0  0  0  0  0  0  0  0  0  0
   -4.6124   17.2903  -34.8129 H   0  0  0  0  0  0  0  0  0  0  0  0
   -6.2278   16.5763  -35.1407 H   0  0  0  0  0  0  0  0  0  0  0  0
   -6.0176   18.3603  -35.1407 H   0  0  0  0  0  0  0  0  0  0  0  0
   -8.8278   23.1665  -30.9409 H   0  0  0  0  0  0  0  0  0  0  0  0
   -7.2272   24.8865  -30.1101 H   0  0  0  0  0  0  0  0  0  0  0  0
   -4.9412   25.5654  -29.5804 H   0  0  0  0  0  0  0  0  0  0  0  0
  1  2  1  0
  2  3  1  0
  3  4  2  0
  4  5  1  0
  5  6  2  0
  6  7  1  0
  7  8  2  0
  8  9  1  0
  9 10  2  0
  9 11  2  0
  9 12  1  0
 12 13  2  3
 13 14  1  0
 14 15  1  0
 15 16  1  0
 16 17  1  0
 16 18  2  0
 18 19  1  0
  8 20  1  0
 20 21  2  0
 21 22  1  0
 22 23  2  0
 23  3  1  0
 22  6  1  0
 18 13  1  0
  1 24  1  0
  1 25  1  0
  1 26  1  0
  4 27  1  0
  5 28  1  0
  7 29  1  0
 15 30  1  0
 17 31  1  0
 17 32  1  0
 17 33  1  0
 19 34  1  0
 19 35  1  0
 19 36  1  0
 20 37  1  0
 21 38  1  0
 23 39  1  0
M  END
>  <UniqueID>  (26) 
25

>  <SMILES>  (26) 
COc1ccc2cc(S(=O)(=O)N=c3o[nH]c(C)c3C)ccc2c1

>  <Energy>  (26) 
83.23646686575337

>  <Genealogy>  (26) 
COc1ccc2cc(S(=O)(=O)N=c3o[nH]c(C)c3C)ccc2c1 (3D coordinates assigned)
COc1ccc2cc(S(=O)(=O)N=c3o[nH]c(C)c3C)ccc2c1 (optimized conformer: 83.23646686575337 kcal/mol)

>  <smiles>  (26) 
COc1ccc2cc(S(=O)(=O)N=c3o[nH]c(C)c3C)ccc2c1

>  <score_type>  (26) 
oracle

>  <origin>  (26) 
adg

>  <m_score__min__energy>  (26) 
-9.4499999999999993

>  <m_primary>  (26) 
energy

$$$$
26:0
     RDKit          3D

 54 57  0  0  0  0  0  0  0  0999 V2000
   -4.2820   21.2250  -30.1900 F   0  0  0  0  0  0  0  0  0  0  0  0
   -4.9000   22.1680  -30.9410 C   0  0  0  0  0  0  0  0  0  0  0  0
   -4.7310   23.5190  -30.5890 C   0  0  0  0  0  0  0  0  0  0  0  0
   -3.8920   23.9120  -29.4850 N   0  0  0  0  0  0  0  0  0  0  0  0
   -4.4760   24.2810  -28.1860 C   0  0  0  0  0  0  0  0  0  0  0  0
   -3.5850   23.8020  -27.0330 C   0  0  0  0  0  0  0  0  0  0  0  0
   -2.1190   24.3080  -27.1470 C   0  0  0  0  0  0  0  0  0  0  0  0
   -1.7960   25.4210  -26.1010 C   0  0  0  0  0  0  0  0  0  0  0  0
   -1.2380   26.7310  -26.7170 C   0  0  0  0  0  0  0  0  0  0  0  0
   -0.4180   27.5530  -25.7040 C   0  0  0  0  0  0  0  0  0  0  0  0
   -0.9030   27.3620  -24.3320 N   0  0  0  0  0  0  0  0  0  0  0  0
   -0.7130   25.9750  -23.8640 C   0  0  0  0  0  0  0  0  0  0  0  0
   -0.8700   24.9160  -24.9790 C   0  0  0  0  0  0  0  0  0  0  0  0
   -1.7180   24.6840  -28.5980 C   0  0  0  0  0  0  0  0  0  0  0  0
   -2.4330   23.8080  -29.6300 C   0  0  0  0  0  0  0  0  0  0  0  0
   -5.3860   24.4770  -31.2920 N   0  0  0  0  0  0  0  0  0  0  0  0
   -6.1800   24.1620  -32.3400 C   0  0  0  0  0  0  0  0  0  0  0  0
   -6.3440   22.8680  -32.7130 N   0  0  0  0  0  0  0  0  0  0  0  0
   -5.7370   21.8340  -32.0430 C   0  0  0  0  0  0  0  0  0  0  0  0
   -5.9550   20.4490  -32.4750 N   0  0  0  0  0  0  0  0  0  0  0  0
   -7.1940   19.7340  -32.1030 C   0  0  0  0  0  0  0  0  0  0  0  0
   -7.2910   18.3250  -32.6900 C   0  0  0  0  0  0  0  0  0  0  0  0
   -6.0390   17.6840  -32.6560 O   0  0  0  0  0  0  0  0  0  0  0  0
   -5.2010   18.3100  -33.5960 C   0  0  0  0  0  0  0  0  0  0  0  0
   -4.8580   19.7430  -33.1740 C   0  0  0  0  0  0  0  0  0  0  0  0
   -4.5767   25.3751  -28.1335 H   0  0  0  0  0  0  0  0  0  0  0  0
   -5.4615   23.8011  -28.0932 H   0  0  0  0  0  0  0  0  0  0  0  0
   -4.0095   24.1681  -26.0866 H   0  0  0  0  0  0  0  0  0  0  0  0
   -3.5577   22.7031  -27.0731 H   0  0  0  0  0  0  0  0  0  0  0  0
   -1.4733   23.4561  -26.8876 H   0  0  0  0  0  0  0  0  0  0  0  0
   -2.7723   25.6754  -25.6628 H   0  0  0  0  0  0  0  0  0  0  0  0
   -0.5915   26.4735  -27.5689 H   0  0  0  0  0  0  0  0  0  0  0  0
   -2.0945   27.3450  -27.0325 H   0  0  0  0  0  0  0  0  0  0  0  0
    0.6344   27.2375  -25.7574 H   0  0  0  0  0  0  0  0  0  0  0  0
   -0.5234   28.6175  -25.9603 H   0  0  0  0  0  0  0  0  0  0  0  0
   -1.9230   27.6010  -24.3000 H   0  0  0  0  0  0  0  0  0  0  0  0
    0.2986   25.8867  -23.4411 H   0  0  0  0  0  0  0  0  0  0  0  0
   -1.4980   25.7766  -23.1194 H   0  0  0  0  0  0  0  0  0  0  0  0
    0.1198   24.6931  -25.4039 H   0  0  0  0  0  0  0  0  0  0  0  0
   -1.3165   24.0117  -24.5398 H   0  0  0  0  0  0  0  0  0  0  0  0
   -1.9827   25.7362  -28.7794 H   0  0  0  0  0  0  0  0  0  0  0  0
   -0.6349   24.5249  -28.7058 H   0  0  0  0  0  0  0  0  0  0  0  0
   -2.1472   24.1356  -30.6404 H   0  0  0  0  0  0  0  0  0  0  0  0
   -2.1373   22.7610  -29.4677 H   0  0  0  0  0  0  0  0  0  0  0  0
   -6.6963   24.9600  -32.8937 H   0  0  0  0  0  0  0  0  0  0  0  0
   -6.9620   22.7060  -33.5350 H   0  0  0  0  0  0  0  0  0  0  0  0
   -7.2345   19.6569  -31.0065 H   0  0  0  0  0  0  0  0  0  0  0  0
   -8.0345   20.3121  -32.5146 H   0  0  0  0  0  0  0  0  0  0  0  0
   -8.0129   17.7383  -32.1029 H   0  0  0  0  0  0  0  0  0  0  0  0
   -7.6211   18.4002  -33.7366 H   0  0  0  0  0  0  0  0  0  0  0  0
   -4.2700   17.7312  -33.6866 H   0  0  0  0  0  0  0  0  0  0  0  0
   -5.7312   18.3506  -34.5589 H   0  0  0  0  0  0  0  0  0  0  0  0
   -3.9882   19.7057  -32.5016 H   0  0  0  0  0  0  0  0  0  0  0  0
   -4.6587   20.3054  -34.0981 H   0  0  0  0  0  0  0  0  0  0  0  0
  1  2  1  0
  2  3  2  0
  3  4  1  0
  4  5  1  0
  5  6  1  0
  6  7  1  0
  7  8  1  0
  8  9  1  0
  9 10  1  0
 10 11  1  0
 11 12  1  0
 12 13  1  0
  7 14  1  0
 14 15  1  0
  3 16  1  0
 16 17  2  0
 17 18  1  0
 18 19  2  0
 19 20  1  0
 20 21  1  0
 21 22  1  0
 22 23  1  0
 23 24  1  0
 24 25  1  0
 19  2  1  0
 25 20  1  0
 15  4  1  0
 13  8  1  0
  5 26  1  0
  5 27  1  0
  6 28  1  0
  6 29  1  0
  7 30  1  0
  8 31  1  0
  9 32  1  0
  9 33  1  0
 10 34  1  0
 10 35  1  0
 11 36  1  0
 12 37  1  0
 12 38  1  0
 13 39  1  0
 13 40  1  0
 14 41  1  0
 14 42  1  0
 15 43  1  0
 15 44  1  0
 17 45  1  0
 18 46  1  0
 21 47  1  0
 21 48  1  0
 22 49  1  0
 22 50  1  0
 24 51  1  0
 24 52  1  0
 25 53  1  0
 25 54  1  0
M  CHG  1  18   1
M  END
>  <UniqueID>  (27) 
26

>  <SMILES>  (27) 
Fc1c(N2CCC(C3CCNCC3)CC2)nc[nH+]c1N1CCOCC1

>  <Energy>  (27) 
78.49098104335961

>  <Genealogy>  (27) 
Fc1c(N2CCC(C3CCNCC3)CC2)nc[nH+]c1N1CCOCC1 (protonated)
Fc1c(N2CCC(C3CCNCC3)CC2)nc[nH+]c1N1CCOCC1 (3D coordinates assigned)
Fc1c(N2CCC(C3CCNCC3)CC2)nc[nH+]c1N1CCOCC1 (nonaromatic ring conformer: 78.49098104335961 kcal/mol)

>  <smiles>  (27) 
Fc1c(N2CCOCC2)ncnc1N1CCC(C2CCNCC2)CC1

>  <score_type>  (27) 
oracle

>  <origin>  (27) 
adg

>  <m_score__min__energy>  (27) 
-7.75

>  <m_primary>  (27) 
energy

$$$$
27:0
     RDKit          3D

 40 41  0  0  0  0  0  0  0  0999 V2000
   -2.6910   25.2960  -26.2340 C   0  0  0  0  0  0  0  0  0  0  0  0
   -4.1680   24.9060  -26.3340 C   0  0  0  0  0  0  0  0  0  0  0  0
   -4.6130   24.7370  -27.7300 N   0  0  0  0  0  0  0  0  0  0  0  0
   -3.6870   23.9010  -28.5110 C   0  0  0  0  0  0  0  0  0  0  0  0
   -4.2900   23.5570  -29.8460 C   0  0  0  0  0  0  0  0  0  0  0  0
   -5.0520   24.3790  -30.6610 C   0  0  0  0  0  0  0  0  0  0  0  0
   -5.3770   25.8160  -30.4170 C   0  0  0  0  0  0  0  0  0  0  0  0
   -5.4140   23.7080  -31.7710 N   0  0  0  0  0  0  0  0  0  0  0  0
   -4.9370   22.4760  -31.6720 N   0  0  0  0  0  0  0  0  0  0  0  0
   -5.0800   21.4810  -32.7350 C   0  0  0  0  0  0  0  0  0  0  0  0
   -6.3680   20.7220  -32.5680 C   0  0  0  0  0  0  0  0  0  0  0  0
   -6.4130   19.3450  -32.8430 C   0  0  0  0  0  0  0  0  0  0  0  0
   -7.6010   18.6300  -32.6680 C   0  0  0  0  0  0  0  0  0  0  0  0
   -8.7510   19.2820  -32.2150 C   0  0  0  0  0  0  0  0  0  0  0  0
   -8.7140   20.6520  -31.9350 C   0  0  0  0  0  0  0  0  0  0  0  0
   -7.5270   21.3700  -32.1090 C   0  0  0  0  0  0  0  0  0  0  0  0
   -4.2600   22.3400  -30.5080 C   0  0  0  0  0  0  0  0  0  0  0  0
   -3.5070   21.1150  -30.0810 C   0  0  0  0  0  0  0  0  0  0  0  0
   -2.4027   25.3721  -25.1752 H   0  0  0  0  0  0  0  0  0  0  0  0
   -2.0752   24.5297  -26.7275 H   0  0  0  0  0  0  0  0  0  0  0  0
   -2.5338   26.2664  -26.7275 H   0  0  0  0  0  0  0  0  0  0  0  0
   -4.3197   23.9576  -25.7979 H   0  0  0  0  0  0  0  0  0  0  0  0
   -4.7600   25.7200  -25.8901 H   0  0  0  0  0  0  0  0  0  0  0  0
   -4.7200   25.6730  -28.1860 H   0  0  0  0  0  0  0  0  0  0  0  0
   -5.5520   24.2750  -27.7130 H   0  0  0  0  0  0  0  0  0  0  0  0
   -2.7474   24.4508  -28.6685 H   0  0  0  0  0  0  0  0  0  0  0  0
   -3.4923   22.9708  -27.9570 H   0  0  0  0  0  0  0  0  0  0  0  0
   -5.4194   26.0035  -29.3339 H   0  0  0  0  0  0  0  0  0  0  0  0
   -4.5995   26.4496  -30.8687 H   0  0  0  0  0  0  0  0  0  0  0  0
   -6.3515   26.0533  -30.8687 H   0  0  0  0  0  0  0  0  0  0  0  0
   -5.0820   21.9895  -33.7104 H   0  0  0  0  0  0  0  0  0  0  0  0
   -4.2383   20.7749  -32.6806 H   0  0  0  0  0  0  0  0  0  0  0  0
   -5.5094   18.8275  -33.1975 H   0  0  0  0  0  0  0  0  0  0  0  0
   -7.6309   17.5525  -32.8872 H   0  0  0  0  0  0  0  0  0  0  0  0
   -9.6854   18.7178  -32.0786 H   0  0  0  0  0  0  0  0  0  0  0  0
   -9.6193   21.1647  -31.5777 H   0  0  0  0  0  0  0  0  0  0  0  0
   -7.5004   22.4467  -31.8856 H   0  0  0  0  0  0  0  0  0  0  0  0
   -3.4775   21.0671  -28.9824 H   0  0  0  0  0  0  0  0  0  0  0  0
   -4.0108   20.2195  -30.4737 H   0  0  0  0  0  0  0  0  0  0  0  0
   -2.4805   21.1601  -30.4737 H   0  0  0  0  0  0  0  0  0  0  0  0
  1  2  1  0
  2  3  1  0
  3  4  1  0
  4  5  1  0
  5  6  1  0
  6  7  1  0
  6  8  2  0
  8  9  1  0
  9 10  1  0
 10 11  1  0
 11 12  2  0
 12 13  1  0
 13 14  2  0
 14 15  1  0
 15 16  2  0
  9 17  1  0
 17 18  1  0
 17  5  2  0
 16 11  1  0
  1 19  1  0
  1 20  1  0
  1 21  1  0
  2 22  1  0
  2 23  1  0
  3 24  1  0
  3 25  1  0
  4 26  1  0
  4 27  1  0
  7 28  1  0
  7 29  1  0
  7 30  1  0
 10 31  1  0
 10 32  1  0
 12 33  1  0
 13 34  1  0
 14 35  1  0
 15 36  1  0
 16 37  1  0
 18 38  1  0
 18 39  1  0
 18 40  1  0
M  CHG  1   3   1
M  END
>  <UniqueID>  (28) 
27

>  <SMILES>  (28) 
CC[NH2+]Cc1c(C)nn(Cc2ccccc2)c1C

>  <Energy>  (28) 
63.07250493461615

>  <Genealogy>  (28) 
CC[NH2+]Cc1c(C)nn(Cc2ccccc2)c1C (protonated)
CC[NH2+]Cc1c(C)nn(Cc2ccccc2)c1C (3D coordinates assigned)
CC[NH2+]Cc1c(C)nn(Cc2ccccc2)c1C (optimized conformer: 63.07250493461615 kcal/mol)

>  <smiles>  (28) 
CCNCc1c(C)nn(Cc2ccccc2)c1C

>  <score_type>  (28) 
oracle

>  <origin>  (28) 
adg

>  <m_score__min__energy>  (28) 
-6.6600000000000001

>  <m_primary>  (28) 
energy

$$$$
28:0
     RDKit          3D

 44 47  0  0  0  0  0  0  0  0999 V2000
   -1.6350   25.7110  -28.6250 O   0  0  0  0  0  0  0  0  0  0  0  0
   -2.7160   24.6730  -28.7430 S   0  0  0  0  0  0  0  0  0  0  0  0
   -3.7380   24.9210  -27.6700 O   0  0  0  0  0  0  0  0  0  0  0  0
   -3.4760   24.8120  -30.2950 N   0  0  0  0  0  0  0  0  0  0  0  0
   -4.4500   23.9030  -30.8240 C   0  0  0  0  0  0  0  0  0  0  0  0
   -4.1480   22.5590  -31.1030 C   0  0  0  0  0  0  0  0  0  0  0  0
   -5.1290   21.7110  -31.6270 C   0  0  0  0  0  0  0  0  0  0  0  0
   -6.4220   22.1850  -31.8730 C   0  0  0  0  0  0  0  0  0  0  0  0
   -7.3680   21.3050  -32.4220 O   0  0  0  0  0  0  0  0  0  0  0  0
   -7.1420   19.9580  -32.7400 C   0  0  0  0  0  0  0  0  0  0  0  0
   -7.6800   18.9100  -31.9720 C   0  0  0  0  0  0  0  0  0  0  0  0
   -7.4290   17.5780  -32.3230 C   0  0  0  0  0  0  0  0  0  0  0  0
   -6.6270   17.2840  -33.4290 C   0  0  0  0  0  0  0  0  0  0  0  0
   -6.3160   15.6140  -33.8700 Cl  0  0  0  0  0  0  0  0  0  0  0  0
   -6.0640   18.3220  -34.1780 C   0  0  0  0  0  0  0  0  0  0  0  0
   -6.3160   19.6540  -33.8300 C   0  0  0  0  0  0  0  0  0  0  0  0
   -6.7190   23.5340  -31.6120 C   0  0  0  0  0  0  0  0  0  0  0  0
   -5.7400   24.3810  -31.0850 C   0  0  0  0  0  0  0  0  0  0  0  0
   -2.0610   23.0510  -28.5410 C   0  0  0  0  0  0  0  0  0  0  0  0
   -2.4060   22.2730  -27.4290 C   0  0  0  0  0  0  0  0  0  0  0  0
   -1.8780   20.9870  -27.2780 C   0  0  0  0  0  0  0  0  0  0  0  0
   -1.0010   20.4550  -28.2420 C   0  0  0  0  0  0  0  0  0  0  0  0
   -0.4740   19.1220  -28.0780 N   0  0  0  0  0  0  0  0  0  0  0  0
   -0.7750   18.2240  -27.1170 C   0  0  0  0  0  0  0  0  0  0  0  0
   -0.0660   17.0970  -27.2900 N   0  0  0  0  0  0  0  0  0  0  0  0
    0.6740   17.3450  -28.3870 C   0  0  0  0  0  0  0  0  0  0  0  0
    0.4340   18.5770  -28.8750 N   0  0  0  0  0  0  0  0  0  0  0  0
   -0.6560   21.2480  -29.3540 C   0  0  0  0  0  0  0  0  0  0  0  0
   -1.1830   22.5340  -29.4990 C   0  0  0  0  0  0  0  0  0  0  0  0
   -3.1366   22.1727  -30.9086 H   0  0  0  0  0  0  0  0  0  0  0  0
   -4.8817   20.6621  -31.8476 H   0  0  0  0  0  0  0  0  0  0  0  0
   -8.3002   19.1375  -31.0924 H   0  0  0  0  0  0  0  0  0  0  0  0
   -7.8637   16.7618  -31.7273 H   0  0  0  0  0  0  0  0  0  0  0  0
   -5.4226   18.0915  -35.0414 H   0  0  0  0  0  0  0  0  0  0  0  0
   -5.8627   20.4672  -34.4159 H   0  0  0  0  0  0  0  0  0  0  0  0
   -7.7255   23.9244  -31.8233 H   0  0  0  0  0  0  0  0  0  0  0  0
   -5.9851   25.4323  -30.8734 H   0  0  0  0  0  0  0  0  0  0  0  0
   -3.0949   22.6750  -26.6715 H   0  0  0  0  0  0  0  0  0  0  0  0
   -2.1504   20.3858  -26.3981 H   0  0  0  0  0  0  0  0  0  0  0  0
   -1.4992   18.3916  -26.3061 H   0  0  0  0  0  0  0  0  0  0  0  0
   -0.0780   16.2330  -26.7040 H   0  0  0  0  0  0  0  0  0  0  0  0
    1.3849   16.6314  -28.8289 H   0  0  0  0  0  0  0  0  0  0  0  0
    0.0335   20.8518  -30.1140 H   0  0  0  0  0  0  0  0  0  0  0  0
   -0.9056   23.1433  -30.3718 H   0  0  0  0  0  0  0  0  0  0  0  0
  1  2  2  0
  2  3  2  0
  2  4  1  0
  4  5  1  0
  5  6  2  0
  6  7  1  0
  7  8  2  0
  8  9  1  0
  9 10  1  0
 10 11  2  0
 11 12  1  0
 12 13  2  0
 13 14  1  0
 13 15  1  0
 15 16  2  0
  8 17  1  0
 17 18  2  0
  2 19  1  0
 19 20  2  0
 20 21  1  0
 21 22  2  0
 22 23  1  0
 23 24  1  0
 24 25  2  0
 25 26  1  0
 26 27  2  0
 22 28  1  0
 28 29  2  0
 18  5  1  0
 29 19  1  0
 16 10  1  0
 27 23  1  0
  6 30  1  0
  7 31  1  0
 11 32  1  0
 12 33  1  0
 15 34  1  0
 16 35  1  0
 17 36  1  0
 18 37  1  0
 20 38  1  0
 21 39  1  0
 24 40  1  0
 25 41  1  0
 26 42  1  0
 28 43  1  0
 29 44  1  0
M  CHG  2   4  -1  25   1
M  END
>  <UniqueID>  (29) 
28

>  <SMILES>  (29) 
O=S(=O)([N-]c1ccc(Oc2ccc(Cl)cc2)cc1)c1ccc(-n2c[nH+]cn2)cc1

>  <Energy>  (29) 
95.13041035109345

>  <Genealogy>  (29) 
O=S(=O)([N-]c1ccc(Oc2ccc(Cl)cc2)cc1)c1ccc(-n2c[nH+]cn2)cc1 (protonated)
O=S(=O)([N-]c1ccc(Oc2ccc(Cl)cc2)cc1)c1ccc(-n2c[nH+]cn2)cc1 (3D coordinates assigned)
O=S(=O)([N-]c1ccc(Oc2ccc(Cl)cc2)cc1)c1ccc(-n2c[nH+]cn2)cc1 (optimized conformer: 95.13041035109345 kcal/mol)

>  <smiles>  (29) 
O=S(=O)(Nc1ccc(Oc2ccc(Cl)cc2)cc1)c1ccc(-n2cncn2)cc1

>  <score_type>  (29) 
oracle

>  <origin>  (29) 
adg

>  <m_score__min__energy>  (29) 
-10.6

>  <m_primary>  (29) 
energy

$$$$
29:0
     RDKit          3D

 44 45  0  0  0  0  0  0  0  0999 V2000
   -8.7320   18.5780  -31.2930 C   0  0  0  0  0  0  0  0  0  0  0  0
   -8.0840   18.8640  -32.6530 C   0  0  0  0  0  0  0  0  0  0  0  0
   -6.7320   18.2640  -32.7730 N   0  0  0  0  0  0  0  0  0  0  0  0
   -6.7740   16.9610  -33.4850 C   0  0  0  0  0  0  0  0  0  0  0  0
   -5.3710   16.3700  -33.6800 C   0  0  0  0  0  0  0  0  0  0  0  0
   -5.8580   19.1900  -33.4680 C   0  0  0  0  0  0  0  0  0  0  0  0
   -5.9070   19.2810  -34.7270 O   0  0  0  0  0  0  0  0  0  0  0  0
   -4.9040   20.0420  -32.7270 C   0  0  0  0  0  0  0  0  0  0  0  0
   -4.8310   19.9710  -31.3300 C   0  0  0  0  0  0  0  0  0  0  0  0
   -3.9280   20.7760  -30.6350 C   0  0  0  0  0  0  0  0  0  0  0  0
   -3.0860   21.6350  -31.3470 C   0  0  0  0  0  0  0  0  0  0  0  0
   -1.9090   22.6710  -30.4800 S   0  0  0  0  0  0  0  0  0  0  0  0
   -3.1860   23.4690  -29.4520 C   0  0  0  0  0  0  0  0  0  0  0  0
   -4.1680   24.1910  -30.3290 C   0  0  0  0  0  0  0  0  0  0  0  0
   -3.8500   25.3340  -30.7590 O   0  0  0  0  0  0  0  0  0  0  0  0
   -5.4890   23.6150  -30.6900 C   0  0  0  0  0  0  0  0  0  0  0  0
   -5.9500   23.7030  -32.0180 C   0  0  0  0  0  0  0  0  0  0  0  0
   -7.1810   23.1510  -32.3840 C   0  0  0  0  0  0  0  0  0  0  0  0
   -7.9730   22.5120  -31.4250 C   0  0  0  0  0  0  0  0  0  0  0  0
   -9.5150   21.8110  -31.8870 Cl  0  0  0  0  0  0  0  0  0  0  0  0
   -7.5340   22.4290  -30.1010 C   0  0  0  0  0  0  0  0  0  0  0  0
   -6.3040   22.9790  -29.7320 C   0  0  0  0  0  0  0  0  0  0  0  0
   -3.1630   21.6900  -32.7030 N   0  0  0  0  0  0  0  0  0  0  0  0
   -4.0460   20.9280  -33.4010 C   0  0  0  0  0  0  0  0  0  0  0  0
   -8.0454   18.8810  -30.4887 H   0  0  0  0  0  0  0  0  0  0  0  0
   -9.6704   19.1456  -31.2073 H   0  0  0  0  0  0  0  0  0  0  0  0
   -8.9450   17.5022  -31.2073 H   0  0  0  0  0  0  0  0  0  0  0  0
   -8.7259   18.4495  -33.4443 H   0  0  0  0  0  0  0  0  0  0  0  0
   -7.9768   19.9544  -32.7507 H   0  0  0  0  0  0  0  0  0  0  0  0
   -6.3510   18.0910  -31.8110 H   0  0  0  0  0  0  0  0  0  0  0  0
   -7.3792   16.2544  -32.8981 H   0  0  0  0  0  0  0  0  0  0  0  0
   -7.2141   17.1296  -34.4789 H   0  0  0  0  0  0  0  0  0  0  0  0
   -4.9144   16.1777  -32.6979 H   0  0  0  0  0  0  0  0  0  0  0  0
   -5.4452   15.4267  -34.2409 H   0  0  0  0  0  0  0  0  0  0  0  0
   -4.7479   17.0821  -34.2409 H   0  0  0  0  0  0  0  0  0  0  0  0
   -5.4865   19.2796  -30.7802 H   0  0  0  0  0  0  0  0  0  0  0  0
   -3.8791   20.7351  -29.5368 H   0  0  0  0  0  0  0  0  0  0  0  0
   -3.7145   22.7026  -28.8661 H   0  0  0  0  0  0  0  0  0  0  0  0
   -2.7071   24.1901  -28.7732 H   0  0  0  0  0  0  0  0  0  0  0  0
   -5.3349   24.2114  -32.7751 H   0  0  0  0  0  0  0  0  0  0  0  0
   -7.5265   23.2193  -33.4261 H   0  0  0  0  0  0  0  0  0  0  0  0
   -8.1591   21.9288  -29.3466 H   0  0  0  0  0  0  0  0  0  0  0  0
   -5.9691   22.9152  -28.6862 H   0  0  0  0  0  0  0  0  0  0  0  0
   -4.0892   21.0050  -34.4974 H   0  0  0  0  0  0  0  0  0  0  0  0
  1  2  1  0
  2  3  1  0
  3  4  1  0
  4  5  1  0
  3  6  1  0
  6  7  2  0
  6  8  1  0
  8  9  2  0
  9 10  1  0
 10 11  2  0
 11 12  1  0
 12 13  1  0
 13 14  1  0
 14 15  2  0
 14 16  1  0
 16 17  2  0
 17 18  1  0
 18 19  2  0
 19 20  1  0
 19 21  1  0
 21 22  2  0
 11 23  1  0
 23 24  2  0
 24  8  1  0
 22 16  1  0
  1 25  1  0
  1 26  1  0
  1 27  1  0
  2 28  1  0
  2 29  1  0
  3 30  1  0
  4 31  1  0
  4 32  1  0
  5 33  1  0
  5 34  1  0
  5 35  1  0
  9 36  1  0
 10 37  1  0
 13 38  1  0
 13 39  1  0
 17 40  1  0
 18 41  1  0
 21 42  1  0
 22 43  1  0
 24 44  1  0
M  CHG  1   3   1
M  END
>  <UniqueID>  (30) 
29

>  <SMILES>  (30) 
CC[NH+](CC)C(=O)c1ccc(SCC(=O)c2ccc(Cl)cc2)nc1

>  <Energy>  (30) 
45.526254752607514

>  <Genealogy>  (30) 
CC[NH+](CC)C(=O)c1ccc(SCC(=O)c2ccc(Cl)cc2)nc1 (protonated)
CC[NH+](CC)C(=O)c1ccc(SCC(=O)c2ccc(Cl)cc2)nc1 (3D coordinates assigned)
CC[NH+](CC)C(=O)c1ccc(SCC(=O)c2ccc(Cl)cc2)nc1 (optimized conformer: 45.526254752607514 kcal/mol)

>  <smiles>  (30) 
CCN(CC)C(=O)c1ccc(SCC(=O)c2ccc(Cl)cc2)nc1

>  <score_type>  (30) 
oracle

>  <origin>  (30) 
adg

>  <m_score__min__energy>  (30) 
-8.6600000000000001

>  <m_primary>  (30) 
energy

$$$$
30:0
     RDKit          3D

 37 39  0  0  0  0  0  0  0  0999 V2000
   -5.2450   23.2330  -32.0820 O   0  0  0  0  0  0  0  0  0  0  0  0
   -5.3800   23.1770  -30.8290 C   0  0  0  0  0  0  0  0  0  0  0  0
   -6.5920   22.6580  -30.2570 N   0  0  0  0  0  0  0  0  0  0  0  0
   -7.5380   21.8540  -30.9820 C   0  0  0  0  0  0  0  0  0  0  0  0
   -8.7520   22.4230  -31.3930 C   0  0  0  0  0  0  0  0  0  0  0  0
   -9.7010   21.6520  -32.0670 C   0  0  0  0  0  0  0  0  0  0  0  0
   -9.4510   20.3040  -32.3340 C   0  0  0  0  0  0  0  0  0  0  0  0
   -8.2400   19.7130  -31.9350 C   0  0  0  0  0  0  0  0  0  0  0  0
   -7.9960   18.2430  -32.1620 C   0  0  0  0  0  0  0  0  0  0  0  0
   -7.5710   18.0470  -33.4620 F   0  0  0  0  0  0  0  0  0  0  0  0
   -9.1570   17.5190  -31.9530 F   0  0  0  0  0  0  0  0  0  0  0  0
   -7.0280   17.7660  -31.2940 F   0  0  0  0  0  0  0  0  0  0  0  0
   -7.3000   20.4890  -31.2320 C   0  0  0  0  0  0  0  0  0  0  0  0
   -4.2990   23.6890  -29.9680 C   0  0  0  0  0  0  0  0  0  0  0  0
   -3.6040   24.8720  -30.1550 C   0  0  0  0  0  0  0  0  0  0  0  0
   -2.6850   24.9300  -29.1310 C   0  0  0  0  0  0  0  0  0  0  0  0
   -1.7510   25.9470  -28.9680 O   0  0  0  0  0  0  0  0  0  0  0  0
   -2.7840   23.8480  -28.3270 N   0  0  0  0  0  0  0  0  0  0  0  0
   -1.9920   23.5470  -27.1620 C   0  0  0  0  0  0  0  0  0  0  0  0
   -1.5360   24.5840  -26.3270 C   0  0  0  0  0  0  0  0  0  0  0  0
   -0.7620   24.2950  -25.1990 C   0  0  0  0  0  0  0  0  0  0  0  0
   -0.4290   22.9730  -24.8970 C   0  0  0  0  0  0  0  0  0  0  0  0
   -0.8680   21.9360  -25.7250 C   0  0  0  0  0  0  0  0  0  0  0  0
   -1.6440   22.2190  -26.8520 C   0  0  0  0  0  0  0  0  0  0  0  0
   -3.7670   23.0800  -28.8410 C   0  0  0  0  0  0  0  0  0  0  0  0
   -6.8540   22.9660  -29.2930 H   0  0  0  0  0  0  0  0  0  0  0  0
   -8.9578   23.4830  -31.1831 H   0  0  0  0  0  0  0  0  0  0  0  0
  -10.6490   22.1078  -32.3889 H   0  0  0  0  0  0  0  0  0  0  0  0
  -10.2064   19.7015  -32.8597 H   0  0  0  0  0  0  0  0  0  0  0  0
   -6.3695   20.0243  -30.8740 H   0  0  0  0  0  0  0  0  0  0  0  0
   -3.7546   25.6117  -30.9551 H   0  0  0  0  0  0  0  0  0  0  0  0
   -1.7900   25.6279  -26.5631 H   0  0  0  0  0  0  0  0  0  0  0  0
   -0.4146   25.1109  -24.5481 H   0  0  0  0  0  0  0  0  0  0  0  0
    0.1784   22.7478  -24.0080 H   0  0  0  0  0  0  0  0  0  0  0  0
   -0.6021   20.8951  -25.4889 H   0  0  0  0  0  0  0  0  0  0  0  0
   -1.9850   21.3988  -27.5009 H   0  0  0  0  0  0  0  0  0  0  0  0
   -4.0971   22.1153  -28.4281 H   0  0  0  0  0  0  0  0  0  0  0  0
  1  2  2  0
  2  3  1  0
  3  4  1  0
  4  5  2  0
  5  6  1  0
  6  7  2  0
  7  8  1  0
  8  9  1  0
  9 10  1  0
  9 11  1  0
  9 12  1  0
  8 13  2  0
  2 14  1  0
 14 15  1  0
 15 16  2  0
 16 17  1  0
 16 18  1  0
 18 19  1  0
 19 20  2  0
 20 21  1  0
 21 22  2  0
 22 23  1  0
 23 24  2  0
 18 25  1  0
 13  4  1  0
 25 14  2  0
 24 19  1  0
  3 26  1  0
  5 27  1  0
  6 28  1  0
  7 29  1  0
 13 30  1  0
 15 31  1  0
 20 32  1  0
 21 33  1  0
 22 34  1  0
 23 35  1  0
 24 36  1  0
 25 37  1  0
M  CHG  1  17  -1
M  END
>  <UniqueID>  (31) 
30

>  <SMILES>  (31) 
O=C(Nc1cccc(C(F)(F)F)c1)c1cc([O-])n(-c2ccccc2)c1

>  <Energy>  (31) 
75.40025423420948

>  <Genealogy>  (31) 
O=C(Nc1cccc(C(F)(F)F)c1)c1cc([O-])n(-c2ccccc2)c1 (protonated)
O=C(Nc1cccc(C(F)(F)F)c1)c1cc([O-])n(-c2ccccc2)c1 (3D coordinates assigned)
O=C(Nc1cccc(C(F)(F)F)c1)c1cc([O-])n(-c2ccccc2)c1 (optimized conformer: 75.40025423420948 kcal/mol)

>  <smiles>  (31) 
O=C(Nc1cccc(C(F)(F)F)c1)c1cc(O)n(-c2ccccc2)c1

>  <score_type>  (31) 
oracle

>  <origin>  (31) 
adg

>  <m_score__min__energy>  (31) 
-10.08

>  <m_primary>  (31) 
energy

$$$$
31:0
     RDKit          3D

 60 61  0  0  0  0  0  0  0  0999 V2000
   -2.0320   21.1580  -33.2320 C   0  0  0  0  0  0  0  0  0  0  0  0
   -3.4710   21.6180  -33.0220 C   0  0  0  0  0  0  0  0  0  0  0  0
   -4.3780   20.4380  -32.6410 C   0  0  0  0  0  0  0  0  0  0  0  0
   -5.6980   20.4250  -33.4280 C   0  0  0  0  0  0  0  0  0  0  0  0
   -6.1140   19.0080  -33.8620 C   0  0  0  0  0  0  0  0  0  0  0  0
   -6.2260   18.0380  -32.6650 C   0  0  0  0  0  0  0  0  0  0  0  0
   -7.6750   17.7850  -32.2060 C   0  0  0  0  0  0  0  0  0  0  0  0
   -8.3810   19.0040  -31.5790 C   0  0  0  0  0  0  0  0  0  0  0  0
   -9.0840   19.9340  -32.5870 C   0  0  0  0  0  0  0  0  0  0  0  0
   -9.6830   21.2170  -31.9800 C   0  0  0  0  0  0  0  0  0  0  0  0
   -8.7060   21.9880  -31.0680 C   0  0  0  0  0  0  0  0  0  0  0  0
   -7.9350   23.0780  -31.8240 C   0  0  0  0  0  0  0  0  0  0  0  0
   -6.6220   23.3620  -31.1460 C   0  0  0  0  0  0  0  0  0  0  0  0
   -5.9410   22.3380  -30.4690 C   0  0  0  0  0  0  0  0  0  0  0  0
   -4.7370   22.6070  -29.8110 C   0  0  0  0  0  0  0  0  0  0  0  0
   -4.2060   23.9070  -29.8060 C   0  0  0  0  0  0  0  0  0  0  0  0
   -2.8910   24.1860  -29.1310 C   0  0  0  0  0  0  0  0  0  0  0  0
   -2.1100   22.9110  -28.9650 C   0  0  0  0  0  0  0  0  0  0  0  0
   -1.3270   22.4160  -30.0190 C   0  0  0  0  0  0  0  0  0  0  0  0
   -0.6410   21.2100  -29.8590 C   0  0  0  0  0  0  0  0  0  0  0  0
   -0.7420   20.5170  -28.6930 N   0  0  0  0  0  0  0  0  0  0  0  0
   -1.5030   20.9670  -27.6600 C   0  0  0  0  0  0  0  0  0  0  0  0
   -2.2050   22.1690  -27.7790 C   0  0  0  0  0  0  0  0  0  0  0  0
   -4.8880   24.9310  -30.4820 C   0  0  0  0  0  0  0  0  0  0  0  0
   -6.0930   24.6620  -31.1380 C   0  0  0  0  0  0  0  0  0  0  0  0
   -1.5501   21.0039  -32.2553 H   0  0  0  0  0  0  0  0  0  0  0  0
   -2.0275   20.2137  -33.7961 H   0  0  0  0  0  0  0  0  0  0  0  0
   -1.4806   21.9247  -33.7961 H   0  0  0  0  0  0  0  0  0  0  0  0
   -3.4953   22.3652  -32.2151 H   0  0  0  0  0  0  0  0  0  0  0  0
   -3.8398   22.0531  -33.9625 H   0  0  0  0  0  0  0  0  0  0  0  0
   -3.8390   19.5006  -32.8428 H   0  0  0  0  0  0  0  0  0  0  0  0
   -4.6283   20.5426  -31.5750 H   0  0  0  0  0  0  0  0  0  0  0  0
   -6.4912   20.8461  -32.7927 H   0  0  0  0  0  0  0  0  0  0  0  0
   -5.5485   21.0224  -34.3395 H   0  0  0  0  0  0  0  0  0  0  0  0
   -7.0909   19.0643  -34.3644 H   0  0  0  0  0  0  0  0  0  0  0  0
   -5.3369   18.6210  -34.5375 H   0  0  0  0  0  0  0  0  0  0  0  0
   -5.7806   17.0751  -32.9555 H   0  0  0  0  0  0  0  0  0  0  0  0
   -5.6988   18.5068  -31.8210 H   0  0  0  0  0  0  0  0  0  0  0  0
   -8.2594   17.4648  -33.0812 H   0  0  0  0  0  0  0  0  0  0  0  0
   -7.6189   17.0217  -31.4160 H   0  0  0  0  0  0  0  0  0  0  0  0
   -9.1366   18.6344  -30.8701 H   0  0  0  0  0  0  0  0  0  0  0  0
   -7.5937   19.6051  -31.1007 H   0  0  0  0  0  0  0  0  0  0  0  0
   -8.3485   20.2285  -33.3501 H   0  0  0  0  0  0  0  0  0  0  0  0
   -9.9306   19.3621  -32.9946 H   0  0  0  0  0  0  0  0  0  0  0  0
   -9.9871   21.8809  -32.8026 H   0  0  0  0  0  0  0  0  0  0  0  0
  -10.5323   20.9089  -31.3525 H   0  0  0  0  0  0  0  0  0  0  0  0
   -9.2787   22.4595  -30.2558 H   0  0  0  0  0  0  0  0  0  0  0  0
   -7.9718   21.2673  -30.6786 H   0  0  0  0  0  0  0  0  0  0  0  0
   -7.7451   22.7393  -32.8532 H   0  0  0  0  0  0  0  0  0  0  0  0
   -8.5372   23.9985  -31.8325 H   0  0  0  0  0  0  0  0  0  0  0  0
   -6.3564   21.3195  -30.4561 H   0  0  0  0  0  0  0  0  0  0  0  0
   -4.2028   21.7959  -29.2945 H   0  0  0  0  0  0  0  0  0  0  0  0
   -2.3101   24.8904  -29.7446 H   0  0  0  0  0  0  0  0  0  0  0  0
   -3.0825   24.6207  -28.1389 H   0  0  0  0  0  0  0  0  0  0  0  0
   -1.2540   22.9737  -30.9643 H   0  0  0  0  0  0  0  0  0  0  0  0
   -0.0180   20.8199  -30.6774 H   0  0  0  0  0  0  0  0  0  0  0  0
   -1.5660   20.3839  -26.7294 H   0  0  0  0  0  0  0  0  0  0  0  0
   -2.8281   22.5309  -26.9479 H   0  0  0  0  0  0  0  0  0  0  0  0
   -4.4725   25.9494  -30.4956 H   0  0  0  0  0  0  0  0  0  0  0  0
   -6.6295   25.4739  -31.6508 H   0  0  0  0  0  0  0  0  0  0  0  0
  1  2  1  0
  2  3  1  0
  3  4  1  0
  4  5  1  0
  5  6  1  0
  6  7  1  0
  7  8  1  0
  8  9  1  0
  9 10  1  0
 10 11  1  0
 11 12  1  0
 12 13  1  0
 13 14  2  0
 14 15  1  0
 15 16  2  0
 16 17  1  0
 17 18  1  0
 18 19  2  0
 19 20  1  0
 20 21  2  0
 21 22  1  0
 22 23  2  0
 16 24  1  0
 24 25  2  0
 25 13  1  0
 23 18  1  0
  1 26  1  0
  1 27  1  0
  1 28  1  0
  2 29  1  0
  2 30  1  0
  3 31  1  0
  3 32  1  0
  4 33  1  0
  4 34  1  0
  5 35  1  0
  5 36  1  0
  6 37  1  0
  6 38  1  0
  7 39  1  0
  7 40  1  0
  8 41  1  0
  8 42  1  0
  9 43  1  0
  9 44  1  0
 10 45  1  0
 10 46  1  0
 11 47  1  0
 11 48  1  0
 12 49  1  0
 12 50  1  0
 14 51  1  0
 15 52  1  0
 17 53  1  0
 17 54  1  0
 19 55  1  0
 20 56  1  0
 22 57  1  0
 23 58  1  0
 24 59  1  0
 25 60  1  0
M  END
>  <UniqueID>  (32) 
31

>  <SMILES>  (32) 
CCCCCCCCCCCCc1ccc(Cc2ccncc2)cc1

>  <Energy>  (32) 
44.42649252051681

>  <Genealogy>  (32) 
CCCCCCCCCCCCc1ccc(Cc2ccncc2)cc1 (3D coordinates assigned)
CCCCCCCCCCCCc1ccc(Cc2ccncc2)cc1 (optimized conformer: 44.42649252051681 kcal/mol)

>  <smiles>  (32) 
CCCCCCCCCCCCc1ccc(Cc2ccncc2)cc1

>  <score_type>  (32) 
oracle

>  <origin>  (32) 
adg

>  <m_score__min__energy>  (32) 
-7.5800000000000001

>  <m_primary>  (32) 
energy

$$$$
32:0
     RDKit          3D

 38 40  0  0  0  0  0  0  0  0999 V2000
   -8.7940   23.0500  -31.9620 Br  0  0  0  0  0  0  0  0  0  0  0  0
   -7.0020   22.8850  -31.3110 C   0  0  0  0  0  0  0  0  0  0  0  0
   -6.6020   23.6590  -30.2160 C   0  0  0  0  0  0  0  0  0  0  0  0
   -5.2920   23.5690  -29.7190 C   0  0  0  0  0  0  0  0  0  0  0  0
   -4.8900   24.3450  -28.5720 N   0  0  0  0  0  0  0  0  0  0  0  0
   -3.8160   23.6530  -27.8480 C   0  0  0  0  0  0  0  0  0  0  0  0
   -2.4930   24.2980  -28.1300 C   0  0  0  0  0  0  0  0  0  0  0  0
   -1.2730   23.8790  -27.6610 C   0  0  0  0  0  0  0  0  0  0  0  0
   -0.3140   24.6640  -28.1820 N   0  0  0  0  0  0  0  0  0  0  0  0
   -0.9900   25.5320  -28.9640 C   0  0  0  0  0  0  0  0  0  0  0  0
   -2.3240   25.3360  -28.9670 N   0  0  0  0  0  0  0  0  0  0  0  0
   -4.3930   22.6750  -30.3230 C   0  0  0  0  0  0  0  0  0  0  0  0
   -4.7900   21.9020  -31.4160 C   0  0  0  0  0  0  0  0  0  0  0  0
   -6.0990   22.0030  -31.9230 C   0  0  0  0  0  0  0  0  0  0  0  0
   -6.5390   21.2490  -33.0240 O   0  0  0  0  0  0  0  0  0  0  0  0
   -7.4050   20.1150  -32.9580 C   0  0  0  0  0  0  0  0  0  0  0  0
   -6.6880   18.8680  -33.4010 C   0  0  0  0  0  0  0  0  0  0  0  0
   -6.8400   17.6730  -32.6780 C   0  0  0  0  0  0  0  0  0  0  0  0
   -6.1690   16.5150  -33.0810 C   0  0  0  0  0  0  0  0  0  0  0  0
   -5.3360   16.5420  -34.2030 C   0  0  0  0  0  0  0  0  0  0  0  0
   -5.1700   17.7290  -34.9210 C   0  0  0  0  0  0  0  0  0  0  0  0
   -5.8390   18.8910  -34.5210 C   0  0  0  0  0  0  0  0  0  0  0  0
   -7.3199   24.3436  -29.7407 H   0  0  0  0  0  0  0  0  0  0  0  0
   -5.7110   24.4880  -27.9380 H   0  0  0  0  0  0  0  0  0  0  0  0
   -4.5560   25.2880  -28.8840 H   0  0  0  0  0  0  0  0  0  0  0  0
   -4.0188   23.7000  -26.7679 H   0  0  0  0  0  0  0  0  0  0  0  0
   -3.7795   22.6054  -28.1816 H   0  0  0  0  0  0  0  0  0  0  0  0
   -1.1070   23.0382  -26.9714 H   0  0  0  0  0  0  0  0  0  0  0  0
   -0.4981   26.3259  -29.5451 H   0  0  0  0  0  0  0  0  0  0  0  0
   -3.3688   22.5830  -29.9323 H   0  0  0  0  0  0  0  0  0  0  0  0
   -4.0748   21.2095  -31.8839 H   0  0  0  0  0  0  0  0  0  0  0  0
   -7.7492   19.9840  -31.9215 H   0  0  0  0  0  0  0  0  0  0  0  0
   -8.2611   20.2859  -33.6273 H   0  0  0  0  0  0  0  0  0  0  0  0
   -7.4899   17.6486  -31.7909 H   0  0  0  0  0  0  0  0  0  0  0  0
   -6.2967   15.5809  -32.5142 H   0  0  0  0  0  0  0  0  0  0  0  0
   -4.8112   15.6289  -34.5207 H   0  0  0  0  0  0  0  0  0  0  0  0
   -4.5122   17.7501  -35.8024 H   0  0  0  0  0  0  0  0  0  0  0  0
   -5.7001   19.8253  -35.0847 H   0  0  0  0  0  0  0  0  0  0  0  0
  1  2  1  0
  2  3  2  0
  3  4  1  0
  4  5  1  0
  5  6  1  0
  6  7  1  0
  7  8  2  0
  8  9  1  0
  9 10  1  0
 10 11  2  0
  4 12  2  0
 12 13  1  0
 13 14  2  0
 14 15  1  0
 15 16  1  0
 16 17  1  0
 17 18  2  0
 18 19  1  0
 19 20  2  0
 20 21  1  0
 21 22  2  0
 14  2  1  0
 22 17  1  0
 11  7  1  0
  3 23  1  0
  5 24  1  0
  5 25  1  0
  6 26  1  0
  6 27  1  0
  8 28  1  0
 10 29  1  0
 12 30  1  0
 13 31  1  0
 16 32  1  0
 16 33  1  0
 18 34  1  0
 19 35  1  0
 20 36  1  0
 21 37  1  0
 22 38  1  0
M  CHG  2   5   1   9  -1
M  END
>  <UniqueID>  (33) 
32

>  <SMILES>  (33) 
Brc1cc([NH2+]Cc2c[n-]cn2)ccc1OCc1ccccc1

>  <Energy>  (33) 
67.22697640587505

>  <Genealogy>  (33) 
Brc1cc([NH2+]Cc2c[n-]cn2)ccc1OCc1ccccc1 (protonated)
Brc1cc([NH2+]Cc2c[n-]cn2)ccc1OCc1ccccc1 (3D coordinates assigned)
Brc1cc([NH2+]Cc2c[n-]cn2)ccc1OCc1ccccc1 (optimized conformer: 67.22697640587505 kcal/mol)

>  <smiles>  (33) 
Brc1cc(NCc2c[nH]cn2)ccc1OCc1ccccc1

>  <score_type>  (33) 
oracle

>  <origin>  (33) 
adg

>  <m_score__min__energy>  (33) 
-8.5999999999999996

>  <m_primary>  (33) 
energy

$$$$
33:0
     RDKit          3D

 28 31  0  0  0  0  0  0  0  0999 V2000
   -7.6860   22.8260  -31.6520 C   0  0  0  0  0  0  0  0  0  0  0  0
   -7.1990   24.0720  -31.2150 C   0  0  0  0  0  0  0  0  0  0  0  0
   -5.8210   24.2190  -31.1150 C   0  0  0  0  0  0  0  0  0  0  0  0
   -5.1100   25.2870  -30.7270 N   0  0  0  0  0  0  0  0  0  0  0  0
   -3.8620   24.8930  -30.8090 O   0  0  0  0  0  0  0  0  0  0  0  0
   -3.7110   23.6570  -31.2190 N   0  0  0  0  0  0  0  0  0  0  0  0
   -4.9620   23.2180  -31.4180 C   0  0  0  0  0  0  0  0  0  0  0  0
   -5.3940   21.9690  -31.8520 C   0  0  0  0  0  0  0  0  0  0  0  0
   -6.7900   21.7670  -31.9810 C   0  0  0  0  0  0  0  0  0  0  0  0
   -7.3140   20.4220  -32.4300 C   0  0  1  0  0  0  0  0  0  0  0  0
   -6.8140   20.0330  -33.8420 C   0  0  0  0  0  0  0  0  0  0  0  0
   -6.0530   18.8130  -33.6150 N   0  0  0  0  0  0  0  0  0  0  0  0
   -6.0970   17.6160  -34.4320 C   0  0  0  0  0  0  0  0  0  0  0  0
   -5.5980   16.4480  -33.5610 C   0  0  0  0  0  0  0  0  0  0  0  0
   -5.7860   16.8550  -31.7760 S   0  0  0  0  0  0  0  0  0  0  0  0
   -6.1130   18.5290  -32.2500 C   0  0  0  0  0  0  0  0  0  0  0  0
   -6.8170   19.3570  -31.5650 N   0  0  0  0  0  0  0  0  0  0  0  0
   -8.7709   22.6673  -31.7408 H   0  0  0  0  0  0  0  0  0  0  0  0
   -7.8820   24.8965  -30.9627 H   0  0  0  0  0  0  0  0  0  0  0  0
   -4.6778   21.1677  -32.0864 H   0  0  0  0  0  0  0  0  0  0  0  0
   -8.4093   20.5211  -32.4055 H   0  0  0  0  0  0  0  0  0  0  0  0
   -7.6599   19.8471  -34.5202 H   0  0  0  0  0  0  0  0  0  0  0  0
   -6.2167   20.8258  -34.3160 H   0  0  0  0  0  0  0  0  0  0  0  0
   -7.1282   17.4244  -34.7637 H   0  0  0  0  0  0  0  0  0  0  0  0
   -5.4669   17.7316  -35.3262 H   0  0  0  0  0  0  0  0  0  0  0  0
   -6.1854   15.5470  -33.7914 H   0  0  0  0  0  0  0  0  0  0  0  0
   -4.5341   16.2702  -33.7769 H   0  0  0  0  0  0  0  0  0  0  0  0
   -7.1060   19.2060  -30.5720 H   0  0  0  0  0  0  0  0  0  0  0  0
  1  2  2  0
  2  3  1  0
  3  4  2  0
  4  5  1  0
  5  6  1  0
  6  7  2  0
  7  8  1  0
  8  9  2  0
  9 10  1  0
 10 11  1  0
 11 12  1  0
 12 13  1  0
 13 14  1  0
 14 15  1  0
 15 16  1  0
 16 17  2  0
  9  1  1  0
 17 10  1  0
  7  3  1  0
 16 12  1  0
  1 18  1  0
  2 19  1  0
  8 20  1  0
 10 21  1  6
 11 22  1  0
 11 23  1  0
 13 24  1  0
 13 25  1  0
 14 26  1  0
 14 27  1  0
 17 28  1  0
M  CHG  1  17   1
M  END
>  <UniqueID>  (34) 
33

>  <SMILES>  (34) 
c1cc2nonc2cc1[C@H]1CN2CCSC2=[NH+]1

>  <Energy>  (34) 
99.04463380025007

>  <Genealogy>  (34) 
c1cc2nonc2cc1C1CN2CCSC2=[NH+]1 (protonated)
c1cc2nonc2cc1[C@H]1CN2CCSC2=[NH+]1 (chirality)
c1cc2nonc2cc1[C@H]1CN2CCSC2=[NH+]1 (3D coordinates assigned)
c1cc2nonc2cc1[C@H]1CN2CCSC2=[NH+]1 (nonaromatic ring conformer: 99.04463380025007 kcal/mol)

>  <smiles>  (34) 
c1cc2nonc2cc1C1CN2CCSC2=N1

>  <score_type>  (34) 
oracle

>  <origin>  (34) 
adg

>  <m_score__min__energy>  (34) 
-7.9199999999999999

>  <m_primary>  (34) 
energy

$$$$
34:0
     RDKit          3D

 33 36  0  0  0  0  0  0  0  0999 V2000
   -1.8980   21.5590  -33.8310 O   0  0  0  0  0  0  0  0  0  0  0  0
   -2.6200   20.3920  -33.5990 C   0  0  0  0  0  0  0  0  0  0  0  0
   -2.1490   19.1820  -33.8280 O   0  0  0  0  0  0  0  0  0  0  0  0
   -3.0720   18.2990  -33.4980 C   0  0  0  0  0  0  0  0  0  0  0  0
   -4.1740   18.9830  -33.0380 C   0  0  0  0  0  0  0  0  0  0  0  0
   -3.9070   20.3150  -33.1040 C   0  0  0  0  0  0  0  0  0  0  0  0
   -4.8470   21.3760  -32.6060 C   0  0  2  0  0  0  0  0  0  0  0  0
   -4.2850   21.9870  -31.3360 C   0  0  0  0  0  0  0  0  0  0  0  0
   -3.8650   21.1700  -30.2690 C   0  0  0  0  0  0  0  0  0  0  0  0
   -3.3370   21.7400  -29.1070 C   0  0  0  0  0  0  0  0  0  0  0  0
   -3.2190   23.1270  -28.9980 C   0  0  0  0  0  0  0  0  0  0  0  0
   -2.7060   23.6760  -27.8690 F   0  0  0  0  0  0  0  0  0  0  0  0
   -3.6270   23.9490  -30.0540 C   0  0  0  0  0  0  0  0  0  0  0  0
   -3.5090   25.2960  -29.9520 F   0  0  0  0  0  0  0  0  0  0  0  0
   -4.1540   23.3830  -31.2180 C   0  0  0  0  0  0  0  0  0  0  0  0
   -6.2530   20.8080  -32.3510 C   0  0  0  0  0  0  0  0  0  0  0  0
   -7.3440   21.6800  -32.1210 C   0  0  0  0  0  0  0  0  0  0  0  0
   -7.1720   23.4300  -32.2050 Cl  0  0  0  0  0  0  0  0  0  0  0  0
   -8.6090   21.1610  -31.8250 C   0  0  0  0  0  0  0  0  0  0  0  0
   -8.8120   19.7850  -31.7540 C   0  0  0  0  0  0  0  0  0  0  0  0
   -7.7560   18.9070  -31.9930 C   0  0  0  0  0  0  0  0  0  0  0  0
   -6.4800   19.3980  -32.2970 C   0  0  0  0  0  0  0  0  0  0  0  0
   -5.4210   18.4690  -32.5920 N   0  0  0  0  0  0  0  0  0  0  0  0
   -1.6010   21.8160  -34.7640 H   0  0  0  0  0  0  0  0  0  0  0  0
   -2.9772   17.2059  -33.5768 H   0  0  0  0  0  0  0  0  0  0  0  0
   -4.9412   22.1518  -33.3801 H   0  0  0  0  0  0  0  0  0  0  0  0
   -3.9529   20.0765  -30.3503 H   0  0  0  0  0  0  0  0  0  0  0  0
   -3.0139   21.0946  -28.2769 H   0  0  0  0  0  0  0  0  0  0  0  0
   -4.4685   24.0332  -32.0476 H   0  0  0  0  0  0  0  0  0  0  0  0
   -9.4510   21.8460  -31.6467 H   0  0  0  0  0  0  0  0  0  0  0  0
   -9.8088   19.3898  -31.5085 H   0  0  0  0  0  0  0  0  0  0  0  0
   -7.9260   17.8214  -31.9425 H   0  0  0  0  0  0  0  0  0  0  0  0
   -5.5780   17.4360  -32.5480 H   0  0  0  0  0  0  0  0  0  0  0  0
  1  2  1  0
  2  3  1  0
  3  4  1  0
  4  5  2  0
  5  6  1  0
  6  7  1  0
  7  8  1  0
  8  9  2  0
  9 10  1  0
 10 11  2  0
 11 12  1  0
 11 13  1  0
 13 14  1  0
 13 15  2  0
  7 16  1  0
 16 17  2  0
 17 18  1  0
 17 19  1  0
 19 20  2  0
 20 21  1  0
 21 22  2  0
 22 23  1  0
  6  2  2  0
 15  8  1  0
 22 16  1  0
 23  5  1  0
  1 24  1  0
  4 25  1  0
  7 26  1  6
  9 27  1  0
 10 28  1  0
 15 29  1  0
 19 30  1  0
 20 31  1  0
 21 32  1  0
 23 33  1  0
M  END
>  <UniqueID>  (35) 
34

>  <SMILES>  (35) 
Oc1occ2c1[C@H](c1ccc(F)c(F)c1)c1c(Cl)cccc1N2

>  <Energy>  (35) 
72.30546916706666

>  <Genealogy>  (35) 
Oc1occ2c1[C@H](c1ccc(F)c(F)c1)c1c(Cl)cccc1N2 (chirality)
Oc1occ2c1[C@H](c1ccc(F)c(F)c1)c1c(Cl)cccc1N2 (3D coordinates assigned)
Oc1occ2c1[C@H](c1ccc(F)c(F)c1)c1c(Cl)cccc1N2 (nonaromatic ring conformer: 72.30546916706666 kcal/mol)

>  <smiles>  (35) 
Oc1occ2c1C(c1ccc(F)c(F)c1)c1c(Cl)cccc1N2

>  <score_type>  (35) 
oracle

>  <origin>  (35) 
adg

>  <m_score__min__energy>  (35) 
-7.6600000000000001

>  <m_primary>  (35) 
energy

$$$$
35:0
     RDKit          3D

 35 39  0  0  0  0  0  0  0  0999 V2000
   -4.2640   25.7040  -30.5400 O   0  0  0  0  0  0  0  0  0  0  0  0
   -4.3400   24.4540  -30.3830 C   0  0  0  0  0  0  0  0  0  0  0  0
   -3.6070   23.7860  -29.3720 C   0  0  0  0  0  0  0  0  0  0  0  0
   -2.6780   24.5040  -28.4620 C   0  0  0  0  0  0  0  0  0  0  0  0
   -2.8250   24.6250  -27.0730 C   0  0  0  0  0  0  0  0  0  0  0  0
   -1.7790   25.3380  -26.4780 C   0  0  0  0  0  0  0  0  0  0  0  0
   -1.6480   25.6270  -25.1170 C   0  0  0  0  0  0  0  0  0  0  0  0
   -0.5290   26.3580  -24.6840 C   0  0  0  0  0  0  0  0  0  0  0  0
   -0.3810   26.6490  -23.3680 F   0  0  0  0  0  0  0  0  0  0  0  0
    0.4420   26.7900  -25.6090 C   0  0  0  0  0  0  0  0  0  0  0  0
    0.3000   26.4960  -26.9750 C   0  0  0  0  0  0  0  0  0  0  0  0
   -0.8180   25.7700  -27.3770 C   0  0  0  0  0  0  0  0  0  0  0  0
   -1.2410   25.2810  -28.9240 S   0  0  0  0  0  0  0  0  0  0  0  0
   -3.7880   22.3850  -29.2490 C   0  0  0  0  0  0  0  0  0  0  0  0
   -4.6290   21.7110  -30.0840 N   0  0  0  0  0  0  0  0  0  0  0  0
   -5.2930   22.3970  -31.0430 C   0  0  0  0  0  0  0  0  0  0  0  0
   -6.2040   21.9290  -31.9690 C   0  0  0  0  0  0  0  0  0  0  0  0
   -6.6880   20.5460  -32.1970 C   0  0  0  0  0  0  0  0  0  0  0  0
   -7.9380   20.1140  -31.7280 C   0  0  0  0  0  0  0  0  0  0  0  0
   -8.3480   18.8380  -31.9490 N   0  0  0  0  0  0  0  0  0  0  0  0
   -7.5640   17.9600  -32.6240 C   0  0  0  0  0  0  0  0  0  0  0  0
   -6.3490   18.3480  -33.0840 N   0  0  0  0  0  0  0  0  0  0  0  0
   -5.8960   19.6130  -32.8830 C   0  0  0  0  0  0  0  0  0  0  0  0
   -6.5880   23.0870  -32.6490 C   0  0  0  0  0  0  0  0  0  0  0  0
   -5.9350   24.1620  -32.1490 N   0  0  0  0  0  0  0  0  0  0  0  0
   -5.1550   23.7190  -31.1780 N   0  0  0  0  0  0  0  0  0  0  0  0
   -3.6721   24.2043  -26.5113 H   0  0  0  0  0  0  0  0  0  0  0  0
   -2.4077   25.2881  -24.3973 H   0  0  0  0  0  0  0  0  0  0  0  0
    1.3154   27.3602  -25.2597 H   0  0  0  0  0  0  0  0  0  0  0  0
    1.0507   26.8298  -27.7065 H   0  0  0  0  0  0  0  0  0  0  0  0
   -3.2421   21.8342  -28.4688 H   0  0  0  0  0  0  0  0  0  0  0  0
   -8.5883   20.8112  -31.1794 H   0  0  0  0  0  0  0  0  0  0  0  0
   -7.9146   16.9320  -32.7983 H   0  0  0  0  0  0  0  0  0  0  0  0
   -4.9050   19.9067  -33.2594 H   0  0  0  0  0  0  0  0  0  0  0  0
   -7.3164   23.1205  -33.4726 H   0  0  0  0  0  0  0  0  0  0  0  0
  1  2  2  0
  2  3  1  0
  3  4  1  0
  4  5  2  0
  5  6  1  0
  6  7  2  0
  7  8  1  0
  8  9  1  0
  8 10  2  0
 10 11  1  0
 11 12  2  0
 12 13  1  0
  3 14  2  0
 14 15  1  0
 15 16  1  0
 16 17  2  0
 17 18  1  0
 18 19  2  0
 19 20  1  0
 20 21  2  0
 21 22  1  0
 22 23  2  0
 17 24  1  0
 24 25  2  0
 25 26  1  0
 26  2  1  0
 13  4  1  0
 26 16  1  0
 12  6  1  0
 23 18  1  0
  5 27  1  0
  7 28  1  0
 10 29  1  0
 11 30  1  0
 14 31  1  0
 19 32  1  0
 21 33  1  0
 23 34  1  0
 24 35  1  0
M  CHG  1  15  -1
M  END
>  <UniqueID>  (36) 
35

>  <SMILES>  (36) 
O=c1c(-c2cc3cc(F)ccc3s2)c[n-]c2c(-c3cncnc3)cnn12

>  <Energy>  (36) 
119.86801001829164

>  <Genealogy>  (36) 
O=c1c(-c2cc3cc(F)ccc3s2)c[n-]c2c(-c3cncnc3)cnn12 (protonated)
O=c1c(-c2cc3cc(F)ccc3s2)c[n-]c2c(-c3cncnc3)cnn12 (3D coordinates assigned)
O=c1c(-c2cc3cc(F)ccc3s2)c[n-]c2c(-c3cncnc3)cnn12 (optimized conformer: 119.86801001829164 kcal/mol)

>  <smiles>  (36) 
O=c1c(-c2cc3cc(F)ccc3s2)c[nH]c2c(-c3cncnc3)cnn12

>  <score_type>  (36) 
oracle

>  <origin>  (36) 
adg

>  <m_score__min__energy>  (36) 
-9.0099999999999998

>  <m_primary>  (36) 
energy

$$$$
36:0
     RDKit          3D

 43 46  0  0  0  0  0  0  0  0999 V2000
   -8.5880   23.3440  -31.8830 C   0  0  0  0  0  0  0  0  0  0  0  0
   -9.4700   22.2660  -31.7960 C   0  0  0  0  0  0  0  0  0  0  0  0
   -8.9990   20.9580  -31.9420 C   0  0  0  0  0  0  0  0  0  0  0  0
   -7.6300   20.7130  -32.1750 C   0  0  0  0  0  0  0  0  0  0  0  0
   -7.1240   19.3710  -32.3320 N   0  0  0  0  0  0  0  0  0  0  0  0
   -6.5310   18.8470  -33.4270 C   0  0  0  0  0  0  0  0  0  0  0  0
   -6.2020   17.5390  -33.1500 C   0  0  0  0  0  0  0  0  0  0  0  0
   -5.5730   16.5440  -34.0810 C   0  0  0  0  0  0  0  0  0  0  0  0
   -4.1130   16.7600  -34.1540 N   0  0  0  0  0  0  0  0  0  0  0  0
   -3.4690   15.8080  -35.0850 C   0  0  0  0  0  0  0  0  0  0  0  0
   -2.0300   15.5750  -34.6350 C   0  0  0  0  0  0  0  0  0  0  0  0
   -1.1670   16.7060  -34.9700 N   0  0  0  0  0  0  0  0  0  0  0  0
   -1.2330   17.9530  -34.2650 C   0  0  0  0  0  0  0  0  0  0  0  0
   -0.0840   18.4560  -33.7250 N   0  0  0  0  0  0  0  0  0  0  0  0
   -0.0550   19.6400  -33.0590 C   0  0  0  0  0  0  0  0  0  0  0  0
   -1.2240   20.3780  -32.8970 C   0  0  0  0  0  0  0  0  0  0  0  0
   -2.4190   19.8840  -33.4130 C   0  0  0  0  0  0  0  0  0  0  0  0
   -2.4530   18.6620  -34.1020 C   0  0  0  0  0  0  0  0  0  0  0  0
   -3.8210   18.1570  -34.5370 C   0  0  0  0  0  0  0  0  0  0  0  0
   -6.6440   17.3140  -31.8640 C   0  0  0  0  0  0  0  0  0  0  0  0
   -7.1980   18.4450  -31.3870 N   0  0  0  0  0  0  0  0  0  0  0  0
   -6.7530   21.8110  -32.2660 C   0  0  0  0  0  0  0  0  0  0  0  0
   -7.2310   23.1160  -32.1190 C   0  0  0  0  0  0  0  0  0  0  0  0
   -8.9615   24.3720  -31.7658 H   0  0  0  0  0  0  0  0  0  0  0  0
  -10.5394   22.4462  -31.6119 H   0  0  0  0  0  0  0  0  0  0  0  0
   -9.7012   20.1139  -31.8747 H   0  0  0  0  0  0  0  0  0  0  0  0
   -6.3437   19.3735  -34.3745 H   0  0  0  0  0  0  0  0  0  0  0  0
   -5.7711   15.5267  -33.7123 H   0  0  0  0  0  0  0  0  0  0  0  0
   -6.0038   16.6721  -35.0850 H   0  0  0  0  0  0  0  0  0  0  0  0
   -4.0177   14.8546  -35.0766 H   0  0  0  0  0  0  0  0  0  0  0  0
   -3.4789   16.2193  -36.1052 H   0  0  0  0  0  0  0  0  0  0  0  0
   -2.0171   15.4279  -33.5450 H   0  0  0  0  0  0  0  0  0  0  0  0
   -1.6476   14.6862  -35.1583 H   0  0  0  0  0  0  0  0  0  0  0  0
   -0.7710   16.7220  -35.9370 H   0  0  0  0  0  0  0  0  0  0  0  0
    0.8110   17.9280  -33.8360 H   0  0  0  0  0  0  0  0  0  0  0  0
    0.8934   20.0157  -32.6474 H   0  0  0  0  0  0  0  0  0  0  0  0
   -1.2039   21.3416  -32.3668 H   0  0  0  0  0  0  0  0  0  0  0  0
   -3.3475   20.4584  -33.2790 H   0  0  0  0  0  0  0  0  0  0  0  0
   -4.5857   18.8040  -34.0825 H   0  0  0  0  0  0  0  0  0  0  0  0
   -3.8281   18.1861  -35.6366 H   0  0  0  0  0  0  0  0  0  0  0  0
   -6.5581   16.3642  -31.3159 H   0  0  0  0  0  0  0  0  0  0  0  0
   -5.6828   21.6401  -32.4544 H   0  0  0  0  0  0  0  0  0  0  0  0
   -6.5362   23.9658  -32.1894 H   0  0  0  0  0  0  0  0  0  0  0  0
  1  2  2  0
  2  3  1  0
  3  4  2  0
  4  5  1  0
  5  6  1  0
  6  7  2  0
  7  8  1  0
  8  9  1  0
  9 10  1  0
 10 11  1  0
 11 12  1  0
 12 13  1  0
 13 14  2  0
 14 15  1  0
 15 16  2  0
 16 17  1  0
 17 18  2  0
 18 19  1  0
  7 20  1  0
 20 21  2  0
  4 22  1  0
 22 23  2  0
 23  1  1  0
 21  5  1  0
 19  9  1  0
 18 13  1  0
  1 24  1  0
  2 25  1  0
  3 26  1  0
  6 27  1  0
  8 28  1  0
  8 29  1  0
 10 30  1  0
 10 31  1  0
 11 32  1  0
 11 33  1  0
 12 34  1  0
 14 35  1  0
 15 36  1  0
 16 37  1  0
 17 38  1  0
 19 39  1  0
 19 40  1  0
 20 41  1  0
 22 42  1  0
 23 43  1  0
M  CHG  1  14   1
M  END
>  <UniqueID>  (37) 
36

>  <SMILES>  (37) 
c1ccc(-n2cc(CN3CCNc4[nH+]cccc4C3)cn2)cc1

>  <Energy>  (37) 
92.49282302238346

>  <Genealogy>  (37) 
c1ccc(-n2cc(CN3CCNc4[nH+]cccc4C3)cn2)cc1 (protonated)
c1ccc(-n2cc(CN3CCNc4[nH+]cccc4C3)cn2)cc1 (3D coordinates assigned)
c1ccc(-n2cc(CN3CCNc4[nH+]cccc4C3)cn2)cc1 (nonaromatic ring conformer: 92.49282302238346 kcal/mol)

>  <smiles>  (37) 
c1ccc(-n2cc(CN3CCNc4ncccc4C3)cn2)cc1

>  <score_type>  (37) 
oracle

>  <origin>  (37) 
adg

>  <m_score__min__energy>  (37) 
-6.0199999999999996

>  <m_primary>  (37) 
energy

$$$$
37:0
     RDKit          3D

 35 38  0  0  0  0  0  0  0  0999 V2000
   -4.7663   26.4748  -31.3176 H   0  0  0  0  0  0  0  0  0  0  0  0
   -4.6150   25.5020  -30.8270 C   0  0  0  0  0  0  0  0  0  0  0  0
   -3.5110   25.2940  -30.0660 N   0  0  0  0  0  0  0  0  0  0  0  0
   -3.2800   24.1080  -29.4480 C   0  0  0  0  0  0  0  0  0  0  0  0
   -2.1240   23.9430  -28.6800 C   0  0  0  0  0  0  0  0  0  0  0  0
   -1.4103   24.7740  -28.5796 H   0  0  0  0  0  0  0  0  0  0  0  0
   -1.8710   22.7290  -28.0400 C   0  0  0  0  0  0  0  0  0  0  0  0
   -0.9588   22.6107  -27.4368 H   0  0  0  0  0  0  0  0  0  0  0  0
   -2.7710   21.6560  -28.1590 C   0  0  0  0  0  0  0  0  0  0  0  0
   -2.5060   20.4020  -27.4980 N   0  0  0  0  0  0  0  0  0  0  0  0
   -1.3800   19.6630  -27.5610 C   0  0  0  0  0  0  0  0  0  0  0  0
   -0.4903   19.9395  -28.1458 H   0  0  0  0  0  0  0  0  0  0  0  0
   -1.4810   18.5420  -26.8170 N   0  0  0  0  0  0  0  0  0  0  0  0
   -2.7260   18.6390  -26.3020 C   0  0  0  0  0  0  0  0  0  0  0  0
   -3.1762   17.8925  -25.6311 H   0  0  0  0  0  0  0  0  0  0  0  0
   -3.3470   19.7580  -26.7090 N   0  0  0  0  0  0  0  0  0  0  0  0
   -4.3220   20.0500  -26.4720 H   0  0  0  0  0  0  0  0  0  0  0  0
   -3.9360   21.8220  -28.9280 C   0  0  0  0  0  0  0  0  0  0  0  0
   -4.6476   20.9885  -29.0226 H   0  0  0  0  0  0  0  0  0  0  0  0
   -4.2040   23.0440  -29.5800 C   0  0  0  0  0  0  0  0  0  0  0  0
   -5.3740   23.2430  -30.3530 C   0  0  0  0  0  0  0  0  0  0  0  0
   -6.2300   22.2640  -30.4910 N   0  0  0  0  0  0  0  0  0  0  0  0
   -6.3010   21.2970  -31.5490 C   0  0  0  0  0  0  0  0  0  0  0  0
   -7.5280   20.7360  -31.9420 C   0  0  0  0  0  0  0  0  0  0  0  0
   -8.4613   21.0717  -31.4664 H   0  0  0  0  0  0  0  0  0  0  0  0
   -7.5670   19.7530  -32.9350 C   0  0  0  0  0  0  0  0  0  0  0  0
   -8.5317   19.3306  -33.2527 H   0  0  0  0  0  0  0  0  0  0  0  0
   -6.3800   19.3060  -33.5250 C   0  0  0  0  0  0  0  0  0  0  0  0
   -6.4290   18.3490  -34.4860 F   0  0  0  0  0  0  0  0  0  0  0  0
   -5.1510   19.8360  -33.1130 C   0  0  0  0  0  0  0  0  0  0  0  0
   -3.6540   19.2670  -33.8320 Cl  0  0  0  0  0  0  0  0  0  0  0  0
   -5.1130   20.8200  -32.1190 C   0  0  0  0  0  0  0  0  0  0  0  0
   -4.1454   21.2213  -31.7832 H   0  0  0  0  0  0  0  0  0  0  0  0
   -5.5580   24.4890  -30.9900 C   0  0  0  0  0  0  0  0  0  0  0  0
   -6.4464   24.6606  -31.6156 H   0  0  0  0  0  0  0  0  0  0  0  0
  1  2  1  0
  2  3  1  0
  3  4  1  0
  4  5  2  0
  5  6  1  0
  5  7  1  0
  7  8  1  0
  7  9  2  0
  9 10  1  0
 10 11  1  0
 11 12  1  0
 11 13  2  0
 13 14  1  0
 14 15  1  0
 14 16  2  0
 16 17  1  0
  9 18  1  0
 18 19  1  0
 18 20  2  0
 20 21  1  0
 21 22  2  0
 22 23  1  0
 23 24  2  0
 24 25  1  0
 24 26  1  0
 26 27  1  0
 26 28  2  0
 28 29  1  0
 28 30  1  0
 30 31  1  0
 30 32  2  0
 32 33  1  0
 21 34  1  0
 34 35  1  0
 34  2  2  0
 20  4  1  0
 32 23  1  0
 16 10  1  0
M  CHG  2   3  -1  16   1
M  END
>  <UniqueID>  (38) 
37

>  <SMILES>  (38) 
Fc1ccc(/N=c2\cc[n-]c3ccc(-n4cnc[nH+]4)cc23)cc1Cl

>  <Energy>  (38) 
91.9396040493625

>  <Genealogy>  (38) 
Fc1ccc(N=c2cc[n-]c3ccc(-n4cnc[nH+]4)cc23)cc1Cl (protonated)
Fc1ccc(/N=c2\cc[n-]c3ccc(-n4cnc[nH+]4)cc23)cc1Cl (cis-trans isomerization)
Fc1ccc(/N=c2\cc[n-]c3ccc(-n4cnc[nH+]4)cc23)cc1Cl (3D coordinates assigned)
Fc1ccc(/N=c2\cc[n-]c3ccc(-n4cnc[nH+]4)cc23)cc1Cl (optimized conformer: 91.9396040493625 kcal/mol)

>  <smiles>  (38) 
Fc1ccc(N=c2cc[nH]c3ccc(-n4cncn4)cc23)cc1Cl

>  <score_type>  (38) 
oracle

>  <origin>  (38) 
adg

>  <m_score__min__energy>  (38) 
-10.26

>  <m_primary>  (38) 
energy

$$$$
38:0
     RDKit          3D

 38 40  0  0  1  0  0  0  0  0999 V2000
   -1.7590   25.3300  -27.1960 C   0  0  0  0  0  0  0  0  0  0  0  0
   -3.0470   24.5580  -27.0440 C   0  0  0  0  0  0  0  0  0  0  0  0
   -3.2600   23.6080  -28.2310 C   0  0  0  0  0  0  0  0  0  0  0  0
   -2.5840   24.1660  -29.4700 C   0  0  0  0  0  0  0  0  0  0  0  0
   -3.4940   24.8830  -30.3320 N   0  0  0  0  0  0  0  0  0  0  0  0
   -4.7170   24.5590  -30.4710 C   0  0  0  0  0  0  0  0  0  0  0  0
   -5.6990   25.2950  -29.8940 N   0  0  0  0  0  0  0  0  0  0  0  0
   -6.9730   24.8980  -30.0800 C   0  0  0  0  0  0  0  0  0  0  0  0
   -7.2730   23.8030  -30.8160 N   0  0  0  0  0  0  0  0  0  0  0  0
   -6.3190   23.0550  -31.3990 C   0  0  0  0  0  0  0  0  0  0  0  0
   -5.0080   23.4400  -31.2240 C   0  0  0  0  0  0  0  0  0  0  0  0
   -4.2010   22.5700  -31.8820 N   0  0  0  0  0  0  0  0  0  0  0  0
   -5.0000   21.6550  -32.4580 C   0  0  0  0  0  0  0  0  0  0  0  0
   -6.2880   21.9640  -32.1550 N   0  0  0  0  0  0  0  0  0  0  0  0
   -7.4060   21.2010  -32.6050 C   0  0  2  0  0  0  0  0  0  0  0  0
   -8.6090   21.2710  -31.6760 C   0  0  0  0  0  0  0  0  0  0  0  0
   -9.4300   20.1400  -32.2900 C   0  0  0  0  0  0  0  0  0  0  0  0
   -8.3450   19.1760  -32.6890 C   0  0  0  0  0  0  0  0  0  0  0  0
   -7.1450   19.8350  -32.6510 O   0  0  0  0  0  0  0  0  0  0  0  0
   -1.3565   25.5712  -26.2011 H   0  0  0  0  0  0  0  0  0  0  0  0
   -1.0291   24.7203  -27.7488 H   0  0  0  0  0  0  0  0  0  0  0  0
   -1.9526   26.2611  -27.7488 H   0  0  0  0  0  0  0  0  0  0  0  0
   -3.0070   23.9702  -26.1151 H   0  0  0  0  0  0  0  0  0  0  0  0
   -3.8829   25.2723  -27.0113 H   0  0  0  0  0  0  0  0  0  0  0  0
   -2.8289   22.6245  -27.9924 H   0  0  0  0  0  0  0  0  0  0  0  0
   -4.3383   23.5059  -28.4229 H   0  0  0  0  0  0  0  0  0  0  0  0
   -1.7847   24.8528  -29.1545 H   0  0  0  0  0  0  0  0  0  0  0  0
   -2.1892   23.3139  -30.0427 H   0  0  0  0  0  0  0  0  0  0  0  0
   -5.4380   26.1380  -29.3300 H   0  0  0  0  0  0  0  0  0  0  0  0
   -7.7884   25.4777  -29.6228 H   0  0  0  0  0  0  0  0  0  0  0  0
   -4.6682   20.8029  -33.0694 H   0  0  0  0  0  0  0  0  0  0  0  0
   -7.6057   21.6439  -33.5919 H   0  0  0  0  0  0  0  0  0  0  0  0
   -8.3380   21.0665  -30.6297 H   0  0  0  0  0  0  0  0  0  0  0  0
   -9.1104   22.2481  -31.6141 H   0  0  0  0  0  0  0  0  0  0  0  0
  -10.1154   19.6938  -31.5544 H   0  0  0  0  0  0  0  0  0  0  0  0
  -10.0829   20.4535  -33.1179 H   0  0  0  0  0  0  0  0  0  0  0  0
   -8.3254   18.3282  -31.9884 H   0  0  0  0  0  0  0  0  0  0  0  0
   -8.5338   18.7934  -33.7029 H   0  0  0  0  0  0  0  0  0  0  0  0
  1  2  1  0
  2  3  1  0
  3  4  1  0
  4  5  1  0
  5  6  2  0
  6  7  1  0
  7  8  1  0
  8  9  2  0
  9 10  1  0
 10 11  2  0
 11 12  1  0
 12 13  2  0
 13 14  1  0
 14 15  1  0
 15 16  1  0
 16 17  1  0
 17 18  1  0
 18 19  1  0
 11  6  1  0
 19 15  1  0
 14 10  1  0
  1 20  1  0
  1 21  1  0
  1 22  1  0
  2 23  1  0
  2 24  1  0
  3 25  1  0
  3 26  1  0
  4 27  1  0
  4 28  1  0
  7 29  1  0
  8 30  1  0
 13 31  1  0
 15 32  1  6
 16 33  1  0
 16 34  1  0
 17 35  1  0
 17 36  1  0
 18 37  1  0
 18 38  1  0
M  END
>  <smiles>  (39) 
CCCCN=c1[nH]cnc2c1ncn2C1CCCO1

>  <score_type>  (39) 
oracle

>  <origin>  (39) 
adg

>  <m_score__min__energy>  (39) 
-6.9400000000000004

>  <m_primary>  (39) 
energy

$$$$
39:0
     RDKit          3D

 45 49  0  0  0  0  0  0  0  0999 V2000
   -6.0600   25.5600  -30.9710 O   0  0  0  0  0  0  0  0  0  0  0  0
   -5.0900   24.7590  -30.9410 C   0  0  0  0  0  0  0  0  0  0  0  0
   -3.8360   25.2140  -30.4170 N   0  0  0  0  0  0  0  0  0  0  0  0
   -3.1550   24.6700  -29.2770 C   0  0  0  0  0  0  0  0  0  0  0  0
   -1.7600   24.5810  -29.2930 C   0  0  0  0  0  0  0  0  0  0  0  0
   -1.0810   24.0320  -28.2020 C   0  0  0  0  0  0  0  0  0  0  0  0
   -1.8120   23.5610  -27.1100 C   0  0  0  0  0  0  0  0  0  0  0  0
   -3.1700   23.6310  -27.1180 N   0  0  0  0  0  0  0  0  0  0  0  0
   -3.8520   24.1630  -28.1670 C   0  0  0  0  0  0  0  0  0  0  0  0
   -5.2890   23.3650  -31.3800 C   0  0  0  0  0  0  0  0  0  0  0  0
   -4.2680   22.5350  -31.8800 C   0  0  0  0  0  0  0  0  0  0  0  0
   -4.8040   21.3080  -32.2510 C   0  0  0  0  0  0  0  0  0  0  0  0
   -6.1130   21.1850  -32.0940 C   0  0  0  0  0  0  0  0  0  0  0  0
   -6.5920   20.0640  -32.6480 N   0  0  0  0  0  0  0  0  0  0  0  0
   -5.4460   19.4890  -33.1260 C   0  0  0  0  0  0  0  0  0  0  0  0
   -4.3180   20.2350  -32.8940 N   0  0  0  0  0  0  0  0  0  0  0  0
   -2.9830   20.1310  -33.4850 C   0  0  0  0  0  0  0  0  0  0  0  0
   -2.4160   18.7190  -33.3800 C   0  0  0  0  0  0  0  0  0  0  0  0
   -3.0680   17.7710  -34.3840 C   0  0  0  0  0  0  0  0  0  0  0  0
   -4.3660   17.3010  -33.8940 N   0  0  0  0  0  0  0  0  0  0  0  0
   -4.5710   15.9020  -33.6120 C   0  0  0  0  0  0  0  0  0  0  0  0
   -4.6160   15.4540  -32.2800 C   0  0  0  0  0  0  0  0  0  0  0  0
   -4.8230   14.1010  -31.9970 C   0  0  0  0  0  0  0  0  0  0  0  0
   -4.9930   13.1860  -33.0390 C   0  0  0  0  0  0  0  0  0  0  0  0
   -4.9600   13.6230  -34.3660 C   0  0  0  0  0  0  0  0  0  0  0  0
   -4.7520   14.9760  -34.6530 C   0  0  0  0  0  0  0  0  0  0  0  0
   -5.4960   18.1870  -33.8230 C   0  0  0  0  0  0  0  0  0  0  0  0
   -6.6080   17.7930  -34.2700 O   0  0  0  0  0  0  0  0  0  0  0  0
   -6.8130   22.5720  -31.4820 S   0  0  0  0  0  0  0  0  0  0  0  0
   -1.1963   24.9435  -30.1652 H   0  0  0  0  0  0  0  0  0  0  0  0
    0.0173   23.9717  -28.2037 H   0  0  0  0  0  0  0  0  0  0  0  0
   -1.2890   23.1328  -26.2422 H   0  0  0  0  0  0  0  0  0  0  0  0
   -4.9513   24.1966  -28.1468 H   0  0  0  0  0  0  0  0  0  0  0  0
   -3.2076   22.8151  -31.9642 H   0  0  0  0  0  0  0  0  0  0  0  0
   -3.0428   20.4109  -34.5471 H   0  0  0  0  0  0  0  0  0  0  0  0
   -2.3143   20.8060  -32.9307 H   0  0  0  0  0  0  0  0  0  0  0  0
   -1.3339   18.7543  -33.5743 H   0  0  0  0  0  0  0  0  0  0  0  0
   -2.6234   18.3412  -32.3679 H   0  0  0  0  0  0  0  0  0  0  0  0
   -3.2134   18.3006  -35.3371 H   0  0  0  0  0  0  0  0  0  0  0  0
   -2.4096   16.9009  -34.5238 H   0  0  0  0  0  0  0  0  0  0  0  0
   -4.4877   16.1719  -31.4565 H   0  0  0  0  0  0  0  0  0  0  0  0
   -4.8521   13.7563  -30.9528 H   0  0  0  0  0  0  0  0  0  0  0  0
   -5.1529   12.1210  -32.8148 H   0  0  0  0  0  0  0  0  0  0  0  0
   -5.0977   12.9023  -35.1855 H   0  0  0  0  0  0  0  0  0  0  0  0
   -4.7300   15.3167  -35.6987 H   0  0  0  0  0  0  0  0  0  0  0  0
  1  2  2  0
  2  3  1  0
  3  4  1  0
  4  5  2  0
  5  6  1  0
  6  7  2  0
  7  8  1  0
  8  9  2  0
  2 10  1  0
 10 11  2  0
 11 12  1  0
 12 13  2  0
 13 14  1  0
 14 15  2  0
 15 16  1  0
 16 17  1  0
 17 18  1  0
 18 19  1  0
 19 20  1  0
 20 21  1  0
 21 22  2  0
 22 23  1  0
 23 24  2  0
 24 25  1  0
 25 26  2  0
 20 27  1  0
 27 28  2  0
 13 29  1  0
  9  4  1  0
 29 10  1  0
 16 12  1  0
 26 21  1  0
 27 15  1  0
  5 30  1  0
  6 31  1  0
  7 32  1  0
  9 33  1  0
 11 34  1  0
 17 35  1  0
 17 36  1  0
 18 37  1  0
 18 38  1  0
 19 39  1  0
 19 40  1  0
 22 41  1  0
 23 42  1  0
 24 43  1  0
 25 44  1  0
 26 45  1  0
M  CHG  1   3  -1
M  END
>  <UniqueID>  (40) 
38

>  <SMILES>  (40) 
O=C([N-]c1cccnc1)c1cc2c(nc3n2CCCN(c2ccccc2)C3=O)s1

>  <Energy>  (40) 
149.29486318621275

>  <Genealogy>  (40) 
O=C([N-]c1cccnc1)c1cc2c(nc3n2CCCN(c2ccccc2)C3=O)s1 (protonated)
O=C([N-]c1cccnc1)c1cc2c(nc3n2CCCN(c2ccccc2)C3=O)s1 (3D coordinates assigned)
O=C([N-]c1cccnc1)c1cc2c(nc3n2CCCN(c2ccccc2)C3=O)s1 (nonaromatic ring conformer: 149.29486318621275 kcal/mol)

>  <smiles>  (40) 
O=C(Nc1cccnc1)c1cc2c(nc3n2CCCN(c2ccccc2)C3=O)s1

>  <score_type>  (40) 
oracle

>  <origin>  (40) 
adg

>  <m_score__min__energy>  (40) 
-9.0399999999999991

>  <m_primary>  (40) 
energy

$$$$
40:0
     RDKit          3D

 41 44  0  0  0  0  0  0  0  0999 V2000
   -5.7423   25.2105  -31.7789 H   0  0  0  0  0  0  0  0  0  0  0  0
   -5.1470   24.8500  -30.9270 C   0  0  0  0  0  0  0  0  0  0  0  0
   -3.8870   25.2940  -30.6730 N   0  0  0  0  0  0  0  0  0  0  0  0
   -3.3630   24.7180  -29.5680 C   0  0  0  0  0  0  0  0  0  0  0  0
   -2.1640   25.0020  -29.1510 N   0  0  0  0  0  0  0  0  0  0  0  0
   -1.1840   24.0970  -28.6160 C   0  0  0  0  0  0  0  0  0  0  0  0
    0.0240   24.1490  -28.9720 O   0  0  0  0  0  0  0  0  0  0  0  0
   -1.5980   23.1090  -27.5730 C   0  0  0  0  0  0  0  0  0  0  0  0
   -2.6947   23.0242  -27.5668 H   0  0  0  0  0  0  0  0  0  0  0  0
   -1.1489   22.1317  -27.8037 H   0  0  0  0  0  0  0  0  0  0  0  0
   -1.1280   23.5590  -26.2240 C   0  0  0  0  0  0  0  0  0  0  0  0
   -0.4950   22.7740  -25.2640 C   0  0  0  0  0  0  0  0  0  0  0  0
   -0.3056   21.6947  -25.3604 H   0  0  0  0  0  0  0  0  0  0  0  0
   -0.1460   23.5270  -24.1960 N   0  0  0  0  0  0  0  0  0  0  0  0
    0.3420   23.1990  -23.3330 H   0  0  0  0  0  0  0  0  0  0  0  0
   -0.5410   24.7810  -24.4790 C   0  0  0  0  0  0  0  0  0  0  0  0
   -0.3820   25.9160  -23.6860 C   0  0  0  0  0  0  0  0  0  0  0  0
    0.1014   25.8564  -22.6997 H   0  0  0  0  0  0  0  0  0  0  0  0
   -0.8600   27.1410  -24.1880 C   0  0  0  0  0  0  0  0  0  0  0  0
   -0.7545   28.0562  -23.5869 H   0  0  0  0  0  0  0  0  0  0  0  0
   -1.4740   27.2030  -25.4580 C   0  0  0  0  0  0  0  0  0  0  0  0
   -1.8407   28.1668  -25.8408 H   0  0  0  0  0  0  0  0  0  0  0  0
   -1.6200   26.0410  -26.2370 C   0  0  0  0  0  0  0  0  0  0  0  0
   -2.0960   26.0773  -27.2280 H   0  0  0  0  0  0  0  0  0  0  0  0
   -1.1410   24.8410  -25.7110 C   0  0  0  0  0  0  0  0  0  0  0  0
   -4.4450   23.6310  -28.8590 S   0  0  0  0  0  0  0  0  0  0  0  0
   -5.6240   23.9050  -30.0260 C   0  0  0  0  0  0  0  0  0  0  0  0
   -6.9890   23.2920  -30.0380 C   0  0  0  0  0  0  0  0  0  0  0  0
   -7.2110   22.8799  -29.0426 H   0  0  0  0  0  0  0  0  0  0  0  0
   -7.7273   24.0650  -30.2977 H   0  0  0  0  0  0  0  0  0  0  0  0
   -7.0540   22.1890  -31.0580 C   0  0  0  0  0  0  0  0  0  0  0  0
   -5.8980   21.8040  -31.7600 C   0  0  0  0  0  0  0  0  0  0  0  0
   -4.9381   22.2980  -31.5487 H   0  0  0  0  0  0  0  0  0  0  0  0
   -5.9650   20.7950  -32.7260 C   0  0  0  0  0  0  0  0  0  0  0  0
   -5.0569   20.4919  -33.2677 H   0  0  0  0  0  0  0  0  0  0  0  0
   -7.1850   20.1710  -33.0040 C   0  0  0  0  0  0  0  0  0  0  0  0
   -7.2353   19.3746  -33.7611 H   0  0  0  0  0  0  0  0  0  0  0  0
   -8.3410   20.5590  -32.3200 C   0  0  0  0  0  0  0  0  0  0  0  0
   -9.3009   20.0701  -32.5426 H   0  0  0  0  0  0  0  0  0  0  0  0
   -8.2790   21.5670  -31.3540 C   0  0  0  0  0  0  0  0  0  0  0  0
   -9.1922   21.8746  -30.8235 H   0  0  0  0  0  0  0  0  0  0  0  0
  1  2  1  0
  2  3  1  0
  3  4  1  0
  4  5  2  0
  5  6  1  0
  6  7  2  0
  6  8  1  0
  8  9  1  0
  8 10  1  0
  8 11  1  0
 11 12  2  0
 12 13  1  0
 12 14  1  0
 14 15  1  0
 14 16  1  0
 16 17  2  0
 17 18  1  0
 17 19  1  0
 19 20  1  0
 19 21  2  0
 21 22  1  0
 21 23  1  0
 23 24  1  0
 23 25  2  0
  4 26  1  0
 26 27  1  0
 27 28  1  0
 28 29  1  0
 28 30  1  0
 28 31  1  0
 31 32  2  0
 32 33  1  0
 32 34  1  0
 34 35  1  0
 34 36  2  0
 36 37  1  0
 36 38  1  0
 38 39  1  0
 38 40  2  0
 40 41  1  0
 27  2  2  0
 40 31  1  0
 25 11  1  0
 25 16  1  0
M  CHG  1   3  -1
M  END
>  <UniqueID>  (41) 
39

>  <SMILES>  (41) 
O=C(Cc1c[nH]c2ccccc12)/N=c1/[n-]cc(Cc2ccccc2)s1

>  <Energy>  (41) 
107.24082815755712

>  <Genealogy>  (41) 
O=C(Cc1c[nH]c2ccccc12)N=c1[n-]cc(Cc2ccccc2)s1 (protonated)
O=C(Cc1c[nH]c2ccccc12)/N=c1/[n-]cc(Cc2ccccc2)s1 (cis-trans isomerization)
O=C(Cc1c[nH]c2ccccc12)/N=c1/[n-]cc(Cc2ccccc2)s1 (3D coordinates assigned)
O=C(Cc1c[nH]c2ccccc12)/N=c1/[n-]cc(Cc2ccccc2)s1 (optimized conformer: 107.24082815755712 kcal/mol)

>  <smiles>  (41) 
O=C(Cc1c[nH]c2ccccc12)N=c1[nH]cc(Cc2ccccc2)s1

>  <score_type>  (41) 
oracle

>  <origin>  (41) 
adg

>  <m_score__min__energy>  (41) 
-11.44

>  <m_primary>  (41) 
energy

$$$$
41:0
     RDKit          3D

 26 28  0  0  0  0  0  0  0  0999 V2000
   -3.4880   24.9110  -31.3000 H   0  0  0  0  0  0  0  0  0  0  0  0
   -4.2500   24.3490  -30.8550 N   0  0  0  0  0  0  0  0  0  0  0  0
   -4.6160   23.1930  -31.3130 C   0  0  0  0  0  0  0  0  0  0  0  0
   -3.6740   22.2240  -31.6930 C   0  0  0  0  0  0  0  0  0  0  0  0
   -2.5981   22.4351  -31.6044 H   0  0  0  0  0  0  0  0  0  0  0  0
   -4.1120   20.9810  -32.1880 C   0  0  0  0  0  0  0  0  0  0  0  0
   -3.3701   20.2270  -32.4898 H   0  0  0  0  0  0  0  0  0  0  0  0
   -5.4480   20.6950  -32.3000 N   0  0  0  0  0  0  0  0  0  0  0  0
   -5.8440   19.4000  -32.7900 C   0  0  0  0  0  0  0  0  0  0  0  0
   -6.4370   18.4680  -31.9240 C   0  0  0  0  0  0  0  0  0  0  0  0
   -6.5892   18.7238  -30.8650 H   0  0  0  0  0  0  0  0  0  0  0  0
   -6.8350   17.2160  -32.4020 C   0  0  0  0  0  0  0  0  0  0  0  0
   -7.2938   16.4869  -31.7180 H   0  0  0  0  0  0  0  0  0  0  0  0
   -6.6500   16.8900  -33.7500 C   0  0  0  0  0  0  0  0  0  0  0  0
   -7.0360   15.6760  -34.2120 F   0  0  0  0  0  0  0  0  0  0  0  0
   -6.0700   17.8180  -34.6200 C   0  0  0  0  0  0  0  0  0  0  0  0
   -5.9273   17.5623  -35.6803 H   0  0  0  0  0  0  0  0  0  0  0  0
   -5.6710   19.0710  -34.1440 C   0  0  0  0  0  0  0  0  0  0  0  0
   -5.2203   19.8010  -34.8324 H   0  0  0  0  0  0  0  0  0  0  0  0
   -6.3710   21.6430  -31.9380 C   0  0  0  0  0  0  0  0  0  0  0  0
   -7.7690   21.5220  -32.0330 C   0  0  0  0  0  0  0  0  0  0  0  0
   -8.2774   20.6226  -32.4107 H   0  0  0  0  0  0  0  0  0  0  0  0
   -8.4420   22.6620  -31.5980 C   0  0  0  0  0  0  0  0  0  0  0  0
   -9.5345   22.7882  -31.5754 H   0  0  0  0  0  0  0  0  0  0  0  0
   -7.3120   23.8190  -31.1110 S   0  0  0  0  0  0  0  0  0  0  0  0
   -5.9640   22.8740  -31.4490 C   0  0  0  0  0  0  0  0  0  0  0  0
  1  2  1  0
  2  3  2  0
  3  4  1  0
  4  5  1  0
  4  6  2  0
  6  7  1  0
  6  8  1  0
  8  9  1  0
  9 10  2  0
 10 11  1  0
 10 12  1  0
 12 13  1  0
 12 14  2  0
 14 15  1  0
 14 16  1  0
 16 17  1  0
 16 18  2  0
 18 19  1  0
  8 20  1  0
 20 21  1  0
 21 22  1  0
 21 23  2  0
 23 24  1  0
 23 25  1  0
 25 26  1  0
 26  3  1  0
 18  9  1  0
 26 20  2  0
M  END
>  <UniqueID>  (42) 
40

>  <SMILES>  (42) 
[H]/N=c1\ccn(-c2ccc(F)cc2)c2ccsc12

>  <Energy>  (42) 
69.4194888288944

>  <Genealogy>  (42) 
[H]/N=c1\ccn(-c2ccc(F)cc2)c2ccsc12 (cis-trans isomerization)
[H]/N=c1\ccn(-c2ccc(F)cc2)c2ccsc12 (3D coordinates assigned)
[H]/N=c1\ccn(-c2ccc(F)cc2)c2ccsc12 (optimized conformer: 69.4194888288944 kcal/mol)

>  <smiles>  (42) 
N=c1ccn(-c2ccc(F)cc2)c2ccsc12

>  <score_type>  (42) 
oracle

>  <origin>  (42) 
adg

>  <m_score__min__energy>  (42) 
-7.1100000000000003

>  <m_primary>  (42) 
energy

$$$$
42:0
     RDKit          3D

 28 28  0  0  0  0  0  0  0  0999 V2000
   -5.7600   18.2900  -32.9370 C   0  0  0  0  0  0  0  0  0  0  0  0
   -6.4840   19.3380  -33.7750 C   0  0  0  0  0  0  0  0  0  0  0  0
   -7.3260   20.1870  -32.9210 N   0  0  0  0  0  0  0  0  0  0  0  0
   -8.7140   19.8010  -32.6280 C   0  0  0  0  0  0  0  0  0  0  0  0
   -8.7500   18.6730  -31.6030 C   0  0  0  0  0  0  0  0  0  0  0  0
   -6.7890   21.4030  -32.3660 C   0  0  0  0  0  0  0  0  0  0  0  0
   -7.6420   22.3690  -31.8130 C   0  0  0  0  0  0  0  0  0  0  0  0
   -7.1220   23.5500  -31.2760 C   0  0  0  0  0  0  0  0  0  0  0  0
   -5.7370   23.7870  -31.2810 C   0  0  0  0  0  0  0  0  0  0  0  0
   -5.2040   25.0040  -30.7260 N   0  0  0  0  0  0  0  0  0  0  0  0
   -5.9470   25.8110  -30.1280 O   0  0  0  0  0  0  0  0  0  0  0  0
   -3.8650   25.2990  -30.8440 O   0  0  0  0  0  0  0  0  0  0  0  0
   -4.8830   22.8170  -31.8350 C   0  0  0  0  0  0  0  0  0  0  0  0
   -5.4050   21.6370  -32.3740 C   0  0  0  0  0  0  0  0  0  0  0  0
   -5.9099   18.5069  -31.8691 H   0  0  0  0  0  0  0  0  0  0  0  0
   -6.1629   17.2930  -33.1687 H   0  0  0  0  0  0  0  0  0  0  0  0
   -4.6849   18.3140  -33.1687 H   0  0  0  0  0  0  0  0  0  0  0  0
   -5.7419   19.9655  -34.2902 H   0  0  0  0  0  0  0  0  0  0  0  0
   -7.1234   18.8268  -34.5097 H   0  0  0  0  0  0  0  0  0  0  0  0
   -9.2548   20.6712  -32.2276 H   0  0  0  0  0  0  0  0  0  0  0  0
   -9.1898   19.4529  -33.5567 H   0  0  0  0  0  0  0  0  0  0  0  0
   -8.7364   19.0986  -30.5888 H   0  0  0  0  0  0  0  0  0  0  0  0
   -9.6675   18.0819  -31.7403 H   0  0  0  0  0  0  0  0  0  0  0  0
   -7.8721   18.0246  -31.7403 H   0  0  0  0  0  0  0  0  0  0  0  0
   -8.7283   22.1960  -31.8018 H   0  0  0  0  0  0  0  0  0  0  0  0
   -7.8024   24.2998  -30.8461 H   0  0  0  0  0  0  0  0  0  0  0  0
   -3.7964   22.9876  -31.8445 H   0  0  0  0  0  0  0  0  0  0  0  0
   -4.7266   20.8872  -32.8071 H   0  0  0  0  0  0  0  0  0  0  0  0
  1  2  1  0
  2  3  1  0
  3  4  1  0
  4  5  1  0
  3  6  1  0
  6  7  2  0
  7  8  1  0
  8  9  2  0
  9 10  1  0
 10 11  2  0
 10 12  1  0
  9 13  1  0
 13 14  2  0
 14  6  1  0
  1 15  1  0
  1 16  1  0
  1 17  1  0
  2 18  1  0
  2 19  1  0
  4 20  1  0
  4 21  1  0
  5 22  1  0
  5 23  1  0
  5 24  1  0
  7 25  1  0
  8 26  1  0
 13 27  1  0
 14 28  1  0
M  CHG  2  10   1  12  -1
M  END
>  <UniqueID>  (43) 
41

>  <SMILES>  (43) 
CCN(CC)c1ccc([N+](=O)[O-])cc1

>  <Energy>  (43) 
24.5783895485418

>  <Genealogy>  (43) 
CCN(CC)c1ccc([N+](=O)[O-])cc1 (3D coordinates assigned)
CCN(CC)c1ccc([N+](=O)[O-])cc1 (optimized conformer: 24.5783895485418 kcal/mol)

>  <smiles>  (43) 
CCN(CC)c1ccc([N+](=O)[O-])cc1

>  <score_type>  (43) 
oracle

>  <origin>  (43) 
adg

>  <m_score__min__energy>  (43) 
-6.6100000000000003

>  <m_primary>  (43) 
energy

$$$$
43:0
     RDKit          3D

 31 33  0  0  0  0  0  0  0  0999 V2000
   -4.3050   25.6650  -30.8420 O   0  0  0  0  0  0  0  0  0  0  0  0
   -4.2870   24.4960  -30.3710 C   0  0  0  0  0  0  0  0  0  0  0  0
   -3.4590   24.2190  -29.1750 C   0  0  0  0  0  0  0  0  0  0  0  0
   -2.1200   23.8060  -29.2990 C   0  0  0  0  0  0  0  0  0  0  0  0
   -1.3460   23.5660  -28.1600 C   0  0  0  0  0  0  0  0  0  0  0  0
   -1.8960   23.7460  -26.8880 C   0  0  0  0  0  0  0  0  0  0  0  0
   -3.2180   24.1730  -26.7540 C   0  0  0  0  0  0  0  0  0  0  0  0
   -3.9960   24.4160  -27.8900 C   0  0  0  0  0  0  0  0  0  0  0  0
   -5.1100   23.4550  -31.0190 C   0  0  0  0  0  0  0  0  0  0  0  0
   -6.4420   23.5980  -31.3930 C   0  0  0  0  0  0  0  0  0  0  0  0
   -7.0010   22.4320  -31.9340 C   0  0  0  0  0  0  0  0  0  0  0  0
   -6.1180   21.3510  -31.9780 C   0  0  0  0  0  0  0  0  0  0  0  0
   -6.4040   19.9840  -32.4880 C   0  0  0  0  0  0  0  0  0  0  0  0
   -5.7150   19.4880  -33.6110 C   0  0  0  0  0  0  0  0  0  0  0  0
   -5.9790   18.2030  -34.0960 C   0  0  0  0  0  0  0  0  0  0  0  0
   -6.9300   17.3980  -33.4680 C   0  0  0  0  0  0  0  0  0  0  0  0
   -7.6190   17.8750  -32.3510 C   0  0  0  0  0  0  0  0  0  0  0  0
   -7.3600   19.1590  -31.8620 C   0  0  0  0  0  0  0  0  0  0  0  0
   -4.6450   21.8690  -31.3380 S   0  0  0  0  0  0  0  0  0  0  0  0
   -1.6795   23.6711  -30.2979 H   0  0  0  0  0  0  0  0  0  0  0  0
   -0.3023   23.2349  -28.2651 H   0  0  0  0  0  0  0  0  0  0  0  0
   -1.2873   23.5512  -25.9927 H   0  0  0  0  0  0  0  0  0  0  0  0
   -3.6488   24.3187  -25.7524 H   0  0  0  0  0  0  0  0  0  0  0  0
   -5.0338   24.7632  -27.7782 H   0  0  0  0  0  0  0  0  0  0  0  0
   -7.0033   24.5367  -31.2754 H   0  0  0  0  0  0  0  0  0  0  0  0
   -8.0398   22.3738  -32.2911 H   0  0  0  0  0  0  0  0  0  0  0  0
   -4.9630   20.1161  -34.1110 H   0  0  0  0  0  0  0  0  0  0  0  0
   -5.4354   17.8260  -34.9749 H   0  0  0  0  0  0  0  0  0  0  0  0
   -7.1368   16.3884  -33.8525 H   0  0  0  0  0  0  0  0  0  0  0  0
   -8.3671   17.2393  -31.8548 H   0  0  0  0  0  0  0  0  0  0  0  0
   -7.9067   19.5282  -30.9818 H   0  0  0  0  0  0  0  0  0  0  0  0
  1  2  2  0
  2  3  1  0
  3  4  2  0
  4  5  1  0
  5  6  2  0
  6  7  1  0
  7  8  2  0
  2  9  1  0
  9 10  2  0
 10 11  1  0
 11 12  2  0
 12 13  1  0
 13 14  2  0
 14 15  1  0
 15 16  2  0
 16 17  1  0
 17 18  2  0
 12 19  1  0
  8  3  1  0
 19  9  1  0
 18 13  1  0
  4 20  1  0
  5 21  1  0
  6 22  1  0
  7 23  1  0
  8 24  1  0
 10 25  1  0
 11 26  1  0
 14 27  1  0
 15 28  1  0
 16 29  1  0
 17 30  1  0
 18 31  1  0
M  END
>  <UniqueID>  (44) 
42

>  <SMILES>  (44) 
O=C(c1ccccc1)c1ccc(-c2ccccc2)s1

>  <Energy>  (44) 
66.86524770038203

>  <Genealogy>  (44) 
O=C(c1ccccc1)c1ccc(-c2ccccc2)s1 (3D coordinates assigned)
O=C(c1ccccc1)c1ccc(-c2ccccc2)s1 (optimized conformer: 66.86524770038203 kcal/mol)

>  <smiles>  (44) 
O=C(c1ccccc1)c1ccc(-c2ccccc2)s1

>  <score_type>  (44) 
oracle

>  <origin>  (44) 
adg

>  <m_score__min__energy>  (44) 
-8.0899999999999999

>  <m_primary>  (44) 
energy

$$$$
44:0
     RDKit          3D

 53 56  0  0  0  0  0  0  0  0999 V2000
   -4.2980   24.5470  -29.3430 C   0  0  0  0  0  0  0  0  0  0  0  0
   -2.9030   24.1640  -28.9310 C   0  0  0  0  0  0  0  0  0  0  0  0
   -2.2500   24.9070  -27.9340 C   0  0  0  0  0  0  0  0  0  0  0  0
   -0.9490   24.5750  -27.5220 C   0  0  0  0  0  0  0  0  0  0  0  0
   -0.2890   25.3420  -26.4960 N   0  0  0  0  0  0  0  0  0  0  0  0
   -0.7240   26.7250  -26.2270 C   0  0  0  0  0  0  0  0  0  0  0  0
   -1.3090   26.8390  -24.8200 C   0  0  0  0  0  0  0  0  0  0  0  0
   -0.1160   26.2690  -23.6280 S   0  0  0  0  0  0  0  0  0  0  0  0
    0.4240   27.5540  -22.6900 O   0  0  0  0  0  0  0  0  0  0  0  0
    1.2500   25.5520  -24.5140 C   0  0  0  0  0  0  0  0  0  0  0  0
    0.7370   24.6780  -25.6650 C   0  0  0  0  0  0  0  0  0  0  0  0
   -0.3080   23.4740  -28.1080 C   0  0  0  0  0  0  0  0  0  0  0  0
   -0.9520   22.7220  -29.0930 C   0  0  0  0  0  0  0  0  0  0  0  0
   -2.2460   23.0590  -29.5200 C   0  0  0  0  0  0  0  0  0  0  0  0
   -2.9150   22.2510  -30.5080 N   0  0  0  0  0  0  0  0  0  0  0  0
   -2.2300   21.6060  -31.5940 C   0  0  0  0  0  0  0  0  0  0  0  0
   -1.0290   21.9010  -31.8460 O   0  0  0  0  0  0  0  0  0  0  0  0
   -2.9360   20.6210  -32.4430 C   0  0  0  0  0  0  0  0  0  0  0  0
   -2.2560   19.8930  -33.4320 C   0  0  0  0  0  0  0  0  0  0  0  0
   -2.9590   18.9790  -34.2150 C   0  0  0  0  0  0  0  0  0  0  0  0
   -4.3250   18.7870  -34.0090 C   0  0  0  0  0  0  0  0  0  0  0  0
   -4.9830   19.5180  -33.0050 C   0  0  0  0  0  0  0  0  0  0  0  0
   -6.4380   19.3600  -32.7450 C   0  0  0  0  0  0  0  0  0  0  0  0
   -6.9750   18.1440  -32.2750 C   0  0  0  0  0  0  0  0  0  0  0  0
   -8.3460   18.0220  -32.0300 C   0  0  0  0  0  0  0  0  0  0  0  0
   -9.1970   19.1090  -32.2410 C   0  0  0  0  0  0  0  0  0  0  0  0
   -8.6770   20.3230  -32.6960 C   0  0  0  0  0  0  0  0  0  0  0  0
   -7.3060   20.4520  -32.9430 C   0  0  0  0  0  0  0  0  0  0  0  0
   -4.2690   20.4110  -32.2630 N   0  0  0  0  0  0  0  0  0  0  0  0
   -4.9120   24.7156  -28.4460 H   0  0  0  0  0  0  0  0  0  0  0  0
   -4.2633   25.4689  -29.9421 H   0  0  0  0  0  0  0  0  0  0  0  0
   -4.7389   23.7367  -29.9421 H   0  0  0  0  0  0  0  0  0  0  0  0
   -2.7647   25.7609  -27.4693 H   0  0  0  0  0  0  0  0  0  0  0  0
    0.1402   27.3998  -26.3153 H   0  0  0  0  0  0  0  0  0  0  0  0
   -1.4984   27.0023  -26.9573 H   0  0  0  0  0  0  0  0  0  0  0  0
   -1.5606   27.8895  -24.6123 H   0  0  0  0  0  0  0  0  0  0  0  0
   -2.2170   26.2219  -24.7513 H   0  0  0  0  0  0  0  0  0  0  0  0
    1.0130   27.1350  -22.0130 H   0  0  0  0  0  0  0  0  0  0  0  0
    1.8803   26.3560  -24.9218 H   0  0  0  0  0  0  0  0  0  0  0  0
    1.8362   24.9274  -23.8239 H   0  0  0  0  0  0  0  0  0  0  0  0
    1.5892   24.4140  -26.3085 H   0  0  0  0  0  0  0  0  0  0  0  0
    0.2654   23.7924  -25.2141 H   0  0  0  0  0  0  0  0  0  0  0  0
    0.7089   23.2008  -27.7897 H   0  0  0  0  0  0  0  0  0  0  0  0
   -0.4399   21.8566  -29.5388 H   0  0  0  0  0  0  0  0  0  0  0  0
   -3.9560   22.1830  -30.4660 H   0  0  0  0  0  0  0  0  0  0  0  0
   -1.1774   20.0426  -33.5877 H   0  0  0  0  0  0  0  0  0  0  0  0
   -2.4358   18.4084  -34.9964 H   0  0  0  0  0  0  0  0  0  0  0  0
   -4.8832   18.0689  -34.6277 H   0  0  0  0  0  0  0  0  0  0  0  0
   -6.3105   17.2851  -32.0998 H   0  0  0  0  0  0  0  0  0  0  0  0
   -8.7557   17.0668  -31.6699 H   0  0  0  0  0  0  0  0  0  0  0  0
  -10.2755   19.0093  -32.0491 H   0  0  0  0  0  0  0  0  0  0  0  0
   -9.3471   21.1797  -32.8605 H   0  0  0  0  0  0  0  0  0  0  0  0
   -6.9027   21.4132  -33.2944 H   0  0  0  0  0  0  0  0  0  0  0  0
  1  2  1  0
  2  3  2  0
  3  4  1  0
  4  5  1  0
  5  6  1  0
  6  7  1  0
  7  8  1  0
  8  9  1  0
  8 10  1  0
 10 11  1  0
  4 12  2  0
 12 13  1  0
 13 14  2  0
 14 15  1  0
 15 16  1  0
 16 17  2  0
 16 18  1  0
 18 19  2  0
 19 20  1  0
 20 21  2  0
 21 22  1  0
 22 23  1  0
 23 24  2  0
 24 25  1  0
 25 26  2  0
 26 27  1  0
 27 28  2  0
 22 29  2  0
 14  2  1  0
 29 18  1  0
 11  5  1  0
 28 23  1  0
  1 30  1  0
  1 31  1  0
  1 32  1  0
  3 33  1  0
  6 34  1  0
  6 35  1  0
  7 36  1  0
  7 37  1  0
  9 38  1  0
 10 39  1  0
 10 40  1  0
 11 41  1  0
 11 42  1  0
 12 43  1  0
 13 44  1  0
 15 45  1  0
 19 46  1  0
 20 47  1  0
 21 48  1  0
 24 49  1  0
 25 50  1  0
 26 51  1  0
 27 52  1  0
 28 53  1  0
M  CHG  1   8   1
M  END
>  <UniqueID>  (45) 
43

>  <SMILES>  (45) 
Cc1cc(N2CC[S+](O)CC2)ccc1NC(=O)c1cccc(-c2ccccc2)n1

>  <Energy>  (45) 
65.60452640909752

>  <Genealogy>  (45) 
Cc1cc(N2CC[S+](O)CC2)ccc1NC(=O)c1cccc(-c2ccccc2)n1 (protonated)
Cc1cc(N2CC[S+](O)CC2)ccc1NC(=O)c1cccc(-c2ccccc2)n1 (3D coordinates assigned)
Cc1cc(N2CC[S+](O)CC2)ccc1NC(=O)c1cccc(-c2ccccc2)n1 (nonaromatic ring conformer: 65.60452640909752 kcal/mol)

>  <smiles>  (45) 
Cc1cc(N2CC[S+]([O-])CC2)ccc1NC(=O)c1cccc(-c2ccccc2)n1

>  <score_type>  (45) 
oracle

>  <origin>  (45) 
adg

>  <m_score__min__energy>  (45) 
-10.99

>  <m_primary>  (45) 
energy

$$$$
45:0
     RDKit          3D

 41 42  0  0  0  0  0  0  0  0999 V2000
   -7.6965   24.3262  -32.1715 H   0  0  0  0  0  0  0  0  0  0  0  0
   -7.6800   23.3840  -31.6040 C   0  0  0  0  0  0  0  0  0  0  0  0
   -6.6990   23.2760  -30.5080 C   0  0  0  0  0  0  0  0  0  0  0  0
   -5.8500   22.3420  -30.4820 O   0  0  0  0  0  0  0  0  0  0  0  0
   -6.7660   24.1980  -29.4580 O   0  0  0  0  0  0  0  0  0  0  0  0
   -5.9970   25.3970  -29.4150 C   0  0  0  0  0  0  0  0  0  0  0  0
   -5.6201   25.5486  -28.3928 H   0  0  0  0  0  0  0  0  0  0  0  0
   -6.6372   26.2405  -29.7128 H   0  0  0  0  0  0  0  0  0  0  0  0
   -4.8340   25.3120  -30.3630 C   0  0  0  0  0  0  0  0  0  0  0  0
   -5.0580   25.2050  -31.5980 O   0  0  0  0  0  0  0  0  0  0  0  0
   -3.4760   25.2990  -29.9050 N   0  0  0  0  0  0  0  0  0  0  0  0
   -2.7360   24.1130  -29.4740 C   0  0  0  0  0  0  0  0  0  0  0  0
   -1.6692   24.3616  -29.3731 H   0  0  0  0  0  0  0  0  0  0  0  0
   -2.8700   22.9960  -30.5210 C   0  0  0  0  0  0  0  0  0  0  0  0
   -3.9280   22.7053  -30.5998 H   0  0  0  0  0  0  0  0  0  0  0  0
   -2.4956   23.3779  -31.4823 H   0  0  0  0  0  0  0  0  0  0  0  0
   -2.0370   21.7560  -30.1360 C   0  0  0  0  0  0  0  0  0  0  0  0
   -2.5401   20.8615  -30.5320 H   0  0  0  0  0  0  0  0  0  0  0  0
   -1.0335   21.8933  -30.5651 H   0  0  0  0  0  0  0  0  0  0  0  0
   -1.8610   21.5840  -28.6130 C   0  0  0  0  0  0  0  0  0  0  0  0
   -1.7518   20.5134  -28.3850 H   0  0  0  0  0  0  0  0  0  0  0  0
   -0.9663   22.1447  -28.3047 H   0  0  0  0  0  0  0  0  0  0  0  0
   -3.0630   22.1370  -27.8400 C   0  0  0  0  0  0  0  0  0  0  0  0
   -3.9665   21.5916  -28.1503 H   0  0  0  0  0  0  0  0  0  0  0  0
   -2.8674   22.0033  -26.7658 H   0  0  0  0  0  0  0  0  0  0  0  0
   -3.2750   23.6440  -28.1030 C   0  0  0  0  0  0  0  0  0  0  0  0
   -4.3536   23.8562  -28.0619 H   0  0  0  0  0  0  0  0  0  0  0  0
   -2.7126   24.1893  -27.3307 H   0  0  0  0  0  0  0  0  0  0  0  0
   -8.5550   22.4330  -31.9700 C   0  0  0  0  0  0  0  0  0  0  0  0
   -9.6061   22.7339  -32.0907 H   0  0  0  0  0  0  0  0  0  0  0  0
   -8.2220   21.0150  -32.2240 C   0  0  0  0  0  0  0  0  0  0  0  0
   -6.9870   20.6940  -32.8090 C   0  0  0  0  0  0  0  0  0  0  0  0
   -6.2971   21.4971  -33.1075 H   0  0  0  0  0  0  0  0  0  0  0  0
   -6.6300   19.3570  -33.0140 C   0  0  0  0  0  0  0  0  0  0  0  0
   -5.6689   19.1116  -33.4894 H   0  0  0  0  0  0  0  0  0  0  0  0
   -7.4940   18.3320  -32.6150 C   0  0  0  0  0  0  0  0  0  0  0  0
   -7.2152   17.2812  -32.7823 H   0  0  0  0  0  0  0  0  0  0  0  0
   -8.7110   18.6430  -32.0040 C   0  0  0  0  0  0  0  0  0  0  0  0
   -9.5410   17.6480  -31.6010 F   0  0  0  0  0  0  0  0  0  0  0  0
   -9.0720   19.9790  -31.7960 C   0  0  0  0  0  0  0  0  0  0  0  0
  -10.0223   20.2195  -31.2969 H   0  0  0  0  0  0  0  0  0  0  0  0
  1  2  1  0
  2  3  1  0
  3  4  2  0
  3  5  1  0
  5  6  1  0
  6  7  1  0
  6  8  1  0
  6  9  1  0
  9 10  2  0
  9 11  1  0
 11 12  1  0
 12 13  1  0
 12 14  1  0
 14 15  1  0
 14 16  1  0
 14 17  1  0
 17 18  1  0
 17 19  1  0
 17 20  1  0
 20 21  1  0
 20 22  1  0
 20 23  1  0
 23 24  1  0
 23 25  1  0
 23 26  1  0
 26 27  1  0
 26 28  1  0
  2 29  2  0
 29 30  1  0
 29 31  1  0
 31 32  2  0
 32 33  1  0
 32 34  1  0
 34 35  1  0
 34 36  2  0
 36 37  1  0
 36 38  1  0
 38 39  1  0
 38 40  2  0
 40 41  1  0
 26 12  1  0
 40 31  1  0
M  CHG  1  11  -1
M  END
>  <UniqueID>  (46) 
44

>  <SMILES>  (46) 
O=C(COC(=O)/C=C\c1cccc(F)c1)[N-]C1CCCCC1

>  <Energy>  (46) 
45.65470048681014

>  <Genealogy>  (46) 
O=C(COC(=O)C=Cc1cccc(F)c1)[N-]C1CCCCC1 (protonated)
O=C(COC(=O)/C=C\c1cccc(F)c1)[N-]C1CCCCC1 (cis-trans isomerization)
O=C(COC(=O)/C=C\c1cccc(F)c1)[N-]C1CCCCC1 (3D coordinates assigned)
O=C(COC(=O)/C=C\c1cccc(F)c1)[N-]C1CCCCC1 (nonaromatic ring conformer: 45.65470048681014 kcal/mol)

>  <smiles>  (46) 
O=C(COC(=O)C=Cc1cccc(F)c1)NC1CCCCC1

>  <score_type>  (46) 
oracle

>  <origin>  (46) 
adg

>  <m_score__min__energy>  (46) 
-9.6799999999999997

>  <m_primary>  (46) 
energy

$$$$
46:0
     RDKit          3D

 44 46  0  0  0  0  0  0  0  0999 V2000
   -5.4720   16.5100  -32.0730 C   0  0  0  0  0  0  0  0  0  0  0  0
   -6.5030   17.2050  -32.9670 C   0  0  0  0  0  0  0  0  0  0  0  0
   -6.1020   17.1550  -34.4450 C   0  0  0  0  0  0  0  0  0  0  0  0
   -6.7490   18.5860  -32.5110 N   0  0  0  0  0  0  0  0  0  0  0  0
   -5.8190   19.6460  -32.7040 C   0  0  0  0  0  0  0  0  0  0  0  0
   -4.6790   19.4620  -33.2110 O   0  0  0  0  0  0  0  0  0  0  0  0
   -6.2940   20.9390  -32.2080 C   0  0  0  0  0  0  0  0  0  0  0  0
   -5.7650   22.1470  -32.4540 C   0  0  0  0  0  0  0  0  0  0  0  0
   -5.7070   23.2530  -31.4790 C   0  0  0  0  0  0  0  0  0  0  0  0
   -6.8970   23.8520  -31.0450 C   0  0  0  0  0  0  0  0  0  0  0  0
   -6.8580   24.9230  -30.1490 C   0  0  0  0  0  0  0  0  0  0  0  0
   -5.6330   25.4140  -29.6930 C   0  0  0  0  0  0  0  0  0  0  0  0
   -4.4280   24.8420  -30.1440 C   0  0  0  0  0  0  0  0  0  0  0  0
   -3.1680   25.2990  -29.7250 O   0  0  0  0  0  0  0  0  0  0  0  0
   -2.4150   24.7600  -28.6380 C   0  0  0  0  0  0  0  0  0  0  0  0
   -2.3500   23.2580  -28.7280 C   0  0  0  0  0  0  0  0  0  0  0  0
   -3.1160   22.4560  -27.8640 C   0  0  0  0  0  0  0  0  0  0  0  0
   -3.0460   21.0620  -27.9500 C   0  0  0  0  0  0  0  0  0  0  0  0
   -2.2070   20.4600  -28.8920 C   0  0  0  0  0  0  0  0  0  0  0  0
   -1.4340   21.2500  -29.7460 C   0  0  0  0  0  0  0  0  0  0  0  0
   -1.5000   22.6440  -29.6640 C   0  0  0  0  0  0  0  0  0  0  0  0
   -4.4750   23.7750  -31.0490 C   0  0  0  0  0  0  0  0  0  0  0  0
   -7.7630   20.7490  -31.2020 S   0  0  0  0  0  0  0  0  0  0  0  0
   -7.9360   19.0930  -31.8820 C   0  0  0  0  0  0  0  0  0  0  0  0
   -9.4280   18.5740  -32.3080 S   0  0  0  0  0  0  0  0  0  0  0  0
   -5.7272   16.6820  -31.0169 H   0  0  0  0  0  0  0  0  0  0  0  0
   -5.4762   15.4297  -32.2800 H   0  0  0  0  0  0  0  0  0  0  0  0
   -4.4721   16.9191  -32.2800 H   0  0  0  0  0  0  0  0  0  0  0  0
   -7.4492   16.6510  -32.8787 H   0  0  0  0  0  0  0  0  0  0  0  0
   -5.0134   17.0193  -34.5252 H   0  0  0  0  0  0  0  0  0  0  0  0
   -6.6135   16.3137  -34.9354 H   0  0  0  0  0  0  0  0  0  0  0  0
   -6.3913   18.0962  -34.9354 H   0  0  0  0  0  0  0  0  0  0  0  0
   -5.3442   22.3259  -33.4545 H   0  0  0  0  0  0  0  0  0  0  0  0
   -7.8646   23.4779  -31.4108 H   0  0  0  0  0  0  0  0  0  0  0  0
   -7.7957   25.3812  -29.8014 H   0  0  0  0  0  0  0  0  0  0  0  0
   -5.6092   26.2505  -28.9790 H   0  0  0  0  0  0  0  0  0  0  0  0
   -1.3939   25.1680  -28.6687 H   0  0  0  0  0  0  0  0  0  0  0  0
   -2.9085   25.0366  -27.6946 H   0  0  0  0  0  0  0  0  0  0  0  0
   -3.7728   22.9267  -27.1176 H   0  0  0  0  0  0  0  0  0  0  0  0
   -3.6517   20.4387  -27.2758 H   0  0  0  0  0  0  0  0  0  0  0  0
   -2.1555   19.3634  -28.9608 H   0  0  0  0  0  0  0  0  0  0  0  0
   -0.7720   20.7743  -30.4846 H   0  0  0  0  0  0  0  0  0  0  0  0
   -0.8847   23.2623  -30.3342 H   0  0  0  0  0  0  0  0  0  0  0  0
   -3.5379   23.3406  -31.4275 H   0  0  0  0  0  0  0  0  0  0  0  0
  1  2  1  0
  2  3  1  0
  2  4  1  0
  4  5  1  0
  5  6  2  0
  5  7  1  0
  7  8  2  3
  8  9  1  0
  9 10  2  0
 10 11  1  0
 11 12  2  0
 12 13  1  0
 13 14  1  0
 14 15  1  0
 15 16  1  0
 16 17  2  0
 17 18  1  0
 18 19  2  0
 19 20  1  0
 20 21  2  0
 13 22  2  0
  7 23  1  0
 23 24  1  0
 24 25  2  0
 24  4  1  0
 22  9  1  0
 21 16  1  0
  1 26  1  0
  1 27  1  0
  1 28  1  0
  2 29  1  0
  3 30  1  0
  3 31  1  0
  3 32  1  0
  8 33  1  0
 10 34  1  0
 11 35  1  0
 12 36  1  0
 15 37  1  0
 15 38  1  0
 17 39  1  0
 18 40  1  0
 19 41  1  0
 20 42  1  0
 21 43  1  0
 22 44  1  0
M  END
>  <UniqueID>  (47) 
45

>  <SMILES>  (47) 
CC(C)N1C(=O)C(=Cc2cccc(OCc3ccccc3)c2)SC1=S

>  <Energy>  (47) 
70.38589580488286

>  <Genealogy>  (47) 
CC(C)N1C(=O)C(=Cc2cccc(OCc3ccccc3)c2)SC1=S (3D coordinates assigned)
CC(C)N1C(=O)C(=Cc2cccc(OCc3ccccc3)c2)SC1=S (nonaromatic ring conformer: 70.38589580488286 kcal/mol)

>  <smiles>  (47) 
CC(C)N1C(=O)C(=Cc2cccc(OCc3ccccc3)c2)SC1=S

>  <score_type>  (47) 
oracle

>  <origin>  (47) 
adg

>  <m_score__min__energy>  (47) 
-9.5500000000000007

>  <m_primary>  (47) 
energy

$$$$
