0:0
     RDKit          3D

 65 67  0  0  0  0  0  0  0  0999 V2000
   -5.0550   24.3750  -30.0120 C   0  0  0  0  0  0  0  0  0  0  0  0
   -4.9560   22.9530  -29.4590 C   0  0  0  0  0  0  0  0  0  0  0  0
   -3.6040   22.3970  -29.6940 N   0  0  0  0  0  0  0  0  0  0  0  0
   -2.6620   23.4520  -30.1310 C   0  0  0  0  0  0  0  0  0  0  0  0
   -2.0040   24.1030  -28.9220 C   0  0  0  0  0  0  0  0  0  0  0  0
   -3.0950   21.6780  -28.5010 C   0  0  0  0  0  0  0  0  0  0  0  0
   -2.0430   20.6510  -28.9200 C   0  0  0  0  0  0  0  0  0  0  0  0
   -0.9200   21.3200  -29.4580 O   0  0  0  0  0  0  0  0  0  0  0  0
   -0.1150   20.4190  -30.1960 C   0  0  0  0  0  0  0  0  0  0  0  0
   -0.4870   20.4630  -31.6800 C   0  0  0  0  0  0  0  0  0  0  0  0
   -1.9290   20.6960  -31.8440 N   0  0  0  0  0  0  0  0  0  0  0  0
   -2.2370   21.2320  -33.1830 C   0  0  0  0  0  0  0  0  0  0  0  0
   -3.7310   21.5640  -33.3120 C   0  0  0  0  0  0  0  0  0  0  0  0
   -4.4420   21.4050  -32.0300 N   0  0  0  0  0  0  0  0  0  0  0  0
   -5.6610   20.6270  -32.2040 C   0  0  0  0  0  0  0  0  0  0  0  0
   -5.6000   19.2470  -32.5280 C   0  0  0  0  0  0  0  0  0  0  0  0
   -4.3800   18.6210  -32.8830 C   0  0  0  0  0  0  0  0  0  0  0  0
   -4.3300   17.2640  -33.1870 C   0  0  0  0  0  0  0  0  0  0  0  0
   -5.4890   16.5040  -33.1700 C   0  0  0  0  0  0  0  0  0  0  0  0
   -6.7080   17.0930  -32.8450 C   0  0  0  0  0  0  0  0  0  0  0  0
   -6.7890   18.4650  -32.4990 C   0  0  0  0  0  0  0  0  0  0  0  0
   -7.9910   19.0460  -32.1490 N   0  0  0  0  0  0  0  0  0  0  0  0
   -9.1550   18.1930  -31.8200 C   0  0  0  0  0  0  0  0  0  0  0  0
   -8.1050   20.4190  -32.0970 C   0  0  0  0  0  0  0  0  0  0  0  0
   -9.3750   21.0530  -32.0710 C   0  0  0  0  0  0  0  0  0  0  0  0
   -9.4890   22.4370  -31.9630 C   0  0  0  0  0  0  0  0  0  0  0  0
   -8.3500   23.2260  -31.8930 C   0  0  0  0  0  0  0  0  0  0  0  0
   -7.0890   22.6390  -31.9580 C   0  0  0  0  0  0  0  0  0  0  0  0
   -6.9390   21.2360  -32.0820 C   0  0  0  0  0  0  0  0  0  0  0  0
   -5.1048   25.0902  -29.1777 H   0  0  0  0  0  0  0  0  0  0  0  0
   -4.1697   24.5913  -30.6281 H   0  0  0  0  0  0  0  0  0  0  0  0
   -5.9617   24.4665  -30.6281 H   0  0  0  0  0  0  0  0  0  0  0  0
   -5.1570   22.9705  -28.3777 H   0  0  0  0  0  0  0  0  0  0  0  0
   -5.6947   22.3199  -29.9724 H   0  0  0  0  0  0  0  0  0  0  0  0
   -1.8863   23.0046  -30.7699 H   0  0  0  0  0  0  0  0  0  0  0  0
   -3.2164   24.2176  -30.6936 H   0  0  0  0  0  0  0  0  0  0  0  0
   -2.4309   23.6806  -28.0004 H   0  0  0  0  0  0  0  0  0  0  0  0
   -0.9212   23.9109  -28.9461 H   0  0  0  0  0  0  0  0  0  0  0  0
   -2.1845   25.1878  -28.9461 H   0  0  0  0  0  0  0  0  0  0  0  0
   -2.6425   22.4003  -27.8057 H   0  0  0  0  0  0  0  0  0  0  0  0
   -3.9303   21.1592  -28.0079 H   0  0  0  0  0  0  0  0  0  0  0  0
   -1.7343   20.0634  -28.0428 H   0  0  0  0  0  0  0  0  0  0  0  0
   -2.4685   19.9791  -29.6799 H   0  0  0  0  0  0  0  0  0  0  0  0
    0.9424   20.6986  -30.0791 H   0  0  0  0  0  0  0  0  0  0  0  0
   -0.2809   19.3998  -29.8168 H   0  0  0  0  0  0  0  0  0  0  0  0
    0.0688   21.2771  -32.1683 H   0  0  0  0  0  0  0  0  0  0  0  0
   -0.2287   19.4976  -32.1396 H   0  0  0  0  0  0  0  0  0  0  0  0
   -2.2120   21.4160  -31.1370 H   0  0  0  0  0  0  0  0  0  0  0  0
   -1.6495   22.1472  -33.3481 H   0  0  0  0  0  0  0  0  0  0  0  0
   -1.9811   20.4695  -33.9334 H   0  0  0  0  0  0  0  0  0  0  0  0
   -3.8360   22.6054  -33.6502 H   0  0  0  0  0  0  0  0  0  0  0  0
   -4.1743   20.8653  -34.0368 H   0  0  0  0  0  0  0  0  0  0  0  0
   -3.8280   20.9540  -31.3160 H   0  0  0  0  0  0  0  0  0  0  0  0
   -4.6570   22.3400  -31.6190 H   0  0  0  0  0  0  0  0  0  0  0  0
   -3.4565   19.2176  -32.9190 H   0  0  0  0  0  0  0  0  0  0  0  0
   -3.3688   16.7935  -33.4413 H   0  0  0  0  0  0  0  0  0  0  0  0
   -5.4456   15.4323  -33.4140 H   0  0  0  0  0  0  0  0  0  0  0  0
   -7.6235   16.4833  -32.8570 H   0  0  0  0  0  0  0  0  0  0  0  0
   -9.2574   18.1180  -30.7274 H   0  0  0  0  0  0  0  0  0  0  0  0
  -10.0672   18.6380  -32.2441 H   0  0  0  0  0  0  0  0  0  0  0  0
   -9.0054   17.1891  -32.2441 H   0  0  0  0  0  0  0  0  0  0  0  0
  -10.2859   20.4399  -32.1374 H   0  0  0  0  0  0  0  0  0  0  0  0
  -10.4839   22.9053  -31.9332 H   0  0  0  0  0  0  0  0  0  0  0  0
   -8.4432   24.3168  -31.7860 H   0  0  0  0  0  0  0  0  0  0  0  0
   -6.1935   23.2761  -31.9122 H   0  0  0  0  0  0  0  0  0  0  0  0
  1  2  1  0
  2  3  1  0
  3  4  1  0
  4  5  1  0
  3  6  1  0
  6  7  1  0
  7  8  1  0
  8  9  1  0
  9 10  1  0
 10 11  1  0
 11 12  1  0
 12 13  1  0
 13 14  1  0
 14 15  1  0
 15 16  2  0
 16 17  1  0
 17 18  2  0
 18 19  1  0
 19 20  2  0
 20 21  1  0
 21 22  2  0
 22 23  1  0
 22 24  1  0
 24 25  2  0
 25 26  1  0
 26 27  2  0
 27 28  1  0
 28 29  2  0
 29 15  1  0
 21 16  1  0
 29 24  1  0
  1 30  1  0
  1 31  1  0
  1 32  1  0
  2 33  1  0
  2 34  1  0
  4 35  1  0
  4 36  1  0
  5 37  1  0
  5 38  1  0
  5 39  1  0
  6 40  1  0
  6 41  1  0
  7 42  1  0
  7 43  1  0
  9 44  1  0
  9 45  1  0
 10 46  1  0
 10 47  1  0
 11 48  1  0
 12 49  1  0
 12 50  1  0
 13 51  1  0
 13 52  1  0
 14 53  1  0
 14 54  1  0
 17 55  1  0
 18 56  1  0
 19 57  1  0
 20 58  1  0
 23 59  1  0
 23 60  1  0
 23 61  1  0
 25 62  1  0
 26 63  1  0
 27 64  1  0
 28 65  1  0
M  CHG  2  14   1  22   1
M  END
>  <UniqueID>  (1) 
1

>  <SMILES>  (1) 
CCN(CC)CCOCCNCC[NH2+]c1c2ccccc2[n+](C)c2ccccc12

>  <Energy>  (1) 
90.20498769122615

>  <Genealogy>  (1) 
CCN(CC)CCOCCNCC[NH2+]c1c2ccccc2[n+](C)c2ccccc12 (protonated)
CCN(CC)CCOCCNCC[NH2+]c1c2ccccc2[n+](C)c2ccccc12 (3D coordinates assigned)
CCN(CC)CCOCCNCC[NH2+]c1c2ccccc2[n+](C)c2ccccc12 (optimized conformer: 90.20498769122615 kcal/mol)

>  <smiles>  (1) 
CCN(CC)CCOCCNCCNc1c2ccccc2[n+](C)c2ccccc12

>  <score_type>  (1) 
oracle

>  <origin>  (1) 
adg

>  <m_score__min__energy>  (1) 
-8.75

>  <m_primary>  (1) 
energy

$$$$
1:0
     RDKit          3D

 50 53  0  0  0  0  0  0  0  0999 V2000
   -6.9390   24.6140  -29.7960 C   0  0  0  0  0  0  0  0  0  0  0  0
   -6.3940   23.7310  -30.9160 C   0  0  0  0  0  0  0  0  0  0  0  0
   -4.9820   24.0720  -31.2010 N   0  0  0  0  0  0  0  0  0  0  0  0
   -4.6030   25.2990  -30.4790 C   0  0  0  0  0  0  0  0  0  0  0  0
   -4.0700   22.9590  -30.8500 C   0  0  0  0  0  0  0  0  0  0  0  0
   -3.6410   22.2130  -32.1240 C   0  0  0  0  0  0  0  0  0  0  0  0
   -4.7590   22.0230  -33.0700 N   0  0  0  0  0  0  0  0  0  0  0  0
   -5.2340   20.6500  -33.0960 C   0  0  0  0  0  0  0  0  0  0  0  0
   -6.5610   20.2970  -32.7300 C   0  0  0  0  0  0  0  0  0  0  0  0
   -7.4990   21.2700  -32.3140 C   0  0  0  0  0  0  0  0  0  0  0  0
   -8.7840   20.9050  -31.9210 C   0  0  0  0  0  0  0  0  0  0  0  0
   -9.1650   19.5690  -31.9290 C   0  0  0  0  0  0  0  0  0  0  0  0
   -8.2720   18.5890  -32.3550 C   0  0  0  0  0  0  0  0  0  0  0  0
   -6.9660   18.9240  -32.7920 C   0  0  0  0  0  0  0  0  0  0  0  0
   -6.0990   17.9520  -33.2640 N   0  0  0  0  0  0  0  0  0  0  0  0
   -6.6310   16.6560  -33.7220 C   0  0  0  0  0  0  0  0  0  0  0  0
   -4.7700   18.2710  -33.4400 C   0  0  0  0  0  0  0  0  0  0  0  0
   -4.3650   19.6070  -33.4320 C   0  0  0  0  0  0  0  0  0  0  0  0
   -2.7330   19.7230  -33.8520 S   0  0  0  0  0  0  0  0  0  0  0  0
   -2.4970   18.0700  -33.9730 C   0  0  0  0  0  0  0  0  0  0  0  0
   -1.2940   17.4190  -34.2360 C   0  0  0  0  0  0  0  0  0  0  0  0
   -1.2680   16.0220  -34.1780 C   0  0  0  0  0  0  0  0  0  0  0  0
   -2.4240   15.3090  -33.8260 C   0  0  0  0  0  0  0  0  0  0  0  0
   -3.6260   15.9830  -33.5580 C   0  0  0  0  0  0  0  0  0  0  0  0
   -3.6790   17.3860  -33.6850 C   0  0  0  0  0  0  0  0  0  0  0  0
   -6.6703   24.1787  -28.8222 H   0  0  0  0  0  0  0  0  0  0  0  0
   -6.5054   25.6215  -29.8794 H   0  0  0  0  0  0  0  0  0  0  0  0
   -8.0340   24.6780  -29.8794 H   0  0  0  0  0  0  0  0  0  0  0  0
   -6.4575   22.6764  -30.6096 H   0  0  0  0  0  0  0  0  0  0  0  0
   -6.9916   23.8973  -31.8244 H   0  0  0  0  0  0  0  0  0  0  0  0
   -4.6587   25.1188  -29.3953 H   0  0  0  0  0  0  0  0  0  0  0  0
   -3.5755   25.5821  -30.7513 H   0  0  0  0  0  0  0  0  0  0  0  0
   -5.2918   26.1123  -30.7513 H   0  0  0  0  0  0  0  0  0  0  0  0
   -3.1793   23.3623  -30.3460 H   0  0  0  0  0  0  0  0  0  0  0  0
   -4.5921   22.2605  -30.1795 H   0  0  0  0  0  0  0  0  0  0  0  0
   -2.8507   22.7927  -32.6233 H   0  0  0  0  0  0  0  0  0  0  0  0
   -3.2830   21.2170  -31.8243 H   0  0  0  0  0  0  0  0  0  0  0  0
   -4.4640   22.3390  -34.0230 H   0  0  0  0  0  0  0  0  0  0  0  0
   -5.5460   22.6610  -32.8120 H   0  0  0  0  0  0  0  0  0  0  0  0
   -7.2092   22.3311  -32.3007 H   0  0  0  0  0  0  0  0  0  0  0  0
   -9.5000   21.6772  -31.6031 H   0  0  0  0  0  0  0  0  0  0  0  0
  -10.1747   19.2845  -31.5980 H   0  0  0  0  0  0  0  0  0  0  0  0
   -8.5862   17.5348  -32.3523 H   0  0  0  0  0  0  0  0  0  0  0  0
   -6.8857   16.0355  -32.8502 H   0  0  0  0  0  0  0  0  0  0  0  0
   -7.5330   16.8237  -34.3288 H   0  0  0  0  0  0  0  0  0  0  0  0
   -5.8713   16.1416  -34.3288 H   0  0  0  0  0  0  0  0  0  0  0  0
   -0.3867   17.9897  -34.4832 H   0  0  0  0  0  0  0  0  0  0  0  0
   -0.3387   15.4806  -34.4090 H   0  0  0  0  0  0  0  0  0  0  0  0
   -2.3881   14.2116  -33.7594 H   0  0  0  0  0  0  0  0  0  0  0  0
   -4.5200   15.4204  -33.2511 H   0  0  0  0  0  0  0  0  0  0  0  0
  1  2  1  0
  2  3  1  0
  3  4  1  0
  3  5  1  0
  5  6  1  0
  6  7  1  0
  7  8  1  0
  8  9  2  0
  9 10  1  0
 10 11  2  0
 11 12  1  0
 12 13  2  0
 13 14  1  0
 14 15  2  0
 15 16  1  0
 15 17  1  0
 17 18  2  0
 18 19  1  0
 19 20  1  0
 20 21  2  0
 21 22  1  0
 22 23  2  0
 23 24  1  0
 24 25  2  0
 18  8  1  0
 25 20  1  0
 14  9  1  0
 25 17  1  0
  1 26  1  0
  1 27  1  0
  1 28  1  0
  2 29  1  0
  2 30  1  0
  4 31  1  0
  4 32  1  0
  4 33  1  0
  5 34  1  0
  5 35  1  0
  6 36  1  0
  6 37  1  0
  7 38  1  0
  7 39  1  0
 10 40  1  0
 11 41  1  0
 12 42  1  0
 13 43  1  0
 16 44  1  0
 16 45  1  0
 16 46  1  0
 21 47  1  0
 22 48  1  0
 23 49  1  0
 24 50  1  0
M  CHG  2   7   1  15   1
M  END
>  <UniqueID>  (2) 
2

>  <SMILES>  (2) 
CCN(C)CC[NH2+]c1c2ccccc2[n+](C)c2c1sc1ccccc12

>  <Energy>  (2) 
112.05715700980016

>  <Genealogy>  (2) 
CCN(C)CC[NH2+]c1c2ccccc2[n+](C)c2c1sc1ccccc12 (protonated)
CCN(C)CC[NH2+]c1c2ccccc2[n+](C)c2c1sc1ccccc12 (3D coordinates assigned)
CCN(C)CC[NH2+]c1c2ccccc2[n+](C)c2c1sc1ccccc12 (optimized conformer: 112.05715700980016 kcal/mol)

>  <smiles>  (2) 
CCN(C)CCNc1c2ccccc2[n+](C)c2c1sc1ccccc12

>  <score_type>  (2) 
oracle

>  <origin>  (2) 
adg

>  <m_score__min__energy>  (2) 
-8.0700000000000003

>  <m_primary>  (2) 
energy

$$$$
2:0
     RDKit          3D

 46 48  0  0  0  0  0  0  0  0999 V2000
   -4.9025   23.4350  -32.7854 H   0  0  0  0  0  0  0  0  0  0  0  0
   -5.2430   22.8750  -31.9020 C   0  0  0  0  0  0  0  0  0  0  0  0
   -4.4830   22.9300  -30.8010 C   0  0  0  0  0  0  0  0  0  0  0  0
   -4.1020   21.7900  -30.0890 O   0  0  0  0  0  0  0  0  0  0  0  0
   -3.3180   22.2100  -29.0170 C   0  0  0  0  0  0  0  0  0  0  0  0
   -2.7310   21.4060  -28.0440 C   0  0  0  0  0  0  0  0  0  0  0  0
   -2.8632   20.3141  -28.0584 H   0  0  0  0  0  0  0  0  0  0  0  0
   -1.9650   22.0270  -27.0430 C   0  0  0  0  0  0  0  0  0  0  0  0
   -1.4907   21.4124  -26.2637 H   0  0  0  0  0  0  0  0  0  0  0  0
   -1.7950   23.4310  -27.0230 C   0  0  0  0  0  0  0  0  0  0  0  0
   -1.0190   23.9840  -25.9920 O   0  0  0  0  0  0  0  0  0  0  0  0
   -0.7120   25.3690  -25.8350 C   0  0  0  0  0  0  0  0  0  0  0  0
   -1.4177   25.9595  -26.4377 H   0  0  0  0  0  0  0  0  0  0  0  0
    0.3247   25.5264  -26.1673 H   0  0  0  0  0  0  0  0  0  0  0  0
   -0.8140   25.8220  -24.3630 C   0  0  0  0  0  0  0  0  0  0  0  0
   -1.3077   25.0267  -23.7853 H   0  0  0  0  0  0  0  0  0  0  0  0
   -1.3888   26.7597  -24.3474 H   0  0  0  0  0  0  0  0  0  0  0  0
    0.5100   26.1030  -23.7460 N   0  0  0  0  0  0  0  0  0  0  0  0
    0.6520   25.4020  -22.9800 H   0  0  0  0  0  0  0  0  0  0  0  0
    0.5800   27.4970  -23.2050 C   0  0  0  0  0  0  0  0  0  0  0  0
    0.0358   27.5351  -22.2498 H   0  0  0  0  0  0  0  0  0  0  0  0
    0.1290   28.1727  -23.9467 H   0  0  0  0  0  0  0  0  0  0  0  0
    2.0230   27.9480  -22.9700 C   0  0  0  0  0  0  0  0  0  0  0  0
    2.2168   28.0086  -21.8889 H   0  0  0  0  0  0  0  0  0  0  0  0
    2.7128   27.2226  -23.4261 H   0  0  0  0  0  0  0  0  0  0  0  0
    2.1769   28.9371  -23.4261 H   0  0  0  0  0  0  0  0  0  0  0  0
    1.5830   25.8690  -24.7490 C   0  0  0  0  0  0  0  0  0  0  0  0
    1.1213   25.7527  -25.7406 H   0  0  0  0  0  0  0  0  0  0  0  0
    2.2636   26.7327  -24.7222 H   0  0  0  0  0  0  0  0  0  0  0  0
    2.4060   24.6120  -24.4370 C   0  0  0  0  0  0  0  0  0  0  0  0
    2.4871   24.4881  -23.3470 H   0  0  0  0  0  0  0  0  0  0  0  0
    1.9090   23.7315  -24.8702 H   0  0  0  0  0  0  0  0  0  0  0  0
    3.4118   24.7154  -24.8702 H   0  0  0  0  0  0  0  0  0  0  0  0
   -2.4010   24.2220  -28.0290 C   0  0  0  0  0  0  0  0  0  0  0  0
   -2.2766   25.3149  -28.0408 H   0  0  0  0  0  0  0  0  0  0  0  0
   -3.1590   23.5770  -29.0030 C   0  0  0  0  0  0  0  0  0  0  0  0
   -3.8810   24.1020  -30.1460 C   0  0  0  0  0  0  0  0  0  0  0  0
   -3.8840   25.2980  -30.5390 O   0  0  0  0  0  0  0  0  0  0  0  0
   -6.5020   22.1190  -32.0160 C   0  0  0  0  0  0  0  0  0  0  0  0
   -6.5990   20.8360  -32.5500 C   0  0  0  0  0  0  0  0  0  0  0  0
   -5.7589   20.2101  -32.8854 H   0  0  0  0  0  0  0  0  0  0  0  0
   -8.2250   20.4120  -32.5920 S   0  0  0  0  0  0  0  0  0  0  0  0
   -8.8220   21.8500  -31.9590 C   0  0  0  0  0  0  0  0  0  0  0  0
   -9.8808   22.0839  -31.7742 H   0  0  0  0  0  0  0  0  0  0  0  0
   -7.7460   22.6910  -31.7100 C   0  0  0  0  0  0  0  0  0  0  0  0
   -7.8581   23.7097  -31.3105 H   0  0  0  0  0  0  0  0  0  0  0  0
  1  2  1  0
  2  3  2  0
  3  4  1  0
  4  5  1  0
  5  6  2  0
  6  7  1  0
  6  8  1  0
  8  9  1  0
  8 10  2  0
 10 11  1  0
 11 12  1  0
 12 13  1  0
 12 14  1  0
 12 15  1  0
 15 16  1  0
 15 17  1  0
 15 18  1  0
 18 19  1  0
 18 20  1  0
 20 21  1  0
 20 22  1  0
 20 23  1  0
 23 24  1  0
 23 25  1  0
 23 26  1  0
 18 27  1  0
 27 28  1  0
 27 29  1  0
 27 30  1  0
 30 31  1  0
 30 32  1  0
 30 33  1  0
 10 34  1  0
 34 35  1  0
 34 36  2  0
 36 37  1  0
 37 38  2  0
  2 39  1  0
 39 40  2  0
 40 41  1  0
 40 42  1  0
 42 43  1  0
 43 44  1  0
 43 45  2  0
 45 46  1  0
 37  3  1  0
 45 39  1  0
 36  5  1  0
M  CHG  1  18   1
M  END
>  <UniqueID>  (3) 
3

>  <SMILES>  (3) 
CC[NH+](CC)CCOc1ccc2c(c1)C(=O)/C(=C\c1ccsc1)O2

>  <Energy>  (3) 
113.33460593327976

>  <Genealogy>  (3) 
CC[NH+](CC)CCOc1ccc2c(c1)C(=O)C(=Cc1ccsc1)O2 (protonated)
CC[NH+](CC)CCOc1ccc2c(c1)C(=O)/C(=C\c1ccsc1)O2 (cis-trans isomerization)
CC[NH+](CC)CCOc1ccc2c(c1)C(=O)/C(=C\c1ccsc1)O2 (3D coordinates assigned)
CC[NH+](CC)CCOc1ccc2c(c1)C(=O)/C(=C\c1ccsc1)O2 (nonaromatic ring conformer: 113.33460593327976 kcal/mol)

>  <smiles>  (3) 
CCN(CC)CCOc1ccc2c(c1)C(=O)C(=Cc1ccsc1)O2

>  <score_type>  (3) 
oracle

>  <origin>  (3) 
adg

>  <m_score__min__energy>  (3) 
-7.6200000000000001

>  <m_primary>  (3) 
energy

$$$$
3:0
     RDKit          3D

 50 52  0  0  0  0  0  0  0  0999 V2000
   -6.6620   25.6790  -29.3920 C   0  0  0  0  0  0  0  0  0  0  0  0
   -5.3820   24.9870  -29.8750 C   0  0  0  0  0  0  0  0  0  0  0  0
   -5.1230   23.7170  -29.1440 N   0  0  0  0  0  0  0  0  0  0  0  0
   -3.9040   23.8320  -28.2830 C   0  0  0  0  0  0  0  0  0  0  0  0
   -4.2080   24.5470  -26.9600 C   0  0  0  0  0  0  0  0  0  0  0  0
   -4.9700   22.5960  -30.1080 C   0  0  0  0  0  0  0  0  0  0  0  0
   -4.1440   22.9890  -31.3570 C   0  0  0  0  0  0  0  0  0  0  0  0
   -4.8120   22.5860  -32.5990 N   0  0  0  0  0  0  0  0  0  0  0  0
   -5.3270   21.2550  -32.7940 C   0  0  0  0  0  0  0  0  0  0  0  0
   -4.4660   20.1990  -33.1440 C   0  0  0  0  0  0  0  0  0  0  0  0
   -3.1120   20.4390  -33.4590 C   0  0  0  0  0  0  0  0  0  0  0  0
   -2.2410   19.3830  -33.7090 C   0  0  0  0  0  0  0  0  0  0  0  0
   -2.7050   18.0730  -33.6660 C   0  0  0  0  0  0  0  0  0  0  0  0
   -4.0530   17.8170  -33.4240 C   0  0  0  0  0  0  0  0  0  0  0  0
   -4.9730   18.8740  -33.2090 C   0  0  0  0  0  0  0  0  0  0  0  0
   -6.3260   18.6400  -33.0620 N   0  0  0  0  0  0  0  0  0  0  0  0
   -6.8940   17.3480  -33.5060 C   0  0  0  0  0  0  0  0  0  0  0  0
   -7.1590   19.6420  -32.5970 C   0  0  0  0  0  0  0  0  0  0  0  0
   -8.4840   19.3800  -32.1420 C   0  0  0  0  0  0  0  0  0  0  0  0
   -8.9500   18.1180  -31.9540 F   0  0  0  0  0  0  0  0  0  0  0  0
   -9.3300   20.4260  -31.7750 C   0  0  0  0  0  0  0  0  0  0  0  0
   -8.8850   21.7420  -31.8190 C   0  0  0  0  0  0  0  0  0  0  0  0
   -7.5710   22.0200  -32.1810 C   0  0  0  0  0  0  0  0  0  0  0  0
   -6.6850   20.9820  -32.5370 C   0  0  0  0  0  0  0  0  0  0  0  0
   -6.6807   25.6891  -28.2922 H   0  0  0  0  0  0  0  0  0  0  0  0
   -6.6847   26.7123  -29.7686 H   0  0  0  0  0  0  0  0  0  0  0  0
   -7.5390   25.1321  -29.7686 H   0  0  0  0  0  0  0  0  0  0  0  0
   -5.4819   24.7649  -30.9477 H   0  0  0  0  0  0  0  0  0  0  0  0
   -4.5374   25.6657  -29.6852 H   0  0  0  0  0  0  0  0  0  0  0  0
   -5.9620   23.5060  -28.5520 H   0  0  0  0  0  0  0  0  0  0  0  0
   -3.5261   22.8225  -28.0638 H   0  0  0  0  0  0  0  0  0  0  0  0
   -3.1543   24.4243  -28.8281 H   0  0  0  0  0  0  0  0  0  0  0  0
   -3.9307   23.8949  -26.1186 H   0  0  0  0  0  0  0  0  0  0  0  0
   -3.6291   25.4808  -26.9064 H   0  0  0  0  0  0  0  0  0  0  0  0
   -5.2821   24.7779  -26.9064 H   0  0  0  0  0  0  0  0  0  0  0  0
   -4.4640   21.7618  -29.5999 H   0  0  0  0  0  0  0  0  0  0  0  0
   -5.9763   22.3139  -30.4511 H   0  0  0  0  0  0  0  0  0  0  0  0
   -4.0065   24.0803  -31.3643 H   0  0  0  0  0  0  0  0  0  0  0  0
   -3.1758   22.4696  -31.3047 H   0  0  0  0  0  0  0  0  0  0  0  0
   -5.0140   23.3140  -33.3190 H   0  0  0  0  0  0  0  0  0  0  0  0
   -2.7404   21.4732  -33.5076 H   0  0  0  0  0  0  0  0  0  0  0  0
   -1.1848   19.5847  -33.9408 H   0  0  0  0  0  0  0  0  0  0  0  0
   -2.0069   17.2376  -33.8233 H   0  0  0  0  0  0  0  0  0  0  0  0
   -4.4096   16.7767  -33.3993 H   0  0  0  0  0  0  0  0  0  0  0  0
   -7.1600   16.7429  -32.6267 H   0  0  0  0  0  0  0  0  0  0  0  0
   -7.7943   17.5317  -34.1107 H   0  0  0  0  0  0  0  0  0  0  0  0
   -6.1499   16.8088  -34.1107 H   0  0  0  0  0  0  0  0  0  0  0  0
  -10.3574   20.2079  -31.4482 H   0  0  0  0  0  0  0  0  0  0  0  0
   -9.5718   22.5636  -31.5676 H   0  0  0  0  0  0  0  0  0  0  0  0
   -7.2187   23.0620  -32.1897 H   0  0  0  0  0  0  0  0  0  0  0  0
  1  2  1  0
  2  3  1  0
  3  4  1  0
  4  5  1  0
  3  6  1  0
  6  7  1  0
  7  8  1  0
  8  9  1  0
  9 10  2  0
 10 11  1  0
 11 12  2  0
 12 13  1  0
 13 14  2  0
 14 15  1  0
 15 16  2  0
 16 17  1  0
 16 18  1  0
 18 19  2  0
 19 20  1  0
 19 21  1  0
 21 22  2  0
 22 23  1  0
 23 24  2  0
 24  9  1  0
 15 10  1  0
 24 18  1  0
  1 25  1  0
  1 26  1  0
  1 27  1  0
  2 28  1  0
  2 29  1  0
  3 30  1  0
  4 31  1  0
  4 32  1  0
  5 33  1  0
  5 34  1  0
  5 35  1  0
  6 36  1  0
  6 37  1  0
  7 38  1  0
  7 39  1  0
  8 40  1  0
 11 41  1  0
 12 42  1  0
 13 43  1  0
 14 44  1  0
 17 45  1  0
 17 46  1  0
 17 47  1  0
 21 48  1  0
 22 49  1  0
 23 50  1  0
M  CHG  2   3   1  16   1
M  END
>  <UniqueID>  (4) 
4

>  <SMILES>  (4) 
CC[NH+](CC)CCNc1c2ccccc2[n+](C)c2c(F)cccc12

>  <Energy>  (4) 
85.76151160384832

>  <Genealogy>  (4) 
CC[NH+](CC)CCNc1c2ccccc2[n+](C)c2c(F)cccc12 (protonated)
CC[NH+](CC)CCNc1c2ccccc2[n+](C)c2c(F)cccc12 (3D coordinates assigned)
CC[NH+](CC)CCNc1c2ccccc2[n+](C)c2c(F)cccc12 (optimized conformer: 85.76151160384832 kcal/mol)

>  <smiles>  (4) 
CCN(CC)CCNc1c2ccccc2[n+](C)c2c(F)cccc12

>  <score_type>  (4) 
oracle

>  <origin>  (4) 
adg

>  <m_score__min__energy>  (4) 
-7.04

>  <m_primary>  (4) 
energy

$$$$
4:0
     RDKit          3D

 52 55  0  0  0  0  0  0  0  0999 V2000
   -9.1040   21.1950  -30.8640 C   0  0  0  0  0  0  0  0  0  0  0  0
   -9.5270   21.0350  -32.3190 C   0  0  0  0  0  0  0  0  0  0  0  0
   -9.5100   19.6140  -32.7020 N   0  0  0  0  0  0  0  0  0  0  0  0
   -8.7290   18.7840  -31.7690 C   0  0  0  0  0  0  0  0  0  0  0  0
   -7.6720   17.9290  -32.4970 C   0  0  0  0  0  0  0  0  0  0  0  0
   -7.1220   18.6080  -33.6860 N   0  0  0  0  0  0  0  0  0  0  0  0
   -5.7140   18.9540  -33.5180 C   0  0  0  0  0  0  0  0  0  0  0  0
   -4.6750   18.0520  -33.8880 C   0  0  0  0  0  0  0  0  0  0  0  0
   -4.9330   16.7480  -34.3860 C   0  0  0  0  0  0  0  0  0  0  0  0
   -3.8960   15.9000  -34.7660 C   0  0  0  0  0  0  0  0  0  0  0  0
   -2.5780   16.3180  -34.6630 C   0  0  0  0  0  0  0  0  0  0  0  0
   -2.2890   17.5930  -34.1900 C   0  0  0  0  0  0  0  0  0  0  0  0
   -3.3210   18.4830  -33.8010 C   0  0  0  0  0  0  0  0  0  0  0  0
   -3.0210   19.7520  -33.3580 N   0  0  0  0  0  0  0  0  0  0  0  0
   -1.7520   20.3740  -33.8000 C   0  0  0  0  0  0  0  0  0  0  0  0
   -3.9810   20.5060  -32.7160 C   0  0  0  0  0  0  0  0  0  0  0  0
   -5.3520   20.2070  -32.9420 C   0  0  0  0  0  0  0  0  0  0  0  0
   -6.3220   21.1750  -32.5940 C   0  0  0  0  0  0  0  0  0  0  0  0
   -5.9660   22.3530  -31.9490 C   0  0  0  0  0  0  0  0  0  0  0  0
   -4.6530   22.5580  -31.5330 C   0  0  0  0  0  0  0  0  0  0  0  0
   -4.3380   23.6810  -30.7510 C   0  0  0  0  0  0  0  0  0  0  0  0
   -3.0550   23.8330  -30.2160 C   0  0  0  0  0  0  0  0  0  0  0  0
   -2.7410   24.9730  -29.4100 N   0  0  0  0  0  0  0  0  0  0  0  0
   -2.0960   22.8420  -30.4360 C   0  0  0  0  0  0  0  0  0  0  0  0
   -2.3970   21.7310  -31.2270 C   0  0  0  0  0  0  0  0  0  0  0  0
   -3.6540   21.6070  -31.8590 C   0  0  0  0  0  0  0  0  0  0  0  0
   -9.9285   20.8831  -30.2060 H   0  0  0  0  0  0  0  0  0  0  0  0
   -8.2213   20.5686  -30.6678 H   0  0  0  0  0  0  0  0  0  0  0  0
   -8.8568   22.2487  -30.6678 H   0  0  0  0  0  0  0  0  0  0  0  0
  -10.5443   21.4333  -32.4472 H   0  0  0  0  0  0  0  0  0  0  0  0
   -8.8231   21.5869  -32.9593 H   0  0  0  0  0  0  0  0  0  0  0  0
   -9.1190   19.5230  -33.6690 H   0  0  0  0  0  0  0  0  0  0  0  0
   -8.2188   19.4425  -31.0506 H   0  0  0  0  0  0  0  0  0  0  0  0
   -9.4249   18.1007  -31.2603 H   0  0  0  0  0  0  0  0  0  0  0  0
   -6.8487   17.7155  -31.7995 H   0  0  0  0  0  0  0  0  0  0  0  0
   -8.1630   17.0046  -32.8354 H   0  0  0  0  0  0  0  0  0  0  0  0
   -7.2340   17.9860  -34.5180 H   0  0  0  0  0  0  0  0  0  0  0  0
   -7.7190   19.4180  -33.9490 H   0  0  0  0  0  0  0  0  0  0  0  0
   -5.9730   16.4004  -34.4735 H   0  0  0  0  0  0  0  0  0  0  0  0
   -4.1233   14.8944  -35.1495 H   0  0  0  0  0  0  0  0  0  0  0  0
   -1.7616   15.6413  -34.9553 H   0  0  0  0  0  0  0  0  0  0  0  0
   -1.2403   17.9169  -34.1164 H   0  0  0  0  0  0  0  0  0  0  0  0
   -1.1598   20.6643  -32.9196 H   0  0  0  0  0  0  0  0  0  0  0  0
   -1.1815   19.6534  -34.4044 H   0  0  0  0  0  0  0  0  0  0  0  0
   -1.9720   21.2664  -34.4044 H   0  0  0  0  0  0  0  0  0  0  0  0
   -7.3787   20.9920  -32.8386 H   0  0  0  0  0  0  0  0  0  0  0  0
   -6.7252   23.1277  -31.7660 H   0  0  0  0  0  0  0  0  0  0  0  0
   -5.1050   24.4456  -30.5581 H   0  0  0  0  0  0  0  0  0  0  0  0
   -3.2270   25.1350  -28.5000 H   0  0  0  0  0  0  0  0  0  0  0  0
   -2.0230   25.6650  -29.7200 H   0  0  0  0  0  0  0  0  0  0  0  0
   -1.0978   22.9370  -29.9837 H   0  0  0  0  0  0  0  0  0  0  0  0
   -1.6436   20.9405  -31.3598 H   0  0  0  0  0  0  0  0  0  0  0  0
  1  2  1  0
  2  3  1  0
  3  4  1  0
  4  5  1  0
  5  6  1  0
  6  7  1  0
  7  8  2  0
  8  9  1  0
  9 10  2  0
 10 11  1  0
 11 12  2  0
 12 13  1  0
 13 14  2  0
 14 15  1  0
 14 16  1  0
 16 17  2  0
 17 18  1  0
 18 19  2  0
 19 20  1  0
 20 21  2  0
 21 22  1  0
 22 23  1  0
 22 24  2  0
 24 25  1  0
 25 26  2  0
 17  7  1  0
 26 20  1  0
 13  8  1  0
 26 16  1  0
  1 27  1  0
  1 28  1  0
  1 29  1  0
  2 30  1  0
  2 31  1  0
  3 32  1  0
  4 33  1  0
  4 34  1  0
  5 35  1  0
  5 36  1  0
  6 37  1  0
  6 38  1  0
  9 39  1  0
 10 40  1  0
 11 41  1  0
 12 42  1  0
 15 43  1  0
 15 44  1  0
 15 45  1  0
 18 46  1  0
 19 47  1  0
 21 48  1  0
 23 49  1  0
 23 50  1  0
 24 51  1  0
 25 52  1  0
M  CHG  2   6   1  14   1
M  END
>  <UniqueID>  (5) 
5

>  <SMILES>  (5) 
CCNCC[NH2+]c1c2ccccc2[n+](C)c2c1ccc1cc(N)ccc12

>  <Energy>  (5) 
97.52229709284008

>  <Genealogy>  (5) 
CCNCC[NH2+]c1c2ccccc2[n+](C)c2c1ccc1cc(N)ccc12 (protonated)
CCNCC[NH2+]c1c2ccccc2[n+](C)c2c1ccc1cc(N)ccc12 (3D coordinates assigned)
CCNCC[NH2+]c1c2ccccc2[n+](C)c2c1ccc1cc(N)ccc12 (optimized conformer: 97.52229709284008 kcal/mol)

>  <smiles>  (5) 
CCNCCNc1c2ccccc2[n+](C)c2c1ccc1cc(N)ccc12

>  <score_type>  (5) 
oracle

>  <origin>  (5) 
adg

>  <m_score__min__energy>  (5) 
-8.5299999999999994

>  <m_primary>  (5) 
energy

$$$$
5:0
     RDKit          3D

 64 66  0  0  0  0  0  0  0  0999 V2000
   -7.2130   17.4440  -32.6640 C   0  0  0  0  0  0  0  0  0  0  0  0
   -5.8590   17.4790  -31.9580 C   0  0  0  0  0  0  0  0  0  0  0  0
   -4.7720   17.8670  -32.8880 N   0  0  0  0  0  0  0  0  0  0  0  0
   -5.3410   18.4210  -34.1380 C   0  0  0  0  0  0  0  0  0  0  0  0
   -4.9770   17.5470  -35.3380 C   0  0  0  0  0  0  0  0  0  0  0  0
   -3.8430   16.7380  -33.1620 C   0  0  0  0  0  0  0  0  0  0  0  0
   -2.4000   17.2380  -33.1920 C   0  0  0  0  0  0  0  0  0  0  0  0
   -2.2850   18.3950  -32.3910 O   0  0  0  0  0  0  0  0  0  0  0  0
   -0.9490   18.5520  -31.9630 C   0  0  0  0  0  0  0  0  0  0  0  0
   -0.3070   19.6820  -32.7570 C   0  0  0  0  0  0  0  0  0  0  0  0
   -1.0720   20.8570  -32.5920 O   0  0  0  0  0  0  0  0  0  0  0  0
   -1.7880   21.1290  -33.7790 C   0  0  0  0  0  0  0  0  0  0  0  0
   -3.2960   21.0980  -33.4970 C   0  0  0  0  0  0  0  0  0  0  0  0
   -3.6250   20.5760  -32.1560 N   0  0  0  0  0  0  0  0  0  0  0  0
   -4.4160   21.5220  -31.3720 C   0  0  0  0  0  0  0  0  0  0  0  0
   -5.8380   21.5960  -31.5000 C   0  0  0  0  0  0  0  0  0  0  0  0
   -6.5880   20.6630  -32.2670 C   0  0  0  0  0  0  0  0  0  0  0  0
   -7.9750   20.7460  -32.3580 C   0  0  0  0  0  0  0  0  0  0  0  0
   -8.6610   21.7330  -31.6720 C   0  0  0  0  0  0  0  0  0  0  0  0
   -7.9630   22.6630  -30.9110 C   0  0  0  0  0  0  0  0  0  0  0  0
   -6.5440   22.6420  -30.8370 C   0  0  0  0  0  0  0  0  0  0  0  0
   -5.8590   23.6090  -30.1300 N   0  0  0  0  0  0  0  0  0  0  0  0
   -6.5460   24.8610  -29.7350 C   0  0  0  0  0  0  0  0  0  0  0  0
   -4.5290   23.4260  -29.8170 C   0  0  0  0  0  0  0  0  0  0  0  0
   -3.8900   24.2340  -28.8410 C   0  0  0  0  0  0  0  0  0  0  0  0
   -2.5300   24.1030  -28.5730 C   0  0  0  0  0  0  0  0  0  0  0  0
   -1.7680   25.1250  -27.3660 Cl  0  0  0  0  0  0  0  0  0  0  0  0
   -1.7760   23.1650  -29.2610 C   0  0  0  0  0  0  0  0  0  0  0  0
   -2.3830   22.3270  -30.1930 C   0  0  0  0  0  0  0  0  0  0  0  0
   -3.7710   22.4150  -30.4690 C   0  0  0  0  0  0  0  0  0  0  0  0
   -8.0172   17.4232  -31.9138 H   0  0  0  0  0  0  0  0  0  0  0  0
   -7.3216   18.3396  -33.2933 H   0  0  0  0  0  0  0  0  0  0  0  0
   -7.2752   16.5439  -33.2933 H   0  0  0  0  0  0  0  0  0  0  0  0
   -5.9033   18.2082  -31.1357 H   0  0  0  0  0  0  0  0  0  0  0  0
   -5.6428   16.4706  -31.5755 H   0  0  0  0  0  0  0  0  0  0  0  0
   -6.4361   18.4675  -34.0454 H   0  0  0  0  0  0  0  0  0  0  0  0
   -4.9255   19.4270  -34.2973 H   0  0  0  0  0  0  0  0  0  0  0  0
   -4.5767   16.5857  -34.9835 H   0  0  0  0  0  0  0  0  0  0  0  0
   -5.8753   17.3678  -35.9471 H   0  0  0  0  0  0  0  0  0  0  0  0
   -4.2171   18.0585  -35.9471 H   0  0  0  0  0  0  0  0  0  0  0  0
   -3.9487   15.9804  -32.3715 H   0  0  0  0  0  0  0  0  0  0  0  0
   -4.0909   16.2981  -34.1392 H   0  0  0  0  0  0  0  0  0  0  0  0
   -1.7327   16.4550  -32.8027 H   0  0  0  0  0  0  0  0  0  0  0  0
   -2.1177   17.4798  -34.2273 H   0  0  0  0  0  0  0  0  0  0  0  0
   -0.9310   18.7973  -30.8908 H   0  0  0  0  0  0  0  0  0  0  0  0
   -0.3924   17.6176  -32.1273 H   0  0  0  0  0  0  0  0  0  0  0  0
    0.7159   19.8543  -32.3908 H   0  0  0  0  0  0  0  0  0  0  0  0
   -0.2702   19.4111  -33.8225 H   0  0  0  0  0  0  0  0  0  0  0  0
   -1.5074   22.1241  -34.1545 H   0  0  0  0  0  0  0  0  0  0  0  0
   -1.5443   20.3654  -34.5324 H   0  0  0  0  0  0  0  0  0  0  0  0
   -3.6885   22.1223  -33.5797 H   0  0  0  0  0  0  0  0  0  0  0  0
   -3.7529   20.4204  -34.2333 H   0  0  0  0  0  0  0  0  0  0  0  0
   -2.7430   20.3440  -31.6480 H   0  0  0  0  0  0  0  0  0  0  0  0
   -4.0580   19.6380  -32.2530 H   0  0  0  0  0  0  0  0  0  0  0  0
   -6.0611   19.8580  -32.8002 H   0  0  0  0  0  0  0  0  0  0  0  0
   -8.5276   20.0243  -32.9775 H   0  0  0  0  0  0  0  0  0  0  0  0
   -9.7585   21.7813  -31.7291 H   0  0  0  0  0  0  0  0  0  0  0  0
   -8.5202   23.4310  -30.3546 H   0  0  0  0  0  0  0  0  0  0  0  0
   -6.5830   24.9284  -28.6377 H   0  0  0  0  0  0  0  0  0  0  0  0
   -5.9951   25.7241  -30.1370 H   0  0  0  0  0  0  0  0  0  0  0  0
   -7.5699   24.8600  -30.1370 H   0  0  0  0  0  0  0  0  0  0  0  0
   -4.4802   24.9778  -28.2857 H   0  0  0  0  0  0  0  0  0  0  0  0
   -0.6958   23.0824  -29.0703 H   0  0  0  0  0  0  0  0  0  0  0  0
   -1.7736   21.5820  -30.7256 H   0  0  0  0  0  0  0  0  0  0  0  0
  1  2  1  0
  2  3  1  0
  3  4  1  0
  4  5  1  0
  3  6  1  0
  6  7  1  0
  7  8  1  0
  8  9  1  0
  9 10  1  0
 10 11  1  0
 11 12  1  0
 12 13  1  0
 13 14  1  0
 14 15  1  0
 15 16  2  0
 16 17  1  0
 17 18  2  0
 18 19  1  0
 19 20  2  0
 20 21  1  0
 21 22  2  0
 22 23  1  0
 22 24  1  0
 24 25  2  0
 25 26  1  0
 26 27  1  0
 26 28  2  0
 28 29  1  0
 29 30  2  0
 30 15  1  0
 21 16  1  0
 30 24  1  0
  1 31  1  0
  1 32  1  0
  1 33  1  0
  2 34  1  0
  2 35  1  0
  4 36  1  0
  4 37  1  0
  5 38  1  0
  5 39  1  0
  5 40  1  0
  6 41  1  0
  6 42  1  0
  7 43  1  0
  7 44  1  0
  9 45  1  0
  9 46  1  0
 10 47  1  0
 10 48  1  0
 12 49  1  0
 12 50  1  0
 13 51  1  0
 13 52  1  0
 14 53  1  0
 14 54  1  0
 17 55  1  0
 18 56  1  0
 19 57  1  0
 20 58  1  0
 23 59  1  0
 23 60  1  0
 23 61  1  0
 25 62  1  0
 28 63  1  0
 29 64  1  0
M  CHG  2  14   1  22   1
M  END
>  <UniqueID>  (6) 
6

>  <SMILES>  (6) 
CCN(CC)CCOCCOCC[NH2+]c1c2ccccc2[n+](C)c2cc(Cl)ccc12

>  <Energy>  (6) 
89.68700955438621

>  <Genealogy>  (6) 
CCN(CC)CCOCCOCC[NH2+]c1c2ccccc2[n+](C)c2cc(Cl)ccc12 (protonated)
CCN(CC)CCOCCOCC[NH2+]c1c2ccccc2[n+](C)c2cc(Cl)ccc12 (3D coordinates assigned)
CCN(CC)CCOCCOCC[NH2+]c1c2ccccc2[n+](C)c2cc(Cl)ccc12 (optimized conformer: 89.68700955438621 kcal/mol)

>  <smiles>  (6) 
CCN(CC)CCOCCOCCNc1c2ccccc2[n+](C)c2cc(Cl)ccc12

>  <score_type>  (6) 
oracle

>  <origin>  (6) 
adg

>  <m_score__min__energy>  (6) 
-8.5800000000000001

>  <m_primary>  (6) 
energy

$$$$
6:0
     RDKit          3D

 69 72  0  0  0  0  0  0  0  0999 V2000
   -1.5940   27.7710  -37.5980 C   0  0  0  0  0  0  0  0  0  0  0  0
   -0.8750   26.4580  -37.3060 C   0  0  0  0  0  0  0  0  0  0  0  0
   -0.3830   26.4500  -35.9040 N   0  0  0  0  0  0  0  0  0  0  0  0
   -0.2090   27.8030  -35.3280 C   0  0  0  0  0  0  0  0  0  0  0  0
   -1.2410   28.0910  -34.2410 C   0  0  0  0  0  0  0  0  0  0  0  0
    0.8110   25.5890  -35.7150 C   0  0  0  0  0  0  0  0  0  0  0  0
    0.6920   24.1770  -36.3290 C   0  0  0  0  0  0  0  0  0  0  0  0
    0.7660   23.1660  -35.3400 O   0  0  0  0  0  0  0  0  0  0  0  0
    0.1680   21.9590  -35.7770 C   0  0  0  0  0  0  0  0  0  0  0  0
   -0.1530   21.0450  -34.5900 C   0  0  0  0  0  0  0  0  0  0  0  0
   -1.4810   21.2610  -34.1650 O   0  0  0  0  0  0  0  0  0  0  0  0
   -1.5050   21.5600  -32.7830 C   0  0  0  0  0  0  0  0  0  0  0  0
   -2.9560   21.6060  -32.2950 C   0  0  0  0  0  0  0  0  0  0  0  0
   -3.9140   21.7020  -33.4220 N   0  0  0  0  0  0  0  0  0  0  0  0
   -5.1090   20.9200  -33.1650 C   0  0  0  0  0  0  0  0  0  0  0  0
   -5.1070   19.5410  -33.4120 C   0  0  0  0  0  0  0  0  0  0  0  0
   -6.2230   18.7670  -33.1550 C   0  0  0  0  0  0  0  0  0  0  0  0
   -7.3350   19.2770  -32.5370 N   0  0  0  0  0  0  0  0  0  0  0  0
   -8.3530   18.3680  -31.9850 C   0  0  0  0  0  0  0  0  0  0  0  0
   -7.4320   20.6510  -32.3730 C   0  0  0  0  0  0  0  0  0  0  0  0
   -8.6370   21.2590  -31.9480 C   0  0  0  0  0  0  0  0  0  0  0  0
   -8.7080   22.6310  -31.7150 C   0  0  0  0  0  0  0  0  0  0  0  0
   -7.5910   23.4320  -31.9100 C   0  0  0  0  0  0  0  0  0  0  0  0
   -6.3990   22.8770  -32.3720 C   0  0  0  0  0  0  0  0  0  0  0  0
   -6.3020   21.4930  -32.6420 C   0  0  0  0  0  0  0  0  0  0  0  0
   -5.9180   17.3880  -33.5680 C   0  0  0  0  0  0  0  0  0  0  0  0
   -6.7340   16.2570  -33.7260 C   0  0  0  0  0  0  0  0  0  0  0  0
   -6.1600   15.0710  -34.2110 C   0  0  0  0  0  0  0  0  0  0  0  0
   -4.8020   15.0340  -34.5760 C   0  0  0  0  0  0  0  0  0  0  0  0
   -4.0180   16.1920  -34.4850 C   0  0  0  0  0  0  0  0  0  0  0  0
   -4.5980   17.3600  -33.9880 C   0  0  0  0  0  0  0  0  0  0  0  0
   -3.9670   18.7100  -33.9290 C   0  0  0  0  0  0  0  0  0  0  0  0
   -1.8622   28.2608  -36.6503 H   0  0  0  0  0  0  0  0  0  0  0  0
   -0.9314   28.4310  -38.1772 H   0  0  0  0  0  0  0  0  0  0  0  0
   -2.5069   27.5682  -38.1772 H   0  0  0  0  0  0  0  0  0  0  0  0
   -1.5726   25.6201  -37.4522 H   0  0  0  0  0  0  0  0  0  0  0  0
   -0.0197   26.3544  -37.9899 H   0  0  0  0  0  0  0  0  0  0  0  0
    0.7982   27.8780  -34.8922 H   0  0  0  0  0  0  0  0  0  0  0  0
   -0.3456   28.5389  -36.1341 H   0  0  0  0  0  0  0  0  0  0  0  0
   -0.7775   27.9617  -33.2518 H   0  0  0  0  0  0  0  0  0  0  0  0
   -1.6032   29.1245  -34.3439 H   0  0  0  0  0  0  0  0  0  0  0  0
   -2.0861   27.3944  -34.3439 H   0  0  0  0  0  0  0  0  0  0  0  0
    1.6730   26.0922  -36.1774 H   0  0  0  0  0  0  0  0  0  0  0  0
    0.9234   25.4475  -34.6299 H   0  0  0  0  0  0  0  0  0  0  0  0
   -0.2733   24.0954  -36.8501 H   0  0  0  0  0  0  0  0  0  0  0  0
    1.5308   24.0354  -37.0264 H   0  0  0  0  0  0  0  0  0  0  0  0
   -0.7634   22.1925  -36.3136 H   0  0  0  0  0  0  0  0  0  0  0  0
    0.8740   21.4378  -36.4402 H   0  0  0  0  0  0  0  0  0  0  0  0
   -0.0336   19.9949  -34.8951 H   0  0  0  0  0  0  0  0  0  0  0  0
    0.5344   21.2711  -33.7616 H   0  0  0  0  0  0  0  0  0  0  0  0
   -0.9569   20.7828  -32.2303 H   0  0  0  0  0  0  0  0  0  0  0  0
   -1.0296   22.5370  -32.6112 H   0  0  0  0  0  0  0  0  0  0  0  0
   -3.1687   20.6901  -31.7242 H   0  0  0  0  0  0  0  0  0  0  0  0
   -3.0768   22.5009  -31.6669 H   0  0  0  0  0  0  0  0  0  0  0  0
   -3.4740   21.3870  -34.3170 H   0  0  0  0  0  0  0  0  0  0  0  0
   -4.1640   22.7010  -33.6030 H   0  0  0  0  0  0  0  0  0  0  0  0
   -8.3165   18.4006  -30.8861 H   0  0  0  0  0  0  0  0  0  0  0  0
   -9.3498   18.6820  -32.3282 H   0  0  0  0  0  0  0  0  0  0  0  0
   -8.1534   17.3422  -32.3282 H   0  0  0  0  0  0  0  0  0  0  0  0
   -9.5327   20.6381  -31.7990 H   0  0  0  0  0  0  0  0  0  0  0  0
   -9.6525   23.0810  -31.3753 H   0  0  0  0  0  0  0  0  0  0  0  0
   -7.6470   24.5101  -31.6988 H   0  0  0  0  0  0  0  0  0  0  0  0
   -5.5231   23.5238  -32.5284 H   0  0  0  0  0  0  0  0  0  0  0  0
   -7.8040   16.2990  -33.4744 H   0  0  0  0  0  0  0  0  0  0  0  0
   -6.7763   14.1648  -34.3062 H   0  0  0  0  0  0  0  0  0  0  0  0
   -4.3548   14.0947  -34.9334 H   0  0  0  0  0  0  0  0  0  0  0  0
   -2.9641   16.1805  -34.7998 H   0  0  0  0  0  0  0  0  0  0  0  0
   -3.1110   18.7253  -33.2383 H   0  0  0  0  0  0  0  0  0  0  0  0
   -3.5523   19.0574  -34.8868 H   0  0  0  0  0  0  0  0  0  0  0  0
  1  2  1  0
  2  3  1  0
  3  4  1  0
  4  5  1  0
  3  6  1  0
  6  7  1  0
  7  8  1  0
  8  9  1  0
  9 10  1  0
 10 11  1  0
 11 12  1  0
 12 13  1  0
 13 14  1  0
 14 15  1  0
 15 16  2  0
 16 17  1  0
 17 18  2  0
 18 19  1  0
 18 20  1  0
 20 21  2  0
 21 22  1  0
 22 23  2  0
 23 24  1  0
 24 25  2  0
 17 26  1  0
 26 27  2  0
 27 28  1  0
 28 29  2  0
 29 30  1  0
 30 31  2  0
 31 32  1  0
 25 15  1  0
 31 26  1  0
 32 16  1  0
 25 20  1  0
  1 33  1  0
  1 34  1  0
  1 35  1  0
  2 36  1  0
  2 37  1  0
  4 38  1  0
  4 39  1  0
  5 40  1  0
  5 41  1  0
  5 42  1  0
  6 43  1  0
  6 44  1  0
  7 45  1  0
  7 46  1  0
  9 47  1  0
  9 48  1  0
 10 49  1  0
 10 50  1  0
 12 51  1  0
 12 52  1  0
 13 53  1  0
 13 54  1  0
 14 55  1  0
 14 56  1  0
 19 57  1  0
 19 58  1  0
 19 59  1  0
 21 60  1  0
 22 61  1  0
 23 62  1  0
 24 63  1  0
 27 64  1  0
 28 65  1  0
 29 66  1  0
 30 67  1  0
 32 68  1  0
 32 69  1  0
M  CHG  2  14   1  18   1
M  END
>  <UniqueID>  (7) 
7

>  <SMILES>  (7) 
CCN(CC)CCOCCOCC[NH2+]c1c2c([n+](C)c3ccccc13)-c1ccccc1C2

>  <Energy>  (7) 
119.53093490596213

>  <Genealogy>  (7) 
CCN(CC)CCOCCOCC[NH2+]c1c2c([n+](C)c3ccccc13)-c1ccccc1C2 (protonated)
CCN(CC)CCOCCOCC[NH2+]c1c2c([n+](C)c3ccccc13)-c1ccccc1C2 (3D coordinates assigned)
CCN(CC)CCOCCOCC[NH2+]c1c2c([n+](C)c3ccccc13)-c1ccccc1C2 (nonaromatic ring conformer: 119.53093490596213 kcal/mol)

>  <smiles>  (7) 
CCN(CC)CCOCCOCCNc1c2c([n+](C)c3ccccc13)-c1ccccc1C2

>  <score_type>  (7) 
oracle

>  <origin>  (7) 
adg

>  <m_score__min__energy>  (7) 
-8.9700000000000006

>  <m_primary>  (7) 
energy

$$$$
7:0
     RDKit          3D

 35 36  0  0  0  0  0  0  0  0999 V2000
   -6.7820   23.7580  -30.3550 C   0  0  0  0  0  0  0  0  0  0  0  0
   -5.4200   23.5750  -30.9650 C   0  0  0  0  0  0  0  0  0  0  0  0
   -4.6090   24.4860  -30.8680 O   0  0  0  0  0  0  0  0  0  0  0  0
   -5.0670   22.3510  -31.6600 N   0  0  0  0  0  0  0  0  0  0  0  0
   -4.3560   21.4320  -30.7550 C   0  0  0  0  0  0  0  0  0  0  0  0
   -4.2050   20.0550  -31.4180 C   0  0  0  0  0  0  0  0  0  0  0  0
   -3.8860   20.1400  -32.8610 N   0  0  0  0  0  0  0  0  0  0  0  0
   -4.7880   19.3900  -33.7630 C   0  0  0  0  0  0  0  0  0  0  0  0
   -6.2010   19.3140  -33.2570 C   0  0  0  0  0  0  0  0  0  0  0  0
   -6.9180   20.3920  -32.8810 N   0  0  0  0  0  0  0  0  0  0  0  0
   -8.1010   19.9590  -32.4730 N   0  0  0  0  0  0  0  0  0  0  0  0
   -9.1250   20.8190  -31.9000 C   0  0  0  0  0  0  0  0  0  0  0  0
   -8.1610   18.6170  -32.5660 C   0  0  0  0  0  0  0  0  0  0  0  0
   -6.9630   18.1700  -33.0780 C   0  0  0  0  0  0  0  0  0  0  0  0
   -6.5080   16.3560  -33.4680 Br  0  0  0  0  0  0  0  0  0  0  0  0
   -3.4190   21.4500  -33.3610 C   0  0  0  0  0  0  0  0  0  0  0  0
   -4.2530   22.6550  -32.8580 C   0  0  0  0  0  0  0  0  0  0  0  0
   -6.6971   23.7466  -29.2583 H   0  0  0  0  0  0  0  0  0  0  0  0
   -7.2031   24.7208  -30.6802 H   0  0  0  0  0  0  0  0  0  0  0  0
   -7.4423   22.9405  -30.6802 H   0  0  0  0  0  0  0  0  0  0  0  0
   -5.9480   21.8810  -31.9690 H   0  0  0  0  0  0  0  0  0  0  0  0
   -3.3593   21.8398  -30.5310 H   0  0  0  0  0  0  0  0  0  0  0  0
   -4.9323   21.3236  -29.8243 H   0  0  0  0  0  0  0  0  0  0  0  0
   -3.3955   19.5089  -30.9116 H   0  0  0  0  0  0  0  0  0  0  0  0
   -5.1708   19.5369  -31.3244 H   0  0  0  0  0  0  0  0  0  0  0  0
   -4.7941   19.8873  -34.7441 H   0  0  0  0  0  0  0  0  0  0  0  0
   -4.4067   18.3600  -33.8246 H   0  0  0  0  0  0  0  0  0  0  0  0
   -9.0703   20.7731  -30.8023 H   0  0  0  0  0  0  0  0  0  0  0  0
   -8.9619   21.8549  -32.2322 H   0  0  0  0  0  0  0  0  0  0  0  0
  -10.1171   20.4793  -32.2322 H   0  0  0  0  0  0  0  0  0  0  0  0
   -9.0174   17.9875  -32.2825 H   0  0  0  0  0  0  0  0  0  0  0  0
   -2.3775   21.5918  -33.0368 H   0  0  0  0  0  0  0  0  0  0  0  0
   -3.5248   21.4269  -34.4557 H   0  0  0  0  0  0  0  0  0  0  0  0
   -3.5642   23.4765  -32.6116 H   0  0  0  0  0  0  0  0  0  0  0  0
   -4.9516   22.9237  -33.6640 H   0  0  0  0  0  0  0  0  0  0  0  0
  1  2  1  0
  2  3  2  0
  2  4  1  0
  4  5  1  0
  5  6  1  0
  6  7  1  0
  7  8  1  0
  8  9  1  0
  9 10  2  0
 10 11  1  0
 11 12  1  0
 11 13  1  0
 13 14  2  0
 14 15  1  0
  7 16  1  0
 16 17  1  0
 17  4  1  0
 14  9  1  0
  1 18  1  0
  1 19  1  0
  1 20  1  0
  4 21  1  0
  5 22  1  0
  5 23  1  0
  6 24  1  0
  6 25  1  0
  8 26  1  0
  8 27  1  0
 12 28  1  0
 12 29  1  0
 12 30  1  0
 13 31  1  0
 16 32  1  0
 16 33  1  0
 17 34  1  0
 17 35  1  0
M  CHG  1   4   1
M  END
>  <UniqueID>  (8) 
8

>  <SMILES>  (8) 
CC(=O)[NH+]1CCN(Cc2nn(C)cc2Br)CC1

>  <Energy>  (8) 
76.14903332807982

>  <Genealogy>  (8) 
CC(=O)[NH+]1CCN(Cc2nn(C)cc2Br)CC1 (protonated)
CC(=O)[NH+]1CCN(Cc2nn(C)cc2Br)CC1 (3D coordinates assigned)
CC(=O)[NH+]1CCN(Cc2nn(C)cc2Br)CC1 (nonaromatic ring conformer: 76.14903332807982 kcal/mol)

>  <smiles>  (8) 
CC(=O)N1CCN(Cc2nn(C)cc2Br)CC1

>  <score_type>  (8) 
oracle

>  <origin>  (8) 
adg

>  <m_score__min__energy>  (8) 
-5.8799999999999999

>  <m_primary>  (8) 
energy

$$$$
8:0
     RDKit          3D

 43 45  0  0  0  0  0  0  0  0999 V2000
   -6.6000   25.6850  -29.3150 C   0  0  0  0  0  0  0  0  0  0  0  0
   -6.0220   24.6930  -30.2730 C   0  0  0  0  0  0  0  0  0  0  0  0
   -4.6390   24.4910  -30.3420 C   0  0  0  0  0  0  0  0  0  0  0  0
   -4.1370   23.5940  -31.2310 N   0  0  0  0  0  0  0  0  0  0  0  0
   -4.9530   22.8850  -32.0590 C   0  0  0  0  0  0  0  0  0  0  0  0
   -4.3660   21.9170  -33.0450 C   0  0  0  0  0  0  0  0  0  0  0  0
   -4.2640   20.5710  -32.4400 N   0  0  0  0  0  0  0  0  0  0  0  0
   -4.8770   19.5460  -33.3250 C   0  0  0  0  0  0  0  0  0  0  0  0
   -6.3010   19.2780  -32.9150 C   0  0  0  0  0  0  0  0  0  0  0  0
   -6.6650   18.0400  -32.3620 C   0  0  0  0  0  0  0  0  0  0  0  0
   -7.9840   17.8100  -31.9590 C   0  0  0  0  0  0  0  0  0  0  0  0
   -8.9490   18.8080  -32.1180 C   0  0  0  0  0  0  0  0  0  0  0  0
   -8.5990   20.0350  -32.6870 C   0  0  0  0  0  0  0  0  0  0  0  0
   -7.2810   20.2700  -33.0900 C   0  0  0  0  0  0  0  0  0  0  0  0
   -2.8490   20.2530  -32.1310 C   0  0  0  0  0  0  0  0  0  0  0  0
   -2.3580   21.0510  -30.9520 C   0  0  0  0  0  0  0  0  0  0  0  0
   -2.9900   20.9560  -29.7030 C   0  0  0  0  0  0  0  0  0  0  0  0
   -2.5390   21.7310  -28.6330 C   0  0  0  0  0  0  0  0  0  0  0  0
   -1.4540   22.5900  -28.8190 C   0  0  0  0  0  0  0  0  0  0  0  0
   -0.8440   22.6630  -30.0320 N   0  0  0  0  0  0  0  0  0  0  0  0
   -1.2630   21.9180  -31.0900 C   0  0  0  0  0  0  0  0  0  0  0  0
   -6.3370   23.0890  -31.9900 C   0  0  0  0  0  0  0  0  0  0  0  0
   -6.8370   23.9890  -31.1020 N   0  0  0  0  0  0  0  0  0  0  0  0
   -6.4072   25.3542  -28.2838 H   0  0  0  0  0  0  0  0  0  0  0  0
   -6.1330   26.6675  -29.4782 H   0  0  0  0  0  0  0  0  0  0  0  0
   -7.6850   25.7631  -29.4782 H   0  0  0  0  0  0  0  0  0  0  0  0
   -3.9632   25.0541  -29.6815 H   0  0  0  0  0  0  0  0  0  0  0  0
   -5.0115   21.8678  -33.9343 H   0  0  0  0  0  0  0  0  0  0  0  0
   -3.3603   22.2599  -33.3297 H   0  0  0  0  0  0  0  0  0  0  0  0
   -4.8615   19.9085  -34.3634 H   0  0  0  0  0  0  0  0  0  0  0  0
   -4.3010   18.6127  -33.2402 H   0  0  0  0  0  0  0  0  0  0  0  0
   -5.9101   17.2484  -32.2454 H   0  0  0  0  0  0  0  0  0  0  0  0
   -8.2623   16.8423  -31.5163 H   0  0  0  0  0  0  0  0  0  0  0  0
   -9.9849   18.6274  -31.7950 H   0  0  0  0  0  0  0  0  0  0  0  0
   -9.3613   20.8171  -32.8181 H   0  0  0  0  0  0  0  0  0  0  0  0
   -7.0103   21.2341  -33.5453 H   0  0  0  0  0  0  0  0  0  0  0  0
   -2.7642   19.1810  -31.8994 H   0  0  0  0  0  0  0  0  0  0  0  0
   -2.2344   20.5097  -33.0064 H   0  0  0  0  0  0  0  0  0  0  0  0
   -3.8402   20.2714  -29.5670 H   0  0  0  0  0  0  0  0  0  0  0  0
   -3.0337   21.6656  -27.6527 H   0  0  0  0  0  0  0  0  0  0  0  0
   -1.0926   23.2079  -27.9838 H   0  0  0  0  0  0  0  0  0  0  0  0
   -0.7425   21.9952  -32.0560 H   0  0  0  0  0  0  0  0  0  0  0  0
   -7.0140   22.5256  -32.6490 H   0  0  0  0  0  0  0  0  0  0  0  0
  1  2  1  0
  2  3  2  0
  3  4  1  0
  4  5  2  0
  5  6  1  0
  6  7  1  0
  7  8  1  0
  8  9  1  0
  9 10  2  0
 10 11  1  0
 11 12  2  0
 12 13  1  0
 13 14  2  0
  7 15  1  0
 15 16  1  0
 16 17  2  0
 17 18  1  0
 18 19  2  0
 19 20  1  0
 20 21  2  0
  5 22  1  0
 22 23  2  0
 23  2  1  0
 14  9  1  0
 21 16  1  0
  1 24  1  0
  1 25  1  0
  1 26  1  0
  3 27  1  0
  6 28  1  0
  6 29  1  0
  8 30  1  0
  8 31  1  0
 10 32  1  0
 11 33  1  0
 12 34  1  0
 13 35  1  0
 14 36  1  0
 15 37  1  0
 15 38  1  0
 17 39  1  0
 18 40  1  0
 19 41  1  0
 21 42  1  0
 22 43  1  0
M  END
>  <UniqueID>  (9) 
9

>  <SMILES>  (9) 
Cc1cnc(CN(Cc2ccccc2)Cc2cccnc2)cn1

>  <Energy>  (9) 
45.945476400020645

>  <Genealogy>  (9) 
Cc1cnc(CN(Cc2ccccc2)Cc2cccnc2)cn1 (3D coordinates assigned)
Cc1cnc(CN(Cc2ccccc2)Cc2cccnc2)cn1 (optimized conformer: 45.945476400020645 kcal/mol)

>  <smiles>  (9) 
Cc1cnc(CN(Cc2ccccc2)Cc2cccnc2)cn1

>  <score_type>  (9) 
oracle

>  <origin>  (9) 
adg

>  <m_score__min__energy>  (9) 
-7.7599999999999998

>  <m_primary>  (9) 
energy

$$$$
9:0
     RDKit          3D

 66 68  0  0  0  0  0  0  0  0999 V2000
   -6.1810   25.6730  -29.7630 C   0  0  0  0  0  0  0  0  0  0  0  0
   -5.0810   25.1970  -30.7260 C   0  0  0  0  0  0  0  0  0  0  0  0
   -4.7230   23.7640  -30.5970 N   0  0  0  0  0  0  0  0  0  0  0  0
   -5.2740   23.0520  -29.4200 C   0  0  0  0  0  0  0  0  0  0  0  0
   -4.2780   22.8700  -28.2720 C   0  0  0  0  0  0  0  0  0  0  0  0
   -3.3430   23.4010  -30.9820 C   0  0  0  0  0  0  0  0  0  0  0  0
   -3.3350   22.1730  -31.8990 C   0  0  0  0  0  0  0  0  0  0  0  0
   -4.4810   22.1980  -32.8050 N   0  0  0  0  0  0  0  0  0  0  0  0
   -5.5160   21.2060  -32.7240 C   0  0  0  0  0  0  0  0  0  0  0  0
   -6.8250   21.5740  -32.3780 C   0  0  0  0  0  0  0  0  0  0  0  0
   -7.1700   22.9300  -32.1940 C   0  0  0  0  0  0  0  0  0  0  0  0
   -8.4820   23.2970  -31.9040 C   0  0  0  0  0  0  0  0  0  0  0  0
   -9.4710   22.3240  -31.8070 C   0  0  0  0  0  0  0  0  0  0  0  0
   -9.1510   20.9770  -31.9760 C   0  0  0  0  0  0  0  0  0  0  0  0
   -7.8170   20.5680  -32.2340 C   0  0  0  0  0  0  0  0  0  0  0  0
   -7.4760   19.2340  -32.3650 N   0  0  0  0  0  0  0  0  0  0  0  0
   -8.4190   18.1810  -31.9300 C   0  0  0  0  0  0  0  0  0  0  0  0
   -6.2440   18.8850  -32.8860 C   0  0  0  0  0  0  0  0  0  0  0  0
   -5.9550   17.5580  -33.2980 C   0  0  0  0  0  0  0  0  0  0  0  0
   -4.6950   17.2070  -33.8060 C   0  0  0  0  0  0  0  0  0  0  0  0
   -4.4440   15.8640  -34.2730 N   0  0  0  0  0  0  0  0  0  0  0  0
   -5.6350   15.0010  -34.1530 C   0  0  0  0  0  0  0  0  0  0  0  0
   -5.3710   13.7070  -33.3520 C   0  0  0  0  0  0  0  0  0  0  0  0
   -4.2380   13.8620  -32.4110 N   0  0  0  0  0  0  0  0  0  0  0  0
   -3.0290   13.1810  -32.9060 C   0  0  0  0  0  0  0  0  0  0  0  0
   -4.5970   13.3250  -31.0900 C   0  0  0  0  0  0  0  0  0  0  0  0
   -3.6970   18.1840  -33.8940 C   0  0  0  0  0  0  0  0  0  0  0  0
   -3.9640   19.4990  -33.5300 C   0  0  0  0  0  0  0  0  0  0  0  0
   -5.2340   19.8690  -33.0450 C   0  0  0  0  0  0  0  0  0  0  0  0
   -5.8472   25.5285  -28.7249 H   0  0  0  0  0  0  0  0  0  0  0  0
   -6.3847   26.7398  -29.9376 H   0  0  0  0  0  0  0  0  0  0  0  0
   -7.0981   25.0912  -29.9376 H   0  0  0  0  0  0  0  0  0  0  0  0
   -5.4271   25.3725  -31.7553 H   0  0  0  0  0  0  0  0  0  0  0  0
   -4.1760   25.7678  -30.4708 H   0  0  0  0  0  0  0  0  0  0  0  0
   -6.1342   23.6243  -29.0425 H   0  0  0  0  0  0  0  0  0  0  0  0
   -5.5491   22.0433  -29.7618 H   0  0  0  0  0  0  0  0  0  0  0  0
   -4.8046   22.9662  -27.3110 H   0  0  0  0  0  0  0  0  0  0  0  0
   -3.8183   21.8730  -28.3400 H   0  0  0  0  0  0  0  0  0  0  0  0
   -3.4954   23.6400  -28.3400 H   0  0  0  0  0  0  0  0  0  0  0  0
   -2.8822   24.2483  -31.5110 H   0  0  0  0  0  0  0  0  0  0  0  0
   -2.7756   23.1621  -30.0704 H   0  0  0  0  0  0  0  0  0  0  0  0
   -2.4073   22.1697  -32.4901 H   0  0  0  0  0  0  0  0  0  0  0  0
   -3.3948   21.2672  -31.2778 H   0  0  0  0  0  0  0  0  0  0  0  0
   -4.6060   23.0020  -33.4620 H   0  0  0  0  0  0  0  0  0  0  0  0
   -6.3945   23.7054  -32.2805 H   0  0  0  0  0  0  0  0  0  0  0  0
   -8.7359   24.3564  -31.7517 H   0  0  0  0  0  0  0  0  0  0  0  0
  -10.5098   22.6180  -31.5961 H   0  0  0  0  0  0  0  0  0  0  0  0
   -9.9457   20.2194  -31.9082 H   0  0  0  0  0  0  0  0  0  0  0  0
   -8.4493   18.1472  -30.8309 H   0  0  0  0  0  0  0  0  0  0  0  0
   -9.4236   18.4055  -32.3178 H   0  0  0  0  0  0  0  0  0  0  0  0
   -8.0855   17.2071  -32.3178 H   0  0  0  0  0  0  0  0  0  0  0  0
   -6.7360   16.7876  -33.2173 H   0  0  0  0  0  0  0  0  0  0  0  0
   -3.6760   15.4510  -33.6930 H   0  0  0  0  0  0  0  0  0  0  0  0
   -4.1090   15.8670  -35.2650 H   0  0  0  0  0  0  0  0  0  0  0  0
   -6.4291   15.5696  -33.6468 H   0  0  0  0  0  0  0  0  0  0  0  0
   -5.9255   14.7017  -35.1708 H   0  0  0  0  0  0  0  0  0  0  0  0
   -6.2756   13.4516  -32.7806 H   0  0  0  0  0  0  0  0  0  0  0  0
   -5.1150   12.9102  -34.0658 H   0  0  0  0  0  0  0  0  0  0  0  0
   -2.4245   12.8405  -32.0524 H   0  0  0  0  0  0  0  0  0  0  0  0
   -3.3207   12.3145  -33.5176 H   0  0  0  0  0  0  0  0  0  0  0  0
   -2.4391   13.8796  -33.5176 H   0  0  0  0  0  0  0  0  0  0  0  0
   -4.1687   13.9656  -30.3050 H   0  0  0  0  0  0  0  0  0  0  0  0
   -5.6921   13.3030  -30.9884 H   0  0  0  0  0  0  0  0  0  0  0  0
   -4.1988   12.3047  -30.9884 H   0  0  0  0  0  0  0  0  0  0  0  0
   -2.6943   17.9097  -34.2537 H   0  0  0  0  0  0  0  0  0  0  0  0
   -3.1745   20.2594  -33.6217 H   0  0  0  0  0  0  0  0  0  0  0  0
  1  2  1  0
  2  3  1  0
  3  4  1  0
  4  5  1  0
  3  6  1  0
  6  7  1  0
  7  8  1  0
  8  9  1  0
  9 10  2  0
 10 11  1  0
 11 12  2  0
 12 13  1  0
 13 14  2  0
 14 15  1  0
 15 16  2  0
 16 17  1  0
 16 18  1  0
 18 19  2  0
 19 20  1  0
 20 21  1  0
 21 22  1  0
 22 23  1  0
 23 24  1  0
 24 25  1  0
 24 26  1  0
 20 27  2  0
 27 28  1  0
 28 29  2  0
 29  9  1  0
 15 10  1  0
 29 18  1  0
  1 30  1  0
  1 31  1  0
  1 32  1  0
  2 33  1  0
  2 34  1  0
  4 35  1  0
  4 36  1  0
  5 37  1  0
  5 38  1  0
  5 39  1  0
  6 40  1  0
  6 41  1  0
  7 42  1  0
  7 43  1  0
  8 44  1  0
 11 45  1  0
 12 46  1  0
 13 47  1  0
 14 48  1  0
 17 49  1  0
 17 50  1  0
 17 51  1  0
 19 52  1  0
 21 53  1  0
 21 54  1  0
 22 55  1  0
 22 56  1  0
 23 57  1  0
 23 58  1  0
 25 59  1  0
 25 60  1  0
 25 61  1  0
 26 62  1  0
 26 63  1  0
 26 64  1  0
 27 65  1  0
 28 66  1  0
M  CHG  2  16   1  21   1
M  END
>  <UniqueID>  (10) 
10

>  <SMILES>  (10) 
CCN(CC)CCNc1c2ccccc2[n+](C)c2cc([NH2+]CCN(C)C)ccc12

>  <Energy>  (10) 
98.67375096429735

>  <Genealogy>  (10) 
CCN(CC)CCNc1c2ccccc2[n+](C)c2cc([NH2+]CCN(C)C)ccc12 (protonated)
CCN(CC)CCNc1c2ccccc2[n+](C)c2cc([NH2+]CCN(C)C)ccc12 (3D coordinates assigned)
CCN(CC)CCNc1c2ccccc2[n+](C)c2cc([NH2+]CCN(C)C)ccc12 (optimized conformer: 98.67375096429735 kcal/mol)

>  <smiles>  (10) 
CCN(CC)CCNc1c2ccccc2[n+](C)c2cc(NCCN(C)C)ccc12

>  <score_type>  (10) 
oracle

>  <origin>  (10) 
adg

>  <m_score__min__energy>  (10) 
-7.9800000000000004

>  <m_primary>  (10) 
energy

$$$$
10:0
     RDKit          3D

 47 49  0  0  0  0  0  0  0  0999 V2000
   -6.1870   25.3060  -29.6290 C   0  0  0  0  0  0  0  0  0  0  0  0
   -5.3400   25.6230  -30.8510 C   0  0  0  0  0  0  0  0  0  0  0  0
   -3.9980   25.2800  -30.5810 O   0  0  0  0  0  0  0  0  0  0  0  0
   -3.9430   24.4140  -29.4670 C   0  0  0  0  0  0  0  0  0  0  0  0
   -3.7440   22.9720  -29.9450 C   0  0  0  0  0  0  0  0  0  0  0  0
   -3.7650   22.8680  -31.3580 O   0  0  0  0  0  0  0  0  0  0  0  0
   -2.7430   22.0070  -31.8240 C   0  0  0  0  0  0  0  0  0  0  0  0
   -3.3200   21.0770  -32.8940 C   0  0  0  0  0  0  0  0  0  0  0  0
   -4.5790   21.5870  -33.4690 N   0  0  0  0  0  0  0  0  0  0  0  0
   -5.7130   20.7460  -33.1270 C   0  0  0  0  0  0  0  0  0  0  0  0
   -5.7520   19.3400  -33.3630 C   0  0  0  0  0  0  0  0  0  0  0  0
   -4.6830   18.6560  -33.9880 C   0  0  0  0  0  0  0  0  0  0  0  0
   -4.7580   17.2910  -34.2520 C   0  0  0  0  0  0  0  0  0  0  0  0
   -5.8970   16.5750  -33.9170 C   0  0  0  0  0  0  0  0  0  0  0  0
   -6.9640   17.2100  -33.2870 C   0  0  0  0  0  0  0  0  0  0  0  0
   -6.9130   18.5900  -32.9630 C   0  0  0  0  0  0  0  0  0  0  0  0
   -7.9570   19.2080  -32.2910 N   0  0  0  0  0  0  0  0  0  0  0  0
   -9.0740   18.4180  -31.7320 C   0  0  0  0  0  0  0  0  0  0  0  0
   -7.9410   20.5730  -32.1480 C   0  0  0  0  0  0  0  0  0  0  0  0
   -8.9830   21.3720  -31.6230 C   0  0  0  0  0  0  0  0  0  0  0  0
   -8.6750   22.7270  -31.5830 C   0  0  0  0  0  0  0  0  0  0  0  0
   -7.1300   22.9460  -32.2090 S   0  0  0  0  0  0  0  0  0  0  0  0
   -6.8430   21.3200  -32.5370 C   0  0  0  0  0  0  0  0  0  0  0  0
   -5.6105   25.5217  -28.7173 H   0  0  0  0  0  0  0  0  0  0  0  0
   -7.0965   25.9246  -29.6427 H   0  0  0  0  0  0  0  0  0  0  0  0
   -6.4668   24.2423  -29.6427 H   0  0  0  0  0  0  0  0  0  0  0  0
   -5.7030   25.0426  -31.7120 H   0  0  0  0  0  0  0  0  0  0  0  0
   -5.4099   26.6958  -31.0837 H   0  0  0  0  0  0  0  0  0  0  0  0
   -3.1026   24.7040  -28.8192 H   0  0  0  0  0  0  0  0  0  0  0  0
   -4.8848   24.4848  -28.9030 H   0  0  0  0  0  0  0  0  0  0  0  0
   -2.7732   22.6079  -29.5775 H   0  0  0  0  0  0  0  0  0  0  0  0
   -4.5741   22.3680  -29.5499 H   0  0  0  0  0  0  0  0  0  0  0  0
   -1.9270   22.6045  -32.2566 H   0  0  0  0  0  0  0  0  0  0  0  0
   -2.3511   21.4104  -30.9870 H   0  0  0  0  0  0  0  0  0  0  0  0
   -2.5817   20.9689  -33.7023 H   0  0  0  0  0  0  0  0  0  0  0  0
   -3.5396   20.1120  -32.4138 H   0  0  0  0  0  0  0  0  0  0  0  0
   -4.4800   21.7420  -34.4950 H   0  0  0  0  0  0  0  0  0  0  0  0
   -4.7420   22.5450  -33.0830 H   0  0  0  0  0  0  0  0  0  0  0  0
   -3.7769   19.2121  -34.2703 H   0  0  0  0  0  0  0  0  0  0  0  0
   -3.9095   16.7782  -34.7286 H   0  0  0  0  0  0  0  0  0  0  0  0
   -5.9579   15.5016  -34.1497 H   0  0  0  0  0  0  0  0  0  0  0  0
   -7.8643   16.6301  -33.0356 H   0  0  0  0  0  0  0  0  0  0  0  0
   -9.0309   18.4485  -30.6333 H   0  0  0  0  0  0  0  0  0  0  0  0
  -10.0299   18.8420  -32.0733 H   0  0  0  0  0  0  0  0  0  0  0  0
   -8.9926   17.3755  -32.0733 H   0  0  0  0  0  0  0  0  0  0  0  0
   -9.9439   20.9612  -31.2796 H   0  0  0  0  0  0  0  0  0  0  0  0
   -9.3327   23.5234  -31.2047 H   0  0  0  0  0  0  0  0  0  0  0  0
  1  2  1  0
  2  3  1  0
  3  4  1  0
  4  5  1  0
  5  6  1  0
  6  7  1  0
  7  8  1  0
  8  9  1  0
  9 10  1  0
 10 11  2  0
 11 12  1  0
 12 13  2  0
 13 14  1  0
 14 15  2  0
 15 16  1  0
 16 17  2  0
 17 18  1  0
 17 19  1  0
 19 20  1  0
 20 21  2  0
 21 22  1  0
 22 23  1  0
 23 10  1  0
 16 11  1  0
 23 19  2  0
  1 24  1  0
  1 25  1  0
  1 26  1  0
  2 27  1  0
  2 28  1  0
  4 29  1  0
  4 30  1  0
  5 31  1  0
  5 32  1  0
  7 33  1  0
  7 34  1  0
  8 35  1  0
  8 36  1  0
  9 37  1  0
  9 38  1  0
 12 39  1  0
 13 40  1  0
 14 41  1  0
 15 42  1  0
 18 43  1  0
 18 44  1  0
 18 45  1  0
 20 46  1  0
 21 47  1  0
M  CHG  2   9   1  17   1
M  END
>  <UniqueID>  (11) 
11

>  <SMILES>  (11) 
CCOCCOCC[NH2+]c1c2ccccc2[n+](C)c2ccsc12

>  <Energy>  (11) 
93.317164795707

>  <Genealogy>  (11) 
CCOCCOCC[NH2+]c1c2ccccc2[n+](C)c2ccsc12 (protonated)
CCOCCOCC[NH2+]c1c2ccccc2[n+](C)c2ccsc12 (3D coordinates assigned)
CCOCCOCC[NH2+]c1c2ccccc2[n+](C)c2ccsc12 (optimized conformer: 93.317164795707 kcal/mol)

>  <smiles>  (11) 
CCOCCOCCNc1c2ccccc2[n+](C)c2ccsc12

>  <score_type>  (11) 
oracle

>  <origin>  (11) 
adg

>  <m_score__min__energy>  (11) 
-7.9400000000000004

>  <m_primary>  (11) 
energy

$$$$
11:0
     RDKit          3D

 51 54  0  0  0  0  0  0  0  0999 V2000
   -5.4220   23.3870  -31.9290 C   0  0  0  0  0  0  0  0  0  0  0  0
   -5.9590   22.3020  -32.6770 O   0  0  0  0  0  0  0  0  0  0  0  0
   -7.1250   21.5980  -32.3380 C   0  0  0  0  0  0  0  0  0  0  0  0
   -8.0570   22.0990  -31.4060 C   0  0  0  0  0  0  0  0  0  0  0  0
   -9.2180   21.3800  -31.1140 C   0  0  0  0  0  0  0  0  0  0  0  0
   -9.4660   20.1590  -31.7480 C   0  0  0  0  0  0  0  0  0  0  0  0
   -8.5480   19.6520  -32.6680 C   0  0  0  0  0  0  0  0  0  0  0  0
   -7.3720   20.3590  -32.9580 C   0  0  0  0  0  0  0  0  0  0  0  0
   -6.4420   19.8200  -33.9030 N   0  0  0  0  0  0  0  0  0  0  0  0
   -5.3190   18.9950  -33.4660 C   0  0  0  0  0  0  0  0  0  0  0  0
   -4.0420   19.7800  -33.5050 C   0  0  0  0  0  0  0  0  0  0  0  0
   -3.9890   21.1170  -33.6510 N   0  0  0  0  0  0  0  0  0  0  0  0
   -2.7170   21.4750  -33.7250 N   0  0  0  0  0  0  0  0  0  0  0  0
   -1.9990   20.3360  -33.6330 C   0  0  0  0  0  0  0  0  0  0  0  0
   -0.4960   20.3130  -33.6550 C   0  0  0  0  0  0  0  0  0  0  0  0
    0.0960   21.1710  -32.5310 C   0  0  0  0  0  0  0  0  0  0  0  0
   -0.7050   21.0550  -31.2690 C   0  0  0  0  0  0  0  0  0  0  0  0
   -0.4070   20.0820  -30.3680 N   0  0  0  0  0  0  0  0  0  0  0  0
   -1.0640   20.0000  -29.1830 C   0  0  0  0  0  0  0  0  0  0  0  0
   -0.7350   18.9940  -28.2670 C   0  0  0  0  0  0  0  0  0  0  0  0
   -1.4070   18.9150  -27.0440 C   0  0  0  0  0  0  0  0  0  0  0  0
   -2.4090   19.8390  -26.7320 C   0  0  0  0  0  0  0  0  0  0  0  0
   -2.7450   20.8480  -27.6400 C   0  0  0  0  0  0  0  0  0  0  0  0
   -2.0730   20.9370  -28.8720 C   0  0  0  0  0  0  0  0  0  0  0  0
   -2.3580   21.9350  -29.8180 C   0  0  0  0  0  0  0  0  0  0  0  0
   -3.2460   22.8020  -29.5980 O   0  0  0  0  0  0  0  0  0  0  0  0
   -1.6660   21.9740  -30.9860 N   0  0  0  0  0  0  0  0  0  0  0  0
   -2.7990   19.2550  -33.4720 N   0  0  0  0  0  0  0  0  0  0  0  0
   -2.4170   17.8430  -33.4630 C   0  0  0  0  0  0  0  0  0  0  0  0
   -5.5254   23.1780  -30.8540 H   0  0  0  0  0  0  0  0  0  0  0  0
   -4.3578   23.5124  -32.1774 H   0  0  0  0  0  0  0  0  0  0  0  0
   -5.9677   24.3092  -32.1774 H   0  0  0  0  0  0  0  0  0  0  0  0
   -7.8686   23.0608  -30.9065 H   0  0  0  0  0  0  0  0  0  0  0  0
   -9.9391   21.7753  -30.3834 H   0  0  0  0  0  0  0  0  0  0  0  0
  -10.3848   19.5981  -31.5215 H   0  0  0  0  0  0  0  0  0  0  0  0
   -8.7475   18.6930  -33.1684 H   0  0  0  0  0  0  0  0  0  0  0  0
   -6.7330   19.7720  -34.9050 H   0  0  0  0  0  0  0  0  0  0  0  0
   -5.5013   18.6518  -32.4369 H   0  0  0  0  0  0  0  0  0  0  0  0
   -5.2268   18.1332  -34.1434 H   0  0  0  0  0  0  0  0  0  0  0  0
   -4.7960   21.7770  -33.7150 H   0  0  0  0  0  0  0  0  0  0  0  0
   -0.1526   19.2753  -33.5311 H   0  0  0  0  0  0  0  0  0  0  0  0
   -0.1588   20.7250  -34.6176 H   0  0  0  0  0  0  0  0  0  0  0  0
    1.1256   20.8385  -32.3324 H   0  0  0  0  0  0  0  0  0  0  0  0
    0.0786   22.2222  -32.8545 H   0  0  0  0  0  0  0  0  0  0  0  0
    0.0526   18.2654  -28.5097 H   0  0  0  0  0  0  0  0  0  0  0  0
   -1.1470   18.1240  -26.3252 H   0  0  0  0  0  0  0  0  0  0  0  0
   -2.9351   19.7719  -25.7683 H   0  0  0  0  0  0  0  0  0  0  0  0
   -3.5348   21.5719  -27.3906 H   0  0  0  0  0  0  0  0  0  0  0  0
   -2.3229   17.4952  -32.4237 H   0  0  0  0  0  0  0  0  0  0  0  0
   -3.1874   17.2514  -33.9793 H   0  0  0  0  0  0  0  0  0  0  0  0
   -1.4534   17.7205  -33.9793 H   0  0  0  0  0  0  0  0  0  0  0  0
  1  2  1  0
  2  3  1  0
  3  4  2  0
  4  5  1  0
  5  6  2  0
  6  7  1  0
  7  8  2  0
  8  9  1  0
  9 10  1  0
 10 11  1  0
 11 12  2  0
 12 13  1  0
 13 14  2  0
 14 15  1  0
 15 16  1  0
 16 17  1  0
 17 18  2  0
 18 19  1  0
 19 20  2  0
 20 21  1  0
 21 22  2  0
 22 23  1  0
 23 24  2  0
 24 25  1  0
 25 26  2  0
 25 27  1  0
 14 28  1  0
 28 29  1  0
  8  3  1  0
 28 11  1  0
 27 17  1  0
 24 19  1  0
  1 30  1  0
  1 31  1  0
  1 32  1  0
  4 33  1  0
  5 34  1  0
  6 35  1  0
  7 36  1  0
  9 37  1  0
 10 38  1  0
 10 39  1  0
 12 40  1  0
 15 41  1  0
 15 42  1  0
 16 43  1  0
 16 44  1  0
 20 45  1  0
 21 46  1  0
 22 47  1  0
 23 48  1  0
 29 49  1  0
 29 50  1  0
 29 51  1  0
M  CHG  2  12   1  27  -1
M  END
>  <UniqueID>  (12) 
12

>  <SMILES>  (12) 
COc1ccccc1NCc1[nH+]nc(CCc2nc3ccccc3c(=O)[n-]2)n1C

>  <Energy>  (12) 
91.1826738845289

>  <Genealogy>  (12) 
COc1ccccc1NCc1[nH+]nc(CCc2nc3ccccc3c(=O)[n-]2)n1C (protonated)
COc1ccccc1NCc1[nH+]nc(CCc2nc3ccccc3c(=O)[n-]2)n1C (3D coordinates assigned)
COc1ccccc1NCc1[nH+]nc(CCc2nc3ccccc3c(=O)[n-]2)n1C (optimized conformer: 91.1826738845289 kcal/mol)

>  <smiles>  (12) 
COc1ccccc1NCc1nnc(CCc2nc3ccccc3c(=O)[nH]2)n1C

>  <score_type>  (12) 
oracle

>  <origin>  (12) 
adg

>  <m_score__min__energy>  (12) 
-8.9900000000000002

>  <m_primary>  (12) 
energy

$$$$
12:0
     RDKit          3D

 49 52  0  0  0  0  0  0  0  0999 V2000
   -6.4820   16.5450  -33.7430 C   0  0  0  0  0  0  0  0  0  0  0  0
   -6.4380   17.9930  -34.2140 C   0  0  0  0  0  0  0  0  0  0  0  0
   -6.3520   18.9180  -33.0770 N   0  0  0  0  0  0  0  0  0  0  0  0
   -5.2700   19.2420  -32.3070 C   0  0  0  0  0  0  0  0  0  0  0  0
   -3.9050   18.5920  -32.4120 C   0  0  0  0  0  0  0  0  0  0  0  0
   -2.7670   19.5450  -32.5660 N   0  0  0  0  0  0  0  0  0  0  0  0
   -2.8880   20.4550  -33.7450 C   0  0  0  0  0  0  0  0  0  0  0  0
   -3.5620   21.8140  -33.4580 C   0  0  0  0  0  0  0  0  0  0  0  0
   -3.3310   22.2530  -32.0810 N   0  0  0  0  0  0  0  0  0  0  0  0
   -4.3140   23.0620  -31.3960 C   0  0  0  0  0  0  0  0  0  0  0  0
   -4.1600   23.3880  -30.0350 C   0  0  0  0  0  0  0  0  0  0  0  0
   -5.1410   24.1290  -29.3690 C   0  0  0  0  0  0  0  0  0  0  0  0
   -6.2840   24.5520  -30.0510 C   0  0  0  0  0  0  0  0  0  0  0  0
   -7.2370   25.2630  -29.4010 F   0  0  0  0  0  0  0  0  0  0  0  0
   -6.4480   24.2340  -31.4010 C   0  0  0  0  0  0  0  0  0  0  0  0
   -5.4700   23.4930  -32.0720 C   0  0  0  0  0  0  0  0  0  0  0  0
   -2.1680   21.7020  -31.3910 C   0  0  0  0  0  0  0  0  0  0  0  0
   -2.3440   20.1900  -31.2830 C   0  0  0  0  0  0  0  0  0  0  0  0
   -5.5330   20.2290  -31.4150 N   0  0  0  0  0  0  0  0  0  0  0  0
   -6.8340   20.4920  -31.6090 C   0  0  0  0  0  0  0  0  0  0  0  0
   -7.6250   21.4040  -30.9150 C   0  0  0  0  0  0  0  0  0  0  0  0
   -8.9850   21.4870  -31.2630 C   0  0  0  0  0  0  0  0  0  0  0  0
   -9.5120   20.6660  -32.2850 C   0  0  0  0  0  0  0  0  0  0  0  0
   -8.6830   19.7580  -32.9690 C   0  0  0  0  0  0  0  0  0  0  0  0
   -7.3370   19.7010  -32.5980 C   0  0  0  0  0  0  0  0  0  0  0  0
   -6.4829   16.5170  -32.6434 H   0  0  0  0  0  0  0  0  0  0  0  0
   -7.3952   16.0635  -34.1228 H   0  0  0  0  0  0  0  0  0  0  0  0
   -5.5997   16.0089  -34.1228 H   0  0  0  0  0  0  0  0  0  0  0  0
   -5.5581   18.1341  -34.8589 H   0  0  0  0  0  0  0  0  0  0  0  0
   -7.3634   18.2075  -34.7687 H   0  0  0  0  0  0  0  0  0  0  0  0
   -3.7360   18.0022  -31.4990 H   0  0  0  0  0  0  0  0  0  0  0  0
   -3.9229   17.9814  -33.3268 H   0  0  0  0  0  0  0  0  0  0  0  0
   -1.9650   18.9190  -32.8270 H   0  0  0  0  0  0  0  0  0  0  0  0
   -1.8761   20.6511  -34.1292 H   0  0  0  0  0  0  0  0  0  0  0  0
   -3.5380   19.9372  -34.4657 H   0  0  0  0  0  0  0  0  0  0  0  0
   -3.1516   22.5678  -34.1460 H   0  0  0  0  0  0  0  0  0  0  0  0
   -4.6460   21.6964  -33.6030 H   0  0  0  0  0  0  0  0  0  0  0  0
   -3.2621   23.0576  -29.4921 H   0  0  0  0  0  0  0  0  0  0  0  0
   -5.0122   24.3793  -28.3056 H   0  0  0  0  0  0  0  0  0  0  0  0
   -7.3485   24.5671  -31.9378 H   0  0  0  0  0  0  0  0  0  0  0  0
   -5.6055   23.2456  -33.1352 H   0  0  0  0  0  0  0  0  0  0  0  0
   -1.2553   21.9300  -31.9610 H   0  0  0  0  0  0  0  0  0  0  0  0
   -2.0786   22.1448  -30.3880 H   0  0  0  0  0  0  0  0  0  0  0  0
   -1.3856   19.7493  -30.9712 H   0  0  0  0  0  0  0  0  0  0  0  0
   -3.1444   20.0089  -30.5505 H   0  0  0  0  0  0  0  0  0  0  0  0
   -7.2008   22.0375  -30.1221 H   0  0  0  0  0  0  0  0  0  0  0  0
   -9.6421   22.1950  -30.7367 H   0  0  0  0  0  0  0  0  0  0  0  0
  -10.5778   20.7372  -32.5477 H   0  0  0  0  0  0  0  0  0  0  0  0
   -9.0807   19.1152  -33.7682 H   0  0  0  0  0  0  0  0  0  0  0  0
  1  2  1  0
  2  3  1  0
  3  4  1  0
  4  5  1  0
  5  6  1  0
  6  7  1  0
  7  8  1  0
  8  9  1  0
  9 10  1  0
 10 11  2  0
 11 12  1  0
 12 13  2  0
 13 14  1  0
 13 15  1  0
 15 16  2  0
  9 17  1  0
 17 18  1  0
  4 19  2  0
 19 20  1  0
 20 21  2  0
 21 22  1  0
 22 23  2  0
 23 24  1  0
 24 25  2  0
 25  3  1  0
 18  6  1  0
 25 20  1  0
 16 10  1  0
  1 26  1  0
  1 27  1  0
  1 28  1  0
  2 29  1  0
  2 30  1  0
  5 31  1  0
  5 32  1  0
  6 33  1  0
  7 34  1  0
  7 35  1  0
  8 36  1  0
  8 37  1  0
 11 38  1  0
 12 39  1  0
 15 40  1  0
 16 41  1  0
 17 42  1  0
 17 43  1  0
 18 44  1  0
 18 45  1  0
 21 46  1  0
 22 47  1  0
 23 48  1  0
 24 49  1  0
M  CHG  1   6   1
M  END
>  <UniqueID>  (13) 
13

>  <SMILES>  (13) 
CCn1c(C[NH+]2CCN(c3ccc(F)cc3)CC2)nc2ccccc21

>  <Energy>  (13) 
104.20629699787077

>  <Genealogy>  (13) 
CCn1c(C[NH+]2CCN(c3ccc(F)cc3)CC2)nc2ccccc21 (protonated)
CCn1c(C[NH+]2CCN(c3ccc(F)cc3)CC2)nc2ccccc21 (3D coordinates assigned)
CCn1c(C[NH+]2CCN(c3ccc(F)cc3)CC2)nc2ccccc21 (nonaromatic ring conformer: 104.20629699787077 kcal/mol)

>  <smiles>  (13) 
CCn1c(CN2CCN(c3ccc(F)cc3)CC2)nc2ccccc21

>  <score_type>  (13) 
oracle

>  <origin>  (13) 
adg

>  <m_score__min__energy>  (13) 
-6.6600000000000001

>  <m_primary>  (13) 
energy

$$$$
13:0
     RDKit          3D

 53 57  0  0  0  0  0  0  0  0999 V2000
    0.2790   22.4540  -35.7070 C   0  0  0  0  0  0  0  0  0  0  0  0
   -0.1160   21.0560  -35.4700 N   0  0  0  0  0  0  0  0  0  0  0  0
    0.5180   20.1930  -36.4840 C   0  0  0  0  0  0  0  0  0  0  0  0
    0.2670   20.6410  -34.1030 C   0  0  0  0  0  0  0  0  0  0  0  0
   -0.9490   20.0960  -33.3430 C   0  0  0  0  0  0  0  0  0  0  0  0
   -2.1670   20.2250  -34.1440 N   0  0  0  0  0  0  0  0  0  0  0  0
   -3.3770   19.5360  -33.7910 C   0  0  0  0  0  0  0  0  0  0  0  0
   -4.4050   20.2120  -33.1050 C   0  0  0  0  0  0  0  0  0  0  0  0
   -5.6550   19.5780  -32.9460 C   0  0  0  0  0  0  0  0  0  0  0  0
   -5.7470   18.2100  -33.1190 N   0  0  0  0  0  0  0  0  0  0  0  0
   -6.7930   17.4400  -32.4140 C   0  0  0  0  0  0  0  0  0  0  0  0
   -4.7680   17.5340  -33.8180 C   0  0  0  0  0  0  0  0  0  0  0  0
   -4.9310   16.1800  -34.2000 C   0  0  0  0  0  0  0  0  0  0  0  0
   -3.9250   15.5010  -34.8880 C   0  0  0  0  0  0  0  0  0  0  0  0
   -2.7370   16.1490  -35.2070 C   0  0  0  0  0  0  0  0  0  0  0  0
   -2.5510   17.4840  -34.8510 C   0  0  0  0  0  0  0  0  0  0  0  0
   -3.5630   18.1960  -34.1720 C   0  0  0  0  0  0  0  0  0  0  0  0
   -6.8370   20.4330  -32.5760 C   0  0  0  0  0  0  0  0  0  0  0  0
   -8.1130   20.0590  -32.8980 N   0  0  0  0  0  0  0  0  0  0  0  0
   -9.1990   20.7710  -32.4930 C   0  0  0  0  0  0  0  0  0  0  0  0
   -9.0400   21.9550  -31.7780 C   0  0  0  0  0  0  0  0  0  0  0  0
   -7.7530   22.4430  -31.5400 C   0  0  0  0  0  0  0  0  0  0  0  0
   -7.5650   23.6790  -30.9050 C   0  0  0  0  0  0  0  0  0  0  0  0
   -6.2780   24.1940  -30.7460 C   0  0  0  0  0  0  0  0  0  0  0  0
   -5.1740   23.4950  -31.2390 C   0  0  0  0  0  0  0  0  0  0  0  0
   -5.3440   22.2510  -31.8700 C   0  0  0  0  0  0  0  0  0  0  0  0
   -6.6330   21.6990  -31.9810 C   0  0  0  0  0  0  0  0  0  0  0  0
   -4.1980   21.5480  -32.4820 C   0  0  0  0  0  0  0  0  0  0  0  0
   -3.0490   22.0640  -32.4250 O   0  0  0  0  0  0  0  0  0  0  0  0
    0.4228   22.9629  -34.7425 H   0  0  0  0  0  0  0  0  0  0  0  0
    1.2190   22.4777  -36.2778 H   0  0  0  0  0  0  0  0  0  0  0  0
   -0.5096   22.9661  -36.2778 H   0  0  0  0  0  0  0  0  0  0  0  0
    1.0978   19.4038  -35.9831 H   0  0  0  0  0  0  0  0  0  0  0  0
   -0.2593   19.7340  -37.1126 H   0  0  0  0  0  0  0  0  0  0  0  0
    1.1884   20.7975  -37.1126 H   0  0  0  0  0  0  0  0  0  0  0  0
    1.0355   19.8565  -34.1655 H   0  0  0  0  0  0  0  0  0  0  0  0
    0.6590   21.5160  -33.5637 H   0  0  0  0  0  0  0  0  0  0  0  0
   -0.7818   19.0339  -33.1104 H   0  0  0  0  0  0  0  0  0  0  0  0
   -1.0741   20.6772  -32.4175 H   0  0  0  0  0  0  0  0  0  0  0  0
   -2.2070   20.9480  -34.8980 H   0  0  0  0  0  0  0  0  0  0  0  0
   -6.6541   17.5423  -31.3276 H   0  0  0  0  0  0  0  0  0  0  0  0
   -7.7842   17.8256  -32.6948 H   0  0  0  0  0  0  0  0  0  0  0  0
   -6.7193   16.3790  -32.6948 H   0  0  0  0  0  0  0  0  0  0  0  0
   -5.8652   15.6556  -33.9504 H   0  0  0  0  0  0  0  0  0  0  0  0
   -4.0721   14.4504  -35.1788 H   0  0  0  0  0  0  0  0  0  0  0  0
   -1.9425   15.6074  -35.7412 H   0  0  0  0  0  0  0  0  0  0  0  0
   -1.6058   17.9876  -35.1019 H   0  0  0  0  0  0  0  0  0  0  0  0
   -8.2880   19.2240  -33.4970 H   0  0  0  0  0  0  0  0  0  0  0  0
  -10.2098   20.4088  -32.7321 H   0  0  0  0  0  0  0  0  0  0  0  0
   -9.9190   22.5006  -31.4043 H   0  0  0  0  0  0  0  0  0  0  0  0
   -8.4327   24.2429  -30.5320 H   0  0  0  0  0  0  0  0  0  0  0  0
   -6.1323   25.1546  -30.2302 H   0  0  0  0  0  0  0  0  0  0  0  0
   -4.1653   23.9208  -31.1327 H   0  0  0  0  0  0  0  0  0  0  0  0
  1  2  1  0
  2  3  1  0
  2  4  1  0
  4  5  1  0
  5  6  1  0
  6  7  1  0
  7  8  2  0
  8  9  1  0
  9 10  2  0
 10 11  1  0
 10 12  1  0
 12 13  2  0
 13 14  1  0
 14 15  2  0
 15 16  1  0
 16 17  2  0
  9 18  1  0
 18 19  2  0
 19 20  1  0
 20 21  2  0
 21 22  1  0
 22 23  2  0
 23 24  1  0
 24 25  2  0
 25 26  1  0
 26 27  2  0
 26 28  1  0
 28 29  2  0
 17  7  1  0
 27 18  1  0
 28  8  1  0
 17 12  1  0
 27 22  1  0
  1 30  1  0
  1 31  1  0
  1 32  1  0
  3 33  1  0
  3 34  1  0
  3 35  1  0
  4 36  1  0
  4 37  1  0
  5 38  1  0
  5 39  1  0
  6 40  1  0
 11 41  1  0
 11 42  1  0
 11 43  1  0
 13 44  1  0
 14 45  1  0
 15 46  1  0
 16 47  1  0
 19 48  1  0
 20 49  1  0
 21 50  1  0
 23 51  1  0
 24 52  1  0
 25 53  1  0
M  CHG  2  10   1  19   1
M  END
>  <UniqueID>  (14) 
14

>  <SMILES>  (14) 
CN(C)CCNc1c2c([n+](C)c3ccccc13)-c1[nH+]ccc3cccc(c13)C2=O

>  <Energy>  (14) 
97.81376738964968

>  <Genealogy>  (14) 
CN(C)CCNc1c2c([n+](C)c3ccccc13)-c1[nH+]ccc3cccc(c13)C2=O (protonated)
CN(C)CCNc1c2c([n+](C)c3ccccc13)-c1[nH+]ccc3cccc(c13)C2=O (3D coordinates assigned)
CN(C)CCNc1c2c([n+](C)c3ccccc13)-c1[nH+]ccc3cccc(c13)C2=O (nonaromatic ring conformer: 97.81376738964968 kcal/mol)

>  <smiles>  (14) 
CN(C)CCNc1c2c([n+](C)c3ccccc13)-c1nccc3cccc(c13)C2=O

>  <score_type>  (14) 
oracle

>  <origin>  (14) 
adg

>  <m_score__min__energy>  (14) 
-8.75

>  <m_primary>  (14) 
energy

$$$$
14:0
     RDKit          3D

 41 43  0  0  0  0  0  0  0  0999 V2000
   -8.7620   20.0730  -31.3370 C   0  0  0  0  0  0  0  0  0  0  0  0
   -8.3630   21.1910  -32.2950 C   0  0  0  0  0  0  0  0  0  0  0  0
   -6.8910   21.3050  -32.3710 N   0  0  0  0  0  0  0  0  0  0  0  0
   -6.2500   22.4490  -31.9470 C   0  0  0  0  0  0  0  0  0  0  0  0
   -7.1440   23.7910  -31.1270 S   0  0  0  0  0  0  0  0  0  0  0  0
   -5.8570   24.1220  -29.8660 C   0  0  0  0  0  0  0  0  0  0  0  0
   -4.9280   25.2170  -30.2890 C   0  0  0  0  0  0  0  0  0  0  0  0
   -5.3760   26.3790  -30.4810 O   0  0  0  0  0  0  0  0  0  0  0  0
   -3.5380   24.9180  -30.4710 N   0  0  0  0  0  0  0  0  0  0  0  0
   -2.6890   24.1190  -29.6340 C   0  0  0  0  0  0  0  0  0  0  0  0
   -2.9930   22.7580  -29.4900 C   0  0  0  0  0  0  0  0  0  0  0  0
   -2.2370   21.9480  -28.6380 C   0  0  0  0  0  0  0  0  0  0  0  0
   -1.1750   22.4940  -27.9140 C   0  0  0  0  0  0  0  0  0  0  0  0
   -0.8720   23.8520  -28.0370 C   0  0  0  0  0  0  0  0  0  0  0  0
    0.1460   24.3860  -27.3170 F   0  0  0  0  0  0  0  0  0  0  0  0
   -1.6270   24.6650  -28.8890 C   0  0  0  0  0  0  0  0  0  0  0  0
   -4.9040   22.5790  -32.0970 N   0  0  0  0  0  0  0  0  0  0  0  0
   -4.1490   21.5790  -32.6210 C   0  0  0  0  0  0  0  0  0  0  0  0
   -2.7560   21.7200  -32.7280 C   0  0  0  0  0  0  0  0  0  0  0  0
   -1.9820   20.6840  -33.2580 C   0  0  0  0  0  0  0  0  0  0  0  0
   -2.5930   19.5020  -33.6830 C   0  0  0  0  0  0  0  0  0  0  0  0
   -3.9790   19.3510  -33.5830 C   0  0  0  0  0  0  0  0  0  0  0  0
   -4.7670   20.3900  -33.0500 C   0  0  0  0  0  0  0  0  0  0  0  0
   -6.1610   20.2830  -32.9310 C   0  0  0  0  0  0  0  0  0  0  0  0
   -6.7410   19.2390  -33.3420 O   0  0  0  0  0  0  0  0  0  0  0  0
   -8.6390   20.4177  -30.2997 H   0  0  0  0  0  0  0  0  0  0  0  0
   -9.8133   19.7994  -31.5103 H   0  0  0  0  0  0  0  0  0  0  0  0
   -8.1215   19.1957  -31.5103 H   0  0  0  0  0  0  0  0  0  0  0  0
   -8.7614   20.9696  -33.2961 H   0  0  0  0  0  0  0  0  0  0  0  0
   -8.7754   22.1413  -31.9252 H   0  0  0  0  0  0  0  0  0  0  0  0
   -6.3475   24.4153  -28.9261 H   0  0  0  0  0  0  0  0  0  0  0  0
   -5.2645   23.2045  -29.7353 H   0  0  0  0  0  0  0  0  0  0  0  0
   -3.8332   22.3242  -30.0520 H   0  0  0  0  0  0  0  0  0  0  0  0
   -2.4787   20.8796  -28.5377 H   0  0  0  0  0  0  0  0  0  0  0  0
   -0.5774   21.8550  -27.2472 H   0  0  0  0  0  0  0  0  0  0  0  0
   -1.3897   25.7355  -28.9771 H   0  0  0  0  0  0  0  0  0  0  0  0
   -4.4440   23.4590  -31.7720 H   0  0  0  0  0  0  0  0  0  0  0  0
   -2.2721   22.6494  -32.3934 H   0  0  0  0  0  0  0  0  0  0  0  0
   -0.8912   20.7995  -33.3405 H   0  0  0  0  0  0  0  0  0  0  0  0
   -1.9814   18.6872  -34.0978 H   0  0  0  0  0  0  0  0  0  0  0  0
   -4.4554   18.4190  -33.9212 H   0  0  0  0  0  0  0  0  0  0  0  0
  1  2  1  0
  2  3  1  0
  3  4  1  0
  4  5  1  0
  5  6  1  0
  6  7  1  0
  7  8  2  0
  7  9  1  0
  9 10  1  0
 10 11  2  0
 11 12  1  0
 12 13  2  0
 13 14  1  0
 14 15  1  0
 14 16  2  0
  4 17  2  0
 17 18  1  0
 18 19  2  0
 19 20  1  0
 20 21  2  0
 21 22  1  0
 22 23  2  0
 23 24  1  0
 24 25  2  0
 24  3  1  0
 16 10  1  0
 23 18  1  0
  1 26  1  0
  1 27  1  0
  1 28  1  0
  2 29  1  0
  2 30  1  0
  6 31  1  0
  6 32  1  0
 11 33  1  0
 12 34  1  0
 13 35  1  0
 16 36  1  0
 17 37  1  0
 19 38  1  0
 20 39  1  0
 21 40  1  0
 22 41  1  0
M  CHG  2   9  -1  17   1
M  END
>  <UniqueID>  (15) 
15

>  <SMILES>  (15) 
CCn1c(SCC(=O)[N-]c2cccc(F)c2)[nH+]c2ccccc2c1=O

>  <Energy>  (15) 
45.40307884113144

>  <Genealogy>  (15) 
CCn1c(SCC(=O)[N-]c2cccc(F)c2)[nH+]c2ccccc2c1=O (protonated)
CCn1c(SCC(=O)[N-]c2cccc(F)c2)[nH+]c2ccccc2c1=O (3D coordinates assigned)
CCn1c(SCC(=O)[N-]c2cccc(F)c2)[nH+]c2ccccc2c1=O (optimized conformer: 45.40307884113144 kcal/mol)

>  <smiles>  (15) 
CCn1c(SCC(=O)Nc2cccc(F)c2)nc2ccccc2c1=O

>  <score_type>  (15) 
oracle

>  <origin>  (15) 
adg

>  <m_score__min__energy>  (15) 
-9.1099999999999994

>  <m_primary>  (15) 
energy

$$$$
15:0
     RDKit          3D

 48 50  0  0  0  0  0  0  0  0999 V2000
   -2.5150   24.6320  -28.8900 C   0  0  0  0  0  0  0  0  0  0  0  0
   -3.2500   24.9120  -30.1190 N   0  0  0  0  0  0  0  0  0  0  0  0
   -4.4330   24.1940  -30.5240 C   0  0  0  0  0  0  0  0  0  0  0  0
   -5.6760   24.8180  -30.4200 C   0  0  0  0  0  0  0  0  0  0  0  0
   -6.8400   24.1540  -30.7980 C   0  0  0  0  0  0  0  0  0  0  0  0
   -6.8000   22.8330  -31.3080 C   0  0  0  0  0  0  0  0  0  0  0  0
   -5.5420   22.1770  -31.3660 C   0  0  0  0  0  0  0  0  0  0  0  0
   -4.3720   22.8740  -30.9940 C   0  0  0  0  0  0  0  0  0  0  0  0
   -5.4810   20.8370  -31.7940 C   0  0  0  0  0  0  0  0  0  0  0  0
   -4.2090   20.2040  -32.0230 N   0  0  0  0  0  0  0  0  0  0  0  0
   -3.5620   20.2080  -33.3380 C   0  0  0  0  0  0  0  0  0  0  0  0
   -2.0380   20.3360  -33.2270 C   0  0  0  0  0  0  0  0  0  0  0  0
   -1.5820   20.2910  -31.8200 N   0  0  0  0  0  0  0  0  0  0  0  0
   -1.2050   21.6380  -31.3660 C   0  0  0  0  0  0  0  0  0  0  0  0
   -0.4460   19.3720  -31.6520 C   0  0  0  0  0  0  0  0  0  0  0  0
   -6.6790   20.1240  -31.9830 C   0  0  0  0  0  0  0  0  0  0  0  0
   -6.6650   18.7260  -32.1650 C   0  0  0  0  0  0  0  0  0  0  0  0
   -7.8520   18.0190  -32.3470 C   0  0  0  0  0  0  0  0  0  0  0  0
   -9.0700   18.6860  -32.3180 C   0  0  0  0  0  0  0  0  0  0  0  0
   -9.1110   20.0640  -32.1050 C   0  0  0  0  0  0  0  0  0  0  0  0
   -7.9190   20.8160  -31.9440 C   0  0  0  0  0  0  0  0  0  0  0  0
   -7.9430   22.1800  -31.7320 N   0  0  0  0  0  0  0  0  0  0  0  0
   -9.1920   22.9400  -31.9660 C   0  0  0  0  0  0  0  0  0  0  0  0
   -3.1466   24.8726  -28.0221 H   0  0  0  0  0  0  0  0  0  0  0  0
   -2.2419   23.5668  -28.8607 H   0  0  0  0  0  0  0  0  0  0  0  0
   -1.6024   25.2455  -28.8607 H   0  0  0  0  0  0  0  0  0  0  0  0
   -2.8840   25.6700  -30.7360 H   0  0  0  0  0  0  0  0  0  0  0  0
   -5.7375   25.8466  -30.0349 H   0  0  0  0  0  0  0  0  0  0  0  0
   -7.8091   24.6649  -30.6987 H   0  0  0  0  0  0  0  0  0  0  0  0
   -3.3959   22.3732  -31.0741 H   0  0  0  0  0  0  0  0  0  0  0  0
   -3.6500   19.8780  -31.2060 H   0  0  0  0  0  0  0  0  0  0  0  0
   -3.8028   19.2676  -33.8553 H   0  0  0  0  0  0  0  0  0  0  0  0
   -3.9364   21.0772  -33.8987 H   0  0  0  0  0  0  0  0  0  0  0  0
   -1.5703   19.5075  -33.7792 H   0  0  0  0  0  0  0  0  0  0  0  0
   -1.7457   21.3087  -33.6494 H   0  0  0  0  0  0  0  0  0  0  0  0
   -1.1973   21.6655  -30.2664 H   0  0  0  0  0  0  0  0  0  0  0  0
   -0.2029   21.8859  -31.7460 H   0  0  0  0  0  0  0  0  0  0  0  0
   -1.9328   22.3701  -31.7460 H   0  0  0  0  0  0  0  0  0  0  0  0
   -0.2549   19.2174  -30.5798 H   0  0  0  0  0  0  0  0  0  0  0  0
   -0.6816   18.4074  -32.1253 H   0  0  0  0  0  0  0  0  0  0  0  0
    0.4481   19.8039  -32.1253 H   0  0  0  0  0  0  0  0  0  0  0  0
   -5.7060   18.1871  -32.1633 H   0  0  0  0  0  0  0  0  0  0  0  0
   -7.8244   16.9321  -32.5137 H   0  0  0  0  0  0  0  0  0  0  0  0
  -10.0054   18.1257  -32.4635 H   0  0  0  0  0  0  0  0  0  0  0  0
  -10.0836   20.5759  -32.0612 H   0  0  0  0  0  0  0  0  0  0  0  0
   -9.6413   23.2134  -30.9999 H   0  0  0  0  0  0  0  0  0  0  0  0
   -8.9644   23.8529  -32.5360 H   0  0  0  0  0  0  0  0  0  0  0  0
   -9.8982   22.3183  -32.5360 H   0  0  0  0  0  0  0  0  0  0  0  0
  1  2  1  0
  2  3  1  0
  3  4  2  0
  4  5  1  0
  5  6  2  0
  6  7  1  0
  7  8  2  0
  7  9  1  0
  9 10  1  0
 10 11  1  0
 11 12  1  0
 12 13  1  0
 13 14  1  0
 13 15  1  0
  9 16  2  0
 16 17  1  0
 17 18  2  0
 18 19  1  0
 19 20  2  0
 20 21  1  0
 21 22  2  0
 22 23  1  0
  8  3  1  0
 21 16  1  0
 22  6  1  0
  1 24  1  0
  1 25  1  0
  1 26  1  0
  2 27  1  0
  4 28  1  0
  5 29  1  0
  8 30  1  0
 10 31  1  0
 11 32  1  0
 11 33  1  0
 12 34  1  0
 12 35  1  0
 14 36  1  0
 14 37  1  0
 14 38  1  0
 15 39  1  0
 15 40  1  0
 15 41  1  0
 17 42  1  0
 18 43  1  0
 19 44  1  0
 20 45  1  0
 23 46  1  0
 23 47  1  0
 23 48  1  0
M  CHG  1  22   1
M  END
>  <UniqueID>  (16) 
16

>  <SMILES>  (16) 
CNc1ccc2c(c1)c(NCCN(C)C)c1ccccc1[n+]2C

>  <Energy>  (16) 
71.54175414630886

>  <Genealogy>  (16) 
CNc1ccc2c(c1)c(NCCN(C)C)c1ccccc1[n+]2C (3D coordinates assigned)
CNc1ccc2c(c1)c(NCCN(C)C)c1ccccc1[n+]2C (optimized conformer: 71.54175414630886 kcal/mol)

>  <smiles>  (16) 
CNc1ccc2c(c1)c(NCCN(C)C)c1ccccc1[n+]2C

>  <score_type>  (16) 
oracle

>  <origin>  (16) 
adg

>  <m_score__min__energy>  (16) 
-7.6100000000000003

>  <m_primary>  (16) 
energy

$$$$
16:0
     RDKit          3D

 42 44  0  0  0  0  0  0  0  0999 V2000
   -2.2510   24.2470  -28.9190 C   0  0  0  0  0  0  0  0  0  0  0  0
   -3.0950   24.6960  -29.9730 O   0  0  0  0  0  0  0  0  0  0  0  0
   -4.2490   24.0110  -30.3710 C   0  0  0  0  0  0  0  0  0  0  0  0
   -4.3520   22.6350  -30.5750 C   0  0  0  0  0  0  0  0  0  0  0  0
   -5.6660   22.4300  -30.9390 C   0  0  0  0  0  0  0  0  0  0  0  0
   -6.3390   21.2530  -31.2560 C   0  0  0  0  0  0  0  0  0  0  0  0
   -7.7070   21.3410  -31.5870 C   0  0  0  0  0  0  0  0  0  0  0  0
   -8.6090   19.8930  -32.0310 S   0  0  0  0  0  0  0  0  0  0  0  0
   -9.8810   20.3100  -32.7160 O   0  0  0  0  0  0  0  0  0  0  0  0
   -8.9630   19.1150  -30.7940 O   0  0  0  0  0  0  0  0  0  0  0  0
   -7.6530   18.9030  -33.1090 N   0  0  0  0  0  0  0  0  0  0  0  0
   -6.6560   19.7480  -33.8120 C   0  0  0  0  0  0  0  0  0  0  0  0
   -5.5010   18.9130  -34.3750 C   0  0  0  0  0  0  0  0  0  0  0  0
   -4.7300   18.2060  -33.2450 C   0  0  0  0  0  0  0  0  0  0  0  0
   -5.5970   17.9600  -31.9980 C   0  0  0  0  0  0  0  0  0  0  0  0
   -7.0680   17.7440  -32.3810 C   0  0  0  0  0  0  0  0  0  0  0  0
   -8.3540   22.5990  -31.5960 C   0  0  0  0  0  0  0  0  0  0  0  0
   -7.6480   23.7710  -31.2690 C   0  0  0  0  0  0  0  0  0  0  0  0
   -6.2950   23.6510  -30.9450 C   0  0  0  0  0  0  0  0  0  0  0  0
   -5.4320   24.6290  -30.6050 N   0  0  0  0  0  0  0  0  0  0  0  0
   -5.7260   26.0520  -30.4610 C   0  0  0  0  0  0  0  0  0  0  0  0
   -2.7117   24.4921  -27.9507 H   0  0  0  0  0  0  0  0  0  0  0  0
   -2.1163   23.1580  -28.9958 H   0  0  0  0  0  0  0  0  0  0  0  0
   -1.2726   24.7438  -28.9958 H   0  0  0  0  0  0  0  0  0  0  0  0
   -3.5594   21.8797  -30.4689 H   0  0  0  0  0  0  0  0  0  0  0  0
   -5.8192   20.2836  -31.2485 H   0  0  0  0  0  0  0  0  0  0  0  0
   -8.3160   18.5280  -33.8270 H   0  0  0  0  0  0  0  0  0  0  0  0
   -7.1542   20.2720  -34.6410 H   0  0  0  0  0  0  0  0  0  0  0  0
   -6.2403   20.4629  -33.0866 H   0  0  0  0  0  0  0  0  0  0  0  0
   -5.9061   18.1560  -35.0626 H   0  0  0  0  0  0  0  0  0  0  0  0
   -4.8091   19.5839  -34.9052 H   0  0  0  0  0  0  0  0  0  0  0  0
   -4.3682   17.2368  -33.6188 H   0  0  0  0  0  0  0  0  0  0  0  0
   -3.8995   18.8632  -32.9478 H   0  0  0  0  0  0  0  0  0  0  0  0
   -5.2273   17.0662  -31.4741 H   0  0  0  0  0  0  0  0  0  0  0  0
   -5.5318   18.8445  -31.3473 H   0  0  0  0  0  0  0  0  0  0  0  0
   -7.1362   16.8545  -33.0246 H   0  0  0  0  0  0  0  0  0  0  0  0
   -7.6371   17.6187  -31.4480 H   0  0  0  0  0  0  0  0  0  0  0  0
   -9.4197   22.6614  -31.8613 H   0  0  0  0  0  0  0  0  0  0  0  0
   -8.1463   24.7516  -31.2685 H   0  0  0  0  0  0  0  0  0  0  0  0
   -5.7791   26.3092  -29.3928 H   0  0  0  0  0  0  0  0  0  0  0  0
   -4.9306   26.6411  -30.9409 H   0  0  0  0  0  0  0  0  0  0  0  0
   -6.6897   26.2777  -30.9409 H   0  0  0  0  0  0  0  0  0  0  0  0
  1  2  1  0
  2  3  1  0
  3  4  2  0
  4  5  1  0
  5  6  2  0
  6  7  1  0
  7  8  1  0
  8  9  2  0
  8 10  2  0
  8 11  1  0
 11 12  1  0
 12 13  1  0
 13 14  1  0
 14 15  1  0
 15 16  1  0
  7 17  2  0
 17 18  1  0
 18 19  2  0
 19 20  1  0
 20 21  1  0
 20  3  1  0
 19  5  1  0
 16 11  1  0
  1 22  1  0
  1 23  1  0
  1 24  1  0
  4 25  1  0
  6 26  1  0
 11 27  1  0
 12 28  1  0
 12 29  1  0
 13 30  1  0
 13 31  1  0
 14 32  1  0
 14 33  1  0
 15 34  1  0
 15 35  1  0
 16 36  1  0
 16 37  1  0
 17 38  1  0
 18 39  1  0
 21 40  1  0
 21 41  1  0
 21 42  1  0
M  CHG  1  11   1
M  END
>  <UniqueID>  (17) 
17

>  <SMILES>  (17) 
COc1cc2cc(S(=O)(=O)[NH+]3CCCCC3)ccc2n1C

>  <Energy>  (17) 
79.07575091219495

>  <Genealogy>  (17) 
COc1cc2cc(S(=O)(=O)[NH+]3CCCCC3)ccc2n1C (protonated)
COc1cc2cc(S(=O)(=O)[NH+]3CCCCC3)ccc2n1C (3D coordinates assigned)
COc1cc2cc(S(=O)(=O)[NH+]3CCCCC3)ccc2n1C (nonaromatic ring conformer: 79.07575091219495 kcal/mol)

>  <smiles>  (17) 
COc1cc2cc(S(=O)(=O)N3CCCCC3)ccc2n1C

>  <score_type>  (17) 
oracle

>  <origin>  (17) 
adg

>  <m_score__min__energy>  (17) 
-8.2699999999999996

>  <m_primary>  (17) 
energy

$$$$
17:0
     RDKit          3D

 76 78  0  0  0  0  0  0  0  0999 V2000
   -6.4850   25.6880  -29.3510 C   0  0  0  0  0  0  0  0  0  0  0  0
   -6.0950   24.6940  -30.4400 C   0  0  0  0  0  0  0  0  0  0  0  0
   -6.0900   23.2550  -29.9010 C   0  0  0  0  0  0  0  0  0  0  0  0
   -4.7210   22.5630  -30.0420 C   0  0  0  0  0  0  0  0  0  0  0  0
   -4.0670   22.6930  -31.4290 C   0  0  0  0  0  0  0  0  0  0  0  0
   -5.0740   22.5720  -32.5800 C   0  0  0  0  0  0  0  0  0  0  0  0
   -5.4560   21.1700  -32.7800 N   0  0  0  0  0  0  0  0  0  0  0  0
   -6.7060   20.6760  -32.5560 C   0  0  0  0  0  0  0  0  0  0  0  0
   -7.8470   21.3640  -32.1140 C   0  0  0  0  0  0  0  0  0  0  0  0
   -9.0510   20.6490  -31.9860 C   0  0  0  0  0  0  0  0  0  0  0  0
   -9.1010   19.2730  -32.2890 C   0  0  0  0  0  0  0  0  0  0  0  0
   -7.9480   18.5960  -32.7140 C   0  0  0  0  0  0  0  0  0  0  0  0
   -6.7680   19.3310  -32.8320 C   0  0  0  0  0  0  0  0  0  0  0  0
   -5.5060   18.9560  -33.2080 C   0  0  0  0  0  0  0  0  0  0  0  0
   -5.0330   17.7040  -33.5690 C   0  0  0  0  0  0  0  0  0  0  0  0
   -3.6820   17.6020  -33.8930 C   0  0  0  0  0  0  0  0  0  0  0  0
   -2.8740   18.7020  -33.8570 N   0  0  0  0  0  0  0  0  0  0  0  0
   -3.3240   19.9560  -33.5190 C   0  0  0  0  0  0  0  0  0  0  0  0
   -2.3030   21.0680  -33.6010 C   0  0  0  0  0  0  0  0  0  0  0  0
   -1.0150   20.5340  -34.0870 N   0  0  0  0  0  0  0  0  0  0  0  0
   -0.1260   21.5540  -34.6750 C   0  0  0  0  0  0  0  0  0  0  0  0
    0.8760   20.9210  -35.6510 C   0  0  0  0  0  0  0  0  0  0  0  0
    0.4360   19.5240  -36.1040 C   0  0  0  0  0  0  0  0  0  0  0  0
    1.0060   18.4180  -35.2220 C   0  0  0  0  0  0  0  0  0  0  0  0
    0.0830   18.1790  -34.1010 N   0  0  0  0  0  0  0  0  0  0  0  0
    0.2590   16.8560  -33.4820 C   0  0  0  0  0  0  0  0  0  0  0  0
   -0.4450   16.8080  -32.1160 C   0  0  0  0  0  0  0  0  0  0  0  0
    0.0170   17.9090  -31.1530 C   0  0  0  0  0  0  0  0  0  0  0  0
   -0.4050   19.2330  -31.6270 N   0  0  0  0  0  0  0  0  0  0  0  0
   -1.1920   19.9190  -30.5960 C   0  0  0  0  0  0  0  0  0  0  0  0
   -0.8450   21.4020  -30.5820 C   0  0  0  0  0  0  0  0  0  0  0  0
   -4.7030   20.0870  -33.1670 C   0  0  0  0  0  0  0  0  0  0  0  0
   -6.3083   25.2376  -28.3631 H   0  0  0  0  0  0  0  0  0  0  0  0
   -5.8779   26.5997  -29.4522 H   0  0  0  0  0  0  0  0  0  0  0  0
   -7.5501   25.9436  -29.4522 H   0  0  0  0  0  0  0  0  0  0  0  0
   -6.8173   24.7653  -31.2666 H   0  0  0  0  0  0  0  0  0  0  0  0
   -5.0812   24.9392  -30.7894 H   0  0  0  0  0  0  0  0  0  0  0  0
   -6.3623   23.2791  -28.8355 H   0  0  0  0  0  0  0  0  0  0  0  0
   -6.8126   22.6784  -30.4971 H   0  0  0  0  0  0  0  0  0  0  0  0
   -4.0382   23.0027  -29.3001 H   0  0  0  0  0  0  0  0  0  0  0  0
   -4.9016   21.4891  -29.8864 H   0  0  0  0  0  0  0  0  0  0  0  0
   -3.5761   23.6752  -31.4945 H   0  0  0  0  0  0  0  0  0  0  0  0
   -3.3480   21.8670  -31.5326 H   0  0  0  0  0  0  0  0  0  0  0  0
   -5.9712   23.1614  -32.3401 H   0  0  0  0  0  0  0  0  0  0  0  0
   -4.6088   22.9501  -33.5023 H   0  0  0  0  0  0  0  0  0  0  0  0
   -7.8004   22.4364  -31.8736 H   0  0  0  0  0  0  0  0  0  0  0  0
   -9.9603   21.1669  -31.6471 H   0  0  0  0  0  0  0  0  0  0  0  0
  -10.0506   18.7264  -32.1915 H   0  0  0  0  0  0  0  0  0  0  0  0
   -7.9735   17.5212  -32.9465 H   0  0  0  0  0  0  0  0  0  0  0  0
   -5.6969   16.8274  -33.5984 H   0  0  0  0  0  0  0  0  0  0  0  0
   -3.2625   16.6266  -34.1804 H   0  0  0  0  0  0  0  0  0  0  0  0
   -1.8700   18.5670  -34.1150 H   0  0  0  0  0  0  0  0  0  0  0  0
   -2.6620   21.8421  -34.2952 H   0  0  0  0  0  0  0  0  0  0  0  0
   -2.1601   21.5025  -32.6006 H   0  0  0  0  0  0  0  0  0  0  0  0
   -0.5170   20.0990  -33.2730 H   0  0  0  0  0  0  0  0  0  0  0  0
   -0.7358   22.2928  -35.2157 H   0  0  0  0  0  0  0  0  0  0  0  0
    0.4367   22.0361  -33.8620 H   0  0  0  0  0  0  0  0  0  0  0  0
    0.9668   21.5685  -36.5356 H   0  0  0  0  0  0  0  0  0  0  0  0
    1.8393   20.8202  -35.1295 H   0  0  0  0  0  0  0  0  0  0  0  0
   -0.6622   19.4717  -36.0700 H   0  0  0  0  0  0  0  0  0  0  0  0
    0.8167   19.3679  -37.1241 H   0  0  0  0  0  0  0  0  0  0  0  0
    1.1174   17.4961  -35.8116 H   0  0  0  0  0  0  0  0  0  0  0  0
    1.9910   18.7195  -34.8360 H   0  0  0  0  0  0  0  0  0  0  0  0
    0.2360   18.9240  -33.3790 H   0  0  0  0  0  0  0  0  0  0  0  0
   -0.1726   16.0873  -34.1399 H   0  0  0  0  0  0  0  0  0  0  0  0
    1.3333   16.6686  -33.3376 H   0  0  0  0  0  0  0  0  0  0  0  0
   -1.5275   16.9180  -32.2777 H   0  0  0  0  0  0  0  0  0  0  0  0
   -0.1894   15.8435  -31.6529 H   0  0  0  0  0  0  0  0  0  0  0  0
   -0.4205   17.7258  -30.1605 H   0  0  0  0  0  0  0  0  0  0  0  0
    1.1155   17.8895  -31.0991 H   0  0  0  0  0  0  0  0  0  0  0  0
   -1.0170   19.0960  -32.4660 H   0  0  0  0  0  0  0  0  0  0  0  0
   -2.2634   19.7969  -30.8132 H   0  0  0  0  0  0  0  0  0  0  0  0
   -0.9605   19.4830  -29.6130 H   0  0  0  0  0  0  0  0  0  0  0  0
   -0.7636   21.7497  -29.5416 H   0  0  0  0  0  0  0  0  0  0  0  0
    0.1141   21.5590  -31.0972 H   0  0  0  0  0  0  0  0  0  0  0  0
   -1.6349   21.9683  -31.0972 H   0  0  0  0  0  0  0  0  0  0  0  0
  1  2  1  0
  2  3  1  0
  3  4  1  0
  4  5  1  0
  5  6  1  0
  6  7  1  0
  7  8  1  0
  8  9  2  0
  9 10  1  0
 10 11  2  0
 11 12  1  0
 12 13  2  0
 13 14  1  0
 14 15  2  0
 15 16  1  0
 16 17  2  0
 17 18  1  0
 18 19  1  0
 19 20  1  0
 20 21  1  0
 21 22  1  0
 22 23  1  0
 23 24  1  0
 24 25  1  0
 25 26  1  0
 26 27  1  0
 27 28  1  0
 28 29  1  0
 29 30  1  0
 30 31  1  0
 18 32  2  0
 32  7  1  0
 13  8  1  0
 32 14  1  0
  1 33  1  0
  1 34  1  0
  1 35  1  0
  2 36  1  0
  2 37  1  0
  3 38  1  0
  3 39  1  0
  4 40  1  0
  4 41  1  0
  5 42  1  0
  5 43  1  0
  6 44  1  0
  6 45  1  0
  9 46  1  0
 10 47  1  0
 11 48  1  0
 12 49  1  0
 15 50  1  0
 16 51  1  0
 17 52  1  0
 19 53  1  0
 19 54  1  0
 20 55  1  0
 21 56  1  0
 21 57  1  0
 22 58  1  0
 22 59  1  0
 23 60  1  0
 23 61  1  0
 24 62  1  0
 24 63  1  0
 25 64  1  0
 26 65  1  0
 26 66  1  0
 27 67  1  0
 27 68  1  0
 28 69  1  0
 28 70  1  0
 29 71  1  0
 30 72  1  0
 30 73  1  0
 31 74  1  0
 31 75  1  0
 31 76  1  0
M  CHG  1  17   1
M  END
>  <UniqueID>  (18) 
18

>  <SMILES>  (18) 
CCCCCCn1c2ccccc2c2cc[nH+]c(CNCCCCNCCCNCC)c21

>  <Energy>  (18) 
101.23564943642572

>  <Genealogy>  (18) 
CCCCCCn1c2ccccc2c2cc[nH+]c(CNCCCCNCCCNCC)c21 (protonated)
CCCCCCn1c2ccccc2c2cc[nH+]c(CNCCCCNCCCNCC)c21 (3D coordinates assigned)
CCCCCCn1c2ccccc2c2cc[nH+]c(CNCCCCNCCCNCC)c21 (optimized conformer: 101.23564943642572 kcal/mol)

>  <smiles>  (18) 
CCCCCCn1c2ccccc2c2ccnc(CNCCCCNCCCNCC)c21

>  <score_type>  (18) 
oracle

>  <origin>  (18) 
adg

>  <m_score__min__energy>  (18) 
-8.2599999999999998

>  <m_primary>  (18) 
energy

$$$$
18:0
     RDKit          3D

 65 67  0  0  0  0  0  0  0  0999 V2000
   -3.5020   24.0590  -28.5120 C   0  0  0  0  0  0  0  0  0  0  0  0
   -3.5930   24.0900  -30.0330 C   0  0  0  0  0  0  0  0  0  0  0  0
   -4.3540   25.2660  -30.4690 N   0  0  0  0  0  0  0  0  0  0  0  0
   -5.6910   24.8660  -30.9210 C   0  0  0  0  0  0  0  0  0  0  0  0
   -5.8030   23.3410  -30.9420 C   0  0  0  0  0  0  0  0  0  0  0  0
   -5.7820   22.8370  -32.3130 N   0  0  0  0  0  0  0  0  0  0  0  0
   -5.8280   21.4260  -32.5660 C   0  0  0  0  0  0  0  0  0  0  0  0
   -7.0530   20.7410  -32.5310 C   0  0  0  0  0  0  0  0  0  0  0  0
   -8.2450   21.4140  -32.1900 C   0  0  0  0  0  0  0  0  0  0  0  0
   -9.4520   20.7240  -32.1090 C   0  0  0  0  0  0  0  0  0  0  0  0
   -9.4890   19.3550  -32.3480 C   0  0  0  0  0  0  0  0  0  0  0  0
   -8.3230   18.6700  -32.6920 C   0  0  0  0  0  0  0  0  0  0  0  0
   -7.0850   19.3510  -32.8230 C   0  0  0  0  0  0  0  0  0  0  0  0
   -5.9280   18.6950  -33.2020 N   0  0  0  0  0  0  0  0  0  0  0  0
   -6.0040   17.3330  -33.7760 C   0  0  0  0  0  0  0  0  0  0  0  0
   -4.7020   19.3220  -33.0690 C   0  0  0  0  0  0  0  0  0  0  0  0
   -3.4820   18.6130  -33.1910 C   0  0  0  0  0  0  0  0  0  0  0  0
   -2.2530   19.2680  -33.1070 C   0  0  0  0  0  0  0  0  0  0  0  0
   -2.1980   20.6510  -32.8850 C   0  0  0  0  0  0  0  0  0  0  0  0
   -0.9890   21.3620  -32.8060 O   0  0  0  0  0  0  0  0  0  0  0  0
   -0.2100   21.5480  -31.6240 C   0  0  0  0  0  0  0  0  0  0  0  0
   -1.1210   21.8050  -30.4160 C   0  0  0  0  0  0  0  0  0  0  0  0
   -0.5040   21.4430  -29.0380 C   0  0  0  0  0  0  0  0  0  0  0  0
   -1.3410   20.6290  -28.0940 N   0  0  0  0  0  0  0  0  0  0  0  0
   -0.7970   19.2460  -28.0810 C   0  0  0  0  0  0  0  0  0  0  0  0
   -2.7610   20.5580  -28.5170 C   0  0  0  0  0  0  0  0  0  0  0  0
   -1.2590   21.1520  -26.7080 C   0  0  0  0  0  0  0  0  0  0  0  0
   -3.3890   21.3580  -32.7160 C   0  0  0  0  0  0  0  0  0  0  0  0
   -4.6400   20.7100  -32.7840 C   0  0  0  0  0  0  0  0  0  0  0  0
   -4.4598   24.3853  -28.0806 H   0  0  0  0  0  0  0  0  0  0  0  0
   -3.2799   23.0345  -28.1788 H   0  0  0  0  0  0  0  0  0  0  0  0
   -2.7006   24.7348  -28.1788 H   0  0  0  0  0  0  0  0  0  0  0  0
   -2.5791   24.1351  -30.4572 H   0  0  0  0  0  0  0  0  0  0  0  0
   -4.1047   23.1808  -30.3815 H   0  0  0  0  0  0  0  0  0  0  0  0
   -4.4710   25.8970  -29.6410 H   0  0  0  0  0  0  0  0  0  0  0  0
   -6.4456   25.2770  -30.2342 H   0  0  0  0  0  0  0  0  0  0  0  0
   -5.8593   25.2538  -31.9365 H   0  0  0  0  0  0  0  0  0  0  0  0
   -4.9571   22.9098  -30.3865 H   0  0  0  0  0  0  0  0  0  0  0  0
   -6.7560   23.0515  -30.4750 H   0  0  0  0  0  0  0  0  0  0  0  0
   -5.8130   23.4910  -33.1280 H   0  0  0  0  0  0  0  0  0  0  0  0
   -8.2209   22.4947  -31.9860 H   0  0  0  0  0  0  0  0  0  0  0  0
  -10.3770   21.2628  -31.8557 H   0  0  0  0  0  0  0  0  0  0  0  0
  -10.4408   18.8098  -32.2656 H   0  0  0  0  0  0  0  0  0  0  0  0
   -8.3642   17.5844  -32.8644 H   0  0  0  0  0  0  0  0  0  0  0  0
   -6.0452   16.5940  -32.9623 H   0  0  0  0  0  0  0  0  0  0  0  0
   -6.9084   17.2464  -34.3962 H   0  0  0  0  0  0  0  0  0  0  0  0
   -5.1149   17.1463  -34.3962 H   0  0  0  0  0  0  0  0  0  0  0  0
   -3.5039   17.5255  -33.3551 H   0  0  0  0  0  0  0  0  0  0  0  0
   -1.3204   18.6950  -33.2158 H   0  0  0  0  0  0  0  0  0  0  0  0
    0.3897   20.6445  -31.4396 H   0  0  0  0  0  0  0  0  0  0  0  0
    0.4487   22.4176  -31.7647 H   0  0  0  0  0  0  0  0  0  0  0  0
   -1.3779   22.8745  -30.4041 H   0  0  0  0  0  0  0  0  0  0  0  0
   -1.9930   21.1469  -30.5440 H   0  0  0  0  0  0  0  0  0  0  0  0
    0.4201   20.8779  -29.2294 H   0  0  0  0  0  0  0  0  0  0  0  0
   -0.3692   22.4092  -28.5297 H   0  0  0  0  0  0  0  0  0  0  0  0
   -0.6661   18.9132  -27.0407 H   0  0  0  0  0  0  0  0  0  0  0  0
   -1.4969   18.5718  -28.5963 H   0  0  0  0  0  0  0  0  0  0  0  0
    0.1747   19.2293  -28.5963 H   0  0  0  0  0  0  0  0  0  0  0  0
   -3.4074   20.5257  -27.6275 H   0  0  0  0  0  0  0  0  0  0  0  0
   -3.0092   21.4449  -29.1186 H   0  0  0  0  0  0  0  0  0  0  0  0
   -2.9195   19.6508  -29.1186 H   0  0  0  0  0  0  0  0  0  0  0  0
   -1.3888   20.3241  -25.9954 H   0  0  0  0  0  0  0  0  0  0  0  0
   -0.2764   21.6207  -26.5505 H   0  0  0  0  0  0  0  0  0  0  0  0
   -2.0510   21.8989  -26.5505 H   0  0  0  0  0  0  0  0  0  0  0  0
   -3.3516   22.4409  -32.5262 H   0  0  0  0  0  0  0  0  0  0  0  0
  1  2  1  0
  2  3  1  0
  3  4  1  0
  4  5  1  0
  5  6  1  0
  6  7  1  0
  7  8  2  0
  8  9  1  0
  9 10  2  0
 10 11  1  0
 11 12  2  0
 12 13  1  0
 13 14  2  0
 14 15  1  0
 14 16  1  0
 16 17  2  0
 17 18  1  0
 18 19  2  0
 19 20  1  0
 20 21  1  0
 21 22  1  0
 22 23  1  0
 23 24  1  0
 24 25  1  0
 24 26  1  0
 24 27  1  0
 19 28  1  0
 28 29  2  0
 29  7  1  0
 13  8  1  0
 29 16  1  0
  1 30  1  0
  1 31  1  0
  1 32  1  0
  2 33  1  0
  2 34  1  0
  3 35  1  0
  4 36  1  0
  4 37  1  0
  5 38  1  0
  5 39  1  0
  6 40  1  0
  9 41  1  0
 10 42  1  0
 11 43  1  0
 12 44  1  0
 15 45  1  0
 15 46  1  0
 15 47  1  0
 17 48  1  0
 18 49  1  0
 21 50  1  0
 21 51  1  0
 22 52  1  0
 22 53  1  0
 23 54  1  0
 23 55  1  0
 25 56  1  0
 25 57  1  0
 25 58  1  0
 26 59  1  0
 26 60  1  0
 26 61  1  0
 27 62  1  0
 27 63  1  0
 27 64  1  0
 28 65  1  0
M  CHG  2  14   1  24   1
M  END
>  <UniqueID>  (19) 
19

>  <SMILES>  (19) 
CCNCCNc1c2ccccc2[n+](C)c2ccc(OCCC[N+](C)(C)C)cc12

>  <Energy>  (19) 
94.40922213488453

>  <Genealogy>  (19) 
CCNCCNc1c2ccccc2[n+](C)c2ccc(OCCC[N+](C)(C)C)cc12 (3D coordinates assigned)
CCNCCNc1c2ccccc2[n+](C)c2ccc(OCCC[N+](C)(C)C)cc12 (optimized conformer: 94.40922213488453 kcal/mol)

>  <smiles>  (19) 
CCNCCNc1c2ccccc2[n+](C)c2ccc(OCCC[N+](C)(C)C)cc12

>  <score_type>  (19) 
oracle

>  <origin>  (19) 
adg

>  <m_score__min__energy>  (19) 
-7.8399999999999999

>  <m_primary>  (19) 
energy

$$$$
19:0
     RDKit          3D

 56 58  0  0  0  0  0  0  0  0999 V2000
   -6.8960   15.2150  -34.1480 C   0  0  0  0  0  0  0  0  0  0  0  0
   -5.5110   15.8440  -34.2350 C   0  0  0  0  0  0  0  0  0  0  0  0
   -5.2460   16.6620  -33.0280 N   0  0  0  0  0  0  0  0  0  0  0  0
   -6.4890   16.9730  -32.2810 C   0  0  0  0  0  0  0  0  0  0  0  0
   -6.1570   17.8120  -31.0400 C   0  0  0  0  0  0  0  0  0  0  0  0
   -4.4610   17.8800  -33.3470 C   0  0  0  0  0  0  0  0  0  0  0  0
   -5.0330   18.5600  -34.6060 C   0  0  0  0  0  0  0  0  0  0  0  0
   -6.3850   19.1040  -34.4050 N   0  0  0  0  0  0  0  0  0  0  0  0
   -6.4100   20.1160  -33.3860 C   0  0  0  0  0  0  0  0  0  0  0  0
   -5.3810   20.8330  -33.0200 O   0  0  0  0  0  0  0  0  0  0  0  0
   -5.8000   21.6230  -32.0470 C   0  0  0  0  0  0  0  0  0  0  0  0
   -4.9310   22.5960  -31.3570 C   0  0  0  0  0  0  0  0  0  0  0  0
   -5.4350   23.8430  -30.9380 C   0  0  0  0  0  0  0  0  0  0  0  0
   -4.6090   24.7550  -30.2700 C   0  0  0  0  0  0  0  0  0  0  0  0
   -3.2560   24.4460  -30.0210 C   0  0  0  0  0  0  0  0  0  0  0  0
   -2.3630   25.2970  -29.3450 O   0  0  0  0  0  0  0  0  0  0  0  0
   -1.3070   24.8980  -28.4680 C   0  0  0  0  0  0  0  0  0  0  0  0
   -1.2390   25.8750  -27.3240 C   0  0  0  0  0  0  0  0  0  0  0  0
   -1.7840   25.5540  -26.0690 C   0  0  0  0  0  0  0  0  0  0  0  0
   -1.6250   26.4350  -24.9920 C   0  0  0  0  0  0  0  0  0  0  0  0
   -0.9090   27.6250  -25.1570 C   0  0  0  0  0  0  0  0  0  0  0  0
   -0.3520   27.9420  -26.3980 C   0  0  0  0  0  0  0  0  0  0  0  0
   -0.5130   27.0710  -27.4780 C   0  0  0  0  0  0  0  0  0  0  0  0
   -2.7620   23.2010  -30.4460 C   0  0  0  0  0  0  0  0  0  0  0  0
   -3.5880   22.2850  -31.1040 C   0  0  0  0  0  0  0  0  0  0  0  0
   -7.1110   21.4440  -31.7500 N   0  0  0  0  0  0  0  0  0  0  0  0
   -7.4900   20.4840  -32.6090 C   0  0  0  0  0  0  0  0  0  0  0  0
   -8.8190   19.9390  -32.6760 C   0  0  0  0  0  0  0  0  0  0  0  0
   -9.8880   19.4930  -32.7270 N   0  0  0  0  0  0  0  0  0  0  0  0
   -7.1754   15.0881  -33.0917 H   0  0  0  0  0  0  0  0  0  0  0  0
   -7.6277   15.8691  -34.6448 H   0  0  0  0  0  0  0  0  0  0  0  0
   -6.8849   14.2336  -34.6448 H   0  0  0  0  0  0  0  0  0  0  0  0
   -4.7544   15.0489  -34.3089 H   0  0  0  0  0  0  0  0  0  0  0  0
   -5.4641   16.4894  -35.1245 H   0  0  0  0  0  0  0  0  0  0  0  0
   -7.1732   17.5382  -32.9309 H   0  0  0  0  0  0  0  0  0  0  0  0
   -6.9664   16.0335  -31.9656 H   0  0  0  0  0  0  0  0  0  0  0  0
   -6.3863   17.2325  -30.1336 H   0  0  0  0  0  0  0  0  0  0  0  0
   -5.0882   18.0720  -31.0484 H   0  0  0  0  0  0  0  0  0  0  0  0
   -6.7585   18.7330  -31.0484 H   0  0  0  0  0  0  0  0  0  0  0  0
   -4.5130   18.5794  -32.4996 H   0  0  0  0  0  0  0  0  0  0  0  0
   -3.4144   17.5970  -33.5330 H   0  0  0  0  0  0  0  0  0  0  0  0
   -4.3634   19.3840  -34.8935 H   0  0  0  0  0  0  0  0  0  0  0  0
   -5.1020   17.7921  -35.3905 H   0  0  0  0  0  0  0  0  0  0  0  0
   -6.6940   19.5550  -35.3000 H   0  0  0  0  0  0  0  0  0  0  0  0
   -7.0700   18.3380  -34.1860 H   0  0  0  0  0  0  0  0  0  0  0  0
   -6.4853   24.1021  -31.1371 H   0  0  0  0  0  0  0  0  0  0  0  0
   -5.0187   25.7200  -29.9369 H   0  0  0  0  0  0  0  0  0  0  0  0
   -1.5077   23.8879  -28.0815 H   0  0  0  0  0  0  0  0  0  0  0  0
   -0.3505   24.8875  -29.0112 H   0  0  0  0  0  0  0  0  0  0  0  0
   -2.3349   24.6117  -25.9328 H   0  0  0  0  0  0  0  0  0  0  0  0
   -2.0644   26.1904  -24.0137 H   0  0  0  0  0  0  0  0  0  0  0  0
   -0.7843   28.3128  -24.3076 H   0  0  0  0  0  0  0  0  0  0  0  0
    0.2132   28.8771  -26.5248 H   0  0  0  0  0  0  0  0  0  0  0  0
   -0.0703   27.3209  -28.4535 H   0  0  0  0  0  0  0  0  0  0  0  0
   -1.7093   22.9433  -30.2581 H   0  0  0  0  0  0  0  0  0  0  0  0
   -3.1816   21.3146  -31.4250 H   0  0  0  0  0  0  0  0  0  0  0  0
  1  2  1  0
  2  3  1  0
  3  4  1  0
  4  5  1  0
  3  6  1  0
  6  7  1  0
  7  8  1  0
  8  9  1  0
  9 10  1  0
 10 11  1  0
 11 12  1  0
 12 13  2  0
 13 14  1  0
 14 15  2  0
 15 16  1  0
 16 17  1  0
 17 18  1  0
 18 19  2  0
 19 20  1  0
 20 21  2  0
 21 22  1  0
 22 23  2  0
 15 24  1  0
 24 25  2  0
 11 26  2  0
 26 27  1  0
 27 28  1  0
 28 29  3  0
 27  9  2  0
 25 12  1  0
 23 18  1  0
  1 30  1  0
  1 31  1  0
  1 32  1  0
  2 33  1  0
  2 34  1  0
  4 35  1  0
  4 36  1  0
  5 37  1  0
  5 38  1  0
  5 39  1  0
  6 40  1  0
  6 41  1  0
  7 42  1  0
  7 43  1  0
  8 44  1  0
  8 45  1  0
 13 46  1  0
 14 47  1  0
 17 48  1  0
 17 49  1  0
 19 50  1  0
 20 51  1  0
 21 52  1  0
 22 53  1  0
 23 54  1  0
 24 55  1  0
 25 56  1  0
M  CHG  1   8   1
M  END
>  <UniqueID>  (20) 
20

>  <SMILES>  (20) 
CCN(CC)CC[NH2+]c1oc(-c2ccc(OCc3ccccc3)cc2)nc1C#N

>  <Energy>  (20) 
93.29492319197337

>  <Genealogy>  (20) 
CCN(CC)CC[NH2+]c1oc(-c2ccc(OCc3ccccc3)cc2)nc1C#N (protonated)
CCN(CC)CC[NH2+]c1oc(-c2ccc(OCc3ccccc3)cc2)nc1C#N (3D coordinates assigned)
CCN(CC)CC[NH2+]c1oc(-c2ccc(OCc3ccccc3)cc2)nc1C#N (optimized conformer: 93.29492319197337 kcal/mol)

>  <smiles>  (20) 
CCN(CC)CCNc1oc(-c2ccc(OCc3ccccc3)cc2)nc1C#N

>  <score_type>  (20) 
oracle

>  <origin>  (20) 
adg

>  <m_score__min__energy>  (20) 
-7.6600000000000001

>  <m_primary>  (20) 
energy

$$$$
20:0
     RDKit          3D

 54 56  0  0  0  0  0  0  0  0999 V2000
   -4.6010   24.1800  -28.6020 C   0  0  0  0  0  0  0  0  0  0  0  0
   -4.1480   22.8050  -29.0880 C   0  0  0  0  0  0  0  0  0  0  0  0
   -4.2820   22.6970  -30.5490 N   0  0  0  0  0  0  0  0  0  0  0  0
   -5.4170   23.3100  -31.1860 C   0  0  0  0  0  0  0  0  0  0  0  0
   -5.3410   24.5160  -31.5500 O   0  0  0  0  0  0  0  0  0  0  0  0
   -6.6590   22.5440  -31.4400 C   0  0  0  0  0  0  0  0  0  0  0  0
   -7.8810   23.2130  -31.6280 C   0  0  0  0  0  0  0  0  0  0  0  0
   -9.0490   22.4910  -31.8850 C   0  0  0  0  0  0  0  0  0  0  0  0
   -9.0100   21.0980  -31.9650 C   0  0  0  0  0  0  0  0  0  0  0  0
   -7.7990   20.4170  -31.7870 C   0  0  0  0  0  0  0  0  0  0  0  0
   -7.7550   18.6620  -31.9240 S   0  0  0  0  0  0  0  0  0  0  0  0
   -6.8790   18.0880  -30.8450 O   0  0  0  0  0  0  0  0  0  0  0  0
   -9.1510   18.1320  -31.7420 O   0  0  0  0  0  0  0  0  0  0  0  0
   -7.1430   18.2250  -33.5040 N   0  0  0  0  0  0  0  0  0  0  0  0
   -6.1200   19.1860  -33.9910 C   0  0  0  0  0  0  0  0  0  0  0  0
   -4.7310   18.5630  -34.2210 C   0  0  0  0  0  0  0  0  0  0  0  0
   -4.3580   17.6490  -33.0560 C   0  0  0  0  0  0  0  0  0  0  0  0
   -5.4000   16.5390  -32.8370 C   0  0  0  0  0  0  0  0  0  0  0  0
   -6.7330   16.8070  -33.5610 C   0  0  0  0  0  0  0  0  0  0  0  0
   -6.6250   21.1430  -31.5340 C   0  0  0  0  0  0  0  0  0  0  0  0
   -3.2490   22.0960  -31.3640 C   0  0  0  0  0  0  0  0  0  0  0  0
   -3.5360   21.6910  -32.6800 C   0  0  0  0  0  0  0  0  0  0  0  0
   -2.5480   21.1050  -33.4770 C   0  0  0  0  0  0  0  0  0  0  0  0
   -1.2560   20.9090  -32.9800 C   0  0  0  0  0  0  0  0  0  0  0  0
   -0.3020   20.3160  -33.8190 O   0  0  0  0  0  0  0  0  0  0  0  0
   -0.0970   20.6740  -35.1820 C   0  0  0  0  0  0  0  0  0  0  0  0
   -0.9620   21.3070  -31.6630 C   0  0  0  0  0  0  0  0  0  0  0  0
   -1.9480   21.8930  -30.8650 C   0  0  0  0  0  0  0  0  0  0  0  0
   -4.6065   24.1967  -27.5021 H   0  0  0  0  0  0  0  0  0  0  0  0
   -3.9084   24.9479  -28.9769 H   0  0  0  0  0  0  0  0  0  0  0  0
   -5.6145   24.3859  -28.9769 H   0  0  0  0  0  0  0  0  0  0  0  0
   -3.0945   22.6534  -28.8103 H   0  0  0  0  0  0  0  0  0  0  0  0
   -4.7819   22.0386  -28.6182 H   0  0  0  0  0  0  0  0  0  0  0  0
   -7.9177   24.3110  -31.5724 H   0  0  0  0  0  0  0  0  0  0  0  0
  -10.0023   23.0218  -32.0247 H   0  0  0  0  0  0  0  0  0  0  0  0
   -9.9322   20.5339  -32.1683 H   0  0  0  0  0  0  0  0  0  0  0  0
   -6.4703   19.6102  -34.9436 H   0  0  0  0  0  0  0  0  0  0  0  0
   -6.0002   19.9467  -33.2055 H   0  0  0  0  0  0  0  0  0  0  0  0
   -4.7464   17.9763  -35.1514 H   0  0  0  0  0  0  0  0  0  0  0  0
   -3.9862   19.3691  -34.2947 H   0  0  0  0  0  0  0  0  0  0  0  0
   -3.3835   17.1845  -33.2671 H   0  0  0  0  0  0  0  0  0  0  0  0
   -4.3178   18.2617  -32.1433 H   0  0  0  0  0  0  0  0  0  0  0  0
   -4.9844   15.5909  -33.2091 H   0  0  0  0  0  0  0  0  0  0  0  0
   -5.6153   16.5007  -31.7590 H   0  0  0  0  0  0  0  0  0  0  0  0
   -6.6243   16.5152  -34.6160 H   0  0  0  0  0  0  0  0  0  0  0  0
   -7.5097   16.2180  -33.0514 H   0  0  0  0  0  0  0  0  0  0  0  0
   -5.6706   20.6107  -31.4083 H   0  0  0  0  0  0  0  0  0  0  0  0
   -4.5478   21.8367  -33.0862 H   0  0  0  0  0  0  0  0  0  0  0  0
   -2.7894   20.7953  -34.5045 H   0  0  0  0  0  0  0  0  0  0  0  0
    0.4490   21.6276  -35.2325 H   0  0  0  0  0  0  0  0  0  0  0  0
    0.4886   19.8892  -35.6832 H   0  0  0  0  0  0  0  0  0  0  0  0
   -1.0702   20.7818  -35.6832 H   0  0  0  0  0  0  0  0  0  0  0  0
    0.0500   21.1560  -31.2591 H   0  0  0  0  0  0  0  0  0  0  0  0
   -1.7055   22.1988  -29.8366 H   0  0  0  0  0  0  0  0  0  0  0  0
  1  2  1  0
  2  3  1  0
  3  4  1  0
  4  5  2  0
  4  6  1  0
  6  7  2  0
  7  8  1  0
  8  9  2  0
  9 10  1  0
 10 11  1  0
 11 12  2  0
 11 13  2  0
 11 14  1  0
 14 15  1  0
 15 16  1  0
 16 17  1  0
 17 18  1  0
 18 19  1  0
 10 20  2  0
  3 21  1  0
 21 22  2  0
 22 23  1  0
 23 24  2  0
 24 25  1  0
 25 26  1  0
 24 27  1  0
 27 28  2  0
 20  6  1  0
 28 21  1  0
 19 14  1  0
  1 29  1  0
  1 30  1  0
  1 31  1  0
  2 32  1  0
  2 33  1  0
  7 34  1  0
  8 35  1  0
  9 36  1  0
 15 37  1  0
 15 38  1  0
 16 39  1  0
 16 40  1  0
 17 41  1  0
 17 42  1  0
 18 43  1  0
 18 44  1  0
 19 45  1  0
 19 46  1  0
 20 47  1  0
 22 48  1  0
 23 49  1  0
 26 50  1  0
 26 51  1  0
 26 52  1  0
 27 53  1  0
 28 54  1  0
M  END
>  <UniqueID>  (21) 
21

>  <SMILES>  (21) 
CCN(C(=O)c1cccc(S(=O)(=O)N2CCCCC2)c1)c1ccc(OC)cc1

>  <Energy>  (21) 
68.2301793602624

>  <Genealogy>  (21) 
CCN(C(=O)c1cccc(S(=O)(=O)N2CCCCC2)c1)c1ccc(OC)cc1 (3D coordinates assigned)
CCN(C(=O)c1cccc(S(=O)(=O)N2CCCCC2)c1)c1ccc(OC)cc1 (nonaromatic ring conformer: 68.2301793602624 kcal/mol)

>  <smiles>  (21) 
CCN(C(=O)c1cccc(S(=O)(=O)N2CCCCC2)c1)c1ccc(OC)cc1

>  <score_type>  (21) 
oracle

>  <origin>  (21) 
adg

>  <m_score__min__energy>  (21) 
-9.3499999999999996

>  <m_primary>  (21) 
energy

$$$$
21:0
     RDKit          3D

 53 55  0  0  0  0  0  0  0  0999 V2000
   -4.1250   22.6810  -28.2700 C   0  0  0  0  0  0  0  0  0  0  0  0
   -2.8220   21.9810  -27.8380 C   0  0  0  0  0  0  0  0  0  0  0  0
   -2.4890   20.6980  -28.5370 N   0  0  0  0  0  0  0  0  0  0  0  0
   -1.8140   19.6800  -27.6880 C   0  0  0  0  0  0  0  0  0  0  0  0
   -2.7470   19.0550  -26.6410 C   0  0  0  0  0  0  0  0  0  0  0  0
   -1.8260   20.9220  -29.8530 C   0  0  0  0  0  0  0  0  0  0  0  0
   -2.7140   20.6510  -31.0940 C   0  0  0  0  0  0  0  0  0  0  0  0
   -2.3210   21.4740  -32.3300 C   0  0  0  0  0  0  0  0  0  0  0  0
   -3.4690   21.6880  -33.2120 N   0  0  0  0  0  0  0  0  0  0  0  0
   -4.7970   21.3070  -32.8130 C   0  0  0  0  0  0  0  0  0  0  0  0
   -5.5800   22.1750  -32.0310 C   0  0  0  0  0  0  0  0  0  0  0  0
   -5.0610   23.4030  -31.5690 C   0  0  0  0  0  0  0  0  0  0  0  0
   -5.8270   24.2430  -30.7650 C   0  0  0  0  0  0  0  0  0  0  0  0
   -7.1150   23.8710  -30.3990 C   0  0  0  0  0  0  0  0  0  0  0  0
   -7.6550   22.6700  -30.8550 C   0  0  0  0  0  0  0  0  0  0  0  0
   -6.9160   21.8110  -31.7090 C   0  0  0  0  0  0  0  0  0  0  0  0
   -7.4580   20.6450  -32.2140 N   0  0  0  0  0  0  0  0  0  0  0  0
   -8.9180   20.4130  -32.1340 C   0  0  0  0  0  0  0  0  0  0  0  0
   -6.6400   19.7050  -32.8120 C   0  0  0  0  0  0  0  0  0  0  0  0
   -7.0920   18.3890  -33.0880 C   0  0  0  0  0  0  0  0  0  0  0  0
   -6.2640   17.4590  -33.7200 C   0  0  0  0  0  0  0  0  0  0  0  0
   -6.8550   15.8400  -34.0520 Cl  0  0  0  0  0  0  0  0  0  0  0  0
   -4.9640   17.8060  -34.0720 C   0  0  0  0  0  0  0  0  0  0  0  0
   -4.4780   19.0770  -33.7780 C   0  0  0  0  0  0  0  0  0  0  0  0
   -5.3000   20.0370  -33.1480 C   0  0  0  0  0  0  0  0  0  0  0  0
   -4.6912   22.9852  -27.3773 H   0  0  0  0  0  0  0  0  0  0  0  0
   -3.8819   23.5700  -28.8705 H   0  0  0  0  0  0  0  0  0  0  0  0
   -4.7320   21.9876  -28.8705 H   0  0  0  0  0  0  0  0  0  0  0  0
   -1.9923   22.6818  -28.0126 H   0  0  0  0  0  0  0  0  0  0  0  0
   -2.9744   21.7071  -26.7836 H   0  0  0  0  0  0  0  0  0  0  0  0
   -3.4200   20.2810  -28.7840 H   0  0  0  0  0  0  0  0  0  0  0  0
   -1.4315   18.8796  -28.3384 H   0  0  0  0  0  0  0  0  0  0  0  0
   -1.0054   20.1903  -27.1441 H   0  0  0  0  0  0  0  0  0  0  0  0
   -2.3822   19.2993  -25.6324 H   0  0  0  0  0  0  0  0  0  0  0  0
   -3.7635   19.4551  -26.7702 H   0  0  0  0  0  0  0  0  0  0  0  0
   -2.7637   17.9627  -26.7702 H   0  0  0  0  0  0  0  0  0  0  0  0
   -1.4955   21.9704  -29.8935 H   0  0  0  0  0  0  0  0  0  0  0  0
   -0.9993   20.1983  -29.9054 H   0  0  0  0  0  0  0  0  0  0  0  0
   -2.6367   19.5838  -31.3492 H   0  0  0  0  0  0  0  0  0  0  0  0
   -3.7388   20.9468  -30.8251 H   0  0  0  0  0  0  0  0  0  0  0  0
   -1.9336   22.4501  -32.0025 H   0  0  0  0  0  0  0  0  0  0  0  0
   -1.5528   20.9184  -32.8878 H   0  0  0  0  0  0  0  0  0  0  0  0
   -3.2970   21.9490  -34.2080 H   0  0  0  0  0  0  0  0  0  0  0  0
   -4.0391   23.7003  -31.8473 H   0  0  0  0  0  0  0  0  0  0  0  0
   -5.4125   25.2015  -30.4194 H   0  0  0  0  0  0  0  0  0  0  0  0
   -7.7104   24.5270  -29.7470 H   0  0  0  0  0  0  0  0  0  0  0  0
   -8.6715   22.3830  -30.5477 H   0  0  0  0  0  0  0  0  0  0  0  0
   -9.2242   20.3643  -31.0786 H   0  0  0  0  0  0  0  0  0  0  0  0
   -9.4482   21.2382  -32.6320 H   0  0  0  0  0  0  0  0  0  0  0  0
   -9.1663   19.4641  -32.6320 H   0  0  0  0  0  0  0  0  0  0  0  0
   -8.1122   18.0961  -32.7992 H   0  0  0  0  0  0  0  0  0  0  0  0
   -4.3194   17.0757  -34.5830 H   0  0  0  0  0  0  0  0  0  0  0  0
   -3.4415   19.3365  -34.0395 H   0  0  0  0  0  0  0  0  0  0  0  0
  1  2  1  0
  2  3  1  0
  3  4  1  0
  4  5  1  0
  3  6  1  0
  6  7  1  0
  7  8  1  0
  8  9  1  0
  9 10  1  0
 10 11  2  0
 11 12  1  0
 12 13  2  0
 13 14  1  0
 14 15  2  0
 15 16  1  0
 16 17  2  0
 17 18  1  0
 17 19  1  0
 19 20  2  0
 20 21  1  0
 21 22  1  0
 21 23  2  0
 23 24  1  0
 24 25  2  0
 25 10  1  0
 16 11  1  0
 25 19  1  0
  1 26  1  0
  1 27  1  0
  1 28  1  0
  2 29  1  0
  2 30  1  0
  3 31  1  0
  4 32  1  0
  4 33  1  0
  5 34  1  0
  5 35  1  0
  5 36  1  0
  6 37  1  0
  6 38  1  0
  7 39  1  0
  7 40  1  0
  8 41  1  0
  8 42  1  0
  9 43  1  0
 12 44  1  0
 13 45  1  0
 14 46  1  0
 15 47  1  0
 18 48  1  0
 18 49  1  0
 18 50  1  0
 20 51  1  0
 23 52  1  0
 24 53  1  0
M  CHG  2   3   1  17   1
M  END
>  <UniqueID>  (22) 
22

>  <SMILES>  (22) 
CC[NH+](CC)CCCNc1c2ccccc2[n+](C)c2cc(Cl)ccc12

>  <Energy>  (22) 
90.27004329384579

>  <Genealogy>  (22) 
CC[NH+](CC)CCCNc1c2ccccc2[n+](C)c2cc(Cl)ccc12 (protonated)
CC[NH+](CC)CCCNc1c2ccccc2[n+](C)c2cc(Cl)ccc12 (3D coordinates assigned)
CC[NH+](CC)CCCNc1c2ccccc2[n+](C)c2cc(Cl)ccc12 (optimized conformer: 90.27004329384579 kcal/mol)

>  <smiles>  (22) 
CCN(CC)CCCNc1c2ccccc2[n+](C)c2cc(Cl)ccc12

>  <score_type>  (22) 
oracle

>  <origin>  (22) 
adg

>  <m_score__min__energy>  (22) 
-7

>  <m_primary>  (22) 
energy

$$$$
22:0
     RDKit          3D

 68 72  0  0  0  0  0  0  0  0999 V2000
   -5.2680   23.5010  -30.9050 C   0  0  0  0  0  0  0  0  0  0  0  0
   -5.1370   22.9660  -32.3270 C   0  0  0  0  0  0  0  0  0  0  0  0
   -5.5950   21.6160  -32.4020 O   0  0  0  0  0  0  0  0  0  0  0  0
   -6.9360   21.1970  -32.3560 C   0  0  0  0  0  0  0  0  0  0  0  0
   -7.9810   22.0610  -31.9670 C   0  0  0  0  0  0  0  0  0  0  0  0
   -9.3040   21.6120  -31.9590 C   0  0  0  0  0  0  0  0  0  0  0  0
   -9.6020   20.3040  -32.3350 C   0  0  0  0  0  0  0  0  0  0  0  0
   -8.5780   19.4360  -32.7150 C   0  0  0  0  0  0  0  0  0  0  0  0
   -7.2430   19.8710  -32.7190 C   0  0  0  0  0  0  0  0  0  0  0  0
   -6.1990   18.9590  -33.1050 N   0  0  0  0  0  0  0  0  0  0  0  0
   -4.9490   18.9350  -32.3300 C   0  0  0  0  0  0  0  0  0  0  0  0
   -4.0830   17.7340  -32.7140 C   0  0  0  0  0  0  0  0  0  0  0  0
   -4.0130   17.6270  -34.1770 N   0  0  0  0  0  0  0  0  0  0  0  0
   -2.7600   17.4440  -34.8610 C   0  0  0  0  0  0  0  0  0  0  0  0
   -2.7010   16.6500  -35.8410 O   0  0  0  0  0  0  0  0  0  0  0  0
   -1.5160   18.2010  -34.4490 C   0  0  0  0  0  0  0  0  0  0  0  0
   -0.5970   17.3190  -33.5630 C   0  0  0  0  0  0  0  0  0  0  0  0
   -0.8670   17.4970  -32.0630 C   0  0  0  0  0  0  0  0  0  0  0  0
   -0.8160   18.9150  -31.6760 N   0  0  0  0  0  0  0  0  0  0  0  0
   -0.2480   19.2560  -30.4050 C   0  0  0  0  0  0  0  0  0  0  0  0
    0.9690   18.7360  -30.0610 N   0  0  0  0  0  0  0  0  0  0  0  0
    1.5620   19.0280  -28.8660 C   0  0  0  0  0  0  0  0  0  0  0  0
    0.9480   19.8540  -27.9780 N   0  0  0  0  0  0  0  0  0  0  0  0
   -0.2570   20.3800  -28.2960 C   0  0  0  0  0  0  0  0  0  0  0  0
   -1.1590   21.4160  -27.3440 S   0  0  0  0  0  0  0  0  0  0  0  0
   -2.4230   21.5540  -28.4560 C   0  0  0  0  0  0  0  0  0  0  0  0
   -3.6370   22.3980  -28.2280 C   0  0  0  0  0  0  0  0  0  0  0  0
   -2.1490   20.7730  -29.5930 C   0  0  0  0  0  0  0  0  0  0  0  0
   -3.0700   20.7050  -30.7790 C   0  0  0  0  0  0  0  0  0  0  0  0
   -0.8990   20.1130  -29.4940 C   0  0  0  0  0  0  0  0  0  0  0  0
   -0.8980   19.9620  -32.7010 C   0  0  0  0  0  0  0  0  0  0  0  0
   -1.8950   19.5500  -33.7880 C   0  0  0  0  0  0  0  0  0  0  0  0
   -5.2510   17.6580  -34.9700 C   0  0  0  0  0  0  0  0  0  0  0  0
   -6.4840   17.9100  -34.0920 C   0  0  0  0  0  0  0  0  0  0  0  0
   -5.0695   22.6903  -30.1885 H   0  0  0  0  0  0  0  0  0  0  0  0
   -4.5421   24.3129  -30.7504 H   0  0  0  0  0  0  0  0  0  0  0  0
   -6.2869   23.8857  -30.7504 H   0  0  0  0  0  0  0  0  0  0  0  0
   -5.7388   23.5897  -33.0044 H   0  0  0  0  0  0  0  0  0  0  0  0
   -4.0773   22.9969  -32.6205 H   0  0  0  0  0  0  0  0  0  0  0  0
   -7.7528   23.0947  -31.6681 H   0  0  0  0  0  0  0  0  0  0  0  0
  -10.1125   22.2931  -31.6550 H   0  0  0  0  0  0  0  0  0  0  0  0
  -10.6453   19.9554  -32.3323 H   0  0  0  0  0  0  0  0  0  0  0  0
   -8.8179   18.4047  -33.0132 H   0  0  0  0  0  0  0  0  0  0  0  0
   -4.3871   19.8600  -32.5266 H   0  0  0  0  0  0  0  0  0  0  0  0
   -5.2024   18.8546  -31.2626 H   0  0  0  0  0  0  0  0  0  0  0  0
   -3.0697   17.8680  -32.3075 H   0  0  0  0  0  0  0  0  0  0  0  0
   -4.5262   16.8160  -32.3006 H   0  0  0  0  0  0  0  0  0  0  0  0
   -0.9291   18.4459  -35.3466 H   0  0  0  0  0  0  0  0  0  0  0  0
   -0.7620   16.2640  -33.8269 H   0  0  0  0  0  0  0  0  0  0  0  0
    0.4413   17.6296  -33.7514 H   0  0  0  0  0  0  0  0  0  0  0  0
   -1.8645   17.0971  -31.8284 H   0  0  0  0  0  0  0  0  0  0  0  0
   -0.0897   16.9560  -31.5035 H   0  0  0  0  0  0  0  0  0  0  0  0
    1.4640   18.1020  -30.7270 H   0  0  0  0  0  0  0  0  0  0  0  0
    2.5418   18.5924  -28.6207 H   0  0  0  0  0  0  0  0  0  0  0  0
   -3.8048   22.5146  -27.1471 H   0  0  0  0  0  0  0  0  0  0  0  0
   -3.4867   23.3874  -28.6846 H   0  0  0  0  0  0  0  0  0  0  0  0
   -4.5121   21.9125  -28.6846 H   0  0  0  0  0  0  0  0  0  0  0  0
   -4.1107   20.6282  -30.4311 H   0  0  0  0  0  0  0  0  0  0  0  0
   -2.9528   21.6142  -31.3869 H   0  0  0  0  0  0  0  0  0  0  0  0
   -2.8205   19.8228  -31.3869 H   0  0  0  0  0  0  0  0  0  0  0  0
   -1.2321   20.9016  -32.2368 H   0  0  0  0  0  0  0  0  0  0  0  0
    0.0942   20.1036  -33.1543 H   0  0  0  0  0  0  0  0  0  0  0  0
   -2.8931   19.4547  -33.3355 H   0  0  0  0  0  0  0  0  0  0  0  0
   -1.8818   20.3243  -34.5692 H   0  0  0  0  0  0  0  0  0  0  0  0
   -5.1754   18.4620  -35.7169 H   0  0  0  0  0  0  0  0  0  0  0  0
   -5.3711   16.6780  -35.4549 H   0  0  0  0  0  0  0  0  0  0  0  0
   -7.3236   18.2278  -34.7276 H   0  0  0  0  0  0  0  0  0  0  0  0
   -6.7434   16.9810  -33.5631 H   0  0  0  0  0  0  0  0  0  0  0  0
  1  2  1  0
  2  3  1  0
  3  4  1  0
  4  5  2  0
  5  6  1  0
  6  7  2  0
  7  8  1  0
  8  9  2  0
  9 10  1  0
 10 11  1  0
 11 12  1  0
 12 13  1  0
 13 14  1  0
 14 15  2  0
 14 16  1  0
 16 17  1  0
 17 18  1  0
 18 19  1  0
 19 20  1  0
 20 21  2  0
 21 22  1  0
 22 23  2  0
 23 24  1  0
 24 25  1  0
 25 26  1  0
 26 27  1  0
 26 28  2  0
 28 29  1  0
 28 30  1  0
 19 31  1  0
 31 32  1  0
 13 33  1  0
 33 34  1  0
  9  4  1  0
 34 10  1  0
 32 16  1  0
 30 20  1  0
 30 24  2  0
  1 35  1  0
  1 36  1  0
  1 37  1  0
  2 38  1  0
  2 39  1  0
  5 40  1  0
  6 41  1  0
  7 42  1  0
  8 43  1  0
 11 44  1  0
 11 45  1  0
 12 46  1  0
 12 47  1  0
 16 48  1  0
 17 49  1  0
 17 50  1  0
 18 51  1  0
 18 52  1  0
 21 53  1  0
 22 54  1  0
 27 55  1  0
 27 56  1  0
 27 57  1  0
 29 58  1  0
 29 59  1  0
 29 60  1  0
 31 61  1  0
 31 62  1  0
 32 63  1  0
 32 64  1  0
 33 65  1  0
 33 66  1  0
 34 67  1  0
 34 68  1  0
M  CHG  1  21   1
M  END
>  <UniqueID>  (23) 
23

>  <SMILES>  (23) 
CCOc1ccccc1N1CCN(C(=O)C2CCN(c3[nH+]cnc4sc(C)c(C)c34)CC2)CC1

>  <Energy>  (23) 
117.98232486296948

>  <Genealogy>  (23) 
CCOc1ccccc1N1CCN(C(=O)C2CCN(c3[nH+]cnc4sc(C)c(C)c34)CC2)CC1 (protonated)
CCOc1ccccc1N1CCN(C(=O)C2CCN(c3[nH+]cnc4sc(C)c(C)c34)CC2)CC1 (3D coordinates assigned)
CCOc1ccccc1N1CCN(C(=O)C2CCN(c3[nH+]cnc4sc(C)c(C)c34)CC2)CC1 (nonaromatic ring conformer: 117.98232486296948 kcal/mol)

>  <smiles>  (23) 
CCOc1ccccc1N1CCN(C(=O)C2CCN(c3ncnc4sc(C)c(C)c34)CC2)CC1

>  <score_type>  (23) 
oracle

>  <origin>  (23) 
adg

>  <m_score__min__energy>  (23) 
-9.5700000000000003

>  <m_primary>  (23) 
energy

$$$$
23:0
     RDKit          3D

 47 51  0  0  0  0  0  0  0  0999 V2000
   -5.5440   25.7040  -30.1030 C   0  0  0  0  0  0  0  0  0  0  0  0
   -5.7090   24.3040  -30.4870 N   0  0  0  0  0  0  0  0  0  0  0  0
   -6.8240   23.7670  -31.0200 C   0  0  0  0  0  0  0  0  0  0  0  0
   -6.5860   22.4280  -31.2430 C   0  0  0  0  0  0  0  0  0  0  0  0
   -7.5530   21.4550  -31.7700 C   0  0  0  0  0  0  0  0  0  0  0  0
   -8.9210   21.7040  -31.5790 C   0  0  0  0  0  0  0  0  0  0  0  0
   -9.8710   20.8020  -32.0540 C   0  0  0  0  0  0  0  0  0  0  0  0
   -9.4460   19.6550  -32.7250 C   0  0  0  0  0  0  0  0  0  0  0  0
   -8.1200   19.4280  -32.9130 N   0  0  0  0  0  0  0  0  0  0  0  0
   -7.1610   20.2820  -32.4590 C   0  0  0  0  0  0  0  0  0  0  0  0
   -5.4730   19.8810  -32.8190 S   0  0  0  0  0  0  0  0  0  0  0  0
   -4.6550   21.1200  -33.0670 O   0  0  0  0  0  0  0  0  0  0  0  0
   -4.9000   19.1930  -31.6110 O   0  0  0  0  0  0  0  0  0  0  0  0
   -5.3220   18.7550  -34.2110 C   0  0  0  0  0  0  0  0  0  0  0  0
   -6.0750   17.4430  -34.0480 C   0  0  0  0  0  0  0  0  0  0  0  0
   -4.5580   17.4640  -33.9550 C   0  0  0  0  0  0  0  0  0  0  0  0
   -5.3430   22.1210  -30.8300 N   0  0  0  0  0  0  0  0  0  0  0  0
   -4.8180   23.2830  -30.3800 C   0  0  0  0  0  0  0  0  0  0  0  0
   -3.4360   23.4070  -29.8520 C   0  0  0  0  0  0  0  0  0  0  0  0
   -2.4330   22.4910  -30.2200 C   0  0  0  0  0  0  0  0  0  0  0  0
   -1.1400   22.6390  -29.7140 C   0  0  0  0  0  0  0  0  0  0  0  0
   -0.8460   23.6950  -28.8440 C   0  0  0  0  0  0  0  0  0  0  0  0
    0.4400   23.8690  -28.3150 C   0  0  0  0  0  0  0  0  0  0  0  0
    0.6970   24.9340  -27.4420 C   0  0  0  0  0  0  0  0  0  0  0  0
   -0.3250   25.8270  -27.0980 C   0  0  0  0  0  0  0  0  0  0  0  0
   -1.6100   25.6590  -27.6230 C   0  0  0  0  0  0  0  0  0  0  0  0
   -1.8770   24.5960  -28.4960 C   0  0  0  0  0  0  0  0  0  0  0  0
   -3.1250   24.4280  -29.0050 N   0  0  0  0  0  0  0  0  0  0  0  0
   -5.5345   25.7846  -29.0060 H   0  0  0  0  0  0  0  0  0  0  0  0
   -4.5947   26.0856  -30.5069 H   0  0  0  0  0  0  0  0  0  0  0  0
   -6.3786   26.2958  -30.5069 H   0  0  0  0  0  0  0  0  0  0  0  0
   -7.7594   24.3030  -31.2386 H   0  0  0  0  0  0  0  0  0  0  0  0
   -9.2443   22.6142  -31.0526 H   0  0  0  0  0  0  0  0  0  0  0  0
  -10.9437   20.9921  -31.9017 H   0  0  0  0  0  0  0  0  0  0  0  0
  -10.1857   18.9335  -33.1023 H   0  0  0  0  0  0  0  0  0  0  0  0
   -5.2660   19.5440  -34.9754 H   0  0  0  0  0  0  0  0  0  0  0  0
   -6.6788   17.2639  -33.1461 H   0  0  0  0  0  0  0  0  0  0  0  0
   -6.8095   16.8880  -34.6501 H   0  0  0  0  0  0  0  0  0  0  0  0
   -4.0641   17.3002  -32.9858 H   0  0  0  0  0  0  0  0  0  0  0  0
   -3.7403   16.9307  -34.4619 H   0  0  0  0  0  0  0  0  0  0  0  0
   -4.8880   21.1820  -30.8810 H   0  0  0  0  0  0  0  0  0  0  0  0
   -2.6667   21.6616  -30.9037 H   0  0  0  0  0  0  0  0  0  0  0  0
   -0.3527   21.9257  -29.9992 H   0  0  0  0  0  0  0  0  0  0  0  0
    1.2460   23.1707  -28.5847 H   0  0  0  0  0  0  0  0  0  0  0  0
    1.7059   25.0692  -27.0250 H   0  0  0  0  0  0  0  0  0  0  0  0
   -0.1166   26.6624  -26.4134 H   0  0  0  0  0  0  0  0  0  0  0  0
   -2.4115   26.3615  -27.3506 H   0  0  0  0  0  0  0  0  0  0  0  0
  1  2  1  0
  2  3  1  0
  3  4  2  0
  4  5  1  0
  5  6  2  0
  6  7  1  0
  7  8  2  0
  8  9  1  0
  9 10  2  0
 10 11  1  0
 11 12  2  0
 11 13  2  0
 11 14  1  0
 14 15  1  0
 15 16  1  0
  4 17  1  0
 17 18  2  0
 18 19  1  0
 19 20  2  0
 20 21  1  0
 21 22  2  0
 22 23  1  0
 23 24  2  0
 24 25  1  0
 25 26  2  0
 26 27  1  0
 27 28  2  0
 18  2  1  0
 28 19  1  0
 10  5  1  0
 16 14  1  0
 27 22  1  0
  1 29  1  0
  1 30  1  0
  1 31  1  0
  3 32  1  0
  6 33  1  0
  7 34  1  0
  8 35  1  0
 14 36  1  0
 15 37  1  0
 15 38  1  0
 16 39  1  0
 16 40  1  0
 17 41  1  0
 20 42  1  0
 21 43  1  0
 23 44  1  0
 24 45  1  0
 25 46  1  0
 26 47  1  0
M  CHG  1  17   1
M  END
>  <UniqueID>  (24) 
24

>  <SMILES>  (24) 
Cn1cc(-c2cccnc2S(=O)(=O)C2CC2)[nH+]c1-c1ccc2ccccc2n1

>  <Energy>  (24) 
360.4597307555787

>  <Genealogy>  (24) 
Cn1cc(-c2cccnc2S(=O)(=O)C2CC2)[nH+]c1-c1ccc2ccccc2n1 (protonated)
Cn1cc(-c2cccnc2S(=O)(=O)C2CC2)[nH+]c1-c1ccc2ccccc2n1 (3D coordinates assigned)
Cn1cc(-c2cccnc2S(=O)(=O)C2CC2)[nH+]c1-c1ccc2ccccc2n1 (nonaromatic ring conformer: 360.4597307555787 kcal/mol)

>  <smiles>  (24) 
Cn1cc(-c2cccnc2S(=O)(=O)C2CC2)nc1-c1ccc2ccccc2n1

>  <score_type>  (24) 
oracle

>  <origin>  (24) 
adg

>  <m_score__min__energy>  (24) 
-8.0700000000000003

>  <m_primary>  (24) 
energy

$$$$
24:0
     RDKit          3D

 41 42  0  0  0  0  0  0  0  0999 V2000
   -3.5750   24.5320  -27.1690 C   0  0  0  0  0  0  0  0  0  0  0  0
   -2.3670   24.8130  -28.0560 C   0  0  0  0  0  0  0  0  0  0  0  0
   -2.7780   25.2710  -29.3440 O   0  0  0  0  0  0  0  0  0  0  0  0
   -3.7420   24.6570  -30.1620 C   0  0  0  0  0  0  0  0  0  0  0  0
   -4.9660   25.3080  -30.3410 C   0  0  0  0  0  0  0  0  0  0  0  0
   -5.9640   24.7440  -31.1420 C   0  0  0  0  0  0  0  0  0  0  0  0
   -5.7510   23.5080  -31.7790 C   0  0  0  0  0  0  0  0  0  0  0  0
   -6.7560   22.8990  -32.6120 N   0  0  0  0  0  0  0  0  0  0  0  0
   -7.3630   21.5980  -32.3140 C   0  0  0  0  0  0  0  0  0  0  0  0
   -6.4900   20.4230  -32.8120 C   0  0  0  0  0  0  0  0  0  0  0  0
   -7.2790   19.3310  -33.4460 N   0  0  0  0  0  0  0  0  0  0  0  0
   -8.5160   18.9910  -32.7070 C   0  0  0  0  0  0  0  0  0  0  0  0
   -8.2190   18.2610  -31.3740 C   0  0  0  0  0  0  0  0  0  0  0  0
   -6.8790   17.8160  -31.2730 O   0  0  0  0  0  0  0  0  0  0  0  0
   -6.5080   17.1410  -32.4550 C   0  0  0  0  0  0  0  0  0  0  0  0
   -6.4540   18.1130  -33.6540 C   0  0  0  0  0  0  0  0  0  0  0  0
   -4.5230   22.8550  -31.5970 C   0  0  0  0  0  0  0  0  0  0  0  0
   -3.5260   23.4190  -30.7960 C   0  0  0  0  0  0  0  0  0  0  0  0
   -3.2779   24.6011  -26.1121 H   0  0  0  0  0  0  0  0  0  0  0  0
   -4.3628   25.2709  -27.3775 H   0  0  0  0  0  0  0  0  0  0  0  0
   -3.9558   23.5213  -27.3775 H   0  0  0  0  0  0  0  0  0  0  0  0
   -1.7430   25.5846  -27.5813 H   0  0  0  0  0  0  0  0  0  0  0  0
   -1.7964   23.8807  -28.1794 H   0  0  0  0  0  0  0  0  0  0  0  0
   -5.1461   26.2740  -29.8466 H   0  0  0  0  0  0  0  0  0  0  0  0
   -6.9210   25.2699  -31.2747 H   0  0  0  0  0  0  0  0  0  0  0  0
   -7.0620   23.4180  -33.4640 H   0  0  0  0  0  0  0  0  0  0  0  0
   -7.4924   21.5076  -31.2254 H   0  0  0  0  0  0  0  0  0  0  0  0
   -8.3301   21.5472  -32.8356 H   0  0  0  0  0  0  0  0  0  0  0  0
   -5.7725   20.8096  -33.5507 H   0  0  0  0  0  0  0  0  0  0  0  0
   -5.9881   19.9940  -31.9322 H   0  0  0  0  0  0  0  0  0  0  0  0
   -7.5650   19.6650  -34.3970 H   0  0  0  0  0  0  0  0  0  0  0  0
   -9.0643   19.9191  -32.4881 H   0  0  0  0  0  0  0  0  0  0  0  0
   -9.1108   18.3139  -33.3376 H   0  0  0  0  0  0  0  0  0  0  0  0
   -8.4222   18.9525  -30.5430 H   0  0  0  0  0  0  0  0  0  0  0  0
   -8.8647   17.3713  -31.3355 H   0  0  0  0  0  0  0  0  0  0  0  0
   -5.5155   16.6881  -32.3142 H   0  0  0  0  0  0  0  0  0  0  0  0
   -7.2591   16.3656  -32.6661 H   0  0  0  0  0  0  0  0  0  0  0  0
   -5.4092   18.4190  -33.8115 H   0  0  0  0  0  0  0  0  0  0  0  0
   -6.8605   17.5832  -34.5281 H   0  0  0  0  0  0  0  0  0  0  0  0
   -4.3426   21.8884  -32.0901 H   0  0  0  0  0  0  0  0  0  0  0  0
   -2.5692   22.8935  -30.6606 H   0  0  0  0  0  0  0  0  0  0  0  0
  1  2  1  0
  2  3  1  0
  3  4  1  0
  4  5  2  0
  5  6  1  0
  6  7  2  0
  7  8  1  0
  8  9  1  0
  9 10  1  0
 10 11  1  0
 11 12  1  0
 12 13  1  0
 13 14  1  0
 14 15  1  0
 15 16  1  0
  7 17  1  0
 17 18  2  0
 18  4  1  0
 16 11  1  0
  1 19  1  0
  1 20  1  0
  1 21  1  0
  2 22  1  0
  2 23  1  0
  5 24  1  0
  6 25  1  0
  8 26  1  0
  9 27  1  0
  9 28  1  0
 10 29  1  0
 10 30  1  0
 11 31  1  0
 12 32  1  0
 12 33  1  0
 13 34  1  0
 13 35  1  0
 15 36  1  0
 15 37  1  0
 16 38  1  0
 16 39  1  0
 17 40  1  0
 18 41  1  0
M  CHG  1  11   1
M  END
>  <UniqueID>  (25) 
25

>  <SMILES>  (25) 
CCOc1ccc(NCC[NH+]2CCOCC2)cc1

>  <Energy>  (25) 
51.16111403456741

>  <Genealogy>  (25) 
CCOc1ccc(NCC[NH+]2CCOCC2)cc1 (protonated)
CCOc1ccc(NCC[NH+]2CCOCC2)cc1 (3D coordinates assigned)
CCOc1ccc(NCC[NH+]2CCOCC2)cc1 (nonaromatic ring conformer: 51.16111403456741 kcal/mol)

>  <smiles>  (25) 
CCOc1ccc(NCCN2CCOCC2)cc1

>  <score_type>  (25) 
oracle

>  <origin>  (25) 
adg

>  <m_score__min__energy>  (25) 
-6.4100000000000001

>  <m_primary>  (25) 
energy

$$$$
25:0
     RDKit          3D

 34 35  0  0  0  0  0  0  0  0999 V2000
   -4.8560   25.4740  -30.4950 C   0  0  0  0  0  0  0  0  0  0  0  0
   -3.4910   25.1020  -30.3340 O   0  0  0  0  0  0  0  0  0  0  0  0
   -3.0540   23.8640  -29.8350 C   0  0  0  0  0  0  0  0  0  0  0  0
   -3.8610   22.7110  -29.9110 C   0  0  0  0  0  0  0  0  0  0  0  0
   -3.4110   21.4960  -29.3920 C   0  0  0  0  0  0  0  0  0  0  0  0
   -2.1510   21.4090  -28.8010 C   0  0  0  0  0  0  0  0  0  0  0  0
   -1.5940   19.8820  -28.1410 Cl  0  0  0  0  0  0  0  0  0  0  0  0
   -1.3370   22.5410  -28.7240 C   0  0  0  0  0  0  0  0  0  0  0  0
   -1.7810   23.7750  -29.2280 C   0  0  0  0  0  0  0  0  0  0  0  0
   -0.8990   24.9900  -29.0640 C   0  0  0  0  0  0  0  0  0  0  0  0
   -1.6010   26.0510  -28.3220 N   0  0  0  0  0  0  0  0  0  0  0  0
   -2.2430   25.5540  -27.0940 C   0  0  0  0  0  0  0  0  0  0  0  0
   -1.3060   25.6300  -25.9160 C   0  0  0  0  0  0  0  0  0  0  0  0
   -0.4200   24.5770  -25.6460 C   0  0  0  0  0  0  0  0  0  0  0  0
    0.4120   24.6460  -24.5280 C   0  0  0  0  0  0  0  0  0  0  0  0
    0.3760   25.7360  -23.7140 N   0  0  0  0  0  0  0  0  0  0  0  0
   -0.4570   26.7820  -23.9670 C   0  0  0  0  0  0  0  0  0  0  0  0
   -1.3070   26.7510  -25.0750 C   0  0  0  0  0  0  0  0  0  0  0  0
   -5.3206   25.6006  -29.5060 H   0  0  0  0  0  0  0  0  0  0  0  0
   -4.9148   26.4209  -31.0517 H   0  0  0  0  0  0  0  0  0  0  0  0
   -5.3871   24.6878  -31.0517 H   0  0  0  0  0  0  0  0  0  0  0  0
   -4.8529   22.7691  -30.3829 H   0  0  0  0  0  0  0  0  0  0  0  0
   -4.0524   20.6042  -29.4494 H   0  0  0  0  0  0  0  0  0  0  0  0
   -0.3401   22.4660  -28.2651 H   0  0  0  0  0  0  0  0  0  0  0  0
    0.0088   24.7045  -28.5123 H   0  0  0  0  0  0  0  0  0  0  0  0
   -0.6372   25.3722  -30.0617 H   0  0  0  0  0  0  0  0  0  0  0  0
   -2.3610   26.4120  -28.9440 H   0  0  0  0  0  0  0  0  0  0  0  0
   -3.1336   26.1643  -26.8832 H   0  0  0  0  0  0  0  0  0  0  0  0
   -2.5202   24.5009  -27.2493 H   0  0  0  0  0  0  0  0  0  0  0  0
   -0.3812   23.7020  -26.3115 H   0  0  0  0  0  0  0  0  0  0  0  0
    1.0991   23.8168  -24.3039 H   0  0  0  0  0  0  0  0  0  0  0  0
    1.0020   25.7720  -22.8790 H   0  0  0  0  0  0  0  0  0  0  0  0
   -0.4609   27.6544  -23.2970 H   0  0  0  0  0  0  0  0  0  0  0  0
   -1.9727   27.6009  -25.2860 H   0  0  0  0  0  0  0  0  0  0  0  0
  1  2  1  0
  2  3  1  0
  3  4  2  0
  4  5  1  0
  5  6  2  0
  6  7  1  0
  6  8  1  0
  8  9  2  0
  9 10  1  0
 10 11  1  0
 11 12  1  0
 12 13  1  0
 13 14  2  0
 14 15  1  0
 15 16  2  0
 16 17  1  0
 17 18  2  0
  9  3  1  0
 18 13  1  0
  1 19  1  0
  1 20  1  0
  1 21  1  0
  4 22  1  0
  5 23  1  0
  8 24  1  0
 10 25  1  0
 10 26  1  0
 11 27  1  0
 12 28  1  0
 12 29  1  0
 14 30  1  0
 15 31  1  0
 16 32  1  0
 17 33  1  0
 18 34  1  0
M  CHG  1  16   1
M  END
>  <UniqueID>  (26) 
26

>  <SMILES>  (26) 
COc1ccc(Cl)cc1CNCc1cc[nH+]cc1

>  <Energy>  (26) 
30.670818782756495

>  <Genealogy>  (26) 
COc1ccc(Cl)cc1CNCc1cc[nH+]cc1 (protonated)
COc1ccc(Cl)cc1CNCc1cc[nH+]cc1 (3D coordinates assigned)
COc1ccc(Cl)cc1CNCc1cc[nH+]cc1 (optimized conformer: 30.670818782756495 kcal/mol)

>  <smiles>  (26) 
COc1ccc(Cl)cc1CNCc1ccncc1

>  <score_type>  (26) 
oracle

>  <origin>  (26) 
adg

>  <m_score__min__energy>  (26) 
-6.9900000000000002

>  <m_primary>  (26) 
energy

$$$$
26:0
     RDKit          3D

 53 56  0  0  0  0  0  0  0  0999 V2000
   -5.8510   25.6700  -30.1020 C   0  0  0  0  0  0  0  0  0  0  0  0
   -4.6130   25.1190  -30.8010 C   0  0  0  0  0  0  0  0  0  0  0  0
   -4.6500   23.6390  -30.9240 N   0  0  0  0  0  0  0  0  0  0  0  0
   -5.3130   23.0330  -29.7420 C   0  0  0  0  0  0  0  0  0  0  0  0
   -4.3730   22.8020  -28.5500 C   0  0  0  0  0  0  0  0  0  0  0  0
   -3.3160   23.0350  -31.1870 C   0  0  0  0  0  0  0  0  0  0  0  0
   -3.3720   21.9930  -32.3280 C   0  0  0  0  0  0  0  0  0  0  0  0
   -4.5280   22.1360  -33.2390 N   0  0  0  0  0  0  0  0  0  0  0  0
   -5.5930   21.1800  -32.9830 C   0  0  0  0  0  0  0  0  0  0  0  0
   -6.8880   21.5580  -32.5230 C   0  0  0  0  0  0  0  0  0  0  0  0
   -7.2570   22.9130  -32.3300 C   0  0  0  0  0  0  0  0  0  0  0  0
   -8.5450   23.2590  -31.9280 C   0  0  0  0  0  0  0  0  0  0  0  0
   -9.5010   22.2760  -31.7190 C   0  0  0  0  0  0  0  0  0  0  0  0
   -9.1730   20.9350  -31.8850 C   0  0  0  0  0  0  0  0  0  0  0  0
   -7.8650   20.5390  -32.2600 C   0  0  0  0  0  0  0  0  0  0  0  0
   -7.5380   19.1980  -32.3810 N   0  0  0  0  0  0  0  0  0  0  0  0
   -8.3730   18.1770  -31.7200 C   0  0  0  0  0  0  0  0  0  0  0  0
   -6.3530   18.8510  -32.9890 C   0  0  0  0  0  0  0  0  0  0  0  0
   -5.3690   19.8160  -33.2030 C   0  0  0  0  0  0  0  0  0  0  0  0
   -3.9460   19.0860  -33.7450 S   0  0  0  0  0  0  0  0  0  0  0  0
   -4.5910   17.5420  -33.8090 C   0  0  0  0  0  0  0  0  0  0  0  0
   -3.9540   16.3930  -34.2710 C   0  0  0  0  0  0  0  0  0  0  0  0
   -4.6970   15.2110  -34.3640 C   0  0  0  0  0  0  0  0  0  0  0  0
   -3.9370   13.7430  -34.9480 Cl  0  0  0  0  0  0  0  0  0  0  0  0
   -6.0620   15.2100  -34.0290 C   0  0  0  0  0  0  0  0  0  0  0  0
   -6.6870   16.3820  -33.5720 C   0  0  0  0  0  0  0  0  0  0  0  0
   -5.9270   17.5570  -33.4090 C   0  0  0  0  0  0  0  0  0  0  0  0
   -5.7143   25.6092  -29.0122 H   0  0  0  0  0  0  0  0  0  0  0  0
   -6.0007   26.7197  -30.3947 H   0  0  0  0  0  0  0  0  0  0  0  0
   -6.7311   25.0786  -30.3947 H   0  0  0  0  0  0  0  0  0  0  0  0
   -4.5506   25.5567  -31.8082 H   0  0  0  0  0  0  0  0  0  0  0  0
   -3.7355   25.3855  -30.1936 H   0  0  0  0  0  0  0  0  0  0  0  0
   -6.1237   23.7026  -29.4188 H   0  0  0  0  0  0  0  0  0  0  0  0
   -5.6802   22.0443  -30.0546 H   0  0  0  0  0  0  0  0  0  0  0  0
   -4.9304   22.9390  -27.6116 H   0  0  0  0  0  0  0  0  0  0  0  0
   -3.9720   21.7786  -28.5922 H   0  0  0  0  0  0  0  0  0  0  0  0
   -3.5433   23.5230  -28.5922 H   0  0  0  0  0  0  0  0  0  0  0  0
   -2.6130   23.8331  -31.4679 H   0  0  0  0  0  0  0  0  0  0  0  0
   -2.9866   22.5219  -30.2714 H   0  0  0  0  0  0  0  0  0  0  0  0
   -2.4523   22.0877  -32.9240 H   0  0  0  0  0  0  0  0  0  0  0  0
   -3.4760   21.0097  -31.8460 H   0  0  0  0  0  0  0  0  0  0  0  0
   -4.2000   22.1380  -34.2250 H   0  0  0  0  0  0  0  0  0  0  0  0
   -4.9190   23.0970  -33.1020 H   0  0  0  0  0  0  0  0  0  0  0  0
   -6.5131   23.7052  -32.5007 H   0  0  0  0  0  0  0  0  0  0  0  0
   -8.8052   24.3169  -31.7756 H   0  0  0  0  0  0  0  0  0  0  0  0
  -10.5216   22.5581  -31.4211 H   0  0  0  0  0  0  0  0  0  0  0  0
   -9.9434   20.1669  -31.7222 H   0  0  0  0  0  0  0  0  0  0  0  0
   -8.2864   18.2829  -30.6285 H   0  0  0  0  0  0  0  0  0  0  0  0
   -9.4229   18.3120  -32.0193 H   0  0  0  0  0  0  0  0  0  0  0  0
   -8.0324   17.1748  -32.0193 H   0  0  0  0  0  0  0  0  0  0  0  0
   -2.8918   16.4142  -34.5561 H   0  0  0  0  0  0  0  0  0  0  0  0
   -6.6462   14.2830  -34.1256 H   0  0  0  0  0  0  0  0  0  0  0  0
   -7.7629   16.3824  -33.3429 H   0  0  0  0  0  0  0  0  0  0  0  0
  1  2  1  0
  2  3  1  0
  3  4  1  0
  4  5  1  0
  3  6  1  0
  6  7  1  0
  7  8  1  0
  8  9  1  0
  9 10  2  0
 10 11  1  0
 11 12  2  0
 12 13  1  0
 13 14  2  0
 14 15  1  0
 15 16  2  0
 16 17  1  0
 16 18  1  0
 18 19  2  0
 19 20  1  0
 20 21  1  0
 21 22  2  0
 22 23  1  0
 23 24  1  0
 23 25  2  0
 25 26  1  0
 26 27  2  0
 19  9  1  0
 27 21  1  0
 15 10  1  0
 27 18  1  0
  1 28  1  0
  1 29  1  0
  1 30  1  0
  2 31  1  0
  2 32  1  0
  4 33  1  0
  4 34  1  0
  5 35  1  0
  5 36  1  0
  5 37  1  0
  6 38  1  0
  6 39  1  0
  7 40  1  0
  7 41  1  0
  8 42  1  0
  8 43  1  0
 11 44  1  0
 12 45  1  0
 13 46  1  0
 14 47  1  0
 17 48  1  0
 17 49  1  0
 17 50  1  0
 22 51  1  0
 25 52  1  0
 26 53  1  0
M  CHG  2   8   1  16   1
M  END
>  <UniqueID>  (27) 
27

>  <SMILES>  (27) 
CCN(CC)CC[NH2+]c1c2ccccc2[n+](C)c2c1sc1cc(Cl)ccc12

>  <Energy>  (27) 
119.6875376176815

>  <Genealogy>  (27) 
CCN(CC)CC[NH2+]c1c2ccccc2[n+](C)c2c1sc1cc(Cl)ccc12 (protonated)
CCN(CC)CC[NH2+]c1c2ccccc2[n+](C)c2c1sc1cc(Cl)ccc12 (3D coordinates assigned)
CCN(CC)CC[NH2+]c1c2ccccc2[n+](C)c2c1sc1cc(Cl)ccc12 (optimized conformer: 119.6875376176815 kcal/mol)

>  <smiles>  (27) 
CCN(CC)CCNc1c2ccccc2[n+](C)c2c1sc1cc(Cl)ccc12

>  <score_type>  (27) 
oracle

>  <origin>  (27) 
adg

>  <m_score__min__energy>  (27) 
-9.0500000000000007

>  <m_primary>  (27) 
energy

$$$$
27:0
     RDKit          3D

 69 72  0  0  0  0  0  0  0  0999 V2000
   -4.4660   24.0460  -28.7590 C   0  0  0  0  0  0  0  0  0  0  0  0
   -3.7310   24.2940  -30.0740 C   0  0  0  0  0  0  0  0  0  0  0  0
   -4.6540   24.8170  -31.0920 N   0  0  0  0  0  0  0  0  0  0  0  0
   -6.0430   24.8110  -30.6100 C   0  0  0  0  0  0  0  0  0  0  0  0
   -6.7780   23.5710  -31.1230 C   0  0  0  0  0  0  0  0  0  0  0  0
   -6.1440   23.0370  -32.3290 N   0  0  0  0  0  0  0  0  0  0  0  0
   -5.9010   21.6290  -32.4500 C   0  0  0  0  0  0  0  0  0  0  0  0
   -6.9740   20.7260  -32.4400 C   0  0  0  0  0  0  0  0  0  0  0  0
   -8.2950   21.1790  -32.2400 C   0  0  0  0  0  0  0  0  0  0  0  0
   -9.3540   20.2760  -32.1840 C   0  0  0  0  0  0  0  0  0  0  0  0
   -9.1140   18.9120  -32.3100 C   0  0  0  0  0  0  0  0  0  0  0  0
   -7.8160   18.4440  -32.5180 C   0  0  0  0  0  0  0  0  0  0  0  0
   -6.7210   19.3400  -32.6230 C   0  0  0  0  0  0  0  0  0  0  0  0
   -5.4370   18.8980  -32.8800 N   0  0  0  0  0  0  0  0  0  0  0  0
   -5.2150   17.5150  -33.3580 C   0  0  0  0  0  0  0  0  0  0  0  0
   -4.3630   19.7560  -32.7180 C   0  0  0  0  0  0  0  0  0  0  0  0
   -3.0240   19.2880  -32.7170 C   0  0  0  0  0  0  0  0  0  0  0  0
   -1.9420   20.1760  -32.5940 C   0  0  0  0  0  0  0  0  0  0  0  0
   -0.6140   19.7310  -32.5890 O   0  0  0  0  0  0  0  0  0  0  0  0
    0.2460   19.7770  -31.4490 C   0  0  0  0  0  0  0  0  0  0  0  0
   -0.3470   18.9300  -30.2970 C   0  0  0  0  0  0  0  0  0  0  0  0
   -0.3890   19.5930  -28.9510 N   0  0  0  0  0  0  0  0  0  0  0  0
    0.9800   20.0520  -28.5850 C   0  0  0  0  0  0  0  0  0  0  0  0
   -1.2620   20.8190  -29.0590 C   0  0  0  0  0  0  0  0  0  0  0  0
   -2.7200   20.5620  -28.6450 C   0  0  0  0  0  0  0  0  0  0  0  0
   -2.8010   20.1320  -27.1700 C   0  0  0  0  0  0  0  0  0  0  0  0
   -1.5590   19.3450  -26.7170 C   0  0  0  0  0  0  0  0  0  0  0  0
   -0.8940   18.6360  -27.9100 C   0  0  0  0  0  0  0  0  0  0  0  0
   -2.1860   21.5360  -32.4280 C   0  0  0  0  0  0  0  0  0  0  0  0
   -3.4900   22.0210  -32.3980 C   0  0  0  0  0  0  0  0  0  0  0  0
   -4.5870   21.1440  -32.5260 C   0  0  0  0  0  0  0  0  0  0  0  0
   -3.7961   24.2720  -27.9163 H   0  0  0  0  0  0  0  0  0  0  0  0
   -5.3529   24.6947  -28.7066 H   0  0  0  0  0  0  0  0  0  0  0  0
   -4.7786   22.9926  -28.7066 H   0  0  0  0  0  0  0  0  0  0  0  0
   -2.9262   25.0248  -29.9061 H   0  0  0  0  0  0  0  0  0  0  0  0
   -3.3118   23.3417  -30.4311 H   0  0  0  0  0  0  0  0  0  0  0  0
   -4.6020   24.1820  -31.9230 H   0  0  0  0  0  0  0  0  0  0  0  0
   -6.0453   24.8050  -29.5100 H   0  0  0  0  0  0  0  0  0  0  0  0
   -6.5550   25.7102  -30.9831 H   0  0  0  0  0  0  0  0  0  0  0  0
   -6.7664   22.7983  -30.3402 H   0  0  0  0  0  0  0  0  0  0  0  0
   -7.8103   23.8580  -31.3719 H   0  0  0  0  0  0  0  0  0  0  0  0
   -5.8470   23.6650  -33.1120 H   0  0  0  0  0  0  0  0  0  0  0  0
   -8.4905   22.2556  -32.1272 H   0  0  0  0  0  0  0  0  0  0  0  0
  -10.3812   20.6421  -32.0400 H   0  0  0  0  0  0  0  0  0  0  0  0
   -9.9499   18.1999  -32.2455 H   0  0  0  0  0  0  0  0  0  0  0  0
   -7.6387   17.3616  -32.6020 H   0  0  0  0  0  0  0  0  0  0  0  0
   -5.1069   16.8417  -32.4949 H   0  0  0  0  0  0  0  0  0  0  0  0
   -6.0733   17.1954  -33.9672 H   0  0  0  0  0  0  0  0  0  0  0  0
   -4.2998   17.4801  -33.9672 H   0  0  0  0  0  0  0  0  0  0  0  0
   -2.8290   18.2098  -32.8143 H   0  0  0  0  0  0  0  0  0  0  0  0
    1.2336   19.3773  -31.7226 H   0  0  0  0  0  0  0  0  0  0  0  0
    0.3425   20.8204  -31.1143 H   0  0  0  0  0  0  0  0  0  0  0  0
   -1.3773   18.6606  -30.5724 H   0  0  0  0  0  0  0  0  0  0  0  0
    0.3268   18.0680  -30.1836 H   0  0  0  0  0  0  0  0  0  0  0  0
    1.0754   20.0840  -27.4896 H   0  0  0  0  0  0  0  0  0  0  0  0
    1.7233   19.3539  -28.9976 H   0  0  0  0  0  0  0  0  0  0  0  0
    1.1523   21.0570  -28.9976 H   0  0  0  0  0  0  0  0  0  0  0  0
   -0.8466   21.6025  -28.4082 H   0  0  0  0  0  0  0  0  0  0  0  0
   -1.2708   21.1222  -30.1164 H   0  0  0  0  0  0  0  0  0  0  0  0
   -3.3025   21.4847  -28.7842 H   0  0  0  0  0  0  0  0  0  0  0  0
   -3.1272   19.7542  -29.2708 H   0  0  0  0  0  0  0  0  0  0  0  0
   -2.8958   21.0321  -26.5448 H   0  0  0  0  0  0  0  0  0  0  0  0
   -3.6735   19.4709  -27.0619 H   0  0  0  0  0  0  0  0  0  0  0  0
   -0.8375   20.0404  -26.2633 H   0  0  0  0  0  0  0  0  0  0  0  0
   -1.8715   18.5850  -25.9857 H   0  0  0  0  0  0  0  0  0  0  0  0
   -0.0458   18.0429  -27.5375 H   0  0  0  0  0  0  0  0  0  0  0  0
   -1.6580   18.0037  -28.3858 H   0  0  0  0  0  0  0  0  0  0  0  0
   -1.3418   22.2328  -32.3197 H   0  0  0  0  0  0  0  0  0  0  0  0
   -3.6669   23.0995  -32.2732 H   0  0  0  0  0  0  0  0  0  0  0  0
  1  2  1  0
  2  3  1  0
  3  4  1  0
  4  5  1  0
  5  6  1  0
  6  7  1  0
  7  8  2  0
  8  9  1  0
  9 10  2  0
 10 11  1  0
 11 12  2  0
 12 13  1  0
 13 14  2  0
 14 15  1  0
 14 16  1  0
 16 17  2  0
 17 18  1  0
 18 19  1  0
 19 20  1  0
 20 21  1  0
 21 22  1  0
 22 23  1  0
 22 24  1  0
 24 25  1  0
 25 26  1  0
 26 27  1  0
 27 28  1  0
 18 29  2  0
 29 30  1  0
 30 31  2  0
 31  7  1  0
 13  8  1  0
 31 16  1  0
 28 22  1  0
  1 32  1  0
  1 33  1  0
  1 34  1  0
  2 35  1  0
  2 36  1  0
  3 37  1  0
  4 38  1  0
  4 39  1  0
  5 40  1  0
  5 41  1  0
  6 42  1  0
  9 43  1  0
 10 44  1  0
 11 45  1  0
 12 46  1  0
 15 47  1  0
 15 48  1  0
 15 49  1  0
 17 50  1  0
 20 51  1  0
 20 52  1  0
 21 53  1  0
 21 54  1  0
 23 55  1  0
 23 56  1  0
 23 57  1  0
 24 58  1  0
 24 59  1  0
 25 60  1  0
 25 61  1  0
 26 62  1  0
 26 63  1  0
 27 64  1  0
 27 65  1  0
 28 66  1  0
 28 67  1  0
 29 68  1  0
 30 69  1  0
M  CHG  2  14   1  22   1
M  END
>  <UniqueID>  (28) 
28

>  <SMILES>  (28) 
CCNCCNc1c2ccccc2[n+](C)c2cc(OCC[N+]3(C)CCCCC3)ccc12

>  <Energy>  (28) 
111.61067315202517

>  <Genealogy>  (28) 
CCNCCNc1c2ccccc2[n+](C)c2cc(OCC[N+]3(C)CCCCC3)ccc12 (3D coordinates assigned)
CCNCCNc1c2ccccc2[n+](C)c2cc(OCC[N+]3(C)CCCCC3)ccc12 (nonaromatic ring conformer: 111.61067315202517 kcal/mol)

>  <smiles>  (28) 
CCNCCNc1c2ccccc2[n+](C)c2cc(OCC[N+]3(C)CCCCC3)ccc12

>  <score_type>  (28) 
oracle

>  <origin>  (28) 
adg

>  <m_score__min__energy>  (28) 
-8.8399999999999999

>  <m_primary>  (28) 
energy

$$$$
28:0
     RDKit          3D

 36 37  0  0  0  0  0  0  0  0999 V2000
   -2.2670   25.2310  -26.4970 C   0  0  0  0  0  0  0  0  0  0  0  0
   -1.3660   25.4220  -27.7100 C   0  0  0  0  0  0  0  0  0  0  0  0
   -2.1410   25.2220  -28.9420 N   0  0  0  0  0  0  0  0  0  0  0  0
   -1.9590   23.8750  -29.5030 C   0  0  0  0  0  0  0  0  0  0  0  0
   -3.2020   22.9870  -29.3230 C   0  0  0  0  0  0  0  0  0  0  0  0
   -4.1370   23.1900  -30.4250 N   0  0  0  0  0  0  0  0  0  0  0  0
   -4.7240   24.4230  -30.8300 C   0  0  0  0  0  0  0  0  0  0  0  0
   -4.2400   25.5510  -30.5470 O   0  0  0  0  0  0  0  0  0  0  0  0
   -5.9340   24.2600  -31.5740 N   0  0  0  0  0  0  0  0  0  0  0  0
   -6.1550   22.9820  -31.6050 C   0  0  0  0  0  0  0  0  0  0  0  0
   -7.3030   22.3640  -32.3380 C   0  0  0  0  0  0  0  0  0  0  0  0
   -7.0080   20.9200  -32.6330 C   0  0  0  0  0  0  0  0  0  0  0  0
   -7.8430   19.9100  -32.1270 C   0  0  0  0  0  0  0  0  0  0  0  0
   -7.5910   18.5680  -32.4310 C   0  0  0  0  0  0  0  0  0  0  0  0
   -6.5090   18.2260  -33.2490 C   0  0  0  0  0  0  0  0  0  0  0  0
   -6.1670   16.3940  -33.6640 Br  0  0  0  0  0  0  0  0  0  0  0  0
   -5.6810   19.2280  -33.7660 C   0  0  0  0  0  0  0  0  0  0  0  0
   -5.9300   20.5700  -33.4630 C   0  0  0  0  0  0  0  0  0  0  0  0
   -5.0960   22.2620  -30.9070 C   0  0  0  0  0  0  0  0  0  0  0  0
   -5.0380   21.0170  -30.7260 O   0  0  0  0  0  0  0  0  0  0  0  0
   -1.6759   25.3563  -25.5778 H   0  0  0  0  0  0  0  0  0  0  0  0
   -3.0742   25.9780  -26.5186 H   0  0  0  0  0  0  0  0  0  0  0  0
   -2.7017   24.2208  -26.5186 H   0  0  0  0  0  0  0  0  0  0  0  0
   -0.9519   26.4410  -27.7005 H   0  0  0  0  0  0  0  0  0  0  0  0
   -0.5469   24.6887  -27.6731 H   0  0  0  0  0  0  0  0  0  0  0  0
   -3.1560   25.3780  -28.7380 H   0  0  0  0  0  0  0  0  0  0  0  0
   -1.7443   23.9670  -30.5779 H   0  0  0  0  0  0  0  0  0  0  0  0
   -1.1277   23.3984  -28.9628 H   0  0  0  0  0  0  0  0  0  0  0  0
   -2.8930   21.9316  -29.2998 H   0  0  0  0  0  0  0  0  0  0  0  0
   -3.6991   23.2565  -28.3795 H   0  0  0  0  0  0  0  0  0  0  0  0
   -8.2093   22.4313  -31.7183 H   0  0  0  0  0  0  0  0  0  0  0  0
   -7.4576   22.9015  -33.2852 H   0  0  0  0  0  0  0  0  0  0  0  0
   -8.6988   20.1756  -31.4889 H   0  0  0  0  0  0  0  0  0  0  0  0
   -8.2443   17.7809  -32.0264 H   0  0  0  0  0  0  0  0  0  0  0  0
   -4.8323   18.9595  -34.4122 H   0  0  0  0  0  0  0  0  0  0  0  0
   -5.2793   21.3548  -33.8761 H   0  0  0  0  0  0  0  0  0  0  0  0
  1  2  1  0
  2  3  1  0
  3  4  1  0
  4  5  1  0
  5  6  1  0
  6  7  1  0
  7  8  2  0
  7  9  1  0
  9 10  2  0
 10 11  1  0
 11 12  1  0
 12 13  2  0
 13 14  1  0
 14 15  2  0
 15 16  1  0
 15 17  1  0
 17 18  2  0
 10 19  1  0
 19 20  2  0
 19  6  1  0
 18 12  1  0
  1 21  1  0
  1 22  1  0
  1 23  1  0
  2 24  1  0
  2 25  1  0
  3 26  1  0
  4 27  1  0
  4 28  1  0
  5 29  1  0
  5 30  1  0
 11 31  1  0
 11 32  1  0
 13 33  1  0
 14 34  1  0
 17 35  1  0
 18 36  1  0
M  END
>  <UniqueID>  (29) 
29

>  <SMILES>  (29) 
CCNCCN1C(=O)N=C(Cc2ccc(Br)cc2)C1=O

>  <Energy>  (29) 
57.21756299939147

>  <Genealogy>  (29) 
CCNCCN1C(=O)N=C(Cc2ccc(Br)cc2)C1=O (3D coordinates assigned)
CCNCCN1C(=O)N=C(Cc2ccc(Br)cc2)C1=O (nonaromatic ring conformer: 57.21756299939147 kcal/mol)

>  <smiles>  (29) 
CCNCCN1C(=O)N=C(Cc2ccc(Br)cc2)C1=O

>  <score_type>  (29) 
oracle

>  <origin>  (29) 
adg

>  <m_score__min__energy>  (29) 
-8.3300000000000001

>  <m_primary>  (29) 
energy

$$$$
29:0
     RDKit          3D

 41 42  0  0  0  0  0  0  0  0999 V2000
   -6.1270   25.3590  -29.4470 C   0  0  0  0  0  0  0  0  0  0  0  0
   -5.5080   25.4600  -30.8370 C   0  0  0  0  0  0  0  0  0  0  0  0
   -4.1650   24.8650  -30.8370 N   0  0  0  0  0  0  0  0  0  0  0  0
   -3.7470   24.5420  -29.4660 C   0  0  0  0  0  0  0  0  0  0  0  0
   -3.3020   23.0770  -29.3710 C   0  0  0  0  0  0  0  0  0  0  0  0
   -4.2610   22.2190  -30.0820 N   0  0  0  0  0  0  0  0  0  0  0  0
   -3.6110   21.3650  -31.0850 C   0  0  0  0  0  0  0  0  0  0  0  0
   -3.7950   21.9020  -32.5170 C   0  0  0  0  0  0  0  0  0  0  0  0
   -5.0730   22.5100  -32.7290 O   0  0  0  0  0  0  0  0  0  0  0  0
   -6.2900   21.9440  -32.3350 C   0  0  0  0  0  0  0  0  0  0  0  0
   -7.1880   22.7450  -31.6080 C   0  0  0  0  0  0  0  0  0  0  0  0
   -8.4230   22.2450  -31.2020 C   0  0  0  0  0  0  0  0  0  0  0  0
   -8.7730   20.9230  -31.4780 C   0  0  0  0  0  0  0  0  0  0  0  0
   -7.8770   20.0850  -32.1640 C   0  0  0  0  0  0  0  0  0  0  0  0
   -8.2150   18.7450  -32.4120 C   0  0  0  0  0  0  0  0  0  0  0  0
   -7.3170   17.9070  -33.0760 C   0  0  0  0  0  0  0  0  0  0  0  0
   -6.0750   18.3950  -33.4930 C   0  0  0  0  0  0  0  0  0  0  0  0
   -5.7230   19.7280  -33.2540 C   0  0  0  0  0  0  0  0  0  0  0  0
   -6.6220   20.5920  -32.5980 C   0  0  0  0  0  0  0  0  0  0  0  0
   -5.3429   25.4869  -28.6862 H   0  0  0  0  0  0  0  0  0  0  0  0
   -6.8870   26.1450  -29.3260 H   0  0  0  0  0  0  0  0  0  0  0  0
   -6.5977   24.3722  -29.3260 H   0  0  0  0  0  0  0  0  0  0  0  0
   -6.1431   24.9241  -31.5577 H   0  0  0  0  0  0  0  0  0  0  0  0
   -5.4317   26.5201  -31.1205 H   0  0  0  0  0  0  0  0  0  0  0  0
   -4.2230   23.9610  -31.3670 H   0  0  0  0  0  0  0  0  0  0  0  0
   -2.9087   25.1942  -29.1800 H   0  0  0  0  0  0  0  0  0  0  0  0
   -4.5987   24.6998  -28.7879 H   0  0  0  0  0  0  0  0  0  0  0  0
   -2.3065   22.9673  -29.8260 H   0  0  0  0  0  0  0  0  0  0  0  0
   -3.2608   22.7774  -28.3134 H   0  0  0  0  0  0  0  0  0  0  0  0
   -4.9210   22.8500  -30.5950 H   0  0  0  0  0  0  0  0  0  0  0  0
   -2.5351   21.3134  -30.8620 H   0  0  0  0  0  0  0  0  0  0  0  0
   -4.0795   20.3710  -31.0354 H   0  0  0  0  0  0  0  0  0  0  0  0
   -3.0140   22.6515  -32.7128 H   0  0  0  0  0  0  0  0  0  0  0  0
   -3.7229   21.0435  -33.2009 H   0  0  0  0  0  0  0  0  0  0  0  0
   -6.9118   23.7797  -31.3566 H   0  0  0  0  0  0  0  0  0  0  0  0
   -9.1258   22.8957  -30.6611 H   0  0  0  0  0  0  0  0  0  0  0  0
   -9.7517   20.5359  -31.1583 H   0  0  0  0  0  0  0  0  0  0  0  0
   -9.1892   18.3546  -32.0825 H   0  0  0  0  0  0  0  0  0  0  0  0
   -7.5877   16.8590  -33.2717 H   0  0  0  0  0  0  0  0  0  0  0  0
   -5.3709   17.7277  -34.0116 H   0  0  0  0  0  0  0  0  0  0  0  0
   -4.7412   20.1026  -33.5793 H   0  0  0  0  0  0  0  0  0  0  0  0
  1  2  1  0
  2  3  1  0
  3  4  1  0
  4  5  1  0
  5  6  1  0
  6  7  1  0
  7  8  1  0
  8  9  1  0
  9 10  1  0
 10 11  2  0
 11 12  1  0
 12 13  2  0
 13 14  1  0
 14 15  2  0
 15 16  1  0
 16 17  2  0
 17 18  1  0
 18 19  2  0
 19 10  1  0
 19 14  1  0
  1 20  1  0
  1 21  1  0
  1 22  1  0
  2 23  1  0
  2 24  1  0
  3 25  1  0
  4 26  1  0
  4 27  1  0
  5 28  1  0
  5 29  1  0
  6 30  1  0
  7 31  1  0
  7 32  1  0
  8 33  1  0
  8 34  1  0
 11 35  1  0
 12 36  1  0
 13 37  1  0
 15 38  1  0
 16 39  1  0
 17 40  1  0
 18 41  1  0
M  END
>  <UniqueID>  (30) 
30

>  <SMILES>  (30) 
CCNCCNCCOc1cccc2ccccc12

>  <Energy>  (30) 
43.93547500212768

>  <Genealogy>  (30) 
CCNCCNCCOc1cccc2ccccc12 (3D coordinates assigned)
CCNCCNCCOc1cccc2ccccc12 (optimized conformer: 43.93547500212768 kcal/mol)

>  <smiles>  (30) 
CCNCCNCCOc1cccc2ccccc12

>  <score_type>  (30) 
oracle

>  <origin>  (30) 
adg

>  <m_score__min__energy>  (30) 
-8.0399999999999991

>  <m_primary>  (30) 
energy

$$$$
30:0
     RDKit          3D

 91 96  0  0  0  0  0  0  0  0999 V2000
   -6.9720   22.8540  -30.6550 C   0  0  0  0  0  0  0  0  0  0  0  0
   -8.0760   21.7860  -30.7940 C   0  0  0  0  0  0  0  0  0  0  0  0
   -7.6560   20.5500  -31.5160 N   0  0  0  0  0  0  0  0  0  0  0  0
   -8.6330   19.4370  -31.4330 C   0  0  0  0  0  0  0  0  0  0  0  0
   -9.4940   19.3060  -32.6950 C   0  0  0  0  0  0  0  0  0  0  0  0
   -7.3170   20.8080  -32.9400 C   0  0  0  0  0  0  0  0  0  0  0  0
   -6.4880   19.6740  -33.5750 C   0  0  0  0  0  0  0  0  0  0  0  0
   -5.8130   19.0000  -32.5420 O   0  0  0  0  0  0  0  0  0  0  0  0
   -5.5510   17.6640  -32.9090 C   0  0  0  0  0  0  0  0  0  0  0  0
   -5.0020   17.6860  -34.3320 C   0  0  0  0  0  0  0  0  0  0  0  0
   -3.7050   18.3560  -34.4480 N   0  0  0  0  0  0  0  0  0  0  0  0
   -2.7750   18.6010  -33.3670 C   0  0  0  0  0  0  0  0  0  0  0  0
   -2.6580   19.9090  -32.8490 C   0  0  0  0  0  0  0  0  0  0  0  0
   -1.5700   20.2420  -32.0100 C   0  0  0  0  0  0  0  0  0  0  0  0
   -0.5560   19.3180  -31.8670 N   0  0  0  0  0  0  0  0  0  0  0  0
    0.8580   19.7320  -31.8090 C   0  0  0  0  0  0  0  0  0  0  0  0
   -0.8140   17.9880  -32.0740 C   0  0  0  0  0  0  0  0  0  0  0  0
    0.0420   17.0010  -31.5510 C   0  0  0  0  0  0  0  0  0  0  0  0
   -0.1610   15.6540  -31.8460 C   0  0  0  0  0  0  0  0  0  0  0  0
   -1.1790   15.2780  -32.7240 C   0  0  0  0  0  0  0  0  0  0  0  0
   -2.0330   16.2450  -33.2590 C   0  0  0  0  0  0  0  0  0  0  0  0
   -1.9040   17.6030  -32.8920 C   0  0  0  0  0  0  0  0  0  0  0  0
   -1.6500   21.5350  -31.2110 C   0  0  0  0  0  0  0  0  0  0  0  0
   -0.6300   21.9930  -30.3420 C   0  0  0  0  0  0  0  0  0  0  0  0
   -0.8060   23.1200  -29.5410 C   0  0  0  0  0  0  0  0  0  0  0  0
   -2.0330   23.7870  -29.5050 C   0  0  0  0  0  0  0  0  0  0  0  0
   -2.3030   24.8350  -28.6110 O   0  0  0  0  0  0  0  0  0  0  0  0
   -1.3130   25.5640  -27.8780 C   0  0  0  0  0  0  0  0  0  0  0  0
   -1.7650   25.7560  -26.4060 C   0  0  0  0  0  0  0  0  0  0  0  0
   -0.8050   26.5040  -25.5320 N   0  0  0  0  0  0  0  0  0  0  0  0
   -0.8640   27.9700  -25.7950 C   0  0  0  0  0  0  0  0  0  0  0  0
    0.0940   28.7270  -24.8370 C   0  0  0  0  0  0  0  0  0  0  0  0
    0.7570   27.7740  -23.9150 N   0  0  0  0  0  0  0  0  0  0  0  0
    1.5290   26.7930  -24.7140 C   0  0  0  0  0  0  0  0  0  0  0  0
    0.5990   26.0360  -25.6900 C   0  0  0  0  0  0  0  0  0  0  0  0
   -0.2780   27.0580  -23.1510 C   0  0  0  0  0  0  0  0  0  0  0  0
   -1.2080   26.2820  -24.1100 C   0  0  0  0  0  0  0  0  0  0  0  0
   -3.0450   23.3710  -30.3580 C   0  0  0  0  0  0  0  0  0  0  0  0
   -2.8700   22.2610  -31.2110 C   0  0  0  0  0  0  0  0  0  0  0  0
   -4.0720   21.7640  -31.9680 C   0  0  0  0  0  0  0  0  0  0  0  0
   -3.6500   20.9900  -33.2110 C   0  0  0  0  0  0  0  0  0  0  0  0
   -6.7767   23.0429  -29.5891 H   0  0  0  0  0  0  0  0  0  0  0  0
   -6.0515   22.4949  -31.1384 H   0  0  0  0  0  0  0  0  0  0  0  0
   -7.3004   23.7859  -31.1384 H   0  0  0  0  0  0  0  0  0  0  0  0
   -8.4048   21.4988  -29.7843 H   0  0  0  0  0  0  0  0  0  0  0  0
   -8.8769   22.2415  -31.3949 H   0  0  0  0  0  0  0  0  0  0  0  0
   -6.7830   20.2050  -31.0450 H   0  0  0  0  0  0  0  0  0  0  0  0
   -8.0823   18.4965  -31.2842 H   0  0  0  0  0  0  0  0  0  0  0  0
   -9.3088   19.6519  -30.5921 H   0  0  0  0  0  0  0  0  0  0  0  0
  -10.5437   19.1463  -32.4077 H   0  0  0  0  0  0  0  0  0  0  0  0
   -9.4131   20.2268  -33.2913 H   0  0  0  0  0  0  0  0  0  0  0  0
   -9.1429   18.4509  -33.2913 H   0  0  0  0  0  0  0  0  0  0  0  0
   -8.2520   20.9198  -33.5086 H   0  0  0  0  0  0  0  0  0  0  0  0
   -6.7056   21.7218  -32.9731 H   0  0  0  0  0  0  0  0  0  0  0  0
   -7.1535   18.9760  -34.1040 H   0  0  0  0  0  0  0  0  0  0  0  0
   -5.7681   20.0850  -34.2981 H   0  0  0  0  0  0  0  0  0  0  0  0
   -4.8095   17.2241  -32.2258 H   0  0  0  0  0  0  0  0  0  0  0  0
   -6.4668   17.0572  -32.8533 H   0  0  0  0  0  0  0  0  0  0  0  0
   -4.8896   16.6478  -34.6778 H   0  0  0  0  0  0  0  0  0  0  0  0
   -5.7160   18.2553  -34.9452 H   0  0  0  0  0  0  0  0  0  0  0  0
   -3.5630   18.9370  -35.3060 H   0  0  0  0  0  0  0  0  0  0  0  0
    1.1705   19.8235  -30.7583 H   0  0  0  0  0  0  0  0  0  0  0  0
    1.4816   18.9787  -32.3127 H   0  0  0  0  0  0  0  0  0  0  0  0
    0.9768   20.7026  -32.3127 H   0  0  0  0  0  0  0  0  0  0  0  0
    0.8802   17.2957  -30.9025 H   0  0  0  0  0  0  0  0  0  0  0  0
    0.4808   14.8875  -31.3871 H   0  0  0  0  0  0  0  0  0  0  0  0
   -1.3086   14.2197  -32.9946 H   0  0  0  0  0  0  0  0  0  0  0  0
   -2.8141   15.9461  -33.9735 H   0  0  0  0  0  0  0  0  0  0  0  0
    0.3236   21.4465  -30.2981 H   0  0  0  0  0  0  0  0  0  0  0  0
    0.0311   23.4886  -28.9300 H   0  0  0  0  0  0  0  0  0  0  0  0
   -0.3646   25.0071  -27.8966 H   0  0  0  0  0  0  0  0  0  0  0  0
   -1.1793   26.5520  -28.3428 H   0  0  0  0  0  0  0  0  0  0  0  0
   -2.7176   26.3060  -26.4124 H   0  0  0  0  0  0  0  0  0  0  0  0
   -1.8412   24.7456  -25.9778 H   0  0  0  0  0  0  0  0  0  0  0  0
   -0.5652   28.1645  -26.8356 H   0  0  0  0  0  0  0  0  0  0  0  0
   -1.8920   28.3231  -25.6264 H   0  0  0  0  0  0  0  0  0  0  0  0
    0.8588   29.2518  -25.4283 H   0  0  0  0  0  0  0  0  0  0  0  0
   -0.4875   29.4506  -24.2469 H   0  0  0  0  0  0  0  0  0  0  0  0
    2.3023   27.3234  -25.2891 H   0  0  0  0  0  0  0  0  0  0  0  0
    1.9944   26.0667  -24.0315 H   0  0  0  0  0  0  0  0  0  0  0  0
    0.9292   26.2206  -26.7229 H   0  0  0  0  0  0  0  0  0  0  0  0
    0.6451   24.9599  -25.4668 H   0  0  0  0  0  0  0  0  0  0  0  0
    0.2043   26.3503  -22.4607 H   0  0  0  0  0  0  0  0  0  0  0  0
   -0.8750   27.7877  -22.5843 H   0  0  0  0  0  0  0  0  0  0  0  0
   -1.1475   25.2078  -23.8811 H   0  0  0  0  0  0  0  0  0  0  0  0
   -2.2378   26.6440  -23.9738 H   0  0  0  0  0  0  0  0  0  0  0  0
   -4.0004   23.9161  -30.3694 H   0  0  0  0  0  0  0  0  0  0  0  0
   -4.6610   21.1032  -31.3150 H   0  0  0  0  0  0  0  0  0  0  0  0
   -4.6733   22.6304  -32.2808 H   0  0  0  0  0  0  0  0  0  0  0  0
   -4.5374   20.5286  -33.6689 H   0  0  0  0  0  0  0  0  0  0  0  0
   -3.1762   21.6853  -33.9196 H   0  0  0  0  0  0  0  0  0  0  0  0
  1  2  1  0
  2  3  1  0
  3  4  1  0
  4  5  1  0
  3  6  1  0
  6  7  1  0
  7  8  1  0
  8  9  1  0
  9 10  1  0
 10 11  1  0
 11 12  1  0
 12 13  2  0
 13 14  1  0
 14 15  2  0
 15 16  1  0
 15 17  1  0
 17 18  2  0
 18 19  1  0
 19 20  2  0
 20 21  1  0
 21 22  2  0
 14 23  1  0
 23 24  2  0
 24 25  1  0
 25 26  2  0
 26 27  1  0
 27 28  1  0
 28 29  1  0
 29 30  1  0
 30 31  1  0
 31 32  1  0
 32 33  1  0
 33 34  1  0
 34 35  1  0
 33 36  1  0
 36 37  1  0
 26 38  1  0
 38 39  2  0
 39 40  1  0
 40 41  1  0
 22 12  1  0
 39 23  1  0
 41 13  1  0
 22 17  1  0
 35 30  1  0
 37 30  1  0
  1 42  1  0
  1 43  1  0
  1 44  1  0
  2 45  1  0
  2 46  1  0
  3 47  1  0
  4 48  1  0
  4 49  1  0
  5 50  1  0
  5 51  1  0
  5 52  1  0
  6 53  1  0
  6 54  1  0
  7 55  1  0
  7 56  1  0
  9 57  1  0
  9 58  1  0
 10 59  1  0
 10 60  1  0
 11 61  1  0
 16 62  1  0
 16 63  1  0
 16 64  1  0
 18 65  1  0
 19 66  1  0
 20 67  1  0
 21 68  1  0
 24 69  1  0
 25 70  1  0
 28 71  1  0
 28 72  1  0
 29 73  1  0
 29 74  1  0
 31 75  1  0
 31 76  1  0
 32 77  1  0
 32 78  1  0
 34 79  1  0
 34 80  1  0
 35 81  1  0
 35 82  1  0
 36 83  1  0
 36 84  1  0
 37 85  1  0
 37 86  1  0
 38 87  1  0
 40 88  1  0
 40 89  1  0
 41 90  1  0
 41 91  1  0
M  CHG  3   3   1  15   1  30   1
M  END
>  <UniqueID>  (31) 
31

>  <SMILES>  (31) 
CC[NH+](CC)CCOCCNc1c2c([n+](C)c3ccccc13)-c1ccc(OCC[N+]34CCN(CC3)CC4)cc1CC2

>  <Energy>  (31) 
170.07662313145408

>  <Genealogy>  (31) 
CC[NH+](CC)CCOCCNc1c2c([n+](C)c3ccccc13)-c1ccc(OCC[N+]34CCN(CC3)CC4)cc1CC2 (protonated)
CC[NH+](CC)CCOCCNc1c2c([n+](C)c3ccccc13)-c1ccc(OCC[N+]34CCN(CC3)CC4)cc1CC2 (3D coordinates assigned)
CC[NH+](CC)CCOCCNc1c2c([n+](C)c3ccccc13)-c1ccc(OCC[N+]34CCN(CC3)CC4)cc1CC2 (nonaromatic ring conformer: 170.07662313145408 kcal/mol)

>  <smiles>  (31) 
CCN(CC)CCOCCNc1c2c([n+](C)c3ccccc13)-c1ccc(OCC[N+]34CCN(CC3)CC4)cc1CC2

>  <score_type>  (31) 
oracle

>  <origin>  (31) 
adg

>  <m_score__min__energy>  (31) 
-7.71

>  <m_primary>  (31) 
energy

$$$$
31:0
     RDKit          3D

 94 99  0  0  0  0  0  0  0  0999 V2000
   -5.1130   17.4800  -35.2150 C   0  0  0  0  0  0  0  0  0  0  0  0
   -5.8590   16.6650  -34.1480 C   0  0  0  0  0  0  0  0  0  0  0  0
   -5.2440   16.7130  -32.8000 N   0  0  0  0  0  0  0  0  0  0  0  0
   -4.6170   15.4390  -32.3800 C   0  0  0  0  0  0  0  0  0  0  0  0
   -4.4840   14.4760  -33.5590 C   0  0  0  0  0  0  0  0  0  0  0  0
   -6.1650   17.2570  -31.7770 C   0  0  0  0  0  0  0  0  0  0  0  0
   -7.5790   17.4010  -32.3450 C   0  0  0  0  0  0  0  0  0  0  0  0
   -8.2910   18.3640  -31.5920 O   0  0  0  0  0  0  0  0  0  0  0  0
   -9.3720   18.8880  -32.3360 C   0  0  0  0  0  0  0  0  0  0  0  0
   -9.1080   20.3590  -32.6890 C   0  0  0  0  0  0  0  0  0  0  0  0
   -8.2380   20.9880  -31.6860 N   0  0  0  0  0  0  0  0  0  0  0  0
   -6.8900   21.0920  -32.1880 C   0  0  0  0  0  0  0  0  0  0  0  0
   -6.3740   20.0880  -33.0390 C   0  0  0  0  0  0  0  0  0  0  0  0
   -5.0410   20.1260  -33.4880 C   0  0  0  0  0  0  0  0  0  0  0  0
   -4.1870   21.1800  -33.1150 C   0  0  0  0  0  0  0  0  0  0  0  0
   -2.7300   21.1550  -33.4790 C   0  0  0  0  0  0  0  0  0  0  0  0
   -2.4800   20.0170  -34.3690 N   0  0  0  0  0  0  0  0  0  0  0  0
   -2.1880   18.8030  -33.5990 C   0  0  0  0  0  0  0  0  0  0  0  0
   -1.8550   17.6600  -34.5630 C   0  0  0  0  0  0  0  0  0  0  0  0
   -1.0280   16.5670  -33.8920 C   0  0  0  0  0  0  0  0  0  0  0  0
   -1.2460   16.6340  -32.4970 O   0  0  0  0  0  0  0  0  0  0  0  0
   -0.1640   16.0640  -31.7920 C   0  0  0  0  0  0  0  0  0  0  0  0
    1.1590   16.3540  -32.5160 C   0  0  0  0  0  0  0  0  0  0  0  0
    1.5390   17.7600  -32.3950 N   0  0  0  0  0  0  0  0  0  0  0  0
    0.9410   18.9160  -32.5710 C   0  0  0  0  0  0  0  0  0  0  0  0
    0.2690   19.6750  -31.5510 C   0  0  0  0  0  0  0  0  0  0  0  0
   -0.1260   19.1640  -30.2890 C   0  0  0  0  0  0  0  0  0  0  0  0
   -0.7310   19.9830  -29.3320 C   0  0  0  0  0  0  0  0  0  0  0  0
   -1.0020   21.3180  -29.6170 C   0  0  0  0  0  0  0  0  0  0  0  0
   -0.7000   21.8300  -30.8740 C   0  0  0  0  0  0  0  0  0  0  0  0
   -0.0940   21.0210  -31.8430 C   0  0  0  0  0  0  0  0  0  0  0  0
    0.1070   21.5400  -33.0780 N   0  0  0  0  0  0  0  0  0  0  0  0
    0.6410   20.8180  -34.0880 C   0  0  0  0  0  0  0  0  0  0  0  0
    0.7880   21.4090  -35.3480 C   0  0  0  0  0  0  0  0  0  0  0  0
    1.3430   20.6860  -36.4040 C   0  0  0  0  0  0  0  0  0  0  0  0
    1.7560   19.3690  -36.2050 C   0  0  0  0  0  0  0  0  0  0  0  0
    1.6190   18.7710  -34.9500 C   0  0  0  0  0  0  0  0  0  0  0  0
    1.0560   19.4870  -33.8670 C   0  0  0  0  0  0  0  0  0  0  0  0
   -4.7130   22.1830  -32.2950 C   0  0  0  0  0  0  0  0  0  0  0  0
   -4.0720   23.2390  -31.8390 O   0  0  0  0  0  0  0  0  0  0  0  0
   -4.9300   23.9240  -31.1190 C   0  0  0  0  0  0  0  0  0  0  0  0
   -4.6870   25.1230  -30.4560 C   0  0  0  0  0  0  0  0  0  0  0  0
   -5.7470   25.7120  -29.7480 C   0  0  0  0  0  0  0  0  0  0  0  0
   -7.0170   25.1010  -29.7250 C   0  0  0  0  0  0  0  0  0  0  0  0
   -7.2410   23.8910  -30.4020 C   0  0  0  0  0  0  0  0  0  0  0  0
   -6.1680   23.3120  -31.0900 C   0  0  0  0  0  0  0  0  0  0  0  0
   -6.0290   22.1590  -31.8560 C   0  0  0  0  0  0  0  0  0  0  0  0
   -4.4485   18.2060  -34.7237 H   0  0  0  0  0  0  0  0  0  0  0  0
   -4.5156   16.8024  -35.8427 H   0  0  0  0  0  0  0  0  0  0  0  0
   -5.8406   18.0153  -35.8427 H   0  0  0  0  0  0  0  0  0  0  0  0
   -6.8848   17.0548  -34.0722 H   0  0  0  0  0  0  0  0  0  0  0  0
   -5.8223   15.6146  -34.4726 H   0  0  0  0  0  0  0  0  0  0  0  0
   -3.6169   15.6481  -31.9724 H   0  0  0  0  0  0  0  0  0  0  0  0
   -5.2556   14.9704  -31.6167 H   0  0  0  0  0  0  0  0  0  0  0  0
   -4.3426   13.4523  -33.1821 H   0  0  0  0  0  0  0  0  0  0  0  0
   -5.3965   14.5184  -34.1718 H   0  0  0  0  0  0  0  0  0  0  0  0
   -3.6171   14.7641  -34.1718 H   0  0  0  0  0  0  0  0  0  0  0  0
   -6.1900   16.5751  -30.9142 H   0  0  0  0  0  0  0  0  0  0  0  0
   -5.8048   18.2494  -31.4683 H   0  0  0  0  0  0  0  0  0  0  0  0
   -7.5218   17.7247  -33.3947 H   0  0  0  0  0  0  0  0  0  0  0  0
   -8.0983   16.4329  -32.2890 H   0  0  0  0  0  0  0  0  0  0  0  0
   -9.4908   18.3074  -33.2627 H   0  0  0  0  0  0  0  0  0  0  0  0
  -10.2891   18.8224  -31.7321 H   0  0  0  0  0  0  0  0  0  0  0  0
   -8.6202   20.4117  -33.6735 H   0  0  0  0  0  0  0  0  0  0  0  0
  -10.0685   20.8948  -32.7085 H   0  0  0  0  0  0  0  0  0  0  0  0
   -8.5900   21.9300  -31.4060 H   0  0  0  0  0  0  0  0  0  0  0  0
   -8.2430   20.4020  -30.8190 H   0  0  0  0  0  0  0  0  0  0  0  0
   -7.0269   19.2615  -33.3562 H   0  0  0  0  0  0  0  0  0  0  0  0
   -4.6626   19.3230  -34.1376 H   0  0  0  0  0  0  0  0  0  0  0  0
   -2.4619   22.0904  -33.9921 H   0  0  0  0  0  0  0  0  0  0  0  0
   -2.1210   21.0555  -32.5684 H   0  0  0  0  0  0  0  0  0  0  0  0
   -1.6320   20.2420  -34.9430 H   0  0  0  0  0  0  0  0  0  0  0  0
   -1.3298   18.9861  -32.9357 H   0  0  0  0  0  0  0  0  0  0  0  0
   -3.0651   18.5307  -32.9936 H   0  0  0  0  0  0  0  0  0  0  0  0
   -2.7941   17.2199  -34.9295 H   0  0  0  0  0  0  0  0  0  0  0  0
   -1.2604   18.0759  -35.3897 H   0  0  0  0  0  0  0  0  0  0  0  0
   -1.3389   15.5817  -34.2695 H   0  0  0  0  0  0  0  0  0  0  0  0
    0.0396   16.7111  -34.1146 H   0  0  0  0  0  0  0  0  0  0  0  0
   -0.1248   16.4928  -30.7798 H   0  0  0  0  0  0  0  0  0  0  0  0
   -0.3088   14.9750  -31.7359 H   0  0  0  0  0  0  0  0  0  0  0  0
    1.9513   15.7305  -32.0761 H   0  0  0  0  0  0  0  0  0  0  0  0
    1.0261   16.1231  -33.5833 H   0  0  0  0  0  0  0  0  0  0  0  0
    0.0471   18.1024  -30.0587 H   0  0  0  0  0  0  0  0  0  0  0  0
   -0.9947   19.5699  -28.3472 H   0  0  0  0  0  0  0  0  0  0  0  0
   -1.4533   21.9656  -28.8509 H   0  0  0  0  0  0  0  0  0  0  0  0
   -0.9388   22.8778  -31.1088 H   0  0  0  0  0  0  0  0  0  0  0  0
    0.4644   22.4483  -35.5064 H   0  0  0  0  0  0  0  0  0  0  0  0
    1.4548   21.1544  -37.3930 H   0  0  0  0  0  0  0  0  0  0  0  0
    2.1912   18.7991  -37.0392 H   0  0  0  0  0  0  0  0  0  0  0  0
    1.9521   17.7331  -34.8021 H   0  0  0  0  0  0  0  0  0  0  0  0
   -3.6940   25.5954  -30.4856 H   0  0  0  0  0  0  0  0  0  0  0  0
   -5.5852   26.6564  -29.2078 H   0  0  0  0  0  0  0  0  0  0  0  0
   -7.8404   25.5763  -29.1717 H   0  0  0  0  0  0  0  0  0  0  0  0
   -8.2312   23.4120  -30.3919 H   0  0  0  0  0  0  0  0  0  0  0  0
  1  2  1  0
  2  3  1  0
  3  4  1  0
  4  5  1  0
  3  6  1  0
  6  7  1  0
  7  8  1  0
  8  9  1  0
  9 10  1  0
 10 11  1  0
 11 12  1  0
 12 13  2  0
 13 14  1  0
 14 15  2  0
 15 16  1  0
 16 17  1  0
 17 18  1  0
 18 19  1  0
 19 20  1  0
 20 21  1  0
 21 22  1  0
 22 23  1  0
 23 24  1  0
 24 25  2  3
 25 26  1  0
 26 27  2  0
 27 28  1  0
 28 29  2  0
 29 30  1  0
 30 31  2  0
 31 32  1  0
 32 33  1  0
 33 34  2  0
 34 35  1  0
 35 36  2  0
 36 37  1  0
 37 38  2  0
 15 39  1  0
 39 40  1  0
 40 41  1  0
 41 42  2  0
 42 43  1  0
 43 44  2  0
 44 45  1  0
 45 46  2  0
 46 47  1  0
 47 12  1  0
 38 25  1  0
 47 39  2  0
 31 26  1  0
 38 33  1  0
 46 41  1  0
  1 48  1  0
  1 49  1  0
  1 50  1  0
  2 51  1  0
  2 52  1  0
  4 53  1  0
  4 54  1  0
  5 55  1  0
  5 56  1  0
  5 57  1  0
  6 58  1  0
  6 59  1  0
  7 60  1  0
  7 61  1  0
  9 62  1  0
  9 63  1  0
 10 64  1  0
 10 65  1  0
 11 66  1  0
 11 67  1  0
 13 68  1  0
 14 69  1  0
 16 70  1  0
 16 71  1  0
 17 72  1  0
 18 73  1  0
 18 74  1  0
 19 75  1  0
 19 76  1  0
 20 77  1  0
 20 78  1  0
 22 79  1  0
 22 80  1  0
 23 81  1  0
 23 82  1  0
 27 83  1  0
 28 84  1  0
 29 85  1  0
 30 86  1  0
 34 87  1  0
 35 88  1  0
 36 89  1  0
 37 90  1  0
 42 91  1  0
 43 92  1  0
 44 93  1  0
 45 94  1  0
M  CHG  2  11   1  32  -1
M  END
>  <UniqueID>  (32) 
32

>  <SMILES>  (32) 
CCN(CC)CCOCC[NH2+]c1ccc(CNCCCOCCN=c2c3ccccc3[n-]c3ccccc23)c2oc3ccccc3c12

>  <Energy>  (32) 
165.50491842480187

>  <Genealogy>  (32) 
CCN(CC)CCOCC[NH2+]c1ccc(CNCCCOCCN=c2c3ccccc3[n-]c3ccccc23)c2oc3ccccc3c12 (protonated)
CCN(CC)CCOCC[NH2+]c1ccc(CNCCCOCCN=c2c3ccccc3[n-]c3ccccc23)c2oc3ccccc3c12 (3D coordinates assigned)
CCN(CC)CCOCC[NH2+]c1ccc(CNCCCOCCN=c2c3ccccc3[n-]c3ccccc23)c2oc3ccccc3c12 (optimized conformer: 165.50491842480187 kcal/mol)

>  <smiles>  (32) 
CCN(CC)CCOCCNc1ccc(CNCCCOCCN=c2c3ccccc3[nH]c3ccccc23)c2oc3ccccc3c12

>  <score_type>  (32) 
oracle

>  <origin>  (32) 
adg

>  <m_score__min__energy>  (32) 
-9.9600000000000009

>  <m_primary>  (32) 
energy

$$$$
32:0
     RDKit          3D

 39 41  0  0  1  0  0  0  0  0999 V2000
   -5.3620   25.3140  -30.4720 C   0  0  0  0  0  0  0  0  0  0  0  0
   -4.0510   24.6930  -30.5430 N   0  0  0  0  0  0  0  0  0  0  0  0
   -3.4890   24.5350  -29.2080 C   0  0  0  0  0  0  0  0  0  0  0  0
   -4.1180   23.3830  -31.1510 C   0  0  0  0  0  0  0  0  0  0  0  0
   -2.8720   22.5690  -30.9020 C   0  0  0  0  0  0  0  0  0  0  0  0
   -2.7330   21.6080  -32.0970 C   0  0  0  0  0  0  0  0  0  0  0  0
   -4.0440   21.3940  -32.5830 N   0  0  0  0  0  0  0  0  0  0  0  0
   -4.5790   20.3560  -33.0640 C   0  0  0  0  0  0  0  0  0  0  0  0
   -3.8160   19.4790  -33.7170 N   0  0  0  0  0  0  0  0  0  0  0  0
   -4.4010   18.3850  -34.2180 C   0  0  0  0  0  0  0  0  0  0  0  0
   -5.7380   18.1570  -34.0750 N   0  0  0  0  0  0  0  0  0  0  0  0
   -6.5470   19.0140  -33.4230 C   0  0  0  0  0  0  0  0  0  0  0  0
   -7.8670   19.0440  -33.1360 N   0  0  0  0  0  0  0  0  0  0  0  0
   -8.1010   20.1890  -32.4390 C   0  0  0  0  0  0  0  0  0  0  0  0
   -9.2480   20.7200  -31.9020 C   0  0  0  0  0  0  0  0  0  0  0  0
   -9.2000   21.9310  -31.2240 C   0  0  0  0  0  0  0  0  0  0  0  0
   -8.0100   22.6340  -31.0680 C   0  0  0  0  0  0  0  0  0  0  0  0
   -6.8510   22.1000  -31.6090 C   0  0  0  0  0  0  0  0  0  0  0  0
   -6.9270   20.8870  -32.2820 C   0  0  0  0  0  0  0  0  0  0  0  0
   -5.9340   20.1520  -32.9020 C   0  0  0  0  0  0  0  0  0  0  0  0
   -5.6472   25.4491  -29.4182 H   0  0  0  0  0  0  0  0  0  0  0  0
   -5.3314   26.2933  -30.9720 H   0  0  0  0  0  0  0  0  0  0  0  0
   -6.1004   24.6699  -30.9720 H   0  0  0  0  0  0  0  0  0  0  0  0
   -4.2623   24.7524  -28.4565 H   0  0  0  0  0  0  0  0  0  0  0  0
   -3.1333   23.5020  -29.0798 H   0  0  0  0  0  0  0  0  0  0  0  0
   -2.6471   25.2313  -29.0798 H   0  0  0  0  0  0  0  0  0  0  0  0
   -4.9814   22.8438  -30.7341 H   0  0  0  0  0  0  0  0  0  0  0  0
   -4.2162   23.5222  -32.2377 H   0  0  0  0  0  0  0  0  0  0  0  0
   -1.9934   23.2280  -30.8398 H   0  0  0  0  0  0  0  0  0  0  0  0
   -2.9399   22.0171  -29.9529 H   0  0  0  0  0  0  0  0  0  0  0  0
   -2.1050   22.0597  -32.8790 H   0  0  0  0  0  0  0  0  0  0  0  0
   -2.2556   20.6628  -31.7991 H   0  0  0  0  0  0  0  0  0  0  0  0
   -2.8210   19.6650  -33.8150 H   0  0  0  0  0  0  0  0  0  0  0  0
   -3.7874   17.6500  -34.7596 H   0  0  0  0  0  0  0  0  0  0  0  0
   -8.5740   18.3110  -33.4070 H   0  0  0  0  0  0  0  0  0  0  0  0
  -10.2040   20.1865  -32.0088 H   0  0  0  0  0  0  0  0  0  0  0  0
  -10.1266   22.3448  -30.7995 H   0  0  0  0  0  0  0  0  0  0  0  0
   -7.9892   23.5919  -30.5276 H   0  0  0  0  0  0  0  0  0  0  0  0
   -5.8903   22.6261  -31.5075 H   0  0  0  0  0  0  0  0  0  0  0  0
  1  2  1  0
  2  3  1  0
  2  4  1  0
  4  5  1  0
  5  6  1  0
  6  7  1  0
  7  8  2  0
  8  9  1  0
  9 10  1  0
 10 11  2  0
 11 12  1  0
 12 13  1  0
 13 14  1  0
 14 15  2  0
 15 16  1  0
 16 17  2  0
 17 18  1  0
 18 19  2  0
 19 20  1  0
 20  8  1  0
 20 12  2  0
 19 14  1  0
  1 21  1  0
  1 22  1  0
  1 23  1  0
  3 24  1  0
  3 25  1  0
  3 26  1  0
  4 27  1  0
  4 28  1  0
  5 29  1  0
  5 30  1  0
  6 31  1  0
  6 32  1  0
  9 33  1  0
 10 34  1  0
 13 35  1  0
 15 36  1  0
 16 37  1  0
 17 38  1  0
 18 39  1  0
M  END
>  <smiles>  (33) 
CN(C)CCCN=c1[nH]cnc2[nH]c3ccccc3c12

>  <score_type>  (33) 
oracle

>  <origin>  (33) 
adg

>  <m_score__min__energy>  (33) 
-7.1299999999999999

>  <m_primary>  (33) 
energy

$$$$
33:0
     RDKit          3D

 53 55  0  0  0  0  0  0  0  0999 V2000
   -2.9540   16.9980  -35.1910 C   0  0  0  0  0  0  0  0  0  0  0  0
   -3.4330   17.4340  -33.8620 N   0  0  1  0  0  0  0  0  0  0  0  0
   -4.1350   16.3310  -33.1460 C   0  0  0  0  0  0  0  0  0  0  0  0
   -5.5900   16.6270  -32.7340 C   0  0  0  0  0  0  0  0  0  0  0  0
   -6.1460   17.6640  -33.5350 O   0  0  0  0  0  0  0  0  0  0  0  0
   -6.8660   18.7550  -33.0280 C   0  0  0  0  0  0  0  0  0  0  0  0
   -6.4780   20.0910  -33.2600 C   0  0  0  0  0  0  0  0  0  0  0  0
   -7.2270   21.1440  -32.7250 C   0  0  0  0  0  0  0  0  0  0  0  0
   -8.3660   20.8770  -31.9600 C   0  0  0  0  0  0  0  0  0  0  0  0
   -8.7570   19.5550  -31.7280 C   0  0  0  0  0  0  0  0  0  0  0  0
   -8.0100   18.5000  -32.2610 C   0  0  0  0  0  0  0  0  0  0  0  0
   -2.3710   18.0360  -33.0690 C   0  0  0  0  0  0  0  0  0  0  0  0
   -1.6330   17.3000  -32.3530 O   0  0  0  0  0  0  0  0  0  0  0  0
   -2.1880   19.4730  -32.9970 N   0  0  0  0  0  0  0  0  0  0  0  0
   -2.7310   20.4170  -33.9820 C   0  0  0  0  0  0  0  0  0  0  0  0
   -3.4830   21.5510  -33.2640 C   0  0  0  0  0  0  0  0  0  0  0  0
   -2.8060   22.0510  -32.0350 N   0  0  0  0  0  0  0  0  0  0  0  0
   -3.6360   21.8490  -30.8250 C   0  0  0  0  0  0  0  0  0  0  0  0
   -4.5880   22.9910  -30.6170 C   0  0  0  0  0  0  0  0  0  0  0  0
   -5.9120   22.7540  -30.2220 C   0  0  0  0  0  0  0  0  0  0  0  0
   -6.7800   23.8350  -30.0550 C   0  0  0  0  0  0  0  0  0  0  0  0
   -6.3240   25.1340  -30.2850 C   0  0  0  0  0  0  0  0  0  0  0  0
   -5.0000   25.3330  -30.6800 C   0  0  0  0  0  0  0  0  0  0  0  0
   -4.1690   24.2680  -30.8370 N   0  0  0  0  0  0  0  0  0  0  0  0
   -1.4190   21.5510  -31.8760 C   0  0  0  0  0  0  0  0  0  0  0  0
   -1.3520   20.0170  -31.9190 C   0  0  0  0  0  0  0  0  0  0  0  0
   -2.1458   16.2623  -35.0662 H   0  0  0  0  0  0  0  0  0  0  0  0
   -3.7845   16.5394  -35.7478 H   0  0  0  0  0  0  0  0  0  0  0  0
   -2.5753   17.8678  -35.7478 H   0  0  0  0  0  0  0  0  0  0  0  0
   -4.1360   18.1770  -34.0740 H   0  0  0  0  0  0  0  0  0  0  0  0
   -4.1420   15.4500  -33.8047 H   0  0  0  0  0  0  0  0  0  0  0  0
   -3.5807   16.1794  -32.2080 H   0  0  0  0  0  0  0  0  0  0  0  0
   -6.1918   15.7146  -32.8582 H   0  0  0  0  0  0  0  0  0  0  0  0
   -5.5973   16.9534  -31.6836 H   0  0  0  0  0  0  0  0  0  0  0  0
   -5.5837   20.3054  -33.8635 H   0  0  0  0  0  0  0  0  0  0  0  0
   -6.9192   22.1843  -32.9066 H   0  0  0  0  0  0  0  0  0  0  0  0
   -8.9543   21.7066  -31.5408 H   0  0  0  0  0  0  0  0  0  0  0  0
   -9.6530   19.3446  -31.1257 H   0  0  0  0  0  0  0  0  0  0  0  0
   -8.3231   17.4618  -32.0766 H   0  0  0  0  0  0  0  0  0  0  0  0
   -1.9060   20.8431  -34.5717 H   0  0  0  0  0  0  0  0  0  0  0  0
   -3.4280   19.8851  -34.6463 H   0  0  0  0  0  0  0  0  0  0  0  0
   -3.5900   22.3918  -33.9651 H   0  0  0  0  0  0  0  0  0  0  0  0
   -4.4504   21.1359  -32.9450 H   0  0  0  0  0  0  0  0  0  0  0  0
   -4.2121   20.9187  -30.9374 H   0  0  0  0  0  0  0  0  0  0  0  0
   -2.9683   21.7916  -29.9527 H   0  0  0  0  0  0  0  0  0  0  0  0
   -6.2636   21.7268  -30.0454 H   0  0  0  0  0  0  0  0  0  0  0  0
   -7.8207   23.6632  -29.7429 H   0  0  0  0  0  0  0  0  0  0  0  0
   -7.0007   25.9917  -30.1564 H   0  0  0  0  0  0  0  0  0  0  0  0
   -4.6286   26.3519  -30.8644 H   0  0  0  0  0  0  0  0  0  0  0  0
   -0.7998   21.9565  -32.6897 H   0  0  0  0  0  0  0  0  0  0  0  0
   -1.0498   21.8799  -30.8934 H   0  0  0  0  0  0  0  0  0  0  0  0
   -0.3091   19.7090  -32.0851 H   0  0  0  0  0  0  0  0  0  0  0  0
   -1.7268   19.6276  -30.9609 H   0  0  0  0  0  0  0  0  0  0  0  0
  1  2  1  0
  2  3  1  0
  3  4  1  0
  4  5  1  0
  5  6  1  0
  6  7  2  0
  7  8  1  0
  8  9  2  0
  9 10  1  0
 10 11  2  0
  2 12  1  0
 12 13  2  0
 12 14  1  0
 14 15  1  0
 15 16  1  0
 16 17  1  0
 17 18  1  0
 18 19  1  0
 19 20  2  0
 20 21  1  0
 21 22  2  0
 22 23  1  0
 23 24  2  0
 17 25  1  0
 25 26  1  0
 11  6  1  0
 26 14  1  0
 24 19  1  0
  1 27  1  0
  1 28  1  0
  1 29  1  0
  2 30  1  6
  3 31  1  0
  3 32  1  0
  4 33  1  0
  4 34  1  0
  7 35  1  0
  8 36  1  0
  9 37  1  0
 10 38  1  0
 11 39  1  0
 15 40  1  0
 15 41  1  0
 16 42  1  0
 16 43  1  0
 18 44  1  0
 18 45  1  0
 20 46  1  0
 21 47  1  0
 22 48  1  0
 23 49  1  0
 25 50  1  0
 25 51  1  0
 26 52  1  0
 26 53  1  0
M  CHG  1   2   1
M  END
>  <UniqueID>  (34) 
33

>  <SMILES>  (34) 
C[N@@H+](CCOc1ccccc1)C(=O)N1CCN(Cc2ccccn2)CC1

>  <Energy>  (34) 
69.76896958721258

>  <Genealogy>  (34) 
C[NH+](CCOc1ccccc1)C(=O)N1CCN(Cc2ccccn2)CC1 (protonated)
C[N@@H+](CCOc1ccccc1)C(=O)N1CCN(Cc2ccccn2)CC1 (chirality)
C[N@@H+](CCOc1ccccc1)C(=O)N1CCN(Cc2ccccn2)CC1 (3D coordinates assigned)
C[N@@H+](CCOc1ccccc1)C(=O)N1CCN(Cc2ccccn2)CC1 (nonaromatic ring conformer: 69.76896958721258 kcal/mol)

>  <smiles>  (34) 
CN(CCOc1ccccc1)C(=O)N1CCN(Cc2ccccn2)CC1

>  <score_type>  (34) 
oracle

>  <origin>  (34) 
adg

>  <m_score__min__energy>  (34) 
-6.9900000000000002

>  <m_primary>  (34) 
energy

$$$$
34:0
     RDKit          3D

 51 53  0  0  0  0  0  0  0  0999 V2000
   -2.9700   21.7790  -31.2540 C   0  0  0  0  0  0  0  0  0  0  0  0
   -3.8290   22.6310  -32.1860 C   0  0  0  0  0  0  0  0  0  0  0  0
   -5.1600   22.8560  -31.6090 N   0  0  0  0  0  0  0  0  0  0  0  0
   -5.5500   23.8410  -30.7670 C   0  0  0  0  0  0  0  0  0  0  0  0
   -4.6450   24.8790  -30.1500 C   0  0  0  0  0  0  0  0  0  0  0  0
   -4.5470   24.7120  -28.6900 N   0  0  0  0  0  0  0  0  0  0  0  0
   -3.3470   23.9960  -28.3220 C   0  0  0  0  0  0  0  0  0  0  0  0
   -3.4330   22.6700  -27.8560 C   0  0  0  0  0  0  0  0  0  0  0  0
   -2.2750   21.9270  -27.5890 C   0  0  0  0  0  0  0  0  0  0  0  0
   -2.3850   20.5140  -27.1000 C   0  0  0  0  0  0  0  0  0  0  0  0
   -1.0180   22.5320  -27.7380 C   0  0  0  0  0  0  0  0  0  0  0  0
   -0.9210   23.8510  -28.1880 C   0  0  0  0  0  0  0  0  0  0  0  0
   -2.0760   24.5800  -28.4920 C   0  0  0  0  0  0  0  0  0  0  0  0
   -1.9520   25.8800  -28.9670 O   0  0  0  0  0  0  0  0  0  0  0  0
   -6.8240   23.6690  -30.3680 N   0  0  0  0  0  0  0  0  0  0  0  0
   -7.2710   22.5690  -30.9500 N   0  0  0  0  0  0  0  0  0  0  0  0
   -6.2660   22.0790  -31.7020 C   0  0  0  0  0  0  0  0  0  0  0  0
   -6.3570   20.7820  -32.4020 C   0  0  0  0  0  0  0  0  0  0  0  0
   -5.4710   20.5030  -33.4500 C   0  0  0  0  0  0  0  0  0  0  0  0
   -5.5380   19.2820  -34.1260 C   0  0  0  0  0  0  0  0  0  0  0  0
   -6.4900   18.3140  -33.7540 C   0  0  0  0  0  0  0  0  0  0  0  0
   -6.5910   17.0780  -34.4130 O   0  0  0  0  0  0  0  0  0  0  0  0
   -6.1840   15.8320  -33.8570 C   0  0  0  0  0  0  0  0  0  0  0  0
   -7.3670   18.5770  -32.6900 C   0  0  0  0  0  0  0  0  0  0  0  0
   -8.3010   17.5910  -32.3360 O   0  0  0  0  0  0  0  0  0  0  0  0
   -9.4770   17.8320  -31.5700 C   0  0  0  0  0  0  0  0  0  0  0  0
   -7.2890   19.8100  -32.0130 C   0  0  0  0  0  0  0  0  0  0  0  0
   -3.2131   22.0201  -30.2087 H   0  0  0  0  0  0  0  0  0  0  0  0
   -3.1716   20.7139  -31.4410 H   0  0  0  0  0  0  0  0  0  0  0  0
   -1.9066   21.9893  -31.4410 H   0  0  0  0  0  0  0  0  0  0  0  0
   -3.3359   23.6015  -32.3441 H   0  0  0  0  0  0  0  0  0  0  0  0
   -3.9448   22.0997  -33.1422 H   0  0  0  0  0  0  0  0  0  0  0  0
   -3.6408   24.7835  -30.5887 H   0  0  0  0  0  0  0  0  0  0  0  0
   -5.0699   25.8726  -30.3555 H   0  0  0  0  0  0  0  0  0  0  0  0
   -5.3950   24.2100  -28.3320 H   0  0  0  0  0  0  0  0  0  0  0  0
   -4.5470   25.6570  -28.2410 H   0  0  0  0  0  0  0  0  0  0  0  0
   -4.4208   22.2119  -27.6997 H   0  0  0  0  0  0  0  0  0  0  0  0
   -2.3856   20.5057  -26.0000 H   0  0  0  0  0  0  0  0  0  0  0  0
   -3.3205   20.0695  -27.4706 H   0  0  0  0  0  0  0  0  0  0  0  0
   -1.5296   19.9301  -27.4706 H   0  0  0  0  0  0  0  0  0  0  0  0
   -0.1055   21.9658  -27.4996 H   0  0  0  0  0  0  0  0  0  0  0  0
    0.0679   24.3186  -28.3039 H   0  0  0  0  0  0  0  0  0  0  0  0
   -4.7179   21.2495  -33.7427 H   0  0  0  0  0  0  0  0  0  0  0  0
   -4.8430   19.0760  -34.9534 H   0  0  0  0  0  0  0  0  0  0  0  0
   -6.2049   15.8961  -32.7591 H   0  0  0  0  0  0  0  0  0  0  0  0
   -6.8701   15.0398  -34.1912 H   0  0  0  0  0  0  0  0  0  0  0  0
   -5.1626   15.5975  -34.1912 H   0  0  0  0  0  0  0  0  0  0  0  0
   -9.2333   17.7821  -30.4985 H   0  0  0  0  0  0  0  0  0  0  0  0
   -9.8728   18.8299  -31.8099 H   0  0  0  0  0  0  0  0  0  0  0  0
  -10.2334   17.0702  -31.8099 H   0  0  0  0  0  0  0  0  0  0  0  0
   -7.9666   20.0120  -31.1703 H   0  0  0  0  0  0  0  0  0  0  0  0
  1  2  1  0
  2  3  1  0
  3  4  1  0
  4  5  1  0
  5  6  1  0
  6  7  1  0
  7  8  2  0
  8  9  1  0
  9 10  1  0
  9 11  2  0
 11 12  1  0
 12 13  2  0
 13 14  1  0
  4 15  2  0
 15 16  1  0
 16 17  2  0
 17 18  1  0
 18 19  2  0
 19 20  1  0
 20 21  2  0
 21 22  1  0
 22 23  1  0
 21 24  1  0
 24 25  1  0
 25 26  1  0
 24 27  2  0
 17  3  1  0
 27 18  1  0
 13  7  1  0
  1 28  1  0
  1 29  1  0
  1 30  1  0
  2 31  1  0
  2 32  1  0
  5 33  1  0
  5 34  1  0
  6 35  1  0
  6 36  1  0
  8 37  1  0
 10 38  1  0
 10 39  1  0
 10 40  1  0
 11 41  1  0
 12 42  1  0
 19 43  1  0
 20 44  1  0
 23 45  1  0
 23 46  1  0
 23 47  1  0
 26 48  1  0
 26 49  1  0
 26 50  1  0
 27 51  1  0
M  CHG  2   6   1  14  -1
M  END
>  <UniqueID>  (35) 
34

>  <SMILES>  (35) 
CCn1c(C[NH2+]c2cc(C)ccc2[O-])nnc1-c1ccc(OC)c(OC)c1

>  <Energy>  (35) 
87.02141419235012

>  <Genealogy>  (35) 
CCn1c(C[NH2+]c2cc(C)ccc2[O-])nnc1-c1ccc(OC)c(OC)c1 (protonated)
CCn1c(C[NH2+]c2cc(C)ccc2[O-])nnc1-c1ccc(OC)c(OC)c1 (3D coordinates assigned)
CCn1c(C[NH2+]c2cc(C)ccc2[O-])nnc1-c1ccc(OC)c(OC)c1 (optimized conformer: 87.02141419235012 kcal/mol)

>  <smiles>  (35) 
CCn1c(CNc2cc(C)ccc2O)nnc1-c1ccc(OC)c(OC)c1

>  <score_type>  (35) 
oracle

>  <origin>  (35) 
adg

>  <m_score__min__energy>  (35) 
-10.92

>  <m_primary>  (35) 
energy

$$$$
