0:0
     RDKit          3D

 42 44  0  0  0  0  0  0  0  0999 V2000
   -2.2600   19.6430  -33.8570 C   0  0  0  0  0  0  0  0  0  0  0  0
   -3.3270   19.1090  -33.1070 O   0  0  0  0  0  0  0  0  0  0  0  0
   -4.5260   19.2310  -33.8440 C   0  0  0  0  0  0  0  0  0  0  0  0
   -5.3370   20.4220  -33.3120 C   0  0  2  0  0  0  0  0  0  0  0  0
   -4.5230   21.2380  -32.4040 N   0  0  0  0  0  0  0  0  0  0  0  0
   -4.8660   22.5980  -32.0940 C   0  0  0  0  0  0  0  0  0  0  0  0
   -5.7990   23.1680  -32.7220 O   0  0  0  0  0  0  0  0  0  0  0  0
   -4.1240   23.3520  -31.0640 C   0  0  0  0  0  0  0  0  0  0  0  0
   -4.4610   24.5710  -30.4640 C   0  0  0  0  0  0  0  0  0  0  0  0
   -5.6760   25.3990  -30.7320 C   0  0  0  0  0  0  0  0  0  0  0  0
   -3.5300   24.9300  -29.5990 O   0  0  0  0  0  0  0  0  0  0  0  0
   -2.5930   24.0140  -29.6160 C   0  0  0  0  0  0  0  0  0  0  0  0
   -1.4220   23.9860  -28.8630 C   0  0  0  0  0  0  0  0  0  0  0  0
   -0.5520   22.8960  -29.0390 C   0  0  0  0  0  0  0  0  0  0  0  0
   -0.8720   21.8670  -29.9510 C   0  0  0  0  0  0  0  0  0  0  0  0
   -2.0620   21.9200  -30.6990 C   0  0  0  0  0  0  0  0  0  0  0  0
   -2.9020   23.0200  -30.5090 C   0  0  0  0  0  0  0  0  0  0  0  0
   -6.5880   19.9470  -32.6010 C   0  0  0  0  0  0  0  0  0  0  0  0
   -6.7490   18.5920  -32.2570 C   0  0  0  0  0  0  0  0  0  0  0  0
   -7.9070   18.1610  -31.6050 C   0  0  0  0  0  0  0  0  0  0  0  0
   -8.9170   19.0740  -31.2950 C   0  0  0  0  0  0  0  0  0  0  0  0
   -8.7720   20.4200  -31.6380 C   0  0  0  0  0  0  0  0  0  0  0  0
   -7.6140   20.8570  -32.2890 C   0  0  0  0  0  0  0  0  0  0  0  0
   -1.4888   20.0289  -33.1741 H   0  0  0  0  0  0  0  0  0  0  0  0
   -1.8272   18.8553  -34.4911 H   0  0  0  0  0  0  0  0  0  0  0  0
   -2.6311   20.4616  -34.4911 H   0  0  0  0  0  0  0  0  0  0  0  0
   -4.2885   19.3944  -34.9056 H   0  0  0  0  0  0  0  0  0  0  0  0
   -5.1166   18.3092  -33.7373 H   0  0  0  0  0  0  0  0  0  0  0  0
   -5.6352   21.0397  -34.1720 H   0  0  0  0  0  0  0  0  0  0  0  0
   -3.6340   20.8460  -32.0220 H   0  0  0  0  0  0  0  0  0  0  0  0
   -6.1278   25.7069  -29.7775 H   0  0  0  0  0  0  0  0  0  0  0  0
   -5.3915   26.2920  -31.3079 H   0  0  0  0  0  0  0  0  0  0  0  0
   -6.4030   24.8076  -31.3079 H   0  0  0  0  0  0  0  0  0  0  0  0
   -1.1852   24.7917  -28.1526 H   0  0  0  0  0  0  0  0  0  0  0  0
    0.3836   22.8445  -28.4628 H   0  0  0  0  0  0  0  0  0  0  0  0
   -0.1853   21.0171  -30.0776 H   0  0  0  0  0  0  0  0  0  0  0  0
   -2.3225   21.1220  -31.4098 H   0  0  0  0  0  0  0  0  0  0  0  0
   -5.9584   17.8678  -32.5029 H   0  0  0  0  0  0  0  0  0  0  0  0
   -8.0233   17.1009  -31.3355 H   0  0  0  0  0  0  0  0  0  0  0  0
   -9.8274   18.7329  -30.7803 H   0  0  0  0  0  0  0  0  0  0  0  0
   -9.5698   21.1375  -31.3957 H   0  0  0  0  0  0  0  0  0  0  0  0
   -7.5050   21.9179  -32.5584 H   0  0  0  0  0  0  0  0  0  0  0  0
  1  2  1  0
  2  3  1  0
  3  4  1  0
  4  5  1  0
  5  6  1  0
  6  7  2  0
  6  8  1  0
  8  9  2  0
  9 10  1  0
  9 11  1  0
 11 12  1  0
 12 13  2  0
 13 14  1  0
 14 15  2  0
 15 16  1  0
 16 17  2  0
  4 18  1  0
 18 19  2  0
 19 20  1  0
 20 21  2  0
 21 22  1  0
 22 23  2  0
 17  8  1  0
 23 18  1  0
 17 12  1  0
  1 24  1  0
  1 25  1  0
  1 26  1  0
  3 27  1  0
  3 28  1  0
  4 29  1  6
  5 30  1  0
 10 31  1  0
 10 32  1  0
 10 33  1  0
 13 34  1  0
 14 35  1  0
 15 36  1  0
 16 37  1  0
 19 38  1  0
 20 39  1  0
 21 40  1  0
 22 41  1  0
 23 42  1  0
M  END
>  <UniqueID>  (1) 
1

>  <SMILES>  (1) 
COC[C@H](NC(=O)c1c(C)oc2ccccc12)c1ccccc1

>  <Energy>  (1) 
77.44348715857957

>  <Genealogy>  (1) 
COC[C@H](NC(=O)c1c(C)oc2ccccc12)c1ccccc1 (chirality)
COC[C@H](NC(=O)c1c(C)oc2ccccc12)c1ccccc1 (3D coordinates assigned)
COC[C@H](NC(=O)c1c(C)oc2ccccc12)c1ccccc1 (optimized conformer: 77.44348715857957 kcal/mol)

>  <smiles>  (1) 
COCC(NC(=O)c1c(C)oc2ccccc12)c1ccccc1

>  <score_type>  (1) 
oracle

>  <origin>  (1) 
adg

>  <m_score__min__energy>  (1) 
-7.9800000000000004

>  <m_primary>  (1) 
energy

$$$$
1:0
     RDKit          3D

 45 48  0  0  0  0  0  0  0  0999 V2000
   -7.3010   24.5670  -28.6780 H   0  0  0  0  0  0  0  0  0  0  0  0
   -6.8860   24.5690  -29.6370 N   0  0  0  0  0  0  0  0  0  0  0  0
   -5.6150   24.4150  -29.8260 C   0  0  0  0  0  0  0  0  0  0  0  0
   -4.6370   24.5550  -28.8660 C   0  0  0  0  0  0  0  0  0  0  0  0
   -4.7566   24.8325  -27.8083 H   0  0  0  0  0  0  0  0  0  0  0  0
   -3.4610   24.2620  -29.5520 C   0  0  0  0  0  0  0  0  0  0  0  0
   -2.0870   24.2430  -28.9950 C   0  0  0  0  0  0  0  0  0  0  0  0
   -1.5620   25.3510  -28.3000 C   0  0  0  0  0  0  0  0  0  0  0  0
   -2.1780   26.2522  -28.1641 H   0  0  0  0  0  0  0  0  0  0  0  0
   -0.2640   25.3130  -27.7820 C   0  0  0  0  0  0  0  0  0  0  0  0
    0.1370   26.1829  -27.2411 H   0  0  0  0  0  0  0  0  0  0  0  0
    0.5240   24.1730  -27.9500 C   0  0  0  0  0  0  0  0  0  0  0  0
    1.5447   24.1448  -27.5408 H   0  0  0  0  0  0  0  0  0  0  0  0
    0.0170   23.0690  -28.6370 C   0  0  0  0  0  0  0  0  0  0  0  0
    0.6389   22.1713  -28.7688 H   0  0  0  0  0  0  0  0  0  0  0  0
   -1.2800   23.1020  -29.1580 C   0  0  0  0  0  0  0  0  0  0  0  0
   -1.6727   22.2289  -29.6997 H   0  0  0  0  0  0  0  0  0  0  0  0
   -3.7480   23.9680  -30.8410 N   0  0  0  0  0  0  0  0  0  0  0  0
   -5.0570   24.0750  -31.0020 N   0  0  0  0  0  0  0  0  0  0  0  0
   -5.7470   23.7540  -32.2480 C   0  0  0  0  0  0  0  0  0  0  0  0
   -6.4113   24.5866  -32.5228 H   0  0  0  0  0  0  0  0  0  0  0  0
   -5.0048   23.5945  -33.0441 H   0  0  0  0  0  0  0  0  0  0  0  0
   -6.5570   22.5100  -32.0710 C   0  0  0  0  0  0  0  0  0  0  0  0
   -5.9400   20.9440  -32.0890 S   0  0  0  0  0  0  0  0  0  0  0  0
   -7.4340   20.1850  -31.9750 C   0  0  0  0  0  0  0  0  0  0  0  0
   -7.6790   18.4500  -31.9970 S   0  0  0  0  0  0  0  0  0  0  0  0
   -9.1430   18.1490  -31.8220 O   0  0  0  0  0  0  0  0  0  0  0  0
   -6.9180   17.8340  -30.8560 O   0  0  0  0  0  0  0  0  0  0  0  0
   -7.0930   17.8030  -33.5080 N   0  0  0  0  0  0  0  0  0  0  0  0
   -6.4170   16.5210  -33.3100 C   0  0  0  0  0  0  0  0  0  0  0  0
   -5.9051   16.5080  -32.3364 H   0  0  0  0  0  0  0  0  0  0  0  0
   -7.1351   15.6878  -33.3192 H   0  0  0  0  0  0  0  0  0  0  0  0
   -5.4050   16.3860  -34.4370 C   0  0  0  0  0  0  0  0  0  0  0  0
   -4.4585   15.9740  -34.0570 H   0  0  0  0  0  0  0  0  0  0  0  0
   -5.7578   15.7030  -35.2238 H   0  0  0  0  0  0  0  0  0  0  0  0
   -5.1970   17.7980  -34.9650 C   0  0  0  0  0  0  0  0  0  0  0  0
   -4.1445   18.0987  -34.8563 H   0  0  0  0  0  0  0  0  0  0  0  0
   -5.4417   17.8757  -36.0346 H   0  0  0  0  0  0  0  0  0  0  0  0
   -6.0940   18.6820  -34.1130 C   0  0  0  0  0  0  0  0  0  0  0  0
   -5.5030   19.1803  -33.3304 H   0  0  0  0  0  0  0  0  0  0  0  0
   -6.5706   19.4659  -34.7199 H   0  0  0  0  0  0  0  0  0  0  0  0
   -8.4380   21.1430  -31.9510 C   0  0  0  0  0  0  0  0  0  0  0  0
   -9.5091   20.8994  -31.8918 H   0  0  0  0  0  0  0  0  0  0  0  0
   -7.9450   22.4510  -32.0100 C   0  0  0  0  0  0  0  0  0  0  0  0
   -8.5898   23.3422  -32.0083 H   0  0  0  0  0  0  0  0  0  0  0  0
  1  2  1  0
  2  3  2  0
  3  4  1  0
  4  5  1  0
  4  6  2  0
  6  7  1  0
  7  8  2  0
  8  9  1  0
  8 10  1  0
 10 11  1  0
 10 12  2  0
 12 13  1  0
 12 14  1  0
 14 15  1  0
 14 16  2  0
 16 17  1  0
  6 18  1  0
 18 19  1  0
 19 20  1  0
 20 21  1  0
 20 22  1  0
 20 23  1  0
 23 24  1  0
 24 25  1  0
 25 26  1  0
 26 27  2  0
 26 28  2  0
 26 29  1  0
 29 30  1  0
 30 31  1  0
 30 32  1  0
 30 33  1  0
 33 34  1  0
 33 35  1  0
 33 36  1  0
 36 37  1  0
 36 38  1  0
 36 39  1  0
 39 40  1  0
 39 41  1  0
 25 42  2  0
 42 43  1  0
 42 44  1  0
 44 45  1  0
 19  3  1  0
 44 23  2  0
 16  7  1  0
 39 29  1  0
M  CHG  1  18  -1
M  END
>  <UniqueID>  (2) 
2

>  <SMILES>  (2) 
[H]/N=c1\cc(-c2ccccc2)[n-]n1Cc1ccc(S(=O)(=O)N2CCCC2)s1

>  <Energy>  (2) 
105.14870354429188

>  <Genealogy>  (2) 
N=c1cc(-c2ccccc2)[n-]n1Cc1ccc(S(=O)(=O)N2CCCC2)s1 (protonated)
[H]/N=c1\cc(-c2ccccc2)[n-]n1Cc1ccc(S(=O)(=O)N2CCCC2)s1 (cis-trans isomerization)
[H]/N=c1\cc(-c2ccccc2)[n-]n1Cc1ccc(S(=O)(=O)N2CCCC2)s1 (3D coordinates assigned)
[H]/N=c1\cc(-c2ccccc2)[n-]n1Cc1ccc(S(=O)(=O)N2CCCC2)s1 (nonaromatic ring conformer: 105.14870354429188 kcal/mol)

>  <smiles>  (2) 
N=c1cc(-c2ccccc2)[nH]n1Cc1ccc(S(=O)(=O)N2CCCC2)s1

>  <score_type>  (2) 
oracle

>  <origin>  (2) 
adg

>  <m_score__min__energy>  (2) 
-10.289999999999999

>  <m_primary>  (2) 
energy

$$$$
2:0
     RDKit          3D

 41 44  0  0  0  0  0  0  0  0999 V2000
   -6.5063   24.8621  -31.6934 H   0  0  0  0  0  0  0  0  0  0  0  0
   -5.7060   24.3080  -31.1810 C   0  0  0  0  0  0  0  0  0  0  0  0
   -4.5700   24.9580  -30.7890 N   0  0  0  0  0  0  0  0  0  0  0  0
   -3.5950   24.2390  -30.1850 C   0  0  0  0  0  0  0  0  0  0  0  0
   -3.7180   22.9020  -29.9770 C   0  0  0  0  0  0  0  0  0  0  0  0
   -2.5810   22.4640  -29.3390 C   0  0  0  0  0  0  0  0  0  0  0  0
   -2.3403   21.4402  -29.0167 H   0  0  0  0  0  0  0  0  0  0  0  0
   -1.8010   23.6140  -29.1930 C   0  0  0  0  0  0  0  0  0  0  0  0
   -0.8092   23.6367  -28.7178 H   0  0  0  0  0  0  0  0  0  0  0  0
   -2.4270   24.6990  -29.7140 N   0  0  0  0  0  0  0  0  0  0  0  0
   -2.0770   25.6810  -29.7380 H   0  0  0  0  0  0  0  0  0  0  0  0
   -4.8270   22.2200  -30.3500 N   0  0  0  0  0  0  0  0  0  0  0  0
   -4.8940   21.1910  -30.1890 H   0  0  0  0  0  0  0  0  0  0  0  0
   -5.8560   22.9170  -30.9280 C   0  0  0  0  0  0  0  0  0  0  0  0
   -7.0960   22.2150  -31.3200 C   0  0  0  0  0  0  0  0  0  0  0  0
   -8.2620   22.9900  -31.4200 C   0  0  0  0  0  0  0  0  0  0  0  0
   -8.2454   24.0430  -31.1022 H   0  0  0  0  0  0  0  0  0  0  0  0
   -9.4400   22.4380  -31.9180 C   0  0  0  0  0  0  0  0  0  0  0  0
  -10.3538   23.0464  -31.9876 H   0  0  0  0  0  0  0  0  0  0  0  0
   -9.4470   21.1090  -32.3260 C   0  0  0  0  0  0  0  0  0  0  0  0
  -10.3623   20.6685  -32.7481 H   0  0  0  0  0  0  0  0  0  0  0  0
   -8.3260   20.3550  -32.2040 N   0  0  0  0  0  0  0  0  0  0  0  0
   -7.1580   20.8380  -31.7000 C   0  0  0  0  0  0  0  0  0  0  0  0
   -6.1710   19.9890  -31.5750 N   0  0  0  0  0  0  0  0  0  0  0  0
   -5.5750   19.1410  -32.5700 C   0  0  0  0  0  0  0  0  0  0  0  0
   -6.1920   17.9200  -32.9290 C   0  0  0  0  0  0  0  0  0  0  0  0
   -7.5110   17.5130  -32.3280 C   0  0  0  0  0  0  0  0  0  0  0  0
   -7.4366   17.5359  -31.2308 H   0  0  0  0  0  0  0  0  0  0  0  0
   -8.2949   18.2111  -32.6571 H   0  0  0  0  0  0  0  0  0  0  0  0
   -7.7652   16.4946  -32.6571 H   0  0  0  0  0  0  0  0  0  0  0  0
   -5.5820   17.0950  -33.8880 C   0  0  0  0  0  0  0  0  0  0  0  0
   -6.0332   16.1239  -34.1399 H   0  0  0  0  0  0  0  0  0  0  0  0
   -4.4080   17.4990  -34.5230 C   0  0  0  0  0  0  0  0  0  0  0  0
   -3.9283   16.8386  -35.2604 H   0  0  0  0  0  0  0  0  0  0  0  0
   -3.8400   18.7380  -34.2260 C   0  0  0  0  0  0  0  0  0  0  0  0
   -2.9341   19.0651  -34.7573 H   0  0  0  0  0  0  0  0  0  0  0  0
   -4.4160   19.5690  -33.2550 C   0  0  0  0  0  0  0  0  0  0  0  0
   -3.8140   20.9240  -32.9950 C   0  0  0  0  0  0  0  0  0  0  0  0
   -3.7401   21.0903  -31.9102 H   0  0  0  0  0  0  0  0  0  0  0  0
   -2.8102   20.9712  -33.4424 H   0  0  0  0  0  0  0  0  0  0  0  0
   -4.4518   21.7006  -33.4424 H   0  0  0  0  0  0  0  0  0  0  0  0
  1  2  1  0
  2  3  2  0
  3  4  1  0
  4  5  2  0
  5  6  1  0
  6  7  1  0
  6  8  2  0
  8  9  1  0
  8 10  1  0
 10 11  1  0
  5 12  1  0
 12 13  1  0
 12 14  2  0
 14 15  1  0
 15 16  2  0
 16 17  1  0
 16 18  1  0
 18 19  1  0
 18 20  2  0
 20 21  1  0
 20 22  1  0
 22 23  1  0
 23 24  2  0
 24 25  1  0
 25 26  2  0
 26 27  1  0
 27 28  1  0
 27 29  1  0
 27 30  1  0
 26 31  1  0
 31 32  1  0
 31 33  2  0
 33 34  1  0
 33 35  1  0
 35 36  1  0
 35 37  2  0
 37 38  1  0
 38 39  1  0
 38 40  1  0
 38 41  1  0
 14  2  1  0
 23 15  1  0
 37 25  1  0
 10  4  1  0
M  CHG  2  12   1  22  -1
M  END
>  <UniqueID>  (3) 
3

>  <SMILES>  (3) 
Cc1cccc(C)c1/N=c1/[n-]cccc1-c1cnc2[nH]ccc2[nH+]1

>  <Energy>  (3) 
102.02065998877741

>  <Genealogy>  (3) 
Cc1cccc(C)c1N=c1[n-]cccc1-c1cnc2[nH]ccc2[nH+]1 (protonated)
Cc1cccc(C)c1/N=c1/[n-]cccc1-c1cnc2[nH]ccc2[nH+]1 (cis-trans isomerization)
Cc1cccc(C)c1/N=c1/[n-]cccc1-c1cnc2[nH]ccc2[nH+]1 (3D coordinates assigned)
Cc1cccc(C)c1/N=c1/[n-]cccc1-c1cnc2[nH]ccc2[nH+]1 (optimized conformer: 102.02065998877741 kcal/mol)

>  <smiles>  (3) 
Cc1cccc(C)c1N=c1[nH]cccc1-c1cnc2[nH]ccc2n1

>  <score_type>  (3) 
oracle

>  <origin>  (3) 
adg

>  <m_score__min__energy>  (3) 
-8.2200000000000006

>  <m_primary>  (3) 
energy

$$$$
4:0
     RDKit          3D

 39 42  0  0  0  0  0  0  0  0999 V2000
   -6.4900   17.4190  -30.7550 O   0  0  0  0  0  0  0  0  0  0  0  0
   -6.1580   17.5250  -31.9670 C   0  0  0  0  0  0  0  0  0  0  0  0
   -5.3420   16.5690  -32.7060 C   0  0  0  0  0  0  0  0  0  0  0  0
   -4.7200   15.3930  -32.2920 C   0  0  0  0  0  0  0  0  0  0  0  0
   -3.9870   14.6630  -33.2450 C   0  0  0  0  0  0  0  0  0  0  0  0
   -3.8930   15.1190  -34.5780 C   0  0  0  0  0  0  0  0  0  0  0  0
   -4.5330   16.3080  -34.9710 C   0  0  0  0  0  0  0  0  0  0  0  0
   -5.2540   17.0120  -34.0090 C   0  0  0  0  0  0  0  0  0  0  0  0
   -6.0090   18.2560  -34.1060 C   0  0  0  0  0  0  0  0  0  0  0  0
   -6.1080   18.9700  -35.1390 O   0  0  0  0  0  0  0  0  0  0  0  0
   -6.5800   18.5840  -32.8340 N   0  0  0  0  0  0  0  0  0  0  0  0
   -7.3880   19.7260  -32.5000 C   0  0  0  0  0  0  0  0  0  0  0  0
   -8.6900   19.5570  -32.0020 C   0  0  0  0  0  0  0  0  0  0  0  0
   -9.4670   20.6670  -31.6640 C   0  0  0  0  0  0  0  0  0  0  0  0
   -8.9550   21.9560  -31.8210 C   0  0  0  0  0  0  0  0  0  0  0  0
   -7.6620   22.1450  -32.3310 C   0  0  0  0  0  0  0  0  0  0  0  0
   -7.0940   23.5330  -32.4650 C   0  0  0  0  0  0  0  0  0  0  0  0
   -6.0540   23.7700  -31.4030 C   0  0  0  0  0  0  0  0  0  0  0  0
   -6.3120   24.6580  -30.3460 C   0  0  0  0  0  0  0  0  0  0  0  0
   -5.3620   24.8490  -29.3390 C   0  0  0  0  0  0  0  0  0  0  0  0
   -4.1500   24.1490  -29.3740 C   0  0  0  0  0  0  0  0  0  0  0  0
   -2.9600   24.3870  -28.1090 Cl  0  0  0  0  0  0  0  0  0  0  0  0
   -3.8920   23.2540  -30.4180 C   0  0  0  0  0  0  0  0  0  0  0  0
   -4.8410   23.0610  -31.4270 C   0  0  0  0  0  0  0  0  0  0  0  0
   -6.8790   21.0270  -32.6600 C   0  0  0  0  0  0  0  0  0  0  0  0
   -4.7998   15.0459  -31.2512 H   0  0  0  0  0  0  0  0  0  0  0  0
   -3.4836   13.7306  -32.9498 H   0  0  0  0  0  0  0  0  0  0  0  0
   -3.3154   14.5404  -35.3139 H   0  0  0  0  0  0  0  0  0  0  0  0
   -4.4663   16.6713  -36.0071 H   0  0  0  0  0  0  0  0  0  0  0  0
   -9.1004   18.5441  -31.8774 H   0  0  0  0  0  0  0  0  0  0  0  0
  -10.4853   20.5252  -31.2730 H   0  0  0  0  0  0  0  0  0  0  0  0
   -9.5676   22.8266  -31.5438 H   0  0  0  0  0  0  0  0  0  0  0  0
   -6.6325   23.6432  -33.4574 H   0  0  0  0  0  0  0  0  0  0  0  0
   -7.9045   24.2672  -32.3460 H   0  0  0  0  0  0  0  0  0  0  0  0
   -7.2655   25.2053  -30.3106 H   0  0  0  0  0  0  0  0  0  0  0  0
   -5.5669   25.5508  -28.5171 H   0  0  0  0  0  0  0  0  0  0  0  0
   -2.9413   22.7013  -30.4452 H   0  0  0  0  0  0  0  0  0  0  0  0
   -4.6371   22.3515  -32.2425 H   0  0  0  0  0  0  0  0  0  0  0  0
   -5.8590   21.1700  -33.0461 H   0  0  0  0  0  0  0  0  0  0  0  0
  1  2  2  0
  2  3  1  0
  3  4  2  0
  4  5  1  0
  5  6  2  0
  6  7  1  0
  7  8  2  0
  8  9  1  0
  9 10  2  0
  9 11  1  0
 11 12  1  0
 12 13  2  0
 13 14  1  0
 14 15  2  0
 15 16  1  0
 16 17  1  0
 17 18  1  0
 18 19  2  0
 19 20  1  0
 20 21  2  0
 21 22  1  0
 21 23  1  0
 23 24  2  0
 16 25  2  0
 11  2  1  0
 25 12  1  0
  8  3  1  0
 24 18  1  0
  4 26  1  0
  5 27  1  0
  6 28  1  0
  7 29  1  0
 13 30  1  0
 14 31  1  0
 15 32  1  0
 17 33  1  0
 17 34  1  0
 19 35  1  0
 20 36  1  0
 23 37  1  0
 24 38  1  0
 25 39  1  0
M  END
>  <UniqueID>  (4) 
4

>  <SMILES>  (4) 
O=C1c2ccccc2C(=O)N1c1cccc(Cc2ccc(Cl)cc2)c1

>  <Energy>  (4) 
78.93220183609175

>  <Genealogy>  (4) 
O=C1c2ccccc2C(=O)N1c1cccc(Cc2ccc(Cl)cc2)c1 (3D coordinates assigned)
O=C1c2ccccc2C(=O)N1c1cccc(Cc2ccc(Cl)cc2)c1 (nonaromatic ring conformer: 78.93220183609175 kcal/mol)

>  <smiles>  (4) 
O=C1c2ccccc2C(=O)N1c1cccc(Cc2ccc(Cl)cc2)c1

>  <score_type>  (4) 
oracle

>  <origin>  (4) 
adg

>  <m_score__min__energy>  (4) 
-9.4499999999999993

>  <m_primary>  (4) 
energy

$$$$
5:0
     RDKit          3D

 31 33  0  0  0  0  0  0  0  0999 V2000
   -3.6380   25.2930  -30.1060 O   0  0  0  0  0  0  0  0  0  0  0  0
   -3.8240   24.0460  -30.0880 C   0  0  0  0  0  0  0  0  0  0  0  0
   -4.6800   23.4500  -30.9990 C   0  0  0  0  0  0  0  0  0  0  0  0
   -5.3900   23.9840  -32.0100 N   0  0  0  0  0  0  0  0  0  0  0  0
   -5.9900   22.9470  -32.5930 N   0  0  0  0  0  0  0  0  0  0  0  0
   -5.6900   21.7930  -31.9960 N   0  0  0  0  0  0  0  0  0  0  0  0
   -6.1600   20.4940  -32.4000 C   0  0  0  0  0  0  0  0  0  0  0  0
   -7.3540   19.9660  -31.8760 C   0  0  0  0  0  0  0  0  0  0  0  0
   -7.8050   18.7050  -32.2770 C   0  0  0  0  0  0  0  0  0  0  0  0
   -7.0740   17.9610  -33.2050 C   0  0  0  0  0  0  0  0  0  0  0  0
   -5.8890   18.4770  -33.7370 C   0  0  0  0  0  0  0  0  0  0  0  0
   -4.9700   17.5410  -34.9020 Cl  0  0  0  0  0  0  0  0  0  0  0  0
   -5.4350   19.7400  -33.3380 C   0  0  0  0  0  0  0  0  0  0  0  0
   -4.8630   22.1140  -30.9880 C   0  0  0  0  0  0  0  0  0  0  0  0
   -4.2140   21.2960  -30.1300 N   0  0  0  0  0  0  0  0  0  0  0  0
   -3.3710   21.8640  -29.2150 C   0  0  0  0  0  0  0  0  0  0  0  0
   -3.1810   23.2340  -29.1780 N   0  0  0  0  0  0  0  0  0  0  0  0
   -2.2410   23.7970  -28.1970 C   0  0  0  0  0  0  0  0  0  0  0  0
   -0.9910   24.3280  -28.9020 C   0  0  0  0  0  0  0  0  0  0  0  0
   -1.1880   25.6560  -29.3040 O   0  0  0  0  0  0  0  0  0  0  0  0
   -6.6320   23.0430  -33.4130 H   0  0  0  0  0  0  0  0  0  0  0  0
   -7.9360   20.5486  -31.1467 H   0  0  0  0  0  0  0  0  0  0  0  0
   -8.7381   18.2980  -31.8603 H   0  0  0  0  0  0  0  0  0  0  0  0
   -7.4307   16.9685  -33.5176 H   0  0  0  0  0  0  0  0  0  0  0  0
   -4.5042   20.1448  -33.7619 H   0  0  0  0  0  0  0  0  0  0  0  0
   -2.8366   21.2228  -28.4986 H   0  0  0  0  0  0  0  0  0  0  0  0
   -2.7305   24.6209  -27.6571 H   0  0  0  0  0  0  0  0  0  0  0  0
   -1.9449   23.0068  -27.4914 H   0  0  0  0  0  0  0  0  0  0  0  0
   -0.1366   24.2808  -28.2108 H   0  0  0  0  0  0  0  0  0  0  0  0
   -0.7909   23.7106  -29.7901 H   0  0  0  0  0  0  0  0  0  0  0  0
   -2.0440   25.6770  -29.8070 H   0  0  0  0  0  0  0  0  0  0  0  0
  1  2  2  0
  2  3  1  0
  3  4  1  0
  4  5  2  0
  5  6  1  0
  6  7  1  0
  7  8  2  0
  8  9  1  0
  9 10  2  0
 10 11  1  0
 11 12  1  0
 11 13  2  0
  6 14  1  0
 14 15  1  0
 15 16  2  0
 16 17  1  0
 17 18  1  0
 18 19  1  0
 19 20  1  0
 17  2  1  0
 14  3  2  0
 13  7  1  0
  5 21  1  0
  8 22  1  0
  9 23  1  0
 10 24  1  0
 13 25  1  0
 16 26  1  0
 18 27  1  0
 18 28  1  0
 19 29  1  0
 19 30  1  0
 20 31  1  0
M  CHG  1   5   1
M  END
>  <UniqueID>  (5) 
5

>  <SMILES>  (5) 
O=c1c2n[nH+]n(-c3cccc(Cl)c3)c2ncn1CCO

>  <Energy>  (5) 
85.14932621296023

>  <Genealogy>  (5) 
O=c1c2n[nH+]n(-c3cccc(Cl)c3)c2ncn1CCO (protonated)
O=c1c2n[nH+]n(-c3cccc(Cl)c3)c2ncn1CCO (3D coordinates assigned)
O=c1c2n[nH+]n(-c3cccc(Cl)c3)c2ncn1CCO (optimized conformer: 85.14932621296023 kcal/mol)

>  <smiles>  (5) 
O=c1c2nnn(-c3cccc(Cl)c3)c2ncn1CCO

>  <score_type>  (5) 
oracle

>  <origin>  (5) 
adg

>  <m_score__min__energy>  (5) 
-8.3300000000000001

>  <m_primary>  (5) 
energy

$$$$
6:0
     RDKit          3D

 57 61  0  0  0  0  0  0  0  0999 V2000
   -1.4930   26.2660  -26.1750 C   0  0  0  0  0  0  0  0  0  0  0  0
   -0.7500   25.6880  -27.1240 C   0  0  0  0  0  0  0  0  0  0  0  0
   -1.3130   25.3640  -28.4880 C   0  0  0  0  0  0  0  0  0  0  0  0
   -1.8740   23.9980  -28.5710 N   0  0  0  0  0  0  0  0  0  0  0  0
   -2.9850   23.7790  -27.6140 C   0  0  0  0  0  0  0  0  0  0  0  0
   -3.6720   22.4010  -27.8050 C   0  0  0  0  0  0  0  0  0  0  0  0
   -2.7170   21.2980  -28.3620 C   0  0  2  0  0  0  0  0  0  0  0  0
   -3.1250   19.8730  -27.8360 C   0  0  0  0  0  0  0  0  0  0  0  0
   -2.2920   19.4000  -26.6360 C   0  0  0  0  0  0  0  0  0  0  0  0
   -0.7870   19.3400  -26.9790 C   0  0  0  0  0  0  0  0  0  0  0  0
   -0.3350   20.4480  -27.9550 C   0  0  0  0  0  0  0  0  0  0  0  0
   -1.2840   21.6600  -27.8740 C   0  0  1  0  0  0  0  0  0  0  0  0
   -0.8300   22.9290  -28.6250 C   0  0  1  0  0  0  0  0  0  0  0  0
   -0.5890   22.5840  -30.0990 C   0  0  0  0  0  0  0  0  0  0  0  0
   -1.8040   21.9280  -30.7090 C   0  0  0  0  0  0  0  0  0  0  0  0
   -1.9220   21.9100  -32.1070 C   0  0  0  0  0  0  0  0  0  0  0  0
   -3.0460   21.3570  -32.7170 C   0  0  0  0  0  0  0  0  0  0  0  0
   -4.0830   20.8260  -31.9440 C   0  0  0  0  0  0  0  0  0  0  0  0
   -5.2400   20.2750  -32.5970 N   0  0  0  0  0  0  0  0  0  0  0  0
   -6.5870   20.7120  -32.3530 C   0  0  0  0  0  0  0  0  0  0  0  0
   -7.6270   19.7700  -32.3700 C   0  0  0  0  0  0  0  0  0  0  0  0
   -8.9480   20.1700  -32.1480 C   0  0  0  0  0  0  0  0  0  0  0  0
   -9.2420   21.5180  -31.9250 C   0  0  0  0  0  0  0  0  0  0  0  0
   -8.2180   22.4670  -31.9330 C   0  0  0  0  0  0  0  0  0  0  0  0
   -6.8940   22.0720  -32.1550 C   0  0  0  0  0  0  0  0  0  0  0  0
   -5.9240   23.0190  -32.2110 F   0  0  0  0  0  0  0  0  0  0  0  0
   -3.9500   20.7970  -30.5460 C   0  0  0  0  0  0  0  0  0  0  0  0
   -2.8050   21.3170  -29.9060 C   0  0  0  0  0  0  0  0  0  0  0  0
   -1.0531   26.4890  -25.1917 H   0  0  0  0  0  0  0  0  0  0  0  0
   -2.5443   26.5187  -26.3773 H   0  0  0  0  0  0  0  0  0  0  0  0
    0.2996   25.4416  -26.9060 H   0  0  0  0  0  0  0  0  0  0  0  0
   -2.1108   26.0854  -28.7185 H   0  0  0  0  0  0  0  0  0  0  0  0
   -0.4846   25.4243  -29.2092 H   0  0  0  0  0  0  0  0  0  0  0  0
   -2.5851   23.8348  -26.5908 H   0  0  0  0  0  0  0  0  0  0  0  0
   -3.7409   24.5570  -27.7963 H   0  0  0  0  0  0  0  0  0  0  0  0
   -4.0582   22.0670  -26.8307 H   0  0  0  0  0  0  0  0  0  0  0  0
   -4.4721   22.5396  -28.5470 H   0  0  0  0  0  0  0  0  0  0  0  0
   -4.1827   19.9028  -27.5352 H   0  0  0  0  0  0  0  0  0  0  0  0
   -2.9435   19.1620  -28.6555 H   0  0  0  0  0  0  0  0  0  0  0  0
   -2.4403   20.0995  -25.8001 H   0  0  0  0  0  0  0  0  0  0  0  0
   -2.6241   18.3874  -26.3634 H   0  0  0  0  0  0  0  0  0  0  0  0
   -0.2127   19.4415  -26.0464 H   0  0  0  0  0  0  0  0  0  0  0  0
   -0.6059   18.3758  -27.4765 H   0  0  0  0  0  0  0  0  0  0  0  0
    0.6840   20.7681  -27.6921 H   0  0  0  0  0  0  0  0  0  0  0  0
   -0.3550   20.0488  -28.9798 H   0  0  0  0  0  0  0  0  0  0  0  0
   -1.2705   21.9068  -26.8021 H   0  0  0  0  0  0  0  0  0  0  0  0
    0.0884   23.2947  -28.1426 H   0  0  0  0  0  0  0  0  0  0  0  0
   -0.3637   23.5078  -30.6520 H   0  0  0  0  0  0  0  0  0  0  0  0
    0.2552   21.8814  -30.1600 H   0  0  0  0  0  0  0  0  0  0  0  0
   -1.1197   22.3364  -32.7271 H   0  0  0  0  0  0  0  0  0  0  0  0
   -3.1180   21.3380  -33.8145 H   0  0  0  0  0  0  0  0  0  0  0  0
   -5.0980   19.4740  -33.2530 H   0  0  0  0  0  0  0  0  0  0  0  0
   -7.4014   18.7101  -32.5592 H   0  0  0  0  0  0  0  0  0  0  0  0
   -9.7561   19.4237  -32.1488 H   0  0  0  0  0  0  0  0  0  0  0  0
  -10.2806   21.8314  -31.7431 H   0  0  0  0  0  0  0  0  0  0  0  0
   -8.4527   23.5284  -31.7643 H   0  0  0  0  0  0  0  0  0  0  0  0
   -4.7553   20.3598  -29.9374 H   0  0  0  0  0  0  0  0  0  0  0  0
  1  2  2  0
  2  3  1  0
  3  4  1  0
  4  5  1  0
  5  6  1  0
  7  6  1  1
  7  8  1  0
  8  9  1  0
  9 10  1  0
 10 11  1  0
 11 12  1  0
 12 13  1  0
 13 14  1  0
 14 15  1  0
 15 16  2  0
 16 17  1  0
 17 18  2  0
 18 19  1  0
 19 20  1  0
 20 21  2  0
 21 22  1  0
 22 23  2  0
 23 24  1  0
 24 25  2  0
 25 26  1  0
 18 27  1  0
 27 28  2  0
 13  4  1  0
 28 15  1  0
 12  7  1  0
 25 20  1  0
 28  7  1  0
  1 29  1  0
  1 30  1  0
  2 31  1  0
  3 32  1  0
  3 33  1  0
  5 34  1  0
  5 35  1  0
  6 36  1  0
  6 37  1  0
  8 38  1  0
  8 39  1  0
  9 40  1  0
  9 41  1  0
 10 42  1  0
 10 43  1  0
 11 44  1  0
 11 45  1  0
 12 46  1  1
 13 47  1  1
 14 48  1  0
 14 49  1  0
 16 50  1  0
 17 51  1  0
 19 52  1  0
 21 53  1  0
 22 54  1  0
 23 55  1  0
 24 56  1  0
 27 57  1  0
M  END
>  <UniqueID>  (6) 
6

>  <SMILES>  (6) 
C=CCN1CC[C@]23CCCC[C@H]2C1Cc1ccc(Nc2ccccc2F)cc13

>  <Energy>  (6) 
92.82714467653882

>  <Genealogy>  (6) 
C=CCN1CC[C@]23CCCC[C@H]2C1Cc1ccc(Nc2ccccc2F)cc13 (chirality)
C=CCN1CC[C@]23CCCC[C@H]2C1Cc1ccc(Nc2ccccc2F)cc13 (3D coordinates assigned)
C=CCN1CC[C@]23CCCC[C@H]2C1Cc1ccc(Nc2ccccc2F)cc13 (nonaromatic ring conformer: 92.82714467653882 kcal/mol)

>  <smiles>  (6) 
C=CCN1CCC23CCCCC2C1Cc1ccc(Nc2ccccc2F)cc13

>  <score_type>  (6) 
oracle

>  <origin>  (6) 
adg

>  <m_score__min__energy>  (6) 
-8.3599999999999994

>  <m_primary>  (6) 
energy

$$$$
7:0
     RDKit          3D

 45 47  0  0  0  0  0  0  0  0999 V2000
   -7.2690   23.8420  -30.7750 C   0  0  0  0  0  0  0  0  0  0  0  0
   -6.0790   24.5790  -31.3840 C   0  0  0  0  0  0  0  0  0  0  0  0
   -5.3390   25.4530  -30.3660 C   0  0  0  0  0  0  0  0  0  0  0  0
   -3.8940   25.2790  -30.4700 N   0  0  0  0  0  0  0  0  0  0  0  0
   -3.0620   24.8120  -29.4040 C   0  0  0  0  0  0  0  0  0  0  0  0
   -1.9040   25.2820  -29.2400 O   0  0  0  0  0  0  0  0  0  0  0  0
   -3.5740   23.7600  -28.4750 C   0  0  0  0  0  0  0  0  0  0  0  0
   -4.6680   22.5940  -29.3520 S   0  0  0  0  0  0  0  0  0  0  0  0
   -3.3480   21.4990  -29.8770 C   0  0  0  0  0  0  0  0  0  0  0  0
   -2.4060   21.0440  -29.0840 O   0  0  0  0  0  0  0  0  0  0  0  0
   -1.6380   20.2590  -29.8090 C   0  0  0  0  0  0  0  0  0  0  0  0
   -0.4790   19.5370  -29.2700 C   0  0  0  0  0  0  0  0  0  0  0  0
   -0.4000   18.9020  -28.0350 C   0  0  0  0  0  0  0  0  0  0  0  0
    0.8470   18.3080  -27.8010 C   0  0  0  0  0  0  0  0  0  0  0  0
    1.7500   18.4740  -28.8430 C   0  0  0  0  0  0  0  0  0  0  0  0
    0.9970   19.3610  -30.0560 S   0  0  0  0  0  0  0  0  0  0  0  0
   -2.0560   20.1830  -31.0900 N   0  0  0  0  0  0  0  0  0  0  0  0
   -3.1460   20.9680  -31.1330 C   0  0  0  0  0  0  0  0  0  0  0  0
   -4.1500   21.1910  -32.5590 S   0  0  0  0  0  0  0  0  0  0  0  0
   -4.3720   22.6590  -32.7930 O   0  0  0  0  0  0  0  0  0  0  0  0
   -3.4580   20.6140  -33.7600 O   0  0  0  0  0  0  0  0  0  0  0  0
   -5.6840   20.3580  -32.3320 C   0  0  0  0  0  0  0  0  0  0  0  0
   -6.8850   21.0480  -32.5500 C   0  0  0  0  0  0  0  0  0  0  0  0
   -8.1100   20.3910  -32.3920 C   0  0  0  0  0  0  0  0  0  0  0  0
   -8.1400   19.0440  -32.0210 C   0  0  0  0  0  0  0  0  0  0  0  0
   -6.9440   18.3520  -31.8040 C   0  0  0  0  0  0  0  0  0  0  0  0
   -5.7180   19.0060  -31.9590 C   0  0  0  0  0  0  0  0  0  0  0  0
   -7.2031   23.8828  -29.6777 H   0  0  0  0  0  0  0  0  0  0  0  0
   -8.2036   24.3196  -31.1042 H   0  0  0  0  0  0  0  0  0  0  0  0
   -7.2578   22.7925  -31.1042 H   0  0  0  0  0  0  0  0  0  0  0  0
   -5.3748   23.8367  -31.7878 H   0  0  0  0  0  0  0  0  0  0  0  0
   -6.4672   25.2426  -32.1707 H   0  0  0  0  0  0  0  0  0  0  0  0
   -5.5873   26.5083  -30.5521 H   0  0  0  0  0  0  0  0  0  0  0  0
   -5.6535   25.1518  -29.3558 H   0  0  0  0  0  0  0  0  0  0  0  0
   -2.7221   23.2066  -28.0530 H   0  0  0  0  0  0  0  0  0  0  0  0
   -4.1497   24.2478  -27.6746 H   0  0  0  0  0  0  0  0  0  0  0  0
   -1.2316   18.8695  -27.3157 H   0  0  0  0  0  0  0  0  0  0  0  0
    1.0885   17.7609  -26.8777 H   0  0  0  0  0  0  0  0  0  0  0  0
    2.7808   18.0909  -28.8699 H   0  0  0  0  0  0  0  0  0  0  0  0
   -1.6460   19.6240  -31.8700 H   0  0  0  0  0  0  0  0  0  0  0  0
   -6.8640   22.1073  -32.8457 H   0  0  0  0  0  0  0  0  0  0  0  0
   -9.0509   20.9355  -32.5600 H   0  0  0  0  0  0  0  0  0  0  0  0
   -9.1039   18.5281  -31.8997 H   0  0  0  0  0  0  0  0  0  0  0  0
   -6.9680   17.2920  -31.5111 H   0  0  0  0  0  0  0  0  0  0  0  0
   -4.7787   18.4596  -31.7882 H   0  0  0  0  0  0  0  0  0  0  0  0
  1  2  1  0
  2  3  1  0
  3  4  1  0
  4  5  1  0
  5  6  2  0
  5  7  1  0
  7  8  1  0
  8  9  1  0
  9 10  1  0
 10 11  1  0
 11 12  1  0
 12 13  2  0
 13 14  1  0
 14 15  2  0
 15 16  1  0
 11 17  2  0
 17 18  1  0
 18 19  1  0
 19 20  2  0
 19 21  2  0
 19 22  1  0
 22 23  2  0
 23 24  1  0
 24 25  2  0
 25 26  1  0
 26 27  2  0
 18  9  2  0
 27 22  1  0
 16 12  1  0
  1 28  1  0
  1 29  1  0
  1 30  1  0
  2 31  1  0
  2 32  1  0
  3 33  1  0
  3 34  1  0
  7 35  1  0
  7 36  1  0
 13 37  1  0
 14 38  1  0
 15 39  1  0
 17 40  1  0
 23 41  1  0
 24 42  1  0
 25 43  1  0
 26 44  1  0
 27 45  1  0
M  CHG  2   4  -1  17   1
M  END
>  <UniqueID>  (7) 
7

>  <SMILES>  (7) 
CCC[N-]C(=O)CSc1oc(-c2cccs2)[nH+]c1S(=O)(=O)c1ccccc1

>  <Energy>  (7) 
91.95446858054234

>  <Genealogy>  (7) 
CCC[N-]C(=O)CSc1oc(-c2cccs2)[nH+]c1S(=O)(=O)c1ccccc1 (protonated)
CCC[N-]C(=O)CSc1oc(-c2cccs2)[nH+]c1S(=O)(=O)c1ccccc1 (3D coordinates assigned)
CCC[N-]C(=O)CSc1oc(-c2cccs2)[nH+]c1S(=O)(=O)c1ccccc1 (optimized conformer: 91.95446858054234 kcal/mol)

>  <smiles>  (7) 
CCCNC(=O)CSc1oc(-c2cccs2)nc1S(=O)(=O)c1ccccc1

>  <score_type>  (7) 
oracle

>  <origin>  (7) 
adg

>  <m_score__min__energy>  (7) 
-9.5899999999999999

>  <m_primary>  (7) 
energy

$$$$
8:0
     RDKit          3D

 35 37  0  0  0  0  0  0  0  0999 V2000
   -6.4660   17.0980  -33.8080 C   0  0  0  0  0  0  0  0  0  0  0  0
   -5.5210   18.4760  -34.5280 S   0  0  0  0  0  0  0  0  0  0  0  0
   -6.2770   19.7020  -33.4630 C   0  0  0  0  0  0  0  0  0  0  0  0
   -5.4980   20.7400  -32.9190 C   0  0  0  0  0  0  0  0  0  0  0  0
   -6.1020   21.7130  -32.0790 C   0  0  0  0  0  0  0  0  0  0  0  0
   -5.3180   22.8130  -31.5030 N   0  0  0  0  0  0  0  0  0  0  0  0
   -3.9550   22.5130  -31.0040 C   0  0  0  0  0  0  0  0  0  0  0  0
   -3.1660   23.7190  -30.4660 C   0  0  0  0  0  0  0  0  0  0  0  0
   -4.0140   24.7360  -29.8380 N   0  0  0  0  0  0  0  0  0  0  0  0
   -4.6330   24.2710  -28.5840 C   0  0  0  0  0  0  0  0  0  0  0  0
   -4.9890   25.2330  -30.8140 C   0  0  0  0  0  0  0  0  0  0  0  0
   -5.9400   24.1400  -31.3160 C   0  0  0  0  0  0  0  0  0  0  0  0
   -7.4460   21.5480  -31.8390 N   0  0  0  0  0  0  0  0  0  0  0  0
   -8.2470   22.2790  -31.0820 N   0  0  0  0  0  0  0  0  0  0  0  0
   -9.4820   21.7290  -31.1410 C   0  0  0  0  0  0  0  0  0  0  0  0
   -9.4670   20.6110  -31.9610 C   0  0  0  0  0  0  0  0  0  0  0  0
   -8.1590   20.5430  -32.3710 C   0  0  0  0  0  0  0  0  0  0  0  0
   -7.6040   19.6150  -33.1790 N   0  0  0  0  0  0  0  0  0  0  0  0
   -6.4243   17.1588  -32.7105 H   0  0  0  0  0  0  0  0  0  0  0  0
   -7.5132   17.1590  -34.1391 H   0  0  0  0  0  0  0  0  0  0  0  0
   -6.0318   16.1431  -34.1391 H   0  0  0  0  0  0  0  0  0  0  0  0
   -4.4228   20.7977  -33.1440 H   0  0  0  0  0  0  0  0  0  0  0  0
   -4.0461   21.7777  -30.1910 H   0  0  0  0  0  0  0  0  0  0  0  0
   -3.3895   22.1457  -31.8730 H   0  0  0  0  0  0  0  0  0  0  0  0
   -2.4434   23.3579  -29.7193 H   0  0  0  0  0  0  0  0  0  0  0  0
   -2.6723   24.1941  -31.3265 H   0  0  0  0  0  0  0  0  0  0  0  0
   -4.0814   24.6853  -27.7272 H   0  0  0  0  0  0  0  0  0  0  0  0
   -5.6792   24.6084  -28.5444 H   0  0  0  0  0  0  0  0  0  0  0  0
   -4.6003   23.1722  -28.5444 H   0  0  0  0  0  0  0  0  0  0  0  0
   -5.5853   26.0273  -30.3413 H   0  0  0  0  0  0  0  0  0  0  0  0
   -4.4264   25.6059  -31.6826 H   0  0  0  0  0  0  0  0  0  0  0  0
   -6.7561   24.0352  -30.5859 H   0  0  0  0  0  0  0  0  0  0  0  0
   -6.2841   24.4626  -32.3098 H   0  0  0  0  0  0  0  0  0  0  0  0
  -10.3686   22.1129  -30.6151 H   0  0  0  0  0  0  0  0  0  0  0  0
  -10.3005   19.9415  -32.2199 H   0  0  0  0  0  0  0  0  0  0  0  0
  1  2  1  0
  2  3  1  0
  3  4  1  0
  4  5  2  0
  5  6  1  0
  6  7  1  0
  7  8  1  0
  8  9  1  0
  9 10  1  0
  9 11  1  0
 11 12  1  0
  5 13  1  0
 13 14  1  0
 14 15  2  0
 15 16  1  0
 16 17  2  0
 17 18  1  0
 18  3  2  0
 12  6  1  0
 17 13  1  0
  1 19  1  0
  1 20  1  0
  1 21  1  0
  4 22  1  0
  7 23  1  0
  7 24  1  0
  8 25  1  0
  8 26  1  0
 10 27  1  0
 10 28  1  0
 10 29  1  0
 11 30  1  0
 11 31  1  0
 12 32  1  0
 12 33  1  0
 15 34  1  0
 16 35  1  0
M  END
>  <UniqueID>  (8) 
8

>  <SMILES>  (8) 
CSc1cc(N2CCN(C)CC2)n2nccc2n1

>  <Energy>  (8) 
81.35248536910079

>  <Genealogy>  (8) 
CSc1cc(N2CCN(C)CC2)n2nccc2n1 (3D coordinates assigned)
CSc1cc(N2CCN(C)CC2)n2nccc2n1 (nonaromatic ring conformer: 81.35248536910079 kcal/mol)

>  <smiles>  (8) 
CSc1cc(N2CCN(C)CC2)n2nccc2n1

>  <score_type>  (8) 
oracle

>  <origin>  (8) 
adg

>  <m_score__min__energy>  (8) 
-6.7800000000000002

>  <m_primary>  (8) 
energy

$$$$
9:0
     RDKit          3D

 35 38  0  0  0  0  0  0  0  0999 V2000
   -5.2204   15.6259  -34.2635 H   0  0  0  0  0  0  0  0  0  0  0  0
   -5.6260   16.6170  -34.0120 C   0  0  0  0  0  0  0  0  0  0  0  0
   -5.0460   17.7660  -34.5580 C   0  0  0  0  0  0  0  0  0  0  0  0
   -4.1854   17.6763  -35.2372 H   0  0  0  0  0  0  0  0  0  0  0  0
   -5.5570   19.0290  -34.2430 C   0  0  0  0  0  0  0  0  0  0  0  0
   -5.0972   19.9301  -34.6750 H   0  0  0  0  0  0  0  0  0  0  0  0
   -6.6550   19.1500  -33.3770 C   0  0  0  0  0  0  0  0  0  0  0  0
   -7.1760   20.4110  -33.0520 C   0  0  0  0  0  0  0  0  0  0  0  0
   -6.7254   21.3153  -33.4870 H   0  0  0  0  0  0  0  0  0  0  0  0
   -8.2680   20.5300  -32.1760 C   0  0  0  0  0  0  0  0  0  0  0  0
   -8.8150   21.8690  -31.8430 C   0  0  0  0  0  0  0  0  0  0  0  0
   -9.8800   21.9550  -31.1770 O   0  0  0  0  0  0  0  0  0  0  0  0
   -8.1290   23.0780  -32.1970 N   0  0  0  0  0  0  0  0  0  0  0  0
   -7.0000   23.4850  -31.6960 C   0  0  0  0  0  0  0  0  0  0  0  0
   -6.7690   23.6940  -30.3560 C   0  0  0  0  0  0  0  0  0  0  0  0
   -7.4572   23.5373  -29.5123 H   0  0  0  0  0  0  0  0  0  0  0  0
   -5.4560   24.1510  -30.3250 C   0  0  0  0  0  0  0  0  0  0  0  0
   -4.6330   24.5440  -29.1260 C   0  0  0  0  0  0  0  0  0  0  0  0
   -5.1579   25.4975  -28.9669 H   0  0  0  0  0  0  0  0  0  0  0  0
   -3.1770   24.1050  -29.1430 C   0  0  0  0  0  0  0  0  0  0  0  0
   -2.7717   23.5776  -30.0191 H   0  0  0  0  0  0  0  0  0  0  0  0
   -2.2104   24.6102  -29.0000 H   0  0  0  0  0  0  0  0  0  0  0  0
   -4.1720   23.4070  -28.2280 C   0  0  0  0  0  0  0  0  0  0  0  0
   -4.4861   22.3748  -28.4424 H   0  0  0  0  0  0  0  0  0  0  0  0
   -4.2228   23.1983  -27.1492 H   0  0  0  0  0  0  0  0  0  0  0  0
   -4.9970   24.2030  -31.5560 O   0  0  0  0  0  0  0  0  0  0  0  0
   -5.9010   23.8120  -32.4040 N   0  0  0  0  0  0  0  0  0  0  0  0
   -5.7720   23.7990  -33.4400 H   0  0  0  0  0  0  0  0  0  0  0  0
   -8.8500   19.3660  -31.6440 C   0  0  0  0  0  0  0  0  0  0  0  0
   -9.7161   19.4488  -30.9709 H   0  0  0  0  0  0  0  0  0  0  0  0
   -8.3390   18.1050  -31.9620 C   0  0  0  0  0  0  0  0  0  0  0  0
   -8.8006   17.2030  -31.5339 H   0  0  0  0  0  0  0  0  0  0  0  0
   -7.2410   17.9850  -32.8240 C   0  0  0  0  0  0  0  0  0  0  0  0
   -6.7190   16.7230  -33.1480 C   0  0  0  0  0  0  0  0  0  0  0  0
   -7.1712   15.8157  -32.7209 H   0  0  0  0  0  0  0  0  0  0  0  0
  1  2  1  0
  2  3  2  0
  3  4  1  0
  3  5  1  0
  5  6  1  0
  5  7  2  0
  7  8  1  0
  8  9  1  0
  8 10  2  0
 10 11  1  0
 11 12  2  0
 11 13  1  0
 13 14  2  0
 14 15  1  0
 15 16  1  0
 15 17  2  0
 17 18  1  0
 18 19  1  0
 18 20  1  0
 20 21  1  0
 20 22  1  0
 20 23  1  0
 23 24  1  0
 23 25  1  0
 17 26  1  0
 26 27  1  0
 27 28  1  0
 10 29  1  0
 29 30  1  0
 29 31  2  0
 31 32  1  0
 31 33  1  0
 33 34  2  0
 34 35  1  0
 34  2  1  0
 33  7  1  0
 27 14  1  0
 23 18  1  0
M  END
>  <UniqueID>  (9) 
9

>  <SMILES>  (9) 
O=C(/N=c1/cc(C2CC2)o[nH]1)c1ccc2ccccc2c1

>  <Energy>  (9) 
346.86718021070817

>  <Genealogy>  (9) 
O=C(/N=c1/cc(C2CC2)o[nH]1)c1ccc2ccccc2c1 (cis-trans isomerization)
O=C(/N=c1/cc(C2CC2)o[nH]1)c1ccc2ccccc2c1 (3D coordinates assigned)
O=C(/N=c1/cc(C2CC2)o[nH]1)c1ccc2ccccc2c1 (nonaromatic ring conformer: 346.86718021070817 kcal/mol)

>  <smiles>  (9) 
O=C(N=c1cc(C2CC2)o[nH]1)c1ccc2ccccc2c1

>  <score_type>  (9) 
oracle

>  <origin>  (9) 
adg

>  <m_score__min__energy>  (9) 
-9.7300000000000004

>  <m_primary>  (9) 
energy

$$$$
10:0
     RDKit          3D

 64 68  0  0  1  0  0  0  0  0999 V2000
    0.2710   22.0440  -35.2790 C   0  0  0  0  0  0  0  0  0  0  0  0
    0.7760   21.2250  -34.1020 C   0  0  2  0  0  0  0  0  0  0  0  0
    0.8720   19.8610  -34.2840 N   0  0  0  0  0  0  0  0  0  0  0  0
    1.1710   18.8890  -33.5750 C   0  0  0  0  0  0  0  0  0  0  0  0
    2.4170   18.8090  -33.0760 N   0  0  0  0  0  0  0  0  0  0  0  0
    2.7620   17.7510  -32.3300 C   0  0  0  0  0  0  0  0  0  0  0  0
    1.9020   16.7630  -32.0580 N   0  0  0  0  0  0  0  0  0  0  0  0
    0.6580   16.8510  -32.5550 C   0  0  0  0  0  0  0  0  0  0  0  0
   -0.2280   15.8750  -32.2390 C   0  0  0  0  0  0  0  0  0  0  0  0
   -1.5120   15.9860  -32.7000 C   0  0  0  0  0  0  0  0  0  0  0  0
   -1.9350   17.0340  -33.4590 C   0  0  0  0  0  0  0  0  0  0  0  0
   -3.3130   17.0880  -33.8700 C   0  0  0  0  0  0  0  0  0  0  0  0
   -4.4880   17.1170  -34.2310 C   0  0  0  0  0  0  0  0  0  0  0  0
   -5.8660   17.1730  -34.6420 C   0  0  0  0  0  0  0  0  0  0  0  0
   -6.4950   18.3940  -34.2370 N   0  0  0  0  0  0  0  0  0  0  0  0
   -6.8210   18.6530  -32.8860 C   0  0  0  0  0  0  0  0  0  0  0  0
   -6.5050   17.7150  -32.0750 O   0  0  0  0  0  0  0  0  0  0  0  0
   -7.4510   19.8200  -32.3530 C   0  0  0  0  0  0  0  0  0  0  0  0
   -8.6520   19.6440  -31.6470 C   0  0  0  0  0  0  0  0  0  0  0  0
   -9.3180   20.6800  -31.1130 N   0  0  0  0  0  0  0  0  0  0  0  0
   -8.8700   21.9370  -31.2260 C   0  0  0  0  0  0  0  0  0  0  0  0
   -7.7150   22.1250  -31.9030 N   0  0  0  0  0  0  0  0  0  0  0  0
   -7.2740   23.5190  -32.0070 C   0  0  0  0  0  0  0  0  0  0  0  0
   -6.0930   23.7970  -31.1710 C   0  0  0  0  0  0  0  0  0  0  0  0
   -5.6990   22.8340  -30.2600 C   0  0  0  0  0  0  0  0  0  0  0  0
   -4.5980   23.0160  -29.4320 C   0  0  0  0  0  0  0  0  0  0  0  0
   -3.8900   24.2070  -29.5430 C   0  0  0  0  0  0  0  0  0  0  0  0
   -4.2800   25.1360  -30.4300 N   0  0  0  0  0  0  0  0  0  0  0  0
   -5.3480   24.9460  -31.2260 C   0  0  0  0  0  0  0  0  0  0  0  0
   -7.0190   21.1110  -32.4520 C   0  0  0  0  0  0  0  0  0  0  0  0
   -5.9590   21.3780  -33.0590 O   0  0  0  0  0  0  0  0  0  0  0  0
   -1.0260   18.0580  -33.8010 C   0  0  0  0  0  0  0  0  0  0  0  0
    0.2340   17.9210  -33.3360 C   0  0  0  0  0  0  0  0  0  0  0  0
   -0.5230   21.1890  -33.2390 C   0  0  0  0  0  0  0  0  0  0  0  0
   -0.5090   21.1820  -31.8990 C   0  0  0  0  0  0  0  0  0  0  0  0
   -1.6740   21.1550  -31.1230 C   0  0  0  0  0  0  0  0  0  0  0  0
   -2.8630   21.1320  -31.7870 C   0  0  0  0  0  0  0  0  0  0  0  0
   -2.9000   21.1380  -33.1600 C   0  0  0  0  0  0  0  0  0  0  0  0
   -1.7390   21.1650  -33.8960 C   0  0  0  0  0  0  0  0  0  0  0  0
   -0.2722   22.9250  -34.9065 H   0  0  0  0  0  0  0  0  0  0  0  0
    1.1244   22.3712  -35.8911 H   0  0  0  0  0  0  0  0  0  0  0  0
   -0.4046   21.4284  -35.8911 H   0  0  0  0  0  0  0  0  0  0  0  0
    1.7443   21.6433  -33.7900 H   0  0  0  0  0  0  0  0  0  0  0  0
    3.7845   17.6929  -31.9286 H   0  0  0  0  0  0  0  0  0  0  0  0
    2.1760   15.9360  -31.4750 H   0  0  0  0  0  0  0  0  0  0  0  0
    0.0777   15.0140  -31.6265 H   0  0  0  0  0  0  0  0  0  0  0  0
   -2.2328   15.1947  -32.4464 H   0  0  0  0  0  0  0  0  0  0  0  0
   -5.9136   17.0951  -35.7382 H   0  0  0  0  0  0  0  0  0  0  0  0
   -6.3991   16.3393  -34.1616 H   0  0  0  0  0  0  0  0  0  0  0  0
   -6.7150   19.1010  -34.9570 H   0  0  0  0  0  0  0  0  0  0  0  0
   -9.0584   18.6288  -31.5282 H   0  0  0  0  0  0  0  0  0  0  0  0
   -9.4195   22.7822  -30.7858 H   0  0  0  0  0  0  0  0  0  0  0  0
   -7.0226   23.7329  -33.0563 H   0  0  0  0  0  0  0  0  0  0  0  0
   -8.0953   24.1586  -31.6516 H   0  0  0  0  0  0  0  0  0  0  0  0
   -6.2729   21.8983  -30.1889 H   0  0  0  0  0  0  0  0  0  0  0  0
   -4.2962   22.2418  -28.7113 H   0  0  0  0  0  0  0  0  0  0  0  0
   -3.0121   24.3879  -28.9054 H   0  0  0  0  0  0  0  0  0  0  0  0
   -5.6307   25.7338  -31.9398 H   0  0  0  0  0  0  0  0  0  0  0  0
   -1.3277   18.9207  -34.4131 H   0  0  0  0  0  0  0  0  0  0  0  0
    0.4633   21.1982  -31.3847 H   0  0  0  0  0  0  0  0  0  0  0  0
   -1.6309   21.1525  -30.0238 H   0  0  0  0  0  0  0  0  0  0  0  0
   -3.8038   21.1084  -31.2175 H   0  0  0  0  0  0  0  0  0  0  0  0
   -3.8707   21.1210  -33.6772 H   0  0  0  0  0  0  0  0  0  0  0  0
   -1.7773   21.1675  -34.9953 H   0  0  0  0  0  0  0  0  0  0  0  0
  1  2  1  0
  2  3  1  0
  3  4  2  0
  4  5  1  0
  5  6  2  0
  6  7  1  0
  7  8  1  0
  8  9  2  0
  9 10  1  0
 10 11  2  0
 11 12  1  0
 12 13  3  0
 13 14  1  0
 14 15  1  0
 15 16  1  0
 16 17  2  0
 16 18  1  0
 18 19  2  0
 19 20  1  0
 20 21  2  0
 21 22  1  0
 22 23  1  0
 23 24  1  0
 24 25  2  0
 25 26  1  0
 26 27  2  0
 27 28  1  0
 28 29  2  0
 22 30  1  0
 30 31  2  0
 11 32  1  0
 32 33  2  0
  2 34  1  0
 34 35  2  0
 35 36  1  0
 36 37  2  0
 37 38  1  0
 38 39  2  0
 33  4  1  0
 39 34  1  0
 33  8  1  0
 30 18  1  0
 29 24  1  0
  1 40  1  0
  1 41  1  0
  1 42  1  0
  2 43  1  1
  6 44  1  0
  7 45  1  0
  9 46  1  0
 10 47  1  0
 14 48  1  0
 14 49  1  0
 15 50  1  0
 19 51  1  0
 21 52  1  0
 23 53  1  0
 23 54  1  0
 25 55  1  0
 26 56  1  0
 27 57  1  0
 29 58  1  0
 32 59  1  0
 35 60  1  0
 36 61  1  0
 37 62  1  0
 38 63  1  0
 39 64  1  0
M  END
>  <smiles>  (10) 
CC(N=c1nc[nH]c2ccc(C#CCNC(=O)c3cncn(Cc4cccnc4)c3=O)cc12)c1ccccc1

>  <score_type>  (10) 
oracle

>  <origin>  (10) 
adg

>  <m_score__min__energy>  (10) 
-11.25

>  <m_primary>  (10) 
energy

$$$$
11:0
     RDKit          3D

 37 38  0  0  0  0  0  0  0  0999 V2000
   -7.2030   23.1310  -29.7200 C   0  0  0  0  0  0  0  0  0  0  0  0
   -6.5090   23.8600  -30.7960 N   0  0  2  0  0  0  0  0  0  0  0  0
   -6.9440   23.4150  -32.1440 C   0  0  0  0  0  0  0  0  0  0  0  0
   -7.3780   21.9620  -32.2120 C   0  0  0  0  0  0  0  0  0  0  0  0
   -6.4370   20.9510  -32.4820 C   0  0  0  0  0  0  0  0  0  0  0  0
   -6.8330   19.6120  -32.5460 C   0  0  0  0  0  0  0  0  0  0  0  0
   -8.1680   19.2660  -32.3270 C   0  0  0  0  0  0  0  0  0  0  0  0
   -9.1070   20.2580  -32.0350 C   0  0  0  0  0  0  0  0  0  0  0  0
   -8.7150   21.5990  -31.9700 C   0  0  0  0  0  0  0  0  0  0  0  0
   -4.7680   23.7820  -30.5990 S   0  0  0  0  0  0  0  0  0  0  0  0
   -4.1380   23.0790  -31.7690 O   0  0  0  0  0  0  0  0  0  0  0  0
   -4.2010   25.1700  -30.5080 O   0  0  0  0  0  0  0  0  0  0  0  0
   -4.3080   22.9520  -29.0760 C   0  0  0  0  0  0  0  0  0  0  0  0
   -3.5380   23.8480  -28.1380 C   0  0  0  0  0  0  0  0  0  0  0  0
   -4.2200   24.4570  -27.0700 C   0  0  0  0  0  0  0  0  0  0  0  0
   -3.5450   25.2970  -26.1820 C   0  0  0  0  0  0  0  0  0  0  0  0
   -2.1790   25.5370  -26.3450 C   0  0  0  0  0  0  0  0  0  0  0  0
   -1.3350   26.5950  -25.2300 Cl  0  0  0  0  0  0  0  0  0  0  0  0
   -1.4870   24.9350  -27.3990 C   0  0  0  0  0  0  0  0  0  0  0  0
   -2.1530   24.0920  -28.2970 C   0  0  0  0  0  0  0  0  0  0  0  0
   -1.2200   23.3930  -29.6180 Cl  0  0  0  0  0  0  0  0  0  0  0  0
   -6.8535   23.4981  -28.7438 H   0  0  0  0  0  0  0  0  0  0  0  0
   -8.2873   23.2946  -29.8065 H   0  0  0  0  0  0  0  0  0  0  0  0
   -6.9863   22.0560  -29.8065 H   0  0  0  0  0  0  0  0  0  0  0  0
   -6.7740   24.8700  -30.7080 H   0  0  0  0  0  0  0  0  0  0  0  0
   -7.7913   24.0427  -32.4573 H   0  0  0  0  0  0  0  0  0  0  0  0
   -6.0709   23.5144  -32.8056 H   0  0  0  0  0  0  0  0  0  0  0  0
   -5.3819   21.2165  -32.6439 H   0  0  0  0  0  0  0  0  0  0  0  0
   -6.0922   18.8300  -32.7691 H   0  0  0  0  0  0  0  0  0  0  0  0
   -8.4800   18.2127  -32.3844 H   0  0  0  0  0  0  0  0  0  0  0  0
  -10.1571   19.9839  -31.8558 H   0  0  0  0  0  0  0  0  0  0  0  0
   -9.4568   22.3744  -31.7282 H   0  0  0  0  0  0  0  0  0  0  0  0
   -5.2235   22.6139  -28.5684 H   0  0  0  0  0  0  0  0  0  0  0  0
   -3.6557   22.1067  -29.3406 H   0  0  0  0  0  0  0  0  0  0  0  0
   -5.2953   24.2700  -26.9327 H   0  0  0  0  0  0  0  0  0  0  0  0
   -4.0904   25.7706  -25.3524 H   0  0  0  0  0  0  0  0  0  0  0  0
   -0.4108   25.1248  -27.5243 H   0  0  0  0  0  0  0  0  0  0  0  0
  1  2  1  0
  2  3  1  0
  3  4  1  0
  4  5  2  0
  5  6  1  0
  6  7  2  0
  7  8  1  0
  8  9  2  0
  2 10  1  0
 10 11  2  0
 10 12  2  0
 10 13  1  0
 13 14  1  0
 14 15  2  0
 15 16  1  0
 16 17  2  0
 17 18  1  0
 17 19  1  0
 19 20  2  0
 20 21  1  0
  9  4  1  0
 20 14  1  0
  1 22  1  0
  1 23  1  0
  1 24  1  0
  2 25  1  1
  3 26  1  0
  3 27  1  0
  5 28  1  0
  6 29  1  0
  7 30  1  0
  8 31  1  0
  9 32  1  0
 13 33  1  0
 13 34  1  0
 15 35  1  0
 16 36  1  0
 19 37  1  0
M  CHG  1   2   1
M  END
>  <UniqueID>  (11) 
10

>  <SMILES>  (11) 
C[N@H+](Cc1ccccc1)S(=O)(=O)Cc1ccc(Cl)cc1Cl

>  <Energy>  (11) 
36.31342148880092

>  <Genealogy>  (11) 
C[NH+](Cc1ccccc1)S(=O)(=O)Cc1ccc(Cl)cc1Cl (protonated)
C[N@H+](Cc1ccccc1)S(=O)(=O)Cc1ccc(Cl)cc1Cl (chirality)
C[N@H+](Cc1ccccc1)S(=O)(=O)Cc1ccc(Cl)cc1Cl (3D coordinates assigned)
C[N@H+](Cc1ccccc1)S(=O)(=O)Cc1ccc(Cl)cc1Cl (optimized conformer: 36.31342148880092 kcal/mol)

>  <smiles>  (11) 
CN(Cc1ccccc1)S(=O)(=O)Cc1ccc(Cl)cc1Cl

>  <score_type>  (11) 
oracle

>  <origin>  (11) 
adg

>  <m_score__min__energy>  (11) 
-8.0099999999999998

>  <m_primary>  (11) 
energy

$$$$
12:0
     RDKit          3D

 28 30  0  0  0  0  0  0  0  0999 V2000
   -8.2265   24.4840  -30.4626 H   0  0  0  0  0  0  0  0  0  0  0  0
   -7.2450   24.1030  -30.7810 C   0  0  0  0  0  0  0  0  0  0  0  0
   -7.1670   22.9750  -31.5360 N   0  0  0  0  0  0  0  0  0  0  0  0
   -5.9720   22.4720  -31.9430 C   0  0  0  0  0  0  0  0  0  0  0  0
   -5.9405   21.5548  -32.5494 H   0  0  0  0  0  0  0  0  0  0  0  0
   -4.7840   23.1170  -31.5930 C   0  0  0  0  0  0  0  0  0  0  0  0
   -3.8153   22.7000  -31.9055 H   0  0  0  0  0  0  0  0  0  0  0  0
   -4.8330   24.2960  -30.8430 C   0  0  0  0  0  0  0  0  0  0  0  0
   -3.6020   24.9250  -30.4530 N   0  0  0  0  0  0  0  0  0  0  0  0
   -2.6800   24.4170  -29.6890 C   0  0  0  0  0  0  0  0  0  0  0  0
   -2.4000   24.9250  -28.4710 N   0  0  0  0  0  0  0  0  0  0  0  0
   -1.4370   24.2110  -27.8210 C   0  0  0  0  0  0  0  0  0  0  0  0
   -0.9670   24.6050  -26.4660 C   0  0  0  0  0  0  0  0  0  0  0  0
   -0.0950   23.7630  -25.7540 C   0  0  0  0  0  0  0  0  0  0  0  0
    0.2382   22.8135  -26.1983 H   0  0  0  0  0  0  0  0  0  0  0  0
    0.3480   24.1330  -24.4820 C   0  0  0  0  0  0  0  0  0  0  0  0
    1.0283   23.4723  -23.9246 H   0  0  0  0  0  0  0  0  0  0  0  0
   -0.0590   25.3070  -23.9310 N   0  0  0  0  0  0  0  0  0  0  0  0
    0.2810   25.5700  -22.9780 H   0  0  0  0  0  0  0  0  0  0  0  0
   -0.8980   26.1470  -24.5930 C   0  0  0  0  0  0  0  0  0  0  0  0
   -1.2098   27.0916  -24.1235 H   0  0  0  0  0  0  0  0  0  0  0  0
   -1.3660   25.8160  -25.8670 C   0  0  0  0  0  0  0  0  0  0  0  0
   -2.0437   26.4986  -26.4006 H   0  0  0  0  0  0  0  0  0  0  0  0
   -0.9510   23.1120  -28.5380 C   0  0  0  0  0  0  0  0  0  0  0  0
   -0.1739   22.4125  -28.1964 H   0  0  0  0  0  0  0  0  0  0  0  0
   -1.7590   23.0440  -30.0120 S   0  0  0  0  0  0  0  0  0  0  0  0
   -6.0800   24.7790  -30.4090 C   0  0  0  0  0  0  0  0  0  0  0  0
   -6.1380   25.6811  -29.7822 H   0  0  0  0  0  0  0  0  0  0  0  0
  1  2  1  0
  2  3  2  0
  3  4  1  0
  4  5  1  0
  4  6  2  0
  6  7  1  0
  6  8  1  0
  8  9  1  0
  9 10  2  0
 10 11  1  0
 11 12  1  0
 12 13  1  0
 13 14  2  0
 14 15  1  0
 14 16  1  0
 16 17  1  0
 16 18  2  0
 18 19  1  0
 18 20  1  0
 20 21  1  0
 20 22  2  0
 22 23  1  0
 12 24  2  0
 24 25  1  0
 24 26  1  0
  8 27  2  0
 27 28  1  0
 27  2  1  0
 26 10  1  0
 22 13  1  0
M  CHG  2  11  -1  18   1
M  END
>  <UniqueID>  (12) 
11

>  <SMILES>  (12) 
c1cc(/N=c2/[n-]c(-c3cc[nH+]cc3)cs2)ccn1

>  <Energy>  (12) 
71.33530618722831

>  <Genealogy>  (12) 
c1cc(N=c2[n-]c(-c3cc[nH+]cc3)cs2)ccn1 (protonated)
c1cc(/N=c2/[n-]c(-c3cc[nH+]cc3)cs2)ccn1 (cis-trans isomerization)
c1cc(/N=c2/[n-]c(-c3cc[nH+]cc3)cs2)ccn1 (3D coordinates assigned)
c1cc(/N=c2/[n-]c(-c3cc[nH+]cc3)cs2)ccn1 (optimized conformer: 71.33530618722831 kcal/mol)

>  <smiles>  (12) 
c1cc(N=c2[nH]c(-c3ccncc3)cs2)ccn1

>  <score_type>  (12) 
oracle

>  <origin>  (12) 
adg

>  <m_score__min__energy>  (12) 
-7.9500000000000002

>  <m_primary>  (12) 
energy

$$$$
13:0
     RDKit          3D

 48 51  0  0  0  0  0  0  0  0999 V2000
   -2.7620   15.0060  -35.5350 C   0  0  0  0  0  0  0  0  0  0  0  0
   -3.3150   16.2120  -34.8360 C   0  0  0  0  0  0  0  0  0  0  0  0
   -2.5550   17.3830  -34.7220 C   0  0  0  0  0  0  0  0  0  0  0  0
   -3.0690   18.4940  -34.0490 C   0  0  0  0  0  0  0  0  0  0  0  0
   -4.3520   18.4510  -33.4770 C   0  0  0  0  0  0  0  0  0  0  0  0
   -4.8690   19.5820  -32.7570 N   0  0  0  0  0  0  0  0  0  0  0  0
   -6.0300   20.3230  -33.1740 C   0  0  0  0  0  0  0  0  0  0  0  0
   -6.6410   19.9940  -34.2280 O   0  0  0  0  0  0  0  0  0  0  0  0
   -6.5290   21.4720  -32.3830 C   0  0  0  0  0  0  0  0  0  0  0  0
   -7.9090   21.7320  -32.3210 C   0  0  0  0  0  0  0  0  0  0  0  0
   -8.3920   22.8190  -31.5880 C   0  0  0  0  0  0  0  0  0  0  0  0
   -7.5060   23.6500  -30.8980 C   0  0  0  0  0  0  0  0  0  0  0  0
   -6.1310   23.3890  -30.9280 C   0  0  0  0  0  0  0  0  0  0  0  0
   -5.0030   24.4360  -30.0720 S   0  0  0  0  0  0  0  0  0  0  0  0
   -4.2870   25.3200  -31.0540 O   0  0  0  0  0  0  0  0  0  0  0  0
   -5.7660   25.2960  -29.1020 O   0  0  0  0  0  0  0  0  0  0  0  0
   -3.8460   23.4730  -29.2120 N   0  0  0  0  0  0  0  0  0  0  0  0
   -3.7220   23.4160  -27.7580 C   0  0  0  0  0  0  0  0  0  0  0  0
   -2.5630   22.4300  -27.4710 C   0  0  0  0  0  0  0  0  0  0  0  0
   -2.1090   22.0250  -28.8330 C   0  0  0  0  0  0  0  0  0  0  0  0
   -1.0740   21.1520  -29.1720 C   0  0  0  0  0  0  0  0  0  0  0  0
   -0.8200   20.9110  -30.5330 C   0  0  0  0  0  0  0  0  0  0  0  0
   -1.6000   21.5420  -31.5210 C   0  0  0  0  0  0  0  0  0  0  0  0
   -2.6350   22.4170  -31.1550 C   0  0  0  0  0  0  0  0  0  0  0  0
   -2.8640   22.6370  -29.7930 C   0  0  0  0  0  0  0  0  0  0  0  0
   -5.6460   22.3020  -31.6680 C   0  0  0  0  0  0  0  0  0  0  0  0
   -5.1020   17.2620  -33.5630 C   0  0  0  0  0  0  0  0  0  0  0  0
   -6.8540   17.1300  -32.7980 Br  0  0  0  0  0  0  0  0  0  0  0  0
   -4.5830   16.1530  -34.2420 C   0  0  0  0  0  0  0  0  0  0  0  0
   -2.4253   14.2717  -34.7884 H   0  0  0  0  0  0  0  0  0  0  0  0
   -3.5439   14.5565  -36.1647 H   0  0  0  0  0  0  0  0  0  0  0  0
   -1.9111   15.3052  -36.1647 H   0  0  0  0  0  0  0  0  0  0  0  0
   -1.5489   17.4280  -35.1644 H   0  0  0  0  0  0  0  0  0  0  0  0
   -2.4649   19.4095  -33.9661 H   0  0  0  0  0  0  0  0  0  0  0  0
   -4.3800   19.8550  -31.8770 H   0  0  0  0  0  0  0  0  0  0  0  0
   -8.6132   21.0754  -32.8530 H   0  0  0  0  0  0  0  0  0  0  0  0
   -9.4728   23.0210  -31.5541 H   0  0  0  0  0  0  0  0  0  0  0  0
   -7.8894   24.5107  -30.3303 H   0  0  0  0  0  0  0  0  0  0  0  0
   -3.4864   24.4118  -27.3545 H   0  0  0  0  0  0  0  0  0  0  0  0
   -4.6591   23.0877  -27.2846 H   0  0  0  0  0  0  0  0  0  0  0  0
   -1.7523   22.9259  -26.9170 H   0  0  0  0  0  0  0  0  0  0  0  0
   -2.8694   21.5762  -26.8487 H   0  0  0  0  0  0  0  0  0  0  0  0
   -0.4712   20.6640  -28.3920 H   0  0  0  0  0  0  0  0  0  0  0  0
   -0.0098   20.2277  -30.8272 H   0  0  0  0  0  0  0  0  0  0  0  0
   -1.3974   21.3484  -32.5847 H   0  0  0  0  0  0  0  0  0  0  0  0
   -3.2493   22.9161  -31.9189 H   0  0  0  0  0  0  0  0  0  0  0  0
   -4.5657   22.0960  -31.6900 H   0  0  0  0  0  0  0  0  0  0  0  0
   -5.1750   15.2284  -34.3098 H   0  0  0  0  0  0  0  0  0  0  0  0
  1  2  1  0
  2  3  2  0
  3  4  1  0
  4  5  2  0
  5  6  1  0
  6  7  1  0
  7  8  2  0
  7  9  1  0
  9 10  2  0
 10 11  1  0
 11 12  2  0
 12 13  1  0
 13 14  1  0
 14 15  2  0
 14 16  2  0
 14 17  1  0
 17 18  1  0
 18 19  1  0
 19 20  1  0
 20 21  2  0
 21 22  1  0
 22 23  2  0
 23 24  1  0
 24 25  2  0
 13 26  2  0
  5 27  1  0
 27 28  1  0
 27 29  2  0
 29  2  1  0
 26  9  1  0
 25 17  1  0
 25 20  1  0
  1 30  1  0
  1 31  1  0
  1 32  1  0
  3 33  1  0
  4 34  1  0
  6 35  1  0
 10 36  1  0
 11 37  1  0
 12 38  1  0
 18 39  1  0
 18 40  1  0
 19 41  1  0
 19 42  1  0
 21 43  1  0
 22 44  1  0
 23 45  1  0
 24 46  1  0
 26 47  1  0
 29 48  1  0
M  END
>  <UniqueID>  (13) 
12

>  <SMILES>  (13) 
Cc1ccc(NC(=O)c2cccc(S(=O)(=O)N3CCc4ccccc43)c2)c(Br)c1

>  <Energy>  (13) 
74.78351507015122

>  <Genealogy>  (13) 
Cc1ccc(NC(=O)c2cccc(S(=O)(=O)N3CCc4ccccc43)c2)c(Br)c1 (3D coordinates assigned)
Cc1ccc(NC(=O)c2cccc(S(=O)(=O)N3CCc4ccccc43)c2)c(Br)c1 (nonaromatic ring conformer: 74.78351507015122 kcal/mol)

>  <smiles>  (13) 
Cc1ccc(NC(=O)c2cccc(S(=O)(=O)N3CCc4ccccc43)c2)c(Br)c1

>  <score_type>  (13) 
oracle

>  <origin>  (13) 
adg

>  <m_score__min__energy>  (13) 
-10.16

>  <m_primary>  (13) 
energy

$$$$
14:0
     RDKit          3D

 53 56  0  0  0  0  0  0  0  0999 V2000
   -2.4370   24.5110  -28.9800 C   0  0  0  0  0  0  0  0  0  0  0  0
   -3.1760   24.9180  -30.1270 O   0  0  0  0  0  0  0  0  0  0  0  0
   -4.5400   24.6510  -30.3400 C   0  0  0  0  0  0  0  0  0  0  0  0
   -5.5400   25.5090  -29.8400 C   0  0  0  0  0  0  0  0  0  0  0  0
   -6.8890   25.2210  -30.0480 C   0  0  0  0  0  0  0  0  0  0  0  0
   -7.2590   24.0810  -30.7560 C   0  0  0  0  0  0  0  0  0  0  0  0
   -6.2820   23.2210  -31.2600 C   0  0  0  0  0  0  0  0  0  0  0  0
   -4.9150   23.4920  -31.0590 C   0  0  0  0  0  0  0  0  0  0  0  0
   -3.8860   22.5720  -31.6060 C   0  0  0  0  0  0  0  0  0  0  0  0
   -4.0650   21.7660  -32.6750 N   0  0  0  0  0  0  0  0  0  0  0  0
   -2.8970   21.1110  -32.8050 C   0  0  0  0  0  0  0  0  0  0  0  0
   -2.6060   20.0660  -33.8520 C   0  0  0  0  0  0  0  0  0  0  0  0
   -3.0670   18.7100  -33.4780 N   0  0  0  0  0  0  0  0  0  0  0  0
   -4.2030   18.7250  -32.5280 C   0  0  0  0  0  0  0  0  0  0  0  0
   -4.8620   17.3420  -32.4400 C   0  0  0  0  0  0  0  0  0  0  0  0
   -5.3910   16.8810  -33.7510 N   0  0  0  0  0  0  0  0  0  0  0  0
   -6.8560   17.0420  -33.8490 C   0  0  0  0  0  0  0  0  0  0  0  0
   -7.3060   18.2540  -33.0760 C   0  0  0  0  0  0  0  0  0  0  0  0
   -6.9290   19.5450  -33.4840 C   0  0  0  0  0  0  0  0  0  0  0  0
   -7.3460   20.6630  -32.7540 C   0  0  0  0  0  0  0  0  0  0  0  0
   -8.1400   20.5010  -31.6160 C   0  0  0  0  0  0  0  0  0  0  0  0
   -8.5200   19.2200  -31.2050 C   0  0  0  0  0  0  0  0  0  0  0  0
   -8.1050   18.0990  -31.9310 C   0  0  0  0  0  0  0  0  0  0  0  0
   -4.7220   17.5090  -34.9150 C   0  0  0  0  0  0  0  0  0  0  0  0
   -3.2410   17.7910  -34.6270 C   0  0  0  0  0  0  0  0  0  0  0  0
   -2.0390   21.5450  -31.8180 C   0  0  0  0  0  0  0  0  0  0  0  0
   -2.6790   22.4380  -31.0990 O   0  0  0  0  0  0  0  0  0  0  0  0
   -2.9785   24.8092  -28.0701 H   0  0  0  0  0  0  0  0  0  0  0  0
   -2.3141   23.4180  -28.9919 H   0  0  0  0  0  0  0  0  0  0  0  0
   -1.4475   24.9914  -28.9919 H   0  0  0  0  0  0  0  0  0  0  0  0
   -5.2546   26.4127  -29.2815 H   0  0  0  0  0  0  0  0  0  0  0  0
   -7.6619   25.8961  -29.6518 H   0  0  0  0  0  0  0  0  0  0  0  0
   -8.3237   23.8574  -30.9186 H   0  0  0  0  0  0  0  0  0  0  0  0
   -6.5828   22.3230  -31.8195 H   0  0  0  0  0  0  0  0  0  0  0  0
   -4.9170   21.6560  -33.2670 H   0  0  0  0  0  0  0  0  0  0  0  0
   -3.1085   20.3593  -34.7855 H   0  0  0  0  0  0  0  0  0  0  0  0
   -1.5128   20.0163  -33.9640 H   0  0  0  0  0  0  0  0  0  0  0  0
   -3.8356   19.0129  -31.5319 H   0  0  0  0  0  0  0  0  0  0  0  0
   -4.9506   19.4482  -32.8858 H   0  0  0  0  0  0  0  0  0  0  0  0
   -4.1147   16.6166  -32.0859 H   0  0  0  0  0  0  0  0  0  0  0  0
   -5.7107   17.4189  -31.7445 H   0  0  0  0  0  0  0  0  0  0  0  0
   -7.1372   17.1615  -34.9057 H   0  0  0  0  0  0  0  0  0  0  0  0
   -7.3412   16.1499  -33.4263 H   0  0  0  0  0  0  0  0  0  0  0  0
   -6.3043   19.6766  -34.3798 H   0  0  0  0  0  0  0  0  0  0  0  0
   -7.0482   21.6716  -33.0766 H   0  0  0  0  0  0  0  0  0  0  0  0
   -8.4662   21.3816  -31.0432 H   0  0  0  0  0  0  0  0  0  0  0  0
   -9.1462   19.0936  -30.3095 H   0  0  0  0  0  0  0  0  0  0  0  0
   -8.4053   17.0925  -31.6043 H   0  0  0  0  0  0  0  0  0  0  0  0
   -4.7957   16.8313  -35.7783 H   0  0  0  0  0  0  0  0  0  0  0  0
   -5.2214   18.4663  -35.1254 H   0  0  0  0  0  0  0  0  0  0  0  0
   -2.7352   16.8405  -34.4019 H   0  0  0  0  0  0  0  0  0  0  0  0
   -2.8061   18.2707  -35.5162 H   0  0  0  0  0  0  0  0  0  0  0  0
   -1.0048   21.2048  -31.6608 H   0  0  0  0  0  0  0  0  0  0  0  0
  1  2  1  0
  2  3  1  0
  3  4  2  0
  4  5  1  0
  5  6  2  0
  6  7  1  0
  7  8  2  0
  8  9  1  0
  9 10  2  0
 10 11  1  0
 11 12  1  0
 12 13  1  0
 13 14  1  0
 14 15  1  0
 15 16  1  0
 16 17  1  0
 17 18  1  0
 18 19  2  0
 19 20  1  0
 20 21  2  0
 21 22  1  0
 22 23  2  0
 16 24  1  0
 24 25  1  0
 11 26  2  0
 26 27  1  0
  8  3  1  0
 27  9  1  0
 25 13  1  0
 23 18  1  0
  1 28  1  0
  1 29  1  0
  1 30  1  0
  4 31  1  0
  5 32  1  0
  6 33  1  0
  7 34  1  0
 10 35  1  0
 12 36  1  0
 12 37  1  0
 14 38  1  0
 14 39  1  0
 15 40  1  0
 15 41  1  0
 17 42  1  0
 17 43  1  0
 19 44  1  0
 20 45  1  0
 21 46  1  0
 22 47  1  0
 23 48  1  0
 24 49  1  0
 24 50  1  0
 25 51  1  0
 25 52  1  0
 26 53  1  0
M  CHG  1  10   1
M  END
>  <UniqueID>  (14) 
13

>  <SMILES>  (14) 
COc1ccccc1-c1[nH+]c(CN2CCN(Cc3ccccc3)CC2)co1

>  <Energy>  (14) 
102.42533425224988

>  <Genealogy>  (14) 
COc1ccccc1-c1[nH+]c(CN2CCN(Cc3ccccc3)CC2)co1 (protonated)
COc1ccccc1-c1[nH+]c(CN2CCN(Cc3ccccc3)CC2)co1 (3D coordinates assigned)
COc1ccccc1-c1[nH+]c(CN2CCN(Cc3ccccc3)CC2)co1 (nonaromatic ring conformer: 102.42533425224988 kcal/mol)

>  <smiles>  (14) 
COc1ccccc1-c1nc(CN2CCN(Cc3ccccc3)CC2)co1

>  <score_type>  (14) 
oracle

>  <origin>  (14) 
adg

>  <m_score__min__energy>  (14) 
-8.7899999999999991

>  <m_primary>  (14) 
energy

$$$$
15:0
     RDKit          3D

 46 48  0  0  0  0  0  0  0  0999 V2000
   -7.5060   12.9640  -35.0790 C   0  0  0  0  0  0  0  0  0  0  0  0
   -6.2820   13.5060  -34.5960 O   0  0  0  0  0  0  0  0  0  0  0  0
   -6.1460   14.8440  -34.2160 C   0  0  0  0  0  0  0  0  0  0  0  0
   -4.8830   15.4400  -34.2420 C   0  0  0  0  0  0  0  0  0  0  0  0
   -4.7450   16.7750  -33.8640 C   0  0  0  0  0  0  0  0  0  0  0  0
   -5.8680   17.5170  -33.4610 C   0  0  0  0  0  0  0  0  0  0  0  0
   -5.7370   18.9400  -33.0550 C   0  0  0  0  0  0  0  0  0  0  0  0
   -4.6240   19.6990  -33.4600 C   0  0  0  0  0  0  0  0  0  0  0  0
   -4.5020   21.0390  -33.0800 C   0  0  0  0  0  0  0  0  0  0  0  0
   -5.4910   21.6450  -32.2900 C   0  0  0  0  0  0  0  0  0  0  0  0
   -5.3820   23.0950  -31.9040 C   0  0  0  0  0  0  0  0  0  0  0  0
   -4.6160   23.2320  -30.6660 N   0  0  0  0  0  0  0  0  0  0  0  0
   -5.0990   23.8240  -29.5840 N   0  0  0  0  0  0  0  0  0  0  0  0
   -4.1150   23.8720  -28.6670 C   0  0  0  0  0  0  0  0  0  0  0  0
   -4.2610   24.5250  -27.3310 C   0  0  0  0  0  0  0  0  0  0  0  0
   -2.9620   23.3030  -29.1860 C   0  0  0  0  0  0  0  0  0  0  0  0
   -1.5970   23.2830  -28.5590 C   0  0  0  0  0  0  0  0  0  0  0  0
   -0.9270   24.6070  -28.7360 C   0  0  0  0  0  0  0  0  0  0  0  0
    0.2450   24.7850  -28.3130 O   0  0  0  0  0  0  0  0  0  0  0  0
   -1.6130   25.6600  -29.3270 O   0  0  0  0  0  0  0  0  0  0  0  0
   -3.3180   22.9040  -30.4650 C   0  0  0  0  0  0  0  0  0  0  0  0
   -2.3950   22.3600  -31.5160 C   0  0  0  0  0  0  0  0  0  0  0  0
   -6.6010   20.8920  -31.8840 C   0  0  0  0  0  0  0  0  0  0  0  0
   -6.7240   19.5510  -32.2610 C   0  0  0  0  0  0  0  0  0  0  0  0
   -7.1190   16.8760  -33.4500 C   0  0  0  0  0  0  0  0  0  0  0  0
   -7.2270   15.5720  -33.8220 N   0  0  0  0  0  0  0  0  0  0  0  0
   -8.1432   12.6818  -34.2279 H   0  0  0  0  0  0  0  0  0  0  0  0
   -8.0241   13.7168  -35.6912 H   0  0  0  0  0  0  0  0  0  0  0  0
   -7.2968   12.0744  -35.6912 H   0  0  0  0  0  0  0  0  0  0  0  0
   -4.0034   14.8602  -34.5585 H   0  0  0  0  0  0  0  0  0  0  0  0
   -3.7527   17.2493  -33.8814 H   0  0  0  0  0  0  0  0  0  0  0  0
   -3.8435   19.2346  -34.0806 H   0  0  0  0  0  0  0  0  0  0  0  0
   -3.6261   21.6214  -33.4020 H   0  0  0  0  0  0  0  0  0  0  0  0
   -4.8746   23.6479  -32.7083 H   0  0  0  0  0  0  0  0  0  0  0  0
   -6.3921   23.5017  -31.7479 H   0  0  0  0  0  0  0  0  0  0  0  0
   -4.0945   23.7803  -26.5387 H   0  0  0  0  0  0  0  0  0  0  0  0
   -3.5215   25.3337  -27.2354 H   0  0  0  0  0  0  0  0  0  0  0  0
   -5.2745   24.9417  -27.2354 H   0  0  0  0  0  0  0  0  0  0  0  0
   -1.6939   23.0657  -27.4850 H   0  0  0  0  0  0  0  0  0  0  0  0
   -0.9899   22.5061  -29.0467 H   0  0  0  0  0  0  0  0  0  0  0  0
   -1.5438   21.8583  -31.0324 H   0  0  0  0  0  0  0  0  0  0  0  0
   -2.9384   21.6377  -32.1429 H   0  0  0  0  0  0  0  0  0  0  0  0
   -2.0263   23.1852  -32.1429 H   0  0  0  0  0  0  0  0  0  0  0  0
   -7.3809   21.3590  -31.2645 H   0  0  0  0  0  0  0  0  0  0  0  0
   -7.5990   18.9699  -31.9342 H   0  0  0  0  0  0  0  0  0  0  0  0
   -8.0157   17.4320  -33.1388 H   0  0  0  0  0  0  0  0  0  0  0  0
  1  2  1  0
  2  3  1  0
  3  4  2  0
  4  5  1  0
  5  6  2  0
  6  7  1  0
  7  8  2  0
  8  9  1  0
  9 10  2  0
 10 11  1  0
 11 12  1  0
 12 13  1  0
 13 14  2  0
 14 15  1  0
 14 16  1  0
 16 17  1  0
 17 18  1  0
 18 19  2  0
 18 20  1  0
 16 21  2  0
 21 22  1  0
 10 23  1  0
 23 24  2  0
  6 25  1  0
 25 26  2  0
 26  3  1  0
 24  7  1  0
 21 12  1  0
  1 27  1  0
  1 28  1  0
  1 29  1  0
  4 30  1  0
  5 31  1  0
  8 32  1  0
  9 33  1  0
 11 34  1  0
 11 35  1  0
 15 36  1  0
 15 37  1  0
 15 38  1  0
 17 39  1  0
 17 40  1  0
 22 41  1  0
 22 42  1  0
 22 43  1  0
 23 44  1  0
 24 45  1  0
 25 46  1  0
M  CHG  1  20  -1
M  END
>  <UniqueID>  (15) 
14

>  <SMILES>  (15) 
COc1ccc(-c2ccc(Cn3nc(C)c(CC(=O)[O-])c3C)cc2)cn1

>  <Energy>  (15) 
76.2461841448854

>  <Genealogy>  (15) 
COc1ccc(-c2ccc(Cn3nc(C)c(CC(=O)[O-])c3C)cc2)cn1 (protonated)
COc1ccc(-c2ccc(Cn3nc(C)c(CC(=O)[O-])c3C)cc2)cn1 (3D coordinates assigned)
COc1ccc(-c2ccc(Cn3nc(C)c(CC(=O)[O-])c3C)cc2)cn1 (optimized conformer: 76.2461841448854 kcal/mol)

>  <smiles>  (15) 
COc1ccc(-c2ccc(Cn3nc(C)c(CC(=O)O)c3C)cc2)cn1

>  <score_type>  (15) 
oracle

>  <origin>  (15) 
adg

>  <m_score__min__energy>  (15) 
-10.59

>  <m_primary>  (15) 
energy

$$$$
16:0
     RDKit          3D

 33 35  0  0  0  0  0  0  0  0999 V2000
   -5.7323   21.6552  -33.1989 H   0  0  0  0  0  0  0  0  0  0  0  0
   -6.0920   22.2040  -32.3160 C   0  0  0  0  0  0  0  0  0  0  0  0
   -7.1200   21.7040  -31.5790 N   0  0  0  0  0  0  0  0  0  0  0  0
   -7.5900   22.3530  -30.4800 C   0  0  0  0  0  0  0  0  0  0  0  0
   -8.4215   21.9233  -29.9021 H   0  0  0  0  0  0  0  0  0  0  0  0
   -7.0180   23.5650  -30.0840 C   0  0  0  0  0  0  0  0  0  0  0  0
   -7.3956   24.0912  -29.1949 H   0  0  0  0  0  0  0  0  0  0  0  0
   -5.9590   24.1060  -30.8280 C   0  0  0  0  0  0  0  0  0  0  0  0
   -5.3190   25.4000  -30.4010 C   0  0  0  0  0  0  0  0  0  0  0  0
   -5.6180   25.6276  -29.3672 H   0  0  0  0  0  0  0  0  0  0  0  0
   -5.6515   26.2010  -31.0777 H   0  0  0  0  0  0  0  0  0  0  0  0
   -3.8620   25.2990  -30.4690 N   0  0  0  0  0  0  0  0  0  0  0  0
   -3.1310   24.5540  -29.6950 C   0  0  0  0  0  0  0  0  0  0  0  0
   -2.6880   25.0550  -28.5130 N   0  0  0  0  0  0  0  0  0  0  0  0
   -1.9170   24.3180  -27.6650 C   0  0  0  0  0  0  0  0  0  0  0  0
   -1.4690   24.9180  -26.3810 C   0  0  0  0  0  0  0  0  0  0  0  0
   -1.7690   26.2590  -26.0880 C   0  0  0  0  0  0  0  0  0  0  0  0
   -2.3410   26.8621  -26.8085 H   0  0  0  0  0  0  0  0  0  0  0  0
   -1.3450   26.8290  -24.8880 C   0  0  0  0  0  0  0  0  0  0  0  0
   -1.5856   27.8769  -24.6557 H   0  0  0  0  0  0  0  0  0  0  0  0
   -0.6130   26.0580  -23.9850 C   0  0  0  0  0  0  0  0  0  0  0  0
   -0.2772   26.4973  -23.0341 H   0  0  0  0  0  0  0  0  0  0  0  0
   -0.3140   24.7650  -24.2780 N   0  0  0  0  0  0  0  0  0  0  0  0
    0.2440   24.2030  -23.5960 H   0  0  0  0  0  0  0  0  0  0  0  0
   -0.7170   24.1850  -25.4430 C   0  0  0  0  0  0  0  0  0  0  0  0
   -0.4533   23.1377  -25.6521 H   0  0  0  0  0  0  0  0  0  0  0  0
   -1.5840   23.0010  -28.0230 C   0  0  0  0  0  0  0  0  0  0  0  0
   -0.9728   22.3757  -27.3556 H   0  0  0  0  0  0  0  0  0  0  0  0
   -2.0440   22.5020  -29.2420 C   0  0  0  0  0  0  0  0  0  0  0  0
   -1.7913   21.4755  -29.5461 H   0  0  0  0  0  0  0  0  0  0  0  0
   -2.8020   23.2810  -30.0520 N   0  0  0  0  0  0  0  0  0  0  0  0
   -5.4920   23.4120  -31.9550 C   0  0  0  0  0  0  0  0  0  0  0  0
   -4.6596   23.8167  -32.5494 H   0  0  0  0  0  0  0  0  0  0  0  0
  1  2  1  0
  2  3  2  0
  3  4  1  0
  4  5  1  0
  4  6  2  0
  6  7  1  0
  6  8  1  0
  8  9  1  0
  9 10  1  0
  9 11  1  0
  9 12  1  0
 12 13  2  0
 13 14  1  0
 14 15  2  0
 15 16  1  0
 16 17  2  0
 17 18  1  0
 17 19  1  0
 19 20  1  0
 19 21  2  0
 21 22  1  0
 21 23  1  0
 23 24  1  0
 23 25  2  0
 25 26  1  0
 15 27  1  0
 27 28  1  0
 27 29  2  0
 29 30  1  0
 29 31  1  0
  8 32  2  0
 32 33  1  0
 32  2  1  0
 31 13  1  0
 25 16  1  0
M  CHG  2  23   1  31  -1
M  END
>  <UniqueID>  (16) 
15

>  <SMILES>  (16) 
c1c[nH+]cc(-c2cc[n-]/c(=N\Cc3ccncc3)n2)c1

>  <Energy>  (16) 
40.65128323678407

>  <Genealogy>  (16) 
c1c[nH+]cc(-c2cc[n-]c(=NCc3ccncc3)n2)c1 (protonated)
c1c[nH+]cc(-c2cc[n-]/c(=N\Cc3ccncc3)n2)c1 (cis-trans isomerization)
c1c[nH+]cc(-c2cc[n-]/c(=N\Cc3ccncc3)n2)c1 (3D coordinates assigned)
c1c[nH+]cc(-c2cc[n-]/c(=N\Cc3ccncc3)n2)c1 (optimized conformer: 40.65128323678407 kcal/mol)

>  <smiles>  (16) 
c1cncc(-c2cc[nH]c(=NCc3ccncc3)n2)c1

>  <score_type>  (16) 
oracle

>  <origin>  (16) 
adg

>  <m_score__min__energy>  (16) 
-8.5500000000000007

>  <m_primary>  (16) 
energy

$$$$
17:0
     RDKit          3D

 49 52  0  0  0  0  0  0  0  0999 V2000
    0.7825   22.5155  -24.4704 H   0  0  0  0  0  0  0  0  0  0  0  0
    0.2050   22.9110  -25.3190 C   0  0  0  0  0  0  0  0  0  0  0  0
    0.3260   24.2530  -25.6780 C   0  0  0  0  0  0  0  0  0  0  0  0
    0.9930   24.9161  -25.1076 H   0  0  0  0  0  0  0  0  0  0  0  0
   -0.3980   24.7560  -26.7600 C   0  0  0  0  0  0  0  0  0  0  0  0
   -0.2966   25.8151  -27.0392 H   0  0  0  0  0  0  0  0  0  0  0  0
   -1.2570   23.9190  -27.4970 C   0  0  0  0  0  0  0  0  0  0  0  0
   -1.3860   22.5640  -27.1270 C   0  0  0  0  0  0  0  0  0  0  0  0
   -0.6470   22.0690  -26.0340 C   0  0  0  0  0  0  0  0  0  0  0  0
   -0.7425   21.0125  -25.7429 H   0  0  0  0  0  0  0  0  0  0  0  0
   -2.2930   21.6770  -27.8740 C   0  0  0  0  0  0  0  0  0  0  0  0
   -2.3730   20.4560  -27.5570 O   0  0  0  0  0  0  0  0  0  0  0  0
   -3.1090   22.1830  -28.9990 C   0  0  0  0  0  0  0  0  0  0  0  0
   -3.8830   21.3260  -29.6080 N   0  0  0  0  0  0  0  0  0  0  0  0
   -3.8260   20.9510  -30.9900 C   0  0  0  0  0  0  0  0  0  0  0  0
   -2.6430   21.1150  -31.7200 C   0  0  0  0  0  0  0  0  0  0  0  0
   -1.7644   21.5761  -31.2452 H   0  0  0  0  0  0  0  0  0  0  0  0
   -2.5760   20.6930  -33.0540 C   0  0  0  0  0  0  0  0  0  0  0  0
   -1.6429   20.8195  -33.6226 H   0  0  0  0  0  0  0  0  0  0  0  0
   -3.6900   20.1120  -33.6650 C   0  0  0  0  0  0  0  0  0  0  0  0
   -3.6323   19.7888  -34.7149 H   0  0  0  0  0  0  0  0  0  0  0  0
   -4.8880   19.9380  -32.9420 C   0  0  0  0  0  0  0  0  0  0  0  0
   -6.0970   19.3590  -33.6370 C   0  0  0  0  0  0  0  0  0  0  0  0
   -5.7750   18.8540  -34.8880 F   0  0  0  0  0  0  0  0  0  0  0  0
   -6.6140   18.3370  -32.8640 F   0  0  0  0  0  0  0  0  0  0  0  0
   -7.0600   20.3380  -33.7950 F   0  0  0  0  0  0  0  0  0  0  0  0
   -4.9340   20.3350  -31.5960 C   0  0  0  0  0  0  0  0  0  0  0  0
   -5.8481   20.1618  -31.0091 H   0  0  0  0  0  0  0  0  0  0  0  0
   -2.9280   23.6100  -29.5060 C   0  0  1  0  0  0  0  0  0  0  0  0
   -2.4494   23.5092  -30.4913 H   0  0  0  0  0  0  0  0  0  0  0  0
   -4.2310   24.2820  -29.6020 N   0  0  0  0  0  0  0  0  0  0  0  0
   -4.2410   25.3000  -29.3610 H   0  0  0  0  0  0  0  0  0  0  0  0
   -5.3930   23.7320  -30.2550 C   0  0  0  0  0  0  0  0  0  0  0  0
   -6.3950   23.0330  -29.5480 C   0  0  0  0  0  0  0  0  0  0  0  0
   -6.2965   22.8879  -28.4621 H   0  0  0  0  0  0  0  0  0  0  0  0
   -7.5110   22.5240  -30.2170 C   0  0  0  0  0  0  0  0  0  0  0  0
   -8.2766   21.9663  -29.6578 H   0  0  0  0  0  0  0  0  0  0  0  0
   -7.6610   22.7210  -31.6030 C   0  0  0  0  0  0  0  0  0  0  0  0
   -8.7730   22.2380  -32.3130 O   0  0  0  0  0  0  0  0  0  0  0  0
   -9.4820   21.0470  -31.9790 C   0  0  0  0  0  0  0  0  0  0  0  0
   -9.5401   20.9495  -30.8849 H   0  0  0  0  0  0  0  0  0  0  0  0
  -10.4982   21.0957  -32.3972 H   0  0  0  0  0  0  0  0  0  0  0  0
   -8.9547   20.1769  -32.3972 H   0  0  0  0  0  0  0  0  0  0  0  0
   -6.6760   23.4280  -32.3030 C   0  0  0  0  0  0  0  0  0  0  0  0
   -6.7849   23.5888  -33.3857 H   0  0  0  0  0  0  0  0  0  0  0  0
   -5.5530   23.9320  -31.6350 C   0  0  0  0  0  0  0  0  0  0  0  0
   -4.7894   24.4897  -32.1970 H   0  0  0  0  0  0  0  0  0  0  0  0
   -2.0200   24.4630  -28.6470 C   0  0  0  0  0  0  0  0  0  0  0  0
   -1.8930   25.6850  -28.9480 O   0  0  0  0  0  0  0  0  0  0  0  0
  1  2  1  0
  2  3  2  0
  3  4  1  0
  3  5  1  0
  5  6  1  0
  5  7  2  0
  7  8  1  0
  8  9  2  0
  9 10  1  0
  8 11  1  0
 11 12  2  0
 11 13  1  0
 13 14  2  0
 14 15  1  0
 15 16  2  0
 16 17  1  0
 16 18  1  0
 18 19  1  0
 18 20  2  0
 20 21  1  0
 20 22  1  0
 22 23  1  0
 23 24  1  0
 23 25  1  0
 23 26  1  0
 22 27  2  0
 27 28  1  0
 13 29  1  0
 29 30  1  6
 29 31  1  0
 31 32  1  0
 31 33  1  0
 33 34  2  0
 34 35  1  0
 34 36  1  0
 36 37  1  0
 36 38  2  0
 38 39  1  0
 39 40  1  0
 40 41  1  0
 40 42  1  0
 40 43  1  0
 38 44  1  0
 44 45  1  0
 44 46  2  0
 46 47  1  0
 29 48  1  0
 48 49  2  0
  9  2  1  0
 27 15  1  0
 46 33  1  0
 48  7  1  0
M  END
>  <UniqueID>  (17) 
16

>  <SMILES>  (17) 
COc1ccc(N[C@H]2C(=O)c3ccccc3C(=O)/C2=N/c2cccc(C(F)(F)F)c2)cc1

>  <Energy>  (17) 
67.13772974016992

>  <Genealogy>  (17) 
COc1ccc(N[C@H]2C(=O)c3ccccc3C(=O)C2=Nc2cccc(C(F)(F)F)c2)cc1 (chirality)
COc1ccc(N[C@H]2C(=O)c3ccccc3C(=O)/C2=N/c2cccc(C(F)(F)F)c2)cc1 (cis-trans isomerization)
COc1ccc(N[C@H]2C(=O)c3ccccc3C(=O)/C2=N/c2cccc(C(F)(F)F)c2)cc1 (3D coordinates assigned)
COc1ccc(N[C@H]2C(=O)c3ccccc3C(=O)/C2=N/c2cccc(C(F)(F)F)c2)cc1 (nonaromatic ring conformer: 67.13772974016992 kcal/mol)

>  <smiles>  (17) 
COc1ccc(NC2C(=O)c3ccccc3C(=O)C2=Nc2cccc(C(F)(F)F)c2)cc1

>  <score_type>  (17) 
oracle

>  <origin>  (17) 
adg

>  <m_score__min__energy>  (17) 
-9.0999999999999996

>  <m_primary>  (17) 
energy

$$$$
18:0
     RDKit          3D

 53 55  0  0  0  0  0  0  0  0999 V2000
   -6.4070   24.8610  -29.7750 C   0  0  0  0  0  0  0  0  0  0  0  0
   -5.5100   25.8850  -30.4630 C   0  0  0  0  0  0  0  0  0  0  0  0
   -4.2700   25.2940  -30.8500 O   0  0  0  0  0  0  0  0  0  0  0  0
   -3.9720   23.9200  -30.8270 C   0  0  0  0  0  0  0  0  0  0  0  0
   -4.6180   22.9930  -31.6690 C   0  0  0  0  0  0  0  0  0  0  0  0
   -4.2810   21.6310  -31.6280 C   0  0  0  0  0  0  0  0  0  0  0  0
   -4.9600   20.6580  -32.5130 C   0  0  0  0  0  0  0  0  0  0  0  0
   -4.3470   20.2160  -33.5220 O   0  0  0  0  0  0  0  0  0  0  0  0
   -6.3050   20.2100  -32.2480 N   0  0  0  0  0  0  0  0  0  0  0  0
   -6.7190   18.8760  -32.7060 C   0  0  0  0  0  0  0  0  0  0  0  0
   -7.9180   18.3800  -31.8920 C   0  0  0  0  0  0  0  0  0  0  0  0
   -9.1090   19.3600  -31.9430 C   0  0  0  0  0  0  0  0  0  0  0  0
   -8.7030   20.8140  -32.2520 C   0  0  0  0  0  0  0  0  0  0  0  0
   -7.3070   21.1500  -31.7170 C   0  0  0  0  0  0  0  0  0  0  0  0
   -3.3150   21.1910  -30.7130 C   0  0  0  0  0  0  0  0  0  0  0  0
   -2.6670   22.1030  -29.8760 C   0  0  0  0  0  0  0  0  0  0  0  0
   -2.9860   23.4730  -29.9320 C   0  0  0  0  0  0  0  0  0  0  0  0
   -2.3510   24.4240  -29.1150 O   0  0  0  0  0  0  0  0  0  0  0  0
   -1.7700   24.1610  -27.8360 C   0  0  0  0  0  0  0  0  0  0  0  0
   -0.3160   23.7850  -27.9570 C   0  0  0  0  0  0  0  0  0  0  0  0
    0.4740   24.5410  -28.5820 O   0  0  0  0  0  0  0  0  0  0  0  0
    0.2240   22.6550  -27.2590 N   0  0  0  0  0  0  0  0  0  0  0  0
   -0.3490   21.3430  -27.2120 C   0  0  0  0  0  0  0  0  0  0  0  0
    0.1380   20.3540  -28.0750 C   0  0  0  0  0  0  0  0  0  0  0  0
   -0.4280   19.0740  -28.0720 C   0  0  0  0  0  0  0  0  0  0  0  0
   -1.4990   18.7840  -27.2220 C   0  0  0  0  0  0  0  0  0  0  0  0
   -2.0130   19.7780  -26.3840 C   0  0  0  0  0  0  0  0  0  0  0  0
   -1.4480   21.0570  -26.3850 C   0  0  0  0  0  0  0  0  0  0  0  0
   -6.3144   24.9667  -28.6840 H   0  0  0  0  0  0  0  0  0  0  0  0
   -7.4523   25.0307  -30.0724 H   0  0  0  0  0  0  0  0  0  0  0  0
   -6.1012   23.8471  -30.0724 H   0  0  0  0  0  0  0  0  0  0  0  0
   -6.0214   26.2687  -31.3581 H   0  0  0  0  0  0  0  0  0  0  0  0
   -5.3052   26.7042  -29.7581 H   0  0  0  0  0  0  0  0  0  0  0  0
   -5.3948   23.3405  -32.3660 H   0  0  0  0  0  0  0  0  0  0  0  0
   -6.9990   18.9283  -33.7685 H   0  0  0  0  0  0  0  0  0  0  0  0
   -5.8813   18.1762  -32.5698 H   0  0  0  0  0  0  0  0  0  0  0  0
   -8.2417   17.4092  -32.2955 H   0  0  0  0  0  0  0  0  0  0  0  0
   -7.5989   18.2940  -30.8428 H   0  0  0  0  0  0  0  0  0  0  0  0
   -9.8048   19.0204  -32.7244 H   0  0  0  0  0  0  0  0  0  0  0  0
   -9.5677   19.3602  -30.9432 H   0  0  0  0  0  0  0  0  0  0  0  0
   -8.7093   20.9597  -33.3423 H   0  0  0  0  0  0  0  0  0  0  0  0
   -9.4246   21.4794  -31.7556 H   0  0  0  0  0  0  0  0  0  0  0  0
   -7.0400   22.1726  -32.0221 H   0  0  0  0  0  0  0  0  0  0  0  0
   -7.3203   21.0698  -30.6200 H   0  0  0  0  0  0  0  0  0  0  0  0
   -3.0655   20.1213  -30.6534 H   0  0  0  0  0  0  0  0  0  0  0  0
   -1.9028   21.7483  -29.1688 H   0  0  0  0  0  0  0  0  0  0  0  0
   -1.8552   25.0631  -27.2123 H   0  0  0  0  0  0  0  0  0  0  0  0
   -2.3079   23.3171  -27.3794 H   0  0  0  0  0  0  0  0  0  0  0  0
    0.9689   20.5839  -28.7582 H   0  0  0  0  0  0  0  0  0  0  0  0
   -0.0296   18.2955  -28.7392 H   0  0  0  0  0  0  0  0  0  0  0  0
   -1.9369   17.7750  -27.2124 H   0  0  0  0  0  0  0  0  0  0  0  0
   -2.8631   19.5536  -25.7229 H   0  0  0  0  0  0  0  0  0  0  0  0
   -1.8652   21.8414  -25.7364 H   0  0  0  0  0  0  0  0  0  0  0  0
  1  2  1  0
  2  3  1  0
  3  4  1  0
  4  5  2  0
  5  6  1  0
  6  7  1  0
  7  8  2  0
  7  9  1  0
  9 10  1  0
 10 11  1  0
 11 12  1  0
 12 13  1  0
 13 14  1  0
  6 15  2  0
 15 16  1  0
 16 17  2  0
 17 18  1  0
 18 19  1  0
 19 20  1  0
 20 21  2  0
 20 22  1  0
 22 23  1  0
 23 24  2  0
 24 25  1  0
 25 26  2  0
 26 27  1  0
 27 28  2  0
 17  4  1  0
 28 23  1  0
 14  9  1  0
  1 29  1  0
  1 30  1  0
  1 31  1  0
  2 32  1  0
  2 33  1  0
  5 34  1  0
 10 35  1  0
 10 36  1  0
 11 37  1  0
 11 38  1  0
 12 39  1  0
 12 40  1  0
 13 41  1  0
 13 42  1  0
 14 43  1  0
 14 44  1  0
 15 45  1  0
 16 46  1  0
 19 47  1  0
 19 48  1  0
 24 49  1  0
 25 50  1  0
 26 51  1  0
 27 52  1  0
 28 53  1  0
M  CHG  1  22  -1
M  END
>  <UniqueID>  (18) 
17

>  <SMILES>  (18) 
CCOc1cc(C(=O)N2CCCCC2)ccc1OCC(=O)[N-]c1ccccc1

>  <Energy>  (18) 
63.158576726517154

>  <Genealogy>  (18) 
CCOc1cc(C(=O)N2CCCCC2)ccc1OCC(=O)[N-]c1ccccc1 (protonated)
CCOc1cc(C(=O)N2CCCCC2)ccc1OCC(=O)[N-]c1ccccc1 (3D coordinates assigned)
CCOc1cc(C(=O)N2CCCCC2)ccc1OCC(=O)[N-]c1ccccc1 (nonaromatic ring conformer: 63.158576726517154 kcal/mol)

>  <smiles>  (18) 
CCOc1cc(C(=O)N2CCCCC2)ccc1OCC(=O)Nc1ccccc1

>  <score_type>  (18) 
oracle

>  <origin>  (18) 
adg

>  <m_score__min__energy>  (18) 
-10.029999999999999

>  <m_primary>  (18) 
energy

$$$$
19:0
     RDKit          3D

 41 42  0  0  0  0  0  0  0  0999 V2000
   -8.9869   19.2242  -30.8955 H   0  0  0  0  0  0  0  0  0  0  0  0
   -8.1750   19.0880  -31.6250 C   0  0  0  0  0  0  0  0  0  0  0  0
   -7.3140   20.1450  -31.9110 C   0  0  0  0  0  0  0  0  0  0  0  0
   -7.4385   21.1065  -31.3914 H   0  0  0  0  0  0  0  0  0  0  0  0
   -6.2880   19.9920  -32.8580 C   0  0  0  0  0  0  0  0  0  0  0  0
   -5.3950   21.0420  -33.1230 O   0  0  0  0  0  0  0  0  0  0  0  0
   -4.1500   21.2250  -32.5050 C   0  0  0  0  0  0  0  0  0  0  0  0
   -3.9240   22.3730  -31.7150 C   0  0  0  0  0  0  0  0  0  0  0  0
   -4.9490   23.4390  -31.5840 C   0  0  0  0  0  0  0  0  0  0  0  0
   -4.6770   24.4900  -30.8650 N   0  0  0  0  0  0  0  0  0  0  0  0
   -4.6410   24.5100  -29.4620 C   0  0  0  0  0  0  0  0  0  0  0  0
   -4.6090   24.5310  -28.3060 N   0  0  0  0  0  0  0  0  0  0  0  0
   -6.1770   23.3360  -32.3280 N   0  0  0  0  0  0  0  0  0  0  0  0
   -6.1070   22.9960  -33.3140 H   0  0  0  0  0  0  0  0  0  0  0  0
   -7.4800   23.3090  -31.6590 C   0  0  0  0  0  0  0  0  0  0  0  0
   -8.1460   22.6172  -32.1956 H   0  0  0  0  0  0  0  0  0  0  0  0
   -7.8983   24.3264  -31.6634 H   0  0  0  0  0  0  0  0  0  0  0  0
   -7.3400   22.8460  -30.2120 C   0  0  0  0  0  0  0  0  0  0  0  0
   -7.5910   23.6762  -29.5355 H   0  0  0  0  0  0  0  0  0  0  0  0
   -8.0237   22.0040  -30.0286 H   0  0  0  0  0  0  0  0  0  0  0  0
   -6.3043   22.5239  -30.0286 H   0  0  0  0  0  0  0  0  0  0  0  0
   -2.6920   22.4980  -31.0520 C   0  0  0  0  0  0  0  0  0  0  0  0
   -2.4964   23.3777  -30.4212 H   0  0  0  0  0  0  0  0  0  0  0  0
   -1.7160   21.5120  -31.1900 C   0  0  0  0  0  0  0  0  0  0  0  0
   -0.7471   21.6148  -30.6795 H   0  0  0  0  0  0  0  0  0  0  0  0
   -1.9790   20.3960  -31.9800 C   0  0  0  0  0  0  0  0  0  0  0  0
   -1.2144   19.6136  -32.0954 H   0  0  0  0  0  0  0  0  0  0  0  0
   -3.1770   20.2700  -32.6090 N   0  0  0  0  0  0  0  0  0  0  0  0
   -3.3570   19.3990  -33.1560 H   0  0  0  0  0  0  0  0  0  0  0  0
   -6.1160   18.7500  -33.5100 C   0  0  0  0  0  0  0  0  0  0  0  0
   -4.9920   18.5690  -34.5050 C   0  0  0  0  0  0  0  0  0  0  0  0
   -4.0456   18.4166  -33.9654 H   0  0  0  0  0  0  0  0  0  0  0  0
   -5.1991   17.6926  -35.1367 H   0  0  0  0  0  0  0  0  0  0  0  0
   -4.9135   19.4661  -35.1367 H   0  0  0  0  0  0  0  0  0  0  0  0
   -6.9750   17.6690  -33.1900 C   0  0  0  0  0  0  0  0  0  0  0  0
   -6.8220   16.3210  -33.8460 C   0  0  0  0  0  0  0  0  0  0  0  0
   -6.7339   15.5444  -33.0719 H   0  0  0  0  0  0  0  0  0  0  0  0
   -7.7026   16.1160  -34.4725 H   0  0  0  0  0  0  0  0  0  0  0  0
   -5.9178   16.3186  -34.4725 H   0  0  0  0  0  0  0  0  0  0  0  0
   -8.0110   17.8590  -32.2600 C   0  0  0  0  0  0  0  0  0  0  0  0
   -8.6979   17.0308  -32.0316 H   0  0  0  0  0  0  0  0  0  0  0  0
  1  2  1  0
  2  3  2  0
  3  4  1  0
  3  5  1  0
  5  6  1  0
  6  7  1  0
  7  8  2  0
  8  9  1  0
  9 10  2  0
 10 11  1  0
 11 12  3  0
  9 13  1  0
 13 14  1  0
 13 15  1  0
 15 16  1  0
 15 17  1  0
 15 18  1  0
 18 19  1  0
 18 20  1  0
 18 21  1  0
  8 22  1  0
 22 23  1  0
 22 24  2  0
 24 25  1  0
 24 26  1  0
 26 27  1  0
 26 28  2  0
 28 29  1  0
  5 30  2  0
 30 31  1  0
 31 32  1  0
 31 33  1  0
 31 34  1  0
 30 35  1  0
 35 36  1  0
 36 37  1  0
 36 38  1  0
 36 39  1  0
 35 40  2  0
 40 41  1  0
 40  2  1  0
 28  7  1  0
M  CHG  1  28   1
M  END
>  <UniqueID>  (19) 
18

>  <SMILES>  (19) 
CCN/C(=N\C#N)c1ccc[nH+]c1Oc1cccc(C)c1C

>  <Energy>  (19) 
50.907057315539205

>  <Genealogy>  (19) 
CCNC(=NC#N)c1ccc[nH+]c1Oc1cccc(C)c1C (protonated)
CCN/C(=N\C#N)c1ccc[nH+]c1Oc1cccc(C)c1C (cis-trans isomerization)
CCN/C(=N\C#N)c1ccc[nH+]c1Oc1cccc(C)c1C (3D coordinates assigned)
CCN/C(=N\C#N)c1ccc[nH+]c1Oc1cccc(C)c1C (optimized conformer: 50.907057315539205 kcal/mol)

>  <smiles>  (19) 
CCNC(=NC#N)c1cccnc1Oc1cccc(C)c1C

>  <score_type>  (19) 
oracle

>  <origin>  (19) 
adg

>  <m_score__min__energy>  (19) 
-7.0199999999999996

>  <m_primary>  (19) 
energy

$$$$
20:0
     RDKit          3D

 43 45  0  0  0  0  0  0  0  0999 V2000
   -2.5940   24.1880  -29.5900 C   0  0  0  0  0  0  0  0  0  0  0  0
   -3.5040   24.8470  -30.4650 O   0  0  0  0  0  0  0  0  0  0  0  0
   -4.8570   24.5010  -30.6200 C   0  0  0  0  0  0  0  0  0  0  0  0
   -5.8780   25.1800  -29.9240 C   0  0  0  0  0  0  0  0  0  0  0  0
   -7.2140   24.8200  -30.0980 C   0  0  0  0  0  0  0  0  0  0  0  0
   -7.5520   23.7810  -30.9650 C   0  0  0  0  0  0  0  0  0  0  0  0
   -6.5540   23.0980  -31.6610 C   0  0  0  0  0  0  0  0  0  0  0  0
   -5.2030   23.4460  -31.4950 C   0  0  0  0  0  0  0  0  0  0  0  0
   -4.1470   22.6700  -32.2520 C   0  0  0  0  0  0  0  0  0  0  0  0
   -4.3650   21.1420  -32.1470 C   0  0  2  0  0  0  0  0  0  0  0  0
   -3.4720   20.4920  -31.0800 C   0  0  0  0  0  0  0  0  0  0  0  0
   -2.5170   19.6550  -31.6940 O   0  0  0  0  0  0  0  0  0  0  0  0
   -2.5550   19.9250  -33.0730 C   0  0  0  0  0  0  0  0  0  0  0  0
   -3.9440   20.4290  -33.4240 C   0  0  1  0  0  0  0  0  0  0  0  0
   -4.9150   19.2960  -33.8570 C   0  0  0  0  0  0  0  0  0  0  0  0
   -6.2410   19.2760  -33.1250 C   0  0  0  0  0  0  0  0  0  0  0  0
   -6.5350   18.2490  -32.2100 C   0  0  0  0  0  0  0  0  0  0  0  0
   -7.7660   18.2210  -31.5490 C   0  0  0  0  0  0  0  0  0  0  0  0
   -8.7110   19.2230  -31.7860 C   0  0  0  0  0  0  0  0  0  0  0  0
   -8.4220   20.2580  -32.6770 C   0  0  0  0  0  0  0  0  0  0  0  0
   -7.1910   20.2900  -33.3410 C   0  0  0  0  0  0  0  0  0  0  0  0
   -2.8758   24.3921  -28.5465 H   0  0  0  0  0  0  0  0  0  0  0  0
   -2.6284   23.1040  -29.7738 H   0  0  0  0  0  0  0  0  0  0  0  0
   -1.5749   24.5589  -29.7738 H   0  0  0  0  0  0  0  0  0  0  0  0
   -5.6187   26.0002  -29.2384 H   0  0  0  0  0  0  0  0  0  0  0  0
   -8.0028   25.3565  -29.5504 H   0  0  0  0  0  0  0  0  0  0  0  0
   -8.6068   23.4997  -31.1002 H   0  0  0  0  0  0  0  0  0  0  0  0
   -6.8271   22.2808  -32.3449 H   0  0  0  0  0  0  0  0  0  0  0  0
   -4.1831   22.9620  -33.3119 H   0  0  0  0  0  0  0  0  0  0  0  0
   -3.1685   22.9052  -31.8079 H   0  0  0  0  0  0  0  0  0  0  0  0
   -5.4363   21.0391  -31.9195 H   0  0  0  0  0  0  0  0  0  0  0  0
   -2.9547   21.2779  -30.5101 H   0  0  0  0  0  0  0  0  0  0  0  0
   -4.0973   19.8906  -30.4038 H   0  0  0  0  0  0  0  0  0  0  0  0
   -1.8073   20.6923  -33.3222 H   0  0  0  0  0  0  0  0  0  0  0  0
   -2.3285   19.0122  -33.6435 H   0  0  0  0  0  0  0  0  0  0  0  0
   -3.9585   21.0882  -34.3045 H   0  0  0  0  0  0  0  0  0  0  0  0
   -5.1198   19.4139  -34.9313 H   0  0  0  0  0  0  0  0  0  0  0  0
   -4.4127   18.3490  -33.6100 H   0  0  0  0  0  0  0  0  0  0  0  0
   -5.7912   17.4628  -32.0134 H   0  0  0  0  0  0  0  0  0  0  0  0
   -7.9914   17.4095  -30.8415 H   0  0  0  0  0  0  0  0  0  0  0  0
   -9.6824   19.1961  -31.2705 H   0  0  0  0  0  0  0  0  0  0  0  0
   -9.1637   21.0501  -32.8574 H   0  0  0  0  0  0  0  0  0  0  0  0
   -6.9651   21.1125  -34.0356 H   0  0  0  0  0  0  0  0  0  0  0  0
  1  2  1  0
  2  3  1  0
  3  4  2  0
  4  5  1  0
  5  6  2  0
  6  7  1  0
  7  8  2  0
  8  9  1  0
  9 10  1  0
 10 11  1  0
 11 12  1  0
 12 13  1  0
 13 14  1  0
 14 15  1  0
 15 16  1  0
 16 17  2  0
 17 18  1  0
 18 19  2  0
 19 20  1  0
 20 21  2  0
  8  3  1  0
 14 10  1  0
 21 16  1  0
  1 22  1  0
  1 23  1  0
  1 24  1  0
  4 25  1  0
  5 26  1  0
  6 27  1  0
  7 28  1  0
  9 29  1  0
  9 30  1  0
 10 31  1  1
 11 32  1  0
 11 33  1  0
 13 34  1  0
 13 35  1  0
 14 36  1  6
 15 37  1  0
 15 38  1  0
 17 39  1  0
 18 40  1  0
 19 41  1  0
 20 42  1  0
 21 43  1  0
M  END
>  <UniqueID>  (20) 
19

>  <SMILES>  (20) 
COc1ccccc1C[C@@H]1COC[C@H]1Cc1ccccc1

>  <Energy>  (20) 
45.15805831826764

>  <Genealogy>  (20) 
COc1ccccc1C[C@@H]1COC[C@H]1Cc1ccccc1 (chirality)
COc1ccccc1C[C@@H]1COC[C@H]1Cc1ccccc1 (3D coordinates assigned)
COc1ccccc1C[C@@H]1COC[C@H]1Cc1ccccc1 (nonaromatic ring conformer: 45.15805831826764 kcal/mol)

>  <smiles>  (20) 
COc1ccccc1CC1COCC1Cc1ccccc1

>  <score_type>  (20) 
oracle

>  <origin>  (20) 
adg

>  <m_score__min__energy>  (20) 
-8.4299999999999997

>  <m_primary>  (20) 
energy

$$$$
21:0
     RDKit          3D

 33 35  0  0  1  0  0  0  0  0999 V2000
   -6.8700   16.4790  -33.7820 C   0  0  0  0  0  0  0  0  0  0  0  0
   -6.2900   17.8210  -33.5300 C   0  0  0  0  0  0  0  0  0  0  0  0
   -5.0310   18.0670  -34.0300 C   0  0  0  0  0  0  0  0  0  0  0  0
   -4.4520   19.3120  -33.8150 C   0  0  0  0  0  0  0  0  0  0  0  0
   -5.1390   20.3020  -33.1020 C   0  0  0  0  0  0  0  0  0  0  0  0
   -4.4760   21.5480  -32.9270 N   0  0  0  0  0  0  0  0  0  0  0  0
   -4.6720   22.2010  -31.8300 C   0  0  0  0  0  0  0  0  0  0  0  0
   -4.2000   21.7390  -30.5300 C   0  0  0  0  0  0  0  0  0  0  0  0
   -3.8530   20.5340  -30.4200 O   0  0  0  0  0  0  0  0  0  0  0  0
   -4.1300   22.6540  -29.3710 C   0  0  0  0  0  0  0  0  0  0  0  0
   -3.7270   22.4230  -28.1000 N   0  0  0  0  0  0  0  0  0  0  0  0
   -3.8680   23.6080  -27.4620 C   0  0  0  0  0  0  0  0  0  0  0  0
   -4.3420   24.5430  -28.3050 N   0  0  0  0  0  0  0  0  0  0  0  0
   -4.5150   23.9730  -29.5080 C   0  0  0  0  0  0  0  0  0  0  0  0
   -4.9810   24.4020  -30.8220 C   0  0  0  0  0  0  0  0  0  0  0  0
   -5.0100   25.6580  -31.0570 O   0  0  0  0  0  0  0  0  0  0  0  0
   -5.4180   23.4950  -31.8880 C   0  0  2  0  0  0  0  0  0  0  0  0
   -7.1840   23.2420  -31.8040 Cl  0  0  0  0  0  0  0  0  0  0  0  0
   -6.4130   20.0580  -32.5950 C   0  0  0  0  0  0  0  0  0  0  0  0
   -6.9580   18.8100  -32.8270 C   0  0  0  0  0  0  0  0  0  0  0  0
   -8.3070   18.5470  -32.2920 C   0  0  0  0  0  0  0  0  0  0  0  0
   -7.0832   15.9856  -32.8223 H   0  0  0  0  0  0  0  0  0  0  0  0
   -7.8028   16.5845  -34.3553 H   0  0  0  0  0  0  0  0  0  0  0  0
   -6.1540   15.8719  -34.3553 H   0  0  0  0  0  0  0  0  0  0  0  0
   -4.4915   17.2898  -34.5912 H   0  0  0  0  0  0  0  0  0  0  0  0
   -3.4462   19.5213  -34.2080 H   0  0  0  0  0  0  0  0  0  0  0  0
   -3.6286   23.7823  -26.4026 H   0  0  0  0  0  0  0  0  0  0  0  0
   -4.5580   25.5550  -28.1170 H   0  0  0  0  0  0  0  0  0  0  0  0
   -5.1891   23.9592  -32.8586 H   0  0  0  0  0  0  0  0  0  0  0  0
   -6.9627   20.8274  -32.0329 H   0  0  0  0  0  0  0  0  0  0  0  0
   -8.2731   18.5536  -31.1925 H   0  0  0  0  0  0  0  0  0  0  0  0
   -8.9989   19.3272  -32.6422 H   0  0  0  0  0  0  0  0  0  0  0  0
   -8.6551   17.5641  -32.6422 H   0  0  0  0  0  0  0  0  0  0  0  0
  1  2  1  0
  2  3  2  0
  3  4  1  0
  4  5  2  0
  5  6  1  0
  6  7  2  0
  7  8  1  0
  8  9  2  0
  8 10  1  0
 10 11  1  0
 11 12  2  0
 12 13  1  0
 13 14  1  0
 14 15  1  0
 15 16  2  0
 15 17  1  0
 17 18  1  0
  5 19  1  0
 19 20  2  0
 20 21  1  0
 20  2  1  0
 17  7  1  0
 14 10  2  0
  1 22  1  0
  1 23  1  0
  1 24  1  0
  3 25  1  0
  4 26  1  0
 12 27  1  0
 13 28  1  0
 17 29  1  6
 19 30  1  0
 21 31  1  0
 21 32  1  0
 21 33  1  0
M  END
>  <smiles>  (21) 
Cc1ccc(N=C2C(=O)c3nc[nH]c3C(=O)C2Cl)cc1C

>  <score_type>  (21) 
oracle

>  <origin>  (21) 
adg

>  <m_score__min__energy>  (21) 
-8.1400000000000006

>  <m_primary>  (21) 
energy

$$$$
22:0
     RDKit          3D

 43 45  0  0  0  0  0  0  0  0999 V2000
   -3.4570   25.6740  -31.5450 H   0  0  0  0  0  0  0  0  0  0  0  0
   -4.2140   25.2860  -30.9400 N   0  0  0  0  0  0  0  0  0  0  0  0
   -4.0000   24.2910  -30.1370 C   0  0  0  0  0  0  0  0  0  0  0  0
   -3.5740   24.5320  -28.8670 N   0  0  0  0  0  0  0  0  0  0  0  0
   -3.3260   23.5190  -27.9990 C   0  0  0  0  0  0  0  0  0  0  0  0
   -2.9896   23.7364  -26.9745 H   0  0  0  0  0  0  0  0  0  0  0  0
   -3.5010   22.2010  -28.4160 C   0  0  0  0  0  0  0  0  0  0  0  0
   -3.2985   21.3706  -27.7237 H   0  0  0  0  0  0  0  0  0  0  0  0
   -3.9230   21.9470  -29.6820 N   0  0  0  0  0  0  0  0  0  0  0  0
   -4.0350   20.9520  -29.9770 H   0  0  0  0  0  0  0  0  0  0  0  0
   -4.1950   22.9580  -30.5610 C   0  0  0  0  0  0  0  0  0  0  0  0
   -4.6770   22.6220  -31.9590 C   0  0  0  0  0  0  0  0  0  0  0  0
   -4.4344   23.4677  -32.6192 H   0  0  0  0  0  0  0  0  0  0  0  0
   -4.1692   21.6910  -32.2511 H   0  0  0  0  0  0  0  0  0  0  0  0
   -6.1950   22.3480  -32.0620 C   0  0  1  0  0  0  0  0  0  0  0  0
   -6.2956   21.7118  -32.9537 H   0  0  0  0  0  0  0  0  0  0  0  0
   -6.7540   21.5630  -30.8560 C   0  0  0  0  0  0  0  0  0  0  0  0
   -6.7107   22.2051  -29.9639 H   0  0  0  0  0  0  0  0  0  0  0  0
   -6.1412   20.6587  -30.7268 H   0  0  0  0  0  0  0  0  0  0  0  0
   -8.1600   21.1360  -31.0710 N   0  0  0  0  0  0  0  0  0  0  0  0
   -8.3370   19.6790  -31.2640 C   0  0  0  0  0  0  0  0  0  0  0  0
   -8.2956   19.1912  -30.2789 H   0  0  0  0  0  0  0  0  0  0  0  0
   -9.3067   19.5376  -31.7636 H   0  0  0  0  0  0  0  0  0  0  0  0
   -7.2850   19.0470  -32.1550 C   0  0  0  0  0  0  0  0  0  0  0  0
   -7.0190   19.5820  -33.4270 C   0  0  0  0  0  0  0  0  0  0  0  0
   -7.5816   20.4593  -33.7788 H   0  0  0  0  0  0  0  0  0  0  0  0
   -6.0440   19.0070  -34.2490 C   0  0  0  0  0  0  0  0  0  0  0  0
   -5.8347   19.4394  -35.2386 H   0  0  0  0  0  0  0  0  0  0  0  0
   -5.3360   17.8840  -33.8140 C   0  0  0  0  0  0  0  0  0  0  0  0
   -4.5634   17.4373  -34.4570 H   0  0  0  0  0  0  0  0  0  0  0  0
   -5.6100   17.3290  -32.5620 C   0  0  0  0  0  0  0  0  0  0  0  0
   -5.0577   16.4400  -32.2234 H   0  0  0  0  0  0  0  0  0  0  0  0
   -6.5840   17.9000  -31.7380 C   0  0  0  0  0  0  0  0  0  0  0  0
   -6.8038   17.4505  -30.7584 H   0  0  0  0  0  0  0  0  0  0  0  0
   -8.9340   21.9580  -32.0320 C   0  0  0  0  0  0  0  0  0  0  0  0
  -10.0050   21.8706  -31.7968 H   0  0  0  0  0  0  0  0  0  0  0  0
   -8.7270   21.5907  -33.0480 H   0  0  0  0  0  0  0  0  0  0  0  0
   -8.5260   23.4330  -31.9590 C   0  0  0  0  0  0  0  0  0  0  0  0
   -8.7107   23.8045  -30.9402 H   0  0  0  0  0  0  0  0  0  0  0  0
   -9.1225   23.9919  -32.6951 H   0  0  0  0  0  0  0  0  0  0  0  0
   -7.0330   23.6270  -32.3000 C   0  0  0  0  0  0  0  0  0  0  0  0
   -6.6302   24.4339  -31.6702 H   0  0  0  0  0  0  0  0  0  0  0  0
   -6.9659   23.8739  -33.3698 H   0  0  0  0  0  0  0  0  0  0  0  0
  1  2  1  0
  2  3  2  0
  3  4  1  0
  4  5  1  0
  5  6  1  0
  5  7  2  0
  7  8  1  0
  7  9  1  0
  9 10  1  0
  9 11  2  0
 11 12  1  0
 12 13  1  0
 12 14  1  0
 12 15  1  0
 15 16  1  6
 15 17  1  0
 17 18  1  0
 17 19  1  0
 17 20  1  0
 20 21  1  0
 21 22  1  0
 21 23  1  0
 21 24  1  0
 24 25  2  0
 25 26  1  0
 25 27  1  0
 27 28  1  0
 27 29  2  0
 29 30  1  0
 29 31  1  0
 31 32  1  0
 31 33  2  0
 33 34  1  0
 20 35  1  0
 35 36  1  0
 35 37  1  0
 35 38  1  0
 38 39  1  0
 38 40  1  0
 38 41  1  0
 41 42  1  0
 41 43  1  0
 11  3  1  0
 41 15  1  0
 33 24  1  0
M  CHG  2   4  -1   9   1
M  END
>  <UniqueID>  (22) 
20

>  <SMILES>  (22) 
[H]/N=c1\[n-]cc[nH+]c1C[C@@H]1CCCN(Cc2ccccc2)C1

>  <Energy>  (22) 
56.21297222281644

>  <Genealogy>  (22) 
N=c1[n-]cc[nH+]c1CC1CCCN(Cc2ccccc2)C1 (protonated)
N=c1[n-]cc[nH+]c1C[C@@H]1CCCN(Cc2ccccc2)C1 (chirality)
[H]/N=c1\[n-]cc[nH+]c1C[C@@H]1CCCN(Cc2ccccc2)C1 (cis-trans isomerization)
[H]/N=c1\[n-]cc[nH+]c1C[C@@H]1CCCN(Cc2ccccc2)C1 (3D coordinates assigned)
[H]/N=c1\[n-]cc[nH+]c1C[C@@H]1CCCN(Cc2ccccc2)C1 (nonaromatic ring conformer: 56.21297222281644 kcal/mol)

>  <smiles>  (22) 
N=c1[nH]ccnc1CC1CCCN(Cc2ccccc2)C1

>  <score_type>  (22) 
oracle

>  <origin>  (22) 
adg

>  <m_score__min__energy>  (22) 
-9.2100000000000009

>  <m_primary>  (22) 
energy

$$$$
23:0
     RDKit          3D

 40 42  0  0  0  0  0  0  0  0999 V2000
   -9.4910   20.8730  -31.0200 O   0  0  0  0  0  0  0  0  0  0  0  0
   -8.4470   20.7110  -31.6360 C   0  0  0  0  0  0  0  0  0  0  0  0
   -8.4600   19.8150  -32.8480 C   0  0  0  0  0  0  0  0  0  0  0  0
   -7.3290   18.8290  -32.7710 C   0  0  0  0  0  0  0  0  0  0  0  0
   -7.1660   18.0240  -31.6320 C   0  0  0  0  0  0  0  0  0  0  0  0
   -6.1400   17.0760  -31.5800 C   0  0  0  0  0  0  0  0  0  0  0  0
   -5.2740   16.9200  -32.6670 C   0  0  0  0  0  0  0  0  0  0  0  0
   -4.2820   15.9970  -32.6170 F   0  0  0  0  0  0  0  0  0  0  0  0
   -5.4370   17.7100  -33.8090 C   0  0  0  0  0  0  0  0  0  0  0  0
   -6.4630   18.6590  -33.8640 C   0  0  0  0  0  0  0  0  0  0  0  0
   -7.2190   21.3630  -31.2010 N   0  0  1  0  0  0  0  0  0  0  0  0
   -6.4380   21.8910  -32.3460 C   0  0  0  0  0  0  0  0  0  0  0  0
   -5.0460   21.3300  -32.4630 C   0  0  0  0  0  0  0  0  0  0  0  0
   -4.0360   21.8380  -33.2550 C   0  0  0  0  0  0  0  0  0  0  0  0
   -2.9410   21.0350  -33.0190 C   0  0  0  0  0  0  0  0  0  0  0  0
   -3.3490   20.0910  -32.1000 C   0  0  0  0  0  0  0  0  0  0  0  0
   -4.6070   20.2950  -31.7850 O   0  0  0  0  0  0  0  0  0  0  0  0
   -7.3740   22.3320  -30.0730 C   0  0  0  0  0  0  0  0  0  0  0  0
   -6.4380   23.5150  -30.0960 C   0  0  0  0  0  0  0  0  0  0  0  0
   -6.8230   24.8480  -30.1750 C   0  0  0  0  0  0  0  0  0  0  0  0
   -5.7430   25.7390  -30.1800 C   0  0  0  0  0  0  0  0  0  0  0  0
   -4.5060   25.1140  -30.0970 C   0  0  0  0  0  0  0  0  0  0  0  0
   -4.7590   23.4550  -30.0160 S   0  0  0  0  0  0  0  0  0  0  0  0
   -9.4152   19.2710  -32.8885 H   0  0  0  0  0  0  0  0  0  0  0  0
   -8.3418   20.4298  -33.7525 H   0  0  0  0  0  0  0  0  0  0  0  0
   -7.8485   18.1399  -30.7772 H   0  0  0  0  0  0  0  0  0  0  0  0
   -6.0136   16.4520  -30.6830 H   0  0  0  0  0  0  0  0  0  0  0  0
   -4.7576   17.5851  -34.6651 H   0  0  0  0  0  0  0  0  0  0  0  0
   -6.5923   19.2745  -34.7664 H   0  0  0  0  0  0  0  0  0  0  0  0
   -6.6060   20.6030  -30.8170 H   0  0  0  0  0  0  0  0  0  0  0  0
   -6.9828   21.6545  -33.2719 H   0  0  0  0  0  0  0  0  0  0  0  0
   -6.3267   22.9722  -32.1771 H   0  0  0  0  0  0  0  0  0  0  0  0
   -4.0931   22.7026  -33.9326 H   0  0  0  0  0  0  0  0  0  0  0  0
   -1.9430   21.1282  -33.4722 H   0  0  0  0  0  0  0  0  0  0  0  0
   -2.7162   19.2887  -31.6927 H   0  0  0  0  0  0  0  0  0  0  0  0
   -8.4047   22.7156  -30.0957 H   0  0  0  0  0  0  0  0  0  0  0  0
   -7.1278   21.7715  -29.1591 H   0  0  0  0  0  0  0  0  0  0  0  0
   -7.8731   25.1713  -30.2284 H   0  0  0  0  0  0  0  0  0  0  0  0
   -5.8631   26.8306  -30.2436 H   0  0  0  0  0  0  0  0  0  0  0  0
   -3.5285   25.6183  -30.0861 H   0  0  0  0  0  0  0  0  0  0  0  0
  1  2  2  0
  2  3  1  0
  3  4  1  0
  4  5  2  0
  5  6  1  0
  6  7  2  0
  7  8  1  0
  7  9  1  0
  9 10  2  0
  2 11  1  0
 11 12  1  0
 12 13  1  0
 13 14  2  0
 14 15  1  0
 15 16  2  0
 16 17  1  0
 11 18  1  0
 18 19  1  0
 19 20  2  0
 20 21  1  0
 21 22  2  0
 22 23  1  0
 10  4  1  0
 17 13  1  0
 23 19  1  0
  3 24  1  0
  3 25  1  0
  5 26  1  0
  6 27  1  0
  9 28  1  0
 10 29  1  0
 11 30  1  1
 12 31  1  0
 12 32  1  0
 14 33  1  0
 15 34  1  0
 16 35  1  0
 18 36  1  0
 18 37  1  0
 20 38  1  0
 21 39  1  0
 22 40  1  0
M  CHG  1  11   1
M  END
>  <UniqueID>  (23) 
21

>  <SMILES>  (23) 
O=C(Cc1ccc(F)cc1)[N@@H+](Cc1ccco1)Cc1cccs1

>  <Energy>  (23) 
99.845220777398

>  <Genealogy>  (23) 
O=C(Cc1ccc(F)cc1)[NH+](Cc1ccco1)Cc1cccs1 (protonated)
O=C(Cc1ccc(F)cc1)[N@@H+](Cc1ccco1)Cc1cccs1 (chirality)
O=C(Cc1ccc(F)cc1)[N@@H+](Cc1ccco1)Cc1cccs1 (3D coordinates assigned)
O=C(Cc1ccc(F)cc1)[N@@H+](Cc1ccco1)Cc1cccs1 (optimized conformer: 99.845220777398 kcal/mol)

>  <smiles>  (23) 
O=C(Cc1ccc(F)cc1)N(Cc1ccco1)Cc1cccs1

>  <score_type>  (23) 
oracle

>  <origin>  (23) 
adg

>  <m_score__min__energy>  (23) 
-7.1900000000000004

>  <m_primary>  (23) 
energy

$$$$
24:0
     RDKit          3D

 26 28  0  0  1  0  0  0  0  0999 V2000
   -4.6350   20.7970  -33.7790 N   0  0  0  0  0  0  0  0  0  0  0  0
   -5.4520   19.8100  -33.4600 C   0  0  0  0  0  0  0  0  0  0  0  0
   -4.9390   18.5930  -33.8610 N   0  0  0  0  0  0  0  0  0  0  0  0
   -6.0690   17.3370  -33.4080 S   0  0  0  0  0  0  0  0  0  0  0  0
   -7.2290   18.5710  -32.6660 C   0  0  0  0  0  0  0  0  0  0  0  0
   -8.4140   18.3190  -32.0740 N   0  0  0  0  0  0  0  0  0  0  0  0
   -9.1150   19.3420  -31.5950 C   0  0  0  0  0  0  0  0  0  0  0  0
   -8.6140   20.5530  -31.7240 N   0  0  0  0  0  0  0  0  0  0  0  0
   -7.4090   20.8430  -32.3230 C   0  0  0  0  0  0  0  0  0  0  0  0
   -7.0990   22.0300  -32.3550 N   0  0  0  0  0  0  0  0  0  0  0  0
   -6.2660   22.8080  -31.6570 C   0  0  0  0  0  0  0  0  0  0  0  0
   -5.0140   22.3090  -31.2280 C   0  0  0  0  0  0  0  0  0  0  0  0
   -4.1140   23.1450  -30.6170 C   0  0  0  0  0  0  0  0  0  0  0  0
   -4.4010   24.4870  -30.4050 C   0  0  0  0  0  0  0  0  0  0  0  0
   -3.4870   25.2870  -29.7980 F   0  0  0  0  0  0  0  0  0  0  0  0
   -5.6290   24.9880  -30.8240 C   0  0  0  0  0  0  0  0  0  0  0  0
   -6.5720   24.1720  -31.4480 C   0  0  0  0  0  0  0  0  0  0  0  0
   -6.6280   19.7890  -32.8470 C   0  0  0  0  0  0  0  0  0  0  0  0
   -4.8690   21.7590  -33.8790 H   0  0  0  0  0  0  0  0  0  0  0  0
   -4.0580   18.3790  -34.3460 H   0  0  0  0  0  0  0  0  0  0  0  0
  -10.0864   19.1814  -31.1046 H   0  0  0  0  0  0  0  0  0  0  0  0
   -9.2080   21.3430  -31.3270 H   0  0  0  0  0  0  0  0  0  0  0  0
   -4.7617   21.2498  -31.3844 H   0  0  0  0  0  0  0  0  0  0  0  0
   -3.1442   22.7436  -30.2880 H   0  0  0  0  0  0  0  0  0  0  0  0
   -5.8613   26.0506  -30.6596 H   0  0  0  0  0  0  0  0  0  0  0  0
   -7.5391   24.5835  -31.7726 H   0  0  0  0  0  0  0  0  0  0  0  0
  1  2  2  3
  2  3  1  0
  3  4  1  0
  4  5  1  0
  5  6  1  0
  6  7  2  0
  7  8  1  0
  8  9  1  0
  9 10  2  0
 10 11  1  0
 11 12  2  0
 12 13  1  0
 13 14  2  0
 14 15  1  0
 14 16  1  0
 16 17  2  0
  9 18  1  0
 18  2  1  0
 18  5  2  0
 17 11  1  0
  1 19  1  0
  3 20  1  0
  7 21  1  0
  8 22  1  0
 12 23  1  0
 13 24  1  0
 16 25  1  0
 17 26  1  0
M  END
>  <smiles>  (24) 
N=c1[nH]sc2nc[nH]c(=Nc3ccc(F)cc3)c12

>  <score_type>  (24) 
oracle

>  <origin>  (24) 
adg

>  <m_score__min__energy>  (24) 
-6.4699999999999998

>  <m_primary>  (24) 
energy

$$$$
25:0
     RDKit          3D

 26 28  0  0  0  0  0  0  0  0999 V2000
   -0.8320   24.0480  -28.8490 C   0  0  0  0  0  0  0  0  0  0  0  0
   -2.1800   23.8840  -29.4650 C   0  0  0  0  0  0  0  0  0  0  0  0
   -2.7170   22.6700  -29.7690 N   0  0  0  0  0  0  0  0  0  0  0  0
   -3.9240   23.0410  -30.2280 C   0  0  0  0  0  0  0  0  0  0  0  0
   -4.8910   22.2050  -30.6770 N   0  0  0  0  0  0  0  0  0  0  0  0
   -6.0790   22.7270  -31.1140 C   0  0  0  0  0  0  0  0  0  0  0  0
   -7.1370   21.8060  -31.6020 C   0  0  0  0  0  0  0  0  0  0  0  0
   -8.5040   22.1330  -31.4950 C   0  0  0  0  0  0  0  0  0  0  0  0
   -9.4820   21.2540  -31.9690 C   0  0  0  0  0  0  0  0  0  0  0  0
   -9.1130   20.0430  -32.5590 C   0  0  0  0  0  0  0  0  0  0  0  0
   -7.7620   19.7120  -32.6810 C   0  0  0  0  0  0  0  0  0  0  0  0
   -6.7790   20.5870  -32.2100 C   0  0  0  0  0  0  0  0  0  0  0  0
   -6.2840   24.1320  -31.0720 C   0  0  0  0  0  0  0  0  0  0  0  0
   -5.2510   24.9530  -30.5950 C   0  0  0  0  0  0  0  0  0  0  0  0
   -5.3890   26.2040  -30.5370 O   0  0  0  0  0  0  0  0  0  0  0  0
   -4.1030   24.3600  -30.1940 N   0  0  0  0  0  0  0  0  0  0  0  0
   -3.0160   24.9240  -29.7070 N   0  0  0  0  0  0  0  0  0  0  0  0
   -0.9258   24.0366  -27.7531 H   0  0  0  0  0  0  0  0  0  0  0  0
   -0.1794   23.2226  -29.1698 H   0  0  0  0  0  0  0  0  0  0  0  0
   -0.3963   25.0058  -29.1698 H   0  0  0  0  0  0  0  0  0  0  0  0
   -8.8032   23.0865  -31.0353 H   0  0  0  0  0  0  0  0  0  0  0  0
  -10.5461   21.5170  -31.8770 H   0  0  0  0  0  0  0  0  0  0  0  0
   -9.8852   19.3513  -32.9268 H   0  0  0  0  0  0  0  0  0  0  0  0
   -7.4705   18.7602  -33.1490 H   0  0  0  0  0  0  0  0  0  0  0  0
   -5.7168   20.3213  -32.3151 H   0  0  0  0  0  0  0  0  0  0  0  0
   -7.2361   24.5688  -31.4076 H   0  0  0  0  0  0  0  0  0  0  0  0
  1  2  1  0
  2  3  1  0
  3  4  2  0
  4  5  1  0
  5  6  1  0
  6  7  1  0
  7  8  2  0
  8  9  1  0
  9 10  2  0
 10 11  1  0
 11 12  2  0
  6 13  2  0
 13 14  1  0
 14 15  2  0
 14 16  1  0
 16 17  1  0
 17  2  2  0
 16  4  1  0
 12  7  1  0
  1 18  1  0
  1 19  1  0
  1 20  1  0
  8 21  1  0
  9 22  1  0
 10 23  1  0
 11 24  1  0
 12 25  1  0
 13 26  1  0
M  CHG  1   5  -1
M  END
>  <UniqueID>  (25) 
22

>  <SMILES>  (25) 
Cc1nc2[n-]c(-c3ccccc3)cc(=O)n2n1

>  <Energy>  (25) 
71.46669176413934

>  <Genealogy>  (25) 
Cc1nc2[n-]c(-c3ccccc3)cc(=O)n2n1 (protonated)
Cc1nc2[n-]c(-c3ccccc3)cc(=O)n2n1 (3D coordinates assigned)
Cc1nc2[n-]c(-c3ccccc3)cc(=O)n2n1 (optimized conformer: 71.46669176413934 kcal/mol)

>  <smiles>  (25) 
Cc1nc2[nH]c(-c3ccccc3)cc(=O)n2n1

>  <score_type>  (25) 
oracle

>  <origin>  (25) 
adg

>  <m_score__min__energy>  (25) 
-7.7800000000000002

>  <m_primary>  (25) 
energy

$$$$
26:0
     RDKit          3D

 50 54  0  0  0  0  0  0  0  0999 V2000
   -4.6340   15.1550  -32.3230 C   0  0  0  0  0  0  0  0  0  0  0  0
   -5.4250   16.2300  -31.8330 O   0  0  0  0  0  0  0  0  0  0  0  0
   -5.6910   17.3770  -32.5850 C   0  0  0  0  0  0  0  0  0  0  0  0
   -6.2320   18.5020  -31.9540 C   0  0  0  0  0  0  0  0  0  0  0  0
   -6.4800   19.6620  -32.7010 C   0  0  0  0  0  0  0  0  0  0  0  0
   -7.0780   20.8430  -32.0530 C   0  0  0  0  0  0  0  0  0  0  0  0
   -8.4440   21.0440  -31.8690 C   0  0  0  0  0  0  0  0  0  0  0  0
   -8.6850   22.2980  -31.4300 N   0  0  0  0  0  0  0  0  0  0  0  0
   -7.4820   22.8830  -31.3320 C   0  0  0  0  0  0  0  0  0  0  0  0
   -7.2570   24.1680  -30.9670 N   0  0  0  0  0  0  0  0  0  0  0  0
   -5.9690   24.6180  -30.9320 C   0  0  0  0  0  0  0  0  0  0  0  0
   -4.9330   23.7770  -31.2330 N   0  0  0  0  0  0  0  0  0  0  0  0
   -5.1420   22.4770  -31.6010 C   0  0  0  0  0  0  0  0  0  0  0  0
   -4.0160   21.5990  -31.7730 N   0  0  0  0  0  0  0  0  0  0  0  0
   -3.3940   20.9610  -30.6140 C   0  0  0  0  0  0  0  0  0  0  0  0
   -1.8900   21.2880  -30.5740 C   0  0  0  0  0  0  0  0  0  0  0  0
   -1.2150   21.3610  -31.8290 O   0  0  0  0  0  0  0  0  0  0  0  0
   -1.9430   20.8630  -32.9460 C   0  0  0  0  0  0  0  0  0  0  0  0
   -2.0360   19.3160  -32.9080 C   0  0  0  0  0  0  0  0  0  0  0  0
   -1.0710   18.7720  -33.9590 C   0  0  0  0  0  0  0  0  0  0  0  0
   -0.2310   19.9500  -34.4110 C   0  0  0  0  0  0  0  0  0  0  0  0
   -1.1190   21.1600  -34.2070 C   0  0  0  0  0  0  0  0  0  0  0  0
   -3.3220   21.5680  -33.0600 C   0  0  0  0  0  0  0  0  0  0  0  0
   -6.4690   22.0340  -31.6810 C   0  0  0  0  0  0  0  0  0  0  0  0
   -6.2150   19.6610  -34.0760 C   0  0  0  0  0  0  0  0  0  0  0  0
   -5.6870   18.5150  -34.6730 C   0  0  0  0  0  0  0  0  0  0  0  0
   -5.4330   17.4110  -33.9230 N   0  0  0  0  0  0  0  0  0  0  0  0
   -4.2182   14.5899  -31.4758 H   0  0  0  0  0  0  0  0  0  0  0  0
   -5.2593   14.4894  -32.9361 H   0  0  0  0  0  0  0  0  0  0  0  0
   -3.8125   15.5540  -32.9361 H   0  0  0  0  0  0  0  0  0  0  0  0
   -6.4614   18.4766  -30.8785 H   0  0  0  0  0  0  0  0  0  0  0  0
   -9.2191   20.2861  -32.0555 H   0  0  0  0  0  0  0  0  0  0  0  0
   -9.6160   22.7290  -31.2370 H   0  0  0  0  0  0  0  0  0  0  0  0
   -5.7627   25.6637  -30.6600 H   0  0  0  0  0  0  0  0  0  0  0  0
   -3.8715   21.3315  -29.6949 H   0  0  0  0  0  0  0  0  0  0  0  0
   -3.5237   19.8713  -30.6900 H   0  0  0  0  0  0  0  0  0  0  0  0
   -1.7741   22.2622  -30.0764 H   0  0  0  0  0  0  0  0  0  0  0  0
   -1.4251   20.4428  -30.0453 H   0  0  0  0  0  0  0  0  0  0  0  0
   -1.7526   18.9471  -31.9112 H   0  0  0  0  0  0  0  0  0  0  0  0
   -3.0638   18.9845  -33.1173 H   0  0  0  0  0  0  0  0  0  0  0  0
   -0.4303   17.9923  -33.5213 H   0  0  0  0  0  0  0  0  0  0  0  0
   -1.6113   18.3175  -34.8025 H   0  0  0  0  0  0  0  0  0  0  0  0
    0.6812   20.0318  -33.8018 H   0  0  0  0  0  0  0  0  0  0  0  0
    0.0984   19.8483  -35.4556 H   0  0  0  0  0  0  0  0  0  0  0  0
   -0.5086   22.0636  -34.0623 H   0  0  0  0  0  0  0  0  0  0  0  0
   -1.7636   21.3422  -35.0795 H   0  0  0  0  0  0  0  0  0  0  0  0
   -3.1681   22.6001  -33.4081 H   0  0  0  0  0  0  0  0  0  0  0  0
   -3.9408   21.0027  -33.7724 H   0  0  0  0  0  0  0  0  0  0  0  0
   -6.4213   20.5563  -34.6809 H   0  0  0  0  0  0  0  0  0  0  0  0
   -5.4762   18.5058  -35.7526 H   0  0  0  0  0  0  0  0  0  0  0  0
  1  2  1  0
  2  3  1  0
  3  4  2  0
  4  5  1  0
  5  6  1  0
  6  7  2  0
  7  8  1  0
  8  9  1  0
  9 10  2  0
 10 11  1  0
 11 12  2  0
 12 13  1  0
 13 14  1  0
 14 15  1  0
 15 16  1  0
 16 17  1  0
 17 18  1  0
 18 19  1  0
 19 20  1  0
 20 21  1  0
 21 22  1  0
 18 23  1  0
 13 24  2  0
  5 25  2  0
 25 26  1  0
 26 27  2  0
 27  3  1  0
 24  6  1  0
 24  9  1  0
 23 14  1  0
 22 18  1  0
  1 28  1  0
  1 29  1  0
  1 30  1  0
  4 31  1  0
  7 32  1  0
  8 33  1  0
 11 34  1  0
 15 35  1  0
 15 36  1  0
 16 37  1  0
 16 38  1  0
 19 39  1  0
 19 40  1  0
 20 41  1  0
 20 42  1  0
 21 43  1  0
 21 44  1  0
 22 45  1  0
 22 46  1  0
 23 47  1  0
 23 48  1  0
 25 49  1  0
 26 50  1  0
M  END
>  <UniqueID>  (26) 
23

>  <SMILES>  (26) 
COc1cc(-c2c[nH]c3ncnc(N4CCOC5(CCCC5)C4)c23)ccn1

>  <Energy>  (26) 
110.57992672072308

>  <Genealogy>  (26) 
COc1cc(-c2c[nH]c3ncnc(N4CCOC5(CCCC5)C4)c23)ccn1 (3D coordinates assigned)
COc1cc(-c2c[nH]c3ncnc(N4CCOC5(CCCC5)C4)c23)ccn1 (nonaromatic ring conformer: 110.57992672072308 kcal/mol)

>  <smiles>  (26) 
COc1cc(-c2c[nH]c3ncnc(N4CCOC5(CCCC5)C4)c23)ccn1

>  <score_type>  (26) 
oracle

>  <origin>  (26) 
adg

>  <m_score__min__energy>  (26) 
-7.9699999999999998

>  <m_primary>  (26) 
energy

$$$$
27:0
     RDKit          3D

 25 26  0  0  0  0  0  0  0  0999 V2000
   -5.3570   26.4760  -30.4780 O   0  0  0  0  0  0  0  0  0  0  0  0
   -4.9060   25.3020  -30.5800 C   0  0  0  0  0  0  0  0  0  0  0  0
   -3.4970   25.0610  -30.4710 N   0  0  0  0  0  0  0  0  0  0  0  0
   -2.8160   24.4410  -29.3710 C   0  0  0  0  0  0  0  0  0  0  0  0
   -1.8700   25.1360  -28.5910 C   0  0  0  0  0  0  0  0  0  0  0  0
   -1.2120   24.4860  -27.5430 C   0  0  0  0  0  0  0  0  0  0  0  0
   -1.4770   23.1420  -27.2720 C   0  0  0  0  0  0  0  0  0  0  0  0
   -2.3970   22.4390  -28.0580 C   0  0  0  0  0  0  0  0  0  0  0  0
   -2.7190   20.7470  -27.7280 Cl  0  0  0  0  0  0  0  0  0  0  0  0
   -3.0570   23.0870  -29.1080 C   0  0  0  0  0  0  0  0  0  0  0  0
   -5.8380   24.1650  -30.7570 C   0  0  0  0  0  0  0  0  0  0  0  0
   -5.9760   23.5460  -32.0130 C   0  0  0  0  0  0  0  0  0  0  0  0
   -6.8580   22.4750  -32.1630 C   0  0  0  0  0  0  0  0  0  0  0  0
   -7.5940   22.0250  -31.0690 C   0  0  0  0  0  0  0  0  0  0  0  0
   -7.4370   22.6560  -29.8340 C   0  0  0  0  0  0  0  0  0  0  0  0
   -6.5740   23.7000  -29.7010 N   0  0  0  0  0  0  0  0  0  0  0  0
   -1.6491   26.1917  -28.8073 H   0  0  0  0  0  0  0  0  0  0  0  0
   -0.4827   25.0352  -26.9294 H   0  0  0  0  0  0  0  0  0  0  0  0
   -0.9630   22.6363  -26.4413 H   0  0  0  0  0  0  0  0  0  0  0  0
   -3.7706   22.5285  -29.7315 H   0  0  0  0  0  0  0  0  0  0  0  0
   -5.3912   23.9047  -32.8729 H   0  0  0  0  0  0  0  0  0  0  0  0
   -6.9718   21.9874  -33.1424 H   0  0  0  0  0  0  0  0  0  0  0  0
   -8.2915   21.1813  -31.1774 H   0  0  0  0  0  0  0  0  0  0  0  0
   -8.0134   22.3079  -28.9642 H   0  0  0  0  0  0  0  0  0  0  0  0
   -6.4860   24.1430  -28.7590 H   0  0  0  0  0  0  0  0  0  0  0  0
  1  2  2  0
  2  3  1  0
  3  4  1  0
  4  5  2  0
  5  6  1  0
  6  7  2  0
  7  8  1  0
  8  9  1  0
  8 10  2  0
  2 11  1  0
 11 12  2  0
 12 13  1  0
 13 14  2  0
 14 15  1  0
 15 16  2  0
 10  4  1  0
 16 11  1  0
  5 17  1  0
  6 18  1  0
  7 19  1  0
 10 20  1  0
 12 21  1  0
 13 22  1  0
 14 23  1  0
 15 24  1  0
 16 25  1  0
M  CHG  2   3  -1  16   1
M  END
>  <UniqueID>  (27) 
24

>  <SMILES>  (27) 
O=C([N-]c1cccc(Cl)c1)c1cccc[nH+]1

>  <Energy>  (27) 
30.01806950224363

>  <Genealogy>  (27) 
O=C([N-]c1cccc(Cl)c1)c1cccc[nH+]1 (protonated)
O=C([N-]c1cccc(Cl)c1)c1cccc[nH+]1 (3D coordinates assigned)
O=C([N-]c1cccc(Cl)c1)c1cccc[nH+]1 (optimized conformer: 30.01806950224363 kcal/mol)

>  <smiles>  (27) 
O=C(Nc1cccc(Cl)c1)c1ccccn1

>  <score_type>  (27) 
oracle

>  <origin>  (27) 
adg

>  <m_score__min__energy>  (27) 
-7.4000000000000004

>  <m_primary>  (27) 
energy

$$$$
28:0
     RDKit          3D

 33 34  0  0  0  0  0  0  0  0999 V2000
   -5.7640   16.6450  -34.2490 C   0  0  0  0  0  0  0  0  0  0  0  0
   -6.5680   17.6990  -33.5680 C   0  0  0  0  0  0  0  0  0  0  0  0
   -7.4710   17.4890  -32.5330 C   0  0  0  0  0  0  0  0  0  0  0  0
   -8.0210   18.6730  -32.0310 C   0  0  0  0  0  0  0  0  0  0  0  0
   -7.5440   19.8140  -32.6690 C   0  0  0  0  0  0  0  0  0  0  0  0
   -7.9270   21.2300  -32.3360 C   0  0  0  0  0  0  0  0  0  0  0  0
   -6.9600   21.9330  -31.4560 N   0  0  1  0  0  0  0  0  0  0  0  0
   -7.5790   22.4310  -30.2140 C   0  0  0  0  0  0  0  0  0  0  0  0
   -5.6760   21.2030  -31.2580 C   0  0  0  0  0  0  0  0  0  0  0  0
   -4.3880   21.9700  -31.6530 C   0  0  0  0  0  0  0  0  0  0  0  0
   -4.4060   23.4010  -31.1980 C   0  0  0  0  0  0  0  0  0  0  0  0
   -3.4520   24.0200  -30.4260 C   0  0  0  0  0  0  0  0  0  0  0  0
   -3.8250   25.2940  -30.2150 N   0  0  0  0  0  0  0  0  0  0  0  0
   -5.0020   25.4060  -30.8660 C   0  0  0  0  0  0  0  0  0  0  0  0
   -5.3940   24.2690  -31.4770 N   0  0  0  0  0  0  0  0  0  0  0  0
   -6.4240   19.3530  -33.8400 S   0  0  0  0  0  0  0  0  0  0  0  0
   -5.2788   16.0089  -33.4941 H   0  0  0  0  0  0  0  0  0  0  0  0
   -6.4240   16.0294  -34.8778 H   0  0  0  0  0  0  0  0  0  0  0  0
   -4.9958   17.1188  -34.8778 H   0  0  0  0  0  0  0  0  0  0  0  0
   -7.7276   16.4914  -32.1471 H   0  0  0  0  0  0  0  0  0  0  0  0
   -8.7568   18.6996  -31.2138 H   0  0  0  0  0  0  0  0  0  0  0  0
   -8.0107   21.7946  -33.2763 H   0  0  0  0  0  0  0  0  0  0  0  0
   -8.8764   21.1780  -31.7829 H   0  0  0  0  0  0  0  0  0  0  0  0
   -6.7030   22.7990  -31.9900 H   0  0  0  0  0  0  0  0  0  0  0  0
   -7.0522   22.0072  -29.3463 H   0  0  0  0  0  0  0  0  0  0  0  0
   -7.5103   23.5285  -30.1845 H   0  0  0  0  0  0  0  0  0  0  0  0
   -8.6363   22.1289  -30.1845 H   0  0  0  0  0  0  0  0  0  0  0  0
   -5.5985   20.9422  -30.1922 H   0  0  0  0  0  0  0  0  0  0  0  0
   -5.7221   20.3354  -31.9326 H   0  0  0  0  0  0  0  0  0  0  0  0
   -3.5236   21.4659  -31.1962 H   0  0  0  0  0  0  0  0  0  0  0  0
   -4.3237   21.9702  -32.7511 H   0  0  0  0  0  0  0  0  0  0  0  0
   -2.5339   23.5499  -30.0436 H   0  0  0  0  0  0  0  0  0  0  0  0
   -5.5868   26.3372  -30.8956 H   0  0  0  0  0  0  0  0  0  0  0  0
  1  2  1  0
  2  3  2  0
  3  4  1  0
  4  5  2  0
  5  6  1  0
  6  7  1  0
  7  8  1  0
  7  9  1  0
  9 10  1  0
 10 11  1  0
 11 12  2  0
 12 13  1  0
 13 14  1  0
 14 15  2  0
  5 16  1  0
 16  2  1  0
 15 11  1  0
  1 17  1  0
  1 18  1  0
  1 19  1  0
  3 20  1  0
  4 21  1  0
  6 22  1  0
  6 23  1  0
  7 24  1  6
  8 25  1  0
  8 26  1  0
  8 27  1  0
  9 28  1  0
  9 29  1  0
 10 30  1  0
 10 31  1  0
 12 32  1  0
 14 33  1  0
M  CHG  2   7   1  13  -1
M  END
>  <UniqueID>  (28) 
25

>  <SMILES>  (28) 
Cc1ccc(C[N@@H+](C)CCc2c[n-]cn2)s1

>  <Energy>  (28) 
91.4324922023219

>  <Genealogy>  (28) 
Cc1ccc(C[NH+](C)CCc2c[n-]cn2)s1 (protonated)
Cc1ccc(C[N@@H+](C)CCc2c[n-]cn2)s1 (chirality)
Cc1ccc(C[N@@H+](C)CCc2c[n-]cn2)s1 (3D coordinates assigned)
Cc1ccc(C[N@@H+](C)CCc2c[n-]cn2)s1 (optimized conformer: 91.4324922023219 kcal/mol)

>  <smiles>  (28) 
Cc1ccc(CN(C)CCc2c[nH]cn2)s1

>  <score_type>  (28) 
oracle

>  <origin>  (28) 
adg

>  <m_score__min__energy>  (28) 
-6.8300000000000001

>  <m_primary>  (28) 
energy

$$$$
29:0
     RDKit          3D

 29 30  0  0  0  0  0  0  0  0999 V2000
   -5.1770   17.4670  -34.8530 C   0  0  0  0  0  0  0  0  0  0  0  0
   -5.9940   16.5920  -33.4810 S   0  0  0  0  0  0  0  0  0  0  0  0
   -6.9200   18.0360  -32.9560 C   0  0  0  0  0  0  0  0  0  0  0  0
   -6.5860   19.3030  -33.4520 C   0  0  0  0  0  0  0  0  0  0  0  0
   -7.3050   20.4280  -33.0390 C   0  0  0  0  0  0  0  0  0  0  0  0
   -8.3570   20.2930  -32.1230 C   0  0  0  0  0  0  0  0  0  0  0  0
   -9.2730   21.7380  -31.5880 S   0  0  0  0  0  0  0  0  0  0  0  0
   -7.7830   22.6810  -31.2710 C   0  0  0  0  0  0  0  0  0  0  0  0
   -7.1910   23.4250  -32.2990 C   0  0  0  0  0  0  0  0  0  0  0  0
   -6.0310   24.1650  -32.0500 C   0  0  0  0  0  0  0  0  0  0  0  0
   -5.4530   24.1640  -30.7720 C   0  0  0  0  0  0  0  0  0  0  0  0
   -4.2670   24.9210  -30.5190 N   0  0  0  0  0  0  0  0  0  0  0  0
   -6.0450   23.4140  -29.7460 C   0  0  0  0  0  0  0  0  0  0  0  0
   -7.2050   22.6730  -29.9950 C   0  0  0  0  0  0  0  0  0  0  0  0
   -8.6900   19.0270  -31.6270 C   0  0  0  0  0  0  0  0  0  0  0  0
   -7.9710   17.9000  -32.0410 C   0  0  0  0  0  0  0  0  0  0  0  0
   -4.4792   18.2144  -34.4474 H   0  0  0  0  0  0  0  0  0  0  0  0
   -4.6227   16.7447  -35.4702 H   0  0  0  0  0  0  0  0  0  0  0  0
   -5.9356   17.9706  -35.4702 H   0  0  0  0  0  0  0  0  0  0  0  0
   -5.7573   19.4124  -34.1670 H   0  0  0  0  0  0  0  0  0  0  0  0
   -7.0447   21.4212  -33.4336 H   0  0  0  0  0  0  0  0  0  0  0  0
   -7.6390   23.4273  -33.3036 H   0  0  0  0  0  0  0  0  0  0  0  0
   -5.5700   24.7501  -32.8594 H   0  0  0  0  0  0  0  0  0  0  0  0
   -4.1500   25.4480  -29.6250 H   0  0  0  0  0  0  0  0  0  0  0  0
   -3.4960   24.9580  -31.2220 H   0  0  0  0  0  0  0  0  0  0  0  0
   -5.5958   23.4082  -28.7419 H   0  0  0  0  0  0  0  0  0  0  0  0
   -7.6639   22.0833  -29.1878 H   0  0  0  0  0  0  0  0  0  0  0  0
   -9.5179   18.9179  -30.9109 H   0  0  0  0  0  0  0  0  0  0  0  0
   -8.2318   16.9065  -31.6472 H   0  0  0  0  0  0  0  0  0  0  0  0
  1  2  1  0
  2  3  1  0
  3  4  2  0
  4  5  1  0
  5  6  2  0
  6  7  1  0
  7  8  1  0
  8  9  2  0
  9 10  1  0
 10 11  2  0
 11 12  1  0
 11 13  1  0
 13 14  2  0
  6 15  1  0
 15 16  2  0
 16  3  1  0
 14  8  1  0
  1 17  1  0
  1 18  1  0
  1 19  1  0
  4 20  1  0
  5 21  1  0
  9 22  1  0
 10 23  1  0
 12 24  1  0
 12 25  1  0
 13 26  1  0
 14 27  1  0
 15 28  1  0
 16 29  1  0
M  END
>  <UniqueID>  (29) 
26

>  <SMILES>  (29) 
CSc1ccc(Sc2ccc(N)cc2)cc1

>  <Energy>  (29) 
19.529905830898272

>  <Genealogy>  (29) 
CSc1ccc(Sc2ccc(N)cc2)cc1 (3D coordinates assigned)
CSc1ccc(Sc2ccc(N)cc2)cc1 (optimized conformer: 19.529905830898272 kcal/mol)

>  <smiles>  (29) 
CSc1ccc(Sc2ccc(N)cc2)cc1

>  <score_type>  (29) 
oracle

>  <origin>  (29) 
adg

>  <m_score__min__energy>  (29) 
-7.8899999999999997

>  <m_primary>  (29) 
energy

$$$$
30:0
     RDKit          3D

 74 78  0  0  0  0  0  0  0  0999 V2000
    1.7090   16.6020  -27.5070 C   0  0  0  0  0  0  0  0  0  0  0  0
    1.0030   17.1310  -28.7430 C   0  0  0  0  0  0  0  0  0  0  0  0
    0.6070   18.4810  -28.5130 O   0  0  0  0  0  0  0  0  0  0  0  0
   -0.5960   18.8710  -27.9040 C   0  0  0  0  0  0  0  0  0  0  0  0
   -1.0660   18.2580  -26.7240 C   0  0  0  0  0  0  0  0  0  0  0  0
   -2.2480   18.7000  -26.1230 C   0  0  0  0  0  0  0  0  0  0  0  0
   -2.9730   19.7490  -26.6870 C   0  0  0  0  0  0  0  0  0  0  0  0
   -2.5240   20.3570  -27.8610 C   0  0  0  0  0  0  0  0  0  0  0  0
   -1.3420   19.9190  -28.4830 C   0  0  0  0  0  0  0  0  0  0  0  0
   -0.9210   20.5190  -29.7260 N   0  0  0  0  0  0  0  0  0  0  0  0
   -1.0590   21.9570  -29.9600 C   0  0  0  0  0  0  0  0  0  0  0  0
   -2.0650   22.2250  -31.1000 C   0  0  0  0  0  0  0  0  0  0  0  0
   -2.3500   21.0330  -31.9400 N   0  0  0  0  0  0  0  0  0  0  0  0
   -3.4920   20.2280  -31.4450 C   0  0  0  0  0  0  0  0  0  0  0  0
   -4.7520   20.5240  -32.2680 C   0  0  0  0  0  0  0  0  0  0  0  0
   -5.2830   19.2860  -32.8770 N   0  0  0  0  0  0  0  0  0  0  0  0
   -6.2090   19.3820  -34.0190 C   0  0  1  0  0  0  0  0  0  0  0  0
   -5.9240   16.9540  -32.7580 C   0  0  0  0  0  0  0  0  0  0  0  0
   -5.3610   17.0370  -34.2540 C   0  0  0  0  0  0  0  0  0  0  0  0
   -7.3030   20.4140  -33.7550 C   0  0  0  0  0  0  0  0  0  0  0  0
   -5.8880   18.3330  -31.9690 C   0  0  1  0  0  0  0  0  0  0  0  0
   -7.9660   20.0870  -32.3430 C   0  0  0  0  0  0  0  0  0  0  0  0
   -5.7130   18.3740  -35.0490 C   0  0  0  0  0  0  0  0  0  0  0  0
   -8.0340   21.2870  -31.5040 N   0  0  0  0  0  0  0  0  0  0  0  0
   -7.3740   22.5400  -31.7330 C   0  0  0  0  0  0  0  0  0  0  0  0
   -7.7510   23.2550  -32.6980 O   0  0  0  0  0  0  0  0  0  0  0  0
   -6.3030   23.0390  -30.8510 C   0  0  0  0  0  0  0  0  0  0  0  0
   -6.0400   22.4230  -29.6190 C   0  0  0  0  0  0  0  0  0  0  0  0
   -5.0100   22.8980  -28.8000 C   0  0  0  0  0  0  0  0  0  0  0  0
   -4.2280   23.9820  -29.2150 C   0  0  0  0  0  0  0  0  0  0  0  0
   -4.4740   24.5900  -30.4500 C   0  0  0  0  0  0  0  0  0  0  0  0
   -3.6890   25.6580  -30.8680 O   0  0  0  0  0  0  0  0  0  0  0  0
   -5.5060   24.1190  -31.2680 C   0  0  0  0  0  0  0  0  0  0  0  0
   -7.3020   18.8930  -31.4990 C   0  0  0  0  0  0  0  0  0  0  0  0
   -1.1310   20.2200  -32.1710 C   0  0  0  0  0  0  0  0  0  0  0  0
   -0.5250   19.6770  -30.8620 C   0  0  0  0  0  0  0  0  0  0  0  0
    1.2039   16.9804  -26.6061 H   0  0  0  0  0  0  0  0  0  0  0  0
    1.6787   15.5024  -27.5098 H   0  0  0  0  0  0  0  0  0  0  0  0
    2.7558   16.9399  -27.5098 H   0  0  0  0  0  0  0  0  0  0  0  0
    1.6867   17.0894  -29.6037 H   0  0  0  0  0  0  0  0  0  0  0  0
    0.1159   16.5159  -28.9545 H   0  0  0  0  0  0  0  0  0  0  0  0
   -0.5000   17.4286  -26.2748 H   0  0  0  0  0  0  0  0  0  0  0  0
   -2.6076   18.2185  -25.2017 H   0  0  0  0  0  0  0  0  0  0  0  0
   -3.8992   20.0978  -26.2068 H   0  0  0  0  0  0  0  0  0  0  0  0
   -3.0992   21.1844  -28.3022 H   0  0  0  0  0  0  0  0  0  0  0  0
   -1.4176   22.4408  -29.0395 H   0  0  0  0  0  0  0  0  0  0  0  0
   -0.0791   22.3666  -30.2465 H   0  0  0  0  0  0  0  0  0  0  0  0
   -3.0100   22.5697  -30.6549 H   0  0  0  0  0  0  0  0  0  0  0  0
   -1.6101   22.9798  -31.7583 H   0  0  0  0  0  0  0  0  0  0  0  0
   -3.2461   19.1593  -31.5306 H   0  0  0  0  0  0  0  0  0  0  0  0
   -3.6832   20.4891  -30.3937 H   0  0  0  0  0  0  0  0  0  0  0  0
   -5.5184   20.9600  -31.6103 H   0  0  0  0  0  0  0  0  0  0  0  0
   -4.4914   21.2289  -33.0713 H   0  0  0  0  0  0  0  0  0  0  0  0
   -5.5719   20.1568  -34.4705 H   0  0  0  0  0  0  0  0  0  0  0  0
   -4.8321   18.7581  -35.5843 H   0  0  0  0  0  0  0  0  0  0  0  0
   -6.9675   16.6088  -32.8012 H   0  0  0  0  0  0  0  0  0  0  0  0
   -5.7744   16.1885  -34.8189 H   0  0  0  0  0  0  0  0  0  0  0  0
   -4.2648   17.0196  -34.1646 H   0  0  0  0  0  0  0  0  0  0  0  0
   -5.2671   16.2610  -32.2119 H   0  0  0  0  0  0  0  0  0  0  0  0
   -8.0654   20.3590  -34.5460 H   0  0  0  0  0  0  0  0  0  0  0  0
   -5.3310   18.1728  -31.0341 H   0  0  0  0  0  0  0  0  0  0  0  0
   -7.1044   19.3354  -30.5115 H   0  0  0  0  0  0  0  0  0  0  0  0
   -8.9695   19.7278  -32.6147 H   0  0  0  0  0  0  0  0  0  0  0  0
   -6.4981   18.1761  -35.7936 H   0  0  0  0  0  0  0  0  0  0  0  0
   -6.6455   21.5635  -29.2955 H   0  0  0  0  0  0  0  0  0  0  0  0
   -4.8146   22.4191  -27.8292 H   0  0  0  0  0  0  0  0  0  0  0  0
   -3.4196   24.3558  -28.5695 H   0  0  0  0  0  0  0  0  0  0  0  0
   -5.6946   24.5955  -32.2413 H   0  0  0  0  0  0  0  0  0  0  0  0
   -6.8756   21.4275  -33.7484 H   0  0  0  0  0  0  0  0  0  0  0  0
   -8.0083   18.0499  -31.5161 H   0  0  0  0  0  0  0  0  0  0  0  0
   -1.3919   19.3695  -32.8180 H   0  0  0  0  0  0  0  0  0  0  0  0
   -0.3797   20.8715  -32.6413 H   0  0  0  0  0  0  0  0  0  0  0  0
   -0.8840   18.6508  -30.6949 H   0  0  0  0  0  0  0  0  0  0  0  0
    0.5717   19.6850  -30.9466 H   0  0  0  0  0  0  0  0  0  0  0  0
  1  2  1  0
  2  3  1  0
  3  4  1  0
  4  5  2  0
  5  6  1  0
  6  7  2  0
  7  8  1  0
  8  9  2  0
  9 10  1  0
 10 11  1  0
 11 12  1  0
 12 13  1  0
 13 14  1  0
 14 15  1  0
 15 16  1  0
 16 17  1  0
 17 18  1  0
 18 19  1  0
 19 20  1  0
 20 21  1  0
 21 22  1  0
 22 23  1  0
 23 24  1  0
 24 25  1  0
 25 26  2  0
 25 27  1  0
 27 28  2  0
 28 29  1  0
 29 30  2  0
 30 31  1  0
 31 32  1  0
 31 33  2  0
 23 34  1  0
 13 35  1  0
 35 36  1  0
  9  4  1  0
 36 10  1  0
 21 16  1  0
 33 27  1  0
 34 17  1  0
  1 37  1  0
  1 38  1  0
  1 39  1  0
  2 40  1  0
  2 41  1  0
  5 42  1  0
  6 43  1  0
  7 44  1  0
  8 45  1  0
 11 46  1  0
 11 47  1  0
 12 48  1  0
 12 49  1  0
 14 50  1  0
 14 51  1  0
 15 52  1  0
 15 53  1  0
 17 54  1  1
 18 55  1  0
 18 56  1  0
 19 57  1  0
 19 58  1  0
 20 59  1  0
 20 60  1  0
 21 61  1  6
 22 62  1  0
 22 63  1  0
 23 64  1  0
 28 65  1  0
 29 66  1  0
 30 67  1  0
 33 68  1  0
 34 69  1  0
 34 70  1  0
 35 71  1  0
 35 72  1  0
 36 73  1  0
 36 74  1  0
M  CHG  2  24  -1  32  -1
M  END
>  <UniqueID>  (30) 
27

>  <SMILES>  (30) 
CCOc1ccccc1N1CCN(CCN2[C@@H]3CCC[C@@H]2CC([N-]C(=O)c2cccc([O-])c2)C3)CC1

>  <Energy>  (30) 
201.32489085638053

>  <Genealogy>  (30) 
CCOc1ccccc1N1CCN(CCN2C3CCCC2CC([N-]C(=O)c2cccc([O-])c2)C3)CC1 (protonated)
CCOc1ccccc1N1CCN(CCN2[C@@H]3CCC[C@@H]2CC([N-]C(=O)c2cccc([O-])c2)C3)CC1 (chirality)
CCOc1ccccc1N1CCN(CCN2[C@@H]3CCC[C@@H]2CC([N-]C(=O)c2cccc([O-])c2)C3)CC1 (3D coordinates assigned)
CCOc1ccccc1N1CCN(CCN2[C@@H]3CCC[C@@H]2CC([N-]C(=O)c2cccc([O-])c2)C3)CC1 (nonaromatic ring conformer: 201.32489085638053 kcal/mol)

>  <smiles>  (30) 
CCOc1ccccc1N1CCN(CCN2C3CCCC2CC(NC(=O)c2cccc(O)c2)C3)CC1

>  <score_type>  (30) 
oracle

>  <origin>  (30) 
adg

>  <m_score__min__energy>  (30) 
-12.279999999999999

>  <m_primary>  (30) 
energy

$$$$
31:0
     RDKit          3D

 37 38  0  0  0  0  0  0  0  0999 V2000
   -3.1470   20.4790  -33.4460 C   0  0  0  0  0  0  0  0  0  0  0  0
   -4.3140   19.7020  -33.2820 O   0  0  0  0  0  0  0  0  0  0  0  0
   -4.3430   18.6480  -34.2260 C   0  0  0  0  0  0  0  0  0  0  0  0
   -5.7690   18.1280  -34.4220 C   0  0  0  0  0  0  0  0  0  0  0  0
   -6.2010   17.3790  -33.2150 N   0  0  0  0  0  0  0  0  0  0  0  0
   -6.0470   15.9290  -33.4110 C   0  0  0  0  0  0  0  0  0  0  0  0
   -7.5910   17.6950  -32.8330 C   0  0  0  0  0  0  0  0  0  0  0  0
   -7.6820   19.1030  -32.3220 C   0  0  0  0  0  0  0  0  0  0  0  0
   -8.8330   19.7800  -31.9820 C   0  0  0  0  0  0  0  0  0  0  0  0
   -8.4830   20.9850  -31.5960 O   0  0  0  0  0  0  0  0  0  0  0  0
   -7.1710   21.0700  -31.6860 C   0  0  0  0  0  0  0  0  0  0  0  0
   -6.4080   22.2910  -31.3360 C   0  0  0  0  0  0  0  0  0  0  0  0
   -7.0470   23.5320  -31.1430 C   0  0  0  0  0  0  0  0  0  0  0  0
   -6.3010   24.6670  -30.8110 C   0  0  0  0  0  0  0  0  0  0  0  0
   -4.9150   24.5800  -30.6680 C   0  0  0  0  0  0  0  0  0  0  0  0
   -4.1950   25.6830  -30.3460 F   0  0  0  0  0  0  0  0  0  0  0  0
   -4.2710   23.3550  -30.8560 C   0  0  0  0  0  0  0  0  0  0  0  0
   -5.0110   22.2170  -31.1870 C   0  0  0  0  0  0  0  0  0  0  0  0
   -6.6300   19.9150  -32.1340 N   0  0  0  0  0  0  0  0  0  0  0  0
   -2.7436   20.7476  -32.4585 H   0  0  0  0  0  0  0  0  0  0  0  0
   -2.3962   19.8998  -34.0036 H   0  0  0  0  0  0  0  0  0  0  0  0
   -3.3918   21.3950  -34.0036 H   0  0  0  0  0  0  0  0  0  0  0  0
   -3.9587   19.0163  -35.1886 H   0  0  0  0  0  0  0  0  0  0  0  0
   -3.7174   17.8243  -33.8517 H   0  0  0  0  0  0  0  0  0  0  0  0
   -6.4481   18.9774  -34.5873 H   0  0  0  0  0  0  0  0  0  0  0  0
   -5.7949   17.4580  -35.2940 H   0  0  0  0  0  0  0  0  0  0  0  0
   -5.9940   15.4303  -32.4320 H   0  0  0  0  0  0  0  0  0  0  0  0
   -6.9090   15.5415  -33.9738 H   0  0  0  0  0  0  0  0  0  0  0  0
   -5.1228   15.7312  -33.9738 H   0  0  0  0  0  0  0  0  0  0  0  0
   -8.2431   17.5848  -33.7120 H   0  0  0  0  0  0  0  0  0  0  0  0
   -7.9103   17.0042  -32.0388 H   0  0  0  0  0  0  0  0  0  0  0  0
   -9.8580   19.3832  -32.0260 H   0  0  0  0  0  0  0  0  0  0  0  0
   -8.1387   23.6082  -31.2541 H   0  0  0  0  0  0  0  0  0  0  0  0
   -6.8079   25.6318  -30.6620 H   0  0  0  0  0  0  0  0  0  0  0  0
   -3.1790   23.2860  -30.7432 H   0  0  0  0  0  0  0  0  0  0  0  0
   -4.4971   21.2553  -31.3323 H   0  0  0  0  0  0  0  0  0  0  0  0
   -5.6280   19.6850  -32.3070 H   0  0  0  0  0  0  0  0  0  0  0  0
  1  2  1  0
  2  3  1  0
  3  4  1  0
  4  5  1  0
  5  6  1  0
  5  7  1  0
  7  8  1  0
  8  9  2  0
  9 10  1  0
 10 11  1  0
 11 12  1  0
 12 13  2  0
 13 14  1  0
 14 15  2  0
 15 16  1  0
 15 17  1  0
 17 18  2  0
 11 19  2  0
 19  8  1  0
 18 12  1  0
  1 20  1  0
  1 21  1  0
  1 22  1  0
  3 23  1  0
  3 24  1  0
  4 25  1  0
  4 26  1  0
  6 27  1  0
  6 28  1  0
  6 29  1  0
  7 30  1  0
  7 31  1  0
  9 32  1  0
 13 33  1  0
 14 34  1  0
 17 35  1  0
 18 36  1  0
 19 37  1  0
M  CHG  1  19   1
M  END
>  <UniqueID>  (31) 
28

>  <SMILES>  (31) 
COCCN(C)Cc1coc(-c2ccc(F)cc2)[nH+]1

>  <Energy>  (31) 
70.3145152508538

>  <Genealogy>  (31) 
COCCN(C)Cc1coc(-c2ccc(F)cc2)[nH+]1 (protonated)
COCCN(C)Cc1coc(-c2ccc(F)cc2)[nH+]1 (3D coordinates assigned)
COCCN(C)Cc1coc(-c2ccc(F)cc2)[nH+]1 (optimized conformer: 70.3145152508538 kcal/mol)

>  <smiles>  (31) 
COCCN(C)Cc1coc(-c2ccc(F)cc2)n1

>  <score_type>  (31) 
oracle

>  <origin>  (31) 
adg

>  <m_score__min__energy>  (31) 
-6.1399999999999997

>  <m_primary>  (31) 
energy

$$$$
32:0
     RDKit          3D

 47 50  0  0  0  0  0  0  0  0999 V2000
   -4.2210   22.9580  -28.5960 C   0  0  0  0  0  0  0  0  0  0  0  0
   -3.8950   24.1870  -29.4400 C   0  0  0  0  0  0  0  0  0  0  0  0
   -4.2410   23.9520  -30.8620 N   0  0  0  0  0  0  0  0  0  0  0  0
   -5.6480   24.3350  -31.1270 C   0  0  0  0  0  0  0  0  0  0  0  0
   -6.1580   25.2980  -30.0570 C   0  0  0  0  0  0  0  0  0  0  0  0
   -3.9860   22.5400  -31.2480 C   0  0  0  0  0  0  0  0  0  0  0  0
   -4.2300   22.2990  -32.7480 C   0  0  0  0  0  0  0  0  0  0  0  0
   -4.7270   20.9440  -33.0230 N   0  0  0  0  0  0  0  0  0  0  0  0
   -5.9980   20.5320  -32.7550 C   0  0  0  0  0  0  0  0  0  0  0  0
   -7.0810   21.3040  -32.3090 C   0  0  0  0  0  0  0  0  0  0  0  0
   -8.3100   20.6570  -32.0750 C   0  0  0  0  0  0  0  0  0  0  0  0
   -9.6910   21.5870  -31.5230 Cl  0  0  0  0  0  0  0  0  0  0  0  0
   -8.4380   19.2650  -32.2770 C   0  0  0  0  0  0  0  0  0  0  0  0
   -7.3390   18.5080  -32.7180 C   0  0  0  0  0  0  0  0  0  0  0  0
   -6.1410   19.1790  -32.9500 C   0  0  0  0  0  0  0  0  0  0  0  0
   -4.9180   18.7310  -33.3540 C   0  0  0  0  0  0  0  0  0  0  0  0
   -4.5410   17.4580  -33.6000 N   0  0  0  0  0  0  0  0  0  0  0  0
   -3.2550   17.1960  -33.9500 C   0  0  0  0  0  0  0  0  0  0  0  0
   -2.3110   18.2440  -34.0900 C   0  0  0  0  0  0  0  0  0  0  0  0
   -0.9810   17.9710  -34.4890 C   0  0  0  0  0  0  0  0  0  0  0  0
   -0.3240   16.1890  -34.7880 Br  0  0  0  0  0  0  0  0  0  0  0  0
   -0.0860   19.0210  -34.6910 C   0  0  0  0  0  0  0  0  0  0  0  0
   -0.4970   20.3390  -34.5280 C   0  0  0  0  0  0  0  0  0  0  0  0
   -1.7990   20.6290  -34.1260 C   0  0  0  0  0  0  0  0  0  0  0  0
   -2.7200   19.5980  -33.8530 C   0  0  0  0  0  0  0  0  0  0  0  0
   -4.0600   19.8100  -33.4230 C   0  0  0  0  0  0  0  0  0  0  0  0
   -4.1523   23.2171  -27.5292 H   0  0  0  0  0  0  0  0  0  0  0  0
   -5.2410   22.6158  -28.8253 H   0  0  0  0  0  0  0  0  0  0  0  0
   -3.5047   22.1553  -28.8253 H   0  0  0  0  0  0  0  0  0  0  0  0
   -4.4712   25.0458  -29.0652 H   0  0  0  0  0  0  0  0  0  0  0  0
   -2.8164   24.3905  -29.3671 H   0  0  0  0  0  0  0  0  0  0  0  0
   -5.7098   24.8232  -32.1108 H   0  0  0  0  0  0  0  0  0  0  0  0
   -6.2698   23.4277  -31.1104 H   0  0  0  0  0  0  0  0  0  0  0  0
   -5.9404   24.8871  -29.0601 H   0  0  0  0  0  0  0  0  0  0  0  0
   -5.6568   26.2706  -30.1701 H   0  0  0  0  0  0  0  0  0  0  0  0
   -7.2442   25.4299  -30.1701 H   0  0  0  0  0  0  0  0  0  0  0  0
   -2.9404   22.2912  -31.0139 H   0  0  0  0  0  0  0  0  0  0  0  0
   -4.6828   21.9026  -30.6839 H   0  0  0  0  0  0  0  0  0  0  0  0
   -4.9722   23.0273  -33.1069 H   0  0  0  0  0  0  0  0  0  0  0  0
   -3.2676   22.4156  -33.2678 H   0  0  0  0  0  0  0  0  0  0  0  0
   -6.9732   22.3865  -32.1462 H   0  0  0  0  0  0  0  0  0  0  0  0
   -9.4025   18.7710  -32.0883 H   0  0  0  0  0  0  0  0  0  0  0  0
   -7.4223   17.4224  -32.8746 H   0  0  0  0  0  0  0  0  0  0  0  0
   -2.9419   16.1565  -34.1272 H   0  0  0  0  0  0  0  0  0  0  0  0
    0.9527   18.8049  -34.9814 H   0  0  0  0  0  0  0  0  0  0  0  0
    0.2111   21.1591  -34.7179 H   0  0  0  0  0  0  0  0  0  0  0  0
   -2.1126   21.6780  -34.0202 H   0  0  0  0  0  0  0  0  0  0  0  0
  1  2  1  0
  2  3  1  0
  3  4  1  0
  4  5  1  0
  3  6  1  0
  6  7  1  0
  7  8  1  0
  8  9  1  0
  9 10  2  0
 10 11  1  0
 11 12  1  0
 11 13  2  0
 13 14  1  0
 14 15  2  0
 15 16  1  0
 16 17  2  0
 17 18  1  0
 18 19  2  0
 19 20  1  0
 20 21  1  0
 20 22  2  0
 22 23  1  0
 23 24  2  0
 24 25  1  0
 25 26  2  0
 26  8  1  0
 15  9  1  0
 26 16  1  0
 25 19  1  0
  1 27  1  0
  1 28  1  0
  1 29  1  0
  2 30  1  0
  2 31  1  0
  4 32  1  0
  4 33  1  0
  5 34  1  0
  5 35  1  0
  5 36  1  0
  6 37  1  0
  6 38  1  0
  7 39  1  0
  7 40  1  0
 10 41  1  0
 13 42  1  0
 14 43  1  0
 18 44  1  0
 22 45  1  0
 23 46  1  0
 24 47  1  0
M  END
>  <UniqueID>  (32) 
29

>  <SMILES>  (32) 
CCN(CC)CCn1c2cc(Cl)ccc2c2ncc3c(Br)cccc3c21

>  <Energy>  (32) 
104.4396265082329

>  <Genealogy>  (32) 
CCN(CC)CCn1c2cc(Cl)ccc2c2ncc3c(Br)cccc3c21 (3D coordinates assigned)
CCN(CC)CCn1c2cc(Cl)ccc2c2ncc3c(Br)cccc3c21 (optimized conformer: 104.4396265082329 kcal/mol)

>  <smiles>  (32) 
CCN(CC)CCn1c2cc(Cl)ccc2c2ncc3c(Br)cccc3c21

>  <score_type>  (32) 
oracle

>  <origin>  (32) 
adg

>  <m_score__min__energy>  (32) 
-9

>  <m_primary>  (32) 
energy

$$$$
33:0
     RDKit          3D

 16 17  0  0  0  0  0  0  0  0999 V2000
   -3.8690   25.2950  -30.4550 O   0  0  0  0  0  0  0  0  0  0  0  0
   -4.6350   24.3760  -30.8440 C   0  0  0  0  0  0  0  0  0  0  0  0
   -4.1970   23.2130  -31.5450 N   0  0  0  0  0  0  0  0  0  0  0  0
   -5.3900   22.4610  -31.7790 C   0  0  0  0  0  0  0  0  0  0  0  0
   -5.4920   21.2320  -32.4370 C   0  0  0  0  0  0  0  0  0  0  0  0
   -4.0770   20.4260  -33.0880 Cl  0  0  0  0  0  0  0  0  0  0  0  0
   -6.7670   20.6510  -32.5650 C   0  0  0  0  0  0  0  0  0  0  0  0
   -7.9080   21.2980  -32.0420 C   0  0  0  0  0  0  0  0  0  0  0  0
   -9.4880   20.5570  -32.2130 Cl  0  0  0  0  0  0  0  0  0  0  0  0
   -7.7840   22.5350  -31.3830 C   0  0  0  0  0  0  0  0  0  0  0  0
   -6.5120   23.0910  -31.2680 C   0  0  0  0  0  0  0  0  0  0  0  0
   -6.0770   24.3340  -30.6520 C   0  0  0  0  0  0  0  0  0  0  0  0
   -6.7960   25.1920  -30.0760 O   0  0  0  0  0  0  0  0  0  0  0  0
   -3.2210   22.9720  -31.8220 H   0  0  0  0  0  0  0  0  0  0  0  0
   -6.8760   19.6837  -33.0773 H   0  0  0  0  0  0  0  0  0  0  0  0
   -8.6655   23.0478  -30.9708 H   0  0  0  0  0  0  0  0  0  0  0  0
  1  2  2  0
  2  3  1  0
  3  4  1  0
  4  5  2  0
  5  6  1  0
  5  7  1  0
  7  8  2  0
  8  9  1  0
  8 10  1  0
 10 11  2  0
 11 12  1  0
 12 13  2  0
 12  2  1  0
 11  4  1  0
  3 14  1  0
  7 15  1  0
 10 16  1  0
M  END
>  <UniqueID>  (33) 
30

>  <SMILES>  (33) 
O=C1Nc2c(Cl)cc(Cl)cc2C1=O

>  <Energy>  (33) 
48.240583098041

>  <Genealogy>  (33) 
O=C1Nc2c(Cl)cc(Cl)cc2C1=O (3D coordinates assigned)
O=C1Nc2c(Cl)cc(Cl)cc2C1=O (nonaromatic ring conformer: 48.240583098041 kcal/mol)

>  <smiles>  (33) 
O=C1Nc2c(Cl)cc(Cl)cc2C1=O

>  <score_type>  (33) 
oracle

>  <origin>  (33) 
adg

>  <m_score__min__energy>  (33) 
-6.5599999999999996

>  <m_primary>  (33) 
energy

$$$$
34:0
     RDKit          3D

 36 37  0  0  0  0  0  0  0  0999 V2000
   -6.8241   24.2241  -33.3176 H   0  0  0  0  0  0  0  0  0  0  0  0
   -6.5860   23.7730  -32.3430 C   0  0  0  0  0  0  0  0  0  0  0  0
   -5.3700   23.8150  -31.8870 N   0  0  0  0  0  0  0  0  0  0  0  0
   -4.9490   24.5070  -30.7030 C   0  0  0  0  0  0  0  0  0  0  0  0
   -4.2210   25.5270  -30.8370 O   0  0  0  0  0  0  0  0  0  0  0  0
   -5.4000   24.0820  -29.3220 C   0  0  0  0  0  0  0  0  0  0  0  0
   -5.6523   24.9841  -28.7454 H   0  0  0  0  0  0  0  0  0  0  0  0
   -6.2652   23.4159  -29.4554 H   0  0  0  0  0  0  0  0  0  0  0  0
   -4.3360   23.2900  -28.5450 C   0  0  0  0  0  0  0  0  0  0  0  0
   -4.8233   22.7644  -27.7106 H   0  0  0  0  0  0  0  0  0  0  0  0
   -3.8648   22.5803  -29.2409 H   0  0  0  0  0  0  0  0  0  0  0  0
   -3.2570   24.1870  -27.9920 C   0  0  0  0  0  0  0  0  0  0  0  0
   -2.1110   24.4650  -28.7570 C   0  0  0  0  0  0  0  0  0  0  0  0
   -1.9956   24.0151  -29.7542 H   0  0  0  0  0  0  0  0  0  0  0  0
   -1.1160   25.3120  -28.2550 C   0  0  0  0  0  0  0  0  0  0  0  0
   -0.2202   25.5249  -28.8569 H   0  0  0  0  0  0  0  0  0  0  0  0
   -1.2600   25.8870  -26.9900 C   0  0  0  0  0  0  0  0  0  0  0  0
   -0.4778   26.5533  -26.5973 H   0  0  0  0  0  0  0  0  0  0  0  0
   -2.3960   25.6170  -26.2230 C   0  0  0  0  0  0  0  0  0  0  0  0
   -2.5068   26.0699  -25.2267 H   0  0  0  0  0  0  0  0  0  0  0  0
   -3.3930   24.7710  -26.7210 C   0  0  0  0  0  0  0  0  0  0  0  0
   -4.2870   24.5621  -26.1151 H   0  0  0  0  0  0  0  0  0  0  0  0
   -7.6620   23.1110  -31.5420 C   0  0  0  0  0  0  0  0  0  0  0  0
   -7.3981   23.1553  -30.4750 H   0  0  0  0  0  0  0  0  0  0  0  0
   -8.6120   23.6362  -31.7201 H   0  0  0  0  0  0  0  0  0  0  0  0
   -7.8170   21.6730  -31.9540 C   0  0  0  0  0  0  0  0  0  0  0  0
   -8.9930   20.9670  -31.6470 C   0  0  0  0  0  0  0  0  0  0  0  0
   -9.8166   21.4755  -31.1244 H   0  0  0  0  0  0  0  0  0  0  0  0
   -9.1200   19.6220  -32.0030 C   0  0  0  0  0  0  0  0  0  0  0  0
  -10.0456   19.0766  -31.7667 H   0  0  0  0  0  0  0  0  0  0  0  0
   -8.0730   18.9680  -32.6590 C   0  0  0  0  0  0  0  0  0  0  0  0
   -8.1761   17.9097  -32.9407 H   0  0  0  0  0  0  0  0  0  0  0  0
   -6.8950   19.6590  -32.9570 C   0  0  0  0  0  0  0  0  0  0  0  0
   -6.0708   19.1432  -33.4714 H   0  0  0  0  0  0  0  0  0  0  0  0
   -6.7630   21.0050  -32.6020 C   0  0  0  0  0  0  0  0  0  0  0  0
   -5.8313   21.5432  -32.8305 H   0  0  0  0  0  0  0  0  0  0  0  0
  1  2  1  0
  2  3  2  0
  3  4  1  0
  4  5  2  0
  4  6  1  0
  6  7  1  0
  6  8  1  0
  6  9  1  0
  9 10  1  0
  9 11  1  0
  9 12  1  0
 12 13  2  0
 13 14  1  0
 13 15  1  0
 15 16  1  0
 15 17  2  0
 17 18  1  0
 17 19  1  0
 19 20  1  0
 19 21  2  0
 21 22  1  0
  2 23  1  0
 23 24  1  0
 23 25  1  0
 23 26  1  0
 26 27  2  0
 27 28  1  0
 27 29  1  0
 29 30  1  0
 29 31  2  0
 31 32  1  0
 31 33  1  0
 33 34  1  0
 33 35  2  0
 35 36  1  0
 21 12  1  0
 35 26  1  0
M  END
>  <UniqueID>  (34) 
31

>  <SMILES>  (34) 
O=C(CCc1ccccc1)/N=C/Cc1ccccc1

>  <Energy>  (34) 
33.056586974066356

>  <Genealogy>  (34) 
O=C(CCc1ccccc1)/N=C/Cc1ccccc1 (cis-trans isomerization)
O=C(CCc1ccccc1)/N=C/Cc1ccccc1 (3D coordinates assigned)
O=C(CCc1ccccc1)/N=C/Cc1ccccc1 (optimized conformer: 33.056586974066356 kcal/mol)

>  <smiles>  (34) 
O=C(CCc1ccccc1)N=CCc1ccccc1

>  <score_type>  (34) 
oracle

>  <origin>  (34) 
adg

>  <m_score__min__energy>  (34) 
-8.0299999999999994

>  <m_primary>  (34) 
energy

$$$$
35:0
     RDKit          3D

 32 33  0  0  0  0  0  0  0  0999 V2000
    0.7960   25.6260  -23.7240 N   0  0  0  0  0  0  0  0  0  0  0  0
    0.6150   24.7910  -24.9140 C   0  0  0  0  0  0  0  0  0  0  0  0
   -0.8650   24.6590  -25.3010 C   0  0  0  0  0  0  0  0  0  0  0  0
   -1.0340   24.2830  -26.7510 C   0  0  0  0  0  0  0  0  0  0  0  0
   -0.2590   23.2550  -27.3100 C   0  0  0  0  0  0  0  0  0  0  0  0
   -0.4280   22.8960  -28.6500 C   0  0  0  0  0  0  0  0  0  0  0  0
   -1.3820   23.5460  -29.4360 C   0  0  0  0  0  0  0  0  0  0  0  0
   -2.1860   24.5510  -28.8860 C   0  0  0  0  0  0  0  0  0  0  0  0
   -3.1350   25.1800  -29.7050 O   0  0  0  0  0  0  0  0  0  0  0  0
   -4.3710   24.6330  -30.0810 C   0  0  0  0  0  0  0  0  0  0  0  0
   -4.4630   23.4510  -30.8400 C   0  0  0  0  0  0  0  0  0  0  0  0
   -5.7150   22.9450  -31.2050 C   0  0  0  0  0  0  0  0  0  0  0  0
   -6.8800   23.6190  -30.8270 C   0  0  0  0  0  0  0  0  0  0  0  0
   -6.7940   24.8040  -30.0920 C   0  0  0  0  0  0  0  0  0  0  0  0
   -5.5440   25.3120  -29.7250 C   0  0  0  0  0  0  0  0  0  0  0  0
   -1.9950   24.9310  -27.5450 C   0  0  0  0  0  0  0  0  0  0  0  0
    0.8830   26.6320  -23.9950 H   0  0  0  0  0  0  0  0  0  0  0  0
   -0.0070   25.5000  -23.0670 H   0  0  0  0  0  0  0  0  0  0  0  0
    1.6730   25.3330  -23.2340 H   0  0  0  0  0  0  0  0  0  0  0  0
    1.1630   25.2443  -25.7532 H   0  0  0  0  0  0  0  0  0  0  0  0
    0.9989   23.7856  -24.6866 H   0  0  0  0  0  0  0  0  0  0  0  0
   -1.3285   23.8819  -24.6755 H   0  0  0  0  0  0  0  0  0  0  0  0
   -1.3477   25.6346  -25.1427 H   0  0  0  0  0  0  0  0  0  0  0  0
    0.4839   22.7302  -26.6914 H   0  0  0  0  0  0  0  0  0  0  0  0
    0.1921   22.0993  -29.0868 H   0  0  0  0  0  0  0  0  0  0  0  0
   -1.5022   23.2666  -30.4931 H   0  0  0  0  0  0  0  0  0  0  0  0
   -3.5477   22.9237  -31.1470 H   0  0  0  0  0  0  0  0  0  0  0  0
   -5.7829   22.0159  -31.7900 H   0  0  0  0  0  0  0  0  0  0  0  0
   -7.8643   23.2164  -31.1082 H   0  0  0  0  0  0  0  0  0  0  0  0
   -7.7108   25.3381  -29.8016 H   0  0  0  0  0  0  0  0  0  0  0  0
   -5.4811   26.2499  -29.1536 H   0  0  0  0  0  0  0  0  0  0  0  0
   -2.6023   25.7412  -27.1151 H   0  0  0  0  0  0  0  0  0  0  0  0
  1  2  1  0
  2  3  1  0
  3  4  1  0
  4  5  2  0
  5  6  1  0
  6  7  2  0
  7  8  1  0
  8  9  1  0
  9 10  1  0
 10 11  2  0
 11 12  1  0
 12 13  2  0
 13 14  1  0
 14 15  2  0
  8 16  2  0
 16  4  1  0
 15 10  1  0
  1 17  1  0
  1 18  1  0
  1 19  1  0
  2 20  1  0
  2 21  1  0
  3 22  1  0
  3 23  1  0
  5 24  1  0
  6 25  1  0
  7 26  1  0
 11 27  1  0
 12 28  1  0
 13 29  1  0
 14 30  1  0
 15 31  1  0
 16 32  1  0
M  CHG  1   1   1
M  END
>  <UniqueID>  (35) 
32

>  <SMILES>  (35) 
[NH3+]CCc1cccc(Oc2ccccc2)c1

>  <Energy>  (35) 
34.65408015892755

>  <Genealogy>  (35) 
[NH3+]CCc1cccc(Oc2ccccc2)c1 (protonated)
[NH3+]CCc1cccc(Oc2ccccc2)c1 (3D coordinates assigned)
[NH3+]CCc1cccc(Oc2ccccc2)c1 (optimized conformer: 34.65408015892755 kcal/mol)

>  <smiles>  (35) 
NCCc1cccc(Oc2ccccc2)c1

>  <score_type>  (35) 
oracle

>  <origin>  (35) 
adg

>  <m_score__min__energy>  (35) 
-7.0300000000000002

>  <m_primary>  (35) 
energy

$$$$
36:0
     RDKit          3D

 38 39  0  0  0  0  0  0  0  0999 V2000
   -0.9100   26.4670  -28.2300 C   0  0  0  0  0  0  0  0  0  0  0  0
   -1.7560   25.5830  -28.9590 O   0  0  0  0  0  0  0  0  0  0  0  0
   -2.0430   24.2630  -28.5770 C   0  0  0  0  0  0  0  0  0  0  0  0
   -1.5740   23.7080  -27.3800 C   0  0  0  0  0  0  0  0  0  0  0  0
   -1.8820   22.4240  -27.0610 N   0  0  0  0  0  0  0  0  0  0  0  0
   -2.6250   21.6540  -27.8670 N   0  0  0  0  0  0  0  0  0  0  0  0
   -2.8960   20.2630  -27.4870 C   0  0  0  0  0  0  0  0  0  0  0  0
   -3.0910   22.1410  -29.0600 C   0  0  0  0  0  0  0  0  0  0  0  0
   -3.7280   21.3900  -29.8490 O   0  0  0  0  0  0  0  0  0  0  0  0
   -2.8280   23.4750  -29.4190 C   0  0  0  0  0  0  0  0  0  0  0  0
   -3.2940   24.0310  -30.6200 O   0  0  0  0  0  0  0  0  0  0  0  0
   -4.6120   24.4510  -30.8450 C   0  0  0  0  0  0  0  0  0  0  0  0
   -4.8970   25.6810  -30.8330 O   0  0  0  0  0  0  0  0  0  0  0  0
   -5.6600   23.4510  -31.1460 C   0  0  0  0  0  0  0  0  0  0  0  0
   -6.9240   23.5330  -30.5410 C   0  0  0  0  0  0  0  0  0  0  0  0
   -7.9100   22.5900  -30.8280 C   0  0  0  0  0  0  0  0  0  0  0  0
   -7.6590   21.5420  -31.7280 C   0  0  0  0  0  0  0  0  0  0  0  0
   -8.7450   20.5370  -32.0130 C   0  0  0  0  0  0  0  0  0  0  0  0
   -6.3860   21.4400  -32.3360 C   0  0  0  0  0  0  0  0  0  0  0  0
   -6.0710   20.3320  -33.3070 C   0  0  0  0  0  0  0  0  0  0  0  0
   -5.4010   22.4000  -32.0430 C   0  0  0  0  0  0  0  0  0  0  0  0
   -1.0592   26.3111  -27.1514 H   0  0  0  0  0  0  0  0  0  0  0  0
    0.1402   26.2653  -28.4878 H   0  0  0  0  0  0  0  0  0  0  0  0
   -1.1576   27.5073  -28.4878 H   0  0  0  0  0  0  0  0  0  0  0  0
   -0.9565   24.3114  -26.6984 H   0  0  0  0  0  0  0  0  0  0  0  0
   -1.5130   22.0450  -26.1590 H   0  0  0  0  0  0  0  0  0  0  0  0
   -2.9124   20.1790  -26.3903 H   0  0  0  0  0  0  0  0  0  0  0  0
   -3.8710   19.9553  -27.8929 H   0  0  0  0  0  0  0  0  0  0  0  0
   -2.1078   19.6118  -27.8929 H   0  0  0  0  0  0  0  0  0  0  0  0
   -7.1384   24.3483  -29.8344 H   0  0  0  0  0  0  0  0  0  0  0  0
   -8.8949   22.6679  -30.3443 H   0  0  0  0  0  0  0  0  0  0  0  0
   -9.1532   20.1592  -31.0640 H   0  0  0  0  0  0  0  0  0  0  0  0
   -9.5473   21.0183  -32.5915 H   0  0  0  0  0  0  0  0  0  0  0  0
   -8.3273   19.6999  -32.5915 H   0  0  0  0  0  0  0  0  0  0  0  0
   -5.8116   19.4194  -32.7504 H   0  0  0  0  0  0  0  0  0  0  0  0
   -6.9496   20.1382  -33.9398 H   0  0  0  0  0  0  0  0  0  0  0  0
   -5.2218   20.6294  -33.9398 H   0  0  0  0  0  0  0  0  0  0  0  0
   -4.4137   22.3275  -32.5226 H   0  0  0  0  0  0  0  0  0  0  0  0
  1  2  1  0
  2  3  1  0
  3  4  1  0
  4  5  2  0
  5  6  1  0
  6  7  1  0
  6  8  1  0
  8  9  2  0
  8 10  1  0
 10 11  1  0
 11 12  1  0
 12 13  2  0
 12 14  1  0
 14 15  2  0
 15 16  1  0
 16 17  2  0
 17 18  1  0
 17 19  1  0
 19 20  1  0
 19 21  2  0
 10  3  2  0
 21 14  1  0
  1 22  1  0
  1 23  1  0
  1 24  1  0
  4 25  1  0
  5 26  1  0
  7 27  1  0
  7 28  1  0
  7 29  1  0
 15 30  1  0
 16 31  1  0
 18 32  1  0
 18 33  1  0
 18 34  1  0
 20 35  1  0
 20 36  1  0
 20 37  1  0
 21 38  1  0
M  CHG  1   5   1
M  END
>  <UniqueID>  (36) 
33

>  <SMILES>  (36) 
COc1c[nH+]n(C)c(=O)c1OC(=O)c1ccc(C)c(C)c1

>  <Energy>  (36) 
46.09382035882541

>  <Genealogy>  (36) 
COc1c[nH+]n(C)c(=O)c1OC(=O)c1ccc(C)c(C)c1 (protonated)
COc1c[nH+]n(C)c(=O)c1OC(=O)c1ccc(C)c(C)c1 (3D coordinates assigned)
COc1c[nH+]n(C)c(=O)c1OC(=O)c1ccc(C)c(C)c1 (optimized conformer: 46.09382035882541 kcal/mol)

>  <smiles>  (36) 
COc1cnn(C)c(=O)c1OC(=O)c1ccc(C)c(C)c1

>  <score_type>  (36) 
oracle

>  <origin>  (36) 
adg

>  <m_score__min__energy>  (36) 
-6.8899999999999997

>  <m_primary>  (36) 
energy

$$$$
37:0
     RDKit          3D

 53 55  0  0  0  0  0  0  0  0999 V2000
    1.0060   16.2340  -27.3620 C   0  0  0  0  0  0  0  0  0  0  0  0
    1.4560   17.6010  -27.8790 C   0  0  0  0  0  0  0  0  0  0  0  0
    0.2850   18.5050  -28.3020 C   0  0  0  0  0  0  0  0  0  0  0  0
   -0.6980   18.8180  -27.1600 C   0  0  0  0  0  0  0  0  0  0  0  0
   -1.9310   19.3450  -27.6500 O   0  0  0  0  0  0  0  0  0  0  0  0
   -2.1140   20.6410  -28.1550 C   0  0  0  0  0  0  0  0  0  0  0  0
   -1.4150   21.1240  -29.2780 C   0  0  0  0  0  0  0  0  0  0  0  0
   -1.5810   22.4490  -29.6940 C   0  0  0  0  0  0  0  0  0  0  0  0
   -2.4310   23.3120  -28.9840 C   0  0  0  0  0  0  0  0  0  0  0  0
   -2.5160   24.7410  -29.3460 C   0  0  0  0  0  0  0  0  0  0  0  0
   -1.6010   25.5290  -28.9890 O   0  0  0  0  0  0  0  0  0  0  0  0
   -3.6090   25.2490  -30.1240 N   0  0  0  0  0  0  0  0  0  0  0  0
   -4.7770   24.4990  -30.4910 C   0  0  0  0  0  0  0  0  0  0  0  0
   -6.0670   24.9280  -30.1340 C   0  0  0  0  0  0  0  0  0  0  0  0
   -7.1860   24.1780  -30.5010 C   0  0  0  0  0  0  0  0  0  0  0  0
   -7.0350   22.9980  -31.2400 C   0  0  0  0  0  0  0  0  0  0  0  0
   -8.4550   22.0620  -31.7020 S   0  0  0  0  0  0  0  0  0  0  0  0
   -9.4880   22.9700  -32.3060 O   0  0  0  0  0  0  0  0  0  0  0  0
   -9.0550   21.4280  -30.4780 O   0  0  0  0  0  0  0  0  0  0  0  0
   -8.0110   20.8680  -32.8850 N   0  0  0  0  0  0  0  0  0  0  0  0
   -7.4770   19.7060  -32.6470 C   0  0  0  0  0  0  0  0  0  0  0  0
   -6.5110   18.9900  -33.5160 C   0  0  0  0  0  0  0  0  0  0  0  0
   -6.2810   17.6620  -32.7780 C   0  0  0  0  0  0  0  0  0  0  0  0
   -6.9480   17.7920  -31.3970 C   0  0  0  0  0  0  0  0  0  0  0  0
   -7.7390   19.0050  -31.4500 N   0  0  0  0  0  0  0  0  0  0  0  0
   -5.7490   22.5800  -31.6150 C   0  0  0  0  0  0  0  0  0  0  0  0
   -4.6290   23.3330  -31.2500 C   0  0  0  0  0  0  0  0  0  0  0  0
   -3.1650   22.8120  -27.8980 C   0  0  0  0  0  0  0  0  0  0  0  0
   -3.0150   21.4830  -27.4960 C   0  0  0  0  0  0  0  0  0  0  0  0
    1.0077   16.2393  -26.2620 H   0  0  0  0  0  0  0  0  0  0  0  0
   -0.0098   16.0205  -27.7260 H   0  0  0  0  0  0  0  0  0  0  0  0
    1.6964   15.4589  -27.7260 H   0  0  0  0  0  0  0  0  0  0  0  0
    2.0188   18.1083  -27.0816 H   0  0  0  0  0  0  0  0  0  0  0  0
    2.0726   17.4254  -28.7728 H   0  0  0  0  0  0  0  0  0  0  0  0
    0.6964   19.4541  -28.6761 H   0  0  0  0  0  0  0  0  0  0  0  0
   -0.2800   17.9601  -29.0726 H   0  0  0  0  0  0  0  0  0  0  0  0
   -0.9031   17.8918  -26.6032 H   0  0  0  0  0  0  0  0  0  0  0  0
   -0.2366   19.5765  -26.5105 H   0  0  0  0  0  0  0  0  0  0  0  0
   -0.7362   20.4571  -29.8298 H   0  0  0  0  0  0  0  0  0  0  0  0
   -1.0436   22.8163  -30.5807 H   0  0  0  0  0  0  0  0  0  0  0  0
   -6.1956   25.8592  -29.5627 H   0  0  0  0  0  0  0  0  0  0  0  0
   -8.1912   24.5156  -30.2083 H   0  0  0  0  0  0  0  0  0  0  0  0
   -6.9355   18.8159  -34.5157 H   0  0  0  0  0  0  0  0  0  0  0  0
   -5.5819   19.5553  -33.6806 H   0  0  0  0  0  0  0  0  0  0  0  0
   -6.7362   16.8336  -33.3407 H   0  0  0  0  0  0  0  0  0  0  0  0
   -5.2062   17.4511  -32.6761 H   0  0  0  0  0  0  0  0  0  0  0  0
   -7.5931   16.9230  -31.2004 H   0  0  0  0  0  0  0  0  0  0  0  0
   -6.2013   17.8320  -30.5903 H   0  0  0  0  0  0  0  0  0  0  0  0
   -8.3360   19.3580  -30.6700 H   0  0  0  0  0  0  0  0  0  0  0  0
   -5.6216   21.6562  -32.1984 H   0  0  0  0  0  0  0  0  0  0  0  0
   -3.6257   23.0069  -31.5613 H   0  0  0  0  0  0  0  0  0  0  0  0
   -3.8627   23.4706  -27.3600 H   0  0  0  0  0  0  0  0  0  0  0  0
   -3.6096   21.0960  -26.6553 H   0  0  0  0  0  0  0  0  0  0  0  0
  1  2  1  0
  2  3  1  0
  3  4  1  0
  4  5  1  0
  5  6  1  0
  6  7  2  0
  7  8  1  0
  8  9  2  0
  9 10  1  0
 10 11  2  0
 10 12  1  0
 12 13  1  0
 13 14  2  0
 14 15  1  0
 15 16  2  0
 16 17  1  0
 17 18  2  0
 17 19  2  0
 17 20  1  0
 20 21  2  3
 21 22  1  0
 22 23  1  0
 23 24  1  0
 24 25  1  0
 16 26  1  0
 26 27  2  0
  9 28  1  0
 28 29  2  0
 29  6  1  0
 27 13  1  0
 25 21  1  0
  1 30  1  0
  1 31  1  0
  1 32  1  0
  2 33  1  0
  2 34  1  0
  3 35  1  0
  3 36  1  0
  4 37  1  0
  4 38  1  0
  7 39  1  0
  8 40  1  0
 14 41  1  0
 15 42  1  0
 22 43  1  0
 22 44  1  0
 23 45  1  0
 23 46  1  0
 24 47  1  0
 24 48  1  0
 25 49  1  0
 26 50  1  0
 27 51  1  0
 28 52  1  0
 29 53  1  0
M  CHG  1  12  -1
M  END
>  <UniqueID>  (37) 
34

>  <SMILES>  (37) 
CCCCOc1ccc(C(=O)[N-]c2ccc(S(=O)(=O)N=C3CCCN3)cc2)cc1

>  <Energy>  (37) 
64.36528260589769

>  <Genealogy>  (37) 
CCCCOc1ccc(C(=O)[N-]c2ccc(S(=O)(=O)N=C3CCCN3)cc2)cc1 (protonated)
CCCCOc1ccc(C(=O)[N-]c2ccc(S(=O)(=O)N=C3CCCN3)cc2)cc1 (3D coordinates assigned)
CCCCOc1ccc(C(=O)[N-]c2ccc(S(=O)(=O)N=C3CCCN3)cc2)cc1 (nonaromatic ring conformer: 64.36528260589769 kcal/mol)

>  <smiles>  (37) 
CCCCOc1ccc(C(=O)Nc2ccc(S(=O)(=O)N=C3CCCN3)cc2)cc1

>  <score_type>  (37) 
oracle

>  <origin>  (37) 
adg

>  <m_score__min__energy>  (37) 
-11.279999999999999

>  <m_primary>  (37) 
energy

$$$$
38:0
     RDKit          3D

 41 44  0  0  0  0  0  0  0  0999 V2000
   -3.0130   23.9270  -28.2780 S   0  0  0  0  0  0  0  0  0  0  0  0
   -3.7330   24.5480  -29.5790 C   0  0  0  0  0  0  0  0  0  0  0  0
   -4.3000   25.0360  -30.6060 N   0  0  0  0  0  0  0  0  0  0  0  0
   -5.7300   24.8750  -30.8460 C   0  0  0  0  0  0  0  0  0  0  0  0
   -5.9860   23.5310  -31.4640 C   0  0  0  0  0  0  0  0  0  0  0  0
   -7.2290   22.9090  -31.3100 C   0  0  0  0  0  0  0  0  0  0  0  0
   -7.4640   21.6420  -31.8530 C   0  0  0  0  0  0  0  0  0  0  0  0
   -6.4510   20.9560  -32.5580 C   0  0  0  0  0  0  0  0  0  0  0  0
   -6.6360   19.5640  -33.1790 C   0  0  1  0  0  0  0  0  0  0  0  0
   -5.4900   19.0700  -34.1100 C   0  0  1  0  0  0  0  0  0  0  0  0
   -4.2780   18.5380  -33.3090 C   0  0  0  0  0  0  0  0  0  0  0  0
   -4.7230   17.3940  -32.3690 C   0  0  2  0  0  0  0  0  0  0  0  0
   -5.2890   16.2360  -33.2210 C   0  0  0  0  0  0  0  0  0  0  0  0
   -6.5020   16.7430  -34.0300 C   0  0  2  0  0  0  0  0  0  0  0  0
   -6.0450   17.8970  -34.9610 C   0  0  0  0  0  0  0  0  0  0  0  0
   -7.5930   17.2470  -33.0480 C   0  0  0  0  0  0  0  0  0  0  0  0
   -7.0340   18.4210  -32.2010 C   0  0  1  0  0  0  0  0  0  0  0  0
   -5.8210   17.8870  -31.4010 C   0  0  0  0  0  0  0  0  0  0  0  0
   -5.1970   21.5920  -32.6890 C   0  0  0  0  0  0  0  0  0  0  0  0
   -4.9650   22.8580  -32.1450 C   0  0  0  0  0  0  0  0  0  0  0  0
   -6.2725   24.9491  -29.8919 H   0  0  0  0  0  0  0  0  0  0  0  0
   -6.0782   25.6644  -31.5283 H   0  0  0  0  0  0  0  0  0  0  0  0
   -8.0296   23.4214  -30.7564 H   0  0  0  0  0  0  0  0  0  0  0  0
   -8.4515   21.1734  -31.7293 H   0  0  0  0  0  0  0  0  0  0  0  0
   -7.5104   19.7754  -33.8121 H   0  0  0  0  0  0  0  0  0  0  0  0
   -5.1537   19.9179  -34.7248 H   0  0  0  0  0  0  0  0  0  0  0  0
   -3.8506   19.3556  -32.7100 H   0  0  0  0  0  0  0  0  0  0  0  0
   -3.5231   18.1541  -34.0110 H   0  0  0  0  0  0  0  0  0  0  0  0
   -3.8559   17.0539  -31.7838 H   0  0  0  0  0  0  0  0  0  0  0  0
   -5.6049   15.4146  -32.5610 H   0  0  0  0  0  0  0  0  0  0  0  0
   -4.5127   15.8721  -33.9102 H   0  0  0  0  0  0  0  0  0  0  0  0
   -6.9171   15.9290  -34.6424 H   0  0  0  0  0  0  0  0  0  0  0  0
   -6.9021   18.2493  -35.5537 H   0  0  0  0  0  0  0  0  0  0  0  0
   -5.2553   17.5304  -35.6333 H   0  0  0  0  0  0  0  0  0  0  0  0
   -7.8921   16.4251  -32.3809 H   0  0  0  0  0  0  0  0  0  0  0  0
   -8.4654   17.5947  -33.6207 H   0  0  0  0  0  0  0  0  0  0  0  0
   -7.7707   18.8190  -31.4877 H   0  0  0  0  0  0  0  0  0  0  0  0
   -6.1452   17.0519  -30.7627 H   0  0  0  0  0  0  0  0  0  0  0  0
   -5.4149   18.6978  -30.7784 H   0  0  0  0  0  0  0  0  0  0  0  0
   -4.3870   21.0808  -33.2299 H   0  0  0  0  0  0  0  0  0  0  0  0
   -3.9761   23.3276  -32.2524 H   0  0  0  0  0  0  0  0  0  0  0  0
  1  2  2  0
  2  3  2  0
  3  4  1  0
  4  5  1  0
  5  6  2  0
  6  7  1  0
  7  8  2  0
  8  9  1  0
  9 10  1  0
 10 11  1  0
 11 12  1  0
 12 13  1  0
 13 14  1  0
 14 15  1  0
 14 16  1  0
 16 17  1  0
 17 18  1  0
  8 19  1  0
 19 20  2  0
 20  5  1  0
 17  9  1  0
 15 10  1  0
 18 12  1  0
  4 21  1  0
  4 22  1  0
  6 23  1  0
  7 24  1  0
  9 25  1  6
 10 26  1  6
 11 27  1  0
 11 28  1  0
 12 29  1  1
 13 30  1  0
 13 31  1  0
 14 32  1  6
 15 33  1  0
 15 34  1  0
 16 35  1  0
 16 36  1  0
 17 37  1  1
 18 38  1  0
 18 39  1  0
 19 40  1  0
 20 41  1  0
M  END
>  <UniqueID>  (38) 
35

>  <SMILES>  (38) 
S=C=NCc1ccc(C2C3CC4CC(C3)CC2C4)cc1

>  <Energy>  (38) 
50.924430449075444

>  <Genealogy>  (38) 
S=C=NCc1ccc(C2C3CC4CC(C3)CC2C4)cc1 (3D coordinates assigned)
S=C=NCc1ccc(C2C3CC4CC(C3)CC2C4)cc1 (nonaromatic ring conformer: 50.924430449075444 kcal/mol)

>  <smiles>  (38) 
S=C=NCc1ccc(C2C3CC4CC(C3)CC2C4)cc1

>  <score_type>  (38) 
oracle

>  <origin>  (38) 
adg

>  <m_score__min__energy>  (38) 
-8.5999999999999996

>  <m_primary>  (38) 
energy

$$$$
39:0
     RDKit          3D

 37 38  0  0  0  0  0  0  0  0999 V2000
   -8.2810   18.2060  -31.5880 C   0  0  0  0  0  0  0  0  0  0  0  0
   -7.2380   17.4580  -32.3640 C   0  0  0  0  0  0  0  0  0  0  0  0
   -7.1920   17.6860  -33.6970 O   0  0  0  0  0  0  0  0  0  0  0  0
   -6.0200   18.0870  -34.2530 C   0  0  0  0  0  0  0  0  0  0  0  0
   -5.3080   19.1330  -33.5600 N   0  0  0  0  0  0  0  0  0  0  0  0
   -6.0150   20.2410  -33.2230 C   0  0  0  0  0  0  0  0  0  0  0  0
   -3.2990   18.1260  -33.4810 O   0  0  0  0  0  0  0  0  0  0  0  0
   -3.4130   20.1240  -32.5390 N   0  0  0  0  0  0  0  0  0  0  0  0
   -4.0770   21.2380  -32.1860 C   0  0  0  0  0  0  0  0  0  0  0  0
   -3.4680   22.2750  -31.5080 C   0  0  0  0  0  0  0  0  0  0  0  0
   -4.1870   23.4140  -31.1590 C   0  0  0  0  0  0  0  0  0  0  0  0
   -3.5740   24.4600  -30.4760 O   0  0  0  0  0  0  0  0  0  0  0  0
   -3.2140   24.2390  -29.1210 C   0  0  0  0  0  0  0  0  0  0  0  0
   -5.5200   23.4650  -31.5150 C   0  0  0  0  0  0  0  0  0  0  0  0
   -6.2150   24.6140  -31.1540 O   0  0  0  0  0  0  0  0  0  0  0  0
   -6.5040   24.9610  -29.8110 C   0  0  0  0  0  0  0  0  0  0  0  0
   -6.1270   22.4330  -32.1890 C   0  0  0  0  0  0  0  0  0  0  0  0
   -5.4100   21.3000  -32.5360 C   0  0  0  0  0  0  0  0  0  0  0  0
   -4.0210   19.1010  -33.2100 C   0  0  0  0  0  0  0  0  0  0  0  0
   -7.2570   20.3980  -33.4970 N   0  0  0  0  0  0  0  0  0  0  0  0
   -8.0999   18.0762  -30.5108 H   0  0  0  0  0  0  0  0  0  0  0  0
   -8.2306   19.2751  -31.8420 H   0  0  0  0  0  0  0  0  0  0  0  0
   -9.2774   17.8154  -31.8420 H   0  0  0  0  0  0  0  0  0  0  0  0
   -6.2562   17.7253  -31.9461 H   0  0  0  0  0  0  0  0  0  0  0  0
   -7.5076   16.3965  -32.2616 H   0  0  0  0  0  0  0  0  0  0  0  0
   -5.3578   17.2103  -34.3076 H   0  0  0  0  0  0  0  0  0  0  0  0
   -6.2902   18.5141  -35.2301 H   0  0  0  0  0  0  0  0  0  0  0  0
   -2.4120   20.0710  -32.2780 H   0  0  0  0  0  0  0  0  0  0  0  0
   -2.4035   22.2001  -31.2410 H   0  0  0  0  0  0  0  0  0  0  0  0
   -3.9648   24.6999  -28.4623 H   0  0  0  0  0  0  0  0  0  0  0  0
   -3.1690   23.1575  -28.9253 H   0  0  0  0  0  0  0  0  0  0  0  0
   -2.2292   24.6883  -28.9253 H   0  0  0  0  0  0  0  0  0  0  0  0
   -5.9497   24.2955  -29.1329 H   0  0  0  0  0  0  0  0  0  0  0  0
   -6.2032   26.0033  -29.6287 H   0  0  0  0  0  0  0  0  0  0  0  0
   -7.5835   24.8537  -29.6287 H   0  0  0  0  0  0  0  0  0  0  0  0
   -7.1917   22.5073  -32.4553 H   0  0  0  0  0  0  0  0  0  0  0  0
   -7.9230   19.7160  -33.8640 H   0  0  0  0  0  0  0  0  0  0  0  0
  1  2  1  0
  2  3  1  0
  3  4  1  0
  4  5  1  0
  5  6  1  0
  6  7  2  0
  6  8  1  0
  8  9  1  0
  9 10  2  0
 10 11  1  0
 11 12  1  0
 12 13  1  0
 11 14  2  0
 14 15  1  0
 15 16  1  0
 14 17  1  0
 17 18  2  0
 18 19  1  0
 19 20  2  3
 19  5  1  0
 18  9  1  0
  1 21  1  0
  1 22  1  0
  1 23  1  0
  2 24  1  0
  2 25  1  0
  4 26  1  0
  4 27  1  0
  8 28  1  0
 10 29  1  0
 13 30  1  0
 13 31  1  0
 13 32  1  0
 16 33  1  0
 16 34  1  0
 16 35  1  0
 17 36  1  0
 20 37  1  0
M  END
>  <smiles>  (39) 
CCOCn1c(=O)[nH]c2cc(OC)c(OC)cc2c1=N

>  <score_type>  (39) 
oracle

>  <origin>  (39) 
adg

>  <m_score__min__energy>  (39) 
-5.6500000000000004

>  <m_primary>  (39) 
energy

$$$$
40:0
     RDKit          3D

 48 51  0  0  0  0  0  0  0  0999 V2000
   -1.7070   21.9060  -28.1400 C   0  0  0  0  0  0  0  0  0  0  0  0
   -2.8250   22.4470  -28.8570 N   0  0  0  0  0  0  0  0  0  0  0  0
   -3.7260   23.1280  -27.9970 C   0  0  0  0  0  0  0  0  0  0  0  0
   -4.5830   24.1820  -28.5640 C   0  0  0  0  0  0  0  0  0  0  0  0
   -4.5280   24.4190  -29.9700 N   0  0  0  0  0  0  0  0  0  0  0  0
   -5.8190   24.7410  -30.5460 C   0  0  0  0  0  0  0  0  0  0  0  0
   -5.9600   24.1770  -31.9200 C   0  0  0  0  0  0  0  0  0  0  0  0
   -6.6390   22.8760  -31.8920 N   0  0  0  0  0  0  0  0  0  0  0  0
   -7.8440   22.9020  -31.2510 C   0  0  0  0  0  0  0  0  0  0  0  0
   -8.5370   21.7410  -31.1960 N   0  0  0  0  0  0  0  0  0  0  0  0
   -8.0290   20.6250  -31.7610 C   0  0  0  0  0  0  0  0  0  0  0  0
   -8.7180   18.9280  -31.8540 S   0  0  0  0  0  0  0  0  0  0  0  0
   -7.3900   18.3060  -32.7180 C   0  0  0  0  0  0  0  0  0  0  0  0
   -6.4660   19.3660  -32.9190 C   0  0  0  0  0  0  0  0  0  0  0  0
   -6.8200   20.5480  -32.4160 C   0  0  0  0  0  0  0  0  0  0  0  0
   -6.1240   21.7780  -32.4550 C   0  0  0  0  0  0  0  0  0  0  0  0
   -4.9820   21.8020  -33.0350 N   0  0  0  0  0  0  0  0  0  0  0  0
   -5.2460   18.8910  -33.6830 C   0  0  0  0  0  0  0  0  0  0  0  0
   -4.6880   17.6250  -33.1190 C   0  0  0  0  0  0  0  0  0  0  0  0
   -5.6840   16.6460  -32.6050 C   0  0  0  0  0  0  0  0  0  0  0  0
   -7.0220   16.9390  -33.2770 C   0  0  0  0  0  0  0  0  0  0  0  0
   -3.8190   23.4290  -30.7370 C   0  0  0  0  0  0  0  0  0  0  0  0
   -2.5130   23.0880  -30.0930 C   0  0  0  0  0  0  0  0  0  0  0  0
   -1.8879   21.9935  -27.0585 H   0  0  0  0  0  0  0  0  0  0  0  0
   -1.5790   20.8463  -28.4058 H   0  0  0  0  0  0  0  0  0  0  0  0
   -0.7966   22.4632  -28.4058 H   0  0  0  0  0  0  0  0  0  0  0  0
   -4.3918   22.3696  -27.5593 H   0  0  0  0  0  0  0  0  0  0  0  0
   -3.0713   23.6646  -27.2946 H   0  0  0  0  0  0  0  0  0  0  0  0
   -5.6233   23.9221  -28.3186 H   0  0  0  0  0  0  0  0  0  0  0  0
   -4.1988   25.1114  -28.1182 H   0  0  0  0  0  0  0  0  0  0  0  0
   -6.6103   24.3243  -29.9055 H   0  0  0  0  0  0  0  0  0  0  0  0
   -5.9046   25.8357  -30.6115 H   0  0  0  0  0  0  0  0  0  0  0  0
   -6.5464   24.8747  -32.5359 H   0  0  0  0  0  0  0  0  0  0  0  0
   -4.9548   24.0365  -32.3440 H   0  0  0  0  0  0  0  0  0  0  0  0
   -8.2344   23.8258  -30.7992 H   0  0  0  0  0  0  0  0  0  0  0  0
   -4.7670   22.4300  -33.8190 H   0  0  0  0  0  0  0  0  0  0  0  0
   -5.5294   18.7176  -34.7316 H   0  0  0  0  0  0  0  0  0  0  0  0
   -4.4718   19.6682  -33.6023 H   0  0  0  0  0  0  0  0  0  0  0  0
   -4.1077   17.1302  -33.9118 H   0  0  0  0  0  0  0  0  0  0  0  0
   -4.0906   17.9268  -32.2461 H   0  0  0  0  0  0  0  0  0  0  0  0
   -5.3609   15.6227  -32.8467 H   0  0  0  0  0  0  0  0  0  0  0  0
   -5.7775   16.7333  -31.5125 H   0  0  0  0  0  0  0  0  0  0  0  0
   -6.9161   16.9742  -34.3713 H   0  0  0  0  0  0  0  0  0  0  0  0
   -7.7841   16.1701  -33.0821 H   0  0  0  0  0  0  0  0  0  0  0  0
   -4.4340   22.5197  -30.8072 H   0  0  0  0  0  0  0  0  0  0  0  0
   -3.6203   23.8373  -31.7389 H   0  0  0  0  0  0  0  0  0  0  0  0
   -1.9371   22.4085  -30.7385 H   0  0  0  0  0  0  0  0  0  0  0  0
   -1.9028   23.9887  -29.9307 H   0  0  0  0  0  0  0  0  0  0  0  0
  1  2  1  0
  2  3  1  0
  3  4  1  0
  4  5  1  0
  5  6  1  0
  6  7  1  0
  7  8  1  0
  8  9  1  0
  9 10  2  0
 10 11  1  0
 11 12  1  0
 12 13  1  0
 13 14  2  0
 14 15  1  0
 15 16  1  0
 16 17  2  3
 14 18  1  0
 18 19  1  0
 19 20  1  0
 20 21  1  0
  5 22  1  0
 22 23  1  0
 23  2  1  0
 16  8  1  0
 15 11  2  0
 21 13  1  0
  1 24  1  0
  1 25  1  0
  1 26  1  0
  3 27  1  0
  3 28  1  0
  4 29  1  0
  4 30  1  0
  6 31  1  0
  6 32  1  0
  7 33  1  0
  7 34  1  0
  9 35  1  0
 17 36  1  0
 18 37  1  0
 18 38  1  0
 19 39  1  0
 19 40  1  0
 20 41  1  0
 20 42  1  0
 21 43  1  0
 21 44  1  0
 22 45  1  0
 22 46  1  0
 23 47  1  0
 23 48  1  0
M  END
>  <smiles>  (40) 
CN1CCN(CCn2cnc3sc4c(c3c2=N)CCCC4)CC1

>  <score_type>  (40) 
oracle

>  <origin>  (40) 
adg

>  <m_score__min__energy>  (40) 
-8.3399999999999999

>  <m_primary>  (40) 
energy

$$$$
41:0
     RDKit          3D

 29 31  0  0  0  0  0  0  0  0999 V2000
   -2.2310   24.5540  -28.8510 C   0  0  0  0  0  0  0  0  0  0  0  0
   -3.1580   25.1950  -29.7220 O   0  0  0  0  0  0  0  0  0  0  0  0
   -4.3800   24.6370  -30.1270 C   0  0  0  0  0  0  0  0  0  0  0  0
   -5.5600   25.3070  -29.7840 C   0  0  0  0  0  0  0  0  0  0  0  0
   -6.8020   24.7870  -30.1540 C   0  0  0  0  0  0  0  0  0  0  0  0
   -6.8760   23.5960  -30.8800 C   0  0  0  0  0  0  0  0  0  0  0  0
   -5.7050   22.9200  -31.2520 C   0  0  0  0  0  0  0  0  0  0  0  0
   -5.7940   21.6550  -32.0110 C   0  0  0  0  0  0  0  0  0  0  0  0
   -4.8600   21.1530  -32.9170 C   0  0  0  0  0  0  0  0  0  0  0  0
   -5.2950   19.9770  -33.4330 N   0  0  0  0  0  0  0  0  0  0  0  0
   -6.4640   19.7250  -32.8700 N   0  0  0  0  0  0  0  0  0  0  0  0
   -7.2430   18.6360  -33.0700 C   0  0  0  0  0  0  0  0  0  0  0  0
   -8.4320   18.5340  -32.3360 C   0  0  0  0  0  0  0  0  0  0  0  0
   -8.7510   19.5550  -31.4200 C   0  0  0  0  0  0  0  0  0  0  0  0
   -7.9210   20.6280  -31.2590 N   0  0  0  0  0  0  0  0  0  0  0  0
   -6.7920   20.6990  -32.0140 C   0  0  0  0  0  0  0  0  0  0  0  0
   -4.4580   23.4360  -30.8590 C   0  0  0  0  0  0  0  0  0  0  0  0
   -2.5140   24.7497  -27.8062 H   0  0  0  0  0  0  0  0  0  0  0  0
   -2.2424   23.4699  -29.0371 H   0  0  0  0  0  0  0  0  0  0  0  0
   -1.2207   24.9474  -29.0371 H   0  0  0  0  0  0  0  0  0  0  0  0
   -5.5087   26.2495  -29.2192 H   0  0  0  0  0  0  0  0  0  0  0  0
   -7.7243   25.3166  -29.8731 H   0  0  0  0  0  0  0  0  0  0  0  0
   -7.8574   23.1864  -31.1613 H   0  0  0  0  0  0  0  0  0  0  0  0
   -3.9084   21.6405  -33.1755 H   0  0  0  0  0  0  0  0  0  0  0  0
   -6.9512   17.8547  -33.7872 H   0  0  0  0  0  0  0  0  0  0  0  0
   -9.1032   17.6733  -32.4725 H   0  0  0  0  0  0  0  0  0  0  0  0
   -9.6764   19.4879  -30.8291 H   0  0  0  0  0  0  0  0  0  0  0  0
   -8.1510   21.3570  -30.5490 H   0  0  0  0  0  0  0  0  0  0  0  0
   -3.5362   22.8980  -31.1250 H   0  0  0  0  0  0  0  0  0  0  0  0
  1  2  1  0
  2  3  1  0
  3  4  2  0
  4  5  1  0
  5  6  2  0
  6  7  1  0
  7  8  1  0
  8  9  1  0
  9 10  2  0
 10 11  1  0
 11 12  1  0
 12 13  2  0
 13 14  1  0
 14 15  2  0
 15 16  1  0
  7 17  2  0
 17  3  1  0
 16  8  2  0
 16 11  1  0
  1 18  1  0
  1 19  1  0
  1 20  1  0
  4 21  1  0
  5 22  1  0
  6 23  1  0
  9 24  1  0
 12 25  1  0
 13 26  1  0
 14 27  1  0
 15 28  1  0
 17 29  1  0
M  CHG  1  15   1
M  END
>  <UniqueID>  (41) 
36

>  <SMILES>  (41) 
COc1cccc(-c2cnn3ccc[nH+]c23)c1

>  <Energy>  (41) 
72.1471494744578

>  <Genealogy>  (41) 
COc1cccc(-c2cnn3ccc[nH+]c23)c1 (protonated)
COc1cccc(-c2cnn3ccc[nH+]c23)c1 (3D coordinates assigned)
COc1cccc(-c2cnn3ccc[nH+]c23)c1 (optimized conformer: 72.1471494744578 kcal/mol)

>  <smiles>  (41) 
COc1cccc(-c2cnn3cccnc23)c1

>  <score_type>  (41) 
oracle

>  <origin>  (41) 
adg

>  <m_score__min__energy>  (41) 
-6.8399999999999999

>  <m_primary>  (41) 
energy

$$$$
42:0
     RDKit          3D

 34 35  0  0  0  0  0  0  0  0999 V2000
  -10.5599   20.3442  -31.9369 H   0  0  0  0  0  0  0  0  0  0  0  0
   -9.4820   20.2060  -32.1070 C   0  0  0  0  0  0  0  0  0  0  0  0
   -9.0040   18.9890  -32.6010 C   0  0  0  0  0  0  0  0  0  0  0  0
   -9.7060   18.1703  -32.8177 H   0  0  0  0  0  0  0  0  0  0  0  0
   -7.6350   18.8110  -32.8200 C   0  0  0  0  0  0  0  0  0  0  0  0
   -7.2640   17.8573  -33.2234 H   0  0  0  0  0  0  0  0  0  0  0  0
   -6.7320   19.8450  -32.5270 C   0  0  0  0  0  0  0  0  0  0  0  0
   -7.2160   21.0730  -32.0370 C   0  0  0  0  0  0  0  0  0  0  0  0
   -8.5930   21.2470  -31.8290 C   0  0  0  0  0  0  0  0  0  0  0  0
   -8.9732   22.2056  -31.4461 H   0  0  0  0  0  0  0  0  0  0  0  0
   -6.3010   22.1380  -31.7460 N   0  0  0  0  0  0  0  0  0  0  0  0
   -6.6780   23.0850  -31.5120 H   0  0  0  0  0  0  0  0  0  0  0  0
   -4.8820   21.9130  -31.7240 C   0  0  0  0  0  0  0  0  0  0  0  0
   -4.0810   22.9210  -31.4810 N   0  0  0  0  0  0  0  0  0  0  0  0
   -4.1480   23.7640  -32.0970 H   0  0  0  0  0  0  0  0  0  0  0  0
   -3.0580   22.9790  -30.4290 C   0  0  0  0  0  0  0  0  0  0  0  0
   -2.0700   22.8109  -30.8825 H   0  0  0  0  0  0  0  0  0  0  0  0
   -3.2866   22.2022  -29.6845 H   0  0  0  0  0  0  0  0  0  0  0  0
   -3.0540   24.3370  -29.7180 C   0  0  0  0  0  0  0  0  0  0  0  0
   -2.0202   24.7073  -29.6538 H   0  0  0  0  0  0  0  0  0  0  0  0
   -3.4784   24.2088  -28.7113 H   0  0  0  0  0  0  0  0  0  0  0  0
   -3.8660   25.3080  -30.4480 N   0  0  0  0  0  0  0  0  0  0  0  0
   -5.2970   25.2980  -30.5320 C   0  0  0  0  0  0  0  0  0  0  0  0
   -5.8390   24.9330  -31.6080 O   0  0  0  0  0  0  0  0  0  0  0  0
   -6.1620   25.6870  -29.3730 C   0  0  0  0  0  0  0  0  0  0  0  0
   -5.6418   25.4531  -28.4324 H   0  0  0  0  0  0  0  0  0  0  0  0
   -6.3714   26.7660  -29.4176 H   0  0  0  0  0  0  0  0  0  0  0  0
   -7.1082   25.1277  -29.4176 H   0  0  0  0  0  0  0  0  0  0  0  0
   -4.3890   20.4860  -31.8680 C   0  0  0  0  0  0  0  0  0  0  0  0
   -3.3556   20.4992  -32.2448 H   0  0  0  0  0  0  0  0  0  0  0  0
   -4.4350   19.9993  -30.8826 H   0  0  0  0  0  0  0  0  0  0  0  0
   -5.2680   19.6940  -32.8440 C   0  0  0  0  0  0  0  0  0  0  0  0
   -5.0852   20.0600  -33.8651 H   0  0  0  0  0  0  0  0  0  0  0  0
   -5.0065   18.6294  -32.7528 H   0  0  0  0  0  0  0  0  0  0  0  0
  1  2  1  0
  2  3  2  0
  3  4  1  0
  3  5  1  0
  5  6  1  0
  5  7  2  0
  7  8  1  0
  8  9  2  0
  9 10  1  0
  8 11  1  0
 11 12  1  0
 11 13  1  0
 13 14  2  0
 14 15  1  0
 14 16  1  0
 16 17  1  0
 16 18  1  0
 16 19  1  0
 19 20  1  0
 19 21  1  0
 19 22  1  0
 22 23  1  0
 23 24  2  0
 23 25  1  0
 25 26  1  0
 25 27  1  0
 25 28  1  0
 13 29  1  0
 29 30  1  0
 29 31  1  0
 29 32  1  0
 32 33  1  0
 32 34  1  0
  9  2  1  0
 32  7  1  0
M  CHG  2  14   1  22  -1
M  END
>  <UniqueID>  (42) 
37

>  <SMILES>  (42) 
CC(=O)[N-]CC/[NH+]=C1\CCc2ccccc2N1

>  <Energy>  (42) 
31.118728577408575

>  <Genealogy>  (42) 
CC(=O)[N-]CC[NH+]=C1CCc2ccccc2N1 (protonated)
CC(=O)[N-]CC/[NH+]=C1\CCc2ccccc2N1 (cis-trans isomerization)
CC(=O)[N-]CC/[NH+]=C1\CCc2ccccc2N1 (3D coordinates assigned)
CC(=O)[N-]CC/[NH+]=C1\CCc2ccccc2N1 (nonaromatic ring conformer: 31.118728577408575 kcal/mol)

>  <smiles>  (42) 
CC(=O)NCCN=C1CCc2ccccc2N1

>  <score_type>  (42) 
oracle

>  <origin>  (42) 
adg

>  <m_score__min__energy>  (42) 
-7.75

>  <m_primary>  (42) 
energy

$$$$
43:0
     RDKit          3D

 52 54  0  0  0  0  0  0  0  0999 V2000
   -4.7318   16.3532  -34.8856 H   0  0  0  0  0  0  0  0  0  0  0  0
   -5.3690   16.8150  -34.1170 C   0  0  0  0  0  0  0  0  0  0  0  0
   -6.5110   16.1460  -33.6580 C   0  0  0  0  0  0  0  0  0  0  0  0
   -6.8980   14.8240  -34.2380 C   0  0  0  0  0  0  0  0  0  0  0  0
   -7.1060   14.1134  -33.4245 H   0  0  0  0  0  0  0  0  0  0  0  0
   -7.7984   14.9451  -34.8582 H   0  0  0  0  0  0  0  0  0  0  0  0
   -6.0744   14.4405  -34.8582 H   0  0  0  0  0  0  0  0  0  0  0  0
   -7.3320   16.7530  -32.7620 N   0  0  0  0  0  0  0  0  0  0  0  0
   -7.0320   17.9640  -32.2230 C   0  0  0  0  0  0  0  0  0  0  0  0
   -5.8340   18.6150  -32.5570 C   0  0  0  0  0  0  0  0  0  0  0  0
   -5.0390   18.0750  -33.5950 C   0  0  0  0  0  0  0  0  0  0  0  0
   -3.9190   18.8370  -34.2510 C   0  0  0  0  0  0  0  0  0  0  0  0
   -3.2724   19.2769  -33.4774 H   0  0  0  0  0  0  0  0  0  0  0  0
   -3.3278   18.1529  -34.8775 H   0  0  0  0  0  0  0  0  0  0  0  0
   -4.3382   19.6381  -34.8775 H   0  0  0  0  0  0  0  0  0  0  0  0
   -5.5480   19.8910  -31.8480 C   0  0  0  0  0  0  0  0  0  0  0  0
   -4.4440   20.0930  -31.1820 N   0  0  0  0  0  0  0  0  0  0  0  0
   -3.3020   20.9100  -31.5920 C   0  0  0  0  0  0  0  0  0  0  0  0
   -2.7564   21.2542  -30.7010 H   0  0  0  0  0  0  0  0  0  0  0  0
   -2.6262   20.3131  -32.2221 H   0  0  0  0  0  0  0  0  0  0  0  0
   -3.8120   22.1250  -32.3850 C   0  0  0  0  0  0  0  0  0  0  0  0
   -3.1021   22.3246  -33.2012 H   0  0  0  0  0  0  0  0  0  0  0  0
   -4.8186   21.8634  -32.7432 H   0  0  0  0  0  0  0  0  0  0  0  0
   -3.9590   23.3630  -31.5880 N   0  0  0  0  0  0  0  0  0  0  0  0
   -3.2630   23.3120  -30.2860 C   0  0  0  0  0  0  0  0  0  0  0  0
   -3.5732   22.4054  -29.7457 H   0  0  0  0  0  0  0  0  0  0  0  0
   -2.1777   23.2963  -30.4648 H   0  0  0  0  0  0  0  0  0  0  0  0
   -3.6080   24.5500  -29.4370 C   0  0  0  0  0  0  0  0  0  0  0  0
   -4.3751   24.2780  -28.6970 H   0  0  0  0  0  0  0  0  0  0  0  0
   -2.6953   24.8971  -28.9306 H   0  0  0  0  0  0  0  0  0  0  0  0
   -4.1000   25.5940  -30.2530 O   0  0  0  0  0  0  0  0  0  0  0  0
   -5.3580   25.2320  -30.8010 C   0  0  0  0  0  0  0  0  0  0  0  0
   -6.1098   25.2498  -29.9982 H   0  0  0  0  0  0  0  0  0  0  0  0
   -5.5946   25.9546  -31.5959 H   0  0  0  0  0  0  0  0  0  0  0  0
   -5.3480   23.8260  -31.4370 C   0  0  0  0  0  0  0  0  0  0  0  0
   -5.8986   23.1274  -30.7898 H   0  0  0  0  0  0  0  0  0  0  0  0
   -5.8287   23.8684  -32.4255 H   0  0  0  0  0  0  0  0  0  0  0  0
   -6.6960   20.8460  -31.5960 C   0  0  0  0  0  0  0  0  0  0  0  0
   -6.6498   21.6499  -32.3455 H   0  0  0  0  0  0  0  0  0  0  0  0
   -6.5812   21.2224  -30.5688 H   0  0  0  0  0  0  0  0  0  0  0  0
   -8.1080   20.1710  -31.6810 C   0  0  0  0  0  0  0  0  0  0  0  0
   -9.0680   20.8570  -30.6870 C   0  0  0  0  0  0  0  0  0  0  0  0
   -8.7525   20.6316  -29.6576 H   0  0  0  0  0  0  0  0  0  0  0  0
   -9.0458   21.9450  -30.8473 H   0  0  0  0  0  0  0  0  0  0  0  0
  -10.0902   20.4835  -30.8473 H   0  0  0  0  0  0  0  0  0  0  0  0
   -8.6860   20.3450  -33.1060 C   0  0  0  0  0  0  0  0  0  0  0  0
   -9.7374   20.6615  -33.0391 H   0  0  0  0  0  0  0  0  0  0  0  0
   -8.1068   21.1086  -33.6459 H   0  0  0  0  0  0  0  0  0  0  0  0
   -8.6246   19.3886  -33.6459 H   0  0  0  0  0  0  0  0  0  0  0  0
   -8.0210   18.6570  -31.3250 C   0  0  0  0  0  0  0  0  0  0  0  0
   -9.0118   18.1968  -31.4533 H   0  0  0  0  0  0  0  0  0  0  0  0
   -7.6892   18.5539  -30.2813 H   0  0  0  0  0  0  0  0  0  0  0  0
  1  2  1  0
  2  3  2  0
  3  4  1  0
  4  5  1  0
  4  6  1  0
  4  7  1  0
  3  8  1  0
  8  9  2  0
  9 10  1  0
 10 11  2  0
 11 12  1  0
 12 13  1  0
 12 14  1  0
 12 15  1  0
 10 16  1  0
 16 17  2  0
 17 18  1  0
 18 19  1  0
 18 20  1  0
 18 21  1  0
 21 22  1  0
 21 23  1  0
 21 24  1  0
 24 25  1  0
 25 26  1  0
 25 27  1  0
 25 28  1  0
 28 29  1  0
 28 30  1  0
 28 31  1  0
 31 32  1  0
 32 33  1  0
 32 34  1  0
 32 35  1  0
 35 36  1  0
 35 37  1  0
 16 38  1  0
 38 39  1  0
 38 40  1  0
 38 41  1  0
 41 42  1  0
 42 43  1  0
 42 44  1  0
 42 45  1  0
 41 46  1  0
 46 47  1  0
 46 48  1  0
 46 49  1  0
 41 50  1  0
 50 51  1  0
 50 52  1  0
 11  2  1  0
 35 24  1  0
 50  9  1  0
M  END
>  <UniqueID>  (43) 
38

>  <SMILES>  (43) 
Cc1cc(C)c2c(n1)CC(C)(C)C/C2=N/CCN1CCOCC1

>  <Energy>  (43) 
75.53225322481251

>  <Genealogy>  (43) 
Cc1cc(C)c2c(n1)CC(C)(C)C/C2=N/CCN1CCOCC1 (cis-trans isomerization)
Cc1cc(C)c2c(n1)CC(C)(C)C/C2=N/CCN1CCOCC1 (3D coordinates assigned)
Cc1cc(C)c2c(n1)CC(C)(C)C/C2=N/CCN1CCOCC1 (nonaromatic ring conformer: 75.53225322481251 kcal/mol)

>  <smiles>  (43) 
Cc1cc(C)c2c(n1)CC(C)(C)CC2=NCCN1CCOCC1

>  <score_type>  (43) 
oracle

>  <origin>  (43) 
adg

>  <m_score__min__energy>  (43) 
-8.5099999999999998

>  <m_primary>  (43) 
energy

$$$$
44:0
     RDKit          3D

 37 39  0  0  0  0  0  0  0  0999 V2000
   -2.7020   20.8130  -28.8660 C   0  0  0  0  0  0  0  0  0  0  0  0
   -3.3760   22.1210  -28.5910 C   0  0  0  0  0  0  0  0  0  0  0  0
   -4.2740   22.6630  -29.5140 C   0  0  0  0  0  0  0  0  0  0  0  0
   -4.8630   23.9050  -29.2360 C   0  0  0  0  0  0  0  0  0  0  0  0
   -5.7740   24.5090  -30.1790 N   0  0  0  0  0  0  0  0  0  0  0  0
   -6.8380   25.4000  -29.7060 C   0  0  0  0  0  0  0  0  0  0  0  0
   -5.7690   24.0840  -31.5850 C   0  0  0  0  0  0  0  0  0  0  0  0
   -6.6310   22.8620  -31.7650 C   0  0  0  0  0  0  0  0  0  0  0  0
   -8.0260   22.9630  -31.6360 C   0  0  0  0  0  0  0  0  0  0  0  0
   -8.8330   21.8280  -31.7490 C   0  0  0  0  0  0  0  0  0  0  0  0
   -8.2510   20.5740  -31.9830 C   0  0  0  0  0  0  0  0  0  0  0  0
   -9.0340   19.4180  -32.0970 C   0  0  0  0  0  0  0  0  0  0  0  0
   -8.4200   18.1850  -32.3250 C   0  0  0  0  0  0  0  0  0  0  0  0
   -7.0290   18.1190  -32.4360 C   0  0  0  0  0  0  0  0  0  0  0  0
   -6.2780   19.2490  -32.3240 N   0  0  0  0  0  0  0  0  0  0  0  0
   -6.8480   20.4650  -32.1030 C   0  0  0  0  0  0  0  0  0  0  0  0
   -6.0450   21.6060  -31.9910 C   0  0  0  0  0  0  0  0  0  0  0  0
   -4.5390   24.5500  -28.0780 N   0  0  0  0  0  0  0  0  0  0  0  0
   -3.6560   24.0100  -27.1980 C   0  0  0  0  0  0  0  0  0  0  0  0
   -3.0800   22.8090  -27.4580 N   0  0  0  0  0  0  0  0  0  0  0  0
   -2.4496   20.3232  -27.9139 H   0  0  0  0  0  0  0  0  0  0  0  0
   -3.3789   20.1659  -29.4431 H   0  0  0  0  0  0  0  0  0  0  0  0
   -1.7822   20.9887  -29.4431 H   0  0  0  0  0  0  0  0  0  0  0  0
   -4.5148   22.1249  -30.4427 H   0  0  0  0  0  0  0  0  0  0  0  0
   -6.8476   25.4080  -28.6061 H   0  0  0  0  0  0  0  0  0  0  0  0
   -6.6557   26.4188  -30.0785 H   0  0  0  0  0  0  0  0  0  0  0  0
   -7.8090   25.0416  -30.0785 H   0  0  0  0  0  0  0  0  0  0  0  0
   -6.1597   24.8991  -32.2118 H   0  0  0  0  0  0  0  0  0  0  0  0
   -4.7379   23.8413  -31.8817 H   0  0  0  0  0  0  0  0  0  0  0  0
   -8.4868   23.9433  -31.4445 H   0  0  0  0  0  0  0  0  0  0  0  0
   -9.9252   21.9182  -31.6544 H   0  0  0  0  0  0  0  0  0  0  0  0
  -10.1285   19.4815  -32.0072 H   0  0  0  0  0  0  0  0  0  0  0  0
   -9.0271   17.2723  -32.4166 H   0  0  0  0  0  0  0  0  0  0  0  0
   -6.5388   17.1506  -32.6145 H   0  0  0  0  0  0  0  0  0  0  0  0
   -4.9521   21.5186  -32.0802 H   0  0  0  0  0  0  0  0  0  0  0  0
   -4.9770   25.4680  -27.8420 H   0  0  0  0  0  0  0  0  0  0  0  0
   -3.4070   24.5481  -26.2715 H   0  0  0  0  0  0  0  0  0  0  0  0
  1  2  1  0
  2  3  2  0
  3  4  1  0
  4  5  1  0
  5  6  1  0
  5  7  1  0
  7  8  1  0
  8  9  2  0
  9 10  1  0
 10 11  2  0
 11 12  1  0
 12 13  2  0
 13 14  1  0
 14 15  2  0
 15 16  1  0
 16 17  2  0
  4 18  2  0
 18 19  1  0
 19 20  2  0
 20  2  1  0
 17  8  1  0
 16 11  1  0
  1 21  1  0
  1 22  1  0
  1 23  1  0
  3 24  1  0
  6 25  1  0
  6 26  1  0
  6 27  1  0
  7 28  1  0
  7 29  1  0
  9 30  1  0
 10 31  1  0
 12 32  1  0
 13 33  1  0
 14 34  1  0
 17 35  1  0
 18 36  1  0
 19 37  1  0
M  CHG  1  18   1
M  END
>  <UniqueID>  (44) 
39

>  <SMILES>  (44) 
Cc1cc(N(C)Cc2ccc3cccnc3c2)[nH+]cn1

>  <Energy>  (44) 
42.59583272506034

>  <Genealogy>  (44) 
Cc1cc(N(C)Cc2ccc3cccnc3c2)[nH+]cn1 (protonated)
Cc1cc(N(C)Cc2ccc3cccnc3c2)[nH+]cn1 (3D coordinates assigned)
Cc1cc(N(C)Cc2ccc3cccnc3c2)[nH+]cn1 (optimized conformer: 42.59583272506034 kcal/mol)

>  <smiles>  (44) 
Cc1cc(N(C)Cc2ccc3cccnc3c2)ncn1

>  <score_type>  (44) 
oracle

>  <origin>  (44) 
adg

>  <m_score__min__energy>  (44) 
-7.0700000000000003

>  <m_primary>  (44) 
energy

$$$$
45:0
     RDKit          3D

 26 27  0  0  0  0  0  0  0  0999 V2000
   -5.5820   19.7990  -34.1690 O   0  0  0  0  0  0  0  0  0  0  0  0
   -6.4350   19.3040  -33.3860 C   0  0  0  0  0  0  0  0  0  0  0  0
   -6.8500   17.8880  -33.4150 C   0  0  0  0  0  0  0  0  0  0  0  0
   -7.9460   17.8210  -32.3430 C   0  0  0  0  0  0  0  0  0  0  0  0
   -7.9290   19.1660  -31.5920 C   0  0  0  0  0  0  0  0  0  0  0  0
   -7.0870   20.0540  -32.3770 N   0  0  0  0  0  0  0  0  0  0  0  0
   -6.6420   21.3350  -31.9100 C   0  0  0  0  0  0  0  0  0  0  0  0
   -5.2740   21.5640  -31.6970 C   0  0  0  0  0  0  0  0  0  0  0  0
   -4.8280   22.8000  -31.2240 C   0  0  0  0  0  0  0  0  0  0  0  0
   -5.7400   23.8390  -30.9750 C   0  0  0  0  0  0  0  0  0  0  0  0
   -5.2640   25.1570  -30.4170 C   0  0  0  0  0  0  0  0  0  0  0  0
   -5.7370   25.3020  -29.1260 F   0  0  0  0  0  0  0  0  0  0  0  0
   -3.8810   25.2110  -30.4000 F   0  0  0  0  0  0  0  0  0  0  0  0
   -5.7280   26.2090  -31.1890 F   0  0  0  0  0  0  0  0  0  0  0  0
   -7.1120   23.6020  -31.1670 C   0  0  0  0  0  0  0  0  0  0  0  0
   -7.5640   22.3640  -31.6400 C   0  0  0  0  0  0  0  0  0  0  0  0
   -9.2840   22.1470  -31.9320 Cl  0  0  0  0  0  0  0  0  0  0  0  0
   -7.2477   17.6138  -34.4032 H   0  0  0  0  0  0  0  0  0  0  0  0
   -6.0197   17.1915  -33.2267 H   0  0  0  0  0  0  0  0  0  0  0  0
   -8.9270   17.6653  -32.8157 H   0  0  0  0  0  0  0  0  0  0  0  0
   -7.7663   16.9846  -31.6516 H   0  0  0  0  0  0  0  0  0  0  0  0
   -8.9477   19.5739  -31.5158 H   0  0  0  0  0  0  0  0  0  0  0  0
   -7.5461   19.0499  -30.5673 H   0  0  0  0  0  0  0  0  0  0  0  0
   -4.5477   20.7642  -31.9041 H   0  0  0  0  0  0  0  0  0  0  0  0
   -3.7547   22.9611  -31.0451 H   0  0  0  0  0  0  0  0  0  0  0  0
   -7.8383   24.3973  -30.9434 H   0  0  0  0  0  0  0  0  0  0  0  0
  1  2  2  0
  2  3  1  0
  3  4  1  0
  4  5  1  0
  5  6  1  0
  6  7  1  0
  7  8  2  0
  8  9  1  0
  9 10  2  0
 10 11  1  0
 11 12  1  0
 11 13  1  0
 11 14  1  0
 10 15  1  0
 15 16  2  0
 16 17  1  0
  6  2  1  0
 16  7  1  0
  3 18  1  0
  3 19  1  0
  4 20  1  0
  4 21  1  0
  5 22  1  0
  5 23  1  0
  8 24  1  0
  9 25  1  0
 15 26  1  0
M  END
>  <UniqueID>  (45) 
40

>  <SMILES>  (45) 
O=C1CCCN1c1ccc(C(F)(F)F)cc1Cl

>  <Energy>  (45) 
38.97540539338915

>  <Genealogy>  (45) 
O=C1CCCN1c1ccc(C(F)(F)F)cc1Cl (3D coordinates assigned)
O=C1CCCN1c1ccc(C(F)(F)F)cc1Cl (nonaromatic ring conformer: 38.97540539338915 kcal/mol)

>  <smiles>  (45) 
O=C1CCCN1c1ccc(C(F)(F)F)cc1Cl

>  <score_type>  (45) 
oracle

>  <origin>  (45) 
adg

>  <m_score__min__energy>  (45) 
-6.3499999999999996

>  <m_primary>  (45) 
energy

$$$$
