0:0
     RDKit          3D

 51 52  0  0  0  0  0  0  0  0999 V2000
   -1.8890   25.1100  -28.0190 C   0  0  0  0  0  0  0  0  0  0  0  0
   -2.4200   25.1980  -29.3370 O   0  0  0  0  0  0  0  0  0  0  0  0
   -2.9540   24.1160  -30.0540 C   0  0  0  0  0  0  0  0  0  0  0  0
   -2.2390   22.9220  -30.2430 C   0  0  0  0  0  0  0  0  0  0  0  0
   -2.7890   21.8730  -30.9850 C   0  0  0  0  0  0  0  0  0  0  0  0
   -2.0620   20.7380  -31.1600 N   0  0  0  0  0  0  0  0  0  0  0  0
   -2.5290   19.6930  -31.8850 C   0  0  0  0  0  0  0  0  0  0  0  0
   -3.7810   19.7630  -32.4880 C   0  0  0  0  0  0  0  0  0  0  0  0
   -4.5770   20.9120  -32.3410 C   0  0  0  0  0  0  0  0  0  0  0  0
   -5.8910   20.9420  -33.0990 C   0  0  0  0  0  0  0  0  0  0  0  0
   -6.1430   19.6480  -33.9020 C   0  0  0  0  0  0  0  0  0  0  0  0
   -6.9980   18.6750  -33.1890 N   0  0  0  0  0  0  0  0  0  0  0  0
   -7.5920   19.2500  -31.9670 C   0  0  0  0  0  0  0  0  0  0  0  0
   -8.8610   20.0670  -32.2670 C   0  0  0  0  0  0  0  0  0  0  0  0
   -9.1000   21.1800  -31.2350 C   0  0  0  0  0  0  0  0  0  0  0  0
   -7.9770   22.1440  -31.2330 N   0  0  0  0  0  0  0  0  0  0  0  0
   -7.6120   22.5230  -29.8560 C   0  0  0  0  0  0  0  0  0  0  0  0
   -8.3400   23.3550  -31.9890 C   0  0  0  0  0  0  0  0  0  0  0  0
   -4.0780   21.9950  -31.5590 C   0  0  0  0  0  0  0  0  0  0  0  0
   -4.7980   23.1890  -31.3380 C   0  0  0  0  0  0  0  0  0  0  0  0
   -4.2360   24.2480  -30.5980 C   0  0  0  0  0  0  0  0  0  0  0  0
   -4.9180   25.4600  -30.3950 O   0  0  0  0  0  0  0  0  0  0  0  0
   -6.1200   25.5990  -29.6450 C   0  0  0  0  0  0  0  0  0  0  0  0
   -2.6994   25.2443  -27.2875 H   0  0  0  0  0  0  0  0  0  0  0  0
   -1.4255   24.1228  -27.8756 H   0  0  0  0  0  0  0  0  0  0  0  0
   -1.1318   25.8949  -27.8756 H   0  0  0  0  0  0  0  0  0  0  0  0
   -1.2369   22.8114  -29.8030 H   0  0  0  0  0  0  0  0  0  0  0  0
   -1.9164   18.7863  -31.9973 H   0  0  0  0  0  0  0  0  0  0  0  0
   -4.1498   18.9145  -33.0830 H   0  0  0  0  0  0  0  0  0  0  0  0
   -6.7109   21.0742  -32.3776 H   0  0  0  0  0  0  0  0  0  0  0  0
   -5.8430   21.7749  -33.8159 H   0  0  0  0  0  0  0  0  0  0  0  0
   -6.6333   19.9150  -34.8498 H   0  0  0  0  0  0  0  0  0  0  0  0
   -5.1662   19.1680  -34.0618 H   0  0  0  0  0  0  0  0  0  0  0  0
   -7.7820   18.3970  -33.8250 H   0  0  0  0  0  0  0  0  0  0  0  0
   -6.4590   17.8090  -32.9720 H   0  0  0  0  0  0  0  0  0  0  0  0
   -7.8520   18.4310  -31.2802 H   0  0  0  0  0  0  0  0  0  0  0  0
   -6.8515   19.9285  -31.5184 H   0  0  0  0  0  0  0  0  0  0  0  0
   -8.7594   20.5243  -33.2623 H   0  0  0  0  0  0  0  0  0  0  0  0
   -9.7193   19.3804  -32.2239 H   0  0  0  0  0  0  0  0  0  0  0  0
  -10.0304   21.7106  -31.4856 H   0  0  0  0  0  0  0  0  0  0  0  0
   -9.1761   20.7249  -30.2365 H   0  0  0  0  0  0  0  0  0  0  0  0
   -8.1932   21.9195  -29.1433 H   0  0  0  0  0  0  0  0  0  0  0  0
   -6.5383   22.3431  -29.6986 H   0  0  0  0  0  0  0  0  0  0  0  0
   -7.8321   23.5892  -29.6986 H   0  0  0  0  0  0  0  0  0  0  0  0
   -8.5832   24.1663  -31.2871 H   0  0  0  0  0  0  0  0  0  0  0  0
   -7.4936   23.6594  -32.6222 H   0  0  0  0  0  0  0  0  0  0  0  0
   -9.2143   23.1436  -32.6222 H   0  0  0  0  0  0  0  0  0  0  0  0
   -5.8127   23.2941  -31.7496 H   0  0  0  0  0  0  0  0  0  0  0  0
   -5.8868   25.5720  -28.5703 H   0  0  0  0  0  0  0  0  0  0  0  0
   -6.5978   26.5584  -29.8926 H   0  0  0  0  0  0  0  0  0  0  0  0
   -6.8041   24.7740  -29.8926 H   0  0  0  0  0  0  0  0  0  0  0  0
  1  2  1  0
  2  3  1  0
  3  4  2  0
  4  5  1  0
  5  6  2  0
  6  7  1  0
  7  8  2  0
  8  9  1  0
  9 10  1  0
 10 11  1  0
 11 12  1  0
 12 13  1  0
 13 14  1  0
 14 15  1  0
 15 16  1  0
 16 17  1  0
 16 18  1  0
  9 19  2  0
 19 20  1  0
 20 21  2  0
 21 22  1  0
 22 23  1  0
 21  3  1  0
 19  5  1  0
  1 24  1  0
  1 25  1  0
  1 26  1  0
  4 27  1  0
  7 28  1  0
  8 29  1  0
 10 30  1  0
 10 31  1  0
 11 32  1  0
 11 33  1  0
 12 34  1  0
 12 35  1  0
 13 36  1  0
 13 37  1  0
 14 38  1  0
 14 39  1  0
 15 40  1  0
 15 41  1  0
 17 42  1  0
 17 43  1  0
 17 44  1  0
 18 45  1  0
 18 46  1  0
 18 47  1  0
 20 48  1  0
 23 49  1  0
 23 50  1  0
 23 51  1  0
M  CHG  1  12   1
M  END
>  <UniqueID>  (1) 
1

>  <SMILES>  (1) 
COc1cc2nccc(CC[NH2+]CCCN(C)C)c2cc1OC

>  <Energy>  (1) 
49.47718538019433

>  <Genealogy>  (1) 
COc1cc2nccc(CC[NH2+]CCCN(C)C)c2cc1OC (protonated)
COc1cc2nccc(CC[NH2+]CCCN(C)C)c2cc1OC (3D coordinates assigned)
COc1cc2nccc(CC[NH2+]CCCN(C)C)c2cc1OC (optimized conformer: 49.47718538019433 kcal/mol)

>  <smiles>  (1) 
COc1cc2nccc(CCNCCCN(C)C)c2cc1OC

>  <score_type>  (1) 
oracle

>  <origin>  (1) 
adg

>  <m_score__min__energy>  (1) 
-6.4699999999999998

>  <m_primary>  (1) 
energy

$$$$
1:0
     RDKit          3D

 75 78  0  0  0  0  0  0  0  0999 V2000
   -3.2730   21.5160  -27.5880 C   0  0  0  0  0  0  0  0  0  0  0  0
   -1.8910   20.8830  -27.7530 C   0  0  0  0  0  0  0  0  0  0  0  0
   -1.9030   19.4300  -27.4620 N   0  0  0  0  0  0  0  0  0  0  0  0
   -2.4310   19.1500  -26.1080 C   0  0  0  0  0  0  0  0  0  0  0  0
   -3.8370   18.5660  -26.1990 C   0  0  0  0  0  0  0  0  0  0  0  0
   -0.6080   18.7480  -27.7140 C   0  0  0  0  0  0  0  0  0  0  0  0
    0.2180   19.3610  -28.8640 C   0  0  0  0  0  0  0  0  0  0  0  0
   -0.4520   19.1850  -30.0980 O   0  0  0  0  0  0  0  0  0  0  0  0
    0.1080   18.1180  -30.8480 C   0  0  0  0  0  0  0  0  0  0  0  0
    0.3030   18.5460  -32.3040 C   0  0  0  0  0  0  0  0  0  0  0  0
    0.1400   19.9450  -32.4540 O   0  0  0  0  0  0  0  0  0  0  0  0
   -0.5220   20.2650  -33.6640 C   0  0  0  0  0  0  0  0  0  0  0  0
   -2.0450   20.2660  -33.4580 C   0  0  0  0  0  0  0  0  0  0  0  0
   -2.4330   20.0940  -32.0450 N   0  0  0  0  0  0  0  0  0  0  0  0
   -3.3950   21.0930  -31.6090 C   0  0  0  0  0  0  0  0  0  0  0  0
   -3.0350   22.2610  -30.8720 C   0  0  0  0  0  0  0  0  0  0  0  0
   -1.7010   22.5250  -30.4880 C   0  0  0  0  0  0  0  0  0  0  0  0
   -1.3680   23.6490  -29.7180 C   0  0  0  0  0  0  0  0  0  0  0  0
   -0.0480   23.9120  -29.3120 O   0  0  0  0  0  0  0  0  0  0  0  0
    0.5090   23.5320  -28.0590 C   0  0  0  0  0  0  0  0  0  0  0  0
   -2.3660   24.5390  -29.3230 C   0  0  0  0  0  0  0  0  0  0  0  0
   -1.9950   25.6450  -28.5390 O   0  0  0  0  0  0  0  0  0  0  0  0
   -1.8790   25.6340  -27.1210 C   0  0  0  0  0  0  0  0  0  0  0  0
   -3.6950   24.3100  -29.7080 C   0  0  0  0  0  0  0  0  0  0  0  0
   -4.0530   23.2000  -30.5090 C   0  0  0  0  0  0  0  0  0  0  0  0
   -5.3620   23.0190  -30.9260 N   0  0  0  0  0  0  0  0  0  0  0  0
   -6.2910   24.1650  -30.9460 C   0  0  0  0  0  0  0  0  0  0  0  0
   -5.7320   21.8060  -31.4600 C   0  0  0  0  0  0  0  0  0  0  0  0
   -4.7560   20.8940  -31.8590 C   0  0  0  0  0  0  0  0  0  0  0  0
   -5.4690   19.5760  -32.6400 S   0  0  0  0  0  0  0  0  0  0  0  0
   -7.0400   20.1130  -32.4180 C   0  0  0  0  0  0  0  0  0  0  0  0
   -8.2060   19.4430  -32.7780 C   0  0  0  0  0  0  0  0  0  0  0  0
   -9.4350   19.9960  -32.4030 C   0  0  0  0  0  0  0  0  0  0  0  0
   -9.4740   21.1820  -31.6520 C   0  0  0  0  0  0  0  0  0  0  0  0
   -8.2870   21.8390  -31.2910 C   0  0  0  0  0  0  0  0  0  0  0  0
   -7.0490   21.3250  -31.7260 C   0  0  0  0  0  0  0  0  0  0  0  0
   -3.5027   21.6212  -26.5174 H   0  0  0  0  0  0  0  0  0  0  0  0
   -3.2813   22.5077  -28.0639 H   0  0  0  0  0  0  0  0  0  0  0  0
   -4.0293   20.8745  -28.0639 H   0  0  0  0  0  0  0  0  0  0  0  0
   -1.5534   21.0341  -28.7890 H   0  0  0  0  0  0  0  0  0  0  0  0
   -1.2105   21.3656  -27.0360 H   0  0  0  0  0  0  0  0  0  0  0  0
   -1.7708   18.4297  -25.6027 H   0  0  0  0  0  0  0  0  0  0  0  0
   -2.4699   20.0897  -25.5375 H   0  0  0  0  0  0  0  0  0  0  0  0
   -4.2322   18.4019  -25.1856 H   0  0  0  0  0  0  0  0  0  0  0  0
   -4.4910   19.2669  -26.7385 H   0  0  0  0  0  0  0  0  0  0  0  0
   -3.8019   17.6080  -26.7385 H   0  0  0  0  0  0  0  0  0  0  0  0
   -0.0075   18.7976  -26.7937 H   0  0  0  0  0  0  0  0  0  0  0  0
   -0.8474   17.7167  -28.0125 H   0  0  0  0  0  0  0  0  0  0  0  0
    0.3581   20.4359  -28.6772 H   0  0  0  0  0  0  0  0  0  0  0  0
    1.1943   18.8564  -28.9118 H   0  0  0  0  0  0  0  0  0  0  0  0
    1.0812   17.8412  -30.4165 H   0  0  0  0  0  0  0  0  0  0  0  0
   -0.5746   17.2561  -30.8139 H   0  0  0  0  0  0  0  0  0  0  0  0
    1.3166   18.2664  -32.6273 H   0  0  0  0  0  0  0  0  0  0  0  0
   -0.4547   18.0395  -32.9199 H   0  0  0  0  0  0  0  0  0  0  0  0
   -0.2011   21.2621  -33.9999 H   0  0  0  0  0  0  0  0  0  0  0  0
   -0.2651   19.5099  -34.4215 H   0  0  0  0  0  0  0  0  0  0  0  0
   -2.4474   21.2242  -33.8184 H   0  0  0  0  0  0  0  0  0  0  0  0
   -2.4547   19.4132  -34.0191 H   0  0  0  0  0  0  0  0  0  0  0  0
   -1.5680   20.1910  -31.4640 H   0  0  0  0  0  0  0  0  0  0  0  0
   -2.7480   19.1170  -31.8630 H   0  0  0  0  0  0  0  0  0  0  0  0
   -0.9051   21.8328  -30.8003 H   0  0  0  0  0  0  0  0  0  0  0  0
   -0.1019   23.9488  -27.2447 H   0  0  0  0  0  0  0  0  0  0  0  0
    0.5236   22.4348  -27.9818 H   0  0  0  0  0  0  0  0  0  0  0  0
    1.5359   23.9187  -27.9818 H   0  0  0  0  0  0  0  0  0  0  0  0
   -2.8781   25.7287  -26.6706 H   0  0  0  0  0  0  0  0  0  0  0  0
   -1.4194   24.6882  -26.7980 H   0  0  0  0  0  0  0  0  0  0  0  0
   -1.2498   26.4765  -26.7980 H   0  0  0  0  0  0  0  0  0  0  0  0
   -4.4775   25.0099  -29.3795 H   0  0  0  0  0  0  0  0  0  0  0  0
   -6.5307   24.4607  -29.9140 H   0  0  0  0  0  0  0  0  0  0  0  0
   -5.8198   25.0099  -31.4695 H   0  0  0  0  0  0  0  0  0  0  0  0
   -7.2151   23.8788  -31.4695 H   0  0  0  0  0  0  0  0  0  0  0  0
   -8.1619   18.5009  -33.3441 H   0  0  0  0  0  0  0  0  0  0  0  0
  -10.3724   19.5011  -32.6969 H   0  0  0  0  0  0  0  0  0  0  0  0
  -10.4436   21.6001  -31.3437 H   0  0  0  0  0  0  0  0  0  0  0  0
   -8.3230   22.7484  -30.6731 H   0  0  0  0  0  0  0  0  0  0  0  0
  1  2  1  0
  2  3  1  0
  3  4  1  0
  4  5  1  0
  3  6  1  0
  6  7  1  0
  7  8  1  0
  8  9  1  0
  9 10  1  0
 10 11  1  0
 11 12  1  0
 12 13  1  0
 13 14  1  0
 14 15  1  0
 15 16  2  0
 16 17  1  0
 17 18  2  0
 18 19  1  0
 19 20  1  0
 18 21  1  0
 21 22  1  0
 22 23  1  0
 21 24  2  0
 24 25  1  0
 25 26  2  0
 26 27  1  0
 26 28  1  0
 28 29  2  0
 29 30  1  0
 30 31  1  0
 31 32  2  0
 32 33  1  0
 33 34  2  0
 34 35  1  0
 35 36  2  0
 29 15  1  0
 36 31  1  0
 25 16  1  0
 36 28  1  0
  1 37  1  0
  1 38  1  0
  1 39  1  0
  2 40  1  0
  2 41  1  0
  4 42  1  0
  4 43  1  0
  5 44  1  0
  5 45  1  0
  5 46  1  0
  6 47  1  0
  6 48  1  0
  7 49  1  0
  7 50  1  0
  9 51  1  0
  9 52  1  0
 10 53  1  0
 10 54  1  0
 12 55  1  0
 12 56  1  0
 13 57  1  0
 13 58  1  0
 14 59  1  0
 14 60  1  0
 17 61  1  0
 20 62  1  0
 20 63  1  0
 20 64  1  0
 23 65  1  0
 23 66  1  0
 23 67  1  0
 24 68  1  0
 27 69  1  0
 27 70  1  0
 27 71  1  0
 32 72  1  0
 33 73  1  0
 34 74  1  0
 35 75  1  0
M  CHG  2  14   1  26   1
M  END
>  <UniqueID>  (2) 
2

>  <SMILES>  (2) 
CCN(CC)CCOCCOCC[NH2+]c1c2cc(OC)c(OC)cc2[n+](C)c2c1sc1ccccc12

>  <Energy>  (2) 
137.8766471688622

>  <Genealogy>  (2) 
CCN(CC)CCOCCOCC[NH2+]c1c2cc(OC)c(OC)cc2[n+](C)c2c1sc1ccccc12 (protonated)
CCN(CC)CCOCCOCC[NH2+]c1c2cc(OC)c(OC)cc2[n+](C)c2c1sc1ccccc12 (3D coordinates assigned)
CCN(CC)CCOCCOCC[NH2+]c1c2cc(OC)c(OC)cc2[n+](C)c2c1sc1ccccc12 (optimized conformer: 137.8766471688622 kcal/mol)

>  <smiles>  (2) 
CCN(CC)CCOCCOCCNc1c2cc(OC)c(OC)cc2[n+](C)c2c1sc1ccccc12

>  <score_type>  (2) 
oracle

>  <origin>  (2) 
adg

>  <m_score__min__energy>  (2) 
-7.96

>  <m_primary>  (2) 
energy

$$$$
2:0
     RDKit          3D

 52 56  0  0  0  0  0  0  0  0999 V2000
   -0.5050   26.0410  -28.0070 C   0  0  0  0  0  0  0  0  0  0  0  0
   -1.4210   24.9760  -28.5090 C   0  0  0  0  0  0  0  0  0  0  0  0
   -1.1970   23.6180  -28.4180 C   0  0  0  0  0  0  0  0  0  0  0  0
   -2.3020   23.0200  -28.9870 C   0  0  0  0  0  0  0  0  0  0  0  0
   -3.1340   24.0560  -29.3870 C   0  0  0  0  0  0  0  0  0  0  0  0
   -4.4520   23.9380  -30.0510 C   0  0  0  0  0  0  0  0  0  0  0  0
   -5.2530   25.0790  -30.2130 C   0  0  0  0  0  0  0  0  0  0  0  0
   -6.4910   24.9720  -30.8440 C   0  0  0  0  0  0  0  0  0  0  0  0
   -6.9290   23.7660  -31.2910 N   0  0  0  0  0  0  0  0  0  0  0  0
   -6.1900   22.6340  -31.1400 C   0  0  0  0  0  0  0  0  0  0  0  0
   -6.6940   21.3540  -31.6690 C   0  0  0  0  0  0  0  0  0  0  0  0
   -7.9000   20.7630  -31.3050 C   0  0  0  0  0  0  0  0  0  0  0  0
   -7.9970   19.5260  -31.8420 N   0  0  0  0  0  0  0  0  0  0  0  0
   -9.0870   18.5790  -31.6310 C   0  0  0  0  0  0  0  0  0  0  0  0
   -6.8620   19.3220  -32.5390 C   0  0  0  0  0  0  0  0  0  0  0  0
   -6.4950   18.1710  -33.2390 C   0  0  0  0  0  0  0  0  0  0  0  0
   -5.2620   18.1680  -33.9070 C   0  0  0  0  0  0  0  0  0  0  0  0
   -4.4330   19.3070  -33.8830 C   0  0  0  0  0  0  0  0  0  0  0  0
   -4.8160   20.4680  -33.1710 C   0  0  0  0  0  0  0  0  0  0  0  0
   -4.0410   21.6750  -33.2500 N   0  0  0  0  0  0  0  0  0  0  0  0
   -2.8090   21.8850  -32.4910 C   0  0  0  0  0  0  0  0  0  0  0  0
   -1.7630   20.8960  -32.9260 C   0  0  0  0  0  0  0  0  0  0  0  0
   -1.5140   19.7410  -32.1680 C   0  0  0  0  0  0  0  0  0  0  0  0
   -0.5140   18.8540  -32.5760 C   0  0  0  0  0  0  0  0  0  0  0  0
    0.2200   19.1170  -33.6890 N   0  0  0  0  0  0  0  0  0  0  0  0
    0.0070   20.2340  -34.4340 C   0  0  0  0  0  0  0  0  0  0  0  0
   -0.9860   21.1440  -34.0670 C   0  0  0  0  0  0  0  0  0  0  0  0
   -6.0400   20.4270  -32.4780 C   0  0  0  0  0  0  0  0  0  0  0  0
   -4.9280   22.7040  -30.5310 C   0  0  0  0  0  0  0  0  0  0  0  0
   -2.5760   25.2080  -29.0830 O   0  0  0  0  0  0  0  0  0  0  0  0
   -0.5074   26.0382  -26.9070 H   0  0  0  0  0  0  0  0  0  0  0  0
    0.5149   25.8494  -28.3719 H   0  0  0  0  0  0  0  0  0  0  0  0
   -0.8470   27.0207  -28.3719 H   0  0  0  0  0  0  0  0  0  0  0  0
   -0.3201   23.1166  -27.9825 H   0  0  0  0  0  0  0  0  0  0  0  0
   -2.4862   21.9415  -29.1006 H   0  0  0  0  0  0  0  0  0  0  0  0
   -4.9048   26.0547  -29.8431 H   0  0  0  0  0  0  0  0  0  0  0  0
   -7.1157   25.8670  -30.9806 H   0  0  0  0  0  0  0  0  0  0  0  0
   -8.6651   21.2348  -30.6710 H   0  0  0  0  0  0  0  0  0  0  0  0
   -9.2477   18.4394  -30.5518 H   0  0  0  0  0  0  0  0  0  0  0  0
  -10.0065   18.9699  -32.0911 H   0  0  0  0  0  0  0  0  0  0  0  0
   -8.8284   17.6139  -32.0911 H   0  0  0  0  0  0  0  0  0  0  0  0
   -7.1546   17.2911  -33.2657 H   0  0  0  0  0  0  0  0  0  0  0  0
   -4.9396   17.2696  -34.4538 H   0  0  0  0  0  0  0  0  0  0  0  0
   -3.4758   19.2934  -34.4248 H   0  0  0  0  0  0  0  0  0  0  0  0
   -4.2680   22.3510  -34.0140 H   0  0  0  0  0  0  0  0  0  0  0  0
   -2.4411   22.9063  -32.6686 H   0  0  0  0  0  0  0  0  0  0  0  0
   -3.0160   21.7445  -31.4198 H   0  0  0  0  0  0  0  0  0  0  0  0
   -2.1010   19.5358  -31.2606 H   0  0  0  0  0  0  0  0  0  0  0  0
   -0.3205   17.9405  -31.9946 H   0  0  0  0  0  0  0  0  0  0  0  0
    0.6189   20.4213  -35.3287 H   0  0  0  0  0  0  0  0  0  0  0  0
   -1.1578   22.0489  -34.6683 H   0  0  0  0  0  0  0  0  0  0  0  0
   -4.3131   21.7976  -30.4292 H   0  0  0  0  0  0  0  0  0  0  0  0
  1  2  1  0
  2  3  2  0
  3  4  1  0
  4  5  2  0
  5  6  1  0
  6  7  2  0
  7  8  1  0
  8  9  2  0
  9 10  1  0
 10 11  1  0
 11 12  2  0
 12 13  1  0
 13 14  1  0
 13 15  1  0
 15 16  2  0
 16 17  1  0
 17 18  2  0
 18 19  1  0
 19 20  1  0
 20 21  1  0
 21 22  1  0
 22 23  2  0
 23 24  1  0
 24 25  2  0
 25 26  1  0
 26 27  2  0
 19 28  2  0
 10 29  2  0
  5 30  1  0
 30  2  1  0
 29  6  1  0
 28 11  1  0
 28 15  1  0
 27 22  1  0
  1 31  1  0
  1 32  1  0
  1 33  1  0
  3 34  1  0
  4 35  1  0
  7 36  1  0
  8 37  1  0
 12 38  1  0
 14 39  1  0
 14 40  1  0
 14 41  1  0
 16 42  1  0
 17 43  1  0
 18 44  1  0
 20 45  1  0
 21 46  1  0
 21 47  1  0
 23 48  1  0
 24 49  1  0
 26 50  1  0
 27 51  1  0
 29 52  1  0
M  END
>  <UniqueID>  (3) 
3

>  <SMILES>  (3) 
Cc1ccc(-c2ccnc(-c3cn(C)c4cccc(NCc5ccncc5)c34)c2)o1

>  <Energy>  (3) 
123.44636444911096

>  <Genealogy>  (3) 
Cc1ccc(-c2ccnc(-c3cn(C)c4cccc(NCc5ccncc5)c34)c2)o1 (3D coordinates assigned)
Cc1ccc(-c2ccnc(-c3cn(C)c4cccc(NCc5ccncc5)c34)c2)o1 (optimized conformer: 123.44636444911096 kcal/mol)

>  <smiles>  (3) 
Cc1ccc(-c2ccnc(-c3cn(C)c4cccc(NCc5ccncc5)c34)c2)o1

>  <score_type>  (3) 
oracle

>  <origin>  (3) 
adg

>  <m_score__min__energy>  (3) 
-9.75

>  <m_primary>  (3) 
energy

$$$$
3:0
     RDKit          3D

 45 47  0  0  0  0  0  0  0  0999 V2000
   -4.5430   13.8050  -31.2200 C   0  0  0  0  0  0  0  0  0  0  0  0
   -4.8990   13.5920  -32.6980 C   0  0  0  0  0  0  0  0  0  0  0  0
   -4.9110   14.8380  -33.5020 N   0  0  0  0  0  0  0  0  0  0  0  0
   -4.3920   16.0320  -32.7910 C   0  0  0  0  0  0  0  0  0  0  0  0
   -3.3070   16.7530  -33.5980 C   0  0  0  0  0  0  0  0  0  0  0  0
   -3.2590   16.2550  -34.9060 O   0  0  0  0  0  0  0  0  0  0  0  0
   -6.2270   15.0940  -34.1370 C   0  0  0  0  0  0  0  0  0  0  0  0
   -6.4690   16.6010  -34.2510 C   0  0  0  0  0  0  0  0  0  0  0  0
   -7.2660   17.0880  -33.1710 O   0  0  0  0  0  0  0  0  0  0  0  0
   -7.2100   18.3840  -32.6310 C   0  0  0  0  0  0  0  0  0  0  0  0
   -8.4020   19.1090  -32.5430 C   0  0  0  0  0  0  0  0  0  0  0  0
   -8.4120   20.4030  -32.0200 C   0  0  0  0  0  0  0  0  0  0  0  0
   -7.2240   21.0100  -31.5870 C   0  0  0  0  0  0  0  0  0  0  0  0
   -6.0100   20.2770  -31.6660 C   0  0  0  0  0  0  0  0  0  0  0  0
   -6.0140   18.9710  -32.1790 C   0  0  0  0  0  0  0  0  0  0  0  0
   -4.7140   20.8760  -31.1830 C   0  0  0  0  0  0  0  0  0  0  0  0
   -4.8470   22.3210  -31.0700 N   0  0  0  0  0  0  0  0  0  0  0  0
   -3.8800   23.2400  -30.9290 C   0  0  0  0  0  0  0  0  0  0  0  0
   -4.5080   24.4560  -30.7760 C   0  0  0  0  0  0  0  0  0  0  0  0
   -3.8630   25.6730  -30.5990 O   0  0  0  0  0  0  0  0  0  0  0  0
   -5.8510   24.3180  -30.8050 N   0  0  0  0  0  0  0  0  0  0  0  0
   -6.0090   22.9900  -30.9970 C   0  0  0  0  0  0  0  0  0  0  0  0
   -7.2850   22.3310  -30.9910 N   0  0  0  0  0  0  0  0  0  0  0  0
   -5.3148   13.3432  -30.5867 H   0  0  0  0  0  0  0  0  0  0  0  0
   -3.5684   13.3415  -31.0071 H   0  0  0  0  0  0  0  0  0  0  0  0
   -4.4907   14.8829  -31.0071 H   0  0  0  0  0  0  0  0  0  0  0  0
   -4.1600   12.9050  -33.1361 H   0  0  0  0  0  0  0  0  0  0  0  0
   -5.9216   13.1874  -32.7235 H   0  0  0  0  0  0  0  0  0  0  0  0
   -5.2242   16.7289  -32.6125 H   0  0  0  0  0  0  0  0  0  0  0  0
   -3.9448   15.6962  -31.8438 H   0  0  0  0  0  0  0  0  0  0  0  0
   -3.5327   17.8292  -33.6280 H   0  0  0  0  0  0  0  0  0  0  0  0
   -2.3327   16.5842  -33.1161 H   0  0  0  0  0  0  0  0  0  0  0  0
   -3.7260   15.3810  -34.8850 H   0  0  0  0  0  0  0  0  0  0  0  0
   -6.2401   14.6460  -35.1415 H   0  0  0  0  0  0  0  0  0  0  0  0
   -7.0193   14.6468  -33.5187 H   0  0  0  0  0  0  0  0  0  0  0  0
   -5.4992   17.1201  -34.2415 H   0  0  0  0  0  0  0  0  0  0  0  0
   -7.0079   16.7931  -35.1905 H   0  0  0  0  0  0  0  0  0  0  0  0
   -9.3420   18.6549  -32.8896 H   0  0  0  0  0  0  0  0  0  0  0  0
   -9.3619   20.9528  -31.9466 H   0  0  0  0  0  0  0  0  0  0  0  0
   -5.0742   18.4014  -32.2282 H   0  0  0  0  0  0  0  0  0  0  0  0
   -4.4623   20.4549  -30.1984 H   0  0  0  0  0  0  0  0  0  0  0  0
   -3.9163   20.6413  -31.9032 H   0  0  0  0  0  0  0  0  0  0  0  0
   -2.7952   23.0576  -30.9345 H   0  0  0  0  0  0  0  0  0  0  0  0
   -7.6050   22.2380  -30.0010 H   0  0  0  0  0  0  0  0  0  0  0  0
   -7.9640   22.9260  -31.5210 H   0  0  0  0  0  0  0  0  0  0  0  0
  1  2  1  0
  2  3  1  0
  3  4  1  0
  4  5  1  0
  5  6  1  0
  3  7  1  0
  7  8  1  0
  8  9  1  0
  9 10  1  0
 10 11  2  0
 11 12  1  0
 12 13  2  0
 13 14  1  0
 14 15  2  0
 14 16  1  0
 16 17  1  0
 17 18  1  0
 18 19  2  0
 19 20  1  0
 19 21  1  0
 21 22  2  0
 22 23  1  0
 15 10  1  0
 22 17  1  0
 23 13  1  0
  1 24  1  0
  1 25  1  0
  1 26  1  0
  2 27  1  0
  2 28  1  0
  4 29  1  0
  4 30  1  0
  5 31  1  0
  5 32  1  0
  6 33  1  0
  7 34  1  0
  7 35  1  0
  8 36  1  0
  8 37  1  0
 11 38  1  0
 12 39  1  0
 15 40  1  0
 16 41  1  0
 16 42  1  0
 18 43  1  0
 23 44  1  0
 23 45  1  0
M  CHG  2  20  -1  23   1
M  END
>  <UniqueID>  (4) 
4

>  <SMILES>  (4) 
CCN(CCO)CCOc1ccc2c(c1)Cn1cc([O-])nc1[NH2+]2

>  <Energy>  (4) 
85.27660068488179

>  <Genealogy>  (4) 
CCN(CCO)CCOc1ccc2c(c1)Cn1cc([O-])nc1[NH2+]2 (protonated)
CCN(CCO)CCOc1ccc2c(c1)Cn1cc([O-])nc1[NH2+]2 (3D coordinates assigned)
CCN(CCO)CCOc1ccc2c(c1)Cn1cc([O-])nc1[NH2+]2 (nonaromatic ring conformer: 85.27660068488179 kcal/mol)

>  <smiles>  (4) 
CCN(CCO)CCOc1ccc2c(c1)Cn1cc(O)nc1N2

>  <score_type>  (4) 
oracle

>  <origin>  (4) 
adg

>  <m_score__min__energy>  (4) 
-7.9900000000000002

>  <m_primary>  (4) 
energy

$$$$
4:0
     RDKit          3D

 55 58  0  0  0  0  0  0  0  0999 V2000
   -6.1030   25.2840  -30.6280 C   0  0  0  0  0  0  0  0  0  0  0  0
   -5.4510   23.9490  -30.9460 C   0  0  0  0  0  0  0  0  0  0  0  0
   -6.2080   22.9180  -31.5760 C   0  0  0  0  0  0  0  0  0  0  0  0
   -7.6630   23.1490  -31.9530 C   0  0  0  0  0  0  0  0  0  0  0  0
   -5.5650   21.6970  -31.9360 C   0  0  0  0  0  0  0  0  0  0  0  0
   -4.1590   21.6830  -32.0020 C   0  0  0  0  0  0  0  0  0  0  0  0
   -3.5440   20.7820  -32.9080 C   0  0  0  0  0  0  0  0  0  0  0  0
   -2.1940   21.0010  -33.3670 N   0  0  0  0  0  0  0  0  0  0  0  0
   -1.0370   20.3250  -32.7710 C   0  0  0  0  0  0  0  0  0  0  0  0
    0.2820   20.9540  -33.2530 C   0  0  0  0  0  0  0  0  0  0  0  0
    0.1400   21.5500  -34.6010 N   0  0  0  0  0  0  0  0  0  0  0  0
   -0.1490   20.5220  -35.6110 C   0  0  0  0  0  0  0  0  0  0  0  0
    1.3730   22.2640  -34.9670 C   0  0  0  0  0  0  0  0  0  0  0  0
   -4.3210   19.7590  -33.4930 C   0  0  0  0  0  0  0  0  0  0  0  0
   -3.7690   18.8580  -34.4310 C   0  0  0  0  0  0  0  0  0  0  0  0
   -4.5380   17.8250  -34.9620 C   0  0  0  0  0  0  0  0  0  0  0  0
   -5.8650   17.6740  -34.5780 C   0  0  0  0  0  0  0  0  0  0  0  0
   -6.4400   18.5680  -33.6770 C   0  0  0  0  0  0  0  0  0  0  0  0
   -5.6860   19.6310  -33.1250 C   0  0  0  0  0  0  0  0  0  0  0  0
   -6.2570   20.5520  -32.2760 N   0  0  0  0  0  0  0  0  0  0  0  0
   -7.5020   20.2000  -31.5590 C   0  0  0  0  0  0  0  0  0  0  0  0
   -3.4410   22.5530  -31.1440 C   0  0  0  0  0  0  0  0  0  0  0  0
   -2.1220   22.2550  -30.7280 C   0  0  0  0  0  0  0  0  0  0  0  0
   -1.4380   23.0990  -29.8570 C   0  0  0  0  0  0  0  0  0  0  0  0
   -2.0660   24.2260  -29.3430 C   0  0  0  0  0  0  0  0  0  0  0  0
   -3.3890   24.5050  -29.6790 C   0  0  0  0  0  0  0  0  0  0  0  0
   -4.1000   23.6830  -30.5880 C   0  0  0  0  0  0  0  0  0  0  0  0
   -6.1651   25.4111  -29.5371 H   0  0  0  0  0  0  0  0  0  0  0  0
   -5.5009   26.0978  -31.0583 H   0  0  0  0  0  0  0  0  0  0  0  0
   -7.1150   25.3096  -31.0583 H   0  0  0  0  0  0  0  0  0  0  0  0
   -8.2677   23.2450  -31.0392 H   0  0  0  0  0  0  0  0  0  0  0  0
   -7.7460   24.0716  -32.5463 H   0  0  0  0  0  0  0  0  0  0  0  0
   -8.0277   22.2975  -32.5463 H   0  0  0  0  0  0  0  0  0  0  0  0
   -2.0140   21.7200  -34.1010 H   0  0  0  0  0  0  0  0  0  0  0  0
   -1.0963   20.4100  -31.6759 H   0  0  0  0  0  0  0  0  0  0  0  0
   -1.0531   19.2690  -33.0787 H   0  0  0  0  0  0  0  0  0  0  0  0
    0.5826   21.7402  -32.5448 H   0  0  0  0  0  0  0  0  0  0  0  0
    1.0428   20.1612  -33.3053 H   0  0  0  0  0  0  0  0  0  0  0  0
   -0.4140   19.5795  -35.1095 H   0  0  0  0  0  0  0  0  0  0  0  0
   -0.9893   20.8516  -36.2397 H   0  0  0  0  0  0  0  0  0  0  0  0
    0.7400   20.3655  -36.2397 H   0  0  0  0  0  0  0  0  0  0  0  0
    1.9036   22.5713  -34.0537 H   0  0  0  0  0  0  0  0  0  0  0  0
    2.0188   21.6001  -35.5605 H   0  0  0  0  0  0  0  0  0  0  0  0
    1.1186   23.1546  -35.5605 H   0  0  0  0  0  0  0  0  0  0  0  0
   -2.7212   18.9735  -34.7452 H   0  0  0  0  0  0  0  0  0  0  0  0
   -4.0938   17.1271  -35.6870 H   0  0  0  0  0  0  0  0  0  0  0  0
   -6.4633   16.8463  -34.9865 H   0  0  0  0  0  0  0  0  0  0  0  0
   -7.4950   18.4458  -33.3906 H   0  0  0  0  0  0  0  0  0  0  0  0
   -7.3269   20.2495  -30.4742 H   0  0  0  0  0  0  0  0  0  0  0  0
   -8.2968   20.9086  -31.8348 H   0  0  0  0  0  0  0  0  0  0  0  0
   -7.8081   19.1801  -31.8348 H   0  0  0  0  0  0  0  0  0  0  0  0
   -1.6298   21.3435  -31.0979 H   0  0  0  0  0  0  0  0  0  0  0  0
   -0.3989   22.8728  -29.5757 H   0  0  0  0  0  0  0  0  0  0  0  0
   -1.5174   24.9002  -28.6688 H   0  0  0  0  0  0  0  0  0  0  0  0
   -3.8892   25.3767  -29.2318 H   0  0  0  0  0  0  0  0  0  0  0  0
  1  2  1  0
  2  3  2  0
  3  4  1  0
  3  5  1  0
  5  6  2  0
  6  7  1  0
  7  8  1  0
  8  9  1  0
  9 10  1  0
 10 11  1  0
 11 12  1  0
 11 13  1  0
  7 14  2  0
 14 15  1  0
 15 16  2  0
 16 17  1  0
 17 18  2  0
 18 19  1  0
 19 20  2  0
 20 21  1  0
  6 22  1  0
 22 23  2  0
 23 24  1  0
 24 25  2  0
 25 26  1  0
 26 27  2  0
 27  2  1  0
 20  5  1  0
 27 22  1  0
 19 14  1  0
  1 28  1  0
  1 29  1  0
  1 30  1  0
  4 31  1  0
  4 32  1  0
  4 33  1  0
  8 34  1  0
  9 35  1  0
  9 36  1  0
 10 37  1  0
 10 38  1  0
 12 39  1  0
 12 40  1  0
 12 41  1  0
 13 42  1  0
 13 43  1  0
 13 44  1  0
 15 45  1  0
 16 46  1  0
 17 47  1  0
 18 48  1  0
 21 49  1  0
 21 50  1  0
 21 51  1  0
 23 52  1  0
 24 53  1  0
 25 54  1  0
 26 55  1  0
M  CHG  1  20   1
M  END
>  <UniqueID>  (5) 
5

>  <SMILES>  (5) 
Cc1c(C)c2c(c(NCCN(C)C)c3ccccc3[n+]2C)c2ccccc12

>  <Energy>  (5) 
119.05002502369832

>  <Genealogy>  (5) 
Cc1c(C)c2c(c(NCCN(C)C)c3ccccc3[n+]2C)c2ccccc12 (3D coordinates assigned)
Cc1c(C)c2c(c(NCCN(C)C)c3ccccc3[n+]2C)c2ccccc12 (optimized conformer: 119.05002502369832 kcal/mol)

>  <smiles>  (5) 
Cc1c(C)c2c(c(NCCN(C)C)c3ccccc3[n+]2C)c2ccccc12

>  <score_type>  (5) 
oracle

>  <origin>  (5) 
adg

>  <m_score__min__energy>  (5) 
-9.4299999999999997

>  <m_primary>  (5) 
energy

$$$$
5:0
     RDKit          3D

 44 45  0  0  0  0  0  0  0  0999 V2000
   -3.3620   24.2000  -27.5460 C   0  0  0  0  0  0  0  0  0  0  0  0
   -2.4170   24.8320  -28.5540 C   0  0  0  0  0  0  0  0  0  0  0  0
   -3.1580   25.2780  -29.6860 O   0  0  0  0  0  0  0  0  0  0  0  0
   -4.0100   24.4650  -30.4470 C   0  0  0  0  0  0  0  0  0  0  0  0
   -3.6440   23.1710  -30.8660 C   0  0  0  0  0  0  0  0  0  0  0  0
   -4.5300   22.3980  -31.6210 C   0  0  0  0  0  0  0  0  0  0  0  0
   -5.8000   22.8950  -31.9570 C   0  0  0  0  0  0  0  0  0  0  0  0
   -6.7160   22.1290  -32.7590 N   0  0  0  0  0  0  0  0  0  0  0  0
   -7.6480   21.1670  -32.2380 C   0  0  0  0  0  0  0  0  0  0  0  0
   -8.3110   21.3840  -30.7460 S   0  0  0  0  0  0  0  0  0  0  0  0
   -8.1340   20.1320  -33.1090 N   0  0  0  0  0  0  0  0  0  0  0  0
   -9.1080   19.1230  -32.6820 C   0  0  0  0  0  0  0  0  0  0  0  0
   -8.5580   18.2200  -31.5620 C   0  0  0  0  0  0  0  0  0  0  0  0
   -7.2920   17.5720  -31.9710 N   0  0  0  0  0  0  0  0  0  0  0  0
   -6.0920   18.2430  -31.4140 C   0  0  0  0  0  0  0  0  0  0  0  0
   -5.3170   19.0350  -32.4830 C   0  0  0  0  0  0  0  0  0  0  0  0
   -4.8810   18.2300  -33.5690 O   0  0  0  0  0  0  0  0  0  0  0  0
   -5.7840   17.1850  -33.9050 C   0  0  0  0  0  0  0  0  0  0  0  0
   -7.2300   17.4270  -33.4420 C   0  0  0  0  0  0  0  0  0  0  0  0
   -6.1520   24.1930  -31.5600 C   0  0  0  0  0  0  0  0  0  0  0  0
   -5.2670   24.9660  -30.8040 C   0  0  0  0  0  0  0  0  0  0  0  0
   -3.0181   24.4300  -26.5268 H   0  0  0  0  0  0  0  0  0  0  0  0
   -4.3753   24.6028  -27.6907 H   0  0  0  0  0  0  0  0  0  0  0  0
   -3.3767   23.1097  -27.6907 H   0  0  0  0  0  0  0  0  0  0  0  0
   -1.9056   25.6883  -28.0901 H   0  0  0  0  0  0  0  0  0  0  0  0
   -1.6719   24.0886  -28.8737 H   0  0  0  0  0  0  0  0  0  0  0  0
   -2.6566   22.7673  -30.5977 H   0  0  0  0  0  0  0  0  0  0  0  0
   -4.2308   21.3934  -31.9545 H   0  0  0  0  0  0  0  0  0  0  0  0
   -6.7170   22.2940  -33.7910 H   0  0  0  0  0  0  0  0  0  0  0  0
   -7.7700   20.1220  -34.0880 H   0  0  0  0  0  0  0  0  0  0  0  0
  -10.0096   19.6345  -32.3139 H   0  0  0  0  0  0  0  0  0  0  0  0
   -9.3351   18.4851  -33.5489 H   0  0  0  0  0  0  0  0  0  0  0  0
   -8.3753   18.8309  -30.6656 H   0  0  0  0  0  0  0  0  0  0  0  0
   -9.2993   17.4350  -31.3515 H   0  0  0  0  0  0  0  0  0  0  0  0
   -6.4101   18.9362  -30.6214 H   0  0  0  0  0  0  0  0  0  0  0  0
   -5.4225   17.4638  -31.0209 H   0  0  0  0  0  0  0  0  0  0  0  0
   -5.9725   19.8264  -32.8755 H   0  0  0  0  0  0  0  0  0  0  0  0
   -4.4185   19.4452  -31.9987 H   0  0  0  0  0  0  0  0  0  0  0  0
   -5.7869   17.0703  -34.9990 H   0  0  0  0  0  0  0  0  0  0  0  0
   -5.4319   16.2834  -33.3823 H   0  0  0  0  0  0  0  0  0  0  0  0
   -7.6102   18.3462  -33.9116 H   0  0  0  0  0  0  0  0  0  0  0  0
   -7.8447   16.5641  -33.7380 H   0  0  0  0  0  0  0  0  0  0  0  0
   -7.1310   24.6053  -31.8455 H   0  0  0  0  0  0  0  0  0  0  0  0
   -5.5609   25.9774  -30.4866 H   0  0  0  0  0  0  0  0  0  0  0  0
  1  2  1  0
  2  3  1  0
  3  4  1  0
  4  5  2  0
  5  6  1  0
  6  7  2  0
  7  8  1  0
  8  9  1  0
  9 10  2  0
  9 11  1  0
 11 12  1  0
 12 13  1  0
 13 14  1  0
 14 15  1  0
 15 16  1  0
 16 17  1  0
 17 18  1  0
 18 19  1  0
  7 20  1  0
 20 21  2  0
 21  4  1  0
 19 14  1  0
  1 22  1  0
  1 23  1  0
  1 24  1  0
  2 25  1  0
  2 26  1  0
  5 27  1  0
  6 28  1  0
  8 29  1  0
 11 30  1  0
 12 31  1  0
 12 32  1  0
 13 33  1  0
 13 34  1  0
 15 35  1  0
 15 36  1  0
 16 37  1  0
 16 38  1  0
 18 39  1  0
 18 40  1  0
 19 41  1  0
 19 42  1  0
 20 43  1  0
 21 44  1  0
M  END
>  <UniqueID>  (6) 
6

>  <SMILES>  (6) 
CCOc1ccc(NC(=S)NCCN2CCOCC2)cc1

>  <Energy>  (6) 
58.662092034447085

>  <Genealogy>  (6) 
CCOc1ccc(NC(=S)NCCN2CCOCC2)cc1 (3D coordinates assigned)
CCOc1ccc(NC(=S)NCCN2CCOCC2)cc1 (nonaromatic ring conformer: 58.662092034447085 kcal/mol)

>  <smiles>  (6) 
CCOc1ccc(NC(=S)NCCN2CCOCC2)cc1

>  <score_type>  (6) 
oracle

>  <origin>  (6) 
adg

>  <m_score__min__energy>  (6) 
-7.8600000000000003

>  <m_primary>  (6) 
energy

$$$$
6:0
     RDKit          3D

 72 74  0  0  0  0  0  0  0  0999 V2000
   -6.1030   16.8260  -34.4110 C   0  0  0  0  0  0  0  0  0  0  0  0
   -4.6710   17.1410  -33.9870 C   0  0  0  0  0  0  0  0  0  0  0  0
   -4.3200   18.6170  -34.2350 C   0  0  0  0  0  0  0  0  0  0  0  0
   -3.0320   18.9690  -33.5910 N   0  0  0  0  0  0  0  0  0  0  0  0
   -1.9440   18.0640  -34.0360 C   0  0  0  0  0  0  0  0  0  0  0  0
   -0.7340   18.8770  -34.4830 C   0  0  0  0  0  0  0  0  0  0  0  0
   -2.6750   20.3810  -33.8750 C   0  0  0  0  0  0  0  0  0  0  0  0
   -3.4300   21.3600  -32.9540 C   0  0  0  0  0  0  0  0  0  0  0  0
   -3.9950   20.7010  -31.7500 N   0  0  0  0  0  0  0  0  0  0  0  0
   -5.3080   21.2190  -31.3690 C   0  0  0  0  0  0  0  0  0  0  0  0
   -6.4780   20.4500  -31.5930 C   0  0  0  0  0  0  0  0  0  0  0  0
   -6.4390   19.0380  -31.6840 C   0  0  0  0  0  0  0  0  0  0  0  0
   -7.6010   18.3020  -31.9100 C   0  0  0  0  0  0  0  0  0  0  0  0
   -8.8260   18.9470  -32.0110 C   0  0  0  0  0  0  0  0  0  0  0  0
   -8.8990   20.3320  -31.8840 C   0  0  0  0  0  0  0  0  0  0  0  0
   -7.7320   21.1130  -31.6850 C   0  0  0  0  0  0  0  0  0  0  0  0
   -7.7930   22.4860  -31.5820 N   0  0  0  0  0  0  0  0  0  0  0  0
   -8.9980   23.2100  -32.0480 C   0  0  0  0  0  0  0  0  0  0  0  0
   -6.7310   23.1780  -31.0330 C   0  0  0  0  0  0  0  0  0  0  0  0
   -6.8640   24.5340  -30.6450 C   0  0  0  0  0  0  0  0  0  0  0  0
   -5.8030   25.2260  -30.0780 C   0  0  0  0  0  0  0  0  0  0  0  0
   -4.6100   24.5760  -29.8100 C   0  0  0  0  0  0  0  0  0  0  0  0
   -4.4410   23.2220  -30.1350 C   0  0  0  0  0  0  0  0  0  0  0  0
   -3.3200   22.5150  -29.5780 N   0  0  0  0  0  0  0  0  0  0  0  0
   -3.3870   21.7880  -28.3070 C   0  0  0  0  0  0  0  0  0  0  0  0
   -2.5900   20.4740  -28.3500 C   0  0  0  0  0  0  0  0  0  0  0  0
   -1.2080   20.6070  -29.0170 C   0  0  0  0  0  0  0  0  0  0  0  0
   -1.3150   20.4970  -30.4900 N   0  0  0  0  0  0  0  0  0  0  0  0
   -0.8400   19.1820  -30.9470 C   0  0  0  0  0  0  0  0  0  0  0  0
   -0.5460   21.5590  -31.1600 C   0  0  0  0  0  0  0  0  0  0  0  0
   -5.4770   22.5290  -30.8330 C   0  0  0  0  0  0  0  0  0  0  0  0
   -6.7284   16.6884  -33.5166 H   0  0  0  0  0  0  0  0  0  0  0  0
   -6.4993   17.6584  -35.0110 H   0  0  0  0  0  0  0  0  0  0  0  0
   -6.1134   15.9041  -35.0110 H   0  0  0  0  0  0  0  0  0  0  0  0
   -4.5599   16.9228  -32.9146 H   0  0  0  0  0  0  0  0  0  0  0  0
   -3.9896   16.5195  -34.5866 H   0  0  0  0  0  0  0  0  0  0  0  0
   -4.2408   18.7914  -35.3182 H   0  0  0  0  0  0  0  0  0  0  0  0
   -5.1129   19.2447  -33.8022 H   0  0  0  0  0  0  0  0  0  0  0  0
   -1.6532   17.4078  -33.2024 H   0  0  0  0  0  0  0  0  0  0  0  0
   -2.3030   17.4593  -34.8818 H   0  0  0  0  0  0  0  0  0  0  0  0
   -0.1907   19.2421  -33.5990 H   0  0  0  0  0  0  0  0  0  0  0  0
   -0.0683   18.2422  -35.0863 H   0  0  0  0  0  0  0  0  0  0  0  0
   -1.0701   19.7332  -35.0863 H   0  0  0  0  0  0  0  0  0  0  0  0
   -1.5934   20.5120  -33.7233 H   0  0  0  0  0  0  0  0  0  0  0  0
   -2.9587   20.6025  -34.9145 H   0  0  0  0  0  0  0  0  0  0  0  0
   -2.7319   22.1455  -32.6291 H   0  0  0  0  0  0  0  0  0  0  0  0
   -4.2714   21.7728  -33.5299 H   0  0  0  0  0  0  0  0  0  0  0  0
   -3.3340   20.7770  -30.9490 H   0  0  0  0  0  0  0  0  0  0  0  0
   -4.0240   19.6810  -31.9540 H   0  0  0  0  0  0  0  0  0  0  0  0
   -5.4780   18.5140  -31.5748 H   0  0  0  0  0  0  0  0  0  0  0  0
   -7.5471   17.2077  -32.0085 H   0  0  0  0  0  0  0  0  0  0  0  0
   -9.7406   18.3632  -32.1917 H   0  0  0  0  0  0  0  0  0  0  0  0
   -9.8789   20.8288  -31.9390 H   0  0  0  0  0  0  0  0  0  0  0  0
   -9.5760   23.5573  -31.1790 H   0  0  0  0  0  0  0  0  0  0  0  0
   -8.6939   24.0751  -32.6556 H   0  0  0  0  0  0  0  0  0  0  0  0
   -9.6190   22.5353  -32.6556 H   0  0  0  0  0  0  0  0  0  0  0  0
   -7.8251   25.0474  -30.7958 H   0  0  0  0  0  0  0  0  0  0  0  0
   -5.9101   26.2947  -29.8406 H   0  0  0  0  0  0  0  0  0  0  0  0
   -3.7848   25.1282  -29.3365 H   0  0  0  0  0  0  0  0  0  0  0  0
   -2.5780   22.2390  -30.2580 H   0  0  0  0  0  0  0  0  0  0  0  0
   -2.9759   22.4264  -27.5111 H   0  0  0  0  0  0  0  0  0  0  0  0
   -4.4409   21.5389  -28.1142 H   0  0  0  0  0  0  0  0  0  0  0  0
   -2.4446   20.1226  -27.3178 H   0  0  0  0  0  0  0  0  0  0  0  0
   -3.1723   19.7657  -28.9577 H   0  0  0  0  0  0  0  0  0  0  0  0
   -0.7776   21.5862  -28.7600 H   0  0  0  0  0  0  0  0  0  0  0  0
   -0.5635   19.7939  -28.6515 H   0  0  0  0  0  0  0  0  0  0  0  0
   -0.6121   18.5512  -30.0751 H   0  0  0  0  0  0  0  0  0  0  0  0
   -1.6211   18.7006  -31.5538 H   0  0  0  0  0  0  0  0  0  0  0  0
    0.0684   19.3109  -31.5538 H   0  0  0  0  0  0  0  0  0  0  0  0
   -0.0777   22.2057  -30.4033 H   0  0  0  0  0  0  0  0  0  0  0  0
    0.2346   21.1056  -31.7886 H   0  0  0  0  0  0  0  0  0  0  0  0
   -1.2203   22.1591  -31.7886 H   0  0  0  0  0  0  0  0  0  0  0  0
  1  2  1  0
  2  3  1  0
  3  4  1  0
  4  5  1  0
  5  6  1  0
  4  7  1  0
  7  8  1  0
  8  9  1  0
  9 10  1  0
 10 11  2  0
 11 12  1  0
 12 13  2  0
 13 14  1  0
 14 15  2  0
 15 16  1  0
 16 17  2  0
 17 18  1  0
 17 19  1  0
 19 20  2  0
 20 21  1  0
 21 22  2  0
 22 23  1  0
 23 24  1  0
 24 25  1  0
 25 26  1  0
 26 27  1  0
 27 28  1  0
 28 29  1  0
 28 30  1  0
 23 31  2  0
 31 10  1  0
 16 11  1  0
 31 19  1  0
  1 32  1  0
  1 33  1  0
  1 34  1  0
  2 35  1  0
  2 36  1  0
  3 37  1  0
  3 38  1  0
  5 39  1  0
  5 40  1  0
  6 41  1  0
  6 42  1  0
  6 43  1  0
  7 44  1  0
  7 45  1  0
  8 46  1  0
  8 47  1  0
  9 48  1  0
  9 49  1  0
 12 50  1  0
 13 51  1  0
 14 52  1  0
 15 53  1  0
 18 54  1  0
 18 55  1  0
 18 56  1  0
 20 57  1  0
 21 58  1  0
 22 59  1  0
 24 60  1  0
 25 61  1  0
 25 62  1  0
 26 63  1  0
 26 64  1  0
 27 65  1  0
 27 66  1  0
 29 67  1  0
 29 68  1  0
 29 69  1  0
 30 70  1  0
 30 71  1  0
 30 72  1  0
M  CHG  2   9   1  17   1
M  END
>  <UniqueID>  (7) 
7

>  <SMILES>  (7) 
CCCN(CC)CC[NH2+]c1c2ccccc2[n+](C)c2cccc(NCCCN(C)C)c12

>  <Energy>  (7) 
105.79697126544686

>  <Genealogy>  (7) 
CCCN(CC)CC[NH2+]c1c2ccccc2[n+](C)c2cccc(NCCCN(C)C)c12 (protonated)
CCCN(CC)CC[NH2+]c1c2ccccc2[n+](C)c2cccc(NCCCN(C)C)c12 (3D coordinates assigned)
CCCN(CC)CC[NH2+]c1c2ccccc2[n+](C)c2cccc(NCCCN(C)C)c12 (optimized conformer: 105.79697126544686 kcal/mol)

>  <smiles>  (7) 
CCCN(CC)CCNc1c2ccccc2[n+](C)c2cccc(NCCCN(C)C)c12

>  <score_type>  (7) 
oracle

>  <origin>  (7) 
adg

>  <m_score__min__energy>  (7) 
-7.9400000000000004

>  <m_primary>  (7) 
energy

$$$$
7:0
     RDKit          3D

 34 35  0  0  0  0  0  0  0  0999 V2000
   -6.4670   25.6670  -29.3820 C   0  0  0  0  0  0  0  0  0  0  0  0
   -6.2830   24.4540  -30.1660 N   0  0  0  0  0  0  0  0  0  0  0  0
   -5.1860   24.1370  -30.8770 C   0  0  0  0  0  0  0  0  0  0  0  0
   -5.4360   22.9630  -31.5590 C   0  0  0  0  0  0  0  0  0  0  0  0
   -4.5470   22.3580  -32.6170 C   0  0  0  0  0  0  0  0  0  0  0  0
   -3.8270   21.1650  -32.1150 N   0  0  0  0  0  0  0  0  0  0  0  0
   -3.6180   20.2070  -33.2150 C   0  0  0  0  0  0  0  0  0  0  0  0
   -2.5250   21.5300  -31.5230 C   0  0  0  0  0  0  0  0  0  0  0  0
   -6.7440   22.6290  -31.2180 C   0  0  0  0  0  0  0  0  0  0  0  0
   -7.5440   21.5000  -31.7230 C   0  0  0  0  0  0  0  0  0  0  0  0
   -8.9340   21.6400  -31.8660 C   0  0  0  0  0  0  0  0  0  0  0  0
   -9.7040   20.5740  -32.3420 C   0  0  0  0  0  0  0  0  0  0  0  0
   -9.0940   19.3580  -32.6640 C   0  0  0  0  0  0  0  0  0  0  0  0
   -7.7150   19.2030  -32.5040 C   0  0  0  0  0  0  0  0  0  0  0  0
   -6.8850   17.5340  -32.9220 Br  0  0  0  0  0  0  0  0  0  0  0  0
   -6.9420   20.2670  -32.0270 C   0  0  0  0  0  0  0  0  0  0  0  0
   -7.2400   23.5650  -30.3820 N   0  0  0  0  0  0  0  0  0  0  0  0
   -6.4296   25.4203  -28.3107 H   0  0  0  0  0  0  0  0  0  0  0  0
   -5.6672   26.3832  -29.6215 H   0  0  0  0  0  0  0  0  0  0  0  0
   -7.4432   26.1138  -29.6215 H   0  0  0  0  0  0  0  0  0  0  0  0
   -4.2502   24.7142  -30.9095 H   0  0  0  0  0  0  0  0  0  0  0  0
   -5.1666   22.0640  -33.4770 H   0  0  0  0  0  0  0  0  0  0  0  0
   -3.7996   23.1113  -32.9068 H   0  0  0  0  0  0  0  0  0  0  0  0
   -4.4050   20.6900  -31.3820 H   0  0  0  0  0  0  0  0  0  0  0  0
   -3.4010   19.2123  -32.7986 H   0  0  0  0  0  0  0  0  0  0  0  0
   -4.5260   20.1554  -33.8338 H   0  0  0  0  0  0  0  0  0  0  0  0
   -2.7710   20.5383  -33.8338 H   0  0  0  0  0  0  0  0  0  0  0  0
   -2.6021   21.5084  -30.4259 H   0  0  0  0  0  0  0  0  0  0  0  0
   -1.7589   20.8120  -31.8510 H   0  0  0  0  0  0  0  0  0  0  0  0
   -2.2438   22.5416  -31.8510 H   0  0  0  0  0  0  0  0  0  0  0  0
   -9.4189   22.5916  -31.6027 H   0  0  0  0  0  0  0  0  0  0  0  0
  -10.7909   20.6925  -32.4632 H   0  0  0  0  0  0  0  0  0  0  0  0
   -9.7005   18.5225  -33.0437 H   0  0  0  0  0  0  0  0  0  0  0  0
   -5.8583   20.1380  -31.8893 H   0  0  0  0  0  0  0  0  0  0  0  0
  1  2  1  0
  2  3  1  0
  3  4  2  0
  4  5  1  0
  5  6  1  0
  6  7  1  0
  6  8  1  0
  4  9  1  0
  9 10  1  0
 10 11  2  0
 11 12  1  0
 12 13  2  0
 13 14  1  0
 14 15  1  0
 14 16  2  0
  9 17  2  0
 17  2  1  0
 16 10  1  0
  1 18  1  0
  1 19  1  0
  1 20  1  0
  3 21  1  0
  5 22  1  0
  5 23  1  0
  6 24  1  0
  7 25  1  0
  7 26  1  0
  7 27  1  0
  8 28  1  0
  8 29  1  0
  8 30  1  0
 11 31  1  0
 12 32  1  0
 13 33  1  0
 16 34  1  0
M  CHG  1   6   1
M  END
>  <UniqueID>  (8) 
8

>  <SMILES>  (8) 
Cn1cc(C[NH+](C)C)c(-c2cccc(Br)c2)n1

>  <Energy>  (8) 
66.64200787897954

>  <Genealogy>  (8) 
Cn1cc(C[NH+](C)C)c(-c2cccc(Br)c2)n1 (protonated)
Cn1cc(C[NH+](C)C)c(-c2cccc(Br)c2)n1 (3D coordinates assigned)
Cn1cc(C[NH+](C)C)c(-c2cccc(Br)c2)n1 (optimized conformer: 66.64200787897954 kcal/mol)

>  <smiles>  (8) 
CN(C)Cc1cn(C)nc1-c1cccc(Br)c1

>  <score_type>  (8) 
oracle

>  <origin>  (8) 
adg

>  <m_score__min__energy>  (8) 
-6.0300000000000002

>  <m_primary>  (8) 
energy

$$$$
8:0
     RDKit          3D

 42 43  0  0  0  0  0  0  0  0999 V2000
   -9.4600   20.6350  -32.0000 C   0  0  0  0  0  0  0  0  0  0  0  0
   -8.8820   19.2480  -31.7370 C   0  0  0  0  0  0  0  0  0  0  0  0
   -7.6600   19.0390  -32.5290 N   0  0  0  0  0  0  0  0  0  0  0  0
   -7.1920   20.1260  -33.4030 C   0  0  0  0  0  0  0  0  0  0  0  0
   -6.1560   20.9590  -32.6940 C   0  0  0  0  0  0  0  0  0  0  0  0
   -4.7940   20.6390  -32.7950 C   0  0  0  0  0  0  0  0  0  0  0  0
   -3.8310   21.4230  -32.1540 C   0  0  0  0  0  0  0  0  0  0  0  0
   -4.2170   22.5430  -31.4050 C   0  0  0  0  0  0  0  0  0  0  0  0
   -3.2570   23.3390  -30.7600 C   0  0  0  0  0  0  0  0  0  0  0  0
   -3.6520   24.4650  -30.0110 C   0  0  0  0  0  0  0  0  0  0  0  0
   -2.7310   25.2890  -29.3480 O   0  0  0  0  0  0  0  0  0  0  0  0
   -2.0170   24.9160  -28.1740 C   0  0  0  0  0  0  0  0  0  0  0  0
   -5.0130   24.7830  -29.9170 C   0  0  0  0  0  0  0  0  0  0  0  0
   -5.9750   23.9990  -30.5560 C   0  0  0  0  0  0  0  0  0  0  0  0
   -5.5880   22.8760  -31.3020 C   0  0  0  0  0  0  0  0  0  0  0  0
   -6.5470   22.0830  -31.9480 C   0  0  0  0  0  0  0  0  0  0  0  0
   -6.8920   17.8280  -32.3390 C   0  0  0  0  0  0  0  0  0  0  0  0
   -6.3630   17.5940  -31.2180 O   0  0  0  0  0  0  0  0  0  0  0  0
   -6.7190   16.8100  -33.4350 C   0  0  0  0  0  0  0  0  0  0  0  0
   -5.4120   16.8600  -33.9720 O   0  0  0  0  0  0  0  0  0  0  0  0
   -5.3260   17.8590  -34.9650 C   0  0  0  0  0  0  0  0  0  0  0  0
   -9.6677   21.1334  -31.0417 H   0  0  0  0  0  0  0  0  0  0  0  0
   -8.7355   21.2313  -32.5740 H   0  0  0  0  0  0  0  0  0  0  0  0
  -10.3936   20.5404  -32.5740 H   0  0  0  0  0  0  0  0  0  0  0  0
   -8.6408   19.1534  -30.6679 H   0  0  0  0  0  0  0  0  0  0  0  0
   -9.6267   18.4921  -32.0268 H   0  0  0  0  0  0  0  0  0  0  0  0
   -6.7498   19.6947  -34.3132 H   0  0  0  0  0  0  0  0  0  0  0  0
   -8.0468   20.7664  -33.6658 H   0  0  0  0  0  0  0  0  0  0  0  0
   -4.4814   19.7638  -33.3835 H   0  0  0  0  0  0  0  0  0  0  0  0
   -2.7661   21.1601  -32.2376 H   0  0  0  0  0  0  0  0  0  0  0  0
   -2.1904   23.0820  -30.8399 H   0  0  0  0  0  0  0  0  0  0  0  0
   -2.5911   25.2159  -27.2849 H   0  0  0  0  0  0  0  0  0  0  0  0
   -1.8700   23.8259  -28.1650 H   0  0  0  0  0  0  0  0  0  0  0  0
   -1.0383   25.4180  -28.1650 H   0  0  0  0  0  0  0  0  0  0  0  0
   -5.3272   25.6606  -29.3329 H   0  0  0  0  0  0  0  0  0  0  0  0
   -7.0398   24.2627  -30.4743 H   0  0  0  0  0  0  0  0  0  0  0  0
   -7.6130   22.3429  -31.8700 H   0  0  0  0  0  0  0  0  0  0  0  0
   -6.9011   15.8057  -33.0250 H   0  0  0  0  0  0  0  0  0  0  0  0
   -7.4364   17.0346  -34.2380 H   0  0  0  0  0  0  0  0  0  0  0  0
   -5.2411   18.8456  -34.4861 H   0  0  0  0  0  0  0  0  0  0  0  0
   -4.4401   17.6780  -35.5915 H   0  0  0  0  0  0  0  0  0  0  0  0
   -6.2298   17.8321  -35.5915 H   0  0  0  0  0  0  0  0  0  0  0  0
  1  2  1  0
  2  3  1  0
  3  4  1  0
  4  5  1  0
  5  6  2  0
  6  7  1  0
  7  8  2  0
  8  9  1  0
  9 10  2  0
 10 11  1  0
 11 12  1  0
 10 13  1  0
 13 14  2  0
 14 15  1  0
 15 16  2  0
  3 17  1  0
 17 18  2  0
 17 19  1  0
 19 20  1  0
 20 21  1  0
 16  5  1  0
 15  8  1  0
  1 22  1  0
  1 23  1  0
  1 24  1  0
  2 25  1  0
  2 26  1  0
  4 27  1  0
  4 28  1  0
  6 29  1  0
  7 30  1  0
  9 31  1  0
 12 32  1  0
 12 33  1  0
 12 34  1  0
 13 35  1  0
 14 36  1  0
 16 37  1  0
 19 38  1  0
 19 39  1  0
 21 40  1  0
 21 41  1  0
 21 42  1  0
M  END
>  <UniqueID>  (9) 
9

>  <SMILES>  (9) 
CCN(Cc1ccc2cc(OC)ccc2c1)C(=O)COC

>  <Energy>  (9) 
41.699206814655916

>  <Genealogy>  (9) 
CCN(Cc1ccc2cc(OC)ccc2c1)C(=O)COC (3D coordinates assigned)
CCN(Cc1ccc2cc(OC)ccc2c1)C(=O)COC (optimized conformer: 41.699206814655916 kcal/mol)

>  <smiles>  (9) 
CCN(Cc1ccc2cc(OC)ccc2c1)C(=O)COC

>  <score_type>  (9) 
oracle

>  <origin>  (9) 
adg

>  <m_score__min__energy>  (9) 
-7.46

>  <m_primary>  (9) 
energy

$$$$
9:0
     RDKit          3D

 57 58  0  0  0  0  0  0  0  0999 V2000
   -6.3370   25.6540  -29.6290 C   0  0  0  0  0  0  0  0  0  0  0  0
   -5.0420   25.5760  -30.4440 C   0  0  0  0  0  0  0  0  0  0  0  0
   -4.8260   24.1880  -30.9100 N   0  0  0  0  0  0  0  0  0  0  0  0
   -4.8880   23.2260  -29.7780 C   0  0  0  0  0  0  0  0  0  0  0  0
   -3.5220   23.1180  -29.0780 C   0  0  0  0  0  0  0  0  0  0  0  0
   -3.4890   22.0780  -27.9360 C   0  0  0  0  0  0  0  0  0  0  0  0
   -2.7320   20.8330  -28.2530 N   0  0  0  0  0  0  0  0  0  0  0  0
   -1.6600   21.0880  -29.2560 C   0  0  0  0  0  0  0  0  0  0  0  0
   -1.9570   20.4840  -30.6340 C   0  0  0  0  0  0  0  0  0  0  0  0
   -2.2400   20.1910  -27.0040 C   0  0  0  0  0  0  0  0  0  0  0  0
   -3.0210   18.9400  -26.5730 C   0  0  0  0  0  0  0  0  0  0  0  0
   -5.7620   23.8370  -32.0050 C   0  0  0  0  0  0  0  0  0  0  0  0
   -5.7060   22.3540  -32.3110 C   0  0  0  0  0  0  0  0  0  0  0  0
   -4.4840   21.8010  -32.7230 C   0  0  0  0  0  0  0  0  0  0  0  0
   -4.3910   20.4610  -33.0870 C   0  0  0  0  0  0  0  0  0  0  0  0
   -5.5200   19.6260  -33.0510 C   0  0  0  0  0  0  0  0  0  0  0  0
   -5.4490   18.2760  -33.4450 O   0  0  0  0  0  0  0  0  0  0  0  0
   -5.6820   17.8020  -34.7680 C   0  0  0  0  0  0  0  0  0  0  0  0
   -6.7500   20.1470  -32.6000 C   0  0  0  0  0  0  0  0  0  0  0  0
   -7.8890   19.3210  -32.5220 C   0  0  0  0  0  0  0  0  0  0  0  0
   -9.1090   19.8320  -32.0800 C   0  0  0  0  0  0  0  0  0  0  0  0
   -9.2120   21.1670  -31.6990 C   0  0  0  0  0  0  0  0  0  0  0  0
   -8.0980   22.0030  -31.7660 C   0  0  0  0  0  0  0  0  0  0  0  0
   -6.8510   21.5160  -32.2180 C   0  0  0  0  0  0  0  0  0  0  0  0
   -6.0962   25.6395  -28.5558 H   0  0  0  0  0  0  0  0  0  0  0  0
   -6.8683   26.5858  -29.8730 H   0  0  0  0  0  0  0  0  0  0  0  0
   -6.9763   24.7927  -29.8730 H   0  0  0  0  0  0  0  0  0  0  0  0
   -5.1168   26.2457  -31.3134 H   0  0  0  0  0  0  0  0  0  0  0  0
   -4.1958   25.8828  -29.8117 H   0  0  0  0  0  0  0  0  0  0  0  0
   -5.6390   23.5710  -29.0521 H   0  0  0  0  0  0  0  0  0  0  0  0
   -5.1623   22.2359  -30.1710 H   0  0  0  0  0  0  0  0  0  0  0  0
   -2.7691   22.8340  -29.8280 H   0  0  0  0  0  0  0  0  0  0  0  0
   -3.3148   24.0988  -28.6252 H   0  0  0  0  0  0  0  0  0  0  0  0
   -3.0239   22.5481  -27.0570 H   0  0  0  0  0  0  0  0  0  0  0  0
   -4.5314   21.7735  -27.7610 H   0  0  0  0  0  0  0  0  0  0  0  0
   -3.3970   20.1430  -28.6720 H   0  0  0  0  0  0  0  0  0  0  0  0
   -1.5416   22.1756  -29.3705 H   0  0  0  0  0  0  0  0  0  0  0  0
   -0.7446   20.6064  -28.8815 H   0  0  0  0  0  0  0  0  0  0  0  0
   -2.4392   19.5033  -30.5083 H   0  0  0  0  0  0  0  0  0  0  0  0
   -2.6284   21.1540  -31.1911 H   0  0  0  0  0  0  0  0  0  0  0  0
   -1.0164   20.3614  -31.1911 H   0  0  0  0  0  0  0  0  0  0  0  0
   -1.1897   19.9028  -27.1580 H   0  0  0  0  0  0  0  0  0  0  0  0
   -2.3731   20.9315  -26.2015 H   0  0  0  0  0  0  0  0  0  0  0  0
   -3.0533   18.8882  -25.4747 H   0  0  0  0  0  0  0  0  0  0  0  0
   -4.0463   18.9937  -26.9679 H   0  0  0  0  0  0  0  0  0  0  0  0
   -2.5225   18.0424  -26.9679 H   0  0  0  0  0  0  0  0  0  0  0  0
   -6.7855   24.1038  -31.7030 H   0  0  0  0  0  0  0  0  0  0  0  0
   -5.4700   24.3930  -32.9081 H   0  0  0  0  0  0  0  0  0  0  0  0
   -3.5864   22.4359  -32.7588 H   0  0  0  0  0  0  0  0  0  0  0  0
   -3.4217   20.0508  -33.4068 H   0  0  0  0  0  0  0  0  0  0  0  0
   -6.1669   16.8156  -34.7240 H   0  0  0  0  0  0  0  0  0  0  0  0
   -6.3356   18.5084  -35.3008 H   0  0  0  0  0  0  0  0  0  0  0  0
   -4.7235   17.7160  -35.3008 H   0  0  0  0  0  0  0  0  0  0  0  0
   -7.8151   18.2627  -32.8126 H   0  0  0  0  0  0  0  0  0  0  0  0
   -9.9924   19.1783  -32.0323 H   0  0  0  0  0  0  0  0  0  0  0  0
  -10.1748   21.5634  -31.3441 H   0  0  0  0  0  0  0  0  0  0  0  0
   -8.1913   23.0563  -31.4628 H   0  0  0  0  0  0  0  0  0  0  0  0
  1  2  1  0
  2  3  1  0
  3  4  1  0
  4  5  1  0
  5  6  1  0
  6  7  1  0
  7  8  1  0
  8  9  1  0
  7 10  1  0
 10 11  1  0
  3 12  1  0
 12 13  1  0
 13 14  2  0
 14 15  1  0
 15 16  2  0
 16 17  1  0
 17 18  1  0
 16 19  1  0
 19 20  2  0
 20 21  1  0
 21 22  2  0
 22 23  1  0
 23 24  2  0
 24 13  1  0
 24 19  1  0
  1 25  1  0
  1 26  1  0
  1 27  1  0
  2 28  1  0
  2 29  1  0
  4 30  1  0
  4 31  1  0
  5 32  1  0
  5 33  1  0
  6 34  1  0
  6 35  1  0
  7 36  1  0
  8 37  1  0
  8 38  1  0
  9 39  1  0
  9 40  1  0
  9 41  1  0
 10 42  1  0
 10 43  1  0
 11 44  1  0
 11 45  1  0
 11 46  1  0
 12 47  1  0
 12 48  1  0
 14 49  1  0
 15 50  1  0
 18 51  1  0
 18 52  1  0
 18 53  1  0
 20 54  1  0
 21 55  1  0
 22 56  1  0
 23 57  1  0
M  CHG  1   7   1
M  END
>  <UniqueID>  (10) 
10

>  <SMILES>  (10) 
CCN(CCC[NH+](CC)CC)Cc1ccc(OC)c2ccccc12

>  <Energy>  (10) 
67.4386801866895

>  <Genealogy>  (10) 
CCN(CCC[NH+](CC)CC)Cc1ccc(OC)c2ccccc12 (protonated)
CCN(CCC[NH+](CC)CC)Cc1ccc(OC)c2ccccc12 (3D coordinates assigned)
CCN(CCC[NH+](CC)CC)Cc1ccc(OC)c2ccccc12 (optimized conformer: 67.4386801866895 kcal/mol)

>  <smiles>  (10) 
CCN(CC)CCCN(CC)Cc1ccc(OC)c2ccccc12

>  <score_type>  (10) 
oracle

>  <origin>  (10) 
adg

>  <m_score__min__energy>  (10) 
-7.6799999999999997

>  <m_primary>  (10) 
energy

$$$$
10:0
     RDKit          3D

 56 59  0  0  0  0  0  0  0  0999 V2000
   -9.0600   22.4520  -31.5900 C   0  0  0  0  0  0  0  0  0  0  0  0
   -8.0800   23.4240  -32.2550 C   0  0  0  0  0  0  0  0  0  0  0  0
   -6.8030   23.5280  -31.5290 N   0  0  0  0  0  0  0  0  0  0  0  0
   -6.8610   24.5300  -30.4580 C   0  0  0  0  0  0  0  0  0  0  0  0
   -5.4500   24.9730  -30.0750 C   0  0  0  0  0  0  0  0  0  0  0  0
   -4.5020   24.4020  -30.9610 O   0  0  0  0  0  0  0  0  0  0  0  0
   -3.5820   23.6010  -30.2490 C   0  0  0  0  0  0  0  0  0  0  0  0
   -3.7600   22.1340  -30.6350 C   0  0  0  0  0  0  0  0  0  0  0  0
   -4.3910   21.9840  -31.9510 N   0  0  0  0  0  0  0  0  0  0  0  0
   -4.3780   20.7420  -32.6830 C   0  0  0  0  0  0  0  0  0  0  0  0
   -5.5040   19.9020  -32.6570 C   0  0  0  0  0  0  0  0  0  0  0  0
   -6.6890   20.3010  -32.0020 C   0  0  0  0  0  0  0  0  0  0  0  0
   -7.7870   19.4460  -31.9320 C   0  0  0  0  0  0  0  0  0  0  0  0
   -7.7140   18.1730  -32.4810 C   0  0  0  0  0  0  0  0  0  0  0  0
   -6.5580   17.7590  -33.1400 C   0  0  0  0  0  0  0  0  0  0  0  0
   -5.4460   18.6290  -33.2870 C   0  0  0  0  0  0  0  0  0  0  0  0
   -4.3220   18.2580  -34.0020 N   0  0  0  0  0  0  0  0  0  0  0  0
   -4.3610   17.0680  -34.8800 C   0  0  0  0  0  0  0  0  0  0  0  0
   -3.1800   19.0350  -33.9560 C   0  0  0  0  0  0  0  0  0  0  0  0
   -1.9900   18.5840  -34.4770 N   0  0  0  0  0  0  0  0  0  0  0  0
   -0.8860   19.3800  -34.5660 C   0  0  0  0  0  0  0  0  0  0  0  0
    0.3050   18.8900  -35.1320 C   0  0  0  0  0  0  0  0  0  0  0  0
    1.4230   19.7200  -35.2450 C   0  0  0  0  0  0  0  0  0  0  0  0
    1.3650   21.0420  -34.7960 C   0  0  0  0  0  0  0  0  0  0  0  0
    0.1890   21.5380  -34.2270 C   0  0  0  0  0  0  0  0  0  0  0  0
   -0.9380   20.7090  -34.1050 C   0  0  0  0  0  0  0  0  0  0  0  0
   -2.1100   21.1740  -33.5130 C   0  0  0  0  0  0  0  0  0  0  0  0
   -3.2220   20.3240  -33.3690 C   0  0  0  0  0  0  0  0  0  0  0  0
   -8.9749   22.5364  -30.4965 H   0  0  0  0  0  0  0  0  0  0  0  0
  -10.0868   22.6986  -31.8980 H   0  0  0  0  0  0  0  0  0  0  0  0
   -8.8219   21.4232  -31.8980 H   0  0  0  0  0  0  0  0  0  0  0  0
   -7.8761   23.0737  -33.2776 H   0  0  0  0  0  0  0  0  0  0  0  0
   -8.5463   24.4203  -32.2521 H   0  0  0  0  0  0  0  0  0  0  0  0
   -6.0430   23.7880  -32.2020 H   0  0  0  0  0  0  0  0  0  0  0  0
   -7.4339   25.4020  -30.8065 H   0  0  0  0  0  0  0  0  0  0  0  0
   -7.3503   24.0875  -29.5778 H   0  0  0  0  0  0  0  0  0  0  0  0
   -5.3854   26.0697  -30.1308 H   0  0  0  0  0  0  0  0  0  0  0  0
   -5.2330   24.6365  -29.0504 H   0  0  0  0  0  0  0  0  0  0  0  0
   -2.5575   23.9198  -30.4912 H   0  0  0  0  0  0  0  0  0  0  0  0
   -3.7626   23.7153  -29.1700 H   0  0  0  0  0  0  0  0  0  0  0  0
   -2.7722   21.6505  -30.6577 H   0  0  0  0  0  0  0  0  0  0  0  0
   -4.4165   21.6637  -29.8881 H   0  0  0  0  0  0  0  0  0  0  0  0
   -4.9540   22.7790  -32.3270 H   0  0  0  0  0  0  0  0  0  0  0  0
   -6.7463   21.2983  -31.5415 H   0  0  0  0  0  0  0  0  0  0  0  0
   -8.7129   19.7802  -31.4411 H   0  0  0  0  0  0  0  0  0  0  0  0
   -8.5713   17.4890  -32.3956 H   0  0  0  0  0  0  0  0  0  0  0  0
   -6.5063   16.7409  -33.5532 H   0  0  0  0  0  0  0  0  0  0  0  0
   -4.3908   16.1579  -34.2629 H   0  0  0  0  0  0  0  0  0  0  0  0
   -5.2582   17.1101  -35.5150 H   0  0  0  0  0  0  0  0  0  0  0  0
   -3.4629   17.0512  -35.5150 H   0  0  0  0  0  0  0  0  0  0  0  0
   -1.8870   17.5930  -34.7860 H   0  0  0  0  0  0  0  0  0  0  0  0
    0.3561   17.8500  -35.4867 H   0  0  0  0  0  0  0  0  0  0  0  0
    2.3517   19.3318  -35.6887 H   0  0  0  0  0  0  0  0  0  0  0  0
    2.2464   21.6932  -34.8906 H   0  0  0  0  0  0  0  0  0  0  0  0
    0.1460   22.5790  -33.8742 H   0  0  0  0  0  0  0  0  0  0  0  0
   -2.1666   22.2128  -33.1556 H   0  0  0  0  0  0  0  0  0  0  0  0
  1  2  1  0
  2  3  1  0
  3  4  1  0
  4  5  1  0
  5  6  1  0
  6  7  1  0
  7  8  1  0
  8  9  1  0
  9 10  1  0
 10 11  2  0
 11 12  1  0
 12 13  2  0
 13 14  1  0
 14 15  2  0
 15 16  1  0
 16 17  2  0
 17 18  1  0
 17 19  1  0
 19 20  2  0
 20 21  1  0
 21 22  2  0
 22 23  1  0
 23 24  2  0
 24 25  1  0
 25 26  2  0
 26 27  1  0
 27 28  2  0
 28 10  1  0
 16 11  1  0
 28 19  1  0
 26 21  1  0
  1 29  1  0
  1 30  1  0
  1 31  1  0
  2 32  1  0
  2 33  1  0
  3 34  1  0
  4 35  1  0
  4 36  1  0
  5 37  1  0
  5 38  1  0
  7 39  1  0
  7 40  1  0
  8 41  1  0
  8 42  1  0
  9 43  1  0
 12 44  1  0
 13 45  1  0
 14 46  1  0
 15 47  1  0
 18 48  1  0
 18 49  1  0
 18 50  1  0
 20 51  1  0
 22 52  1  0
 23 53  1  0
 24 54  1  0
 25 55  1  0
 27 56  1  0
M  CHG  2  17   1  20   1
M  END
>  <UniqueID>  (11) 
11

>  <SMILES>  (11) 
CCNCCOCCNc1c2ccccc2[n+](C)c2[nH+]c3ccccc3cc12

>  <Energy>  (11) 
82.13074588241231

>  <Genealogy>  (11) 
CCNCCOCCNc1c2ccccc2[n+](C)c2[nH+]c3ccccc3cc12 (protonated)
CCNCCOCCNc1c2ccccc2[n+](C)c2[nH+]c3ccccc3cc12 (3D coordinates assigned)
CCNCCOCCNc1c2ccccc2[n+](C)c2[nH+]c3ccccc3cc12 (optimized conformer: 82.13074588241231 kcal/mol)

>  <smiles>  (11) 
CCNCCOCCNc1c2ccccc2[n+](C)c2nc3ccccc3cc12

>  <score_type>  (11) 
oracle

>  <origin>  (11) 
adg

>  <m_score__min__energy>  (11) 
-8.6199999999999992

>  <m_primary>  (11) 
energy

$$$$
11:0
     RDKit          3D

 42 44  0  0  0  0  0  0  0  0999 V2000
   -6.0720   14.9610  -34.1670 C   0  0  0  0  0  0  0  0  0  0  0  0
   -6.8640   16.1980  -33.7490 C   0  0  0  0  0  0  0  0  0  0  0  0
   -5.9910   17.1490  -33.0290 N   0  0  0  0  0  0  0  0  0  0  0  0
   -6.2110   17.0500  -31.5760 C   0  0  0  0  0  0  0  0  0  0  0  0
   -4.5600   16.9550  -33.3590 C   0  0  0  0  0  0  0  0  0  0  0  0
   -4.1250   17.9300  -34.4600 C   0  0  0  0  0  0  0  0  0  0  0  0
   -3.7180   19.2360  -33.8850 N   0  0  0  0  0  0  0  0  0  0  0  0
   -2.3960   19.6090  -34.0120 C   0  0  0  0  0  0  0  0  0  0  0  0
   -1.5680   18.8460  -34.5880 O   0  0  0  0  0  0  0  0  0  0  0  0
   -1.9430   20.8360  -33.5130 C   0  0  0  0  0  0  0  0  0  0  0  0
   -0.5580   21.2240  -33.6370 C   0  0  0  0  0  0  0  0  0  0  0  0
    0.5530   21.5340  -33.7360 N   0  0  0  0  0  0  0  0  0  0  0  0
   -2.8390   21.6990  -32.9000 C   0  0  0  0  0  0  0  0  0  0  0  0
   -4.1880   21.3540  -32.7870 C   0  0  0  0  0  0  0  0  0  0  0  0
   -4.6270   20.1020  -33.2910 C   0  0  0  0  0  0  0  0  0  0  0  0
   -5.9600   19.7960  -33.1850 N   0  0  0  0  0  0  0  0  0  0  0  0
   -6.8510   20.6550  -32.6180 C   0  0  0  0  0  0  0  0  0  0  0  0
   -8.2140   20.3190  -32.5360 C   0  0  0  0  0  0  0  0  0  0  0  0
   -9.1230   21.2020  -31.9540 C   0  0  0  0  0  0  0  0  0  0  0  0
   -8.6850   22.4280  -31.4510 C   0  0  0  0  0  0  0  0  0  0  0  0
   -7.3340   22.7760  -31.5280 C   0  0  0  0  0  0  0  0  0  0  0  0
   -6.4040   21.8930  -32.1140 C   0  0  0  0  0  0  0  0  0  0  0  0
   -5.0800   22.2160  -32.2060 N   0  0  0  0  0  0  0  0  0  0  0  0
   -4.6420   23.4280  -31.7160 O   0  0  0  0  0  0  0  0  0  0  0  0
   -5.7288   14.4249  -33.2699 H   0  0  0  0  0  0  0  0  0  0  0  0
   -6.7148   14.2992  -34.7661 H   0  0  0  0  0  0  0  0  0  0  0  0
   -5.2020   15.2678  -34.7661 H   0  0  0  0  0  0  0  0  0  0  0  0
   -7.2717   16.6876  -34.6457 H   0  0  0  0  0  0  0  0  0  0  0  0
   -7.6825   15.8894  -33.0821 H   0  0  0  0  0  0  0  0  0  0  0  0
   -5.3328   17.4452  -31.0444 H   0  0  0  0  0  0  0  0  0  0  0  0
   -7.1008   17.6345  -31.2992 H   0  0  0  0  0  0  0  0  0  0  0  0
   -6.3637   15.9964  -31.2992 H   0  0  0  0  0  0  0  0  0  0  0  0
   -3.9537   17.1322  -32.4584 H   0  0  0  0  0  0  0  0  0  0  0  0
   -4.4144   15.9255  -33.7180 H   0  0  0  0  0  0  0  0  0  0  0  0
   -3.2746   17.4976  -35.0077 H   0  0  0  0  0  0  0  0  0  0  0  0
   -4.9760   18.0957  -35.1370 H   0  0  0  0  0  0  0  0  0  0  0  0
   -2.4854   22.6609  -32.5004 H   0  0  0  0  0  0  0  0  0  0  0  0
   -6.3460   18.9010  -33.5440 H   0  0  0  0  0  0  0  0  0  0  0  0
   -8.5649   19.3550  -32.9329 H   0  0  0  0  0  0  0  0  0  0  0  0
  -10.1874   20.9317  -31.8912 H   0  0  0  0  0  0  0  0  0  0  0  0
   -9.4051   23.1219  -30.9929 H   0  0  0  0  0  0  0  0  0  0  0  0
   -6.9943   23.7434  -31.1296 H   0  0  0  0  0  0  0  0  0  0  0  0
  1  2  1  0
  2  3  1  0
  3  4  1  0
  3  5  1  0
  5  6  1  0
  6  7  1  0
  7  8  1  0
  8  9  2  0
  8 10  1  0
 10 11  1  0
 11 12  3  0
 10 13  2  0
 13 14  1  0
 14 15  2  0
 15 16  1  0
 16 17  2  0
 17 18  1  0
 18 19  2  0
 19 20  1  0
 20 21  2  0
 21 22  1  0
 22 23  2  0
 23 24  1  0
 15  7  1  0
 22 17  1  0
 23 14  1  0
  1 25  1  0
  1 26  1  0
  1 27  1  0
  2 28  1  0
  2 29  1  0
  4 30  1  0
  4 31  1  0
  4 32  1  0
  5 33  1  0
  5 34  1  0
  6 35  1  0
  6 36  1  0
 13 37  1  0
 16 38  1  0
 18 39  1  0
 19 40  1  0
 20 41  1  0
 21 42  1  0
M  CHG  3  16   1  23   1  24  -1
M  END
>  <UniqueID>  (12) 
12

>  <SMILES>  (12) 
CCN(C)CCn1c(=O)c(C#N)cc2c1[nH+]c1ccccc1[n+]2[O-]

>  <Energy>  (12) 
57.80749988036913

>  <Genealogy>  (12) 
CCN(C)CCn1c(=O)c(C#N)cc2c1[nH+]c1ccccc1[n+]2[O-] (protonated)
CCN(C)CCn1c(=O)c(C#N)cc2c1[nH+]c1ccccc1[n+]2[O-] (3D coordinates assigned)
CCN(C)CCn1c(=O)c(C#N)cc2c1[nH+]c1ccccc1[n+]2[O-] (optimized conformer: 57.80749988036913 kcal/mol)

>  <smiles>  (12) 
CCN(C)CCn1c(=O)c(C#N)cc2c1nc1ccccc1[n+]2[O-]

>  <score_type>  (12) 
oracle

>  <origin>  (12) 
adg

>  <m_score__min__energy>  (12) 
-6.9000000000000004

>  <m_primary>  (12) 
energy

$$$$
12:0
     RDKit          3D

 93 96  0  0  0  0  0  0  0  0999 V2000
    0.8750   17.8800  -35.7810 C   0  0  0  0  0  0  0  0  0  0  0  0
   -0.3040   18.0440  -34.8250 C   0  0  0  0  0  0  0  0  0  0  0  0
    0.1380   18.1300  -33.4140 N   0  0  0  0  0  0  0  0  0  0  0  0
   -0.5400   17.1200  -32.5670 C   0  0  0  0  0  0  0  0  0  0  0  0
   -1.9580   16.8780  -33.0770 C   0  0  0  0  0  0  0  0  0  0  0  0
    1.6120   18.1200  -33.2350 C   0  0  0  0  0  0  0  0  0  0  0  0
    2.2240   19.5030  -32.9380 C   0  0  0  0  0  0  0  0  0  0  0  0
    1.2750   20.5140  -33.2000 O   0  0  0  0  0  0  0  0  0  0  0  0
    1.5300   21.0760  -34.4700 C   0  0  0  0  0  0  0  0  0  0  0  0
    0.2200   21.5810  -35.0930 C   0  0  0  0  0  0  0  0  0  0  0  0
   -0.7950   21.8640  -34.1410 O   0  0  0  0  0  0  0  0  0  0  0  0
   -1.8210   20.8840  -34.1060 C   0  0  0  0  0  0  0  0  0  0  0  0
   -2.0340   20.2720  -32.7090 C   0  0  0  0  0  0  0  0  0  0  0  0
   -0.8440   20.4660  -31.8590 N   0  0  0  0  0  0  0  0  0  0  0  0
   -1.1850   20.3880  -30.4470 C   0  0  0  0  0  0  0  0  0  0  0  0
   -0.5360   19.4500  -29.6000 C   0  0  0  0  0  0  0  0  0  0  0  0
    0.5890   18.7080  -30.0360 C   0  0  0  0  0  0  0  0  0  0  0  0
    1.2230   17.8000  -29.1920 C   0  0  0  0  0  0  0  0  0  0  0  0
    0.7630   17.6180  -27.8950 C   0  0  0  0  0  0  0  0  0  0  0  0
   -0.3360   18.3390  -27.4350 C   0  0  0  0  0  0  0  0  0  0  0  0
   -1.0160   19.2540  -28.2760 C   0  0  0  0  0  0  0  0  0  0  0  0
   -2.1130   19.9600  -27.8250 N   0  0  0  0  0  0  0  0  0  0  0  0
   -2.8180   19.5340  -26.5960 C   0  0  0  0  0  0  0  0  0  0  0  0
   -2.5590   21.0600  -28.5300 C   0  0  0  0  0  0  0  0  0  0  0  0
   -3.4320   22.0060  -27.9400 C   0  0  0  0  0  0  0  0  0  0  0  0
   -3.9180   23.0920  -28.6620 C   0  0  0  0  0  0  0  0  0  0  0  0
   -3.5470   23.2750  -29.9970 C   0  0  0  0  0  0  0  0  0  0  0  0
   -4.0130   24.3450  -30.7790 O   0  0  0  0  0  0  0  0  0  0  0  0
   -5.3600   24.8090  -30.8460 C   0  0  0  0  0  0  0  0  0  0  0  0
   -6.2110   24.0820  -31.9200 C   0  0  0  0  0  0  0  0  0  0  0  0
   -6.8540   22.7790  -31.5210 N   0  0  0  0  0  0  0  0  0  0  0  0
   -6.8740   22.6770  -30.0340 C   0  0  0  0  0  0  0  0  0  0  0  0
   -8.2850   22.8170  -31.9890 C   0  0  0  0  0  0  0  0  0  0  0  0
   -9.1300   21.5540  -31.6640 C   0  0  0  0  0  0  0  0  0  0  0  0
   -9.0340   20.3850  -32.6820 C   0  0  0  0  0  0  0  0  0  0  0  0
   -7.6980   19.6200  -32.6760 C   0  0  0  0  0  0  0  0  0  0  0  0
   -6.6320   20.2140  -31.7320 C   0  0  0  0  0  0  0  0  0  0  0  0
   -6.0930   21.6220  -32.0920 C   0  0  0  0  0  0  0  0  0  0  0  0
   -2.6610   22.3740  -30.5860 C   0  0  0  0  0  0  0  0  0  0  0  0
   -2.1360   21.2720  -29.8690 C   0  0  0  0  0  0  0  0  0  0  0  0
    1.8014   17.7511  -35.2020 H   0  0  0  0  0  0  0  0  0  0  0  0
    0.7128   16.9958  -36.4149 H   0  0  0  0  0  0  0  0  0  0  0  0
    0.9603   18.7749  -36.4149 H   0  0  0  0  0  0  0  0  0  0  0  0
   -0.8470   18.9648  -35.0845 H   0  0  0  0  0  0  0  0  0  0  0  0
   -0.9513   17.1604  -34.9266 H   0  0  0  0  0  0  0  0  0  0  0  0
    0.0254   16.1770  -32.6014 H   0  0  0  0  0  0  0  0  0  0  0  0
   -0.5867   17.4895  -31.5320 H   0  0  0  0  0  0  0  0  0  0  0  0
   -2.6403   16.7616  -32.2220 H   0  0  0  0  0  0  0  0  0  0  0  0
   -2.2790   17.7344  -33.6883 H   0  0  0  0  0  0  0  0  0  0  0  0
   -1.9768   15.9637  -33.6883 H   0  0  0  0  0  0  0  0  0  0  0  0
    1.8527   17.4495  -32.3969 H   0  0  0  0  0  0  0  0  0  0  0  0
    2.0430   17.7830  -34.1893 H   0  0  0  0  0  0  0  0  0  0  0  0
    2.5243   19.5496  -31.8808 H   0  0  0  0  0  0  0  0  0  0  0  0
    3.1032   19.6559  -33.5811 H   0  0  0  0  0  0  0  0  0  0  0  0
    2.2303   21.9174  -34.3622 H   0  0  0  0  0  0  0  0  0  0  0  0
    1.9683   20.3076  -35.1238 H   0  0  0  0  0  0  0  0  0  0  0  0
    0.4354   22.5020  -35.6547 H   0  0  0  0  0  0  0  0  0  0  0  0
   -0.1604   20.7746  -35.7372 H   0  0  0  0  0  0  0  0  0  0  0  0
   -2.7623   21.3529  -34.4286 H   0  0  0  0  0  0  0  0  0  0  0  0
   -1.5131   20.0671  -34.7752 H   0  0  0  0  0  0  0  0  0  0  0  0
   -2.8991   20.7562  -32.2324 H   0  0  0  0  0  0  0  0  0  0  0  0
   -2.2106   19.1923  -32.8230 H   0  0  0  0  0  0  0  0  0  0  0  0
   -0.3800   21.3800  -32.0660 H   0  0  0  0  0  0  0  0  0  0  0  0
   -0.1090   19.7650  -32.1040 H   0  0  0  0  0  0  0  0  0  0  0  0
    0.9682   18.8515  -31.0586 H   0  0  0  0  0  0  0  0  0  0  0  0
    2.0892   17.2263  -29.5534 H   0  0  0  0  0  0  0  0  0  0  0  0
    1.2677   16.9026  -27.2291 H   0  0  0  0  0  0  0  0  0  0  0  0
   -0.6821   18.1956  -26.4008 H   0  0  0  0  0  0  0  0  0  0  0  0
   -2.2554   19.8740  -25.7140 H   0  0  0  0  0  0  0  0  0  0  0  0
   -3.8259   19.9744  -26.5801 H   0  0  0  0  0  0  0  0  0  0  0  0
   -2.8969   18.4369  -26.5801 H   0  0  0  0  0  0  0  0  0  0  0  0
   -3.7322   21.8799  -26.8893 H   0  0  0  0  0  0  0  0  0  0  0  0
   -4.5975   23.8099  -28.1795 H   0  0  0  0  0  0  0  0  0  0  0  0
   -5.8312   24.6536  -29.8643 H   0  0  0  0  0  0  0  0  0  0  0  0
   -5.3230   25.8719  -31.1268 H   0  0  0  0  0  0  0  0  0  0  0  0
   -7.0147   24.7679  -32.2259 H   0  0  0  0  0  0  0  0  0  0  0  0
   -5.4986   23.8157  -32.7147 H   0  0  0  0  0  0  0  0  0  0  0  0
   -6.6799   23.6671  -29.5959 H   0  0  0  0  0  0  0  0  0  0  0  0
   -7.8598   22.3171  -29.7044 H   0  0  0  0  0  0  0  0  0  0  0  0
   -6.0971   21.9715  -29.7044 H   0  0  0  0  0  0  0  0  0  0  0  0
   -8.7731   23.6820  -31.5162 H   0  0  0  0  0  0  0  0  0  0  0  0
   -8.2418   22.8767  -33.0865 H   0  0  0  0  0  0  0  0  0  0  0  0
   -8.8031   21.1742  -30.6848 H   0  0  0  0  0  0  0  0  0  0  0  0
  -10.1785   21.8853  -31.6937 H   0  0  0  0  0  0  0  0  0  0  0  0
   -9.8375   19.6689  -32.4549 H   0  0  0  0  0  0  0  0  0  0  0  0
   -9.1211   20.8404  -33.6795 H   0  0  0  0  0  0  0  0  0  0  0  0
   -7.8955   18.5837  -32.3643 H   0  0  0  0  0  0  0  0  0  0  0  0
   -7.2904   19.6888  -33.6954 H   0  0  0  0  0  0  0  0  0  0  0  0
   -7.0727   20.2726  -30.7259 H   0  0  0  0  0  0  0  0  0  0  0  0
   -5.7651   19.5419  -31.8142 H   0  0  0  0  0  0  0  0  0  0  0  0
   -5.0564   21.6888  -31.7302 H   0  0  0  0  0  0  0  0  0  0  0  0
   -6.1934   21.7092  -33.1839 H   0  0  0  0  0  0  0  0  0  0  0  0
   -2.3624   22.5231  -31.6341 H   0  0  0  0  0  0  0  0  0  0  0  0
  1  2  1  0
  2  3  1  0
  3  4  1  0
  4  5  1  0
  3  6  1  0
  6  7  1  0
  7  8  1  0
  8  9  1  0
  9 10  1  0
 10 11  1  0
 11 12  1  0
 12 13  1  0
 13 14  1  0
 14 15  1  0
 15 16  2  0
 16 17  1  0
 17 18  2  0
 18 19  1  0
 19 20  2  0
 20 21  1  0
 21 22  2  0
 22 23  1  0
 22 24  1  0
 24 25  2  0
 25 26  1  0
 26 27  2  0
 27 28  1  0
 28 29  1  0
 29 30  1  0
 30 31  1  0
 31 32  1  0
 31 33  1  0
 33 34  1  0
 34 35  1  0
 35 36  1  0
 36 37  1  0
 37 38  1  0
 27 39  1  0
 39 40  2  0
 40 15  1  0
 21 16  1  0
 40 24  1  0
 38 31  1  0
  1 41  1  0
  1 42  1  0
  1 43  1  0
  2 44  1  0
  2 45  1  0
  4 46  1  0
  4 47  1  0
  5 48  1  0
  5 49  1  0
  5 50  1  0
  6 51  1  0
  6 52  1  0
  7 53  1  0
  7 54  1  0
  9 55  1  0
  9 56  1  0
 10 57  1  0
 10 58  1  0
 12 59  1  0
 12 60  1  0
 13 61  1  0
 13 62  1  0
 14 63  1  0
 14 64  1  0
 17 65  1  0
 18 66  1  0
 19 67  1  0
 20 68  1  0
 23 69  1  0
 23 70  1  0
 23 71  1  0
 25 72  1  0
 26 73  1  0
 29 74  1  0
 29 75  1  0
 30 76  1  0
 30 77  1  0
 32 78  1  0
 32 79  1  0
 32 80  1  0
 33 81  1  0
 33 82  1  0
 34 83  1  0
 34 84  1  0
 35 85  1  0
 35 86  1  0
 36 87  1  0
 36 88  1  0
 37 89  1  0
 37 90  1  0
 38 91  1  0
 38 92  1  0
 39 93  1  0
M  CHG  3  14   1  22   1  31   1
M  END
>  <UniqueID>  (13) 
13

>  <SMILES>  (13) 
CCN(CC)CCOCCOCC[NH2+]c1c2ccccc2[n+](C)c2ccc(OCC[N+]3(C)CCCCCC3)cc12

>  <Energy>  (13) 
152.83563376599605

>  <Genealogy>  (13) 
CCN(CC)CCOCCOCC[NH2+]c1c2ccccc2[n+](C)c2ccc(OCC[N+]3(C)CCCCCC3)cc12 (protonated)
CCN(CC)CCOCCOCC[NH2+]c1c2ccccc2[n+](C)c2ccc(OCC[N+]3(C)CCCCCC3)cc12 (3D coordinates assigned)
CCN(CC)CCOCCOCC[NH2+]c1c2ccccc2[n+](C)c2ccc(OCC[N+]3(C)CCCCCC3)cc12 (nonaromatic ring conformer: 152.83563376599605 kcal/mol)

>  <smiles>  (13) 
CCN(CC)CCOCCOCCNc1c2ccccc2[n+](C)c2ccc(OCC[N+]3(C)CCCCCC3)cc12

>  <score_type>  (13) 
oracle

>  <origin>  (13) 
adg

>  <m_score__min__energy>  (13) 
-6.6399999999999997

>  <m_primary>  (13) 
energy

$$$$
13:0
     RDKit          3D

 42 45  0  0  0  0  0  0  0  0999 V2000
   -6.2380   25.9180  -29.2480 C   0  0  0  0  0  0  0  0  0  0  0  0
   -6.0820   24.7830  -30.1640 N   0  0  0  0  0  0  0  0  0  0  0  0
   -7.1460   23.9460  -30.3950 C   0  0  0  0  0  0  0  0  0  0  0  0
   -6.9650   22.8770  -31.2560 C   0  0  0  0  0  0  0  0  0  0  0  0
   -7.7840   21.8600  -31.6830 C   0  0  0  0  0  0  0  0  0  0  0  0
   -9.1070   21.5450  -31.3960 C   0  0  0  0  0  0  0  0  0  0  0  0
   -9.6390   20.4280  -31.9710 N   0  0  0  0  0  0  0  0  0  0  0  0
   -8.9100   19.6210  -32.8050 C   0  0  0  0  0  0  0  0  0  0  0  0
   -7.5680   19.9210  -33.0990 C   0  0  0  0  0  0  0  0  0  0  0  0
   -7.0240   21.0730  -32.5230 C   0  0  0  0  0  0  0  0  0  0  0  0
   -5.7640   21.5710  -32.6500 N   0  0  0  0  0  0  0  0  0  0  0  0
   -4.6390   21.0300  -33.4230 C   0  0  0  0  0  0  0  0  0  0  0  0
   -3.5380   20.4540  -32.5160 C   0  0  0  0  0  0  0  0  0  0  0  0
   -3.2640   18.9550  -32.7320 C   0  0  0  0  0  0  0  0  0  0  0  0
   -4.5140   18.1610  -33.0190 C   0  0  0  0  0  0  0  0  0  0  0  0
   -4.8180   17.7690  -34.3340 C   0  0  0  0  0  0  0  0  0  0  0  0
   -5.9790   17.0370  -34.6020 C   0  0  0  0  0  0  0  0  0  0  0  0
   -6.8350   16.6760  -33.5600 C   0  0  0  0  0  0  0  0  0  0  0  0
   -6.5310   17.0420  -32.2460 C   0  0  0  0  0  0  0  0  0  0  0  0
   -5.3720   17.7770  -31.9740 C   0  0  0  0  0  0  0  0  0  0  0  0
   -5.7540   22.6660  -31.8530 C   0  0  0  0  0  0  0  0  0  0  0  0
   -4.7000   23.4800  -31.6140 N   0  0  0  0  0  0  0  0  0  0  0  0
   -4.8610   24.5420  -30.7680 C   0  0  0  0  0  0  0  0  0  0  0  0
   -3.8780   25.3000  -30.5460 O   0  0  0  0  0  0  0  0  0  0  0  0
   -6.1888   25.5601  -28.2090 H   0  0  0  0  0  0  0  0  0  0  0  0
   -5.4313   26.6448  -29.4240 H   0  0  0  0  0  0  0  0  0  0  0  0
   -7.2109   26.4002  -29.4240 H   0  0  0  0  0  0  0  0  0  0  0  0
   -8.1170   24.1204  -29.9085 H   0  0  0  0  0  0  0  0  0  0  0  0
   -9.7072   22.1774  -30.7253 H   0  0  0  0  0  0  0  0  0  0  0  0
   -9.3790   18.7303  -33.2485 H   0  0  0  0  0  0  0  0  0  0  0  0
   -6.9691   19.2741  -33.7570 H   0  0  0  0  0  0  0  0  0  0  0  0
   -5.0119   20.2304  -34.0799 H   0  0  0  0  0  0  0  0  0  0  0  0
   -4.2013   21.8536  -34.0061 H   0  0  0  0  0  0  0  0  0  0  0  0
   -2.6068   21.0065  -32.7100 H   0  0  0  0  0  0  0  0  0  0  0  0
   -3.8910   20.5652  -31.4801 H   0  0  0  0  0  0  0  0  0  0  0  0
   -2.5755   18.8439  -33.5826 H   0  0  0  0  0  0  0  0  0  0  0  0
   -2.8326   18.5624  -31.7994 H   0  0  0  0  0  0  0  0  0  0  0  0
   -4.1394   18.0393  -35.1564 H   0  0  0  0  0  0  0  0  0  0  0  0
   -6.2181   16.7453  -35.6353 H   0  0  0  0  0  0  0  0  0  0  0  0
   -7.7494   16.1030  -33.7734 H   0  0  0  0  0  0  0  0  0  0  0  0
   -7.2033   16.7520  -31.4251 H   0  0  0  0  0  0  0  0  0  0  0  0
   -5.1311   18.0557  -30.9375 H   0  0  0  0  0  0  0  0  0  0  0  0
  1  2  1  0
  2  3  1  0
  3  4  2  0
  4  5  1  0
  5  6  2  0
  6  7  1  0
  7  8  2  0
  8  9  1  0
  9 10  2  0
 10 11  1  0
 11 12  1  0
 12 13  1  0
 13 14  1  0
 14 15  1  0
 15 16  2  0
 16 17  1  0
 17 18  2  0
 18 19  1  0
 19 20  2  0
 11 21  1  0
 21 22  2  0
 22 23  1  0
 23 24  2  0
 23  2  1  0
 21  4  1  0
 10  5  1  0
 20 15  1  0
  1 25  1  0
  1 26  1  0
  1 27  1  0
  3 28  1  0
  6 29  1  0
  8 30  1  0
  9 31  1  0
 12 32  1  0
 12 33  1  0
 13 34  1  0
 13 35  1  0
 14 36  1  0
 14 37  1  0
 16 38  1  0
 17 39  1  0
 18 40  1  0
 19 41  1  0
 20 42  1  0
M  END
>  <UniqueID>  (14) 
14

>  <SMILES>  (14) 
Cn1cc2c3cnccc3n(CCCc3ccccc3)c2nc1=O

>  <Energy>  (14) 
88.97343692811862

>  <Genealogy>  (14) 
Cn1cc2c3cnccc3n(CCCc3ccccc3)c2nc1=O (3D coordinates assigned)
Cn1cc2c3cnccc3n(CCCc3ccccc3)c2nc1=O (optimized conformer: 88.97343692811862 kcal/mol)

>  <smiles>  (14) 
Cn1cc2c3cnccc3n(CCCc3ccccc3)c2nc1=O

>  <score_type>  (14) 
oracle

>  <origin>  (14) 
adg

>  <m_score__min__energy>  (14) 
-9.1699999999999999

>  <m_primary>  (14) 
energy

$$$$
14:0
     RDKit          3D

 43 45  0  0  0  0  0  0  0  0999 V2000
    2.2269   24.3858  -26.6395 H   0  0  0  0  0  0  0  0  0  0  0  0
    1.3530   24.9680  -26.9670 C   0  0  0  0  0  0  0  0  0  0  0  0
    1.2050   26.2940  -26.5540 C   0  0  0  0  0  0  0  0  0  0  0  0
    1.9589   26.7535  -25.8979 H   0  0  0  0  0  0  0  0  0  0  0  0
    0.0980   27.0370  -26.9750 C   0  0  0  0  0  0  0  0  0  0  0  0
   -0.0930   28.8560  -26.4250 Br  0  0  0  0  0  0  0  0  0  0  0  0
   -0.8650   26.4510  -27.8030 C   0  0  0  0  0  0  0  0  0  0  0  0
   -1.7320   27.0413  -28.1344 H   0  0  0  0  0  0  0  0  0  0  0  0
   -0.7330   25.1100  -28.2160 C   0  0  0  0  0  0  0  0  0  0  0  0
   -1.7390   24.4700  -29.1020 C   0  0  0  0  0  0  0  0  0  0  0  0
   -2.9030   25.1230  -29.3610 N   0  0  0  0  0  0  0  0  0  0  0  0
   -3.8690   24.6040  -30.1610 C   0  0  0  0  0  0  0  0  0  0  0  0
   -5.0460   25.3270  -30.3820 C   0  0  0  0  0  0  0  0  0  0  0  0
   -5.1818   26.3113  -29.9100 H   0  0  0  0  0  0  0  0  0  0  0  0
   -6.0490   24.8030  -31.2000 C   0  0  0  0  0  0  0  0  0  0  0  0
   -6.9732   25.3748  -31.3703 H   0  0  0  0  0  0  0  0  0  0  0  0
   -5.8810   23.5550  -31.8020 C   0  0  0  0  0  0  0  0  0  0  0  0
   -6.6741   23.1452  -32.4446 H   0  0  0  0  0  0  0  0  0  0  0  0
   -4.7080   22.8240  -31.5910 C   0  0  0  0  0  0  0  0  0  0  0  0
   -4.5820   21.8419  -32.0701 H   0  0  0  0  0  0  0  0  0  0  0  0
   -3.6850   23.3390  -30.7670 C   0  0  0  0  0  0  0  0  0  0  0  0
   -2.4830   22.6350  -30.5320 C   0  0  0  0  0  0  0  0  0  0  0  0
   -2.2990   21.4710  -31.0930 N   0  0  0  0  0  0  0  0  0  0  0  0
   -1.0540   20.9650  -31.6690 C   0  0  0  0  0  0  0  0  0  0  0  0
   -0.7953   20.0079  -31.1924 H   0  0  0  0  0  0  0  0  0  0  0  0
   -0.2529   21.6985  -31.4952 H   0  0  0  0  0  0  0  0  0  0  0  0
   -1.2200   20.7510  -33.1810 C   0  0  0  0  0  0  0  0  0  0  0  0
   -0.9403   19.7150  -33.4230 H   0  0  0  0  0  0  0  0  0  0  0  0
   -0.5712   21.4766  -33.6934 H   0  0  0  0  0  0  0  0  0  0  0  0
   -2.6060   20.9870  -33.6400 N   0  0  0  0  0  0  0  0  0  0  0  0
   -3.1040   21.6100  -32.9630 H   0  0  0  0  0  0  0  0  0  0  0  0
   -2.5750   21.5030  -34.5510 H   0  0  0  0  0  0  0  0  0  0  0  0
   -3.3810   19.7420  -33.8020 C   0  0  0  0  0  0  0  0  0  0  0  0
   -2.9259   18.9582  -33.1786 H   0  0  0  0  0  0  0  0  0  0  0  0
   -3.3614   19.4694  -34.8675 H   0  0  0  0  0  0  0  0  0  0  0  0
   -4.8470   19.9120  -33.3880 C   0  0  0  0  0  0  0  0  0  0  0  0
   -4.9194   19.9204  -32.2904 H   0  0  0  0  0  0  0  0  0  0  0  0
   -5.2334   20.8610  -33.7882 H   0  0  0  0  0  0  0  0  0  0  0  0
   -5.4403   19.0766  -33.7882 H   0  0  0  0  0  0  0  0  0  0  0  0
   -1.5070   23.2170  -29.6940 C   0  0  0  0  0  0  0  0  0  0  0  0
   -0.5617   22.6876  -29.5039 H   0  0  0  0  0  0  0  0  0  0  0  0
    0.3940   24.3790  -27.7950 C   0  0  0  0  0  0  0  0  0  0  0  0
    0.5206   23.3359  -28.1205 H   0  0  0  0  0  0  0  0  0  0  0  0
  1  2  1  0
  2  3  2  0
  3  4  1  0
  3  5  1  0
  5  6  1  0
  5  7  2  0
  7  8  1  0
  7  9  1  0
  9 10  1  0
 10 11  1  0
 11 12  1  0
 12 13  2  0
 13 14  1  0
 13 15  1  0
 15 16  1  0
 15 17  2  0
 17 18  1  0
 17 19  1  0
 19 20  1  0
 19 21  2  0
 21 22  1  0
 22 23  2  0
 23 24  1  0
 24 25  1  0
 24 26  1  0
 24 27  1  0
 27 28  1  0
 27 29  1  0
 27 30  1  0
 30 31  1  0
 30 32  1  0
 30 33  1  0
 33 34  1  0
 33 35  1  0
 33 36  1  0
 36 37  1  0
 36 38  1  0
 36 39  1  0
 22 40  1  0
 40 41  1  0
  9 42  2  0
 42 43  1  0
 42  2  1  0
 40 10  2  0
 21 12  1  0
M  CHG  2  11  -1  30   1
M  END
>  <UniqueID>  (15) 
15

>  <SMILES>  (15) 
CC[NH2+]CC/N=c1\cc(-c2cccc(Br)c2)[n-]c2ccccc12

>  <Energy>  (15) 
53.08846272141783

>  <Genealogy>  (15) 
CC[NH2+]CCN=c1cc(-c2cccc(Br)c2)[n-]c2ccccc12 (protonated)
CC[NH2+]CC/N=c1\cc(-c2cccc(Br)c2)[n-]c2ccccc12 (cis-trans isomerization)
CC[NH2+]CC/N=c1\cc(-c2cccc(Br)c2)[n-]c2ccccc12 (3D coordinates assigned)
CC[NH2+]CC/N=c1\cc(-c2cccc(Br)c2)[n-]c2ccccc12 (optimized conformer: 53.08846272141783 kcal/mol)

>  <smiles>  (15) 
CCNCCN=c1cc(-c2cccc(Br)c2)[nH]c2ccccc12

>  <score_type>  (15) 
oracle

>  <origin>  (15) 
adg

>  <m_score__min__energy>  (15) 
-7.79

>  <m_primary>  (15) 
energy

$$$$
15:0
     RDKit          3D

 75 78  0  0  0  0  0  0  0  0999 V2000
   -3.4280   18.9180  -26.6680 C   0  0  0  0  0  0  0  0  0  0  0  0
   -2.1650   19.7880  -26.8030 C   0  0  0  0  0  0  0  0  0  0  0  0
   -1.6710   19.9400  -28.1940 N   0  0  2  0  0  0  0  0  0  0  0  0
   -0.3310   20.5610  -28.1300 C   0  0  0  0  0  0  0  0  0  0  0  0
   -2.6270   20.7350  -29.0220 C   0  0  0  0  0  0  0  0  0  0  0  0
   -2.2890   20.7740  -30.5410 C   0  0  0  0  0  0  0  0  0  0  0  0
   -3.2030   21.7070  -31.3590 C   0  0  0  0  0  0  0  0  0  0  0  0
   -3.7120   21.0420  -32.5610 N   0  0  0  0  0  0  0  0  0  0  0  0
   -5.0430   20.4970  -32.5980 C   0  0  0  0  0  0  0  0  0  0  0  0
   -6.1340   21.3240  -32.2800 C   0  0  0  0  0  0  0  0  0  0  0  0
   -5.9600   22.6740  -31.9350 C   0  0  0  0  0  0  0  0  0  0  0  0
   -7.0500   23.5000  -31.6610 C   0  0  0  0  0  0  0  0  0  0  0  0
   -8.3420   22.9780  -31.6720 C   0  0  0  0  0  0  0  0  0  0  0  0
   -8.5290   21.6290  -31.9600 C   0  0  0  0  0  0  0  0  0  0  0  0
   -7.4480   20.7750  -32.2620 C   0  0  0  0  0  0  0  0  0  0  0  0
   -7.6360   19.4300  -32.5230 N   0  0  0  0  0  0  0  0  0  0  0  0
   -8.9210   18.8040  -32.1320 C   0  0  0  0  0  0  0  0  0  0  0  0
   -6.6190   18.6720  -33.0560 C   0  0  0  0  0  0  0  0  0  0  0  0
   -6.8690   17.4190  -33.6500 C   0  0  0  0  0  0  0  0  0  0  0  0
   -5.8320   16.6120  -34.0880 C   0  0  0  0  0  0  0  0  0  0  0  0
   -4.5190   17.0300  -33.9640 C   0  0  0  0  0  0  0  0  0  0  0  0
   -4.2170   18.3090  -33.4440 C   0  0  0  0  0  0  0  0  0  0  0  0
   -2.8770   18.7310  -33.2640 O   0  0  0  0  0  0  0  0  0  0  0  0
   -1.6860   17.9420  -33.3940 C   0  0  0  0  0  0  0  0  0  0  0  0
   -0.7900   18.5020  -34.5280 C   0  0  0  0  0  0  0  0  0  0  0  0
    0.3930   19.3340  -34.1110 N   0  0  0  0  0  0  0  0  0  0  0  0
    1.4300   18.4660  -33.4740 C   0  0  0  0  0  0  0  0  0  0  0  0
    0.0450   20.4280  -33.1630 C   0  0  0  0  0  0  0  0  0  0  0  0
   -0.8130   21.5290  -33.8180 C   0  0  0  0  0  0  0  0  0  0  0  0
   -0.1110   22.0970  -34.9760 N   0  0  0  0  0  0  0  0  0  0  0  0
    0.1900   21.0580  -35.9650 C   0  0  0  0  0  0  0  0  0  0  0  0
    1.0320   19.9280  -35.3360 C   0  0  0  0  0  0  0  0  0  0  0  0
   -5.2790   19.1650  -33.0350 C   0  0  0  0  0  0  0  0  0  0  0  0
   -3.6539   18.7624  -25.6028 H   0  0  0  0  0  0  0  0  0  0  0  0
   -4.2757   19.4247  -27.1524 H   0  0  0  0  0  0  0  0  0  0  0  0
   -3.2567   17.9454  -27.1524 H   0  0  0  0  0  0  0  0  0  0  0  0
   -2.3928   20.7889  -26.4075 H   0  0  0  0  0  0  0  0  0  0  0  0
   -1.3696   19.2759  -26.2417 H   0  0  0  0  0  0  0  0  0  0  0  0
   -1.5620   18.9850  -28.6270 H   0  0  0  0  0  0  0  0  0  0  0  0
   -0.0394   20.6961  -27.0780 H   0  0  0  0  0  0  0  0  0  0  0  0
    0.3994   19.9096  -28.6322 H   0  0  0  0  0  0  0  0  0  0  0  0
   -0.3559   21.5394  -28.6322 H   0  0  0  0  0  0  0  0  0  0  0  0
   -3.6294   20.2974  -28.9044 H   0  0  0  0  0  0  0  0  0  0  0  0
   -2.5649   21.7723  -28.6614 H   0  0  0  0  0  0  0  0  0  0  0  0
   -1.2505   21.1178  -30.6563 H   0  0  0  0  0  0  0  0  0  0  0  0
   -2.4416   19.7560  -30.9289 H   0  0  0  0  0  0  0  0  0  0  0  0
   -4.0538   22.0131  -30.7325 H   0  0  0  0  0  0  0  0  0  0  0  0
   -2.6126   22.5807  -31.6720 H   0  0  0  0  0  0  0  0  0  0  0  0
   -3.1140   20.9250  -33.4140 H   0  0  0  0  0  0  0  0  0  0  0  0
   -4.9427   23.0888  -31.8797 H   0  0  0  0  0  0  0  0  0  0  0  0
   -6.8896   24.5647  -31.4360 H   0  0  0  0  0  0  0  0  0  0  0  0
   -9.2048   23.6250  -31.4554 H   0  0  0  0  0  0  0  0  0  0  0  0
   -9.5490   21.2173  -31.9518 H   0  0  0  0  0  0  0  0  0  0  0  0
   -8.9929   18.7690  -31.0349 H   0  0  0  0  0  0  0  0  0  0  0  0
   -9.7553   19.3966  -32.5354 H   0  0  0  0  0  0  0  0  0  0  0  0
   -8.9686   17.7818  -32.5354 H   0  0  0  0  0  0  0  0  0  0  0  0
   -7.9072   17.0753  -33.7681 H   0  0  0  0  0  0  0  0  0  0  0  0
   -6.0538   15.6327  -34.5372 H   0  0  0  0  0  0  0  0  0  0  0  0
   -3.7026   16.3607  -34.2730 H   0  0  0  0  0  0  0  0  0  0  0  0
   -1.1290   17.9670  -32.4458 H   0  0  0  0  0  0  0  0  0  0  0  0
   -1.9676   16.9072  -33.6389 H   0  0  0  0  0  0  0  0  0  0  0  0
   -0.4082   17.6460  -35.1037 H   0  0  0  0  0  0  0  0  0  0  0  0
   -1.4379   19.1870  -35.0946 H   0  0  0  0  0  0  0  0  0  0  0  0
    1.3455   18.5368  -32.3795 H   0  0  0  0  0  0  0  0  0  0  0  0
    1.2773   17.4225  -33.7869 H   0  0  0  0  0  0  0  0  0  0  0  0
    2.4303   18.8000  -33.7869 H   0  0  0  0  0  0  0  0  0  0  0  0
   -0.5163   19.9986  -32.3201 H   0  0  0  0  0  0  0  0  0  0  0  0
    0.9851   20.8920  -32.8298 H   0  0  0  0  0  0  0  0  0  0  0  0
   -1.7687   21.0963  -34.1488 H   0  0  0  0  0  0  0  0  0  0  0  0
   -0.9963   22.3264  -33.0827 H   0  0  0  0  0  0  0  0  0  0  0  0
   -0.7590   22.7820  -35.4330 H   0  0  0  0  0  0  0  0  0  0  0  0
   -0.7530   20.6368  -36.3435 H   0  0  0  0  0  0  0  0  0  0  0  0
    0.7653   21.5101  -36.7864 H   0  0  0  0  0  0  0  0  0  0  0  0
    1.1651   19.1319  -36.0834 H   0  0  0  0  0  0  0  0  0  0  0  0
    1.9931   20.3652  -35.0277 H   0  0  0  0  0  0  0  0  0  0  0  0
  1  2  1  0
  2  3  1  0
  3  4  1  0
  3  5  1  0
  5  6  1  0
  6  7  1  0
  7  8  1  0
  8  9  1  0
  9 10  2  0
 10 11  1  0
 11 12  2  0
 12 13  1  0
 13 14  2  0
 14 15  1  0
 15 16  2  0
 16 17  1  0
 16 18  1  0
 18 19  2  0
 19 20  1  0
 20 21  2  0
 21 22  1  0
 22 23  1  0
 23 24  1  0
 24 25  1  0
 25 26  1  0
 26 27  1  0
 26 28  1  0
 28 29  1  0
 29 30  1  0
 30 31  1  0
 31 32  1  0
 22 33  2  0
 33  9  1  0
 15 10  1  0
 33 18  1  0
 32 26  1  0
  1 34  1  0
  1 35  1  0
  1 36  1  0
  2 37  1  0
  2 38  1  0
  3 39  1  6
  4 40  1  0
  4 41  1  0
  4 42  1  0
  5 43  1  0
  5 44  1  0
  6 45  1  0
  6 46  1  0
  7 47  1  0
  7 48  1  0
  8 49  1  0
 11 50  1  0
 12 51  1  0
 13 52  1  0
 14 53  1  0
 17 54  1  0
 17 55  1  0
 17 56  1  0
 19 57  1  0
 20 58  1  0
 21 59  1  0
 24 60  1  0
 24 61  1  0
 25 62  1  0
 25 63  1  0
 27 64  1  0
 27 65  1  0
 27 66  1  0
 28 67  1  0
 28 68  1  0
 29 69  1  0
 29 70  1  0
 30 71  1  0
 31 72  1  0
 31 73  1  0
 32 74  1  0
 32 75  1  0
M  CHG  3   3   1  16   1  26   1
M  END
>  <UniqueID>  (16) 
16

>  <SMILES>  (16) 
CC[N@H+](C)CCCNc1c2ccccc2[n+](C)c2cccc(OCC[N+]3(C)CCNCC3)c12

>  <Energy>  (16) 
127.01879175215907

>  <Genealogy>  (16) 
CC[NH+](C)CCCNc1c2ccccc2[n+](C)c2cccc(OCC[N+]3(C)CCNCC3)c12 (protonated)
CC[N@H+](C)CCCNc1c2ccccc2[n+](C)c2cccc(OCC[N+]3(C)CCNCC3)c12 (chirality)
CC[N@H+](C)CCCNc1c2ccccc2[n+](C)c2cccc(OCC[N+]3(C)CCNCC3)c12 (3D coordinates assigned)
CC[N@H+](C)CCCNc1c2ccccc2[n+](C)c2cccc(OCC[N+]3(C)CCNCC3)c12 (nonaromatic ring conformer: 127.01879175215907 kcal/mol)

>  <smiles>  (16) 
CCN(C)CCCNc1c2ccccc2[n+](C)c2cccc(OCC[N+]3(C)CCNCC3)c12

>  <score_type>  (16) 
oracle

>  <origin>  (16) 
adg

>  <m_score__min__energy>  (16) 
-8.0899999999999999

>  <m_primary>  (16) 
energy

$$$$
16:0
     RDKit          3D

 65 67  0  0  0  0  0  0  0  0999 V2000
   -3.5070   23.1050  -29.4630 C   0  0  0  0  0  0  0  0  0  0  0  0
   -3.4270   23.8430  -30.7940 C   0  0  0  0  0  0  0  0  0  0  0  0
   -3.9210   25.2160  -30.6380 N   0  0  0  0  0  0  0  0  0  0  0  0
   -5.2890   25.2080  -30.1030 C   0  0  0  0  0  0  0  0  0  0  0  0
   -6.2920   24.8080  -31.1900 C   0  0  0  0  0  0  0  0  0  0  0  0
   -6.5250   23.2950  -31.2260 C   0  0  0  0  0  0  0  0  0  0  0  0
   -6.1580   22.7520  -32.5340 N   0  0  0  0  0  0  0  0  0  0  0  0
   -5.9610   21.3410  -32.7290 C   0  0  0  0  0  0  0  0  0  0  0  0
   -7.0260   20.4420  -32.5330 C   0  0  0  0  0  0  0  0  0  0  0  0
   -8.3150   20.9090  -32.1940 C   0  0  0  0  0  0  0  0  0  0  0  0
   -9.3490   20.0150  -31.9310 C   0  0  0  0  0  0  0  0  0  0  0  0
   -9.1190   18.6460  -31.9980 C   0  0  0  0  0  0  0  0  0  0  0  0
   -7.8660   18.1620  -32.3700 C   0  0  0  0  0  0  0  0  0  0  0  0
   -6.8050   19.0480  -32.6910 C   0  0  0  0  0  0  0  0  0  0  0  0
   -5.5810   18.5850  -33.1400 N   0  0  0  0  0  0  0  0  0  0  0  0
   -5.4400   17.1770  -33.5790 C   0  0  0  0  0  0  0  0  0  0  0  0
   -4.5000   19.4440  -33.2130 C   0  0  0  0  0  0  0  0  0  0  0  0
   -3.1800   18.9640  -33.4200 C   0  0  0  0  0  0  0  0  0  0  0  0
   -2.0940   19.8330  -33.5390 C   0  0  0  0  0  0  0  0  0  0  0  0
   -0.8190   19.2770  -33.7410 O   0  0  0  0  0  0  0  0  0  0  0  0
   -0.3330   18.0770  -33.1380 C   0  0  0  0  0  0  0  0  0  0  0  0
   -0.4310   18.1750  -31.5990 C   0  0  0  0  0  0  0  0  0  0  0  0
    0.5340   19.1190  -30.9580 N   0  0  0  0  0  0  0  0  0  0  0  0
    1.7320   19.3170  -31.8080 C   0  0  0  0  0  0  0  0  0  0  0  0
    0.9490   18.6420  -29.6170 C   0  0  0  0  0  0  0  0  0  0  0  0
   -0.1430   20.4290  -30.7980 C   0  0  0  0  0  0  0  0  0  0  0  0
   -2.3110   21.2150  -33.4540 C   0  0  0  0  0  0  0  0  0  0  0  0
   -3.5870   21.7110  -33.2100 C   0  0  0  0  0  0  0  0  0  0  0  0
   -4.6870   20.8420  -33.0590 C   0  0  0  0  0  0  0  0  0  0  0  0
   -3.4286   23.8279  -28.6376 H   0  0  0  0  0  0  0  0  0  0  0  0
   -4.4680   22.5740  -29.3953 H   0  0  0  0  0  0  0  0  0  0  0  0
   -2.6821   22.3804  -29.3953 H   0  0  0  0  0  0  0  0  0  0  0  0
   -2.3811   23.8687  -31.1338 H   0  0  0  0  0  0  0  0  0  0  0  0
   -4.0477   23.3183  -31.5353 H   0  0  0  0  0  0  0  0  0  0  0  0
   -3.9510   25.6550  -31.5890 H   0  0  0  0  0  0  0  0  0  0  0  0
   -5.3485   24.4877  -29.2738 H   0  0  0  0  0  0  0  0  0  0  0  0
   -5.5363   26.2193  -29.7478 H   0  0  0  0  0  0  0  0  0  0  0  0
   -7.2502   25.3104  -30.9914 H   0  0  0  0  0  0  0  0  0  0  0  0
   -5.8781   25.1115  -32.1629 H   0  0  0  0  0  0  0  0  0  0  0  0
   -5.9109   22.8154  -30.4495 H   0  0  0  0  0  0  0  0  0  0  0  0
   -7.5910   23.0943  -31.0434 H   0  0  0  0  0  0  0  0  0  0  0  0
   -5.7750   23.4130  -33.2480 H   0  0  0  0  0  0  0  0  0  0  0  0
   -8.5039   21.9912  -32.1372 H   0  0  0  0  0  0  0  0  0  0  0  0
  -10.3488   20.3923  -31.6700 H   0  0  0  0  0  0  0  0  0  0  0  0
   -9.9288   17.9418  -31.7565 H   0  0  0  0  0  0  0  0  0  0  0  0
   -7.6969   17.0760  -32.4155 H   0  0  0  0  0  0  0  0  0  0  0  0
   -5.3745   16.5228  -32.6971 H   0  0  0  0  0  0  0  0  0  0  0  0
   -6.3141   16.8919  -34.1829 H   0  0  0  0  0  0  0  0  0  0  0  0
   -4.5267   17.0709  -34.1829 H   0  0  0  0  0  0  0  0  0  0  0  0
   -3.0086   17.8796  -33.4884 H   0  0  0  0  0  0  0  0  0  0  0  0
   -0.9355   17.2253  -33.4869 H   0  0  0  0  0  0  0  0  0  0  0  0
    0.7200   17.9338  -33.4220 H   0  0  0  0  0  0  0  0  0  0  0  0
   -1.4491   18.5037  -31.3432 H   0  0  0  0  0  0  0  0  0  0  0  0
   -0.1815   17.1755  -31.2134 H   0  0  0  0  0  0  0  0  0  0  0  0
    2.6151   19.4630  -31.1687 H   0  0  0  0  0  0  0  0  0  0  0  0
    1.8814   18.4314  -32.4431 H   0  0  0  0  0  0  0  0  0  0  0  0
    1.5885   20.2036  -32.4431 H   0  0  0  0  0  0  0  0  0  0  0  0
    0.4359   19.2317  -28.8431 H   0  0  0  0  0  0  0  0  0  0  0  0
    0.6819   17.5807  -29.5065 H   0  0  0  0  0  0  0  0  0  0  0  0
    2.0371   18.7597  -29.5065 H   0  0  0  0  0  0  0  0  0  0  0  0
   -0.2590   20.6535  -29.7274 H   0  0  0  0  0  0  0  0  0  0  0  0
    0.4619   21.2149  -31.2740 H   0  0  0  0  0  0  0  0  0  0  0  0
   -1.1339   20.3902  -31.2740 H   0  0  0  0  0  0  0  0  0  0  0  0
   -1.4682   21.9104  -33.5809 H   0  0  0  0  0  0  0  0  0  0  0  0
   -3.7405   22.7976  -33.1337 H   0  0  0  0  0  0  0  0  0  0  0  0
  1  2  1  0
  2  3  1  0
  3  4  1  0
  4  5  1  0
  5  6  1  0
  6  7  1  0
  7  8  1  0
  8  9  2  0
  9 10  1  0
 10 11  2  0
 11 12  1  0
 12 13  2  0
 13 14  1  0
 14 15  2  0
 15 16  1  0
 15 17  1  0
 17 18  2  0
 18 19  1  0
 19 20  1  0
 20 21  1  0
 21 22  1  0
 22 23  1  0
 23 24  1  0
 23 25  1  0
 23 26  1  0
 19 27  2  0
 27 28  1  0
 28 29  2  0
 29  8  1  0
 14  9  1  0
 29 17  1  0
  1 30  1  0
  1 31  1  0
  1 32  1  0
  2 33  1  0
  2 34  1  0
  3 35  1  0
  4 36  1  0
  4 37  1  0
  5 38  1  0
  5 39  1  0
  6 40  1  0
  6 41  1  0
  7 42  1  0
 10 43  1  0
 11 44  1  0
 12 45  1  0
 13 46  1  0
 16 47  1  0
 16 48  1  0
 16 49  1  0
 18 50  1  0
 21 51  1  0
 21 52  1  0
 22 53  1  0
 22 54  1  0
 24 55  1  0
 24 56  1  0
 24 57  1  0
 25 58  1  0
 25 59  1  0
 25 60  1  0
 26 61  1  0
 26 62  1  0
 26 63  1  0
 27 64  1  0
 28 65  1  0
M  CHG  2  15   1  23   1
M  END
>  <UniqueID>  (17) 
17

>  <SMILES>  (17) 
CCNCCCNc1c2ccccc2[n+](C)c2cc(OCC[N+](C)(C)C)ccc12

>  <Energy>  (17) 
88.99184793329795

>  <Genealogy>  (17) 
CCNCCCNc1c2ccccc2[n+](C)c2cc(OCC[N+](C)(C)C)ccc12 (3D coordinates assigned)
CCNCCCNc1c2ccccc2[n+](C)c2cc(OCC[N+](C)(C)C)ccc12 (optimized conformer: 88.99184793329795 kcal/mol)

>  <smiles>  (17) 
CCNCCCNc1c2ccccc2[n+](C)c2cc(OCC[N+](C)(C)C)ccc12

>  <score_type>  (17) 
oracle

>  <origin>  (17) 
adg

>  <m_score__min__energy>  (17) 
-8.0500000000000007

>  <m_primary>  (17) 
energy

$$$$
17:0
     RDKit          3D

 33 34  0  0  0  0  0  0  0  0999 V2000
   -9.8000   21.2330  -31.9650 C   0  0  0  0  0  0  0  0  0  0  0  0
   -8.7140   20.4970  -31.1830 C   0  0  0  0  0  0  0  0  0  0  0  0
   -7.8100   19.7620  -32.0830 N   0  0  0  0  0  0  0  0  0  0  0  0
   -8.0620   18.3390  -32.3530 C   0  0  0  0  0  0  0  0  0  0  0  0
   -6.7810   17.5290  -32.1830 C   0  0  0  0  0  0  0  0  0  0  0  0
   -6.8120   20.4650  -32.8520 C   0  0  0  0  0  0  0  0  0  0  0  0
   -6.5250   20.0710  -34.0150 O   0  0  0  0  0  0  0  0  0  0  0  0
   -6.0900   21.6270  -32.2920 C   0  0  0  0  0  0  0  0  0  0  0  0
   -6.8320   22.6530  -31.6710 C   0  0  0  0  0  0  0  0  0  0  0  0
   -6.1300   23.7280  -31.1440 C   0  0  0  0  0  0  0  0  0  0  0  0
   -6.5450   24.8630  -30.4870 C   0  0  0  0  0  0  0  0  0  0  0  0
   -5.3680   25.5500  -30.2010 C   0  0  0  0  0  0  0  0  0  0  0  0
   -4.3200   24.8790  -30.6500 O   0  0  0  0  0  0  0  0  0  0  0  0
   -4.7730   23.7890  -31.2130 C   0  0  0  0  0  0  0  0  0  0  0  0
   -4.0350   22.8160  -31.7990 N   0  0  0  0  0  0  0  0  0  0  0  0
   -4.6630   21.7300  -32.3460 C   0  0  0  0  0  0  0  0  0  0  0  0
   -3.8230   20.6720  -32.9980 C   0  0  0  0  0  0  0  0  0  0  0  0
  -10.5003   21.7076  -31.2619 H   0  0  0  0  0  0  0  0  0  0  0  0
   -9.3371   22.0042  -32.5982 H   0  0  0  0  0  0  0  0  0  0  0  0
  -10.3448   20.5173  -32.5982 H   0  0  0  0  0  0  0  0  0  0  0  0
   -8.1287   21.2292  -30.6073 H   0  0  0  0  0  0  0  0  0  0  0  0
   -9.2000   19.7728  -30.5127 H   0  0  0  0  0  0  0  0  0  0  0  0
   -8.8221   17.9662  -31.6507 H   0  0  0  0  0  0  0  0  0  0  0  0
   -8.4173   18.2304  -33.3884 H   0  0  0  0  0  0  0  0  0  0  0  0
   -6.5707   17.3960  -31.1115 H   0  0  0  0  0  0  0  0  0  0  0  0
   -6.9042   16.5442  -32.6574 H   0  0  0  0  0  0  0  0  0  0  0  0
   -5.9442   18.0625  -32.6574 H   0  0  0  0  0  0  0  0  0  0  0  0
   -7.9290   22.6030  -31.6066 H   0  0  0  0  0  0  0  0  0  0  0  0
   -7.5752   25.1610  -30.2425 H   0  0  0  0  0  0  0  0  0  0  0  0
   -5.3168   26.5150  -29.6756 H   0  0  0  0  0  0  0  0  0  0  0  0
   -3.3374   20.0603  -32.2234 H   0  0  0  0  0  0  0  0  0  0  0  0
   -4.4612   20.0314  -33.6244 H   0  0  0  0  0  0  0  0  0  0  0  0
   -3.0544   21.1484  -33.6244 H   0  0  0  0  0  0  0  0  0  0  0  0
  1  2  1  0
  2  3  1  0
  3  4  1  0
  4  5  1  0
  3  6  1  0
  6  7  2  0
  6  8  1  0
  8  9  2  0
  9 10  1  0
 10 11  1  0
 11 12  2  0
 12 13  1  0
 13 14  1  0
 14 15  1  0
 15 16  2  0
 16 17  1  0
 16  8  1  0
 14 10  2  0
  1 18  1  0
  1 19  1  0
  1 20  1  0
  2 21  1  0
  2 22  1  0
  4 23  1  0
  4 24  1  0
  5 25  1  0
  5 26  1  0
  5 27  1  0
  9 28  1  0
 11 29  1  0
 12 30  1  0
 17 31  1  0
 17 32  1  0
 17 33  1  0
M  END
>  <UniqueID>  (18) 
18

>  <SMILES>  (18) 
CCN(CC)C(=O)c1cc2ccoc2nc1C

>  <Energy>  (18) 
67.95310712018

>  <Genealogy>  (18) 
CCN(CC)C(=O)c1cc2ccoc2nc1C (3D coordinates assigned)
CCN(CC)C(=O)c1cc2ccoc2nc1C (optimized conformer: 67.95310712018 kcal/mol)

>  <smiles>  (18) 
CCN(CC)C(=O)c1cc2ccoc2nc1C

>  <score_type>  (18) 
oracle

>  <origin>  (18) 
adg

>  <m_score__min__energy>  (18) 
-7.3300000000000001

>  <m_primary>  (18) 
energy

$$$$
18:0
     RDKit          3D

 47 49  0  0  0  0  0  0  0  0999 V2000
    0.8920   17.6400  -27.9120 C   0  0  0  0  0  0  0  0  0  0  0  0
   -0.2000   18.6290  -27.6550 C   0  0  0  0  0  0  0  0  0  0  0  0
   -0.0990   19.9370  -28.1440 C   0  0  0  0  0  0  0  0  0  0  0  0
   -1.1380   20.8500  -27.9050 C   0  0  0  0  0  0  0  0  0  0  0  0
   -1.0600   22.1950  -28.4150 N   0  0  0  0  0  0  0  0  0  0  0  0
   -2.0400   22.7040  -29.3800 C   0  0  0  0  0  0  0  0  0  0  0  0
   -2.7450   23.9530  -28.8180 C   0  0  0  0  0  0  0  0  0  0  0  0
   -1.9180   24.7300  -27.8570 N   0  0  0  0  0  0  0  0  0  0  0  0
   -2.2750   24.4520  -26.4470 C   0  0  0  0  0  0  0  0  0  0  0  0
   -1.4870   25.3440  -25.5150 C   0  0  0  0  0  0  0  0  0  0  0  0
   -1.5920   26.7380  -25.6460 C   0  0  0  0  0  0  0  0  0  0  0  0
   -0.8650   27.5800  -24.8090 C   0  0  0  0  0  0  0  0  0  0  0  0
   -0.0310   27.0280  -23.8400 C   0  0  0  0  0  0  0  0  0  0  0  0
    0.0710   25.6780  -23.7130 N   0  0  0  0  0  0  0  0  0  0  0  0
   -0.6300   24.8210  -24.5150 C   0  0  0  0  0  0  0  0  0  0  0  0
   -0.4680   23.3350  -24.3230 C   0  0  0  0  0  0  0  0  0  0  0  0
   -0.4670   24.5720  -28.1010 C   0  0  0  0  0  0  0  0  0  0  0  0
   -0.0220   23.1100  -27.9270 C   0  0  0  0  0  0  0  0  0  0  0  0
   -2.2690   20.4230  -27.1950 C   0  0  0  0  0  0  0  0  0  0  0  0
   -2.3380   19.1060  -26.7260 C   0  0  0  0  0  0  0  0  0  0  0  0
   -3.5320   18.6380  -25.9570 C   0  0  0  0  0  0  0  0  0  0  0  0
   -1.3090   18.2490  -26.9650 N   0  0  0  0  0  0  0  0  0  0  0  0
    1.2918   17.2779  -26.9533 H   0  0  0  0  0  0  0  0  0  0  0  0
    0.4908   16.7916  -28.4858 H   0  0  0  0  0  0  0  0  0  0  0  0
    1.6966   18.1230  -28.4858 H   0  0  0  0  0  0  0  0  0  0  0  0
    0.7900   20.2476  -28.7125 H   0  0  0  0  0  0  0  0  0  0  0  0
   -1.5248   22.9682  -30.3153 H   0  0  0  0  0  0  0  0  0  0  0  0
   -2.7920   21.9243  -29.5712 H   0  0  0  0  0  0  0  0  0  0  0  0
   -3.0077   24.6107  -29.6597 H   0  0  0  0  0  0  0  0  0  0  0  0
   -3.6288   23.5999  -28.2664 H   0  0  0  0  0  0  0  0  0  0  0  0
   -3.3496   24.6371  -26.3025 H   0  0  0  0  0  0  0  0  0  0  0  0
   -2.0369   23.4023  -26.2203 H   0  0  0  0  0  0  0  0  0  0  0  0
   -2.2522   27.1671  -26.4141 H   0  0  0  0  0  0  0  0  0  0  0  0
   -0.9486   28.6720  -24.9122 H   0  0  0  0  0  0  0  0  0  0  0  0
    0.5473   27.6863  -23.1750 H   0  0  0  0  0  0  0  0  0  0  0  0
    0.7080   25.3020  -22.9750 H   0  0  0  0  0  0  0  0  0  0  0  0
   -0.4429   23.1048  -23.2476 H   0  0  0  0  0  0  0  0  0  0  0  0
   -1.3143   22.8105  -24.7906 H   0  0  0  0  0  0  0  0  0  0  0  0
    0.4714   23.0051  -24.7906 H   0  0  0  0  0  0  0  0  0  0  0  0
   -0.2400   24.8949  -29.1277 H   0  0  0  0  0  0  0  0  0  0  0  0
    0.0752   25.1874  -27.3680 H   0  0  0  0  0  0  0  0  0  0  0  0
    0.9042   22.9434  -28.4965 H   0  0  0  0  0  0  0  0  0  0  0  0
    0.1497   22.9154  -26.8581 H   0  0  0  0  0  0  0  0  0  0  0  0
   -3.0989   21.1202  -27.0073 H   0  0  0  0  0  0  0  0  0  0  0  0
   -3.3282   18.7179  -24.8790 H   0  0  0  0  0  0  0  0  0  0  0  0
   -4.4008   19.2621  -26.2132 H   0  0  0  0  0  0  0  0  0  0  0  0
   -3.7453   17.5897  -26.2132 H   0  0  0  0  0  0  0  0  0  0  0  0
  1  2  1  0
  2  3  2  0
  3  4  1  0
  4  5  1  0
  5  6  1  0
  6  7  1  0
  7  8  1  0
  8  9  1  0
  9 10  1  0
 10 11  2  0
 11 12  1  0
 12 13  2  0
 13 14  1  0
 14 15  2  0
 15 16  1  0
  8 17  1  0
 17 18  1  0
  4 19  2  0
 19 20  1  0
 20 21  1  0
 20 22  2  0
 22  2  1  0
 18  5  1  0
 15 10  1  0
  1 23  1  0
  1 24  1  0
  1 25  1  0
  3 26  1  0
  6 27  1  0
  6 28  1  0
  7 29  1  0
  7 30  1  0
  9 31  1  0
  9 32  1  0
 11 33  1  0
 12 34  1  0
 13 35  1  0
 14 36  1  0
 16 37  1  0
 16 38  1  0
 16 39  1  0
 17 40  1  0
 17 41  1  0
 18 42  1  0
 18 43  1  0
 19 44  1  0
 21 45  1  0
 21 46  1  0
 21 47  1  0
M  CHG  1  14   1
M  END
>  <UniqueID>  (19) 
19

>  <SMILES>  (19) 
Cc1cc(N2CCN(Cc3ccc[nH+]c3C)CC2)cc(C)n1

>  <Energy>  (19) 
57.84628815672111

>  <Genealogy>  (19) 
Cc1cc(N2CCN(Cc3ccc[nH+]c3C)CC2)cc(C)n1 (protonated)
Cc1cc(N2CCN(Cc3ccc[nH+]c3C)CC2)cc(C)n1 (3D coordinates assigned)
Cc1cc(N2CCN(Cc3ccc[nH+]c3C)CC2)cc(C)n1 (nonaromatic ring conformer: 57.84628815672111 kcal/mol)

>  <smiles>  (19) 
Cc1cc(N2CCN(Cc3cccnc3C)CC2)cc(C)n1

>  <score_type>  (19) 
oracle

>  <origin>  (19) 
adg

>  <m_score__min__energy>  (19) 
-7.6500000000000004

>  <m_primary>  (19) 
energy

$$$$
19:0
     RDKit          3D

 72 74  0  0  0  0  0  0  0  0999 V2000
   -1.0320   27.0800  -24.9260 C   0  0  0  0  0  0  0  0  0  0  0  0
   -0.3760   26.8800  -23.5490 C   0  0  0  0  0  0  0  0  0  0  0  0
    1.0450   26.4520  -23.6470 N   0  0  0  0  0  0  0  0  0  0  0  0
    1.9380   27.5030  -23.0870 C   0  0  0  0  0  0  0  0  0  0  0  0
    1.4580   28.9280  -23.4030 C   0  0  0  0  0  0  0  0  0  0  0  0
    1.4110   26.1750  -25.0640 C   0  0  0  0  0  0  0  0  0  0  0  0
    1.8080   24.7010  -25.3150 C   0  0  0  0  0  0  0  0  0  0  0  0
    1.1280   23.8230  -24.4370 O   0  0  0  0  0  0  0  0  0  0  0  0
   -0.2700   23.8320  -24.6640 C   0  0  0  0  0  0  0  0  0  0  0  0
   -0.6750   22.7690  -25.6990 C   0  0  0  0  0  0  0  0  0  0  0  0
    0.5090   22.1060  -26.2690 N   0  0  0  0  0  0  0  0  0  0  0  0
    0.6910   22.4660  -27.6820 C   0  0  0  0  0  0  0  0  0  0  0  0
   -0.2380   23.5890  -28.0630 C   0  0  0  0  0  0  0  0  0  0  0  0
    0.0990   24.9150  -27.7620 C   0  0  0  0  0  0  0  0  0  0  0  0
   -0.8060   25.9380  -28.0520 C   0  0  0  0  0  0  0  0  0  0  0  0
   -2.0030   25.6460  -28.6220 N   0  0  0  0  0  0  0  0  0  0  0  0
   -2.3680   24.3700  -28.9340 C   0  0  0  0  0  0  0  0  0  0  0  0
   -3.6900   24.1260  -29.5560 C   0  0  0  0  0  0  0  0  0  0  0  0
   -4.4360   22.9900  -29.1970 C   0  0  0  0  0  0  0  0  0  0  0  0
   -5.6900   22.7550  -29.7700 C   0  0  0  0  0  0  0  0  0  0  0  0
   -6.2220   23.6560  -30.7030 C   0  0  0  0  0  0  0  0  0  0  0  0
   -7.5830   23.4240  -31.3060 C   0  0  0  0  0  0  0  0  0  0  0  0
   -7.4530   22.8630  -32.6580 N   0  0  0  0  0  0  0  0  0  0  0  0
   -6.4450   21.7980  -32.7000 C   0  0  0  0  0  0  0  0  0  0  0  0
   -7.1010   20.4760  -32.4210 C   0  0  0  0  0  0  0  0  0  0  0  0
   -8.5010   20.3620  -32.4750 C   0  0  0  0  0  0  0  0  0  0  0  0
   -9.1160   19.1270  -32.2500 C   0  0  0  0  0  0  0  0  0  0  0  0
   -8.3390   17.9970  -31.9780 C   0  0  0  0  0  0  0  0  0  0  0  0
   -6.9460   18.0990  -31.9340 C   0  0  0  0  0  0  0  0  0  0  0  0
   -6.3260   19.3320  -32.1620 C   0  0  0  0  0  0  0  0  0  0  0  0
   -5.4900   24.7990  -31.0480 C   0  0  0  0  0  0  0  0  0  0  0  0
   -4.2330   25.0330  -30.4840 C   0  0  0  0  0  0  0  0  0  0  0  0
   -1.4870   23.3140  -28.6410 C   0  0  0  0  0  0  0  0  0  0  0  0
   -2.0763   27.3984  -24.7919 H   0  0  0  0  0  0  0  0  0  0  0  0
   -0.4825   27.8514  -25.4854 H   0  0  0  0  0  0  0  0  0  0  0  0
   -1.0063   26.1332  -25.4854 H   0  0  0  0  0  0  0  0  0  0  0  0
   -0.4200   27.8304  -22.9968 H   0  0  0  0  0  0  0  0  0  0  0  0
   -0.9283   26.0824  -23.0305 H   0  0  0  0  0  0  0  0  0  0  0  0
    1.1720   25.5710  -23.0950 H   0  0  0  0  0  0  0  0  0  0  0  0
    1.9806   27.3814  -21.9946 H   0  0  0  0  0  0  0  0  0  0  0  0
    2.9267   27.3776  -23.5525 H   0  0  0  0  0  0  0  0  0  0  0  0
    1.2754   29.4702  -22.4635 H   0  0  0  0  0  0  0  0  0  0  0  0
    2.2287   29.4537  -23.9859 H   0  0  0  0  0  0  0  0  0  0  0  0
    0.5263   28.8803  -23.9859 H   0  0  0  0  0  0  0  0  0  0  0  0
    0.5482   26.4179  -25.7016 H   0  0  0  0  0  0  0  0  0  0  0  0
    2.2884   26.7944  -25.3016 H   0  0  0  0  0  0  0  0  0  0  0  0
    1.5563   24.4348  -26.3522 H   0  0  0  0  0  0  0  0  0  0  0  0
    2.8885   24.5996  -25.1355 H   0  0  0  0  0  0  0  0  0  0  0  0
   -0.7883   23.6249  -23.7161 H   0  0  0  0  0  0  0  0  0  0  0  0
   -0.5521   24.8212  -25.0538 H   0  0  0  0  0  0  0  0  0  0  0  0
   -1.3086   22.0145  -25.2099 H   0  0  0  0  0  0  0  0  0  0  0  0
   -1.2233   23.2654  -26.5133 H   0  0  0  0  0  0  0  0  0  0  0  0
    1.3500   22.4450  -25.7440 H   0  0  0  0  0  0  0  0  0  0  0  0
    1.7311   22.7858  -27.8432 H   0  0  0  0  0  0  0  0  0  0  0  0
    0.4637   21.5886  -28.3053 H   0  0  0  0  0  0  0  0  0  0  0  0
    1.0698   25.1487  -27.3004 H   0  0  0  0  0  0  0  0  0  0  0  0
   -0.5488   26.9817  -27.8183 H   0  0  0  0  0  0  0  0  0  0  0  0
   -4.0307   22.2809  -28.4602 H   0  0  0  0  0  0  0  0  0  0  0  0
   -6.2617   21.8588  -29.4872 H   0  0  0  0  0  0  0  0  0  0  0  0
   -8.1449   22.7207  -30.6738 H   0  0  0  0  0  0  0  0  0  0  0  0
   -8.1158   24.3844  -31.3669 H   0  0  0  0  0  0  0  0  0  0  0  0
   -7.1300   23.6330  -33.2910 H   0  0  0  0  0  0  0  0  0  0  0  0
   -5.9792   21.7731  -33.6962 H   0  0  0  0  0  0  0  0  0  0  0  0
   -5.6744   21.9925  -31.9395 H   0  0  0  0  0  0  0  0  0  0  0  0
   -9.1149   21.2479  -32.6951 H   0  0  0  0  0  0  0  0  0  0  0  0
  -10.2123   19.0442  -32.2870 H   0  0  0  0  0  0  0  0  0  0  0  0
   -8.8247   17.0265  -31.7984 H   0  0  0  0  0  0  0  0  0  0  0  0
   -6.3364   17.2088  -31.7198 H   0  0  0  0  0  0  0  0  0  0  0  0
   -5.2288   19.4067  -32.1386 H   0  0  0  0  0  0  0  0  0  0  0  0
   -5.9076   25.5179  -31.7683 H   0  0  0  0  0  0  0  0  0  0  0  0
   -3.6651   25.9314  -30.7673 H   0  0  0  0  0  0  0  0  0  0  0  0
   -1.7756   22.2762  -28.8640 H   0  0  0  0  0  0  0  0  0  0  0  0
  1  2  1  0
  2  3  1  0
  3  4  1  0
  4  5  1  0
  3  6  1  0
  6  7  1  0
  7  8  1  0
  8  9  1  0
  9 10  1  0
 10 11  1  0
 11 12  1  0
 12 13  1  0
 13 14  2  0
 14 15  1  0
 15 16  2  0
 16 17  1  0
 17 18  1  0
 18 19  2  0
 19 20  1  0
 20 21  2  0
 21 22  1  0
 22 23  1  0
 23 24  1  0
 24 25  1  0
 25 26  2  0
 26 27  1  0
 27 28  2  0
 28 29  1  0
 29 30  2  0
 21 31  1  0
 31 32  2  0
 17 33  2  0
 33 13  1  0
 32 18  1  0
 30 25  1  0
  1 34  1  0
  1 35  1  0
  1 36  1  0
  2 37  1  0
  2 38  1  0
  3 39  1  0
  4 40  1  0
  4 41  1  0
  5 42  1  0
  5 43  1  0
  5 44  1  0
  6 45  1  0
  6 46  1  0
  7 47  1  0
  7 48  1  0
  9 49  1  0
  9 50  1  0
 10 51  1  0
 10 52  1  0
 11 53  1  0
 12 54  1  0
 12 55  1  0
 14 56  1  0
 15 57  1  0
 19 58  1  0
 20 59  1  0
 22 60  1  0
 22 61  1  0
 23 62  1  0
 24 63  1  0
 24 64  1  0
 26 65  1  0
 27 66  1  0
 28 67  1  0
 29 68  1  0
 30 69  1  0
 31 70  1  0
 32 71  1  0
 33 72  1  0
M  CHG  1   3   1
M  END
>  <UniqueID>  (20) 
20

>  <SMILES>  (20) 
CC[NH+](CC)CCOCCNCc1ccnc(-c2ccc(CNCc3ccccc3)cc2)c1

>  <Energy>  (20) 
78.30214852309771

>  <Genealogy>  (20) 
CC[NH+](CC)CCOCCNCc1ccnc(-c2ccc(CNCc3ccccc3)cc2)c1 (protonated)
CC[NH+](CC)CCOCCNCc1ccnc(-c2ccc(CNCc3ccccc3)cc2)c1 (3D coordinates assigned)
CC[NH+](CC)CCOCCNCc1ccnc(-c2ccc(CNCc3ccccc3)cc2)c1 (optimized conformer: 78.30214852309771 kcal/mol)

>  <smiles>  (20) 
CCN(CC)CCOCCNCc1ccnc(-c2ccc(CNCc3ccccc3)cc2)c1

>  <score_type>  (20) 
oracle

>  <origin>  (20) 
adg

>  <m_score__min__energy>  (20) 
-8.75

>  <m_primary>  (20) 
energy

$$$$
20:0
     RDKit          3D

 61 64  0  0  0  0  0  0  0  0999 V2000
   -6.6190   24.5630  -30.1360 C   0  0  0  0  0  0  0  0  0  0  0  0
   -5.3700   25.2880  -30.6190 C   0  0  0  0  0  0  0  0  0  0  0  0
   -4.1990   24.3830  -30.5370 N   0  0  0  0  0  0  0  0  0  0  0  0
   -3.4630   24.5240  -29.2570 C   0  0  0  0  0  0  0  0  0  0  0  0
   -3.9490   23.5800  -28.1430 C   0  0  0  0  0  0  0  0  0  0  0  0
   -4.5240   22.9770  -30.8640 C   0  0  0  0  0  0  0  0  0  0  0  0
   -3.6680   22.4570  -32.0280 C   0  0  0  0  0  0  0  0  0  0  0  0
   -4.4970   21.9470  -33.1220 N   0  0  0  0  0  0  0  0  0  0  0  0
   -5.0850   20.6400  -33.0890 C   0  0  0  0  0  0  0  0  0  0  0  0
   -6.4210   20.4320  -32.6710 C   0  0  0  0  0  0  0  0  0  0  0  0
   -7.1790   21.4890  -32.1310 C   0  0  0  0  0  0  0  0  0  0  0  0
   -8.4900   21.2810  -31.7120 C   0  0  0  0  0  0  0  0  0  0  0  0
   -9.0630   20.0170  -31.8030 C   0  0  0  0  0  0  0  0  0  0  0  0
   -8.3320   18.9470  -32.3170 C   0  0  0  0  0  0  0  0  0  0  0  0
   -7.0020   19.1230  -32.7730 C   0  0  0  0  0  0  0  0  0  0  0  0
   -6.2670   18.0680  -33.2920 N   0  0  0  0  0  0  0  0  0  0  0  0
   -6.8770   16.7450  -33.5230 C   0  0  0  0  0  0  0  0  0  0  0  0
   -4.9400   18.2750  -33.5690 C   0  0  0  0  0  0  0  0  0  0  0  0
   -4.0420   17.3410  -33.9680 N   0  0  0  0  0  0  0  0  0  0  0  0
   -2.8840   18.0140  -34.1270 C   0  0  0  0  0  0  0  0  0  0  0  0
   -1.6640   17.4850  -34.5350 C   0  0  0  0  0  0  0  0  0  0  0  0
   -0.5680   18.3550  -34.6460 C   0  0  0  0  0  0  0  0  0  0  0  0
   -0.6930   19.7390  -34.3370 C   0  0  0  0  0  0  0  0  0  0  0  0
    0.4410   20.6320  -34.4730 N   0  0  0  0  0  0  0  0  0  0  0  0
    0.3280   21.8590  -35.2700 C   0  0  0  0  0  0  0  0  0  0  0  0
    1.7230   20.3130  -33.8350 C   0  0  0  0  0  0  0  0  0  0  0  0
   -1.9490   20.2330  -33.9040 C   0  0  0  0  0  0  0  0  0  0  0  0
   -3.0260   19.3480  -33.8270 C   0  0  0  0  0  0  0  0  0  0  0  0
   -4.3520   19.5200  -33.4680 C   0  0  0  0  0  0  0  0  0  0  0  0
   -6.6352   24.5536  -29.0362 H   0  0  0  0  0  0  0  0  0  0  0  0
   -7.5129   25.0826  -30.5115 H   0  0  0  0  0  0  0  0  0  0  0  0
   -6.6111   23.5291  -30.5115 H   0  0  0  0  0  0  0  0  0  0  0  0
   -5.5131   25.6059  -31.6623 H   0  0  0  0  0  0  0  0  0  0  0  0
   -5.1931   26.1682  -29.9834 H   0  0  0  0  0  0  0  0  0  0  0  0
   -2.3995   24.3161  -29.4458 H   0  0  0  0  0  0  0  0  0  0  0  0
   -3.6400   25.5499  -28.9018 H   0  0  0  0  0  0  0  0  0  0  0  0
   -3.7212   24.0225  -27.1621 H   0  0  0  0  0  0  0  0  0  0  0  0
   -5.0351   23.4325  -28.2353 H   0  0  0  0  0  0  0  0  0  0  0  0
   -3.4381   22.6102  -28.2353 H   0  0  0  0  0  0  0  0  0  0  0  0
   -4.3394   22.3522  -29.9777 H   0  0  0  0  0  0  0  0  0  0  0  0
   -5.5810   22.9283  -31.1646 H   0  0  0  0  0  0  0  0  0  0  0  0
   -3.0436   23.2795  -32.4070 H   0  0  0  0  0  0  0  0  0  0  0  0
   -3.0455   21.6306  -31.6544 H   0  0  0  0  0  0  0  0  0  0  0  0
   -4.6030   22.5190  -33.9900 H   0  0  0  0  0  0  0  0  0  0  0  0
   -6.7304   22.4892  -32.0394 H   0  0  0  0  0  0  0  0  0  0  0  0
   -9.0753   22.1198  -31.3072 H   0  0  0  0  0  0  0  0  0  0  0  0
  -10.0989   19.8607  -31.4675 H   0  0  0  0  0  0  0  0  0  0  0  0
   -8.7949   17.9505  -32.3694 H   0  0  0  0  0  0  0  0  0  0  0  0
   -7.0966   16.2686  -32.5561 H   0  0  0  0  0  0  0  0  0  0  0  0
   -7.8103   16.8659  -34.0926 H   0  0  0  0  0  0  0  0  0  0  0  0
   -6.1790   16.1138  -34.0926 H   0  0  0  0  0  0  0  0  0  0  0  0
   -4.1720   16.3150  -34.1060 H   0  0  0  0  0  0  0  0  0  0  0  0
   -1.5609   16.4141  -34.7644 H   0  0  0  0  0  0  0  0  0  0  0  0
    0.4039   17.9606  -34.9774 H   0  0  0  0  0  0  0  0  0  0  0  0
    0.2481   22.7265  -34.5983 H   0  0  0  0  0  0  0  0  0  0  0  0
    1.2200   21.9675  -35.9045 H   0  0  0  0  0  0  0  0  0  0  0  0
   -0.5688   21.8028  -35.9045 H   0  0  0  0  0  0  0  0  0  0  0  0
    1.6057   20.3422  -32.7417 H   0  0  0  0  0  0  0  0  0  0  0  0
    2.0454   19.3073  -34.1425 H   0  0  0  0  0  0  0  0  0  0  0  0
    2.4791   21.0504  -34.1425 H   0  0  0  0  0  0  0  0  0  0  0  0
   -2.0726   21.2922  -33.6341 H   0  0  0  0  0  0  0  0  0  0  0  0
  1  2  1  0
  2  3  1  0
  3  4  1  0
  4  5  1  0
  3  6  1  0
  6  7  1  0
  7  8  1  0
  8  9  1  0
  9 10  2  0
 10 11  1  0
 11 12  2  0
 12 13  1  0
 13 14  2  0
 14 15  1  0
 15 16  2  0
 16 17  1  0
 16 18  1  0
 18 19  1  0
 19 20  1  0
 20 21  2  0
 21 22  1  0
 22 23  2  0
 23 24  1  0
 24 25  1  0
 24 26  1  0
 23 27  1  0
 27 28  2  0
 28 29  1  0
 29  9  1  0
 15 10  1  0
 29 18  2  0
 28 20  1  0
  1 30  1  0
  1 31  1  0
  1 32  1  0
  2 33  1  0
  2 34  1  0
  4 35  1  0
  4 36  1  0
  5 37  1  0
  5 38  1  0
  5 39  1  0
  6 40  1  0
  6 41  1  0
  7 42  1  0
  7 43  1  0
  8 44  1  0
 11 45  1  0
 12 46  1  0
 13 47  1  0
 14 48  1  0
 17 49  1  0
 17 50  1  0
 17 51  1  0
 19 52  1  0
 21 53  1  0
 22 54  1  0
 25 55  1  0
 25 56  1  0
 25 57  1  0
 26 58  1  0
 26 59  1  0
 26 60  1  0
 27 61  1  0
M  CHG  1  16   1
M  END
>  <UniqueID>  (21) 
21

>  <SMILES>  (21) 
CCN(CC)CCNc1c2ccccc2[n+](C)c2[nH]c3ccc(N(C)C)cc3c12

>  <Energy>  (21) 
117.78873538010885

>  <Genealogy>  (21) 
CCN(CC)CCNc1c2ccccc2[n+](C)c2[nH]c3ccc(N(C)C)cc3c12 (3D coordinates assigned)
CCN(CC)CCNc1c2ccccc2[n+](C)c2[nH]c3ccc(N(C)C)cc3c12 (optimized conformer: 117.78873538010885 kcal/mol)

>  <smiles>  (21) 
CCN(CC)CCNc1c2ccccc2[n+](C)c2[nH]c3ccc(N(C)C)cc3c12

>  <score_type>  (21) 
oracle

>  <origin>  (21) 
adg

>  <m_score__min__energy>  (21) 
-9.1999999999999993

>  <m_primary>  (21) 
energy

$$$$
21:0
     RDKit          3D

 39 41  0  0  0  0  0  0  0  0999 V2000
   -7.6590   22.3730  -29.8270 C   0  0  0  0  0  0  0  0  0  0  0  0
   -7.2250   22.1070  -31.2090 N   0  0  0  0  0  0  0  0  0  0  0  0
   -8.2350   21.3440  -31.9690 C   0  0  0  0  0  0  0  0  0  0  0  0
   -7.6370   20.0580  -32.4740 C   0  0  0  0  0  0  0  0  0  0  0  0
   -6.6770   20.0860  -33.4990 C   0  0  0  0  0  0  0  0  0  0  0  0
   -6.1050   18.8950  -33.9610 C   0  0  0  0  0  0  0  0  0  0  0  0
   -6.4860   17.6720  -33.4030 C   0  0  0  0  0  0  0  0  0  0  0  0
   -7.4380   17.6380  -32.3800 C   0  0  0  0  0  0  0  0  0  0  0  0
   -8.0110   18.8240  -31.9140 C   0  0  0  0  0  0  0  0  0  0  0  0
   -6.7600   23.3310  -31.9020 C   0  0  0  0  0  0  0  0  0  0  0  0
   -5.5800   24.0180  -31.2440 C   0  0  0  0  0  0  0  0  0  0  0  0
   -5.5260   25.3260  -30.8020 C   0  0  0  0  0  0  0  0  0  0  0  0
   -4.2550   25.6440  -30.4920 N   0  0  0  0  0  0  0  0  0  0  0  0
   -3.4850   24.5980  -30.7400 N   0  0  0  0  0  0  0  0  0  0  0  0
   -4.2560   23.5950  -31.2020 C   0  0  0  0  0  0  0  0  0  0  0  0
   -3.7020   22.3140  -31.6790 C   0  0  0  0  0  0  0  0  0  0  0  0
   -3.8660   21.9210  -33.0170 C   0  0  0  0  0  0  0  0  0  0  0  0
   -3.3540   20.6990  -33.4630 C   0  0  0  0  0  0  0  0  0  0  0  0
   -2.6850   19.8550  -32.5730 C   0  0  0  0  0  0  0  0  0  0  0  0
   -2.5340   20.2280  -31.2360 C   0  0  0  0  0  0  0  0  0  0  0  0
   -3.0450   21.4500  -30.7850 C   0  0  0  0  0  0  0  0  0  0  0  0
   -2.8790   21.7970  -29.4830 F   0  0  0  0  0  0  0  0  0  0  0  0
   -6.9373   21.9307  -29.1245 H   0  0  0  0  0  0  0  0  0  0  0  0
   -7.7126   23.4593  -29.6622 H   0  0  0  0  0  0  0  0  0  0  0  0
   -8.6513   21.9277  -29.6622 H   0  0  0  0  0  0  0  0  0  0  0  0
   -9.0884   21.1161  -31.3135 H   0  0  0  0  0  0  0  0  0  0  0  0
   -8.5725   21.9459  -32.8256 H   0  0  0  0  0  0  0  0  0  0  0  0
   -6.3738   21.0470  -33.9400 H   0  0  0  0  0  0  0  0  0  0  0  0
   -5.3544   18.9219  -34.7646 H   0  0  0  0  0  0  0  0  0  0  0  0
   -6.0371   16.7366  -33.7685 H   0  0  0  0  0  0  0  0  0  0  0  0
   -7.7368   16.6748  -31.9407 H   0  0  0  0  0  0  0  0  0  0  0  0
   -8.7571   18.7921  -31.1064 H   0  0  0  0  0  0  0  0  0  0  0  0
   -6.4694   23.0559  -32.9266 H   0  0  0  0  0  0  0  0  0  0  0  0
   -7.5957   24.0454  -31.8681 H   0  0  0  0  0  0  0  0  0  0  0  0
   -6.3886   26.0032  -30.7166 H   0  0  0  0  0  0  0  0  0  0  0  0
   -4.4005   22.5785  -33.7184 H   0  0  0  0  0  0  0  0  0  0  0  0
   -3.4779   20.4019  -34.5149 H   0  0  0  0  0  0  0  0  0  0  0  0
   -2.2771   18.8963  -32.9257 H   0  0  0  0  0  0  0  0  0  0  0  0
   -2.0120   19.5595  -30.5355 H   0  0  0  0  0  0  0  0  0  0  0  0
  1  2  1  0
  2  3  1  0
  3  4  1  0
  4  5  2  0
  5  6  1  0
  6  7  2  0
  7  8  1  0
  8  9  2  0
  2 10  1  0
 10 11  1  0
 11 12  2  0
 12 13  1  0
 13 14  1  0
 14 15  2  0
 15 16  1  0
 16 17  2  0
 17 18  1  0
 18 19  2  0
 19 20  1  0
 20 21  2  0
 21 22  1  0
  9  4  1  0
 15 11  1  0
 21 16  1  0
  1 23  1  0
  1 24  1  0
  1 25  1  0
  3 26  1  0
  3 27  1  0
  5 28  1  0
  6 29  1  0
  7 30  1  0
  8 31  1  0
  9 32  1  0
 10 33  1  0
 10 34  1  0
 12 35  1  0
 17 36  1  0
 18 37  1  0
 19 38  1  0
 20 39  1  0
M  CHG  1  13  -1
M  END
>  <UniqueID>  (22) 
22

>  <SMILES>  (22) 
CN(Cc1ccccc1)Cc1c[n-]nc1-c1ccccc1F

>  <Energy>  (22) 
81.01695397367277

>  <Genealogy>  (22) 
CN(Cc1ccccc1)Cc1c[n-]nc1-c1ccccc1F (protonated)
CN(Cc1ccccc1)Cc1c[n-]nc1-c1ccccc1F (3D coordinates assigned)
CN(Cc1ccccc1)Cc1c[n-]nc1-c1ccccc1F (optimized conformer: 81.01695397367277 kcal/mol)

>  <smiles>  (22) 
CN(Cc1ccccc1)Cc1c[nH]nc1-c1ccccc1F

>  <score_type>  (22) 
oracle

>  <origin>  (22) 
adg

>  <m_score__min__energy>  (22) 
-9.75

>  <m_primary>  (22) 
energy

$$$$
22:0
     RDKit          3D

 83 87  0  0  0  0  0  0  0  0999 V2000
   -9.1030   19.8830  -31.6950 C   0  0  0  0  0  0  0  0  0  0  0  0
   -9.3870   21.3100  -31.2000 C   0  0  0  0  0  0  0  0  0  0  0  0
   -8.2700   22.2620  -31.4210 N   0  0  1  0  0  0  0  0  0  0  0  0
   -8.6860   23.4010  -32.2680 C   0  0  0  0  0  0  0  0  0  0  0  0
   -7.6560   22.7170  -30.1430 C   0  0  0  0  0  0  0  0  0  0  0  0
   -6.1380   22.9370  -30.2590 C   0  0  0  0  0  0  0  0  0  0  0  0
   -5.5730   22.0110  -31.1700 O   0  0  0  0  0  0  0  0  0  0  0  0
   -5.1430   22.6700  -32.3410 C   0  0  0  0  0  0  0  0  0  0  0  0
   -3.9610   21.9160  -32.9460 C   0  0  0  0  0  0  0  0  0  0  0  0
   -3.6790   20.6990  -32.1830 N   0  0  0  0  0  0  0  0  0  0  0  0
   -3.4620   19.4480  -32.8590 C   0  0  0  0  0  0  0  0  0  0  0  0
   -4.5540   18.6020  -33.1240 C   0  0  0  0  0  0  0  0  0  0  0  0
   -5.8270   18.8580  -32.5670 C   0  0  0  0  0  0  0  0  0  0  0  0
   -6.8910   17.9860  -32.7920 C   0  0  0  0  0  0  0  0  0  0  0  0
   -6.7050   16.8450  -33.5650 C   0  0  0  0  0  0  0  0  0  0  0  0
   -5.4630   16.5890  -34.1470 C   0  0  0  0  0  0  0  0  0  0  0  0
   -4.3730   17.4780  -33.9700 C   0  0  0  0  0  0  0  0  0  0  0  0
   -3.1590   17.2750  -34.5950 N   0  0  0  0  0  0  0  0  0  0  0  0
   -3.0620   16.3240  -35.7250 C   0  0  0  0  0  0  0  0  0  0  0  0
   -2.0380   17.9660  -34.1740 C   0  0  0  0  0  0  0  0  0  0  0  0
   -0.7400   17.5840  -34.5930 C   0  0  0  0  0  0  0  0  0  0  0  0
    0.3850   18.2810  -34.1760 C   0  0  0  0  0  0  0  0  0  0  0  0
    0.2640   19.3490  -33.2970 C   0  0  0  0  0  0  0  0  0  0  0  0
   -0.9980   19.7460  -32.8220 C   0  0  0  0  0  0  0  0  0  0  0  0
   -1.1160   20.7610  -31.8540 O   0  0  0  0  0  0  0  0  0  0  0  0
   -0.1180   21.1610  -30.9160 C   0  0  0  0  0  0  0  0  0  0  0  0
   -0.3710   20.4930  -29.5510 C   0  0  0  0  0  0  0  0  0  0  0  0
   -1.3130   21.2220  -28.6650 N   0  0  2  0  0  0  0  0  0  0  0  0
   -0.6300   21.8510  -27.5050 C   0  0  0  0  0  0  0  0  0  0  0  0
   -1.5950   22.9820  -27.0900 C   0  0  0  0  0  0  0  0  0  0  0  0
   -2.7010   22.8480  -28.0680 N   0  0  2  0  0  0  0  0  0  0  0  0
   -3.5020   24.0670  -28.3170 C   0  0  0  0  0  0  0  0  0  0  0  0
   -2.9250   24.9150  -29.4170 C   0  0  0  0  0  0  0  0  0  0  0  0
   -3.5650   25.0620  -30.4930 O   0  0  0  0  0  0  0  0  0  0  0  0
   -1.6650   25.4880  -29.2870 O   0  0  0  0  0  0  0  0  0  0  0  0
   -3.4680   21.6180  -27.7490 C   0  0  0  0  0  0  0  0  0  0  0  0
   -2.4960   20.4820  -28.1540 C   0  0  0  0  0  0  0  0  0  0  0  0
   -1.9570   22.3950  -29.2380 C   0  0  0  0  0  0  0  0  0  0  0  0
   -2.1670   19.0720  -33.2860 C   0  0  0  0  0  0  0  0  0  0  0  0
   -8.9700   19.2150  -30.8313 H   0  0  0  0  0  0  0  0  0  0  0  0
   -9.9487   19.5310  -32.3040 H   0  0  0  0  0  0  0  0  0  0  0  0
   -8.1870   19.8817  -32.3040 H   0  0  0  0  0  0  0  0  0  0  0  0
  -10.2737   21.6891  -31.7292 H   0  0  0  0  0  0  0  0  0  0  0  0
   -9.5370   21.2443  -30.1123 H   0  0  0  0  0  0  0  0  0  0  0  0
   -7.5540   21.7300  -31.9700 H   0  0  0  0  0  0  0  0  0  0  0  0
   -8.9929   24.2412  -31.6278 H   0  0  0  0  0  0  0  0  0  0  0  0
   -7.8436   23.7126  -32.9031 H   0  0  0  0  0  0  0  0  0  0  0  0
   -9.5309   23.0963  -32.9031 H   0  0  0  0  0  0  0  0  0  0  0  0
   -8.1272   23.6650  -29.8441 H   0  0  0  0  0  0  0  0  0  0  0  0
   -7.8211   21.9272  -29.3954 H   0  0  0  0  0  0  0  0  0  0  0  0
   -5.9462   23.9596  -30.6160 H   0  0  0  0  0  0  0  0  0  0  0  0
   -5.6795   22.7896  -29.2700 H   0  0  0  0  0  0  0  0  0  0  0  0
   -5.9682   22.7016  -33.0677 H   0  0  0  0  0  0  0  0  0  0  0  0
   -4.8339   23.6958  -32.0914 H   0  0  0  0  0  0  0  0  0  0  0  0
   -4.1997   21.6439  -33.9847 H   0  0  0  0  0  0  0  0  0  0  0  0
   -3.0740   22.5659  -32.9161 H   0  0  0  0  0  0  0  0  0  0  0  0
   -3.8450   20.7010  -31.1510 H   0  0  0  0  0  0  0  0  0  0  0  0
   -5.9801   19.7551  -31.9491 H   0  0  0  0  0  0  0  0  0  0  0  0
   -7.8786   18.2006  -32.3577 H   0  0  0  0  0  0  0  0  0  0  0  0
   -7.5382   16.1433  -33.7178 H   0  0  0  0  0  0  0  0  0  0  0  0
   -5.3272   15.6816  -34.7537 H   0  0  0  0  0  0  0  0  0  0  0  0
   -2.9576   15.3007  -35.3351 H   0  0  0  0  0  0  0  0  0  0  0  0
   -3.9717   16.3911  -36.3398 H   0  0  0  0  0  0  0  0  0  0  0  0
   -2.1846   16.5734  -36.3398 H   0  0  0  0  0  0  0  0  0  0  0  0
   -0.6216   16.7185  -35.2615 H   0  0  0  0  0  0  0  0  0  0  0  0
    1.3787   17.9857  -34.5440 H   0  0  0  0  0  0  0  0  0  0  0  0
    1.1642   19.8895  -32.9693 H   0  0  0  0  0  0  0  0  0  0  0  0
    0.8723   20.8609  -31.2892 H   0  0  0  0  0  0  0  0  0  0  0  0
   -0.1585   22.2534  -30.7935 H   0  0  0  0  0  0  0  0  0  0  0  0
   -0.7804   19.4883  -29.7326 H   0  0  0  0  0  0  0  0  0  0  0  0
    0.5972   20.4800  -29.0290 H   0  0  0  0  0  0  0  0  0  0  0  0
    0.3493   22.2573  -27.7980 H   0  0  0  0  0  0  0  0  0  0  0  0
   -0.4263   21.1405  -26.6903 H   0  0  0  0  0  0  0  0  0  0  0  0
   -1.1105   23.9661  -27.1727 H   0  0  0  0  0  0  0  0  0  0  0  0
   -1.9280   22.9075  -26.0443 H   0  0  0  0  0  0  0  0  0  0  0  0
   -4.5224   23.7682  -28.5991 H   0  0  0  0  0  0  0  0  0  0  0  0
   -3.4990   24.6656  -27.3942 H   0  0  0  0  0  0  0  0  0  0  0  0
   -4.3978   21.5695  -28.3348 H   0  0  0  0  0  0  0  0  0  0  0  0
   -3.7802   21.5645  -26.6956 H   0  0  0  0  0  0  0  0  0  0  0  0
   -2.9344   19.8471  -28.9381 H   0  0  0  0  0  0  0  0  0  0  0  0
   -2.2563   19.7999  -27.3250 H   0  0  0  0  0  0  0  0  0  0  0  0
   -2.6232   22.1321  -30.0729 H   0  0  0  0  0  0  0  0  0  0  0  0
   -1.2761   23.1375  -29.6797 H   0  0  0  0  0  0  0  0  0  0  0  0
  1  2  1  0
  2  3  1  0
  3  4  1  0
  3  5  1  0
  5  6  1  0
  6  7  1  0
  7  8  1  0
  8  9  1  0
  9 10  1  0
 10 11  1  0
 11 12  2  0
 12 13  1  0
 13 14  2  0
 14 15  1  0
 15 16  2  0
 16 17  1  0
 17 18  2  0
 18 19  1  0
 18 20  1  0
 20 21  2  0
 21 22  1  0
 22 23  2  0
 23 24  1  0
 24 25  1  0
 25 26  1  0
 26 27  1  0
 28 27  1  6
 28 29  1  0
 29 30  1  0
 30 31  1  0
 31 32  1  6
 32 33  1  0
 33 34  2  0
 33 35  1  0
 31 36  1  0
 36 37  1  0
 31 38  1  0
 24 39  2  0
 39 11  1  0
 17 12  1  0
 39 20  1  0
 37 28  1  0
 38 28  1  0
  1 40  1  0
  1 41  1  0
  1 42  1  0
  2 43  1  0
  2 44  1  0
  3 45  1  6
  4 46  1  0
  4 47  1  0
  4 48  1  0
  5 49  1  0
  5 50  1  0
  6 51  1  0
  6 52  1  0
  8 53  1  0
  8 54  1  0
  9 55  1  0
  9 56  1  0
 10 57  1  0
 13 58  1  0
 14 59  1  0
 15 60  1  0
 16 61  1  0
 19 62  1  0
 19 63  1  0
 19 64  1  0
 21 65  1  0
 22 66  1  0
 23 67  1  0
 26 68  1  0
 26 69  1  0
 27 70  1  0
 27 71  1  0
 29 72  1  0
 29 73  1  0
 30 74  1  0
 30 75  1  0
 32 76  1  0
 32 77  1  0
 36 78  1  0
 36 79  1  0
 37 80  1  0
 37 81  1  0
 38 82  1  0
 38 83  1  0
M  CHG  5   3   1  18   1  28   1  31   1  35  -1
M  END
>  <UniqueID>  (23) 
23

>  <SMILES>  (23) 
CC[N@@H+](C)CCOCCNc1c2ccccc2[n+](C)c2cccc(OCC[N+]34CC[N+](CC(=O)[O-])(CC3)C4)c12

>  <Energy>  (23) 
165.05722850266648

>  <Genealogy>  (23) 
CC[NH+](C)CCOCCNc1c2ccccc2[n+](C)c2cccc(OCC[N+]34CC[N+](CC(=O)[O-])(CC3)C4)c12 (protonated)
CC[N@@H+](C)CCOCCNc1c2ccccc2[n+](C)c2cccc(OCC[N+]34CC[N+](CC(=O)[O-])(CC3)C4)c12 (chirality)
CC[N@@H+](C)CCOCCNc1c2ccccc2[n+](C)c2cccc(OCC[N+]34CC[N+](CC(=O)[O-])(CC3)C4)c12 (3D coordinates assigned)
CC[N@@H+](C)CCOCCNc1c2ccccc2[n+](C)c2cccc(OCC[N+]34CC[N+](CC(=O)[O-])(CC3)C4)c12 (nonaromatic ring conformer: 165.05722850266648 kcal/mol)

>  <smiles>  (23) 
CCN(C)CCOCCNc1c2ccccc2[n+](C)c2cccc(OCC[N+]34CC[N+](CC(=O)O)(CC3)C4)c12

>  <score_type>  (23) 
oracle

>  <origin>  (23) 
adg

>  <m_score__min__energy>  (23) 
-8.1300000000000008

>  <m_primary>  (23) 
energy

$$$$
23:0
     RDKit          3D

 60 63  0  0  0  0  0  0  0  0999 V2000
   -5.3170   25.3360  -30.4600 C   0  0  0  0  0  0  0  0  0  0  0  0
   -4.9170   24.1030  -29.6580 C   0  0  0  0  0  0  0  0  0  0  0  0
   -3.4660   23.8450  -29.8410 N   0  0  0  0  0  0  0  0  0  0  0  0
   -2.6770   24.5750  -28.8350 C   0  0  0  0  0  0  0  0  0  0  0  0
   -3.1430   22.4010  -29.8000 C   0  0  0  0  0  0  0  0  0  0  0  0
   -3.8140   21.6640  -30.9720 C   0  0  0  0  0  0  0  0  0  0  0  0
   -3.2970   22.1160  -32.3550 C   0  0  0  0  0  0  0  0  0  0  0  0
   -4.2420   21.8550  -33.4620 N   0  0  0  0  0  0  0  0  0  0  0  0
   -5.3290   20.9770  -33.0750 C   0  0  0  0  0  0  0  0  0  0  0  0
   -6.5620   21.5170  -32.5860 C   0  0  0  0  0  0  0  0  0  0  0  0
   -6.7410   22.9120  -32.4020 C   0  0  0  0  0  0  0  0  0  0  0  0
   -7.9200   23.4240  -31.8690 C   0  0  0  0  0  0  0  0  0  0  0  0
   -8.9470   22.5710  -31.4960 C   0  0  0  0  0  0  0  0  0  0  0  0
   -8.8180   21.1980  -31.6800 C   0  0  0  0  0  0  0  0  0  0  0  0
   -7.6480   20.6400  -32.2560 C   0  0  0  0  0  0  0  0  0  0  0  0
   -7.5460   19.2820  -32.4900 N   0  0  0  0  0  0  0  0  0  0  0  0
   -8.7100   18.3870  -32.3290 C   0  0  0  0  0  0  0  0  0  0  0  0
   -6.3330   18.7690  -32.8630 C   0  0  0  0  0  0  0  0  0  0  0  0
   -6.0560   17.4540  -33.0120 N   0  0  0  0  0  0  0  0  0  0  0  0
   -4.7750   17.3920  -33.4080 C   0  0  0  0  0  0  0  0  0  0  0  0
   -4.0630   16.2230  -33.7140 C   0  0  0  0  0  0  0  0  0  0  0  0
   -4.7150   14.8700  -33.6540 C   0  0  0  0  0  0  0  0  0  0  0  0
   -2.7320   16.3580  -34.1430 C   0  0  0  0  0  0  0  0  0  0  0  0
   -2.1260   17.6280  -34.2170 C   0  0  0  0  0  0  0  0  0  0  0  0
   -0.7170   17.7580  -34.7190 C   0  0  0  0  0  0  0  0  0  0  0  0
   -2.8650   18.7850  -33.8990 C   0  0  0  0  0  0  0  0  0  0  0  0
   -4.2090   18.6540  -33.5030 C   0  0  0  0  0  0  0  0  0  0  0  0
   -5.2280   19.5640  -33.1470 C   0  0  0  0  0  0  0  0  0  0  0  0
   -5.5816   26.1516  -29.7710 H   0  0  0  0  0  0  0  0  0  0  0  0
   -4.4747   25.6502  -31.0939 H   0  0  0  0  0  0  0  0  0  0  0  0
   -6.1833   25.0959  -31.0939 H   0  0  0  0  0  0  0  0  0  0  0  0
   -5.1277   24.2743  -28.5920 H   0  0  0  0  0  0  0  0  0  0  0  0
   -5.4920   23.2336  -30.0094 H   0  0  0  0  0  0  0  0  0  0  0  0
   -3.0007   24.2755  -27.8272 H   0  0  0  0  0  0  0  0  0  0  0  0
   -1.6105   24.3382  -28.9630 H   0  0  0  0  0  0  0  0  0  0  0  0
   -2.8304   25.6567  -28.9630 H   0  0  0  0  0  0  0  0  0  0  0  0
   -2.0527   22.2721  -29.8683 H   0  0  0  0  0  0  0  0  0  0  0  0
   -3.5168   21.9801  -28.8550 H   0  0  0  0  0  0  0  0  0  0  0  0
   -3.6217   20.5865  -30.8626 H   0  0  0  0  0  0  0  0  0  0  0  0
   -4.8877   21.8999  -30.9329 H   0  0  0  0  0  0  0  0  0  0  0  0
   -3.1006   23.1976  -32.3149 H   0  0  0  0  0  0  0  0  0  0  0  0
   -2.3900   21.5298  -32.5643 H   0  0  0  0  0  0  0  0  0  0  0  0
   -3.7240   21.4230  -34.2590 H   0  0  0  0  0  0  0  0  0  0  0  0
   -4.5710   22.7380  -33.8790 H   0  0  0  0  0  0  0  0  0  0  0  0
   -5.9327   23.6020  -32.6860 H   0  0  0  0  0  0  0  0  0  0  0  0
   -8.0376   24.5104  -31.7431 H   0  0  0  0  0  0  0  0  0  0  0  0
   -9.8667   22.9809  -31.0532 H   0  0  0  0  0  0  0  0  0  0  0  0
   -9.6386   20.5328  -31.3731 H   0  0  0  0  0  0  0  0  0  0  0  0
   -8.9093   18.2337  -31.2581 H   0  0  0  0  0  0  0  0  0  0  0  0
   -9.5912   18.8424  -32.8045 H   0  0  0  0  0  0  0  0  0  0  0  0
   -8.4963   17.4184  -32.8045 H   0  0  0  0  0  0  0  0  0  0  0  0
   -6.6790   16.6340  -32.8370 H   0  0  0  0  0  0  0  0  0  0  0  0
   -4.8561   14.5772  -32.6031 H   0  0  0  0  0  0  0  0  0  0  0  0
   -5.6921   14.9112  -34.1575 H   0  0  0  0  0  0  0  0  0  0  0  0
   -4.0739   14.1314  -34.1575 H   0  0  0  0  0  0  0  0  0  0  0  0
   -2.1571   15.4632  -34.4240 H   0  0  0  0  0  0  0  0  0  0  0  0
   -0.0276   17.8216  -33.8642 H   0  0  0  0  0  0  0  0  0  0  0  0
   -0.4630   16.8795  -35.3303 H   0  0  0  0  0  0  0  0  0  0  0  0
   -0.6281   18.6682  -35.3303 H   0  0  0  0  0  0  0  0  0  0  0  0
   -2.3969   19.7786  -33.9596 H   0  0  0  0  0  0  0  0  0  0  0  0
  1  2  1  0
  2  3  1  0
  3  4  1  0
  3  5  1  0
  5  6  1  0
  6  7  1  0
  7  8  1  0
  8  9  1  0
  9 10  2  0
 10 11  1  0
 11 12  2  0
 12 13  1  0
 13 14  2  0
 14 15  1  0
 15 16  2  0
 16 17  1  0
 16 18  1  0
 18 19  1  0
 19 20  1  0
 20 21  2  0
 21 22  1  0
 21 23  1  0
 23 24  2  0
 24 25  1  0
 24 26  1  0
 26 27  2  0
 27 28  1  0
 28  9  1  0
 15 10  1  0
 28 18  2  0
 27 20  1  0
  1 29  1  0
  1 30  1  0
  1 31  1  0
  2 32  1  0
  2 33  1  0
  4 34  1  0
  4 35  1  0
  4 36  1  0
  5 37  1  0
  5 38  1  0
  6 39  1  0
  6 40  1  0
  7 41  1  0
  7 42  1  0
  8 43  1  0
  8 44  1  0
 11 45  1  0
 12 46  1  0
 13 47  1  0
 14 48  1  0
 17 49  1  0
 17 50  1  0
 17 51  1  0
 19 52  1  0
 22 53  1  0
 22 54  1  0
 22 55  1  0
 23 56  1  0
 25 57  1  0
 25 58  1  0
 25 59  1  0
 26 60  1  0
M  CHG  2   8   1  16   1
M  END
>  <UniqueID>  (24) 
24

>  <SMILES>  (24) 
CCN(C)CCC[NH2+]c1c2ccccc2[n+](C)c2[nH]c3c(C)cc(C)cc3c12

>  <Energy>  (24) 
121.54968149557018

>  <Genealogy>  (24) 
CCN(C)CCC[NH2+]c1c2ccccc2[n+](C)c2[nH]c3c(C)cc(C)cc3c12 (protonated)
CCN(C)CCC[NH2+]c1c2ccccc2[n+](C)c2[nH]c3c(C)cc(C)cc3c12 (3D coordinates assigned)
CCN(C)CCC[NH2+]c1c2ccccc2[n+](C)c2[nH]c3c(C)cc(C)cc3c12 (optimized conformer: 121.54968149557018 kcal/mol)

>  <smiles>  (24) 
CCN(C)CCCNc1c2ccccc2[n+](C)c2[nH]c3c(C)cc(C)cc3c12

>  <score_type>  (24) 
oracle

>  <origin>  (24) 
adg

>  <m_score__min__energy>  (24) 
-8.8399999999999999

>  <m_primary>  (24) 
energy

$$$$
24:0
     RDKit          3D

 37 39  0  0  0  0  0  0  0  0999 V2000
   -8.2160   21.8430  -31.1470 C   0  0  0  0  0  0  0  0  0  0  0  0
   -6.8790   22.0790  -31.6870 N   0  0  0  0  0  0  0  0  0  0  0  0
   -6.0770   21.2450  -32.3950 C   0  0  0  0  0  0  0  0  0  0  0  0
   -6.3940   19.8640  -32.8060 C   0  0  0  0  0  0  0  0  0  0  0  0
   -5.8640   19.1490  -33.8760 C   0  0  0  0  0  0  0  0  0  0  0  0
   -6.3370   17.8340  -33.9560 C   0  0  0  0  0  0  0  0  0  0  0  0
   -7.2300   17.4990  -32.9460 C   0  0  0  0  0  0  0  0  0  0  0  0
   -7.4230   18.8400  -31.9540 S   0  0  0  0  0  0  0  0  0  0  0  0
   -4.8980   21.8330  -32.6900 N   0  0  0  0  0  0  0  0  0  0  0  0
   -4.9530   23.0560  -32.1910 N   0  0  0  0  0  0  0  0  0  0  0  0
   -6.1450   23.2070  -31.5940 C   0  0  0  0  0  0  0  0  0  0  0  0
   -6.6710   24.7230  -30.7890 S   0  0  0  0  0  0  0  0  0  0  0  0
   -5.6050   24.4510  -29.3380 C   0  0  0  0  0  0  0  0  0  0  0  0
   -4.1680   24.5770  -29.7440 C   0  0  0  0  0  0  0  0  0  0  0  0
   -3.8820   25.2740  -30.7560 O   0  0  0  0  0  0  0  0  0  0  0  0
   -3.1150   23.9600  -28.9830 N   0  0  0  0  0  0  0  0  0  0  0  0
   -1.7120   24.0820  -29.3390 C   0  0  0  0  0  0  0  0  0  0  0  0
   -0.9630   23.1640  -28.3810 C   0  0  0  0  0  0  0  0  0  0  0  0
   -1.9330   22.8730  -27.2390 C   0  0  0  0  0  0  0  0  0  0  0  0
   -3.3240   23.1610  -27.7880 C   0  0  0  0  0  0  0  0  0  0  0  0
   -8.1741   21.8504  -30.0478 H   0  0  0  0  0  0  0  0  0  0  0  0
   -8.8964   22.6349  -31.4933 H   0  0  0  0  0  0  0  0  0  0  0  0
   -8.5841   20.8660  -31.4933 H   0  0  0  0  0  0  0  0  0  0  0  0
   -5.1436   19.5757  -34.5894 H   0  0  0  0  0  0  0  0  0  0  0  0
   -6.0302   17.1315  -34.7449 H   0  0  0  0  0  0  0  0  0  0  0  0
   -7.7246   16.5248  -32.8183 H   0  0  0  0  0  0  0  0  0  0  0  0
   -4.1920   23.7660  -32.2630 H   0  0  0  0  0  0  0  0  0  0  0  0
   -5.8356   25.2015  -28.5676 H   0  0  0  0  0  0  0  0  0  0  0  0
   -5.7852   23.4439  -28.9339 H   0  0  0  0  0  0  0  0  0  0  0  0
   -1.5512   23.7640  -30.3797 H   0  0  0  0  0  0  0  0  0  0  0  0
   -1.3622   25.1221  -29.2620 H   0  0  0  0  0  0  0  0  0  0  0  0
   -0.6784   22.2307  -28.8889 H   0  0  0  0  0  0  0  0  0  0  0  0
   -0.0360   23.6301  -28.0156 H   0  0  0  0  0  0  0  0  0  0  0  0
   -1.8544   21.8204  -26.9293 H   0  0  0  0  0  0  0  0  0  0  0  0
   -1.7124   23.4896  -26.3552 H   0  0  0  0  0  0  0  0  0  0  0  0
   -3.8396   22.2223  -28.0391 H   0  0  0  0  0  0  0  0  0  0  0  0
   -3.9512   23.6857  -27.0523 H   0  0  0  0  0  0  0  0  0  0  0  0
  1  2  1  0
  2  3  1  0
  3  4  1  0
  4  5  2  0
  5  6  1  0
  6  7  2  0
  7  8  1  0
  3  9  2  0
  9 10  1  0
 10 11  2  0
 11 12  1  0
 12 13  1  0
 13 14  1  0
 14 15  2  0
 14 16  1  0
 16 17  1  0
 17 18  1  0
 18 19  1  0
 19 20  1  0
 11  2  1  0
 20 16  1  0
  8  4  1  0
  1 21  1  0
  1 22  1  0
  1 23  1  0
  5 24  1  0
  6 25  1  0
  7 26  1  0
 10 27  1  0
 13 28  1  0
 13 29  1  0
 17 30  1  0
 17 31  1  0
 18 32  1  0
 18 33  1  0
 19 34  1  0
 19 35  1  0
 20 36  1  0
 20 37  1  0
M  CHG  1  10   1
M  END
>  <UniqueID>  (25) 
25

>  <SMILES>  (25) 
Cn1c(-c2cccs2)n[nH+]c1SCC(=O)N1CCCC1

>  <Energy>  (25) 
94.8191254733897

>  <Genealogy>  (25) 
Cn1c(-c2cccs2)n[nH+]c1SCC(=O)N1CCCC1 (protonated)
Cn1c(-c2cccs2)n[nH+]c1SCC(=O)N1CCCC1 (3D coordinates assigned)
Cn1c(-c2cccs2)n[nH+]c1SCC(=O)N1CCCC1 (nonaromatic ring conformer: 94.8191254733897 kcal/mol)

>  <smiles>  (25) 
Cn1c(SCC(=O)N2CCCC2)nnc1-c1cccs1

>  <score_type>  (25) 
oracle

>  <origin>  (25) 
adg

>  <m_score__min__energy>  (25) 
-7.5999999999999996

>  <m_primary>  (25) 
energy

$$$$
25:0
     RDKit          3D

 72 74  0  0  0  0  0  0  0  0999 V2000
   -6.1140   17.4260  -34.5880 C   0  0  0  0  0  0  0  0  0  0  0  0
   -7.1150   17.0560  -33.4820 C   0  0  0  0  0  0  0  0  0  0  0  0
   -7.1160   17.9790  -32.3190 N   0  0  0  0  0  0  0  0  0  0  0  0
   -6.1060   17.6140  -31.2990 C   0  0  0  0  0  0  0  0  0  0  0  0
   -5.4180   16.3130  -31.7010 C   0  0  0  0  0  0  0  0  0  0  0  0
   -8.4510   18.2400  -31.7320 C   0  0  0  0  0  0  0  0  0  0  0  0
   -8.8130   19.7340  -31.7710 C   0  0  0  0  0  0  0  0  0  0  0  0
   -8.1160   20.3940  -32.8100 O   0  0  0  0  0  0  0  0  0  0  0  0
   -6.8180   20.7800  -32.4000 C   0  0  0  0  0  0  0  0  0  0  0  0
   -5.8200   20.3550  -33.4730 C   0  0  0  0  0  0  0  0  0  0  0  0
   -4.6350   21.2100  -33.4390 N   0  0  0  0  0  0  0  0  0  0  0  0
   -3.5450   20.9470  -32.5390 C   0  0  0  0  0  0  0  0  0  0  0  0
   -2.7840   19.7710  -32.6720 C   0  0  0  0  0  0  0  0  0  0  0  0
   -3.1040   18.8130  -33.6550 C   0  0  0  0  0  0  0  0  0  0  0  0
   -2.3100   17.6710  -33.8400 C   0  0  0  0  0  0  0  0  0  0  0  0
   -2.6050   16.7070  -34.8180 O   0  0  0  0  0  0  0  0  0  0  0  0
   -3.2360   15.4570  -34.5600 C   0  0  0  0  0  0  0  0  0  0  0  0
   -1.1820   17.4780  -33.0380 C   0  0  0  0  0  0  0  0  0  0  0  0
   -0.3910   16.3420  -33.2740 O   0  0  0  0  0  0  0  0  0  0  0  0
   -0.3260   15.2040  -32.4180 C   0  0  0  0  0  0  0  0  0  0  0  0
   -0.8740   18.4110  -32.0330 C   0  0  0  0  0  0  0  0  0  0  0  0
   -1.6930   19.5440  -31.7980 C   0  0  0  0  0  0  0  0  0  0  0  0
   -1.4430   20.4200  -30.7570 N   0  0  0  0  0  0  0  0  0  0  0  0
   -0.5120   20.0320  -29.6710 C   0  0  0  0  0  0  0  0  0  0  0  0
   -2.0940   21.6390  -30.7040 C   0  0  0  0  0  0  0  0  0  0  0  0
   -1.6840   22.6660  -29.8190 C   0  0  0  0  0  0  0  0  0  0  0  0
   -2.3820   23.8840  -29.7300 C   0  0  0  0  0  0  0  0  0  0  0  0
   -1.9960   24.9060  -28.8470 O   0  0  0  0  0  0  0  0  0  0  0  0
   -2.1230   24.8460  -27.4310 C   0  0  0  0  0  0  0  0  0  0  0  0
   -3.4960   24.1020  -30.5430 C   0  0  0  0  0  0  0  0  0  0  0  0
   -4.1750   25.3270  -30.4260 O   0  0  0  0  0  0  0  0  0  0  0  0
   -5.5670   25.4580  -30.1570 C   0  0  0  0  0  0  0  0  0  0  0  0
   -3.8940   23.1130  -31.4530 C   0  0  0  0  0  0  0  0  0  0  0  0
   -3.1900   21.8970  -31.5640 C   0  0  0  0  0  0  0  0  0  0  0  0
   -5.1752   17.7730  -34.1317 H   0  0  0  0  0  0  0  0  0  0  0  0
   -5.9138   16.5425  -35.2119 H   0  0  0  0  0  0  0  0  0  0  0  0
   -6.5366   18.2273  -35.2119 H   0  0  0  0  0  0  0  0  0  0  0  0
   -8.1244   17.0529  -33.9191 H   0  0  0  0  0  0  0  0  0  0  0  0
   -6.8090   16.0710  -33.0996 H   0  0  0  0  0  0  0  0  0  0  0  0
   -5.3567   18.4157  -31.2228 H   0  0  0  0  0  0  0  0  0  0  0  0
   -6.6019   17.4790  -30.3265 H   0  0  0  0  0  0  0  0  0  0  0  0
   -5.1249   15.7588  -30.7972 H   0  0  0  0  0  0  0  0  0  0  0  0
   -6.1105   15.7012  -32.2978 H   0  0  0  0  0  0  0  0  0  0  0  0
   -4.5226   16.5410  -32.2978 H   0  0  0  0  0  0  0  0  0  0  0  0
   -9.2056   17.6764  -32.3003 H   0  0  0  0  0  0  0  0  0  0  0  0
   -8.4282   17.9224  -30.6791 H   0  0  0  0  0  0  0  0  0  0  0  0
   -9.8949   19.8384  -31.9398 H   0  0  0  0  0  0  0  0  0  0  0  0
   -8.5288   20.1902  -30.8113 H   0  0  0  0  0  0  0  0  0  0  0  0
   -6.7800   21.8717  -32.2706 H   0  0  0  0  0  0  0  0  0  0  0  0
   -6.5681   20.2980  -31.4434 H   0  0  0  0  0  0  0  0  0  0  0  0
   -5.5190   19.3122  -33.2944 H   0  0  0  0  0  0  0  0  0  0  0  0
   -6.2976   20.4488  -34.4595 H   0  0  0  0  0  0  0  0  0  0  0  0
   -4.4970   21.9080  -34.2050 H   0  0  0  0  0  0  0  0  0  0  0  0
   -3.9911   18.9631  -34.2878 H   0  0  0  0  0  0  0  0  0  0  0  0
   -3.3138   15.3029  -33.4736 H   0  0  0  0  0  0  0  0  0  0  0  0
   -4.2426   15.4559  -35.0035 H   0  0  0  0  0  0  0  0  0  0  0  0
   -2.6391   14.6465  -35.0035 H   0  0  0  0  0  0  0  0  0  0  0  0
   -0.3448   15.5330  -31.3685 H   0  0  0  0  0  0  0  0  0  0  0  0
   -1.1882   14.5492  -32.6125 H   0  0  0  0  0  0  0  0  0  0  0  0
    0.6052   14.6516  -32.6125 H   0  0  0  0  0  0  0  0  0  0  0  0
    0.0229   18.2586  -31.4147 H   0  0  0  0  0  0  0  0  0  0  0  0
   -0.9831   20.2283  -28.6966 H   0  0  0  0  0  0  0  0  0  0  0  0
   -0.2765   18.9608  -29.7552 H   0  0  0  0  0  0  0  0  0  0  0  0
    0.4145   20.6189  -29.7552 H   0  0  0  0  0  0  0  0  0  0  0  0
   -0.7984   22.5073  -29.1861 H   0  0  0  0  0  0  0  0  0  0  0  0
   -1.2226   25.2714  -26.9638 H   0  0  0  0  0  0  0  0  0  0  0  0
   -3.0059   25.4222  -27.1173 H   0  0  0  0  0  0  0  0  0  0  0  0
   -2.2386   23.7980  -27.1173 H   0  0  0  0  0  0  0  0  0  0  0  0
   -5.7304   25.4734  -29.0693 H   0  0  0  0  0  0  0  0  0  0  0  0
   -5.9389   26.3951  -30.5969 H   0  0  0  0  0  0  0  0  0  0  0  0
   -6.1072   24.6067  -30.5969 H   0  0  0  0  0  0  0  0  0  0  0  0
   -4.7718   23.2891  -32.0922 H   0  0  0  0  0  0  0  0  0  0  0  0
  1  2  1  0
  2  3  1  0
  3  4  1  0
  4  5  1  0
  3  6  1  0
  6  7  1  0
  7  8  1  0
  8  9  1  0
  9 10  1  0
 10 11  1  0
 11 12  1  0
 12 13  2  0
 13 14  1  0
 14 15  2  0
 15 16  1  0
 16 17  1  0
 15 18  1  0
 18 19  1  0
 19 20  1  0
 18 21  2  0
 21 22  1  0
 22 23  2  0
 23 24  1  0
 23 25  1  0
 25 26  2  0
 26 27  1  0
 27 28  1  0
 28 29  1  0
 27 30  2  0
 30 31  1  0
 31 32  1  0
 30 33  1  0
 33 34  2  0
 34 12  1  0
 22 13  1  0
 34 25  1  0
  1 35  1  0
  1 36  1  0
  1 37  1  0
  2 38  1  0
  2 39  1  0
  4 40  1  0
  4 41  1  0
  5 42  1  0
  5 43  1  0
  5 44  1  0
  6 45  1  0
  6 46  1  0
  7 47  1  0
  7 48  1  0
  9 49  1  0
  9 50  1  0
 10 51  1  0
 10 52  1  0
 11 53  1  0
 14 54  1  0
 17 55  1  0
 17 56  1  0
 17 57  1  0
 20 58  1  0
 20 59  1  0
 20 60  1  0
 21 61  1  0
 24 62  1  0
 24 63  1  0
 24 64  1  0
 26 65  1  0
 29 66  1  0
 29 67  1  0
 29 68  1  0
 32 69  1  0
 32 70  1  0
 32 71  1  0
 33 72  1  0
M  CHG  1  23   1
M  END
>  <UniqueID>  (26) 
26

>  <SMILES>  (26) 
CCN(CC)CCOCCNc1c2cc(OC)c(OC)cc2[n+](C)c2cc(OC)c(OC)cc12

>  <Energy>  (26) 
98.83143395526182

>  <Genealogy>  (26) 
CCN(CC)CCOCCNc1c2cc(OC)c(OC)cc2[n+](C)c2cc(OC)c(OC)cc12 (3D coordinates assigned)
CCN(CC)CCOCCNc1c2cc(OC)c(OC)cc2[n+](C)c2cc(OC)c(OC)cc12 (optimized conformer: 98.83143395526182 kcal/mol)

>  <smiles>  (26) 
CCN(CC)CCOCCNc1c2cc(OC)c(OC)cc2[n+](C)c2cc(OC)c(OC)cc12

>  <score_type>  (26) 
oracle

>  <origin>  (26) 
adg

>  <m_score__min__energy>  (26) 
-7.1699999999999999

>  <m_primary>  (26) 
energy

$$$$
26:0
     RDKit          3D

 53 56  0  0  0  0  0  0  0  0999 V2000
   -1.9300   22.8390  -29.7490 C   0  0  0  0  0  0  0  0  0  0  0  0
   -2.7250   24.1190  -29.5120 C   0  0  0  0  0  0  0  0  0  0  0  0
   -3.8080   24.2490  -30.4980 N   0  0  0  0  0  0  0  0  0  0  0  0
   -5.0280   24.8000  -29.8950 C   0  0  0  0  0  0  0  0  0  0  0  0
   -6.1590   24.8900  -30.9330 C   0  0  0  0  0  0  0  0  0  0  0  0
   -6.6380   23.5280  -31.4670 C   0  0  0  0  0  0  0  0  0  0  0  0
   -5.7140   22.8980  -32.5270 C   0  0  0  0  0  0  0  0  0  0  0  0
   -4.6800   22.0590  -31.9200 N   0  0  0  0  0  0  0  0  0  0  0  0
   -4.3450   20.7940  -32.5070 C   0  0  0  0  0  0  0  0  0  0  0  0
   -3.0630   20.5590  -33.0560 C   0  0  0  0  0  0  0  0  0  0  0  0
   -2.0860   21.5740  -33.0570 C   0  0  0  0  0  0  0  0  0  0  0  0
   -0.8350   21.3570  -33.6290 C   0  0  0  0  0  0  0  0  0  0  0  0
   -0.5360   20.1300  -34.2120 C   0  0  0  0  0  0  0  0  0  0  0  0
   -1.4780   19.1010  -34.2150 C   0  0  0  0  0  0  0  0  0  0  0  0
   -2.7520   19.2750  -33.6200 C   0  0  0  0  0  0  0  0  0  0  0  0
   -3.6850   18.2500  -33.5880 N   0  0  0  0  0  0  0  0  0  0  0  0
   -3.3530   16.8940  -34.0640 C   0  0  0  0  0  0  0  0  0  0  0  0
   -4.9410   18.5280  -33.1150 C   0  0  0  0  0  0  0  0  0  0  0  0
   -6.0120   17.6940  -33.1320 N   0  0  0  0  0  0  0  0  0  0  0  0
   -7.0220   18.4080  -32.5980 C   0  0  0  0  0  0  0  0  0  0  0  0
   -8.3410   17.9890  -32.4300 C   0  0  0  0  0  0  0  0  0  0  0  0
   -9.2610   18.9020  -31.8870 C   0  0  0  0  0  0  0  0  0  0  0  0
   -8.8490   20.2050  -31.5340 C   0  0  0  0  0  0  0  0  0  0  0  0
   -7.5150   20.6060  -31.7180 C   0  0  0  0  0  0  0  0  0  0  0  0
   -6.6160   19.6780  -32.2460 C   0  0  0  0  0  0  0  0  0  0  0  0
   -5.2750   19.7580  -32.5790 C   0  0  0  0  0  0  0  0  0  0  0  0
   -1.6539   22.3944  -28.7815 H   0  0  0  0  0  0  0  0  0  0  0  0
   -2.5444   22.1259  -30.3182 H   0  0  0  0  0  0  0  0  0  0  0  0
   -1.0184   23.0736  -30.3182 H   0  0  0  0  0  0  0  0  0  0  0  0
   -3.1583   24.0929  -28.5013 H   0  0  0  0  0  0  0  0  0  0  0  0
   -2.0479   24.9797  -29.6152 H   0  0  0  0  0  0  0  0  0  0  0  0
   -3.4840   24.9250  -31.2290 H   0  0  0  0  0  0  0  0  0  0  0  0
   -5.3480   24.1479  -29.0690 H   0  0  0  0  0  0  0  0  0  0  0  0
   -4.8106   25.8119  -29.5226 H   0  0  0  0  0  0  0  0  0  0  0  0
   -7.0158   25.3976  -30.4659 H   0  0  0  0  0  0  0  0  0  0  0  0
   -5.7533   25.4412  -31.7942 H   0  0  0  0  0  0  0  0  0  0  0  0
   -6.7117   22.8324  -30.6180 H   0  0  0  0  0  0  0  0  0  0  0  0
   -7.6046   23.7072  -31.9605 H   0  0  0  0  0  0  0  0  0  0  0  0
   -6.3205   22.2800  -33.2054 H   0  0  0  0  0  0  0  0  0  0  0  0
   -5.2153   23.7129  -33.0723 H   0  0  0  0  0  0  0  0  0  0  0  0
   -4.4590   22.1760  -30.9060 H   0  0  0  0  0  0  0  0  0  0  0  0
   -2.3138   22.5487  -32.6009 H   0  0  0  0  0  0  0  0  0  0  0  0
   -0.0812   22.1581  -33.6198 H   0  0  0  0  0  0  0  0  0  0  0  0
    0.4495   19.9700  -34.6736 H   0  0  0  0  0  0  0  0  0  0  0  0
   -1.2277   18.1393  -34.6868 H   0  0  0  0  0  0  0  0  0  0  0  0
   -3.1909   16.2318  -33.2007 H   0  0  0  0  0  0  0  0  0  0  0  0
   -4.1826   16.5059  -34.6731 H   0  0  0  0  0  0  0  0  0  0  0  0
   -2.4379   16.9330  -34.6731 H   0  0  0  0  0  0  0  0  0  0  0  0
   -6.0880   16.7270  -33.5140 H   0  0  0  0  0  0  0  0  0  0  0  0
   -8.6526   16.9731  -32.7143 H   0  0  0  0  0  0  0  0  0  0  0  0
  -10.3078   18.5996  -31.7363 H   0  0  0  0  0  0  0  0  0  0  0  0
   -9.5780   20.9121  -31.1115 H   0  0  0  0  0  0  0  0  0  0  0  0
   -7.1884   21.6225  -31.4534 H   0  0  0  0  0  0  0  0  0  0  0  0
  1  2  1  0
  2  3  1  0
  3  4  1  0
  4  5  1  0
  5  6  1  0
  6  7  1  0
  7  8  1  0
  8  9  1  0
  9 10  2  0
 10 11  1  0
 11 12  2  0
 12 13  1  0
 13 14  2  0
 14 15  1  0
 15 16  2  0
 16 17  1  0
 16 18  1  0
 18 19  1  0
 19 20  1  0
 20 21  2  0
 21 22  1  0
 22 23  2  0
 23 24  1  0
 24 25  2  0
 25 26  1  0
 26  9  1  0
 15 10  1  0
 26 18  2  0
 25 20  1  0
  1 27  1  0
  1 28  1  0
  1 29  1  0
  2 30  1  0
  2 31  1  0
  3 32  1  0
  4 33  1  0
  4 34  1  0
  5 35  1  0
  5 36  1  0
  6 37  1  0
  6 38  1  0
  7 39  1  0
  7 40  1  0
  8 41  1  0
 11 42  1  0
 12 43  1  0
 13 44  1  0
 14 45  1  0
 17 46  1  0
 17 47  1  0
 17 48  1  0
 19 49  1  0
 21 50  1  0
 22 51  1  0
 23 52  1  0
 24 53  1  0
M  CHG  1  16   1
M  END
>  <UniqueID>  (27) 
27

>  <SMILES>  (27) 
CCNCCCCNc1c2ccccc2[n+](C)c2[nH]c3ccccc3c12

>  <Energy>  (27) 
107.43825003992153

>  <Genealogy>  (27) 
CCNCCCCNc1c2ccccc2[n+](C)c2[nH]c3ccccc3c12 (3D coordinates assigned)
CCNCCCCNc1c2ccccc2[n+](C)c2[nH]c3ccccc3c12 (optimized conformer: 107.43825003992153 kcal/mol)

>  <smiles>  (27) 
CCNCCCCNc1c2ccccc2[n+](C)c2[nH]c3ccccc3c12

>  <score_type>  (27) 
oracle

>  <origin>  (27) 
adg

>  <m_score__min__energy>  (27) 
-9.3000000000000007

>  <m_primary>  (27) 
energy

$$$$
27:0
     RDKit          3D

 58 59  0  0  0  0  0  0  0  0999 V2000
   -0.9440   20.3990  -31.2460 C   0  0  0  0  0  0  0  0  0  0  0  0
   -1.3270   21.8220  -31.6460 C   0  0  0  0  0  0  0  0  0  0  0  0
   -1.9430   22.5390  -30.5210 N   0  0  0  0  0  0  0  0  0  0  0  0
   -1.4630   21.9950  -29.2390 C   0  0  0  0  0  0  0  0  0  0  0  0
   -2.6190   21.7750  -28.2600 C   0  0  0  0  0  0  0  0  0  0  0  0
   -3.8310   22.1660  -28.8690 O   0  0  0  0  0  0  0  0  0  0  0  0
   -4.2590   23.3980  -28.3270 C   0  0  0  0  0  0  0  0  0  0  0  0
   -3.5430   24.5520  -29.0400 C   0  0  0  0  0  0  0  0  0  0  0  0
   -3.7030   24.4920  -30.4460 O   0  0  0  0  0  0  0  0  0  0  0  0
   -5.0040   24.8980  -30.8180 C   0  0  0  0  0  0  0  0  0  0  0  0
   -5.6800   23.7620  -31.5850 C   0  0  0  0  0  0  0  0  0  0  0  0
   -5.1040   22.4700  -31.2090 N   0  0  0  0  0  0  0  0  0  0  0  0
   -5.4140   21.2520  -31.9120 C   0  0  0  0  0  0  0  0  0  0  0  0
   -4.3850   20.5080  -32.4830 C   0  0  0  0  0  0  0  0  0  0  0  0
   -4.6680   19.3520  -33.1950 C   0  0  0  0  0  0  0  0  0  0  0  0
   -5.9560   18.9240  -33.3920 N   0  0  0  0  0  0  0  0  0  0  0  0
   -6.1840   17.7510  -34.2830 C   0  0  0  0  0  0  0  0  0  0  0  0
   -5.0220   17.5090  -35.2690 C   0  0  0  0  0  0  0  0  0  0  0  0
   -6.4670   16.4980  -33.4510 C   0  0  0  0  0  0  0  0  0  0  0  0
   -6.9910   19.5650  -32.7290 C   0  0  0  0  0  0  0  0  0  0  0  0
   -8.3140   19.0510  -32.7140 C   0  0  0  0  0  0  0  0  0  0  0  0
   -9.3530   19.7510  -32.1020 C   0  0  0  0  0  0  0  0  0  0  0  0
   -9.1060   20.9700  -31.4820 C   0  0  0  0  0  0  0  0  0  0  0  0
   -7.8120   21.4800  -31.4320 C   0  0  0  0  0  0  0  0  0  0  0  0
   -6.7380   20.7750  -32.0140 C   0  0  0  0  0  0  0  0  0  0  0  0
   -0.9226   20.3196  -30.1491 H   0  0  0  0  0  0  0  0  0  0  0  0
   -1.6840   19.6927  -31.6504 H   0  0  0  0  0  0  0  0  0  0  0  0
    0.0506   20.1596  -31.6504 H   0  0  0  0  0  0  0  0  0  0  0  0
   -0.4228   22.3616  -31.9643 H   0  0  0  0  0  0  0  0  0  0  0  0
   -2.0554   21.7701  -32.4687 H   0  0  0  0  0  0  0  0  0  0  0  0
   -1.6930   23.5550  -30.5760 H   0  0  0  0  0  0  0  0  0  0  0  0
   -2.9830   22.4350  -30.5780 H   0  0  0  0  0  0  0  0  0  0  0  0
   -0.9616   21.0334  -29.4231 H   0  0  0  0  0  0  0  0  0  0  0  0
   -0.7648   22.7194  -28.7943 H   0  0  0  0  0  0  0  0  0  0  0  0
   -2.6718   20.7105  -27.9880 H   0  0  0  0  0  0  0  0  0  0  0  0
   -2.4525   22.3766  -27.3542 H   0  0  0  0  0  0  0  0  0  0  0  0
   -5.3455   23.5006  -28.4650 H   0  0  0  0  0  0  0  0  0  0  0  0
   -4.0190   23.4274  -27.2539 H   0  0  0  0  0  0  0  0  0  0  0  0
   -3.9564   25.5043  -28.6765 H   0  0  0  0  0  0  0  0  0  0  0  0
   -2.4686   24.4721  -28.8181 H   0  0  0  0  0  0  0  0  0  0  0  0
   -5.5887   25.1333  -29.9165 H   0  0  0  0  0  0  0  0  0  0  0  0
   -4.9459   25.7931  -31.4547 H   0  0  0  0  0  0  0  0  0  0  0  0
   -6.7553   23.7593  -31.3530 H   0  0  0  0  0  0  0  0  0  0  0  0
   -5.5226   23.9196  -32.6622 H   0  0  0  0  0  0  0  0  0  0  0  0
   -4.4620   22.4410  -30.3850 H   0  0  0  0  0  0  0  0  0  0  0  0
   -3.3421   20.8388  -32.3688 H   0  0  0  0  0  0  0  0  0  0  0  0
   -3.8380   18.7632  -33.6125 H   0  0  0  0  0  0  0  0  0  0  0  0
   -7.0665   17.9818  -34.8978 H   0  0  0  0  0  0  0  0  0  0  0  0
   -4.0971   17.3164  -34.7056 H   0  0  0  0  0  0  0  0  0  0  0  0
   -5.2534   16.6398  -35.9022 H   0  0  0  0  0  0  0  0  0  0  0  0
   -4.8871   18.3983  -35.9022 H   0  0  0  0  0  0  0  0  0  0  0  0
   -6.4106   16.7477  -32.3812 H   0  0  0  0  0  0  0  0  0  0  0  0
   -7.4730   16.1207  -33.6869 H   0  0  0  0  0  0  0  0  0  0  0  0
   -5.7208   15.7250  -33.6869 H   0  0  0  0  0  0  0  0  0  0  0  0
   -8.5233   18.0834  -33.1936 H   0  0  0  0  0  0  0  0  0  0  0  0
  -10.3720   19.3368  -32.1099 H   0  0  0  0  0  0  0  0  0  0  0  0
   -9.9355   21.5333  -31.0296 H   0  0  0  0  0  0  0  0  0  0  0  0
   -7.6250   22.4426  -30.9336 H   0  0  0  0  0  0  0  0  0  0  0  0
  1  2  1  0
  2  3  1  0
  3  4  1  0
  4  5  1  0
  5  6  1  0
  6  7  1  0
  7  8  1  0
  8  9  1  0
  9 10  1  0
 10 11  1  0
 11 12  1  0
 12 13  1  0
 13 14  2  0
 14 15  1  0
 15 16  2  0
 16 17  1  0
 17 18  1  0
 17 19  1  0
 16 20  1  0
 20 21  2  0
 21 22  1  0
 22 23  2  0
 23 24  1  0
 24 25  2  0
 25 13  1  0
 25 20  1  0
  1 26  1  0
  1 27  1  0
  1 28  1  0
  2 29  1  0
  2 30  1  0
  3 31  1  0
  3 32  1  0
  4 33  1  0
  4 34  1  0
  5 35  1  0
  5 36  1  0
  7 37  1  0
  7 38  1  0
  8 39  1  0
  8 40  1  0
 10 41  1  0
 10 42  1  0
 11 43  1  0
 11 44  1  0
 12 45  1  0
 14 46  1  0
 15 47  1  0
 17 48  1  0
 18 49  1  0
 18 50  1  0
 18 51  1  0
 19 52  1  0
 19 53  1  0
 19 54  1  0
 21 55  1  0
 22 56  1  0
 23 57  1  0
 24 58  1  0
M  CHG  2   3   1  16   1
M  END
>  <UniqueID>  (28) 
28

>  <SMILES>  (28) 
CC[NH2+]CCOCCOCCNc1cc[n+](C(C)C)c2ccccc12

>  <Energy>  (28) 
60.7774870076523

>  <Genealogy>  (28) 
CC[NH2+]CCOCCOCCNc1cc[n+](C(C)C)c2ccccc12 (protonated)
CC[NH2+]CCOCCOCCNc1cc[n+](C(C)C)c2ccccc12 (3D coordinates assigned)
CC[NH2+]CCOCCOCCNc1cc[n+](C(C)C)c2ccccc12 (optimized conformer: 60.7774870076523 kcal/mol)

>  <smiles>  (28) 
CCNCCOCCOCCNc1cc[n+](C(C)C)c2ccccc12

>  <score_type>  (28) 
oracle

>  <origin>  (28) 
adg

>  <m_score__min__energy>  (28) 
-7.6200000000000001

>  <m_primary>  (28) 
energy

$$$$
28:0
     RDKit          3D

 68 70  0  0  0  0  0  0  0  0999 V2000
   -2.8030   23.5100  -29.7580 C   0  0  0  0  0  0  0  0  0  0  0  0
   -1.5220   22.7310  -30.0800 C   0  0  0  0  0  0  0  0  0  0  0  0
   -1.6860   21.2590  -29.9540 N   0  0  0  0  0  0  0  0  0  0  0  0
   -2.9490   20.8600  -29.2640 C   0  0  0  0  0  0  0  0  0  0  0  0
   -2.7840   20.4070  -27.8020 C   0  0  0  0  0  0  0  0  0  0  0  0
   -0.4720   20.6630  -29.3260 C   0  0  0  0  0  0  0  0  0  0  0  0
   -0.1980   19.2190  -29.7790 C   0  0  0  0  0  0  0  0  0  0  0  0
   -0.9880   18.9180  -30.9140 O   0  0  0  0  0  0  0  0  0  0  0  0
   -0.1690   18.5420  -32.0060 C   0  0  0  0  0  0  0  0  0  0  0  0
    0.1230   19.7530  -32.8960 C   0  0  0  0  0  0  0  0  0  0  0  0
   -0.6710   20.8540  -32.4970 O   0  0  0  0  0  0  0  0  0  0  0  0
   -1.2410   21.4890  -33.6230 C   0  0  0  0  0  0  0  0  0  0  0  0
   -2.7580   21.5400  -33.4670 C   0  0  0  0  0  0  0  0  0  0  0  0
   -3.2370   20.4380  -32.6310 N   0  0  0  0  0  0  0  0  0  0  0  0
   -4.6280   20.0920  -32.6170 C   0  0  0  0  0  0  0  0  0  0  0  0
   -5.5720   21.0710  -32.2670 C   0  0  0  0  0  0  0  0  0  0  0  0
   -5.1710   22.4030  -32.0180 C   0  0  0  0  0  0  0  0  0  0  0  0
   -6.1120   23.3870  -31.7220 C   0  0  0  0  0  0  0  0  0  0  0  0
   -7.4630   23.0670  -31.6820 C   0  0  0  0  0  0  0  0  0  0  0  0
   -7.8790   21.7550  -31.9070 C   0  0  0  0  0  0  0  0  0  0  0  0
   -6.9410   20.7220  -32.1710 C   0  0  0  0  0  0  0  0  0  0  0  0
   -7.3330   19.4090  -32.3420 N   0  0  0  0  0  0  0  0  0  0  0  0
   -8.6930   18.9890  -31.9390 C   0  0  0  0  0  0  0  0  0  0  0  0
   -6.4500   18.4860  -32.8730 C   0  0  0  0  0  0  0  0  0  0  0  0
   -6.8960   17.2190  -33.3210 C   0  0  0  0  0  0  0  0  0  0  0  0
   -6.0060   16.2730  -33.8100 C   0  0  0  0  0  0  0  0  0  0  0  0
   -4.6530   16.5600  -33.8940 C   0  0  0  0  0  0  0  0  0  0  0  0
   -4.1620   17.8200  -33.5120 C   0  0  0  0  0  0  0  0  0  0  0  0
   -2.7960   18.1190  -33.6560 O   0  0  0  0  0  0  0  0  0  0  0  0
   -1.9130   17.5040  -34.5880 C   0  0  0  0  0  0  0  0  0  0  0  0
   -5.0630   18.7990  -32.9970 C   0  0  0  0  0  0  0  0  0  0  0  0
   -2.9232   23.5831  -28.6670 H   0  0  0  0  0  0  0  0  0  0  0  0
   -2.7357   24.5202  -30.1880 H   0  0  0  0  0  0  0  0  0  0  0  0
   -3.6690   22.9855  -30.1880 H   0  0  0  0  0  0  0  0  0  0  0  0
   -1.2220   22.9625  -31.1127 H   0  0  0  0  0  0  0  0  0  0  0  0
   -0.7591   23.0392  -29.3499 H   0  0  0  0  0  0  0  0  0  0  0  0
   -1.7490   20.8880  -30.9330 H   0  0  0  0  0  0  0  0  0  0  0  0
   -3.6311   21.7229  -29.2777 H   0  0  0  0  0  0  0  0  0  0  0  0
   -3.3327   19.9868  -29.8120 H   0  0  0  0  0  0  0  0  0  0  0  0
   -3.0818   21.2245  -27.1290 H   0  0  0  0  0  0  0  0  0  0  0  0
   -3.4201   19.5290  -27.6162 H   0  0  0  0  0  0  0  0  0  0  0  0
   -1.7323   20.1438  -27.6162 H   0  0  0  0  0  0  0  0  0  0  0  0
    0.3976   21.2826  -29.5905 H   0  0  0  0  0  0  0  0  0  0  0  0
   -0.6474   20.6356  -28.2404 H   0  0  0  0  0  0  0  0  0  0  0  0
    0.8663   19.1117  -30.0352 H   0  0  0  0  0  0  0  0  0  0  0  0
   -0.4527   18.5264  -28.9633 H   0  0  0  0  0  0  0  0  0  0  0  0
    0.7793   18.1354  -31.6247 H   0  0  0  0  0  0  0  0  0  0  0  0
   -0.6948   17.7806  -32.6008 H   0  0  0  0  0  0  0  0  0  0  0  0
    1.1863   20.0208  -32.8082 H   0  0  0  0  0  0  0  0  0  0  0  0
   -0.1145   19.4979  -33.9393 H   0  0  0  0  0  0  0  0  0  0  0  0
   -0.8466   22.5126  -33.7050 H   0  0  0  0  0  0  0  0  0  0  0  0
   -0.9854   20.9227  -34.5307 H   0  0  0  0  0  0  0  0  0  0  0  0
   -3.0396   22.4950  -32.9993 H   0  0  0  0  0  0  0  0  0  0  0  0
   -3.2159   21.4488  -34.4630 H   0  0  0  0  0  0  0  0  0  0  0  0
   -2.5610   19.7850  -32.1740 H   0  0  0  0  0  0  0  0  0  0  0  0
   -4.1037   22.6660  -32.0583 H   0  0  0  0  0  0  0  0  0  0  0  0
   -5.7849   24.4176  -31.5199 H   0  0  0  0  0  0  0  0  0  0  0  0
   -8.2065   23.8501  -31.4724 H   0  0  0  0  0  0  0  0  0  0  0  0
   -8.9524   21.5162  -31.8795 H   0  0  0  0  0  0  0  0  0  0  0  0
   -8.7601   18.9683  -30.8412 H   0  0  0  0  0  0  0  0  0  0  0  0
   -9.4301   19.7014  -32.3380 H   0  0  0  0  0  0  0  0  0  0  0  0
   -8.9000   17.9851  -32.3380 H   0  0  0  0  0  0  0  0  0  0  0  0
   -7.9689   16.9798  -33.2807 H   0  0  0  0  0  0  0  0  0  0  0  0
   -6.3770   15.2891  -34.1330 H   0  0  0  0  0  0  0  0  0  0  0  0
   -3.9560   15.7935  -34.2636 H   0  0  0  0  0  0  0  0  0  0  0  0
   -1.1284   16.9575  -34.0441 H   0  0  0  0  0  0  0  0  0  0  0  0
   -2.4775   16.8026  -35.2200 H   0  0  0  0  0  0  0  0  0  0  0  0
   -1.4508   18.2766  -35.2200 H   0  0  0  0  0  0  0  0  0  0  0  0
  1  2  1  0
  2  3  1  0
  3  4  1  0
  4  5  1  0
  3  6  1  0
  6  7  1  0
  7  8  1  0
  8  9  1  0
  9 10  1  0
 10 11  1  0
 11 12  1  0
 12 13  1  0
 13 14  1  0
 14 15  1  0
 15 16  2  0
 16 17  1  0
 17 18  2  0
 18 19  1  0
 19 20  2  0
 20 21  1  0
 21 22  2  0
 22 23  1  0
 22 24  1  0
 24 25  2  0
 25 26  1  0
 26 27  2  0
 27 28  1  0
 28 29  1  0
 29 30  1  0
 28 31  2  0
 31 15  1  0
 21 16  1  0
 31 24  1  0
  1 32  1  0
  1 33  1  0
  1 34  1  0
  2 35  1  0
  2 36  1  0
  3 37  1  0
  4 38  1  0
  4 39  1  0
  5 40  1  0
  5 41  1  0
  5 42  1  0
  6 43  1  0
  6 44  1  0
  7 45  1  0
  7 46  1  0
  9 47  1  0
  9 48  1  0
 10 49  1  0
 10 50  1  0
 12 51  1  0
 12 52  1  0
 13 53  1  0
 13 54  1  0
 14 55  1  0
 17 56  1  0
 18 57  1  0
 19 58  1  0
 20 59  1  0
 23 60  1  0
 23 61  1  0
 23 62  1  0
 25 63  1  0
 26 64  1  0
 27 65  1  0
 30 66  1  0
 30 67  1  0
 30 68  1  0
M  CHG  2   3   1  22   1
M  END
>  <UniqueID>  (29) 
29

>  <SMILES>  (29) 
CC[NH+](CC)CCOCCOCCNc1c2ccccc2[n+](C)c2cccc(OC)c12

>  <Energy>  (29) 
100.99512407337795

>  <Genealogy>  (29) 
CC[NH+](CC)CCOCCOCCNc1c2ccccc2[n+](C)c2cccc(OC)c12 (protonated)
CC[NH+](CC)CCOCCOCCNc1c2ccccc2[n+](C)c2cccc(OC)c12 (3D coordinates assigned)
CC[NH+](CC)CCOCCOCCNc1c2ccccc2[n+](C)c2cccc(OC)c12 (optimized conformer: 100.99512407337795 kcal/mol)

>  <smiles>  (29) 
CCN(CC)CCOCCOCCNc1c2ccccc2[n+](C)c2cccc(OC)c12

>  <score_type>  (29) 
oracle

>  <origin>  (29) 
adg

>  <m_score__min__energy>  (29) 
-7.9000000000000004

>  <m_primary>  (29) 
energy

$$$$
29:0
     RDKit          3D

 60 63  0  0  0  0  0  0  0  0999 V2000
   -1.9500   24.1920  -28.9700 C   0  0  0  0  0  0  0  0  0  0  0  0
   -2.1860   22.6890  -29.1780 C   0  0  0  0  0  0  0  0  0  0  0  0
   -1.9410   22.2220  -30.5670 N   0  0  0  0  0  0  0  0  0  0  0  0
   -1.4320   20.8330  -30.6530 C   0  0  0  0  0  0  0  0  0  0  0  0
   -0.1190   20.7410  -31.4350 C   0  0  0  0  0  0  0  0  0  0  0  0
   -3.1310   22.4170  -31.4280 C   0  0  0  0  0  0  0  0  0  0  0  0
   -3.1560   21.4070  -32.5900 C   0  0  0  0  0  0  0  0  0  0  0  0
   -4.4840   21.2980  -33.2000 N   0  0  0  0  0  0  0  0  0  0  0  0
   -5.0890   20.0050  -33.3580 C   0  0  0  0  0  0  0  0  0  0  0  0
   -4.2960   18.9310  -33.8030 C   0  0  0  0  0  0  0  0  0  0  0  0
   -2.9490   19.1360  -34.1770 C   0  0  0  0  0  0  0  0  0  0  0  0
   -2.1470   18.0670  -34.5640 C   0  0  0  0  0  0  0  0  0  0  0  0
   -2.6610   16.7770  -34.5710 C   0  0  0  0  0  0  0  0  0  0  0  0
   -3.9910   16.5510  -34.2140 C   0  0  0  0  0  0  0  0  0  0  0  0
   -4.8470   17.6250  -33.8550 C   0  0  0  0  0  0  0  0  0  0  0  0
   -6.1730   17.4190  -33.5310 N   0  0  0  0  0  0  0  0  0  0  0  0
   -6.8140   16.1200  -33.8400 C   0  0  0  0  0  0  0  0  0  0  0  0
   -6.9140   18.4340  -32.9530 C   0  0  0  0  0  0  0  0  0  0  0  0
   -8.1690   18.1760  -32.3510 C   0  0  0  0  0  0  0  0  0  0  0  0
   -8.9550   19.2080  -31.8560 C   0  0  0  0  0  0  0  0  0  0  0  0
   -8.5230   20.5230  -31.9530 C   0  0  0  0  0  0  0  0  0  0  0  0
   -7.2630   20.8250  -32.4910 C   0  0  0  0  0  0  0  0  0  0  0  0
   -6.8840   22.1670  -32.6600 O   0  0  0  0  0  0  0  0  0  0  0  0
   -6.3780   22.9930  -31.6480 C   0  0  0  0  0  0  0  0  0  0  0  0
   -6.1160   24.3550  -31.8750 C   0  0  0  0  0  0  0  0  0  0  0  0
   -5.6290   25.1590  -30.8400 C   0  0  0  0  0  0  0  0  0  0  0  0
   -5.4070   24.6090  -29.5730 C   0  0  0  0  0  0  0  0  0  0  0  0
   -5.6770   23.2580  -29.3400 C   0  0  0  0  0  0  0  0  0  0  0  0
   -6.1680   22.4540  -30.3730 C   0  0  0  0  0  0  0  0  0  0  0  0
   -6.4170   19.7700  -32.9370 C   0  0  0  0  0  0  0  0  0  0  0  0
   -1.9154   24.4121  -27.8928 H   0  0  0  0  0  0  0  0  0  0  0  0
   -0.9955   24.4810  -29.4341 H   0  0  0  0  0  0  0  0  0  0  0  0
   -2.7700   24.7596  -29.4341 H   0  0  0  0  0  0  0  0  0  0  0  0
   -1.5134   22.1375  -28.5046 H   0  0  0  0  0  0  0  0  0  0  0  0
   -3.2488   22.5026  -28.9640 H   0  0  0  0  0  0  0  0  0  0  0  0
   -1.2637   20.4545  -29.6340 H   0  0  0  0  0  0  0  0  0  0  0  0
   -2.1834   20.2324  -31.1865 H   0  0  0  0  0  0  0  0  0  0  0  0
    0.7239   20.6819  -30.7307 H   0  0  0  0  0  0  0  0  0  0  0  0
   -0.1315   19.8415  -32.0681 H   0  0  0  0  0  0  0  0  0  0  0  0
   -0.0060   21.6334  -32.0681 H   0  0  0  0  0  0  0  0  0  0  0  0
   -4.0381   22.2853  -30.8199 H   0  0  0  0  0  0  0  0  0  0  0  0
   -3.0888   23.4311  -31.8520 H   0  0  0  0  0  0  0  0  0  0  0  0
   -2.4390   21.7327  -33.3580 H   0  0  0  0  0  0  0  0  0  0  0  0
   -2.8881   20.4198  -32.1853 H   0  0  0  0  0  0  0  0  0  0  0  0
   -4.8650   22.0790  -33.7810 H   0  0  0  0  0  0  0  0  0  0  0  0
   -2.5295   20.1527  -34.1620 H   0  0  0  0  0  0  0  0  0  0  0  0
   -1.1039   18.2440  -34.8650 H   0  0  0  0  0  0  0  0  0  0  0  0
   -2.0186   15.9317  -34.8585 H   0  0  0  0  0  0  0  0  0  0  0  0
   -4.3827   15.5231  -34.2107 H   0  0  0  0  0  0  0  0  0  0  0  0
   -7.0684   15.6044  -32.9022 H   0  0  0  0  0  0  0  0  0  0  0  0
   -7.7302   16.2929  -34.4236 H   0  0  0  0  0  0  0  0  0  0  0  0
   -6.1194   15.4980  -34.4236 H   0  0  0  0  0  0  0  0  0  0  0  0
   -8.5280   17.1391  -32.2740 H   0  0  0  0  0  0  0  0  0  0  0  0
   -9.9233   18.9824  -31.3854 H   0  0  0  0  0  0  0  0  0  0  0  0
   -9.1753   21.3373  -31.6044 H   0  0  0  0  0  0  0  0  0  0  0  0
   -6.2946   24.7896  -32.8696 H   0  0  0  0  0  0  0  0  0  0  0  0
   -5.4205   26.2236  -31.0219 H   0  0  0  0  0  0  0  0  0  0  0  0
   -5.0197   25.2404  -28.7598 H   0  0  0  0  0  0  0  0  0  0  0  0
   -5.5031   22.8267  -28.3431 H   0  0  0  0  0  0  0  0  0  0  0  0
   -6.3903   21.3935  -30.1833 H   0  0  0  0  0  0  0  0  0  0  0  0
  1  2  1  0
  2  3  1  0
  3  4  1  0
  4  5  1  0
  3  6  1  0
  6  7  1  0
  7  8  1  0
  8  9  1  0
  9 10  2  0
 10 11  1  0
 11 12  2  0
 12 13  1  0
 13 14  2  0
 14 15  1  0
 15 16  2  0
 16 17  1  0
 16 18  1  0
 18 19  2  0
 19 20  1  0
 20 21  2  0
 21 22  1  0
 22 23  1  0
 23 24  1  0
 24 25  2  0
 25 26  1  0
 26 27  2  0
 27 28  1  0
 28 29  2  0
 22 30  2  0
 30  9  1  0
 15 10  1  0
 30 18  1  0
 29 24  1  0
  1 31  1  0
  1 32  1  0
  1 33  1  0
  2 34  1  0
  2 35  1  0
  4 36  1  0
  4 37  1  0
  5 38  1  0
  5 39  1  0
  5 40  1  0
  6 41  1  0
  6 42  1  0
  7 43  1  0
  7 44  1  0
  8 45  1  0
 11 46  1  0
 12 47  1  0
 13 48  1  0
 14 49  1  0
 17 50  1  0
 17 51  1  0
 17 52  1  0
 19 53  1  0
 20 54  1  0
 21 55  1  0
 25 56  1  0
 26 57  1  0
 27 58  1  0
 28 59  1  0
 29 60  1  0
M  CHG  1  16   1
M  END
>  <UniqueID>  (30) 
30

>  <SMILES>  (30) 
CCN(CC)CCNc1c2ccccc2[n+](C)c2cccc(Oc3ccccc3)c12

>  <Energy>  (30) 
99.99260436420316

>  <Genealogy>  (30) 
CCN(CC)CCNc1c2ccccc2[n+](C)c2cccc(Oc3ccccc3)c12 (3D coordinates assigned)
CCN(CC)CCNc1c2ccccc2[n+](C)c2cccc(Oc3ccccc3)c12 (optimized conformer: 99.99260436420316 kcal/mol)

>  <smiles>  (30) 
CCN(CC)CCNc1c2ccccc2[n+](C)c2cccc(Oc3ccccc3)c12

>  <score_type>  (30) 
oracle

>  <origin>  (30) 
adg

>  <m_score__min__energy>  (30) 
-9.2100000000000009

>  <m_primary>  (30) 
energy

$$$$
30:0
     RDKit          3D

 48 51  0  0  0  0  0  0  0  0999 V2000
   -6.3750   24.9320  -31.0980 C   0  0  0  0  0  0  0  0  0  0  0  0
   -5.1890   25.6440  -30.4570 C   0  0  0  0  0  0  0  0  0  0  0  0
   -4.2890   24.6590  -29.7830 C   0  0  0  0  0  0  0  0  0  0  0  0
   -4.7380   23.5050  -29.2200 N   0  0  0  0  0  0  0  0  0  0  0  0
   -3.6030   22.9790  -28.7300 C   0  0  0  0  0  0  0  0  0  0  0  0
   -3.4460   21.7810  -28.0430 C   0  0  0  0  0  0  0  0  0  0  0  0
   -2.1460   21.4100  -27.6240 C   0  0  0  0  0  0  0  0  0  0  0  0
   -1.0470   22.2900  -27.8850 C   0  0  0  0  0  0  0  0  0  0  0  0
   -1.2590   23.4940  -28.5960 C   0  0  0  0  0  0  0  0  0  0  0  0
   -2.5530   23.7960  -28.9950 C   0  0  0  0  0  0  0  0  0  0  0  0
   -2.9860   24.8400  -29.6490 O   0  0  0  0  0  0  0  0  0  0  0  0
    0.3490   21.9280  -27.4690 C   0  0  0  0  0  0  0  0  0  0  0  0
    0.8940   20.7660  -28.3160 C   0  0  0  0  0  0  0  0  0  0  0  0
    0.0350   19.5570  -28.3300 N   0  0  0  0  0  0  0  0  0  0  0  0
   -0.7710   19.3730  -29.5560 C   0  0  0  0  0  0  0  0  0  0  0  0
   -0.0030   19.8360  -30.7960 C   0  0  0  0  0  0  0  0  0  0  0  0
   -0.3630   21.5850  -31.2060 S   0  0  0  0  0  0  0  0  0  0  0  0
   -1.9840   21.2630  -31.9130 C   0  0  0  0  0  0  0  0  0  0  0  0
   -3.1290   21.3660  -31.2130 N   0  0  0  0  0  0  0  0  0  0  0  0
   -4.1150   21.0470  -32.0410 N   0  0  0  0  0  0  0  0  0  0  0  0
   -3.5560   20.7460  -33.2300 C   0  0  0  0  0  0  0  0  0  0  0  0
   -2.2190   20.8710  -33.1790 N   0  0  0  0  0  0  0  0  0  0  0  0
   -1.2720   20.5280  -34.2340 C   0  0  0  0  0  0  0  0  0  0  0  0
   -0.6910   19.2870  -27.0710 C   0  0  0  0  0  0  0  0  0  0  0  0
   -1.9940   20.1060  -26.8580 C   0  0  0  0  0  0  0  0  0  0  0  0
   -7.0341   24.5363  -30.3112 H   0  0  0  0  0  0  0  0  0  0  0  0
   -6.9356   25.6430  -31.7226 H   0  0  0  0  0  0  0  0  0  0  0  0
   -6.0110   24.1029  -31.7226 H   0  0  0  0  0  0  0  0  0  0  0  0
   -4.6235   26.1777  -31.2351 H   0  0  0  0  0  0  0  0  0  0  0  0
   -5.5643   26.3549  -29.7061 H   0  0  0  0  0  0  0  0  0  0  0  0
   -4.3116   21.1365  -27.8300 H   0  0  0  0  0  0  0  0  0  0  0  0
   -0.4229   24.1708  -28.8258 H   0  0  0  0  0  0  0  0  0  0  0  0
    1.0013   22.8042  -27.5986 H   0  0  0  0  0  0  0  0  0  0  0  0
    0.3296   21.6137  -26.4150 H   0  0  0  0  0  0  0  0  0  0  0  0
    1.0062   21.1193  -29.3517 H   0  0  0  0  0  0  0  0  0  0  0  0
    1.8476   20.4659  -27.8572 H   0  0  0  0  0  0  0  0  0  0  0  0
   -1.0203   18.3072  -29.6652 H   0  0  0  0  0  0  0  0  0  0  0  0
   -1.6857   19.9773  -29.4662 H   0  0  0  0  0  0  0  0  0  0  0  0
    1.0754   19.7293  -30.6073 H   0  0  0  0  0  0  0  0  0  0  0  0
   -0.3192   19.2136  -31.6461 H   0  0  0  0  0  0  0  0  0  0  0  0
   -4.1194   20.4388  -34.1234 H   0  0  0  0  0  0  0  0  0  0  0  0
   -0.3286   20.1863  -33.7831 H   0  0  0  0  0  0  0  0  0  0  0  0
   -1.6924   19.7250  -34.8573 H   0  0  0  0  0  0  0  0  0  0  0  0
   -1.0807   21.4140  -34.8573 H   0  0  0  0  0  0  0  0  0  0  0  0
   -0.9560   18.2195  -27.0555 H   0  0  0  0  0  0  0  0  0  0  0  0
   -0.0106   19.5884  -26.2609 H   0  0  0  0  0  0  0  0  0  0  0  0
   -2.8377   19.4593  -27.1409 H   0  0  0  0  0  0  0  0  0  0  0  0
   -1.9607   20.4086  -25.8010 H   0  0  0  0  0  0  0  0  0  0  0  0
  1  2  1  0
  2  3  1  0
  3  4  2  0
  4  5  1  0
  5  6  2  0
  6  7  1  0
  7  8  2  0
  8  9  1  0
  9 10  2  0
 10 11  1  0
  8 12  1  0
 12 13  1  0
 13 14  1  0
 14 15  1  0
 15 16  1  0
 16 17  1  0
 17 18  1  0
 18 19  2  0
 19 20  1  0
 20 21  2  0
 21 22  1  0
 22 23  1  0
 14 24  1  0
 24 25  1  0
 11  3  1  0
 22 18  1  0
 10  5  1  0
 25  7  1  0
  1 26  1  0
  1 27  1  0
  1 28  1  0
  2 29  1  0
  2 30  1  0
  6 31  1  0
  9 32  1  0
 12 33  1  0
 12 34  1  0
 13 35  1  0
 13 36  1  0
 15 37  1  0
 15 38  1  0
 16 39  1  0
 16 40  1  0
 21 41  1  0
 23 42  1  0
 23 43  1  0
 23 44  1  0
 24 45  1  0
 24 46  1  0
 25 47  1  0
 25 48  1  0
M  END
>  <UniqueID>  (31) 
31

>  <SMILES>  (31) 
CCc1nc2cc3c(cc2o1)CCN(CCSc1nncn1C)CC3

>  <Energy>  (31) 
129.54947530287038

>  <Genealogy>  (31) 
CCc1nc2cc3c(cc2o1)CCN(CCSc1nncn1C)CC3 (3D coordinates assigned)
CCc1nc2cc3c(cc2o1)CCN(CCSc1nncn1C)CC3 (nonaromatic ring conformer: 129.54947530287038 kcal/mol)

>  <smiles>  (31) 
CCc1nc2cc3c(cc2o1)CCN(CCSc1nncn1C)CC3

>  <score_type>  (31) 
oracle

>  <origin>  (31) 
adg

>  <m_score__min__energy>  (31) 
-6.7300000000000004

>  <m_primary>  (31) 
energy

$$$$
31:0
     RDKit          3D

 35 38  0  0  0  0  0  0  0  0999 V2000
   -7.1830   18.9830  -32.1930 C   0  0  0  0  0  0  0  0  0  0  0  0
   -8.1580   20.0670  -32.1330 N   0  0  0  0  0  0  0  0  0  0  0  0
   -9.4430   20.0120  -32.5380 C   0  0  0  0  0  0  0  0  0  0  0  0
  -10.0790   21.1780  -32.3120 N   0  0  0  0  0  0  0  0  0  0  0  0
   -9.1890   21.9880  -31.7610 N   0  0  0  0  0  0  0  0  0  0  0  0
   -8.0210   21.3260  -31.6620 C   0  0  0  0  0  0  0  0  0  0  0  0
   -6.7890   21.9150  -31.0930 C   0  0  0  0  0  0  0  0  0  0  0  0
   -6.8500   22.8650  -30.0620 C   0  0  0  0  0  0  0  0  0  0  0  0
   -5.6760   23.4040  -29.5250 C   0  0  0  0  0  0  0  0  0  0  0  0
   -4.4180   22.9950  -30.0020 C   0  0  0  0  0  0  0  0  0  0  0  0
   -3.1720   23.5680  -29.4320 C   0  0  0  0  0  0  0  0  0  0  0  0
   -1.9060   22.9780  -29.4920 C   0  0  0  0  0  0  0  0  0  0  0  0
   -1.0720   23.8580  -28.8400 C   0  0  0  0  0  0  0  0  0  0  0  0
    0.2940   23.8090  -28.5830 C   0  0  0  0  0  0  0  0  0  0  0  0
    0.8580   24.8500  -27.9030 N   0  0  0  0  0  0  0  0  0  0  0  0
    0.1200   25.9230  -27.4750 C   0  0  0  0  0  0  0  0  0  0  0  0
   -1.2620   25.9840  -27.7290 C   0  0  0  0  0  0  0  0  0  0  0  0
   -1.8270   24.9150  -28.4220 C   0  0  0  0  0  0  0  0  0  0  0  0
   -3.1130   24.7550  -28.7730 N   0  0  0  0  0  0  0  0  0  0  0  0
   -4.3620   22.0280  -31.0210 C   0  0  0  0  0  0  0  0  0  0  0  0
   -5.5350   21.4900  -31.5570 C   0  0  0  0  0  0  0  0  0  0  0  0
   -6.9095   18.6789  -31.1719 H   0  0  0  0  0  0  0  0  0  0  0  0
   -7.6200   18.1258  -32.7262 H   0  0  0  0  0  0  0  0  0  0  0  0
   -6.2845   19.3271  -32.7262 H   0  0  0  0  0  0  0  0  0  0  0  0
   -9.9121   19.1280  -32.9946 H   0  0  0  0  0  0  0  0  0  0  0  0
   -9.3820   22.9750  -31.4780 H   0  0  0  0  0  0  0  0  0  0  0  0
   -7.8272   23.1879  -29.6736 H   0  0  0  0  0  0  0  0  0  0  0  0
   -5.7375   24.1541  -28.7228 H   0  0  0  0  0  0  0  0  0  0  0  0
   -1.6353   22.0194  -29.9586 H   0  0  0  0  0  0  0  0  0  0  0  0
    0.9025   22.9561  -28.9180 H   0  0  0  0  0  0  0  0  0  0  0  0
    0.6119   26.7417  -26.9293 H   0  0  0  0  0  0  0  0  0  0  0  0
   -1.8701   26.8378  -27.3954 H   0  0  0  0  0  0  0  0  0  0  0  0
   -3.8910   25.4270  -28.5920 H   0  0  0  0  0  0  0  0  0  0  0  0
   -3.3856   21.6917  -31.3999 H   0  0  0  0  0  0  0  0  0  0  0  0
   -5.4748   20.7281  -32.3481 H   0  0  0  0  0  0  0  0  0  0  0  0
  1  2  1  0
  2  3  1  0
  3  4  2  0
  4  5  1  0
  5  6  2  0
  6  7  1  0
  7  8  2  0
  8  9  1  0
  9 10  2  0
 10 11  1  0
 11 12  2  0
 12 13  1  0
 13 14  2  0
 14 15  1  0
 15 16  2  0
 16 17  1  0
 17 18  2  0
 18 19  1  0
 10 20  1  0
 20 21  2  0
  6  2  1  0
 21  7  1  0
 19 11  1  0
 18 13  1  0
  1 22  1  0
  1 23  1  0
  1 24  1  0
  3 25  1  0
  5 26  1  0
  8 27  1  0
  9 28  1  0
 12 29  1  0
 14 30  1  0
 16 31  1  0
 17 32  1  0
 19 33  1  0
 20 34  1  0
 21 35  1  0
M  CHG  1   5   1
M  END
>  <UniqueID>  (32) 
32

>  <SMILES>  (32) 
Cn1cn[nH+]c1-c1ccc(-c2cc3cnccc3[nH]2)cc1

>  <Energy>  (32) 
115.5062943998299

>  <Genealogy>  (32) 
Cn1cn[nH+]c1-c1ccc(-c2cc3cnccc3[nH]2)cc1 (protonated)
Cn1cn[nH+]c1-c1ccc(-c2cc3cnccc3[nH]2)cc1 (3D coordinates assigned)
Cn1cn[nH+]c1-c1ccc(-c2cc3cnccc3[nH]2)cc1 (optimized conformer: 115.5062943998299 kcal/mol)

>  <smiles>  (32) 
Cn1cnnc1-c1ccc(-c2cc3cnccc3[nH]2)cc1

>  <score_type>  (32) 
oracle

>  <origin>  (32) 
adg

>  <m_score__min__energy>  (32) 
-7.1900000000000004

>  <m_primary>  (32) 
energy

$$$$
32:0
     RDKit          3D

 50 52  0  0  0  0  0  0  0  0999 V2000
   -6.0797   18.9185  -35.2972 H   0  0  0  0  0  0  0  0  0  0  0  0
   -5.7840   19.1350  -34.2600 C   0  0  0  0  0  0  0  0  0  0  0  0
   -4.5240   19.3660  -34.0190 N   0  0  0  0  0  0  0  0  0  0  0  0
   -3.9770   20.3460  -33.1240 C   0  0  0  0  0  0  0  0  0  0  0  0
   -2.7110   20.2160  -32.6310 N   0  0  0  0  0  0  0  0  0  0  0  0
   -2.1750   21.1170  -31.7690 C   0  0  0  0  0  0  0  0  0  0  0  0
   -1.1482   20.9800  -31.3991 H   0  0  0  0  0  0  0  0  0  0  0  0
   -2.9280   22.2210  -31.3500 C   0  0  0  0  0  0  0  0  0  0  0  0
   -2.3910   23.1730  -30.4730 C   0  0  0  0  0  0  0  0  0  0  0  0
   -1.3648   23.0534  -30.0952 H   0  0  0  0  0  0  0  0  0  0  0  0
   -3.1610   24.2820  -30.0740 C   0  0  0  0  0  0  0  0  0  0  0  0
   -2.6530   25.2730  -29.1690 N   0  0  0  0  0  0  0  0  0  0  0  0
   -1.6170   25.0880  -28.1980 C   0  0  0  0  0  0  0  0  0  0  0  0
   -0.4120   24.9890  -28.5510 O   0  0  0  0  0  0  0  0  0  0  0  0
   -1.9680   25.0140  -26.7450 C   0  0  0  0  0  0  0  0  0  0  0  0
   -2.6402   24.1603  -26.5739 H   0  0  0  0  0  0  0  0  0  0  0  0
   -2.4704   25.9448  -26.4428 H   0  0  0  0  0  0  0  0  0  0  0  0
   -0.7380   24.8390  -25.9460 N   0  0  0  0  0  0  0  0  0  0  0  0
   -0.2550   23.4390  -25.9080 C   0  0  0  0  0  0  0  0  0  0  0  0
    0.7300   23.3780  -26.3938 H   0  0  0  0  0  0  0  0  0  0  0  0
   -0.9679   22.7916  -26.4397 H   0  0  0  0  0  0  0  0  0  0  0  0
   -0.1360   22.9800  -24.4610 C   0  0  0  0  0  0  0  0  0  0  0  0
   -0.3547   23.8235  -23.7896 H   0  0  0  0  0  0  0  0  0  0  0  0
   -0.8531   22.1671  -24.2740 H   0  0  0  0  0  0  0  0  0  0  0  0
    0.8857   22.6179  -24.2740 H   0  0  0  0  0  0  0  0  0  0  0  0
   -0.8060   25.4740  -24.6090 C   0  0  0  0  0  0  0  0  0  0  0  0
   -1.5498   24.9322  -24.0063 H   0  0  0  0  0  0  0  0  0  0  0  0
    0.2058   25.4222  -24.1805 H   0  0  0  0  0  0  0  0  0  0  0  0
   -1.1990   26.9580  -24.6410 C   0  0  0  0  0  0  0  0  0  0  0  0
   -1.2984   27.3333  -23.6118 H   0  0  0  0  0  0  0  0  0  0  0  0
   -0.4219   27.5319  -25.1671 H   0  0  0  0  0  0  0  0  0  0  0  0
   -2.1583   27.0720  -25.1671 H   0  0  0  0  0  0  0  0  0  0  0  0
   -4.4850   24.3960  -30.5150 C   0  0  0  0  0  0  0  0  0  0  0  0
   -5.1035   25.2384  -30.1718 H   0  0  0  0  0  0  0  0  0  0  0  0
   -5.0270   23.4490  -31.3870 C   0  0  0  0  0  0  0  0  0  0  0  0
   -6.0643   23.5566  -31.7368 H   0  0  0  0  0  0  0  0  0  0  0  0
   -4.2540   22.3620  -31.8180 C   0  0  0  0  0  0  0  0  0  0  0  0
   -4.7790   21.4110  -32.7030 C   0  0  0  0  0  0  0  0  0  0  0  0
   -5.8142   21.5016  -33.0638 H   0  0  0  0  0  0  0  0  0  0  0  0
   -6.8420   19.1460  -33.2240 C   0  0  0  0  0  0  0  0  0  0  0  0
   -7.7520   20.2180  -33.1590 C   0  0  0  0  0  0  0  0  0  0  0  0
   -7.6863   21.0361  -33.8913 H   0  0  0  0  0  0  0  0  0  0  0  0
   -8.7390   20.2490  -32.1690 C   0  0  0  0  0  0  0  0  0  0  0  0
   -9.4612   21.0782  -32.1382 H   0  0  0  0  0  0  0  0  0  0  0  0
   -8.8080   19.2270  -31.2190 C   0  0  0  0  0  0  0  0  0  0  0  0
   -9.5888   19.2491  -30.4445 H   0  0  0  0  0  0  0  0  0  0  0  0
   -7.8870   18.1770  -31.2510 C   0  0  0  0  0  0  0  0  0  0  0  0
   -7.9371   17.3817  -30.4927 H   0  0  0  0  0  0  0  0  0  0  0  0
   -6.9000   18.1320  -32.2440 C   0  0  0  0  0  0  0  0  0  0  0  0
   -5.6770   16.6540  -32.2500 Br  0  0  0  0  0  0  0  0  0  0  0  0
  1  2  1  0
  2  3  2  0
  3  4  1  0
  4  5  2  0
  5  6  1  0
  6  7  1  0
  6  8  2  0
  8  9  1  0
  9 10  1  0
  9 11  2  0
 11 12  1  0
 12 13  1  0
 13 14  2  0
 13 15  1  0
 15 16  1  0
 15 17  1  0
 15 18  1  0
 18 19  1  0
 19 20  1  0
 19 21  1  0
 19 22  1  0
 22 23  1  0
 22 24  1  0
 22 25  1  0
 18 26  1  0
 26 27  1  0
 26 28  1  0
 26 29  1  0
 29 30  1  0
 29 31  1  0
 29 32  1  0
 11 33  1  0
 33 34  1  0
 33 35  2  0
 35 36  1  0
 35 37  1  0
 37 38  2  0
 38 39  1  0
  2 40  1  0
 40 41  2  0
 41 42  1  0
 41 43  1  0
 43 44  1  0
 43 45  2  0
 45 46  1  0
 45 47  1  0
 47 48  1  0
 47 49  2  0
 49 50  1  0
 38  4  1  0
 49 40  1  0
 37  8  1  0
M  CHG  1  12  -1
M  END
>  <UniqueID>  (33) 
33

>  <SMILES>  (33) 
CCN(CC)CC(=O)[N-]c1ccc2cc(/N=C\c3ccccc3Br)ncc2c1

>  <Energy>  (33) 
69.89968652817295

>  <Genealogy>  (33) 
CCN(CC)CC(=O)[N-]c1ccc2cc(N=Cc3ccccc3Br)ncc2c1 (protonated)
CCN(CC)CC(=O)[N-]c1ccc2cc(/N=C\c3ccccc3Br)ncc2c1 (cis-trans isomerization)
CCN(CC)CC(=O)[N-]c1ccc2cc(/N=C\c3ccccc3Br)ncc2c1 (3D coordinates assigned)
CCN(CC)CC(=O)[N-]c1ccc2cc(/N=C\c3ccccc3Br)ncc2c1 (optimized conformer: 69.89968652817295 kcal/mol)

>  <smiles>  (33) 
CCN(CC)CC(=O)Nc1ccc2cc(N=Cc3ccccc3Br)ncc2c1

>  <score_type>  (33) 
oracle

>  <origin>  (33) 
adg

>  <m_score__min__energy>  (33) 
-10.92

>  <m_primary>  (33) 
energy

$$$$
33:0
     RDKit          3D

 44 46  0  0  0  0  0  0  0  0999 V2000
   -1.1510   22.5980  -30.0790 C   0  0  0  0  0  0  0  0  0  0  0  0
   -2.2010   21.9140  -30.8950 C   0  0  0  0  0  0  0  0  0  0  0  0
   -3.2860   21.2860  -30.2710 C   0  0  0  0  0  0  0  0  0  0  0  0
   -4.2620   20.6660  -31.0540 C   0  0  0  0  0  0  0  0  0  0  0  0
   -4.1500   20.6750  -32.4510 C   0  0  0  0  0  0  0  0  0  0  0  0
   -5.2080   20.0410  -33.3160 C   0  0  0  0  0  0  0  0  0  0  0  0
   -6.4370   19.7930  -32.5380 N   0  0  0  0  0  0  0  0  0  0  0  0
   -6.6770   18.3400  -32.3500 C   0  0  0  0  0  0  0  0  0  0  0  0
   -8.1270   18.0360  -31.9200 C   0  0  0  0  0  0  0  0  0  0  0  0
   -8.7770   19.2810  -31.3130 C   0  0  0  0  0  0  0  0  0  0  0  0
   -8.7750   20.4090  -32.2750 N   0  0  0  0  0  0  0  0  0  0  0  0
   -9.0610   21.7160  -31.6380 C   0  0  0  0  0  0  0  0  0  0  0  0
   -7.8220   22.5330  -31.3170 C   0  0  0  0  0  0  0  0  0  0  0  0
   -7.2640   23.3980  -32.2760 C   0  0  0  0  0  0  0  0  0  0  0  0
   -6.1240   24.1490  -31.9740 C   0  0  0  0  0  0  0  0  0  0  0  0
   -5.5360   24.0520  -30.7110 C   0  0  0  0  0  0  0  0  0  0  0  0
   -4.4280   24.7770  -30.4210 F   0  0  0  0  0  0  0  0  0  0  0  0
   -6.0980   23.2180  -29.7420 C   0  0  0  0  0  0  0  0  0  0  0  0
   -7.2410   22.4700  -30.0380 C   0  0  0  0  0  0  0  0  0  0  0  0
   -7.6060   20.4210  -33.1870 C   0  0  0  0  0  0  0  0  0  0  0  0
   -3.0550   21.3270  -33.0360 C   0  0  0  0  0  0  0  0  0  0  0  0
   -2.1170   21.9230  -32.2530 N   0  0  0  0  0  0  0  0  0  0  0  0
   -1.3677   22.4568  -29.0098 H   0  0  0  0  0  0  0  0  0  0  0  0
   -0.1662   22.1676  -30.3135 H   0  0  0  0  0  0  0  0  0  0  0  0
   -1.1467   23.6727  -30.3135 H   0  0  0  0  0  0  0  0  0  0  0  0
   -3.3687   21.2811  -29.1741 H   0  0  0  0  0  0  0  0  0  0  0  0
   -5.1189   20.1705  -30.5742 H   0  0  0  0  0  0  0  0  0  0  0  0
   -5.4407   20.7144  -34.1541 H   0  0  0  0  0  0  0  0  0  0  0  0
   -4.8279   19.0802  -33.6932 H   0  0  0  0  0  0  0  0  0  0  0  0
   -6.4738   17.8224  -33.2991 H   0  0  0  0  0  0  0  0  0  0  0  0
   -6.0086   17.9897  -31.5496 H   0  0  0  0  0  0  0  0  0  0  0  0
   -8.7062   17.7171  -32.7991 H   0  0  0  0  0  0  0  0  0  0  0  0
   -8.1143   17.2365  -31.1645 H   0  0  0  0  0  0  0  0  0  0  0  0
   -9.8157   19.0457  -31.0379 H   0  0  0  0  0  0  0  0  0  0  0  0
   -8.1991   19.5786  -30.4256 H   0  0  0  0  0  0  0  0  0  0  0  0
   -9.6940   22.3019  -32.3206 H   0  0  0  0  0  0  0  0  0  0  0  0
   -9.5562   21.5005  -30.6797 H   0  0  0  0  0  0  0  0  0  0  0  0
   -7.7276   23.4840  -33.2698 H   0  0  0  0  0  0  0  0  0  0  0  0
   -5.6897   24.8172  -32.7322 H   0  0  0  0  0  0  0  0  0  0  0  0
   -5.6403   23.1497  -28.7441 H   0  0  0  0  0  0  0  0  0  0  0  0
   -7.6890   21.8278  -29.2654 H   0  0  0  0  0  0  0  0  0  0  0  0
   -7.8550   19.8635  -34.1020 H   0  0  0  0  0  0  0  0  0  0  0  0
   -7.3582   21.4639  -33.4340 H   0  0  0  0  0  0  0  0  0  0  0  0
   -2.9548   21.3563  -34.1310 H   0  0  0  0  0  0  0  0  0  0  0  0
  1  2  1  0
  2  3  2  0
  3  4  1  0
  4  5  2  0
  5  6  1  0
  6  7  1  0
  7  8  1  0
  8  9  1  0
  9 10  1  0
 10 11  1  0
 11 12  1  0
 12 13  1  0
 13 14  2  0
 14 15  1  0
 15 16  2  0
 16 17  1  0
 16 18  1  0
 18 19  2  0
 11 20  1  0
  5 21  1  0
 21 22  2  0
 22  2  1  0
 20  7  1  0
 19 13  1  0
  1 23  1  0
  1 24  1  0
  1 25  1  0
  3 26  1  0
  4 27  1  0
  6 28  1  0
  6 29  1  0
  8 30  1  0
  8 31  1  0
  9 32  1  0
  9 33  1  0
 10 34  1  0
 10 35  1  0
 12 36  1  0
 12 37  1  0
 14 38  1  0
 15 39  1  0
 18 40  1  0
 19 41  1  0
 20 42  1  0
 20 43  1  0
 21 44  1  0
M  END
>  <UniqueID>  (34) 
34

>  <SMILES>  (34) 
Cc1ccc(CN2CCCN(Cc3ccc(F)cc3)C2)cn1

>  <Energy>  (34) 
56.06856492133941

>  <Genealogy>  (34) 
Cc1ccc(CN2CCCN(Cc3ccc(F)cc3)C2)cn1 (3D coordinates assigned)
Cc1ccc(CN2CCCN(Cc3ccc(F)cc3)C2)cn1 (nonaromatic ring conformer: 56.06856492133941 kcal/mol)

>  <smiles>  (34) 
Cc1ccc(CN2CCCN(Cc3ccc(F)cc3)C2)cn1

>  <score_type>  (34) 
oracle

>  <origin>  (34) 
adg

>  <m_score__min__energy>  (34) 
-7.4100000000000001

>  <m_primary>  (34) 
energy

$$$$
34:0
     RDKit          3D

 28 29  0  0  0  0  0  0  0  0999 V2000
   -6.5740   17.2100  -33.3610 C   0  0  0  0  0  0  0  0  0  0  0  0
   -7.2830   18.4000  -32.7660 C   0  0  0  0  0  0  0  0  0  0  0  0
   -8.4160   18.1790  -31.9670 C   0  0  0  0  0  0  0  0  0  0  0  0
   -9.0900   19.2470  -31.3780 C   0  0  0  0  0  0  0  0  0  0  0  0
   -8.6420   20.5510  -31.5720 C   0  0  0  0  0  0  0  0  0  0  0  0
   -7.5140   20.8070  -32.3680 C   0  0  0  0  0  0  0  0  0  0  0  0
   -6.8410   19.7300  -32.9970 C   0  0  0  0  0  0  0  0  0  0  0  0
   -5.6110   20.0330  -33.8260 C   0  0  0  0  0  0  0  0  0  0  0  0
   -4.4730   20.6090  -32.9610 C   0  0  0  0  0  0  0  0  0  0  0  0
   -4.5150   22.0790  -32.8290 N   0  0  0  0  0  0  0  0  0  0  0  0
   -5.6360   22.5690  -32.0040 C   0  0  0  0  0  0  0  0  0  0  0  0
   -7.0510   22.2400  -32.5590 C   0  0  0  0  0  0  0  0  0  0  0  0
   -6.1921   16.5689  -32.5528 H   0  0  0  0  0  0  0  0  0  0  0  0
   -7.2779   16.6367  -33.9822 H   0  0  0  0  0  0  0  0  0  0  0  0
   -5.7347   17.5561  -33.9822 H   0  0  0  0  0  0  0  0  0  0  0  0
   -8.7754   17.1522  -31.8042 H   0  0  0  0  0  0  0  0  0  0  0  0
   -9.9789   19.0593  -30.7578 H   0  0  0  0  0  0  0  0  0  0  0  0
   -9.1762   21.3875  -31.0978 H   0  0  0  0  0  0  0  0  0  0  0  0
   -5.2631   19.1041  -34.3016 H   0  0  0  0  0  0  0  0  0  0  0  0
   -5.8821   20.7836  -34.5830 H   0  0  0  0  0  0  0  0  0  0  0  0
   -4.5431   20.1677  -31.9558 H   0  0  0  0  0  0  0  0  0  0  0  0
   -3.5275   20.3578  -33.4640 H   0  0  0  0  0  0  0  0  0  0  0  0
   -4.6350   22.4720  -33.7920 H   0  0  0  0  0  0  0  0  0  0  0  0
   -3.6010   22.4490  -32.4770 H   0  0  0  0  0  0  0  0  0  0  0  0
   -5.5476   22.1176  -31.0048 H   0  0  0  0  0  0  0  0  0  0  0  0
   -5.5558   23.6660  -31.9953 H   0  0  0  0  0  0  0  0  0  0  0  0
   -7.7736   22.8990  -32.0554 H   0  0  0  0  0  0  0  0  0  0  0  0
   -6.9908   22.3942  -33.6465 H   0  0  0  0  0  0  0  0  0  0  0  0
  1  2  1  0
  2  3  2  0
  3  4  1  0
  4  5  2  0
  5  6  1  0
  6  7  2  0
  7  8  1  0
  8  9  1  0
  9 10  1  0
 10 11  1  0
 11 12  1  0
  7  2  1  0
 12  6  1  0
  1 13  1  0
  1 14  1  0
  1 15  1  0
  3 16  1  0
  4 17  1  0
  5 18  1  0
  8 19  1  0
  8 20  1  0
  9 21  1  0
  9 22  1  0
 10 23  1  0
 10 24  1  0
 11 25  1  0
 11 26  1  0
 12 27  1  0
 12 28  1  0
M  CHG  1  10   1
M  END
>  <UniqueID>  (35) 
35

>  <SMILES>  (35) 
Cc1cccc2c1CC[NH2+]CC2

>  <Energy>  (35) 
39.77813972998426

>  <Genealogy>  (35) 
Cc1cccc2c1CC[NH2+]CC2 (protonated)
Cc1cccc2c1CC[NH2+]CC2 (3D coordinates assigned)
Cc1cccc2c1CC[NH2+]CC2 (nonaromatic ring conformer: 39.77813972998426 kcal/mol)

>  <smiles>  (35) 
Cc1cccc2c1CCNCC2

>  <score_type>  (35) 
oracle

>  <origin>  (35) 
adg

>  <m_score__min__energy>  (35) 
-3.5600000000000001

>  <m_primary>  (35) 
energy

$$$$
