0:0
     RDKit          3D

 59 61  0  0  0  0  0  0  0  0999 V2000
   -4.2140   24.9210  -26.4890 C   0  0  0  0  0  0  0  0  0  0  0  0
   -4.2080   23.8000  -27.5340 C   0  0  0  0  0  0  0  0  0  0  0  0
   -4.2840   24.3240  -28.9270 N   0  0  0  0  0  0  0  0  0  0  0  0
   -5.7050   24.4140  -29.3610 C   0  0  0  0  0  0  0  0  0  0  0  0
   -5.9560   25.6230  -30.2700 C   0  0  0  0  0  0  0  0  0  0  0  0
   -3.5090   23.4420  -29.8420 C   0  0  0  0  0  0  0  0  0  0  0  0
   -4.3270   22.2730  -30.4430 C   0  0  0  0  0  0  0  0  0  0  0  0
   -3.6780   21.6140  -31.6770 C   0  0  0  0  0  0  0  0  0  0  0  0
   -4.5850   21.5970  -32.8290 N   0  0  0  0  0  0  0  0  0  0  0  0
   -5.7590   20.7720  -32.7990 C   0  0  0  0  0  0  0  0  0  0  0  0
   -6.9890   21.3680  -32.4620 C   0  0  0  0  0  0  0  0  0  0  0  0
   -7.1140   22.7730  -32.3720 C   0  0  0  0  0  0  0  0  0  0  0  0
   -8.3420   23.3630  -32.0790 C   0  0  0  0  0  0  0  0  0  0  0  0
   -9.4650   22.5690  -31.8840 C   0  0  0  0  0  0  0  0  0  0  0  0
   -9.3600   21.1800  -31.9490 C   0  0  0  0  0  0  0  0  0  0  0  0
   -8.1140   20.5500  -32.2040 C   0  0  0  0  0  0  0  0  0  0  0  0
   -7.9800   19.1790  -32.1990 N   0  0  0  0  0  0  0  0  0  0  0  0
   -9.0340   18.3410  -31.5840 C   0  0  0  0  0  0  0  0  0  0  0  0
   -6.8550   18.5910  -32.7480 C   0  0  0  0  0  0  0  0  0  0  0  0
   -6.8280   17.2010  -33.0230 C   0  0  0  0  0  0  0  0  0  0  0  0
   -5.6860   16.5770  -33.5180 C   0  0  0  0  0  0  0  0  0  0  0  0
   -5.6960   15.1030  -33.8080 C   0  0  0  0  0  0  0  0  0  0  0  0
   -4.5710   17.3430  -33.8380 C   0  0  0  0  0  0  0  0  0  0  0  0
   -4.5660   18.7330  -33.6560 C   0  0  0  0  0  0  0  0  0  0  0  0
   -3.3500   19.4690  -34.1600 C   0  0  0  0  0  0  0  0  0  0  0  0
   -5.7040   19.3780  -33.0670 C   0  0  0  0  0  0  0  0  0  0  0  0
   -4.2117   24.4820  -25.4804 H   0  0  0  0  0  0  0  0  0  0  0  0
   -3.3192   25.5476  -26.6183 H   0  0  0  0  0  0  0  0  0  0  0  0
   -5.1155   25.5380  -26.6183 H   0  0  0  0  0  0  0  0  0  0  0  0
   -3.2800   23.2196  -27.4247 H   0  0  0  0  0  0  0  0  0  0  0  0
   -5.0962   23.1745  -27.3612 H   0  0  0  0  0  0  0  0  0  0  0  0
   -3.8650   25.2800  -28.9450 H   0  0  0  0  0  0  0  0  0  0  0  0
   -5.9668   23.4974  -29.9099 H   0  0  0  0  0  0  0  0  0  0  0  0
   -6.3267   24.5323  -28.4613 H   0  0  0  0  0  0  0  0  0  0  0  0
   -6.1410   26.5141  -29.6522 H   0  0  0  0  0  0  0  0  0  0  0  0
   -5.0741   25.7937  -30.9050 H   0  0  0  0  0  0  0  0  0  0  0  0
   -6.8329   25.4285  -30.9050 H   0  0  0  0  0  0  0  0  0  0  0  0
   -3.1259   24.0562  -30.6702 H   0  0  0  0  0  0  0  0  0  0  0  0
   -2.7075   22.9893  -29.2398 H   0  0  0  0  0  0  0  0  0  0  0  0
   -4.4506   21.5038  -29.6665 H   0  0  0  0  0  0  0  0  0  0  0  0
   -5.2842   22.6980  -30.7793 H   0  0  0  0  0  0  0  0  0  0  0  0
   -2.7723   22.1775  -31.9459 H   0  0  0  0  0  0  0  0  0  0  0  0
   -3.4355   20.5725  -31.4190 H   0  0  0  0  0  0  0  0  0  0  0  0
   -4.5880   22.4000  -33.4990 H   0  0  0  0  0  0  0  0  0  0  0  0
   -6.2311   23.4085  -32.5352 H   0  0  0  0  0  0  0  0  0  0  0  0
   -8.4220   24.4574  -32.0021 H   0  0  0  0  0  0  0  0  0  0  0  0
  -10.4390   23.0368  -31.6779 H   0  0  0  0  0  0  0  0  0  0  0  0
  -10.2579   20.5622  -31.8001 H   0  0  0  0  0  0  0  0  0  0  0  0
   -8.9578   18.4016  -30.4883 H   0  0  0  0  0  0  0  0  0  0  0  0
  -10.0226   18.7024  -31.9033 H   0  0  0  0  0  0  0  0  0  0  0  0
   -8.9047   17.2963  -31.9033 H   0  0  0  0  0  0  0  0  0  0  0  0
   -7.7314   16.6004  -32.8409 H   0  0  0  0  0  0  0  0  0  0  0  0
   -5.6998   14.5430  -32.8612 H   0  0  0  0  0  0  0  0  0  0  0  0
   -6.5959   14.8494  -34.3876 H   0  0  0  0  0  0  0  0  0  0  0  0
   -4.7996   14.8372  -34.3876 H   0  0  0  0  0  0  0  0  0  0  0  0
   -3.6751   16.8488  -34.2419 H   0  0  0  0  0  0  0  0  0  0  0  0
   -2.7578   19.8274  -33.3051 H   0  0  0  0  0  0  0  0  0  0  0  0
   -2.7375   18.7898  -34.7713 H   0  0  0  0  0  0  0  0  0  0  0  0
   -3.6677   20.3266  -34.7713 H   0  0  0  0  0  0  0  0  0  0  0  0
  1  2  1  0
  2  3  1  0
  3  4  1  0
  4  5  1  0
  3  6  1  0
  6  7  1  0
  7  8  1  0
  8  9  1  0
  9 10  1  0
 10 11  2  0
 11 12  1  0
 12 13  2  0
 13 14  1  0
 14 15  2  0
 15 16  1  0
 16 17  2  0
 17 18  1  0
 17 19  1  0
 19 20  2  0
 20 21  1  0
 21 22  1  0
 21 23  2  0
 23 24  1  0
 24 25  1  0
 24 26  2  0
 26 10  1  0
 16 11  1  0
 26 19  1  0
  1 27  1  0
  1 28  1  0
  1 29  1  0
  2 30  1  0
  2 31  1  0
  3 32  1  0
  4 33  1  0
  4 34  1  0
  5 35  1  0
  5 36  1  0
  5 37  1  0
  6 38  1  0
  6 39  1  0
  7 40  1  0
  7 41  1  0
  8 42  1  0
  8 43  1  0
  9 44  1  0
 12 45  1  0
 13 46  1  0
 14 47  1  0
 15 48  1  0
 18 49  1  0
 18 50  1  0
 18 51  1  0
 20 52  1  0
 22 53  1  0
 22 54  1  0
 22 55  1  0
 23 56  1  0
 25 57  1  0
 25 58  1  0
 25 59  1  0
M  CHG  2   3   1  17   1
M  END
>  <UniqueID>  (1) 
1

>  <SMILES>  (1) 
CC[NH+](CC)CCCNc1c2ccccc2[n+](C)c2cc(C)cc(C)c12

>  <Energy>  (1) 
94.17765234678464

>  <Genealogy>  (1) 
CC[NH+](CC)CCCNc1c2ccccc2[n+](C)c2cc(C)cc(C)c12 (protonated)
CC[NH+](CC)CCCNc1c2ccccc2[n+](C)c2cc(C)cc(C)c12 (3D coordinates assigned)
CC[NH+](CC)CCCNc1c2ccccc2[n+](C)c2cc(C)cc(C)c12 (optimized conformer: 94.17765234678464 kcal/mol)

>  <smiles>  (1) 
CCN(CC)CCCNc1c2ccccc2[n+](C)c2cc(C)cc(C)c12

>  <score_type>  (1) 
oracle

>  <origin>  (1) 
adg

>  <m_score__min__energy>  (1) 
-7.9500000000000002

>  <m_primary>  (1) 
energy

$$$$
1:0
     RDKit          3D

 55 58  0  0  0  0  0  0  0  0999 V2000
    0.6810   22.6210  -35.8740 C   0  0  0  0  0  0  0  0  0  0  0  0
    0.0270   21.2560  -36.1020 C   0  0  0  0  0  0  0  0  0  0  0  0
   -0.6230   20.7780  -34.8680 N   0  0  0  0  0  0  0  0  0  0  0  0
    0.2780   20.8230  -33.6990 C   0  0  0  0  0  0  0  0  0  0  0  0
   -0.4590   21.0990  -32.3780 C   0  0  0  0  0  0  0  0  0  0  0  0
   -1.8320   21.3160  -32.6280 O   0  0  0  0  0  0  0  0  0  0  0  0
   -2.4640   21.8820  -31.4940 C   0  0  0  0  0  0  0  0  0  0  0  0
   -3.6900   22.6880  -31.9290 C   0  0  0  0  0  0  0  0  0  0  0  0
   -4.3750   22.0290  -33.0400 N   0  0  0  0  0  0  0  0  0  0  0  0
   -5.3470   21.0090  -32.7870 C   0  0  0  0  0  0  0  0  0  0  0  0
   -5.0860   19.6890  -33.1320 C   0  0  0  0  0  0  0  0  0  0  0  0
   -6.0040   18.6840  -32.8850 C   0  0  0  0  0  0  0  0  0  0  0  0
   -7.2570   18.9590  -32.3940 N   0  0  0  0  0  0  0  0  0  0  0  0
   -8.3090   17.9310  -32.4410 C   0  0  0  0  0  0  0  0  0  0  0  0
   -7.5170   20.2410  -31.9290 C   0  0  0  0  0  0  0  0  0  0  0  0
   -8.7000   20.5470  -31.2130 C   0  0  0  0  0  0  0  0  0  0  0  0
   -8.9640   21.8500  -30.7860 C   0  0  0  0  0  0  0  0  0  0  0  0
   -8.0560   22.8730  -31.0450 C   0  0  0  0  0  0  0  0  0  0  0  0
   -6.8650   22.6010  -31.7130 C   0  0  0  0  0  0  0  0  0  0  0  0
   -6.5700   21.2950  -32.1480 C   0  0  0  0  0  0  0  0  0  0  0  0
   -5.3990   17.3980  -33.3140 C   0  0  0  0  0  0  0  0  0  0  0  0
   -5.7920   16.0680  -33.1100 C   0  0  0  0  0  0  0  0  0  0  0  0
   -4.9570   15.0380  -33.5770 C   0  0  0  0  0  0  0  0  0  0  0  0
   -3.7270   15.3380  -34.1940 C   0  0  0  0  0  0  0  0  0  0  0  0
   -3.3090   16.6700  -34.3300 C   0  0  0  0  0  0  0  0  0  0  0  0
   -4.1590   17.6770  -33.8740 C   0  0  0  0  0  0  0  0  0  0  0  0
   -3.9180   19.1080  -33.7880 C   0  0  0  0  0  0  0  0  0  0  0  0
   -2.8980   19.7210  -34.2000 O   0  0  0  0  0  0  0  0  0  0  0  0
    0.7709   22.8087  -34.7939 H   0  0  0  0  0  0  0  0  0  0  0  0
    1.6810   22.6296  -36.3321 H   0  0  0  0  0  0  0  0  0  0  0  0
    0.0611   23.4057  -36.3321 H   0  0  0  0  0  0  0  0  0  0  0  0
   -0.7282   21.3455  -36.8968 H   0  0  0  0  0  0  0  0  0  0  0  0
    0.8047   20.5352  -36.3946 H   0  0  0  0  0  0  0  0  0  0  0  0
   -1.4870   21.3390  -34.6790 H   0  0  0  0  0  0  0  0  0  0  0  0
   -0.9070   19.7780  -35.0050 H   0  0  0  0  0  0  0  0  0  0  0  0
    0.7928   19.8544  -33.6166 H   0  0  0  0  0  0  0  0  0  0  0  0
    0.9825   21.6523  -33.8603 H   0  0  0  0  0  0  0  0  0  0  0  0
   -0.3428   20.2342  -31.7083 H   0  0  0  0  0  0  0  0  0  0  0  0
   -0.0314   21.9959  -31.9061 H   0  0  0  0  0  0  0  0  0  0  0  0
   -2.7791   21.0779  -30.8128 H   0  0  0  0  0  0  0  0  0  0  0  0
   -1.7560   22.5487  -30.9800 H   0  0  0  0  0  0  0  0  0  0  0  0
   -4.3832   22.7774  -31.0796 H   0  0  0  0  0  0  0  0  0  0  0  0
   -3.3593   23.6840  -32.2586 H   0  0  0  0  0  0  0  0  0  0  0  0
   -4.2390   22.3550  -34.0300 H   0  0  0  0  0  0  0  0  0  0  0  0
   -8.5948   17.6517  -31.4162 H   0  0  0  0  0  0  0  0  0  0  0  0
   -9.1870   18.3288  -32.9710 H   0  0  0  0  0  0  0  0  0  0  0  0
   -7.9316   17.0441  -32.9710 H   0  0  0  0  0  0  0  0  0  0  0  0
   -9.4211   19.7468  -30.9901 H   0  0  0  0  0  0  0  0  0  0  0  0
   -9.8946   22.0693  -30.2420 H   0  0  0  0  0  0  0  0  0  0  0  0
   -8.2803   23.8999  -30.7207 H   0  0  0  0  0  0  0  0  0  0  0  0
   -6.1483   23.4137  -31.9025 H   0  0  0  0  0  0  0  0  0  0  0  0
   -6.7354   15.8348  -32.5946 H   0  0  0  0  0  0  0  0  0  0  0  0
   -5.2668   13.9891  -33.4596 H   0  0  0  0  0  0  0  0  0  0  0  0
   -3.0909   14.5236  -34.5711 H   0  0  0  0  0  0  0  0  0  0  0  0
   -2.3371   16.9136  -34.7840 H   0  0  0  0  0  0  0  0  0  0  0  0
  1  2  1  0
  2  3  1  0
  3  4  1  0
  4  5  1  0
  5  6  1  0
  6  7  1  0
  7  8  1  0
  8  9  1  0
  9 10  1  0
 10 11  2  0
 11 12  1  0
 12 13  2  0
 13 14  1  0
 13 15  1  0
 15 16  2  0
 16 17  1  0
 17 18  2  0
 18 19  1  0
 19 20  2  0
 12 21  1  0
 21 22  2  0
 22 23  1  0
 23 24  2  0
 24 25  1  0
 25 26  2  0
 26 27  1  0
 27 28  2  0
 20 10  1  0
 26 21  1  0
 27 11  1  0
 20 15  1  0
  1 29  1  0
  1 30  1  0
  1 31  1  0
  2 32  1  0
  2 33  1  0
  3 34  1  0
  3 35  1  0
  4 36  1  0
  4 37  1  0
  5 38  1  0
  5 39  1  0
  7 40  1  0
  7 41  1  0
  8 42  1  0
  8 43  1  0
  9 44  1  0
 14 45  1  0
 14 46  1  0
 14 47  1  0
 16 48  1  0
 17 49  1  0
 18 50  1  0
 19 51  1  0
 22 52  1  0
 23 53  1  0
 24 54  1  0
 25 55  1  0
M  CHG  2   3   1  13   1
M  END
>  <UniqueID>  (2) 
2

>  <SMILES>  (2) 
CC[NH2+]CCOCCNc1c2c([n+](C)c3ccccc13)-c1ccccc1C2=O

>  <Energy>  (2) 
110.02844967836626

>  <Genealogy>  (2) 
CC[NH2+]CCOCCNc1c2c([n+](C)c3ccccc13)-c1ccccc1C2=O (protonated)
CC[NH2+]CCOCCNc1c2c([n+](C)c3ccccc13)-c1ccccc1C2=O (3D coordinates assigned)
CC[NH2+]CCOCCNc1c2c([n+](C)c3ccccc13)-c1ccccc1C2=O (nonaromatic ring conformer: 110.02844967836626 kcal/mol)

>  <smiles>  (2) 
CCNCCOCCNc1c2c([n+](C)c3ccccc13)-c1ccccc1C2=O

>  <score_type>  (2) 
oracle

>  <origin>  (2) 
adg

>  <m_score__min__energy>  (2) 
-8.6999999999999993

>  <m_primary>  (2) 
energy

$$$$
2:0
     RDKit          3D

 81 84  0  0  0  0  0  0  0  0999 V2000
   -6.2120   25.0800  -29.7180 C   0  0  0  0  0  0  0  0  0  0  0  0
   -4.9610   25.5440  -30.4590 C   0  0  0  0  0  0  0  0  0  0  0  0
   -3.9100   24.5020  -30.4670 N   0  0  0  0  0  0  0  0  0  0  0  0
   -3.0480   24.5730  -29.2570 C   0  0  0  0  0  0  0  0  0  0  0  0
   -3.5840   23.6380  -28.1770 C   0  0  0  0  0  0  0  0  0  0  0  0
   -4.5250   23.1610  -30.6090 C   0  0  0  0  0  0  0  0  0  0  0  0
   -3.6910   22.2610  -31.5310 C   0  0  0  0  0  0  0  0  0  0  0  0
   -4.5070   21.7400  -32.6290 N   0  0  0  0  0  0  0  0  0  0  0  0
   -5.6270   20.8680  -32.3940 C   0  0  0  0  0  0  0  0  0  0  0  0
   -6.9050   21.4290  -32.2000 C   0  0  0  0  0  0  0  0  0  0  0  0
   -7.0740   22.8280  -32.0970 C   0  0  0  0  0  0  0  0  0  0  0  0
   -8.3420   23.3880  -31.9680 C   0  0  0  0  0  0  0  0  0  0  0  0
   -9.4650   22.5720  -31.9680 C   0  0  0  0  0  0  0  0  0  0  0  0
   -9.3250   21.1880  -32.0580 C   0  0  0  0  0  0  0  0  0  0  0  0
   -8.0430   20.5820  -32.1380 C   0  0  0  0  0  0  0  0  0  0  0  0
   -7.8920   19.2120  -32.1960 N   0  0  0  0  0  0  0  0  0  0  0  0
   -9.0430   18.3300  -31.8870 C   0  0  0  0  0  0  0  0  0  0  0  0
   -6.6660   18.6590  -32.5090 C   0  0  0  0  0  0  0  0  0  0  0  0
   -6.5500   17.2990  -32.8870 C   0  0  0  0  0  0  0  0  0  0  0  0
   -5.3070   16.7190  -33.1280 C   0  0  0  0  0  0  0  0  0  0  0  0
   -5.2010   15.0310  -33.6010 Cl  0  0  0  0  0  0  0  0  0  0  0  0
   -4.1500   17.4660  -32.9660 C   0  0  0  0  0  0  0  0  0  0  0  0
   -4.2170   18.8160  -32.6140 C   0  0  0  0  0  0  0  0  0  0  0  0
   -2.9740   19.4880  -32.3610 N   0  0  0  0  0  0  0  0  0  0  0  0
   -2.2650   20.2120  -33.3750 C   0  0  0  0  0  0  0  0  0  0  0  0
   -2.7630   20.3430  -34.5270 O   0  0  0  0  0  0  0  0  0  0  0  0
   -0.8860   20.7340  -33.0630 C   0  0  0  0  0  0  0  0  0  0  0  0
   -0.7100   21.1390  -31.5920 C   0  0  0  0  0  0  0  0  0  0  0  0
   -0.1080   20.0440  -30.6640 C   0  0  0  0  0  0  0  0  0  0  0  0
   -0.4370   20.0770  -29.1900 N   0  0  0  0  0  0  0  0  0  0  0  0
    0.5860   20.8730  -28.4560 C   0  0  0  0  0  0  0  0  0  0  0  0
   -1.7850   20.7480  -29.0410 C   0  0  0  0  0  0  0  0  0  0  0  0
   -2.7410   20.1110  -28.0080 C   0  0  0  0  0  0  0  0  0  0  0  0
   -1.9970   19.6050  -26.7790 C   0  0  0  0  0  0  0  0  0  0  0  0
   -0.8960   18.6100  -27.1610 C   0  0  0  0  0  0  0  0  0  0  0  0
   -0.4930   18.6830  -28.6520 C   0  0  0  0  0  0  0  0  0  0  0  0
   -5.4870   19.4600  -32.4920 C   0  0  0  0  0  0  0  0  0  0  0  0
   -6.0404   25.1436  -28.6333 H   0  0  0  0  0  0  0  0  0  0  0  0
   -7.0609   25.7231  -29.9933 H   0  0  0  0  0  0  0  0  0  0  0  0
   -6.4363   24.0389  -29.9933 H   0  0  0  0  0  0  0  0  0  0  0  0
   -5.2311   25.7855  -31.4976 H   0  0  0  0  0  0  0  0  0  0  0  0
   -4.5630   26.4278  -29.9389 H   0  0  0  0  0  0  0  0  0  0  0  0
   -2.0233   24.2735  -29.5220 H   0  0  0  0  0  0  0  0  0  0  0  0
   -3.0488   25.6041  -28.8739 H   0  0  0  0  0  0  0  0  0  0  0  0
   -3.3477   24.0502  -27.1849 H   0  0  0  0  0  0  0  0  0  0  0  0
   -4.6746   23.5415  -28.2837 H   0  0  0  0  0  0  0  0  0  0  0  0
   -3.1162   22.6482  -28.2837 H   0  0  0  0  0  0  0  0  0  0  0  0
   -4.5944   22.6915  -29.6167 H   0  0  0  0  0  0  0  0  0  0  0  0
   -5.5244   23.2820  -31.0524 H   0  0  0  0  0  0  0  0  0  0  0  0
   -2.8575   22.8457  -31.9475 H   0  0  0  0  0  0  0  0  0  0  0  0
   -3.3092   21.4131  -30.9435 H   0  0  0  0  0  0  0  0  0  0  0  0
   -4.1280   21.8170  -33.6000 H   0  0  0  0  0  0  0  0  0  0  0  0
   -6.1912   23.4839  -32.1191 H   0  0  0  0  0  0  0  0  0  0  0  0
   -8.4541   24.4775  -31.8660 H   0  0  0  0  0  0  0  0  0  0  0  0
  -10.4677   23.0186  -31.8968 H   0  0  0  0  0  0  0  0  0  0  0  0
  -10.2237   20.5537  -32.0672 H   0  0  0  0  0  0  0  0  0  0  0  0
   -9.1561   18.2433  -30.7963 H   0  0  0  0  0  0  0  0  0  0  0  0
   -9.9597   18.7590  -32.3177 H   0  0  0  0  0  0  0  0  0  0  0  0
   -8.8671   17.3332  -32.3177 H   0  0  0  0  0  0  0  0  0  0  0  0
   -7.4593   16.6890  -32.9923 H   0  0  0  0  0  0  0  0  0  0  0  0
   -3.1695   16.9906  -33.1162 H   0  0  0  0  0  0  0  0  0  0  0  0
   -2.6660   19.6010  -31.3650 H   0  0  0  0  0  0  0  0  0  0  0  0
   -0.1532   19.9483  -33.2992 H   0  0  0  0  0  0  0  0  0  0  0  0
   -0.7337   21.6379  -33.6710 H   0  0  0  0  0  0  0  0  0  0  0  0
   -0.0452   22.0148  -31.5586 H   0  0  0  0  0  0  0  0  0  0  0  0
   -1.7223   21.3366  -31.2095 H   0  0  0  0  0  0  0  0  0  0  0  0
   -0.4478   19.0713  -31.0493 H   0  0  0  0  0  0  0  0  0  0  0  0
    0.9752   20.2324  -30.6987 H   0  0  0  0  0  0  0  0  0  0  0  0
    0.4345   20.7551  -27.3729 H   0  0  0  0  0  0  0  0  0  0  0  0
    1.5910   20.5170  -28.7265 H   0  0  0  0  0  0  0  0  0  0  0  0
    0.4879   21.9347  -28.7265 H   0  0  0  0  0  0  0  0  0  0  0  0
   -1.6113   21.7921  -28.7416 H   0  0  0  0  0  0  0  0  0  0  0  0
   -2.2827   20.6399  -30.0160 H   0  0  0  0  0  0  0  0  0  0  0  0
   -3.4767   20.8654  -27.6923 H   0  0  0  0  0  0  0  0  0  0  0  0
   -3.2333   19.2510  -28.4854 H   0  0  0  0  0  0  0  0  0  0  0  0
   -1.5412   20.4607  -26.2593 H   0  0  0  0  0  0  0  0  0  0  0  0
   -2.7173   19.0899  -26.1265 H   0  0  0  0  0  0  0  0  0  0  0  0
   -0.0070   18.8216  -26.5487 H   0  0  0  0  0  0  0  0  0  0  0  0
   -1.2939   17.6004  -26.9811 H   0  0  0  0  0  0  0  0  0  0  0  0
    0.5011   18.2261  -28.7662 H   0  0  0  0  0  0  0  0  0  0  0  0
   -1.2674   18.1485  -29.2217 H   0  0  0  0  0  0  0  0  0  0  0  0
  1  2  1  0
  2  3  1  0
  3  4  1  0
  4  5  1  0
  3  6  1  0
  6  7  1  0
  7  8  1  0
  8  9  1  0
  9 10  2  0
 10 11  1  0
 11 12  2  0
 12 13  1  0
 13 14  2  0
 14 15  1  0
 15 16  2  0
 16 17  1  0
 16 18  1  0
 18 19  2  0
 19 20  1  0
 20 21  1  0
 20 22  2  0
 22 23  1  0
 23 24  1  0
 24 25  1  0
 25 26  2  0
 25 27  1  0
 27 28  1  0
 28 29  1  0
 29 30  1  0
 30 31  1  0
 30 32  1  0
 32 33  1  0
 33 34  1  0
 34 35  1  0
 35 36  1  0
 23 37  2  0
 37  9  1  0
 15 10  1  0
 37 18  1  0
 36 30  1  0
  1 38  1  0
  1 39  1  0
  1 40  1  0
  2 41  1  0
  2 42  1  0
  4 43  1  0
  4 44  1  0
  5 45  1  0
  5 46  1  0
  5 47  1  0
  6 48  1  0
  6 49  1  0
  7 50  1  0
  7 51  1  0
  8 52  1  0
 11 53  1  0
 12 54  1  0
 13 55  1  0
 14 56  1  0
 17 57  1  0
 17 58  1  0
 17 59  1  0
 19 60  1  0
 22 61  1  0
 24 62  1  0
 27 63  1  0
 27 64  1  0
 28 65  1  0
 28 66  1  0
 29 67  1  0
 29 68  1  0
 31 69  1  0
 31 70  1  0
 31 71  1  0
 32 72  1  0
 32 73  1  0
 33 74  1  0
 33 75  1  0
 34 76  1  0
 34 77  1  0
 35 78  1  0
 35 79  1  0
 36 80  1  0
 36 81  1  0
M  CHG  2  16   1  30   1
M  END
>  <UniqueID>  (3) 
3

>  <SMILES>  (3) 
CCN(CC)CCNc1c2ccccc2[n+](C)c2cc(Cl)cc(NC(=O)CCC[N+]3(C)CCCCC3)c12

>  <Energy>  (3) 
133.71774152849122

>  <Genealogy>  (3) 
CCN(CC)CCNc1c2ccccc2[n+](C)c2cc(Cl)cc(NC(=O)CCC[N+]3(C)CCCCC3)c12 (3D coordinates assigned)
CCN(CC)CCNc1c2ccccc2[n+](C)c2cc(Cl)cc(NC(=O)CCC[N+]3(C)CCCCC3)c12 (nonaromatic ring conformer: 133.71774152849122 kcal/mol)

>  <smiles>  (3) 
CCN(CC)CCNc1c2ccccc2[n+](C)c2cc(Cl)cc(NC(=O)CCC[N+]3(C)CCCCC3)c12

>  <score_type>  (3) 
oracle

>  <origin>  (3) 
adg

>  <m_score__min__energy>  (3) 
-10.210000000000001

>  <m_primary>  (3) 
energy

$$$$
3:0
     RDKit          3D

 57 59  0  0  0  0  0  0  0  0999 V2000
    0.2510   22.0040  -35.3620 C   0  0  0  0  0  0  0  0  0  0  0  0
    0.7560   20.6140  -34.9690 C   0  0  0  0  0  0  0  0  0  0  0  0
    0.2640   20.1940  -33.6360 N   0  0  0  0  0  0  0  0  0  0  0  0
   -1.1470   19.7260  -33.6230 C   0  0  0  0  0  0  0  0  0  0  0  0
   -2.1940   20.8380  -33.4470 C   0  0  0  0  0  0  0  0  0  0  0  0
    1.1950   19.2410  -32.9820 C   0  0  0  0  0  0  0  0  0  0  0  0
    1.2640   19.4930  -31.4690 C   0  0  0  0  0  0  0  0  0  0  0  0
    0.2970   18.6700  -30.7410 N   0  0  0  0  0  0  0  0  0  0  0  0
   -0.2550   19.1470  -29.5090 C   0  0  0  0  0  0  0  0  0  0  0  0
   -0.2590   18.3030  -28.3890 C   0  0  0  0  0  0  0  0  0  0  0  0
    0.2990   17.0200  -28.5080 O   0  0  0  0  0  0  0  0  0  0  0  0
    1.0550   16.3710  -27.4900 C   0  0  0  0  0  0  0  0  0  0  0  0
   -0.8160   18.7720  -27.1880 C   0  0  0  0  0  0  0  0  0  0  0  0
   -1.3530   20.0180  -27.1190 N   0  0  0  0  0  0  0  0  0  0  0  0
   -1.3720   20.8530  -28.1880 C   0  0  0  0  0  0  0  0  0  0  0  0
   -1.9570   22.1190  -28.0700 C   0  0  0  0  0  0  0  0  0  0  0  0
   -2.0110   22.9770  -29.1760 C   0  0  0  0  0  0  0  0  0  0  0  0
   -2.7820   24.5560  -29.0560 S   0  0  0  0  0  0  0  0  0  0  0  0
   -3.6460   24.6480  -27.8270 O   0  0  0  0  0  0  0  0  0  0  0  0
   -1.7150   25.6100  -28.9720 O   0  0  0  0  0  0  0  0  0  0  0  0
   -3.7550   24.8390  -30.4660 N   0  0  0  0  0  0  0  0  0  0  0  0
   -4.8260   23.9980  -30.9240 C   0  0  0  0  0  0  0  0  0  0  0  0
   -4.5950   22.9150  -31.7900 C   0  0  0  0  0  0  0  0  0  0  0  0
   -5.6560   22.1090  -32.2110 C   0  0  0  0  0  0  0  0  0  0  0  0
   -6.9540   22.3690  -31.7680 C   0  0  0  0  0  0  0  0  0  0  0  0
   -7.1960   23.4430  -30.9100 C   0  0  0  0  0  0  0  0  0  0  0  0
   -6.1400   24.2640  -30.4950 C   0  0  0  0  0  0  0  0  0  0  0  0
   -6.4850   25.6290  -29.4430 Cl  0  0  0  0  0  0  0  0  0  0  0  0
   -1.4670   22.5690  -30.4000 C   0  0  0  0  0  0  0  0  0  0  0  0
   -0.8690   21.3110  -30.5230 C   0  0  0  0  0  0  0  0  0  0  0  0
   -0.8180   20.4370  -29.4200 C   0  0  0  0  0  0  0  0  0  0  0  0
    0.0390   22.5874  -34.4539 H   0  0  0  0  0  0  0  0  0  0  0  0
    1.0196   22.5186  -35.9573 H   0  0  0  0  0  0  0  0  0  0  0  0
   -0.6687   21.9052  -35.9573 H   0  0  0  0  0  0  0  0  0  0  0  0
    0.4108   19.8870  -35.7189 H   0  0  0  0  0  0  0  0  0  0  0  0
    1.8544   20.6545  -34.9253 H   0  0  0  0  0  0  0  0  0  0  0  0
   -1.3470   19.2157  -34.5767 H   0  0  0  0  0  0  0  0  0  0  0  0
   -1.2462   19.0663  -32.7483 H   0  0  0  0  0  0  0  0  0  0  0  0
   -2.3623   21.0168  -32.3748 H   0  0  0  0  0  0  0  0  0  0  0  0
   -1.8305   21.7621  -33.9202 H   0  0  0  0  0  0  0  0  0  0  0  0
   -3.1383   20.5307  -33.9202 H   0  0  0  0  0  0  0  0  0  0  0  0
    0.8432   18.2141  -33.1603 H   0  0  0  0  0  0  0  0  0  0  0  0
    2.1993   19.3827  -33.4079 H   0  0  0  0  0  0  0  0  0  0  0  0
    2.2767   19.2529  -31.1129 H   0  0  0  0  0  0  0  0  0  0  0  0
    1.0233   20.5505  -31.2850 H   0  0  0  0  0  0  0  0  0  0  0  0
    0.3480   17.6340  -30.8610 H   0  0  0  0  0  0  0  0  0  0  0  0
    0.6872   16.6867  -26.5025 H   0  0  0  0  0  0  0  0  0  0  0  0
    0.9458   15.2811  -27.5907 H   0  0  0  0  0  0  0  0  0  0  0  0
    2.1158   16.6440  -27.5907 H   0  0  0  0  0  0  0  0  0  0  0  0
   -0.8174   18.1263  -26.2975 H   0  0  0  0  0  0  0  0  0  0  0  0
   -2.3759   22.4414  -27.1053 H   0  0  0  0  0  0  0  0  0  0  0  0
   -3.5737   22.7009  -32.1380 H   0  0  0  0  0  0  0  0  0  0  0  0
   -5.4678   21.2671  -32.8935 H   0  0  0  0  0  0  0  0  0  0  0  0
   -7.7858   21.7277  -32.0950 H   0  0  0  0  0  0  0  0  0  0  0  0
   -8.2187   23.6451  -30.5589 H   0  0  0  0  0  0  0  0  0  0  0  0
   -1.5103   23.2416  -31.2693 H   0  0  0  0  0  0  0  0  0  0  0  0
   -0.4363   21.0026  -31.4861 H   0  0  0  0  0  0  0  0  0  0  0  0
  1  2  1  0
  2  3  1  0
  3  4  1  0
  4  5  1  0
  3  6  1  0
  6  7  1  0
  7  8  1  0
  8  9  1  0
  9 10  2  0
 10 11  1  0
 11 12  1  0
 10 13  1  0
 13 14  2  0
 14 15  1  0
 15 16  2  0
 16 17  1  0
 17 18  1  0
 18 19  2  0
 18 20  2  0
 18 21  1  0
 21 22  1  0
 22 23  2  0
 23 24  1  0
 24 25  2  0
 25 26  1  0
 26 27  2  0
 27 28  1  0
 17 29  2  0
 29 30  1  0
 30 31  2  0
 31  9  1  0
 31 15  1  0
 27 22  1  0
  1 32  1  0
  1 33  1  0
  1 34  1  0
  2 35  1  0
  2 36  1  0
  4 37  1  0
  4 38  1  0
  5 39  1  0
  5 40  1  0
  5 41  1  0
  6 42  1  0
  6 43  1  0
  7 44  1  0
  7 45  1  0
  8 46  1  0
 12 47  1  0
 12 48  1  0
 12 49  1  0
 13 50  1  0
 16 51  1  0
 23 52  1  0
 24 53  1  0
 25 54  1  0
 26 55  1  0
 29 56  1  0
 30 57  1  0
M  CHG  1  21  -1
M  END
>  <UniqueID>  (4) 
4

>  <SMILES>  (4) 
CCN(CC)CCNc1c(OC)cnc2cc(S(=O)(=O)[N-]c3ccccc3Cl)ccc12

>  <Energy>  (4) 
73.688124921461

>  <Genealogy>  (4) 
CCN(CC)CCNc1c(OC)cnc2cc(S(=O)(=O)[N-]c3ccccc3Cl)ccc12 (protonated)
CCN(CC)CCNc1c(OC)cnc2cc(S(=O)(=O)[N-]c3ccccc3Cl)ccc12 (3D coordinates assigned)
CCN(CC)CCNc1c(OC)cnc2cc(S(=O)(=O)[N-]c3ccccc3Cl)ccc12 (optimized conformer: 73.688124921461 kcal/mol)

>  <smiles>  (4) 
CCN(CC)CCNc1c(OC)cnc2cc(S(=O)(=O)Nc3ccccc3Cl)ccc12

>  <score_type>  (4) 
oracle

>  <origin>  (4) 
adg

>  <m_score__min__energy>  (4) 
-9.7699999999999996

>  <m_primary>  (4) 
energy

$$$$
4:0
     RDKit          3D

 51 54  0  0  0  0  0  0  0  0999 V2000
   -3.3510   24.5450  -29.0940 C   0  0  0  0  0  0  0  0  0  0  0  0
   -3.8780   24.6730  -30.4650 N   0  0  0  0  0  0  0  0  0  0  0  0
   -5.2540   25.2060  -30.4080 C   0  0  0  0  0  0  0  0  0  0  0  0
   -3.8480   23.3570  -31.1430 C   0  0  0  0  0  0  0  0  0  0  0  0
   -5.2620   22.8980  -31.5250 C   0  0  0  0  0  0  0  0  0  0  0  0
   -5.2170   22.0620  -32.7240 N   0  0  0  0  0  0  0  0  0  0  0  0
   -5.4140   20.6420  -32.6360 C   0  0  0  0  0  0  0  0  0  0  0  0
   -4.3090   19.7810  -32.6870 C   0  0  0  0  0  0  0  0  0  0  0  0
   -2.9470   20.2970  -32.9390 C   0  0  0  0  0  0  0  0  0  0  0  0
   -2.1660   20.7770  -31.8730 C   0  0  0  0  0  0  0  0  0  0  0  0
   -0.8560   21.2100  -32.1020 C   0  0  0  0  0  0  0  0  0  0  0  0
   -0.3150   21.1490  -33.3900 C   0  0  0  0  0  0  0  0  0  0  0  0
   -1.0790   20.6470  -34.4500 C   0  0  0  0  0  0  0  0  0  0  0  0
   -2.4030   20.2560  -34.2370 C   0  0  0  0  0  0  0  0  0  0  0  0
   -0.4850   20.5240  -35.7090 O   0  0  0  0  0  0  0  0  0  0  0  0
    0.9330   20.6160  -35.8670 C   0  0  0  0  0  0  0  0  0  0  0  0
    1.4900   21.7230  -34.9690 C   0  0  0  0  0  0  0  0  0  0  0  0
    0.9940   21.5730  -33.6340 O   0  0  0  0  0  0  0  0  0  0  0  0
   -4.5070   18.4090  -32.5200 C   0  0  0  0  0  0  0  0  0  0  0  0
   -5.7460   17.8850  -32.3310 N   0  0  0  0  0  0  0  0  0  0  0  0
   -5.7990   16.5110  -32.1700 O   0  0  0  0  0  0  0  0  0  0  0  0
   -6.8600   18.6970  -32.3060 C   0  0  0  0  0  0  0  0  0  0  0  0
   -8.1640   18.1800  -32.1230 C   0  0  0  0  0  0  0  0  0  0  0  0
   -9.2700   19.0290  -32.0890 C   0  0  0  0  0  0  0  0  0  0  0  0
   -9.1070   20.4030  -32.2280 C   0  0  0  0  0  0  0  0  0  0  0  0
   -7.8350   20.9430  -32.4050 C   0  0  0  0  0  0  0  0  0  0  0  0
   -6.7040   20.1050  -32.4570 C   0  0  0  0  0  0  0  0  0  0  0  0
   -4.1571   24.7408  -28.3716 H   0  0  0  0  0  0  0  0  0  0  0  0
   -2.9634   23.5266  -28.9438 H   0  0  0  0  0  0  0  0  0  0  0  0
   -2.5394   25.2721  -28.9438 H   0  0  0  0  0  0  0  0  0  0  0  0
   -5.5583   25.3239  -29.3575 H   0  0  0  0  0  0  0  0  0  0  0  0
   -5.2899   26.1831  -30.9120 H   0  0  0  0  0  0  0  0  0  0  0  0
   -5.9387   24.5081  -30.9120 H   0  0  0  0  0  0  0  0  0  0  0  0
   -3.2379   23.4368  -32.0548 H   0  0  0  0  0  0  0  0  0  0  0  0
   -3.4165   22.6183  -30.4515 H   0  0  0  0  0  0  0  0  0  0  0  0
   -5.6924   22.3189  -30.6947 H   0  0  0  0  0  0  0  0  0  0  0  0
   -5.8829   23.7829  -31.7285 H   0  0  0  0  0  0  0  0  0  0  0  0
   -5.2910   22.5210  -33.6580 H   0  0  0  0  0  0  0  0  0  0  0  0
   -2.5861   20.8121  -30.8570 H   0  0  0  0  0  0  0  0  0  0  0  0
   -0.2514   21.5984  -31.2692 H   0  0  0  0  0  0  0  0  0  0  0  0
   -3.0198   19.9165  -35.0822 H   0  0  0  0  0  0  0  0  0  0  0  0
    1.3933   19.6562  -35.5898 H   0  0  0  0  0  0  0  0  0  0  0  0
    1.1644   20.8520  -36.9162 H   0  0  0  0  0  0  0  0  0  0  0  0
    2.5883   21.6634  -34.9574 H   0  0  0  0  0  0  0  0  0  0  0  0
    1.1711   22.6993  -35.3629 H   0  0  0  0  0  0  0  0  0  0  0  0
   -3.6377   17.7353  -32.5420 H   0  0  0  0  0  0  0  0  0  0  0  0
   -5.9230   15.8520  -32.9240 H   0  0  0  0  0  0  0  0  0  0  0  0
   -8.3074   17.0957  -32.0061 H   0  0  0  0  0  0  0  0  0  0  0  0
  -10.2774   18.6092  -31.9514 H   0  0  0  0  0  0  0  0  0  0  0  0
   -9.9848   21.0653  -32.1981 H   0  0  0  0  0  0  0  0  0  0  0  0
   -7.7130   22.0316  -32.5049 H   0  0  0  0  0  0  0  0  0  0  0  0
  1  2  1  0
  2  3  1  0
  2  4  1  0
  4  5  1  0
  5  6  1  0
  6  7  1  0
  7  8  2  0
  8  9  1  0
  9 10  2  0
 10 11  1  0
 11 12  2  0
 12 13  1  0
 13 14  2  0
 13 15  1  0
 15 16  1  0
 16 17  1  0
 17 18  1  0
  8 19  1  0
 19 20  2  0
 20 21  1  0
 20 22  1  0
 22 23  2  0
 23 24  1  0
 24 25  2  0
 25 26  1  0
 26 27  2  0
 27  7  1  0
 14  9  1  0
 27 22  1  0
 18 12  1  0
  1 28  1  0
  1 29  1  0
  1 30  1  0
  3 31  1  0
  3 32  1  0
  3 33  1  0
  4 34  1  0
  4 35  1  0
  5 36  1  0
  5 37  1  0
  6 38  1  0
 10 39  1  0
 11 40  1  0
 14 41  1  0
 16 42  1  0
 16 43  1  0
 17 44  1  0
 17 45  1  0
 19 46  1  0
 21 47  1  0
 23 48  1  0
 24 49  1  0
 25 50  1  0
 26 51  1  0
M  CHG  1  20   1
M  END
>  <UniqueID>  (5) 
5

>  <SMILES>  (5) 
CN(C)CCNc1c(-c2ccc3c(c2)OCCO3)c[n+](O)c2ccccc12

>  <Energy>  (5) 
72.88339529218106

>  <Genealogy>  (5) 
CN(C)CCNc1c(-c2ccc3c(c2)OCCO3)c[n+](O)c2ccccc12 (protonated)
CN(C)CCNc1c(-c2ccc3c(c2)OCCO3)c[n+](O)c2ccccc12 (3D coordinates assigned)
CN(C)CCNc1c(-c2ccc3c(c2)OCCO3)c[n+](O)c2ccccc12 (nonaromatic ring conformer: 72.88339529218106 kcal/mol)

>  <smiles>  (5) 
CN(C)CCNc1c(-c2ccc3c(c2)OCCO3)c[n+]([O-])c2ccccc12

>  <score_type>  (5) 
oracle

>  <origin>  (5) 
adg

>  <m_score__min__energy>  (5) 
-8.1400000000000006

>  <m_primary>  (5) 
energy

$$$$
5:0
     RDKit          3D

 65 67  0  0  0  0  0  0  0  0999 V2000
   -1.1590   21.8110  -26.3200 C   0  0  0  0  0  0  0  0  0  0  0  0
   -0.7340   20.5420  -27.0700 C   0  0  0  0  0  0  0  0  0  0  0  0
   -1.8200   19.8950  -27.8510 N   0  0  0  0  0  0  0  0  0  0  0  0
   -3.0900   19.7200  -27.1090 C   0  0  0  0  0  0  0  0  0  0  0  0
   -2.9890   18.6230  -26.0500 C   0  0  0  0  0  0  0  0  0  0  0  0
   -2.0330   20.5310  -29.1750 C   0  0  0  0  0  0  0  0  0  0  0  0
   -3.3740   21.2640  -29.2020 C   0  0  0  0  0  0  0  0  0  0  0  0
   -3.3150   22.3190  -30.1380 O   0  0  0  0  0  0  0  0  0  0  0  0
   -2.7860   23.4820  -29.5350 C   0  0  0  0  0  0  0  0  0  0  0  0
   -3.8730   24.1720  -28.7010 C   0  0  0  0  0  0  0  0  0  0  0  0
   -4.9950   24.8240  -29.5410 C   0  0  0  0  0  0  0  0  0  0  0  0
   -6.1820   23.9690  -29.7270 N   0  0  0  0  0  0  0  0  0  0  0  0
   -6.8900   24.1780  -31.0030 C   0  0  0  0  0  0  0  0  0  0  0  0
   -6.2960   23.3230  -32.1430 C   0  0  0  0  0  0  0  0  0  0  0  0
   -5.3390   22.3190  -31.6470 N   0  0  0  0  0  0  0  0  0  0  0  0
   -5.5210   21.0460  -32.3160 C   0  0  0  0  0  0  0  0  0  0  0  0
   -6.7440   20.3240  -32.2850 C   0  0  0  0  0  0  0  0  0  0  0  0
   -7.9070   20.8640  -31.6880 C   0  0  0  0  0  0  0  0  0  0  0  0
   -9.0750   20.1140  -31.5900 C   0  0  0  0  0  0  0  0  0  0  0  0
   -9.1170   18.8180  -32.0860 C   0  0  0  0  0  0  0  0  0  0  0  0
   -8.0040   18.2690  -32.7160 C   0  0  0  0  0  0  0  0  0  0  0  0
   -6.8050   19.0100  -32.8670 C   0  0  0  0  0  0  0  0  0  0  0  0
   -5.7120   18.4840  -33.5410 N   0  0  0  0  0  0  0  0  0  0  0  0
   -5.8150   17.1810  -34.2310 C   0  0  0  0  0  0  0  0  0  0  0  0
   -4.5340   19.1950  -33.5580 C   0  0  0  0  0  0  0  0  0  0  0  0
   -3.3020   18.7730  -34.1110 C   0  0  0  0  0  0  0  0  0  0  0  0
   -2.2880   19.7190  -33.9990 C   0  0  0  0  0  0  0  0  0  0  0  0
   -2.8930   21.0650  -33.1960 S   0  0  0  0  0  0  0  0  0  0  0  0
   -4.4480   20.4540  -32.9840 C   0  0  0  0  0  0  0  0  0  0  0  0
   -1.0996   21.6335  -25.2360 H   0  0  0  0  0  0  0  0  0  0  0  0
   -0.4894   22.6399  -26.5931 H   0  0  0  0  0  0  0  0  0  0  0  0
   -2.1927   22.0695  -26.5931 H   0  0  0  0  0  0  0  0  0  0  0  0
    0.0766   20.8084  -27.7642 H   0  0  0  0  0  0  0  0  0  0  0  0
   -0.4235   19.8155  -26.3047 H   0  0  0  0  0  0  0  0  0  0  0  0
   -3.3456   20.6686  -26.6142 H   0  0  0  0  0  0  0  0  0  0  0  0
   -3.8664   19.4250  -27.8302 H   0  0  0  0  0  0  0  0  0  0  0  0
   -3.0307   19.0755  -25.0482 H   0  0  0  0  0  0  0  0  0  0  0  0
   -3.8262   17.9196  -26.1697 H   0  0  0  0  0  0  0  0  0  0  0  0
   -2.0375   18.0843  -26.1697 H   0  0  0  0  0  0  0  0  0  0  0  0
   -1.2227   21.2497  -29.3668 H   0  0  0  0  0  0  0  0  0  0  0  0
   -2.0361   19.7507  -29.9503 H   0  0  0  0  0  0  0  0  0  0  0  0
   -4.1699   20.5618  -29.4908 H   0  0  0  0  0  0  0  0  0  0  0  0
   -3.5891   21.6716  -28.2032 H   0  0  0  0  0  0  0  0  0  0  0  0
   -1.9449   23.2052  -28.8823 H   0  0  0  0  0  0  0  0  0  0  0  0
   -2.4351   24.1708  -30.3176 H   0  0  0  0  0  0  0  0  0  0  0  0
   -4.3291   23.4211  -28.0390 H   0  0  0  0  0  0  0  0  0  0  0  0
   -3.3796   24.9839  -28.1466 H   0  0  0  0  0  0  0  0  0  0  0  0
   -5.3111   25.7490  -29.0365 H   0  0  0  0  0  0  0  0  0  0  0  0
   -4.5763   25.0076  -30.5415 H   0  0  0  0  0  0  0  0  0  0  0  0
   -6.8520   24.1190  -28.9350 H   0  0  0  0  0  0  0  0  0  0  0  0
   -7.9478   23.9069  -30.8704 H   0  0  0  0  0  0  0  0  0  0  0  0
   -6.7815   25.2366  -31.2814 H   0  0  0  0  0  0  0  0  0  0  0  0
   -7.1163   22.8045  -32.6609 H   0  0  0  0  0  0  0  0  0  0  0  0
   -5.7549   23.9973  -32.8231 H   0  0  0  0  0  0  0  0  0  0  0  0
   -4.3610   22.6500  -31.8060 H   0  0  0  0  0  0  0  0  0  0  0  0
   -5.4290   22.2030  -30.6160 H   0  0  0  0  0  0  0  0  0  0  0  0
   -7.8879   21.8915  -31.2956 H   0  0  0  0  0  0  0  0  0  0  0  0
   -9.9680   20.5495  -31.1179 H   0  0  0  0  0  0  0  0  0  0  0  0
  -10.0352   18.2216  -31.9805 H   0  0  0  0  0  0  0  0  0  0  0  0
   -8.0557   17.2410  -33.1040 H   0  0  0  0  0  0  0  0  0  0  0  0
   -5.8787   16.3751  -33.4850 H   0  0  0  0  0  0  0  0  0  0  0  0
   -6.7168   17.1699  -34.8607 H   0  0  0  0  0  0  0  0  0  0  0  0
   -4.9261   17.0283  -34.8607 H   0  0  0  0  0  0  0  0  0  0  0  0
   -3.1594   17.7904  -34.5845 H   0  0  0  0  0  0  0  0  0  0  0  0
   -1.2603   19.6046  -34.3741 H   0  0  0  0  0  0  0  0  0  0  0  0
  1  2  1  0
  2  3  1  0
  3  4  1  0
  4  5  1  0
  3  6  1  0
  6  7  1  0
  7  8  1  0
  8  9  1  0
  9 10  1  0
 10 11  1  0
 11 12  1  0
 12 13  1  0
 13 14  1  0
 14 15  1  0
 15 16  1  0
 16 17  2  0
 17 18  1  0
 18 19  2  0
 19 20  1  0
 20 21  2  0
 21 22  1  0
 22 23  2  0
 23 24  1  0
 23 25  1  0
 25 26  1  0
 26 27  2  0
 27 28  1  0
 28 29  1  0
 29 16  1  0
 22 17  1  0
 29 25  2  0
  1 30  1  0
  1 31  1  0
  1 32  1  0
  2 33  1  0
  2 34  1  0
  4 35  1  0
  4 36  1  0
  5 37  1  0
  5 38  1  0
  5 39  1  0
  6 40  1  0
  6 41  1  0
  7 42  1  0
  7 43  1  0
  9 44  1  0
  9 45  1  0
 10 46  1  0
 10 47  1  0
 11 48  1  0
 11 49  1  0
 12 50  1  0
 13 51  1  0
 13 52  1  0
 14 53  1  0
 14 54  1  0
 15 55  1  0
 15 56  1  0
 18 57  1  0
 19 58  1  0
 20 59  1  0
 21 60  1  0
 24 61  1  0
 24 62  1  0
 24 63  1  0
 26 64  1  0
 27 65  1  0
M  CHG  2  15   1  23   1
M  END
>  <UniqueID>  (6) 
6

>  <SMILES>  (6) 
CCN(CC)CCOCCCNCC[NH2+]c1c2ccccc2[n+](C)c2ccsc12

>  <Energy>  (6) 
112.25848223864018

>  <Genealogy>  (6) 
CCN(CC)CCOCCCNCC[NH2+]c1c2ccccc2[n+](C)c2ccsc12 (protonated)
CCN(CC)CCOCCCNCC[NH2+]c1c2ccccc2[n+](C)c2ccsc12 (3D coordinates assigned)
CCN(CC)CCOCCCNCC[NH2+]c1c2ccccc2[n+](C)c2ccsc12 (optimized conformer: 112.25848223864018 kcal/mol)

>  <smiles>  (6) 
CCN(CC)CCOCCCNCCNc1c2ccccc2[n+](C)c2ccsc12

>  <score_type>  (6) 
oracle

>  <origin>  (6) 
adg

>  <m_score__min__energy>  (6) 
-8.8599999999999994

>  <m_primary>  (6) 
energy

$$$$
6:0
     RDKit          3D

 49 51  0  0  0  0  0  0  0  0999 V2000
   -2.3540   22.3670  -29.5010 C   0  0  0  0  0  0  0  0  0  0  0  0
   -2.8460   23.7540  -29.9160 C   0  0  0  0  0  0  0  0  0  0  0  0
   -4.2270   24.0040  -29.4450 N   0  0  0  0  0  0  0  0  0  0  0  0
   -4.2550   24.1930  -27.9800 C   0  0  0  0  0  0  0  0  0  0  0  0
   -4.8100   25.1820  -30.1290 C   0  0  0  0  0  0  0  0  0  0  0  0
   -6.1160   24.8130  -30.8460 C   0  0  0  0  0  0  0  0  0  0  0  0
   -5.8920   23.7470  -31.9230 C   0  0  0  0  0  0  0  0  0  0  0  0
   -5.5220   22.4710  -31.3100 N   0  0  0  0  0  0  0  0  0  0  0  0
   -5.5790   21.2410  -32.0550 C   0  0  0  0  0  0  0  0  0  0  0  0
   -6.7670   20.4880  -32.0890 C   0  0  0  0  0  0  0  0  0  0  0  0
   -7.9230   20.9270  -31.4060 C   0  0  0  0  0  0  0  0  0  0  0  0
   -9.0750   20.1460  -31.3800 C   0  0  0  0  0  0  0  0  0  0  0  0
   -9.0950   18.9130  -32.0200 C   0  0  0  0  0  0  0  0  0  0  0  0
   -7.9720   18.4660  -32.7150 C   0  0  0  0  0  0  0  0  0  0  0  0
   -6.7960   19.2570  -32.7990 C   0  0  0  0  0  0  0  0  0  0  0  0
   -5.6950   18.8470  -33.5270 N   0  0  0  0  0  0  0  0  0  0  0  0
   -5.8170   17.7220  -34.4820 C   0  0  0  0  0  0  0  0  0  0  0  0
   -4.4890   19.5110  -33.3940 C   0  0  0  0  0  0  0  0  0  0  0  0
   -3.2840   18.9860  -33.9280 C   0  0  0  0  0  0  0  0  0  0  0  0
   -2.0920   19.7050  -33.8590 C   0  0  0  0  0  0  0  0  0  0  0  0
   -2.0640   20.9570  -33.2560 C   0  0  0  0  0  0  0  0  0  0  0  0
   -0.9060   21.6620  -33.2110 F   0  0  0  0  0  0  0  0  0  0  0  0
   -3.2190   21.4780  -32.6790 C   0  0  0  0  0  0  0  0  0  0  0  0
   -4.4290   20.7490  -32.7000 C   0  0  0  0  0  0  0  0  0  0  0  0
   -2.3301   22.2997  -28.4033 H   0  0  0  0  0  0  0  0  0  0  0  0
   -3.0354   21.6015  -29.9006 H   0  0  0  0  0  0  0  0  0  0  0  0
   -1.3425   22.2020  -29.9006 H   0  0  0  0  0  0  0  0  0  0  0  0
   -2.1782   24.5140  -29.4842 H   0  0  0  0  0  0  0  0  0  0  0  0
   -2.8415   23.8069  -31.0147 H   0  0  0  0  0  0  0  0  0  0  0  0
   -4.1112   23.2226  -27.4823 H   0  0  0  0  0  0  0  0  0  0  0  0
   -3.4489   24.8802  -27.6835 H   0  0  0  0  0  0  0  0  0  0  0  0
   -5.2258   24.6169  -27.6835 H   0  0  0  0  0  0  0  0  0  0  0  0
   -5.0176   25.9641  -29.3838 H   0  0  0  0  0  0  0  0  0  0  0  0
   -4.0899   25.5436  -30.8778 H   0  0  0  0  0  0  0  0  0  0  0  0
   -6.8317   24.4262  -30.1056 H   0  0  0  0  0  0  0  0  0  0  0  0
   -6.5045   25.7179  -31.3361 H   0  0  0  0  0  0  0  0  0  0  0  0
   -6.8186   23.6159  -32.5012 H   0  0  0  0  0  0  0  0  0  0  0  0
   -5.0763   24.0745  -32.5843 H   0  0  0  0  0  0  0  0  0  0  0  0
   -4.9640   22.4960  -30.4270 H   0  0  0  0  0  0  0  0  0  0  0  0
   -7.9127   21.8976  -30.8885 H   0  0  0  0  0  0  0  0  0  0  0  0
   -9.9706   20.5055  -30.8521 H   0  0  0  0  0  0  0  0  0  0  0  0
   -9.9991   18.2879  -31.9783 H   0  0  0  0  0  0  0  0  0  0  0  0
   -7.9976   17.4826  -33.2072 H   0  0  0  0  0  0  0  0  0  0  0  0
   -5.9193   16.7784  -33.9259 H   0  0  0  0  0  0  0  0  0  0  0  0
   -6.7041   17.8727  -35.1148 H   0  0  0  0  0  0  0  0  0  0  0  0
   -4.9182   17.6791  -35.1148 H   0  0  0  0  0  0  0  0  0  0  0  0
   -3.2906   17.9946  -34.4046 H   0  0  0  0  0  0  0  0  0  0  0  0
   -1.1703   19.2802  -34.2832 H   0  0  0  0  0  0  0  0  0  0  0  0
   -3.1891   22.4684  -32.2014 H   0  0  0  0  0  0  0  0  0  0  0  0
  1  2  1  0
  2  3  1  0
  3  4  1  0
  3  5  1  0
  5  6  1  0
  6  7  1  0
  7  8  1  0
  8  9  1  0
  9 10  2  0
 10 11  1  0
 11 12  2  0
 12 13  1  0
 13 14  2  0
 14 15  1  0
 15 16  2  0
 16 17  1  0
 16 18  1  0
 18 19  2  0
 19 20  1  0
 20 21  2  0
 21 22  1  0
 21 23  1  0
 23 24  2  0
 24  9  1  0
 15 10  1  0
 24 18  1  0
  1 25  1  0
  1 26  1  0
  1 27  1  0
  2 28  1  0
  2 29  1  0
  4 30  1  0
  4 31  1  0
  4 32  1  0
  5 33  1  0
  5 34  1  0
  6 35  1  0
  6 36  1  0
  7 37  1  0
  7 38  1  0
  8 39  1  0
 11 40  1  0
 12 41  1  0
 13 42  1  0
 14 43  1  0
 17 44  1  0
 17 45  1  0
 17 46  1  0
 19 47  1  0
 20 48  1  0
 23 49  1  0
M  CHG  1  16   1
M  END
>  <UniqueID>  (7) 
7

>  <SMILES>  (7) 
CCN(C)CCCNc1c2ccccc2[n+](C)c2ccc(F)cc12

>  <Energy>  (7) 
73.35420857417625

>  <Genealogy>  (7) 
CCN(C)CCCNc1c2ccccc2[n+](C)c2ccc(F)cc12 (3D coordinates assigned)
CCN(C)CCCNc1c2ccccc2[n+](C)c2ccc(F)cc12 (optimized conformer: 73.35420857417625 kcal/mol)

>  <smiles>  (7) 
CCN(C)CCCNc1c2ccccc2[n+](C)c2ccc(F)cc12

>  <score_type>  (7) 
oracle

>  <origin>  (7) 
adg

>  <m_score__min__energy>  (7) 
-8.0399999999999991

>  <m_primary>  (7) 
energy

$$$$
7:0
     RDKit          3D

 78 80  0  0  0  0  0  0  0  0999 V2000
   -0.4170   20.1900  -31.7220 C   0  0  0  0  0  0  0  0  0  0  0  0
   -0.7870   19.0770  -32.6970 C   0  0  0  0  0  0  0  0  0  0  0  0
   -2.1390   19.3160  -33.2560 N   0  0  0  0  0  0  0  0  0  0  0  0
   -2.5790   18.2090  -34.1500 C   0  0  0  0  0  0  0  0  0  0  0  0
   -4.1000   18.0820  -34.3140 C   0  0  0  0  0  0  0  0  0  0  0  0
   -2.2780   20.6750  -33.8320 C   0  0  0  0  0  0  0  0  0  0  0  0
   -3.4950   21.4300  -33.2650 C   0  0  0  0  0  0  0  0  0  0  0  0
   -4.2450   20.6120  -32.3060 N   0  0  0  0  0  0  0  0  0  0  0  0
   -5.4990   20.9610  -31.6590 C   0  0  0  0  0  0  0  0  0  0  0  0
   -6.7060   20.2560  -31.9130 C   0  0  0  0  0  0  0  0  0  0  0  0
   -6.7460   18.8620  -32.1580 C   0  0  0  0  0  0  0  0  0  0  0  0
   -7.9510   18.2030  -32.3910 C   0  0  0  0  0  0  0  0  0  0  0  0
   -9.1480   18.9030  -32.3520 C   0  0  0  0  0  0  0  0  0  0  0  0
   -9.1490   20.2690  -32.0920 C   0  0  0  0  0  0  0  0  0  0  0  0
   -7.9350   20.9760  -31.8940 C   0  0  0  0  0  0  0  0  0  0  0  0
   -7.9310   22.3400  -31.6910 N   0  0  0  0  0  0  0  0  0  0  0  0
   -9.1200   23.1440  -32.0540 C   0  0  0  0  0  0  0  0  0  0  0  0
   -6.8220   22.9470  -31.1400 C   0  0  0  0  0  0  0  0  0  0  0  0
   -6.8790   24.2770  -30.6580 C   0  0  0  0  0  0  0  0  0  0  0  0
   -5.7490   24.9100  -30.1580 C   0  0  0  0  0  0  0  0  0  0  0  0
   -4.5610   24.2100  -30.0240 C   0  0  0  0  0  0  0  0  0  0  0  0
   -4.4810   22.8510  -30.3730 C   0  0  0  0  0  0  0  0  0  0  0  0
   -3.3470   22.0940  -29.8750 N   0  0  0  0  0  0  0  0  0  0  0  0
   -2.0600   22.7210  -30.2340 C   0  0  0  0  0  0  0  0  0  0  0  0
   -1.3870   23.3980  -29.0310 C   0  0  0  0  0  0  0  0  0  0  0  0
   -2.0840   22.9840  -27.7790 N   0  0  0  0  0  0  0  0  0  0  0  0
   -1.4110   21.7820  -27.1900 C   0  0  0  0  0  0  0  0  0  0  0  0
   -2.2790   20.5150  -27.2710 C   0  0  0  0  0  0  0  0  0  0  0  0
   -0.8320   22.0220  -25.7840 C   0  0  0  0  0  0  0  0  0  0  0  0
   -2.3650   24.1480  -26.8750 C   0  0  0  0  0  0  0  0  0  0  0  0
   -1.6180   25.4140  -27.3630 C   0  0  0  0  0  0  0  0  0  0  0  0
   -3.8590   24.5230  -26.8130 C   0  0  0  0  0  0  0  0  0  0  0  0
   -5.5900   22.2370  -31.0470 C   0  0  0  0  0  0  0  0  0  0  0  0
   -0.5372   19.8285  -30.6901 H   0  0  0  0  0  0  0  0  0  0  0  0
    0.6288   20.4888  -31.8864 H   0  0  0  0  0  0  0  0  0  0  0  0
   -1.0758   21.0555  -31.8864 H   0  0  0  0  0  0  0  0  0  0  0  0
   -0.0537   19.0530  -33.5166 H   0  0  0  0  0  0  0  0  0  0  0  0
   -0.7838   18.1155  -32.1627 H   0  0  0  0  0  0  0  0  0  0  0  0
   -2.1401   18.3770  -35.1446 H   0  0  0  0  0  0  0  0  0  0  0  0
   -2.2387   17.2753  -33.6784 H   0  0  0  0  0  0  0  0  0  0  0  0
   -4.5737   18.0424  -33.3220 H   0  0  0  0  0  0  0  0  0  0  0  0
   -4.4828   18.9513  -34.8687 H   0  0  0  0  0  0  0  0  0  0  0  0
   -4.3334   17.1612  -34.8687 H   0  0  0  0  0  0  0  0  0  0  0  0
   -1.3681   21.2499  -33.6049 H   0  0  0  0  0  0  0  0  0  0  0  0
   -2.4254   20.5667  -34.9167 H   0  0  0  0  0  0  0  0  0  0  0  0
   -3.1443   22.3411  -32.7582 H   0  0  0  0  0  0  0  0  0  0  0  0
   -4.1650   21.6762  -34.1020 H   0  0  0  0  0  0  0  0  0  0  0  0
   -3.9170   19.6280  -32.1710 H   0  0  0  0  0  0  0  0  0  0  0  0
   -5.8075   18.2883  -32.1645 H   0  0  0  0  0  0  0  0  0  0  0  0
   -7.9533   17.1243  -32.6066 H   0  0  0  0  0  0  0  0  0  0  0  0
  -10.0979   18.3766  -32.5270 H   0  0  0  0  0  0  0  0  0  0  0  0
  -10.1055   20.8096  -32.0390 H   0  0  0  0  0  0  0  0  0  0  0  0
   -9.6251   23.4856  -31.1385 H   0  0  0  0  0  0  0  0  0  0  0  0
   -8.8061   24.0159  -32.6466 H   0  0  0  0  0  0  0  0  0  0  0  0
   -9.8123   22.5279  -32.6466 H   0  0  0  0  0  0  0  0  0  0  0  0
   -7.8361   24.8187  -30.6801 H   0  0  0  0  0  0  0  0  0  0  0  0
   -5.7971   25.9699  -29.8676 H   0  0  0  0  0  0  0  0  0  0  0  0
   -3.6683   24.7248  -29.6393 H   0  0  0  0  0  0  0  0  0  0  0  0
   -3.3800   21.1340  -30.2870 H   0  0  0  0  0  0  0  0  0  0  0  0
   -3.3480   21.9940  -28.8440 H   0  0  0  0  0  0  0  0  0  0  0  0
   -1.3858   21.9455  -30.6266 H   0  0  0  0  0  0  0  0  0  0  0  0
   -2.2616   23.4964  -30.9877 H   0  0  0  0  0  0  0  0  0  0  0  0
   -0.3310   23.0939  -28.9815 H   0  0  0  0  0  0  0  0  0  0  0  0
   -1.4468   24.4907  -29.1420 H   0  0  0  0  0  0  0  0  0  0  0  0
   -0.5366   21.5977  -27.8314 H   0  0  0  0  0  0  0  0  0  0  0  0
   -2.5168   20.1679  -26.2547 H   0  0  0  0  0  0  0  0  0  0  0  0
   -3.2115   20.7431  -27.8081 H   0  0  0  0  0  0  0  0  0  0  0  0
   -1.7296   19.7279  -27.8081 H   0  0  0  0  0  0  0  0  0  0  0  0
   -1.5691   21.7165  -25.0268 H   0  0  0  0  0  0  0  0  0  0  0  0
    0.0873   21.4308  -25.6602 H   0  0  0  0  0  0  0  0  0  0  0  0
   -0.6005   23.0902  -25.6602 H   0  0  0  0  0  0  0  0  0  0  0  0
   -2.0253   23.8250  -25.8799 H   0  0  0  0  0  0  0  0  0  0  0  0
   -1.2751   25.9951  -26.4943 H   0  0  0  0  0  0  0  0  0  0  0  0
   -0.7507   25.1166  -27.9707 H   0  0  0  0  0  0  0  0  0  0  0  0
   -2.2977   26.0294  -27.9707 H   0  0  0  0  0  0  0  0  0  0  0  0
   -4.1739   24.6020  -25.7620 H   0  0  0  0  0  0  0  0  0  0  0  0
   -4.0159   25.4884  -27.3164 H   0  0  0  0  0  0  0  0  0  0  0  0
   -4.4532   23.7461  -27.3164 H   0  0  0  0  0  0  0  0  0  0  0  0
  1  2  1  0
  2  3  1  0
  3  4  1  0
  4  5  1  0
  3  6  1  0
  6  7  1  0
  7  8  1  0
  8  9  1  0
  9 10  2  0
 10 11  1  0
 11 12  2  0
 12 13  1  0
 13 14  2  0
 14 15  1  0
 15 16  2  0
 16 17  1  0
 16 18  1  0
 18 19  2  0
 19 20  1  0
 20 21  2  0
 21 22  1  0
 22 23  1  0
 23 24  1  0
 24 25  1  0
 25 26  1  0
 26 27  1  0
 27 28  1  0
 27 29  1  0
 26 30  1  0
 30 31  1  0
 30 32  1  0
 22 33  2  0
 33  9  1  0
 15 10  1  0
 33 18  1  0
  1 34  1  0
  1 35  1  0
  1 36  1  0
  2 37  1  0
  2 38  1  0
  4 39  1  0
  4 40  1  0
  5 41  1  0
  5 42  1  0
  5 43  1  0
  6 44  1  0
  6 45  1  0
  7 46  1  0
  7 47  1  0
  8 48  1  0
 11 49  1  0
 12 50  1  0
 13 51  1  0
 14 52  1  0
 17 53  1  0
 17 54  1  0
 17 55  1  0
 19 56  1  0
 20 57  1  0
 21 58  1  0
 23 59  1  0
 23 60  1  0
 24 61  1  0
 24 62  1  0
 25 63  1  0
 25 64  1  0
 27 65  1  0
 28 66  1  0
 28 67  1  0
 28 68  1  0
 29 69  1  0
 29 70  1  0
 29 71  1  0
 30 72  1  0
 31 73  1  0
 31 74  1  0
 31 75  1  0
 32 76  1  0
 32 77  1  0
 32 78  1  0
M  CHG  2  16   1  23   1
M  END
>  <UniqueID>  (8) 
8

>  <SMILES>  (8) 
CCN(CC)CCNc1c2ccccc2[n+](C)c2cccc([NH2+]CCN(C(C)C)C(C)C)c12

>  <Energy>  (8) 
136.35956823746912

>  <Genealogy>  (8) 
CCN(CC)CCNc1c2ccccc2[n+](C)c2cccc([NH2+]CCN(C(C)C)C(C)C)c12 (protonated)
CCN(CC)CCNc1c2ccccc2[n+](C)c2cccc([NH2+]CCN(C(C)C)C(C)C)c12 (3D coordinates assigned)
CCN(CC)CCNc1c2ccccc2[n+](C)c2cccc([NH2+]CCN(C(C)C)C(C)C)c12 (optimized conformer: 136.35956823746912 kcal/mol)

>  <smiles>  (8) 
CCN(CC)CCNc1c2ccccc2[n+](C)c2cccc(NCCN(C(C)C)C(C)C)c12

>  <score_type>  (8) 
oracle

>  <origin>  (8) 
adg

>  <m_score__min__energy>  (8) 
-7.4500000000000002

>  <m_primary>  (8) 
energy

$$$$
8:0
     RDKit          3D

 55 57  0  0  0  0  0  0  0  0999 V2000
    0.2550   23.4340  -28.0090 C   0  0  0  0  0  0  0  0  0  0  0  0
   -0.9350   23.8340  -27.1420 C   0  0  0  0  0  0  0  0  0  0  0  0
   -1.9100   24.7390  -27.9270 C   0  0  0  0  0  0  0  0  0  0  0  0
   -3.3480   24.4830  -27.6420 N   0  0  2  0  0  0  0  0  0  0  0  0
   -3.8090   25.0610  -26.3520 C   0  0  0  0  0  0  0  0  0  0  0  0
   -2.6850   25.7400  -25.5620 C   0  0  0  0  0  0  0  0  0  0  0  0
   -3.6540   23.0270  -27.7110 C   0  0  0  0  0  0  0  0  0  0  0  0
   -2.9010   22.3170  -28.8500 C   0  0  0  0  0  0  0  0  0  0  0  0
   -3.0650   23.0420  -30.1100 N   0  0  0  0  0  0  0  0  0  0  0  0
   -3.7800   22.4510  -31.2070 C   0  0  0  0  0  0  0  0  0  0  0  0
   -3.1140   21.5560  -32.0600 C   0  0  0  0  0  0  0  0  0  0  0  0
   -1.7070   21.4450  -32.0340 C   0  0  0  0  0  0  0  0  0  0  0  0
   -1.0450   20.5980  -32.9190 C   0  0  0  0  0  0  0  0  0  0  0  0
   -1.7690   19.8590  -33.8470 C   0  0  0  0  0  0  0  0  0  0  0  0
   -3.1610   19.9370  -33.8750 C   0  0  0  0  0  0  0  0  0  0  0  0
   -3.8660   20.7590  -32.9570 C   0  0  0  0  0  0  0  0  0  0  0  0
   -5.2450   20.7860  -32.9120 N   0  0  0  0  0  0  0  0  0  0  0  0
   -6.0250   19.7150  -33.5730 C   0  0  0  0  0  0  0  0  0  0  0  0
   -5.8950   21.8010  -32.2330 C   0  0  0  0  0  0  0  0  0  0  0  0
   -7.2920   21.9940  -32.3600 C   0  0  0  0  0  0  0  0  0  0  0  0
   -7.9530   22.9830  -31.6420 C   0  0  0  0  0  0  0  0  0  0  0  0
   -7.2390   23.8530  -30.8330 C   0  0  0  0  0  0  0  0  0  0  0  0
   -5.8470   23.7530  -30.7290 C   0  0  0  0  0  0  0  0  0  0  0  0
   -5.1470   24.8220  -30.0780 N   0  0  0  0  0  0  0  0  0  0  0  0
   -5.7380   25.5270  -29.2330 O   0  0  0  0  0  0  0  0  0  0  0  0
   -3.9800   25.2940  -30.6330 O   0  0  0  0  0  0  0  0  0  0  0  0
   -5.1620   22.6870  -31.3860 C   0  0  0  0  0  0  0  0  0  0  0  0
    1.0996   23.1501  -27.3640 H   0  0  0  0  0  0  0  0  0  0  0  0
   -0.0245   22.5804  -28.6440 H   0  0  0  0  0  0  0  0  0  0  0  0
    0.5478   24.2831  -28.6440 H   0  0  0  0  0  0  0  0  0  0  0  0
   -1.4666   22.9266  -26.8194 H   0  0  0  0  0  0  0  0  0  0  0  0
   -0.5626   24.3919  -26.2702 H   0  0  0  0  0  0  0  0  0  0  0  0
   -1.6894   25.7860  -27.6717 H   0  0  0  0  0  0  0  0  0  0  0  0
   -1.7561   24.5172  -28.9933 H   0  0  0  0  0  0  0  0  0  0  0  0
   -3.8810   24.9600  -28.4090 H   0  0  0  0  0  0  0  0  0  0  0  0
   -4.5897   25.8070  -26.5617 H   0  0  0  0  0  0  0  0  0  0  0  0
   -4.1872   24.2310  -25.7371 H   0  0  0  0  0  0  0  0  0  0  0  0
   -2.8737   25.6260  -24.4843 H   0  0  0  0  0  0  0  0  0  0  0  0
   -1.7229   25.2719  -25.8173 H   0  0  0  0  0  0  0  0  0  0  0  0
   -2.6517   26.8094  -25.8173 H   0  0  0  0  0  0  0  0  0  0  0  0
   -3.3685   22.5614  -26.7561 H   0  0  0  0  0  0  0  0  0  0  0  0
   -4.7312   22.9220  -27.9077 H   0  0  0  0  0  0  0  0  0  0  0  0
   -1.8312   22.2667  -28.5991 H   0  0  0  0  0  0  0  0  0  0  0  0
   -3.3135   21.3042  -28.9688 H   0  0  0  0  0  0  0  0  0  0  0  0
   -2.4040   23.8250  -30.3140 H   0  0  0  0  0  0  0  0  0  0  0  0
   -1.1277   22.0335  -31.3073 H   0  0  0  0  0  0  0  0  0  0  0  0
    0.0512   20.5138  -32.8836 H   0  0  0  0  0  0  0  0  0  0  0  0
   -1.2420   19.2102  -34.5621 H   0  0  0  0  0  0  0  0  0  0  0  0
   -3.7213   19.3527  -34.6197 H   0  0  0  0  0  0  0  0  0  0  0  0
   -6.4907   19.0755  -32.8087 H   0  0  0  0  0  0  0  0  0  0  0  0
   -6.8079   20.1657  -34.2007 H   0  0  0  0  0  0  0  0  0  0  0  0
   -5.3559   19.1082  -34.2007 H   0  0  0  0  0  0  0  0  0  0  0  0
   -7.8656   21.3479  -33.0409 H   0  0  0  0  0  0  0  0  0  0  0  0
   -9.0466   23.0758  -31.7159 H   0  0  0  0  0  0  0  0  0  0  0  0
   -7.7723   24.6306  -30.2665 H   0  0  0  0  0  0  0  0  0  0  0  0
  1  2  1  0
  2  3  1  0
  3  4  1  0
  4  5  1  0
  5  6  1  0
  4  7  1  0
  7  8  1  0
  8  9  1  0
  9 10  1  0
 10 11  2  0
 11 12  1  0
 12 13  2  0
 13 14  1  0
 14 15  2  0
 15 16  1  0
 16 17  2  0
 17 18  1  0
 17 19  1  0
 19 20  2  0
 20 21  1  0
 21 22  2  0
 22 23  1  0
 23 24  1  0
 24 25  2  0
 24 26  1  0
 23 27  2  0
 27 10  1  0
 16 11  1  0
 27 19  1  0
  1 28  1  0
  1 29  1  0
  1 30  1  0
  2 31  1  0
  2 32  1  0
  3 33  1  0
  3 34  1  0
  4 35  1  6
  5 36  1  0
  5 37  1  0
  6 38  1  0
  6 39  1  0
  6 40  1  0
  7 41  1  0
  7 42  1  0
  8 43  1  0
  8 44  1  0
  9 45  1  0
 12 46  1  0
 13 47  1  0
 14 48  1  0
 15 49  1  0
 18 50  1  0
 18 51  1  0
 18 52  1  0
 20 53  1  0
 21 54  1  0
 22 55  1  0
M  CHG  4   4   1  17   1  24   1  26  -1
M  END
>  <UniqueID>  (9) 
9

>  <SMILES>  (9) 
CCC[N@H+](CC)CCNc1c2ccccc2[n+](C)c2cccc([N+](=O)[O-])c12

>  <Energy>  (9) 
93.24744762961004

>  <Genealogy>  (9) 
CCC[NH+](CC)CCNc1c2ccccc2[n+](C)c2cccc([N+](=O)[O-])c12 (protonated)
CCC[N@H+](CC)CCNc1c2ccccc2[n+](C)c2cccc([N+](=O)[O-])c12 (chirality)
CCC[N@H+](CC)CCNc1c2ccccc2[n+](C)c2cccc([N+](=O)[O-])c12 (3D coordinates assigned)
CCC[N@H+](CC)CCNc1c2ccccc2[n+](C)c2cccc([N+](=O)[O-])c12 (optimized conformer: 93.24744762961004 kcal/mol)

>  <smiles>  (9) 
CCCN(CC)CCNc1c2ccccc2[n+](C)c2cccc([N+](=O)[O-])c12

>  <score_type>  (9) 
oracle

>  <origin>  (9) 
adg

>  <m_score__min__energy>  (9) 
-6.7300000000000004

>  <m_primary>  (9) 
energy

$$$$
9:0
     RDKit          3D

 39 39  0  0  0  0  0  0  0  0999 V2000
   -3.4500   20.1730  -33.0050 C   0  0  0  0  0  0  0  0  0  0  0  0
   -2.7480   21.5180  -32.8320 C   0  0  0  0  0  0  0  0  0  0  0  0
   -1.9190   21.5470  -31.5420 C   0  0  0  0  0  0  0  0  0  0  0  0
   -2.5080   22.5240  -30.5230 C   0  0  0  0  0  0  0  0  0  0  0  0
   -3.9250   22.7540  -30.7980 N   0  0  0  0  0  0  0  0  0  0  0  0
   -4.5000   24.0670  -30.8320 C   0  0  0  0  0  0  0  0  0  0  0  0
   -3.8090   25.0670  -30.4960 O   0  0  0  0  0  0  0  0  0  0  0  0
   -5.9290   24.2430  -31.2830 C   0  0  2  0  0  0  0  0  0  0  0  0
   -6.8980   24.5500  -30.1240 C   0  0  0  0  0  0  0  0  0  0  0  0
   -6.3680   23.1240  -32.1480 N   0  0  0  0  0  0  0  0  0  0  0  0
   -7.7490   22.6470  -31.9370 C   0  0  0  0  0  0  0  0  0  0  0  0
   -7.8550   21.1550  -32.1140 C   0  0  0  0  0  0  0  0  0  0  0  0
   -6.8070   20.4280  -32.7060 C   0  0  0  0  0  0  0  0  0  0  0  0
   -6.8940   19.0370  -32.8220 C   0  0  0  0  0  0  0  0  0  0  0  0
   -8.0210   18.3630  -32.3430 C   0  0  0  0  0  0  0  0  0  0  0  0
   -9.0630   19.0780  -31.7490 C   0  0  0  0  0  0  0  0  0  0  0  0
   -8.9840   20.4690  -31.6360 C   0  0  0  0  0  0  0  0  0  0  0  0
   -3.6729   19.7459  -32.0161 H   0  0  0  0  0  0  0  0  0  0  0  0
   -4.3876   20.3177  -33.5617 H   0  0  0  0  0  0  0  0  0  0  0  0
   -2.7952   19.4865  -33.5617 H   0  0  0  0  0  0  0  0  0  0  0  0
   -2.0821   21.6886  -33.6907 H   0  0  0  0  0  0  0  0  0  0  0  0
   -3.5131   22.3061  -32.7731 H   0  0  0  0  0  0  0  0  0  0  0  0
   -1.9036   20.5383  -31.1035 H   0  0  0  0  0  0  0  0  0  0  0  0
   -0.9005   21.8790  -31.7919 H   0  0  0  0  0  0  0  0  0  0  0  0
   -2.3985   22.1036  -29.5124 H   0  0  0  0  0  0  0  0  0  0  0  0
   -1.9706   23.4812  -30.5944 H   0  0  0  0  0  0  0  0  0  0  0  0
   -4.5140   21.9370  -31.0780 H   0  0  0  0  0  0  0  0  0  0  0  0
   -5.9587   25.1467  -31.9095 H   0  0  0  0  0  0  0  0  0  0  0  0
   -6.3852   24.3875  -29.1645 H   0  0  0  0  0  0  0  0  0  0  0  0
   -7.2289   25.5970  -30.1902 H   0  0  0  0  0  0  0  0  0  0  0  0
   -7.7714   23.8846  -30.1902 H   0  0  0  0  0  0  0  0  0  0  0  0
   -6.2880   23.4400  -33.1430 H   0  0  0  0  0  0  0  0  0  0  0  0
   -8.0646   22.9084  -30.9162 H   0  0  0  0  0  0  0  0  0  0  0  0
   -8.3966   23.1284  -32.6846 H   0  0  0  0  0  0  0  0  0  0  0  0
   -5.9163   20.9548  -33.0789 H   0  0  0  0  0  0  0  0  0  0  0  0
   -6.0745   18.4726  -33.2908 H   0  0  0  0  0  0  0  0  0  0  0  0
   -8.0871   17.2688  -32.4340 H   0  0  0  0  0  0  0  0  0  0  0  0
   -9.9476   18.5457  -31.3693 H   0  0  0  0  0  0  0  0  0  0  0  0
   -9.8090   21.0287  -31.1710 H   0  0  0  0  0  0  0  0  0  0  0  0
  1  2  1  0
  2  3  1  0
  3  4  1  0
  4  5  1  0
  5  6  1  0
  6  7  2  0
  6  8  1  0
  8  9  1  0
  8 10  1  0
 10 11  1  0
 11 12  1  0
 12 13  2  0
 13 14  1  0
 14 15  2  0
 15 16  1  0
 16 17  2  0
 17 12  1  0
  1 18  1  0
  1 19  1  0
  1 20  1  0
  2 21  1  0
  2 22  1  0
  3 23  1  0
  3 24  1  0
  4 25  1  0
  4 26  1  0
  5 27  1  0
  8 28  1  6
  9 29  1  0
  9 30  1  0
  9 31  1  0
 10 32  1  0
 11 33  1  0
 11 34  1  0
 13 35  1  0
 14 36  1  0
 15 37  1  0
 16 38  1  0
 17 39  1  0
M  END
>  <UniqueID>  (10) 
10

>  <SMILES>  (10) 
CCCCNC(=O)[C@H](C)NCc1ccccc1

>  <Energy>  (10) 
26.252697871804365

>  <Genealogy>  (10) 
CCCCNC(=O)[C@H](C)NCc1ccccc1 (chirality)
CCCCNC(=O)[C@H](C)NCc1ccccc1 (3D coordinates assigned)
CCCCNC(=O)[C@H](C)NCc1ccccc1 (optimized conformer: 26.252697871804365 kcal/mol)

>  <smiles>  (10) 
CCCCNC(=O)C(C)NCc1ccccc1

>  <score_type>  (10) 
oracle

>  <origin>  (10) 
adg

>  <m_score__min__energy>  (10) 
-6.9500000000000002

>  <m_primary>  (10) 
energy

$$$$
10:0
     RDKit          3D

 50 54  0  0  0  0  0  0  0  0999 V2000
   -9.1240   21.5370  -31.0120 C   0  0  0  0  0  0  0  0  0  0  0  0
   -9.8520   20.9870  -32.2340 C   0  0  0  0  0  0  0  0  0  0  0  0
   -8.9720   20.0770  -32.9730 N   0  0  0  0  0  0  0  0  0  0  0  0
   -8.6750   18.8840  -32.1710 C   0  0  0  0  0  0  0  0  0  0  0  0
   -7.4360   18.1520  -32.7140 C   0  0  0  0  0  0  0  0  0  0  0  0
   -6.7900   18.8300  -33.8570 N   0  0  0  0  0  0  0  0  0  0  0  0
   -5.4340   19.2700  -33.5650 C   0  0  0  0  0  0  0  0  0  0  0  0
   -4.3520   18.4730  -33.9750 C   0  0  0  0  0  0  0  0  0  0  0  0
   -4.3790   17.2890  -34.6190 N   0  0  0  0  0  0  0  0  0  0  0  0
   -3.0890   16.9240  -34.7860 C   0  0  0  0  0  0  0  0  0  0  0  0
   -2.2370   17.8740  -34.2380 C   0  0  0  0  0  0  0  0  0  0  0  0
   -3.0700   18.8430  -33.7220 C   0  0  0  0  0  0  0  0  0  0  0  0
   -2.7680   19.9830  -33.0100 C   0  0  0  0  0  0  0  0  0  0  0  0
   -3.8400   20.7680  -32.5290 C   0  0  0  0  0  0  0  0  0  0  0  0
   -5.1540   20.4470  -32.8710 N   0  0  0  0  0  0  0  0  0  0  0  0
   -6.2460   21.3170  -32.3660 C   0  0  0  0  0  0  0  0  0  0  0  0
   -5.8370   22.7900  -32.2830 C   0  0  0  0  0  0  0  0  0  0  0  0
   -4.5640   22.9380  -31.5180 C   0  0  0  0  0  0  0  0  0  0  0  0
   -4.3420   24.0820  -30.7210 C   0  0  0  0  0  0  0  0  0  0  0  0
   -3.1320   24.1800  -30.0460 C   0  0  0  0  0  0  0  0  0  0  0  0
   -2.1790   23.2230  -30.1430 C   0  0  0  0  0  0  0  0  0  0  0  0
   -2.3470   22.0880  -30.9300 C   0  0  0  0  0  0  0  0  0  0  0  0
   -3.5570   21.9490  -31.6580 C   0  0  0  0  0  0  0  0  0  0  0  0
   -1.0940   23.5730  -29.3610 O   0  0  0  0  0  0  0  0  0  0  0  0
   -1.3840   24.8320  -28.7400 C   0  0  0  0  0  0  0  0  0  0  0  0
   -2.6950   25.1840  -29.2040 O   0  0  0  0  0  0  0  0  0  0  0  0
   -9.6120   21.1683  -30.0977 H   0  0  0  0  0  0  0  0  0  0  0  0
   -8.0760   21.2031  -31.0284 H   0  0  0  0  0  0  0  0  0  0  0  0
   -9.1588   22.6363  -31.0284 H   0  0  0  0  0  0  0  0  0  0  0  0
  -10.7499   20.4413  -31.9084 H   0  0  0  0  0  0  0  0  0  0  0  0
  -10.1407   21.8222  -32.8891 H   0  0  0  0  0  0  0  0  0  0  0  0
   -9.4820   19.7660  -33.8340 H   0  0  0  0  0  0  0  0  0  0  0  0
   -8.4869   19.1872  -31.1305 H   0  0  0  0  0  0  0  0  0  0  0  0
   -9.5367   18.2023  -32.2228 H   0  0  0  0  0  0  0  0  0  0  0  0
   -6.7000   18.0678  -31.9008 H   0  0  0  0  0  0  0  0  0  0  0  0
   -7.7793   17.1723  -33.0778 H   0  0  0  0  0  0  0  0  0  0  0  0
   -6.8660   18.2490  -34.7170 H   0  0  0  0  0  0  0  0  0  0  0  0
   -7.3590   19.6810  -34.0790 H   0  0  0  0  0  0  0  0  0  0  0  0
   -5.2120   16.7370  -34.9180 H   0  0  0  0  0  0  0  0  0  0  0  0
   -2.7591   16.0018  -35.2868 H   0  0  0  0  0  0  0  0  0  0  0  0
   -1.1373   17.8568  -34.2198 H   0  0  0  0  0  0  0  0  0  0  0  0
   -1.7239   20.2734  -32.8216 H   0  0  0  0  0  0  0  0  0  0  0  0
   -7.1081   21.2287  -33.0434 H   0  0  0  0  0  0  0  0  0  0  0  0
   -6.4932   20.9828  -31.3476 H   0  0  0  0  0  0  0  0  0  0  0  0
   -5.6957   23.1841  -33.3002 H   0  0  0  0  0  0  0  0  0  0  0  0
   -6.6297   23.3501  -31.7654 H   0  0  0  0  0  0  0  0  0  0  0  0
   -5.1036   24.8712  -30.6372 H   0  0  0  0  0  0  0  0  0  0  0  0
   -1.5626   21.3188  -30.9863 H   0  0  0  0  0  0  0  0  0  0  0  0
   -1.3756   24.7333  -27.6445 H   0  0  0  0  0  0  0  0  0  0  0  0
   -0.6372   25.5987  -28.9939 H   0  0  0  0  0  0  0  0  0  0  0  0
  1  2  1  0
  2  3  1  0
  3  4  1  0
  4  5  1  0
  5  6  1  0
  6  7  1  0
  7  8  2  0
  8  9  1  0
  9 10  1  0
 10 11  2  0
 11 12  1  0
 12 13  2  0
 13 14  1  0
 14 15  2  0
 15 16  1  0
 16 17  1  0
 17 18  1  0
 18 19  2  0
 19 20  1  0
 20 21  2  0
 21 22  1  0
 22 23  2  0
 21 24  1  0
 24 25  1  0
 25 26  1  0
 15  7  1  0
 23 18  1  0
 12  8  1  0
 23 14  1  0
 26 20  1  0
  1 27  1  0
  1 28  1  0
  1 29  1  0
  2 30  1  0
  2 31  1  0
  3 32  1  0
  4 33  1  0
  4 34  1  0
  5 35  1  0
  5 36  1  0
  6 37  1  0
  6 38  1  0
  9 39  1  0
 10 40  1  0
 11 41  1  0
 13 42  1  0
 16 43  1  0
 16 44  1  0
 17 45  1  0
 17 46  1  0
 19 47  1  0
 22 48  1  0
 25 49  1  0
 25 50  1  0
M  CHG  2   6   1  15   1
M  END
>  <UniqueID>  (11) 
11

>  <SMILES>  (11) 
CCNCC[NH2+]c1c2[nH]ccc2cc2[n+]1CCc1cc3c(cc1-2)OCO3

>  <Energy>  (11) 
122.55541195627046

>  <Genealogy>  (11) 
CCNCC[NH2+]c1c2[nH]ccc2cc2[n+]1CCc1cc3c(cc1-2)OCO3 (protonated)
CCNCC[NH2+]c1c2[nH]ccc2cc2[n+]1CCc1cc3c(cc1-2)OCO3 (3D coordinates assigned)
CCNCC[NH2+]c1c2[nH]ccc2cc2[n+]1CCc1cc3c(cc1-2)OCO3 (nonaromatic ring conformer: 122.55541195627046 kcal/mol)

>  <smiles>  (11) 
CCNCCNc1c2[nH]ccc2cc2[n+]1CCc1cc3c(cc1-2)OCO3

>  <score_type>  (11) 
oracle

>  <origin>  (11) 
adg

>  <m_score__min__energy>  (11) 
-7.4500000000000002

>  <m_primary>  (11) 
energy

$$$$
11:0
     RDKit          3D

 44 47  0  0  0  0  0  0  0  0999 V2000
   -6.5300   25.2510  -29.7430 C   0  0  0  0  0  0  0  0  0  0  0  0
   -5.1000   25.2070  -30.2650 C   0  0  0  0  0  0  0  0  0  0  0  0
   -4.9890   24.1960  -31.3220 N   0  0  0  0  0  0  0  0  0  0  0  0
   -4.1510   23.0500  -30.9290 C   0  0  0  0  0  0  0  0  0  0  0  0
   -3.9660   21.9920  -32.0380 C   0  0  0  0  0  0  0  0  0  0  0  0
   -4.9870   22.1030  -33.0920 N   0  0  0  0  0  0  0  0  0  0  0  0
   -6.0640   21.1680  -32.8450 C   0  0  0  0  0  0  0  0  0  0  0  0
   -5.9680   19.7700  -33.1240 C   0  0  0  0  0  0  0  0  0  0  0  0
   -4.8040   19.1860  -33.6600 C   0  0  0  0  0  0  0  0  0  0  0  0
   -4.7540   17.8110  -33.9130 C   0  0  0  0  0  0  0  0  0  0  0  0
   -3.6010   17.2140  -34.4490 C   0  0  0  0  0  0  0  0  0  0  0  0
   -3.5760   15.8370  -34.6940 C   0  0  0  0  0  0  0  0  0  0  0  0
   -4.6950   15.0520  -34.4050 C   0  0  0  0  0  0  0  0  0  0  0  0
   -5.8460   15.6380  -33.8700 C   0  0  0  0  0  0  0  0  0  0  0  0
   -5.8810   17.0160  -33.6220 C   0  0  0  0  0  0  0  0  0  0  0  0
   -6.9960   17.5830  -33.0980 N   0  0  0  0  0  0  0  0  0  0  0  0
   -7.0880   18.9170  -32.8360 C   0  0  0  0  0  0  0  0  0  0  0  0
   -8.2460   19.4300  -32.2910 N   0  0  0  0  0  0  0  0  0  0  0  0
   -9.3820   18.5600  -31.9660 C   0  0  0  0  0  0  0  0  0  0  0  0
   -8.2790   20.7610  -32.0060 C   0  0  0  0  0  0  0  0  0  0  0  0
   -9.2770   21.4570  -31.4390 N   0  0  0  0  0  0  0  0  0  0  0  0
   -8.8180   22.6820  -31.3780 O   0  0  0  0  0  0  0  0  0  0  0  0
   -7.6080   22.8300  -31.8570 N   0  0  0  0  0  0  0  0  0  0  0  0
   -7.2540   21.6000  -32.2630 C   0  0  0  0  0  0  0  0  0  0  0  0
   -6.5190   25.2507  -28.6431 H   0  0  0  0  0  0  0  0  0  0  0  0
   -7.0243   26.1648  -30.1045 H   0  0  0  0  0  0  0  0  0  0  0  0
   -7.0796   24.3693  -30.1045 H   0  0  0  0  0  0  0  0  0  0  0  0
   -4.8291   26.1924  -30.6720 H   0  0  0  0  0  0  0  0  0  0  0  0
   -4.4197   24.9474  -29.4405 H   0  0  0  0  0  0  0  0  0  0  0  0
   -5.9420   23.8670  -31.5990 H   0  0  0  0  0  0  0  0  0  0  0  0
   -3.1583   23.4296  -30.6453 H   0  0  0  0  0  0  0  0  0  0  0  0
   -4.6693   22.5496  -30.0978 H   0  0  0  0  0  0  0  0  0  0  0  0
   -2.9730   22.1254  -32.4920 H   0  0  0  0  0  0  0  0  0  0  0  0
   -4.0663   20.9989  -31.5757 H   0  0  0  0  0  0  0  0  0  0  0  0
   -4.5740   21.9420  -34.0390 H   0  0  0  0  0  0  0  0  0  0  0  0
   -5.3730   23.0750  -33.0960 H   0  0  0  0  0  0  0  0  0  0  0  0
   -3.9289   19.8147  -33.8811 H   0  0  0  0  0  0  0  0  0  0  0  0
   -2.7179   17.8292  -34.6761 H   0  0  0  0  0  0  0  0  0  0  0  0
   -2.6730   15.3711  -35.1153 H   0  0  0  0  0  0  0  0  0  0  0  0
   -4.6703   13.9695  -34.5990 H   0  0  0  0  0  0  0  0  0  0  0  0
   -6.7248   15.0163  -33.6436 H   0  0  0  0  0  0  0  0  0  0  0  0
   -9.4835   18.4823  -30.8735 H   0  0  0  0  0  0  0  0  0  0  0  0
  -10.3032   18.9858  -32.3905 H   0  0  0  0  0  0  0  0  0  0  0  0
   -9.2110   17.5597  -32.3905 H   0  0  0  0  0  0  0  0  0  0  0  0
  1  2  1  0
  2  3  1  0
  3  4  1  0
  4  5  1  0
  5  6  1  0
  6  7  1  0
  7  8  2  0
  8  9  1  0
  9 10  2  0
 10 11  1  0
 11 12  2  0
 12 13  1  0
 13 14  2  0
 14 15  1  0
 15 16  2  0
 16 17  1  0
 17 18  2  0
 18 19  1  0
 18 20  1  0
 20 21  2  0
 21 22  1  0
 22 23  1  0
 23 24  2  0
 24  7  1  0
 17  8  1  0
 24 20  1  0
 15 10  1  0
  1 25  1  0
  1 26  1  0
  1 27  1  0
  2 28  1  0
  2 29  1  0
  3 30  1  0
  4 31  1  0
  4 32  1  0
  5 33  1  0
  5 34  1  0
  6 35  1  0
  6 36  1  0
  9 37  1  0
 11 38  1  0
 12 39  1  0
 13 40  1  0
 14 41  1  0
 19 42  1  0
 19 43  1  0
 19 44  1  0
M  CHG  2   6   1  18   1
M  END
>  <UniqueID>  (12) 
12

>  <SMILES>  (12) 
CCNCC[NH2+]c1c2cc3ccccc3nc2[n+](C)c2nonc12

>  <Energy>  (12) 
99.10648582519337

>  <Genealogy>  (12) 
CCNCC[NH2+]c1c2cc3ccccc3nc2[n+](C)c2nonc12 (protonated)
CCNCC[NH2+]c1c2cc3ccccc3nc2[n+](C)c2nonc12 (3D coordinates assigned)
CCNCC[NH2+]c1c2cc3ccccc3nc2[n+](C)c2nonc12 (optimized conformer: 99.10648582519337 kcal/mol)

>  <smiles>  (12) 
CCNCCNc1c2cc3ccccc3nc2[n+](C)c2nonc12

>  <score_type>  (12) 
oracle

>  <origin>  (12) 
adg

>  <m_score__min__energy>  (12) 
-8.0399999999999991

>  <m_primary>  (12) 
energy

$$$$
12:0
     RDKit          3D

 57 59  0  0  0  0  0  0  0  0999 V2000
   -6.1160   25.5700  -29.3290 C   0  0  0  0  0  0  0  0  0  0  0  0
   -5.4340   25.9140  -30.6480 C   0  0  0  0  0  0  0  0  0  0  0  0
   -4.1040   25.2930  -30.7190 N   0  0  0  0  0  0  0  0  0  0  0  0
   -4.1950   23.8280  -30.7850 C   0  0  0  0  0  0  0  0  0  0  0  0
   -5.4890   23.3980  -31.4840 C   0  0  0  0  0  0  0  0  0  0  0  0
   -5.2170   22.6560  -32.7180 N   0  0  0  0  0  0  0  0  0  0  0  0
   -5.3820   21.2300  -32.8140 C   0  0  0  0  0  0  0  0  0  0  0  0
   -6.6340   20.6390  -32.5740 C   0  0  0  0  0  0  0  0  0  0  0  0
   -7.7110   21.4000  -32.0710 C   0  0  0  0  0  0  0  0  0  0  0  0
   -8.9440   20.8060  -31.8130 C   0  0  0  0  0  0  0  0  0  0  0  0
   -9.1180   19.4420  -32.0230 C   0  0  0  0  0  0  0  0  0  0  0  0
   -8.0630   18.6660  -32.5000 C   0  0  0  0  0  0  0  0  0  0  0  0
   -6.8050   19.2470  -32.8050 C   0  0  0  0  0  0  0  0  0  0  0  0
   -5.7520   18.4910  -33.2860 N   0  0  0  0  0  0  0  0  0  0  0  0
   -5.9950   17.1250  -33.7980 C   0  0  0  0  0  0  0  0  0  0  0  0
   -4.4750   19.0200  -33.3020 C   0  0  0  0  0  0  0  0  0  0  0  0
   -3.3350   18.2060  -33.5010 C   0  0  0  0  0  0  0  0  0  0  0  0
   -2.0570   18.7560  -33.5680 C   0  0  0  0  0  0  0  0  0  0  0  0
   -1.8630   20.1350  -33.4420 C   0  0  0  0  0  0  0  0  0  0  0  0
   -0.5320   20.7020  -33.5140 N   0  0  0  0  0  0  0  0  0  0  0  0
    0.4310   20.4850  -32.4190 C   0  0  0  0  0  0  0  0  0  0  0  0
   -0.1970   20.8090  -31.0680 C   0  0  0  0  0  0  0  0  0  0  0  0
   -0.1390   21.5320  -34.6680 C   0  0  0  0  0  0  0  0  0  0  0  0
    0.2800   20.6590  -35.8480 C   0  0  0  0  0  0  0  0  0  0  0  0
   -2.9800   20.9540  -33.2130 C   0  0  0  0  0  0  0  0  0  0  0  0
   -4.2770   20.4100  -33.1050 C   0  0  0  0  0  0  0  0  0  0  0  0
   -5.4788   25.8914  -28.4920 H   0  0  0  0  0  0  0  0  0  0  0  0
   -7.0852   26.0871  -29.2716 H   0  0  0  0  0  0  0  0  0  0  0  0
   -6.2762   24.4832  -29.2716 H   0  0  0  0  0  0  0  0  0  0  0  0
   -6.0504   25.5449  -31.4809 H   0  0  0  0  0  0  0  0  0  0  0  0
   -5.3199   27.0060  -30.7144 H   0  0  0  0  0  0  0  0  0  0  0  0
   -3.6480   25.6220  -31.6030 H   0  0  0  0  0  0  0  0  0  0  0  0
   -3.3338   23.4374  -31.3469 H   0  0  0  0  0  0  0  0  0  0  0  0
   -4.1954   23.4266  -29.7608 H   0  0  0  0  0  0  0  0  0  0  0  0
   -6.0664   22.7565  -30.8021 H   0  0  0  0  0  0  0  0  0  0  0  0
   -6.0549   24.3041  -31.7461 H   0  0  0  0  0  0  0  0  0  0  0  0
   -4.9810   23.1930  -33.5840 H   0  0  0  0  0  0  0  0  0  0  0  0
   -7.5749   22.4748  -31.8805 H   0  0  0  0  0  0  0  0  0  0  0  0
   -9.7811   21.4161  -31.4428 H   0  0  0  0  0  0  0  0  0  0  0  0
  -10.0911   18.9744  -31.8120 H   0  0  0  0  0  0  0  0  0  0  0  0
   -8.2081   17.5850  -32.6424 H   0  0  0  0  0  0  0  0  0  0  0  0
   -6.1181   16.4328  -32.9520 H   0  0  0  0  0  0  0  0  0  0  0  0
   -6.9081   17.1204  -34.4114 H   0  0  0  0  0  0  0  0  0  0  0  0
   -5.1395   16.8058  -34.4114 H   0  0  0  0  0  0  0  0  0  0  0  0
   -3.4603   17.1181  -33.6048 H   0  0  0  0  0  0  0  0  0  0  0  0
   -1.1896   18.0973  -33.7220 H   0  0  0  0  0  0  0  0  0  0  0  0
    0.7506   19.4325  -32.4241 H   0  0  0  0  0  0  0  0  0  0  0  0
    1.2935   21.1500  -32.5734 H   0  0  0  0  0  0  0  0  0  0  0  0
    0.4687   20.4656  -30.2624 H   0  0  0  0  0  0  0  0  0  0  0  0
   -0.3446   21.8958  -30.9834 H   0  0  0  0  0  0  0  0  0  0  0  0
   -1.1682   20.2994  -30.9834 H   0  0  0  0  0  0  0  0  0  0  0  0
   -0.9918   22.1586  -34.9682 H   0  0  0  0  0  0  0  0  0  0  0  0
    0.7147   22.1607  -34.3748 H   0  0  0  0  0  0  0  0  0  0  0  0
    0.7275   19.7265  -35.4735 H   0  0  0  0  0  0  0  0  0  0  0  0
   -0.6025   20.4221  -36.4604 H   0  0  0  0  0  0  0  0  0  0  0  0
    1.0169   21.1993  -36.4604 H   0  0  0  0  0  0  0  0  0  0  0  0
   -2.8411   22.0409  -33.1159 H   0  0  0  0  0  0  0  0  0  0  0  0
  1  2  1  0
  2  3  1  0
  3  4  1  0
  4  5  1  0
  5  6  1  0
  6  7  1  0
  7  8  2  0
  8  9  1  0
  9 10  2  0
 10 11  1  0
 11 12  2  0
 12 13  1  0
 13 14  2  0
 14 15  1  0
 14 16  1  0
 16 17  2  0
 17 18  1  0
 18 19  2  0
 19 20  1  0
 20 21  1  0
 21 22  1  0
 20 23  1  0
 23 24  1  0
 19 25  1  0
 25 26  2  0
 26  7  1  0
 13  8  1  0
 26 16  1  0
  1 27  1  0
  1 28  1  0
  1 29  1  0
  2 30  1  0
  2 31  1  0
  3 32  1  0
  4 33  1  0
  4 34  1  0
  5 35  1  0
  5 36  1  0
  6 37  1  0
  9 38  1  0
 10 39  1  0
 11 40  1  0
 12 41  1  0
 15 42  1  0
 15 43  1  0
 15 44  1  0
 17 45  1  0
 18 46  1  0
 21 47  1  0
 21 48  1  0
 22 49  1  0
 22 50  1  0
 22 51  1  0
 23 52  1  0
 23 53  1  0
 24 54  1  0
 24 55  1  0
 24 56  1  0
 25 57  1  0
M  CHG  1  14   1
M  END
>  <UniqueID>  (13) 
13

>  <SMILES>  (13) 
CCNCCNc1c2ccccc2[n+](C)c2ccc(N(CC)CC)cc12

>  <Energy>  (13) 
73.17243991783431

>  <Genealogy>  (13) 
CCNCCNc1c2ccccc2[n+](C)c2ccc(N(CC)CC)cc12 (3D coordinates assigned)
CCNCCNc1c2ccccc2[n+](C)c2ccc(N(CC)CC)cc12 (optimized conformer: 73.17243991783431 kcal/mol)

>  <smiles>  (13) 
CCNCCNc1c2ccccc2[n+](C)c2ccc(N(CC)CC)cc12

>  <score_type>  (13) 
oracle

>  <origin>  (13) 
adg

>  <m_score__min__energy>  (13) 
-9.2300000000000004

>  <m_primary>  (13) 
energy

$$$$
13:0
     RDKit          3D

 49 51  0  0  0  0  0  0  0  0999 V2000
   -8.7570   20.0850  -31.2810 C   0  0  0  0  0  0  0  0  0  0  0  0
   -8.7870   19.4000  -32.6470 C   0  0  0  0  0  0  0  0  0  0  0  0
   -7.4310   19.0130  -33.0650 N   0  0  0  0  0  0  0  0  0  0  0  0
   -7.2340   17.5510  -33.0350 C   0  0  0  0  0  0  0  0  0  0  0  0
   -5.8360   17.1370  -32.5500 C   0  0  0  0  0  0  0  0  0  0  0  0
   -5.0430   18.2860  -32.3380 O   0  0  0  0  0  0  0  0  0  0  0  0
   -4.1300   18.4800  -33.4020 C   0  0  0  0  0  0  0  0  0  0  0  0
   -3.1770   19.6400  -33.0910 C   0  0  0  0  0  0  0  0  0  0  0  0
   -3.8540   20.7000  -32.3350 N   0  0  0  0  0  0  0  0  0  0  0  0
   -3.2500   21.1850  -31.2470 N   0  0  0  0  0  0  0  0  0  0  0  0
   -3.7940   22.1620  -30.4750 C   0  0  0  0  0  0  0  0  0  0  0  0
   -3.0180   22.6390  -29.3090 C   0  0  0  0  0  0  0  0  0  0  0  0
   -2.5370   21.7160  -28.3610 C   0  0  0  0  0  0  0  0  0  0  0  0
   -2.8050   20.3920  -28.4910 F   0  0  0  0  0  0  0  0  0  0  0  0
   -1.7930   22.1610  -27.2640 C   0  0  0  0  0  0  0  0  0  0  0  0
   -1.5140   23.5210  -27.1090 C   0  0  0  0  0  0  0  0  0  0  0  0
   -1.9670   24.4400  -28.0570 C   0  0  0  0  0  0  0  0  0  0  0  0
   -2.7080   24.0040  -29.1610 C   0  0  0  0  0  0  0  0  0  0  0  0
   -3.1050   24.9070  -30.0930 F   0  0  0  0  0  0  0  0  0  0  0  0
   -5.0640   22.6760  -30.8110 C   0  0  0  0  0  0  0  0  0  0  0  0
   -5.7280   23.6330  -30.0150 C   0  0  0  0  0  0  0  0  0  0  0  0
   -6.9810   24.1220  -30.3900 C   0  0  0  0  0  0  0  0  0  0  0  0
   -7.5950   23.6580  -31.5520 C   0  0  0  0  0  0  0  0  0  0  0  0
   -6.9670   22.6930  -32.3400 C   0  0  0  0  0  0  0  0  0  0  0  0
   -5.7040   22.1850  -31.9730 C   0  0  0  0  0  0  0  0  0  0  0  0
   -5.0720   21.1860  -32.7320 C   0  0  0  0  0  0  0  0  0  0  0  0
   -5.6300   20.7280  -33.7680 O   0  0  0  0  0  0  0  0  0  0  0  0
   -8.7904   19.3233  -30.4881 H   0  0  0  0  0  0  0  0  0  0  0  0
   -7.8322   20.6730  -31.1859 H   0  0  0  0  0  0  0  0  0  0  0  0
   -9.6268   20.7516  -31.1859 H   0  0  0  0  0  0  0  0  0  0  0  0
   -9.4165   18.5000  -32.5858 H   0  0  0  0  0  0  0  0  0  0  0  0
   -9.1974   20.1036  -33.3863 H   0  0  0  0  0  0  0  0  0  0  0  0
   -6.7200   19.4910  -32.4640 H   0  0  0  0  0  0  0  0  0  0  0  0
   -7.2840   19.3340  -34.0510 H   0  0  0  0  0  0  0  0  0  0  0  0
   -7.9825   17.1114  -32.3594 H   0  0  0  0  0  0  0  0  0  0  0  0
   -7.3427   17.1859  -34.0669 H   0  0  0  0  0  0  0  0  0  0  0  0
   -5.9275   16.5775  -31.6073 H   0  0  0  0  0  0  0  0  0  0  0  0
   -5.3601   16.5032  -33.3128 H   0  0  0  0  0  0  0  0  0  0  0  0
   -3.5444   17.5603  -33.5480 H   0  0  0  0  0  0  0  0  0  0  0  0
   -4.6951   18.7204  -34.3146 H   0  0  0  0  0  0  0  0  0  0  0  0
   -2.3325   19.2602  -32.4973 H   0  0  0  0  0  0  0  0  0  0  0  0
   -2.8249   20.0640  -34.0430 H   0  0  0  0  0  0  0  0  0  0  0  0
   -1.4262   21.4379  -26.5207 H   0  0  0  0  0  0  0  0  0  0  0  0
   -0.9369   23.8680  -26.2392 H   0  0  0  0  0  0  0  0  0  0  0  0
   -1.7409   25.5097  -27.9359 H   0  0  0  0  0  0  0  0  0  0  0  0
   -5.2547   23.9970  -29.0912 H   0  0  0  0  0  0  0  0  0  0  0  0
   -7.4848   24.8754  -29.7667 H   0  0  0  0  0  0  0  0  0  0  0  0
   -8.5775   24.0538  -31.8487 H   0  0  0  0  0  0  0  0  0  0  0  0
   -7.4599   22.3265  -33.2525 H   0  0  0  0  0  0  0  0  0  0  0  0
  1  2  1  0
  2  3  1  0
  3  4  1  0
  4  5  1  0
  5  6  1  0
  6  7  1  0
  7  8  1  0
  8  9  1  0
  9 10  1  0
 10 11  2  0
 11 12  1  0
 12 13  2  0
 13 14  1  0
 13 15  1  0
 15 16  2  0
 16 17  1  0
 17 18  2  0
 18 19  1  0
 11 20  1  0
 20 21  2  0
 21 22  1  0
 22 23  2  0
 23 24  1  0
 24 25  2  0
 25 26  1  0
 26 27  2  0
 26  9  1  0
 18 12  1  0
 25 20  1  0
  1 28  1  0
  1 29  1  0
  1 30  1  0
  2 31  1  0
  2 32  1  0
  3 33  1  0
  3 34  1  0
  4 35  1  0
  4 36  1  0
  5 37  1  0
  5 38  1  0
  7 39  1  0
  7 40  1  0
  8 41  1  0
  8 42  1  0
 15 43  1  0
 16 44  1  0
 17 45  1  0
 21 46  1  0
 22 47  1  0
 23 48  1  0
 24 49  1  0
M  CHG  1   3   1
M  END
>  <UniqueID>  (14) 
14

>  <SMILES>  (14) 
CC[NH2+]CCOCCn1nc(-c2c(F)cccc2F)c2ccccc2c1=O

>  <Energy>  (14) 
59.16961734104753

>  <Genealogy>  (14) 
CC[NH2+]CCOCCn1nc(-c2c(F)cccc2F)c2ccccc2c1=O (protonated)
CC[NH2+]CCOCCn1nc(-c2c(F)cccc2F)c2ccccc2c1=O (3D coordinates assigned)
CC[NH2+]CCOCCn1nc(-c2c(F)cccc2F)c2ccccc2c1=O (optimized conformer: 59.16961734104753 kcal/mol)

>  <smiles>  (14) 
CCNCCOCCn1nc(-c2c(F)cccc2F)c2ccccc2c1=O

>  <score_type>  (14) 
oracle

>  <origin>  (14) 
adg

>  <m_score__min__energy>  (14) 
-8.0800000000000001

>  <m_primary>  (14) 
energy

$$$$
14:0
     RDKit          3D

 64 67  0  0  1  0  0  0  0  0999 V2000
   -2.2940   19.6540  -26.9730 C   0  0  0  0  0  0  0  0  0  0  0  0
   -2.9380   20.8970  -27.6010 C   0  0  0  0  0  0  0  0  0  0  0  0
   -2.3180   21.1430  -28.8660 N   0  0  0  0  0  0  0  0  0  0  0  0
   -0.8960   21.0560  -28.8760 C   0  0  0  0  0  0  0  0  0  0  0  0
   -0.2270   21.6780  -30.0760 C   0  0  0  0  0  0  0  0  0  0  0  0
   -1.1720   22.2780  -30.9300 O   0  0  0  0  0  0  0  0  0  0  0  0
   -2.0170   21.4680  -31.6710 C   0  0  0  0  0  0  0  0  0  0  0  0
   -1.4600   20.3940  -32.3040 C   0  0  0  0  0  0  0  0  0  0  0  0
   -2.2820   19.5880  -33.0390 C   0  0  0  0  0  0  0  0  0  0  0  0
   -1.7320   18.5330  -33.6610 N   0  0  0  0  0  0  0  0  0  0  0  0
   -2.4970   17.7030  -34.4010 C   0  0  0  0  0  0  0  0  0  0  0  0
   -3.8010   17.9940  -34.4720 N   0  0  0  0  0  0  0  0  0  0  0  0
   -4.3910   19.0440  -33.8620 C   0  0  0  0  0  0  0  0  0  0  0  0
   -5.5900   19.2230  -34.0120 N   0  0  0  0  0  0  0  0  0  0  0  0
   -6.6420   19.2980  -33.1660 C   0  0  0  0  0  0  0  0  0  0  0  0
   -7.2560   18.0960  -32.7290 C   0  0  0  0  0  0  0  0  0  0  0  0
   -8.4250   18.1960  -31.9720 C   0  0  0  0  0  0  0  0  0  0  0  0
   -8.9780   19.4060  -31.6480 C   0  0  0  0  0  0  0  0  0  0  0  0
   -8.3880   20.5690  -32.0670 C   0  0  0  0  0  0  0  0  0  0  0  0
   -9.1120   22.3000  -31.6480 Br  0  0  0  0  0  0  0  0  0  0  0  0
   -7.2460   20.5310  -32.8090 C   0  0  0  0  0  0  0  0  0  0  0  0
   -3.6300   19.8990  -33.1030 C   0  0  0  0  0  0  0  0  0  0  0  0
   -4.1650   20.9810  -32.4580 C   0  0  0  0  0  0  0  0  0  0  0  0
   -3.3390   21.8270  -31.6940 C   0  0  0  0  0  0  0  0  0  0  0  0
   -3.7370   22.9130  -31.0160 O   0  0  0  0  0  0  0  0  0  0  0  0
   -4.8600   23.6340  -30.8020 C   0  0  0  0  0  0  0  0  0  0  0  0
   -5.2820   23.7730  -29.3510 C   0  0  0  0  0  0  0  0  0  0  0  0
   -4.1620   23.3580  -28.5300 N   0  0  0  0  0  0  0  0  0  0  0  0
   -3.5980   24.4120  -27.7330 C   0  0  0  0  0  0  0  0  0  0  0  0
   -2.1200   24.2830  -27.5510 C   0  0  0  0  0  0  0  0  0  0  0  0
   -1.5260   23.8310  -26.4170 C   0  0  0  0  0  0  0  0  0  0  0  0
   -0.1300   23.7660  -26.4000 C   0  0  0  0  0  0  0  0  0  0  0  0
    0.6320   24.1460  -27.4860 C   0  0  0  0  0  0  0  0  0  0  0  0
    0.0020   24.5900  -28.5970 N   0  0  0  0  0  0  0  0  0  0  0  0
   -1.3370   24.6580  -28.6290 C   0  0  0  0  0  0  0  0  0  0  0  0
   -2.3354   19.7339  -25.8767 H   0  0  0  0  0  0  0  0  0  0  0  0
   -2.8399   18.7553  -27.2960 H   0  0  0  0  0  0  0  0  0  0  0  0
   -1.2450   19.5817  -27.2960 H   0  0  0  0  0  0  0  0  0  0  0  0
   -4.0150   20.7243  -27.7436 H   0  0  0  0  0  0  0  0  0  0  0  0
   -2.8006   21.7656  -26.9402 H   0  0  0  0  0  0  0  0  0  0  0  0
   -2.6790   21.9740  -29.3440 H   0  0  0  0  0  0  0  0  0  0  0  0
   -0.5171   21.5602  -27.9748 H   0  0  0  0  0  0  0  0  0  0  0  0
   -0.6542   19.9835  -28.9113 H   0  0  0  0  0  0  0  0  0  0  0  0
    0.4847   22.4437  -29.7336 H   0  0  0  0  0  0  0  0  0  0  0  0
    0.2946   20.8865  -30.6340 H   0  0  0  0  0  0  0  0  0  0  0  0
   -0.3831   20.1845  -32.2245 H   0  0  0  0  0  0  0  0  0  0  0  0
   -2.0701   16.8317  -34.9193 H   0  0  0  0  0  0  0  0  0  0  0  0
   -4.3800   17.3240  -35.0620 H   0  0  0  0  0  0  0  0  0  0  0  0
   -6.8244   17.1155  -32.9788 H   0  0  0  0  0  0  0  0  0  0  0  0
   -8.9165   17.2750  -31.6255 H   0  0  0  0  0  0  0  0  0  0  0  0
   -9.8997   19.4442  -31.0489 H   0  0  0  0  0  0  0  0  0  0  0  0
   -6.7838   21.4737  -33.1373 H   0  0  0  0  0  0  0  0  0  0  0  0
   -5.2421   21.1899  -32.5367 H   0  0  0  0  0  0  0  0  0  0  0  0
   -4.6958   24.6442  -31.2052 H   0  0  0  0  0  0  0  0  0  0  0  0
   -5.6713   23.0833  -31.3005 H   0  0  0  0  0  0  0  0  0  0  0  0
   -5.5396   24.8201  -29.1334 H   0  0  0  0  0  0  0  0  0  0  0  0
   -6.1658   23.1519  -29.1433 H   0  0  0  0  0  0  0  0  0  0  0  0
   -3.4030   23.0150  -29.1750 H   0  0  0  0  0  0  0  0  0  0  0  0
   -3.8075   25.3733  -28.2250 H   0  0  0  0  0  0  0  0  0  0  0  0
   -4.0578   24.3508  -26.7356 H   0  0  0  0  0  0  0  0  0  0  0  0
   -2.1216   23.5271  -25.5436 H   0  0  0  0  0  0  0  0  0  0  0  0
    0.3763   23.4012  -25.4942 H   0  0  0  0  0  0  0  0  0  0  0  0
    1.7299   24.0888  -27.4486 H   0  0  0  0  0  0  0  0  0  0  0  0
   -1.8293   25.0239  -29.5421 H   0  0  0  0  0  0  0  0  0  0  0  0
  1  2  1  0
  2  3  1  0
  3  4  1  0
  4  5  1  0
  5  6  1  0
  6  7  1  0
  7  8  2  0
  8  9  1  0
  9 10  1  0
 10 11  2  0
 11 12  1  0
 12 13  1  0
 13 14  2  0
 14 15  1  0
 15 16  2  0
 16 17  1  0
 17 18  2  0
 18 19  1  0
 19 20  1  0
 19 21  2  0
 13 22  1  0
 22 23  1  0
 23 24  2  0
 24 25  1  0
 25 26  1  0
 26 27  1  0
 27 28  1  0
 28 29  1  0
 29 30  1  0
 30 31  2  0
 31 32  1  0
 32 33  2  0
 33 34  1  0
 34 35  2  0
 24  7  1  0
 35 30  1  0
 22  9  2  0
 21 15  1  0
  1 36  1  0
  1 37  1  0
  1 38  1  0
  2 39  1  0
  2 40  1  0
  3 41  1  0
  4 42  1  0
  4 43  1  0
  5 44  1  0
  5 45  1  0
  8 46  1  0
 11 47  1  0
 12 48  1  0
 16 49  1  0
 17 50  1  0
 18 51  1  0
 21 52  1  0
 23 53  1  0
 26 54  1  0
 26 55  1  0
 27 56  1  0
 27 57  1  0
 28 58  1  0
 29 59  1  0
 29 60  1  0
 31 61  1  0
 32 62  1  0
 33 63  1  0
 35 64  1  0
M  END
>  <smiles>  (15) 
CCNCCOc1cc2nc[nH]c(=Nc3cccc(Br)c3)c2cc1OCCNCc1cccnc1

>  <score_type>  (15) 
oracle

>  <origin>  (15) 
adg

>  <m_score__min__energy>  (15) 
-8.9199999999999999

>  <m_primary>  (15) 
energy

$$$$
15:0
     RDKit          3D

 43 44  0  0  0  0  0  0  0  0999 V2000
   -9.7020   21.5260  -31.9390 C   0  0  0  0  0  0  0  0  0  0  0  0
   -8.7290   21.9050  -30.8240 C   0  0  0  0  0  0  0  0  0  0  0  0
   -7.3490   22.0710  -31.3360 N   0  0  0  0  0  0  0  0  0  0  0  0
   -6.8480   23.4620  -31.2210 C   0  0  0  0  0  0  0  0  0  0  0  0
   -5.3510   23.4770  -31.1400 C   0  0  0  0  0  0  0  0  0  0  0  0
   -4.7370   24.5750  -31.2160 O   0  0  0  0  0  0  0  0  0  0  0  0
   -4.6240   22.2420  -31.0490 N   0  0  0  0  0  0  0  0  0  0  0  0
   -3.2140   22.1710  -30.7760 C   0  0  0  0  0  0  0  0  0  0  0  0
   -2.7200   22.6260  -29.5380 C   0  0  0  0  0  0  0  0  0  0  0  0
   -1.3640   22.5190  -29.2310 C   0  0  0  0  0  0  0  0  0  0  0  0
   -0.4840   21.9460  -30.1460 C   0  0  0  0  0  0  0  0  0  0  0  0
   -0.9550   21.4800  -31.3740 C   0  0  0  0  0  0  0  0  0  0  0  0
   -2.3180   21.5950  -31.7130 C   0  0  0  0  0  0  0  0  0  0  0  0
   -2.8090   21.0810  -33.0520 C   0  0  0  0  0  0  0  0  0  0  0  0
   -3.3520   19.8160  -32.9070 F   0  0  0  0  0  0  0  0  0  0  0  0
   -3.7870   21.9040  -33.5860 F   0  0  0  0  0  0  0  0  0  0  0  0
   -1.7510   21.0260  -33.9390 F   0  0  0  0  0  0  0  0  0  0  0  0
   -7.2030   21.5380  -32.7120 C   0  0  0  0  0  0  0  0  0  0  0  0
   -6.8280   20.0700  -32.7580 C   0  0  0  0  0  0  0  0  0  0  0  0
   -6.1360   19.5460  -33.8650 C   0  0  0  0  0  0  0  0  0  0  0  0
   -5.7820   18.1940  -33.9020 C   0  0  0  0  0  0  0  0  0  0  0  0
   -6.1200   17.3520  -32.8400 C   0  0  0  0  0  0  0  0  0  0  0  0
   -6.8180   17.8590  -31.7410 C   0  0  0  0  0  0  0  0  0  0  0  0
   -7.1750   19.2100  -31.7000 C   0  0  0  0  0  0  0  0  0  0  0  0
  -10.6409   21.1603  -31.4977 H   0  0  0  0  0  0  0  0  0  0  0  0
   -9.9089   22.4093  -32.5611 H   0  0  0  0  0  0  0  0  0  0  0  0
   -9.2569   20.7355  -32.5611 H   0  0  0  0  0  0  0  0  0  0  0  0
   -9.0575   22.8517  -30.3704 H   0  0  0  0  0  0  0  0  0  0  0  0
   -8.7246   21.0935  -30.0814 H   0  0  0  0  0  0  0  0  0  0  0  0
   -7.1684   24.0360  -32.1030 H   0  0  0  0  0  0  0  0  0  0  0  0
   -7.2579   23.9127  -30.3051 H   0  0  0  0  0  0  0  0  0  0  0  0
   -5.1480   21.3540  -31.2200 H   0  0  0  0  0  0  0  0  0  0  0  0
   -3.4107   23.0701  -28.8061 H   0  0  0  0  0  0  0  0  0  0  0  0
   -0.9888   22.8876  -28.2649 H   0  0  0  0  0  0  0  0  0  0  0  0
    0.5847   21.8606  -29.9000 H   0  0  0  0  0  0  0  0  0  0  0  0
   -0.2547   21.0178  -32.0853 H   0  0  0  0  0  0  0  0  0  0  0  0
   -8.1596   21.6691  -33.2390 H   0  0  0  0  0  0  0  0  0  0  0  0
   -6.3829   22.0953  -33.1883 H   0  0  0  0  0  0  0  0  0  0  0  0
   -5.8719   20.2037  -34.7062 H   0  0  0  0  0  0  0  0  0  0  0  0
   -5.2364   17.7927  -34.7688 H   0  0  0  0  0  0  0  0  0  0  0  0
   -5.8366   16.2895  -32.8689 H   0  0  0  0  0  0  0  0  0  0  0  0
   -7.0870   17.1942  -30.9069 H   0  0  0  0  0  0  0  0  0  0  0  0
   -7.7304   19.6029  -30.8356 H   0  0  0  0  0  0  0  0  0  0  0  0
  1  2  1  0
  2  3  1  0
  3  4  1  0
  4  5  1  0
  5  6  2  0
  5  7  1  0
  7  8  1  0
  8  9  2  0
  9 10  1  0
 10 11  2  0
 11 12  1  0
 12 13  2  0
 13 14  1  0
 14 15  1  0
 14 16  1  0
 14 17  1  0
  3 18  1  0
 18 19  1  0
 19 20  2  0
 20 21  1  0
 21 22  2  0
 22 23  1  0
 23 24  2  0
 13  8  1  0
 24 19  1  0
  1 25  1  0
  1 26  1  0
  1 27  1  0
  2 28  1  0
  2 29  1  0
  4 30  1  0
  4 31  1  0
  7 32  1  0
  9 33  1  0
 10 34  1  0
 11 35  1  0
 12 36  1  0
 18 37  1  0
 18 38  1  0
 20 39  1  0
 21 40  1  0
 22 41  1  0
 23 42  1  0
 24 43  1  0
M  END
>  <UniqueID>  (16) 
15

>  <SMILES>  (16) 
CCN(CC(=O)Nc1ccccc1C(F)(F)F)Cc1ccccc1

>  <Energy>  (16) 
50.36292781837557

>  <Genealogy>  (16) 
CCN(CC(=O)Nc1ccccc1C(F)(F)F)Cc1ccccc1 (3D coordinates assigned)
CCN(CC(=O)Nc1ccccc1C(F)(F)F)Cc1ccccc1 (optimized conformer: 50.36292781837557 kcal/mol)

>  <smiles>  (16) 
CCN(CC(=O)Nc1ccccc1C(F)(F)F)Cc1ccccc1

>  <score_type>  (16) 
oracle

>  <origin>  (16) 
adg

>  <m_score__min__energy>  (16) 
-7.7300000000000004

>  <m_primary>  (16) 
energy

$$$$
16:0
     RDKit          3D

 41 44  0  0  0  0  0  0  0  0999 V2000
   -4.9400   15.6240  -32.3600 C   0  0  0  0  0  0  0  0  0  0  0  0
   -5.5040   15.7020  -33.7740 C   0  0  0  0  0  0  0  0  0  0  0  0
   -6.7200   16.4510  -33.7930 O   0  0  0  0  0  0  0  0  0  0  0  0
   -6.8510   17.8080  -33.4530 C   0  0  0  0  0  0  0  0  0  0  0  0
   -5.8980   18.7810  -33.8150 C   0  0  0  0  0  0  0  0  0  0  0  0
   -6.0760   20.1190  -33.4520 C   0  0  0  0  0  0  0  0  0  0  0  0
   -7.2080   20.5080  -32.7170 C   0  0  0  0  0  0  0  0  0  0  0  0
   -7.4220   21.8490  -32.3430 C   0  0  0  0  0  0  0  0  0  0  0  0
   -6.4740   22.8280  -32.6850 O   0  0  0  0  0  0  0  0  0  0  0  0
   -5.5270   23.3810  -31.8130 C   0  0  0  0  0  0  0  0  0  0  0  0
   -5.8290   24.6080  -31.1750 C   0  0  0  0  0  0  0  0  0  0  0  0
   -4.9200   25.1990  -30.2780 C   0  0  0  0  0  0  0  0  0  0  0  0
   -3.7230   24.5310  -30.0340 C   0  0  0  0  0  0  0  0  0  0  0  0
   -2.7250   24.9060  -29.2120 N   0  0  0  0  0  0  0  0  0  0  0  0
   -1.8240   23.8970  -29.3430 C   0  0  0  0  0  0  0  0  0  0  0  0
   -2.2290   22.9300  -30.2040 N   0  0  0  0  0  0  0  0  0  0  0  0
   -1.5170   21.7090  -30.5650 C   0  0  0  0  0  0  0  0  0  0  0  0
   -3.4310   23.3420  -30.6330 C   0  0  0  0  0  0  0  0  0  0  0  0
   -4.3050   22.7230  -31.5240 C   0  0  0  0  0  0  0  0  0  0  0  0
   -8.5630   22.1730  -31.5900 C   0  0  0  0  0  0  0  0  0  0  0  0
   -9.4780   21.1750  -31.2500 C   0  0  0  0  0  0  0  0  0  0  0  0
   -9.2610   19.8910  -31.6340 N   0  0  0  0  0  0  0  0  0  0  0  0
   -8.1620   19.5330  -32.3480 C   0  0  0  0  0  0  0  0  0  0  0  0
   -7.9760   18.1960  -32.7170 C   0  0  0  0  0  0  0  0  0  0  0  0
   -5.7573   15.7370  -31.6325 H   0  0  0  0  0  0  0  0  0  0  0  0
   -4.4509   14.6497  -32.2136 H   0  0  0  0  0  0  0  0  0  0  0  0
   -4.2048   16.4290  -32.2136 H   0  0  0  0  0  0  0  0  0  0  0  0
   -4.7685   16.1913  -34.4294 H   0  0  0  0  0  0  0  0  0  0  0  0
   -5.7122   14.6815  -34.1280 H   0  0  0  0  0  0  0  0  0  0  0  0
   -5.0068   18.4851  -34.3879 H   0  0  0  0  0  0  0  0  0  0  0  0
   -5.3269   20.8701  -33.7430 H   0  0  0  0  0  0  0  0  0  0  0  0
   -6.7873   25.1063  -31.3832 H   0  0  0  0  0  0  0  0  0  0  0  0
   -5.1474   26.1563  -29.7862 H   0  0  0  0  0  0  0  0  0  0  0  0
   -0.8645   23.8674  -28.8059 H   0  0  0  0  0  0  0  0  0  0  0  0
   -1.2088   21.1804  -29.6509 H   0  0  0  0  0  0  0  0  0  0  0  0
   -2.1785   21.0605  -31.1582 H   0  0  0  0  0  0  0  0  0  0  0  0
   -0.6268   21.9654  -31.1582 H   0  0  0  0  0  0  0  0  0  0  0  0
   -4.0555   21.7570  -31.9873 H   0  0  0  0  0  0  0  0  0  0  0  0
   -8.7350   23.2110  -31.2690 H   0  0  0  0  0  0  0  0  0  0  0  0
  -10.3770   21.4296  -30.6695 H   0  0  0  0  0  0  0  0  0  0  0  0
   -8.7221   17.4421  -32.4254 H   0  0  0  0  0  0  0  0  0  0  0  0
  1  2  1  0
  2  3  1  0
  3  4  1  0
  4  5  2  0
  5  6  1  0
  6  7  2  0
  7  8  1  0
  8  9  1  0
  9 10  1  0
 10 11  2  0
 11 12  1  0
 12 13  2  0
 13 14  1  0
 14 15  2  0
 15 16  1  0
 16 17  1  0
 16 18  1  0
 18 19  2  0
  8 20  2  0
 20 21  1  0
 21 22  2  0
 22 23  1  0
 23 24  2  0
 24  4  1  0
 23  7  1  0
 19 10  1  0
 18 13  1  0
  1 25  1  0
  1 26  1  0
  1 27  1  0
  2 28  1  0
  2 29  1  0
  5 30  1  0
  6 31  1  0
 11 32  1  0
 12 33  1  0
 15 34  1  0
 17 35  1  0
 17 36  1  0
 17 37  1  0
 19 38  1  0
 20 39  1  0
 21 40  1  0
 24 41  1  0
M  END
>  <UniqueID>  (17) 
16

>  <SMILES>  (17) 
CCOc1ccc2c(Oc3ccc4ncn(C)c4c3)ccnc2c1

>  <Energy>  (17) 
90.18438487247025

>  <Genealogy>  (17) 
CCOc1ccc2c(Oc3ccc4ncn(C)c4c3)ccnc2c1 (3D coordinates assigned)
CCOc1ccc2c(Oc3ccc4ncn(C)c4c3)ccnc2c1 (optimized conformer: 90.18438487247025 kcal/mol)

>  <smiles>  (17) 
CCOc1ccc2c(Oc3ccc4ncn(C)c4c3)ccnc2c1

>  <score_type>  (17) 
oracle

>  <origin>  (17) 
adg

>  <m_score__min__energy>  (17) 
-8.0500000000000007

>  <m_primary>  (17) 
energy

$$$$
17:0
     RDKit          3D

 58 60  0  0  0  0  0  0  0  0999 V2000
   -4.0580   23.8830  -28.0530 C   0  0  0  0  0  0  0  0  0  0  0  0
   -3.3920   24.5740  -29.2510 C   0  0  0  0  0  0  0  0  0  0  0  0
   -4.1760   24.5260  -30.5080 N   0  0  0  0  0  0  0  0  0  0  0  0
   -5.3860   25.3640  -30.4520 C   0  0  0  0  0  0  0  0  0  0  0  0
   -4.4940   23.1600  -30.9770 C   0  0  0  0  0  0  0  0  0  0  0  0
   -3.2230   22.4160  -31.4300 C   0  0  0  0  0  0  0  0  0  0  0  0
   -3.5030   21.3290  -32.4910 C   0  0  0  0  0  0  0  0  0  0  0  0
   -4.6540   21.6510  -33.3630 N   0  0  0  0  0  0  0  0  0  0  0  0
   -5.8100   20.8040  -33.0910 C   0  0  0  0  0  0  0  0  0  0  0  0
   -7.0280   21.3450  -32.5760 C   0  0  0  0  0  0  0  0  0  0  0  0
   -7.2340   22.7410  -32.4050 C   0  0  0  0  0  0  0  0  0  0  0  0
   -8.4410   23.2420  -31.9240 C   0  0  0  0  0  0  0  0  0  0  0  0
   -9.4820   22.3810  -31.6220 C   0  0  0  0  0  0  0  0  0  0  0  0
   -9.3140   21.0100  -31.7660 C   0  0  0  0  0  0  0  0  0  0  0  0
   -8.0810   20.4590  -32.2030 C   0  0  0  0  0  0  0  0  0  0  0  0
   -7.9030   19.0940  -32.2720 N   0  0  0  0  0  0  0  0  0  0  0  0
   -8.8460   18.1900  -31.5740 C   0  0  0  0  0  0  0  0  0  0  0  0
   -6.8280   18.5690  -32.9550 C   0  0  0  0  0  0  0  0  0  0  0  0
   -6.7850   17.1990  -33.3060 C   0  0  0  0  0  0  0  0  0  0  0  0
   -5.6690   16.6390  -33.9170 C   0  0  0  0  0  0  0  0  0  0  0  0
   -4.5480   17.4220  -34.2090 C   0  0  0  0  0  0  0  0  0  0  0  0
   -3.3740   16.8290  -34.8210 N   0  0  0  0  0  0  0  0  0  0  0  0
   -3.4890   15.6180  -35.6410 C   0  0  0  0  0  0  0  0  0  0  0  0
   -2.0510   17.4330  -34.6270 C   0  0  0  0  0  0  0  0  0  0  0  0
   -4.5930   18.7940  -33.9110 C   0  0  0  0  0  0  0  0  0  0  0  0
   -5.7370   19.3980  -33.3240 C   0  0  0  0  0  0  0  0  0  0  0  0
   -3.6554   24.3007  -27.1184 H   0  0  0  0  0  0  0  0  0  0  0  0
   -5.1446   24.0498  -28.0910 H   0  0  0  0  0  0  0  0  0  0  0  0
   -3.8513   22.8033  -28.0910 H   0  0  0  0  0  0  0  0  0  0  0  0
   -3.2277   25.6298  -28.9897 H   0  0  0  0  0  0  0  0  0  0  0  0
   -2.4583   24.0262  -29.4460 H   0  0  0  0  0  0  0  0  0  0  0  0
   -5.6548   25.5502  -29.4017 H   0  0  0  0  0  0  0  0  0  0  0  0
   -5.1921   26.3222  -30.9562 H   0  0  0  0  0  0  0  0  0  0  0  0
   -6.2148   24.8455  -30.9562 H   0  0  0  0  0  0  0  0  0  0  0  0
   -4.9645   22.5992  -30.1559 H   0  0  0  0  0  0  0  0  0  0  0  0
   -5.1771   23.2369  -31.8357 H   0  0  0  0  0  0  0  0  0  0  0  0
   -2.5216   23.1485  -31.8559 H   0  0  0  0  0  0  0  0  0  0  0  0
   -2.8055   21.9117  -30.5460 H   0  0  0  0  0  0  0  0  0  0  0  0
   -2.6080   21.2156  -33.1204 H   0  0  0  0  0  0  0  0  0  0  0  0
   -3.7488   20.4016  -31.9530 H   0  0  0  0  0  0  0  0  0  0  0  0
   -4.3700   21.5510  -34.3620 H   0  0  0  0  0  0  0  0  0  0  0  0
   -4.8530   22.6690  -33.3140 H   0  0  0  0  0  0  0  0  0  0  0  0
   -6.4232   23.4400  -32.6579 H   0  0  0  0  0  0  0  0  0  0  0  0
   -8.5676   24.3256  -31.7836 H   0  0  0  0  0  0  0  0  0  0  0  0
  -10.4427   22.7829  -31.2678 H   0  0  0  0  0  0  0  0  0  0  0  0
  -10.1536   20.3373  -31.5367 H   0  0  0  0  0  0  0  0  0  0  0  0
   -8.7266   18.3044  -30.4865 H   0  0  0  0  0  0  0  0  0  0  0  0
   -9.8774   18.4454  -31.8586 H   0  0  0  0  0  0  0  0  0  0  0  0
   -8.6343   17.1487  -31.8586 H   0  0  0  0  0  0  0  0  0  0  0  0
   -7.6554   16.5619  -33.0903 H   0  0  0  0  0  0  0  0  0  0  0  0
   -5.6678   15.5693  -34.1733 H   0  0  0  0  0  0  0  0  0  0  0  0
   -3.5725   14.7382  -34.9860 H   0  0  0  0  0  0  0  0  0  0  0  0
   -4.3845   15.6888  -36.2759 H   0  0  0  0  0  0  0  0  0  0  0  0
   -2.5962   15.5190  -36.2759 H   0  0  0  0  0  0  0  0  0  0  0  0
   -1.8451   17.5270  -33.5505 H   0  0  0  0  0  0  0  0  0  0  0  0
   -1.2850   16.7954  -35.0925 H   0  0  0  0  0  0  0  0  0  0  0  0
   -2.0310   18.4294  -35.0925 H   0  0  0  0  0  0  0  0  0  0  0  0
   -3.7169   19.4189  -34.1388 H   0  0  0  0  0  0  0  0  0  0  0  0
  1  2  1  0
  2  3  1  0
  3  4  1  0
  3  5  1  0
  5  6  1  0
  6  7  1  0
  7  8  1  0
  8  9  1  0
  9 10  2  0
 10 11  1  0
 11 12  2  0
 12 13  1  0
 13 14  2  0
 14 15  1  0
 15 16  2  0
 16 17  1  0
 16 18  1  0
 18 19  2  0
 19 20  1  0
 20 21  2  0
 21 22  1  0
 22 23  1  0
 22 24  1  0
 21 25  1  0
 25 26  2  0
 26  9  1  0
 15 10  1  0
 26 18  1  0
  1 27  1  0
  1 28  1  0
  1 29  1  0
  2 30  1  0
  2 31  1  0
  4 32  1  0
  4 33  1  0
  4 34  1  0
  5 35  1  0
  5 36  1  0
  6 37  1  0
  6 38  1  0
  7 39  1  0
  7 40  1  0
  8 41  1  0
  8 42  1  0
 11 43  1  0
 12 44  1  0
 13 45  1  0
 14 46  1  0
 17 47  1  0
 17 48  1  0
 17 49  1  0
 19 50  1  0
 20 51  1  0
 23 52  1  0
 23 53  1  0
 23 54  1  0
 24 55  1  0
 24 56  1  0
 24 57  1  0
 25 58  1  0
M  CHG  2   8   1  16   1
M  END
>  <UniqueID>  (18) 
17

>  <SMILES>  (18) 
CCN(C)CCC[NH2+]c1c2ccccc2[n+](C)c2ccc(N(C)C)cc12

>  <Energy>  (18) 
92.00799864674819

>  <Genealogy>  (18) 
CCN(C)CCC[NH2+]c1c2ccccc2[n+](C)c2ccc(N(C)C)cc12 (protonated)
CCN(C)CCC[NH2+]c1c2ccccc2[n+](C)c2ccc(N(C)C)cc12 (3D coordinates assigned)
CCN(C)CCC[NH2+]c1c2ccccc2[n+](C)c2ccc(N(C)C)cc12 (optimized conformer: 92.00799864674819 kcal/mol)

>  <smiles>  (18) 
CCN(C)CCCNc1c2ccccc2[n+](C)c2ccc(N(C)C)cc12

>  <score_type>  (18) 
oracle

>  <origin>  (18) 
adg

>  <m_score__min__energy>  (18) 
-8.25

>  <m_primary>  (18) 
energy

$$$$
18:0
     RDKit          3D

 62 65  0  0  0  0  0  0  0  0999 V2000
   -4.1920   24.1800  -28.0910 C   0  0  0  0  0  0  0  0  0  0  0  0
   -5.0840   24.0510  -29.3210 C   0  0  0  0  0  0  0  0  0  0  0  0
   -5.3460   22.6360  -29.6070 N   0  0  0  0  0  0  0  0  0  0  0  0
   -4.3650   22.0780  -30.5530 C   0  0  0  0  0  0  0  0  0  0  0  0
   -4.1960   22.9970  -31.7730 C   0  0  0  0  0  0  0  0  0  0  0  0
   -4.5270   22.3130  -33.0380 N   0  0  0  0  0  0  0  0  0  0  0  0
   -5.4830   21.2390  -32.8050 C   0  0  0  0  0  0  0  0  0  0  0  0
   -6.8250   21.5930  -32.4510 C   0  0  0  0  0  0  0  0  0  0  0  0
   -7.2440   22.9490  -32.3400 C   0  0  0  0  0  0  0  0  0  0  0  0
   -8.5440   23.2790  -31.9680 C   0  0  0  0  0  0  0  0  0  0  0  0
   -9.4710   22.2810  -31.7200 C   0  0  0  0  0  0  0  0  0  0  0  0
   -9.1080   20.9470  -31.8560 C   0  0  0  0  0  0  0  0  0  0  0  0
   -7.7840   20.5750  -32.2170 C   0  0  0  0  0  0  0  0  0  0  0  0
   -7.4460   19.2570  -32.3930 N   0  0  0  0  0  0  0  0  0  0  0  0
   -8.3440   18.1880  -31.8970 C   0  0  0  0  0  0  0  0  0  0  0  0
   -6.2690   18.9250  -33.0260 C   0  0  0  0  0  0  0  0  0  0  0  0
   -6.1320   17.6570  -33.6260 C   0  0  0  0  0  0  0  0  0  0  0  0
   -4.9260   17.2310  -34.1410 C   0  0  0  0  0  0  0  0  0  0  0  0
   -3.7900   18.0190  -34.0130 C   0  0  0  0  0  0  0  0  0  0  0  0
   -2.4640   17.4120  -34.3950 C   0  0  0  0  0  0  0  0  0  0  0  0
   -3.8930   19.3370  -33.4960 C   0  0  0  0  0  0  0  0  0  0  0  0
   -2.6580   19.9990  -33.1600 N   0  0  0  0  0  0  0  0  0  0  0  0
   -1.8120   20.6020  -34.2060 C   0  0  0  0  0  0  0  0  0  0  0  0
   -0.3340   20.2210  -34.0280 C   0  0  0  0  0  0  0  0  0  0  0  0
    0.1570   20.2710  -32.5630 C   0  0  0  0  0  0  0  0  0  0  0  0
   -0.9110   20.7450  -31.5700 C   0  0  0  0  0  0  0  0  0  0  0  0
   -2.2110   19.9610  -31.7610 C   0  0  0  0  0  0  0  0  0  0  0  0
   -5.1870   19.8570  -33.1010 C   0  0  0  0  0  0  0  0  0  0  0  0
   -4.8054   24.0913  -27.1823 H   0  0  0  0  0  0  0  0  0  0  0  0
   -3.4350   23.3820  -28.1017 H   0  0  0  0  0  0  0  0  0  0  0  0
   -3.6921   25.1598  -28.1017 H   0  0  0  0  0  0  0  0  0  0  0  0
   -6.0373   24.5673  -29.1349 H   0  0  0  0  0  0  0  0  0  0  0  0
   -4.5752   24.5048  -30.1842 H   0  0  0  0  0  0  0  0  0  0  0  0
   -5.2660   22.1090  -28.7060 H   0  0  0  0  0  0  0  0  0  0  0  0
   -3.3951   21.9715  -30.0451 H   0  0  0  0  0  0  0  0  0  0  0  0
   -4.7273   21.0984  -30.8982 H   0  0  0  0  0  0  0  0  0  0  0  0
   -4.8601   23.8661  -31.6562 H   0  0  0  0  0  0  0  0  0  0  0  0
   -3.1404   23.3025  -31.8212 H   0  0  0  0  0  0  0  0  0  0  0  0
   -4.8430   22.9940  -33.7380 H   0  0  0  0  0  0  0  0  0  0  0  0
   -3.6720   21.9410  -33.5050 H   0  0  0  0  0  0  0  0  0  0  0  0
   -6.5247   23.7535  -32.5529 H   0  0  0  0  0  0  0  0  0  0  0  0
   -8.8356   24.3352  -31.8708 H   0  0  0  0  0  0  0  0  0  0  0  0
  -10.4947   22.5443  -31.4154 H   0  0  0  0  0  0  0  0  0  0  0  0
   -9.8596   20.1631  -31.6810 H   0  0  0  0  0  0  0  0  0  0  0  0
   -8.3429   18.1893  -30.7970 H   0  0  0  0  0  0  0  0  0  0  0  0
   -9.3656   18.3682  -32.2629 H   0  0  0  0  0  0  0  0  0  0  0  0
   -7.9902   17.2128  -32.2629 H   0  0  0  0  0  0  0  0  0  0  0  0
   -7.0066   16.9925  -33.6847 H   0  0  0  0  0  0  0  0  0  0  0  0
   -4.8635   16.2612  -34.6563 H   0  0  0  0  0  0  0  0  0  0  0  0
   -1.9025   17.1550  -33.4847 H   0  0  0  0  0  0  0  0  0  0  0  0
   -2.6348   16.5024  -34.9895 H   0  0  0  0  0  0  0  0  0  0  0  0
   -1.8871   18.1357  -34.9895 H   0  0  0  0  0  0  0  0  0  0  0  0
   -2.1554   20.2497  -35.1899 H   0  0  0  0  0  0  0  0  0  0  0  0
   -1.8969   21.6960  -34.1287 H   0  0  0  0  0  0  0  0  0  0  0  0
   -0.1930   19.1973  -34.4052 H   0  0  0  0  0  0  0  0  0  0  0  0
    0.2551   20.9635  -34.5863 H   0  0  0  0  0  0  0  0  0  0  0  0
    0.4793   19.2608  -32.2702 H   0  0  0  0  0  0  0  0  0  0  0  0
    0.9783   21.0017  -32.5243 H   0  0  0  0  0  0  0  0  0  0  0  0
   -0.5441   20.5920  -30.5443 H   0  0  0  0  0  0  0  0  0  0  0  0
   -1.1114   21.8119  -31.7477 H   0  0  0  0  0  0  0  0  0  0  0  0
   -2.0445   18.9143  -31.4666 H   0  0  0  0  0  0  0  0  0  0  0  0
   -2.9894   20.4227  -31.1357 H   0  0  0  0  0  0  0  0  0  0  0  0
  1  2  1  0
  2  3  1  0
  3  4  1  0
  4  5  1  0
  5  6  1  0
  6  7  1  0
  7  8  2  0
  8  9  1  0
  9 10  2  0
 10 11  1  0
 11 12  2  0
 12 13  1  0
 13 14  2  0
 14 15  1  0
 14 16  1  0
 16 17  2  0
 17 18  1  0
 18 19  2  0
 19 20  1  0
 19 21  1  0
 21 22  1  0
 22 23  1  0
 23 24  1  0
 24 25  1  0
 25 26  1  0
 26 27  1  0
 21 28  2  0
 28  7  1  0
 13  8  1  0
 28 16  1  0
 27 22  1  0
  1 29  1  0
  1 30  1  0
  1 31  1  0
  2 32  1  0
  2 33  1  0
  3 34  1  0
  4 35  1  0
  4 36  1  0
  5 37  1  0
  5 38  1  0
  6 39  1  0
  6 40  1  0
  9 41  1  0
 10 42  1  0
 11 43  1  0
 12 44  1  0
 15 45  1  0
 15 46  1  0
 15 47  1  0
 17 48  1  0
 18 49  1  0
 20 50  1  0
 20 51  1  0
 20 52  1  0
 23 53  1  0
 23 54  1  0
 24 55  1  0
 24 56  1  0
 25 57  1  0
 25 58  1  0
 26 59  1  0
 26 60  1  0
 27 61  1  0
 27 62  1  0
M  CHG  2   6   1  14   1
M  END
>  <UniqueID>  (19) 
18

>  <SMILES>  (19) 
CCNCC[NH2+]c1c2ccccc2[n+](C)c2ccc(C)c(N3CCCCC3)c12

>  <Energy>  (19) 
107.95079995885548

>  <Genealogy>  (19) 
CCNCC[NH2+]c1c2ccccc2[n+](C)c2ccc(C)c(N3CCCCC3)c12 (protonated)
CCNCC[NH2+]c1c2ccccc2[n+](C)c2ccc(C)c(N3CCCCC3)c12 (3D coordinates assigned)
CCNCC[NH2+]c1c2ccccc2[n+](C)c2ccc(C)c(N3CCCCC3)c12 (nonaromatic ring conformer: 107.95079995885548 kcal/mol)

>  <smiles>  (19) 
CCNCCNc1c2ccccc2[n+](C)c2ccc(C)c(N3CCCCC3)c12

>  <score_type>  (19) 
oracle

>  <origin>  (19) 
adg

>  <m_score__min__energy>  (19) 
-9.3499999999999996

>  <m_primary>  (19) 
energy

$$$$
19:0
     RDKit          3D

 56 59  0  0  0  0  0  0  0  0999 V2000
   -8.0040   18.3690  -31.7030 C   0  0  0  0  0  0  0  0  0  0  0  0
   -6.9420   17.9790  -32.6920 C   0  0  0  0  0  0  0  0  0  0  0  0
   -6.8880   16.6550  -33.1570 C   0  0  0  0  0  0  0  0  0  0  0  0
   -5.9340   16.2730  -34.1030 C   0  0  0  0  0  0  0  0  0  0  0  0
   -5.0190   17.2040  -34.5930 C   0  0  0  0  0  0  0  0  0  0  0  0
   -5.0420   18.5170  -34.1190 C   0  0  0  0  0  0  0  0  0  0  0  0
   -5.9870   18.9140  -33.1580 C   0  0  0  0  0  0  0  0  0  0  0  0
   -5.9860   20.2760  -32.6990 N   0  0  0  0  0  0  0  0  0  0  0  0
   -4.8280   20.8200  -31.9770 C   0  0  0  0  0  0  0  0  0  0  0  0
   -4.7820   22.3500  -32.1240 C   0  0  0  0  0  0  0  0  0  0  0  0
   -6.0490   23.0200  -31.7070 N   0  0  0  0  0  0  0  0  0  0  0  0
   -5.9660   23.4500  -30.2830 C   0  0  0  0  0  0  0  0  0  0  0  0
   -5.1300   24.7370  -30.0100 C   0  0  2  0  0  0  0  0  0  0  0  0
   -4.5490   25.2370  -31.1860 O   0  0  0  0  0  0  0  0  0  0  0  0
   -4.0410   24.5480  -28.9460 C   0  0  0  0  0  0  0  0  0  0  0  0
   -2.7820   24.3210  -29.5700 O   0  0  0  0  0  0  0  0  0  0  0  0
   -1.6750   23.7910  -28.8950 C   0  0  0  0  0  0  0  0  0  0  0  0
   -0.5010   24.5420  -28.7340 C   0  0  0  0  0  0  0  0  0  0  0  0
    0.5820   23.9800  -28.0540 C   0  0  0  0  0  0  0  0  0  0  0  0
    1.6420   24.6430  -27.9020 O   0  0  0  0  0  0  0  0  0  0  0  0
    0.5030   22.7430  -27.5690 O   0  0  0  0  0  0  0  0  0  0  0  0
   -0.5830   21.9850  -27.7060 C   0  0  0  0  0  0  0  0  0  0  0  0
   -0.5990   20.6910  -27.1710 C   0  0  0  0  0  0  0  0  0  0  0  0
   -1.7390   19.8900  -27.3050 C   0  0  0  0  0  0  0  0  0  0  0  0
   -2.8670   20.3780  -27.9700 C   0  0  0  0  0  0  0  0  0  0  0  0
   -2.8600   21.6670  -28.5140 C   0  0  0  0  0  0  0  0  0  0  0  0
   -1.7180   22.4800  -28.3890 C   0  0  0  0  0  0  0  0  0  0  0  0
   -7.2700   22.2060  -31.9750 C   0  0  0  0  0  0  0  0  0  0  0  0
   -7.0700   21.1770  -33.0880 C   0  0  0  0  0  0  0  0  0  0  0  0
   -7.6224   18.2289  -30.6809 H   0  0  0  0  0  0  0  0  0  0  0  0
   -8.2739   19.4249  -31.8521 H   0  0  0  0  0  0  0  0  0  0  0  0
   -8.8931   17.7387  -31.8521 H   0  0  0  0  0  0  0  0  0  0  0  0
   -7.6030   15.9125  -32.7730 H   0  0  0  0  0  0  0  0  0  0  0  0
   -5.9045   15.2339  -34.4627 H   0  0  0  0  0  0  0  0  0  0  0  0
   -4.2806   16.9046  -35.3514 H   0  0  0  0  0  0  0  0  0  0  0  0
   -4.3137   19.2473  -34.5014 H   0  0  0  0  0  0  0  0  0  0  0  0
   -4.9090   20.5595  -30.9114 H   0  0  0  0  0  0  0  0  0  0  0  0
   -3.9074   20.3908  -32.3993 H   0  0  0  0  0  0  0  0  0  0  0  0
   -3.9613   22.7363  -31.5018 H   0  0  0  0  0  0  0  0  0  0  0  0
   -4.6316   22.5711  -33.1910 H   0  0  0  0  0  0  0  0  0  0  0  0
   -6.1050   23.8830  -32.2970 H   0  0  0  0  0  0  0  0  0  0  0  0
   -6.9903   23.6307  -29.9249 H   0  0  0  0  0  0  0  0  0  0  0  0
   -5.4442   22.6377  -29.7559 H   0  0  0  0  0  0  0  0  0  0  0  0
   -5.8532   25.4667  -29.6168 H   0  0  0  0  0  0  0  0  0  0  0  0
   -3.6100   24.9130  -31.2040 H   0  0  0  0  0  0  0  0  0  0  0  0
   -3.9804   25.4523  -28.3227 H   0  0  0  0  0  0  0  0  0  0  0  0
   -4.2951   23.6792  -28.3210 H   0  0  0  0  0  0  0  0  0  0  0  0
   -0.4341   25.5626  -29.1390 H   0  0  0  0  0  0  0  0  0  0  0  0
    0.2857   20.3034  -26.6446 H   0  0  0  0  0  0  0  0  0  0  0  0
   -1.7470   18.8732  -26.8855 H   0  0  0  0  0  0  0  0  0  0  0  0
   -3.7629   19.7470  -28.0660 H   0  0  0  0  0  0  0  0  0  0  0  0
   -3.7486   22.0457  -29.0403 H   0  0  0  0  0  0  0  0  0  0  0  0
   -7.5466   21.6749  -31.0523 H   0  0  0  0  0  0  0  0  0  0  0  0
   -8.0602   22.8969  -32.3040 H   0  0  0  0  0  0  0  0  0  0  0  0
   -7.9965   20.6019  -33.2322 H   0  0  0  0  0  0  0  0  0  0  0  0
   -6.8170   21.6857  -34.0299 H   0  0  0  0  0  0  0  0  0  0  0  0
  1  2  1  0
  2  3  2  0
  3  4  1  0
  4  5  2  0
  5  6  1  0
  6  7  2  0
  7  8  1  0
  8  9  1  0
  9 10  1  0
 10 11  1  0
 11 12  1  0
 12 13  1  0
 13 14  1  0
 13 15  1  0
 15 16  1  0
 16 17  1  0
 17 18  2  0
 18 19  1  0
 19 20  2  0
 19 21  1  0
 21 22  1  0
 22 23  2  0
 23 24  1  0
 24 25  2  0
 25 26  1  0
 26 27  2  0
 11 28  1  0
 28 29  1  0
  7  2  1  0
 29  8  1  0
 27 17  1  0
 27 22  1  0
  1 30  1  0
  1 31  1  0
  1 32  1  0
  3 33  1  0
  4 34  1  0
  5 35  1  0
  6 36  1  0
  9 37  1  0
  9 38  1  0
 10 39  1  0
 10 40  1  0
 11 41  1  0
 12 42  1  0
 12 43  1  0
 13 44  1  1
 14 45  1  0
 15 46  1  0
 15 47  1  0
 18 48  1  0
 23 49  1  0
 24 50  1  0
 25 51  1  0
 26 52  1  0
 28 53  1  0
 28 54  1  0
 29 55  1  0
 29 56  1  0
M  CHG  1  11   1
M  END
>  <UniqueID>  (20) 
19

>  <SMILES>  (20) 
Cc1ccccc1N1CC[NH+](C[C@H](O)COc2cc(=O)oc3ccccc23)CC1

>  <Energy>  (20) 
82.59911228316626

>  <Genealogy>  (20) 
Cc1ccccc1N1CC[NH+](CC(O)COc2cc(=O)oc3ccccc23)CC1 (protonated)
Cc1ccccc1N1CC[NH+](C[C@H](O)COc2cc(=O)oc3ccccc23)CC1 (chirality)
Cc1ccccc1N1CC[NH+](C[C@H](O)COc2cc(=O)oc3ccccc23)CC1 (3D coordinates assigned)
Cc1ccccc1N1CC[NH+](C[C@H](O)COc2cc(=O)oc3ccccc23)CC1 (nonaromatic ring conformer: 82.59911228316626 kcal/mol)

>  <smiles>  (20) 
Cc1ccccc1N1CCN(CC(O)COc2cc(=O)oc3ccccc23)CC1

>  <score_type>  (20) 
oracle

>  <origin>  (20) 
adg

>  <m_score__min__energy>  (20) 
-8.4299999999999997

>  <m_primary>  (20) 
energy

$$$$
20:0
     RDKit          3D

 71 75  0  0  0  0  0  0  0  0999 V2000
   -1.5890   25.0010  -28.6270 C   0  0  0  0  0  0  0  0  0  0  0  0
   -2.0050   23.5380  -28.4520 C   0  0  0  0  0  0  0  0  0  0  0  0
   -3.2660   23.1730  -29.1430 N   0  0  0  0  0  0  0  0  0  0  0  0
   -3.4480   21.7180  -29.3670 C   0  0  0  0  0  0  0  0  0  0  0  0
   -2.2250   21.0020  -29.9640 C   0  0  0  0  0  0  0  0  0  0  0  0
   -4.4800   23.8950  -28.7020 C   0  0  0  0  0  0  0  0  0  0  0  0
   -5.2550   24.4860  -29.8960 C   0  0  0  0  0  0  0  0  0  0  0  0
   -4.6970   24.0760  -31.1940 N   0  0  0  0  0  0  0  0  0  0  0  0
   -5.7410   23.7740  -32.1800 C   0  0  0  0  0  0  0  0  0  0  0  0
   -5.8530   22.2770  -32.3540 C   0  0  0  0  0  0  0  0  0  0  0  0
   -4.7280   21.5260  -32.7230 C   0  0  0  0  0  0  0  0  0  0  0  0
   -4.8230   20.1700  -32.9110 C   0  0  0  0  0  0  0  0  0  0  0  0
   -5.9820   19.4890  -32.7640 N   0  0  0  0  0  0  0  0  0  0  0  0
   -7.1150   20.1610  -32.4150 C   0  0  0  0  0  0  0  0  0  0  0  0
   -8.3130   19.4530  -32.2710 C   0  0  0  0  0  0  0  0  0  0  0  0
   -9.4900   20.1240  -31.9340 C   0  0  0  0  0  0  0  0  0  0  0  0
   -9.4790   21.5050  -31.7400 C   0  0  0  0  0  0  0  0  0  0  0  0
   -8.2930   22.2320  -31.8770 C   0  0  0  0  0  0  0  0  0  0  0  0
   -7.0870   21.5770  -32.2090 C   0  0  0  0  0  0  0  0  0  0  0  0
   -3.5280   19.6790  -33.3050 C   0  0  0  0  0  0  0  0  0  0  0  0
   -3.1540   18.3810  -33.6250 C   0  0  0  0  0  0  0  0  0  0  0  0
   -1.8160   18.1280  -34.0080 C   0  0  0  0  0  0  0  0  0  0  0  0
   -0.8960   19.2250  -34.0370 C   0  0  0  0  0  0  0  0  0  0  0  0
   -1.3560   20.5250  -33.7210 C   0  0  0  0  0  0  0  0  0  0  0  0
   -0.5800   21.5180  -33.7760 O   0  0  0  0  0  0  0  0  0  0  0  0
   -2.6540   20.7010  -33.3590 N   0  0  0  0  0  0  0  0  0  0  0  0
   -3.3130   21.9640  -32.9980 C   0  0  0  0  0  0  0  0  0  0  0  0
    0.5340   19.0340  -34.4880 C   0  0  0  0  0  0  0  0  0  0  0  0
    1.0360   17.6330  -34.1790 C   0  0  0  0  0  0  0  0  0  0  0  0
    0.0820   16.6390  -34.7600 C   0  0  0  0  0  0  0  0  0  0  0  0
    0.5100   15.7680  -35.5050 O   0  0  0  0  0  0  0  0  0  0  0  0
   -1.3940   16.6890  -34.3740 C   0  0  2  0  0  0  0  0  0  0  0  0
   -2.2500   16.2260  -35.5800 C   0  0  0  0  0  0  0  0  0  0  0  0
   -1.6290   15.7700  -33.1340 C   0  0  0  0  0  0  0  0  0  0  0  0
   -2.9650   15.0170  -33.1200 C   0  0  0  0  0  0  0  0  0  0  0  0
   -1.4570   25.4654  -27.6386 H   0  0  0  0  0  0  0  0  0  0  0  0
   -0.6417   25.0487  -29.1841 H   0  0  0  0  0  0  0  0  0  0  0  0
   -2.3695   25.5400  -29.1841 H   0  0  0  0  0  0  0  0  0  0  0  0
   -1.1995   22.9016  -28.8471 H   0  0  0  0  0  0  0  0  0  0  0  0
   -2.1813   23.3881  -27.3766 H   0  0  0  0  0  0  0  0  0  0  0  0
   -3.6813   21.2489  -28.3998 H   0  0  0  0  0  0  0  0  0  0  0  0
   -4.2582   21.6160  -30.1040 H   0  0  0  0  0  0  0  0  0  0  0  0
   -1.5859   20.6279  -29.1506 H   0  0  0  0  0  0  0  0  0  0  0  0
   -2.5609   20.1579  -30.5842 H   0  0  0  0  0  0  0  0  0  0  0  0
   -1.6533   21.7081  -30.5842 H   0  0  0  0  0  0  0  0  0  0  0  0
   -5.1352   23.1951  -28.1626 H   0  0  0  0  0  0  0  0  0  0  0  0
   -4.1687   24.7244  -28.0499 H   0  0  0  0  0  0  0  0  0  0  0  0
   -6.3001   24.1475  -29.8395 H   0  0  0  0  0  0  0  0  0  0  0  0
   -5.1783   25.5815  -29.8325 H   0  0  0  0  0  0  0  0  0  0  0  0
   -4.0940   23.2290  -31.0620 H   0  0  0  0  0  0  0  0  0  0  0  0
   -6.7033   24.1752  -31.8294 H   0  0  0  0  0  0  0  0  0  0  0  0
   -5.4797   24.2362  -33.1434 H   0  0  0  0  0  0  0  0  0  0  0  0
   -8.3277   18.3638  -32.4238 H   0  0  0  0  0  0  0  0  0  0  0  0
  -10.4287   19.5618  -31.8212 H   0  0  0  0  0  0  0  0  0  0  0  0
  -10.4112   22.0264  -31.4770 H   0  0  0  0  0  0  0  0  0  0  0  0
   -8.2993   23.3215  -31.7252 H   0  0  0  0  0  0  0  0  0  0  0  0
   -3.8868   17.5618  -33.5814 H   0  0  0  0  0  0  0  0  0  0  0  0
   -2.8540   22.4104  -32.1035 H   0  0  0  0  0  0  0  0  0  0  0  0
   -3.2366   22.7369  -33.7769 H   0  0  0  0  0  0  0  0  0  0  0  0
    0.5914   19.2024  -35.5735 H   0  0  0  0  0  0  0  0  0  0  0  0
    1.1649   19.7530  -33.9449 H   0  0  0  0  0  0  0  0  0  0  0  0
    2.0327   17.4914  -34.6224 H   0  0  0  0  0  0  0  0  0  0  0  0
    1.1041   17.4926  -33.0901 H   0  0  0  0  0  0  0  0  0  0  0  0
   -3.1624   15.7325  -35.2141 H   0  0  0  0  0  0  0  0  0  0  0  0
   -2.5249   17.0984  -36.1910 H   0  0  0  0  0  0  0  0  0  0  0  0
   -1.6703   15.5184  -36.1910 H   0  0  0  0  0  0  0  0  0  0  0  0
   -0.8193   15.0260  -33.1041 H   0  0  0  0  0  0  0  0  0  0  0  0
   -1.6469   16.4374  -32.2598 H   0  0  0  0  0  0  0  0  0  0  0  0
   -3.2762   14.8416  -32.0796 H   0  0  0  0  0  0  0  0  0  0  0  0
   -3.7295   15.6171  -33.6352 H   0  0  0  0  0  0  0  0  0  0  0  0
   -2.8475   14.0522  -33.6352 H   0  0  0  0  0  0  0  0  0  0  0  0
  1  2  1  0
  2  3  1  0
  3  4  1  0
  4  5  1  0
  3  6  1  0
  6  7  1  0
  7  8  1  0
  8  9  1  0
  9 10  1  0
 10 11  2  0
 11 12  1  0
 12 13  2  0
 13 14  1  0
 14 15  2  0
 15 16  1  0
 16 17  2  0
 17 18  1  0
 18 19  2  0
 12 20  1  0
 20 21  2  0
 21 22  1  0
 22 23  2  0
 23 24  1  0
 24 25  2  0
 24 26  1  0
 26 27  1  0
 23 28  1  0
 28 29  1  0
 29 30  1  0
 30 31  2  0
 30 32  1  0
 32 33  1  6
 32 34  1  0
 34 35  1  0
 19 10  1  0
 26 20  1  0
 27 11  1  0
 19 14  1  0
 32 22  1  0
  1 36  1  0
  1 37  1  0
  1 38  1  0
  2 39  1  0
  2 40  1  0
  4 41  1  0
  4 42  1  0
  5 43  1  0
  5 44  1  0
  5 45  1  0
  6 46  1  0
  6 47  1  0
  7 48  1  0
  7 49  1  0
  8 50  1  0
  9 51  1  0
  9 52  1  0
 15 53  1  0
 16 54  1  0
 17 55  1  0
 18 56  1  0
 21 57  1  0
 27 58  1  0
 27 59  1  0
 28 60  1  0
 28 61  1  0
 29 62  1  0
 29 63  1  0
 33 64  1  0
 33 65  1  0
 33 66  1  0
 34 67  1  0
 34 68  1  0
 35 69  1  0
 35 70  1  0
 35 71  1  0
M  END
>  <UniqueID>  (21) 
20

>  <SMILES>  (21) 
CCN(CC)CCNCc1c2c(nc3ccccc13)-c1cc3c(c(=O)n1C2)CCC(=O)[C@@]3(C)CC

>  <Energy>  (21) 
115.24963467391694

>  <Genealogy>  (21) 
CCN(CC)CCNCc1c2c(nc3ccccc13)-c1cc3c(c(=O)n1C2)CCC(=O)[C@@]3(C)CC (chirality)
CCN(CC)CCNCc1c2c(nc3ccccc13)-c1cc3c(c(=O)n1C2)CCC(=O)[C@@]3(C)CC (3D coordinates assigned)
CCN(CC)CCNCc1c2c(nc3ccccc13)-c1cc3c(c(=O)n1C2)CCC(=O)[C@@]3(C)CC (nonaromatic ring conformer: 115.24963467391694 kcal/mol)

>  <smiles>  (21) 
CCN(CC)CCNCc1c2c(nc3ccccc13)-c1cc3c(c(=O)n1C2)CCC(=O)C3(C)CC

>  <score_type>  (21) 
oracle

>  <origin>  (21) 
adg

>  <m_score__min__energy>  (21) 
-9.0899999999999999

>  <m_primary>  (21) 
energy

$$$$
21:0
     RDKit          3D

 31 32  0  0  0  0  0  0  0  0999 V2000
   -5.8020   26.4220  -30.0940 O   0  0  0  0  0  0  0  0  0  0  0  0
   -5.2490   25.4170  -30.6160 C   0  0  0  0  0  0  0  0  0  0  0  0
   -6.0930   24.4640  -31.4290 C   0  0  0  0  0  0  0  0  0  0  0  0
   -5.2900   23.4540  -32.1470 N   0  0  0  0  0  0  0  0  0  0  0  0
   -5.4020   22.0970  -31.5750 C   0  0  0  0  0  0  0  0  0  0  0  0
   -6.7560   21.4920  -31.8150 C   0  0  0  0  0  0  0  0  0  0  0  0
   -7.0230   20.3720  -32.5930 C   0  0  0  0  0  0  0  0  0  0  0  0
   -8.3800   20.0310  -32.6200 C   0  0  0  0  0  0  0  0  0  0  0  0
   -9.1810   20.8700  -31.8560 C   0  0  0  0  0  0  0  0  0  0  0  0
   -8.2000   22.0360  -31.1470 S   0  0  0  0  0  0  0  0  0  0  0  0
   -3.8310   25.2620  -30.4700 N   0  0  0  0  0  0  0  0  0  0  0  0
   -3.1570   24.4730  -29.4830 C   0  0  0  0  0  0  0  0  0  0  0  0
   -1.9330   24.9230  -28.9720 C   0  0  0  0  0  0  0  0  0  0  0  0
   -1.2590   24.1800  -27.9980 C   0  0  0  0  0  0  0  0  0  0  0  0
   -1.8170   22.9930  -27.5140 C   0  0  0  0  0  0  0  0  0  0  0  0
   -3.0550   22.5550  -27.9940 C   0  0  0  0  0  0  0  0  0  0  0  0
   -3.6090   21.4190  -27.5040 F   0  0  0  0  0  0  0  0  0  0  0  0
   -3.7300   23.2970  -28.9700 C   0  0  0  0  0  0  0  0  0  0  0  0
   -6.7865   23.9441  -30.7516 H   0  0  0  0  0  0  0  0  0  0  0  0
   -6.6272   25.0588  -32.1846 H   0  0  0  0  0  0  0  0  0  0  0  0
   -4.2880   23.7470  -32.0660 H   0  0  0  0  0  0  0  0  0  0  0  0
   -5.5180   23.4550  -33.1670 H   0  0  0  0  0  0  0  0  0  0  0  0
   -4.6390   21.4533  -32.0371 H   0  0  0  0  0  0  0  0  0  0  0  0
   -5.2538   22.1746  -30.4878 H   0  0  0  0  0  0  0  0  0  0  0  0
   -6.2464   19.8104  -33.1329 H   0  0  0  0  0  0  0  0  0  0  0  0
   -8.7751   19.1788  -33.1924 H   0  0  0  0  0  0  0  0  0  0  0  0
  -10.2711   20.7857  -31.7356 H   0  0  0  0  0  0  0  0  0  0  0  0
   -1.4999   25.8654  -29.3387 H   0  0  0  0  0  0  0  0  0  0  0  0
   -0.2898   24.5294  -27.6126 H   0  0  0  0  0  0  0  0  0  0  0  0
   -1.2818   22.4034  -26.7552 H   0  0  0  0  0  0  0  0  0  0  0  0
   -4.7107   22.9590  -29.3361 H   0  0  0  0  0  0  0  0  0  0  0  0
  1  2  2  0
  2  3  1  0
  3  4  1  0
  4  5  1  0
  5  6  1  0
  6  7  2  0
  7  8  1  0
  8  9  2  0
  9 10  1  0
  2 11  1  0
 11 12  1  0
 12 13  2  0
 13 14  1  0
 14 15  2  0
 15 16  1  0
 16 17  1  0
 16 18  2  0
 10  6  1  0
 18 12  1  0
  3 19  1  0
  3 20  1  0
  4 21  1  0
  4 22  1  0
  5 23  1  0
  5 24  1  0
  7 25  1  0
  8 26  1  0
  9 27  1  0
 13 28  1  0
 14 29  1  0
 15 30  1  0
 18 31  1  0
M  CHG  2   4   1  11  -1
M  END
>  <UniqueID>  (22) 
21

>  <SMILES>  (22) 
O=C(C[NH2+]Cc1cccs1)[N-]c1cccc(F)c1

>  <Energy>  (22) 
61.393426235848175

>  <Genealogy>  (22) 
O=C(C[NH2+]Cc1cccs1)[N-]c1cccc(F)c1 (protonated)
O=C(C[NH2+]Cc1cccs1)[N-]c1cccc(F)c1 (3D coordinates assigned)
O=C(C[NH2+]Cc1cccs1)[N-]c1cccc(F)c1 (optimized conformer: 61.393426235848175 kcal/mol)

>  <smiles>  (22) 
O=C(CNCc1cccs1)Nc1cccc(F)c1

>  <score_type>  (22) 
oracle

>  <origin>  (22) 
adg

>  <m_score__min__energy>  (22) 
-7.5300000000000002

>  <m_primary>  (22) 
energy

$$$$
