0:0
     RDKit          3D

 33 35  0  0  0  0  0  0  0  0999 V2000
   -3.3600   15.6840  -35.7090 C   0  0  0  0  0  0  0  0  0  0  0  0
   -3.8650   16.9030  -34.9950 C   0  0  0  0  0  0  0  0  0  0  0  0
   -2.9640   17.8010  -34.4070 C   0  0  0  0  0  0  0  0  0  0  0  0
   -3.4320   18.9570  -33.7740 C   0  0  0  0  0  0  0  0  0  0  0  0
   -4.8090   19.2400  -33.7260 C   0  0  0  0  0  0  0  0  0  0  0  0
   -5.2870   20.4710  -33.0480 C   0  0  0  0  0  0  0  0  0  0  0  0
   -6.6010   20.7730  -32.6980 C   0  0  0  0  0  0  0  0  0  0  0  0
   -6.5840   21.9790  -32.1080 N   0  0  0  0  0  0  0  0  0  0  0  0
   -7.5860   22.7350  -31.5830 C   0  0  0  0  0  0  0  0  0  0  0  0
   -9.0100   22.2610  -31.5980 C   0  0  0  0  0  0  0  0  0  0  0  0
   -7.2360   23.9780  -31.0250 C   0  0  0  0  0  0  0  0  0  0  0  0
   -5.8810   24.3760  -31.0350 C   0  0  0  0  0  0  0  0  0  0  0  0
   -5.4820   25.6920  -30.4470 C   0  0  0  0  0  0  0  0  0  0  0  0
   -4.9300   23.5620  -31.5810 N   0  0  0  0  0  0  0  0  0  0  0  0
   -5.3030   22.3710  -32.1100 C   0  0  0  0  0  0  0  0  0  0  0  0
   -4.4640   21.4840  -32.6750 N   0  0  0  0  0  0  0  0  0  0  0  0
   -5.7070   18.3430  -34.3340 C   0  0  0  0  0  0  0  0  0  0  0  0
   -5.2370   17.1880  -34.9680 C   0  0  0  0  0  0  0  0  0  0  0  0
   -3.0477   14.9301  -34.9714 H   0  0  0  0  0  0  0  0  0  0  0  0
   -4.1608   15.2703  -36.3396 H   0  0  0  0  0  0  0  0  0  0  0  0
   -2.5013   15.9578  -36.3396 H   0  0  0  0  0  0  0  0  0  0  0  0
   -1.8839   17.5958  -34.4435 H   0  0  0  0  0  0  0  0  0  0  0  0
   -2.7165   19.6514  -33.3093 H   0  0  0  0  0  0  0  0  0  0  0  0
   -7.4855   20.1426  -32.8721 H   0  0  0  0  0  0  0  0  0  0  0  0
   -9.3677   22.1419  -30.5646 H   0  0  0  0  0  0  0  0  0  0  0  0
   -9.6366   22.9990  -32.1202 H   0  0  0  0  0  0  0  0  0  0  0  0
   -9.0693   21.2947  -32.1202 H   0  0  0  0  0  0  0  0  0  0  0  0
   -8.0062   24.6302  -30.5874 H   0  0  0  0  0  0  0  0  0  0  0  0
   -5.5025   25.6244  -29.3493 H   0  0  0  0  0  0  0  0  0  0  0  0
   -4.4655   25.9491  -30.7796 H   0  0  0  0  0  0  0  0  0  0  0  0
   -6.1845   26.4703  -30.7796 H   0  0  0  0  0  0  0  0  0  0  0  0
   -6.7868   18.5517  -34.3105 H   0  0  0  0  0  0  0  0  0  0  0  0
   -5.9482   16.4996  -35.4480 H   0  0  0  0  0  0  0  0  0  0  0  0
  1  2  1  0
  2  3  2  0
  3  4  1  0
  4  5  2  0
  5  6  1  0
  6  7  2  0
  7  8  1  0
  8  9  1  0
  9 10  1  0
  9 11  2  0
 11 12  1  0
 12 13  1  0
 12 14  2  0
 14 15  1  0
 15 16  2  0
  5 17  1  0
 17 18  2  0
 18  2  1  0
 16  6  1  0
 15  8  1  0
  1 19  1  0
  1 20  1  0
  1 21  1  0
  3 22  1  0
  4 23  1  0
  7 24  1  0
 10 25  1  0
 10 26  1  0
 10 27  1  0
 11 28  1  0
 13 29  1  0
 13 30  1  0
 13 31  1  0
 17 32  1  0
 18 33  1  0
M  END
>  <UniqueID>  (1) 
1

>  <SMILES>  (1) 
Cc1ccc(-c2cn3c(C)cc(C)nc3n2)cc1

>  <Energy>  (1) 
69.9453127447855

>  <Genealogy>  (1) 
Cc1ccc(-c2cn3c(C)cc(C)nc3n2)cc1 (3D coordinates assigned)
Cc1ccc(-c2cn3c(C)cc(C)nc3n2)cc1 (optimized conformer: 69.9453127447855 kcal/mol)

>  <smiles>  (1) 
Cc1ccc(-c2cn3c(C)cc(C)nc3n2)cc1

>  <score_type>  (1) 
oracle

>  <origin>  (1) 
adg

>  <m_score__min__energy>  (1) 
-6.96

>  <m_primary>  (1) 
energy

$$$$
1:0
     RDKit          3D

 45 46  0  0  0  0  0  0  0  0999 V2000
   -2.6490   19.6710  -27.0670 C   0  0  0  0  0  0  0  0  0  0  0  0
   -1.5990   20.7780  -27.0620 C   0  0  0  0  0  0  0  0  0  0  0  0
   -1.4610   21.3610  -28.4160 N   0  0  0  0  0  0  0  0  0  0  0  0
   -2.5560   20.9110  -29.3070 C   0  0  0  0  0  0  0  0  0  0  0  0
   -2.0290   20.6880  -30.7210 C   0  0  0  0  0  0  0  0  0  0  0  0
   -1.3910   22.8400  -28.3580 C   0  0  0  0  0  0  0  0  0  0  0  0
   -2.7860   23.4410  -28.5600 C   0  0  0  0  0  0  0  0  0  0  0  0
   -2.6950   24.7410  -29.2940 C   0  0  0  0  0  0  0  0  0  0  0  0
   -1.9150   25.6390  -28.8760 O   0  0  0  0  0  0  0  0  0  0  0  0
   -3.4900   24.9450  -30.4690 N   0  0  0  0  0  0  0  0  0  0  0  0
   -4.7420   24.3130  -30.7710 C   0  0  0  0  0  0  0  0  0  0  0  0
   -5.9670   24.8350  -30.3200 C   0  0  0  0  0  0  0  0  0  0  0  0
   -7.1620   24.1710  -30.6100 C   0  0  0  0  0  0  0  0  0  0  0  0
   -7.1450   22.9810  -31.3400 C   0  0  0  0  0  0  0  0  0  0  0  0
   -5.9290   22.4400  -31.7820 C   0  0  0  0  0  0  0  0  0  0  0  0
   -5.9110   21.1750  -32.5450 C   0  0  0  0  0  0  0  0  0  0  0  0
   -6.9430   20.2570  -32.6330 C   0  0  0  0  0  0  0  0  0  0  0  0
   -8.6490   20.3010  -31.7760 Br  0  0  0  0  0  0  0  0  0  0  0  0
   -6.4510   19.2400  -33.4270 C   0  0  0  0  0  0  0  0  0  0  0  0
   -5.1920   19.5370  -33.8050 N   0  0  0  0  0  0  0  0  0  0  0  0
   -4.8730   20.7090  -33.2760 N   0  0  0  0  0  0  0  0  0  0  0  0
   -3.5760   21.3460  -33.4790 C   0  0  0  0  0  0  0  0  0  0  0  0
   -4.7310   23.1060  -31.4820 C   0  0  0  0  0  0  0  0  0  0  0  0
   -2.9037   19.4025  -26.0311 H   0  0  0  0  0  0  0  0  0  0  0  0
   -3.5518   20.0243  -27.5867 H   0  0  0  0  0  0  0  0  0  0  0  0
   -2.2485   18.7881  -27.5867 H   0  0  0  0  0  0  0  0  0  0  0  0
   -1.9050   21.5653  -26.3573 H   0  0  0  0  0  0  0  0  0  0  0  0
   -0.6320   20.3528  -26.7551 H   0  0  0  0  0  0  0  0  0  0  0  0
   -2.9731   19.9687  -28.9222 H   0  0  0  0  0  0  0  0  0  0  0  0
   -3.3370   21.6851  -29.3338 H   0  0  0  0  0  0  0  0  0  0  0  0
   -1.0170   20.2598  -30.6718 H   0  0  0  0  0  0  0  0  0  0  0  0
   -2.6950   19.9946  -31.2554 H   0  0  0  0  0  0  0  0  0  0  0  0
   -1.9950   21.6489  -31.2554 H   0  0  0  0  0  0  0  0  0  0  0  0
   -1.0008   23.1476  -27.3766 H   0  0  0  0  0  0  0  0  0  0  0  0
   -0.7245   23.2006  -29.1553 H   0  0  0  0  0  0  0  0  0  0  0  0
   -3.4018   22.7392  -29.1417 H   0  0  0  0  0  0  0  0  0  0  0  0
   -3.2424   23.6196  -27.5752 H   0  0  0  0  0  0  0  0  0  0  0  0
   -5.9849   25.7680  -29.7376 H   0  0  0  0  0  0  0  0  0  0  0  0
   -8.1189   24.5872  -30.2621 H   0  0  0  0  0  0  0  0  0  0  0  0
   -8.0893   22.4656  -31.5694 H   0  0  0  0  0  0  0  0  0  0  0  0
   -7.0009   18.3295  -33.7072 H   0  0  0  0  0  0  0  0  0  0  0  0
   -3.1206   21.5697  -32.5030 H   0  0  0  0  0  0  0  0  0  0  0  0
   -2.9189   20.6681  -34.0435 H   0  0  0  0  0  0  0  0  0  0  0  0
   -3.7108   22.2804  -34.0435 H   0  0  0  0  0  0  0  0  0  0  0  0
   -3.7728   22.6757  -31.8086 H   0  0  0  0  0  0  0  0  0  0  0  0
  1  2  1  0
  2  3  1  0
  3  4  1  0
  4  5  1  0
  3  6  1  0
  6  7  1  0
  7  8  1  0
  8  9  2  0
  8 10  1  0
 10 11  1  0
 11 12  2  0
 12 13  1  0
 13 14  2  0
 14 15  1  0
 15 16  1  0
 16 17  2  0
 17 18  1  0
 17 19  1  0
 19 20  2  0
 20 21  1  0
 21 22  1  0
 15 23  2  0
 23 11  1  0
 21 16  1  0
  1 24  1  0
  1 25  1  0
  1 26  1  0
  2 27  1  0
  2 28  1  0
  4 29  1  0
  4 30  1  0
  5 31  1  0
  5 32  1  0
  5 33  1  0
  6 34  1  0
  6 35  1  0
  7 36  1  0
  7 37  1  0
 12 38  1  0
 13 39  1  0
 14 40  1  0
 19 41  1  0
 22 42  1  0
 22 43  1  0
 22 44  1  0
 23 45  1  0
M  CHG  1  10  -1
M  END
>  <UniqueID>  (2) 
2

>  <SMILES>  (2) 
CCN(CC)CCC(=O)[N-]c1cccc(-c2c(Br)cnn2C)c1

>  <Energy>  (2) 
78.94975071193296

>  <Genealogy>  (2) 
CCN(CC)CCC(=O)[N-]c1cccc(-c2c(Br)cnn2C)c1 (protonated)
CCN(CC)CCC(=O)[N-]c1cccc(-c2c(Br)cnn2C)c1 (3D coordinates assigned)
CCN(CC)CCC(=O)[N-]c1cccc(-c2c(Br)cnn2C)c1 (optimized conformer: 78.94975071193296 kcal/mol)

>  <smiles>  (2) 
CCN(CC)CCC(=O)Nc1cccc(-c2c(Br)cnn2C)c1

>  <score_type>  (2) 
oracle

>  <origin>  (2) 
adg

>  <m_score__min__energy>  (2) 
-10.01

>  <m_primary>  (2) 
energy

$$$$
2:0
     RDKit          3D

 57 59  0  0  0  0  0  0  0  0999 V2000
   -0.4610   28.1840  -24.5000 C   0  0  0  0  0  0  0  0  0  0  0  0
    0.4590   27.4920  -23.4900 C   0  0  0  0  0  0  0  0  0  0  0  0
    0.1380   26.0610  -23.3370 N   0  0  0  0  0  0  0  0  0  0  0  0
   -0.7330   25.5740  -24.4200 C   0  0  0  0  0  0  0  0  0  0  0  0
    0.1030   24.9270  -25.5370 C   0  0  0  0  0  0  0  0  0  0  0  0
    0.0690   25.7350  -26.8480 C   0  0  0  0  0  0  0  0  0  0  0  0
   -1.2190   25.5480  -27.6640 C   0  0  0  0  0  0  0  0  0  0  0  0
   -1.1520   24.3850  -28.4890 O   0  0  0  0  0  0  0  0  0  0  0  0
   -1.5750   23.0830  -28.1640 C   0  0  0  0  0  0  0  0  0  0  0  0
   -1.1470   22.4180  -26.9960 C   0  0  0  0  0  0  0  0  0  0  0  0
   -1.5600   21.1110  -26.7350 C   0  0  0  0  0  0  0  0  0  0  0  0
   -2.4010   20.4490  -27.6260 C   0  0  0  0  0  0  0  0  0  0  0  0
   -2.8420   21.0950  -28.7810 C   0  0  0  0  0  0  0  0  0  0  0  0
   -2.4560   22.4240  -29.0540 C   0  0  0  0  0  0  0  0  0  0  0  0
   -2.8770   23.1110  -30.3490 C   0  0  0  0  0  0  0  0  0  0  0  0
   -2.6780   22.1620  -31.5220 C   0  0  0  0  0  0  0  0  0  0  0  0
   -1.4270   21.5440  -31.7240 C   0  0  0  0  0  0  0  0  0  0  0  0
   -1.2510   20.6200  -32.7580 C   0  0  0  0  0  0  0  0  0  0  0  0
   -2.3160   20.3060  -33.6070 C   0  0  0  0  0  0  0  0  0  0  0  0
   -3.5600   20.9170  -33.4230 C   0  0  0  0  0  0  0  0  0  0  0  0
   -3.7430   21.8360  -32.3860 C   0  0  0  0  0  0  0  0  0  0  0  0
   -4.2570   23.7590  -30.2600 C   0  0  0  0  0  0  0  0  0  0  0  0
   -4.4780   25.1440  -30.4360 C   0  0  0  0  0  0  0  0  0  0  0  0
   -5.7700   25.6720  -30.3480 C   0  0  0  0  0  0  0  0  0  0  0  0
   -6.8560   24.8350  -30.0730 C   0  0  0  0  0  0  0  0  0  0  0  0
   -6.6520   23.4680  -29.8830 C   0  0  0  0  0  0  0  0  0  0  0  0
   -5.3640   22.9340  -29.9730 C   0  0  0  0  0  0  0  0  0  0  0  0
   -1.2279   28.7608  -23.9622 H   0  0  0  0  0  0  0  0  0  0  0  0
    0.1319   28.8619  -25.1316 H   0  0  0  0  0  0  0  0  0  0  0  0
   -0.9479   27.4263  -25.1316 H   0  0  0  0  0  0  0  0  0  0  0  0
    1.4993   27.5873  -23.8345 H   0  0  0  0  0  0  0  0  0  0  0  0
    0.3159   27.9775  -22.5134 H   0  0  0  0  0  0  0  0  0  0  0  0
    1.0200   25.4970  -23.3020 H   0  0  0  0  0  0  0  0  0  0  0  0
   -0.3640   25.9350  -22.4270 H   0  0  0  0  0  0  0  0  0  0  0  0
   -1.4325   24.8285  -24.0139 H   0  0  0  0  0  0  0  0  0  0  0  0
   -1.2872   26.4263  -24.8400 H   0  0  0  0  0  0  0  0  0  0  0  0
    1.1464   24.8514  -25.1970 H   0  0  0  0  0  0  0  0  0  0  0  0
   -0.3294   23.9372  -25.7451 H   0  0  0  0  0  0  0  0  0  0  0  0
    0.1692   26.8019  -26.5995 H   0  0  0  0  0  0  0  0  0  0  0  0
    0.8969   25.3656  -27.4710 H   0  0  0  0  0  0  0  0  0  0  0  0
   -2.0686   25.4472  -26.9726 H   0  0  0  0  0  0  0  0  0  0  0  0
   -1.3455   26.4257  -28.3148 H   0  0  0  0  0  0  0  0  0  0  0  0
   -0.4832   22.9332  -26.2861 H   0  0  0  0  0  0  0  0  0  0  0  0
   -1.2198   20.6013  -25.8215 H   0  0  0  0  0  0  0  0  0  0  0  0
   -2.7177   19.4161  -27.4189 H   0  0  0  0  0  0  0  0  0  0  0  0
   -3.4974   20.5627  -29.4860 H   0  0  0  0  0  0  0  0  0  0  0  0
   -2.2179   23.9728  -30.5302 H   0  0  0  0  0  0  0  0  0  0  0  0
   -0.5831   21.7908  -31.0630 H   0  0  0  0  0  0  0  0  0  0  0  0
   -0.2725   20.1391  -32.9038 H   0  0  0  0  0  0  0  0  0  0  0  0
   -2.1754   19.5783  -34.4198 H   0  0  0  0  0  0  0  0  0  0  0  0
   -4.3960   20.6741  -34.0954 H   0  0  0  0  0  0  0  0  0  0  0  0
   -4.7259   22.3086  -32.2429 H   0  0  0  0  0  0  0  0  0  0  0  0
   -3.6282   25.8109  -30.6435 H   0  0  0  0  0  0  0  0  0  0  0  0
   -5.9326   26.7498  -30.4957 H   0  0  0  0  0  0  0  0  0  0  0  0
   -7.8708   25.2543  -30.0065 H   0  0  0  0  0  0  0  0  0  0  0  0
   -7.5056   22.8103  -29.6622 H   0  0  0  0  0  0  0  0  0  0  0  0
   -5.2115   21.8557  -29.8179 H   0  0  0  0  0  0  0  0  0  0  0  0
  1  2  1  0
  2  3  1  0
  3  4  1  0
  4  5  1  0
  5  6  1  0
  6  7  1  0
  7  8  1  0
  8  9  1  0
  9 10  2  0
 10 11  1  0
 11 12  2  0
 12 13  1  0
 13 14  2  0
 14 15  1  0
 15 16  1  0
 16 17  2  0
 17 18  1  0
 18 19  2  0
 19 20  1  0
 20 21  2  0
 15 22  1  0
 22 23  2  0
 23 24  1  0
 24 25  2  0
 25 26  1  0
 26 27  2  0
 14  9  1  0
 21 16  1  0
 27 22  1  0
  1 28  1  0
  1 29  1  0
  1 30  1  0
  2 31  1  0
  2 32  1  0
  3 33  1  0
  3 34  1  0
  4 35  1  0
  4 36  1  0
  5 37  1  0
  5 38  1  0
  6 39  1  0
  6 40  1  0
  7 41  1  0
  7 42  1  0
 10 43  1  0
 11 44  1  0
 12 45  1  0
 13 46  1  0
 15 47  1  0
 17 48  1  0
 18 49  1  0
 19 50  1  0
 20 51  1  0
 21 52  1  0
 23 53  1  0
 24 54  1  0
 25 55  1  0
 26 56  1  0
 27 57  1  0
M  CHG  1   3   1
M  END
>  <UniqueID>  (3) 
3

>  <SMILES>  (3) 
CC[NH2+]CCCCOc1ccccc1C(c1ccccc1)c1ccccc1

>  <Energy>  (3) 
56.55143753519183

>  <Genealogy>  (3) 
CC[NH2+]CCCCOc1ccccc1C(c1ccccc1)c1ccccc1 (protonated)
CC[NH2+]CCCCOc1ccccc1C(c1ccccc1)c1ccccc1 (3D coordinates assigned)
CC[NH2+]CCCCOc1ccccc1C(c1ccccc1)c1ccccc1 (optimized conformer: 56.55143753519183 kcal/mol)

>  <smiles>  (3) 
CCNCCCCOc1ccccc1C(c1ccccc1)c1ccccc1

>  <score_type>  (3) 
oracle

>  <origin>  (3) 
adg

>  <m_score__min__energy>  (3) 
-8.0399999999999991

>  <m_primary>  (3) 
energy

$$$$
3:0
     RDKit          3D

 38 40  0  0  0  0  0  0  0  0999 V2000
   -2.0100   24.9620  -28.1480 C   0  0  0  0  0  0  0  0  0  0  0  0
   -2.7130   25.2760  -29.3470 O   0  0  0  0  0  0  0  0  0  0  0  0
   -3.4430   24.3470  -30.1030 C   0  0  0  0  0  0  0  0  0  0  0  0
   -2.8550   23.1100  -30.3830 C   0  0  0  0  0  0  0  0  0  0  0  0
   -3.5400   22.1500  -31.1340 C   0  0  0  0  0  0  0  0  0  0  0  0
   -4.8290   22.4160  -31.6270 C   0  0  0  0  0  0  0  0  0  0  0  0
   -5.5580   21.3890  -32.4180 C   0  0  0  0  0  0  0  0  0  0  0  0
   -4.8990   20.6900  -33.2970 N   0  0  0  0  0  0  0  0  0  0  0  0
   -5.4890   19.6680  -34.1590 C   0  0  0  0  0  0  0  0  0  0  0  0
   -5.8580   18.4190  -33.3500 C   0  0  0  0  0  0  0  0  0  0  0  0
   -6.6740   18.7160  -32.1610 N   0  0  0  0  0  0  0  0  0  0  0  0
   -6.8450   17.6490  -31.1730 C   0  0  0  0  0  0  0  0  0  0  0  0
   -7.5470   19.8640  -32.1180 C   0  0  0  0  0  0  0  0  0  0  0  0
   -8.9300   19.6920  -31.9320 C   0  0  0  0  0  0  0  0  0  0  0  0
   -9.7780   20.7980  -31.8560 C   0  0  0  0  0  0  0  0  0  0  0  0
   -9.2570   22.0870  -31.9600 C   0  0  0  0  0  0  0  0  0  0  0  0
   -7.8850   22.2760  -32.1420 C   0  0  0  0  0  0  0  0  0  0  0  0
   -7.0180   21.1710  -32.2180 C   0  0  0  0  0  0  0  0  0  0  0  0
   -5.4240   23.6580  -31.3360 C   0  0  0  0  0  0  0  0  0  0  0  0
   -4.7370   24.6150  -30.5850 C   0  0  0  0  0  0  0  0  0  0  0  0
   -2.6259   25.2371  -27.2791 H   0  0  0  0  0  0  0  0  0  0  0  0
   -1.7970   23.8832  -28.1197 H   0  0  0  0  0  0  0  0  0  0  0  0
   -1.0644   25.5233  -28.1197 H   0  0  0  0  0  0  0  0  0  0  0  0
   -1.8442   22.8899  -30.0091 H   0  0  0  0  0  0  0  0  0  0  0  0
   -3.0664   21.1789  -31.3406 H   0  0  0  0  0  0  0  0  0  0  0  0
   -6.3966   20.0736  -34.6299 H   0  0  0  0  0  0  0  0  0  0  0  0
   -4.7526   19.3861  -34.9259 H   0  0  0  0  0  0  0  0  0  0  0  0
   -6.4242   17.7362  -34.0005 H   0  0  0  0  0  0  0  0  0  0  0  0
   -4.9181   17.9700  -32.9965 H   0  0  0  0  0  0  0  0  0  0  0  0
   -6.7771   18.0728  -30.1602 H   0  0  0  0  0  0  0  0  0  0  0  0
   -7.8300   17.1784  -31.3083 H   0  0  0  0  0  0  0  0  0  0  0  0
   -6.0564   16.8942  -31.3083 H   0  0  0  0  0  0  0  0  0  0  0  0
   -9.3470   18.6778  -31.8457 H   0  0  0  0  0  0  0  0  0  0  0  0
  -10.8590   20.6524  -31.7138 H   0  0  0  0  0  0  0  0  0  0  0  0
   -9.9276   22.9568  -31.8986 H   0  0  0  0  0  0  0  0  0  0  0  0
   -7.4801   23.2953  -32.2264 H   0  0  0  0  0  0  0  0  0  0  0  0
   -6.4377   23.8768  -31.7027 H   0  0  0  0  0  0  0  0  0  0  0  0
   -5.2109   25.5840  -30.3693 H   0  0  0  0  0  0  0  0  0  0  0  0
  1  2  1  0
  2  3  1  0
  3  4  2  0
  4  5  1  0
  5  6  2  0
  6  7  1  0
  7  8  2  0
  8  9  1  0
  9 10  1  0
 10 11  1  0
 11 12  1  0
 11 13  1  0
 13 14  2  0
 14 15  1  0
 15 16  2  0
 16 17  1  0
 17 18  2  0
  6 19  1  0
 19 20  2  0
 20  3  1  0
 18  7  1  0
 18 13  1  0
  1 21  1  0
  1 22  1  0
  1 23  1  0
  4 24  1  0
  5 25  1  0
  9 26  1  0
  9 27  1  0
 10 28  1  0
 10 29  1  0
 12 30  1  0
 12 31  1  0
 12 32  1  0
 14 33  1  0
 15 34  1  0
 16 35  1  0
 17 36  1  0
 19 37  1  0
 20 38  1  0
M  END
>  <UniqueID>  (4) 
4

>  <SMILES>  (4) 
COc1ccc(C2=NCCN(C)c3ccccc32)cc1

>  <Energy>  (4) 
53.32003015880724

>  <Genealogy>  (4) 
COc1ccc(C2=NCCN(C)c3ccccc32)cc1 (3D coordinates assigned)
COc1ccc(C2=NCCN(C)c3ccccc32)cc1 (nonaromatic ring conformer: 53.32003015880724 kcal/mol)

>  <smiles>  (4) 
COc1ccc(C2=NCCN(C)c3ccccc32)cc1

>  <score_type>  (4) 
oracle

>  <origin>  (4) 
adg

>  <m_score__min__energy>  (4) 
-6.3799999999999999

>  <m_primary>  (4) 
energy

$$$$
4:0
     RDKit          3D

 52 54  0  0  0  0  0  0  0  0999 V2000
   -0.8600   25.0310  -28.2160 C   0  0  0  0  0  0  0  0  0  0  0  0
   -1.4910   23.7260  -28.5970 C   0  0  0  0  0  0  0  0  0  0  0  0
   -0.7790   22.6860  -29.2150 C   0  0  0  0  0  0  0  0  0  0  0  0
   -1.5520   21.5630  -29.4820 C   0  0  0  0  0  0  0  0  0  0  0  0
   -3.1190   21.8610  -28.9520 S   0  0  0  0  0  0  0  0  0  0  0  0
   -2.8370   23.4210  -28.3910 C   0  0  0  0  0  0  0  0  0  0  0  0
   -3.8660   24.2860  -27.7270 C   0  0  0  0  0  0  0  0  0  0  0  0
   -5.0310   24.4640  -28.5930 N   0  0  0  0  0  0  0  0  0  0  0  0
   -4.8980   24.9490  -29.9350 C   0  0  0  0  0  0  0  0  0  0  0  0
   -3.7580   25.0320  -30.4680 O   0  0  0  0  0  0  0  0  0  0  0  0
   -6.1300   25.2830  -30.7320 C   0  0  0  0  0  0  0  0  0  0  0  0
   -7.2020   24.1830  -30.6910 C   0  0  0  0  0  0  0  0  0  0  0  0
   -6.7430   22.8310  -30.0880 C   0  0  0  0  0  0  0  0  0  0  0  0
   -6.6430   21.7010  -31.0420 N   0  0  0  0  0  0  0  0  0  0  0  0
   -5.3050   21.5460  -31.6630 C   0  0  0  0  0  0  0  0  0  0  0  0
   -5.3610   20.8990  -33.0540 C   0  0  0  0  0  0  0  0  0  0  0  0
   -6.3770   19.8410  -33.0680 N   0  0  0  0  0  0  0  0  0  0  0  0
   -6.0420   18.4920  -33.4550 C   0  0  0  0  0  0  0  0  0  0  0  0
   -6.8800   17.4190  -33.1010 C   0  0  0  0  0  0  0  0  0  0  0  0
   -6.5530   16.1120  -33.4750 C   0  0  0  0  0  0  0  0  0  0  0  0
   -5.3900   15.8660  -34.2100 C   0  0  0  0  0  0  0  0  0  0  0  0
   -5.0690   14.5970  -34.5650 F   0  0  0  0  0  0  0  0  0  0  0  0
   -4.5580   16.9250  -34.5780 C   0  0  0  0  0  0  0  0  0  0  0  0
   -4.8830   18.2340  -34.2070 C   0  0  0  0  0  0  0  0  0  0  0  0
   -7.7400   20.1600  -32.6190 C   0  0  0  0  0  0  0  0  0  0  0  0
   -7.7920   21.5420  -31.9550 C   0  0  0  0  0  0  0  0  0  0  0  0
   -0.8204   25.1129  -27.1198 H   0  0  0  0  0  0  0  0  0  0  0  0
    0.1603   25.0780  -28.6243 H   0  0  0  0  0  0  0  0  0  0  0  0
   -1.4568   25.8599  -28.6243 H   0  0  0  0  0  0  0  0  0  0  0  0
    0.2902   22.7538  -29.4644 H   0  0  0  0  0  0  0  0  0  0  0  0
   -1.1988   20.6368  -29.9589 H   0  0  0  0  0  0  0  0  0  0  0  0
   -4.1843   23.8112  -26.7872 H   0  0  0  0  0  0  0  0  0  0  0  0
   -3.4217   25.2720  -27.5262 H   0  0  0  0  0  0  0  0  0  0  0  0
   -5.9910   24.2800  -28.2190 H   0  0  0  0  0  0  0  0  0  0  0  0
   -6.5655   26.2091  -30.3286 H   0  0  0  0  0  0  0  0  0  0  0  0
   -5.8176   25.3921  -31.7810 H   0  0  0  0  0  0  0  0  0  0  0  0
   -8.0459   24.5535  -30.0906 H   0  0  0  0  0  0  0  0  0  0  0  0
   -7.4635   23.9748  -31.7390 H   0  0  0  0  0  0  0  0  0  0  0  0
   -5.7507   22.9816  -29.6377 H   0  0  0  0  0  0  0  0  0  0  0  0
   -7.5225   22.5452  -29.3664 H   0  0  0  0  0  0  0  0  0  0  0  0
   -4.8449   22.5407  -31.7573 H   0  0  0  0  0  0  0  0  0  0  0  0
   -4.7160   20.8811  -31.0142 H   0  0  0  0  0  0  0  0  0  0  0  0
   -5.6187   21.6630  -33.8023 H   0  0  0  0  0  0  0  0  0  0  0  0
   -4.3793   20.4638  -33.2925 H   0  0  0  0  0  0  0  0  0  0  0  0
   -7.7984   17.6094  -32.5263 H   0  0  0  0  0  0  0  0  0  0  0  0
   -7.2110   15.2776  -33.1908 H   0  0  0  0  0  0  0  0  0  0  0  0
   -3.6456   16.7297  -35.1605 H   0  0  0  0  0  0  0  0  0  0  0  0
   -4.2280   19.0658  -34.5054 H   0  0  0  0  0  0  0  0  0  0  0  0
   -8.4155   20.1526  -33.4871 H   0  0  0  0  0  0  0  0  0  0  0  0
   -8.0511   19.4055  -31.8815 H   0  0  0  0  0  0  0  0  0  0  0  0
   -7.7532   22.3214  -32.7302 H   0  0  0  0  0  0  0  0  0  0  0  0
   -8.7267   21.6353  -31.3826 H   0  0  0  0  0  0  0  0  0  0  0  0
  1  2  1  0
  2  3  1  0
  3  4  2  0
  4  5  1  0
  5  6  1  0
  6  7  1  0
  7  8  1  0
  8  9  1  0
  9 10  2  0
  9 11  1  0
 11 12  1  0
 12 13  1  0
 13 14  1  0
 14 15  1  0
 15 16  1  0
 16 17  1  0
 17 18  1  0
 18 19  2  0
 19 20  1  0
 20 21  2  0
 21 22  1  0
 21 23  1  0
 23 24  2  0
 17 25  1  0
 25 26  1  0
  6  2  2  0
 26 14  1  0
 24 18  1  0
  1 27  1  0
  1 28  1  0
  1 29  1  0
  3 30  1  0
  4 31  1  0
  7 32  1  0
  7 33  1  0
  8 34  1  0
 11 35  1  0
 11 36  1  0
 12 37  1  0
 12 38  1  0
 13 39  1  0
 13 40  1  0
 15 41  1  0
 15 42  1  0
 16 43  1  0
 16 44  1  0
 19 45  1  0
 20 46  1  0
 23 47  1  0
 24 48  1  0
 25 49  1  0
 25 50  1  0
 26 51  1  0
 26 52  1  0
M  END
>  <UniqueID>  (5) 
5

>  <SMILES>  (5) 
Cc1ccsc1CNC(=O)CCCN1CCN(c2ccc(F)cc2)CC1

>  <Energy>  (5) 
85.77254543850327

>  <Genealogy>  (5) 
Cc1ccsc1CNC(=O)CCCN1CCN(c2ccc(F)cc2)CC1 (3D coordinates assigned)
Cc1ccsc1CNC(=O)CCCN1CCN(c2ccc(F)cc2)CC1 (nonaromatic ring conformer: 85.77254543850327 kcal/mol)

>  <smiles>  (5) 
Cc1ccsc1CNC(=O)CCCN1CCN(c2ccc(F)cc2)CC1

>  <score_type>  (5) 
oracle

>  <origin>  (5) 
adg

>  <m_score__min__energy>  (5) 
-8.8499999999999996

>  <m_primary>  (5) 
energy

$$$$
5:0
     RDKit          3D

 57 58  0  0  0  0  0  0  0  0999 V2000
   -6.3720   17.8640  -31.6160 C   0  0  0  0  0  0  0  0  0  0  0  0
   -5.4960   19.1140  -31.6030 C   0  0  0  0  0  0  0  0  0  0  0  0
   -5.5420   19.8080  -32.9090 N   0  0  0  0  0  0  0  0  0  0  0  0
   -6.4060   19.1110  -33.8900 C   0  0  0  0  0  0  0  0  0  0  0  0
   -5.6390   18.1750  -34.8360 C   0  0  0  0  0  0  0  0  0  0  0  0
   -4.2000   20.1350  -33.4520 C   0  0  0  0  0  0  0  0  0  0  0  0
   -3.7320   21.5040  -32.9370 C   0  0  0  0  0  0  0  0  0  0  0  0
   -2.3360   21.4640  -32.3000 C   0  0  0  0  0  0  0  0  0  0  0  0
   -2.1880   22.4950  -31.2750 N   0  0  0  0  0  0  0  0  0  0  0  0
   -2.9670   22.5480  -30.0740 C   0  0  0  0  0  0  0  0  0  0  0  0
   -4.0750   21.9480  -30.0240 O   0  0  0  0  0  0  0  0  0  0  0  0
   -2.4770   23.3340  -28.9100 C   0  0  0  0  0  0  0  0  0  0  0  0
   -1.1160   23.2490  -28.5560 C   0  0  0  0  0  0  0  0  0  0  0  0
   -0.6050   24.0040  -27.4980 C   0  0  0  0  0  0  0  0  0  0  0  0
   -1.4420   24.8510  -26.7750 C   0  0  0  0  0  0  0  0  0  0  0  0
   -2.7950   24.9410  -27.1010 C   0  0  0  0  0  0  0  0  0  0  0  0
   -3.3270   24.1890  -28.1620 C   0  0  0  0  0  0  0  0  0  0  0  0
   -4.7340   24.2500  -28.4170 N   0  0  0  0  0  0  0  0  0  0  0  0
   -5.3500   24.8710  -29.9120 S   0  0  0  0  0  0  0  0  0  0  0  0
   -6.1030   26.1460  -29.6470 O   0  0  0  0  0  0  0  0  0  0  0  0
   -4.2010   25.1790  -30.8310 O   0  0  0  0  0  0  0  0  0  0  0  0
   -6.3960   23.6820  -30.6810 C   0  0  0  0  0  0  0  0  0  0  0  0
   -6.3680   23.5280  -32.0730 C   0  0  0  0  0  0  0  0  0  0  0  0
   -7.1780   22.5720  -32.6930 C   0  0  0  0  0  0  0  0  0  0  0  0
   -8.0230   21.7550  -31.9310 C   0  0  0  0  0  0  0  0  0  0  0  0
   -8.8170   20.8100  -32.5990 O   0  0  0  0  0  0  0  0  0  0  0  0
   -9.1380   19.5220  -32.0820 C   0  0  0  0  0  0  0  0  0  0  0  0
   -8.0470   21.9070  -30.5300 C   0  0  0  0  0  0  0  0  0  0  0  0
   -7.2380   22.8650  -29.9110 C   0  0  0  0  0  0  0  0  0  0  0  0
   -6.5875   17.5565  -30.5821 H   0  0  0  0  0  0  0  0  0  0  0  0
   -7.3154   18.0828  -32.1376 H   0  0  0  0  0  0  0  0  0  0  0  0
   -5.8444   17.0519  -32.1376 H   0  0  0  0  0  0  0  0  0  0  0  0
   -5.8560   19.7973  -30.8198 H   0  0  0  0  0  0  0  0  0  0  0  0
   -4.4573   18.8117  -31.4034 H   0  0  0  0  0  0  0  0  0  0  0  0
   -7.1470   18.5146  -33.3375 H   0  0  0  0  0  0  0  0  0  0  0  0
   -6.8719   19.8870  -34.5151 H   0  0  0  0  0  0  0  0  0  0  0  0
   -5.0511   17.4575  -34.2448 H   0  0  0  0  0  0  0  0  0  0  0  0
   -6.3530   17.6293  -35.4704 H   0  0  0  0  0  0  0  0  0  0  0  0
   -4.9636   18.7678  -35.4704 H   0  0  0  0  0  0  0  0  0  0  0  0
   -3.4828   19.3639  -33.1341 H   0  0  0  0  0  0  0  0  0  0  0  0
   -4.2582   20.1682  -34.5500 H   0  0  0  0  0  0  0  0  0  0  0  0
   -3.7107   22.2073  -33.7826 H   0  0  0  0  0  0  0  0  0  0  0  0
   -4.4394   21.8193  -32.1559 H   0  0  0  0  0  0  0  0  0  0  0  0
   -2.1807   20.4770  -31.8399 H   0  0  0  0  0  0  0  0  0  0  0  0
   -1.5906   21.6492  -33.0875 H   0  0  0  0  0  0  0  0  0  0  0  0
   -0.4483   22.5805  -29.1193 H   0  0  0  0  0  0  0  0  0  0  0  0
    0.4605   23.9297  -27.2351 H   0  0  0  0  0  0  0  0  0  0  0  0
   -1.0354   25.4493  -25.9463 H   0  0  0  0  0  0  0  0  0  0  0  0
   -3.4518   25.6069  -26.5221 H   0  0  0  0  0  0  0  0  0  0  0  0
   -5.3940   23.7560  -27.7730 H   0  0  0  0  0  0  0  0  0  0  0  0
   -5.7058   24.1620  -32.6809 H   0  0  0  0  0  0  0  0  0  0  0  0
   -7.1516   22.4606  -33.7870 H   0  0  0  0  0  0  0  0  0  0  0  0
   -9.1296   19.5557  -30.9825 H   0  0  0  0  0  0  0  0  0  0  0  0
  -10.1376   19.2251  -32.4321 H   0  0  0  0  0  0  0  0  0  0  0  0
   -8.3946   18.7907  -32.4321 H   0  0  0  0  0  0  0  0  0  0  0  0
   -8.7048   21.2694  -29.9210 H   0  0  0  0  0  0  0  0  0  0  0  0
   -7.2617   22.9785  -28.8171 H   0  0  0  0  0  0  0  0  0  0  0  0
  1  2  1  0
  2  3  1  0
  3  4  1  0
  4  5  1  0
  3  6  1  0
  6  7  1  0
  7  8  1  0
  8  9  1  0
  9 10  1  0
 10 11  2  0
 10 12  1  0
 12 13  2  0
 13 14  1  0
 14 15  2  0
 15 16  1  0
 16 17  2  0
 17 18  1  0
 18 19  1  0
 19 20  2  0
 19 21  2  0
 19 22  1  0
 22 23  2  0
 23 24  1  0
 24 25  2  0
 25 26  1  0
 26 27  1  0
 25 28  1  0
 28 29  2  0
 17 12  1  0
 29 22  1  0
  1 30  1  0
  1 31  1  0
  1 32  1  0
  2 33  1  0
  2 34  1  0
  4 35  1  0
  4 36  1  0
  5 37  1  0
  5 38  1  0
  5 39  1  0
  6 40  1  0
  6 41  1  0
  7 42  1  0
  7 43  1  0
  8 44  1  0
  8 45  1  0
 13 46  1  0
 14 47  1  0
 15 48  1  0
 16 49  1  0
 18 50  1  0
 23 51  1  0
 24 52  1  0
 27 53  1  0
 27 54  1  0
 27 55  1  0
 28 56  1  0
 29 57  1  0
M  CHG  1   9  -1
M  END
>  <UniqueID>  (6) 
6

>  <SMILES>  (6) 
CCN(CC)CCC[N-]C(=O)c1ccccc1NS(=O)(=O)c1ccc(OC)cc1

>  <Energy>  (6) 
61.561818114696834

>  <Genealogy>  (6) 
CCN(CC)CCC[N-]C(=O)c1ccccc1NS(=O)(=O)c1ccc(OC)cc1 (protonated)
CCN(CC)CCC[N-]C(=O)c1ccccc1NS(=O)(=O)c1ccc(OC)cc1 (3D coordinates assigned)
CCN(CC)CCC[N-]C(=O)c1ccccc1NS(=O)(=O)c1ccc(OC)cc1 (optimized conformer: 61.561818114696834 kcal/mol)

>  <smiles>  (6) 
CCN(CC)CCCNC(=O)c1ccccc1NS(=O)(=O)c1ccc(OC)cc1

>  <score_type>  (6) 
oracle

>  <origin>  (6) 
adg

>  <m_score__min__energy>  (6) 
-9.3300000000000001

>  <m_primary>  (6) 
energy

$$$$
6:0
     RDKit          3D

 50 53  0  0  0  0  0  0  0  0999 V2000
   -2.2270   22.7110  -30.5040 C   0  0  0  0  0  0  0  0  0  0  0  0
   -2.3400   24.0650  -30.0820 O   0  0  0  0  0  0  0  0  0  0  0  0
   -2.3160   24.4870  -28.7430 C   0  0  0  0  0  0  0  0  0  0  0  0
   -1.1150   24.8300  -28.0910 C   0  0  0  0  0  0  0  0  0  0  0  0
   -1.1270   25.2190  -26.7490 C   0  0  0  0  0  0  0  0  0  0  0  0
   -2.3290   25.2690  -26.0440 C   0  0  0  0  0  0  0  0  0  0  0  0
   -3.5270   24.9340  -26.6800 C   0  0  0  0  0  0  0  0  0  0  0  0
   -3.5310   24.5520  -28.0300 C   0  0  0  0  0  0  0  0  0  0  0  0
   -4.7680   24.2140  -28.6770 N   0  0  0  0  0  0  0  0  0  0  0  0
   -5.1130   22.8050  -28.9000 C   0  0  0  0  0  0  0  0  0  0  0  0
   -6.2850   22.6780  -29.8790 C   0  0  0  0  0  0  0  0  0  0  0  0
   -6.1440   23.6980  -30.9310 N   0  0  0  0  0  0  0  0  0  0  0  0
   -6.9550   23.4210  -32.1370 C   0  0  0  0  0  0  0  0  0  0  0  0
   -7.1880   21.9520  -32.3970 C   0  0  0  0  0  0  0  0  0  0  0  0
   -8.3910   21.2740  -32.3200 C   0  0  0  0  0  0  0  0  0  0  0  0
   -8.1950   19.9770  -32.6260 N   0  0  0  0  0  0  0  0  0  0  0  0
   -6.9130   19.8130  -32.9150 N   0  0  0  0  0  0  0  0  0  0  0  0
   -6.3510   18.5430  -33.2800 C   0  0  0  0  0  0  0  0  0  0  0  0
   -6.3120   17.4770  -32.3630 C   0  0  0  0  0  0  0  0  0  0  0  0
   -5.7430   16.2530  -32.7270 C   0  0  0  0  0  0  0  0  0  0  0  0
   -5.1980   16.0860  -34.0030 C   0  0  0  0  0  0  0  0  0  0  0  0
   -5.2130   17.1460  -34.9130 C   0  0  0  0  0  0  0  0  0  0  0  0
   -5.7800   18.3710  -34.5510 C   0  0  0  0  0  0  0  0  0  0  0  0
   -6.2680   20.9950  -32.7880 C   0  0  0  0  0  0  0  0  0  0  0  0
   -4.5420   21.2510  -33.0210 Cl  0  0  0  0  0  0  0  0  0  0  0  0
   -6.3090   25.0780  -30.4180 C   0  0  0  0  0  0  0  0  0  0  0  0
   -5.7490   25.2580  -28.9930 C   0  0  0  0  0  0  0  0  0  0  0  0
   -2.1723   22.0555  -29.6223 H   0  0  0  0  0  0  0  0  0  0  0  0
   -3.1057   22.4406  -31.1080 H   0  0  0  0  0  0  0  0  0  0  0  0
   -1.3156   22.5900  -31.1080 H   0  0  0  0  0  0  0  0  0  0  0  0
   -0.1632   24.7914  -28.6411 H   0  0  0  0  0  0  0  0  0  0  0  0
   -0.1854   25.4866  -26.2472 H   0  0  0  0  0  0  0  0  0  0  0  0
   -2.3340   25.5723  -24.9867 H   0  0  0  0  0  0  0  0  0  0  0  0
   -4.4726   24.9699  -26.1191 H   0  0  0  0  0  0  0  0  0  0  0  0
   -4.2390   22.2813  -29.3145 H   0  0  0  0  0  0  0  0  0  0  0  0
   -5.4077   22.3587  -27.9388 H   0  0  0  0  0  0  0  0  0  0  0  0
   -6.2789   21.6763  -30.3335 H   0  0  0  0  0  0  0  0  0  0  0  0
   -7.2342   22.8258  -29.3432 H   0  0  0  0  0  0  0  0  0  0  0  0
   -7.9328   23.9101  -32.0160 H   0  0  0  0  0  0  0  0  0  0  0  0
   -6.3898   23.8103  -32.9966 H   0  0  0  0  0  0  0  0  0  0  0  0
   -9.3579   21.7241  -32.0506 H   0  0  0  0  0  0  0  0  0  0  0  0
   -6.7313   17.6071  -31.3544 H   0  0  0  0  0  0  0  0  0  0  0  0
   -5.7242   15.4205  -32.0083 H   0  0  0  0  0  0  0  0  0  0  0  0
   -4.7573   15.1201  -34.2908 H   0  0  0  0  0  0  0  0  0  0  0  0
   -4.7782   17.0163  -35.9151 H   0  0  0  0  0  0  0  0  0  0  0  0
   -5.7789   19.2062  -35.2669 H   0  0  0  0  0  0  0  0  0  0  0  0
   -5.7817   25.7688  -31.0924 H   0  0  0  0  0  0  0  0  0  0  0  0
   -7.3878   25.2892  -30.3784 H   0  0  0  0  0  0  0  0  0  0  0  0
   -5.2631   26.2421  -28.9193 H   0  0  0  0  0  0  0  0  0  0  0  0
   -6.5815   25.1842  -28.2778 H   0  0  0  0  0  0  0  0  0  0  0  0
  1  2  1  0
  2  3  1  0
  3  4  2  0
  4  5  1  0
  5  6  2  0
  6  7  1  0
  7  8  2  0
  8  9  1  0
  9 10  1  0
 10 11  1  0
 11 12  1  0
 12 13  1  0
 13 14  1  0
 14 15  1  0
 15 16  2  0
 16 17  1  0
 17 18  1  0
 18 19  2  0
 19 20  1  0
 20 21  2  0
 21 22  1  0
 22 23  2  0
 17 24  1  0
 24 25  1  0
 12 26  1  0
 26 27  1  0
  8  3  1  0
 27  9  1  0
 24 14  2  0
 23 18  1  0
  1 28  1  0
  1 29  1  0
  1 30  1  0
  4 31  1  0
  5 32  1  0
  6 33  1  0
  7 34  1  0
 10 35  1  0
 10 36  1  0
 11 37  1  0
 11 38  1  0
 13 39  1  0
 13 40  1  0
 15 41  1  0
 19 42  1  0
 20 43  1  0
 21 44  1  0
 22 45  1  0
 23 46  1  0
 26 47  1  0
 26 48  1  0
 27 49  1  0
 27 50  1  0
M  END
>  <UniqueID>  (7) 
7

>  <SMILES>  (7) 
COc1ccccc1N1CCN(Cc2cnn(-c3ccccc3)c2Cl)CC1

>  <Energy>  (7) 
101.30876601404312

>  <Genealogy>  (7) 
COc1ccccc1N1CCN(Cc2cnn(-c3ccccc3)c2Cl)CC1 (3D coordinates assigned)
COc1ccccc1N1CCN(Cc2cnn(-c3ccccc3)c2Cl)CC1 (nonaromatic ring conformer: 101.30876601404312 kcal/mol)

>  <smiles>  (7) 
COc1ccccc1N1CCN(Cc2cnn(-c3ccccc3)c2Cl)CC1

>  <score_type>  (7) 
oracle

>  <origin>  (7) 
adg

>  <m_score__min__energy>  (7) 
-8.9100000000000001

>  <m_primary>  (7) 
energy

$$$$
7:0
     RDKit          3D

 36 39  0  0  0  0  0  0  0  0999 V2000
   -2.3920   18.7110  -34.2740 H   0  0  0  0  0  0  0  0  0  0  0  0
   -3.1060   18.0430  -34.6420 N   0  0  0  0  0  0  0  0  0  0  0  0
   -4.3580   18.1630  -34.3340 C   0  0  0  0  0  0  0  0  0  0  0  0
   -5.3330   17.3440  -34.7770 N   0  0  0  0  0  0  0  0  0  0  0  0
   -5.2300   16.5200  -35.4100 H   0  0  0  0  0  0  0  0  0  0  0  0
   -6.4820   17.7650  -34.2620 N   0  0  0  0  0  0  0  0  0  0  0  0
   -6.1720   18.8450  -33.5080 C   0  0  0  0  0  0  0  0  0  0  0  0
   -7.0460   19.6320  -32.7650 C   0  0  0  0  0  0  0  0  0  0  0  0
   -8.4230   19.3710  -32.7120 C   0  0  0  0  0  0  0  0  0  0  0  0
   -8.8454   18.5260  -33.2756 H   0  0  0  0  0  0  0  0  0  0  0  0
   -9.2560   20.1840  -31.9440 C   0  0  0  0  0  0  0  0  0  0  0  0
  -10.3366   19.9819  -31.9061 H   0  0  0  0  0  0  0  0  0  0  0  0
   -8.7220   21.2540  -31.2230 C   0  0  0  0  0  0  0  0  0  0  0  0
   -9.3845   21.8881  -30.6155 H   0  0  0  0  0  0  0  0  0  0  0  0
   -7.3510   21.5250  -31.2680 C   0  0  0  0  0  0  0  0  0  0  0  0
   -6.9439   22.3702  -30.6936 H   0  0  0  0  0  0  0  0  0  0  0  0
   -6.4830   20.7240  -32.0440 C   0  0  0  0  0  0  0  0  0  0  0  0
   -5.1190   20.9690  -32.1090 N   0  0  0  0  0  0  0  0  0  0  0  0
   -4.5250   22.0780  -31.4060 C   0  0  0  0  0  0  0  0  0  0  0  0
   -5.0830   23.3590  -31.5150 C   0  0  0  0  0  0  0  0  0  0  0  0
   -5.9763   23.5173  -32.1371 H   0  0  0  0  0  0  0  0  0  0  0  0
   -4.5070   24.4360  -30.8350 C   0  0  0  0  0  0  0  0  0  0  0  0
   -4.9504   25.4389  -30.9225 H   0  0  0  0  0  0  0  0  0  0  0  0
   -3.3610   24.2430  -30.0380 C   0  0  0  0  0  0  0  0  0  0  0  0
   -2.7470   25.2900  -29.3360 O   0  0  0  0  0  0  0  0  0  0  0  0
   -1.9690   25.1190  -28.1560 C   0  0  0  0  0  0  0  0  0  0  0  0
   -2.6082   25.2595  -27.2718 H   0  0  0  0  0  0  0  0  0  0  0  0
   -1.5417   24.1055  -28.1422 H   0  0  0  0  0  0  0  0  0  0  0  0
   -1.1561   25.8599  -28.1422 H   0  0  0  0  0  0  0  0  0  0  0  0
   -2.8080   22.9600  -29.9380 C   0  0  0  0  0  0  0  0  0  0  0  0
   -1.9124   22.7986  -29.3201 H   0  0  0  0  0  0  0  0  0  0  0  0
   -3.3850   21.8830  -30.6170 C   0  0  0  0  0  0  0  0  0  0  0  0
   -2.9423   20.8797  -30.5312 H   0  0  0  0  0  0  0  0  0  0  0  0
   -4.3040   20.1530  -32.8580 C   0  0  0  0  0  0  0  0  0  0  0  0
   -3.0610   20.3620  -32.9280 O   0  0  0  0  0  0  0  0  0  0  0  0
   -4.8620   19.1160  -33.5320 N   0  0  0  0  0  0  0  0  0  0  0  0
  1  2  1  0
  2  3  2  0
  3  4  1  0
  4  5  1  0
  4  6  1  0
  6  7  2  0
  7  8  1  0
  8  9  2  0
  9 10  1  0
  9 11  1  0
 11 12  1  0
 11 13  2  0
 13 14  1  0
 13 15  1  0
 15 16  1  0
 15 17  2  0
 17 18  1  0
 18 19  1  0
 19 20  2  0
 20 21  1  0
 20 22  1  0
 22 23  1  0
 22 24  2  0
 24 25  1  0
 25 26  1  0
 26 27  1  0
 26 28  1  0
 26 29  1  0
 24 30  1  0
 30 31  1  0
 30 32  2  0
 32 33  1  0
 18 34  1  0
 34 35  2  0
 34 36  1  0
 36  3  1  0
 36  7  1  0
 17  8  1  0
 32 19  1  0
M  END
>  <UniqueID>  (8) 
8

>  <SMILES>  (8) 
[H]/N=c1\[nH]nc2c3ccccc3n(-c3ccc(OC)cc3)c(=O)n12

>  <Energy>  (8) 
99.27781655086237

>  <Genealogy>  (8) 
[H]/N=c1\[nH]nc2c3ccccc3n(-c3ccc(OC)cc3)c(=O)n12 (cis-trans isomerization)
[H]/N=c1\[nH]nc2c3ccccc3n(-c3ccc(OC)cc3)c(=O)n12 (3D coordinates assigned)
[H]/N=c1\[nH]nc2c3ccccc3n(-c3ccc(OC)cc3)c(=O)n12 (optimized conformer: 99.27781655086237 kcal/mol)

>  <smiles>  (8) 
COc1ccc(-n2c(=O)n3c(=N)[nH]nc3c3ccccc32)cc1

>  <score_type>  (8) 
oracle

>  <origin>  (8) 
adg

>  <m_score__min__energy>  (8) 
-8.1500000000000004

>  <m_primary>  (8) 
energy

$$$$
8:0
     RDKit          3D

 30 32  0  0  0  0  0  0  0  0999 V2000
   -6.8730   24.8970  -29.8780 C   0  0  0  0  0  0  0  0  0  0  0  0
   -6.2580   23.6860  -30.5060 C   0  0  0  0  0  0  0  0  0  0  0  0
   -7.0300   22.6430  -30.9180 N   0  0  0  0  0  0  0  0  0  0  0  0
   -6.2970   21.6460  -31.4600 C   0  0  0  0  0  0  0  0  0  0  0  0
   -6.8790   20.4060  -31.9800 C   0  0  0  0  0  0  0  0  0  0  0  0
   -6.2210   19.3490  -32.5950 C   0  0  0  0  0  0  0  0  0  0  0  0
   -7.0910   18.3040  -32.9720 C   0  0  0  0  0  0  0  0  0  0  0  0
   -6.4670   16.7250  -33.8370 Br  0  0  0  0  0  0  0  0  0  0  0  0
   -8.4070   18.4810  -32.6870 N   0  0  0  0  0  0  0  0  0  0  0  0
   -8.4870   19.9690  -31.9490 S   0  0  0  0  0  0  0  0  0  0  0  0
   -4.6580   22.0210  -31.4590 S   0  0  0  0  0  0  0  0  0  0  0  0
   -4.8840   23.5200  -30.7220 C   0  0  0  0  0  0  0  0  0  0  0  0
   -3.8060   24.4900  -30.4270 C   0  0  0  0  0  0  0  0  0  0  0  0
   -3.8990   25.6720  -30.8450 O   0  0  0  0  0  0  0  0  0  0  0  0
   -2.6110   24.0970  -29.7400 N   0  0  0  0  0  0  0  0  0  0  0  0
   -2.3380   22.7950  -29.2030 C   0  0  0  0  0  0  0  0  0  0  0  0
   -3.0190   22.3050  -28.0720 C   0  0  0  0  0  0  0  0  0  0  0  0
   -2.7150   21.0390  -27.5620 C   0  0  0  0  0  0  0  0  0  0  0  0
   -1.7220   20.2620  -28.1650 C   0  0  0  0  0  0  0  0  0  0  0  0
   -1.0260   20.7530  -29.2720 C   0  0  0  0  0  0  0  0  0  0  0  0
   -1.3280   22.0190  -29.7850 C   0  0  0  0  0  0  0  0  0  0  0  0
   -6.8266   24.8057  -28.7828 H   0  0  0  0  0  0  0  0  0  0  0  0
   -6.3214   25.7945  -30.1948 H   0  0  0  0  0  0  0  0  0  0  0  0
   -7.9230   24.9811  -30.1948 H   0  0  0  0  0  0  0  0  0  0  0  0
   -5.1352   19.3285  -32.7700 H   0  0  0  0  0  0  0  0  0  0  0  0
   -3.7923   22.9199  -27.5884 H   0  0  0  0  0  0  0  0  0  0  0  0
   -3.2576   20.6544  -26.6858 H   0  0  0  0  0  0  0  0  0  0  0  0
   -1.4885   19.2632  -27.7676 H   0  0  0  0  0  0  0  0  0  0  0  0
   -0.2395   20.1435  -29.7410 H   0  0  0  0  0  0  0  0  0  0  0  0
   -0.7694   22.4067  -30.6497 H   0  0  0  0  0  0  0  0  0  0  0  0
  1  2  1  0
  2  3  1  0
  3  4  2  0
  4  5  1  0
  5  6  2  0
  6  7  1  0
  7  8  1  0
  7  9  2  0
  9 10  1  0
  4 11  1  0
 11 12  1  0
 12 13  1  0
 13 14  2  0
 13 15  1  0
 15 16  1  0
 16 17  2  0
 17 18  1  0
 18 19  2  0
 19 20  1  0
 20 21  2  0
 12  2  2  0
 21 16  1  0
 10  5  1  0
  1 22  1  0
  1 23  1  0
  1 24  1  0
  6 25  1  0
 17 26  1  0
 18 27  1  0
 19 28  1  0
 20 29  1  0
 21 30  1  0
M  CHG  1  15  -1
M  END
>  <UniqueID>  (9) 
9

>  <SMILES>  (9) 
Cc1nc(-c2cc(Br)ns2)sc1C(=O)[N-]c1ccccc1

>  <Energy>  (9) 
98.47149758989534

>  <Genealogy>  (9) 
Cc1nc(-c2cc(Br)ns2)sc1C(=O)[N-]c1ccccc1 (protonated)
Cc1nc(-c2cc(Br)ns2)sc1C(=O)[N-]c1ccccc1 (3D coordinates assigned)
Cc1nc(-c2cc(Br)ns2)sc1C(=O)[N-]c1ccccc1 (optimized conformer: 98.47149758989534 kcal/mol)

>  <smiles>  (9) 
Cc1nc(-c2cc(Br)ns2)sc1C(=O)Nc1ccccc1

>  <score_type>  (9) 
oracle

>  <origin>  (9) 
adg

>  <m_score__min__energy>  (9) 
-9.9700000000000006

>  <m_primary>  (9) 
energy

$$$$
9:0
     RDKit          3D

 34 34  0  0  0  0  0  0  0  0999 V2000
   -6.2700   17.1160  -34.0430 C   0  0  0  0  0  0  0  0  0  0  0  0
   -5.7040   18.4900  -34.3890 C   0  0  0  0  0  0  0  0  0  0  0  0
   -5.9620   19.4970  -33.2570 C   0  0  0  0  0  0  0  0  0  0  0  0
   -7.1100   20.3750  -33.5420 N   0  0  0  0  0  0  0  0  0  0  0  0
   -8.0550   20.3870  -32.4470 C   0  0  0  0  0  0  0  0  0  0  0  0
   -8.7220   18.9570  -31.9730 S   0  0  0  0  0  0  0  0  0  0  0  0
   -8.3670   21.6150  -31.7360 N   0  0  0  0  0  0  0  0  0  0  0  0
   -9.0950   21.5660  -30.4630 C   0  0  0  0  0  0  0  0  0  0  0  0
   -7.9800   22.9280  -32.2830 C   0  0  0  0  0  0  0  0  0  0  0  0
   -6.7360   23.4570  -31.6140 C   0  0  0  0  0  0  0  0  0  0  0  0
   -6.8180   24.5370  -30.7160 C   0  0  0  0  0  0  0  0  0  0  0  0
   -5.6670   25.0210  -30.0860 C   0  0  0  0  0  0  0  0  0  0  0  0
   -4.4280   24.4250  -30.3360 C   0  0  0  0  0  0  0  0  0  0  0  0
   -3.3140   24.8950  -29.7230 F   0  0  0  0  0  0  0  0  0  0  0  0
   -4.3390   23.3420  -31.2160 C   0  0  0  0  0  0  0  0  0  0  0  0
   -5.4870   22.8560  -31.8480 C   0  0  0  0  0  0  0  0  0  0  0  0
   -6.3164   17.0033  -32.9498 H   0  0  0  0  0  0  0  0  0  0  0  0
   -7.2813   17.0192  -34.4649 H   0  0  0  0  0  0  0  0  0  0  0  0
   -5.6204   16.3350  -34.4649 H   0  0  0  0  0  0  0  0  0  0  0  0
   -4.6195   18.4013  -34.5504 H   0  0  0  0  0  0  0  0  0  0  0  0
   -6.2026   18.8535  -35.2997 H   0  0  0  0  0  0  0  0  0  0  0  0
   -6.1627   18.9421  -32.3286 H   0  0  0  0  0  0  0  0  0  0  0  0
   -5.0685   20.1313  -33.1602 H   0  0  0  0  0  0  0  0  0  0  0  0
   -6.7760   21.3340  -33.7840 H   0  0  0  0  0  0  0  0  0  0  0  0
   -7.5970   20.0110  -34.3950 H   0  0  0  0  0  0  0  0  0  0  0  0
   -8.3792   21.6142  -29.6292 H   0  0  0  0  0  0  0  0  0  0  0  0
   -9.7861   22.4197  -30.4027 H   0  0  0  0  0  0  0  0  0  0  0  0
   -9.6655   20.6274  -30.4027 H   0  0  0  0  0  0  0  0  0  0  0  0
   -7.7901   22.8247  -33.3616 H   0  0  0  0  0  0  0  0  0  0  0  0
   -8.8010   23.6362  -32.0977 H   0  0  0  0  0  0  0  0  0  0  0  0
   -7.7925   25.0031  -30.5083 H   0  0  0  0  0  0  0  0  0  0  0  0
   -5.7371   25.8721  -29.3927 H   0  0  0  0  0  0  0  0  0  0  0  0
   -3.3639   22.8718  -31.4112 H   0  0  0  0  0  0  0  0  0  0  0  0
   -5.4127   21.9982  -32.5325 H   0  0  0  0  0  0  0  0  0  0  0  0
  1  2  1  0
  2  3  1  0
  3  4  1  0
  4  5  1  0
  5  6  2  0
  5  7  1  0
  7  8  1  0
  7  9  1  0
  9 10  1  0
 10 11  2  0
 11 12  1  0
 12 13  2  0
 13 14  1  0
 13 15  1  0
 15 16  2  0
 16 10  1  0
  1 17  1  0
  1 18  1  0
  1 19  1  0
  2 20  1  0
  2 21  1  0
  3 22  1  0
  3 23  1  0
  4 24  1  0
  4 25  1  0
  8 26  1  0
  8 27  1  0
  8 28  1  0
  9 29  1  0
  9 30  1  0
 11 31  1  0
 12 32  1  0
 15 33  1  0
 16 34  1  0
M  CHG  1   4   1
M  END
>  <UniqueID>  (10) 
10

>  <SMILES>  (10) 
CCC[NH2+]C(=S)N(C)Cc1ccc(F)cc1

>  <Energy>  (10) 
28.62904765008835

>  <Genealogy>  (10) 
CCC[NH2+]C(=S)N(C)Cc1ccc(F)cc1 (protonated)
CCC[NH2+]C(=S)N(C)Cc1ccc(F)cc1 (3D coordinates assigned)
CCC[NH2+]C(=S)N(C)Cc1ccc(F)cc1 (optimized conformer: 28.62904765008835 kcal/mol)

>  <smiles>  (10) 
CCCNC(=S)N(C)Cc1ccc(F)cc1

>  <score_type>  (10) 
oracle

>  <origin>  (10) 
adg

>  <m_score__min__energy>  (10) 
-5.7400000000000002

>  <m_primary>  (10) 
energy

$$$$
10:0
     RDKit          3D

 30 31  0  0  0  0  0  0  0  0999 V2000
   -9.1090   18.6450  -31.2330 C   0  0  0  0  0  0  0  0  0  0  0  0
   -7.9000   18.8890  -32.1020 C   0  0  0  0  0  0  0  0  0  0  0  0
   -7.0870   17.7900  -32.4250 C   0  0  0  0  0  0  0  0  0  0  0  0
   -5.9680   17.9660  -33.2310 C   0  0  0  0  0  0  0  0  0  0  0  0
   -5.6610   19.2310  -33.7150 C   0  0  0  0  0  0  0  0  0  0  0  0
   -6.4870   20.3070  -33.3960 C   0  0  0  0  0  0  0  0  0  0  0  0
   -7.6040   20.1370  -32.6180 N   0  0  0  0  0  0  0  0  0  0  0  0
   -8.4470   21.3190  -32.3420 C   0  0  0  0  0  0  0  0  0  0  0  0
   -8.1070   21.9400  -31.0110 C   0  0  0  0  0  0  0  0  0  0  0  0
   -8.8750   21.7260  -30.0340 O   0  0  0  0  0  0  0  0  0  0  0  0
   -6.9170   22.8040  -30.8210 C   0  0  0  0  0  0  0  0  0  0  0  0
   -5.6120   22.2970  -30.9670 C   0  0  0  0  0  0  0  0  0  0  0  0
   -4.5040   23.1320  -30.7930 C   0  0  0  0  0  0  0  0  0  0  0  0
   -4.6840   24.4780  -30.4650 C   0  0  0  0  0  0  0  0  0  0  0  0
   -3.6070   25.2840  -30.2960 F   0  0  0  0  0  0  0  0  0  0  0  0
   -5.9740   24.9890  -30.3050 C   0  0  0  0  0  0  0  0  0  0  0  0
   -7.0850   24.1580  -30.4780 C   0  0  0  0  0  0  0  0  0  0  0  0
   -8.8173   18.7039  -30.1740 H   0  0  0  0  0  0  0  0  0  0  0  0
   -9.8733   19.4070  -31.4457 H   0  0  0  0  0  0  0  0  0  0  0  0
   -9.5179   17.6462  -31.4457 H   0  0  0  0  0  0  0  0  0  0  0  0
   -7.3358   16.7900  -32.0402 H   0  0  0  0  0  0  0  0  0  0  0  0
   -5.3288   17.1073  -33.4842 H   0  0  0  0  0  0  0  0  0  0  0  0
   -4.7724   19.3824  -34.3455 H   0  0  0  0  0  0  0  0  0  0  0  0
   -6.2392   21.3097  -33.7744 H   0  0  0  0  0  0  0  0  0  0  0  0
   -8.2886   22.0644  -33.1353 H   0  0  0  0  0  0  0  0  0  0  0  0
   -9.4979   20.9951  -32.3139 H   0  0  0  0  0  0  0  0  0  0  0  0
   -5.4628   21.2369  -31.2197 H   0  0  0  0  0  0  0  0  0  0  0  0
   -3.4881   22.7281  -30.9147 H   0  0  0  0  0  0  0  0  0  0  0  0
   -6.1162   26.0477  -30.0423 H   0  0  0  0  0  0  0  0  0  0  0  0
   -8.0979   24.5659  -30.3449 H   0  0  0  0  0  0  0  0  0  0  0  0
  1  2  1  0
  2  3  2  0
  3  4  1  0
  4  5  2  0
  5  6  1  0
  6  7  2  0
  7  8  1  0
  8  9  1  0
  9 10  2  0
  9 11  1  0
 11 12  2  0
 12 13  1  0
 13 14  2  0
 14 15  1  0
 14 16  1  0
 16 17  2  0
  7  2  1  0
 17 11  1  0
  1 18  1  0
  1 19  1  0
  1 20  1  0
  3 21  1  0
  4 22  1  0
  5 23  1  0
  6 24  1  0
  8 25  1  0
  8 26  1  0
 12 27  1  0
 13 28  1  0
 16 29  1  0
 17 30  1  0
M  CHG  1   7   1
M  END
>  <UniqueID>  (11) 
11

>  <SMILES>  (11) 
Cc1cccc[n+]1CC(=O)c1ccc(F)cc1

>  <Energy>  (11) 
35.256237698473825

>  <Genealogy>  (11) 
Cc1cccc[n+]1CC(=O)c1ccc(F)cc1 (3D coordinates assigned)
Cc1cccc[n+]1CC(=O)c1ccc(F)cc1 (optimized conformer: 35.256237698473825 kcal/mol)

>  <smiles>  (11) 
Cc1cccc[n+]1CC(=O)c1ccc(F)cc1

>  <score_type>  (11) 
oracle

>  <origin>  (11) 
adg

>  <m_score__min__energy>  (11) 
-6.3200000000000003

>  <m_primary>  (11) 
energy

$$$$
11:0
     RDKit          3D

 35 38  0  0  0  0  0  0  0  0999 V2000
   -2.5760   24.5520  -29.2260 C   0  0  0  0  0  0  0  0  0  0  0  0
   -3.4890   25.1070  -30.1660 O   0  0  0  0  0  0  0  0  0  0  0  0
   -4.7450   24.5590  -30.4680 C   0  0  0  0  0  0  0  0  0  0  0  0
   -5.9550   25.1180  -29.9740 C   0  0  0  0  0  0  0  0  0  0  0  0
   -7.1960   24.5350  -30.2890 C   0  0  0  0  0  0  0  0  0  0  0  0
   -7.2140   23.4080  -31.1070 C   0  0  0  0  0  0  0  0  0  0  0  0
   -6.0340   22.8760  -31.5970 C   0  0  0  0  0  0  0  0  0  0  0  0
   -4.7900   23.4140  -31.2850 C   0  0  0  0  0  0  0  0  0  0  0  0
   -6.4090   21.7060  -32.3510 C   0  0  0  0  0  0  0  0  0  0  0  0
   -5.7270   20.5630  -32.5430 N   0  0  0  0  0  0  0  0  0  0  0  0
   -6.7000   19.6230  -32.6520 C   0  0  0  0  0  0  0  0  0  0  0  0
   -6.4450   18.1770  -32.7540 C   0  0  0  0  0  0  0  0  0  0  0  0
   -5.7570   17.3790  -31.8580 C   0  0  0  0  0  0  0  0  0  0  0  0
   -5.7630   16.1080  -32.3040 N   0  0  0  0  0  0  0  0  0  0  0  0
   -6.4190   16.0900  -33.4540 N   0  0  0  0  0  0  0  0  0  0  0  0
   -6.6960   14.8780  -34.2120 C   0  0  0  0  0  0  0  0  0  0  0  0
   -6.8620   17.3240  -33.7550 C   0  0  0  0  0  0  0  0  0  0  0  0
   -7.9460   20.2210  -32.4780 C   0  0  0  0  0  0  0  0  0  0  0  0
   -7.7260   21.5370  -32.3240 N   0  0  0  0  0  0  0  0  0  0  0  0
   -8.3920   22.5610  -31.5250 C   0  0  0  0  0  0  0  0  0  0  0  0
   -2.9261   24.7648  -28.2052 H   0  0  0  0  0  0  0  0  0  0  0  0
   -2.5146   23.4636  -29.3731 H   0  0  0  0  0  0  0  0  0  0  0  0
   -1.5815   24.9986  -29.3731 H   0  0  0  0  0  0  0  0  0  0  0  0
   -5.9207   26.0155  -29.3390 H   0  0  0  0  0  0  0  0  0  0  0  0
   -8.1320   24.9602  -29.8976 H   0  0  0  0  0  0  0  0  0  0  0  0
   -3.8654   22.9565  -31.6669 H   0  0  0  0  0  0  0  0  0  0  0  0
   -4.6980   20.4140  -32.4480 H   0  0  0  0  0  0  0  0  0  0  0  0
   -5.2809   17.7268  -30.9294 H   0  0  0  0  0  0  0  0  0  0  0  0
   -6.8860   14.0465  -33.5174 H   0  0  0  0  0  0  0  0  0  0  0  0
   -7.5812   15.0361  -34.8456 H   0  0  0  0  0  0  0  0  0  0  0  0
   -5.8300   14.6358  -34.8456 H   0  0  0  0  0  0  0  0  0  0  0  0
   -7.4514   17.6031  -34.6409 H   0  0  0  0  0  0  0  0  0  0  0  0
   -8.9218   19.7134  -32.4685 H   0  0  0  0  0  0  0  0  0  0  0  0
   -9.1118   23.1373  -32.1248 H   0  0  0  0  0  0  0  0  0  0  0  0
   -8.9887   22.1681  -30.6886 H   0  0  0  0  0  0  0  0  0  0  0  0
  1  2  1  0
  2  3  1  0
  3  4  2  0
  4  5  1  0
  5  6  2  0
  6  7  1  0
  7  8  2  0
  7  9  1  0
  9 10  2  0
 10 11  1  0
 11 12  1  0
 12 13  1  0
 13 14  2  0
 14 15  1  0
 15 16  1  0
 15 17  1  0
 11 18  2  0
 18 19  1  0
 19 20  1  0
  8  3  1  0
 19  9  1  0
 20  6  1  0
 17 12  2  0
  1 21  1  0
  1 22  1  0
  1 23  1  0
  4 24  1  0
  5 25  1  0
  8 26  1  0
 10 27  1  0
 13 28  1  0
 16 29  1  0
 16 30  1  0
 16 31  1  0
 17 32  1  0
 18 33  1  0
 20 34  1  0
 20 35  1  0
M  CHG  1  10   1
M  END
>  <UniqueID>  (12) 
12

>  <SMILES>  (12) 
COc1ccc2c(c1)-c1[nH+]c(-c3cnn(C)c3)cn1C2

>  <Energy>  (12) 
138.09539094909482

>  <Genealogy>  (12) 
COc1ccc2c(c1)-c1[nH+]c(-c3cnn(C)c3)cn1C2 (protonated)
COc1ccc2c(c1)-c1[nH+]c(-c3cnn(C)c3)cn1C2 (3D coordinates assigned)
COc1ccc2c(c1)-c1[nH+]c(-c3cnn(C)c3)cn1C2 (nonaromatic ring conformer: 138.09539094909482 kcal/mol)

>  <smiles>  (12) 
COc1ccc2c(c1)-c1nc(-c3cnn(C)c3)cn1C2

>  <score_type>  (12) 
oracle

>  <origin>  (12) 
adg

>  <m_score__min__energy>  (12) 
-7.2800000000000002

>  <m_primary>  (12) 
energy

$$$$
12:0
     RDKit          3D

 34 35  0  0  0  0  0  0  0  0999 V2000
   -2.1360   24.2490  -29.2900 C   0  0  0  0  0  0  0  0  0  0  0  0
   -3.1050   24.9170  -30.0910 O   0  0  0  0  0  0  0  0  0  0  0  0
   -4.3930   24.4270  -30.3520 C   0  0  0  0  0  0  0  0  0  0  0  0
   -5.4780   25.2900  -30.1840 C   0  0  0  0  0  0  0  0  0  0  0  0
   -6.7800   24.8570  -30.4440 C   0  0  0  0  0  0  0  0  0  0  0  0
   -7.0190   23.5360  -30.8690 C   0  0  0  0  0  0  0  0  0  0  0  0
   -8.3150   23.0680  -31.1390 O   0  0  0  0  0  0  0  0  0  0  0  0
   -9.0420   23.3430  -32.3320 C   0  0  0  0  0  0  0  0  0  0  0  0
   -5.9350   22.6530  -31.0220 C   0  0  0  0  0  0  0  0  0  0  0  0
   -6.1720   21.3100  -31.4830 N   0  0  0  0  0  0  0  0  0  0  0  0
   -5.5150   20.7360  -32.6290 C   0  0  0  0  0  0  0  0  0  0  0  0
   -4.6410   21.4000  -33.2510 O   0  0  0  0  0  0  0  0  0  0  0  0
   -5.8400   19.3660  -33.0940 C   0  0  0  0  0  0  0  0  0  0  0  0
   -6.7810   18.5650  -32.4180 C   0  0  0  0  0  0  0  0  0  0  0  0
   -7.0660   17.2730  -32.8730 C   0  0  0  0  0  0  0  0  0  0  0  0
   -6.4140   16.7650  -33.9980 C   0  0  0  0  0  0  0  0  0  0  0  0
   -6.6920   15.5120  -34.4350 F   0  0  0  0  0  0  0  0  0  0  0  0
   -5.4680   17.5450  -34.6680 C   0  0  0  0  0  0  0  0  0  0  0  0
   -5.1790   18.8360  -34.2170 C   0  0  0  0  0  0  0  0  0  0  0  0
   -4.6260   23.1070  -30.7790 C   0  0  0  0  0  0  0  0  0  0  0  0
   -2.3668   24.4081  -28.2263 H   0  0  0  0  0  0  0  0  0  0  0  0
   -2.1560   23.1719  -29.5124 H   0  0  0  0  0  0  0  0  0  0  0  0
   -1.1365   24.6508  -29.5124 H   0  0  0  0  0  0  0  0  0  0  0  0
   -5.3053   26.3216  -29.8433 H   0  0  0  0  0  0  0  0  0  0  0  0
   -7.6233   25.5516  -30.3161 H   0  0  0  0  0  0  0  0  0  0  0  0
  -10.0419   23.7212  -32.0731 H   0  0  0  0  0  0  0  0  0  0  0  0
   -8.5051   24.1002  -32.9223 H   0  0  0  0  0  0  0  0  0  0  0  0
   -9.1406   22.4200  -32.9223 H   0  0  0  0  0  0  0  0  0  0  0  0
   -6.8290   20.7240  -30.9230 H   0  0  0  0  0  0  0  0  0  0  0  0
   -7.2944   18.9573  -31.5278 H   0  0  0  0  0  0  0  0  0  0  0  0
   -7.8060   16.6557  -32.3427 H   0  0  0  0  0  0  0  0  0  0  0  0
   -4.9502   17.1427  -35.5512 H   0  0  0  0  0  0  0  0  0  0  0  0
   -4.4283   19.4427  -34.7446 H   0  0  0  0  0  0  0  0  0  0  0  0
   -3.7765   22.4234  -30.9242 H   0  0  0  0  0  0  0  0  0  0  0  0
  1  2  1  0
  2  3  1  0
  3  4  2  0
  4  5  1  0
  5  6  2  0
  6  7  1  0
  7  8  1  0
  6  9  1  0
  9 10  1  0
 10 11  1  0
 11 12  2  0
 11 13  1  0
 13 14  2  0
 14 15  1  0
 15 16  2  0
 16 17  1  0
 16 18  1  0
 18 19  2  0
  9 20  2  0
 20  3  1  0
 19 13  1  0
  1 21  1  0
  1 22  1  0
  1 23  1  0
  4 24  1  0
  5 25  1  0
  8 26  1  0
  8 27  1  0
  8 28  1  0
 10 29  1  0
 14 30  1  0
 15 31  1  0
 18 32  1  0
 19 33  1  0
 20 34  1  0
M  END
>  <UniqueID>  (13) 
13

>  <SMILES>  (13) 
COc1ccc(OC)c(NC(=O)c2ccc(F)cc2)c1

>  <Energy>  (13) 
40.662149014549186

>  <Genealogy>  (13) 
COc1ccc(OC)c(NC(=O)c2ccc(F)cc2)c1 (3D coordinates assigned)
COc1ccc(OC)c(NC(=O)c2ccc(F)cc2)c1 (optimized conformer: 40.662149014549186 kcal/mol)

>  <smiles>  (13) 
COc1ccc(OC)c(NC(=O)c2ccc(F)cc2)c1

>  <score_type>  (13) 
oracle

>  <origin>  (13) 
adg

>  <m_score__min__energy>  (13) 
-6.7800000000000002

>  <m_primary>  (13) 
energy

$$$$
13:0
     RDKit          3D

 38 37  0  0  0  0  0  0  0  0999 V2000
   -1.2240   26.4320  -24.7020 C   0  0  0  0  0  0  0  0  0  0  0  0
   -2.1040   25.6730  -25.6950 C   0  0  0  0  0  0  0  0  0  0  0  0
   -1.4390   25.4780  -27.0680 C   0  0  0  0  0  0  0  0  0  0  0  0
   -2.2480   24.5850  -28.0230 C   0  0  0  0  0  0  0  0  0  0  0  0
   -2.4040   25.2180  -29.3340 N   0  0  0  0  0  0  0  0  0  0  0  0
   -3.7740   24.5720  -30.1900 S   0  0  0  0  0  0  0  0  0  0  0  0
   -4.5030   25.6710  -30.9090 O   0  0  0  0  0  0  0  0  0  0  0  0
   -3.3100   23.5480  -31.1890 O   0  0  0  0  0  0  0  0  0  0  0  0
   -4.8920   23.8060  -29.0250 C   0  0  0  0  0  0  0  0  0  0  0  0
   -6.1410   23.2550  -29.7140 C   0  0  0  0  0  0  0  0  0  0  0  0
   -5.8880   23.0550  -31.1470 N   0  0  0  0  0  0  0  0  0  0  0  0
   -7.1250   22.8080  -31.9060 C   0  0  0  0  0  0  0  0  0  0  0  0
   -8.1900   22.0700  -31.0710 C   0  0  0  0  0  0  0  0  0  0  0  0
   -9.1390   21.2280  -31.9370 C   0  0  0  0  0  0  0  0  0  0  0  0
   -8.7560   19.7490  -31.9640 C   0  0  0  0  0  0  0  0  0  0  0  0
   -1.5231   26.1740  -23.6754 H   0  0  0  0  0  0  0  0  0  0  0  0
   -0.1712   26.1540  -24.8580 H   0  0  0  0  0  0  0  0  0  0  0  0
   -1.3444   27.5142  -24.8580 H   0  0  0  0  0  0  0  0  0  0  0  0
   -2.3329   24.6830  -25.2736 H   0  0  0  0  0  0  0  0  0  0  0  0
   -3.0113   26.2743  -25.8537 H   0  0  0  0  0  0  0  0  0  0  0  0
   -1.3140   26.4651  -27.5371 H   0  0  0  0  0  0  0  0  0  0  0  0
   -0.4775   24.9735  -26.8918 H   0  0  0  0  0  0  0  0  0  0  0  0
   -1.7242   23.6258  -28.1476 H   0  0  0  0  0  0  0  0  0  0  0  0
   -3.2472   24.4276  -27.5907 H   0  0  0  0  0  0  0  0  0  0  0  0
   -4.3696   22.9795  -28.5210 H   0  0  0  0  0  0  0  0  0  0  0  0
   -5.2101   24.5720  -28.3025 H   0  0  0  0  0  0  0  0  0  0  0  0
   -6.4130   22.2926  -29.2560 H   0  0  0  0  0  0  0  0  0  0  0  0
   -6.9629   23.9761  -29.5936 H   0  0  0  0  0  0  0  0  0  0  0  0
   -5.4070   23.9020  -31.5320 H   0  0  0  0  0  0  0  0  0  0  0  0
   -7.5384   23.7740  -32.2315 H   0  0  0  0  0  0  0  0  0  0  0  0
   -6.8697   22.1688  -32.7641 H   0  0  0  0  0  0  0  0  0  0  0  0
   -7.6805   21.4053  -30.3579 H   0  0  0  0  0  0  0  0  0  0  0  0
   -8.7951   22.8301  -30.5552 H   0  0  0  0  0  0  0  0  0  0  0  0
  -10.1584   21.3203  -31.5340 H   0  0  0  0  0  0  0  0  0  0  0  0
   -9.0732   21.6073  -32.9674 H   0  0  0  0  0  0  0  0  0  0  0  0
   -8.6595   19.3764  -30.9336 H   0  0  0  0  0  0  0  0  0  0  0  0
   -9.5359   19.1778  -32.4889 H   0  0  0  0  0  0  0  0  0  0  0  0
   -7.7969   19.6281  -32.4889 H   0  0  0  0  0  0  0  0  0  0  0  0
  1  2  1  0
  2  3  1  0
  3  4  1  0
  4  5  1  0
  5  6  1  0
  6  7  2  0
  6  8  2  0
  6  9  1  0
  9 10  1  0
 10 11  1  0
 11 12  1  0
 12 13  1  0
 13 14  1  0
 14 15  1  0
  1 16  1  0
  1 17  1  0
  1 18  1  0
  2 19  1  0
  2 20  1  0
  3 21  1  0
  3 22  1  0
  4 23  1  0
  4 24  1  0
  9 25  1  0
  9 26  1  0
 10 27  1  0
 10 28  1  0
 11 29  1  0
 12 30  1  0
 12 31  1  0
 13 32  1  0
 13 33  1  0
 14 34  1  0
 14 35  1  0
 15 36  1  0
 15 37  1  0
 15 38  1  0
M  CHG  1   5  -1
M  END
>  <UniqueID>  (14) 
14

>  <SMILES>  (14) 
CCCC[N-]S(=O)(=O)CCNCCCC

>  <Energy>  (14) 
16.056811643101366

>  <Genealogy>  (14) 
CCCC[N-]S(=O)(=O)CCNCCCC (protonated)
CCCC[N-]S(=O)(=O)CCNCCCC (3D coordinates assigned)
CCCC[N-]S(=O)(=O)CCNCCCC (optimized conformer: 16.056811643101366 kcal/mol)

>  <smiles>  (14) 
CCCCNCCS(=O)(=O)NCCCC

>  <score_type>  (14) 
oracle

>  <origin>  (14) 
adg

>  <m_score__min__energy>  (14) 
-6.8899999999999997

>  <m_primary>  (14) 
energy

$$$$
14:0
     RDKit          3D

 47 49  0  0  1  0  0  0  0  0999 V2000
   -1.3290   26.3450  -24.7780 C   0  0  0  0  0  0  0  0  0  0  0  0
   -0.8800   26.6160  -26.2040 C   0  0  0  0  0  0  0  0  0  0  0  0
   -1.6420   25.7810  -27.1400 N   0  0  0  0  0  0  0  0  0  0  0  0
   -0.9760   24.9170  -28.0410 C   0  0  0  0  0  0  0  0  0  0  0  0
    0.3000   24.9230  -27.9770 O   0  0  0  0  0  0  0  0  0  0  0  0
   -1.6820   24.0670  -28.9890 C   0  0  0  0  0  0  0  0  0  0  0  0
   -1.2490   22.8080  -29.3490 C   0  0  0  0  0  0  0  0  0  0  0  0
   -1.9480   22.0520  -30.2420 C   0  0  0  0  0  0  0  0  0  0  0  0
   -5.7460   19.6570  -33.6120 C   0  0  0  0  0  0  0  0  0  0  0  0
   -6.9960   19.8250  -33.0510 C   0  0  0  0  0  0  0  0  0  0  0  0
   -7.6090   21.1270  -32.9530 N   0  0  0  0  0  0  0  0  0  0  0  0
   -7.2310   21.8900  -31.9580 C   0  0  0  0  0  0  0  0  0  0  0  0
   -6.4990   23.4390  -29.8750 N   0  0  0  0  0  0  0  0  0  0  0  0
   -7.5830   22.6460  -29.7260 C   0  0  0  0  0  0  0  0  0  0  0  0
   -7.9800   21.8340  -30.7960 C   0  0  0  0  0  0  0  0  0  0  0  0
   -5.7810   23.4820  -31.0100 C   0  0  0  0  0  0  0  0  0  0  0  0
   -4.7680   24.2600  -31.0670 N   0  0  0  0  0  0  0  0  0  0  0  0
   -3.5590   23.8030  -30.4550 C   0  0  0  0  0  0  0  0  0  0  0  0
   -3.1120   22.5290  -30.8130 C   0  0  0  0  0  0  0  0  0  0  0  0
   -5.1770   18.3830  -33.6930 C   0  0  0  0  0  0  0  0  0  0  0  0
   -5.8990   17.3070  -33.2000 C   0  0  0  0  0  0  0  0  0  0  0  0
   -7.1520   17.4760  -32.6390 C   0  0  0  0  0  0  0  0  0  0  0  0
   -7.7130   18.7320  -32.5580 C   0  0  0  0  0  0  0  0  0  0  0  0
   -9.0530   18.9330  -31.9600 C   0  0  0  0  0  0  0  0  0  0  0  0
   -6.1590   22.7000  -32.0490 N   0  0  0  0  0  0  0  0  0  0  0  0
   -2.8460   24.5460  -29.5570 C   0  0  0  0  0  0  0  0  0  0  0  0
   -0.6040   26.7826  -24.0759 H   0  0  0  0  0  0  0  0  0  0  0  0
   -2.3181   26.7971  -24.6129 H   0  0  0  0  0  0  0  0  0  0  0  0
   -1.3899   25.2592  -24.6129 H   0  0  0  0  0  0  0  0  0  0  0  0
   -1.0479   27.6765  -26.4430 H   0  0  0  0  0  0  0  0  0  0  0  0
    0.1896   26.3763  -26.2964 H   0  0  0  0  0  0  0  0  0  0  0  0
   -2.6810   25.8380  -27.1270 H   0  0  0  0  0  0  0  0  0  0  0  0
   -0.3243   22.4074  -28.9081 H   0  0  0  0  0  0  0  0  0  0  0  0
   -1.5811   21.0505  -30.5112 H   0  0  0  0  0  0  0  0  0  0  0  0
   -5.1960   20.5286  -33.9965 H   0  0  0  0  0  0  0  0  0  0  0  0
   -6.2270   24.0260  -29.0750 H   0  0  0  0  0  0  0  0  0  0  0  0
   -8.1443   22.6383  -28.7800 H   0  0  0  0  0  0  0  0  0  0  0  0
   -8.8568   21.1747  -30.7153 H   0  0  0  0  0  0  0  0  0  0  0  0
   -3.6749   21.9184  -31.5343 H   0  0  0  0  0  0  0  0  0  0  0  0
   -4.1811   18.2376  -34.1369 H   0  0  0  0  0  0  0  0  0  0  0  0
   -5.4662   16.2973  -33.2562 H   0  0  0  0  0  0  0  0  0  0  0  0
   -7.7028   16.6043  -32.2560 H   0  0  0  0  0  0  0  0  0  0  0  0
   -8.9706   18.9206  -30.8632 H   0  0  0  0  0  0  0  0  0  0  0  0
   -9.4586   19.9020  -32.2864 H   0  0  0  0  0  0  0  0  0  0  0  0
   -9.7250   18.1256  -32.2864 H   0  0  0  0  0  0  0  0  0  0  0  0
   -5.6240   22.7090  -32.9410 H   0  0  0  0  0  0  0  0  0  0  0  0
   -3.2071   25.5476  -29.2805 H   0  0  0  0  0  0  0  0  0  0  0  0
  1  2  1  0
  2  3  1  0
  3  4  1  0
  4  5  2  0
  4  6  1  0
  6  7  2  0
  7  8  1  0
  8  9  2  0
  9 10  1  0
 10 11  1  0
 11 12  2  0
 12 13  1  0
 13 14  1  0
 14 15  2  0
 15 16  1  0
 16 17  2  0
 17 18  1  0
 18 19  2  0
 19 20  1  0
 20 21  2  0
 21 22  1  0
 22 23  2  0
 23 24  1  0
 16 25  1  0
 10 26  2  0
 26  6  1  0
 25 12  1  0
 23 18  1  0
  1 27  1  0
  1 28  1  0
  1 29  1  0
  2 30  1  0
  2 31  1  0
  3 32  1  0
  7 33  1  0
  8 34  1  0
  9 35  1  0
 13 36  1  0
 14 37  1  0
 15 38  1  0
 19 39  1  0
 20 40  1  0
 21 41  1  0
 22 42  1  0
 24 43  1  0
 24 44  1  0
 24 45  1  0
 25 46  1  0
 26 47  1  0
M  END
>  <smiles>  (15) 
CCNC(=O)c1cccc(N=c2[nH]ccc(=Nc3ccccc3C)[nH]2)c1

>  <score_type>  (15) 
oracle

>  <origin>  (15) 
adg

>  <m_score__min__energy>  (15) 
-9.3800000000000008

>  <m_primary>  (15) 
energy

$$$$
15:0
     RDKit          3D

 57 60  0  0  0  0  0  0  0  0999 V2000
   -5.3600   25.7050  -30.4640 C   0  0  0  0  0  0  0  0  0  0  0  0
   -4.0060   25.2960  -30.6400 O   0  0  0  0  0  0  0  0  0  0  0  0
   -3.4110   24.2140  -29.9710 C   0  0  0  0  0  0  0  0  0  0  0  0
   -2.1460   24.3180  -29.3540 C   0  0  0  0  0  0  0  0  0  0  0  0
   -1.5820   23.2120  -28.7110 C   0  0  0  0  0  0  0  0  0  0  0  0
   -2.2690   21.9960  -28.6770 C   0  0  0  0  0  0  0  0  0  0  0  0
   -3.5220   21.8820  -29.2860 C   0  0  0  0  0  0  0  0  0  0  0  0
   -4.0990   22.9860  -29.9280 C   0  0  0  0  0  0  0  0  0  0  0  0
   -5.3770   22.8440  -30.5640 N   0  0  0  0  0  0  0  0  0  0  0  0
   -6.5870   22.7200  -29.7410 C   0  0  0  0  0  0  0  0  0  0  0  0
   -7.8520   22.6640  -30.6060 C   0  0  0  0  0  0  0  0  0  0  0  0
   -7.6680   21.7320  -31.7300 N   0  0  0  0  0  0  0  0  0  0  0  0
   -8.7710   20.9040  -32.1600 C   0  0  0  0  0  0  0  0  0  0  0  0
   -9.9430   21.1730  -31.7780 O   0  0  0  0  0  0  0  0  0  0  0  0
   -8.5590   19.6780  -33.0030 C   0  0  0  0  0  0  0  0  0  0  0  0
   -7.9750   18.2730  -31.9870 S   0  0  0  0  0  0  0  0  0  0  0  0
   -6.3120   18.2660  -32.6810 C   0  0  0  0  0  0  0  0  0  0  0  0
   -5.4160   19.1730  -32.2110 N   0  0  0  0  0  0  0  0  0  0  0  0
   -4.1500   19.2580  -32.6960 C   0  0  0  0  0  0  0  0  0  0  0  0
   -3.2680   20.2200  -32.1910 C   0  0  0  0  0  0  0  0  0  0  0  0
   -1.9660   20.3290  -32.7100 C   0  0  0  0  0  0  0  0  0  0  0  0
   -1.0110   21.3480  -32.1570 C   0  0  0  0  0  0  0  0  0  0  0  0
   -1.5460   19.4440  -33.7150 C   0  0  0  0  0  0  0  0  0  0  0  0
   -2.4200   18.4750  -34.2170 C   0  0  0  0  0  0  0  0  0  0  0  0
   -3.7280   18.3810  -33.7160 C   0  0  0  0  0  0  0  0  0  0  0  0
   -4.6270   17.4250  -34.2020 C   0  0  0  0  0  0  0  0  0  0  0  0
   -5.9340   17.3600  -33.6960 C   0  0  0  0  0  0  0  0  0  0  0  0
   -6.8580   16.2730  -34.1750 C   0  0  0  0  0  0  0  0  0  0  0  0
   -6.4090   21.7400  -32.4960 C   0  0  0  0  0  0  0  0  0  0  0  0
   -5.4610   22.8460  -32.0260 C   0  0  0  0  0  0  0  0  0  0  0  0
   -5.5857   25.7732  -29.3896 H   0  0  0  0  0  0  0  0  0  0  0  0
   -5.5099   26.6885  -30.9333 H   0  0  0  0  0  0  0  0  0  0  0  0
   -6.0293   24.9690  -30.9333 H   0  0  0  0  0  0  0  0  0  0  0  0
   -1.6014   25.2734  -29.3791 H   0  0  0  0  0  0  0  0  0  0  0  0
   -0.5960   23.2994  -28.2312 H   0  0  0  0  0  0  0  0  0  0  0  0
   -1.8234   21.1272  -28.1704 H   0  0  0  0  0  0  0  0  0  0  0  0
   -4.0575   20.9215  -29.2612 H   0  0  0  0  0  0  0  0  0  0  0  0
   -6.5207   21.7980  -29.1447 H   0  0  0  0  0  0  0  0  0  0  0  0
   -6.6533   23.6039  -29.0896 H   0  0  0  0  0  0  0  0  0  0  0  0
   -8.6973   22.3247  -29.9893 H   0  0  0  0  0  0  0  0  0  0  0  0
   -8.0534   23.6685  -31.0066 H   0  0  0  0  0  0  0  0  0  0  0  0
   -9.5098   19.4034  -33.4832 H   0  0  0  0  0  0  0  0  0  0  0  0
   -7.7940   19.9030  -33.7607 H   0  0  0  0  0  0  0  0  0  0  0  0
   -3.5947   20.8934  -31.3849 H   0  0  0  0  0  0  0  0  0  0  0  0
   -1.0390   21.3182  -31.0578 H   0  0  0  0  0  0  0  0  0  0  0  0
    0.0080   21.1219  -32.5041 H   0  0  0  0  0  0  0  0  0  0  0  0
   -1.3027   22.3502  -32.5041 H   0  0  0  0  0  0  0  0  0  0  0  0
   -0.5219   19.5132  -34.1106 H   0  0  0  0  0  0  0  0  0  0  0  0
   -2.0825   17.7858  -35.0051 H   0  0  0  0  0  0  0  0  0  0  0  0
   -4.3074   16.7211  -34.9845 H   0  0  0  0  0  0  0  0  0  0  0  0
   -7.2969   15.7567  -33.3085 H   0  0  0  0  0  0  0  0  0  0  0  0
   -7.6605   16.7156  -34.7833 H   0  0  0  0  0  0  0  0  0  0  0  0
   -6.2919   15.5522  -34.7833 H   0  0  0  0  0  0  0  0  0  0  0  0
   -5.9105   20.7675  -32.3707 H   0  0  0  0  0  0  0  0  0  0  0  0
   -6.6540   21.9274  -33.5519 H   0  0  0  0  0  0  0  0  0  0  0  0
   -4.4604   22.6726  -32.4489 H   0  0  0  0  0  0  0  0  0  0  0  0
   -5.8449   23.8196  -32.3649 H   0  0  0  0  0  0  0  0  0  0  0  0
  1  2  1  0
  2  3  1  0
  3  4  2  0
  4  5  1  0
  5  6  2  0
  6  7  1  0
  7  8  2  0
  8  9  1  0
  9 10  1  0
 10 11  1  0
 11 12  1  0
 12 13  1  0
 13 14  2  0
 13 15  1  0
 15 16  1  0
 16 17  1  0
 17 18  2  0
 18 19  1  0
 19 20  2  0
 20 21  1  0
 21 22  1  0
 21 23  2  0
 23 24  1  0
 24 25  2  0
 25 26  1  0
 26 27  2  0
 27 28  1  0
 12 29  1  0
 29 30  1  0
  8  3  1  0
 30  9  1  0
 27 17  1  0
 25 19  1  0
  1 31  1  0
  1 32  1  0
  1 33  1  0
  4 34  1  0
  5 35  1  0
  6 36  1  0
  7 37  1  0
 10 38  1  0
 10 39  1  0
 11 40  1  0
 11 41  1  0
 15 42  1  0
 15 43  1  0
 20 44  1  0
 22 45  1  0
 22 46  1  0
 22 47  1  0
 23 48  1  0
 24 49  1  0
 26 50  1  0
 28 51  1  0
 28 52  1  0
 28 53  1  0
 29 54  1  0
 29 55  1  0
 30 56  1  0
 30 57  1  0
M  END
>  <UniqueID>  (16) 
15

>  <SMILES>  (16) 
COc1ccccc1N1CCN(C(=O)CSc2nc3cc(C)ccc3cc2C)CC1

>  <Energy>  (16) 
62.751472591145145

>  <Genealogy>  (16) 
COc1ccccc1N1CCN(C(=O)CSc2nc3cc(C)ccc3cc2C)CC1 (3D coordinates assigned)
COc1ccccc1N1CCN(C(=O)CSc2nc3cc(C)ccc3cc2C)CC1 (nonaromatic ring conformer: 62.751472591145145 kcal/mol)

>  <smiles>  (16) 
COc1ccccc1N1CCN(C(=O)CSc2nc3cc(C)ccc3cc2C)CC1

>  <score_type>  (16) 
oracle

>  <origin>  (16) 
adg

>  <m_score__min__energy>  (16) 
-10.09

>  <m_primary>  (16) 
energy

$$$$
16:0
     RDKit          3D

 55 57  0  0  0  0  0  0  0  0999 V2000
   -8.5070   22.2700  -31.1790 C   0  0  0  0  0  0  0  0  0  0  0  0
   -7.5060   21.4190  -31.9120 C   0  0  0  0  0  0  0  0  0  0  0  0
   -7.8760   20.1380  -32.3540 C   0  0  0  0  0  0  0  0  0  0  0  0
   -6.9590   19.3310  -33.0280 C   0  0  0  0  0  0  0  0  0  0  0  0
   -5.6600   19.7850  -33.2560 C   0  0  0  0  0  0  0  0  0  0  0  0
   -5.2690   21.0530  -32.8140 C   0  0  0  0  0  0  0  0  0  0  0  0
   -3.6000   21.5530  -33.0620 Cl  0  0  0  0  0  0  0  0  0  0  0  0
   -6.1920   21.8820  -32.1450 C   0  0  0  0  0  0  0  0  0  0  0  0
   -5.7960   23.1820  -31.6890 N   0  0  0  0  0  0  0  0  0  0  0  0
   -4.8740   23.3190  -30.5630 C   0  0  0  0  0  0  0  0  0  0  0  0
   -4.2700   24.6860  -30.5440 C   0  0  0  0  0  0  0  0  0  0  0  0
   -4.8070   25.6240  -31.1930 O   0  0  0  0  0  0  0  0  0  0  0  0
   -3.0910   24.9230  -29.7710 N   0  0  0  0  0  0  0  0  0  0  0  0
   -2.8620   24.3190  -28.4660 C   0  0  0  0  0  0  0  0  0  0  0  0
   -1.4890   23.5650  -28.3770 C   0  0  0  0  0  0  0  0  0  0  0  0
   -0.3930   24.5770  -28.1260 N   0  0  0  0  0  0  0  0  0  0  0  0
   -0.7430   25.6770  -27.1850 C   0  0  0  0  0  0  0  0  0  0  0  0
    0.3980   26.7170  -27.0640 C   0  0  0  0  0  0  0  0  0  0  0  0
    1.6690   26.2320  -27.4550 O   0  0  0  0  0  0  0  0  0  0  0  0
    1.8380   24.9130  -26.9980 C   0  0  0  0  0  0  0  0  0  0  0  0
    0.9380   23.9790  -27.8140 C   0  0  0  0  0  0  0  0  0  0  0  0
   -1.2280   22.8760  -29.7720 C   0  0  0  0  0  0  0  0  0  0  0  0
   -2.0380   21.5920  -30.0630 C   0  0  0  0  0  0  0  0  0  0  0  0
   -2.3110   20.7230  -28.8240 C   0  0  0  0  0  0  0  0  0  0  0  0
   -1.3660   21.0510  -27.6710 C   0  0  0  0  0  0  0  0  0  0  0  0
   -1.5590   22.5030  -27.2130 C   0  0  0  0  0  0  0  0  0  0  0  0
   -8.3660   22.1501  -30.0947 H   0  0  0  0  0  0  0  0  0  0  0  0
   -8.3617   23.3253  -31.4532 H   0  0  0  0  0  0  0  0  0  0  0  0
   -9.5252   21.9568  -31.4532 H   0  0  0  0  0  0  0  0  0  0  0  0
   -8.8953   19.7688  -32.1675 H   0  0  0  0  0  0  0  0  0  0  0  0
   -7.2613   18.3339  -33.3806 H   0  0  0  0  0  0  0  0  0  0  0  0
   -4.9403   19.1433  -33.7855 H   0  0  0  0  0  0  0  0  0  0  0  0
   -5.9060   23.9850  -32.3530 H   0  0  0  0  0  0  0  0  0  0  0  0
   -5.4222   23.1524  -29.6240 H   0  0  0  0  0  0  0  0  0  0  0  0
   -4.0697   22.5763  -30.6696 H   0  0  0  0  0  0  0  0  0  0  0  0
   -2.8773   25.1123  -27.7041 H   0  0  0  0  0  0  0  0  0  0  0  0
   -3.6579   23.5781  -28.3000 H   0  0  0  0  0  0  0  0  0  0  0  0
   -1.6486   26.1833  -27.5505 H   0  0  0  0  0  0  0  0  0  0  0  0
   -0.9096   25.2359  -26.1912 H   0  0  0  0  0  0  0  0  0  0  0  0
    0.1475   27.5794  -27.6992 H   0  0  0  0  0  0  0  0  0  0  0  0
    0.4741   26.9802  -25.9987 H   0  0  0  0  0  0  0  0  0  0  0  0
    2.8889   24.6124  -27.1217 H   0  0  0  0  0  0  0  0  0  0  0  0
    1.5661   24.8524  -25.9339 H   0  0  0  0  0  0  0  0  0  0  0  0
    1.4459   23.7413  -28.7603 H   0  0  0  0  0  0  0  0  0  0  0  0
    0.7601   23.0797  -27.2061 H   0  0  0  0  0  0  0  0  0  0  0  0
   -1.4666   23.6082  -30.5575 H   0  0  0  0  0  0  0  0  0  0  0  0
   -0.1745   22.5602  -29.7510 H   0  0  0  0  0  0  0  0  0  0  0  0
   -3.0048   21.8855  -30.4980 H   0  0  0  0  0  0  0  0  0  0  0  0
   -1.4291   20.9831  -30.7475 H   0  0  0  0  0  0  0  0  0  0  0  0
   -3.3462   20.8929  -28.4931 H   0  0  0  0  0  0  0  0  0  0  0  0
   -2.1485   19.6722  -29.1057 H   0  0  0  0  0  0  0  0  0  0  0  0
   -1.5748   20.3751  -26.8286 H   0  0  0  0  0  0  0  0  0  0  0  0
   -0.3288   20.9214  -28.0138 H   0  0  0  0  0  0  0  0  0  0  0  0
   -2.5445   22.5842  -26.7312 H   0  0  0  0  0  0  0  0  0  0  0  0
   -0.7287   22.7306  -26.5283 H   0  0  0  0  0  0  0  0  0  0  0  0
  1  2  1  0
  2  3  2  0
  3  4  1  0
  4  5  2  0
  5  6  1  0
  6  7  1  0
  6  8  2  0
  8  9  1  0
  9 10  1  0
 10 11  1  0
 11 12  2  0
 11 13  1  0
 13 14  1  0
 14 15  1  0
 15 16  1  0
 16 17  1  0
 17 18  1  0
 18 19  1  0
 19 20  1  0
 20 21  1  0
 15 22  1  0
 22 23  1  0
 23 24  1  0
 24 25  1  0
 25 26  1  0
  8  2  1  0
 26 15  1  0
 21 16  1  0
  1 27  1  0
  1 28  1  0
  1 29  1  0
  3 30  1  0
  4 31  1  0
  5 32  1  0
  9 33  1  0
 10 34  1  0
 10 35  1  0
 14 36  1  0
 14 37  1  0
 17 38  1  0
 17 39  1  0
 18 40  1  0
 18 41  1  0
 20 42  1  0
 20 43  1  0
 21 44  1  0
 21 45  1  0
 22 46  1  0
 22 47  1  0
 23 48  1  0
 23 49  1  0
 24 50  1  0
 24 51  1  0
 25 52  1  0
 25 53  1  0
 26 54  1  0
 26 55  1  0
M  CHG  1  13  -1
M  END
>  <UniqueID>  (17) 
16

>  <SMILES>  (17) 
Cc1cccc(Cl)c1NCC(=O)[N-]CC1(N2CCOCC2)CCCCC1

>  <Energy>  (17) 
85.66058349269485

>  <Genealogy>  (17) 
Cc1cccc(Cl)c1NCC(=O)[N-]CC1(N2CCOCC2)CCCCC1 (protonated)
Cc1cccc(Cl)c1NCC(=O)[N-]CC1(N2CCOCC2)CCCCC1 (3D coordinates assigned)
Cc1cccc(Cl)c1NCC(=O)[N-]CC1(N2CCOCC2)CCCCC1 (nonaromatic ring conformer: 85.66058349269485 kcal/mol)

>  <smiles>  (17) 
Cc1cccc(Cl)c1NCC(=O)NCC1(N2CCOCC2)CCCCC1

>  <score_type>  (17) 
oracle

>  <origin>  (17) 
adg

>  <m_score__min__energy>  (17) 
-10.380000000000001

>  <m_primary>  (17) 
energy

$$$$
17:0
     RDKit          3D

 41 44  0  0  0  0  0  0  0  0999 V2000
   -8.5780   19.6130  -32.5620 C   0  0  0  0  0  0  0  0  0  0  0  0
   -7.1180   19.9480  -32.4240 C   0  0  0  0  0  0  0  0  0  0  0  0
   -6.7230   21.2220  -31.9860 C   0  0  0  0  0  0  0  0  0  0  0  0
   -5.3540   21.5370  -31.8730 C   0  0  0  0  0  0  0  0  0  0  0  0
   -4.9150   22.8360  -31.4190 N   0  0  0  0  0  0  0  0  0  0  0  0
   -3.5090   23.0280  -31.0380 C   0  0  0  0  0  0  0  0  0  0  0  0
   -3.3860   24.1640  -30.0200 C   0  0  0  0  0  0  0  0  0  0  0  0
   -4.0400   25.3280  -30.4860 O   0  0  0  0  0  0  0  0  0  0  0  0
   -5.4300   25.0890  -30.5670 C   0  0  0  0  0  0  0  0  0  0  0  0
   -5.7410   24.0320  -31.6320 C   0  0  0  0  0  0  0  0  0  0  0  0
   -4.4280   20.5950  -32.2070 N   0  0  0  0  0  0  0  0  0  0  0  0
   -4.7760   19.3560  -32.6420 C   0  0  0  0  0  0  0  0  0  0  0  0
   -3.8200   18.4440  -32.9630 N   0  0  0  0  0  0  0  0  0  0  0  0
   -4.1550   17.2010  -33.4020 C   0  0  0  0  0  0  0  0  0  0  0  0
   -5.5100   16.8460  -33.5350 C   0  0  0  0  0  0  0  0  0  0  0  0
   -5.9320   15.5020  -34.0060 C   0  0  0  0  0  0  0  0  0  0  0  0
   -5.0370   14.4200  -33.9400 C   0  0  0  0  0  0  0  0  0  0  0  0
   -5.4300   13.1530  -34.3760 C   0  0  0  0  0  0  0  0  0  0  0  0
   -6.7210   12.9690  -34.8680 C   0  0  0  0  0  0  0  0  0  0  0  0
   -7.5860   14.0160  -34.9150 N   0  0  0  0  0  0  0  0  0  0  0  0
   -7.2280   15.2610  -34.5010 C   0  0  0  0  0  0  0  0  0  0  0  0
   -6.4590   17.7650  -33.2020 N   0  0  0  0  0  0  0  0  0  0  0  0
   -6.1320   19.0070  -32.7610 C   0  0  0  0  0  0  0  0  0  0  0  0
   -9.0266   19.5101  -31.5629 H   0  0  0  0  0  0  0  0  0  0  0  0
   -9.0884   20.4174  -33.1120 H   0  0  0  0  0  0  0  0  0  0  0  0
   -8.6866   18.6666  -33.1120 H   0  0  0  0  0  0  0  0  0  0  0  0
   -7.4829   21.9752  -31.7307 H   0  0  0  0  0  0  0  0  0  0  0  0
   -3.1232   22.0988  -30.5934 H   0  0  0  0  0  0  0  0  0  0  0  0
   -2.9268   23.2861  -31.9349 H   0  0  0  0  0  0  0  0  0  0  0  0
   -3.8435   23.8488  -29.0706 H   0  0  0  0  0  0  0  0  0  0  0  0
   -2.3201   24.3928  -29.8736 H   0  0  0  0  0  0  0  0  0  0  0  0
   -5.7921   24.7343  -29.5908 H   0  0  0  0  0  0  0  0  0  0  0  0
   -5.9327   26.0271  -30.8450 H   0  0  0  0  0  0  0  0  0  0  0  0
   -6.8037   23.7551  -31.5691 H   0  0  0  0  0  0  0  0  0  0  0  0
   -5.5186   24.4485  -32.6255 H   0  0  0  0  0  0  0  0  0  0  0  0
   -2.8090   18.6950  -32.8680 H   0  0  0  0  0  0  0  0  0  0  0  0
   -3.3680   16.4745  -33.6526 H   0  0  0  0  0  0  0  0  0  0  0  0
   -4.0224   14.5721  -33.5431 H   0  0  0  0  0  0  0  0  0  0  0  0
   -4.7272   12.3080  -34.3316 H   0  0  0  0  0  0  0  0  0  0  0  0
   -7.0397   11.9762  -35.2183 H   0  0  0  0  0  0  0  0  0  0  0  0
   -7.9552   16.0847  -34.5531 H   0  0  0  0  0  0  0  0  0  0  0  0
  1  2  1  0
  2  3  2  0
  3  4  1  0
  4  5  1  0
  5  6  1  0
  6  7  1  0
  7  8  1  0
  8  9  1  0
  9 10  1  0
  4 11  2  0
 11 12  1  0
 12 13  2  0
 13 14  1  0
 14 15  2  0
 15 16  1  0
 16 17  2  0
 17 18  1  0
 18 19  2  0
 19 20  1  0
 20 21  2  0
 15 22  1  0
 22 23  2  0
 23  2  1  0
 10  5  1  0
 23 12  1  0
 21 16  1  0
  1 24  1  0
  1 25  1  0
  1 26  1  0
  3 27  1  0
  6 28  1  0
  6 29  1  0
  7 30  1  0
  7 31  1  0
  9 32  1  0
  9 33  1  0
 10 34  1  0
 10 35  1  0
 13 36  1  0
 14 37  1  0
 17 38  1  0
 18 39  1  0
 19 40  1  0
 21 41  1  0
M  CHG  1  13   1
M  END
>  <UniqueID>  (18) 
17

>  <SMILES>  (18) 
Cc1cc(N2CCOCC2)nc2[nH+]cc(-c3cccnc3)nc12

>  <Energy>  (18) 
56.89001881454555

>  <Genealogy>  (18) 
Cc1cc(N2CCOCC2)nc2[nH+]cc(-c3cccnc3)nc12 (protonated)
Cc1cc(N2CCOCC2)nc2[nH+]cc(-c3cccnc3)nc12 (3D coordinates assigned)
Cc1cc(N2CCOCC2)nc2[nH+]cc(-c3cccnc3)nc12 (nonaromatic ring conformer: 56.89001881454555 kcal/mol)

>  <smiles>  (18) 
Cc1cc(N2CCOCC2)nc2ncc(-c3cccnc3)nc12

>  <score_type>  (18) 
oracle

>  <origin>  (18) 
adg

>  <m_score__min__energy>  (18) 
-7.2999999999999998

>  <m_primary>  (18) 
energy

$$$$
18:0
     RDKit          3D

 38 40  0  0  0  0  0  0  0  0999 V2000
   -4.2500   24.1940  -28.5080 C   0  0  0  0  0  0  0  0  0  0  0  0
   -4.5020   24.3890  -29.9730 C   0  0  0  0  0  0  0  0  0  0  0  0
   -3.8650   25.2960  -30.5760 O   0  0  0  0  0  0  0  0  0  0  0  0
   -5.4640   23.5860  -30.6940 N   0  0  0  0  0  0  0  0  0  0  0  0
   -6.9030   23.7010  -30.3880 C   0  0  0  0  0  0  0  0  0  0  0  0
   -7.7720   23.2960  -31.5810 C   0  0  0  0  0  0  0  0  0  0  0  0
   -7.3510   21.9540  -32.0900 C   0  0  0  0  0  0  0  0  0  0  0  0
   -8.2760   21.0300  -32.5810 C   0  0  0  0  0  0  0  0  0  0  0  0
   -7.8520   19.8320  -33.0650 N   0  0  0  0  0  0  0  0  0  0  0  0
   -6.5220   19.5190  -33.0980 C   0  0  0  0  0  0  0  0  0  0  0  0
   -6.0650   18.2540  -33.6210 N   0  0  0  0  0  0  0  0  0  0  0  0
   -6.5640   17.0060  -33.0270 C   0  0  0  0  0  0  0  0  0  0  0  0
   -5.5520   15.8760  -33.2340 C   0  0  0  0  0  0  0  0  0  0  0  0
   -5.1780   15.7810  -34.5950 O   0  0  0  0  0  0  0  0  0  0  0  0
   -4.4720   16.9470  -34.9710 C   0  0  0  0  0  0  0  0  0  0  0  0
   -5.3830   18.1780  -34.9190 C   0  0  0  0  0  0  0  0  0  0  0  0
   -5.6150   20.4200  -32.6320 N   0  0  0  0  0  0  0  0  0  0  0  0
   -5.9960   21.6210  -32.1250 C   0  0  0  0  0  0  0  0  0  0  0  0
   -4.9510   22.6040  -31.6720 C   0  0  0  0  0  0  0  0  0  0  0  0
   -4.9898   24.7665  -27.9293 H   0  0  0  0  0  0  0  0  0  0  0  0
   -4.3373   23.1259  -28.2599 H   0  0  0  0  0  0  0  0  0  0  0  0
   -3.2380   24.5465  -28.2599 H   0  0  0  0  0  0  0  0  0  0  0  0
   -7.1394   23.0458  -29.5366 H   0  0  0  0  0  0  0  0  0  0  0  0
   -7.1188   24.7529  -30.1493 H   0  0  0  0  0  0  0  0  0  0  0  0
   -8.8250   23.2519  -31.2660 H   0  0  0  0  0  0  0  0  0  0  0  0
   -7.6526   24.0394  -32.3829 H   0  0  0  0  0  0  0  0  0  0  0  0
   -9.3491   21.2717  -32.5762 H   0  0  0  0  0  0  0  0  0  0  0  0
   -8.5730   19.1530  -33.3940 H   0  0  0  0  0  0  0  0  0  0  0  0
   -6.7246   17.1561  -31.9492 H   0  0  0  0  0  0  0  0  0  0  0  0
   -7.5109   16.7316  -33.5149 H   0  0  0  0  0  0  0  0  0  0  0  0
   -4.6570   16.0775  -32.6271 H   0  0  0  0  0  0  0  0  0  0  0  0
   -6.0156   14.9265  -32.9282 H   0  0  0  0  0  0  0  0  0  0  0  0
   -3.6273   17.0946  -34.2820 H   0  0  0  0  0  0  0  0  0  0  0  0
   -4.1092   16.8213  -36.0018 H   0  0  0  0  0  0  0  0  0  0  0  0
   -4.7766   19.0843  -35.0637 H   0  0  0  0  0  0  0  0  0  0  0  0
   -6.1378   18.0979  -35.7151 H   0  0  0  0  0  0  0  0  0  0  0  0
   -4.1241   22.0467  -31.2077 H   0  0  0  0  0  0  0  0  0  0  0  0
   -4.6224   23.1655  -32.5590 H   0  0  0  0  0  0  0  0  0  0  0  0
  1  2  1  0
  2  3  2  0
  2  4  1  0
  4  5  1  0
  5  6  1  0
  6  7  1  0
  7  8  2  0
  8  9  1  0
  9 10  2  0
 10 11  1  0
 11 12  1  0
 12 13  1  0
 13 14  1  0
 14 15  1  0
 15 16  1  0
 10 17  1  0
 17 18  2  0
 18 19  1  0
 19  4  1  0
 18  7  1  0
 16 11  1  0
  1 20  1  0
  1 21  1  0
  1 22  1  0
  5 23  1  0
  5 24  1  0
  6 25  1  0
  6 26  1  0
  8 27  1  0
  9 28  1  0
 12 29  1  0
 12 30  1  0
 13 31  1  0
 13 32  1  0
 15 33  1  0
 15 34  1  0
 16 35  1  0
 16 36  1  0
 19 37  1  0
 19 38  1  0
M  CHG  1   9   1
M  END
>  <UniqueID>  (19) 
18

>  <SMILES>  (19) 
CC(=O)N1CCc2c[nH+]c(N3CCOCC3)nc2C1

>  <Energy>  (19) 
43.337476382213076

>  <Genealogy>  (19) 
CC(=O)N1CCc2c[nH+]c(N3CCOCC3)nc2C1 (protonated)
CC(=O)N1CCc2c[nH+]c(N3CCOCC3)nc2C1 (3D coordinates assigned)
CC(=O)N1CCc2c[nH+]c(N3CCOCC3)nc2C1 (nonaromatic ring conformer: 43.337476382213076 kcal/mol)

>  <smiles>  (19) 
CC(=O)N1CCc2cnc(N3CCOCC3)nc2C1

>  <score_type>  (19) 
oracle

>  <origin>  (19) 
adg

>  <m_score__min__energy>  (19) 
-7.2999999999999998

>  <m_primary>  (19) 
energy

$$$$
19:0
     RDKit          3D

 55 58  0  0  0  0  0  0  0  0999 V2000
    1.2690   24.9620  -26.5600 C   0  0  0  0  0  0  0  0  0  0  0  0
    0.7290   24.7080  -27.8490 O   0  0  0  0  0  0  0  0  0  0  0  0
   -0.5770   24.2460  -28.0810 C   0  0  0  0  0  0  0  0  0  0  0  0
   -1.1110   23.1170  -27.4250 C   0  0  0  0  0  0  0  0  0  0  0  0
   -2.4170   22.6970  -27.6900 C   0  0  0  0  0  0  0  0  0  0  0  0
   -3.2170   23.4090  -28.5940 C   0  0  0  0  0  0  0  0  0  0  0  0
   -2.6870   24.5390  -29.2540 C   0  0  0  0  0  0  0  0  0  0  0  0
   -1.3710   24.9430  -29.0000 C   0  0  0  0  0  0  0  0  0  0  0  0
   -3.4850   25.2850  -30.1350 O   0  0  0  0  0  0  0  0  0  0  0  0
   -4.7890   24.8600  -30.5330 C   0  0  0  0  0  0  0  0  0  0  0  0
   -5.4900   24.1270  -29.3690 C   0  0  1  0  0  0  0  0  0  0  0  0
   -6.9290   23.6910  -29.7170 C   0  0  0  0  0  0  0  0  0  0  0  0
   -7.2430   23.9240  -31.1360 N   0  0  0  0  0  0  0  0  0  0  0  0
   -8.3250   23.0520  -31.6200 C   0  0  0  0  0  0  0  0  0  0  0  0
   -7.7440   21.7310  -32.0440 C   0  0  0  0  0  0  0  0  0  0  0  0
   -8.5600   20.6030  -32.1950 C   0  0  0  0  0  0  0  0  0  0  0  0
   -8.0260   19.4030  -32.6710 C   0  0  0  0  0  0  0  0  0  0  0  0
   -6.6570   19.3000  -33.0200 C   0  0  0  0  0  0  0  0  0  0  0  0
   -6.1110   18.0600  -33.5690 N   0  0  0  0  0  0  0  0  0  0  0  0
   -6.7560   16.7770  -33.2330 C   0  0  0  0  0  0  0  0  0  0  0  0
   -6.1030   15.5600  -33.8990 C   0  0  0  0  0  0  0  0  0  0  0  0
   -4.7040   15.7000  -33.9640 O   0  0  0  0  0  0  0  0  0  0  0  0
   -4.4080   16.7390  -34.8630 C   0  0  0  0  0  0  0  0  0  0  0  0
   -4.8100   18.0940  -34.2780 C   0  0  0  0  0  0  0  0  0  0  0  0
   -5.8460   20.4460  -32.8450 C   0  0  0  0  0  0  0  0  0  0  0  0
   -6.3820   21.6410  -32.3660 C   0  0  0  0  0  0  0  0  0  0  0  0
   -4.6170   22.9420  -28.9090 C   0  0  0  0  0  0  0  0  0  0  0  0
    0.5568   24.6270  -25.7916 H   0  0  0  0  0  0  0  0  0  0  0  0
    2.2165   24.4151  -26.4451 H   0  0  0  0  0  0  0  0  0  0  0  0
    1.4519   26.0406  -26.4451 H   0  0  0  0  0  0  0  0  0  0  0  0
   -0.4954   22.5639  -26.7004 H   0  0  0  0  0  0  0  0  0  0  0  0
   -2.8185   21.8047  -27.1875 H   0  0  0  0  0  0  0  0  0  0  0  0
   -0.9571   25.8154  -29.5268 H   0  0  0  0  0  0  0  0  0  0  0  0
   -5.3853   25.7384  -30.8207 H   0  0  0  0  0  0  0  0  0  0  0  0
   -4.6971   24.1722  -31.3865 H   0  0  0  0  0  0  0  0  0  0  0  0
   -5.5977   24.8340  -28.5332 H   0  0  0  0  0  0  0  0  0  0  0  0
   -7.0383   22.6182  -29.4997 H   0  0  0  0  0  0  0  0  0  0  0  0
   -7.6238   24.2903  -29.1103 H   0  0  0  0  0  0  0  0  0  0  0  0
   -7.5570   24.9220  -31.2450 H   0  0  0  0  0  0  0  0  0  0  0  0
   -9.0558   22.8906  -30.8138 H   0  0  0  0  0  0  0  0  0  0  0  0
   -8.8269   23.5266  -32.4761 H   0  0  0  0  0  0  0  0  0  0  0  0
   -9.6278   20.6622  -31.9373 H   0  0  0  0  0  0  0  0  0  0  0  0
   -8.6790   18.5241  -32.7765 H   0  0  0  0  0  0  0  0  0  0  0  0
   -6.7098   16.6413  -32.1424 H   0  0  0  0  0  0  0  0  0  0  0  0
   -7.7885   16.8307  -33.6086 H   0  0  0  0  0  0  0  0  0  0  0  0
   -6.3460   14.6595  -33.3159 H   0  0  0  0  0  0  0  0  0  0  0  0
   -6.4909   15.4768  -34.9250 H   0  0  0  0  0  0  0  0  0  0  0  0
   -3.3274   16.7412  -35.0686 H   0  0  0  0  0  0  0  0  0  0  0  0
   -4.9739   16.5738  -35.7917 H   0  0  0  0  0  0  0  0  0  0  0  0
   -4.0328   18.4128  -33.5678 H   0  0  0  0  0  0  0  0  0  0  0  0
   -4.9137   18.7957  -35.1188 H   0  0  0  0  0  0  0  0  0  0  0  0
   -4.7751   20.3935  -33.0908 H   0  0  0  0  0  0  0  0  0  0  0  0
   -5.7319   22.5193  -32.2398 H   0  0  0  0  0  0  0  0  0  0  0  0
   -5.0606   22.4938  -28.0077 H   0  0  0  0  0  0  0  0  0  0  0  0
   -4.5707   22.1985  -29.7183 H   0  0  0  0  0  0  0  0  0  0  0  0
  1  2  1  0
  2  3  1  0
  3  4  2  0
  4  5  1  0
  5  6  2  0
  6  7  1  0
  7  8  2  0
  7  9  1  0
  9 10  1  0
 10 11  1  0
 11 12  1  0
 12 13  1  0
 13 14  1  0
 14 15  1  0
 15 16  2  0
 16 17  1  0
 17 18  2  0
 18 19  1  0
 19 20  1  0
 20 21  1  0
 21 22  1  0
 22 23  1  0
 23 24  1  0
 18 25  1  0
 25 26  2  0
 11 27  1  0
  8  3  1  0
 26 15  1  0
 27  6  1  0
 24 19  1  0
  1 28  1  0
  1 29  1  0
  1 30  1  0
  4 31  1  0
  5 32  1  0
  8 33  1  0
 10 34  1  0
 10 35  1  0
 11 36  1  1
 12 37  1  0
 12 38  1  0
 13 39  1  0
 14 40  1  0
 14 41  1  0
 16 42  1  0
 17 43  1  0
 20 44  1  0
 20 45  1  0
 21 46  1  0
 21 47  1  0
 23 48  1  0
 23 49  1  0
 24 50  1  0
 24 51  1  0
 25 52  1  0
 26 53  1  0
 27 54  1  0
 27 55  1  0
M  END
>  <UniqueID>  (20) 
19

>  <SMILES>  (20) 
COc1ccc2c(c1)OC[C@@H](CNCc1ccc(N3CCOCC3)cc1)C2

>  <Energy>  (20) 
65.51105701451922

>  <Genealogy>  (20) 
COc1ccc2c(c1)OC[C@@H](CNCc1ccc(N3CCOCC3)cc1)C2 (chirality)
COc1ccc2c(c1)OC[C@@H](CNCc1ccc(N3CCOCC3)cc1)C2 (3D coordinates assigned)
COc1ccc2c(c1)OC[C@@H](CNCc1ccc(N3CCOCC3)cc1)C2 (nonaromatic ring conformer: 65.51105701451922 kcal/mol)

>  <smiles>  (20) 
COc1ccc2c(c1)OCC(CNCc1ccc(N3CCOCC3)cc1)C2

>  <score_type>  (20) 
oracle

>  <origin>  (20) 
adg

>  <m_score__min__energy>  (20) 
-9.4100000000000001

>  <m_primary>  (20) 
energy

$$$$
20:0
     RDKit          3D

 71 74  0  0  0  0  0  0  0  0999 V2000
   -3.0170   18.3930  -34.2680 C   0  0  0  0  0  0  0  0  0  0  0  0
   -2.3050   19.6260  -34.2310 O   0  0  0  0  0  0  0  0  0  0  0  0
   -2.0590   20.3630  -33.0640 C   0  0  0  0  0  0  0  0  0  0  0  0
   -0.8300   20.3140  -32.3840 C   0  0  0  0  0  0  0  0  0  0  0  0
   -0.6350   21.0690  -31.2250 C   0  0  0  0  0  0  0  0  0  0  0  0
   -1.6570   21.8940  -30.7170 C   0  0  0  0  0  0  0  0  0  0  0  0
   -1.3800   22.6600  -29.4220 C   0  0  1  0  0  0  0  0  0  0  0  0
   -1.7900   24.1610  -29.3690 C   0  0  1  0  0  0  0  0  0  0  0  0
   -3.2800   24.4010  -29.3600 C   0  0  0  0  0  0  0  0  0  0  0  0
   -4.0020   23.7710  -28.5380 O   0  0  0  0  0  0  0  0  0  0  0  0
   -3.8810   25.2930  -30.3050 N   0  0  0  0  0  0  0  0  0  0  0  0
   -5.0710   24.9660  -31.0820 C   0  0  0  0  0  0  0  0  0  0  0  0
   -6.1110   24.2680  -30.1830 C   0  0  0  0  0  0  0  0  0  0  0  0
   -6.3830   22.8620  -30.5490 N   0  0  0  0  0  0  0  0  0  0  0  0
   -7.6790   22.3310  -30.0630 C   0  0  0  0  0  0  0  0  0  0  0  0
   -8.6850   22.1230  -31.2090 C   0  0  0  0  0  0  0  0  0  0  0  0
   -8.1610   21.2320  -32.2750 N   0  0  0  0  0  0  0  0  0  0  0  0
   -8.6940   19.8660  -32.1440 C   0  0  0  0  0  0  0  0  0  0  0  0
   -6.6820   21.2040  -32.3630 C   0  0  0  0  0  0  0  0  0  0  0  0
   -6.0750   22.5520  -31.9620 C   0  0  0  0  0  0  0  0  0  0  0  0
   -1.2130   24.7860  -28.1120 C   0  0  0  0  0  0  0  0  0  0  0  0
   -0.8600   26.1430  -28.1010 C   0  0  0  0  0  0  0  0  0  0  0  0
   -0.3800   26.7500  -26.9260 C   0  0  0  0  0  0  0  0  0  0  0  0
   -0.0130   28.1040  -26.8850 O   0  0  0  0  0  0  0  0  0  0  0  0
   -0.6010   29.0750  -26.0240 C   0  0  0  0  0  0  0  0  0  0  0  0
   -0.2590   25.9930  -25.7510 C   0  0  0  0  0  0  0  0  0  0  0  0
    0.2260   26.6290  -24.5970 O   0  0  0  0  0  0  0  0  0  0  0  0
   -0.4310   26.6240  -23.3340 C   0  0  0  0  0  0  0  0  0  0  0  0
   -0.6250   24.6330  -25.7560 C   0  0  0  0  0  0  0  0  0  0  0  0
   -1.1040   24.0260  -26.9260 C   0  0  0  0  0  0  0  0  0  0  0  0
   -1.4990   22.5960  -26.9420 C   0  0  0  0  0  0  0  0  0  0  0  0
   -1.5620   21.9370  -25.8690 O   0  0  0  0  0  0  0  0  0  0  0  0
   -1.8380   21.9720  -28.1960 N   0  0  0  0  0  0  0  0  0  0  0  0
   -2.6590   20.7520  -28.1870 C   0  0  0  0  0  0  0  0  0  0  0  0
   -2.8870   21.9310  -31.4030 C   0  0  0  0  0  0  0  0  0  0  0  0
   -3.0800   21.1750  -32.5620 C   0  0  0  0  0  0  0  0  0  0  0  0
   -3.2138   18.0522  -33.2408 H   0  0  0  0  0  0  0  0  0  0  0  0
   -3.9713   18.5364  -34.7959 H   0  0  0  0  0  0  0  0  0  0  0  0
   -2.4158   17.6381  -34.7959 H   0  0  0  0  0  0  0  0  0  0  0  0
   -0.0178   19.6781  -32.7662 H   0  0  0  0  0  0  0  0  0  0  0  0
    0.3311   21.0184  -30.7014 H   0  0  0  0  0  0  0  0  0  0  0  0
   -0.2803   22.6628  -29.4464 H   0  0  0  0  0  0  0  0  0  0  0  0
   -1.3943   24.6138  -30.2901 H   0  0  0  0  0  0  0  0  0  0  0  0
   -5.5047   25.8905  -31.4910 H   0  0  0  0  0  0  0  0  0  0  0  0
   -4.7918   24.2902  -31.9038 H   0  0  0  0  0  0  0  0  0  0  0  0
   -5.7412   24.2893  -29.1472 H   0  0  0  0  0  0  0  0  0  0  0  0
   -7.0564   24.8159  -30.3098 H   0  0  0  0  0  0  0  0  0  0  0  0
   -7.5029   21.3657  -29.5659 H   0  0  0  0  0  0  0  0  0  0  0  0
   -8.1067   23.0665  -29.3658 H   0  0  0  0  0  0  0  0  0  0  0  0
   -9.6018   21.6768  -30.7962 H   0  0  0  0  0  0  0  0  0  0  0  0
   -8.8804   23.1058  -31.6628 H   0  0  0  0  0  0  0  0  0  0  0  0
   -8.7932   19.6117  -31.0784 H   0  0  0  0  0  0  0  0  0  0  0  0
   -9.6802   19.8093  -32.6279 H   0  0  0  0  0  0  0  0  0  0  0  0
   -8.0068   19.1563  -32.6279 H   0  0  0  0  0  0  0  0  0  0  0  0
   -6.2977   20.4235  -31.6898 H   0  0  0  0  0  0  0  0  0  0  0  0
   -6.4001   20.9925  -33.4050 H   0  0  0  0  0  0  0  0  0  0  0  0
   -4.9837   22.5104  -32.0934 H   0  0  0  0  0  0  0  0  0  0  0  0
   -6.5054   23.3384  -32.5995 H   0  0  0  0  0  0  0  0  0  0  0  0
   -0.9594   26.7389  -29.0202 H   0  0  0  0  0  0  0  0  0  0  0  0
   -0.4277   28.7888  -24.9761 H   0  0  0  0  0  0  0  0  0  0  0  0
   -0.1464   30.0582  -26.2156 H   0  0  0  0  0  0  0  0  0  0  0  0
   -1.6829   29.1277  -26.2156 H   0  0  0  0  0  0  0  0  0  0  0  0
    0.3198   26.6297  -22.5301 H   0  0  0  0  0  0  0  0  0  0  0  0
   -1.0671   27.5173  -23.2480 H   0  0  0  0  0  0  0  0  0  0  0  0
   -1.0534   25.7211  -23.2480 H   0  0  0  0  0  0  0  0  0  0  0  0
   -0.5343   24.0412  -24.8332 H   0  0  0  0  0  0  0  0  0  0  0  0
   -2.8602   20.4531  -27.1477 H   0  0  0  0  0  0  0  0  0  0  0  0
   -3.6106   20.9466  -28.7033 H   0  0  0  0  0  0  0  0  0  0  0  0
   -2.1203   19.9437  -28.7033 H   0  0  0  0  0  0  0  0  0  0  0  0
   -3.7039   22.5616  -31.0222 H   0  0  0  0  0  0  0  0  0  0  0  0
   -4.0465   21.2193  -33.0854 H   0  0  0  0  0  0  0  0  0  0  0  0
  1  2  1  0
  2  3  1  0
  3  4  2  0
  4  5  1  0
  5  6  2  0
  6  7  1  0
  7  8  1  0
  8  9  1  0
  9 10  2  0
  9 11  1  0
 11 12  1  0
 12 13  1  0
 13 14  1  0
 14 15  1  0
 15 16  1  0
 16 17  1  0
 17 18  1  0
 17 19  1  0
 19 20  1  0
  8 21  1  0
 21 22  2  0
 22 23  1  0
 23 24  1  0
 24 25  1  0
 23 26  2  0
 26 27  1  0
 27 28  1  0
 26 29  1  0
 29 30  2  0
 30 31  1  0
 31 32  2  0
 31 33  1  0
 33 34  1  0
  6 35  1  0
 35 36  2  0
 36  3  1  0
 33  7  1  0
 20 14  1  0
 30 21  1  0
  1 37  1  0
  1 38  1  0
  1 39  1  0
  4 40  1  0
  5 41  1  0
  7 42  1  1
  8 43  1  6
 12 44  1  0
 12 45  1  0
 13 46  1  0
 13 47  1  0
 15 48  1  0
 15 49  1  0
 16 50  1  0
 16 51  1  0
 18 52  1  0
 18 53  1  0
 18 54  1  0
 19 55  1  0
 19 56  1  0
 20 57  1  0
 20 58  1  0
 22 59  1  0
 25 60  1  0
 25 61  1  0
 25 62  1  0
 28 63  1  0
 28 64  1  0
 28 65  1  0
 29 66  1  0
 34 67  1  0
 34 68  1  0
 34 69  1  0
 35 70  1  0
 36 71  1  0
M  CHG  1  11  -1
M  END
>  <UniqueID>  (21) 
20

>  <SMILES>  (21) 
COc1ccc([C@H]2[C@@H](C(=O)[N-]CCN3CCN(C)CC3)c3cc(OC)c(OC)cc3C(=O)N2C)cc1

>  <Energy>  (21) 
93.545335189308

>  <Genealogy>  (21) 
COc1ccc(C2C(C(=O)[N-]CCN3CCN(C)CC3)c3cc(OC)c(OC)cc3C(=O)N2C)cc1 (protonated)
COc1ccc([C@H]2[C@@H](C(=O)[N-]CCN3CCN(C)CC3)c3cc(OC)c(OC)cc3C(=O)N2C)cc1 (chirality)
COc1ccc([C@H]2[C@@H](C(=O)[N-]CCN3CCN(C)CC3)c3cc(OC)c(OC)cc3C(=O)N2C)cc1 (3D coordinates assigned)
COc1ccc([C@H]2[C@@H](C(=O)[N-]CCN3CCN(C)CC3)c3cc(OC)c(OC)cc3C(=O)N2C)cc1 (nonaromatic ring conformer: 93.545335189308 kcal/mol)

>  <smiles>  (21) 
COc1ccc(C2C(C(=O)NCCN3CCN(C)CC3)c3cc(OC)c(OC)cc3C(=O)N2C)cc1

>  <score_type>  (21) 
oracle

>  <origin>  (21) 
adg

>  <m_score__min__energy>  (21) 
-9.7300000000000004

>  <m_primary>  (21) 
energy

$$$$
21:0
     RDKit          3D

 49 51  0  0  0  0  0  0  0  0999 V2000
   -7.1900   23.4120  -32.3000 C   0  0  0  0  0  0  0  0  0  0  0  0
   -7.4390   23.1830  -30.8190 C   0  0  0  0  0  0  0  0  0  0  0  0
   -7.3230   21.7940  -30.5250 O   0  0  0  0  0  0  0  0  0  0  0  0
   -7.9370   20.8050  -31.3020 C   0  0  0  0  0  0  0  0  0  0  0  0
   -9.1990   20.7270  -31.3490 O   0  0  0  0  0  0  0  0  0  0  0  0
   -7.1200   19.8620  -32.0260 N   0  0  0  0  0  0  0  0  0  0  0  0
   -7.5920   18.4750  -31.7880 C   0  0  0  0  0  0  0  0  0  0  0  0
   -7.3340   17.5340  -32.9870 C   0  0  0  0  0  0  0  0  0  0  0  0
   -6.1010   17.8830  -33.7200 N   0  0  0  0  0  0  0  0  0  0  0  0
   -4.8820   17.5390  -32.9590 C   0  0  0  0  0  0  0  0  0  0  0  0
   -4.0280   18.7550  -32.7780 C   0  0  0  0  0  0  0  0  0  0  0  0
   -2.9690   19.1270  -33.5740 C   0  0  0  0  0  0  0  0  0  0  0  0
   -2.5120   20.2630  -33.1100 O   0  0  0  0  0  0  0  0  0  0  0  0
   -3.2550   20.5900  -32.0740 C   0  0  0  0  0  0  0  0  0  0  0  0
   -3.0520   21.8170  -31.2770 C   0  0  0  0  0  0  0  0  0  0  0  0
   -1.8400   22.0270  -30.6000 C   0  0  0  0  0  0  0  0  0  0  0  0
   -1.6440   23.1870  -29.8450 C   0  0  0  0  0  0  0  0  0  0  0  0
   -2.6500   24.1550  -29.7530 C   0  0  0  0  0  0  0  0  0  0  0  0
   -2.4030   25.3010  -28.9820 O   0  0  0  0  0  0  0  0  0  0  0  0
   -1.8690   25.2820  -27.6610 C   0  0  0  0  0  0  0  0  0  0  0  0
   -3.8660   23.9470  -30.4300 C   0  0  0  0  0  0  0  0  0  0  0  0
   -4.0630   22.7880  -31.1860 C   0  0  0  0  0  0  0  0  0  0  0  0
   -4.2230   19.6820  -31.8210 N   0  0  0  0  0  0  0  0  0  0  0  0
   -6.1050   19.2850  -34.2150 C   0  0  0  0  0  0  0  0  0  0  0  0
   -7.0880   20.2040  -33.4600 C   0  0  0  0  0  0  0  0  0  0  0  0
   -6.3857   24.1517  -32.4265 H   0  0  0  0  0  0  0  0  0  0  0  0
   -6.8940   22.4640  -32.7729 H   0  0  0  0  0  0  0  0  0  0  0  0
   -8.1100   23.7861  -32.7729 H   0  0  0  0  0  0  0  0  0  0  0  0
   -6.6977   23.7448  -30.2318 H   0  0  0  0  0  0  0  0  0  0  0  0
   -8.4510   23.5282  -30.5606 H   0  0  0  0  0  0  0  0  0  0  0  0
   -6.1450   19.9530  -31.6550 H   0  0  0  0  0  0  0  0  0  0  0  0
   -7.0685   18.0729  -30.9081 H   0  0  0  0  0  0  0  0  0  0  0  0
   -8.6802   18.5201  -31.6339 H   0  0  0  0  0  0  0  0  0  0  0  0
   -7.2437   16.5031  -32.6141 H   0  0  0  0  0  0  0  0  0  0  0  0
   -8.1793   17.6377  -33.6832 H   0  0  0  0  0  0  0  0  0  0  0  0
   -5.1680   17.1452  -31.9725 H   0  0  0  0  0  0  0  0  0  0  0  0
   -4.3131   16.7791  -33.5149 H   0  0  0  0  0  0  0  0  0  0  0  0
   -2.5785   18.5725  -34.4401 H   0  0  0  0  0  0  0  0  0  0  0  0
   -1.0402   21.2745  -30.6641 H   0  0  0  0  0  0  0  0  0  0  0  0
   -0.6904   23.3401  -29.3185 H   0  0  0  0  0  0  0  0  0  0  0  0
   -2.6924   25.3113  -26.9322 H   0  0  0  0  0  0  0  0  0  0  0  0
   -1.2831   24.3624  -27.5155 H   0  0  0  0  0  0  0  0  0  0  0  0
   -1.2193   26.1576  -27.5155 H   0  0  0  0  0  0  0  0  0  0  0  0
   -4.6652   24.7000  -30.3639 H   0  0  0  0  0  0  0  0  0  0  0  0
   -5.0162   22.6352  -31.7133 H   0  0  0  0  0  0  0  0  0  0  0  0
   -5.0905   19.6956  -34.1046 H   0  0  0  0  0  0  0  0  0  0  0  0
   -6.4326   19.2555  -35.2647 H   0  0  0  0  0  0  0  0  0  0  0  0
   -6.7666   21.2497  -33.5753 H   0  0  0  0  0  0  0  0  0  0  0  0
   -8.0954   20.0674  -33.8800 H   0  0  0  0  0  0  0  0  0  0  0  0
  1  2  1  0
  2  3  1  0
  3  4  1  0
  4  5  2  0
  4  6  1  0
  6  7  1  0
  7  8  1  0
  8  9  1  0
  9 10  1  0
 10 11  1  0
 11 12  2  0
 12 13  1  0
 13 14  1  0
 14 15  1  0
 15 16  2  0
 16 17  1  0
 17 18  2  0
 18 19  1  0
 19 20  1  0
 18 21  1  0
 21 22  2  0
 14 23  2  0
  9 24  1  0
 24 25  1  0
 25  6  1  0
 23 11  1  0
 22 15  1  0
  1 26  1  0
  1 27  1  0
  1 28  1  0
  2 29  1  0
  2 30  1  0
  6 31  1  0
  7 32  1  0
  7 33  1  0
  8 34  1  0
  8 35  1  0
 10 36  1  0
 10 37  1  0
 12 38  1  0
 16 39  1  0
 17 40  1  0
 20 41  1  0
 20 42  1  0
 20 43  1  0
 21 44  1  0
 22 45  1  0
 24 46  1  0
 24 47  1  0
 25 48  1  0
 25 49  1  0
M  CHG  1   6   1
M  END
>  <UniqueID>  (22) 
21

>  <SMILES>  (22) 
CCOC(=O)[NH+]1CCN(Cc2coc(-c3ccc(OC)cc3)n2)CC1

>  <Energy>  (22) 
86.9126601243263

>  <Genealogy>  (22) 
CCOC(=O)[NH+]1CCN(Cc2coc(-c3ccc(OC)cc3)n2)CC1 (protonated)
CCOC(=O)[NH+]1CCN(Cc2coc(-c3ccc(OC)cc3)n2)CC1 (3D coordinates assigned)
CCOC(=O)[NH+]1CCN(Cc2coc(-c3ccc(OC)cc3)n2)CC1 (nonaromatic ring conformer: 86.9126601243263 kcal/mol)

>  <smiles>  (22) 
CCOC(=O)N1CCN(Cc2coc(-c3ccc(OC)cc3)n2)CC1

>  <score_type>  (22) 
oracle

>  <origin>  (22) 
adg

>  <m_score__min__energy>  (22) 
-7.1600000000000001

>  <m_primary>  (22) 
energy

$$$$
22:0
     RDKit          3D

 47 50  0  0  0  0  0  0  0  0999 V2000
   -3.2780   22.1050  -28.8450 C   0  0  0  0  0  0  0  0  0  0  0  0
   -3.6930   21.1040  -29.7690 O   0  0  0  0  0  0  0  0  0  0  0  0
   -3.2040   20.9790  -31.0800 C   0  0  0  0  0  0  0  0  0  0  0  0
   -1.9500   20.3970  -31.3540 C   0  0  0  0  0  0  0  0  0  0  0  0
   -1.4830   20.3100  -32.6690 C   0  0  0  0  0  0  0  0  0  0  0  0
   -0.2710   19.7560  -32.9210 F   0  0  0  0  0  0  0  0  0  0  0  0
   -2.2610   20.7910  -33.7220 C   0  0  0  0  0  0  0  0  0  0  0  0
   -3.5080   21.3610  -33.4650 C   0  0  0  0  0  0  0  0  0  0  0  0
   -3.9870   21.4640  -32.1480 C   0  0  0  0  0  0  0  0  0  0  0  0
   -5.2900   22.1240  -31.8910 C   0  0  0  0  0  0  0  0  0  0  0  0
   -5.3050   23.4670  -31.4860 C   0  0  0  0  0  0  0  0  0  0  0  0
   -6.5140   24.1070  -31.2080 C   0  0  0  0  0  0  0  0  0  0  0  0
   -7.7190   23.4140  -31.3330 C   0  0  0  0  0  0  0  0  0  0  0  0
   -7.7280   22.0770  -31.7440 C   0  0  0  0  0  0  0  0  0  0  0  0
   -9.4240   21.2020  -31.9410 Br  0  0  0  0  0  0  0  0  0  0  0  0
   -6.5130   21.4210  -32.0300 C   0  0  0  0  0  0  0  0  0  0  0  0
   -6.5110   20.0190  -32.5000 C   0  0  0  0  0  0  0  0  0  0  0  0
   -6.6310   18.9670  -31.5790 C   0  0  0  0  0  0  0  0  0  0  0  0
   -6.4610   17.6460  -31.9990 C   0  0  0  0  0  0  0  0  0  0  0  0
   -6.1710   17.3680  -33.3410 C   0  0  0  0  0  0  0  0  0  0  0  0
   -5.7960   15.6920  -33.8490 S   0  0  0  0  0  0  0  0  0  0  0  0
   -4.0700   16.0960  -34.1300 C   0  0  0  0  0  0  0  0  0  0  0  0
   -3.4370   15.6940  -35.3140 C   0  0  0  0  0  0  0  0  0  0  0  0
   -2.0810   15.9710  -35.5130 C   0  0  0  0  0  0  0  0  0  0  0  0
   -1.3540   16.6520  -34.5310 C   0  0  0  0  0  0  0  0  0  0  0  0
   -1.9840   17.0580  -33.3510 C   0  0  0  0  0  0  0  0  0  0  0  0
   -3.3400   16.7830  -33.1510 C   0  0  0  0  0  0  0  0  0  0  0  0
   -6.0990   18.4120  -34.2700 C   0  0  0  0  0  0  0  0  0  0  0  0
   -6.2630   19.7340  -33.8510 C   0  0  0  0  0  0  0  0  0  0  0  0
   -3.4289   21.7411  -27.8179 H   0  0  0  0  0  0  0  0  0  0  0  0
   -2.2126   22.3296  -29.0017 H   0  0  0  0  0  0  0  0  0  0  0  0
   -3.8720   23.0175  -29.0017 H   0  0  0  0  0  0  0  0  0  0  0  0
   -1.3351   20.0090  -30.5285 H   0  0  0  0  0  0  0  0  0  0  0  0
   -1.8911   20.7208  -34.7556 H   0  0  0  0  0  0  0  0  0  0  0  0
   -4.1209   21.7326  -34.2995 H   0  0  0  0  0  0  0  0  0  0  0  0
   -4.3587   24.0189  -31.3869 H   0  0  0  0  0  0  0  0  0  0  0  0
   -6.5170   25.1599  -30.8897 H   0  0  0  0  0  0  0  0  0  0  0  0
   -8.6678   23.9225  -31.1068 H   0  0  0  0  0  0  0  0  0  0  0  0
   -6.8593   19.1832  -30.5249 H   0  0  0  0  0  0  0  0  0  0  0  0
   -6.5549   16.8230  -31.2753 H   0  0  0  0  0  0  0  0  0  0  0  0
   -4.0078   15.1598  -36.0879 H   0  0  0  0  0  0  0  0  0  0  0  0
   -1.5857   15.6532  -36.4423 H   0  0  0  0  0  0  0  0  0  0  0  0
   -0.2868   16.8680  -34.6873 H   0  0  0  0  0  0  0  0  0  0  0  0
   -1.4123   17.5943  -32.5792 H   0  0  0  0  0  0  0  0  0  0  0  0
   -3.8348   17.1065  -32.2234 H   0  0  0  0  0  0  0  0  0  0  0  0
   -5.9130   18.1911  -35.3314 H   0  0  0  0  0  0  0  0  0  0  0  0
   -6.1976   20.5535  -34.5818 H   0  0  0  0  0  0  0  0  0  0  0  0
  1  2  1  0
  2  3  1  0
  3  4  2  0
  4  5  1  0
  5  6  1  0
  5  7  2  0
  7  8  1  0
  8  9  2  0
  9 10  1  0
 10 11  2  0
 11 12  1  0
 12 13  2  0
 13 14  1  0
 14 15  1  0
 14 16  2  0
 16 17  1  0
 17 18  2  0
 18 19  1  0
 19 20  2  0
 20 21  1  0
 21 22  1  0
 22 23  2  0
 23 24  1  0
 24 25  2  0
 25 26  1  0
 26 27  2  0
 20 28  1  0
 28 29  2  0
  9  3  1  0
 16 10  1  0
 29 17  1  0
 27 22  1  0
  1 30  1  0
  1 31  1  0
  1 32  1  0
  4 33  1  0
  7 34  1  0
  8 35  1  0
 11 36  1  0
 12 37  1  0
 13 38  1  0
 18 39  1  0
 19 40  1  0
 23 41  1  0
 24 42  1  0
 25 43  1  0
 26 44  1  0
 27 45  1  0
 28 46  1  0
 29 47  1  0
M  END
>  <UniqueID>  (23) 
22

>  <SMILES>  (23) 
COc1cc(F)ccc1-c1cccc(Br)c1-c1ccc(Sc2ccccc2)cc1

>  <Energy>  (23) 
59.28968887078722

>  <Genealogy>  (23) 
COc1cc(F)ccc1-c1cccc(Br)c1-c1ccc(Sc2ccccc2)cc1 (3D coordinates assigned)
COc1cc(F)ccc1-c1cccc(Br)c1-c1ccc(Sc2ccccc2)cc1 (optimized conformer: 59.28968887078722 kcal/mol)

>  <smiles>  (23) 
COc1cc(F)ccc1-c1cccc(Br)c1-c1ccc(Sc2ccccc2)cc1

>  <score_type>  (23) 
oracle

>  <origin>  (23) 
adg

>  <m_score__min__energy>  (23) 
-8.7300000000000004

>  <m_primary>  (23) 
energy

$$$$
23:0
     RDKit          3D

 49 52  0  0  0  0  0  0  0  0999 V2000
    0.4080   26.1100  -26.4990 C   0  0  0  0  0  0  0  0  0  0  0  0
   -0.3790   25.2960  -27.4770 C   0  0  0  0  0  0  0  0  0  0  0  0
   -0.3270   23.9010  -27.4460 C   0  0  0  0  0  0  0  0  0  0  0  0
   -1.0760   23.1720  -28.3660 C   0  0  0  0  0  0  0  0  0  0  0  0
   -1.8690   23.8510  -29.3030 C   0  0  0  0  0  0  0  0  0  0  0  0
   -2.6590   23.1440  -30.2760 N   0  0  0  0  0  0  0  0  0  0  0  0
   -4.0510   23.4330  -30.5780 C   0  0  0  0  0  0  0  0  0  0  0  0
   -4.3890   22.5730  -31.7890 C   0  0  0  0  0  0  0  0  0  0  0  0
   -3.3430   21.4290  -31.7980 C   0  0  0  0  0  0  0  0  0  0  0  0
   -3.8450   20.2370  -30.9400 C   0  0  0  0  0  0  0  0  0  0  0  0
   -5.0200   19.4830  -31.5990 C   0  0  0  0  0  0  0  0  0  0  0  0
   -4.8910   19.3100  -33.0700 N   0  0  0  0  0  0  0  0  0  0  0  0
   -5.9200   20.0480  -33.8340 C   0  0  0  0  0  0  0  0  0  0  0  0
   -7.0740   20.4220  -32.9480 C   0  0  0  0  0  0  0  0  0  0  0  0
   -8.0490   19.4770  -32.5950 C   0  0  0  0  0  0  0  0  0  0  0  0
   -9.0970   19.8560  -31.7540 C   0  0  0  0  0  0  0  0  0  0  0  0
   -9.1640   21.1640  -31.2720 C   0  0  0  0  0  0  0  0  0  0  0  0
   -8.1740   22.0780  -31.6410 C   0  0  0  0  0  0  0  0  0  0  0  0
   -7.1600   21.6910  -32.4600 N   0  0  0  0  0  0  0  0  0  0  0  0
   -3.5180   19.5370  -33.5700 C   0  0  0  0  0  0  0  0  0  0  0  0
   -2.9890   20.9460  -33.2420 C   0  0  0  0  0  0  0  0  0  0  0  0
   -2.1230   22.0780  -31.1080 C   0  0  0  0  0  0  0  0  0  0  0  0
   -1.8790   25.2130  -29.2840 N   0  0  0  0  0  0  0  0  0  0  0  0
   -1.1610   25.9110  -28.4020 N   0  0  0  0  0  0  0  0  0  0  0  0
    0.1297   25.8221  -25.4745 H   0  0  0  0  0  0  0  0  0  0  0  0
    1.4822   25.9289  -26.6517 H   0  0  0  0  0  0  0  0  0  0  0  0
    0.1908   27.1775  -26.6517 H   0  0  0  0  0  0  0  0  0  0  0  0
    0.2984   23.3839  -26.7034 H   0  0  0  0  0  0  0  0  0  0  0  0
   -1.0461   22.0724  -28.3581 H   0  0  0  0  0  0  0  0  0  0  0  0
   -4.6931   23.1667  -29.7255 H   0  0  0  0  0  0  0  0  0  0  0  0
   -4.2128   24.5025  -30.7777 H   0  0  0  0  0  0  0  0  0  0  0  0
   -5.4053   22.1624  -31.6959 H   0  0  0  0  0  0  0  0  0  0  0  0
   -4.3600   23.1562  -32.7212 H   0  0  0  0  0  0  0  0  0  0  0  0
   -3.0125   19.5330  -30.7940 H   0  0  0  0  0  0  0  0  0  0  0  0
   -4.2054   20.6439  -29.9837 H   0  0  0  0  0  0  0  0  0  0  0  0
   -5.0894   18.4857  -31.1401 H   0  0  0  0  0  0  0  0  0  0  0  0
   -5.9186   20.0952  -31.4325 H   0  0  0  0  0  0  0  0  0  0  0  0
   -5.4734   20.9629  -34.2504 H   0  0  0  0  0  0  0  0  0  0  0  0
   -6.2908   19.4014  -34.6430 H   0  0  0  0  0  0  0  0  0  0  0  0
   -7.9883   18.4473  -32.9772 H   0  0  0  0  0  0  0  0  0  0  0  0
   -9.8687   19.1247  -31.4717 H   0  0  0  0  0  0  0  0  0  0  0  0
   -9.9865   21.4716  -30.6095 H   0  0  0  0  0  0  0  0  0  0  0  0
   -8.2149   23.1122  -31.2685 H   0  0  0  0  0  0  0  0  0  0  0  0
   -2.8492   18.7946  -33.1101 H   0  0  0  0  0  0  0  0  0  0  0  0
   -3.5439   19.4395  -34.6654 H   0  0  0  0  0  0  0  0  0  0  0  0
   -1.8941   20.9392  -33.3474 H   0  0  0  0  0  0  0  0  0  0  0  0
   -3.4734   21.6426  -33.9421 H   0  0  0  0  0  0  0  0  0  0  0  0
   -1.5944   21.3380  -30.4891 H   0  0  0  0  0  0  0  0  0  0  0  0
   -1.3996   22.4623  -31.8422 H   0  0  0  0  0  0  0  0  0  0  0  0
  1  2  1  0
  2  3  2  0
  3  4  1  0
  4  5  2  0
  5  6  1  0
  6  7  1  0
  7  8  1  0
  8  9  1  0
  9 10  1  0
 10 11  1  0
 11 12  1  0
 12 13  1  0
 13 14  1  0
 14 15  2  0
 15 16  1  0
 16 17  2  0
 17 18  1  0
 18 19  2  0
 12 20  1  0
 20 21  1  0
  9 22  1  0
  5 23  1  0
 23 24  2  0
 24  2  1  0
 22  6  1  0
 21  9  1  0
 19 14  1  0
  1 25  1  0
  1 26  1  0
  1 27  1  0
  3 28  1  0
  4 29  1  0
  7 30  1  0
  7 31  1  0
  8 32  1  0
  8 33  1  0
 10 34  1  0
 10 35  1  0
 11 36  1  0
 11 37  1  0
 13 38  1  0
 13 39  1  0
 15 40  1  0
 16 41  1  0
 17 42  1  0
 18 43  1  0
 20 44  1  0
 20 45  1  0
 21 46  1  0
 21 47  1  0
 22 48  1  0
 22 49  1  0
M  END
>  <UniqueID>  (24) 
23

>  <SMILES>  (24) 
Cc1ccc(N2CCC3(CCN(Cc4ccccn4)CC3)C2)nn1

>  <Energy>  (24) 
67.54742451163627

>  <Genealogy>  (24) 
Cc1ccc(N2CCC3(CCN(Cc4ccccn4)CC3)C2)nn1 (3D coordinates assigned)
Cc1ccc(N2CCC3(CCN(Cc4ccccn4)CC3)C2)nn1 (nonaromatic ring conformer: 67.54742451163627 kcal/mol)

>  <smiles>  (24) 
Cc1ccc(N2CCC3(CCN(Cc4ccccn4)CC3)C2)nn1

>  <score_type>  (24) 
oracle

>  <origin>  (24) 
adg

>  <m_score__min__energy>  (24) 
-8.6699999999999999

>  <m_primary>  (24) 
energy

$$$$
24:0
     RDKit          3D

 40 42  0  0  0  0  0  0  0  0999 V2000
   -2.9780   21.5830  -27.9410 C   0  0  0  0  0  0  0  0  0  0  0  0
   -4.2310   22.3590  -28.3360 C   0  0  0  0  0  0  0  0  0  0  0  0
   -3.8870   23.7330  -28.7220 N   0  0  0  0  0  0  0  0  0  0  0  0
   -2.7520   24.4360  -28.1620 C   0  0  0  0  0  0  0  0  0  0  0  0
   -1.5470   24.6080  -28.8740 C   0  0  0  0  0  0  0  0  0  0  0  0
   -0.5150   25.2850  -28.3030 N   0  0  0  0  0  0  0  0  0  0  0  0
   -0.6160   25.8040  -27.0530 C   0  0  0  0  0  0  0  0  0  0  0  0
    0.4520   26.5000  -26.4790 C   0  0  0  0  0  0  0  0  0  0  0  0
    0.3260   27.0270  -25.1880 C   0  0  0  0  0  0  0  0  0  0  0  0
   -0.8660   26.8600  -24.4730 C   0  0  0  0  0  0  0  0  0  0  0  0
   -1.9380   26.1640  -25.0440 C   0  0  0  0  0  0  0  0  0  0  0  0
   -1.8140   25.6360  -26.3340 C   0  0  0  0  0  0  0  0  0  0  0  0
   -2.8420   24.9580  -26.9060 N   0  0  0  0  0  0  0  0  0  0  0  0
   -4.8370   24.5120  -29.9580 S   0  0  0  0  0  0  0  0  0  0  0  0
   -3.9100   25.2930  -30.8460 O   0  0  0  0  0  0  0  0  0  0  0  0
   -5.8180   25.4620  -29.3270 O   0  0  0  0  0  0  0  0  0  0  0  0
   -5.7270   23.3060  -30.9040 C   0  0  0  0  0  0  0  0  0  0  0  0
   -7.1320   23.3120  -30.8560 C   0  0  0  0  0  0  0  0  0  0  0  0
   -7.8720   22.3690  -31.5700 C   0  0  0  0  0  0  0  0  0  0  0  0
   -7.2210   21.4100  -32.3440 C   0  0  0  0  0  0  0  0  0  0  0  0
   -5.8270   21.3990  -32.4170 C   0  0  0  0  0  0  0  0  0  0  0  0
   -5.0650   22.3490  -31.7150 C   0  0  0  0  0  0  0  0  0  0  0  0
   -3.5640   22.2960  -31.8180 C   0  0  0  0  0  0  0  0  0  0  0  0
   -2.9052   21.5379  -26.8443 H   0  0  0  0  0  0  0  0  0  0  0  0
   -3.0357   20.5623  -28.3469 H   0  0  0  0  0  0  0  0  0  0  0  0
   -2.0899   22.0894  -28.3469 H   0  0  0  0  0  0  0  0  0  0  0  0
   -4.7155   21.8553  -29.1854 H   0  0  0  0  0  0  0  0  0  0  0  0
   -4.9138   22.3929  -27.4742 H   0  0  0  0  0  0  0  0  0  0  0  0
   -1.4421   24.1957  -29.8884 H   0  0  0  0  0  0  0  0  0  0  0  0
    1.3887   26.6332  -27.0401 H   0  0  0  0  0  0  0  0  0  0  0  0
    1.1658   27.5737  -24.7343 H   0  0  0  0  0  0  0  0  0  0  0  0
   -0.9605   27.2769  -23.4595 H   0  0  0  0  0  0  0  0  0  0  0  0
   -2.8739   26.0327  -24.4811 H   0  0  0  0  0  0  0  0  0  0  0  0
   -7.6530   24.0675  -30.2496 H   0  0  0  0  0  0  0  0  0  0  0  0
   -8.9709   22.3824  -31.5220 H   0  0  0  0  0  0  0  0  0  0  0  0
   -7.8062   20.6611  -32.8978 H   0  0  0  0  0  0  0  0  0  0  0  0
   -5.3198   20.6394  -33.0300 H   0  0  0  0  0  0  0  0  0  0  0  0
   -3.1275   22.2806  -30.8084 H   0  0  0  0  0  0  0  0  0  0  0  0
   -3.2656   21.3868  -32.3604 H   0  0  0  0  0  0  0  0  0  0  0  0
   -3.2022   23.1819  -32.3604 H   0  0  0  0  0  0  0  0  0  0  0  0
  1  2  1  0
  2  3  1  0
  3  4  1  0
  4  5  2  0
  5  6  1  0
  6  7  2  0
  7  8  1  0
  8  9  2  0
  9 10  1  0
 10 11  2  0
 11 12  1  0
 12 13  2  0
  3 14  1  0
 14 15  2  0
 14 16  2  0
 14 17  1  0
 17 18  2  0
 18 19  1  0
 19 20  2  0
 20 21  1  0
 21 22  2  0
 22 23  1  0
 13  4  1  0
 22 17  1  0
 12  7  1  0
  1 24  1  0
  1 25  1  0
  1 26  1  0
  2 27  1  0
  2 28  1  0
  5 29  1  0
  8 30  1  0
  9 31  1  0
 10 32  1  0
 11 33  1  0
 18 34  1  0
 19 35  1  0
 20 36  1  0
 21 37  1  0
 23 38  1  0
 23 39  1  0
 23 40  1  0
M  END
>  <UniqueID>  (25) 
24

>  <SMILES>  (25) 
CCN(c1cnc2ccccc2n1)S(=O)(=O)c1ccccc1C

>  <Energy>  (25) 
47.86354530571687

>  <Genealogy>  (25) 
CCN(c1cnc2ccccc2n1)S(=O)(=O)c1ccccc1C (3D coordinates assigned)
CCN(c1cnc2ccccc2n1)S(=O)(=O)c1ccccc1C (optimized conformer: 47.86354530571687 kcal/mol)

>  <smiles>  (25) 
CCN(c1cnc2ccccc2n1)S(=O)(=O)c1ccccc1C

>  <score_type>  (25) 
oracle

>  <origin>  (25) 
adg

>  <m_score__min__energy>  (25) 
-8.3499999999999996

>  <m_primary>  (25) 
energy

$$$$
25:0
     RDKit          3D

 47 48  0  0  0  0  0  0  0  0999 V2000
   -3.0190   19.3350  -33.7830 C   0  0  0  0  0  0  0  0  0  0  0  0
   -2.9530   17.9540  -33.1060 C   0  0  0  0  0  0  0  0  0  0  0  0
   -4.0760   17.0270  -33.4310 N   0  0  0  0  0  0  0  0  0  0  0  0
   -3.7030   15.5900  -33.3570 C   0  0  0  0  0  0  0  0  0  0  0  0
   -4.5750   14.7880  -32.3820 C   0  0  0  0  0  0  0  0  0  0  0  0
   -4.8420   17.4210  -34.6500 C   0  0  0  0  0  0  0  0  0  0  0  0
   -6.3820   17.4140  -34.5350 C   0  0  0  0  0  0  0  0  0  0  0  0
   -6.8490   16.9630  -33.2150 N   0  0  0  0  0  0  0  0  0  0  0  0
   -7.8830   17.8500  -32.6690 C   0  0  0  0  0  0  0  0  0  0  0  0
   -7.2580   19.1500  -32.2410 C   0  0  0  0  0  0  0  0  0  0  0  0
   -8.0040   20.3370  -32.2620 C   0  0  0  0  0  0  0  0  0  0  0  0
   -7.4120   21.5520  -31.9060 C   0  0  0  0  0  0  0  0  0  0  0  0
   -6.0570   21.6040  -31.5320 C   0  0  0  0  0  0  0  0  0  0  0  0
   -5.4260   22.8940  -31.1540 C   0  0  0  0  0  0  0  0  0  0  0  0
   -6.1530   24.0950  -31.2210 C   0  0  0  0  0  0  0  0  0  0  0  0
   -5.5400   25.2980  -30.8620 C   0  0  0  0  0  0  0  0  0  0  0  0
   -4.2450   25.3060  -30.4490 N   0  0  0  0  0  0  0  0  0  0  0  0
   -3.5150   24.1630  -30.3740 C   0  0  0  0  0  0  0  0  0  0  0  0
   -4.0890   22.9390  -30.7240 C   0  0  0  0  0  0  0  0  0  0  0  0
   -5.3080   20.4130  -31.5260 C   0  0  0  0  0  0  0  0  0  0  0  0
   -5.9020   19.1990  -31.8830 C   0  0  0  0  0  0  0  0  0  0  0  0
   -3.0565   20.1195  -33.0128 H   0  0  0  0  0  0  0  0  0  0  0  0
   -2.1267   19.4790  -34.4100 H   0  0  0  0  0  0  0  0  0  0  0  0
   -3.9210   19.3933  -34.4100 H   0  0  0  0  0  0  0  0  0  0  0  0
   -2.0140   17.4702  -33.4130 H   0  0  0  0  0  0  0  0  0  0  0  0
   -3.0200   18.1434  -32.0245 H   0  0  0  0  0  0  0  0  0  0  0  0
   -4.7580   17.1720  -32.6470 H   0  0  0  0  0  0  0  0  0  0  0  0
   -3.8052   15.1503  -34.3601 H   0  0  0  0  0  0  0  0  0  0  0  0
   -2.6683   15.5398  -32.9869 H   0  0  0  0  0  0  0  0  0  0  0  0
   -4.2983   15.0425  -31.3482 H   0  0  0  0  0  0  0  0  0  0  0  0
   -5.6339   15.0343  -32.5494 H   0  0  0  0  0  0  0  0  0  0  0  0
   -4.4179   13.7122  -32.5494 H   0  0  0  0  0  0  0  0  0  0  0  0
   -4.5329   18.4409  -34.9225 H   0  0  0  0  0  0  0  0  0  0  0  0
   -4.6051   16.6526  -35.4006 H   0  0  0  0  0  0  0  0  0  0  0  0
   -6.7529   18.4347  -34.7100 H   0  0  0  0  0  0  0  0  0  0  0  0
   -6.7687   16.7075  -35.2843 H   0  0  0  0  0  0  0  0  0  0  0  0
   -7.2810   16.0170  -33.3440 H   0  0  0  0  0  0  0  0  0  0  0  0
   -8.6424   18.0454  -33.4404 H   0  0  0  0  0  0  0  0  0  0  0  0
   -8.3560   17.3685  -31.8004 H   0  0  0  0  0  0  0  0  0  0  0  0
   -9.0624   20.3118  -32.5607 H   0  0  0  0  0  0  0  0  0  0  0  0
   -8.0104   22.4749  -31.9184 H   0  0  0  0  0  0  0  0  0  0  0  0
   -7.2011   24.0878  -31.5550 H   0  0  0  0  0  0  0  0  0  0  0  0
   -6.1060   26.2398  -30.9136 H   0  0  0  0  0  0  0  0  0  0  0  0
   -2.4687   24.2016  -30.0366 H   0  0  0  0  0  0  0  0  0  0  0  0
   -3.4969   22.0139  -30.6633 H   0  0  0  0  0  0  0  0  0  0  0  0
   -4.2466   20.4373  -31.2381 H   0  0  0  0  0  0  0  0  0  0  0  0
   -5.3029   18.2765  -31.8833 H   0  0  0  0  0  0  0  0  0  0  0  0
  1  2  1  0
  2  3  1  0
  3  4  1  0
  4  5  1  0
  3  6  1  0
  6  7  1  0
  7  8  1  0
  8  9  1  0
  9 10  1  0
 10 11  2  0
 11 12  1  0
 12 13  2  0
 13 14  1  0
 14 15  2  0
 15 16  1  0
 16 17  2  0
 17 18  1  0
 18 19  2  0
 13 20  1  0
 20 21  2  0
 21 10  1  0
 19 14  1  0
  1 22  1  0
  1 23  1  0
  1 24  1  0
  2 25  1  0
  2 26  1  0
  3 27  1  0
  4 28  1  0
  4 29  1  0
  5 30  1  0
  5 31  1  0
  5 32  1  0
  6 33  1  0
  6 34  1  0
  7 35  1  0
  7 36  1  0
  8 37  1  0
  9 38  1  0
  9 39  1  0
 11 40  1  0
 12 41  1  0
 15 42  1  0
 16 43  1  0
 18 44  1  0
 19 45  1  0
 20 46  1  0
 21 47  1  0
M  CHG  1   3   1
M  END
>  <UniqueID>  (26) 
25

>  <SMILES>  (26) 
CC[NH+](CC)CCNCc1ccc(-c2ccncc2)cc1

>  <Energy>  (26) 
59.9605107574338

>  <Genealogy>  (26) 
CC[NH+](CC)CCNCc1ccc(-c2ccncc2)cc1 (protonated)
CC[NH+](CC)CCNCc1ccc(-c2ccncc2)cc1 (3D coordinates assigned)
CC[NH+](CC)CCNCc1ccc(-c2ccncc2)cc1 (optimized conformer: 59.9605107574338 kcal/mol)

>  <smiles>  (26) 
CCN(CC)CCNCc1ccc(-c2ccncc2)cc1

>  <score_type>  (26) 
oracle

>  <origin>  (26) 
adg

>  <m_score__min__energy>  (26) 
-6.3399999999999999

>  <m_primary>  (26) 
energy

$$$$
26:0
     RDKit          3D

 47 48  0  0  0  0  0  0  0  0999 V2000
   -6.6680   23.7830  -32.1720 C   0  0  0  0  0  0  0  0  0  0  0  0
   -7.1620   23.7120  -30.7270 C   0  0  0  0  0  0  0  0  0  0  0  0
   -6.0670   24.0630  -29.7070 C   0  0  0  0  0  0  0  0  0  0  0  0
   -4.7840   24.6390  -30.3360 C   0  0  0  0  0  0  0  0  0  0  0  0
   -3.6220   23.7400  -30.1410 N   0  0  0  0  0  0  0  0  0  0  0  0
   -2.8670   23.7610  -28.9840 C   0  0  0  0  0  0  0  0  0  0  0  0
   -3.2560   24.5590  -27.8570 N   0  0  0  0  0  0  0  0  0  0  0  0
   -1.6830   22.9990  -28.9020 C   0  0  0  0  0  0  0  0  0  0  0  0
   -0.8780   22.9740  -27.7040 N   0  0  0  0  0  0  0  0  0  0  0  0
   -0.4850   21.6530  -27.1740 C   0  0  0  0  0  0  0  0  0  0  0  0
   -1.5900   20.9920  -26.3360 C   0  0  0  0  0  0  0  0  0  0  0  0
   -1.9630   19.5920  -26.8190 C   0  0  0  0  0  0  0  0  0  0  0  0
   -0.1080   24.1490  -27.3460 C   0  0  0  0  0  0  0  0  0  0  0  0
    0.7620   24.5950  -28.1420 O   0  0  0  0  0  0  0  0  0  0  0  0
   -0.3440   24.8950  -26.0920 C   0  0  0  0  0  0  0  0  0  0  0  0
    0.4800   24.7380  -24.9680 C   0  0  0  0  0  0  0  0  0  0  0  0
    0.2250   25.4540  -23.8400 N   0  0  0  0  0  0  0  0  0  0  0  0
   -0.8100   26.3350  -23.7880 C   0  0  0  0  0  0  0  0  0  0  0  0
   -1.6180   26.5130  -24.9120 C   0  0  0  0  0  0  0  0  0  0  0  0
   -1.3640   25.7940  -26.0360 N   0  0  0  0  0  0  0  0  0  0  0  0
   -1.3340   22.1930  -29.9900 C   0  0  0  0  0  0  0  0  0  0  0  0
   -0.3000   21.4760  -29.9530 O   0  0  0  0  0  0  0  0  0  0  0  0
   -2.1210   22.1660  -31.0880 N   0  0  0  0  0  0  0  0  0  0  0  0
   -3.2460   22.9160  -31.1760 C   0  0  0  0  0  0  0  0  0  0  0  0
   -3.9370   22.8450  -32.2290 O   0  0  0  0  0  0  0  0  0  0  0  0
   -5.5792   23.9395  -32.1800 H   0  0  0  0  0  0  0  0  0  0  0  0
   -6.9069   22.8413  -32.6879 H   0  0  0  0  0  0  0  0  0  0  0  0
   -7.1624   24.6193  -32.6879 H   0  0  0  0  0  0  0  0  0  0  0  0
   -7.9959   24.4190  -30.6052 H   0  0  0  0  0  0  0  0  0  0  0  0
   -7.4755   22.6754  -30.5339 H   0  0  0  0  0  0  0  0  0  0  0  0
   -6.4730   24.8077  -29.0066 H   0  0  0  0  0  0  0  0  0  0  0  0
   -5.7830   23.1236  -29.2100 H   0  0  0  0  0  0  0  0  0  0  0  0
   -4.9484   24.7790  -31.4146 H   0  0  0  0  0  0  0  0  0  0  0  0
   -4.5616   25.5962  -29.8416 H   0  0  0  0  0  0  0  0  0  0  0  0
   -2.7970   24.4340  -26.9290 H   0  0  0  0  0  0  0  0  0  0  0  0
   -4.1180   25.1440  -27.8740 H   0  0  0  0  0  0  0  0  0  0  0  0
   -0.2440   20.9929  -28.0203 H   0  0  0  0  0  0  0  0  0  0  0  0
    0.3820   21.8066  -26.5146 H   0  0  0  0  0  0  0  0  0  0  0  0
   -1.2422   20.9204  -25.2949 H   0  0  0  0  0  0  0  0  0  0  0  0
   -2.4889   21.6186  -26.4323 H   0  0  0  0  0  0  0  0  0  0  0  0
   -2.1370   18.9389  -25.9511 H   0  0  0  0  0  0  0  0  0  0  0  0
   -2.8782   19.6456  -27.4269 H   0  0  0  0  0  0  0  0  0  0  0  0
   -1.1425   19.1831  -27.4269 H   0  0  0  0  0  0  0  0  0  0  0  0
    1.3287   24.0389  -24.9985 H   0  0  0  0  0  0  0  0  0  0  0  0
    0.8390   25.3340  -23.0050 H   0  0  0  0  0  0  0  0  0  0  0  0
   -1.0087   26.9029  -22.8671 H   0  0  0  0  0  0  0  0  0  0  0  0
   -2.4528   27.2289  -24.8878 H   0  0  0  0  0  0  0  0  0  0  0  0
  1  2  1  0
  2  3  1  0
  3  4  1  0
  4  5  1  0
  5  6  1  0
  6  7  1  0
  6  8  2  0
  8  9  1  0
  9 10  1  0
 10 11  1  0
 11 12  1  0
  9 13  1  0
 13 14  2  0
 13 15  1  0
 15 16  2  0
 16 17  1  0
 17 18  2  0
 18 19  1  0
 19 20  2  0
  8 21  1  0
 21 22  2  0
 21 23  1  0
 23 24  1  0
 24 25  2  0
 24  5  1  0
 20 15  1  0
  1 26  1  0
  1 27  1  0
  1 28  1  0
  2 29  1  0
  2 30  1  0
  3 31  1  0
  3 32  1  0
  4 33  1  0
  4 34  1  0
  7 35  1  0
  7 36  1  0
 10 37  1  0
 10 38  1  0
 11 39  1  0
 11 40  1  0
 12 41  1  0
 12 42  1  0
 12 43  1  0
 16 44  1  0
 17 45  1  0
 18 46  1  0
 19 47  1  0
M  CHG  2  17   1  23  -1
M  END
>  <UniqueID>  (27) 
26

>  <SMILES>  (27) 
CCCCn1c(N)c(N(CCC)C(=O)c2c[nH+]ccn2)c(=O)[n-]c1=O

>  <Energy>  (27) 
58.871985619658055

>  <Genealogy>  (27) 
CCCCn1c(N)c(N(CCC)C(=O)c2c[nH+]ccn2)c(=O)[n-]c1=O (protonated)
CCCCn1c(N)c(N(CCC)C(=O)c2c[nH+]ccn2)c(=O)[n-]c1=O (3D coordinates assigned)
CCCCn1c(N)c(N(CCC)C(=O)c2c[nH+]ccn2)c(=O)[n-]c1=O (optimized conformer: 58.871985619658055 kcal/mol)

>  <smiles>  (27) 
CCCCn1c(N)c(N(CCC)C(=O)c2cnccn2)c(=O)[nH]c1=O

>  <score_type>  (27) 
oracle

>  <origin>  (27) 
adg

>  <m_score__min__energy>  (27) 
-7.9299999999999997

>  <m_primary>  (27) 
energy

$$$$
27:0
     RDKit          3D

 54 57  0  0  0  0  0  0  0  0999 V2000
    0.4760   25.9000  -24.9790 C   0  0  0  0  0  0  0  0  0  0  0  0
   -0.5570   26.9100  -25.2680 N   0  0  0  0  0  0  0  0  0  0  0  0
   -1.9160   26.4270  -24.9980 C   0  0  0  0  0  0  0  0  0  0  0  0
   -2.3990   25.3440  -25.9820 C   0  0  0  0  0  0  0  0  0  0  0  0
   -1.8340   25.4260  -27.3510 N   0  0  0  0  0  0  0  0  0  0  0  0
   -2.2450   24.4350  -28.3450 C   0  0  0  0  0  0  0  0  0  0  0  0
   -1.2900   23.7020  -29.0910 C   0  0  0  0  0  0  0  0  0  0  0  0
   -1.6820   22.7270  -30.0130 C   0  0  0  0  0  0  0  0  0  0  0  0
   -3.0400   22.4490  -30.2330 C   0  0  0  0  0  0  0  0  0  0  0  0
   -3.4300   21.3870  -31.2020 C   0  0  0  0  0  0  0  0  0  0  0  0
   -4.5860   20.7010  -31.0030 N   0  0  0  0  0  0  0  0  0  0  0  0
   -5.0150   19.7590  -31.8770 C   0  0  0  0  0  0  0  0  0  0  0  0
   -6.1800   19.1090  -31.6400 N   0  0  0  0  0  0  0  0  0  0  0  0
   -6.6430   18.1650  -32.4950 C   0  0  0  0  0  0  0  0  0  0  0  0
   -5.9390   17.8380  -33.6180 N   0  0  0  0  0  0  0  0  0  0  0  0
   -6.4830   16.8310  -34.5400 C   0  0  0  0  0  0  0  0  0  0  0  0
   -4.7620   18.4800  -33.9060 C   0  0  0  0  0  0  0  0  0  0  0  0
   -4.1270   18.1860  -34.9590 O   0  0  0  0  0  0  0  0  0  0  0  0
   -4.2650   19.4690  -33.0270 C   0  0  0  0  0  0  0  0  0  0  0  0
   -3.0620   20.1810  -33.2290 C   0  0  0  0  0  0  0  0  0  0  0  0
   -2.2960   19.9530  -34.3820 O   0  0  0  0  0  0  0  0  0  0  0  0
   -0.9430   19.5100  -34.3800 C   0  0  0  0  0  0  0  0  0  0  0  0
   -0.0080   20.7130  -34.4010 C   0  0  0  0  0  0  0  0  0  0  0  0
   -0.7570   21.8800  -34.2160 O   0  0  0  0  0  0  0  0  0  0  0  0
   -2.6830   21.1250  -32.3170 N   0  0  0  0  0  0  0  0  0  0  0  0
   -3.9990   23.1940  -29.5250 C   0  0  0  0  0  0  0  0  0  0  0  0
   -3.6100   24.1610  -28.5940 C   0  0  0  0  0  0  0  0  0  0  0  0
   -0.7430   26.3630  -27.6900 C   0  0  0  0  0  0  0  0  0  0  0  0
   -0.4850   27.4380  -26.6340 C   0  0  0  0  0  0  0  0  0  0  0  0
    0.5876   25.7909  -23.8901 H   0  0  0  0  0  0  0  0  0  0  0  0
    0.1779   24.9353  -25.4155 H   0  0  0  0  0  0  0  0  0  0  0  0
    1.4337   26.2197  -25.4155 H   0  0  0  0  0  0  0  0  0  0  0  0
   -1.9391   26.0070  -23.9816 H   0  0  0  0  0  0  0  0  0  0  0  0
   -2.5905   27.2882  -25.1136 H   0  0  0  0  0  0  0  0  0  0  0  0
   -2.1316   24.3625  -25.5634 H   0  0  0  0  0  0  0  0  0  0  0  0
   -3.4823   25.4990  -26.0931 H   0  0  0  0  0  0  0  0  0  0  0  0
   -0.2190   23.9038  -28.9420 H   0  0  0  0  0  0  0  0  0  0  0  0
   -0.9162   22.1705  -30.5733 H   0  0  0  0  0  0  0  0  0  0  0  0
   -7.5953   17.6573  -32.2821 H   0  0  0  0  0  0  0  0  0  0  0  0
   -6.9279   16.0074  -33.9624 H   0  0  0  0  0  0  0  0  0  0  0  0
   -7.2543   17.2929  -35.1738 H   0  0  0  0  0  0  0  0  0  0  0  0
   -5.6739   16.4391  -35.1738 H   0  0  0  0  0  0  0  0  0  0  0  0
   -0.7542   18.9161  -33.4736 H   0  0  0  0  0  0  0  0  0  0  0  0
   -0.7610   18.8919  -35.2716 H   0  0  0  0  0  0  0  0  0  0  0  0
    0.7318   20.6184  -33.5924 H   0  0  0  0  0  0  0  0  0  0  0  0
    0.5148   20.7583  -35.3677 H   0  0  0  0  0  0  0  0  0  0  0  0
   -1.5800   21.7700  -34.7560 H   0  0  0  0  0  0  0  0  0  0  0  0
   -1.8410   21.7040  -32.5170 H   0  0  0  0  0  0  0  0  0  0  0  0
   -5.0689   23.0136  -29.7060 H   0  0  0  0  0  0  0  0  0  0  0  0
   -4.3810   24.7203  -28.0438 H   0  0  0  0  0  0  0  0  0  0  0  0
    0.1814   25.7817  -27.8226 H   0  0  0  0  0  0  0  0  0  0  0  0
   -1.0529   26.8888  -28.6051 H   0  0  0  0  0  0  0  0  0  0  0  0
    0.5178   27.8596  -26.7971 H   0  0  0  0  0  0  0  0  0  0  0  0
   -1.2671   28.2045  -26.7384 H   0  0  0  0  0  0  0  0  0  0  0  0
  1  2  1  0
  2  3  1  0
  3  4  1  0
  4  5  1  0
  5  6  1  0
  6  7  2  0
  7  8  1  0
  8  9  2  0
  9 10  1  0
 10 11  2  0
 11 12  1  0
 12 13  1  0
 13 14  2  0
 14 15  1  0
 15 16  1  0
 15 17  1  0
 17 18  2  0
 17 19  1  0
 19 20  1  0
 20 21  1  0
 21 22  1  0
 22 23  1  0
 23 24  1  0
 20 25  2  0
  9 26  1  0
 26 27  2  0
  5 28  1  0
 28 29  1  0
 29  2  1  0
 27  6  1  0
 25 10  1  0
 19 12  2  0
  1 30  1  0
  1 31  1  0
  1 32  1  0
  3 33  1  0
  3 34  1  0
  4 35  1  0
  4 36  1  0
  7 37  1  0
  8 38  1  0
 14 39  1  0
 16 40  1  0
 16 41  1  0
 16 42  1  0
 22 43  1  0
 22 44  1  0
 23 45  1  0
 23 46  1  0
 24 47  1  0
 25 48  1  0
 26 49  1  0
 27 50  1  0
 28 51  1  0
 28 52  1  0
 29 53  1  0
 29 54  1  0
M  CHG  1  25   1
M  END
>  <UniqueID>  (28) 
27

>  <SMILES>  (28) 
CN1CCN(c2ccc(-c3nc4ncn(C)c(=O)c4c(OCCO)[nH+]3)cc2)CC1

>  <Energy>  (28) 
79.86243316569416

>  <Genealogy>  (28) 
CN1CCN(c2ccc(-c3nc4ncn(C)c(=O)c4c(OCCO)[nH+]3)cc2)CC1 (protonated)
CN1CCN(c2ccc(-c3nc4ncn(C)c(=O)c4c(OCCO)[nH+]3)cc2)CC1 (3D coordinates assigned)
CN1CCN(c2ccc(-c3nc4ncn(C)c(=O)c4c(OCCO)[nH+]3)cc2)CC1 (nonaromatic ring conformer: 79.86243316569416 kcal/mol)

>  <smiles>  (28) 
CN1CCN(c2ccc(-c3nc(OCCO)c4c(=O)n(C)cnc4n3)cc2)CC1

>  <score_type>  (28) 
oracle

>  <origin>  (28) 
adg

>  <m_score__min__energy>  (28) 
-6.9500000000000002

>  <m_primary>  (28) 
energy

$$$$
28:0
     RDKit          3D

 52 56  0  0  0  0  0  0  0  0999 V2000
   -0.3556   23.7508  -26.2597 H   0  0  0  0  0  0  0  0  0  0  0  0
   -1.0230   23.9890  -27.1010 C   0  0  0  0  0  0  0  0  0  0  0  0
   -0.5060   24.4530  -28.2690 N   0  0  0  0  0  0  0  0  0  0  0  0
   -1.2950   24.7460  -29.3360 C   0  0  0  0  0  0  0  0  0  0  0  0
   -0.8430   25.1326  -30.2613 H   0  0  0  0  0  0  0  0  0  0  0  0
   -2.6810   24.5580  -29.2630 C   0  0  0  0  0  0  0  0  0  0  0  0
   -3.4930   24.9140  -30.3950 N   0  0  0  0  0  0  0  0  0  0  0  0
   -4.6810   24.4680  -30.6780 C   0  0  0  0  0  0  0  0  0  0  0  0
   -4.8020   23.3270  -31.4040 N   0  0  0  0  0  0  0  0  0  0  0  0
   -6.0210   22.8120  -31.7080 C   0  0  0  0  0  0  0  0  0  0  0  0
   -7.1900   23.4440  -31.2410 C   0  0  0  0  0  0  0  0  0  0  0  0
   -7.0420   24.6180  -30.4990 C   0  0  0  0  0  0  0  0  0  0  0  0
   -7.9310   25.1542  -30.1355 H   0  0  0  0  0  0  0  0  0  0  0  0
   -5.8010   25.0980  -30.2260 N   0  0  0  0  0  0  0  0  0  0  0  0
   -8.5680   22.9420  -31.6480 C   0  0  0  0  0  0  0  0  0  0  0  0
   -8.8657   23.4544  -32.5748 H   0  0  0  0  0  0  0  0  0  0  0  0
   -9.2513   23.1592  -30.8138 H   0  0  0  0  0  0  0  0  0  0  0  0
   -8.6200   21.4140  -31.8940 C   0  0  0  0  0  0  0  0  0  0  0  0
   -9.5011   21.1769  -32.5084 H   0  0  0  0  0  0  0  0  0  0  0  0
   -8.6829   20.9012  -30.9229 H   0  0  0  0  0  0  0  0  0  0  0  0
   -7.3850   20.9500  -32.6050 C   0  0  0  0  0  0  0  0  0  0  0  0
   -6.1690   21.5690  -32.4760 C   0  0  0  0  0  0  0  0  0  0  0  0
   -5.2770   20.7770  -33.1930 C   0  0  0  0  0  0  0  0  0  0  0  0
   -3.8240   21.0630  -33.4690 C   0  0  0  0  0  0  0  0  0  0  0  0
   -3.7359   22.0426  -33.9617 H   0  0  0  0  0  0  0  0  0  0  0  0
   -3.4250   20.2713  -34.1202 H   0  0  0  0  0  0  0  0  0  0  0  0
   -3.0330   21.0810  -32.1880 C   0  0  0  0  0  0  0  0  0  0  0  0
   -1.7120   21.5550  -32.1780 C   0  0  0  0  0  0  0  0  0  0  0  0
   -1.2569   21.9274  -33.1076 H   0  0  0  0  0  0  0  0  0  0  0  0
   -0.9720   21.5560  -30.9920 C   0  0  0  0  0  0  0  0  0  0  0  0
    0.0622   21.9308  -30.9955 H   0  0  0  0  0  0  0  0  0  0  0  0
   -1.5340   21.0850  -29.8010 C   0  0  0  0  0  0  0  0  0  0  0  0
   -0.7490   21.1050  -28.6390 O   0  0  0  0  0  0  0  0  0  0  0  0
   -1.0920   20.4460  -27.4240 C   0  0  0  0  0  0  0  0  0  0  0  0
   -0.7718   21.0612  -26.5702 H   0  0  0  0  0  0  0  0  0  0  0  0
   -2.1813   20.2986  -27.3817 H   0  0  0  0  0  0  0  0  0  0  0  0
   -0.5879   19.4692  -27.3817 H   0  0  0  0  0  0  0  0  0  0  0  0
   -2.8600   20.6100  -29.8090 C   0  0  0  0  0  0  0  0  0  0  0  0
   -3.3142   20.2383  -28.8787 H   0  0  0  0  0  0  0  0  0  0  0  0
   -3.6010   20.6090  -30.9940 C   0  0  0  0  0  0  0  0  0  0  0  0
   -4.6358   20.2360  -30.9911 H   0  0  0  0  0  0  0  0  0  0  0  0
   -5.9770   19.7310  -33.7020 N   0  0  0  0  0  0  0  0  0  0  0  0
   -5.4710   18.6790  -34.5800 C   0  0  0  0  0  0  0  0  0  0  0  0
   -5.0738   17.8532  -33.9716 H   0  0  0  0  0  0  0  0  0  0  0  0
   -6.2885   18.3065  -35.2148 H   0  0  0  0  0  0  0  0  0  0  0  0
   -4.6697   19.0851  -35.2148 H   0  0  0  0  0  0  0  0  0  0  0  0
   -7.2480   19.8340  -33.3400 N   0  0  0  0  0  0  0  0  0  0  0  0
   -8.0050   19.1570  -33.5880 H   0  0  0  0  0  0  0  0  0  0  0  0
   -3.2360   24.1100  -28.0510 C   0  0  0  0  0  0  0  0  0  0  0  0
   -4.3254   23.9921  -27.9544 H   0  0  0  0  0  0  0  0  0  0  0  0
   -2.4020   23.8150  -26.9700 C   0  0  0  0  0  0  0  0  0  0  0  0
   -2.8279   23.4489  -26.0241 H   0  0  0  0  0  0  0  0  0  0  0  0
  1  2  1  0
  2  3  2  0
  3  4  1  0
  4  5  1  0
  4  6  2  0
  6  7  1  0
  7  8  2  0
  8  9  1  0
  9 10  2  0
 10 11  1  0
 11 12  2  0
 12 13  1  0
 12 14  1  0
 11 15  1  0
 15 16  1  0
 15 17  1  0
 15 18  1  0
 18 19  1  0
 18 20  1  0
 18 21  1  0
 21 22  1  0
 22 23  2  0
 23 24  1  0
 24 25  1  0
 24 26  1  0
 24 27  1  0
 27 28  2  0
 28 29  1  0
 28 30  1  0
 30 31  1  0
 30 32  2  0
 32 33  1  0
 33 34  1  0
 34 35  1  0
 34 36  1  0
 34 37  1  0
 32 38  1  0
 38 39  1  0
 38 40  2  0
 40 41  1  0
 23 42  1  0
 42 43  1  0
 43 44  1  0
 43 45  1  0
 43 46  1  0
 42 47  1  0
 47 48  1  0
  6 49  1  0
 49 50  1  0
 49 51  2  0
 51 52  1  0
 51  2  1  0
 14  8  1  0
 47 21  2  0
 22 10  1  0
 40 27  1  0
M  CHG  2  14  -1  47   1
M  END
>  <UniqueID>  (29) 
28

>  <SMILES>  (29) 
COc1ccc(Cc2c3c([nH+]n2C)CCc2c[n-]/c(=N\c4cccnc4)nc2-3)cc1

>  <Energy>  (29) 
100.1154465945591

>  <Genealogy>  (29) 
COc1ccc(Cc2c3c([nH+]n2C)CCc2c[n-]c(=Nc4cccnc4)nc2-3)cc1 (protonated)
COc1ccc(Cc2c3c([nH+]n2C)CCc2c[n-]/c(=N\c4cccnc4)nc2-3)cc1 (cis-trans isomerization)
COc1ccc(Cc2c3c([nH+]n2C)CCc2c[n-]/c(=N\c4cccnc4)nc2-3)cc1 (3D coordinates assigned)
COc1ccc(Cc2c3c([nH+]n2C)CCc2c[n-]/c(=N\c4cccnc4)nc2-3)cc1 (nonaromatic ring conformer: 100.1154465945591 kcal/mol)

>  <smiles>  (29) 
COc1ccc(Cc2c3c(nn2C)CCc2c[nH]c(=Nc4cccnc4)nc2-3)cc1

>  <score_type>  (29) 
oracle

>  <origin>  (29) 
adg

>  <m_score__min__energy>  (29) 
-10.02

>  <m_primary>  (29) 
energy

$$$$
29:0
     RDKit          3D

 27 29  0  0  0  0  0  0  0  0999 V2000
   -3.3170   17.8480  -34.0720 C   0  0  0  0  0  0  0  0  0  0  0  0
   -4.6890   18.0360  -33.5890 N   0  0  0  0  0  0  0  0  0  0  0  0
   -5.5440   16.9750  -33.5680 C   0  0  0  0  0  0  0  0  0  0  0  0
   -6.8590   17.1350  -33.1490 C   0  0  0  0  0  0  0  0  0  0  0  0
   -7.3150   18.3980  -32.7570 C   0  0  0  0  0  0  0  0  0  0  0  0
   -8.6400   18.5510  -32.3370 C   0  0  0  0  0  0  0  0  0  0  0  0
   -9.1190   19.7960  -31.9500 C   0  0  0  0  0  0  0  0  0  0  0  0
   -8.2820   20.9180  -31.9740 C   0  0  0  0  0  0  0  0  0  0  0  0
   -8.7940   22.1640  -31.5760 C   0  0  0  0  0  0  0  0  0  0  0  0
   -7.9810   23.2960  -31.5880 C   0  0  0  0  0  0  0  0  0  0  0  0
   -6.6540   23.1960  -31.9950 C   0  0  0  0  0  0  0  0  0  0  0  0
   -6.1260   21.9660  -32.3950 C   0  0  0  0  0  0  0  0  0  0  0  0
   -6.9270   20.7960  -32.3950 C   0  0  0  0  0  0  0  0  0  0  0  0
   -6.4380   19.5130  -32.7950 C   0  0  0  0  0  0  0  0  0  0  0  0
   -5.1110   19.2870  -33.2330 C   0  0  0  0  0  0  0  0  0  0  0  0
   -2.6356   17.7546  -33.2135 H   0  0  0  0  0  0  0  0  0  0  0  0
   -3.2651   16.9344  -34.6824 H   0  0  0  0  0  0  0  0  0  0  0  0
   -3.0212   18.7140  -34.6824 H   0  0  0  0  0  0  0  0  0  0  0  0
   -5.1899   15.9832  -33.8856 H   0  0  0  0  0  0  0  0  0  0  0  0
   -7.5395   16.2711  -33.1256 H   0  0  0  0  0  0  0  0  0  0  0  0
   -9.3087   17.6779  -32.3129 H   0  0  0  0  0  0  0  0  0  0  0  0
  -10.1637   19.9012  -31.6222 H   0  0  0  0  0  0  0  0  0  0  0  0
   -9.8423   22.2468  -31.2531 H   0  0  0  0  0  0  0  0  0  0  0  0
   -8.3884   24.2688  -31.2756 H   0  0  0  0  0  0  0  0  0  0  0  0
   -6.0161   24.0921  -32.0018 H   0  0  0  0  0  0  0  0  0  0  0  0
   -5.0751   21.9044  -32.7141 H   0  0  0  0  0  0  0  0  0  0  0  0
   -4.4080   20.1313  -33.2879 H   0  0  0  0  0  0  0  0  0  0  0  0
  1  2  1  0
  2  3  2  0
  3  4  1  0
  4  5  2  0
  5  6  1  0
  6  7  2  0
  7  8  1  0
  8  9  2  0
  9 10  1  0
 10 11  2  0
 11 12  1  0
 12 13  2  0
 13 14  1  0
 14 15  2  0
 15  2  1  0
 14  5  1  0
 13  8  1  0
  1 16  1  0
  1 17  1  0
  1 18  1  0
  3 19  1  0
  4 20  1  0
  6 21  1  0
  7 22  1  0
  9 23  1  0
 10 24  1  0
 11 25  1  0
 12 26  1  0
 15 27  1  0
M  CHG  1   2   1
M  END
>  <UniqueID>  (30) 
29

>  <SMILES>  (30) 
C[n+]1ccc2ccc3ccccc3c2c1

>  <Energy>  (30) 
41.06000339572993

>  <Genealogy>  (30) 
C[n+]1ccc2ccc3ccccc3c2c1 (3D coordinates assigned)
C[n+]1ccc2ccc3ccccc3c2c1 (optimized conformer: 41.06000339572993 kcal/mol)

>  <smiles>  (30) 
C[n+]1ccc2ccc3ccccc3c2c1

>  <score_type>  (30) 
oracle

>  <origin>  (30) 
adg

>  <m_score__min__energy>  (30) 
-6.54

>  <m_primary>  (30) 
energy

$$$$
30:0
     RDKit          3D

 42 43  0  0  0  0  0  0  0  0999 V2000
   -5.7380   16.6960  -31.4640 C   0  0  0  0  0  0  0  0  0  0  0  0
   -5.4210   15.7910  -32.5790 N   0  0  0  0  0  0  0  0  0  0  0  0
   -4.6100   14.6460  -32.1330 C   0  0  0  0  0  0  0  0  0  0  0  0
   -4.8780   16.4810  -33.7720 C   0  0  0  0  0  0  0  0  0  0  0  0
   -5.9170   17.2350  -34.6360 C   0  0  0  0  0  0  0  0  0  0  0  0
   -6.7850   18.1020  -33.8370 N   0  0  0  0  0  0  0  0  0  0  0  0
   -6.3700   19.3460  -33.2290 C   0  0  0  0  0  0  0  0  0  0  0  0
   -5.0920   19.8830  -33.4840 C   0  0  0  0  0  0  0  0  0  0  0  0
   -4.6600   21.0410  -32.8370 C   0  0  0  0  0  0  0  0  0  0  0  0
   -5.4920   21.6940  -31.9220 C   0  0  0  0  0  0  0  0  0  0  0  0
   -5.0390   22.8760  -31.2380 N   0  0  0  0  0  0  0  0  0  0  0  0
   -3.6790   22.9020  -30.6870 C   0  0  0  0  0  0  0  0  0  0  0  0
   -3.4730   24.1250  -29.7870 C   0  0  0  0  0  0  0  0  0  0  0  0
   -3.8880   25.2970  -30.4580 O   0  0  0  0  0  0  0  0  0  0  0  0
   -5.3000   25.3160  -30.5650 C   0  0  0  0  0  0  0  0  0  0  0  0
   -5.8180   24.0870  -31.2590 C   0  0  0  0  0  0  0  0  0  0  0  0
   -6.9660   24.1060  -31.7800 O   0  0  0  0  0  0  0  0  0  0  0  0
   -6.7690   21.1810  -31.6700 C   0  0  0  0  0  0  0  0  0  0  0  0
   -7.2260   20.0270  -32.3280 C   0  0  0  0  0  0  0  0  0  0  0  0
   -8.5560   19.5600  -32.0630 N   0  0  0  0  0  0  0  0  0  0  0  0
   -9.5310   20.3070  -32.2840 O   0  0  0  0  0  0  0  0  0  0  0  0
   -8.7800   18.2200  -31.8460 O   0  0  0  0  0  0  0  0  0  0  0  0
   -5.5571   16.1795  -30.5098 H   0  0  0  0  0  0  0  0  0  0  0  0
   -5.0994   17.5896  -31.5241 H   0  0  0  0  0  0  0  0  0  0  0  0
   -6.7947   16.9958  -31.5241 H   0  0  0  0  0  0  0  0  0  0  0  0
   -4.5896   14.6172  -31.0336 H   0  0  0  0  0  0  0  0  0  0  0  0
   -5.0502   13.7135  -32.5161 H   0  0  0  0  0  0  0  0  0  0  0  0
   -3.5843   14.7518  -32.5161 H   0  0  0  0  0  0  0  0  0  0  0  0
   -4.1286   17.2100  -33.4300 H   0  0  0  0  0  0  0  0  0  0  0  0
   -4.4659   15.6906  -34.4165 H   0  0  0  0  0  0  0  0  0  0  0  0
   -5.3821   17.8529  -35.3723 H   0  0  0  0  0  0  0  0  0  0  0  0
   -6.5536   16.4836  -35.1260 H   0  0  0  0  0  0  0  0  0  0  0  0
   -7.7540   17.7510  -33.6850 H   0  0  0  0  0  0  0  0  0  0  0  0
   -4.4265   19.3824  -34.2027 H   0  0  0  0  0  0  0  0  0  0  0  0
   -3.6581   21.4432  -33.0480 H   0  0  0  0  0  0  0  0  0  0  0  0
   -3.5129   21.9890  -30.0964 H   0  0  0  0  0  0  0  0  0  0  0  0
   -2.9644   22.9573  -31.5214 H   0  0  0  0  0  0  0  0  0  0  0  0
   -4.0641   24.0036  -28.8673 H   0  0  0  0  0  0  0  0  0  0  0  0
   -2.4054   24.2122  -29.5369 H   0  0  0  0  0  0  0  0  0  0  0  0
   -5.7341   25.3658  -29.5555 H   0  0  0  0  0  0  0  0  0  0  0  0
   -5.5886   26.1950  -31.1600 H   0  0  0  0  0  0  0  0  0  0  0  0
   -7.4243   21.6883  -30.9466 H   0  0  0  0  0  0  0  0  0  0  0  0
  1  2  1  0
  2  3  1  0
  2  4  1  0
  4  5  1  0
  5  6  1  0
  6  7  1  0
  7  8  2  0
  8  9  1  0
  9 10  2  0
 10 11  1  0
 11 12  1  0
 12 13  1  0
 13 14  1  0
 14 15  1  0
 15 16  1  0
 16 17  2  0
 10 18  1  0
 18 19  2  0
 19 20  1  0
 20 21  2  0
 20 22  1  0
 19  7  1  0
 16 11  1  0
  1 23  1  0
  1 24  1  0
  1 25  1  0
  3 26  1  0
  3 27  1  0
  3 28  1  0
  4 29  1  0
  4 30  1  0
  5 31  1  0
  5 32  1  0
  6 33  1  0
  8 34  1  0
  9 35  1  0
 12 36  1  0
 12 37  1  0
 13 38  1  0
 13 39  1  0
 15 40  1  0
 15 41  1  0
 18 42  1  0
M  CHG  2  20   1  22  -1
M  END
>  <UniqueID>  (31) 
30

>  <SMILES>  (31) 
CN(C)CCNc1ccc(N2CCOCC2=O)cc1[N+](=O)[O-]

>  <Energy>  (31) 
59.20244427142672

>  <Genealogy>  (31) 
CN(C)CCNc1ccc(N2CCOCC2=O)cc1[N+](=O)[O-] (3D coordinates assigned)
CN(C)CCNc1ccc(N2CCOCC2=O)cc1[N+](=O)[O-] (nonaromatic ring conformer: 59.20244427142672 kcal/mol)

>  <smiles>  (31) 
CN(C)CCNc1ccc(N2CCOCC2=O)cc1[N+](=O)[O-]

>  <score_type>  (31) 
oracle

>  <origin>  (31) 
adg

>  <m_score__min__energy>  (31) 
-7.2800000000000002

>  <m_primary>  (31) 
energy

$$$$
31:0
     RDKit          3D

 41 43  0  0  0  0  0  0  0  0999 V2000
   -5.7260   18.9910  -33.2060 C   0  0  0  0  0  0  0  0  0  0  0  0
   -6.3360   20.2510  -32.6580 C   0  0  0  0  0  0  0  0  0  0  0  0
   -7.7170   20.3150  -32.4110 C   0  0  0  0  0  0  0  0  0  0  0  0
   -8.2900   21.4830  -31.9060 C   0  0  0  0  0  0  0  0  0  0  0  0
   -7.4920   22.5980  -31.6480 C   0  0  0  0  0  0  0  0  0  0  0  0
   -6.1170   22.5470  -31.8880 C   0  0  0  0  0  0  0  0  0  0  0  0
   -5.5240   21.3720  -32.3930 C   0  0  0  0  0  0  0  0  0  0  0  0
   -4.1430   21.2850  -32.6520 O   0  0  0  0  0  0  0  0  0  0  0  0
   -3.1270   22.0550  -32.0070 C   0  0  0  0  0  0  0  0  0  0  0  0
   -3.0160   21.7810  -30.5140 C   0  0  0  0  0  0  0  0  0  0  0  0
   -2.8400   20.4600  -30.0430 C   0  0  0  0  0  0  0  0  0  0  0  0
   -2.7820   20.1860  -28.6770 C   0  0  0  0  0  0  0  0  0  0  0  0
   -2.9160   21.2150  -27.7510 C   0  0  0  0  0  0  0  0  0  0  0  0
   -3.1090   22.5250  -28.1870 C   0  0  0  0  0  0  0  0  0  0  0  0
   -3.1560   22.8310  -29.5600 C   0  0  0  0  0  0  0  0  0  0  0  0
   -3.3840   24.2490  -29.9380 C   0  0  0  0  0  0  0  0  0  0  0  0
   -4.2630   24.5220  -30.8010 O   0  0  0  0  0  0  0  0  0  0  0  0
   -2.6190   25.3010  -29.3370 N   0  0  0  0  0  0  0  0  0  0  0  0
   -1.4180   25.1600  -28.5660 C   0  0  0  0  0  0  0  0  0  0  0  0
   -1.2700   25.9180  -27.3990 C   0  0  0  0  0  0  0  0  0  0  0  0
   -0.1030   25.8170  -26.6400 C   0  0  0  0  0  0  0  0  0  0  0  0
    0.9180   24.9660  -27.0680 C   0  0  0  0  0  0  0  0  0  0  0  0
    0.7750   24.2570  -28.2180 N   0  0  0  0  0  0  0  0  0  0  0  0
   -0.3540   24.3340  -28.9720 C   0  0  0  0  0  0  0  0  0  0  0  0
   -5.4125   18.3434  -32.3739 H   0  0  0  0  0  0  0  0  0  0  0  0
   -6.4680   18.4624  -33.8225 H   0  0  0  0  0  0  0  0  0  0  0  0
   -4.8512   19.2452  -33.8225 H   0  0  0  0  0  0  0  0  0  0  0  0
   -8.3506   19.4396  -32.6167 H   0  0  0  0  0  0  0  0  0  0  0  0
   -9.3718   21.5246  -31.7112 H   0  0  0  0  0  0  0  0  0  0  0  0
   -7.9467   23.5192  -31.2547 H   0  0  0  0  0  0  0  0  0  0  0  0
   -5.4930   23.4291  -31.6817 H   0  0  0  0  0  0  0  0  0  0  0  0
   -2.1606   21.8204  -32.4772 H   0  0  0  0  0  0  0  0  0  0  0  0
   -3.4001   23.1142  -32.1230 H   0  0  0  0  0  0  0  0  0  0  0  0
   -2.7474   19.6354  -30.7651 H   0  0  0  0  0  0  0  0  0  0  0  0
   -2.6298   19.1530  -28.3308 H   0  0  0  0  0  0  0  0  0  0  0  0
   -2.8697   20.9951  -26.6742 H   0  0  0  0  0  0  0  0  0  0  0  0
   -3.2262   23.3309  -27.4475 H   0  0  0  0  0  0  0  0  0  0  0  0
   -2.0756   26.5953  -27.0790 H   0  0  0  0  0  0  0  0  0  0  0  0
    0.0111   26.4013  -25.7150 H   0  0  0  0  0  0  0  0  0  0  0  0
    1.8386   24.8696  -26.4737 H   0  0  0  0  0  0  0  0  0  0  0  0
   -0.4354   23.7498  -29.9005 H   0  0  0  0  0  0  0  0  0  0  0  0
  1  2  1  0
  2  3  2  0
  3  4  1  0
  4  5  2  0
  5  6  1  0
  6  7  2  0
  7  8  1  0
  8  9  1  0
  9 10  1  0
 10 11  2  0
 11 12  1  0
 12 13  2  0
 13 14  1  0
 14 15  2  0
 15 16  1  0
 16 17  2  0
 16 18  1  0
 18 19  1  0
 19 20  2  0
 20 21  1  0
 21 22  2  0
 22 23  1  0
 23 24  2  0
  7  2  1  0
 15 10  1  0
 24 19  1  0
  1 25  1  0
  1 26  1  0
  1 27  1  0
  3 28  1  0
  4 29  1  0
  5 30  1  0
  6 31  1  0
  9 32  1  0
  9 33  1  0
 11 34  1  0
 12 35  1  0
 13 36  1  0
 14 37  1  0
 20 38  1  0
 21 39  1  0
 22 40  1  0
 24 41  1  0
M  CHG  1  18  -1
M  END
>  <UniqueID>  (32) 
31

>  <SMILES>  (32) 
Cc1ccccc1OCc1ccccc1C(=O)[N-]c1cccnc1

>  <Energy>  (32) 
56.4592700963074

>  <Genealogy>  (32) 
Cc1ccccc1OCc1ccccc1C(=O)[N-]c1cccnc1 (protonated)
Cc1ccccc1OCc1ccccc1C(=O)[N-]c1cccnc1 (3D coordinates assigned)
Cc1ccccc1OCc1ccccc1C(=O)[N-]c1cccnc1 (optimized conformer: 56.4592700963074 kcal/mol)

>  <smiles>  (32) 
Cc1ccccc1OCc1ccccc1C(=O)Nc1cccnc1

>  <score_type>  (32) 
oracle

>  <origin>  (32) 
adg

>  <m_score__min__energy>  (32) 
-9.5999999999999996

>  <m_primary>  (32) 
energy

$$$$
32:0
     RDKit          3D

 41 41  0  0  0  0  0  0  0  0999 V2000
   -7.2690   22.7309  -33.3920 H   0  0  0  0  0  0  0  0  0  0  0  0
   -7.5360   22.9740  -32.3530 C   0  0  0  0  0  0  0  0  0  0  0  0
   -8.8010   22.7740  -31.9640 C   0  0  0  0  0  0  0  0  0  0  0  0
   -9.4785   23.6350  -31.8656 H   0  0  0  0  0  0  0  0  0  0  0  0
   -9.3110   21.3970  -31.6600 C   0  0  0  0  0  0  0  0  0  0  0  0
  -10.4096   21.3962  -31.7147 H   0  0  0  0  0  0  0  0  0  0  0  0
   -8.9849   21.1085  -30.6498 H   0  0  0  0  0  0  0  0  0  0  0  0
   -8.7950   20.4660  -32.5960 O   0  0  0  0  0  0  0  0  0  0  0  0
   -8.7670   19.1500  -32.0760 C   0  0  0  0  0  0  0  0  0  0  0  0
   -9.6483   18.6016  -32.4401 H   0  0  0  0  0  0  0  0  0  0  0  0
   -8.7733   19.2095  -30.9776 H   0  0  0  0  0  0  0  0  0  0  0  0
   -7.4860   18.3990  -32.5190 C   0  0  0  0  0  0  0  0  0  0  0  0
   -7.7837   17.3949  -32.8555 H   0  0  0  0  0  0  0  0  0  0  0  0
   -6.8223   18.4009  -31.6418 H   0  0  0  0  0  0  0  0  0  0  0  0
   -6.7020   19.0360  -33.6190 N   0  0  0  0  0  0  0  0  0  0  0  0
   -7.4020   19.5920  -34.1670 H   0  0  0  0  0  0  0  0  0  0  0  0
   -6.0860   18.0960  -34.5920 C   0  0  0  0  0  0  0  0  0  0  0  0
   -5.0021   18.2808  -34.6251 H   0  0  0  0  0  0  0  0  0  0  0  0
   -6.5531   18.2717  -35.5723 H   0  0  0  0  0  0  0  0  0  0  0  0
   -6.3250   16.6300  -34.2140 C   0  0  0  0  0  0  0  0  0  0  0  0
   -6.3410   16.5317  -33.1185 H   0  0  0  0  0  0  0  0  0  0  0  0
   -7.2892   16.2976  -34.6261 H   0  0  0  0  0  0  0  0  0  0  0  0
   -5.5163   16.0086  -34.6261 H   0  0  0  0  0  0  0  0  0  0  0  0
   -5.7450   20.0680  -33.1400 C   0  0  0  0  0  0  0  0  0  0  0  0
   -4.9880   20.2212  -33.9232 H   0  0  0  0  0  0  0  0  0  0  0  0
   -6.3425   20.9671  -32.9285 H   0  0  0  0  0  0  0  0  0  0  0  0
   -5.0180   19.7210  -31.8380 C   0  0  0  0  0  0  0  0  0  0  0  0
   -5.6398   20.0178  -30.9805 H   0  0  0  0  0  0  0  0  0  0  0  0
   -4.8328   18.6374  -31.7990 H   0  0  0  0  0  0  0  0  0  0  0  0
   -4.0591   20.2585  -31.7990 H   0  0  0  0  0  0  0  0  0  0  0  0
   -6.4740   23.5040  -31.4650 C   0  0  0  0  0  0  0  0  0  0  0  0
   -6.8160   24.4830  -30.5160 C   0  0  0  0  0  0  0  0  0  0  0  0
   -7.8531   24.8443  -30.4545 H   0  0  0  0  0  0  0  0  0  0  0  0
   -5.8490   25.0010  -29.6500 C   0  0  0  0  0  0  0  0  0  0  0  0
   -6.1264   25.7714  -28.9155 H   0  0  0  0  0  0  0  0  0  0  0  0
   -4.5320   24.5430  -29.7150 C   0  0  0  0  0  0  0  0  0  0  0  0
   -3.7711   24.9558  -29.0363 H   0  0  0  0  0  0  0  0  0  0  0  0
   -4.1820   23.5600  -30.6430 C   0  0  0  0  0  0  0  0  0  0  0  0
   -3.1451   23.1957  -30.6904 H   0  0  0  0  0  0  0  0  0  0  0  0
   -5.1440   23.0370  -31.5120 C   0  0  0  0  0  0  0  0  0  0  0  0
   -4.8625   22.2578  -32.2356 H   0  0  0  0  0  0  0  0  0  0  0  0
  1  2  1  0
  2  3  2  0
  3  4  1  0
  3  5  1  0
  5  6  1  0
  5  7  1  0
  5  8  1  0
  8  9  1  0
  9 10  1  0
  9 11  1  0
  9 12  1  0
 12 13  1  0
 12 14  1  0
 12 15  1  0
 15 16  1  0
 15 17  1  0
 17 18  1  0
 17 19  1  0
 17 20  1  0
 20 21  1  0
 20 22  1  0
 20 23  1  0
 15 24  1  0
 24 25  1  0
 24 26  1  0
 24 27  1  0
 27 28  1  0
 27 29  1  0
 27 30  1  0
  2 31  1  0
 31 32  2  0
 32 33  1  0
 32 34  1  0
 34 35  1  0
 34 36  2  0
 36 37  1  0
 36 38  1  0
 38 39  1  0
 38 40  2  0
 40 41  1  0
 40 31  1  0
M  CHG  1  15   1
M  END
>  <UniqueID>  (33) 
32

>  <SMILES>  (33) 
CC[NH+](CC)CCOC/C=C/c1ccccc1

>  <Energy>  (33) 
48.44975514741756

>  <Genealogy>  (33) 
CC[NH+](CC)CCOCC=Cc1ccccc1 (protonated)
CC[NH+](CC)CCOC/C=C/c1ccccc1 (cis-trans isomerization)
CC[NH+](CC)CCOC/C=C/c1ccccc1 (3D coordinates assigned)
CC[NH+](CC)CCOC/C=C/c1ccccc1 (optimized conformer: 48.44975514741756 kcal/mol)

>  <smiles>  (33) 
CCN(CC)CCOCC=Cc1ccccc1

>  <score_type>  (33) 
oracle

>  <origin>  (33) 
adg

>  <m_score__min__energy>  (33) 
-5.3700000000000001

>  <m_primary>  (33) 
energy

$$$$
33:0
     RDKit          3D

 46 49  0  0  0  0  0  0  0  0999 V2000
   -5.4970   25.2900  -30.0190 C   0  0  0  0  0  0  0  0  0  0  0  0
   -4.2430   24.4820  -29.9290 C   0  0  0  0  0  0  0  0  0  0  0  0
   -3.0960   24.9460  -29.3940 N   0  0  0  0  0  0  0  0  0  0  0  0
   -2.2070   23.9650  -29.4410 N   0  0  0  0  0  0  0  0  0  0  0  0
   -0.8360   24.1020  -28.9630 C   0  0  0  0  0  0  0  0  0  0  0  0
   -2.7550   22.8750  -30.0180 C   0  0  0  0  0  0  0  0  0  0  0  0
   -2.0660   21.5500  -30.1620 C   0  0  0  0  0  0  0  0  0  0  0  0
   -4.0730   23.1680  -30.3360 C   0  0  0  0  0  0  0  0  0  0  0  0
   -5.1050   22.2500  -30.9350 C   0  0  0  0  0  0  0  0  0  0  0  0
   -4.9980   22.1860  -32.4640 C   0  0  0  0  0  0  0  0  0  0  0  0
   -4.3210   20.9140  -32.9180 C   0  0  0  0  0  0  0  0  0  0  0  0
   -3.0090   21.0030  -33.2910 N   0  0  0  0  0  0  0  0  0  0  0  0
   -2.3840   19.9130  -33.7920 C   0  0  0  0  0  0  0  0  0  0  0  0
   -1.0910   19.7930  -34.2270 C   0  0  0  0  0  0  0  0  0  0  0  0
    0.2770   21.1230  -34.2550 Br  0  0  0  0  0  0  0  0  0  0  0  0
   -1.0080   18.4710  -34.6520 C   0  0  0  0  0  0  0  0  0  0  0  0
   -2.2020   17.8520  -34.4750 N   0  0  0  0  0  0  0  0  0  0  0  0
   -3.0180   18.7520  -33.9520 N   0  0  0  0  0  0  0  0  0  0  0  0
   -4.3150   18.5780  -33.6120 C   0  0  0  0  0  0  0  0  0  0  0  0
   -5.0150   19.6710  -33.0640 C   0  0  0  0  0  0  0  0  0  0  0  0
   -6.4270   19.4800  -32.6670 C   0  0  0  0  0  0  0  0  0  0  0  0
   -6.8190   18.3440  -31.9400 C   0  0  0  0  0  0  0  0  0  0  0  0
   -8.1590   18.1590  -31.5910 C   0  0  0  0  0  0  0  0  0  0  0  0
   -9.1210   19.0940  -31.9840 C   0  0  0  0  0  0  0  0  0  0  0  0
   -8.7440   20.2110  -32.7330 C   0  0  0  0  0  0  0  0  0  0  0  0
   -7.4040   20.4010  -33.0810 C   0  0  0  0  0  0  0  0  0  0  0  0
   -5.8572   25.5221  -29.0059 H   0  0  0  0  0  0  0  0  0  0  0  0
   -5.2919   26.2263  -30.5587 H   0  0  0  0  0  0  0  0  0  0  0  0
   -6.2649   24.7163  -30.5587 H   0  0  0  0  0  0  0  0  0  0  0  0
   -0.8295   24.1026  -27.8630 H   0  0  0  0  0  0  0  0  0  0  0  0
   -0.2329   23.2596  -29.3327 H   0  0  0  0  0  0  0  0  0  0  0  0
   -0.4115   25.0470  -29.3327 H   0  0  0  0  0  0  0  0  0  0  0  0
   -1.8517   21.1379  -29.1649 H   0  0  0  0  0  0  0  0  0  0  0  0
   -2.7174   20.8560  -30.7133 H   0  0  0  0  0  0  0  0  0  0  0  0
   -1.1237   21.6847  -30.7133 H   0  0  0  0  0  0  0  0  0  0  0  0
   -4.9612   21.2390  -30.5262 H   0  0  0  0  0  0  0  0  0  0  0  0
   -6.0998   22.6442  -30.6799 H   0  0  0  0  0  0  0  0  0  0  0  0
   -6.0091   22.2265  -32.8952 H   0  0  0  0  0  0  0  0  0  0  0  0
   -4.3933   23.0396  -32.8041 H   0  0  0  0  0  0  0  0  0  0  0  0
   -0.1073   17.9976  -35.0698 H   0  0  0  0  0  0  0  0  0  0  0  0
   -4.8112   17.6074  -33.7595 H   0  0  0  0  0  0  0  0  0  0  0  0
   -6.0678   17.5969  -31.6442 H   0  0  0  0  0  0  0  0  0  0  0  0
   -8.4575   17.2764  -31.0062 H   0  0  0  0  0  0  0  0  0  0  0  0
  -10.1748   18.9501  -31.7034 H   0  0  0  0  0  0  0  0  0  0  0  0
   -9.5027   20.9420  -33.0493 H   0  0  0  0  0  0  0  0  0  0  0  0
   -7.1128   21.2753  -33.6816 H   0  0  0  0  0  0  0  0  0  0  0  0
  1  2  1  0
  2  3  2  0
  3  4  1  0
  4  5  1  0
  4  6  1  0
  6  7  1  0
  6  8  2  0
  8  9  1  0
  9 10  1  0
 10 11  1  0
 11 12  2  0
 12 13  1  0
 13 14  2  0
 14 15  1  0
 14 16  1  0
 16 17  2  0
 17 18  1  0
 18 19  1  0
 19 20  2  0
 20 21  1  0
 21 22  2  0
 22 23  1  0
 23 24  2  0
 24 25  1  0
 25 26  2  0
  8  2  1  0
 20 11  1  0
 26 21  1  0
 18 13  1  0
  1 27  1  0
  1 28  1  0
  1 29  1  0
  5 30  1  0
  5 31  1  0
  5 32  1  0
  7 33  1  0
  7 34  1  0
  7 35  1  0
  9 36  1  0
  9 37  1  0
 10 38  1  0
 10 39  1  0
 16 40  1  0
 19 41  1  0
 22 42  1  0
 23 43  1  0
 24 44  1  0
 25 45  1  0
 26 46  1  0
M  END
>  <UniqueID>  (34) 
33

>  <SMILES>  (34) 
Cc1nn(C)c(C)c1CCc1nc2c(Br)cnn2cc1-c1ccccc1

>  <Energy>  (34) 
113.85196842868774

>  <Genealogy>  (34) 
Cc1nn(C)c(C)c1CCc1nc2c(Br)cnn2cc1-c1ccccc1 (3D coordinates assigned)
Cc1nn(C)c(C)c1CCc1nc2c(Br)cnn2cc1-c1ccccc1 (optimized conformer: 113.85196842868774 kcal/mol)

>  <smiles>  (34) 
Cc1nn(C)c(C)c1CCc1nc2c(Br)cnn2cc1-c1ccccc1

>  <score_type>  (34) 
oracle

>  <origin>  (34) 
adg

>  <m_score__min__energy>  (34) 
-9.25

>  <m_primary>  (34) 
energy

$$$$
34:0
     RDKit          3D

 36 38  0  0  0  0  0  0  0  0999 V2000
   -2.0290   25.2960  -29.1440 O   0  0  0  0  0  0  0  0  0  0  0  0
   -2.9220   24.6230  -29.7220 C   0  0  0  0  0  0  0  0  0  0  0  0
   -3.8530   25.3040  -30.5760 N   0  0  0  0  0  0  0  0  0  0  0  0
   -5.2630   24.9550  -30.7480 C   0  0  2  0  0  0  0  0  0  0  0  0
   -5.8650   24.4050  -29.4390 C   0  0  0  0  0  0  0  0  0  0  0  0
   -7.1520   23.6580  -29.7790 C   0  0  0  0  0  0  0  0  0  0  0  0
   -6.9010   23.0220  -31.4100 S   0  0  0  0  0  0  0  0  0  0  0  0
   -8.0260   23.4050  -32.3310 O   0  0  0  0  0  0  0  0  0  0  0  0
   -6.7030   21.5320  -31.4030 O   0  0  0  0  0  0  0  0  0  0  0  0
   -5.4080   23.8740  -31.8200 C   0  0  0  0  0  0  0  0  0  0  0  0
   -2.9520   23.1650  -29.5250 C   0  0  0  0  0  0  0  0  0  0  0  0
   -2.6890   22.5940  -28.2730 C   0  0  0  0  0  0  0  0  0  0  0  0
   -2.7260   21.2070  -28.1340 C   0  0  0  0  0  0  0  0  0  0  0  0
   -3.0000   20.4000  -29.2400 C   0  0  0  0  0  0  0  0  0  0  0  0
   -3.2210   20.9970  -30.4930 C   0  0  0  0  0  0  0  0  0  0  0  0
   -3.5110   20.1850  -31.7020 C   0  0  0  0  0  0  0  0  0  0  0  0
   -2.4570   19.6170  -32.4380 C   0  0  0  0  0  0  0  0  0  0  0  0
   -2.7300   18.8710  -33.5410 N   0  0  0  0  0  0  0  0  0  0  0  0
   -4.0070   18.6560  -33.9460 C   0  0  0  0  0  0  0  0  0  0  0  0
   -4.2330   17.9610  -34.9710 O   0  0  0  0  0  0  0  0  0  0  0  0
   -5.0610   19.2060  -33.2160 C   0  0  0  0  0  0  0  0  0  0  0  0
   -4.7960   19.9540  -32.1110 N   0  0  0  0  0  0  0  0  0  0  0  0
   -3.1920   22.3560  -30.5930 N   0  0  0  0  0  0  0  0  0  0  0  0
   -5.7950   25.8715  -31.0429 H   0  0  0  0  0  0  0  0  0  0  0  0
   -5.1512   23.7176  -28.9615 H   0  0  0  0  0  0  0  0  0  0  0  0
   -6.0787   25.2307  -28.7443 H   0  0  0  0  0  0  0  0  0  0  0  0
   -7.3214   22.8372  -29.0666 H   0  0  0  0  0  0  0  0  0  0  0  0
   -8.0344   24.3125  -29.7239 H   0  0  0  0  0  0  0  0  0  0  0  0
   -4.5503   23.1858  -31.7938 H   0  0  0  0  0  0  0  0  0  0  0  0
   -5.4395   24.2989  -32.8341 H   0  0  0  0  0  0  0  0  0  0  0  0
   -2.4557   23.2331  -27.4086 H   0  0  0  0  0  0  0  0  0  0  0  0
   -2.5391   20.7481  -27.1519 H   0  0  0  0  0  0  0  0  0  0  0  0
   -3.0425   19.3062  -29.1315 H   0  0  0  0  0  0  0  0  0  0  0  0
   -1.4152   19.7755  -32.1227 H   0  0  0  0  0  0  0  0  0  0  0  0
   -6.1007   19.0358  -33.5322 H   0  0  0  0  0  0  0  0  0  0  0  0
   -5.6060   20.3230  -31.5660 H   0  0  0  0  0  0  0  0  0  0  0  0
  1  2  2  0
  2  3  1  0
  3  4  1  0
  4  5  1  0
  5  6  1  0
  6  7  1  0
  7  8  2  0
  7  9  2  0
  7 10  1  0
  2 11  1  0
 11 12  2  0
 12 13  1  0
 13 14  2  0
 14 15  1  0
 15 16  1  0
 16 17  2  0
 17 18  1  0
 18 19  1  0
 19 20  2  0
 19 21  1  0
 21 22  2  0
 15 23  2  0
 10  4  1  0
 23 11  1  0
 22 16  1  0
  4 24  1  6
  5 25  1  0
  5 26  1  0
  6 27  1  0
  6 28  1  0
 10 29  1  0
 10 30  1  0
 12 31  1  0
 13 32  1  0
 14 33  1  0
 17 34  1  0
 21 35  1  0
 22 36  1  0
M  CHG  3   3  -1  18  -1  22   1
M  END
>  <UniqueID>  (35) 
34

>  <SMILES>  (35) 
O=C([N-][C@@H]1CCS(=O)(=O)C1)c1cccc(-c2c[n-]c(=O)c[nH+]2)n1

>  <Energy>  (35) 
43.91552544429829

>  <Genealogy>  (35) 
O=C([N-]C1CCS(=O)(=O)C1)c1cccc(-c2c[n-]c(=O)c[nH+]2)n1 (protonated)
O=C([N-][C@@H]1CCS(=O)(=O)C1)c1cccc(-c2c[n-]c(=O)c[nH+]2)n1 (chirality)
O=C([N-][C@@H]1CCS(=O)(=O)C1)c1cccc(-c2c[n-]c(=O)c[nH+]2)n1 (3D coordinates assigned)
O=C([N-][C@@H]1CCS(=O)(=O)C1)c1cccc(-c2c[n-]c(=O)c[nH+]2)n1 (nonaromatic ring conformer: 43.91552544429829 kcal/mol)

>  <smiles>  (35) 
O=C(NC1CCS(=O)(=O)C1)c1cccc(-c2c[nH]c(=O)cn2)n1

>  <score_type>  (35) 
oracle

>  <origin>  (35) 
adg

>  <m_score__min__energy>  (35) 
-9

>  <m_primary>  (35) 
energy

$$$$
35:0
     RDKit          3D

 41 42  0  0  0  0  0  0  0  0999 V2000
   -5.5900   17.0780  -34.1160 C   0  0  0  0  0  0  0  0  0  0  0  0
   -6.0220   18.4290  -34.2360 O   0  0  0  0  0  0  0  0  0  0  0  0
   -6.8850   19.0700  -33.3330 C   0  0  0  0  0  0  0  0  0  0  0  0
   -7.8240   18.2920  -32.6460 C   0  0  0  0  0  0  0  0  0  0  0  0
   -8.7100   18.8830  -31.7430 C   0  0  0  0  0  0  0  0  0  0  0  0
   -8.6640   20.2600  -31.5140 C   0  0  0  0  0  0  0  0  0  0  0  0
   -7.7190   21.0550  -32.1820 C   0  0  0  0  0  0  0  0  0  0  0  0
   -7.7010   22.5480  -31.9710 C   0  0  0  0  0  0  0  0  0  0  0  0
   -6.3640   23.0880  -32.2540 N   0  0  0  0  0  0  0  0  0  0  0  0
   -6.1070   24.2920  -31.4520 C   0  0  0  0  0  0  0  0  0  0  0  0
   -4.7400   24.2270  -30.8460 C   0  0  0  0  0  0  0  0  0  0  0  0
   -4.0730   25.2850  -30.6840 O   0  0  0  0  0  0  0  0  0  0  0  0
   -4.1960   22.9800  -30.5190 O   0  0  0  0  0  0  0  0  0  0  0  0
   -2.8090   22.6770  -30.6440 C   0  0  0  0  0  0  0  0  0  0  0  0
   -2.5850   21.7230  -31.7860 C   0  0  0  0  0  0  0  0  0  0  0  0
   -3.6750   21.0430  -32.3540 C   0  0  0  0  0  0  0  0  0  0  0  0
   -3.4780   20.1720  -33.4310 C   0  0  0  0  0  0  0  0  0  0  0  0
   -2.1940   19.9740  -33.9460 C   0  0  0  0  0  0  0  0  0  0  0  0
   -1.1050   20.6470  -33.3850 C   0  0  0  0  0  0  0  0  0  0  0  0
   -1.2970   21.5200  -32.3100 C   0  0  0  0  0  0  0  0  0  0  0  0
   -6.8390   20.4590  -33.1000 C   0  0  0  0  0  0  0  0  0  0  0  0
   -5.5054   16.8133  -33.0517 H   0  0  0  0  0  0  0  0  0  0  0  0
   -6.3209   16.4148  -34.6018 H   0  0  0  0  0  0  0  0  0  0  0  0
   -4.6099   16.9619  -34.6018 H   0  0  0  0  0  0  0  0  0  0  0  0
   -7.8643   17.2064  -32.8188 H   0  0  0  0  0  0  0  0  0  0  0  0
   -9.4460   18.2626  -31.2107 H   0  0  0  0  0  0  0  0  0  0  0  0
   -9.3699   20.7228  -30.8086 H   0  0  0  0  0  0  0  0  0  0  0  0
   -8.4322   23.0184  -32.6449 H   0  0  0  0  0  0  0  0  0  0  0  0
   -7.9594   22.7641  -30.9238 H   0  0  0  0  0  0  0  0  0  0  0  0
   -5.6430   22.3620  -32.0250 H   0  0  0  0  0  0  0  0  0  0  0  0
   -6.2980   23.3310  -33.2720 H   0  0  0  0  0  0  0  0  0  0  0  0
   -6.1766   25.1801  -32.0973 H   0  0  0  0  0  0  0  0  0  0  0  0
   -6.8541   24.3534  -30.6469 H   0  0  0  0  0  0  0  0  0  0  0  0
   -2.2499   23.6056  -30.8316 H   0  0  0  0  0  0  0  0  0  0  0  0
   -2.4590   22.2089  -29.7121 H   0  0  0  0  0  0  0  0  0  0  0  0
   -4.6869   21.1958  -31.9506 H   0  0  0  0  0  0  0  0  0  0  0  0
   -4.3348   19.6424  -33.8730 H   0  0  0  0  0  0  0  0  0  0  0  0
   -2.0405   19.2887  -34.7926 H   0  0  0  0  0  0  0  0  0  0  0  0
   -0.0946   20.4894  -33.7902 H   0  0  0  0  0  0  0  0  0  0  0  0
   -0.4374   22.0495  -31.8732 H   0  0  0  0  0  0  0  0  0  0  0  0
   -6.1095   21.0801  -33.6404 H   0  0  0  0  0  0  0  0  0  0  0  0
  1  2  1  0
  2  3  1  0
  3  4  2  0
  4  5  1  0
  5  6  2  0
  6  7  1  0
  7  8  1  0
  8  9  1  0
  9 10  1  0
 10 11  1  0
 11 12  2  0
 11 13  1  0
 13 14  1  0
 14 15  1  0
 15 16  2  0
 16 17  1  0
 17 18  2  0
 18 19  1  0
 19 20  2  0
  7 21  2  0
 21  3  1  0
 20 15  1  0
  1 22  1  0
  1 23  1  0
  1 24  1  0
  4 25  1  0
  5 26  1  0
  6 27  1  0
  8 28  1  0
  8 29  1  0
  9 30  1  0
  9 31  1  0
 10 32  1  0
 10 33  1  0
 14 34  1  0
 14 35  1  0
 16 36  1  0
 17 37  1  0
 18 38  1  0
 19 39  1  0
 20 40  1  0
 21 41  1  0
M  CHG  1   9   1
M  END
>  <UniqueID>  (36) 
35

>  <SMILES>  (36) 
COc1cccc(C[NH2+]CC(=O)OCc2ccccc2)c1

>  <Energy>  (36) 
35.430676523975585

>  <Genealogy>  (36) 
COc1cccc(C[NH2+]CC(=O)OCc2ccccc2)c1 (protonated)
COc1cccc(C[NH2+]CC(=O)OCc2ccccc2)c1 (3D coordinates assigned)
COc1cccc(C[NH2+]CC(=O)OCc2ccccc2)c1 (optimized conformer: 35.430676523975585 kcal/mol)

>  <smiles>  (36) 
COc1cccc(CNCC(=O)OCc2ccccc2)c1

>  <score_type>  (36) 
oracle

>  <origin>  (36) 
adg

>  <m_score__min__energy>  (36) 
-7.7300000000000004

>  <m_primary>  (36) 
energy

$$$$
36:0
     RDKit          3D

 52 55  0  0  0  0  0  0  0  0999 V2000
   -5.5970   25.7050  -30.0920 C   0  0  0  0  0  0  0  0  0  0  0  0
   -4.9530   25.0770  -31.2460 N   0  0  0  0  0  0  0  0  0  0  0  0
   -4.4070   23.7470  -30.9250 C   0  0  0  0  0  0  0  0  0  0  0  0
   -5.2370   22.6050  -31.4930 C   0  0  0  0  0  0  0  0  0  0  0  0
   -6.5670   22.6560  -31.2710 C   0  0  0  0  0  0  0  0  0  0  0  0
   -7.4730   21.6030  -31.7480 C   0  0  0  0  0  0  0  0  0  0  0  0
   -8.8420   21.6200  -31.4480 C   0  0  0  0  0  0  0  0  0  0  0  0
   -9.6820   20.6320  -31.9750 C   0  0  0  0  0  0  0  0  0  0  0  0
   -9.1600   19.6390  -32.8100 C   0  0  0  0  0  0  0  0  0  0  0  0
   -7.7930   19.6270  -33.1130 C   0  0  0  0  0  0  0  0  0  0  0  0
   -6.9530   20.6060  -32.5720 C   0  0  0  0  0  0  0  0  0  0  0  0
   -5.5910   20.6120  -32.8650 O   0  0  0  0  0  0  0  0  0  0  0  0
   -4.6130   21.3030  -32.0660 C   0  0  1  0  0  0  0  0  0  0  0  0
   -3.3990   21.5320  -33.0150 C   0  0  0  0  0  0  0  0  0  0  0  0
   -1.9980   21.5760  -32.3680 C   0  0  0  0  0  0  0  0  0  0  0  0
   -1.8080   20.5240  -31.3440 N   0  0  1  0  0  0  0  0  0  0  0  0
   -0.4730   20.6360  -30.7070 C   0  0  0  0  0  0  0  0  0  0  0  0
   -0.5000   21.5210  -29.4830 C   0  0  0  0  0  0  0  0  0  0  0  0
   -0.7010   22.9050  -29.6160 C   0  0  0  0  0  0  0  0  0  0  0  0
   -0.7460   23.7230  -28.4840 C   0  0  0  0  0  0  0  0  0  0  0  0
   -0.5960   23.1660  -27.2100 C   0  0  0  0  0  0  0  0  0  0  0  0
   -0.3990   21.7890  -27.0690 C   0  0  0  0  0  0  0  0  0  0  0  0
   -0.3520   20.9680  -28.1990 C   0  0  0  0  0  0  0  0  0  0  0  0
   -2.8580   20.6230  -30.3110 C   0  0  0  0  0  0  0  0  0  0  0  0
   -4.2390   20.3460  -30.9090 C   0  0  0  0  0  0  0  0  0  0  0  0
   -5.1728   25.2913  -29.1652 H   0  0  0  0  0  0  0  0  0  0  0  0
   -5.4241   26.7909  -30.1216 H   0  0  0  0  0  0  0  0  0  0  0  0
   -6.6782   25.5049  -30.1216 H   0  0  0  0  0  0  0  0  0  0  0  0
   -4.1960   25.7100  -31.5920 H   0  0  0  0  0  0  0  0  0  0  0  0
   -3.3894   23.6781  -31.3370 H   0  0  0  0  0  0  0  0  0  0  0  0
   -4.4172   23.6452  -29.8298 H   0  0  0  0  0  0  0  0  0  0  0  0
   -6.9843   23.5100  -30.7174 H   0  0  0  0  0  0  0  0  0  0  0  0
   -9.2551   22.4074  -30.8004 H   0  0  0  0  0  0  0  0  0  0  0  0
  -10.7548   20.6367  -31.7319 H   0  0  0  0  0  0  0  0  0  0  0  0
   -9.8231   18.8676  -33.2286 H   0  0  0  0  0  0  0  0  0  0  0  0
   -7.3811   18.8504  -33.7742 H   0  0  0  0  0  0  0  0  0  0  0  0
   -3.3974   20.7166  -33.7533 H   0  0  0  0  0  0  0  0  0  0  0  0
   -3.5508   22.5382  -33.4329 H   0  0  0  0  0  0  0  0  0  0  0  0
   -1.2422   21.4408  -33.1558 H   0  0  0  0  0  0  0  0  0  0  0  0
   -1.8940   22.5498  -31.8670 H   0  0  0  0  0  0  0  0  0  0  0  0
   -1.8800   19.5850  -31.8040 H   0  0  0  0  0  0  0  0  0  0  0  0
   -0.1357   19.6316  -30.4112 H   0  0  0  0  0  0  0  0  0  0  0  0
    0.2139   21.0886  -31.4373 H   0  0  0  0  0  0  0  0  0  0  0  0
   -0.8235   23.3468  -30.6159 H   0  0  0  0  0  0  0  0  0  0  0  0
   -0.8996   24.8065  -28.5951 H   0  0  0  0  0  0  0  0  0  0  0  0
   -0.6330   23.8108  -26.3195 H   0  0  0  0  0  0  0  0  0  0  0  0
   -0.2808   21.3511  -26.0669 H   0  0  0  0  0  0  0  0  0  0  0  0
   -0.1986   19.8849  -28.0833 H   0  0  0  0  0  0  0  0  0  0  0  0
   -2.6544   19.8877  -29.5187 H   0  0  0  0  0  0  0  0  0  0  0  0
   -2.8512   21.6429  -29.8990 H   0  0  0  0  0  0  0  0  0  0  0  0
   -4.2524   19.3148  -31.2918 H   0  0  0  0  0  0  0  0  0  0  0  0
   -4.9763   20.5028  -30.1078 H   0  0  0  0  0  0  0  0  0  0  0  0
  1  2  1  0
  2  3  1  0
  3  4  1  0
  4  5  2  0
  5  6  1  0
  6  7  2  0
  7  8  1  0
  8  9  2  0
  9 10  1  0
 10 11  2  0
 11 12  1  0
 13 12  1  6
 13 14  1  0
 14 15  1  0
 15 16  1  0
 16 17  1  0
 17 18  1  0
 18 19  2  0
 19 20  1  0
 20 21  2  0
 21 22  1  0
 22 23  2  0
 16 24  1  0
 24 25  1  0
 13  4  1  0
 23 18  1  0
 11  6  1  0
 25 13  1  0
  1 26  1  0
  1 27  1  0
  1 28  1  0
  2 29  1  0
  3 30  1  0
  3 31  1  0
  5 32  1  0
  7 33  1  0
  8 34  1  0
  9 35  1  0
 10 36  1  0
 14 37  1  0
 14 38  1  0
 15 39  1  0
 15 40  1  0
 16 41  1  6
 17 42  1  0
 17 43  1  0
 19 44  1  0
 20 45  1  0
 21 46  1  0
 22 47  1  0
 23 48  1  0
 24 49  1  0
 24 50  1  0
 25 51  1  0
 25 52  1  0
M  CHG  1  16   1
M  END
>  <UniqueID>  (37) 
36

>  <SMILES>  (37) 
CNCC1=Cc2ccccc2OC12CC[NH+](Cc1ccccc1)CC2

>  <Energy>  (37) 
66.24420630418619

>  <Genealogy>  (37) 
CNCC1=Cc2ccccc2OC12CC[NH+](Cc1ccccc1)CC2 (protonated)
CNCC1=Cc2ccccc2OC12CC[NH+](Cc1ccccc1)CC2 (3D coordinates assigned)
CNCC1=Cc2ccccc2OC12CC[NH+](Cc1ccccc1)CC2 (nonaromatic ring conformer: 66.24420630418619 kcal/mol)

>  <smiles>  (37) 
CNCC1=Cc2ccccc2OC12CCN(Cc1ccccc1)CC2

>  <score_type>  (37) 
oracle

>  <origin>  (37) 
adg

>  <m_score__min__energy>  (37) 
-8.0999999999999996

>  <m_primary>  (37) 
energy

$$$$
37:0
     RDKit          3D

 31 32  0  0  0  0  0  0  0  0999 V2000
   -2.3280   21.5630  -32.6210 C   0  0  0  0  0  0  0  0  0  0  0  0
   -2.6430   22.4510  -31.5530 O   0  0  0  0  0  0  0  0  0  0  0  0
   -2.6420   22.1000  -30.1920 C   0  0  0  0  0  0  0  0  0  0  0  0
   -2.5870   20.7510  -29.7880 C   0  0  0  0  0  0  0  0  0  0  0  0
   -2.5880   20.4140  -28.4340 C   0  0  0  0  0  0  0  0  0  0  0  0
   -2.6430   21.4130  -27.4660 C   0  0  0  0  0  0  0  0  0  0  0  0
   -2.6970   22.7540  -27.8460 C   0  0  0  0  0  0  0  0  0  0  0  0
   -2.6980   23.1200  -29.2060 C   0  0  0  0  0  0  0  0  0  0  0  0
   -2.7560   24.5630  -29.5700 C   0  0  0  0  0  0  0  0  0  0  0  0
   -1.9500   25.3880  -29.0600 O   0  0  0  0  0  0  0  0  0  0  0  0
   -3.7330   25.0270  -30.5070 N   0  0  0  0  0  0  0  0  0  0  0  0
   -5.1540   25.1090  -30.1960 C   0  0  0  0  0  0  0  0  0  0  0  0
   -5.8810   24.0160  -30.9140 C   0  0  0  0  0  0  0  0  0  0  0  0
   -7.2400   23.9730  -30.8750 N   0  0  0  0  0  0  0  0  0  0  0  0
   -7.9310   23.0120  -31.5410 C   0  0  0  0  0  0  0  0  0  0  0  0
   -7.2440   22.0540  -32.2860 C   0  0  0  0  0  0  0  0  0  0  0  0
   -5.8520   22.1170  -32.3270 C   0  0  0  0  0  0  0  0  0  0  0  0
   -5.1940   23.0950  -31.6480 N   0  0  0  0  0  0  0  0  0  0  0  0
   -1.9869   20.6014  -32.2098 H   0  0  0  0  0  0  0  0  0  0  0  0
   -3.2234   21.4006  -33.2390 H   0  0  0  0  0  0  0  0  0  0  0  0
   -1.5304   22.0011  -33.2390 H   0  0  0  0  0  0  0  0  0  0  0  0
   -2.5429   19.9563  -30.5472 H   0  0  0  0  0  0  0  0  0  0  0  0
   -2.5453   19.3574  -28.1310 H   0  0  0  0  0  0  0  0  0  0  0  0
   -2.6439   21.1443  -26.3993 H   0  0  0  0  0  0  0  0  0  0  0  0
   -2.7394   23.5359  -27.0734 H   0  0  0  0  0  0  0  0  0  0  0  0
   -5.2999   24.9967  -29.1115 H   0  0  0  0  0  0  0  0  0  0  0  0
   -5.5459   26.0853  -30.5173 H   0  0  0  0  0  0  0  0  0  0  0  0
   -9.0297   22.9894  -31.4929 H   0  0  0  0  0  0  0  0  0  0  0  0
   -7.7879   21.2669  -32.8287 H   0  0  0  0  0  0  0  0  0  0  0  0
   -5.2852   21.3753  -32.9089 H   0  0  0  0  0  0  0  0  0  0  0  0
   -4.1510   23.1320  -31.6960 H   0  0  0  0  0  0  0  0  0  0  0  0
  1  2  1  0
  2  3  1  0
  3  4  2  0
  4  5  1  0
  5  6  2  0
  6  7  1  0
  7  8  2  0
  8  9  1  0
  9 10  2  0
  9 11  1  0
 11 12  1  0
 12 13  1  0
 13 14  2  0
 14 15  1  0
 15 16  2  0
 16 17  1  0
 17 18  2  0
  8  3  1  0
 18 13  1  0
  1 19  1  0
  1 20  1  0
  1 21  1  0
  4 22  1  0
  5 23  1  0
  6 24  1  0
  7 25  1  0
 12 26  1  0
 12 27  1  0
 15 28  1  0
 16 29  1  0
 17 30  1  0
 18 31  1  0
M  CHG  2  11  -1  18   1
M  END
>  <UniqueID>  (38) 
37

>  <SMILES>  (38) 
COc1ccccc1C(=O)[N-]Cc1nccc[nH+]1

>  <Energy>  (38) 
30.765040359615735

>  <Genealogy>  (38) 
COc1ccccc1C(=O)[N-]Cc1nccc[nH+]1 (protonated)
COc1ccccc1C(=O)[N-]Cc1nccc[nH+]1 (3D coordinates assigned)
COc1ccccc1C(=O)[N-]Cc1nccc[nH+]1 (optimized conformer: 30.765040359615735 kcal/mol)

>  <smiles>  (38) 
COc1ccccc1C(=O)NCc1ncccn1

>  <score_type>  (38) 
oracle

>  <origin>  (38) 
adg

>  <m_score__min__energy>  (38) 
-6.9900000000000002

>  <m_primary>  (38) 
energy

$$$$
38:0
     RDKit          3D

 47 50  0  0  0  0  0  0  0  0999 V2000
   -1.2490   26.0140  -28.5710 C   0  0  0  0  0  0  0  0  0  0  0  0
   -2.1500   25.2170  -29.3310 O   0  0  0  0  0  0  0  0  0  0  0  0
   -2.3080   23.8290  -29.1840 C   0  0  0  0  0  0  0  0  0  0  0  0
   -1.3720   23.0480  -28.4760 C   0  0  0  0  0  0  0  0  0  0  0  0
   -1.5680   21.6730  -28.3270 C   0  0  0  0  0  0  0  0  0  0  0  0
   -2.6920   21.0620  -28.8800 C   0  0  0  0  0  0  0  0  0  0  0  0
   -3.6240   21.8230  -29.5870 C   0  0  0  0  0  0  0  0  0  0  0  0
   -3.4410   23.2070  -29.7480 C   0  0  0  0  0  0  0  0  0  0  0  0
   -4.4010   23.9700  -30.5020 N   0  0  0  0  0  0  0  0  0  0  0  0
   -4.9400   25.2270  -29.9770 C   0  0  0  0  0  0  0  0  0  0  0  0
   -6.4660   25.1230  -29.7830 C   0  0  0  0  0  0  0  0  0  0  0  0
   -7.1280   24.1470  -30.6900 N   0  0  0  0  0  0  0  0  0  0  0  0
   -7.4200   22.8680  -30.0060 C   0  0  0  0  0  0  0  0  0  0  0  0
   -7.7110   21.7810  -30.9920 C   0  0  0  0  0  0  0  0  0  0  0  0
   -6.7880   20.9130  -31.4500 N   0  0  0  0  0  0  0  0  0  0  0  0
   -7.5330   20.1450  -32.2750 C   0  0  0  0  0  0  0  0  0  0  0  0
   -6.9930   19.0090  -33.0510 C   0  0  0  0  0  0  0  0  0  0  0  0
   -6.1350   19.2260  -34.1420 C   0  0  0  0  0  0  0  0  0  0  0  0
   -5.6340   18.1430  -34.8650 C   0  0  0  0  0  0  0  0  0  0  0  0
   -5.9930   16.8470  -34.4940 C   0  0  0  0  0  0  0  0  0  0  0  0
   -6.8240   16.6480  -33.4380 N   0  0  0  0  0  0  0  0  0  0  0  0
   -7.3270   17.6860  -32.7160 C   0  0  0  0  0  0  0  0  0  0  0  0
   -8.8250   20.5300  -32.3070 N   0  0  0  0  0  0  0  0  0  0  0  0
   -8.8940   21.5430  -31.5010 O   0  0  0  0  0  0  0  0  0  0  0  0
   -6.3910   23.9760  -31.9640 C   0  0  0  0  0  0  0  0  0  0  0  0
   -4.9720   23.4270  -31.7390 C   0  0  0  0  0  0  0  0  0  0  0  0
   -1.4317   25.8524  -27.4984 H   0  0  0  0  0  0  0  0  0  0  0  0
   -0.2143   25.7302  -28.8135 H   0  0  0  0  0  0  0  0  0  0  0  0
   -1.4044   27.0756  -28.8135 H   0  0  0  0  0  0  0  0  0  0  0  0
   -0.4822   23.5241  -28.0384 H   0  0  0  0  0  0  0  0  0  0  0  0
   -0.8335   21.0710  -27.7719 H   0  0  0  0  0  0  0  0  0  0  0  0
   -2.8446   19.9794  -28.7591 H   0  0  0  0  0  0  0  0  0  0  0  0
   -4.5091   21.3355  -30.0218 H   0  0  0  0  0  0  0  0  0  0  0  0
   -4.4665   25.4472  -29.0088 H   0  0  0  0  0  0  0  0  0  0  0  0
   -4.7276   26.0321  -30.6958 H   0  0  0  0  0  0  0  0  0  0  0  0
   -6.6623   24.8179  -28.7446 H   0  0  0  0  0  0  0  0  0  0  0  0
   -6.8844   26.1120  -30.0212 H   0  0  0  0  0  0  0  0  0  0  0  0
   -6.5492   22.5785  -29.3995 H   0  0  0  0  0  0  0  0  0  0  0  0
   -8.3066   23.0077  -29.3700 H   0  0  0  0  0  0  0  0  0  0  0  0
   -5.8577   20.2517  -34.4268 H   0  0  0  0  0  0  0  0  0  0  0  0
   -4.9620   18.3095  -35.7198 H   0  0  0  0  0  0  0  0  0  0  0  0
   -5.6031   15.9860  -35.0567 H   0  0  0  0  0  0  0  0  0  0  0  0
   -7.9977   17.4885  -31.8668 H   0  0  0  0  0  0  0  0  0  0  0  0
   -6.9460   23.2743  -32.6040 H   0  0  0  0  0  0  0  0  0  0  0  0
   -6.3019   24.9635  -32.4404 H   0  0  0  0  0  0  0  0  0  0  0  0
   -5.0155   22.3302  -31.6666 H   0  0  0  0  0  0  0  0  0  0  0  0
   -4.3365   23.7264  -32.5854 H   0  0  0  0  0  0  0  0  0  0  0  0
  1  2  1  0
  2  3  1  0
  3  4  2  0
  4  5  1  0
  5  6  2  0
  6  7  1  0
  7  8  2  0
  8  9  1  0
  9 10  1  0
 10 11  1  0
 11 12  1  0
 12 13  1  0
 13 14  1  0
 14 15  2  0
 15 16  1  0
 16 17  1  0
 17 18  2  0
 18 19  1  0
 19 20  2  0
 20 21  1  0
 21 22  2  0
 16 23  2  0
 23 24  1  0
 12 25  1  0
 25 26  1  0
  8  3  1  0
 26  9  1  0
 24 14  1  0
 22 17  1  0
  1 27  1  0
  1 28  1  0
  1 29  1  0
  4 30  1  0
  5 31  1  0
  6 32  1  0
  7 33  1  0
 10 34  1  0
 10 35  1  0
 11 36  1  0
 11 37  1  0
 13 38  1  0
 13 39  1  0
 18 40  1  0
 19 41  1  0
 20 42  1  0
 22 43  1  0
 25 44  1  0
 25 45  1  0
 26 46  1  0
 26 47  1  0
M  END
>  <UniqueID>  (39) 
38

>  <SMILES>  (39) 
COc1ccccc1N1CCN(Cc2nc(-c3cccnc3)no2)CC1

>  <Energy>  (39) 
97.15836924695681

>  <Genealogy>  (39) 
COc1ccccc1N1CCN(Cc2nc(-c3cccnc3)no2)CC1 (3D coordinates assigned)
COc1ccccc1N1CCN(Cc2nc(-c3cccnc3)no2)CC1 (nonaromatic ring conformer: 97.15836924695681 kcal/mol)

>  <smiles>  (39) 
COc1ccccc1N1CCN(Cc2nc(-c3cccnc3)no2)CC1

>  <score_type>  (39) 
oracle

>  <origin>  (39) 
adg

>  <m_score__min__energy>  (39) 
-8.4100000000000001

>  <m_primary>  (39) 
energy

$$$$
39:0
     RDKit          3D

 51 53  0  0  0  0  0  0  0  0999 V2000
   -6.5050   24.7670  -30.4110 C   0  0  0  0  0  0  0  0  0  0  0  0
   -5.7530   24.3520  -31.5480 O   0  0  0  0  0  0  0  0  0  0  0  0
   -5.7100   23.0390  -32.0450 C   0  0  0  0  0  0  0  0  0  0  0  0
   -4.5180   22.4470  -32.4820 C   0  0  0  0  0  0  0  0  0  0  0  0
   -4.4950   21.1270  -32.9800 C   0  0  0  0  0  0  0  0  0  0  0  0
   -3.2820   20.5500  -33.4290 C   0  0  0  0  0  0  0  0  0  0  0  0
   -2.0600   21.3110  -33.4500 N   0  0  0  0  0  0  0  0  0  0  0  0
   -1.0680   21.2690  -32.3730 C   0  0  0  0  0  0  0  0  0  0  0  0
   -1.6350   20.6000  -31.1090 C   0  0  0  0  0  0  0  0  0  0  0  0
   -1.8030   21.5390  -29.9020 C   0  0  0  0  0  0  0  0  0  0  0  0
   -1.9520   23.0160  -30.3050 C   0  0  0  0  0  0  0  0  0  0  0  0
   -3.2000   23.6510  -29.6830 C   0  0  0  0  0  0  0  0  0  0  0  0
   -3.4900   24.9400  -30.3100 N   0  0  0  0  0  0  0  0  0  0  0  0
   -3.2680   19.2250  -33.8690 C   0  0  0  0  0  0  0  0  0  0  0  0
   -4.4240   18.4450  -33.8590 C   0  0  0  0  0  0  0  0  0  0  0  0
   -4.3590   17.1450  -34.2740 N   0  0  0  0  0  0  0  0  0  0  0  0
   -5.4470   16.3350  -34.2720 C   0  0  0  0  0  0  0  0  0  0  0  0
   -6.6760   16.8200  -33.8390 C   0  0  0  0  0  0  0  0  0  0  0  0
   -6.7820   18.1410  -33.4070 C   0  0  0  0  0  0  0  0  0  0  0  0
   -5.6540   18.9970  -33.4140 C   0  0  0  0  0  0  0  0  0  0  0  0
   -5.6960   20.3600  -32.9880 C   0  0  0  0  0  0  0  0  0  0  0  0
   -6.8920   20.9860  -32.5590 C   0  0  0  0  0  0  0  0  0  0  0  0
   -6.9010   22.3140  -32.0970 C   0  0  0  0  0  0  0  0  0  0  0  0
   -8.0790   22.9510  -31.6730 O   0  0  0  0  0  0  0  0  0  0  0  0
   -9.3780   22.3660  -31.6970 C   0  0  0  0  0  0  0  0  0  0  0  0
   -5.9740   24.4740  -29.4933 H   0  0  0  0  0  0  0  0  0  0  0  0
   -6.6268   25.8601  -30.4310 H   0  0  0  0  0  0  0  0  0  0  0  0
   -7.4947   24.2874  -30.4310 H   0  0  0  0  0  0  0  0  0  0  0  0
   -3.5816   23.0224  -32.4360 H   0  0  0  0  0  0  0  0  0  0  0  0
   -1.8910   21.9780  -34.2380 H   0  0  0  0  0  0  0  0  0  0  0  0
   -0.1918   20.6994  -32.7163 H   0  0  0  0  0  0  0  0  0  0  0  0
   -0.7892   22.3027  -32.1205 H   0  0  0  0  0  0  0  0  0  0  0  0
   -2.6216   20.1813  -31.3567 H   0  0  0  0  0  0  0  0  0  0  0  0
   -0.9026   19.8365  -30.8077 H   0  0  0  0  0  0  0  0  0  0  0  0
   -2.7013   21.2356  -29.3443 H   0  0  0  0  0  0  0  0  0  0  0  0
   -0.8922   21.4552  -29.2910 H   0  0  0  0  0  0  0  0  0  0  0  0
   -1.0639   23.5693  -29.9656 H   0  0  0  0  0  0  0  0  0  0  0  0
   -2.0525   23.0640  -31.3993 H   0  0  0  0  0  0  0  0  0  0  0  0
   -4.0580   22.9779  -29.8273 H   0  0  0  0  0  0  0  0  0  0  0  0
   -3.0181   23.8120  -28.6102 H   0  0  0  0  0  0  0  0  0  0  0  0
   -4.4220   25.2570  -29.9680 H   0  0  0  0  0  0  0  0  0  0  0  0
   -3.5920   24.7860  -31.3400 H   0  0  0  0  0  0  0  0  0  0  0  0
   -2.3259   18.7874  -34.2309 H   0  0  0  0  0  0  0  0  0  0  0  0
   -3.4520   16.7440  -34.6070 H   0  0  0  0  0  0  0  0  0  0  0  0
   -5.3569   15.2932  -34.6133 H   0  0  0  0  0  0  0  0  0  0  0  0
   -7.5597   16.1649  -33.8374 H   0  0  0  0  0  0  0  0  0  0  0  0
   -7.7524   18.5227  -33.0568 H   0  0  0  0  0  0  0  0  0  0  0  0
   -7.8350   20.4205  -32.5879 H   0  0  0  0  0  0  0  0  0  0  0  0
   -9.7282   22.2083  -30.6662 H   0  0  0  0  0  0  0  0  0  0  0  0
  -10.0731   23.0380  -32.2216 H   0  0  0  0  0  0  0  0  0  0  0  0
   -9.3355   21.4001  -32.2216 H   0  0  0  0  0  0  0  0  0  0  0  0
  1  2  1  0
  2  3  1  0
  3  4  2  0
  4  5  1  0
  5  6  2  0
  6  7  1  0
  7  8  1  0
  8  9  1  0
  9 10  1  0
 10 11  1  0
 11 12  1  0
 12 13  1  0
  6 14  1  0
 14 15  2  0
 15 16  1  0
 16 17  2  0
 17 18  1  0
 18 19  2  0
 19 20  1  0
 20 21  2  0
 21 22  1  0
 22 23  2  0
 23 24  1  0
 24 25  1  0
 23  3  1  0
 21  5  1  0
 20 15  1  0
  1 26  1  0
  1 27  1  0
  1 28  1  0
  4 29  1  0
  7 30  1  0
  8 31  1  0
  8 32  1  0
  9 33  1  0
  9 34  1  0
 10 35  1  0
 10 36  1  0
 11 37  1  0
 11 38  1  0
 12 39  1  0
 12 40  1  0
 13 41  1  0
 13 42  1  0
 14 43  1  0
 16 44  1  0
 17 45  1  0
 18 46  1  0
 19 47  1  0
 22 48  1  0
 25 49  1  0
 25 50  1  0
 25 51  1  0
M  CHG  1  16   1
M  END
>  <UniqueID>  (40) 
39

>  <SMILES>  (40) 
COc1cc2c(NCCCCCN)cc3[nH+]cccc3c2cc1OC

>  <Energy>  (40) 
57.952383566085906

>  <Genealogy>  (40) 
COc1cc2c(NCCCCCN)cc3[nH+]cccc3c2cc1OC (protonated)
COc1cc2c(NCCCCCN)cc3[nH+]cccc3c2cc1OC (3D coordinates assigned)
COc1cc2c(NCCCCCN)cc3[nH+]cccc3c2cc1OC (optimized conformer: 57.952383566085906 kcal/mol)

>  <smiles>  (40) 
COc1cc2c(NCCCCCN)cc3ncccc3c2cc1OC

>  <score_type>  (40) 
oracle

>  <origin>  (40) 
adg

>  <m_score__min__energy>  (40) 
-7.71

>  <m_primary>  (40) 
energy

$$$$
40:0
     RDKit          3D

 27 29  0  0  0  0  0  0  0  0999 V2000
   -5.7840   18.2160  -34.4820 C   0  0  0  0  0  0  0  0  0  0  0  0
   -6.0820   19.3820  -33.5860 C   0  0  0  0  0  0  0  0  0  0  0  0
   -7.3750   19.5720  -33.0790 C   0  0  0  0  0  0  0  0  0  0  0  0
   -7.6440   20.6390  -32.2150 C   0  0  0  0  0  0  0  0  0  0  0  0
   -6.6180   21.5180  -31.8400 C   0  0  0  0  0  0  0  0  0  0  0  0
   -6.9460   22.8830  -30.7780 S   0  0  0  0  0  0  0  0  0  0  0  0
   -7.4380   22.3650  -29.4570 O   0  0  0  0  0  0  0  0  0  0  0  0
   -7.9920   23.7820  -31.3740 O   0  0  0  0  0  0  0  0  0  0  0  0
   -5.4700   23.7990  -30.5420 C   0  0  0  0  0  0  0  0  0  0  0  0
   -5.0660   24.8450  -31.3120 N   0  0  0  0  0  0  0  0  0  0  0  0
   -3.9040   25.2890  -30.8190 N   0  0  0  0  0  0  0  0  0  0  0  0
   -3.6590   24.4880  -29.7690 C   0  0  0  0  0  0  0  0  0  0  0  0
   -2.6430   24.4700  -28.8920 N   0  0  0  0  0  0  0  0  0  0  0  0
   -3.0140   23.4250  -28.0880 C   0  0  0  0  0  0  0  0  0  0  0  0
   -4.2260   22.8670  -28.5110 C   0  0  0  0  0  0  0  0  0  0  0  0
   -4.5760   23.5860  -29.5760 N   0  0  0  0  0  0  0  0  0  0  0  0
   -5.3220   21.3190  -32.3330 C   0  0  0  0  0  0  0  0  0  0  0  0
   -5.0520   20.2530  -33.1960 C   0  0  0  0  0  0  0  0  0  0  0  0
   -5.5578   17.3310  -33.8691 H   0  0  0  0  0  0  0  0  0  0  0  0
   -6.6580   18.0087  -35.1169 H   0  0  0  0  0  0  0  0  0  0  0  0
   -4.9177   18.4535  -35.1169 H   0  0  0  0  0  0  0  0  0  0  0  0
   -8.1814   18.8793  -33.3616 H   0  0  0  0  0  0  0  0  0  0  0  0
   -8.6631   20.7887  -31.8289 H   0  0  0  0  0  0  0  0  0  0  0  0
   -2.4349   23.0705  -27.2226 H   0  0  0  0  0  0  0  0  0  0  0  0
   -4.7691   22.0218  -28.0630 H   0  0  0  0  0  0  0  0  0  0  0  0
   -4.5133   22.0045  -32.0398 H   0  0  0  0  0  0  0  0  0  0  0  0
   -4.0297   20.0960  -33.5706 H   0  0  0  0  0  0  0  0  0  0  0  0
  1  2  1  0
  2  3  2  0
  3  4  1  0
  4  5  2  0
  5  6  1  0
  6  7  2  0
  6  8  2  0
  6  9  1  0
  9 10  2  0
 10 11  1  0
 11 12  1  0
 12 13  2  0
 13 14  1  0
 14 15  2  0
 15 16  1  0
  5 17  1  0
 17 18  2  0
 18  2  1  0
 16  9  1  0
 16 12  1  0
  1 19  1  0
  1 20  1  0
  1 21  1  0
  3 22  1  0
  4 23  1  0
 14 24  1  0
 15 25  1  0
 17 26  1  0
 18 27  1  0
M  CHG  1  11  -1
M  END
>  <UniqueID>  (41) 
40

>  <SMILES>  (41) 
Cc1ccc(S(=O)(=O)c2n[n-]c3nccn23)cc1

>  <Energy>  (41) 
124.76775247010178

>  <Genealogy>  (41) 
Cc1ccc(S(=O)(=O)c2n[n-]c3nccn23)cc1 (protonated)
Cc1ccc(S(=O)(=O)c2n[n-]c3nccn23)cc1 (3D coordinates assigned)
Cc1ccc(S(=O)(=O)c2n[n-]c3nccn23)cc1 (optimized conformer: 124.76775247010178 kcal/mol)

>  <smiles>  (41) 
Cc1ccc(S(=O)(=O)c2n[nH]c3nccn23)cc1

>  <score_type>  (41) 
oracle

>  <origin>  (41) 
adg

>  <m_score__min__energy>  (41) 
-8.7799999999999994

>  <m_primary>  (41) 
energy

$$$$
41:0
     RDKit          3D

 40 43  0  0  0  0  0  0  0  0999 V2000
   -6.0640   18.7880  -34.4960 C   0  0  0  0  0  0  0  0  0  0  0  0
   -6.5470   19.7880  -33.5490 N   0  0  0  0  0  0  0  0  0  0  0  0
   -7.8090   19.9070  -33.1490 N   0  0  0  0  0  0  0  0  0  0  0  0
   -7.9040   20.9240  -32.2630 C   0  0  0  0  0  0  0  0  0  0  0  0
   -6.6420   21.4600  -32.1050 C   0  0  0  0  0  0  0  0  0  0  0  0
   -6.1680   22.5070  -31.3210 C   0  0  0  0  0  0  0  0  0  0  0  0
   -4.7890   22.8160  -31.3900 C   0  0  0  0  0  0  0  0  0  0  0  0
   -4.2340   23.9160  -30.5670 C   0  0  0  0  0  0  0  0  0  0  0  0
   -4.5300   25.1090  -30.8450 O   0  0  0  0  0  0  0  0  0  0  0  0
   -3.3860   23.6470  -29.4380 N   0  0  0  0  0  0  0  0  0  0  0  0
   -2.0500   23.0740  -29.6840 C   0  0  0  0  0  0  0  0  0  0  0  0
   -1.2940   22.7400  -28.3850 C   0  0  0  0  0  0  0  0  0  0  0  0
   -1.5090   23.8070  -27.3450 C   0  0  0  0  0  0  0  0  0  0  0  0
   -0.4680   24.2250  -26.5030 C   0  0  0  0  0  0  0  0  0  0  0  0
   -0.7120   25.1840  -25.5140 C   0  0  0  0  0  0  0  0  0  0  0  0
   -1.9960   25.7150  -25.3530 C   0  0  0  0  0  0  0  0  0  0  0  0
   -3.0400   25.2900  -26.1790 C   0  0  0  0  0  0  0  0  0  0  0  0
   -2.7980   24.3380  -27.1810 C   0  0  0  0  0  0  0  0  0  0  0  0
   -3.8990   23.8390  -28.0720 C   0  0  0  0  0  0  0  0  0  0  0  0
   -3.9390   22.0430  -32.2290 C   0  0  0  0  0  0  0  0  0  0  0  0
   -4.4540   20.9900  -33.0070 C   0  0  0  0  0  0  0  0  0  0  0  0
   -5.8210   20.7300  -32.9190 C   0  0  0  0  0  0  0  0  0  0  0  0
   -5.6500   17.9308  -33.9448 H   0  0  0  0  0  0  0  0  0  0  0  0
   -6.8977   18.4491  -35.1285 H   0  0  0  0  0  0  0  0  0  0  0  0
   -5.2802   19.2304  -35.1285 H   0  0  0  0  0  0  0  0  0  0  0  0
   -8.5980   19.3020  -33.4720 H   0  0  0  0  0  0  0  0  0  0  0  0
   -8.8213   21.2629  -31.7592 H   0  0  0  0  0  0  0  0  0  0  0  0
   -6.8446   23.0771  -30.6675 H   0  0  0  0  0  0  0  0  0  0  0  0
   -2.1665   22.1504  -30.2699 H   0  0  0  0  0  0  0  0  0  0  0  0
   -1.4607   23.8294  -30.2245 H   0  0  0  0  0  0  0  0  0  0  0  0
   -1.6581   21.7784  -27.9942 H   0  0  0  0  0  0  0  0  0  0  0  0
   -0.2189   22.6826  -28.6106 H   0  0  0  0  0  0  0  0  0  0  0  0
    0.5394   23.7991  -26.6202 H   0  0  0  0  0  0  0  0  0  0  0  0
    0.1073   25.5210  -24.8619 H   0  0  0  0  0  0  0  0  0  0  0  0
   -2.1844   26.4689  -24.5744 H   0  0  0  0  0  0  0  0  0  0  0  0
   -4.0511   25.7016  -26.0437 H   0  0  0  0  0  0  0  0  0  0  0  0
   -4.2758   22.8806  -27.6853 H   0  0  0  0  0  0  0  0  0  0  0  0
   -4.7142   24.5773  -28.0905 H   0  0  0  0  0  0  0  0  0  0  0  0
   -2.8639   22.2719  -32.2700 H   0  0  0  0  0  0  0  0  0  0  0  0
   -3.8015   20.3932  -33.6613 H   0  0  0  0  0  0  0  0  0  0  0  0
  1  2  1  0
  2  3  1  0
  3  4  2  0
  4  5  1  0
  5  6  2  0
  6  7  1  0
  7  8  1  0
  8  9  2  0
  8 10  1  0
 10 11  1  0
 11 12  1  0
 12 13  1  0
 13 14  2  0
 14 15  1  0
 15 16  2  0
 16 17  1  0
 17 18  2  0
 18 19  1  0
  7 20  2  0
 20 21  1  0
 21 22  2  0
 22  2  1  0
 22  5  1  0
 19 10  1  0
 18 13  1  0
  1 23  1  0
  1 24  1  0
  1 25  1  0
  3 26  1  0
  4 27  1  0
  6 28  1  0
 11 29  1  0
 11 30  1  0
 12 31  1  0
 12 32  1  0
 14 33  1  0
 15 34  1  0
 16 35  1  0
 17 36  1  0
 19 37  1  0
 19 38  1  0
 20 39  1  0
 21 40  1  0
M  CHG  1   3   1
M  END
>  <UniqueID>  (42) 
41

>  <SMILES>  (42) 
Cn1[nH+]cc2cc(C(=O)N3CCc4ccccc4C3)ccc21

>  <Energy>  (42) 
89.79496124216949

>  <Genealogy>  (42) 
Cn1[nH+]cc2cc(C(=O)N3CCc4ccccc4C3)ccc21 (protonated)
Cn1[nH+]cc2cc(C(=O)N3CCc4ccccc4C3)ccc21 (3D coordinates assigned)
Cn1[nH+]cc2cc(C(=O)N3CCc4ccccc4C3)ccc21 (nonaromatic ring conformer: 89.79496124216949 kcal/mol)

>  <smiles>  (42) 
Cn1ncc2cc(C(=O)N3CCc4ccccc4C3)ccc21

>  <score_type>  (42) 
oracle

>  <origin>  (42) 
adg

>  <m_score__min__energy>  (42) 
-8.6199999999999992

>  <m_primary>  (42) 
energy

$$$$
42:0
     RDKit          3D

 36 38  0  0  0  0  0  0  0  0999 V2000
   -7.3350   23.6580  -31.5530 C   0  0  0  0  0  0  0  0  0  0  0  0
   -5.9960   23.0110  -31.7050 C   0  0  0  0  0  0  0  0  0  0  0  0
   -5.7950   21.9150  -32.4750 N   0  0  0  0  0  0  0  0  0  0  0  0
   -4.4820   21.6510  -32.3150 C   0  0  0  0  0  0  0  0  0  0  0  0
   -3.7880   20.6040  -32.9230 C   0  0  0  0  0  0  0  0  0  0  0  0
   -4.4760   19.7210  -33.7710 O   0  0  0  0  0  0  0  0  0  0  0  0
   -5.0910   18.5000  -33.3580 C   0  0  0  0  0  0  0  0  0  0  0  0
   -6.4970   18.7450  -32.8720 C   0  0  0  0  0  0  0  0  0  0  0  0
   -7.2720   19.7560  -33.4650 C   0  0  0  0  0  0  0  0  0  0  0  0
   -8.5730   20.0050  -33.0160 C   0  0  0  0  0  0  0  0  0  0  0  0
   -9.1060   19.2550  -31.9650 C   0  0  0  0  0  0  0  0  0  0  0  0
   -8.3370   18.2580  -31.3580 C   0  0  0  0  0  0  0  0  0  0  0  0
   -7.0350   18.0040  -31.8020 C   0  0  0  0  0  0  0  0  0  0  0  0
   -6.3060   17.0380  -31.1880 F   0  0  0  0  0  0  0  0  0  0  0  0
   -2.4070   20.4950  -32.6450 C   0  0  0  0  0  0  0  0  0  0  0  0
   -1.7770   21.4230  -31.7970 C   0  0  0  0  0  0  0  0  0  0  0  0
   -2.5280   22.4550  -31.2200 C   0  0  0  0  0  0  0  0  0  0  0  0
   -3.8590   22.5190  -31.4960 N   0  0  0  0  0  0  0  0  0  0  0  0
   -4.8000   23.3990  -31.1040 C   0  0  0  0  0  0  0  0  0  0  0  0
   -4.5850   24.5310  -30.1760 C   0  0  0  0  0  0  0  0  0  0  0  0
   -5.1830   24.5430  -28.8800 N   0  0  0  0  0  0  0  0  0  0  0  0
   -3.8680   25.5030  -30.5340 O   0  0  0  0  0  0  0  0  0  0  0  0
   -7.5685   23.7708  -30.4840 H   0  0  0  0  0  0  0  0  0  0  0  0
   -7.3202   24.6483  -32.0316 H   0  0  0  0  0  0  0  0  0  0  0  0
   -8.1017   23.0310  -32.0316 H   0  0  0  0  0  0  0  0  0  0  0  0
   -5.1202   17.8049  -34.2101 H   0  0  0  0  0  0  0  0  0  0  0  0
   -4.5031   18.0711  -32.5332 H   0  0  0  0  0  0  0  0  0  0  0  0
   -6.8531   20.3550  -34.2870 H   0  0  0  0  0  0  0  0  0  0  0  0
   -9.1770   20.7921  -33.4909 H   0  0  0  0  0  0  0  0  0  0  0  0
  -10.1307   19.4489  -31.6151 H   0  0  0  0  0  0  0  0  0  0  0  0
   -8.7572   17.6709  -30.5281 H   0  0  0  0  0  0  0  0  0  0  0  0
   -1.8214   19.6795  -33.0945 H   0  0  0  0  0  0  0  0  0  0  0  0
   -0.7003   21.3390  -31.5879 H   0  0  0  0  0  0  0  0  0  0  0  0
   -2.0534   23.1958  -30.5597 H   0  0  0  0  0  0  0  0  0  0  0  0
   -5.8960   23.8340  -28.6070 H   0  0  0  0  0  0  0  0  0  0  0  0
   -4.9750   25.3230  -28.2160 H   0  0  0  0  0  0  0  0  0  0  0  0
  1  2  1  0
  2  3  1  0
  3  4  2  0
  4  5  1  0
  5  6  1  0
  6  7  1  0
  7  8  1  0
  8  9  2  0
  9 10  1  0
 10 11  2  0
 11 12  1  0
 12 13  2  0
 13 14  1  0
  5 15  2  0
 15 16  1  0
 16 17  2  0
 17 18  1  0
 18 19  1  0
 19 20  1  0
 20 21  1  0
 20 22  2  0
 19  2  2  0
 18  4  1  0
 13  8  1  0
  1 23  1  0
  1 24  1  0
  1 25  1  0
  7 26  1  0
  7 27  1  0
  9 28  1  0
 10 29  1  0
 11 30  1  0
 12 31  1  0
 15 32  1  0
 16 33  1  0
 17 34  1  0
 21 35  1  0
 21 36  1  0
M  END
>  <UniqueID>  (43) 
42

>  <SMILES>  (43) 
Cc1nc2c(OCc3ccccc3F)cccn2c1C(N)=O

>  <Energy>  (43) 
75.24153972265093

>  <Genealogy>  (43) 
Cc1nc2c(OCc3ccccc3F)cccn2c1C(N)=O (3D coordinates assigned)
Cc1nc2c(OCc3ccccc3F)cccn2c1C(N)=O (optimized conformer: 75.24153972265093 kcal/mol)

>  <smiles>  (43) 
Cc1nc2c(OCc3ccccc3F)cccn2c1C(N)=O

>  <score_type>  (43) 
oracle

>  <origin>  (43) 
adg

>  <m_score__min__energy>  (43) 
-8.2799999999999994

>  <m_primary>  (43) 
energy

$$$$
43:0
     RDKit          3D

 46 48  0  0  1  0  0  0  0  0999 V2000
   -4.1860   24.5360  -27.1040 C   0  0  0  0  0  0  0  0  0  0  0  0
   -3.3300   23.3250  -27.4910 C   0  0  0  0  0  0  0  0  0  0  0  0
   -1.8970   23.6700  -27.1550 C   0  0  0  0  0  0  0  0  0  0  0  0
   -0.9930   24.2280  -28.5520 S   0  0  0  0  0  0  0  0  0  0  0  0
    0.1890   25.0880  -28.1000 O   0  0  0  0  0  0  0  0  0  0  0  0
   -1.9460   25.1140  -29.3480 O   0  0  0  0  0  0  0  0  0  0  0  0
   -0.3910   22.9590  -29.5050 N   0  0  0  0  0  0  0  0  0  0  0  0
   -1.0520   22.2430  -30.5170 C   0  0  0  0  0  0  0  0  0  0  0  0
   -0.4860   21.4410  -31.4640 C   0  0  0  0  0  0  0  0  0  0  0  0
   -1.2660   20.8220  -32.4010 C   0  0  0  0  0  0  0  0  0  0  0  0
   -2.6530   20.9630  -32.4550 C   0  0  0  0  0  0  0  0  0  0  0  0
   -3.2250   21.7690  -31.5060 C   0  0  0  0  0  0  0  0  0  0  0  0
   -4.6980   21.9510  -31.5200 C   0  0  0  0  0  0  0  0  0  0  0  0
   -5.4000   20.9610  -32.0420 N   0  0  0  0  0  0  0  0  0  0  0  0
   -6.7730   20.9790  -32.1280 C   0  0  0  0  0  0  0  0  0  0  0  0
   -7.5750   20.0550  -32.6240 C   0  0  0  0  0  0  0  0  0  0  0  0
   -8.9550   20.2870  -32.6090 C   0  0  0  0  0  0  0  0  0  0  0  0
   -9.1060   21.9680  -31.8150 S   0  0  0  0  0  0  0  0  0  0  0  0
   -7.3220   22.1650  -31.5990 C   0  0  0  0  0  0  0  0  0  0  0  0
   -6.5720   23.1790  -31.0620 C   0  0  0  0  0  0  0  0  0  0  0  0
   -7.2200   24.2090  -30.6130 N   0  0  0  0  0  0  0  0  0  0  0  0
   -6.5640   25.1310  -29.7130 C   0  0  0  0  0  0  0  0  0  0  0  0
   -5.6140   26.0020  -30.5210 C   0  0  0  0  0  0  0  0  0  0  0  0
   -4.3080   25.5620  -30.3260 O   0  0  0  0  0  0  0  0  0  0  0  0
   -5.2320   23.0790  -31.0170 N   0  0  0  0  0  0  0  0  0  0  0  0
   -2.4420   22.3830  -30.5730 C   0  0  0  0  0  0  0  0  0  0  0  0
   -4.2396   24.6119  -26.0079 H   0  0  0  0  0  0  0  0  0  0  0  0
   -3.7329   25.4511  -27.5132 H   0  0  0  0  0  0  0  0  0  0  0  0
   -5.1998   24.4142  -27.5132 H   0  0  0  0  0  0  0  0  0  0  0  0
   -3.6488   22.4397  -26.9213 H   0  0  0  0  0  0  0  0  0  0  0  0
   -3.4374   23.0948  -28.5613 H   0  0  0  0  0  0  0  0  0  0  0  0
   -1.8948   24.4639  -26.3936 H   0  0  0  0  0  0  0  0  0  0  0  0
   -1.4109   22.7544  -26.7871 H   0  0  0  0  0  0  0  0  0  0  0  0
    0.6230   22.6450  -29.3300 H   0  0  0  0  0  0  0  0  0  0  0  0
    0.6037   21.2914  -31.4740 H   0  0  0  0  0  0  0  0  0  0  0  0
   -0.7759   20.1814  -33.1490 H   0  0  0  0  0  0  0  0  0  0  0  0
   -3.2565   20.4531  -33.2204 H   0  0  0  0  0  0  0  0  0  0  0  0
   -7.1670   19.1222  -33.0404 H   0  0  0  0  0  0  0  0  0  0  0  0
   -9.7593   19.6335  -32.9777 H   0  0  0  0  0  0  0  0  0  0  0  0
   -7.3154   25.7629  -29.2169 H   0  0  0  0  0  0  0  0  0  0  0  0
   -6.0049   24.5750  -28.9460 H   0  0  0  0  0  0  0  0  0  0  0  0
   -5.8697   25.9322  -31.5886 H   0  0  0  0  0  0  0  0  0  0  0  0
   -5.7034   27.0479  -30.1923 H   0  0  0  0  0  0  0  0  0  0  0  0
   -4.1180   25.3680  -29.3670 H   0  0  0  0  0  0  0  0  0  0  0  0
   -4.7160   23.8600  -30.6080 H   0  0  0  0  0  0  0  0  0  0  0  0
   -2.9308   23.0232  -29.8238 H   0  0  0  0  0  0  0  0  0  0  0  0
  1  2  1  0
  2  3  1  0
  3  4  1  0
  4  5  2  0
  4  6  2  0
  4  7  1  0
  7  8  1  0
  8  9  2  0
  9 10  1  0
 10 11  2  0
 11 12  1  0
 12 13  1  0
 13 14  2  0
 14 15  1  0
 15 16  1  0
 16 17  2  0
 17 18  1  0
 18 19  1  0
 19 20  1  0
 20 21  2  0
 21 22  1  0
 22 23  1  0
 23 24  1  0
 20 25  1  0
 12 26  2  0
 26  8  1  0
 25 13  1  0
 19 15  2  0
  1 27  1  0
  1 28  1  0
  1 29  1  0
  2 30  1  0
  2 31  1  0
  3 32  1  0
  3 33  1  0
  7 34  1  0
  9 35  1  0
 10 36  1  0
 11 37  1  0
 16 38  1  0
 17 39  1  0
 22 40  1  0
 22 41  1  0
 23 42  1  0
 23 43  1  0
 24 44  1  0
 25 45  1  0
 26 46  1  0
M  END
>  <smiles>  (44) 
CCCS(=O)(=O)Nc1cccc(-c2nc3ccsc3c(=NCCO)[nH]2)c1

>  <score_type>  (44) 
oracle

>  <origin>  (44) 
adg

>  <m_score__min__energy>  (44) 
-8.6400000000000006

>  <m_primary>  (44) 
energy

$$$$
44:0
     RDKit          3D

 40 42  0  0  0  0  0  0  0  0999 V2000
   -0.2399   26.2173  -27.5919 H   0  0  0  0  0  0  0  0  0  0  0  0
   -0.9280   25.4290  -27.9310 C   0  0  0  0  0  0  0  0  0  0  0  0
   -1.7880   25.6760  -28.9520 N   0  0  0  0  0  0  0  0  0  0  0  0
   -2.6610   24.7380  -29.4030 C   0  0  0  0  0  0  0  0  0  0  0  0
   -3.5080   25.0650  -30.4720 O   0  0  0  0  0  0  0  0  0  0  0  0
   -4.7760   24.5120  -30.7040 C   0  0  0  0  0  0  0  0  0  0  0  0
   -5.8820   25.0630  -30.0430 C   0  0  0  0  0  0  0  0  0  0  0  0
   -5.7439   25.9190  -29.3661 H   0  0  0  0  0  0  0  0  0  0  0  0
   -7.1600   24.5310  -30.2390 C   0  0  0  0  0  0  0  0  0  0  0  0
   -8.0251   24.9747  -29.7244 H   0  0  0  0  0  0  0  0  0  0  0  0
   -7.3390   23.4350  -31.0890 C   0  0  0  0  0  0  0  0  0  0  0  0
   -8.3457   23.0210  -31.2480 H   0  0  0  0  0  0  0  0  0  0  0  0
   -6.2400   22.8660  -31.7360 C   0  0  0  0  0  0  0  0  0  0  0  0
   -6.3810   21.9998  -32.3992 H   0  0  0  0  0  0  0  0  0  0  0  0
   -4.9600   23.3960  -31.5420 C   0  0  0  0  0  0  0  0  0  0  0  0
   -4.0951   22.9395  -32.0456 H   0  0  0  0  0  0  0  0  0  0  0  0
   -2.6620   23.4580  -28.8230 C   0  0  0  0  0  0  0  0  0  0  0  0
   -3.3440   22.6818  -29.2003 H   0  0  0  0  0  0  0  0  0  0  0  0
   -1.7860   23.1720  -27.7560 C   0  0  0  0  0  0  0  0  0  0  0  0
   -1.7570   22.0060  -27.1740 N   0  0  0  0  0  0  0  0  0  0  0  0
   -2.3220   20.7630  -27.6950 C   0  0  0  0  0  0  0  0  0  0  0  0
   -2.9812   20.9868  -28.5467 H   0  0  0  0  0  0  0  0  0  0  0  0
   -2.9042   20.2624  -26.9073 H   0  0  0  0  0  0  0  0  0  0  0  0
   -1.2030   19.8630  -28.1470 C   0  0  0  0  0  0  0  0  0  0  0  0
   -0.9090   18.6970  -27.4200 C   0  0  0  0  0  0  0  0  0  0  0  0
   -1.5111   18.4367  -26.5370 H   0  0  0  0  0  0  0  0  0  0  0  0
    0.1430   17.8670  -27.8120 C   0  0  0  0  0  0  0  0  0  0  0  0
    0.4170   16.7420  -27.1070 F   0  0  0  0  0  0  0  0  0  0  0  0
    0.9160   18.1960  -28.9250 C   0  0  0  0  0  0  0  0  0  0  0  0
    1.7415   17.5377  -29.2335 H   0  0  0  0  0  0  0  0  0  0  0  0
    0.6450   19.3590  -29.6490 C   0  0  0  0  0  0  0  0  0  0  0  0
    1.2602   19.6142  -30.5244 H   0  0  0  0  0  0  0  0  0  0  0  0
   -0.4130   20.2080  -29.2640 C   0  0  0  0  0  0  0  0  0  0  0  0
   -0.7030   21.3930  -29.9610 O   0  0  0  0  0  0  0  0  0  0  0  0
   -1.3380   21.4470  -31.2340 C   0  0  0  0  0  0  0  0  0  0  0  0
   -2.4256   21.5395  -31.0976 H   0  0  0  0  0  0  0  0  0  0  0  0
   -0.9634   22.3165  -31.7940 H   0  0  0  0  0  0  0  0  0  0  0  0
   -1.1156   20.5267  -31.7940 H   0  0  0  0  0  0  0  0  0  0  0  0
   -0.9130   24.1780  -27.3090 C   0  0  0  0  0  0  0  0  0  0  0  0
    0.3140   23.8680  -25.8700 Br  0  0  0  0  0  0  0  0  0  0  0  0
  1  2  1  0
  2  3  1  0
  3  4  1  0
  4  5  1  0
  5  6  1  0
  6  7  2  0
  7  8  1  0
  7  9  1  0
  9 10  1  0
  9 11  2  0
 11 12  1  0
 11 13  1  0
 13 14  1  0
 13 15  2  0
 15 16  1  0
  4 17  2  0
 17 18  1  0
 17 19  1  0
 19 20  2  0
 20 21  1  0
 21 22  1  0
 21 23  1  0
 21 24  1  0
 24 25  2  0
 25 26  1  0
 25 27  1  0
 27 28  1  0
 27 29  2  0
 29 30  1  0
 29 31  1  0
 31 32  1  0
 31 33  2  0
 33 34  1  0
 34 35  1  0
 35 36  1  0
 35 37  1  0
 35 38  1  0
 19 39  1  0
 39 40  1  0
 39  2  2  0
 15  6  1  0
 33 24  1  0
M  CHG  1   3  -1
M  END
>  <UniqueID>  (45) 
43

>  <SMILES>  (45) 
COc1ccc(F)cc1C/N=c1/cc(Oc2ccccc2)[n-]cc1Br

>  <Energy>  (45) 
50.979202573672225

>  <Genealogy>  (45) 
COc1ccc(F)cc1CN=c1cc(Oc2ccccc2)[n-]cc1Br (protonated)
COc1ccc(F)cc1C/N=c1/cc(Oc2ccccc2)[n-]cc1Br (cis-trans isomerization)
COc1ccc(F)cc1C/N=c1/cc(Oc2ccccc2)[n-]cc1Br (3D coordinates assigned)
COc1ccc(F)cc1C/N=c1/cc(Oc2ccccc2)[n-]cc1Br (optimized conformer: 50.979202573672225 kcal/mol)

>  <smiles>  (45) 
COc1ccc(F)cc1CN=c1cc(Oc2ccccc2)[nH]cc1Br

>  <score_type>  (45) 
oracle

>  <origin>  (45) 
adg

>  <m_score__min__energy>  (45) 
-9.9900000000000002

>  <m_primary>  (45) 
energy

$$$$
45:0
     RDKit          3D

 53 55  0  0  0  0  0  0  0  0999 V2000
   -2.5310   25.7190  -28.6070 H   0  0  0  0  0  0  0  0  0  0  0  0
   -1.6280   25.6830  -29.0180 O   0  0  0  0  0  0  0  0  0  0  0  0
   -0.9420   24.6540  -28.3610 C   0  0  0  0  0  0  0  0  0  0  0  0
   -0.0497   25.0704  -27.8708 H   0  0  0  0  0  0  0  0  0  0  0  0
   -0.6510   23.8940  -29.1011 H   0  0  0  0  0  0  0  0  0  0  0  0
   -1.8360   23.9960  -27.3040 C   0  0  0  0  0  0  0  0  0  0  0  0
   -1.3905   24.1515  -26.3104 H   0  0  0  0  0  0  0  0  0  0  0  0
   -1.9118   22.9226  -27.5320 H   0  0  0  0  0  0  0  0  0  0  0  0
   -3.2010   24.5760  -27.3180 N   0  0  0  0  0  0  0  0  0  0  0  0
   -3.5310   25.2550  -26.0370 C   0  0  0  0  0  0  0  0  0  0  0  0
   -3.8912   24.5117  -25.3106 H   0  0  0  0  0  0  0  0  0  0  0  0
   -4.3144   26.0069  -26.2127 H   0  0  0  0  0  0  0  0  0  0  0  0
   -2.2850   25.9400  -25.4870 C   0  0  0  0  0  0  0  0  0  0  0  0
   -2.3132   25.9245  -24.3875 H   0  0  0  0  0  0  0  0  0  0  0  0
   -1.3887   25.4078  -25.8383 H   0  0  0  0  0  0  0  0  0  0  0  0
   -2.2541   26.9819  -25.8383 H   0  0  0  0  0  0  0  0  0  0  0  0
   -4.2080   23.5460  -27.6690 C   0  0  0  0  0  0  0  0  0  0  0  0
   -3.8106   22.5529  -27.4126 H   0  0  0  0  0  0  0  0  0  0  0  0
   -5.1294   23.7511  -27.1042 H   0  0  0  0  0  0  0  0  0  0  0  0
   -4.5360   23.5830  -29.1670 C   0  0  0  0  0  0  0  0  0  0  0  0
   -3.9231   22.8371  -29.6943 H   0  0  0  0  0  0  0  0  0  0  0  0
   -5.6020   23.3541  -29.3128 H   0  0  0  0  0  0  0  0  0  0  0  0
   -4.2470   24.9200  -29.7030 N   0  0  0  0  0  0  0  0  0  0  0  0
   -3.7940   25.5010  -28.9600 H   0  0  0  0  0  0  0  0  0  0  0  0
   -5.4540   25.6030  -30.2010 C   0  0  0  0  0  0  0  0  0  0  0  0
   -5.5263   26.5848  -29.7102 H   0  0  0  0  0  0  0  0  0  0  0  0
   -5.3502   25.6898  -31.2926 H   0  0  0  0  0  0  0  0  0  0  0  0
   -6.7560   24.8240  -29.9290 C   0  0  0  0  0  0  0  0  0  0  0  0
   -6.5574   24.0506  -29.1724 H   0  0  0  0  0  0  0  0  0  0  0  0
   -7.5146   25.5370  -29.5738 H   0  0  0  0  0  0  0  0  0  0  0  0
   -7.2660   24.1810  -31.1430 N   0  0  0  0  0  0  0  0  0  0  0  0
   -6.9400   23.0110  -31.6200 C   0  0  0  0  0  0  0  0  0  0  0  0
   -7.8400   22.0020  -31.5180 N   0  0  0  0  0  0  0  0  0  0  0  0
   -7.5980   20.7470  -31.9850 C   0  0  0  0  0  0  0  0  0  0  0  0
   -8.5820   19.7710  -31.8390 C   0  0  0  0  0  0  0  0  0  0  0  0
   -9.5344   20.0250  -31.3507 H   0  0  0  0  0  0  0  0  0  0  0  0
   -8.3690   18.4780  -32.3060 C   0  0  0  0  0  0  0  0  0  0  0  0
   -9.1535   17.7168  -32.1833 H   0  0  0  0  0  0  0  0  0  0  0  0
   -7.1630   18.1390  -32.9310 C   0  0  0  0  0  0  0  0  0  0  0  0
   -6.9720   16.8270  -33.3950 C   0  0  0  0  0  0  0  0  0  0  0  0
   -7.7677   16.0789  -33.2638 H   0  0  0  0  0  0  0  0  0  0  0  0
   -5.7790   16.4680  -34.0210 C   0  0  0  0  0  0  0  0  0  0  0  0
   -5.6364   15.4387  -34.3819 H   0  0  0  0  0  0  0  0  0  0  0  0
   -4.7680   17.4100  -34.1900 C   0  0  0  0  0  0  0  0  0  0  0  0
   -3.8292   17.1212  -34.6852 H   0  0  0  0  0  0  0  0  0  0  0  0
   -4.9380   18.7190  -33.7350 C   0  0  0  0  0  0  0  0  0  0  0  0
   -4.1299   19.4518  -33.8759 H   0  0  0  0  0  0  0  0  0  0  0  0
   -6.1380   19.1160  -33.0940 C   0  0  0  0  0  0  0  0  0  0  0  0
   -6.3630   20.4400  -32.6120 C   0  0  0  0  0  0  0  0  0  0  0  0
   -5.4160   21.4820  -32.7190 C   0  0  0  0  0  0  0  0  0  0  0  0
   -4.4441   21.2865  -33.1956 H   0  0  0  0  0  0  0  0  0  0  0  0
   -5.6990   22.7570  -32.2270 C   0  0  0  0  0  0  0  0  0  0  0  0
   -4.9527   23.5604  -32.3143 H   0  0  0  0  0  0  0  0  0  0  0  0
  1  2  1  0
  2  3  1  0
  3  4  1  0
  3  5  1  0
  3  6  1  0
  6  7  1  0
  6  8  1  0
  6  9  1  0
  9 10  1  0
 10 11  1  0
 10 12  1  0
 10 13  1  0
 13 14  1  0
 13 15  1  0
 13 16  1  0
  9 17  1  0
 17 18  1  0
 17 19  1  0
 17 20  1  0
 20 21  1  0
 20 22  1  0
 20 23  1  0
 23 24  1  0
 23 25  1  0
 25 26  1  0
 25 27  1  0
 25 28  1  0
 28 29  1  0
 28 30  1  0
 28 31  1  0
 31 32  2  0
 32 33  1  0
 33 34  1  0
 34 35  2  0
 35 36  1  0
 35 37  1  0
 37 38  1  0
 37 39  2  0
 39 40  1  0
 40 41  1  0
 40 42  2  0
 42 43  1  0
 42 44  1  0
 44 45  1  0
 44 46  2  0
 46 47  1  0
 46 48  1  0
 48 49  2  0
 49 50  1  0
 50 51  1  0
 50 52  2  0
 52 53  1  0
 52 32  1  0
 49 34  1  0
 48 39  1  0
M  CHG  1  33  -1
M  END
>  <UniqueID>  (46) 
44

>  <SMILES>  (46) 
CCN(CCO)CCNCC/N=c1\ccc2c(ccc3ccccc32)[n-]1

>  <Energy>  (46) 
66.25459784676974

>  <Genealogy>  (46) 
CCN(CCO)CCNCCN=c1ccc2c(ccc3ccccc32)[n-]1 (protonated)
CCN(CCO)CCNCC/N=c1\ccc2c(ccc3ccccc32)[n-]1 (cis-trans isomerization)
CCN(CCO)CCNCC/N=c1\ccc2c(ccc3ccccc32)[n-]1 (3D coordinates assigned)
CCN(CCO)CCNCC/N=c1\ccc2c(ccc3ccccc32)[n-]1 (optimized conformer: 66.25459784676974 kcal/mol)

>  <smiles>  (46) 
CCN(CCO)CCNCCN=c1ccc2c(ccc3ccccc32)[nH]1

>  <score_type>  (46) 
oracle

>  <origin>  (46) 
adg

>  <m_score__min__energy>  (46) 
-9.0099999999999998

>  <m_primary>  (46) 
energy

$$$$
46:0
     RDKit          3D

 46 49  0  0  0  0  0  0  0  0999 V2000
   -3.1020   20.0850  -27.5440 C   0  0  0  0  0  0  0  0  0  0  0  0
   -3.2750   21.2900  -28.2830 O   0  0  0  0  0  0  0  0  0  0  0  0
   -2.5590   22.4780  -28.0580 C   0  0  0  0  0  0  0  0  0  0  0  0
   -1.5530   22.5510  -27.0720 C   0  0  0  0  0  0  0  0  0  0  0  0
   -0.8400   23.7320  -26.8720 C   0  0  0  0  0  0  0  0  0  0  0  0
   -1.1170   24.8560  -27.6480 C   0  0  0  0  0  0  0  0  0  0  0  0
   -2.1110   24.8030  -28.6260 C   0  0  0  0  0  0  0  0  0  0  0  0
   -2.8430   23.6200  -28.8450 C   0  0  0  0  0  0  0  0  0  0  0  0
   -3.9010   23.5930  -29.8870 C   0  0  0  0  0  0  0  0  0  0  0  0
   -4.0470   24.5360  -30.8430 N   0  0  0  0  0  0  0  0  0  0  0  0
   -5.0690   24.1550  -31.5530 O   0  0  0  0  0  0  0  0  0  0  0  0
   -5.5460   23.0310  -31.0770 C   0  0  0  0  0  0  0  0  0  0  0  0
   -6.7340   22.3070  -31.6470 C   0  0  2  0  0  0  0  0  0  0  0  0
   -8.0210   22.6560  -30.8690 C   0  0  0  0  0  0  0  0  0  0  0  0
   -9.1830   21.6680  -31.1180 C   0  0  0  0  0  0  0  0  0  0  0  0
   -8.9510   20.7690  -32.3360 C   0  0  0  0  0  0  0  0  0  0  0  0
   -7.6610   20.0730  -32.2080 N   0  0  0  0  0  0  0  0  0  0  0  0
   -7.5510   18.6620  -32.4750 C   0  0  0  0  0  0  0  0  0  0  0  0
   -8.3360   17.8610  -31.9040 O   0  0  0  0  0  0  0  0  0  0  0  0
   -6.5330   18.1150  -33.3910 C   0  0  0  0  0  0  0  0  0  0  0  0
   -6.1360   16.7950  -33.4980 C   0  0  0  0  0  0  0  0  0  0  0  0
   -5.1870   16.7720  -34.4980 C   0  0  0  0  0  0  0  0  0  0  0  0
   -5.0670   18.0710  -34.9430 C   0  0  0  0  0  0  0  0  0  0  0  0
   -5.8830   18.8470  -34.2680 O   0  0  0  0  0  0  0  0  0  0  0  0
   -6.4900   20.7880  -31.6810 C   0  0  0  0  0  0  0  0  0  0  0  0
   -4.8340   22.6270  -30.0100 N   0  0  0  0  0  0  0  0  0  0  0  0
   -3.1339   20.3075  -26.4672 H   0  0  0  0  0  0  0  0  0  0  0  0
   -3.9082   19.3808  -27.7970 H   0  0  0  0  0  0  0  0  0  0  0  0
   -2.1302   19.6360  -27.7970 H   0  0  0  0  0  0  0  0  0  0  0  0
   -1.3291   21.6680  -26.4553 H   0  0  0  0  0  0  0  0  0  0  0  0
   -0.0574   23.7769  -26.1003 H   0  0  0  0  0  0  0  0  0  0  0  0
   -0.5514   25.7860  -27.4894 H   0  0  0  0  0  0  0  0  0  0  0  0
   -2.3252   25.6952  -29.2327 H   0  0  0  0  0  0  0  0  0  0  0  0
   -6.8728   22.6439  -32.6849 H   0  0  0  0  0  0  0  0  0  0  0  0
   -7.7883   22.6550  -29.7939 H   0  0  0  0  0  0  0  0  0  0  0  0
   -8.3548   23.6420  -31.2245 H   0  0  0  0  0  0  0  0  0  0  0  0
   -9.2986   21.0310  -30.2287 H   0  0  0  0  0  0  0  0  0  0  0  0
  -10.0862   22.2640  -31.3152 H   0  0  0  0  0  0  0  0  0  0  0  0
   -9.7606   20.0271  -32.4009 H   0  0  0  0  0  0  0  0  0  0  0  0
   -8.9392   21.3880  -33.2452 H   0  0  0  0  0  0  0  0  0  0  0  0
   -6.5011   15.9412  -32.9083 H   0  0  0  0  0  0  0  0  0  0  0  0
   -4.6365   15.8938  -34.8665 H   0  0  0  0  0  0  0  0  0  0  0  0
   -4.3901   18.4066  -35.7425 H   0  0  0  0  0  0  0  0  0  0  0  0
   -6.2836   20.4348  -30.6599 H   0  0  0  0  0  0  0  0  0  0  0  0
   -5.6334   20.5876  -32.3414 H   0  0  0  0  0  0  0  0  0  0  0  0
   -4.9940   21.7840  -29.4150 H   0  0  0  0  0  0  0  0  0  0  0  0
  1  2  1  0
  2  3  1  0
  3  4  2  0
  4  5  1  0
  5  6  2  0
  6  7  1  0
  7  8  2  0
  8  9  1  0
  9 10  2  0
 10 11  1  0
 11 12  1  0
 12 13  1  0
 13 14  1  0
 14 15  1  0
 15 16  1  0
 16 17  1  0
 17 18  1  0
 18 19  2  0
 18 20  1  0
 20 21  2  0
 21 22  1  0
 22 23  2  0
 23 24  1  0
 17 25  1  0
 12 26  2  0
  8  3  1  0
 26  9  1  0
 25 13  1  0
 24 20  1  0
  1 27  1  0
  1 28  1  0
  1 29  1  0
  4 30  1  0
  5 31  1  0
  6 32  1  0
  7 33  1  0
 13 34  1  6
 14 35  1  0
 14 36  1  0
 15 37  1  0
 15 38  1  0
 16 39  1  0
 16 40  1  0
 21 41  1  0
 22 42  1  0
 23 43  1  0
 25 44  1  0
 25 45  1  0
 26 46  1  0
M  CHG  1  26   1
M  END
>  <UniqueID>  (47) 
45

>  <SMILES>  (47) 
COc1ccccc1-c1noc([C@@H]2CCCN(C(=O)c3ccco3)C2)[nH+]1

>  <Energy>  (47) 
116.0130951069396

>  <Genealogy>  (47) 
COc1ccccc1-c1noc(C2CCCN(C(=O)c3ccco3)C2)[nH+]1 (protonated)
COc1ccccc1-c1noc([C@@H]2CCCN(C(=O)c3ccco3)C2)[nH+]1 (chirality)
COc1ccccc1-c1noc([C@@H]2CCCN(C(=O)c3ccco3)C2)[nH+]1 (3D coordinates assigned)
COc1ccccc1-c1noc([C@@H]2CCCN(C(=O)c3ccco3)C2)[nH+]1 (nonaromatic ring conformer: 116.0130951069396 kcal/mol)

>  <smiles>  (47) 
COc1ccccc1-c1noc(C2CCCN(C(=O)c3ccco3)C2)n1

>  <score_type>  (47) 
oracle

>  <origin>  (47) 
adg

>  <m_score__min__energy>  (47) 
-7.8200000000000003

>  <m_primary>  (47) 
energy

$$$$
