0:0
     RDKit          3D

 25 26  0  0  0  0  0  0  0  0999 V2000
   -3.8830   25.1600  -30.5300 O   0  0  0  0  0  0  0  0  0  0  0  0
   -4.3380   24.1740  -29.8890 C   0  0  0  0  0  0  0  0  0  0  0  0
   -3.8000   23.8510  -28.5910 N   0  0  0  0  0  0  0  0  0  0  0  0
   -2.6750   24.5240  -28.0000 C   0  0  0  0  0  0  0  0  0  0  0  0
   -2.7390   25.0840  -26.7140 C   0  0  0  0  0  0  0  0  0  0  0  0
   -1.6330   25.7550  -26.1880 C   0  0  0  0  0  0  0  0  0  0  0  0
   -0.4750   25.8740  -26.9590 C   0  0  0  0  0  0  0  0  0  0  0  0
   -0.4340   25.3490  -28.2120 N   0  0  0  0  0  0  0  0  0  0  0  0
   -1.4990   24.6910  -28.7460 C   0  0  0  0  0  0  0  0  0  0  0  0
   -5.4300   23.3710  -30.4900 C   0  0  0  0  0  0  0  0  0  0  0  0
   -6.5960   23.1140  -29.7460 C   0  0  0  0  0  0  0  0  0  0  0  0
   -7.6360   22.3560  -30.2930 C   0  0  0  0  0  0  0  0  0  0  0  0
   -7.5210   21.8390  -31.5870 C   0  0  0  0  0  0  0  0  0  0  0  0
   -8.9400   20.8010  -32.3320 Br  0  0  0  0  0  0  0  0  0  0  0  0
   -6.3610   22.0750  -32.3300 C   0  0  0  0  0  0  0  0  0  0  0  0
   -5.3190   22.8330  -31.7870 C   0  0  0  0  0  0  0  0  0  0  0  0
   -4.2700   23.1220  -28.0110 H   0  0  0  0  0  0  0  0  0  0  0  0
   -3.6608   24.9941  -26.1205 H   0  0  0  0  0  0  0  0  0  0  0  0
   -1.6737   26.1854  -25.1765 H   0  0  0  0  0  0  0  0  0  0  0  0
    0.4051   26.3932  -26.5519 H   0  0  0  0  0  0  0  0  0  0  0  0
   -1.4372   24.2882  -29.7677 H   0  0  0  0  0  0  0  0  0  0  0  0
   -6.6904   23.5128  -28.7252 H   0  0  0  0  0  0  0  0  0  0  0  0
   -8.5458   22.1662  -29.7045 H   0  0  0  0  0  0  0  0  0  0  0  0
   -6.2674   21.6630  -33.3456 H   0  0  0  0  0  0  0  0  0  0  0  0
   -4.4072   23.0102  -32.3762 H   0  0  0  0  0  0  0  0  0  0  0  0
  1  2  2  0
  2  3  1  0
  3  4  1  0
  4  5  2  0
  5  6  1  0
  6  7  2  0
  7  8  1  0
  8  9  2  0
  2 10  1  0
 10 11  2  0
 11 12  1  0
 12 13  2  0
 13 14  1  0
 13 15  1  0
 15 16  2  0
  9  4  1  0
 16 10  1  0
  3 17  1  0
  5 18  1  0
  6 19  1  0
  7 20  1  0
  9 21  1  0
 11 22  1  0
 12 23  1  0
 15 24  1  0
 16 25  1  0
M  END
>  <UniqueID>  (1) 
1

>  <SMILES>  (1) 
O=C(Nc1cccnc1)c1ccc(Br)cc1

>  <Energy>  (1) 
33.46346410280139

>  <Genealogy>  (1) 
O=C(Nc1cccnc1)c1ccc(Br)cc1 (3D coordinates assigned)
O=C(Nc1cccnc1)c1ccc(Br)cc1 (optimized conformer: 33.46346410280139 kcal/mol)

>  <smiles>  (1) 
O=C(Nc1cccnc1)c1ccc(Br)cc1

>  <score_type>  (1) 
oracle

>  <origin>  (1) 
adg

>  <m_score__min__energy>  (1) 
-7.21

>  <m_primary>  (1) 
energy

$$$$
1:0
     RDKit          3D

 47 50  0  0  0  0  0  0  0  0999 V2000
   -1.8770   20.3280  -26.7060 C   0  0  0  0  0  0  0  0  0  0  0  0
   -1.7500   21.7440  -26.6400 O   0  0  0  0  0  0  0  0  0  0  0  0
   -2.2880   22.6320  -27.5830 C   0  0  0  0  0  0  0  0  0  0  0  0
   -3.6250   23.0700  -27.5320 C   0  0  0  0  0  0  0  0  0  0  0  0
   -4.1130   23.9550  -28.4980 C   0  0  0  0  0  0  0  0  0  0  0  0
   -3.2850   24.4150  -29.5280 C   0  0  0  0  0  0  0  0  0  0  0  0
   -3.8330   25.2990  -30.4700 O   0  0  0  0  0  0  0  0  0  0  0  0
   -5.2180   25.4190  -30.7940 C   0  0  0  0  0  0  0  0  0  0  0  0
   -5.7190   24.2070  -31.5940 C   0  0  0  0  0  0  0  0  0  0  0  0
   -6.0610   22.9980  -30.7110 C   0  0  0  0  0  0  0  0  0  0  0  0
   -6.2340   21.7790  -31.5120 N   0  0  0  0  0  0  0  0  0  0  0  0
   -5.2870   20.8910  -31.9320 C   0  0  0  0  0  0  0  0  0  0  0  0
   -3.8320   21.0780  -31.8140 C   0  0  0  0  0  0  0  0  0  0  0  0
   -2.9720   21.5360  -32.8050 C   0  0  0  0  0  0  0  0  0  0  0  0
   -1.6280   21.5230  -32.4180 C   0  0  0  0  0  0  0  0  0  0  0  0
   -1.4210   21.0420  -31.1330 C   0  0  0  0  0  0  0  0  0  0  0  0
   -2.9130   20.6240  -30.4820 S   0  0  0  0  0  0  0  0  0  0  0  0
   -5.8280   19.7710  -32.4740 N   0  0  0  0  0  0  0  0  0  0  0  0
   -7.1530   19.9700  -32.4030 C   0  0  0  0  0  0  0  0  0  0  0  0
   -8.1740   19.1160  -32.8100 C   0  0  0  0  0  0  0  0  0  0  0  0
   -9.5000   19.5390  -32.6040 C   0  0  0  0  0  0  0  0  0  0  0  0
   -9.7660   20.7890  -31.9980 C   0  0  0  0  0  0  0  0  0  0  0  0
   -8.7090   21.6260  -31.5940 C   0  0  0  0  0  0  0  0  0  0  0  0
   -7.4040   21.1790  -31.8200 C   0  0  0  0  0  0  0  0  0  0  0  0
   -1.9460   23.9830  -29.5730 C   0  0  0  0  0  0  0  0  0  0  0  0
   -1.4580   23.0990  -28.6080 C   0  0  0  0  0  0  0  0  0  0  0  0
   -1.9140   19.9153  -25.6870 H   0  0  0  0  0  0  0  0  0  0  0  0
   -2.8021   20.0674  -27.2410 H   0  0  0  0  0  0  0  0  0  0  0  0
   -1.0130   19.9069  -27.2410 H   0  0  0  0  0  0  0  0  0  0  0  0
   -4.2879   22.7147  -26.7293 H   0  0  0  0  0  0  0  0  0  0  0  0
   -5.1585   24.2932  -28.4479 H   0  0  0  0  0  0  0  0  0  0  0  0
   -5.7972   25.4957  -29.8620 H   0  0  0  0  0  0  0  0  0  0  0  0
   -5.3496   26.3183  -31.4136 H   0  0  0  0  0  0  0  0  0  0  0  0
   -6.6227   24.5026  -32.1471 H   0  0  0  0  0  0  0  0  0  0  0  0
   -4.9044   23.9002  -32.2666 H   0  0  0  0  0  0  0  0  0  0  0  0
   -5.2453   22.8395  -29.9902 H   0  0  0  0  0  0  0  0  0  0  0  0
   -7.0075   23.2068  -30.1909 H   0  0  0  0  0  0  0  0  0  0  0  0
   -3.3139   21.8746  -33.7942 H   0  0  0  0  0  0  0  0  0  0  0  0
   -0.8110   21.8625  -33.0716 H   0  0  0  0  0  0  0  0  0  0  0  0
   -0.4483   20.9501  -30.6276 H   0  0  0  0  0  0  0  0  0  0  0  0
   -5.3280   18.9400  -32.8630 H   0  0  0  0  0  0  0  0  0  0  0  0
   -7.9520   18.1447  -33.2762 H   0  0  0  0  0  0  0  0  0  0  0  0
  -10.3345   18.8939  -32.9160 H   0  0  0  0  0  0  0  0  0  0  0  0
  -10.8066   21.1094  -31.8413 H   0  0  0  0  0  0  0  0  0  0  0  0
   -8.9031   22.5980  -31.1170 H   0  0  0  0  0  0  0  0  0  0  0  0
   -1.2810   24.3432  -30.3718 H   0  0  0  0  0  0  0  0  0  0  0  0
   -0.4105   22.7666  -28.6543 H   0  0  0  0  0  0  0  0  0  0  0  0
  1  2  1  0
  2  3  1  0
  3  4  2  0
  4  5  1  0
  5  6  2  0
  6  7  1  0
  7  8  1  0
  8  9  1  0
  9 10  1  0
 10 11  1  0
 11 12  1  0
 12 13  1  0
 13 14  2  0
 14 15  1  0
 15 16  2  0
 16 17  1  0
 12 18  2  0
 18 19  1  0
 19 20  2  0
 20 21  1  0
 21 22  2  0
 22 23  1  0
 23 24  2  0
  6 25  1  0
 25 26  2  0
 26  3  1  0
 24 11  1  0
 17 13  1  0
 24 19  1  0
  1 27  1  0
  1 28  1  0
  1 29  1  0
  4 30  1  0
  5 31  1  0
  8 32  1  0
  8 33  1  0
  9 34  1  0
  9 35  1  0
 10 36  1  0
 10 37  1  0
 14 38  1  0
 15 39  1  0
 16 40  1  0
 18 41  1  0
 20 42  1  0
 21 43  1  0
 22 44  1  0
 23 45  1  0
 25 46  1  0
 26 47  1  0
M  CHG  1  18   1
M  END
>  <UniqueID>  (2) 
2

>  <SMILES>  (2) 
COc1ccc(OCCCn2c(-c3cccs3)[nH+]c3ccccc32)cc1

>  <Energy>  (2) 
114.02309119506613

>  <Genealogy>  (2) 
COc1ccc(OCCCn2c(-c3cccs3)[nH+]c3ccccc32)cc1 (protonated)
COc1ccc(OCCCn2c(-c3cccs3)[nH+]c3ccccc32)cc1 (3D coordinates assigned)
COc1ccc(OCCCn2c(-c3cccs3)[nH+]c3ccccc32)cc1 (optimized conformer: 114.02309119506613 kcal/mol)

>  <smiles>  (2) 
COc1ccc(OCCCn2c(-c3cccs3)nc3ccccc32)cc1

>  <score_type>  (2) 
oracle

>  <origin>  (2) 
adg

>  <m_score__min__energy>  (2) 
-7.7699999999999996

>  <m_primary>  (2) 
energy

$$$$
2:0
     RDKit          3D

 46 49  0  0  1  0  0  0  0  0999 V2000
   -0.9240   26.3480  -27.9280 C   0  0  0  0  0  0  0  0  0  0  0  0
   -1.6030   25.6890  -28.9720 O   0  0  0  0  0  0  0  0  0  0  0  0
   -1.6770   24.3070  -29.0450 C   0  0  0  0  0  0  0  0  0  0  0  0
   -0.6000   23.4710  -28.8570 C   0  0  0  0  0  0  0  0  0  0  0  0
   -0.6800   22.0950  -28.9300 C   0  0  0  0  0  0  0  0  0  0  0  0
   -1.9130   21.5410  -29.2070 C   0  0  0  0  0  0  0  0  0  0  0  0
   -2.9950   22.3580  -29.3970 C   0  0  0  0  0  0  0  0  0  0  0  0
   -2.9200   23.7300  -29.3250 C   0  0  0  0  0  0  0  0  0  0  0  0
   -4.0810   24.6110  -29.5290 C   0  0  0  0  0  0  0  0  0  0  0  0
   -4.5950   24.6370  -30.8610 N   0  0  0  0  0  0  0  0  0  0  0  0
   -5.6010   23.9120  -31.2180 C   0  0  0  0  0  0  0  0  0  0  0  0
   -6.8680   24.2500  -30.9240 N   0  0  0  0  0  0  0  0  0  0  0  0
   -7.8420   23.4260  -31.3420 C   0  0  0  0  0  0  0  0  0  0  0  0
   -7.6020   22.2910  -32.0340 N   0  0  0  0  0  0  0  0  0  0  0  0
   -6.3330   21.9550  -32.3280 C   0  0  0  0  0  0  0  0  0  0  0  0
   -5.3060   22.7590  -31.9250 C   0  0  0  0  0  0  0  0  0  0  0  0
   -4.1740   22.2060  -32.3360 N   0  0  0  0  0  0  0  0  0  0  0  0
   -4.4860   21.0750  -32.9860 C   0  0  0  0  0  0  0  0  0  0  0  0
   -5.8260   20.8860  -32.9990 N   0  0  0  0  0  0  0  0  0  0  0  0
   -6.5620   19.7810  -33.6030 C   0  0  1  0  0  0  0  0  0  0  0  0
   -5.9690   18.4410  -33.3330 C   0  0  0  0  0  0  0  0  0  0  0  0
   -6.5140   17.6990  -32.1680 C   0  0  0  0  0  0  0  0  0  0  0  0
   -7.9770   17.9260  -31.9970 C   0  0  0  0  0  0  0  0  0  0  0  0
   -8.3910   19.3480  -32.2400 C   0  0  0  0  0  0  0  0  0  0  0  0
   -7.9230   19.8880  -33.3960 O   0  0  0  0  0  0  0  0  0  0  0  0
   -1.2987   25.9843  -26.9599 H   0  0  0  0  0  0  0  0  0  0  0  0
    0.1539   26.1426  -28.0045 H   0  0  0  0  0  0  0  0  0  0  0  0
   -1.0971   27.4316  -28.0045 H   0  0  0  0  0  0  0  0  0  0  0  0
    0.3778   23.9241  -28.6366 H   0  0  0  0  0  0  0  0  0  0  0  0
    0.2067   21.4632  -28.7731 H   0  0  0  0  0  0  0  0  0  0  0  0
   -2.0260   20.4489  -29.2748 H   0  0  0  0  0  0  0  0  0  0  0  0
   -3.9689   21.8965  -29.6173 H   0  0  0  0  0  0  0  0  0  0  0  0
   -4.8862   24.2741  -28.8595 H   0  0  0  0  0  0  0  0  0  0  0  0
   -3.7320   25.6321  -29.3153 H   0  0  0  0  0  0  0  0  0  0  0  0
   -7.0290   25.1290  -30.3890 H   0  0  0  0  0  0  0  0  0  0  0  0
   -8.8850   23.6875  -31.1100 H   0  0  0  0  0  0  0  0  0  0  0  0
   -3.7536   20.3948  -33.4452 H   0  0  0  0  0  0  0  0  0  0  0  0
   -6.4406   19.8749  -34.6922 H   0  0  0  0  0  0  0  0  0  0  0  0
   -6.1246   17.8200  -34.2275 H   0  0  0  0  0  0  0  0  0  0  0  0
   -4.9138   18.6330  -33.0888 H   0  0  0  0  0  0  0  0  0  0  0  0
   -6.3364   16.6237  -32.3170 H   0  0  0  0  0  0  0  0  0  0  0  0
   -6.0052   18.0645  -31.2638 H   0  0  0  0  0  0  0  0  0  0  0  0
   -8.5155   17.2799  -32.7059 H   0  0  0  0  0  0  0  0  0  0  0  0
   -8.2226   17.6901  -30.9510 H   0  0  0  0  0  0  0  0  0  0  0  0
   -9.4901   19.3849  -32.2654 H   0  0  0  0  0  0  0  0  0  0  0  0
   -7.9557   19.9414  -31.4224 H   0  0  0  0  0  0  0  0  0  0  0  0
  1  2  1  0
  2  3  1  0
  3  4  2  0
  4  5  1  0
  5  6  2  0
  6  7  1  0
  7  8  2  0
  8  9  1  0
  9 10  1  0
 10 11  2  0
 11 12  1  0
 12 13  1  0
 13 14  2  0
 14 15  1  0
 15 16  2  0
 16 17  1  0
 17 18  2  0
 18 19  1  0
 19 20  1  0
 20 21  1  0
 21 22  1  0
 22 23  1  0
 23 24  1  0
 24 25  1  0
  8  3  1  0
 16 11  1  0
 25 20  1  0
 19 15  1  0
  1 26  1  0
  1 27  1  0
  1 28  1  0
  4 29  1  0
  5 30  1  0
  6 31  1  0
  7 32  1  0
  9 33  1  0
  9 34  1  0
 12 35  1  0
 13 36  1  0
 18 37  1  0
 20 38  1  6
 21 39  1  0
 21 40  1  0
 22 41  1  0
 22 42  1  0
 23 43  1  0
 23 44  1  0
 24 45  1  0
 24 46  1  0
M  END
>  <smiles>  (3) 
COc1ccccc1CN=c1[nH]cnc2c1ncn2C1CCCCO1

>  <score_type>  (3) 
oracle

>  <origin>  (3) 
adg

>  <m_score__min__energy>  (3) 
-8.75

>  <m_primary>  (3) 
energy

$$$$
3:0
     RDKit          3D

 53 54  0  0  0  0  0  0  0  0999 V2000
   -1.8590   19.9890  -26.3630 C   0  0  0  0  0  0  0  0  0  0  0  0
   -1.0990   20.8760  -27.0120 C   0  0  0  0  0  0  0  0  0  0  0  0
   -1.5110   22.3140  -27.1570 C   0  0  0  0  0  0  0  0  0  0  0  0
   -2.3330   22.5100  -28.4040 C   0  0  0  0  0  0  0  0  0  0  0  0
   -2.7150   23.7990  -28.7980 C   0  0  0  0  0  0  0  0  0  0  0  0
   -3.4570   23.9960  -29.9770 C   0  0  0  0  0  0  0  0  0  0  0  0
   -3.8620   25.2720  -30.3980 O   0  0  0  0  0  0  0  0  0  0  0  0
   -5.2160   25.7040  -30.4830 C   0  0  0  0  0  0  0  0  0  0  0  0
   -3.8020   22.8920  -30.7730 C   0  0  0  0  0  0  0  0  0  0  0  0
   -4.5400   23.1220  -31.9410 O   0  0  0  0  0  0  0  0  0  0  0  0
   -5.6340   22.3470  -32.3480 C   0  0  0  0  0  0  0  0  0  0  0  0
   -5.4970   21.4340  -33.2070 O   0  0  0  0  0  0  0  0  0  0  0  0
   -6.9960   22.6740  -31.8250 C   0  0  0  0  0  0  0  0  0  0  0  0
   -7.9530   21.5020  -32.0630 C   0  0  0  0  0  0  0  0  0  0  0  0
   -7.5910   20.2500  -31.2370 C   0  0  0  0  0  0  0  0  0  0  0  0
   -6.6320   19.3480  -31.9370 N   0  0  0  0  0  0  0  0  0  0  0  0
   -6.5050   18.0550  -31.2270 C   0  0  0  0  0  0  0  0  0  0  0  0
   -5.7510   17.0080  -32.0780 C   0  0  0  0  0  0  0  0  0  0  0  0
   -5.0870   17.6170  -33.1640 O   0  0  0  0  0  0  0  0  0  0  0  0
   -6.0370   18.1790  -34.0540 C   0  0  0  0  0  0  0  0  0  0  0  0
   -7.0490   19.0990  -33.3330 C   0  0  0  0  0  0  0  0  0  0  0  0
   -3.4380   21.5880  -30.3760 C   0  0  0  0  0  0  0  0  0  0  0  0
   -3.8550   20.4980  -31.1570 O   0  0  0  0  0  0  0  0  0  0  0  0
   -3.0940   19.9180  -32.2120 C   0  0  0  0  0  0  0  0  0  0  0  0
   -2.6900   21.4110  -29.1970 C   0  0  0  0  0  0  0  0  0  0  0  0
   -1.5296   18.9433  -26.2740 H   0  0  0  0  0  0  0  0  0  0  0  0
   -2.8141   20.3046  -25.9177 H   0  0  0  0  0  0  0  0  0  0  0  0
   -0.1466   20.5449  -27.4517 H   0  0  0  0  0  0  0  0  0  0  0  0
   -2.1079   22.6085  -26.2812 H   0  0  0  0  0  0  0  0  0  0  0  0
   -0.6061   22.9353  -27.2290 H   0  0  0  0  0  0  0  0  0  0  0  0
   -2.4324   24.6643  -28.1804 H   0  0  0  0  0  0  0  0  0  0  0  0
   -5.6237   25.8341  -29.4696 H   0  0  0  0  0  0  0  0  0  0  0  0
   -5.2622   26.6615  -31.0225 H   0  0  0  0  0  0  0  0  0  0  0  0
   -5.8082   24.9502  -31.0225 H   0  0  0  0  0  0  0  0  0  0  0  0
   -6.9313   22.8760  -30.7457 H   0  0  0  0  0  0  0  0  0  0  0  0
   -7.3782   23.5605  -32.3524 H   0  0  0  0  0  0  0  0  0  0  0  0
   -8.9704   21.8194  -31.7906 H   0  0  0  0  0  0  0  0  0  0  0  0
   -7.8789   21.2276  -33.1256 H   0  0  0  0  0  0  0  0  0  0  0  0
   -7.1384   20.5746  -30.2884 H   0  0  0  0  0  0  0  0  0  0  0  0
   -8.5192   19.6822  -31.0758 H   0  0  0  0  0  0  0  0  0  0  0  0
   -5.6810   19.7900  -31.9520 H   0  0  0  0  0  0  0  0  0  0  0  0
   -5.9537   18.2160  -30.2888 H   0  0  0  0  0  0  0  0  0  0  0  0
   -7.5167   17.6717  -31.0284 H   0  0  0  0  0  0  0  0  0  0  0  0
   -5.0104   16.4971  -31.4452 H   0  0  0  0  0  0  0  0  0  0  0  0
   -6.4827   16.2891  -32.4753 H   0  0  0  0  0  0  0  0  0  0  0  0
   -5.5033   18.7684  -34.8141 H   0  0  0  0  0  0  0  0  0  0  0  0
   -6.6013   17.3512  -34.5082 H   0  0  0  0  0  0  0  0  0  0  0  0
   -7.1085   20.0583  -33.8679 H   0  0  0  0  0  0  0  0  0  0  0  0
   -8.0309   18.6033  -33.3239 H   0  0  0  0  0  0  0  0  0  0  0  0
   -2.2871   19.3030  -31.7869 H   0  0  0  0  0  0  0  0  0  0  0  0
   -3.7480   19.2872  -32.8320 H   0  0  0  0  0  0  0  0  0  0  0  0
   -2.6591   20.7158  -32.8320 H   0  0  0  0  0  0  0  0  0  0  0  0
   -2.3823   20.3991  -28.8947 H   0  0  0  0  0  0  0  0  0  0  0  0
  1  2  2  0
  2  3  1  0
  3  4  1  0
  4  5  2  0
  5  6  1  0
  6  7  1  0
  7  8  1  0
  6  9  2  0
  9 10  1  0
 10 11  1  0
 11 12  2  0
 11 13  1  0
 13 14  1  0
 14 15  1  0
 15 16  1  0
 16 17  1  0
 17 18  1  0
 18 19  1  0
 19 20  1  0
 20 21  1  0
  9 22  1  0
 22 23  1  0
 23 24  1  0
 22 25  2  0
 25  4  1  0
 21 16  1  0
  1 26  1  0
  1 27  1  0
  2 28  1  0
  3 29  1  0
  3 30  1  0
  5 31  1  0
  8 32  1  0
  8 33  1  0
  8 34  1  0
 13 35  1  0
 13 36  1  0
 14 37  1  0
 14 38  1  0
 15 39  1  0
 15 40  1  0
 16 41  1  0
 17 42  1  0
 17 43  1  0
 18 44  1  0
 18 45  1  0
 20 46  1  0
 20 47  1  0
 21 48  1  0
 21 49  1  0
 24 50  1  0
 24 51  1  0
 24 52  1  0
 25 53  1  0
M  CHG  1  16   1
M  END
>  <UniqueID>  (4) 
3

>  <SMILES>  (4) 
C=CCc1cc(OC)c(OC(=O)CCC[NH+]2CCOCC2)c(OC)c1

>  <Energy>  (4) 
61.81417714939223

>  <Genealogy>  (4) 
C=CCc1cc(OC)c(OC(=O)CCC[NH+]2CCOCC2)c(OC)c1 (protonated)
C=CCc1cc(OC)c(OC(=O)CCC[NH+]2CCOCC2)c(OC)c1 (3D coordinates assigned)
C=CCc1cc(OC)c(OC(=O)CCC[NH+]2CCOCC2)c(OC)c1 (nonaromatic ring conformer: 61.81417714939223 kcal/mol)

>  <smiles>  (4) 
C=CCc1cc(OC)c(OC(=O)CCCN2CCOCC2)c(OC)c1

>  <score_type>  (4) 
oracle

>  <origin>  (4) 
adg

>  <m_score__min__energy>  (4) 
-7.1200000000000001

>  <m_primary>  (4) 
energy

$$$$
4:0
     RDKit          3D

 58 60  0  0  0  0  0  0  0  0999 V2000
   -4.2460   13.3150  -31.2230 C   0  0  0  0  0  0  0  0  0  0  0  0
   -4.6150   14.4580  -32.1630 C   0  0  0  0  0  0  0  0  0  0  0  0
   -3.5080   14.7100  -33.1110 N   0  0  0  0  0  0  0  0  0  0  0  0
   -3.8810   14.2930  -34.4820 C   0  0  0  0  0  0  0  0  0  0  0  0
   -5.2670   13.6530  -34.4900 C   0  0  0  0  0  0  0  0  0  0  0  0
   -3.0620   16.1250  -33.0750 C   0  0  0  0  0  0  0  0  0  0  0  0
   -2.7940   16.6380  -34.4970 C   0  0  0  0  0  0  0  0  0  0  0  0
   -3.9310   17.4070  -35.0050 N   0  0  0  0  0  0  0  0  0  0  0  0
   -5.0670   17.7910  -34.2000 C   0  0  0  0  0  0  0  0  0  0  0  0
   -6.1270   16.8880  -34.0200 C   0  0  0  0  0  0  0  0  0  0  0  0
   -7.2260   17.2220  -33.2360 C   0  0  0  0  0  0  0  0  0  0  0  0
   -7.3050   18.4730  -32.6110 C   0  0  0  0  0  0  0  0  0  0  0  0
   -8.4360   18.8210  -31.8580 O   0  0  0  0  0  0  0  0  0  0  0  0
   -9.4430   19.7070  -32.3290 C   0  0  0  0  0  0  0  0  0  0  0  0
   -6.2510   19.3970  -32.7630 C   0  0  0  0  0  0  0  0  0  0  0  0
   -6.3000   20.6110  -32.1320 N   0  0  0  0  0  0  0  0  0  0  0  0
   -5.2790   21.5140  -32.2110 C   0  0  0  0  0  0  0  0  0  0  0  0
   -5.3480   22.7990  -31.4590 C   0  0  0  0  0  0  0  0  0  0  0  0
   -6.5940   23.3960  -31.1930 C   0  0  0  0  0  0  0  0  0  0  0  0
   -6.6650   24.5890  -30.4690 C   0  0  0  0  0  0  0  0  0  0  0  0
   -5.4990   25.1960  -30.0000 C   0  0  0  0  0  0  0  0  0  0  0  0
   -4.2510   24.6180  -30.2450 C   0  0  0  0  0  0  0  0  0  0  0  0
   -3.1130   25.2550  -29.7290 O   0  0  0  0  0  0  0  0  0  0  0  0
   -2.2870   24.7210  -28.6990 C   0  0  0  0  0  0  0  0  0  0  0  0
   -4.1780   23.4240  -30.9880 C   0  0  0  0  0  0  0  0  0  0  0  0
   -4.1560   21.2150  -32.9930 C   0  0  0  0  0  0  0  0  0  0  0  0
   -4.0810   19.9990  -33.6660 C   0  0  0  0  0  0  0  0  0  0  0  0
   -5.1180   19.0540  -33.5520 C   0  0  0  0  0  0  0  0  0  0  0  0
   -4.3537   13.6485  -30.1803 H   0  0  0  0  0  0  0  0  0  0  0  0
   -4.9138   12.4602  -31.4054 H   0  0  0  0  0  0  0  0  0  0  0  0
   -3.2044   13.0120  -31.4054 H   0  0  0  0  0  0  0  0  0  0  0  0
   -5.5218   14.1895  -32.7248 H   0  0  0  0  0  0  0  0  0  0  0  0
   -4.7984   15.3672  -31.5717 H   0  0  0  0  0  0  0  0  0  0  0  0
   -3.8861   15.1749  -35.1394 H   0  0  0  0  0  0  0  0  0  0  0  0
   -3.1476   13.5557  -34.8406 H   0  0  0  0  0  0  0  0  0  0  0  0
   -5.6048   13.4970  -33.4548 H   0  0  0  0  0  0  0  0  0  0  0  0
   -5.9739   14.3158  -35.0105 H   0  0  0  0  0  0  0  0  0  0  0  0
   -5.2209   12.6850  -35.0105 H   0  0  0  0  0  0  0  0  0  0  0  0
   -3.8459   16.7404  -32.6094 H   0  0  0  0  0  0  0  0  0  0  0  0
   -2.1324   16.1914  -32.4906 H   0  0  0  0  0  0  0  0  0  0  0  0
   -1.9023   17.2820  -34.4841 H   0  0  0  0  0  0  0  0  0  0  0  0
   -2.6370   15.7715  -35.1562 H   0  0  0  0  0  0  0  0  0  0  0  0
   -3.8400   17.8020  -35.9630 H   0  0  0  0  0  0  0  0  0  0  0  0
   -6.0876   15.9021  -34.5062 H   0  0  0  0  0  0  0  0  0  0  0  0
   -8.0420   16.4960  -33.1053 H   0  0  0  0  0  0  0  0  0  0  0  0
   -9.9607   20.1625  -31.4720 H   0  0  0  0  0  0  0  0  0  0  0  0
   -8.9805   20.4963  -32.9397 H   0  0  0  0  0  0  0  0  0  0  0  0
  -10.1670   19.1477  -32.9397 H   0  0  0  0  0  0  0  0  0  0  0  0
   -7.1430   20.8640  -31.5710 H   0  0  0  0  0  0  0  0  0  0  0  0
   -7.5171   22.9211  -31.5569 H   0  0  0  0  0  0  0  0  0  0  0  0
   -7.6428   25.0511  -30.2681 H   0  0  0  0  0  0  0  0  0  0  0  0
   -5.5632   26.1365  -29.4332 H   0  0  0  0  0  0  0  0  0  0  0  0
   -2.7042   24.9907  -27.7176 H   0  0  0  0  0  0  0  0  0  0  0  0
   -2.2470   23.6257  -28.7919 H   0  0  0  0  0  0  0  0  0  0  0  0
   -1.2718   25.1342  -28.7919 H   0  0  0  0  0  0  0  0  0  0  0  0
   -3.1969   22.9753  -31.2025 H   0  0  0  0  0  0  0  0  0  0  0  0
   -3.3337   21.9410  -33.0752 H   0  0  0  0  0  0  0  0  0  0  0  0
   -3.2046   19.7747  -34.2918 H   0  0  0  0  0  0  0  0  0  0  0  0
  1  2  1  0
  2  3  1  0
  3  4  1  0
  4  5  1  0
  3  6  1  0
  6  7  1  0
  7  8  1  0
  8  9  1  0
  9 10  2  0
 10 11  1  0
 11 12  2  0
 12 13  1  0
 13 14  1  0
 12 15  1  0
 15 16  2  0
 16 17  1  0
 17 18  1  0
 18 19  2  0
 19 20  1  0
 20 21  2  0
 21 22  1  0
 22 23  1  0
 23 24  1  0
 22 25  2  0
 17 26  2  0
 26 27  1  0
 27 28  2  0
 28  9  1  0
 28 15  1  0
 25 18  1  0
  1 29  1  0
  1 30  1  0
  1 31  1  0
  2 32  1  0
  2 33  1  0
  4 34  1  0
  4 35  1  0
  5 36  1  0
  5 37  1  0
  5 38  1  0
  6 39  1  0
  6 40  1  0
  7 41  1  0
  7 42  1  0
  8 43  1  0
 10 44  1  0
 11 45  1  0
 14 46  1  0
 14 47  1  0
 14 48  1  0
 16 49  1  0
 19 50  1  0
 20 51  1  0
 21 52  1  0
 24 53  1  0
 24 54  1  0
 24 55  1  0
 25 56  1  0
 26 57  1  0
 27 58  1  0
M  CHG  1  16   1
M  END
>  <UniqueID>  (5) 
4

>  <SMILES>  (5) 
CCN(CC)CCNc1ccc(OC)c2[nH+]c(-c3cccc(OC)c3)ccc12

>  <Energy>  (5) 
74.0375461261652

>  <Genealogy>  (5) 
CCN(CC)CCNc1ccc(OC)c2[nH+]c(-c3cccc(OC)c3)ccc12 (protonated)
CCN(CC)CCNc1ccc(OC)c2[nH+]c(-c3cccc(OC)c3)ccc12 (3D coordinates assigned)
CCN(CC)CCNc1ccc(OC)c2[nH+]c(-c3cccc(OC)c3)ccc12 (optimized conformer: 74.0375461261652 kcal/mol)

>  <smiles>  (5) 
CCN(CC)CCNc1ccc(OC)c2nc(-c3cccc(OC)c3)ccc12

>  <score_type>  (5) 
oracle

>  <origin>  (5) 
adg

>  <m_score__min__energy>  (5) 
-7.5700000000000003

>  <m_primary>  (5) 
energy

$$$$
5:0
     RDKit          3D

 29 31  0  0  0  0  0  0  0  0999 V2000
   -1.2980   25.5050  -27.6940 C   0  0  0  0  0  0  0  0  0  0  0  0
   -1.9290   25.5360  -28.9690 O   0  0  0  0  0  0  0  0  0  0  0  0
   -2.7930   24.5420  -29.4500 C   0  0  0  0  0  0  0  0  0  0  0  0
   -2.5310   23.1690  -29.2840 C   0  0  0  0  0  0  0  0  0  0  0  0
   -3.4250   22.2140  -29.7800 C   0  0  0  0  0  0  0  0  0  0  0  0
   -4.5980   22.6110  -30.4430 C   0  0  0  0  0  0  0  0  0  0  0  0
   -5.5060   21.6210  -30.9580 N   0  0  0  0  0  0  0  0  0  0  0  0
   -5.0640   20.1350  -31.5800 S   0  0  0  0  0  0  0  0  0  0  0  0
   -6.5830   19.5640  -31.9580 C   0  0  0  0  0  0  0  0  0  0  0  0
   -6.9740   18.3550  -32.5230 C   0  0  0  0  0  0  0  0  0  0  0  0
   -8.3470   18.1400  -32.7220 C   0  0  0  0  0  0  0  0  0  0  0  0
   -9.2840   19.1270  -32.3530 C   0  0  0  0  0  0  0  0  0  0  0  0
   -8.8600   20.3390  -31.7820 C   0  0  0  0  0  0  0  0  0  0  0  0
   -7.4890   20.5480  -31.5890 C   0  0  0  0  0  0  0  0  0  0  0  0
   -6.8700   21.6860  -31.0290 C   0  0  0  0  0  0  0  0  0  0  0  0
   -7.5260   22.6720  -30.5980 O   0  0  0  0  0  0  0  0  0  0  0  0
   -4.8500   23.9840  -30.6160 C   0  0  0  0  0  0  0  0  0  0  0  0
   -3.9560   24.9360  -30.1200 C   0  0  0  0  0  0  0  0  0  0  0  0
   -2.0636   25.5426  -26.9050 H   0  0  0  0  0  0  0  0  0  0  0  0
   -0.7154   24.5771  -27.5957 H   0  0  0  0  0  0  0  0  0  0  0  0
   -0.6273   26.3713  -27.5957 H   0  0  0  0  0  0  0  0  0  0  0  0
   -1.6187   22.8453  -28.7616 H   0  0  0  0  0  0  0  0  0  0  0  0
   -3.2076   21.1436  -29.6497 H   0  0  0  0  0  0  0  0  0  0  0  0
   -6.2325   17.5928  -32.8045 H   0  0  0  0  0  0  0  0  0  0  0  0
   -8.6938   17.1963  -33.1683 H   0  0  0  0  0  0  0  0  0  0  0  0
  -10.3571   18.9465  -32.5136 H   0  0  0  0  0  0  0  0  0  0  0  0
   -9.5908   21.1084  -31.4923 H   0  0  0  0  0  0  0  0  0  0  0  0
   -5.7573   24.3103  -31.1455 H   0  0  0  0  0  0  0  0  0  0  0  0
   -4.1688   26.0064  -30.2577 H   0  0  0  0  0  0  0  0  0  0  0  0
  1  2  1  0
  2  3  1  0
  3  4  2  0
  4  5  1  0
  5  6  2  0
  6  7  1  0
  7  8  1  0
  8  9  1  0
  9 10  2  0
 10 11  1  0
 11 12  2  0
 12 13  1  0
 13 14  2  0
 14 15  1  0
 15 16  2  0
  6 17  1  0
 17 18  2  0
 18  3  1  0
 15  7  1  0
 14  9  1  0
  1 19  1  0
  1 20  1  0
  1 21  1  0
  4 22  1  0
  5 23  1  0
 10 24  1  0
 11 25  1  0
 12 26  1  0
 13 27  1  0
 17 28  1  0
 18 29  1  0
M  END
>  <UniqueID>  (6) 
5

>  <SMILES>  (6) 
COc1ccc(-n2sc3ccccc3c2=O)cc1

>  <Energy>  (6) 
75.80861524437896

>  <Genealogy>  (6) 
COc1ccc(-n2sc3ccccc3c2=O)cc1 (3D coordinates assigned)
COc1ccc(-n2sc3ccccc3c2=O)cc1 (optimized conformer: 75.80861524437896 kcal/mol)

>  <smiles>  (6) 
COc1ccc(-n2sc3ccccc3c2=O)cc1

>  <score_type>  (6) 
oracle

>  <origin>  (6) 
adg

>  <m_score__min__energy>  (6) 
-6.8099999999999996

>  <m_primary>  (6) 
energy

$$$$
6:0
     RDKit          3D

 53 56  0  0  0  0  0  0  0  0999 V2000
   -4.6150   17.1990  -34.9610 C   0  0  0  0  0  0  0  0  0  0  0  0
   -5.4460   17.2650  -33.8070 O   0  0  0  0  0  0  0  0  0  0  0  0
   -5.8470   18.4570  -33.1850 C   0  0  0  0  0  0  0  0  0  0  0  0
   -4.8600   19.2770  -32.6250 C   0  0  0  0  0  0  0  0  0  0  0  0
   -5.2010   20.4760  -31.9930 C   0  0  0  0  0  0  0  0  0  0  0  0
   -6.5450   20.8750  -31.9190 C   0  0  0  0  0  0  0  0  0  0  0  0
   -6.9470   22.0730  -31.2990 C   0  0  0  0  0  0  0  0  0  0  0  0
   -5.9900   22.9640  -30.7170 N   0  0  0  0  0  0  0  0  0  0  0  0
   -6.2680   23.5730  -29.4160 C   0  0  0  0  0  0  0  0  0  0  0  0
   -4.9760   23.6630  -28.5990 C   0  0  0  0  0  0  0  0  0  0  0  0
   -3.8580   24.2010  -29.3940 N   0  0  0  0  0  0  0  0  0  0  0  0
   -2.6130   24.5490  -28.7470 C   0  0  0  0  0  0  0  0  0  0  0  0
   -1.7920   25.3000  -29.3420 O   0  0  0  0  0  0  0  0  0  0  0  0
   -2.3010   24.0520  -27.3530 C   0  0  0  0  0  0  0  0  0  0  0  0
   -2.8190   24.9700  -26.2310 C   0  0  0  0  0  0  0  0  0  0  0  0
   -1.7300   25.4450  -25.3710 N   0  0  0  0  0  0  0  0  0  0  0  0
   -1.5750   26.6990  -24.8970 C   0  0  0  0  0  0  0  0  0  0  0  0
   -0.4750   26.7210  -24.0670 C   0  0  0  0  0  0  0  0  0  0  0  0
    0.0470   25.4820  -24.0110 N   0  0  0  0  0  0  0  0  0  0  0  0
   -0.7350   24.7230  -24.8050 C   0  0  0  0  0  0  0  0  0  0  0  0
   -0.5380   23.2490  -24.9840 C   0  0  0  0  0  0  0  0  0  0  0  0
   -4.0560   24.5120  -30.8200 C   0  0  0  0  0  0  0  0  0  0  0  0
   -4.8340   23.3880  -31.5140 C   0  0  0  0  0  0  0  0  0  0  0  0
   -8.2670   22.3910  -31.2450 N   0  0  0  0  0  0  0  0  0  0  0  0
   -9.2130   21.5790  -31.7860 C   0  0  0  0  0  0  0  0  0  0  0  0
   -8.8500   20.4220  -32.3960 N   0  0  0  0  0  0  0  0  0  0  0  0
   -7.5450   20.0510  -32.4760 C   0  0  0  0  0  0  0  0  0  0  0  0
   -7.1970   18.8500  -33.1050 C   0  0  0  0  0  0  0  0  0  0  0  0
   -3.5629   17.1154  -34.6509 H   0  0  0  0  0  0  0  0  0  0  0  0
   -4.8911   16.3200  -35.5619 H   0  0  0  0  0  0  0  0  0  0  0  0
   -4.7489   18.1106  -35.5619 H   0  0  0  0  0  0  0  0  0  0  0  0
   -3.8041   18.9741  -32.6831 H   0  0  0  0  0  0  0  0  0  0  0  0
   -4.4154   21.1078  -31.5530 H   0  0  0  0  0  0  0  0  0  0  0  0
   -6.6767   24.5833  -29.5655 H   0  0  0  0  0  0  0  0  0  0  0  0
   -6.9983   22.9543  -28.8739 H   0  0  0  0  0  0  0  0  0  0  0  0
   -5.1471   24.3219  -27.7350 H   0  0  0  0  0  0  0  0  0  0  0  0
   -4.7060   22.6467  -28.2762 H   0  0  0  0  0  0  0  0  0  0  0  0
   -2.7603   23.0603  -27.2284 H   0  0  0  0  0  0  0  0  0  0  0  0
   -1.2051   24.0254  -27.2622 H   0  0  0  0  0  0  0  0  0  0  0  0
   -3.3199   25.8383  -26.6839 H   0  0  0  0  0  0  0  0  0  0  0  0
   -3.5179   24.3906  -25.6099 H   0  0  0  0  0  0  0  0  0  0  0  0
   -2.2186   27.5592  -25.1334 H   0  0  0  0  0  0  0  0  0  0  0  0
   -0.0881   27.6045  -23.5382 H   0  0  0  0  0  0  0  0  0  0  0  0
    0.8720   25.1750  -23.4520 H   0  0  0  0  0  0  0  0  0  0  0  0
   -0.4734   22.7653  -23.9982 H   0  0  0  0  0  0  0  0  0  0  0  0
   -1.3882   22.8306  -25.5426 H   0  0  0  0  0  0  0  0  0  0  0  0
    0.3922   23.0686  -25.5426 H   0  0  0  0  0  0  0  0  0  0  0  0
   -4.6207   25.4517  -30.9101 H   0  0  0  0  0  0  0  0  0  0  0  0
   -3.0720   24.6120  -31.3013 H   0  0  0  0  0  0  0  0  0  0  0  0
   -5.1865   23.7480  -32.4918 H   0  0  0  0  0  0  0  0  0  0  0  0
   -4.1619   22.5255  -31.6338 H   0  0  0  0  0  0  0  0  0  0  0  0
  -10.2750   21.8599  -31.7294 H   0  0  0  0  0  0  0  0  0  0  0  0
   -7.9806   18.2110  -33.5383 H   0  0  0  0  0  0  0  0  0  0  0  0
  1  2  1  0
  2  3  1  0
  3  4  2  0
  4  5  1  0
  5  6  2  0
  6  7  1  0
  7  8  1  0
  8  9  1  0
  9 10  1  0
 10 11  1  0
 11 12  1  0
 12 13  2  0
 12 14  1  0
 14 15  1  0
 15 16  1  0
 16 17  1  0
 17 18  2  0
 18 19  1  0
 19 20  2  0
 20 21  1  0
 11 22  1  0
 22 23  1  0
  7 24  2  0
 24 25  1  0
 25 26  2  0
 26 27  1  0
 27 28  2  0
 28  3  1  0
 27  6  1  0
 23  8  1  0
 20 16  1  0
  1 29  1  0
  1 30  1  0
  1 31  1  0
  4 32  1  0
  5 33  1  0
  9 34  1  0
  9 35  1  0
 10 36  1  0
 10 37  1  0
 14 38  1  0
 14 39  1  0
 15 40  1  0
 15 41  1  0
 17 42  1  0
 18 43  1  0
 19 44  1  0
 21 45  1  0
 21 46  1  0
 21 47  1  0
 22 48  1  0
 22 49  1  0
 23 50  1  0
 23 51  1  0
 25 52  1  0
 28 53  1  0
M  CHG  1  19   1
M  END
>  <UniqueID>  (7) 
6

>  <SMILES>  (7) 
COc1ccc2c(N3CCN(C(=O)CCn4cc[nH+]c4C)CC3)ncnc2c1

>  <Energy>  (7) 
93.52815910838582

>  <Genealogy>  (7) 
COc1ccc2c(N3CCN(C(=O)CCn4cc[nH+]c4C)CC3)ncnc2c1 (protonated)
COc1ccc2c(N3CCN(C(=O)CCn4cc[nH+]c4C)CC3)ncnc2c1 (3D coordinates assigned)
COc1ccc2c(N3CCN(C(=O)CCn4cc[nH+]c4C)CC3)ncnc2c1 (nonaromatic ring conformer: 93.52815910838582 kcal/mol)

>  <smiles>  (7) 
COc1ccc2c(N3CCN(C(=O)CCn4ccnc4C)CC3)ncnc2c1

>  <score_type>  (7) 
oracle

>  <origin>  (7) 
adg

>  <m_score__min__energy>  (7) 
-8.0299999999999994

>  <m_primary>  (7) 
energy

$$$$
7:0
     RDKit          3D

 32 34  0  0  0  0  0  0  0  0999 V2000
   -1.6080   25.5750  -29.1370 N   0  0  0  0  0  0  0  0  0  0  0  0
   -2.9340   24.5560  -29.5720 S   0  0  0  0  0  0  0  0  0  0  0  0
   -3.8520   25.2940  -30.5060 O   0  0  0  0  0  0  0  0  0  0  0  0
   -3.7040   24.1840  -28.3340 O   0  0  0  0  0  0  0  0  0  0  0  0
   -2.3270   23.1040  -30.3600 C   0  0  0  0  0  0  0  0  0  0  0  0
   -1.0300   22.6440  -30.0940 C   0  0  0  0  0  0  0  0  0  0  0  0
   -0.5420   21.5090  -30.7470 C   0  0  0  0  0  0  0  0  0  0  0  0
   -1.3470   20.8240  -31.6610 C   0  0  0  0  0  0  0  0  0  0  0  0
   -2.6530   21.2560  -31.9180 C   0  0  0  0  0  0  0  0  0  0  0  0
   -3.4370   20.5430  -32.8880 N   0  0  0  0  0  0  0  0  0  0  0  0
   -4.7260   20.3560  -32.8670 C   0  0  0  0  0  0  0  0  0  0  0  0
   -5.2450   19.1200  -33.2730 C   0  0  0  0  0  0  0  0  0  0  0  0
   -6.6240   18.9000  -33.2330 C   0  0  0  0  0  0  0  0  0  0  0  0
   -7.4780   19.9130  -32.7830 C   0  0  0  0  0  0  0  0  0  0  0  0
   -8.8680   19.7280  -32.7310 C   0  0  0  0  0  0  0  0  0  0  0  0
   -9.6930   20.7610  -32.2730 C   0  0  0  0  0  0  0  0  0  0  0  0
   -9.1370   21.9790  -31.8660 C   0  0  0  0  0  0  0  0  0  0  0  0
   -7.7530   22.1700  -31.9140 C   0  0  0  0  0  0  0  0  0  0  0  0
   -6.9200   21.1440  -32.3710 C   0  0  0  0  0  0  0  0  0  0  0  0
   -5.5730   21.3260  -32.4200 N   0  0  0  0  0  0  0  0  0  0  0  0
   -3.1300   22.4210  -31.2840 C   0  0  0  0  0  0  0  0  0  0  0  0
   -1.2380   25.9880  -30.0220 H   0  0  0  0  0  0  0  0  0  0  0  0
   -0.3956   23.1770  -29.3705 H   0  0  0  0  0  0  0  0  0  0  0  0
    0.4785   21.1539  -30.5410 H   0  0  0  0  0  0  0  0  0  0  0  0
   -0.9516   19.9395  -32.1818 H   0  0  0  0  0  0  0  0  0  0  0  0
   -4.5692   18.3254  -33.6221 H   0  0  0  0  0  0  0  0  0  0  0  0
   -7.0375   17.9327  -33.5545 H   0  0  0  0  0  0  0  0  0  0  0  0
   -9.3085   18.7719  -33.0500 H   0  0  0  0  0  0  0  0  0  0  0  0
  -10.7826   20.6152  -32.2327 H   0  0  0  0  0  0  0  0  0  0  0  0
   -9.7905   22.7880  -31.5075 H   0  0  0  0  0  0  0  0  0  0  0  0
   -7.3189   23.1281  -31.5920 H   0  0  0  0  0  0  0  0  0  0  0  0
   -4.1378   22.7962  -31.5155 H   0  0  0  0  0  0  0  0  0  0  0  0
  1  2  1  0
  2  3  2  0
  2  4  2  0
  2  5  1  0
  5  6  2  0
  6  7  1  0
  7  8  2  0
  8  9  1  0
  9 10  1  0
 10 11  2  3
 11 12  1  0
 12 13  2  0
 13 14  1  0
 14 15  2  0
 15 16  1  0
 16 17  2  0
 17 18  1  0
 18 19  2  0
 19 20  1  0
  9 21  2  0
 21  5  1  0
 20 11  1  0
 19 14  1  0
  1 22  1  0
  6 23  1  0
  7 24  1  0
  8 25  1  0
 12 26  1  0
 13 27  1  0
 15 28  1  0
 16 29  1  0
 17 30  1  0
 18 31  1  0
 21 32  1  0
M  CHG  2   1  -1  20  -1
M  END
>  <UniqueID>  (8) 
7

>  <SMILES>  (8) 
[NH-]S(=O)(=O)c1cccc(N=c2ccc3ccccc3[n-]2)c1

>  <Energy>  (8) 
43.64134626920889

>  <Genealogy>  (8) 
[NH-]S(=O)(=O)c1cccc(N=c2ccc3ccccc3[n-]2)c1 (protonated)
[NH-]S(=O)(=O)c1cccc(N=c2ccc3ccccc3[n-]2)c1 (3D coordinates assigned)
[NH-]S(=O)(=O)c1cccc(N=c2ccc3ccccc3[n-]2)c1 (optimized conformer: 43.64134626920889 kcal/mol)

>  <smiles>  (8) 
NS(=O)(=O)c1cccc(N=c2ccc3ccccc3[nH]2)c1

>  <score_type>  (8) 
oracle

>  <origin>  (8) 
adg

>  <m_score__min__energy>  (8) 
-10.869999999999999

>  <m_primary>  (8) 
energy

$$$$
8:0
     RDKit          3D

 56 58  0  0  0  0  0  0  0  0999 V2000
   -8.7950   19.5390  -31.5210 C   0  0  0  0  0  0  0  0  0  0  0  0
   -7.6450   19.0220  -32.3310 C   0  0  0  0  0  0  0  0  0  0  0  0
   -6.9610   17.8610  -31.9400 C   0  0  0  0  0  0  0  0  0  0  0  0
   -5.8670   17.4030  -32.6790 C   0  0  0  0  0  0  0  0  0  0  0  0
   -5.4300   18.1100  -33.8100 C   0  0  0  0  0  0  0  0  0  0  0  0
   -4.2360   17.6340  -34.5970 C   0  0  0  0  0  0  0  0  0  0  0  0
   -2.9170   17.9590  -33.8860 C   0  0  0  0  0  0  0  0  0  0  0  0
   -2.9220   19.3140  -33.3360 N   0  0  0  0  0  0  0  0  0  0  0  0
   -1.7810   20.1700  -33.4630 C   0  0  0  0  0  0  0  0  0  0  0  0
   -0.8010   19.8210  -34.1770 O   0  0  0  0  0  0  0  0  0  0  0  0
   -1.7520   21.5050  -32.7770 C   0  0  0  0  0  0  0  0  0  0  0  0
   -2.6870   21.5410  -31.6420 N   0  0  0  0  0  0  0  0  0  0  0  0
   -2.2120   21.6090  -30.2800 C   0  0  0  0  0  0  0  0  0  0  0  0
   -2.7970   20.8190  -29.2760 C   0  0  0  0  0  0  0  0  0  0  0  0
   -2.3610   20.9190  -27.9510 C   0  0  0  0  0  0  0  0  0  0  0  0
   -1.3170   21.7910  -27.6130 C   0  0  0  0  0  0  0  0  0  0  0  0
   -0.8800   21.9250  -26.1850 C   0  0  0  0  0  0  0  0  0  0  0  0
   -0.7350   22.5840  -28.6100 C   0  0  0  0  0  0  0  0  0  0  0  0
   -1.1850   22.5030  -29.9300 C   0  0  0  0  0  0  0  0  0  0  0  0
   -4.3950   21.5310  -31.9800 S   0  0  0  0  0  0  0  0  0  0  0  0
   -4.6070   21.5390  -33.4680 O   0  0  0  0  0  0  0  0  0  0  0  0
   -5.0370   20.3010  -31.4040 O   0  0  0  0  0  0  0  0  0  0  0  0
   -5.1520   22.9360  -31.2370 C   0  0  0  0  0  0  0  0  0  0  0  0
   -6.5510   23.0370  -31.2140 C   0  0  0  0  0  0  0  0  0  0  0  0
   -7.1650   24.1410  -30.6150 C   0  0  0  0  0  0  0  0  0  0  0  0
   -6.3870   25.1450  -30.0310 C   0  0  0  0  0  0  0  0  0  0  0  0
   -4.9920   25.0470  -30.0460 C   0  0  0  0  0  0  0  0  0  0  0  0
   -4.3730   23.9440  -30.6460 C   0  0  0  0  0  0  0  0  0  0  0  0
   -6.1150   19.2720  -34.2010 C   0  0  0  0  0  0  0  0  0  0  0  0
   -7.2140   19.7260  -33.4650 C   0  0  0  0  0  0  0  0  0  0  0  0
   -8.5651   19.4356  -30.4503 H   0  0  0  0  0  0  0  0  0  0  0  0
   -8.9637   20.5996  -31.7591 H   0  0  0  0  0  0  0  0  0  0  0  0
   -9.7003   18.9612  -31.7591 H   0  0  0  0  0  0  0  0  0  0  0  0
   -7.2877   17.3083  -31.0468 H   0  0  0  0  0  0  0  0  0  0  0  0
   -5.3458   16.4840  -32.3729 H   0  0  0  0  0  0  0  0  0  0  0  0
   -4.3092   16.5446  -34.7304 H   0  0  0  0  0  0  0  0  0  0  0  0
   -4.2377   18.1529  -35.5669 H   0  0  0  0  0  0  0  0  0  0  0  0
   -2.7672   17.2413  -33.0659 H   0  0  0  0  0  0  0  0  0  0  0  0
   -2.1028   17.8894  -34.6224 H   0  0  0  0  0  0  0  0  0  0  0  0
   -3.7540   19.6630  -32.8080 H   0  0  0  0  0  0  0  0  0  0  0  0
   -0.7334   21.6970  -32.4088 H   0  0  0  0  0  0  0  0  0  0  0  0
   -2.0545   22.2753  -33.5017 H   0  0  0  0  0  0  0  0  0  0  0  0
   -3.6036   20.1170  -29.5340 H   0  0  0  0  0  0  0  0  0  0  0  0
   -2.8399   20.3101  -27.1700 H   0  0  0  0  0  0  0  0  0  0  0  0
   -1.7175   21.6682  -25.5196 H   0  0  0  0  0  0  0  0  0  0  0  0
   -0.0377   21.2439  -25.9939 H   0  0  0  0  0  0  0  0  0  0  0  0
   -0.5643   22.9612  -25.9939 H   0  0  0  0  0  0  0  0  0  0  0  0
    0.0813   23.2747  -28.3521 H   0  0  0  0  0  0  0  0  0  0  0  0
   -0.7324   23.1435  -30.7013 H   0  0  0  0  0  0  0  0  0  0  0  0
   -7.1660   22.2461  -31.6681 H   0  0  0  0  0  0  0  0  0  0  0  0
   -8.2621   24.2198  -30.6032 H   0  0  0  0  0  0  0  0  0  0  0  0
   -6.8722   26.0123  -29.5595 H   0  0  0  0  0  0  0  0  0  0  0  0
   -4.3806   25.8373  -29.5859 H   0  0  0  0  0  0  0  0  0  0  0  0
   -3.2757   23.8668  -30.6545 H   0  0  0  0  0  0  0  0  0  0  0  0
   -5.7853   19.8280  -35.0910 H   0  0  0  0  0  0  0  0  0  0  0  0
   -7.7426   20.6389  -33.7767 H   0  0  0  0  0  0  0  0  0  0  0  0
  1  2  1  0
  2  3  2  0
  3  4  1  0
  4  5  2  0
  5  6  1  0
  6  7  1  0
  7  8  1  0
  8  9  1  0
  9 10  2  0
  9 11  1  0
 11 12  1  0
 12 13  1  0
 13 14  2  0
 14 15  1  0
 15 16  2  0
 16 17  1  0
 16 18  1  0
 18 19  2  0
 12 20  1  0
 20 21  2  0
 20 22  2  0
 20 23  1  0
 23 24  2  0
 24 25  1  0
 25 26  2  0
 26 27  1  0
 27 28  2  0
  5 29  1  0
 29 30  2  0
 30  2  1  0
 19 13  1  0
 28 23  1  0
  1 31  1  0
  1 32  1  0
  1 33  1  0
  3 34  1  0
  4 35  1  0
  6 36  1  0
  6 37  1  0
  7 38  1  0
  7 39  1  0
  8 40  1  0
 11 41  1  0
 11 42  1  0
 14 43  1  0
 15 44  1  0
 17 45  1  0
 17 46  1  0
 17 47  1  0
 18 48  1  0
 19 49  1  0
 24 50  1  0
 25 51  1  0
 26 52  1  0
 27 53  1  0
 28 54  1  0
 29 55  1  0
 30 56  1  0
M  END
>  <UniqueID>  (9) 
8

>  <SMILES>  (9) 
Cc1ccc(CCNC(=O)CN(c2ccc(C)cc2)S(=O)(=O)c2ccccc2)cc1

>  <Energy>  (9) 
50.90548217360975

>  <Genealogy>  (9) 
Cc1ccc(CCNC(=O)CN(c2ccc(C)cc2)S(=O)(=O)c2ccccc2)cc1 (3D coordinates assigned)
Cc1ccc(CCNC(=O)CN(c2ccc(C)cc2)S(=O)(=O)c2ccccc2)cc1 (optimized conformer: 50.90548217360975 kcal/mol)

>  <smiles>  (9) 
Cc1ccc(CCNC(=O)CN(c2ccc(C)cc2)S(=O)(=O)c2ccccc2)cc1

>  <score_type>  (9) 
oracle

>  <origin>  (9) 
adg

>  <m_score__min__energy>  (9) 
-11.17

>  <m_primary>  (9) 
energy

$$$$
9:0
     RDKit          3D

 40 43  0  0  0  0  0  0  0  0999 V2000
   -4.9900   25.2910  -30.1130 C   0  0  0  0  0  0  0  0  0  0  0  0
   -3.6000   25.2610  -30.4130 O   0  0  0  0  0  0  0  0  0  0  0  0
   -2.6710   24.5480  -29.6480 C   0  0  0  0  0  0  0  0  0  0  0  0
   -2.0040   25.1650  -28.6300 N   0  0  0  0  0  0  0  0  0  0  0  0
   -1.0750   24.5200  -27.8780 C   0  0  0  0  0  0  0  0  0  0  0  0
   -0.7710   23.1840  -28.1400 C   0  0  0  0  0  0  0  0  0  0  0  0
   -1.4360   22.5220  -29.1740 C   0  0  0  0  0  0  0  0  0  0  0  0
   -2.4030   23.1950  -29.9380 C   0  0  0  0  0  0  0  0  0  0  0  0
   -3.1160   22.4810  -31.0250 C   0  0  0  0  0  0  0  0  0  0  0  0
   -2.3940   21.8990  -32.0830 C   0  0  0  0  0  0  0  0  0  0  0  0
   -3.0620   21.2250  -33.1070 C   0  0  0  0  0  0  0  0  0  0  0  0
   -4.4550   21.1190  -33.0850 C   0  0  0  0  0  0  0  0  0  0  0  0
   -5.1900   21.6850  -32.0340 C   0  0  0  0  0  0  0  0  0  0  0  0
   -6.6270   21.5730  -32.0080 N   0  0  0  0  0  0  0  0  0  0  0  0
   -7.3970   22.7110  -32.0040 C   0  0  0  0  0  0  0  0  0  0  0  0
   -6.8580   23.8520  -32.0120 O   0  0  0  0  0  0  0  0  0  0  0  0
   -8.7930   22.6240  -31.9800 C   0  0  0  0  0  0  0  0  0  0  0  0
   -9.4080   21.3750  -31.9580 C   0  0  0  0  0  0  0  0  0  0  0  0
   -8.6260   20.2180  -31.9620 C   0  0  0  0  0  0  0  0  0  0  0  0
   -9.2120   18.9460  -31.9470 C   0  0  0  0  0  0  0  0  0  0  0  0
   -8.4010   17.8100  -31.9640 C   0  0  0  0  0  0  0  0  0  0  0  0
   -7.0140   17.9590  -31.9970 C   0  0  0  0  0  0  0  0  0  0  0  0
   -6.4590   19.2000  -32.0090 N   0  0  0  0  0  0  0  0  0  0  0  0
   -7.2180   20.3340  -31.9880 C   0  0  0  0  0  0  0  0  0  0  0  0
   -4.5160   22.3610  -31.0040 C   0  0  0  0  0  0  0  0  0  0  0  0
   -5.1296   25.2940  -29.0219 H   0  0  0  0  0  0  0  0  0  0  0  0
   -5.4383   26.1990  -30.5425 H   0  0  0  0  0  0  0  0  0  0  0  0
   -5.4771   24.4032  -30.5425 H   0  0  0  0  0  0  0  0  0  0  0  0
   -0.5623   25.0510  -27.0624 H   0  0  0  0  0  0  0  0  0  0  0  0
   -0.0154   22.6576  -27.5384 H   0  0  0  0  0  0  0  0  0  0  0  0
   -1.2015   21.4694  -29.3909 H   0  0  0  0  0  0  0  0  0  0  0  0
   -1.2969   21.9755  -32.1035 H   0  0  0  0  0  0  0  0  0  0  0  0
   -2.4904   20.7764  -33.9329 H   0  0  0  0  0  0  0  0  0  0  0  0
   -4.9770   20.5893  -33.8955 H   0  0  0  0  0  0  0  0  0  0  0  0
   -9.4029   23.5394  -31.9785 H   0  0  0  0  0  0  0  0  0  0  0  0
  -10.5052   21.2999  -31.9376 H   0  0  0  0  0  0  0  0  0  0  0  0
  -10.3068   18.8426  -31.9219 H   0  0  0  0  0  0  0  0  0  0  0  0
   -8.8512   16.8064  -31.9515 H   0  0  0  0  0  0  0  0  0  0  0  0
   -6.3674   17.0692  -32.0134 H   0  0  0  0  0  0  0  0  0  0  0  0
   -5.0887   22.8002  -30.1739 H   0  0  0  0  0  0  0  0  0  0  0  0
  1  2  1  0
  2  3  1  0
  3  4  2  0
  4  5  1  0
  5  6  2  0
  6  7  1  0
  7  8  2  0
  8  9  1  0
  9 10  2  0
 10 11  1  0
 11 12  2  0
 12 13  1  0
 13 14  1  0
 14 15  1  0
 15 16  2  0
 15 17  1  0
 17 18  2  0
 18 19  1  0
 19 20  2  0
 20 21  1  0
 21 22  2  0
 22 23  1  0
 23 24  2  0
 13 25  2  0
  8  3  1  0
 25  9  1  0
 24 14  1  0
 24 19  1  0
  1 26  1  0
  1 27  1  0
  1 28  1  0
  5 29  1  0
  6 30  1  0
  7 31  1  0
 10 32  1  0
 11 33  1  0
 12 34  1  0
 17 35  1  0
 18 36  1  0
 20 37  1  0
 21 38  1  0
 22 39  1  0
 25 40  1  0
M  END
>  <UniqueID>  (10) 
9

>  <SMILES>  (10) 
COc1ncccc1-c1cccc(-n2c(=O)ccc3cccnc32)c1

>  <Energy>  (10) 
63.29520945393568

>  <Genealogy>  (10) 
COc1ncccc1-c1cccc(-n2c(=O)ccc3cccnc32)c1 (3D coordinates assigned)
COc1ncccc1-c1cccc(-n2c(=O)ccc3cccnc32)c1 (optimized conformer: 63.29520945393568 kcal/mol)

>  <smiles>  (10) 
COc1ncccc1-c1cccc(-n2c(=O)ccc3cccnc32)c1

>  <score_type>  (10) 
oracle

>  <origin>  (10) 
adg

>  <m_score__min__energy>  (10) 
-9.5700000000000003

>  <m_primary>  (10) 
energy

$$$$
10:0
     RDKit          3D

 48 51  0  0  0  0  0  0  0  0999 V2000
   -4.1070   19.9040  -33.5080 C   0  0  0  0  0  0  0  0  0  0  0  0
   -3.8690   20.8510  -32.3550 C   0  0  0  0  0  0  0  0  0  0  0  0
   -2.5750   21.3470  -32.0560 C   0  0  0  0  0  0  0  0  0  0  0  0
   -1.3460   20.8790  -32.7340 C   0  0  0  0  0  0  0  0  0  0  0  0
   -1.0270   21.1270  -34.0650 C   0  0  0  0  0  0  0  0  0  0  0  0
    0.2470   20.6730  -34.4290 C   0  0  0  0  0  0  0  0  0  0  0  0
    0.9510   20.0890  -33.3840 C   0  0  0  0  0  0  0  0  0  0  0  0
   -0.0130   20.1430  -32.0090 S   0  0  0  0  0  0  0  0  0  0  0  0
   -2.4350   22.3070  -31.1040 N   0  0  0  0  0  0  0  0  0  0  0  0
   -3.4890   22.7780  -30.3920 C   0  0  0  0  0  0  0  0  0  0  0  0
   -3.3020   23.8140  -29.4040 N   0  0  0  0  0  0  0  0  0  0  0  0
   -2.0050   24.5080  -29.3030 C   0  0  0  0  0  0  0  0  0  0  0  0
   -1.0810   23.8610  -28.2540 C   0  0  0  0  0  0  0  0  0  0  0  0
   -1.6210   23.8910  -26.8140 C   0  0  0  0  0  0  0  0  0  0  0  0
   -2.8610   24.7810  -26.6210 C   0  0  0  0  0  0  0  0  0  0  0  0
   -4.2060   24.1690  -27.0670 C   0  0  0  0  0  0  0  0  0  0  0  0
   -4.4610   24.2260  -28.5860 C   0  0  0  0  0  0  0  0  0  0  0  0
   -4.7250   22.2670  -30.6190 N   0  0  0  0  0  0  0  0  0  0  0  0
   -4.9470   21.3160  -31.5630 C   0  0  0  0  0  0  0  0  0  0  0  0
   -6.3260   20.8030  -31.7150 C   0  0  0  0  0  0  0  0  0  0  0  0
   -6.5590   19.4170  -31.6650 C   0  0  0  0  0  0  0  0  0  0  0  0
   -7.8570   18.9130  -31.7810 C   0  0  0  0  0  0  0  0  0  0  0  0
   -8.9340   19.7860  -31.9400 C   0  0  0  0  0  0  0  0  0  0  0  0
   -8.7170   21.1650  -31.9820 C   0  0  0  0  0  0  0  0  0  0  0  0
   -7.4200   21.6810  -31.8670 C   0  0  0  0  0  0  0  0  0  0  0  0
   -7.2000   23.4260  -31.9570 Cl  0  0  0  0  0  0  0  0  0  0  0  0
   -4.3577   18.9066  -33.1176 H   0  0  0  0  0  0  0  0  0  0  0  0
   -4.9394   20.2769  -34.1229 H   0  0  0  0  0  0  0  0  0  0  0  0
   -3.1972   19.8390  -34.1229 H   0  0  0  0  0  0  0  0  0  0  0  0
   -1.7098   21.6313  -34.7646 H   0  0  0  0  0  0  0  0  0  0  0  0
    0.6520   20.7699  -35.4471 H   0  0  0  0  0  0  0  0  0  0  0  0
    1.9640   19.6647  -33.4458 H   0  0  0  0  0  0  0  0  0  0  0  0
   -1.5072   24.4737  -30.2833 H   0  0  0  0  0  0  0  0  0  0  0  0
   -2.1992   25.5444  -28.9897 H   0  0  0  0  0  0  0  0  0  0  0  0
   -0.9229   22.8103  -28.5386 H   0  0  0  0  0  0  0  0  0  0  0  0
   -0.1540   24.4532  -28.2499 H   0  0  0  0  0  0  0  0  0  0  0  0
   -1.8860   22.8635  -26.5240 H   0  0  0  0  0  0  0  0  0  0  0  0
   -0.8248   24.3202  -26.1880 H   0  0  0  0  0  0  0  0  0  0  0  0
   -2.9391   25.0227  -25.5507 H   0  0  0  0  0  0  0  0  0  0  0  0
   -2.7029   25.6562  -27.2683 H   0  0  0  0  0  0  0  0  0  0  0  0
   -4.2241   23.1144  -26.7548 H   0  0  0  0  0  0  0  0  0  0  0  0
   -4.9960   24.7708  -26.5941 H   0  0  0  0  0  0  0  0  0  0  0  0
   -5.3046   23.5602  -28.8207 H   0  0  0  0  0  0  0  0  0  0  0  0
   -4.6699   25.2768  -28.8352 H   0  0  0  0  0  0  0  0  0  0  0  0
   -5.7139   18.7252  -31.5337 H   0  0  0  0  0  0  0  0  0  0  0  0
   -8.0300   17.8272  -31.7470 H   0  0  0  0  0  0  0  0  0  0  0  0
   -9.9551   19.3875  -32.0324 H   0  0  0  0  0  0  0  0  0  0  0  0
   -9.5691   21.8494  -32.1060 H   0  0  0  0  0  0  0  0  0  0  0  0
  1  2  1  0
  2  3  2  0
  3  4  1  0
  4  5  2  0
  5  6  1  0
  6  7  2  0
  7  8  1  0
  3  9  1  0
  9 10  2  0
 10 11  1  0
 11 12  1  0
 12 13  1  0
 13 14  1  0
 14 15  1  0
 15 16  1  0
 16 17  1  0
 10 18  1  0
 18 19  2  0
 19 20  1  0
 20 21  2  0
 21 22  1  0
 22 23  2  0
 23 24  1  0
 24 25  2  0
 25 26  1  0
 19  2  1  0
 25 20  1  0
  8  4  1  0
 17 11  1  0
  1 27  1  0
  1 28  1  0
  1 29  1  0
  5 30  1  0
  6 31  1  0
  7 32  1  0
 12 33  1  0
 12 34  1  0
 13 35  1  0
 13 36  1  0
 14 37  1  0
 14 38  1  0
 15 39  1  0
 15 40  1  0
 16 41  1  0
 16 42  1  0
 17 43  1  0
 17 44  1  0
 21 45  1  0
 22 46  1  0
 23 47  1  0
 24 48  1  0
M  END
>  <UniqueID>  (11) 
10

>  <SMILES>  (11) 
Cc1c(-c2cccs2)nc(N2CCCCCC2)nc1-c1ccccc1Cl

>  <Energy>  (11) 
95.99011718027363

>  <Genealogy>  (11) 
Cc1c(-c2cccs2)nc(N2CCCCCC2)nc1-c1ccccc1Cl (3D coordinates assigned)
Cc1c(-c2cccs2)nc(N2CCCCCC2)nc1-c1ccccc1Cl (nonaromatic ring conformer: 95.99011718027363 kcal/mol)

>  <smiles>  (11) 
Cc1c(-c2cccs2)nc(N2CCCCCC2)nc1-c1ccccc1Cl

>  <score_type>  (11) 
oracle

>  <origin>  (11) 
adg

>  <m_score__min__energy>  (11) 
-6.7999999999999998

>  <m_primary>  (11) 
energy

$$$$
11:0
     RDKit          3D

 39 39  0  0  0  0  0  0  0  0999 V2000
   -9.3150   21.5830  -31.1300 C   0  0  0  0  0  0  0  0  0  0  0  0
   -9.5270   20.6710  -32.3370 C   0  0  0  0  0  0  0  0  0  0  0  0
   -8.9160   19.2550  -32.1830 C   0  0  0  0  0  0  0  0  0  0  0  0
   -7.6160   19.0060  -32.8700 N   0  0  0  0  0  0  0  0  0  0  0  0
   -7.2310   17.5710  -32.9510 C   0  0  0  0  0  0  0  0  0  0  0  0
   -5.8810   17.3110  -33.6550 C   0  0  0  0  0  0  0  0  0  0  0  0
   -5.7270   18.0860  -34.9620 C   0  0  0  0  0  0  0  0  0  0  0  0
   -6.5090   19.8190  -32.2930 C   0  0  0  0  0  0  0  0  0  0  0  0
   -6.3430   21.1720  -33.0110 C   0  0  0  0  0  0  0  0  0  0  0  0
   -5.6040   22.1480  -32.1350 C   0  0  0  0  0  0  0  0  0  0  0  0
   -4.2160   22.0280  -31.9560 C   0  0  0  0  0  0  0  0  0  0  0  0
   -3.5360   22.9140  -31.1140 C   0  0  0  0  0  0  0  0  0  0  0  0
   -4.2360   23.9180  -30.4390 C   0  0  0  0  0  0  0  0  0  0  0  0
   -5.6210   24.0350  -30.6000 C   0  0  0  0  0  0  0  0  0  0  0  0
   -6.5010   25.2870  -29.7430 Cl  0  0  0  0  0  0  0  0  0  0  0  0
   -6.3050   23.1500  -31.4420 C   0  0  0  0  0  0  0  0  0  0  0  0
   -9.4497   21.0037  -30.2046 H   0  0  0  0  0  0  0  0  0  0  0  0
   -8.2965   21.9976  -31.1581 H   0  0  0  0  0  0  0  0  0  0  0  0
  -10.0462   22.4043  -31.1581 H   0  0  0  0  0  0  0  0  0  0  0  0
  -10.6093   20.5630  -32.5010 H   0  0  0  0  0  0  0  0  0  0  0  0
   -9.0109   21.1458  -33.1845 H   0  0  0  0  0  0  0  0  0  0  0  0
   -8.7652   19.0725  -31.1088 H   0  0  0  0  0  0  0  0  0  0  0  0
   -9.6332   18.5773  -32.6691 H   0  0  0  0  0  0  0  0  0  0  0  0
   -7.7590   19.3430  -33.8510 H   0  0  0  0  0  0  0  0  0  0  0  0
   -7.1672   17.1737  -31.9273 H   0  0  0  0  0  0  0  0  0  0  0  0
   -8.0020   17.0730  -33.5572 H   0  0  0  0  0  0  0  0  0  0  0  0
   -5.0689   17.6072  -32.9748 H   0  0  0  0  0  0  0  0  0  0  0  0
   -5.8415   16.2399  -33.9025 H   0  0  0  0  0  0  0  0  0  0  0  0
   -5.5171   19.1425  -34.7392 H   0  0  0  0  0  0  0  0  0  0  0  0
   -4.8956   17.6618  -35.5441 H   0  0  0  0  0  0  0  0  0  0  0  0
   -6.6574   18.0119  -35.5441 H   0  0  0  0  0  0  0  0  0  0  0  0
   -6.7239   20.0061  -31.2306 H   0  0  0  0  0  0  0  0  0  0  0  0
   -5.5741   19.2534  -32.4196 H   0  0  0  0  0  0  0  0  0  0  0  0
   -5.7766   21.0205  -33.9417 H   0  0  0  0  0  0  0  0  0  0  0  0
   -7.3397   21.5799  -33.2350 H   0  0  0  0  0  0  0  0  0  0  0  0
   -3.6621   21.2348  -32.4796 H   0  0  0  0  0  0  0  0  0  0  0  0
   -2.4479   22.8204  -30.9827 H   0  0  0  0  0  0  0  0  0  0  0  0
   -3.6980   24.6163  -29.7811 H   0  0  0  0  0  0  0  0  0  0  0  0
   -7.3948   23.2391  -31.5616 H   0  0  0  0  0  0  0  0  0  0  0  0
  1  2  1  0
  2  3  1  0
  3  4  1  0
  4  5  1  0
  5  6  1  0
  6  7  1  0
  4  8  1  0
  8  9  1  0
  9 10  1  0
 10 11  2  0
 11 12  1  0
 12 13  2  0
 13 14  1  0
 14 15  1  0
 14 16  2  0
 16 10  1  0
  1 17  1  0
  1 18  1  0
  1 19  1  0
  2 20  1  0
  2 21  1  0
  3 22  1  0
  3 23  1  0
  4 24  1  0
  5 25  1  0
  5 26  1  0
  6 27  1  0
  6 28  1  0
  7 29  1  0
  7 30  1  0
  7 31  1  0
  8 32  1  0
  8 33  1  0
  9 34  1  0
  9 35  1  0
 11 36  1  0
 12 37  1  0
 13 38  1  0
 16 39  1  0
M  CHG  1   4   1
M  END
>  <UniqueID>  (12) 
11

>  <SMILES>  (12) 
CCC[NH+](CCC)CCc1cccc(Cl)c1

>  <Energy>  (12) 
38.09836227311404

>  <Genealogy>  (12) 
CCC[NH+](CCC)CCc1cccc(Cl)c1 (protonated)
CCC[NH+](CCC)CCc1cccc(Cl)c1 (3D coordinates assigned)
CCC[NH+](CCC)CCc1cccc(Cl)c1 (optimized conformer: 38.09836227311404 kcal/mol)

>  <smiles>  (12) 
CCCN(CCC)CCc1cccc(Cl)c1

>  <score_type>  (12) 
oracle

>  <origin>  (12) 
adg

>  <m_score__min__energy>  (12) 
-5.6900000000000004

>  <m_primary>  (12) 
energy

$$$$
12:0
     RDKit          3D

 46 48  0  0  0  0  0  0  0  0999 V2000
   -4.0390   21.6820  -33.0870 O   0  0  0  0  0  0  0  0  0  0  0  0
   -4.3220   20.3290  -32.8310 C   0  0  0  0  0  0  0  0  0  0  0  0
   -5.8510   20.0270  -32.9000 C   0  0  1  0  0  0  0  0  0  0  0  0
   -6.1480   19.2240  -34.2170 C   0  0  0  0  0  0  0  0  0  0  0  0
   -5.6780   17.7820  -34.2200 C   0  0  0  0  0  0  0  0  0  0  0  0
   -6.5520   16.7390  -33.8670 C   0  0  0  0  0  0  0  0  0  0  0  0
   -6.1110   15.4120  -33.8760 C   0  0  0  0  0  0  0  0  0  0  0  0
   -4.7990   15.1120  -34.2500 C   0  0  0  0  0  0  0  0  0  0  0  0
   -4.3740   13.8240  -34.2590 F   0  0  0  0  0  0  0  0  0  0  0  0
   -3.9280   16.1380  -34.6230 C   0  0  0  0  0  0  0  0  0  0  0  0
   -4.3640   17.4660  -34.6140 C   0  0  0  0  0  0  0  0  0  0  0  0
   -6.2610   19.2200  -31.6410 C   0  0  0  0  0  0  0  0  0  0  0  0
   -7.7700   18.9560  -31.5400 C   0  0  0  0  0  0  0  0  0  0  0  0
   -8.6470   20.0680  -32.1370 C   0  0  0  0  0  0  0  0  0  0  0  0
   -7.9580   21.3640  -32.2600 N   0  0  0  0  0  0  0  0  0  0  0  0
   -8.1560   22.3240  -31.1520 C   0  0  0  0  0  0  0  0  0  0  0  0
   -6.8990   23.0720  -30.7830 C   0  0  0  0  0  0  0  0  0  0  0  0
   -6.1440   22.7000  -29.6590 C   0  0  0  0  0  0  0  0  0  0  0  0
   -4.9940   23.4140  -29.3210 C   0  0  0  0  0  0  0  0  0  0  0  0
   -4.5980   24.4890  -30.1180 C   0  0  0  0  0  0  0  0  0  0  0  0
   -5.3240   24.8260  -31.2160 N   0  0  0  0  0  0  0  0  0  0  0  0
   -6.4490   24.1470  -31.5650 C   0  0  0  0  0  0  0  0  0  0  0  0
   -6.6400   21.3850  -32.9360 C   0  0  0  0  0  0  0  0  0  0  0  0
   -4.5780   21.9530  -33.8760 H   0  0  0  0  0  0  0  0  0  0  0  0
   -3.8040   19.7105  -33.5787 H   0  0  0  0  0  0  0  0  0  0  0  0
   -3.9761   20.0969  -31.8129 H   0  0  0  0  0  0  0  0  0  0  0  0
   -7.2362   19.2265  -34.3779 H   0  0  0  0  0  0  0  0  0  0  0  0
   -5.5820   19.7288  -35.0138 H   0  0  0  0  0  0  0  0  0  0  0  0
   -7.5894   16.9682  -33.5819 H   0  0  0  0  0  0  0  0  0  0  0  0
   -6.7985   14.6030  -33.5881 H   0  0  0  0  0  0  0  0  0  0  0  0
   -2.8971   15.9006  -34.9244 H   0  0  0  0  0  0  0  0  0  0  0  0
   -3.6761   18.2692  -34.9167 H   0  0  0  0  0  0  0  0  0  0  0  0
   -5.7401   18.2515  -31.6648 H   0  0  0  0  0  0  0  0  0  0  0  0
   -5.9820   19.8260  -30.7664 H   0  0  0  0  0  0  0  0  0  0  0  0
   -7.9923   18.0189  -32.0715 H   0  0  0  0  0  0  0  0  0  0  0  0
   -8.0104   18.9061  -30.4678 H   0  0  0  0  0  0  0  0  0  0  0  0
   -8.9741   19.7522  -33.1386 H   0  0  0  0  0  0  0  0  0  0  0  0
   -9.4909   20.2169  -31.4473 H   0  0  0  0  0  0  0  0  0  0  0  0
   -8.9214   23.0540  -31.4543 H   0  0  0  0  0  0  0  0  0  0  0  0
   -8.4636   21.7452  -30.2686 H   0  0  0  0  0  0  0  0  0  0  0  0
   -6.4597   21.8443  -29.0440 H   0  0  0  0  0  0  0  0  0  0  0  0
   -4.4054   23.1325  -28.4354 H   0  0  0  0  0  0  0  0  0  0  0  0
   -3.6973   25.0640  -29.8571 H   0  0  0  0  0  0  0  0  0  0  0  0
   -7.0092   24.4416  -32.4646 H   0  0  0  0  0  0  0  0  0  0  0  0
   -6.8016   21.6574  -33.9894 H   0  0  0  0  0  0  0  0  0  0  0  0
   -6.0247   22.1116  -32.3851 H   0  0  0  0  0  0  0  0  0  0  0  0
  1  2  1  0
  3  2  1  1
  3  4  1  0
  4  5  1  0
  5  6  2  0
  6  7  1  0
  7  8  2  0
  8  9  1  0
  8 10  1  0
 10 11  2  0
  3 12  1  0
 12 13  1  0
 13 14  1  0
 14 15  1  0
 15 16  1  0
 16 17  1  0
 17 18  2  0
 18 19  1  0
 19 20  2  0
 20 21  1  0
 21 22  2  0
 15 23  1  0
 23  3  1  0
 11  5  1  0
 22 17  1  0
  1 24  1  0
  2 25  1  0
  2 26  1  0
  4 27  1  0
  4 28  1  0
  6 29  1  0
  7 30  1  0
 10 31  1  0
 11 32  1  0
 12 33  1  0
 12 34  1  0
 13 35  1  0
 13 36  1  0
 14 37  1  0
 14 38  1  0
 16 39  1  0
 16 40  1  0
 18 41  1  0
 19 42  1  0
 20 43  1  0
 22 44  1  0
 23 45  1  0
 23 46  1  0
M  END
>  <UniqueID>  (13) 
12

>  <SMILES>  (13) 
OC[C@@]1(Cc2ccc(F)cc2)CCCN(Cc2cccnc2)C1

>  <Energy>  (13) 
66.53701212939619

>  <Genealogy>  (13) 
OC[C@@]1(Cc2ccc(F)cc2)CCCN(Cc2cccnc2)C1 (chirality)
OC[C@@]1(Cc2ccc(F)cc2)CCCN(Cc2cccnc2)C1 (3D coordinates assigned)
OC[C@@]1(Cc2ccc(F)cc2)CCCN(Cc2cccnc2)C1 (nonaromatic ring conformer: 66.53701212939619 kcal/mol)

>  <smiles>  (13) 
OCC1(Cc2ccc(F)cc2)CCCN(Cc2cccnc2)C1

>  <score_type>  (13) 
oracle

>  <origin>  (13) 
adg

>  <m_score__min__energy>  (13) 
-8.3499999999999996

>  <m_primary>  (13) 
energy

$$$$
13:0
     RDKit          3D

 34 35  0  0  0  0  0  0  0  0999 V2000
   -6.3840   25.6630  -29.3500 C   0  0  0  0  0  0  0  0  0  0  0  0
   -5.9540   24.6090  -30.3270 C   0  0  0  0  0  0  0  0  0  0  0  0
   -6.8880   24.0270  -31.1940 C   0  0  0  0  0  0  0  0  0  0  0  0
   -6.4970   23.0190  -32.0820 C   0  0  0  0  0  0  0  0  0  0  0  0
   -5.1620   22.5710  -32.1080 C   0  0  0  0  0  0  0  0  0  0  0  0
   -4.7150   21.5530  -33.0260 N   0  0  0  0  0  0  0  0  0  0  0  0
   -3.5180   20.7310  -32.8440 C   0  0  0  0  0  0  0  0  0  0  0  0
   -3.6150   19.4130  -33.6200 C   0  0  0  0  0  0  0  0  0  0  0  0
   -4.9610   19.1620  -34.0310 O   0  0  0  0  0  0  0  0  0  0  0  0
   -6.0540   18.9210  -33.1810 C   0  0  0  0  0  0  0  0  0  0  0  0
   -5.9550   18.1140  -32.0310 C   0  0  0  0  0  0  0  0  0  0  0  0
   -7.0770   17.9290  -31.2210 C   0  0  0  0  0  0  0  0  0  0  0  0
   -8.2870   18.5290  -31.5640 C   0  0  0  0  0  0  0  0  0  0  0  0
   -8.3600   19.3060  -32.7200 C   0  0  0  0  0  0  0  0  0  0  0  0
   -7.2560   19.4800  -33.4990 N   0  0  0  0  0  0  0  0  0  0  0  0
   -4.2380   23.1430  -31.2200 C   0  0  0  0  0  0  0  0  0  0  0  0
   -4.6300   24.1490  -30.3330 C   0  0  0  0  0  0  0  0  0  0  0  0
   -6.2340   25.2952  -28.3242 H   0  0  0  0  0  0  0  0  0  0  0  0
   -5.7851   26.5726  -29.5047 H   0  0  0  0  0  0  0  0  0  0  0  0
   -7.4483   25.8941  -29.5047 H   0  0  0  0  0  0  0  0  0  0  0  0
   -7.9348   24.3645  -31.1765 H   0  0  0  0  0  0  0  0  0  0  0  0
   -7.2366   22.5738  -32.7638 H   0  0  0  0  0  0  0  0  0  0  0  0
   -5.2740   21.3900  -33.8940 H   0  0  0  0  0  0  0  0  0  0  0  0
   -2.6420   21.2921  -33.2015 H   0  0  0  0  0  0  0  0  0  0  0  0
   -3.4230   20.4940  -31.7741 H   0  0  0  0  0  0  0  0  0  0  0  0
   -2.9713   19.4707  -34.5101 H   0  0  0  0  0  0  0  0  0  0  0  0
   -3.2889   18.5931  -32.9631 H   0  0  0  0  0  0  0  0  0  0  0  0
   -5.0002   17.6327  -31.7728 H   0  0  0  0  0  0  0  0  0  0  0  0
   -7.0060   17.3109  -30.3139 H   0  0  0  0  0  0  0  0  0  0  0  0
   -9.1752   18.3913  -30.9298 H   0  0  0  0  0  0  0  0  0  0  0  0
   -9.3115   19.7796  -33.0034 H   0  0  0  0  0  0  0  0  0  0  0  0
   -7.3340   20.0690  -34.3580 H   0  0  0  0  0  0  0  0  0  0  0  0
   -3.1942   22.7958  -31.2223 H   0  0  0  0  0  0  0  0  0  0  0  0
   -3.8966   24.5817  -29.6367 H   0  0  0  0  0  0  0  0  0  0  0  0
  1  2  1  0
  2  3  2  0
  3  4  1  0
  4  5  2  0
  5  6  1  0
  6  7  1  0
  7  8  1  0
  8  9  1  0
  9 10  1  0
 10 11  2  0
 11 12  1  0
 12 13  2  0
 13 14  1  0
 14 15  2  0
  5 16  1  0
 16 17  2  0
 17  2  1  0
 15 10  1  0
  1 18  1  0
  1 19  1  0
  1 20  1  0
  3 21  1  0
  4 22  1  0
  6 23  1  0
  7 24  1  0
  7 25  1  0
  8 26  1  0
  8 27  1  0
 11 28  1  0
 12 29  1  0
 13 30  1  0
 14 31  1  0
 15 32  1  0
 16 33  1  0
 17 34  1  0
M  CHG  1  15   1
M  END
>  <UniqueID>  (14) 
13

>  <SMILES>  (14) 
Cc1ccc(NCCOc2cccc[nH+]2)cc1

>  <Energy>  (14) 
31.94840466193901

>  <Genealogy>  (14) 
Cc1ccc(NCCOc2cccc[nH+]2)cc1 (protonated)
Cc1ccc(NCCOc2cccc[nH+]2)cc1 (3D coordinates assigned)
Cc1ccc(NCCOc2cccc[nH+]2)cc1 (optimized conformer: 31.94840466193901 kcal/mol)

>  <smiles>  (14) 
Cc1ccc(NCCOc2ccccn2)cc1

>  <score_type>  (14) 
oracle

>  <origin>  (14) 
adg

>  <m_score__min__energy>  (14) 
-5.9500000000000002

>  <m_primary>  (14) 
energy

$$$$
14:0
     RDKit          3D

 29 31  0  0  0  0  0  0  0  0999 V2000
   -5.9210   16.7460  -34.4330 C   0  0  0  0  0  0  0  0  0  0  0  0
   -6.4840   17.7450  -33.4740 C   0  0  0  0  0  0  0  0  0  0  0  0
   -7.6160   17.6050  -32.6780 C   0  0  0  0  0  0  0  0  0  0  0  0
   -7.7470   18.7060  -31.9050 N   0  0  0  0  0  0  0  0  0  0  0  0
   -6.7400   19.5190  -32.1770 N   0  0  0  0  0  0  0  0  0  0  0  0
   -6.4920   20.7260  -31.6060 C   0  0  0  0  0  0  0  0  0  0  0  0
   -5.3480   21.4450  -32.0170 C   0  0  0  0  0  0  0  0  0  0  0  0
   -5.0310   22.7700  -31.4260 C   0  0  0  0  0  0  0  0  0  0  0  0
   -3.7770   23.3030  -31.1550 C   0  0  0  0  0  0  0  0  0  0  0  0
   -3.9160   24.5360  -30.6310 N   0  0  0  0  0  0  0  0  0  0  0  0
   -5.2120   24.7920  -30.5500 N   0  0  0  0  0  0  0  0  0  0  0  0
   -5.7610   26.0610  -30.0950 C   0  0  0  0  0  0  0  0  0  0  0  0
   -5.9200   23.7550  -31.0320 C   0  0  0  0  0  0  0  0  0  0  0  0
   -4.5090   20.8700  -33.0060 C   0  0  0  0  0  0  0  0  0  0  0  0
   -4.8090   19.6180  -33.5640 C   0  0  0  0  0  0  0  0  0  0  0  0
   -5.9550   18.9690  -33.1130 C   0  0  0  0  0  0  0  0  0  0  0  0
   -5.4563   15.9214  -33.8727 H   0  0  0  0  0  0  0  0  0  0  0  0
   -6.7287   16.3498  -35.0660 H   0  0  0  0  0  0  0  0  0  0  0  0
   -5.1638   17.2317  -35.0660 H   0  0  0  0  0  0  0  0  0  0  0  0
   -8.2943   16.7391  -32.6776 H   0  0  0  0  0  0  0  0  0  0  0  0
   -8.4990   18.8880  -31.2040 H   0  0  0  0  0  0  0  0  0  0  0  0
   -7.1675   21.1347  -30.8401 H   0  0  0  0  0  0  0  0  0  0  0  0
   -2.8184   22.7962  -31.3399 H   0  0  0  0  0  0  0  0  0  0  0  0
   -5.7706   26.0831  -28.9953 H   0  0  0  0  0  0  0  0  0  0  0  0
   -5.1393   26.8860  -30.4729 H   0  0  0  0  0  0  0  0  0  0  0  0
   -6.7880   26.1728  -30.4729 H   0  0  0  0  0  0  0  0  0  0  0  0
   -7.0164   23.6993  -31.1012 H   0  0  0  0  0  0  0  0  0  0  0  0
   -3.6121   21.4124  -33.3396 H   0  0  0  0  0  0  0  0  0  0  0  0
   -4.1621   19.1657  -34.3301 H   0  0  0  0  0  0  0  0  0  0  0  0
  1  2  1  0
  2  3  1  0
  3  4  2  0
  4  5  1  0
  5  6  1  0
  6  7  2  0
  7  8  1  0
  8  9  1  0
  9 10  2  0
 10 11  1  0
 11 12  1  0
 11 13  1  0
  7 14  1  0
 14 15  2  0
 15 16  1  0
 16  2  2  0
 16  5  1  0
 13  8  2  0
  1 17  1  0
  1 18  1  0
  1 19  1  0
  3 20  1  0
  4 21  1  0
  6 22  1  0
  9 23  1  0
 12 24  1  0
 12 25  1  0
 12 26  1  0
 13 27  1  0
 14 28  1  0
 15 29  1  0
M  CHG  1   4   1
M  END
>  <UniqueID>  (15) 
14

>  <SMILES>  (15) 
Cc1c[nH+]n2cc(-c3cnn(C)c3)ccc12

>  <Energy>  (15) 
97.17518524295104

>  <Genealogy>  (15) 
Cc1c[nH+]n2cc(-c3cnn(C)c3)ccc12 (protonated)
Cc1c[nH+]n2cc(-c3cnn(C)c3)ccc12 (3D coordinates assigned)
Cc1c[nH+]n2cc(-c3cnn(C)c3)ccc12 (optimized conformer: 97.17518524295104 kcal/mol)

>  <smiles>  (15) 
Cc1cnn2cc(-c3cnn(C)c3)ccc12

>  <score_type>  (15) 
oracle

>  <origin>  (15) 
adg

>  <m_score__min__energy>  (15) 
-6.0700000000000003

>  <m_primary>  (15) 
energy

$$$$
15:0
     RDKit          3D

 32 34  0  0  0  0  0  0  0  0999 V2000
   -2.5670   24.4120  -28.5770 C   0  0  0  0  0  0  0  0  0  0  0  0
   -3.1430   24.9280  -29.7730 O   0  0  0  0  0  0  0  0  0  0  0  0
   -4.3360   24.4590  -30.3440 C   0  0  0  0  0  0  0  0  0  0  0  0
   -4.2740   23.3620  -31.2100 C   0  0  0  0  0  0  0  0  0  0  0  0
   -5.4350   22.8590  -31.8030 C   0  0  0  0  0  0  0  0  0  0  0  0
   -6.6790   23.4520  -31.5420 C   0  0  0  0  0  0  0  0  0  0  0  0
   -7.9310   22.8820  -32.1520 C   0  0  0  0  0  0  0  0  0  0  0  0
   -8.0570   21.4630  -31.8140 N   0  0  0  0  0  0  0  0  0  0  0  0
   -8.8680   20.8950  -30.8860 C   0  0  0  0  0  0  0  0  0  0  0  0
   -9.6090   21.5520  -30.1090 O   0  0  0  0  0  0  0  0  0  0  0  0
   -8.8050   19.5750  -30.8810 O   0  0  0  0  0  0  0  0  0  0  0  0
   -7.9480   19.2590  -31.8230 C   0  0  0  0  0  0  0  0  0  0  0  0
   -7.5310   17.9950  -32.2290 C   0  0  0  0  0  0  0  0  0  0  0  0
   -6.5980   17.9230  -33.2800 C   0  0  0  0  0  0  0  0  0  0  0  0
   -6.1120   19.1020  -33.8900 C   0  0  0  0  0  0  0  0  0  0  0  0
   -6.5540   20.3670  -33.4540 C   0  0  0  0  0  0  0  0  0  0  0  0
   -7.4800   20.4030  -32.4110 C   0  0  0  0  0  0  0  0  0  0  0  0
   -6.7460   24.5490  -30.6700 C   0  0  0  0  0  0  0  0  0  0  0  0
   -5.5850   25.0530  -30.0760 C   0  0  0  0  0  0  0  0  0  0  0  0
   -3.0674   24.8603  -27.7060 H   0  0  0  0  0  0  0  0  0  0  0  0
   -2.6937   23.3196  -28.5506 H   0  0  0  0  0  0  0  0  0  0  0  0
   -1.4951   24.6576  -28.5506 H   0  0  0  0  0  0  0  0  0  0  0  0
   -3.3034   22.8916  -31.4259 H   0  0  0  0  0  0  0  0  0  0  0  0
   -5.3730   21.9930  -32.4784 H   0  0  0  0  0  0  0  0  0  0  0  0
   -8.8046   23.4268  -31.7646 H   0  0  0  0  0  0  0  0  0  0  0  0
   -7.8776   22.9872  -33.2457 H   0  0  0  0  0  0  0  0  0  0  0  0
   -7.9167   17.0851  -31.7459 H   0  0  0  0  0  0  0  0  0  0  0  0
   -6.2442   16.9419  -33.6295 H   0  0  0  0  0  0  0  0  0  0  0  0
   -5.3834   19.0314  -34.7111 H   0  0  0  0  0  0  0  0  0  0  0  0
   -6.1826   21.2922  -33.9189 H   0  0  0  0  0  0  0  0  0  0  0  0
   -7.7181   25.0155  -30.4523 H   0  0  0  0  0  0  0  0  0  0  0  0
   -5.6470   25.9163  -29.3971 H   0  0  0  0  0  0  0  0  0  0  0  0
  1  2  1  0
  2  3  1  0
  3  4  2  0
  4  5  1  0
  5  6  2  0
  6  7  1  0
  7  8  1  0
  8  9  1  0
  9 10  2  0
  9 11  1  0
 11 12  1  0
 12 13  2  0
 13 14  1  0
 14 15  2  0
 15 16  1  0
 16 17  2  0
  6 18  1  0
 18 19  2  0
 19  3  1  0
 17  8  1  0
 17 12  1  0
  1 20  1  0
  1 21  1  0
  1 22  1  0
  4 23  1  0
  5 24  1  0
  7 25  1  0
  7 26  1  0
 13 27  1  0
 14 28  1  0
 15 29  1  0
 16 30  1  0
 18 31  1  0
 19 32  1  0
M  END
>  <UniqueID>  (16) 
15

>  <SMILES>  (16) 
COc1ccc(Cn2c(=O)oc3ccccc32)cc1

>  <Energy>  (16) 
73.93499662217549

>  <Genealogy>  (16) 
COc1ccc(Cn2c(=O)oc3ccccc32)cc1 (3D coordinates assigned)
COc1ccc(Cn2c(=O)oc3ccccc32)cc1 (optimized conformer: 73.93499662217549 kcal/mol)

>  <smiles>  (16) 
COc1ccc(Cn2c(=O)oc3ccccc32)cc1

>  <score_type>  (16) 
oracle

>  <origin>  (16) 
adg

>  <m_score__min__energy>  (16) 
-7.8099999999999996

>  <m_primary>  (16) 
energy

$$$$
16:0
     RDKit          3D

 49 51  0  0  0  0  0  0  0  0999 V2000
   -9.5070   19.4480  -32.6740 C   0  0  0  0  0  0  0  0  0  0  0  0
   -8.1210   18.8830  -32.6040 C   0  0  0  0  0  0  0  0  0  0  0  0
   -7.9810   17.6430  -32.4370 O   0  0  0  0  0  0  0  0  0  0  0  0
   -6.9710   19.7420  -32.7410 N   0  0  0  0  0  0  0  0  0  0  0  0
   -5.8520   19.4680  -33.6500 C   0  0  0  0  0  0  0  0  0  0  0  0
   -4.8330   20.6110  -33.4450 C   0  0  0  0  0  0  0  0  0  0  0  0
   -5.4820   21.4710  -32.4210 C   0  0  0  0  0  0  0  0  0  0  0  0
   -4.9880   22.6550  -31.8720 C   0  0  0  0  0  0  0  0  0  0  0  0
   -5.7620   23.3280  -30.9090 C   0  0  0  0  0  0  0  0  0  0  0  0
   -5.1640   24.8070  -30.1580 S   0  0  0  0  0  0  0  0  0  0  0  0
   -6.1870   25.8890  -30.3590 O   0  0  0  0  0  0  0  0  0  0  0  0
   -3.8880   25.2410  -30.8230 O   0  0  0  0  0  0  0  0  0  0  0  0
   -4.8880   24.6100  -28.4490 N   0  0  0  0  0  0  0  0  0  0  0  0
   -3.7030   23.7960  -28.1590 C   0  0  0  0  0  0  0  0  0  0  0  0
   -2.5200   24.6330  -27.6520 C   0  0  0  0  0  0  0  0  0  0  0  0
   -1.4110   24.7400  -28.6690 C   0  0  0  0  0  0  0  0  0  0  0  0
   -1.2340   25.8250  -29.2850 O   0  0  0  0  0  0  0  0  0  0  0  0
   -0.5260   23.6450  -28.9390 N   0  0  0  0  0  0  0  0  0  0  0  0
   -0.8060   22.5120  -29.7730 C   0  0  0  0  0  0  0  0  0  0  0  0
   -1.7370   22.6480  -30.8090 C   0  0  0  0  0  0  0  0  0  0  0  0
   -2.0530   21.5550  -31.6230 C   0  0  0  0  0  0  0  0  0  0  0  0
   -1.4640   20.3040  -31.3880 C   0  0  0  0  0  0  0  0  0  0  0  0
   -1.7730   19.1400  -32.2830 C   0  0  0  0  0  0  0  0  0  0  0  0
   -0.5380   20.1640  -30.3430 C   0  0  0  0  0  0  0  0  0  0  0  0
   -0.2220   21.2570  -29.5300 C   0  0  0  0  0  0  0  0  0  0  0  0
   -7.0080   22.7980  -30.5200 C   0  0  0  0  0  0  0  0  0  0  0  0
   -7.4850   21.6060  -31.0870 C   0  0  0  0  0  0  0  0  0  0  0  0
   -6.6930   20.9520  -32.0420 C   0  0  0  0  0  0  0  0  0  0  0  0
   -9.8910   19.6045  -31.6552 H   0  0  0  0  0  0  0  0  0  0  0  0
   -9.4847   20.4088  -33.2091 H   0  0  0  0  0  0  0  0  0  0  0  0
  -10.1628   18.7454  -33.2091 H   0  0  0  0  0  0  0  0  0  0  0  0
   -5.3915   18.4995  -33.4053 H   0  0  0  0  0  0  0  0  0  0  0  0
   -6.1906   19.4186  -34.6954 H   0  0  0  0  0  0  0  0  0  0  0  0
   -3.8718   20.2206  -33.0794 H   0  0  0  0  0  0  0  0  0  0  0  0
   -4.6004   21.1510  -34.3747 H   0  0  0  0  0  0  0  0  0  0  0  0
   -4.0124   23.0544  -32.1861 H   0  0  0  0  0  0  0  0  0  0  0  0
   -3.9649   23.0544  -27.3899 H   0  0  0  0  0  0  0  0  0  0  0  0
   -3.3919   23.3149  -29.0981 H   0  0  0  0  0  0  0  0  0  0  0  0
   -2.8798   25.6450  -27.4145 H   0  0  0  0  0  0  0  0  0  0  0  0
   -2.1113   24.1304  -26.7630 H   0  0  0  0  0  0  0  0  0  0  0  0
   -2.2228   23.6193  -30.9841 H   0  0  0  0  0  0  0  0  0  0  0  0
   -2.7666   21.6773  -32.4511 H   0  0  0  0  0  0  0  0  0  0  0  0
   -2.0072   18.2577  -31.6693 H   0  0  0  0  0  0  0  0  0  0  0  0
   -2.6372   19.3849  -32.9179 H   0  0  0  0  0  0  0  0  0  0  0  0
   -0.9011   18.9241  -32.9179 H   0  0  0  0  0  0  0  0  0  0  0  0
   -0.0587   19.1905  -30.1626 H   0  0  0  0  0  0  0  0  0  0  0  0
    0.4862   21.1341  -28.6973 H   0  0  0  0  0  0  0  0  0  0  0  0
   -7.6122   23.3229  -29.7654 H   0  0  0  0  0  0  0  0  0  0  0  0
   -8.4599   21.1932  -30.7885 H   0  0  0  0  0  0  0  0  0  0  0  0
  1  2  1  0
  2  3  2  0
  2  4  1  0
  4  5  1  0
  5  6  1  0
  6  7  1  0
  7  8  2  0
  8  9  1  0
  9 10  1  0
 10 11  2  0
 10 12  2  0
 10 13  1  0
 13 14  1  0
 14 15  1  0
 15 16  1  0
 16 17  2  0
 16 18  1  0
 18 19  1  0
 19 20  2  0
 20 21  1  0
 21 22  2  0
 22 23  1  0
 22 24  1  0
 24 25  2  0
  9 26  2  0
 26 27  1  0
 27 28  2  0
 28  4  1  0
 28  7  1  0
 25 19  1  0
  1 29  1  0
  1 30  1  0
  1 31  1  0
  5 32  1  0
  5 33  1  0
  6 34  1  0
  6 35  1  0
  8 36  1  0
 14 37  1  0
 14 38  1  0
 15 39  1  0
 15 40  1  0
 20 41  1  0
 21 42  1  0
 23 43  1  0
 23 44  1  0
 23 45  1  0
 24 46  1  0
 25 47  1  0
 26 48  1  0
 27 49  1  0
M  CHG  2  13  -1  18  -1
M  END
>  <UniqueID>  (17) 
16

>  <SMILES>  (17) 
CC(=O)N1CCc2cc(S(=O)(=O)[N-]CCC(=O)[N-]c3ccc(C)cc3)ccc21

>  <Energy>  (17) 
67.86751392979768

>  <Genealogy>  (17) 
CC(=O)N1CCc2cc(S(=O)(=O)[N-]CCC(=O)[N-]c3ccc(C)cc3)ccc21 (protonated)
CC(=O)N1CCc2cc(S(=O)(=O)[N-]CCC(=O)[N-]c3ccc(C)cc3)ccc21 (3D coordinates assigned)
CC(=O)N1CCc2cc(S(=O)(=O)[N-]CCC(=O)[N-]c3ccc(C)cc3)ccc21 (nonaromatic ring conformer: 67.86751392979768 kcal/mol)

>  <smiles>  (17) 
CC(=O)N1CCc2cc(S(=O)(=O)NCCC(=O)Nc3ccc(C)cc3)ccc21

>  <score_type>  (17) 
oracle

>  <origin>  (17) 
adg

>  <m_score__min__energy>  (17) 
-11.91

>  <m_primary>  (17) 
energy

$$$$
17:0
     RDKit          3D

 48 51  0  0  0  0  0  0  0  0999 V2000
   -5.4869   26.7413  -30.5707 H   0  0  0  0  0  0  0  0  0  0  0  0
   -5.1940   25.6820  -30.5240 C   0  0  0  0  0  0  0  0  0  0  0  0
   -3.8950   25.2850  -30.5110 N   0  0  0  0  0  0  0  0  0  0  0  0
   -3.7910   23.9380  -30.4490 C   0  0  0  0  0  0  0  0  0  0  0  0
   -2.6670   23.2880  -30.4590 N   0  0  0  0  0  0  0  0  0  0  0  0
   -2.4990   21.8850  -30.7140 C   0  0  0  0  0  0  0  0  0  0  0  0
   -2.8730   21.0190  -29.8760 O   0  0  0  0  0  0  0  0  0  0  0  0
   -1.8270   21.4500  -31.9750 C   0  0  0  0  0  0  0  0  0  0  0  0
   -1.4576   20.4217  -31.8476 H   0  0  0  0  0  0  0  0  0  0  0  0
   -0.9956   22.1403  -32.1806 H   0  0  0  0  0  0  0  0  0  0  0  0
   -2.9790   21.4970  -33.3940 S   0  0  0  0  0  0  0  0  0  0  0  0
   -2.9740   19.7180  -33.6670 C   0  0  0  0  0  0  0  0  0  0  0  0
   -1.8700   19.0360  -34.0190 N   0  0  0  0  0  0  0  0  0  0  0  0
   -2.1930   17.7520  -34.0210 N   0  0  0  0  0  0  0  0  0  0  0  0
   -3.4920   17.6670  -33.6740 C   0  0  0  0  0  0  0  0  0  0  0  0
   -4.2140   16.3830  -33.5770 C   0  0  0  0  0  0  0  0  0  0  0  0
   -5.3830   16.1550  -34.3190 C   0  0  0  0  0  0  0  0  0  0  0  0
   -5.7710   16.9397  -34.9851 H   0  0  0  0  0  0  0  0  0  0  0  0
   -6.0560   14.9350  -34.2150 C   0  0  0  0  0  0  0  0  0  0  0  0
   -6.9727   14.7623  -34.7980 H   0  0  0  0  0  0  0  0  0  0  0  0
   -5.5670   13.9340  -33.3720 C   0  0  0  0  0  0  0  0  0  0  0  0
   -6.0990   12.9743  -33.2951 H   0  0  0  0  0  0  0  0  0  0  0  0
   -4.4000   14.1480  -32.6230 C   0  0  0  0  0  0  0  0  0  0  0  0
   -3.8530   13.0610  -31.7470 C   0  0  0  0  0  0  0  0  0  0  0  0
   -3.9916   13.3364  -30.6911 H   0  0  0  0  0  0  0  0  0  0  0  0
   -4.3853   12.1208  -31.9536 H   0  0  0  0  0  0  0  0  0  0  0  0
   -2.7808   12.9283  -31.9536 H   0  0  0  0  0  0  0  0  0  0  0  0
   -3.7140   15.3660  -32.7480 C   0  0  0  0  0  0  0  0  0  0  0  0
   -2.7779   15.5250  -32.1926 H   0  0  0  0  0  0  0  0  0  0  0  0
   -4.0200   18.8930  -33.4460 N   0  0  0  0  0  0  0  0  0  0  0  0
   -5.3330   19.2400  -32.9660 C   0  0  0  0  0  0  0  0  0  0  0  0
   -5.9520   20.4270  -33.3850 C   0  0  0  0  0  0  0  0  0  0  0  0
   -5.4374   21.0899  -34.0962 H   0  0  0  0  0  0  0  0  0  0  0  0
   -7.2180   20.7730  -32.9050 C   0  0  0  0  0  0  0  0  0  0  0  0
   -7.6912   21.7078  -33.2400 H   0  0  0  0  0  0  0  0  0  0  0  0
   -7.8890   19.9410  -32.0020 C   0  0  0  0  0  0  0  0  0  0  0  0
   -9.1540   20.3360  -31.5430 O   0  0  0  0  0  0  0  0  0  0  0  0
   -9.4940   21.6700  -31.1780 C   0  0  0  0  0  0  0  0  0  0  0  0
   -9.5159   21.7559  -30.0816 H   0  0  0  0  0  0  0  0  0  0  0  0
   -8.7440   22.3640  -31.5853 H   0  0  0  0  0  0  0  0  0  0  0  0
  -10.4847   21.9204  -31.5853 H   0  0  0  0  0  0  0  0  0  0  0  0
   -7.2770   18.7430  -31.5890 C   0  0  0  0  0  0  0  0  0  0  0  0
   -7.7962   18.0767  -30.8844 H   0  0  0  0  0  0  0  0  0  0  0  0
   -6.0120   18.3970  -32.0710 C   0  0  0  0  0  0  0  0  0  0  0  0
   -5.5437   17.4560  -31.7466 H   0  0  0  0  0  0  0  0  0  0  0  0
   -5.2920   23.1910  -30.4100 S   0  0  0  0  0  0  0  0  0  0  0  0
   -6.1270   24.6510  -30.4740 C   0  0  0  0  0  0  0  0  0  0  0  0
   -7.2206   24.7695  -30.4760 H   0  0  0  0  0  0  0  0  0  0  0  0
  1  2  1  0
  2  3  1  0
  3  4  1  0
  4  5  2  0
  5  6  1  0
  6  7  2  0
  6  8  1  0
  8  9  1  0
  8 10  1  0
  8 11  1  0
 11 12  1  0
 12 13  2  0
 13 14  1  0
 14 15  2  0
 15 16  1  0
 16 17  2  0
 17 18  1  0
 17 19  1  0
 19 20  1  0
 19 21  2  0
 21 22  1  0
 21 23  1  0
 23 24  1  0
 24 25  1  0
 24 26  1  0
 24 27  1  0
 23 28  2  0
 28 29  1  0
 15 30  1  0
 30 31  1  0
 31 32  2  0
 32 33  1  0
 32 34  1  0
 34 35  1  0
 34 36  2  0
 36 37  1  0
 37 38  1  0
 38 39  1  0
 38 40  1  0
 38 41  1  0
 36 42  1  0
 42 43  1  0
 42 44  2  0
 44 45  1  0
  4 46  1  0
 46 47  1  0
 47 48  1  0
 47  2  2  0
 30 12  1  0
 44 31  1  0
 28 16  1  0
M  CHG  1   3  -1
M  END
>  <UniqueID>  (18) 
17

>  <SMILES>  (18) 
COc1ccc(-n2c(SCC(=O)/N=c3\[n-]ccs3)nnc2-c2cccc(C)c2)cc1

>  <Energy>  (18) 
117.6738629991226

>  <Genealogy>  (18) 
COc1ccc(-n2c(SCC(=O)N=c3[n-]ccs3)nnc2-c2cccc(C)c2)cc1 (protonated)
COc1ccc(-n2c(SCC(=O)/N=c3\[n-]ccs3)nnc2-c2cccc(C)c2)cc1 (cis-trans isomerization)
COc1ccc(-n2c(SCC(=O)/N=c3\[n-]ccs3)nnc2-c2cccc(C)c2)cc1 (3D coordinates assigned)
COc1ccc(-n2c(SCC(=O)/N=c3\[n-]ccs3)nnc2-c2cccc(C)c2)cc1 (optimized conformer: 117.6738629991226 kcal/mol)

>  <smiles>  (18) 
COc1ccc(-n2c(SCC(=O)N=c3[nH]ccs3)nnc2-c2cccc(C)c2)cc1

>  <score_type>  (18) 
oracle

>  <origin>  (18) 
adg

>  <m_score__min__energy>  (18) 
-11.18

>  <m_primary>  (18) 
energy

$$$$
18:0
     RDKit          3D

 36 39  0  0  0  0  0  0  0  0999 V2000
   -9.3650   22.2063  -31.0018 H   0  0  0  0  0  0  0  0  0  0  0  0
   -8.4120   22.1940  -31.5510 C   0  0  0  0  0  0  0  0  0  0  0  0
   -7.7350   23.3500  -31.6330 C   0  0  0  0  0  0  0  0  0  0  0  0
   -8.2344   24.1946  -32.1303 H   0  0  0  0  0  0  0  0  0  0  0  0
   -6.3730   23.5790  -31.1090 C   0  0  0  0  0  0  0  0  0  0  0  0
   -6.0020   24.8630  -30.6960 C   0  0  0  0  0  0  0  0  0  0  0  0
   -6.7153   25.6951  -30.7904 H   0  0  0  0  0  0  0  0  0  0  0  0
   -4.7300   25.0950  -30.1640 C   0  0  0  0  0  0  0  0  0  0  0  0
   -4.4452   26.1129  -29.8594 H   0  0  0  0  0  0  0  0  0  0  0  0
   -3.8110   24.0420  -30.0140 C   0  0  0  0  0  0  0  0  0  0  0  0
   -2.5000   24.3020  -29.4680 N   0  0  0  0  0  0  0  0  0  0  0  0
   -2.2250   25.3030  -28.6490 N   0  0  0  0  0  0  0  0  0  0  0  0
   -0.9130   25.2010  -28.3740 C   0  0  0  0  0  0  0  0  0  0  0  0
   -0.1950   26.1080  -27.4320 C   0  0  0  0  0  0  0  0  0  0  0  0
   -0.4250   25.8175  -26.3963 H   0  0  0  0  0  0  0  0  0  0  0  0
    0.8889   26.0302  -27.6026 H   0  0  0  0  0  0  0  0  0  0  0  0
   -0.5195   27.1451  -27.6026 H   0  0  0  0  0  0  0  0  0  0  0  0
   -0.3330   24.1420  -28.9770 N   0  0  0  0  0  0  0  0  0  0  0  0
   -1.3610   23.6050  -29.6630 C   0  0  0  0  0  0  0  0  0  0  0  0
   -1.2819   22.7122  -30.3007 H   0  0  0  0  0  0  0  0  0  0  0  0
   -4.2000   22.7450  -30.4030 C   0  0  0  0  0  0  0  0  0  0  0  0
   -3.4970   21.9068  -30.2878 H   0  0  0  0  0  0  0  0  0  0  0  0
   -5.4720   22.5150  -30.9340 C   0  0  0  0  0  0  0  0  0  0  0  0
   -5.7698   21.4945  -31.2168 H   0  0  0  0  0  0  0  0  0  0  0  0
   -7.9860   20.9090  -32.1350 C   0  0  0  0  0  0  0  0  0  0  0  0
   -7.0290   20.8380  -33.0950 N   0  0  0  0  0  0  0  0  0  0  0  0
   -6.7460   19.5470  -33.4030 C   0  0  0  0  0  0  0  0  0  0  0  0
   -5.8330   19.1800  -34.3400 N   0  0  0  0  0  0  0  0  0  0  0  0
   -5.6010   17.8560  -34.5850 C   0  0  0  0  0  0  0  0  0  0  0  0
   -4.8642   17.5628  -35.3473 H   0  0  0  0  0  0  0  0  0  0  0  0
   -6.2990   16.8630  -33.8680 C   0  0  0  0  0  0  0  0  0  0  0  0
   -6.1061   15.7988  -34.0688 H   0  0  0  0  0  0  0  0  0  0  0  0
   -7.2410   17.2370  -32.8970 C   0  0  0  0  0  0  0  0  0  0  0  0
   -7.7981   16.4816  -32.3233 H   0  0  0  0  0  0  0  0  0  0  0  0
   -7.4450   18.5950  -32.6860 C   0  0  0  0  0  0  0  0  0  0  0  0
   -8.4690   19.3660  -31.6070 S   0  0  0  0  0  0  0  0  0  0  0  0
  1  2  1  0
  2  3  2  0
  3  4  1  0
  3  5  1  0
  5  6  2  0
  6  7  1  0
  6  8  1  0
  8  9  1  0
  8 10  2  0
 10 11  1  0
 11 12  1  0
 12 13  2  0
 13 14  1  0
 14 15  1  0
 14 16  1  0
 14 17  1  0
 13 18  1  0
 18 19  2  0
 19 20  1  0
 10 21  1  0
 21 22  1  0
 21 23  2  0
 23 24  1  0
  2 25  1  0
 25 26  2  0
 26 27  1  0
 27 28  2  0
 28 29  1  0
 29 30  1  0
 29 31  2  0
 31 32  1  0
 31 33  1  0
 33 34  1  0
 33 35  2  0
 35 36  1  0
 23  5  1  0
 36 25  1  0
 19 11  1  0
 35 27  1  0
M  END
>  <UniqueID>  (19) 
18

>  <SMILES>  (19) 
Cc1ncn(-c2ccc(/C=C\c3nc4ncccc4s3)cc2)n1

>  <Energy>  (19) 
118.55419888820607

>  <Genealogy>  (19) 
Cc1ncn(-c2ccc(/C=C\c3nc4ncccc4s3)cc2)n1 (cis-trans isomerization)
Cc1ncn(-c2ccc(/C=C\c3nc4ncccc4s3)cc2)n1 (3D coordinates assigned)
Cc1ncn(-c2ccc(/C=C\c3nc4ncccc4s3)cc2)n1 (optimized conformer: 118.55419888820607 kcal/mol)

>  <smiles>  (19) 
Cc1ncn(-c2ccc(C=Cc3nc4ncccc4s3)cc2)n1

>  <score_type>  (19) 
oracle

>  <origin>  (19) 
adg

>  <m_score__min__energy>  (19) 
-8.9600000000000009

>  <m_primary>  (19) 
energy

$$$$
19:0
     RDKit          3D

 33 35  0  0  0  0  0  0  0  0999 V2000
   -4.6890   24.5930  -31.1750 O   0  0  0  0  0  0  0  0  0  0  0  0
   -4.9780   23.4730  -30.6740 C   0  0  0  0  0  0  0  0  0  0  0  0
   -4.2140   22.9530  -29.5720 N   0  0  0  0  0  0  0  0  0  0  0  0
   -3.2370   23.7160  -28.8430 C   0  0  0  0  0  0  0  0  0  0  0  0
   -1.9290   23.8340  -29.3590 C   0  0  0  0  0  0  0  0  0  0  0  0
   -0.9470   24.5490  -28.6570 C   0  0  0  0  0  0  0  0  0  0  0  0
   -1.2840   25.1300  -27.4340 C   0  0  0  0  0  0  0  0  0  0  0  0
   -2.5460   25.0040  -26.9140 C   0  0  0  0  0  0  0  0  0  0  0  0
   -3.5400   24.2950  -27.5920 C   0  0  0  0  0  0  0  0  0  0  0  0
   -2.6760   25.6700  -25.5980 C   0  0  0  0  0  0  0  0  0  0  0  0
   -1.2860   26.2880  -25.3530 C   0  0  0  0  0  0  0  0  0  0  0  0
   -0.3890   25.9060  -26.5470 C   0  0  0  0  0  0  0  0  0  0  0  0
   -6.0770   22.6780  -31.2660 C   0  0  0  0  0  0  0  0  0  0  0  0
   -7.4090   22.9830  -30.9330 C   0  0  0  0  0  0  0  0  0  0  0  0
   -8.4630   22.2360  -31.4640 C   0  0  0  0  0  0  0  0  0  0  0  0
   -8.2010   21.1760  -32.3320 C   0  0  0  0  0  0  0  0  0  0  0  0
   -6.8850   20.8600  -32.6740 C   0  0  0  0  0  0  0  0  0  0  0  0
   -5.8190   21.6020  -32.1470 C   0  0  0  0  0  0  0  0  0  0  0  0
   -4.0450   21.1440  -32.7200 Br  0  0  0  0  0  0  0  0  0  0  0  0
   -4.3340   21.9500  -29.3100 H   0  0  0  0  0  0  0  0  0  0  0  0
   -1.6771   23.3614  -30.3198 H   0  0  0  0  0  0  0  0  0  0  0  0
    0.0702   24.6497  -29.0634 H   0  0  0  0  0  0  0  0  0  0  0  0
   -4.5449   24.1893  -27.1572 H   0  0  0  0  0  0  0  0  0  0  0  0
   -3.4506   26.4504  -25.6297 H   0  0  0  0  0  0  0  0  0  0  0  0
   -2.9766   24.9750  -24.8001 H   0  0  0  0  0  0  0  0  0  0  0  0
   -1.3694   27.3825  -25.2816 H   0  0  0  0  0  0  0  0  0  0  0  0
   -0.8570   25.9131  -24.4120 H   0  0  0  0  0  0  0  0  0  0  0  0
   -0.0153   26.8052  -27.0586 H   0  0  0  0  0  0  0  0  0  0  0  0
    0.5017   25.3371  -26.2421 H   0  0  0  0  0  0  0  0  0  0  0  0
   -7.6225   23.8171  -30.2484 H   0  0  0  0  0  0  0  0  0  0  0  0
   -9.5010   22.4839  -31.1973 H   0  0  0  0  0  0  0  0  0  0  0  0
   -9.0327   20.5882  -32.7477 H   0  0  0  0  0  0  0  0  0  0  0  0
   -6.6836   20.0245  -33.3605 H   0  0  0  0  0  0  0  0  0  0  0  0
  1  2  2  0
  2  3  1  0
  3  4  1  0
  4  5  2  0
  5  6  1  0
  6  7  2  0
  7  8  1  0
  8  9  2  0
  8 10  1  0
 10 11  1  0
 11 12  1  0
  2 13  1  0
 13 14  2  0
 14 15  1  0
 15 16  2  0
 16 17  1  0
 17 18  2  0
 18 19  1  0
  9  4  1  0
 18 13  1  0
 12  7  1  0
  3 20  1  0
  5 21  1  0
  6 22  1  0
  9 23  1  0
 10 24  1  0
 10 25  1  0
 11 26  1  0
 11 27  1  0
 12 28  1  0
 12 29  1  0
 14 30  1  0
 15 31  1  0
 16 32  1  0
 17 33  1  0
M  END
>  <UniqueID>  (20) 
19

>  <SMILES>  (20) 
O=C(Nc1ccc2c(c1)CCC2)c1ccccc1Br

>  <Energy>  (20) 
51.295065892670465

>  <Genealogy>  (20) 
O=C(Nc1ccc2c(c1)CCC2)c1ccccc1Br (3D coordinates assigned)
O=C(Nc1ccc2c(c1)CCC2)c1ccccc1Br (nonaromatic ring conformer: 51.295065892670465 kcal/mol)

>  <smiles>  (20) 
O=C(Nc1ccc2c(c1)CCC2)c1ccccc1Br

>  <score_type>  (20) 
oracle

>  <origin>  (20) 
adg

>  <m_score__min__energy>  (20) 
-7.8600000000000003

>  <m_primary>  (20) 
energy

$$$$
20:0
     RDKit          3D

 44 47  0  0  0  0  0  0  0  0999 V2000
   -9.8270   21.0830  -31.8880 C   0  0  0  0  0  0  0  0  0  0  0  0
   -8.4480   21.3000  -32.3080 N   0  0  0  0  0  0  0  0  0  0  0  0
   -7.7130   22.3370  -31.9240 N   0  0  0  0  0  0  0  0  0  0  0  0
   -6.4110   22.0580  -32.1680 C   0  0  0  0  0  0  0  0  0  0  0  0
   -5.2590   22.8480  -31.6200 C   0  0  0  0  0  0  0  0  0  0  0  0
   -5.5140   23.2410  -30.2160 N   0  0  0  0  0  0  0  0  0  0  0  0
   -4.2980   23.1820  -29.3700 C   0  0  0  0  0  0  0  0  0  0  0  0
   -3.5390   24.5240  -29.3230 C   0  0  0  0  0  0  0  0  0  0  0  0
   -3.8100   25.2930  -30.4750 O   0  0  0  0  0  0  0  0  0  0  0  0
   -5.1650   25.7090  -30.4740 C   0  0  0  0  0  0  0  0  0  0  0  0
   -6.1520   24.5680  -30.1260 C   0  0  0  0  0  0  0  0  0  0  0  0
   -6.3460   20.8200  -32.7820 C   0  0  0  0  0  0  0  0  0  0  0  0
   -7.6220   20.3760  -32.8380 C   0  0  0  0  0  0  0  0  0  0  0  0
   -7.6840   18.9000  -32.7220 C   0  0  0  0  0  0  0  0  0  0  0  0
   -6.2650   18.5240  -32.6510 N   0  0  0  0  0  0  0  0  0  0  0  0
   -5.8360   17.2040  -32.2730 C   0  0  0  0  0  0  0  0  0  0  0  0
   -6.0760   16.7850  -31.1080 O   0  0  0  0  0  0  0  0  0  0  0  0
   -5.1000   16.3270  -33.2040 C   0  0  0  0  0  0  0  0  0  0  0  0
   -4.3950   16.8210  -34.3140 C   0  0  0  0  0  0  0  0  0  0  0  0
   -3.7420   15.8380  -35.0420 C   0  0  0  0  0  0  0  0  0  0  0  0
   -4.0220   14.3610  -34.2920 S   0  0  0  0  0  0  0  0  0  0  0  0
   -4.9800   14.9500  -33.0430 C   0  0  0  0  0  0  0  0  0  0  0  0
   -5.3840   19.7010  -32.6600 C   0  0  0  0  0  0  0  0  0  0  0  0
   -9.8787   21.0749  -30.7892 H   0  0  0  0  0  0  0  0  0  0  0  0
  -10.4610   21.8924  -32.2789 H   0  0  0  0  0  0  0  0  0  0  0  0
  -10.1818   20.1180  -32.2789 H   0  0  0  0  0  0  0  0  0  0  0  0
   -8.0740   23.1500  -31.3770 H   0  0  0  0  0  0  0  0  0  0  0  0
   -4.3473   22.2340  -31.6631 H   0  0  0  0  0  0  0  0  0  0  0  0
   -5.1354   23.7584  -32.2249 H   0  0  0  0  0  0  0  0  0  0  0  0
   -4.5945   22.9095  -28.3464 H   0  0  0  0  0  0  0  0  0  0  0  0
   -3.6227   22.4340  -29.8110 H   0  0  0  0  0  0  0  0  0  0  0  0
   -3.8547   25.0860  -28.4316 H   0  0  0  0  0  0  0  0  0  0  0  0
   -2.4593   24.3175  -29.2825 H   0  0  0  0  0  0  0  0  0  0  0  0
   -5.2837   26.5125  -29.7322 H   0  0  0  0  0  0  0  0  0  0  0  0
   -5.4038   26.0490  -31.4925 H   0  0  0  0  0  0  0  0  0  0  0  0
   -6.5198   24.7167  -29.1000 H   0  0  0  0  0  0  0  0  0  0  0  0
   -6.9777   24.5988  -30.8521 H   0  0  0  0  0  0  0  0  0  0  0  0
   -8.2215   18.5955  -31.8118 H   0  0  0  0  0  0  0  0  0  0  0  0
   -8.2232   18.4183  -33.5510 H   0  0  0  0  0  0  0  0  0  0  0  0
   -4.3639   17.8877  -34.5807 H   0  0  0  0  0  0  0  0  0  0  0  0
   -3.1448   15.9975  -35.9519 H   0  0  0  0  0  0  0  0  0  0  0  0
   -5.4330   14.3516  -32.2388 H   0  0  0  0  0  0  0  0  0  0  0  0
   -4.8069   19.7728  -31.7263 H   0  0  0  0  0  0  0  0  0  0  0  0
   -4.6318   19.6798  -33.4623 H   0  0  0  0  0  0  0  0  0  0  0  0
  1  2  1  0
  2  3  1  0
  3  4  2  0
  4  5  1  0
  5  6  1  0
  6  7  1  0
  7  8  1  0
  8  9  1  0
  9 10  1  0
 10 11  1  0
  4 12  1  0
 12 13  2  0
 13 14  1  0
 14 15  1  0
 15 16  1  0
 16 17  2  0
 16 18  1  0
 18 19  1  0
 19 20  2  0
 20 21  1  0
 21 22  1  0
 15 23  1  0
 13  2  1  0
 22 18  2  0
 11  6  1  0
 23 12  1  0
  1 24  1  0
  1 25  1  0
  1 26  1  0
  3 27  1  0
  5 28  1  0
  5 29  1  0
  7 30  1  0
  7 31  1  0
  8 32  1  0
  8 33  1  0
 10 34  1  0
 10 35  1  0
 11 36  1  0
 11 37  1  0
 14 38  1  0
 14 39  1  0
 19 40  1  0
 20 41  1  0
 22 42  1  0
 23 43  1  0
 23 44  1  0
M  CHG  1   3   1
M  END
>  <UniqueID>  (21) 
20

>  <SMILES>  (21) 
Cn1[nH+]c(CN2CCOCC2)c2c1CN(C(=O)c1ccsc1)C2

>  <Energy>  (21) 
141.94238384404704

>  <Genealogy>  (21) 
Cn1[nH+]c(CN2CCOCC2)c2c1CN(C(=O)c1ccsc1)C2 (protonated)
Cn1[nH+]c(CN2CCOCC2)c2c1CN(C(=O)c1ccsc1)C2 (3D coordinates assigned)
Cn1[nH+]c(CN2CCOCC2)c2c1CN(C(=O)c1ccsc1)C2 (nonaromatic ring conformer: 141.94238384404704 kcal/mol)

>  <smiles>  (21) 
Cn1nc(CN2CCOCC2)c2c1CN(C(=O)c1ccsc1)C2

>  <score_type>  (21) 
oracle

>  <origin>  (21) 
adg

>  <m_score__min__energy>  (21) 
-7.7000000000000002

>  <m_primary>  (21) 
energy

$$$$
21:0
     RDKit          3D

 44 47  0  0  0  0  0  0  0  0999 V2000
    0.3150   20.8370  -33.6700 C   0  0  0  0  0  0  0  0  0  0  0  0
   -0.2680   20.8950  -32.2510 C   0  0  0  0  0  0  0  0  0  0  0  0
   -1.7300   21.1120  -32.1970 N   0  0  0  0  0  0  0  0  0  0  0  0
   -2.4150   20.2280  -31.2310 C   0  0  0  0  0  0  0  0  0  0  0  0
   -3.8650   20.6850  -31.0580 C   0  0  0  0  0  0  0  0  0  0  0  0
   -4.5070   20.7500  -32.3750 N   0  0  0  0  0  0  0  0  0  0  0  0
   -5.4200   19.7130  -32.7670 C   0  0  0  0  0  0  0  0  0  0  0  0
   -4.9500   18.6440  -33.4740 N   0  0  0  0  0  0  0  0  0  0  0  0
   -5.7450   17.5790  -33.7850 C   0  0  0  0  0  0  0  0  0  0  0  0
   -7.0400   17.5460  -33.3700 N   0  0  0  0  0  0  0  0  0  0  0  0
   -7.5320   18.5990  -32.6740 C   0  0  0  0  0  0  0  0  0  0  0  0
   -9.0880   18.7620  -32.0740 S   0  0  0  0  0  0  0  0  0  0  0  0
   -8.8270   20.2970  -31.4190 C   0  0  0  0  0  0  0  0  0  0  0  0
   -7.5140   20.7010  -31.6830 C   0  0  0  0  0  0  0  0  0  0  0  0
   -7.0460   22.0590  -31.3480 C   0  0  0  0  0  0  0  0  0  0  0  0
   -6.5340   22.9020  -32.3480 C   0  0  0  0  0  0  0  0  0  0  0  0
   -6.0970   24.1900  -32.0270 C   0  0  0  0  0  0  0  0  0  0  0  0
   -6.1860   24.6510  -30.7100 C   0  0  0  0  0  0  0  0  0  0  0  0
   -5.7610   25.9010  -30.3990 F   0  0  0  0  0  0  0  0  0  0  0  0
   -6.7180   23.8270  -29.7150 C   0  0  0  0  0  0  0  0  0  0  0  0
   -7.1540   22.5370  -30.0330 C   0  0  0  0  0  0  0  0  0  0  0  0
   -6.7720   19.7150  -32.3750 C   0  0  0  0  0  0  0  0  0  0  0  0
   -3.8270   21.5430  -33.4030 C   0  0  0  0  0  0  0  0  0  0  0  0
   -2.3750   21.0730  -33.5250 C   0  0  0  0  0  0  0  0  0  0  0  0
    1.4081   20.7282  -33.6131 H   0  0  0  0  0  0  0  0  0  0  0  0
   -0.1116   19.9769  -34.2068 H   0  0  0  0  0  0  0  0  0  0  0  0
    0.0662   21.7643  -34.2068 H   0  0  0  0  0  0  0  0  0  0  0  0
   -0.0432   19.9429  -31.7480 H   0  0  0  0  0  0  0  0  0  0  0  0
    0.1954   21.7621  -31.7576 H   0  0  0  0  0  0  0  0  0  0  0  0
   -2.3990   19.1939  -31.6056 H   0  0  0  0  0  0  0  0  0  0  0  0
   -1.8981   20.2756  -30.2612 H   0  0  0  0  0  0  0  0  0  0  0  0
   -4.4036   19.9685  -30.4204 H   0  0  0  0  0  0  0  0  0  0  0  0
   -3.8872   21.6779  -30.5850 H   0  0  0  0  0  0  0  0  0  0  0  0
   -5.3369   16.7441  -34.3735 H   0  0  0  0  0  0  0  0  0  0  0  0
   -7.6450   16.7230  -33.5910 H   0  0  0  0  0  0  0  0  0  0  0  0
   -9.5745   20.8880  -30.8694 H   0  0  0  0  0  0  0  0  0  0  0  0
   -6.4768   22.5471  -33.3876 H   0  0  0  0  0  0  0  0  0  0  0  0
   -5.6829   24.8414  -32.8107 H   0  0  0  0  0  0  0  0  0  0  0  0
   -6.7939   24.1933  -28.6806 H   0  0  0  0  0  0  0  0  0  0  0  0
   -7.5831   21.8948  -29.2498 H   0  0  0  0  0  0  0  0  0  0  0  0
   -4.3386   21.4105  -34.3677 H   0  0  0  0  0  0  0  0  0  0  0  0
   -3.8482   22.6065  -33.1227 H   0  0  0  0  0  0  0  0  0  0  0  0
   -2.3544   20.0436  -33.9122 H   0  0  0  0  0  0  0  0  0  0  0  0
   -1.8325   21.7360  -34.2150 H   0  0  0  0  0  0  0  0  0  0  0  0
  1  2  1  0
  2  3  1  0
  3  4  1  0
  4  5  1  0
  5  6  1  0
  6  7  1  0
  7  8  2  0
  8  9  1  0
  9 10  2  0
 10 11  1  0
 11 12  1  0
 12 13  1  0
 13 14  2  0
 14 15  1  0
 15 16  2  0
 16 17  1  0
 17 18  2  0
 18 19  1  0
 18 20  1  0
 20 21  2  0
 14 22  1  0
  6 23  1  0
 23 24  1  0
 24  3  1  0
 22  7  1  0
 22 11  2  0
 21 15  1  0
  1 25  1  0
  1 26  1  0
  1 27  1  0
  2 28  1  0
  2 29  1  0
  4 30  1  0
  4 31  1  0
  5 32  1  0
  5 33  1  0
  9 34  1  0
 10 35  1  0
 13 36  1  0
 16 37  1  0
 17 38  1  0
 20 39  1  0
 21 40  1  0
 23 41  1  0
 23 42  1  0
 24 43  1  0
 24 44  1  0
M  CHG  1  10   1
M  END
>  <UniqueID>  (22) 
21

>  <SMILES>  (22) 
CCN1CCN(c2nc[nH+]c3scc(-c4ccc(F)cc4)c23)CC1

>  <Energy>  (22) 
91.79198643339662

>  <Genealogy>  (22) 
CCN1CCN(c2nc[nH+]c3scc(-c4ccc(F)cc4)c23)CC1 (protonated)
CCN1CCN(c2nc[nH+]c3scc(-c4ccc(F)cc4)c23)CC1 (3D coordinates assigned)
CCN1CCN(c2nc[nH+]c3scc(-c4ccc(F)cc4)c23)CC1 (nonaromatic ring conformer: 91.79198643339662 kcal/mol)

>  <smiles>  (22) 
CCN1CCN(c2ncnc3scc(-c4ccc(F)cc4)c23)CC1

>  <score_type>  (22) 
oracle

>  <origin>  (22) 
adg

>  <m_score__min__energy>  (22) 
-7.3799999999999999

>  <m_primary>  (22) 
energy

$$$$
22:0
     RDKit          3D

 30 32  0  0  0  0  0  0  0  0999 V2000
   -4.2370   23.1320  -28.2280 C   0  0  0  0  0  0  0  0  0  0  0  0
   -4.6350   22.9120  -29.6940 C   0  0  2  0  0  0  0  0  0  0  0  0
   -3.7530   23.7530  -30.6370 C   0  0  0  0  0  0  0  0  0  0  0  0
   -4.0110   25.1390  -30.4790 O   0  0  0  0  0  0  0  0  0  0  0  0
   -5.3490   25.4360  -30.8420 C   0  0  0  0  0  0  0  0  0  0  0  0
   -6.3370   24.7220  -29.9130 C   0  0  0  0  0  0  0  0  0  0  0  0
   -6.0390   23.2860  -29.9190 N   0  0  0  0  0  0  0  0  0  0  0  0
   -6.9150   22.3890  -30.6330 C   0  0  0  0  0  0  0  0  0  0  0  0
   -8.2350   22.3020  -30.2930 N   0  0  0  0  0  0  0  0  0  0  0  0
   -9.0910   21.4710  -30.9570 C   0  0  0  0  0  0  0  0  0  0  0  0
   -8.6290   20.7020  -31.9820 N   0  0  0  0  0  0  0  0  0  0  0  0
   -7.3430   20.7830  -32.3110 N   0  0  0  0  0  0  0  0  0  0  0  0
   -6.6980   20.0950  -33.2640 C   0  0  0  0  0  0  0  0  0  0  0  0
   -5.3620   20.4680  -33.2400 C   0  0  0  0  0  0  0  0  0  0  0  0
   -5.2110   21.4150  -32.2310 C   0  0  0  0  0  0  0  0  0  0  0  0
   -6.4710   21.5840  -31.6860 C   0  0  0  0  0  0  0  0  0  0  0  0
   -5.0088   22.7054  -27.5705 H   0  0  0  0  0  0  0  0  0  0  0  0
   -3.2740   22.6381  -28.0314 H   0  0  0  0  0  0  0  0  0  0  0  0
   -4.1430   24.2102  -28.0314 H   0  0  0  0  0  0  0  0  0  0  0  0
   -4.4953   21.8424  -29.9095 H   0  0  0  0  0  0  0  0  0  0  0  0
   -2.6949   23.5565  -30.4092 H   0  0  0  0  0  0  0  0  0  0  0  0
   -3.9846   23.4712  -31.6748 H   0  0  0  0  0  0  0  0  0  0  0  0
   -5.5089   26.5221  -30.7721 H   0  0  0  0  0  0  0  0  0  0  0  0
   -5.5200   25.0890  -31.8717 H   0  0  0  0  0  0  0  0  0  0  0  0
   -6.2346   25.1164  -28.8913 H   0  0  0  0  0  0  0  0  0  0  0  0
   -7.3665   24.8913  -30.2616 H   0  0  0  0  0  0  0  0  0  0  0  0
  -10.1505   21.4227  -30.6651 H   0  0  0  0  0  0  0  0  0  0  0  0
   -7.1503   19.3611  -33.9473 H   0  0  0  0  0  0  0  0  0  0  0  0
   -4.5676   20.0855  -33.8978 H   0  0  0  0  0  0  0  0  0  0  0  0
   -4.2830   21.9231  -31.9298 H   0  0  0  0  0  0  0  0  0  0  0  0
  1  2  1  0
  2  3  1  0
  3  4  1  0
  4  5  1  0
  5  6  1  0
  6  7  1  0
  7  8  1  0
  8  9  2  0
  9 10  1  0
 10 11  2  0
 11 12  1  0
 12 13  1  0
 13 14  2  0
 14 15  1  0
 15 16  2  0
  7  2  1  0
 16  8  1  0
 16 12  1  0
  1 17  1  0
  1 18  1  0
  1 19  1  0
  2 20  1  6
  3 21  1  0
  3 22  1  0
  5 23  1  0
  5 24  1  0
  6 25  1  0
  6 26  1  0
 10 27  1  0
 13 28  1  0
 14 29  1  0
 15 30  1  0
M  END
>  <UniqueID>  (23) 
22

>  <SMILES>  (23) 
C[C@@H]1COCCN1c1ncnn2cccc12

>  <Energy>  (23) 
70.87125008802785

>  <Genealogy>  (23) 
C[C@@H]1COCCN1c1ncnn2cccc12 (chirality)
C[C@@H]1COCCN1c1ncnn2cccc12 (3D coordinates assigned)
C[C@@H]1COCCN1c1ncnn2cccc12 (nonaromatic ring conformer: 70.87125008802785 kcal/mol)

>  <smiles>  (23) 
CC1COCCN1c1ncnn2cccc12

>  <score_type>  (23) 
oracle

>  <origin>  (23) 
adg

>  <m_score__min__energy>  (23) 
-6.5800000000000001

>  <m_primary>  (23) 
energy

$$$$
23:0
     RDKit          3D

 38 40  0  0  0  0  0  0  0  0999 V2000
   -7.0477   16.2622  -33.8161 H   0  0  0  0  0  0  0  0  0  0  0  0
   -6.8720   17.2970  -33.4870 C   0  0  0  0  0  0  0  0  0  0  0  0
   -6.0490   18.1400  -34.2400 C   0  0  0  0  0  0  0  0  0  0  0  0
   -5.5749   17.7669  -35.1598 H   0  0  0  0  0  0  0  0  0  0  0  0
   -5.8280   19.4570  -33.8250 C   0  0  0  0  0  0  0  0  0  0  0  0
   -5.1757   20.1156  -34.4172 H   0  0  0  0  0  0  0  0  0  0  0  0
   -6.4360   19.9430  -32.6540 C   0  0  0  0  0  0  0  0  0  0  0  0
   -6.2010   21.2940  -32.2090 N   0  0  0  0  0  0  0  0  0  0  0  0
   -4.9340   21.7190  -31.8990 C   0  0  0  0  0  0  0  0  0  0  0  0
   -3.9490   20.9370  -32.0220 O   0  0  0  0  0  0  0  0  0  0  0  0
   -4.7160   23.0340  -31.4590 C   0  0  0  0  0  0  0  0  0  0  0  0
   -3.3650   23.4180  -31.1410 N   0  0  0  0  0  0  0  0  0  0  0  0
   -2.7120   22.9670  -30.1490 N   0  0  0  0  0  0  0  0  0  0  0  0
   -2.4170   23.7690  -29.0000 C   0  0  0  0  0  0  0  0  0  0  0  0
   -3.3620   23.8500  -27.9700 C   0  0  0  0  0  0  0  0  0  0  0  0
   -4.3114   23.3008  -28.0541 H   0  0  0  0  0  0  0  0  0  0  0  0
   -3.1050   24.6260  -26.8340 C   0  0  0  0  0  0  0  0  0  0  0  0
   -3.8510   24.6837  -26.0277 H   0  0  0  0  0  0  0  0  0  0  0  0
   -1.9010   25.3280  -26.7230 C   0  0  0  0  0  0  0  0  0  0  0  0
   -1.5510   26.3880  -25.1730 Br  0  0  0  0  0  0  0  0  0  0  0  0
   -0.9520   25.2520  -27.7490 C   0  0  0  0  0  0  0  0  0  0  0  0
   -0.0040   25.8030  -27.6615 H   0  0  0  0  0  0  0  0  0  0  0  0
   -1.2060   24.4780  -28.8840 C   0  0  0  0  0  0  0  0  0  0  0  0
   -0.4583   24.4223  -29.6888 H   0  0  0  0  0  0  0  0  0  0  0  0
   -5.8270   23.9030  -31.3650 C   0  0  0  0  0  0  0  0  0  0  0  0
   -5.7210   25.6200  -30.8290 S   0  0  0  0  0  0  0  0  0  0  0  0
   -6.7540   25.3530  -29.3550 C   0  0  0  0  0  0  0  0  0  0  0  0
   -6.1488   25.5094  -28.4499 H   0  0  0  0  0  0  0  0  0  0  0  0
   -7.5936   26.0636  -29.3620 H   0  0  0  0  0  0  0  0  0  0  0  0
   -7.1441   24.3245  -29.3620 H   0  0  0  0  0  0  0  0  0  0  0  0
   -7.0880   23.4160  -31.7020 C   0  0  0  0  0  0  0  0  0  0  0  0
   -7.9657   24.0755  -31.6330 H   0  0  0  0  0  0  0  0  0  0  0  0
   -7.2390   22.1320  -32.1150 N   0  0  0  0  0  0  0  0  0  0  0  0
   -8.2040   21.8040  -32.3470 H   0  0  0  0  0  0  0  0  0  0  0  0
   -7.2530   19.0850  -31.8980 C   0  0  0  0  0  0  0  0  0  0  0  0
   -7.7229   19.4503  -30.9729 H   0  0  0  0  0  0  0  0  0  0  0  0
   -7.4710   17.7690  -32.3170 C   0  0  0  0  0  0  0  0  0  0  0  0
   -8.1158   17.1039  -31.7238 H   0  0  0  0  0  0  0  0  0  0  0  0
  1  2  1  0
  2  3  2  0
  3  4  1  0
  3  5  1  0
  5  6  1  0
  5  7  2  0
  7  8  1  0
  8  9  1  0
  9 10  2  0
  9 11  1  0
 11 12  1  0
 12 13  2  0
 13 14  1  0
 14 15  2  0
 15 16  1  0
 15 17  1  0
 17 18  1  0
 17 19  2  0
 19 20  1  0
 19 21  1  0
 21 22  1  0
 21 23  2  0
 23 24  1  0
 11 25  2  0
 25 26  1  0
 26 27  1  0
 27 28  1  0
 27 29  1  0
 27 30  1  0
 25 31  1  0
 31 32  1  0
 31 33  2  0
 33 34  1  0
  7 35  1  0
 35 36  1  0
 35 37  2  0
 37 38  1  0
 37  2  1  0
 33  8  1  0
 23 14  1  0
M  CHG  1  33   1
M  END
>  <UniqueID>  (24) 
23

>  <SMILES>  (24) 
CSc1c[nH+]n(-c2ccccc2)c(=O)c1/N=N/c1ccc(Br)cc1

>  <Energy>  (24) 
48.90711819010622

>  <Genealogy>  (24) 
CSc1c[nH+]n(-c2ccccc2)c(=O)c1N=Nc1ccc(Br)cc1 (protonated)
CSc1c[nH+]n(-c2ccccc2)c(=O)c1/N=N/c1ccc(Br)cc1 (cis-trans isomerization)
CSc1c[nH+]n(-c2ccccc2)c(=O)c1/N=N/c1ccc(Br)cc1 (3D coordinates assigned)
CSc1c[nH+]n(-c2ccccc2)c(=O)c1/N=N/c1ccc(Br)cc1 (optimized conformer: 48.90711819010622 kcal/mol)

>  <smiles>  (24) 
CSc1cnn(-c2ccccc2)c(=O)c1N=Nc1ccc(Br)cc1

>  <score_type>  (24) 
oracle

>  <origin>  (24) 
adg

>  <m_score__min__energy>  (24) 
-8.0700000000000003

>  <m_primary>  (24) 
energy

$$$$
24:0
     RDKit          3D

 24 24  0  0  0  0  0  0  0  0999 V2000
   -2.4930   24.1950  -28.7170 C   0  0  0  0  0  0  0  0  0  0  0  0
   -3.1150   24.9700  -29.7360 O   0  0  0  0  0  0  0  0  0  0  0  0
   -4.4060   24.7040  -30.2010 C   0  0  0  0  0  0  0  0  0  0  0  0
   -4.8580   25.2960  -31.2190 O   0  0  0  0  0  0  0  0  0  0  0  0
   -5.2360   23.6700  -29.5120 C   0  0  0  0  0  0  0  0  0  0  0  0
   -5.9270   22.8050  -30.5280 C   0  0  0  0  0  0  0  0  0  0  0  0
   -5.1770   22.0810  -31.4670 C   0  0  0  0  0  0  0  0  0  0  0  0
   -5.8190   21.2940  -32.4270 C   0  0  0  0  0  0  0  0  0  0  0  0
   -7.2150   21.2350  -32.4650 C   0  0  0  0  0  0  0  0  0  0  0  0
   -7.9790   21.9770  -31.5530 C   0  0  0  0  0  0  0  0  0  0  0  0
   -9.4760   21.8910  -31.5740 C   0  0  0  0  0  0  0  0  0  0  0  0
   -7.3310   22.7530  -30.5790 C   0  0  0  0  0  0  0  0  0  0  0  0
   -2.7975   24.5744  -27.7304 H   0  0  0  0  0  0  0  0  0  0  0  0
   -2.8008   23.1437  -28.8165 H   0  0  0  0  0  0  0  0  0  0  0  0
   -1.3999   24.2680  -28.8165 H   0  0  0  0  0  0  0  0  0  0  0  0
   -4.5880   23.0440  -28.8809 H   0  0  0  0  0  0  0  0  0  0  0  0
   -5.9924   24.1702  -28.8894 H   0  0  0  0  0  0  0  0  0  0  0  0
   -4.0784   22.1330  -31.4475 H   0  0  0  0  0  0  0  0  0  0  0  0
   -5.2250   20.7203  -33.1536 H   0  0  0  0  0  0  0  0  0  0  0  0
   -7.7163   20.6038  -33.2135 H   0  0  0  0  0  0  0  0  0  0  0  0
   -9.8565   21.8691  -30.5421 H   0  0  0  0  0  0  0  0  0  0  0  0
   -9.8863   22.7671  -32.0976 H   0  0  0  0  0  0  0  0  0  0  0  0
   -9.7833   20.9737  -32.0976 H   0  0  0  0  0  0  0  0  0  0  0  0
   -7.9257   23.3241  -29.8509 H   0  0  0  0  0  0  0  0  0  0  0  0
  1  2  1  0
  2  3  1  0
  3  4  2  0
  3  5  1  0
  5  6  1  0
  6  7  2  0
  7  8  1  0
  8  9  2  0
  9 10  1  0
 10 11  1  0
 10 12  2  0
 12  6  1  0
  1 13  1  0
  1 14  1  0
  1 15  1  0
  5 16  1  0
  5 17  1  0
  7 18  1  0
  8 19  1  0
  9 20  1  0
 11 21  1  0
 11 22  1  0
 11 23  1  0
 12 24  1  0
M  END
>  <UniqueID>  (25) 
24

>  <SMILES>  (25) 
COC(=O)Cc1cccc(C)c1

>  <Energy>  (25) 
16.99689118426417

>  <Genealogy>  (25) 
COC(=O)Cc1cccc(C)c1 (3D coordinates assigned)
COC(=O)Cc1cccc(C)c1 (optimized conformer: 16.99689118426417 kcal/mol)

>  <smiles>  (25) 
COC(=O)Cc1cccc(C)c1

>  <score_type>  (25) 
oracle

>  <origin>  (25) 
adg

>  <m_score__min__energy>  (25) 
-5.6500000000000004

>  <m_primary>  (25) 
energy

$$$$
25:0
     RDKit          3D

 47 48  0  0  1  0  0  0  0  0999 V2000
   -4.4890   24.9060  -26.3960 C   0  0  0  0  0  0  0  0  0  0  0  0
   -4.0750   24.5510  -27.7880 C   0  0  0  0  0  0  0  0  0  0  0  0
   -2.7680   24.2290  -28.0730 C   0  0  0  0  0  0  0  0  0  0  0  0
   -4.5590   24.2140  -30.0340 C   0  0  0  0  0  0  0  0  0  0  0  0
   -5.4270   24.2010  -30.9780 N   0  0  0  0  0  0  0  0  0  0  0  0
   -0.5660   22.3250  -29.7040 C   0  0  0  0  0  0  0  0  0  0  0  0
   -0.7610   21.6600  -31.0190 C   0  0  0  0  0  0  0  0  0  0  0  0
   -2.0570   21.7140  -31.5980 N   0  0  0  0  0  0  0  0  0  0  0  0
   -2.9000   20.8080  -30.7960 C   0  0  0  0  0  0  0  0  0  0  0  0
   -2.1460   21.2150  -32.9550 C   0  0  0  0  0  0  0  0  0  0  0  0
   -3.2870   23.8990  -30.3190 N   0  0  0  0  0  0  0  0  0  0  0  0
   -2.3730   23.9030  -29.3350 C   0  0  0  0  0  0  0  0  0  0  0  0
   -1.1490   23.6100  -29.5400 N   0  0  0  0  0  0  0  0  0  0  0  0
   -5.5170   23.2620  -32.0570 C   0  0  0  0  0  0  0  0  0  0  0  0
   -6.8150   22.4990  -32.0210 C   0  0  0  0  0  0  0  0  0  0  0  0
   -7.9850   23.0650  -31.5660 C   0  0  0  0  0  0  0  0  0  0  0  0
   -9.1240   22.2630  -31.5760 C   0  0  0  0  0  0  0  0  0  0  0  0
   -9.1020   20.9540  -32.0170 C   0  0  0  0  0  0  0  0  0  0  0  0
   -7.9180   20.4050  -32.4700 C   0  0  0  0  0  0  0  0  0  0  0  0
   -6.7580   21.1760  -32.4760 C   0  0  0  0  0  0  0  0  0  0  0  0
   -5.4550   20.6230  -32.9580 C   0  0  0  0  0  0  0  0  0  0  0  0
   -4.9810   24.5400  -28.8020 N   0  0  0  0  0  0  0  0  0  0  0  0
   -3.8575   24.3645  -25.6763 H   0  0  0  0  0  0  0  0  0  0  0  0
   -4.3724   25.9892  -26.2438 H   0  0  0  0  0  0  0  0  0  0  0  0
   -5.5417   24.6255  -26.2438 H   0  0  0  0  0  0  0  0  0  0  0  0
   -2.0245   24.2350  -27.2624 H   0  0  0  0  0  0  0  0  0  0  0  0
    0.5170   22.4284  -29.5415 H   0  0  0  0  0  0  0  0  0  0  0  0
   -1.0836   21.6809  -28.9779 H   0  0  0  0  0  0  0  0  0  0  0  0
   -0.0633   22.1263  -31.7302 H   0  0  0  0  0  0  0  0  0  0  0  0
   -0.5885   20.5920  -30.8200 H   0  0  0  0  0  0  0  0  0  0  0  0
   -2.7254   20.9957  -29.7263 H   0  0  0  0  0  0  0  0  0  0  0  0
   -3.9592   20.9881  -31.0317 H   0  0  0  0  0  0  0  0  0  0  0  0
   -2.6442   19.7645  -31.0317 H   0  0  0  0  0  0  0  0  0  0  0  0
   -2.3391   20.1323  -32.9356 H   0  0  0  0  0  0  0  0  0  0  0  0
   -2.9674   21.7246  -33.4799 H   0  0  0  0  0  0  0  0  0  0  0  0
   -1.1990   21.4092  -33.4799 H   0  0  0  0  0  0  0  0  0  0  0  0
   -2.9740   23.6550  -31.2650 H   0  0  0  0  0  0  0  0  0  0  0  0
   -5.4492   23.8063  -33.0105 H   0  0  0  0  0  0  0  0  0  0  0  0
   -4.6916   22.5419  -31.9562 H   0  0  0  0  0  0  0  0  0  0  0  0
   -8.0188   24.1053  -31.2101 H   0  0  0  0  0  0  0  0  0  0  0  0
  -10.0746   22.6870  -31.2201 H   0  0  0  0  0  0  0  0  0  0  0  0
  -10.0225   20.3519  -32.0075 H   0  0  0  0  0  0  0  0  0  0  0  0
   -7.8915   19.3639  -32.8243 H   0  0  0  0  0  0  0  0  0  0  0  0
   -4.8278   20.3568  -32.0945 H   0  0  0  0  0  0  0  0  0  0  0  0
   -5.6402   19.7259  -33.5671 H   0  0  0  0  0  0  0  0  0  0  0  0
   -4.9385   21.3795  -33.5671 H   0  0  0  0  0  0  0  0  0  0  0  0
   -5.9600   24.7840  -28.5830 H   0  0  0  0  0  0  0  0  0  0  0  0
  1  2  1  0
  2  3  2  0
  3  4  1  0
  4  5  2  0
  5  6  1  0
  6  7  1  0
  7  8  1  0
  8  9  1  0
  8 10  1  0
  4 11  1  0
 11 12  1  0
 12 13  2  0
 13 14  1  0
 14 15  1  0
 15 16  2  0
 16 17  1  0
 17 18  2  0
 18 19  1  0
 19 20  2  0
 20 21  1  0
 12 22  1  0
 22  2  1  0
 20 15  1  0
  1 23  1  0
  1 24  1  0
  1 25  1  0
  3 26  1  0
  6 27  1  0
  6 28  1  0
  7 29  1  0
  7 30  1  0
  9 31  1  0
  9 32  1  0
  9 33  1  0
 10 34  1  0
 10 35  1  0
 10 36  1  0
 11 37  1  0
 14 38  1  0
 14 39  1  0
 16 40  1  0
 17 41  1  0
 18 42  1  0
 19 43  1  0
 21 44  1  0
 21 45  1  0
 21 46  1  0
 22 47  1  0
M  END
>  <smiles>  (26) 
Cc1cc(=NCCN(C)C)[nH]c(=NCc2ccccc2C)[nH]1

>  <score_type>  (26) 
oracle

>  <origin>  (26) 
adg

>  <m_score__min__energy>  (26) 
-7.6699999999999999

>  <m_primary>  (26) 
energy

$$$$
26:0
     RDKit          3D

 37 39  0  0  0  0  0  0  0  0999 V2000
   -9.1180   18.5230  -31.6140 C   0  0  0  0  0  0  0  0  0  0  0  0
   -9.2670   19.8820  -32.2860 C   0  0  0  0  0  0  0  0  0  0  0  0
   -7.9690   20.5430  -32.3810 N   0  0  0  0  0  0  0  0  0  0  0  0
   -7.4440   21.3920  -31.4770 C   0  0  0  0  0  0  0  0  0  0  0  0
   -6.1690   21.7460  -31.9000 C   0  0  0  0  0  0  0  0  0  0  0  0
   -5.2090   22.6530  -31.2220 C   0  0  0  0  0  0  0  0  0  0  0  0
   -5.4870   24.0240  -31.0990 C   0  0  0  0  0  0  0  0  0  0  0  0
   -4.5760   24.8790  -30.4790 C   0  0  0  0  0  0  0  0  0  0  0  0
   -3.3800   24.3810  -29.9590 C   0  0  0  0  0  0  0  0  0  0  0  0
   -3.0810   23.0050  -30.0460 C   0  0  0  0  0  0  0  0  0  0  0  0
   -3.9980   22.1580  -30.7050 C   0  0  0  0  0  0  0  0  0  0  0  0
   -1.7290   22.4710  -29.5510 C   0  0  0  0  0  0  0  0  0  0  0  0
   -0.8260   22.1880  -30.7610 C   0  0  0  0  0  0  0  0  0  0  0  0
   -1.9120   21.1830  -28.7270 C   0  0  0  0  0  0  0  0  0  0  0  0
   -1.0490   23.4080  -28.7040 O   0  0  0  0  0  0  0  0  0  0  0  0
   -1.3010   24.7790  -28.7020 C   0  0  0  0  0  0  0  0  0  0  0  0
   -0.5220   25.5630  -28.1020 O   0  0  0  0  0  0  0  0  0  0  0  0
   -2.4660   25.2820  -29.3410 N   0  0  0  0  0  0  0  0  0  0  0  0
   -5.9830   21.0480  -33.0870 C   0  0  0  0  0  0  0  0  0  0  0  0
   -7.0890   20.3270  -33.3440 N   0  0  0  0  0  0  0  0  0  0  0  0
   -9.1320   18.6507  -30.5215 H   0  0  0  0  0  0  0  0  0  0  0  0
   -9.9500   17.8706  -31.9176 H   0  0  0  0  0  0  0  0  0  0  0  0
   -8.1644   18.0664  -31.9176 H   0  0  0  0  0  0  0  0  0  0  0  0
   -9.6794   19.7443  -33.2965 H   0  0  0  0  0  0  0  0  0  0  0  0
   -9.9446   20.5067  -31.6855 H   0  0  0  0  0  0  0  0  0  0  0  0
   -7.9398   21.7447  -30.5606 H   0  0  0  0  0  0  0  0  0  0  0  0
   -6.4309   24.4269  -31.4949 H   0  0  0  0  0  0  0  0  0  0  0  0
   -4.8014   25.9527  -30.3992 H   0  0  0  0  0  0  0  0  0  0  0  0
   -3.7609   21.0897  -30.8165 H   0  0  0  0  0  0  0  0  0  0  0  0
    0.1691   21.8761  -30.4109 H   0  0  0  0  0  0  0  0  0  0  0  0
   -1.2688   21.3856  -31.3693 H   0  0  0  0  0  0  0  0  0  0  0  0
   -0.7316   23.0996  -31.3693 H   0  0  0  0  0  0  0  0  0  0  0  0
   -1.8775   21.4257  -27.6547 H   0  0  0  0  0  0  0  0  0  0  0  0
   -2.8838   20.7280  -28.9689 H   0  0  0  0  0  0  0  0  0  0  0  0
   -1.1054   20.4753  -28.9689 H   0  0  0  0  0  0  0  0  0  0  0  0
   -5.0795   21.0799  -33.7137 H   0  0  0  0  0  0  0  0  0  0  0  0
   -7.2330   19.6880  -34.1560 H   0  0  0  0  0  0  0  0  0  0  0  0
  1  2  1  0
  2  3  1  0
  3  4  1  0
  4  5  2  0
  5  6  1  0
  6  7  2  0
  7  8  1  0
  8  9  2  0
  9 10  1  0
 10 11  2  0
 10 12  1  0
 12 13  1  0
 12 14  1  0
 12 15  1  0
 15 16  1  0
 16 17  2  0
 16 18  1  0
  5 19  1  0
 19 20  2  0
 20  3  1  0
 11  6  1  0
 18  9  1  0
  1 21  1  0
  1 22  1  0
  1 23  1  0
  2 24  1  0
  2 25  1  0
  4 26  1  0
  7 27  1  0
  8 28  1  0
 11 29  1  0
 13 30  1  0
 13 31  1  0
 13 32  1  0
 14 33  1  0
 14 34  1  0
 14 35  1  0
 19 36  1  0
 20 37  1  0
M  CHG  2  18  -1  20   1
M  END
>  <UniqueID>  (27) 
25

>  <SMILES>  (27) 
CCn1cc(-c2ccc3c(c2)C(C)(C)OC(=O)[N-]3)c[nH+]1

>  <Energy>  (27) 
67.78382253672203

>  <Genealogy>  (27) 
CCn1cc(-c2ccc3c(c2)C(C)(C)OC(=O)[N-]3)c[nH+]1 (protonated)
CCn1cc(-c2ccc3c(c2)C(C)(C)OC(=O)[N-]3)c[nH+]1 (3D coordinates assigned)
CCn1cc(-c2ccc3c(c2)C(C)(C)OC(=O)[N-]3)c[nH+]1 (nonaromatic ring conformer: 67.78382253672203 kcal/mol)

>  <smiles>  (27) 
CCn1cc(-c2ccc3c(c2)C(C)(C)OC(=O)N3)cn1

>  <score_type>  (27) 
oracle

>  <origin>  (27) 
adg

>  <m_score__min__energy>  (27) 
-8.8699999999999992

>  <m_primary>  (27) 
energy

$$$$
27:0
     RDKit          3D

 47 49  0  0  0  0  0  0  0  0999 V2000
   -5.4380   24.7660  -30.5120 C   0  0  0  0  0  0  0  0  0  0  0  0
   -4.1440   24.2700  -30.8350 O   0  0  0  0  0  0  0  0  0  0  0  0
   -3.9030   23.0480  -31.4810 C   0  0  0  0  0  0  0  0  0  0  0  0
   -2.7490   22.2790  -31.2390 C   0  0  0  0  0  0  0  0  0  0  0  0
   -2.5570   21.0660  -31.9060 C   0  0  0  0  0  0  0  0  0  0  0  0
   -3.5110   20.6040  -32.8260 C   0  0  0  0  0  0  0  0  0  0  0  0
   -3.3230   19.2760  -33.5080 C   0  0  0  0  0  0  0  0  0  0  0  0
   -4.5930   18.8010  -34.2470 C   0  0  0  0  0  0  0  0  0  0  0  0
   -5.0530   17.4500  -33.8120 N   0  0  0  0  0  0  0  0  0  0  0  0
   -4.8720   17.2620  -32.3510 C   0  0  0  0  0  0  0  0  0  0  0  0
   -5.7480   18.2330  -31.5390 C   0  0  0  0  0  0  0  0  0  0  0  0
   -7.0440   18.4260  -32.1970 N   0  0  0  0  0  0  0  0  0  0  0  0
   -7.8060   19.6270  -31.9650 C   0  0  0  0  0  0  0  0  0  0  0  0
   -7.2360   20.7070  -31.2690 C   0  0  0  0  0  0  0  0  0  0  0  0
   -7.9700   21.8790  -31.0590 C   0  0  0  0  0  0  0  0  0  0  0  0
   -9.2740   21.9860  -31.5490 C   0  0  0  0  0  0  0  0  0  0  0  0
   -9.8460   20.9220  -32.2510 C   0  0  0  0  0  0  0  0  0  0  0  0
   -9.1160   19.7490  -32.4630 C   0  0  0  0  0  0  0  0  0  0  0  0
   -7.5070   17.3940  -33.1260 C   0  0  0  0  0  0  0  0  0  0  0  0
   -6.4590   17.1650  -34.2330 C   0  0  0  0  0  0  0  0  0  0  0  0
   -4.6630   21.3700  -33.0650 C   0  0  0  0  0  0  0  0  0  0  0  0
   -4.8530   22.5830  -32.3970 C   0  0  0  0  0  0  0  0  0  0  0  0
   -5.5516   24.8096  -29.4187 H   0  0  0  0  0  0  0  0  0  0  0  0
   -5.5599   25.7746  -30.9338 H   0  0  0  0  0  0  0  0  0  0  0  0
   -6.2028   24.0973  -30.9338 H   0  0  0  0  0  0  0  0  0  0  0  0
   -1.9948   22.6345  -30.5215 H   0  0  0  0  0  0  0  0  0  0  0  0
   -1.6535   20.4703  -31.7089 H   0  0  0  0  0  0  0  0  0  0  0  0
   -2.5048   19.3676  -34.2375 H   0  0  0  0  0  0  0  0  0  0  0  0
   -3.0931   18.5326  -32.7305 H   0  0  0  0  0  0  0  0  0  0  0  0
   -5.4000   19.5238  -34.0561 H   0  0  0  0  0  0  0  0  0  0  0  0
   -4.3442   18.7340  -35.3164 H   0  0  0  0  0  0  0  0  0  0  0  0
   -4.4410   16.7300  -34.2650 H   0  0  0  0  0  0  0  0  0  0  0  0
   -5.1459   16.2297  -32.0878 H   0  0  0  0  0  0  0  0  0  0  0  0
   -3.8187   17.4648  -32.1071 H   0  0  0  0  0  0  0  0  0  0  0  0
   -5.9106   17.8192  -30.5329 H   0  0  0  0  0  0  0  0  0  0  0  0
   -5.2350   19.2036  -31.4707 H   0  0  0  0  0  0  0  0  0  0  0  0
   -6.2072   20.6301  -30.8874 H   0  0  0  0  0  0  0  0  0  0  0  0
   -7.5200   22.7175  -30.5073 H   0  0  0  0  0  0  0  0  0  0  0  0
   -9.8503   22.9079  -31.3821 H   0  0  0  0  0  0  0  0  0  0  0  0
  -10.8723   21.0075  -32.6374 H   0  0  0  0  0  0  0  0  0  0  0  0
   -9.5683   18.9168  -33.0223 H   0  0  0  0  0  0  0  0  0  0  0  0
   -7.6656   16.4547  -32.5759 H   0  0  0  0  0  0  0  0  0  0  0  0
   -8.4499   17.7231  -33.5871 H   0  0  0  0  0  0  0  0  0  0  0  0
   -6.5176   16.1139  -34.5519 H   0  0  0  0  0  0  0  0  0  0  0  0
   -6.6958   17.8693  -35.0441 H   0  0  0  0  0  0  0  0  0  0  0  0
   -5.4189   21.0143  -33.7806 H   0  0  0  0  0  0  0  0  0  0  0  0
   -5.7575   23.1774  -32.5932 H   0  0  0  0  0  0  0  0  0  0  0  0
  1  2  1  0
  2  3  1  0
  3  4  2  0
  4  5  1  0
  5  6  2  0
  6  7  1  0
  7  8  1  0
  8  9  1  0
  9 10  1  0
 10 11  1  0
 11 12  1  0
 12 13  1  0
 13 14  2  0
 14 15  1  0
 15 16  2  0
 16 17  1  0
 17 18  2  0
 12 19  1  0
 19 20  1  0
  6 21  1  0
 21 22  2  0
 22  3  1  0
 20  9  1  0
 18 13  1  0
  1 23  1  0
  1 24  1  0
  1 25  1  0
  4 26  1  0
  5 27  1  0
  7 28  1  0
  7 29  1  0
  8 30  1  0
  8 31  1  0
  9 32  1  0
 10 33  1  0
 10 34  1  0
 11 35  1  0
 11 36  1  0
 14 37  1  0
 15 38  1  0
 16 39  1  0
 17 40  1  0
 18 41  1  0
 19 42  1  0
 19 43  1  0
 20 44  1  0
 20 45  1  0
 21 46  1  0
 22 47  1  0
M  CHG  1   9   1
M  END
>  <UniqueID>  (28) 
26

>  <SMILES>  (28) 
COc1ccc(CC[NH+]2CCN(c3ccccc3)CC2)cc1

>  <Energy>  (28) 
59.49387973280093

>  <Genealogy>  (28) 
COc1ccc(CC[NH+]2CCN(c3ccccc3)CC2)cc1 (protonated)
COc1ccc(CC[NH+]2CCN(c3ccccc3)CC2)cc1 (3D coordinates assigned)
COc1ccc(CC[NH+]2CCN(c3ccccc3)CC2)cc1 (nonaromatic ring conformer: 59.49387973280093 kcal/mol)

>  <smiles>  (28) 
COc1ccc(CCN2CCN(c3ccccc3)CC2)cc1

>  <score_type>  (28) 
oracle

>  <origin>  (28) 
adg

>  <m_score__min__energy>  (28) 
-6.7800000000000002

>  <m_primary>  (28) 
energy

$$$$
28:0
     RDKit          3D

 25 27  0  0  0  0  0  0  0  0999 V2000
   -7.2340   17.4570  -33.1370 C   0  0  0  0  0  0  0  0  0  0  0  0
   -6.8200   18.8400  -32.7280 C   0  0  0  0  0  0  0  0  0  0  0  0
   -5.5320   19.3260  -33.0750 C   0  0  0  0  0  0  0  0  0  0  0  0
   -5.1150   20.6070  -32.6680 C   0  0  0  0  0  0  0  0  0  0  0  0
   -6.0060   21.3620  -31.9080 C   0  0  0  0  0  0  0  0  0  0  0  0
   -7.2450   20.8950  -31.5540 C   0  0  0  0  0  0  0  0  0  0  0  0
   -7.6860   19.6330  -31.9420 C   0  0  0  0  0  0  0  0  0  0  0  0
   -7.9140   21.8060  -30.8120 N   0  0  0  0  0  0  0  0  0  0  0  0
   -7.0220   22.8280  -30.7420 C   0  0  0  0  0  0  0  0  0  0  0  0
   -7.2250   24.0340  -30.0740 C   0  0  0  0  0  0  0  0  0  0  0  0
   -6.1880   24.9810  -30.1060 C   0  0  0  0  0  0  0  0  0  0  0  0
   -4.9850   24.7050  -30.7920 C   0  0  0  0  0  0  0  0  0  0  0  0
   -3.9520   25.6390  -30.8270 O   0  0  0  0  0  0  0  0  0  0  0  0
   -4.8340   23.4740  -31.4480 C   0  0  0  0  0  0  0  0  0  0  0  0
   -5.8630   22.5890  -31.3920 N   0  0  0  0  0  0  0  0  0  0  0  0
   -7.4162   16.8482  -32.2391 H   0  0  0  0  0  0  0  0  0  0  0  0
   -8.1551   17.5120  -33.7359 H   0  0  0  0  0  0  0  0  0  0  0  0
   -6.4342   16.9969  -33.7359 H   0  0  0  0  0  0  0  0  0  0  0  0
   -4.8533   18.6951  -33.6678 H   0  0  0  0  0  0  0  0  0  0  0  0
   -4.1232   20.9975  -32.9396 H   0  0  0  0  0  0  0  0  0  0  0  0
   -8.6790   19.2641  -31.6456 H   0  0  0  0  0  0  0  0  0  0  0  0
   -8.1649   24.2374  -29.5400 H   0  0  0  0  0  0  0  0  0  0  0  0
   -6.3141   25.9455  -29.5924 H   0  0  0  0  0  0  0  0  0  0  0  0
   -3.2920   25.6660  -31.5960 H   0  0  0  0  0  0  0  0  0  0  0  0
   -3.9090   23.2325  -31.9920 H   0  0  0  0  0  0  0  0  0  0  0  0
  1  2  1  0
  2  3  2  0
  3  4  1  0
  4  5  2  0
  5  6  1  0
  6  7  2  0
  6  8  1  0
  8  9  2  0
  9 10  1  0
 10 11  2  0
 11 12  1  0
 12 13  1  0
 12 14  2  0
 14 15  1  0
  7  2  1  0
 15  9  1  0
 15  5  1  0
  1 16  1  0
  1 17  1  0
  1 18  1  0
  3 19  1  0
  4 20  1  0
  7 21  1  0
 10 22  1  0
 11 23  1  0
 13 24  1  0
 14 25  1  0
M  END
>  <UniqueID>  (29) 
27

>  <SMILES>  (29) 
Cc1ccc2c(c1)nc1ccc(O)cn12

>  <Energy>  (29) 
69.31258577786924

>  <Genealogy>  (29) 
Cc1ccc2c(c1)nc1ccc(O)cn12 (3D coordinates assigned)
Cc1ccc2c(c1)nc1ccc(O)cn12 (optimized conformer: 69.31258577786924 kcal/mol)

>  <smiles>  (29) 
Cc1ccc2c(c1)nc1ccc(O)cn12

>  <score_type>  (29) 
oracle

>  <origin>  (29) 
adg

>  <m_score__min__energy>  (29) 
-7.8300000000000001

>  <m_primary>  (29) 
energy

$$$$
29:0
     RDKit          3D

 40 43  0  0  0  0  0  0  0  0999 V2000
   -9.1090   23.0270  -31.9860 C   0  0  0  0  0  0  0  0  0  0  0  0
   -9.2170   21.6170  -32.1490 O   0  0  0  0  0  0  0  0  0  0  0  0
   -8.1220   20.7460  -32.2620 C   0  0  0  0  0  0  0  0  0  0  0  0
   -8.3610   19.3690  -32.1980 C   0  0  0  0  0  0  0  0  0  0  0  0
   -7.3040   18.4620  -32.2960 C   0  0  0  0  0  0  0  0  0  0  0  0
   -5.9970   18.9230  -32.4660 C   0  0  0  0  0  0  0  0  0  0  0  0
   -5.7390   20.3010  -32.5570 C   0  0  0  0  0  0  0  0  0  0  0  0
   -4.3590   20.8050  -32.7130 C   0  0  0  0  0  0  0  0  0  0  0  0
   -3.4610   20.2270  -33.5350 N   0  0  0  0  0  0  0  0  0  0  0  0
   -2.3910   21.0470  -33.4670 C   0  0  0  0  0  0  0  0  0  0  0  0
   -1.1400   20.8310  -34.2090 C   0  0  0  0  0  0  0  0  0  0  0  0
   -0.7200   19.5390  -34.5660 C   0  0  0  0  0  0  0  0  0  0  0  0
    0.4740   19.3780  -35.2710 C   0  0  0  0  0  0  0  0  0  0  0  0
    1.2360   20.4960  -35.6140 C   0  0  0  0  0  0  0  0  0  0  0  0
    0.7890   21.7660  -35.2430 C   0  0  0  0  0  0  0  0  0  0  0  0
   -0.3760   21.9040  -34.5570 N   0  0  0  0  0  0  0  0  0  0  0  0
   -2.5860   22.0690  -32.6620 O   0  0  0  0  0  0  0  0  0  0  0  0
   -3.7900   21.9470  -32.1640 C   0  0  0  0  0  0  0  0  0  0  0  0
   -4.3480   22.8850  -31.1710 C   0  0  0  0  0  0  0  0  0  0  0  0
   -4.1470   22.7040  -29.7940 C   0  0  0  0  0  0  0  0  0  0  0  0
   -4.6740   23.6360  -28.8970 C   0  0  0  0  0  0  0  0  0  0  0  0
   -5.3740   24.7440  -29.3760 C   0  0  0  0  0  0  0  0  0  0  0  0
   -5.5320   24.9080  -30.7530 C   0  0  0  0  0  0  0  0  0  0  0  0
   -5.0150   23.9870  -31.6120 N   0  0  0  0  0  0  0  0  0  0  0  0
   -6.8030   21.2090  -32.4350 C   0  0  0  0  0  0  0  0  0  0  0  0
   -9.0903   23.2718  -30.9137 H   0  0  0  0  0  0  0  0  0  0  0  0
   -8.1811   23.3808  -32.4591 H   0  0  0  0  0  0  0  0  0  0  0  0
   -9.9722   23.5180  -32.4591 H   0  0  0  0  0  0  0  0  0  0  0  0
   -9.3887   18.9984  -32.0696 H   0  0  0  0  0  0  0  0  0  0  0  0
   -7.5014   17.3814  -32.2391 H   0  0  0  0  0  0  0  0  0  0  0  0
   -5.1663   18.2046  -32.5289 H   0  0  0  0  0  0  0  0  0  0  0  0
   -1.3261   18.6627  -34.2927 H   0  0  0  0  0  0  0  0  0  0  0  0
    0.8139   18.3714  -35.5559 H   0  0  0  0  0  0  0  0  0  0  0  0
    2.1777   20.3781  -36.1701 H   0  0  0  0  0  0  0  0  0  0  0  0
    1.3804   22.6554  -35.5063 H   0  0  0  0  0  0  0  0  0  0  0  0
   -3.5800   21.8367  -29.4247 H   0  0  0  0  0  0  0  0  0  0  0  0
   -4.5374   23.4967  -27.8144 H   0  0  0  0  0  0  0  0  0  0  0  0
   -5.7966   25.4800  -28.6762 H   0  0  0  0  0  0  0  0  0  0  0  0
   -6.0743   25.7814  -31.1442 H   0  0  0  0  0  0  0  0  0  0  0  0
   -6.6050   22.2903  -32.4748 H   0  0  0  0  0  0  0  0  0  0  0  0
  1  2  1  0
  2  3  1  0
  3  4  2  0
  4  5  1  0
  5  6  2  0
  6  7  1  0
  7  8  1  0
  8  9  1  0
  9 10  2  0
 10 11  1  0
 11 12  2  0
 12 13  1  0
 13 14  2  0
 14 15  1  0
 15 16  2  0
 10 17  1  0
 17 18  1  0
 18 19  1  0
 19 20  2  0
 20 21  1  0
 21 22  2  0
 22 23  1  0
 23 24  2  0
  7 25  2  0
 25  3  1  0
 18  8  2  0
 24 19  1  0
 16 11  1  0
  1 26  1  0
  1 27  1  0
  1 28  1  0
  4 29  1  0
  5 30  1  0
  6 31  1  0
 12 32  1  0
 13 33  1  0
 14 34  1  0
 15 35  1  0
 20 36  1  0
 21 37  1  0
 22 38  1  0
 23 39  1  0
 25 40  1  0
M  END
>  <UniqueID>  (30) 
28

>  <SMILES>  (30) 
COc1cccc(-c2nc(-c3ccccn3)oc2-c2ccccn2)c1

>  <Energy>  (30) 
82.27045121992384

>  <Genealogy>  (30) 
COc1cccc(-c2nc(-c3ccccn3)oc2-c2ccccn2)c1 (3D coordinates assigned)
COc1cccc(-c2nc(-c3ccccn3)oc2-c2ccccn2)c1 (optimized conformer: 82.27045121992384 kcal/mol)

>  <smiles>  (30) 
COc1cccc(-c2nc(-c3ccccn3)oc2-c2ccccn2)c1

>  <score_type>  (30) 
oracle

>  <origin>  (30) 
adg

>  <m_score__min__energy>  (30) 
-8.1099999999999994

>  <m_primary>  (30) 
energy

$$$$
30:0
     RDKit          3D

 55 57  0  0  0  0  0  0  0  0999 V2000
   -3.3190   20.4940  -33.0470 C   0  0  0  0  0  0  0  0  0  0  0  0
   -2.8740   21.3870  -31.9270 C   0  0  0  0  0  0  0  0  0  0  0  0
   -1.8610   20.9720  -31.0510 C   0  0  0  0  0  0  0  0  0  0  0  0
   -1.4730   21.7900  -29.9880 C   0  0  0  0  0  0  0  0  0  0  0  0
   -2.1040   23.0190  -29.7790 C   0  0  0  0  0  0  0  0  0  0  0  0
   -3.1410   23.4360  -30.6340 C   0  0  0  0  0  0  0  0  0  0  0  0
   -3.8230   24.6510  -30.4620 O   0  0  0  0  0  0  0  0  0  0  0  0
   -4.8070   24.9150  -29.4590 C   0  0  0  0  0  0  0  0  0  0  0  0
   -6.1270   25.3880  -30.0850 C   0  0  0  0  0  0  0  0  0  0  0  0
   -6.8560   24.2560  -30.6960 N   0  0  0  0  0  0  0  0  0  0  0  0
   -6.7860   23.0480  -29.8570 C   0  0  0  0  0  0  0  0  0  0  0  0
   -7.7870   21.9950  -30.3640 C   0  0  0  0  0  0  0  0  0  0  0  0
   -8.1650   22.1640  -31.8630 C   0  0  0  0  0  0  0  0  0  0  0  0
   -8.7120   20.8840  -32.4100 N   0  0  0  0  0  0  0  0  0  0  0  0
  -10.1870   20.8260  -32.3340 C   0  0  0  0  0  0  0  0  0  0  0  0
   -8.1280   19.6960  -31.7290 C   0  0  0  0  0  0  0  0  0  0  0  0
   -7.2980   18.8930  -32.6970 C   0  0  0  0  0  0  0  0  0  0  0  0
   -7.2730   17.4900  -32.6100 C   0  0  0  0  0  0  0  0  0  0  0  0
   -6.4940   16.7430  -33.4980 C   0  0  0  0  0  0  0  0  0  0  0  0
   -5.7240   17.3890  -34.4700 C   0  0  0  0  0  0  0  0  0  0  0  0
   -5.7300   18.7840  -34.5520 C   0  0  0  0  0  0  0  0  0  0  0  0
   -6.5080   19.5360  -33.6660 C   0  0  0  0  0  0  0  0  0  0  0  0
   -6.9160   22.6600  -32.6390 C   0  0  0  0  0  0  0  0  0  0  0  0
   -6.3290   23.9620  -32.0440 C   0  0  0  0  0  0  0  0  0  0  0  0
   -3.5170   22.6160  -31.7060 C   0  0  0  0  0  0  0  0  0  0  0  0
   -3.7732   19.5826  -32.6309 H   0  0  0  0  0  0  0  0  0  0  0  0
   -4.0590   21.0228  -33.6657 H   0  0  0  0  0  0  0  0  0  0  0  0
   -2.4512   20.2217  -33.6657 H   0  0  0  0  0  0  0  0  0  0  0  0
   -1.3704   19.9990  -31.2016 H   0  0  0  0  0  0  0  0  0  0  0  0
   -0.6676   21.4657  -29.3126 H   0  0  0  0  0  0  0  0  0  0  0  0
   -1.7894   23.6622  -28.9440 H   0  0  0  0  0  0  0  0  0  0  0  0
   -4.9914   23.9940  -28.8865 H   0  0  0  0  0  0  0  0  0  0  0  0
   -4.4286   25.7118  -28.8018 H   0  0  0  0  0  0  0  0  0  0  0  0
   -6.7546   25.8408  -29.3032 H   0  0  0  0  0  0  0  0  0  0  0  0
   -5.9000   26.1247  -30.8697 H   0  0  0  0  0  0  0  0  0  0  0  0
   -5.7681   22.6332  -29.9002 H   0  0  0  0  0  0  0  0  0  0  0  0
   -7.0372   23.3143  -28.8197 H   0  0  0  0  0  0  0  0  0  0  0  0
   -7.3416   20.9984  -30.2282 H   0  0  0  0  0  0  0  0  0  0  0  0
   -8.7117   22.1236  -29.7824 H   0  0  0  0  0  0  0  0  0  0  0  0
   -8.9600   22.9156  -31.9773 H   0  0  0  0  0  0  0  0  0  0  0  0
  -10.4996   20.8137  -31.2794 H   0  0  0  0  0  0  0  0  0  0  0  0
  -10.6148   21.7080  -32.8330 H   0  0  0  0  0  0  0  0  0  0  0  0
  -10.5443   19.9131  -32.8330 H   0  0  0  0  0  0  0  0  0  0  0  0
   -7.4916   20.0313  -30.8968 H   0  0  0  0  0  0  0  0  0  0  0  0
   -8.9445   19.0646  -31.3487 H   0  0  0  0  0  0  0  0  0  0  0  0
   -7.8689   16.9782  -31.8400 H   0  0  0  0  0  0  0  0  0  0  0  0
   -6.4867   15.6450  -33.4321 H   0  0  0  0  0  0  0  0  0  0  0  0
   -5.1137   16.7993  -35.1699 H   0  0  0  0  0  0  0  0  0  0  0  0
   -5.1216   19.2916  -35.3150 H   0  0  0  0  0  0  0  0  0  0  0  0
   -6.5018   20.6343  -33.7275 H   0  0  0  0  0  0  0  0  0  0  0  0
   -6.1445   21.8767  -32.6040 H   0  0  0  0  0  0  0  0  0  0  0  0
   -7.2270   22.8744  -33.6721 H   0  0  0  0  0  0  0  0  0  0  0  0
   -5.2357   23.8592  -31.9806 H   0  0  0  0  0  0  0  0  0  0  0  0
   -6.6197   24.7920  -32.7047 H   0  0  0  0  0  0  0  0  0  0  0  0
   -4.3236   22.9378  -32.3811 H   0  0  0  0  0  0  0  0  0  0  0  0
  1  2  1  0
  2  3  2  0
  3  4  1  0
  4  5  2  0
  5  6  1  0
  6  7  1  0
  7  8  1  0
  8  9  1  0
  9 10  1  0
 10 11  1  0
 11 12  1  0
 12 13  1  0
 13 14  1  0
 14 15  1  0
 14 16  1  0
 16 17  1  0
 17 18  2  0
 18 19  1  0
 19 20  2  0
 20 21  1  0
 21 22  2  0
 13 23  1  0
 23 24  1  0
  6 25  2  0
 25  2  1  0
 24 10  1  0
 22 17  1  0
  1 26  1  0
  1 27  1  0
  1 28  1  0
  3 29  1  0
  4 30  1  0
  5 31  1  0
  8 32  1  0
  8 33  1  0
  9 34  1  0
  9 35  1  0
 11 36  1  0
 11 37  1  0
 12 38  1  0
 12 39  1  0
 13 40  1  0
 15 41  1  0
 15 42  1  0
 15 43  1  0
 16 44  1  0
 16 45  1  0
 18 46  1  0
 19 47  1  0
 20 48  1  0
 21 49  1  0
 22 50  1  0
 23 51  1  0
 23 52  1  0
 24 53  1  0
 24 54  1  0
 25 55  1  0
M  END
>  <UniqueID>  (31) 
29

>  <SMILES>  (31) 
Cc1cccc(OCCN2CCC(N(C)Cc3ccccc3)CC2)c1

>  <Energy>  (31) 
67.27933626974524

>  <Genealogy>  (31) 
Cc1cccc(OCCN2CCC(N(C)Cc3ccccc3)CC2)c1 (3D coordinates assigned)
Cc1cccc(OCCN2CCC(N(C)Cc3ccccc3)CC2)c1 (nonaromatic ring conformer: 67.27933626974524 kcal/mol)

>  <smiles>  (31) 
Cc1cccc(OCCN2CCC(N(C)Cc3ccccc3)CC2)c1

>  <score_type>  (31) 
oracle

>  <origin>  (31) 
adg

>  <m_score__min__energy>  (31) 
-9.0199999999999996

>  <m_primary>  (31) 
energy

$$$$
31:0
     RDKit          3D

 32 33  0  0  0  0  0  0  0  0999 V2000
   -9.5510   21.9590  -32.3250 O   0  0  0  0  0  0  0  0  0  0  0  0
   -8.5390   21.4770  -31.7470 C   0  0  0  0  0  0  0  0  0  0  0  0
   -7.9550   22.2930  -30.2550 S   0  0  0  0  0  0  0  0  0  0  0  0
   -7.0070   23.6090  -31.1080 C   0  0  0  0  0  0  0  0  0  0  0  0
   -6.6450   24.7730  -30.1740 C   0  0  0  0  0  0  0  0  0  0  0  0
   -5.5360   24.4280  -29.2830 N   0  0  0  0  0  0  0  0  0  0  0  0
   -4.1710   24.6250  -29.6750 C   0  0  0  0  0  0  0  0  0  0  0  0
   -3.9030   25.0210  -30.8420 O   0  0  0  0  0  0  0  0  0  0  0  0
   -3.0710   24.3770  -28.7260 C   0  0  0  0  0  0  0  0  0  0  0  0
   -3.0240   23.3560  -27.7850 C   0  0  0  0  0  0  0  0  0  0  0  0
   -1.8490   23.3540  -27.0240 C   0  0  0  0  0  0  0  0  0  0  0  0
   -0.9640   24.3690  -27.3600 C   0  0  0  0  0  0  0  0  0  0  0  0
   -1.6460   25.2690  -28.6070 S   0  0  0  0  0  0  0  0  0  0  0  0
   -7.8710   20.2740  -32.3020 C   0  0  0  0  0  0  0  0  0  0  0  0
   -8.2710   18.9900  -31.8840 C   0  0  0  0  0  0  0  0  0  0  0  0
   -7.6380   17.8500  -32.3880 C   0  0  0  0  0  0  0  0  0  0  0  0
   -6.6020   17.9740  -33.3140 C   0  0  0  0  0  0  0  0  0  0  0  0
   -6.1970   19.2420  -33.7400 C   0  0  0  0  0  0  0  0  0  0  0  0
   -6.8250   20.3860  -33.2390 C   0  0  0  0  0  0  0  0  0  0  0  0
   -6.0782   23.1736  -31.5052 H   0  0  0  0  0  0  0  0  0  0  0  0
   -7.6417   24.0105  -31.9117 H   0  0  0  0  0  0  0  0  0  0  0  0
   -6.3557   25.6420  -30.7832 H   0  0  0  0  0  0  0  0  0  0  0  0
   -7.5245   25.0012  -29.5540 H   0  0  0  0  0  0  0  0  0  0  0  0
   -5.7370   24.0200  -28.3430 H   0  0  0  0  0  0  0  0  0  0  0  0
   -3.8313   22.6209  -27.6510 H   0  0  0  0  0  0  0  0  0  0  0  0
   -1.6460   22.6166  -26.2334 H   0  0  0  0  0  0  0  0  0  0  0  0
    0.0142   24.5531  -26.8919 H   0  0  0  0  0  0  0  0  0  0  0  0
   -9.0880   18.8833  -31.1552 H   0  0  0  0  0  0  0  0  0  0  0  0
   -7.9578   16.8521  -32.0534 H   0  0  0  0  0  0  0  0  0  0  0  0
   -6.1048   17.0754  -33.7081 H   0  0  0  0  0  0  0  0  0  0  0  0
   -5.3816   19.3401  -34.4718 H   0  0  0  0  0  0  0  0  0  0  0  0
   -6.5002   21.3805  -33.5787 H   0  0  0  0  0  0  0  0  0  0  0  0
  1  2  2  0
  2  3  1  0
  3  4  1  0
  4  5  1  0
  5  6  1  0
  6  7  1  0
  7  8  2  0
  7  9  1  0
  9 10  2  0
 10 11  1  0
 11 12  2  0
 12 13  1  0
  2 14  1  0
 14 15  2  0
 15 16  1  0
 16 17  2  0
 17 18  1  0
 18 19  2  0
 13  9  1  0
 19 14  1  0
  4 20  1  0
  4 21  1  0
  5 22  1  0
  5 23  1  0
  6 24  1  0
 10 25  1  0
 11 26  1  0
 12 27  1  0
 15 28  1  0
 16 29  1  0
 17 30  1  0
 18 31  1  0
 19 32  1  0
M  END
>  <UniqueID>  (32) 
30

>  <SMILES>  (32) 
O=C(SCCNC(=O)c1cccs1)c1ccccc1

>  <Energy>  (32) 
52.35008427480427

>  <Genealogy>  (32) 
O=C(SCCNC(=O)c1cccs1)c1ccccc1 (3D coordinates assigned)
O=C(SCCNC(=O)c1cccs1)c1ccccc1 (optimized conformer: 52.35008427480427 kcal/mol)

>  <smiles>  (32) 
O=C(SCCNC(=O)c1cccs1)c1ccccc1

>  <score_type>  (32) 
oracle

>  <origin>  (32) 
adg

>  <m_score__min__energy>  (32) 
-8.0700000000000003

>  <m_primary>  (32) 
energy

$$$$
32:0
     RDKit          3D

 40 40  0  0  0  0  0  0  0  0999 V2000
   -8.7430   20.5900  -32.0580 C   0  0  0  0  0  0  0  0  0  0  0  0
   -9.1090   21.9280  -31.4180 C   0  0  0  0  0  0  0  0  0  0  0  0
   -8.2410   23.0870  -31.9320 C   0  0  0  0  0  0  0  0  0  0  0  0
   -7.1630   23.5130  -30.9180 C   0  0  0  0  0  0  0  0  0  0  0  0
   -5.8650   24.0220  -31.5900 C   0  0  2  0  0  0  0  0  0  0  0  0
   -4.7690   22.9300  -31.7370 C   0  0  0  0  0  0  0  0  0  0  0  0
   -5.2210   21.6630  -32.4700 C   0  0  0  0  0  0  0  0  0  0  0  0
   -5.3510   25.2780  -30.8500 C   0  0  0  0  0  0  0  0  0  0  0  0
   -3.8930   25.2970  -30.7690 N   0  0  0  0  0  0  0  0  0  0  0  0
   -3.1500   24.6980  -29.7050 C   0  0  0  0  0  0  0  0  0  0  0  0
   -3.5520   23.6280  -29.1730 O   0  0  0  0  0  0  0  0  0  0  0  0
   -1.9170   25.3000  -29.2950 N   0  0  0  0  0  0  0  0  0  0  0  0
   -1.5800   25.7360  -27.9700 C   0  0  0  0  0  0  0  0  0  0  0  0
   -2.2790   25.1880  -26.8850 C   0  0  0  0  0  0  0  0  0  0  0  0
   -1.9680   25.5730  -25.5760 C   0  0  0  0  0  0  0  0  0  0  0  0
   -0.9460   26.4940  -25.3410 C   0  0  0  0  0  0  0  0  0  0  0  0
   -0.2260   27.0270  -26.4140 C   0  0  0  0  0  0  0  0  0  0  0  0
   -0.5350   26.6460  -27.7240 C   0  0  0  0  0  0  0  0  0  0  0  0
   -8.5405   19.8498  -31.2699 H   0  0  0  0  0  0  0  0  0  0  0  0
   -9.5788   20.2414  -32.6825 H   0  0  0  0  0  0  0  0  0  0  0  0
   -7.8462   20.7154  -32.6825 H   0  0  0  0  0  0  0  0  0  0  0  0
  -10.1624   22.1499  -31.6439 H   0  0  0  0  0  0  0  0  0  0  0  0
   -8.9361   21.8374  -30.3355 H   0  0  0  0  0  0  0  0  0  0  0  0
   -7.7452   22.7708  -32.8616 H   0  0  0  0  0  0  0  0  0  0  0  0
   -8.9019   23.9503  -32.0988 H   0  0  0  0  0  0  0  0  0  0  0  0
   -7.5715   24.3187  -30.2904 H   0  0  0  0  0  0  0  0  0  0  0  0
   -6.8993   22.6239  -30.3265 H   0  0  0  0  0  0  0  0  0  0  0  0
   -6.1167   24.2988  -32.6244 H   0  0  0  0  0  0  0  0  0  0  0  0
   -3.9250   23.3645  -32.2927 H   0  0  0  0  0  0  0  0  0  0  0  0
   -4.5015   22.6193  -30.7162 H   0  0  0  0  0  0  0  0  0  0  0  0
   -5.4959   20.8924  -31.7348 H   0  0  0  0  0  0  0  0  0  0  0  0
   -6.0917   21.8952  -33.1008 H   0  0  0  0  0  0  0  0  0  0  0  0
   -4.3999   21.2917  -33.1008 H   0  0  0  0  0  0  0  0  0  0  0  0
   -5.6899   26.1741  -31.3905 H   0  0  0  0  0  0  0  0  0  0  0  0
   -5.7516   25.2611  -29.8257 H   0  0  0  0  0  0  0  0  0  0  0  0
   -3.0762   24.4514  -27.0637 H   0  0  0  0  0  0  0  0  0  0  0  0
   -2.5300   25.1490  -24.7308 H   0  0  0  0  0  0  0  0  0  0  0  0
   -0.7072   26.8003  -24.3118 H   0  0  0  0  0  0  0  0  0  0  0  0
    0.5846   27.7470  -26.2280 H   0  0  0  0  0  0  0  0  0  0  0  0
    0.0410   27.0592  -28.5651 H   0  0  0  0  0  0  0  0  0  0  0  0
  1  2  1  0
  2  3  1  0
  3  4  1  0
  4  5  1  0
  5  6  1  0
  6  7  1  0
  5  8  1  0
  8  9  1  0
  9 10  1  0
 10 11  2  0
 10 12  1  0
 12 13  1  0
 13 14  2  0
 14 15  1  0
 15 16  2  0
 16 17  1  0
 17 18  2  0
 18 13  1  0
  1 19  1  0
  1 20  1  0
  1 21  1  0
  2 22  1  0
  2 23  1  0
  3 24  1  0
  3 25  1  0
  4 26  1  0
  4 27  1  0
  5 28  1  6
  6 29  1  0
  6 30  1  0
  7 31  1  0
  7 32  1  0
  7 33  1  0
  8 34  1  0
  8 35  1  0
 14 36  1  0
 15 37  1  0
 16 38  1  0
 17 39  1  0
 18 40  1  0
M  CHG  2   9  -1  12  -1
M  END
>  <UniqueID>  (33) 
31

>  <SMILES>  (33) 
CCCC[C@H](CC)C[N-]C(=O)[N-]c1ccccc1

>  <Energy>  (33) 
29.327799322356412

>  <Genealogy>  (33) 
CCCCC(CC)C[N-]C(=O)[N-]c1ccccc1 (protonated)
CCCC[C@H](CC)C[N-]C(=O)[N-]c1ccccc1 (chirality)
CCCC[C@H](CC)C[N-]C(=O)[N-]c1ccccc1 (3D coordinates assigned)
CCCC[C@H](CC)C[N-]C(=O)[N-]c1ccccc1 (optimized conformer: 29.327799322356412 kcal/mol)

>  <smiles>  (33) 
CCCCC(CC)CNC(=O)Nc1ccccc1

>  <score_type>  (33) 
oracle

>  <origin>  (33) 
adg

>  <m_score__min__energy>  (33) 
-9.8699999999999992

>  <m_primary>  (33) 
energy

$$$$
33:0
     RDKit          3D

 38 41  0  0  0  0  0  0  0  0999 V2000
    0.4190   25.7690  -27.0560 C   0  0  0  0  0  0  0  0  0  0  0  0
    0.4080   24.9420  -28.2150 O   0  0  0  0  0  0  0  0  0  0  0  0
   -0.7410   24.3410  -28.7490 C   0  0  0  0  0  0  0  0  0  0  0  0
   -1.9910   24.8460  -28.3770 C   0  0  0  0  0  0  0  0  0  0  0  0
   -3.1660   24.2820  -28.8800 C   0  0  0  0  0  0  0  0  0  0  0  0
   -3.1080   23.1940  -29.7690 C   0  0  0  0  0  0  0  0  0  0  0  0
   -4.3130   22.6090  -30.3000 N   0  0  0  0  0  0  0  0  0  0  0  0
   -4.3950   21.3900  -30.8320 N   0  0  0  0  0  0  0  0  0  0  0  0
   -5.6820   21.2110  -31.2030 C   0  0  0  0  0  0  0  0  0  0  0  0
   -6.2780   20.1030  -31.8070 C   0  0  0  0  0  0  0  0  0  0  0  0
   -5.5580   18.9430  -32.1370 C   0  0  0  0  0  0  0  0  0  0  0  0
   -6.2110   17.8660  -32.7380 C   0  0  0  0  0  0  0  0  0  0  0  0
   -7.5770   17.9350  -33.0150 C   0  0  0  0  0  0  0  0  0  0  0  0
   -8.3070   19.0830  -32.6910 C   0  0  0  0  0  0  0  0  0  0  0  0
   -7.6730   20.1860  -32.0830 C   0  0  0  0  0  0  0  0  0  0  0  0
   -8.3850   21.3750  -31.7350 C   0  0  0  0  0  0  0  0  0  0  0  0
   -9.8550   21.5340  -31.9930 C   0  0  0  0  0  0  0  0  0  0  0  0
   -7.7150   22.4090  -31.1470 N   0  0  0  0  0  0  0  0  0  0  0  0
   -6.4130   22.2910  -30.9110 N   0  0  0  0  0  0  0  0  0  0  0  0
   -5.5550   23.1500  -30.3490 C   0  0  0  0  0  0  0  0  0  0  0  0
   -5.8730   24.2840  -29.9000 O   0  0  0  0  0  0  0  0  0  0  0  0
   -1.8530   22.6910  -30.1490 C   0  0  0  0  0  0  0  0  0  0  0  0
   -0.6780   23.2560  -29.6440 C   0  0  0  0  0  0  0  0  0  0  0  0
    0.4106   25.1379  -26.1551 H   0  0  0  0  0  0  0  0  0  0  0  0
    1.3255   26.3921  -27.0587 H   0  0  0  0  0  0  0  0  0  0  0  0
   -0.4706   26.4160  -27.0587 H   0  0  0  0  0  0  0  0  0  0  0  0
   -2.0496   25.6960  -27.6812 H   0  0  0  0  0  0  0  0  0  0  0  0
   -4.1417   24.6912  -28.5790 H   0  0  0  0  0  0  0  0  0  0  0  0
   -3.5980   20.7260  -30.9480 H   0  0  0  0  0  0  0  0  0  0  0  0
   -4.4809   18.8836  -31.9220 H   0  0  0  0  0  0  0  0  0  0  0  0
   -5.6459   16.9578  -32.9948 H   0  0  0  0  0  0  0  0  0  0  0  0
   -8.0824   17.0817  -33.4908 H   0  0  0  0  0  0  0  0  0  0  0  0
   -9.3837   19.1258  -32.9121 H   0  0  0  0  0  0  0  0  0  0  0  0
  -10.3913   21.5920  -31.0344 H   0  0  0  0  0  0  0  0  0  0  0  0
  -10.0289   22.4562  -32.5669 H   0  0  0  0  0  0  0  0  0  0  0  0
  -10.2221   20.6703  -32.5669 H   0  0  0  0  0  0  0  0  0  0  0  0
   -1.7940   21.8453  -30.8499 H   0  0  0  0  0  0  0  0  0  0  0  0
    0.2990   22.8514  -29.9470 H   0  0  0  0  0  0  0  0  0  0  0  0
  1  2  1  0
  2  3  1  0
  3  4  2  0
  4  5  1  0
  5  6  2  0
  6  7  1  0
  7  8  1  0
  8  9  2  0
  9 10  1  0
 10 11  2  0
 11 12  1  0
 12 13  2  0
 13 14  1  0
 14 15  2  0
 15 16  1  0
 16 17  1  0
 16 18  2  0
 18 19  1  0
 19 20  1  0
 20 21  2  0
  6 22  1  0
 22 23  2  0
 23  3  1  0
 20  7  1  0
 19  9  1  0
 15 10  1  0
  1 24  1  0
  1 25  1  0
  1 26  1  0
  4 27  1  0
  5 28  1  0
  8 29  1  0
 11 30  1  0
 12 31  1  0
 13 32  1  0
 14 33  1  0
 17 34  1  0
 17 35  1  0
 17 36  1  0
 22 37  1  0
 23 38  1  0
M  CHG  1   8   1
M  END
>  <UniqueID>  (34) 
32

>  <SMILES>  (34) 
COc1ccc(-n2[nH+]c3c4ccccc4c(C)nn3c2=O)cc1

>  <Energy>  (34) 
97.94877479828637

>  <Genealogy>  (34) 
COc1ccc(-n2[nH+]c3c4ccccc4c(C)nn3c2=O)cc1 (protonated)
COc1ccc(-n2[nH+]c3c4ccccc4c(C)nn3c2=O)cc1 (3D coordinates assigned)
COc1ccc(-n2[nH+]c3c4ccccc4c(C)nn3c2=O)cc1 (optimized conformer: 97.94877479828637 kcal/mol)

>  <smiles>  (34) 
COc1ccc(-n2nc3c4ccccc4c(C)nn3c2=O)cc1

>  <score_type>  (34) 
oracle

>  <origin>  (34) 
adg

>  <m_score__min__energy>  (34) 
-7.6500000000000004

>  <m_primary>  (34) 
energy

$$$$
34:0
     RDKit          3D

 46 48  0  0  0  0  0  0  0  0999 V2000
   -6.8845   23.5667  -31.2389 H   0  0  0  0  0  0  0  0  0  0  0  0
   -5.8540   23.8230  -30.9520 C   0  0  0  0  0  0  0  0  0  0  0  0
   -5.4030   24.9280  -29.7640 S   0  0  0  0  0  0  0  0  0  0  0  0
   -3.7630   24.6720  -30.0120 C   0  0  0  0  0  0  0  0  0  0  0  0
   -2.8290   25.2790  -29.3450 N   0  0  0  0  0  0  0  0  0  0  0  0
   -1.9450   24.6210  -28.3830 C   0  0  0  0  0  0  0  0  0  0  0  0
   -2.5516   24.0269  -27.6836 H   0  0  0  0  0  0  0  0  0  0  0  0
   -1.3791   25.3921  -27.8397 H   0  0  0  0  0  0  0  0  0  0  0  0
   -0.9580   23.7010  -29.0950 C   0  0  0  0  0  0  0  0  0  0  0  0
   -0.3667   23.1499  -28.3489 H   0  0  0  0  0  0  0  0  0  0  0  0
   -1.5102   22.9879  -29.7247 H   0  0  0  0  0  0  0  0  0  0  0  0
   -0.2854   24.3019  -29.7247 H   0  0  0  0  0  0  0  0  0  0  0  0
   -3.5290   23.7630  -30.9840 N   0  0  0  0  0  0  0  0  0  0  0  0
   -4.6920   23.2900  -31.5080 C   0  0  0  0  0  0  0  0  0  0  0  0
   -4.7070   22.2510  -32.5890 C   0  0  0  0  0  0  0  0  0  0  0  0
   -5.7120   22.2049  -33.0338 H   0  0  0  0  0  0  0  0  0  0  0  0
   -3.9669   22.5227  -33.3561 H   0  0  0  0  0  0  0  0  0  0  0  0
   -4.3570   20.9200  -32.0310 N   0  0  0  0  0  0  0  0  0  0  0  0
   -2.9220   20.8850  -31.6860 C   0  0  0  0  0  0  0  0  0  0  0  0
   -2.5762   21.8950  -31.4209 H   0  0  0  0  0  0  0  0  0  0  0  0
   -2.7499   20.2223  -30.8250 H   0  0  0  0  0  0  0  0  0  0  0  0
   -2.1580   20.3780  -32.9120 C   0  0  0  0  0  0  0  0  0  0  0  0
   -1.6224   21.2052  -33.4007 H   0  0  0  0  0  0  0  0  0  0  0  0
   -1.4037   19.6246  -32.6409 H   0  0  0  0  0  0  0  0  0  0  0  0
   -3.2170   19.8080  -33.8410 C   0  0  0  0  0  0  0  0  0  0  0  0
   -3.3433   20.4453  -34.7287 H   0  0  0  0  0  0  0  0  0  0  0  0
   -2.9560   18.8091  -34.2205 H   0  0  0  0  0  0  0  0  0  0  0  0
   -4.4800   19.8030  -32.9940 C   0  0  2  0  0  0  0  0  0  0  0  0
   -4.5736   18.8698  -32.4192 H   0  0  0  0  0  0  0  0  0  0  0  0
   -5.7790   19.7510  -33.8280 C   0  0  0  0  0  0  0  0  0  0  0  0
   -5.7780   20.5821  -34.5487 H   0  0  0  0  0  0  0  0  0  0  0  0
   -5.8205   18.7863  -34.3549 H   0  0  0  0  0  0  0  0  0  0  0  0
   -6.9570   19.8650  -32.9660 N   0  0  0  0  0  0  0  0  0  0  0  0
   -7.5550   21.0090  -32.6740 N   0  0  0  0  0  0  0  0  0  0  0  0
   -8.5480   20.7000  -31.8170 C   0  0  0  0  0  0  0  0  0  0  0  0
   -9.5150   21.6970  -31.2750 C   0  0  0  0  0  0  0  0  0  0  0  0
   -9.4903   21.6716  -30.1756 H   0  0  0  0  0  0  0  0  0  0  0  0
   -9.2394   22.7028  -31.6248 H   0  0  0  0  0  0  0  0  0  0  0  0
  -10.5288   21.4522  -31.6248 H   0  0  0  0  0  0  0  0  0  0  0  0
   -8.6050   19.3760  -31.5660 N   0  0  0  0  0  0  0  0  0  0  0  0
   -9.2820   18.8610  -30.9600 H   0  0  0  0  0  0  0  0  0  0  0  0
   -7.5870   18.8790  -32.2920 C   0  0  0  0  0  0  0  0  0  0  0  0
   -7.2390   17.4240  -32.3570 C   0  0  0  0  0  0  0  0  0  0  0  0
   -7.1433   17.0239  -31.3368 H   0  0  0  0  0  0  0  0  0  0  0  0
   -8.0325   16.8807  -32.8910 H   0  0  0  0  0  0  0  0  0  0  0  0
   -6.2855   17.2985  -32.8910 H   0  0  0  0  0  0  0  0  0  0  0  0
  1  2  1  0
  2  3  1  0
  3  4  1  0
  4  5  2  0
  5  6  1  0
  6  7  1  0
  6  8  1  0
  6  9  1  0
  9 10  1  0
  9 11  1  0
  9 12  1  0
  4 13  1  0
 13 14  1  0
 14 15  1  0
 15 16  1  0
 15 17  1  0
 15 18  1  0
 18 19  1  0
 19 20  1  0
 19 21  1  0
 19 22  1  0
 22 23  1  0
 22 24  1  0
 22 25  1  0
 25 26  1  0
 25 27  1  0
 25 28  1  0
 28 29  1  1
 28 30  1  0
 30 31  1  0
 30 32  1  0
 30 33  1  0
 33 34  1  0
 34 35  2  0
 35 36  1  0
 36 37  1  0
 36 38  1  0
 36 39  1  0
 35 40  1  0
 40 41  1  0
 40 42  2  0
 42 43  1  0
 43 44  1  0
 43 45  1  0
 43 46  1  0
 14  2  2  0
 28 18  1  0
 42 33  1  0
M  CHG  2  13  -1  40   1
M  END
>  <UniqueID>  (35) 
33

>  <SMILES>  (35) 
CC/N=c1\[n-]c(CN2CCC[C@@H]2Cn2nc(C)[nH+]c2C)cs1

>  <Energy>  (35) 
110.07852192565798

>  <Genealogy>  (35) 
CCN=c1[n-]c(CN2CCCC2Cn2nc(C)[nH+]c2C)cs1 (protonated)
CCN=c1[n-]c(CN2CCC[C@@H]2Cn2nc(C)[nH+]c2C)cs1 (chirality)
CC/N=c1\[n-]c(CN2CCC[C@@H]2Cn2nc(C)[nH+]c2C)cs1 (cis-trans isomerization)
CC/N=c1\[n-]c(CN2CCC[C@@H]2Cn2nc(C)[nH+]c2C)cs1 (3D coordinates assigned)
CC/N=c1\[n-]c(CN2CCC[C@@H]2Cn2nc(C)[nH+]c2C)cs1 (nonaromatic ring conformer: 110.07852192565798 kcal/mol)

>  <smiles>  (35) 
CCN=c1[nH]c(CN2CCCC2Cn2nc(C)nc2C)cs1

>  <score_type>  (35) 
oracle

>  <origin>  (35) 
adg

>  <m_score__min__energy>  (35) 
-8.5899999999999999

>  <m_primary>  (35) 
energy

$$$$
35:0
     RDKit          3D

 49 51  0  0  0  0  0  0  0  0999 V2000
   -6.4810   25.4540  -29.5550 C   0  0  0  0  0  0  0  0  0  0  0  0
   -5.2110   25.4950  -30.4190 C   0  0  0  0  0  0  0  0  0  0  0  0
   -4.9190   24.2390  -31.1620 N   0  0  0  0  0  0  0  0  0  0  0  0
   -5.9180   23.9100  -32.2020 C   0  0  0  0  0  0  0  0  0  0  0  0
   -6.1260   22.4250  -32.3110 C   0  0  0  0  0  0  0  0  0  0  0  0
   -5.1500   21.6120  -32.9030 C   0  0  0  0  0  0  0  0  0  0  0  0
   -5.3730   20.2390  -33.0200 C   0  0  0  0  0  0  0  0  0  0  0  0
   -6.5710   19.6860  -32.5480 C   0  0  0  0  0  0  0  0  0  0  0  0
   -6.8290   18.3100  -32.6500 C   0  0  0  0  0  0  0  0  0  0  0  0
   -8.0360   17.7900  -32.1710 C   0  0  0  0  0  0  0  0  0  0  0  0
   -8.9870   18.6360  -31.5910 C   0  0  0  0  0  0  0  0  0  0  0  0
   -8.7360   20.0080  -31.4850 C   0  0  0  0  0  0  0  0  0  0  0  0
   -7.5320   20.5380  -31.9600 C   0  0  0  0  0  0  0  0  0  0  0  0
   -7.2850   21.8720  -31.8610 N   0  0  0  0  0  0  0  0  0  0  0  0
   -4.6660   23.0780  -30.2800 C   0  0  0  0  0  0  0  0  0  0  0  0
   -3.1960   22.7200  -30.2640 C   0  0  0  0  0  0  0  0  0  0  0  0
   -2.7790   21.5800  -30.9630 C   0  0  0  0  0  0  0  0  0  0  0  0
   -1.4350   21.2250  -30.9950 C   0  0  0  0  0  0  0  0  0  0  0  0
   -0.4890   22.0030  -30.3330 C   0  0  0  0  0  0  0  0  0  0  0  0
   -0.8740   23.1600  -29.6270 C   0  0  0  0  0  0  0  0  0  0  0  0
    0.0800   23.9440  -28.9610 O   0  0  0  0  0  0  0  0  0  0  0  0
    0.5770   23.6890  -27.6500 C   0  0  0  0  0  0  0  0  0  0  0  0
   -2.2470   23.5300  -29.5960 C   0  0  0  0  0  0  0  0  0  0  0  0
   -2.7230   24.6780  -28.9330 O   0  0  0  0  0  0  0  0  0  0  0  0
   -2.7710   24.8930  -27.5280 C   0  0  0  0  0  0  0  0  0  0  0  0
   -6.2012   25.4630  -28.4912 H   0  0  0  0  0  0  0  0  0  0  0  0
   -7.1045   26.3325  -29.7776 H   0  0  0  0  0  0  0  0  0  0  0  0
   -7.0465   24.5371  -29.7776 H   0  0  0  0  0  0  0  0  0  0  0  0
   -5.3221   26.3078  -31.1518 H   0  0  0  0  0  0  0  0  0  0  0  0
   -4.3705   25.6464  -29.7258 H   0  0  0  0  0  0  0  0  0  0  0  0
   -6.8746   24.3876  -31.9435 H   0  0  0  0  0  0  0  0  0  0  0  0
   -5.5464   24.2799  -33.1690 H   0  0  0  0  0  0  0  0  0  0  0  0
   -4.2131   22.0535  -33.2735 H   0  0  0  0  0  0  0  0  0  0  0  0
   -4.6110   19.5934  -33.4811 H   0  0  0  0  0  0  0  0  0  0  0  0
   -6.0834   17.6419  -33.1058 H   0  0  0  0  0  0  0  0  0  0  0  0
   -8.2381   16.7117  -32.2508 H   0  0  0  0  0  0  0  0  0  0  0  0
   -9.9348   18.2213  -31.2172 H   0  0  0  0  0  0  0  0  0  0  0  0
   -9.4859   20.6704  -31.0279 H   0  0  0  0  0  0  0  0  0  0  0  0
   -4.9870   23.3261  -29.2576 H   0  0  0  0  0  0  0  0  0  0  0  0
   -5.2326   22.2165  -30.6632 H   0  0  0  0  0  0  0  0  0  0  0  0
   -3.5200   20.9612  -31.4903 H   0  0  0  0  0  0  0  0  0  0  0  0
   -1.1182   20.3267  -31.5451 H   0  0  0  0  0  0  0  0  0  0  0  0
    0.5712   21.7111  -30.3615 H   0  0  0  0  0  0  0  0  0  0  0  0
   -0.1440   24.0589  -26.9062 H   0  0  0  0  0  0  0  0  0  0  0  0
    0.7193   22.6065  -27.5159 H   0  0  0  0  0  0  0  0  0  0  0  0
    1.5393   24.2047  -27.5159 H   0  0  0  0  0  0  0  0  0  0  0  0
   -2.5601   23.9485  -27.0051 H   0  0  0  0  0  0  0  0  0  0  0  0
   -2.0184   25.6441  -27.2461 H   0  0  0  0  0  0  0  0  0  0  0  0
   -3.7716   25.2527  -27.2461 H   0  0  0  0  0  0  0  0  0  0  0  0
  1  2  1  0
  2  3  1  0
  3  4  1  0
  4  5  1  0
  5  6  2  0
  6  7  1  0
  7  8  2  0
  8  9  1  0
  9 10  2  0
 10 11  1  0
 11 12  2  0
 12 13  1  0
 13 14  2  0
  3 15  1  0
 15 16  1  0
 16 17  2  0
 17 18  1  0
 18 19  2  0
 19 20  1  0
 20 21  1  0
 21 22  1  0
 20 23  2  0
 23 24  1  0
 24 25  1  0
 14  5  1  0
 23 16  1  0
 13  8  1  0
  1 26  1  0
  1 27  1  0
  1 28  1  0
  2 29  1  0
  2 30  1  0
  4 31  1  0
  4 32  1  0
  6 33  1  0
  7 34  1  0
  9 35  1  0
 10 36  1  0
 11 37  1  0
 12 38  1  0
 15 39  1  0
 15 40  1  0
 17 41  1  0
 18 42  1  0
 19 43  1  0
 22 44  1  0
 22 45  1  0
 22 46  1  0
 25 47  1  0
 25 48  1  0
 25 49  1  0
M  END
>  <UniqueID>  (36) 
34

>  <SMILES>  (36) 
CCN(Cc1ccc2ccccc2n1)Cc1cccc(OC)c1OC

>  <Energy>  (36) 
59.195430677464174

>  <Genealogy>  (36) 
CCN(Cc1ccc2ccccc2n1)Cc1cccc(OC)c1OC (3D coordinates assigned)
CCN(Cc1ccc2ccccc2n1)Cc1cccc(OC)c1OC (optimized conformer: 59.195430677464174 kcal/mol)

>  <smiles>  (36) 
CCN(Cc1ccc2ccccc2n1)Cc1cccc(OC)c1OC

>  <score_type>  (36) 
oracle

>  <origin>  (36) 
adg

>  <m_score__min__energy>  (36) 
-9.4499999999999993

>  <m_primary>  (36) 
energy

$$$$
36:0
     RDKit          3D

 42 44  0  0  0  0  0  0  0  0999 V2000
   -3.6190   20.9910  -31.1580 C   0  0  0  0  0  0  0  0  0  0  0  0
   -2.5150   21.3630  -30.1730 C   0  0  0  0  0  0  0  0  0  0  0  0
   -1.8370   22.6750  -30.5750 C   0  0  0  0  0  0  0  0  0  0  0  0
   -1.5250   23.5020  -29.3600 C   0  0  0  0  0  0  0  0  0  0  0  0
   -0.2500   23.8150  -29.0130 N   0  0  0  0  0  0  0  0  0  0  0  0
   -0.4100   24.5390  -27.8920 C   0  0  0  0  0  0  0  0  0  0  0  0
    0.5810   25.1350  -27.1260 C   0  0  0  0  0  0  0  0  0  0  0  0
    0.1730   25.8680  -26.0010 C   0  0  0  0  0  0  0  0  0  0  0  0
   -1.1620   25.9850  -25.6750 N   0  0  0  0  0  0  0  0  0  0  0  0
   -1.5520   26.7730  -24.5000 C   0  0  0  0  0  0  0  0  0  0  0  0
   -2.1310   25.3900  -26.4530 C   0  0  0  0  0  0  0  0  0  0  0  0
   -3.3530   25.5120  -26.1660 O   0  0  0  0  0  0  0  0  0  0  0  0
   -1.7270   24.6520  -27.5730 C   0  0  0  0  0  0  0  0  0  0  0  0
   -2.4570   23.9870  -28.4910 N   0  0  0  0  0  0  0  0  0  0  0  0
   -3.9170   23.8670  -28.5730 C   0  0  0  0  0  0  0  0  0  0  0  0
   -4.4270   24.3370  -29.9060 C   0  0  0  0  0  0  0  0  0  0  0  0
   -3.8570   25.2970  -30.4870 O   0  0  0  0  0  0  0  0  0  0  0  0
   -5.6410   23.7560  -30.5000 C   0  0  0  0  0  0  0  0  0  0  0  0
   -6.5080   22.9930  -29.7060 C   0  0  0  0  0  0  0  0  0  0  0  0
   -7.6590   22.4270  -30.2650 C   0  0  0  0  0  0  0  0  0  0  0  0
   -7.9510   22.6280  -31.6170 C   0  0  0  0  0  0  0  0  0  0  0  0
   -7.0980   23.4010  -32.4090 C   0  0  0  0  0  0  0  0  0  0  0  0
   -5.9480   23.9690  -31.8530 C   0  0  0  0  0  0  0  0  0  0  0  0
   -4.5189   20.6878  -30.6028 H   0  0  0  0  0  0  0  0  0  0  0  0
   -3.8539   21.8596  -31.7907 H   0  0  0  0  0  0  0  0  0  0  0  0
   -3.2803   20.1574  -31.7907 H   0  0  0  0  0  0  0  0  0  0  0  0
   -2.9519   21.4770  -29.1699 H   0  0  0  0  0  0  0  0  0  0  0  0
   -1.7593   20.5637  -30.1770 H   0  0  0  0  0  0  0  0  0  0  0  0
   -0.9021   22.4501  -31.1092 H   0  0  0  0  0  0  0  0  0  0  0  0
   -2.5192   23.2425  -31.2251 H   0  0  0  0  0  0  0  0  0  0  0  0
    1.6444   25.0370  -27.3899 H   0  0  0  0  0  0  0  0  0  0  0  0
    0.9295   26.3567  -25.3695 H   0  0  0  0  0  0  0  0  0  0  0  0
   -1.2811   26.2257  -23.5851 H   0  0  0  0  0  0  0  0  0  0  0  0
   -1.0287   27.7404  -24.5171 H   0  0  0  0  0  0  0  0  0  0  0  0
   -2.6386   26.9436  -24.5171 H   0  0  0  0  0  0  0  0  0  0  0  0
   -4.1988   22.8131  -28.4324 H   0  0  0  0  0  0  0  0  0  0  0  0
   -4.3627   24.4958  -27.7882 H   0  0  0  0  0  0  0  0  0  0  0  0
   -6.2829   22.8387  -28.6404 H   0  0  0  0  0  0  0  0  0  0  0  0
   -8.3342   21.8237  -29.6404 H   0  0  0  0  0  0  0  0  0  0  0  0
   -8.8526   22.1775  -32.0577 H   0  0  0  0  0  0  0  0  0  0  0  0
   -7.3317   23.5628  -33.4716 H   0  0  0  0  0  0  0  0  0  0  0  0
   -5.2826   24.5839  -32.4768 H   0  0  0  0  0  0  0  0  0  0  0  0
  1  2  1  0
  2  3  1  0
  3  4  1  0
  4  5  2  0
  5  6  1  0
  6  7  1  0
  7  8  2  0
  8  9  1  0
  9 10  1  0
  9 11  1  0
 11 12  2  0
 11 13  1  0
 13 14  1  0
 14 15  1  0
 15 16  1  0
 16 17  2  0
 16 18  1  0
 18 19  2  0
 19 20  1  0
 20 21  2  0
 21 22  1  0
 22 23  2  0
 14  4  1  0
 23 18  1  0
 13  6  2  0
  1 24  1  0
  1 25  1  0
  1 26  1  0
  2 27  1  0
  2 28  1  0
  3 29  1  0
  3 30  1  0
  7 31  1  0
  8 32  1  0
 10 33  1  0
 10 34  1  0
 10 35  1  0
 15 36  1  0
 15 37  1  0
 19 38  1  0
 20 39  1  0
 21 40  1  0
 22 41  1  0
 23 42  1  0
M  END
>  <UniqueID>  (37) 
35

>  <SMILES>  (37) 
CCCc1nc2ccn(C)c(=O)c2n1CC(=O)c1ccccc1

>  <Energy>  (37) 
83.21095974971828

>  <Genealogy>  (37) 
CCCc1nc2ccn(C)c(=O)c2n1CC(=O)c1ccccc1 (3D coordinates assigned)
CCCc1nc2ccn(C)c(=O)c2n1CC(=O)c1ccccc1 (optimized conformer: 83.21095974971828 kcal/mol)

>  <smiles>  (37) 
CCCc1nc2ccn(C)c(=O)c2n1CC(=O)c1ccccc1

>  <score_type>  (37) 
oracle

>  <origin>  (37) 
adg

>  <m_score__min__energy>  (37) 
-7.5800000000000001

>  <m_primary>  (37) 
energy

$$$$
37:0
     RDKit          3D

 49 51  0  0  0  0  0  0  0  0999 V2000
   -5.7360   17.8630  -34.3320 C   0  0  0  0  0  0  0  0  0  0  0  0
   -5.9460   19.2890  -34.6020 N   0  0  0  0  0  0  0  0  0  0  0  0
   -5.6920   20.1000  -33.4040 C   0  0  0  0  0  0  0  0  0  0  0  0
   -6.9910   20.4340  -32.7000 C   0  0  0  0  0  0  0  0  0  0  0  0
   -7.8950   19.3850  -32.4580 C   0  0  0  0  0  0  0  0  0  0  0  0
   -9.1080   19.6230  -31.8120 C   0  0  0  0  0  0  0  0  0  0  0  0
   -9.4380   20.9110  -31.3970 C   0  0  0  0  0  0  0  0  0  0  0  0
   -8.5570   21.9680  -31.6300 C   0  0  0  0  0  0  0  0  0  0  0  0
   -7.3350   21.7520  -32.2910 C   0  0  0  0  0  0  0  0  0  0  0  0
   -6.4080   22.9290  -32.4950 C   0  0  0  0  0  0  0  0  0  0  0  0
   -5.9680   23.4670  -31.2050 N   0  0  0  0  0  0  0  0  0  0  0  0
   -6.6770   24.5240  -30.4800 C   0  0  0  0  0  0  0  0  0  0  0  0
   -5.7300   24.9840  -29.3470 C   0  0  0  0  0  0  0  0  0  0  0  0
   -4.4990   24.1830  -29.5830 C   0  0  0  0  0  0  0  0  0  0  0  0
   -3.2990   24.2320  -28.8730 C   0  0  0  0  0  0  0  0  0  0  0  0
   -2.2440   23.3820  -29.2630 C   0  0  0  0  0  0  0  0  0  0  0  0
   -0.9510   23.4130  -28.5480 C   0  0  0  0  0  0  0  0  0  0  0  0
   -0.0510   24.1960  -28.9580 O   0  0  0  0  0  0  0  0  0  0  0  0
   -0.6940   22.5680  -27.4080 N   0  0  0  0  0  0  0  0  0  0  0  0
    0.3110   22.9840  -26.4270 C   0  0  0  0  0  0  0  0  0  0  0  0
   -1.3070   21.2380  -27.3150 C   0  0  0  0  0  0  0  0  0  0  0  0
   -2.4150   22.5290  -30.3770 C   0  0  0  0  0  0  0  0  0  0  0  0
   -3.6330   22.4990  -31.0740 C   0  0  0  0  0  0  0  0  0  0  0  0
   -4.6660   23.3420  -30.6490 C   0  0  0  0  0  0  0  0  0  0  0  0
   -5.7113   17.6954  -33.2451 H   0  0  0  0  0  0  0  0  0  0  0  0
   -6.5581   17.2811  -34.7742 H   0  0  0  0  0  0  0  0  0  0  0  0
   -4.7810   17.5428  -34.7742 H   0  0  0  0  0  0  0  0  0  0  0  0
   -6.9530   19.4080  -34.8590 H   0  0  0  0  0  0  0  0  0  0  0  0
   -5.0432   19.5367  -32.7172 H   0  0  0  0  0  0  0  0  0  0  0  0
   -5.2026   21.0371  -33.7078 H   0  0  0  0  0  0  0  0  0  0  0  0
   -7.6428   18.3645  -32.7819 H   0  0  0  0  0  0  0  0  0  0  0  0
   -9.8053   18.7920  -31.6299 H   0  0  0  0  0  0  0  0  0  0  0  0
  -10.3940   21.0953  -30.8851 H   0  0  0  0  0  0  0  0  0  0  0  0
   -8.8215   22.9811  -31.2929 H   0  0  0  0  0  0  0  0  0  0  0  0
   -5.5288   22.6017  -33.0693 H   0  0  0  0  0  0  0  0  0  0  0  0
   -6.9479   23.7157  -33.0424 H   0  0  0  0  0  0  0  0  0  0  0  0
   -6.9006   25.3641  -31.1540 H   0  0  0  0  0  0  0  0  0  0  0  0
   -7.6341   24.1602  -30.0780 H   0  0  0  0  0  0  0  0  0  0  0  0
   -5.5197   26.0611  -29.4223 H   0  0  0  0  0  0  0  0  0  0  0  0
   -6.1550   24.8342  -28.3436 H   0  0  0  0  0  0  0  0  0  0  0  0
   -3.1782   24.9213  -28.0243 H   0  0  0  0  0  0  0  0  0  0  0  0
   -0.0792   22.8225  -25.4113 H   0  0  0  0  0  0  0  0  0  0  0  0
    1.2270   22.3911  -26.5665 H   0  0  0  0  0  0  0  0  0  0  0  0
    0.5400   24.0508  -26.5665 H   0  0  0  0  0  0  0  0  0  0  0  0
   -1.4327   20.9654  -26.2568 H   0  0  0  0  0  0  0  0  0  0  0  0
   -2.2896   21.2518  -27.8093 H   0  0  0  0  0  0  0  0  0  0  0  0
   -0.6583   20.4999  -27.8093 H   0  0  0  0  0  0  0  0  0  0  0  0
   -1.5859   21.8827  -30.7007 H   0  0  0  0  0  0  0  0  0  0  0  0
   -3.7723   21.8282  -31.9346 H   0  0  0  0  0  0  0  0  0  0  0  0
  1  2  1  0
  2  3  1  0
  3  4  1  0
  4  5  2  0
  5  6  1  0
  6  7  2  0
  7  8  1  0
  8  9  2  0
  9 10  1  0
 10 11  1  0
 11 12  1  0
 12 13  1  0
 13 14  1  0
 14 15  2  0
 15 16  1  0
 16 17  1  0
 17 18  2  0
 17 19  1  0
 19 20  1  0
 19 21  1  0
 16 22  2  0
 22 23  1  0
 23 24  2  0
  9  4  1  0
 24 11  1  0
 24 14  1  0
  1 25  1  0
  1 26  1  0
  1 27  1  0
  2 28  1  0
  3 29  1  0
  3 30  1  0
  5 31  1  0
  6 32  1  0
  7 33  1  0
  8 34  1  0
 10 35  1  0
 10 36  1  0
 12 37  1  0
 12 38  1  0
 13 39  1  0
 13 40  1  0
 15 41  1  0
 20 42  1  0
 20 43  1  0
 20 44  1  0
 21 45  1  0
 21 46  1  0
 21 47  1  0
 22 48  1  0
 23 49  1  0
M  END
>  <UniqueID>  (38) 
36

>  <SMILES>  (38) 
CNCc1ccccc1CN1CCc2cc(C(=O)N(C)C)ccc21

>  <Energy>  (38) 
66.09375299798752

>  <Genealogy>  (38) 
CNCc1ccccc1CN1CCc2cc(C(=O)N(C)C)ccc21 (3D coordinates assigned)
CNCc1ccccc1CN1CCc2cc(C(=O)N(C)C)ccc21 (nonaromatic ring conformer: 66.09375299798752 kcal/mol)

>  <smiles>  (38) 
CNCc1ccccc1CN1CCc2cc(C(=O)N(C)C)ccc21

>  <score_type>  (38) 
oracle

>  <origin>  (38) 
adg

>  <m_score__min__energy>  (38) 
-8.8100000000000005

>  <m_primary>  (38) 
energy

$$$$
38:0
     RDKit          3D

 42 44  0  0  0  0  0  0  0  0999 V2000
   -1.0260   21.7760  -30.5880 C   0  0  0  0  0  0  0  0  0  0  0  0
   -1.9540   21.4400  -31.7190 C   0  0  0  0  0  0  0  0  0  0  0  0
   -1.5890   20.5280  -32.7250 C   0  0  0  0  0  0  0  0  0  0  0  0
   -2.5350   20.3960  -33.7360 C   0  0  0  0  0  0  0  0  0  0  0  0
   -3.8310   21.4050  -33.3750 S   0  0  0  0  0  0  0  0  0  0  0  0
   -3.2210   22.0140  -31.9300 C   0  0  0  0  0  0  0  0  0  0  0  0
   -3.9590   22.9830  -31.0930 C   0  0  0  0  0  0  0  0  0  0  0  0
   -3.4050   24.0930  -30.8460 O   0  0  0  0  0  0  0  0  0  0  0  0
   -5.3570   22.7730  -30.7560 N   0  0  1  0  0  0  0  0  0  0  0  0
   -5.6610   23.1580  -29.3660 C   0  0  0  0  0  0  0  0  0  0  0  0
   -6.1630   24.5970  -29.3780 C   0  0  0  0  0  0  0  0  0  0  0  0
   -6.4770   24.9160  -30.8320 C   0  0  0  0  0  0  0  0  0  0  0  0
   -6.2200   23.6200  -31.6120 C   0  0  2  0  0  0  0  0  0  0  0  0
   -7.5460   22.8940  -31.9540 C   0  0  0  0  0  0  0  0  0  0  0  0
   -7.4660   21.4560  -31.6220 N   0  0  0  0  0  0  0  0  0  0  0  0
   -8.7680   20.8780  -31.2390 C   0  0  0  0  0  0  0  0  0  0  0  0
   -8.8600   19.4840  -31.8540 C   0  0  0  0  0  0  0  0  0  0  0  0
   -7.5400   19.2710  -32.5650 C   0  0  0  0  0  0  0  0  0  0  0  0
   -6.9940   20.6690  -32.7620 C   0  0  0  0  0  0  0  0  0  0  0  0
   -1.5340   21.5921  -29.6299 H   0  0  0  0  0  0  0  0  0  0  0  0
   -0.1262   21.1466  -30.6527 H   0  0  0  0  0  0  0  0  0  0  0  0
   -0.7377   22.8356  -30.6527 H   0  0  0  0  0  0  0  0  0  0  0  0
   -0.6413   19.9696  -32.7135 H   0  0  0  0  0  0  0  0  0  0  0  0
   -2.4502   19.7447  -34.6184 H   0  0  0  0  0  0  0  0  0  0  0  0
   -5.5890   21.7620  -30.8670 H   0  0  0  0  0  0  0  0  0  0  0  0
   -6.4368   22.4949  -28.9556 H   0  0  0  0  0  0  0  0  0  0  0  0
   -4.7616   23.0710  -28.7387 H   0  0  0  0  0  0  0  0  0  0  0  0
   -7.0688   24.6915  -28.7611 H   0  0  0  0  0  0  0  0  0  0  0  0
   -5.4150   25.2895  -28.9647 H   0  0  0  0  0  0  0  0  0  0  0  0
   -7.5276   25.2243  -30.9378 H   0  0  0  0  0  0  0  0  0  0  0  0
   -5.8562   25.7429  -31.2071 H   0  0  0  0  0  0  0  0  0  0  0  0
   -5.7309   23.8370  -32.5731 H   0  0  0  0  0  0  0  0  0  0  0  0
   -8.3645   23.3507  -31.3783 H   0  0  0  0  0  0  0  0  0  0  0  0
   -7.7305   22.9936  -33.0338 H   0  0  0  0  0  0  0  0  0  0  0  0
   -8.8388   20.8089  -30.1435 H   0  0  0  0  0  0  0  0  0  0  0  0
   -9.5907   21.5121  -31.6009 H   0  0  0  0  0  0  0  0  0  0  0  0
   -9.0016   18.7258  -31.0697 H   0  0  0  0  0  0  0  0  0  0  0  0
   -9.7142   19.3954  -32.5414 H   0  0  0  0  0  0  0  0  0  0  0  0
   -6.8571   18.6690  -31.9476 H   0  0  0  0  0  0  0  0  0  0  0  0
   -7.6557   18.7265  -33.5137 H   0  0  0  0  0  0  0  0  0  0  0  0
   -5.8944   20.6495  -32.7828 H   0  0  0  0  0  0  0  0  0  0  0  0
   -7.3328   21.1011  -33.7152 H   0  0  0  0  0  0  0  0  0  0  0  0
  1  2  1  0
  2  3  1  0
  3  4  2  0
  4  5  1  0
  5  6  1  0
  6  7  1  0
  7  8  2  0
  7  9  1  0
  9 10  1  0
 10 11  1  0
 11 12  1  0
 12 13  1  0
 13 14  1  0
 14 15  1  0
 15 16  1  0
 16 17  1  0
 17 18  1  0
 18 19  1  0
  6  2  2  0
 13  9  1  0
 19 15  1  0
  1 20  1  0
  1 21  1  0
  1 22  1  0
  3 23  1  0
  4 24  1  0
  9 25  1  1
 10 26  1  0
 10 27  1  0
 11 28  1  0
 11 29  1  0
 12 30  1  0
 12 31  1  0
 13 32  1  6
 14 33  1  0
 14 34  1  0
 16 35  1  0
 16 36  1  0
 17 37  1  0
 17 38  1  0
 18 39  1  0
 18 40  1  0
 19 41  1  0
 19 42  1  0
M  CHG  1   9   1
M  END
>  <UniqueID>  (39) 
37

>  <SMILES>  (39) 
Cc1ccsc1C(=O)[N@H+]1CCC[C@@H]1CN1CCCC1

>  <Energy>  (39) 
79.8232336451121

>  <Genealogy>  (39) 
Cc1ccsc1C(=O)[NH+]1CCCC1CN1CCCC1 (protonated)
Cc1ccsc1C(=O)[N@H+]1CCC[C@@H]1CN1CCCC1 (chirality)
Cc1ccsc1C(=O)[N@H+]1CCC[C@@H]1CN1CCCC1 (3D coordinates assigned)
Cc1ccsc1C(=O)[N@H+]1CCC[C@@H]1CN1CCCC1 (nonaromatic ring conformer: 79.8232336451121 kcal/mol)

>  <smiles>  (39) 
Cc1ccsc1C(=O)N1CCCC1CN1CCCC1

>  <score_type>  (39) 
oracle

>  <origin>  (39) 
adg

>  <m_score__min__energy>  (39) 
-6.2699999999999996

>  <m_primary>  (39) 
energy

$$$$
39:0
     RDKit          3D

 42 45  0  0  0  0  0  0  0  0999 V2000
   -0.9770   21.1720  -31.3860 C   0  0  0  0  0  0  0  0  0  0  0  0
   -1.7070   20.3710  -32.3590 N   0  0  0  0  0  0  0  0  0  0  0  0
   -2.8180   19.6550  -32.1140 C   0  0  0  0  0  0  0  0  0  0  0  0
   -3.1610   18.9840  -33.2720 C   0  0  0  0  0  0  0  0  0  0  0  0
   -4.3000   18.0530  -33.4610 C   0  0  0  0  0  0  0  0  0  0  0  0
   -4.1070   16.6720  -33.2870 C   0  0  0  0  0  0  0  0  0  0  0  0
   -5.1640   15.7820  -33.4770 C   0  0  0  0  0  0  0  0  0  0  0  0
   -6.4150   16.2750  -33.8390 C   0  0  0  0  0  0  0  0  0  0  0  0
   -6.5970   17.6120  -33.9920 N   0  0  0  0  0  0  0  0  0  0  0  0
   -5.5910   18.5110  -33.8020 C   0  0  0  0  0  0  0  0  0  0  0  0
   -5.8320   19.8830  -33.9610 O   0  0  0  0  0  0  0  0  0  0  0  0
   -5.8340   20.8340  -32.9320 C   0  0  0  0  0  0  0  0  0  0  0  0
   -6.8780   20.8070  -31.9990 C   0  0  0  0  0  0  0  0  0  0  0  0
   -6.9250   21.7410  -30.9610 C   0  0  0  0  0  0  0  0  0  0  0  0
   -5.9350   22.7290  -30.8500 C   0  0  0  0  0  0  0  0  0  0  0  0
   -5.9650   23.7230  -29.7200 C   0  0  0  0  0  0  0  0  0  0  0  0
   -4.5750   23.9970  -29.2260 C   0  0  0  0  0  0  0  0  0  0  0  0
   -3.9120   23.3260  -27.8280 S   0  0  0  0  0  0  0  0  0  0  0  0
   -2.4820   24.1920  -27.9860 C   0  0  0  0  0  0  0  0  0  0  0  0
   -1.5140   24.1120  -27.1870 O   0  0  0  0  0  0  0  0  0  0  0  0
   -2.4800   24.9970  -29.0680 N   0  0  0  0  0  0  0  0  0  0  0  0
   -3.6460   24.8970  -29.7600 C   0  0  0  0  0  0  0  0  0  0  0  0
   -3.8620   25.6510  -30.9100 O   0  0  0  0  0  0  0  0  0  0  0  0
   -4.8990   22.7700  -31.7960 C   0  0  0  0  0  0  0  0  0  0  0  0
   -4.8510   21.8350  -32.8330 C   0  0  0  0  0  0  0  0  0  0  0  0
   -2.1780   19.3320  -34.1870 C   0  0  0  0  0  0  0  0  0  0  0  0
   -1.3010   20.1710  -33.6030 N   0  0  0  0  0  0  0  0  0  0  0  0
   -1.2599   20.8616  -30.3693 H   0  0  0  0  0  0  0  0  0  0  0  0
    0.1040   21.0247  -31.5269 H   0  0  0  0  0  0  0  0  0  0  0  0
   -1.2237   22.2347  -31.5269 H   0  0  0  0  0  0  0  0  0  0  0  0
   -3.3599   19.6110  -31.1577 H   0  0  0  0  0  0  0  0  0  0  0  0
   -3.1162   16.2905  -32.9992 H   0  0  0  0  0  0  0  0  0  0  0  0
   -5.0109   14.7011  -33.3422 H   0  0  0  0  0  0  0  0  0  0  0  0
   -7.2543   15.5826  -34.0007 H   0  0  0  0  0  0  0  0  0  0  0  0
   -7.6667   20.0450  -32.0840 H   0  0  0  0  0  0  0  0  0  0  0  0
   -7.7429   21.7015  -30.2265 H   0  0  0  0  0  0  0  0  0  0  0  0
   -6.4148   24.6619  -30.0752 H   0  0  0  0  0  0  0  0  0  0  0  0
   -6.5609   23.3063  -28.8946 H   0  0  0  0  0  0  0  0  0  0  0  0
   -3.2000   25.6710  -31.6750 H   0  0  0  0  0  0  0  0  0  0  0  0
   -4.1201   23.5430  -31.7205 H   0  0  0  0  0  0  0  0  0  0  0  0
   -4.0407   21.8819  -33.5754 H   0  0  0  0  0  0  0  0  0  0  0  0
   -2.1234   18.9780  -35.2270 H   0  0  0  0  0  0  0  0  0  0  0  0
  1  2  1  0
  2  3  1  0
  3  4  2  0
  4  5  1  0
  5  6  2  0
  6  7  1  0
  7  8  2  0
  8  9  1  0
  9 10  2  0
 10 11  1  0
 11 12  1  0
 12 13  2  0
 13 14  1  0
 14 15  2  0
 15 16  1  0
 16 17  1  0
 17 18  1  0
 18 19  1  0
 19 20  2  0
 19 21  1  0
 21 22  1  0
 22 23  1  0
 15 24  1  0
 24 25  2  0
  4 26  1  0
 26 27  2  0
 27  2  1  0
 10  5  1  0
 25 12  1  0
 22 17  2  0
  1 28  1  0
  1 29  1  0
  1 30  1  0
  3 31  1  0
  6 32  1  0
  7 33  1  0
  8 34  1  0
 13 35  1  0
 14 36  1  0
 16 37  1  0
 16 38  1  0
 23 39  1  0
 24 40  1  0
 25 41  1  0
 26 42  1  0
M  CHG  1  21  -1
M  END
>  <UniqueID>  (40) 
38

>  <SMILES>  (40) 
Cn1cc(-c2cccnc2Oc2ccc(Cc3sc(=O)[n-]c3O)cc2)cn1

>  <Energy>  (40) 
113.85292896600482

>  <Genealogy>  (40) 
Cn1cc(-c2cccnc2Oc2ccc(Cc3sc(=O)[n-]c3O)cc2)cn1 (protonated)
Cn1cc(-c2cccnc2Oc2ccc(Cc3sc(=O)[n-]c3O)cc2)cn1 (3D coordinates assigned)
Cn1cc(-c2cccnc2Oc2ccc(Cc3sc(=O)[n-]c3O)cc2)cn1 (optimized conformer: 113.85292896600482 kcal/mol)

>  <smiles>  (40) 
Cn1cc(-c2cccnc2Oc2ccc(Cc3sc(=O)[nH]c3O)cc2)cn1

>  <score_type>  (40) 
oracle

>  <origin>  (40) 
adg

>  <m_score__min__energy>  (40) 
-11.58

>  <m_primary>  (40) 
energy

$$$$
40:0
     RDKit          3D

 21 21  0  0  0  0  0  0  0  0999 V2000
   -3.7310   24.1230  -28.2780 C   0  0  0  0  0  0  0  0  0  0  0  0
   -3.1130   24.2210  -29.6680 C   0  0  0  0  0  0  0  0  0  0  0  0
   -3.7990   25.1920  -30.4560 O   0  0  0  0  0  0  0  0  0  0  0  0
   -5.1930   25.3310  -30.4720 C   0  0  0  0  0  0  0  0  0  0  0  0
   -5.7250   26.4170  -30.1100 O   0  0  0  0  0  0  0  0  0  0  0  0
   -6.0390   24.1980  -30.9050 C   0  0  0  0  0  0  0  0  0  0  0  0
   -6.8130   23.4890  -29.9760 C   0  0  0  0  0  0  0  0  0  0  0  0
   -7.6080   22.4200  -30.3940 C   0  0  0  0  0  0  0  0  0  0  0  0
   -7.6250   22.0650  -31.7450 C   0  0  0  0  0  0  0  0  0  0  0  0
   -8.6180   20.7250  -32.2840 Cl  0  0  0  0  0  0  0  0  0  0  0  0
   -6.8690   22.7590  -32.6400 N   0  0  0  0  0  0  0  0  0  0  0  0
   -6.0870   23.8050  -32.2540 C   0  0  0  0  0  0  0  0  0  0  0  0
   -2.9456   24.2475  -27.5179 H   0  0  0  0  0  0  0  0  0  0  0  0
   -4.4873   24.9124  -28.1565 H   0  0  0  0  0  0  0  0  0  0  0  0
   -4.2060   23.1383  -28.1565 H   0  0  0  0  0  0  0  0  0  0  0  0
   -2.0566   24.5128  -29.5740 H   0  0  0  0  0  0  0  0  0  0  0  0
   -3.1952   23.2416  -30.1621 H   0  0  0  0  0  0  0  0  0  0  0  0
   -6.7940   23.7757  -28.9142 H   0  0  0  0  0  0  0  0  0  0  0  0
   -8.2155   21.8623  -29.6660 H   0  0  0  0  0  0  0  0  0  0  0  0
   -6.8880   22.4870  -33.6490 H   0  0  0  0  0  0  0  0  0  0  0  0
   -5.4892   24.3458  -33.0024 H   0  0  0  0  0  0  0  0  0  0  0  0
  1  2  1  0
  2  3  1  0
  3  4  1  0
  4  5  2  0
  4  6  1  0
  6  7  2  0
  7  8  1  0
  8  9  2  0
  9 10  1  0
  9 11  1  0
 11 12  2  0
 12  6  1  0
  1 13  1  0
  1 14  1  0
  1 15  1  0
  2 16  1  0
  2 17  1  0
  7 18  1  0
  8 19  1  0
 11 20  1  0
 12 21  1  0
M  CHG  1  11   1
M  END
>  <UniqueID>  (41) 
39

>  <SMILES>  (41) 
CCOC(=O)c1ccc(Cl)[nH+]c1

>  <Energy>  (41) 
15.641898404466307

>  <Genealogy>  (41) 
CCOC(=O)c1ccc(Cl)[nH+]c1 (protonated)
CCOC(=O)c1ccc(Cl)[nH+]c1 (3D coordinates assigned)
CCOC(=O)c1ccc(Cl)[nH+]c1 (optimized conformer: 15.641898404466307 kcal/mol)

>  <smiles>  (41) 
CCOC(=O)c1ccc(Cl)nc1

>  <score_type>  (41) 
oracle

>  <origin>  (41) 
adg

>  <m_score__min__energy>  (41) 
-5.1799999999999997

>  <m_primary>  (41) 
energy

$$$$
41:0
     RDKit          3D

 41 43  0  0  0  0  0  0  0  0999 V2000
   -8.7110   20.0010  -31.2900 C   0  0  0  0  0  0  0  0  0  0  0  0
   -8.3780   21.1110  -32.2880 C   0  0  0  0  0  0  0  0  0  0  0  0
   -6.9150   21.3090  -32.4040 N   0  0  0  0  0  0  0  0  0  0  0  0
   -6.3000   22.4600  -31.9530 C   0  0  0  0  0  0  0  0  0  0  0  0
   -7.2130   23.8010  -31.1510 S   0  0  0  0  0  0  0  0  0  0  0  0
   -5.9570   24.1570  -29.8710 C   0  0  0  0  0  0  0  0  0  0  0  0
   -5.0090   25.2410  -30.3010 C   0  0  0  0  0  0  0  0  0  0  0  0
   -5.4570   26.4040  -30.4750 O   0  0  0  0  0  0  0  0  0  0  0  0
   -3.6030   25.0110  -30.4730 N   0  0  0  0  0  0  0  0  0  0  0  0
   -2.7490   24.2820  -29.5840 C   0  0  0  0  0  0  0  0  0  0  0  0
   -2.9470   22.9050  -29.4280 C   0  0  0  0  0  0  0  0  0  0  0  0
   -2.1360   22.1690  -28.5580 C   0  0  0  0  0  0  0  0  0  0  0  0
   -1.1360   22.8120  -27.8220 C   0  0  0  0  0  0  0  0  0  0  0  0
   -0.1190   21.8910  -26.7290 Cl  0  0  0  0  0  0  0  0  0  0  0  0
   -0.9550   24.1940  -27.9490 C   0  0  0  0  0  0  0  0  0  0  0  0
   -1.7640   24.9290  -28.8210 C   0  0  0  0  0  0  0  0  0  0  0  0
   -4.9470   22.5890  -32.0300 N   0  0  0  0  0  0  0  0  0  0  0  0
   -4.1680   21.6240  -32.5820 C   0  0  0  0  0  0  0  0  0  0  0  0
   -2.7760   21.7950  -32.6710 C   0  0  0  0  0  0  0  0  0  0  0  0
   -1.9800   20.7960  -33.2340 C   0  0  0  0  0  0  0  0  0  0  0  0
   -2.5640   19.6200  -33.7090 C   0  0  0  0  0  0  0  0  0  0  0  0
   -3.9470   19.4390  -33.6240 C   0  0  0  0  0  0  0  0  0  0  0  0
   -4.7600   20.4420  -33.0600 C   0  0  0  0  0  0  0  0  0  0  0  0
   -6.1510   20.3010  -32.9460 C   0  0  0  0  0  0  0  0  0  0  0  0
   -6.6980   19.2300  -33.3350 O   0  0  0  0  0  0  0  0  0  0  0  0
   -8.5964   20.3831  -30.2649 H   0  0  0  0  0  0  0  0  0  0  0  0
   -9.7483   19.6688  -31.4437 H   0  0  0  0  0  0  0  0  0  0  0  0
   -8.0278   19.1527  -31.4437 H   0  0  0  0  0  0  0  0  0  0  0  0
   -8.7821   20.8392  -33.2743 H   0  0  0  0  0  0  0  0  0  0  0  0
   -8.8278   22.0481  -31.9280 H   0  0  0  0  0  0  0  0  0  0  0  0
   -6.4680   24.4761  -28.9506 H   0  0  0  0  0  0  0  0  0  0  0  0
   -5.3726   23.2403  -29.7032 H   0  0  0  0  0  0  0  0  0  0  0  0
   -3.7443   22.3993  -29.9924 H   0  0  0  0  0  0  0  0  0  0  0  0
   -2.2849   21.0842  -28.4528 H   0  0  0  0  0  0  0  0  0  0  0  0
   -0.1757   24.7024  -27.3623 H   0  0  0  0  0  0  0  0  0  0  0  0
   -1.6283   26.0170  -28.9094 H   0  0  0  0  0  0  0  0  0  0  0  0
   -4.5020   23.4600  -31.6570 H   0  0  0  0  0  0  0  0  0  0  0  0
   -2.3121   22.7191  -32.2958 H   0  0  0  0  0  0  0  0  0  0  0  0
   -0.8911   20.9354  -33.3036 H   0  0  0  0  0  0  0  0  0  0  0  0
   -1.9339   18.8342  -34.1511 H   0  0  0  0  0  0  0  0  0  0  0  0
   -4.4024   18.5104  -33.9986 H   0  0  0  0  0  0  0  0  0  0  0  0
  1  2  1  0
  2  3  1  0
  3  4  1  0
  4  5  1  0
  5  6  1  0
  6  7  1  0
  7  8  2  0
  7  9  1  0
  9 10  1  0
 10 11  2  0
 11 12  1  0
 12 13  2  0
 13 14  1  0
 13 15  1  0
 15 16  2  0
  4 17  2  0
 17 18  1  0
 18 19  2  0
 19 20  1  0
 20 21  2  0
 21 22  1  0
 22 23  2  0
 23 24  1  0
 24 25  2  0
 24  3  1  0
 16 10  1  0
 23 18  1  0
  1 26  1  0
  1 27  1  0
  1 28  1  0
  2 29  1  0
  2 30  1  0
  6 31  1  0
  6 32  1  0
 11 33  1  0
 12 34  1  0
 15 35  1  0
 16 36  1  0
 17 37  1  0
 19 38  1  0
 20 39  1  0
 21 40  1  0
 22 41  1  0
M  CHG  2   9  -1  17   1
M  END
>  <UniqueID>  (42) 
40

>  <SMILES>  (42) 
CCn1c(SCC(=O)[N-]c2ccc(Cl)cc2)[nH+]c2ccccc2c1=O

>  <Energy>  (42) 
52.209010849501944

>  <Genealogy>  (42) 
CCn1c(SCC(=O)[N-]c2ccc(Cl)cc2)[nH+]c2ccccc2c1=O (protonated)
CCn1c(SCC(=O)[N-]c2ccc(Cl)cc2)[nH+]c2ccccc2c1=O (3D coordinates assigned)
CCn1c(SCC(=O)[N-]c2ccc(Cl)cc2)[nH+]c2ccccc2c1=O (optimized conformer: 52.209010849501944 kcal/mol)

>  <smiles>  (42) 
CCn1c(SCC(=O)Nc2ccc(Cl)cc2)nc2ccccc2c1=O

>  <score_type>  (42) 
oracle

>  <origin>  (42) 
adg

>  <m_score__min__energy>  (42) 
-9.7200000000000006

>  <m_primary>  (42) 
energy

$$$$
42:0
     RDKit          3D

 60 62  0  0  0  0  0  0  0  0999 V2000
    0.6100   21.8740  -35.8590 C   0  0  0  0  0  0  0  0  0  0  0  0
   -0.0930   22.2600  -34.6990 O   0  0  0  0  0  0  0  0  0  0  0  0
   -0.4710   21.1200  -33.9480 C   0  0  0  0  0  0  0  0  0  0  0  0
   -1.3560   21.5140  -32.7610 C   0  0  0  0  0  0  0  0  0  0  0  0
   -2.7030   20.9770  -32.9260 N   0  0  0  0  0  0  0  0  0  0  0  0
   -3.8450   21.6840  -32.8740 C   0  0  0  0  0  0  0  0  0  0  0  0
   -4.8960   20.8280  -33.1350 C   0  0  0  0  0  0  0  0  0  0  0  0
   -6.3610   21.1890  -33.0890 C   0  0  0  0  0  0  0  0  0  0  0  0
   -6.8640   21.3200  -31.6950 N   0  0  2  0  0  0  0  0  0  0  0  0
   -8.0450   20.4560  -31.4870 C   0  0  0  0  0  0  0  0  0  0  0  0
   -7.1910   22.7410  -31.4110 C   0  0  0  0  0  0  0  0  0  0  0  0
   -7.2380   23.0590  -29.9010 C   0  0  0  0  0  0  0  0  0  0  0  0
   -5.9750   23.6820  -29.4440 N   0  0  0  0  0  0  0  0  0  0  0  0
   -6.0290   25.1610  -29.5540 C   0  0  0  0  0  0  0  0  0  0  0  0
   -5.2810   25.6720  -30.7990 C   0  0  0  0  0  0  0  0  0  0  0  0
   -3.9060   25.3130  -30.8250 O   0  0  0  0  0  0  0  0  0  0  0  0
   -3.6220   24.0950  -30.1510 C   0  0  0  0  0  0  0  0  0  0  0  0
   -4.7990   23.1070  -30.1390 C   0  0  0  0  0  0  0  0  0  0  0  0
   -4.2980   19.5830  -33.3400 C   0  0  0  0  0  0  0  0  0  0  0  0
   -4.9540   18.2730  -33.5650 C   0  0  0  0  0  0  0  0  0  0  0  0
   -4.2610   17.2700  -34.2630 C   0  0  0  0  0  0  0  0  0  0  0  0
   -4.8560   16.0270  -34.4980 C   0  0  0  0  0  0  0  0  0  0  0  0
   -6.1640   15.7750  -34.0610 C   0  0  0  0  0  0  0  0  0  0  0  0
   -6.7890   14.4290  -34.2780 C   0  0  0  0  0  0  0  0  0  0  0  0
   -6.8600   16.7740  -33.3660 C   0  0  0  0  0  0  0  0  0  0  0  0
   -6.2660   18.0160  -33.1320 C   0  0  0  0  0  0  0  0  0  0  0  0
   -2.9630   19.7110  -33.2050 N   0  0  0  0  0  0  0  0  0  0  0  0
    1.5405   21.3631  -35.5708 H   0  0  0  0  0  0  0  0  0  0  0  0
   -0.0134   21.1917  -36.4555 H   0  0  0  0  0  0  0  0  0  0  0  0
    0.8512   22.7662  -36.4555 H   0  0  0  0  0  0  0  0  0  0  0  0
   -1.0277   20.4291  -34.5982 H   0  0  0  0  0  0  0  0  0  0  0  0
    0.4387   20.6368  -33.5621 H   0  0  0  0  0  0  0  0  0  0  0  0
   -0.9180   21.1140  -31.8347 H   0  0  0  0  0  0  0  0  0  0  0  0
   -1.4147   22.6113  -32.7103 H   0  0  0  0  0  0  0  0  0  0  0  0
   -3.9278   22.7598  -32.6602 H   0  0  0  0  0  0  0  0  0  0  0  0
   -6.5063   22.1471  -33.6095 H   0  0  0  0  0  0  0  0  0  0  0  0
   -6.9238   20.3792  -33.5764 H   0  0  0  0  0  0  0  0  0  0  0  0
   -6.1180   21.0080  -31.0290 H   0  0  0  0  0  0  0  0  0  0  0  0
   -8.2202   20.3278  -30.4086 H   0  0  0  0  0  0  0  0  0  0  0  0
   -8.9272   20.9234  -31.9488 H   0  0  0  0  0  0  0  0  0  0  0  0
   -7.8666   19.4737  -31.9488 H   0  0  0  0  0  0  0  0  0  0  0  0
   -6.4257   23.3772  -31.8795 H   0  0  0  0  0  0  0  0  0  0  0  0
   -8.1935   22.9360  -31.8197 H   0  0  0  0  0  0  0  0  0  0  0  0
   -8.0703   23.7513  -29.7061 H   0  0  0  0  0  0  0  0  0  0  0  0
   -7.3796   22.1167  -29.3515 H   0  0  0  0  0  0  0  0  0  0  0  0
   -7.0814   25.4746  -29.6178 H   0  0  0  0  0  0  0  0  0  0  0  0
   -5.5414   25.5869  -28.6647 H   0  0  0  0  0  0  0  0  0  0  0  0
   -5.7666   25.2529  -31.6926 H   0  0  0  0  0  0  0  0  0  0  0  0
   -5.3267   26.7708  -30.7739 H   0  0  0  0  0  0  0  0  0  0  0  0
   -2.7687   23.6126  -30.6501 H   0  0  0  0  0  0  0  0  0  0  0  0
   -3.4056   24.3502  -29.1031 H   0  0  0  0  0  0  0  0  0  0  0  0
   -5.0769   22.8675  -31.1760 H   0  0  0  0  0  0  0  0  0  0  0  0
   -4.4863   22.1996  -29.6015 H   0  0  0  0  0  0  0  0  0  0  0  0
   -3.2416   17.4643  -34.6277 H   0  0  0  0  0  0  0  0  0  0  0  0
   -4.2953   15.2431  -35.0282 H   0  0  0  0  0  0  0  0  0  0  0  0
   -7.0050   13.9638  -33.3049 H   0  0  0  0  0  0  0  0  0  0  0  0
   -7.7248   14.5462  -34.8441 H   0  0  0  0  0  0  0  0  0  0  0  0
   -6.0956   13.7897  -34.8441 H   0  0  0  0  0  0  0  0  0  0  0  0
   -7.8798   16.5784  -33.0029 H   0  0  0  0  0  0  0  0  0  0  0  0
   -6.8297   18.7995  -32.6044 H   0  0  0  0  0  0  0  0  0  0  0  0
  1  2  1  0
  2  3  1  0
  3  4  1  0
  4  5  1  0
  5  6  1  0
  6  7  2  0
  7  8  1  0
  8  9  1  0
  9 10  1  0
  9 11  1  0
 11 12  1  0
 12 13  1  0
 13 14  1  0
 14 15  1  0
 15 16  1  0
 16 17  1  0
 17 18  1  0
  7 19  1  0
 19 20  1  0
 20 21  2  0
 21 22  1  0
 22 23  2  0
 23 24  1  0
 23 25  1  0
 25 26  2  0
 19 27  2  0
 27  5  1  0
 18 13  1  0
 26 20  1  0
  1 28  1  0
  1 29  1  0
  1 30  1  0
  3 31  1  0
  3 32  1  0
  4 33  1  0
  4 34  1  0
  6 35  1  0
  8 36  1  0
  8 37  1  0
  9 38  1  1
 10 39  1  0
 10 40  1  0
 10 41  1  0
 11 42  1  0
 11 43  1  0
 12 44  1  0
 12 45  1  0
 14 46  1  0
 14 47  1  0
 15 48  1  0
 15 49  1  0
 17 50  1  0
 17 51  1  0
 18 52  1  0
 18 53  1  0
 21 54  1  0
 22 55  1  0
 24 56  1  0
 24 57  1  0
 24 58  1  0
 25 59  1  0
 26 60  1  0
M  CHG  1   9   1
M  END
>  <UniqueID>  (43) 
41

>  <SMILES>  (43) 
COCCn1cc(C[N@H+](C)CCN2CCOCC2)c(-c2ccc(C)cc2)n1

>  <Energy>  (43) 
109.3280028579853

>  <Genealogy>  (43) 
COCCn1cc(C[NH+](C)CCN2CCOCC2)c(-c2ccc(C)cc2)n1 (protonated)
COCCn1cc(C[N@H+](C)CCN2CCOCC2)c(-c2ccc(C)cc2)n1 (chirality)
COCCn1cc(C[N@H+](C)CCN2CCOCC2)c(-c2ccc(C)cc2)n1 (3D coordinates assigned)
COCCn1cc(C[N@H+](C)CCN2CCOCC2)c(-c2ccc(C)cc2)n1 (nonaromatic ring conformer: 109.3280028579853 kcal/mol)

>  <smiles>  (43) 
COCCn1cc(CN(C)CCN2CCOCC2)c(-c2ccc(C)cc2)n1

>  <score_type>  (43) 
oracle

>  <origin>  (43) 
adg

>  <m_score__min__energy>  (43) 
-7.5700000000000003

>  <m_primary>  (43) 
energy

$$$$
43:0
     RDKit          3D

 49 51  0  0  0  0  0  0  0  0999 V2000
   -3.5381   22.1142  -31.2597 H   0  0  0  0  0  0  0  0  0  0  0  0
   -4.6200   21.9340  -31.3430 C   0  0  0  0  0  0  0  0  0  0  0  0
   -5.5630   22.5630  -30.6390 C   0  0  0  0  0  0  0  0  0  0  0  0
   -5.3100   23.6850  -29.6780 C   0  0  0  0  0  0  0  0  0  0  0  0
   -6.2713   24.0977  -29.3380 H   0  0  0  0  0  0  0  0  0  0  0  0
   -4.7436   23.3026  -28.8161 H   0  0  0  0  0  0  0  0  0  0  0  0
   -4.5190   24.7600  -30.3480 C   0  0  0  0  0  0  0  0  0  0  0  0
   -5.0640   25.4840  -31.2260 O   0  0  0  0  0  0  0  0  0  0  0  0
   -3.1650   24.9140  -30.0310 O   0  0  0  0  0  0  0  0  0  0  0  0
   -2.4920   24.1290  -29.0480 C   0  0  0  0  0  0  0  0  0  0  0  0
   -1.8234   24.7784  -28.4638 H   0  0  0  0  0  0  0  0  0  0  0  0
   -3.2435   23.6645  -28.3927 H   0  0  0  0  0  0  0  0  0  0  0  0
   -1.6700   23.0280  -29.7050 C   0  0  0  0  0  0  0  0  0  0  0  0
   -1.2045   22.4044  -28.9275 H   0  0  0  0  0  0  0  0  0  0  0  0
   -2.3256   22.4049  -30.3310 H   0  0  0  0  0  0  0  0  0  0  0  0
   -0.8862   23.4795  -30.3310 H   0  0  0  0  0  0  0  0  0  0  0  0
   -6.8710   22.0360  -31.0260 C   0  0  0  0  0  0  0  0  0  0  0  0
   -8.1360   22.3560  -30.5290 C   0  0  0  0  0  0  0  0  0  0  0  0
   -8.2632   23.1545  -29.7832 H   0  0  0  0  0  0  0  0  0  0  0  0
   -9.2420   21.6330  -31.0050 C   0  0  0  0  0  0  0  0  0  0  0  0
  -10.4850   21.9190  -30.5450 F   0  0  0  0  0  0  0  0  0  0  0  0
   -9.0610   20.5930  -31.9380 C   0  0  0  0  0  0  0  0  0  0  0  0
   -9.9307   20.0202  -32.2924 H   0  0  0  0  0  0  0  0  0  0  0  0
   -7.7790   20.2820  -32.4190 C   0  0  0  0  0  0  0  0  0  0  0  0
   -7.6290   19.4535  -33.1269 H   0  0  0  0  0  0  0  0  0  0  0  0
   -6.6950   21.0520  -31.9760 C   0  0  0  0  0  0  0  0  0  0  0  0
   -5.2520   20.9630  -32.2470 C   0  0  0  0  0  0  0  0  0  0  0  0
   -4.5810   20.2250  -33.1420 C   0  0  0  0  0  0  0  0  0  0  0  0
   -3.8134   20.7269  -33.7494 H   0  0  0  0  0  0  0  0  0  0  0  0
   -4.8030   18.7880  -33.3660 C   0  0  0  0  0  0  0  0  0  0  0  0
   -5.4260   18.0000  -32.3850 C   0  0  0  0  0  0  0  0  0  0  0  0
   -5.7339   18.4534  -31.4313 H   0  0  0  0  0  0  0  0  0  0  0  0
   -5.6560   16.6410  -32.6170 C   0  0  0  0  0  0  0  0  0  0  0  0
   -6.1231   16.0238  -31.8354 H   0  0  0  0  0  0  0  0  0  0  0  0
   -5.2940   16.0600  -33.8420 C   0  0  0  0  0  0  0  0  0  0  0  0
   -5.5000   14.5840  -34.0710 C   0  0  0  0  0  0  0  0  0  0  0  0
   -5.5377   14.3940  -35.1538 H   0  0  0  0  0  0  0  0  0  0  0  0
   -6.4420   14.2917  -33.5840 H   0  0  0  0  0  0  0  0  0  0  0  0
   -4.3680   13.7460  -33.4590 C   0  0  0  0  0  0  0  0  0  0  0  0
   -3.4061   14.2202  -33.7039 H   0  0  0  0  0  0  0  0  0  0  0  0
   -4.4380   12.7320  -33.8797 H   0  0  0  0  0  0  0  0  0  0  0  0
   -4.4830   13.6270  -31.9390 C   0  0  0  0  0  0  0  0  0  0  0  0
   -3.7941   14.3398  -31.4622 H   0  0  0  0  0  0  0  0  0  0  0  0
   -5.5147   13.8519  -31.6306 H   0  0  0  0  0  0  0  0  0  0  0  0
   -4.2230   12.6036  -31.6306 H   0  0  0  0  0  0  0  0  0  0  0  0
   -4.7020   16.8590  -34.8330 C   0  0  0  0  0  0  0  0  0  0  0  0
   -4.4198   16.4131  -35.7982 H   0  0  0  0  0  0  0  0  0  0  0  0
   -4.4690   18.2170  -34.6010 C   0  0  0  0  0  0  0  0  0  0  0  0
   -4.0221   18.8395  -35.3902 H   0  0  0  0  0  0  0  0  0  0  0  0
  1  2  1  0
  2  3  2  0
  3  4  1  0
  4  5  1  0
  4  6  1  0
  4  7  1  0
  7  8  2  0
  7  9  1  0
  9 10  1  0
 10 11  1  0
 10 12  1  0
 10 13  1  0
 13 14  1  0
 13 15  1  0
 13 16  1  0
  3 17  1  0
 17 18  2  0
 18 19  1  0
 18 20  1  0
 20 21  1  0
 20 22  2  0
 22 23  1  0
 22 24  1  0
 24 25  1  0
 24 26  2  0
 26 27  1  0
 27 28  2  0
 28 29  1  0
 28 30  1  0
 30 31  2  0
 31 32  1  0
 31 33  1  0
 33 34  1  0
 33 35  2  0
 35 36  1  0
 36 37  1  0
 36 38  1  0
 36 39  1  0
 39 40  1  0
 39 41  1  0
 39 42  1  0
 42 43  1  0
 42 44  1  0
 42 45  1  0
 35 46  1  0
 46 47  1  0
 46 48  2  0
 48 49  1  0
 27  2  1  0
 48 30  1  0
 26 17  1  0
M  END
>  <UniqueID>  (44) 
42

>  <SMILES>  (44) 
CCCc1ccc(/C=C2/C=C(CC(=O)OCC)c3cc(F)ccc32)cc1

>  <Energy>  (44) 
73.87534196464235

>  <Genealogy>  (44) 
CCCc1ccc(/C=C2/C=C(CC(=O)OCC)c3cc(F)ccc32)cc1 (cis-trans isomerization)
CCCc1ccc(/C=C2/C=C(CC(=O)OCC)c3cc(F)ccc32)cc1 (3D coordinates assigned)
CCCc1ccc(/C=C2/C=C(CC(=O)OCC)c3cc(F)ccc32)cc1 (nonaromatic ring conformer: 73.87534196464235 kcal/mol)

>  <smiles>  (44) 
CCCc1ccc(C=C2C=C(CC(=O)OCC)c3cc(F)ccc32)cc1

>  <score_type>  (44) 
oracle

>  <origin>  (44) 
adg

>  <m_score__min__energy>  (44) 
-9.1400000000000006

>  <m_primary>  (44) 
energy

$$$$
44:0
     RDKit          3D

 46 48  0  0  0  0  0  0  0  0999 V2000
   -4.0070   24.5970  -26.7950 C   0  0  0  0  0  0  0  0  0  0  0  0
   -4.1760   23.3160  -27.6050 C   0  0  0  0  0  0  0  0  0  0  0  0
   -2.8190   22.7010  -27.9570 C   0  0  0  0  0  0  0  0  0  0  0  0
   -2.2390   23.2860  -29.5430 S   0  0  0  0  0  0  0  0  0  0  0  0
   -2.6670   24.7180  -29.7130 O   0  0  0  0  0  0  0  0  0  0  0  0
   -0.7390   23.2200  -29.5820 O   0  0  0  0  0  0  0  0  0  0  0  0
   -2.8940   22.2980  -30.8460 C   0  0  0  0  0  0  0  0  0  0  0  0
   -2.0980   21.9380  -31.9410 C   0  0  0  0  0  0  0  0  0  0  0  0
   -2.6340   21.1640  -32.9720 C   0  0  0  0  0  0  0  0  0  0  0  0
   -3.9700   20.7590  -32.9270 C   0  0  0  0  0  0  0  0  0  0  0  0
   -4.7950   21.1400  -31.8500 C   0  0  0  0  0  0  0  0  0  0  0  0
   -6.2550   20.7160  -31.7430 C   0  0  2  0  0  0  0  0  0  0  0  0
   -6.8860   20.0740  -32.9750 C   0  0  0  0  0  0  0  0  0  0  0  0
   -8.3790   20.2090  -32.7240 C   0  0  0  0  0  0  0  0  0  0  0  0
   -8.5090   21.2090  -31.5720 C   0  0  0  0  0  0  0  0  0  0  0  0
   -7.1770   21.7940  -31.3280 N   0  0  0  0  0  0  0  0  0  0  0  0
   -7.0210   23.0430  -32.1190 C   0  0  0  0  0  0  0  0  0  0  0  0
   -6.4640   24.1290  -31.2540 C   0  0  0  0  0  0  0  0  0  0  0  0
   -7.0030   24.5630  -30.0610 C   0  0  0  0  0  0  0  0  0  0  0  0
   -6.1610   25.5570  -29.6140 C   0  0  0  0  0  0  0  0  0  0  0  0
   -5.1630   25.6680  -30.5620 C   0  0  0  0  0  0  0  0  0  0  0  0
   -5.3710   24.8020  -31.5270 O   0  0  0  0  0  0  0  0  0  0  0  0
   -4.2290   21.8780  -30.7950 C   0  0  0  0  0  0  0  0  0  0  0  0
   -4.0384   24.3589  -25.7215 H   0  0  0  0  0  0  0  0  0  0  0  0
   -3.0399   25.0606  -27.0396 H   0  0  0  0  0  0  0  0  0  0  0  0
   -4.8208   25.2955  -27.0396 H   0  0  0  0  0  0  0  0  0  0  0  0
   -4.7559   22.5917  -27.0142 H   0  0  0  0  0  0  0  0  0  0  0  0
   -4.7004   23.5617  -28.5402 H   0  0  0  0  0  0  0  0  0  0  0  0
   -2.0878   22.9772  -27.1830 H   0  0  0  0  0  0  0  0  0  0  0  0
   -2.9336   21.6082  -28.0085 H   0  0  0  0  0  0  0  0  0  0  0  0
   -1.0490   22.2656  -31.9887 H   0  0  0  0  0  0  0  0  0  0  0  0
   -2.0015   20.8719  -33.8233 H   0  0  0  0  0  0  0  0  0  0  0  0
   -4.3807   20.1388  -33.7373 H   0  0  0  0  0  0  0  0  0  0  0  0
   -6.1511   19.9482  -30.9621 H   0  0  0  0  0  0  0  0  0  0  0  0
   -6.5918   20.6083  -33.8904 H   0  0  0  0  0  0  0  0  0  0  0  0
   -6.5702   19.0306  -33.1222 H   0  0  0  0  0  0  0  0  0  0  0  0
   -8.8875   20.5888  -33.6225 H   0  0  0  0  0  0  0  0  0  0  0  0
   -8.8418   19.2414  -32.4799 H   0  0  0  0  0  0  0  0  0  0  0  0
   -9.2215   22.0018  -31.8437 H   0  0  0  0  0  0  0  0  0  0  0  0
   -8.8783   20.7051  -30.6666 H   0  0  0  0  0  0  0  0  0  0  0  0
   -6.3357   22.8589  -32.9595 H   0  0  0  0  0  0  0  0  0  0  0  0
   -8.0044   23.3540  -32.5014 H   0  0  0  0  0  0  0  0  0  0  0  0
   -7.9147   24.1927  -29.5694 H   0  0  0  0  0  0  0  0  0  0  0  0
   -6.2628   26.1437  -28.6891 H   0  0  0  0  0  0  0  0  0  0  0  0
   -4.3213   26.3747  -30.5158 H   0  0  0  0  0  0  0  0  0  0  0  0
   -4.8434   22.1288  -29.9177 H   0  0  0  0  0  0  0  0  0  0  0  0
  1  2  1  0
  2  3  1  0
  3  4  1  0
  4  5  2  0
  4  6  2  0
  4  7  1  0
  7  8  2  0
  8  9  1  0
  9 10  2  0
 10 11  1  0
 11 12  1  0
 12 13  1  0
 13 14  1  0
 14 15  1  0
 15 16  1  0
 16 17  1  0
 17 18  1  0
 18 19  2  0
 19 20  1  0
 20 21  2  0
 21 22  1  0
 11 23  2  0
 23  7  1  0
 16 12  1  0
 22 18  1  0
  1 24  1  0
  1 25  1  0
  1 26  1  0
  2 27  1  0
  2 28  1  0
  3 29  1  0
  3 30  1  0
  8 31  1  0
  9 32  1  0
 10 33  1  0
 12 34  1  1
 13 35  1  0
 13 36  1  0
 14 37  1  0
 14 38  1  0
 15 39  1  0
 15 40  1  0
 17 41  1  0
 17 42  1  0
 19 43  1  0
 20 44  1  0
 21 45  1  0
 23 46  1  0
M  END
>  <UniqueID>  (45) 
43

>  <SMILES>  (45) 
CCCS(=O)(=O)c1cccc([C@@H]2CCCN2Cc2ccco2)c1

>  <Energy>  (45) 
72.75610687170983

>  <Genealogy>  (45) 
CCCS(=O)(=O)c1cccc([C@@H]2CCCN2Cc2ccco2)c1 (chirality)
CCCS(=O)(=O)c1cccc([C@@H]2CCCN2Cc2ccco2)c1 (3D coordinates assigned)
CCCS(=O)(=O)c1cccc([C@@H]2CCCN2Cc2ccco2)c1 (nonaromatic ring conformer: 72.75610687170983 kcal/mol)

>  <smiles>  (45) 
CCCS(=O)(=O)c1cccc(C2CCCN2Cc2ccco2)c1

>  <score_type>  (45) 
oracle

>  <origin>  (45) 
adg

>  <m_score__min__energy>  (45) 
-9.0800000000000001

>  <m_primary>  (45) 
energy

$$$$
45:0
     RDKit          3D

 42 44  0  0  0  0  0  0  0  0999 V2000
   -4.8880   17.0660  -34.6110 C   0  0  0  0  0  0  0  0  0  0  0  0
   -4.8720   18.5860  -34.5060 C   0  0  0  0  0  0  0  0  0  0  0  0
   -6.0080   19.0470  -33.7130 N   0  0  0  0  0  0  0  0  0  0  0  0
   -6.9000   18.2650  -33.0750 C   0  0  0  0  0  0  0  0  0  0  0  0
   -7.7570   19.0820  -32.3640 C   0  0  0  0  0  0  0  0  0  0  0  0
   -9.0780   18.5510  -31.3360 Cl  0  0  0  0  0  0  0  0  0  0  0  0
   -7.3240   20.3770  -32.6130 C   0  0  0  0  0  0  0  0  0  0  0  0
   -7.8520   21.6240  -32.0210 C   0  0  0  0  0  0  0  0  0  0  0  0
   -9.0990   21.7800  -31.9100 O   0  0  0  0  0  0  0  0  0  0  0  0
   -6.9650   22.6340  -31.5140 N   0  0  0  0  0  0  0  0  0  0  0  0
   -7.2660   23.2550  -30.2160 C   0  0  0  0  0  0  0  0  0  0  0  0
   -6.2690   24.3690  -29.8820 C   0  0  0  0  0  0  0  0  0  0  0  0
   -4.9060   23.9300  -30.2110 N   0  0  0  0  0  0  0  0  0  0  0  0
   -3.8670   23.9570  -29.2120 C   0  0  0  0  0  0  0  0  0  0  0  0
   -2.5260   23.7440  -29.5750 C   0  0  0  0  0  0  0  0  0  0  0  0
   -1.5190   23.7690  -28.6050 C   0  0  0  0  0  0  0  0  0  0  0  0
   -1.8430   23.9980  -27.2650 C   0  0  0  0  0  0  0  0  0  0  0  0
   -3.1740   24.1980  -26.8920 C   0  0  0  0  0  0  0  0  0  0  0  0
   -4.1830   24.1790  -27.8600 C   0  0  0  0  0  0  0  0  0  0  0  0
   -4.6140   23.3850  -31.5480 C   0  0  0  0  0  0  0  0  0  0  0  0
   -5.8970   23.1800  -32.3650 C   0  0  0  0  0  0  0  0  0  0  0  0
   -6.2530   20.3180  -33.4290 N   0  0  0  0  0  0  0  0  0  0  0  0
   -4.8926   16.6288  -33.6016 H   0  0  0  0  0  0  0  0  0  0  0  0
   -5.7896   16.7454  -35.1536 H   0  0  0  0  0  0  0  0  0  0  0  0
   -3.9934   16.7265  -35.1536 H   0  0  0  0  0  0  0  0  0  0  0  0
   -3.9372   18.9074  -34.0233 H   0  0  0  0  0  0  0  0  0  0  0  0
   -4.9397   19.0170  -35.5158 H   0  0  0  0  0  0  0  0  0  0  0  0
   -6.9391   17.1664  -33.1136 H   0  0  0  0  0  0  0  0  0  0  0  0
   -8.2796   23.6809  -30.2500 H   0  0  0  0  0  0  0  0  0  0  0  0
   -7.1923   22.4811  -29.4378 H   0  0  0  0  0  0  0  0  0  0  0  0
   -6.5150   25.2672  -30.4674 H   0  0  0  0  0  0  0  0  0  0  0  0
   -6.3277   24.5999  -28.8081 H   0  0  0  0  0  0  0  0  0  0  0  0
   -2.2672   23.5567  -30.6276 H   0  0  0  0  0  0  0  0  0  0  0  0
   -0.4707   23.6082  -28.8970 H   0  0  0  0  0  0  0  0  0  0  0  0
   -1.0494   24.0207  -26.5037 H   0  0  0  0  0  0  0  0  0  0  0  0
   -3.4288   24.3706  -25.8359 H   0  0  0  0  0  0  0  0  0  0  0  0
   -5.2298   24.3386  -27.5621 H   0  0  0  0  0  0  0  0  0  0  0  0
   -3.9572   24.0860  -32.0840 H   0  0  0  0  0  0  0  0  0  0  0  0
   -4.1250   22.4076  -31.4228 H   0  0  0  0  0  0  0  0  0  0  0  0
   -6.2215   24.1462  -32.7787 H   0  0  0  0  0  0  0  0  0  0  0  0
   -5.6917   22.4698  -33.1796 H   0  0  0  0  0  0  0  0  0  0  0  0
   -5.6690   21.1210  -33.7510 H   0  0  0  0  0  0  0  0  0  0  0  0
  1  2  1  0
  2  3  1  0
  3  4  1  0
  4  5  2  0
  5  6  1  0
  5  7  1  0
  7  8  1  0
  8  9  2  0
  8 10  1  0
 10 11  1  0
 11 12  1  0
 12 13  1  0
 13 14  1  0
 14 15  2  0
 15 16  1  0
 16 17  2  0
 17 18  1  0
 18 19  2  0
 13 20  1  0
 20 21  1  0
  7 22  2  0
 22  3  1  0
 21 10  1  0
 19 14  1  0
  1 23  1  0
  1 24  1  0
  1 25  1  0
  2 26  1  0
  2 27  1  0
  4 28  1  0
 11 29  1  0
 11 30  1  0
 12 31  1  0
 12 32  1  0
 15 33  1  0
 16 34  1  0
 17 35  1  0
 18 36  1  0
 19 37  1  0
 20 38  1  0
 20 39  1  0
 21 40  1  0
 21 41  1  0
 22 42  1  0
M  CHG  1  22   1
M  END
>  <UniqueID>  (46) 
44

>  <SMILES>  (46) 
CCn1cc(Cl)c(C(=O)N2CCN(c3ccccc3)CC2)[nH+]1

>  <Energy>  (46) 
78.4346947146279

>  <Genealogy>  (46) 
CCn1cc(Cl)c(C(=O)N2CCN(c3ccccc3)CC2)[nH+]1 (protonated)
CCn1cc(Cl)c(C(=O)N2CCN(c3ccccc3)CC2)[nH+]1 (3D coordinates assigned)
CCn1cc(Cl)c(C(=O)N2CCN(c3ccccc3)CC2)[nH+]1 (nonaromatic ring conformer: 78.4346947146279 kcal/mol)

>  <smiles>  (46) 
CCn1cc(Cl)c(C(=O)N2CCN(c3ccccc3)CC2)n1

>  <score_type>  (46) 
oracle

>  <origin>  (46) 
adg

>  <m_score__min__energy>  (46) 
-7.1600000000000001

>  <m_primary>  (46) 
energy

$$$$
46:0
     RDKit          3D

 41 42  0  0  0  0  0  0  0  0999 V2000
   -1.3970   21.5860  -31.4740 C   0  0  0  0  0  0  0  0  0  0  0  0
   -2.5440   20.9480  -32.2010 C   0  0  0  0  0  0  0  0  0  0  0  0
   -3.7360   21.6610  -32.4070 C   0  0  0  0  0  0  0  0  0  0  0  0
   -4.8170   21.0540  -33.0510 C   0  0  0  0  0  0  0  0  0  0  0  0
   -4.7230   19.7250  -33.4800 C   0  0  0  0  0  0  0  0  0  0  0  0
   -6.1160   18.9400  -34.2960 S   0  0  0  0  0  0  0  0  0  0  0  0
   -6.6530   17.9810  -32.8310 C   0  0  0  0  0  0  0  0  0  0  0  0
   -7.8480   18.6490  -32.1410 C   0  0  0  0  0  0  0  0  0  0  0  0
   -8.6250   19.4810  -33.0790 N   0  0  0  0  0  0  0  0  0  0  0  0
   -9.3330   20.5810  -32.3880 C   0  0  0  0  0  0  0  0  0  0  0  0
   -8.7180   20.9170  -31.0170 C   0  0  0  0  0  0  0  0  0  0  0  0
   -7.8190   22.1240  -31.0740 C   0  0  0  0  0  0  0  0  0  0  0  0
   -7.2690   22.6520  -29.8950 C   0  0  0  0  0  0  0  0  0  0  0  0
   -6.4010   23.7470  -29.9500 C   0  0  0  0  0  0  0  0  0  0  0  0
   -6.0720   24.3180  -31.1820 C   0  0  0  0  0  0  0  0  0  0  0  0
   -6.6110   23.7960  -32.3610 C   0  0  0  0  0  0  0  0  0  0  0  0
   -7.4810   22.7020  -32.3110 C   0  0  0  0  0  0  0  0  0  0  0  0
   -3.5410   19.0060  -33.2670 C   0  0  0  0  0  0  0  0  0  0  0  0
   -2.4580   19.6120  -32.6230 C   0  0  0  0  0  0  0  0  0  0  0  0
   -1.5558   21.4976  -30.3891 H   0  0  0  0  0  0  0  0  0  0  0  0
   -0.4605   21.0792  -31.7499 H   0  0  0  0  0  0  0  0  0  0  0  0
   -1.3337   22.6489  -31.7499 H   0  0  0  0  0  0  0  0  0  0  0  0
   -3.8190   22.7015  -32.0600 H   0  0  0  0  0  0  0  0  0  0  0  0
   -5.7438   21.6216  -33.2212 H   0  0  0  0  0  0  0  0  0  0  0  0
   -6.9425   16.9690  -33.1506 H   0  0  0  0  0  0  0  0  0  0  0  0
   -5.8174   17.9371  -32.1170 H   0  0  0  0  0  0  0  0  0  0  0  0
   -8.5043   17.8679  -31.7297 H   0  0  0  0  0  0  0  0  0  0  0  0
   -7.4626   19.3008  -31.3431 H   0  0  0  0  0  0  0  0  0  0  0  0
   -8.0050   19.8560  -33.8340 H   0  0  0  0  0  0  0  0  0  0  0  0
   -9.3420   18.8700  -33.5390 H   0  0  0  0  0  0  0  0  0  0  0  0
   -9.2910   21.4791  -33.0218 H   0  0  0  0  0  0  0  0  0  0  0  0
  -10.3683   20.2520  -32.2153 H   0  0  0  0  0  0  0  0  0  0  0  0
   -9.5314   21.1152  -30.3035 H   0  0  0  0  0  0  0  0  0  0  0  0
   -8.1078   20.0576  -30.7022 H   0  0  0  0  0  0  0  0  0  0  0  0
   -7.5221   22.2022  -28.9236 H   0  0  0  0  0  0  0  0  0  0  0  0
   -5.9769   24.1592  -29.0225 H   0  0  0  0  0  0  0  0  0  0  0  0
   -5.3884   25.1788  -31.2240 H   0  0  0  0  0  0  0  0  0  0  0  0
   -6.3505   24.2464  -33.3302 H   0  0  0  0  0  0  0  0  0  0  0  0
   -7.9019   22.2927  -33.2412 H   0  0  0  0  0  0  0  0  0  0  0  0
   -3.4641   17.9626  -33.6068 H   0  0  0  0  0  0  0  0  0  0  0  0
   -1.5353   19.0398  -32.4464 H   0  0  0  0  0  0  0  0  0  0  0  0
  1  2  1  0
  2  3  2  0
  3  4  1  0
  4  5  2  0
  5  6  1  0
  6  7  1  0
  7  8  1  0
  8  9  1  0
  9 10  1  0
 10 11  1  0
 11 12  1  0
 12 13  2  0
 13 14  1  0
 14 15  2  0
 15 16  1  0
 16 17  2  0
  5 18  1  0
 18 19  2  0
 19  2  1  0
 17 12  1  0
  1 20  1  0
  1 21  1  0
  1 22  1  0
  3 23  1  0
  4 24  1  0
  7 25  1  0
  7 26  1  0
  8 27  1  0
  8 28  1  0
  9 29  1  0
  9 30  1  0
 10 31  1  0
 10 32  1  0
 11 33  1  0
 11 34  1  0
 13 35  1  0
 14 36  1  0
 15 37  1  0
 16 38  1  0
 17 39  1  0
 18 40  1  0
 19 41  1  0
M  CHG  1   9   1
M  END
>  <UniqueID>  (47) 
45

>  <SMILES>  (47) 
Cc1ccc(SCC[NH2+]CCc2ccccc2)cc1

>  <Energy>  (47) 
34.53373093986766

>  <Genealogy>  (47) 
Cc1ccc(SCC[NH2+]CCc2ccccc2)cc1 (protonated)
Cc1ccc(SCC[NH2+]CCc2ccccc2)cc1 (3D coordinates assigned)
Cc1ccc(SCC[NH2+]CCc2ccccc2)cc1 (optimized conformer: 34.53373093986766 kcal/mol)

>  <smiles>  (47) 
Cc1ccc(SCCNCCc2ccccc2)cc1

>  <score_type>  (47) 
oracle

>  <origin>  (47) 
adg

>  <m_score__min__energy>  (47) 
-7.1100000000000003

>  <m_primary>  (47) 
energy

$$$$
47:0
     RDKit          3D

 48 49  0  0  0  0  0  0  0  0999 V2000
   -5.4030   16.3200  -31.9890 C   0  0  0  0  0  0  0  0  0  0  0  0
   -6.1390   17.3950  -31.1930 C   0  0  0  0  0  0  0  0  0  0  0  0
   -7.4570   17.7920  -31.8760 C   0  0  0  0  0  0  0  0  0  0  0  0
   -7.5720   19.2560  -32.0850 N   0  0  0  0  0  0  0  0  0  0  0  0
   -8.8690   19.8600  -31.6880 C   0  0  0  0  0  0  0  0  0  0  0  0
   -8.7290   21.2130  -30.9690 C   0  0  0  0  0  0  0  0  0  0  0  0
   -9.1280   22.3630  -31.8900 C   0  0  0  0  0  0  0  0  0  0  0  0
   -7.0360   19.7860  -33.3760 C   0  0  2  0  0  0  0  0  0  0  0  0
   -6.1270   18.8130  -34.1680 C   0  0  0  0  0  0  0  0  0  0  0  0
   -4.8060   18.7540  -33.6340 O   0  0  0  0  0  0  0  0  0  0  0  0
   -4.1600   19.8670  -33.0910 C   0  0  0  0  0  0  0  0  0  0  0  0
   -2.7980   19.7810  -32.7900 C   0  0  0  0  0  0  0  0  0  0  0  0
   -2.1360   20.8680  -32.2210 C   0  0  0  0  0  0  0  0  0  0  0  0
   -2.8310   22.0480  -31.9480 C   0  0  0  0  0  0  0  0  0  0  0  0
   -4.2040   22.1520  -32.2430 C   0  0  0  0  0  0  0  0  0  0  0  0
   -4.9320   23.3320  -31.9990 O   0  0  0  0  0  0  0  0  0  0  0  0
   -5.7460   23.5810  -30.8530 C   0  0  0  0  0  0  0  0  0  0  0  0
   -5.1480   24.6600  -30.0040 C   0  0  0  0  0  0  0  0  0  0  0  0
   -3.9180   25.2770  -30.3800 N   0  0  0  0  0  0  0  0  0  0  0  0
   -5.7460   25.0410  -28.9620 O   0  0  0  0  0  0  0  0  0  0  0  0
   -4.8760   21.0440  -32.8000 C   0  0  0  0  0  0  0  0  0  0  0  0
   -6.3400   21.1470  -33.1630 C   0  0  0  0  0  0  0  0  0  0  0  0
   -4.9208   15.6157  -31.2952 H   0  0  0  0  0  0  0  0  0  0  0  0
   -6.1201   15.7775  -32.6227 H   0  0  0  0  0  0  0  0  0  0  0  0
   -4.6379   16.7923  -32.6227 H   0  0  0  0  0  0  0  0  0  0  0  0
   -6.3591   17.0082  -30.1871 H   0  0  0  0  0  0  0  0  0  0  0  0
   -5.4959   18.2856  -31.1356 H   0  0  0  0  0  0  0  0  0  0  0  0
   -7.5121   17.2910  -32.8537 H   0  0  0  0  0  0  0  0  0  0  0  0
   -8.2809   17.4837  -31.2155 H   0  0  0  0  0  0  0  0  0  0  0  0
   -9.4739   20.0098  -32.5945 H   0  0  0  0  0  0  0  0  0  0  0  0
   -9.3414   19.1664  -30.9769 H   0  0  0  0  0  0  0  0  0  0  0  0
   -9.3803   21.2189  -30.0826 H   0  0  0  0  0  0  0  0  0  0  0  0
   -7.6778   21.3473  -30.6742 H   0  0  0  0  0  0  0  0  0  0  0  0
   -9.4290   23.2304  -31.2842 H   0  0  0  0  0  0  0  0  0  0  0  0
   -8.2728   22.6381  -32.5248 H   0  0  0  0  0  0  0  0  0  0  0  0
   -9.9698   22.0493  -32.5248 H   0  0  0  0  0  0  0  0  0  0  0  0
   -7.9214   19.9173  -34.0153 H   0  0  0  0  0  0  0  0  0  0  0  0
   -6.5690   17.8064  -34.1315 H   0  0  0  0  0  0  0  0  0  0  0  0
   -6.0570   19.1825  -35.2017 H   0  0  0  0  0  0  0  0  0  0  0  0
   -2.2468   18.8531  -33.0026 H   0  0  0  0  0  0  0  0  0  0  0  0
   -1.0637   20.7960  -31.9866 H   0  0  0  0  0  0  0  0  0  0  0  0
   -2.3024   22.9021  -31.4995 H   0  0  0  0  0  0  0  0  0  0  0  0
   -6.7477   23.8942  -31.1826 H   0  0  0  0  0  0  0  0  0  0  0  0
   -5.8115   22.6580  -30.2581 H   0  0  0  0  0  0  0  0  0  0  0  0
   -3.5040   26.0320  -29.7900 H   0  0  0  0  0  0  0  0  0  0  0  0
   -3.4190   24.9810  -31.2490 H   0  0  0  0  0  0  0  0  0  0  0  0
   -6.8602   21.6773  -32.3517 H   0  0  0  0  0  0  0  0  0  0  0  0
   -6.3909   21.6818  -34.1229 H   0  0  0  0  0  0  0  0  0  0  0  0
  1  2  1  0
  2  3  1  0
  3  4  1  0
  4  5  1  0
  5  6  1  0
  6  7  1  0
  4  8  1  0
  8  9  1  0
  9 10  1  0
 10 11  1  0
 11 12  2  0
 12 13  1  0
 13 14  2  0
 14 15  1  0
 15 16  1  0
 16 17  1  0
 17 18  1  0
 18 19  1  0
 18 20  2  0
 15 21  2  0
 21 22  1  0
 22  8  1  0
 21 11  1  0
  1 23  1  0
  1 24  1  0
  1 25  1  0
  2 26  1  0
  2 27  1  0
  3 28  1  0
  3 29  1  0
  5 30  1  0
  5 31  1  0
  6 32  1  0
  6 33  1  0
  7 34  1  0
  7 35  1  0
  7 36  1  0
  8 37  1  6
  9 38  1  0
  9 39  1  0
 12 40  1  0
 13 41  1  0
 14 42  1  0
 17 43  1  0
 17 44  1  0
 19 45  1  0
 19 46  1  0
 22 47  1  0
 22 48  1  0
M  END
>  <UniqueID>  (48) 
46

>  <SMILES>  (48) 
CCCN(CCC)[C@@H]1COc2cccc(OCC(N)=O)c2C1

>  <Energy>  (48) 
51.087658385195105

>  <Genealogy>  (48) 
CCCN(CCC)[C@@H]1COc2cccc(OCC(N)=O)c2C1 (chirality)
CCCN(CCC)[C@@H]1COc2cccc(OCC(N)=O)c2C1 (3D coordinates assigned)
CCCN(CCC)[C@@H]1COc2cccc(OCC(N)=O)c2C1 (nonaromatic ring conformer: 51.087658385195105 kcal/mol)

>  <smiles>  (48) 
CCCN(CCC)C1COc2cccc(OCC(N)=O)c2C1

>  <score_type>  (48) 
oracle

>  <origin>  (48) 
adg

>  <m_score__min__energy>  (48) 
-8.2100000000000009

>  <m_primary>  (48) 
energy

$$$$
