0:0
     RDKit          3D

 47 49  0  0  0  0  0  0  0  0999 V2000
   -3.4860   22.0710  -29.6170 C   0  0  0  0  0  0  0  0  0  0  0  0
   -3.2970   23.5510  -29.5280 C   0  0  0  0  0  0  0  0  0  0  0  0
   -3.4480   24.0700  -30.8200 O   0  0  0  0  0  0  0  0  0  0  0  0
   -4.1490   25.1940  -30.8100 N   0  0  0  0  0  0  0  0  0  0  0  0
   -5.2930   25.2150  -29.9300 C   0  0  0  0  0  0  0  0  0  0  0  0
   -6.5750   24.7730  -30.5470 C   0  0  0  0  0  0  0  0  0  0  0  0
   -6.4940   24.0860  -31.8650 C   0  0  0  0  0  0  0  0  0  0  0  0
   -5.5420   23.0440  -32.0370 N   0  0  0  0  0  0  0  0  0  0  0  0
   -5.8080   21.7170  -32.4230 C   0  0  0  0  0  0  0  0  0  0  0  0
   -4.7030   20.9960  -32.9140 C   0  0  0  0  0  0  0  0  0  0  0  0
   -3.4640   21.6320  -32.9900 C   0  0  0  0  0  0  0  0  0  0  0  0
   -2.3370   20.9990  -33.4660 C   0  0  0  0  0  0  0  0  0  0  0  0
   -2.4610   19.7020  -33.8710 C   0  0  0  0  0  0  0  0  0  0  0  0
   -3.6910   19.0640  -33.7970 C   0  0  0  0  0  0  0  0  0  0  0  0
   -4.8290   19.6830  -33.3230 C   0  0  0  0  0  0  0  0  0  0  0  0
   -6.0260   19.0250  -33.2690 N   0  0  0  0  0  0  0  0  0  0  0  0
   -6.1370   17.6490  -33.6810 C   0  0  0  0  0  0  0  0  0  0  0  0
   -7.1050   19.7100  -32.7970 C   0  0  0  0  0  0  0  0  0  0  0  0
   -8.3490   19.1190  -32.7160 C   0  0  0  0  0  0  0  0  0  0  0  0
   -9.4710   19.7970  -32.2370 C   0  0  0  0  0  0  0  0  0  0  0  0
   -9.3440   21.1030  -31.8280 C   0  0  0  0  0  0  0  0  0  0  0  0
   -8.1020   21.6760  -31.9160 C   0  0  0  0  0  0  0  0  0  0  0  0
   -6.9840   21.0410  -32.3800 C   0  0  0  0  0  0  0  0  0  0  0  0
   -3.5402   21.6467  -28.6036 H   0  0  0  0  0  0  0  0  0  0  0  0
   -4.4194   21.8523  -30.1565 H   0  0  0  0  0  0  0  0  0  0  0  0
   -2.6375   21.6248  -30.1565 H   0  0  0  0  0  0  0  0  0  0  0  0
   -4.0517   23.9869  -28.8569 H   0  0  0  0  0  0  0  0  0  0  0  0
   -2.3020   23.7924  -29.1259 H   0  0  0  0  0  0  0  0  0  0  0  0
   -4.2820   25.6770  -31.7060 H   0  0  0  0  0  0  0  0  0  0  0  0
   -5.0792   24.5531  -29.0778 H   0  0  0  0  0  0  0  0  0  0  0  0
   -5.4386   26.2669  -29.6430 H   0  0  0  0  0  0  0  0  0  0  0  0
   -7.0602   24.0814  -29.8425 H   0  0  0  0  0  0  0  0  0  0  0  0
   -7.1297   25.7020  -30.7450 H   0  0  0  0  0  0  0  0  0  0  0  0
   -7.4856   23.6544  -32.0660 H   0  0  0  0  0  0  0  0  0  0  0  0
   -6.1546   24.8729  -32.5546 H   0  0  0  0  0  0  0  0  0  0  0  0
   -4.5220   23.2830  -31.8560 H   0  0  0  0  0  0  0  0  0  0  0  0
   -3.3839   22.6775  -32.6576 H   0  0  0  0  0  0  0  0  0  0  0  0
   -1.3703   21.5212  -33.5178 H   0  0  0  0  0  0  0  0  0  0  0  0
   -1.5843   19.1611  -34.2569 H   0  0  0  0  0  0  0  0  0  0  0  0
   -3.7617   18.0184  -34.1311 H   0  0  0  0  0  0  0  0  0  0  0  0
   -6.1891   17.0032  -32.7921 H   0  0  0  0  0  0  0  0  0  0  0  0
   -7.0486   17.5188  -34.2827 H   0  0  0  0  0  0  0  0  0  0  0  0
   -5.2581   17.3744  -34.2827 H   0  0  0  0  0  0  0  0  0  0  0  0
   -8.4608   18.0741  -33.0412 H   0  0  0  0  0  0  0  0  0  0  0  0
  -10.4467   19.2914  -32.1873 H   0  0  0  0  0  0  0  0  0  0  0  0
  -10.2068   21.6673  -31.4444 H   0  0  0  0  0  0  0  0  0  0  0  0
   -7.9975   22.7214  -31.5900 H   0  0  0  0  0  0  0  0  0  0  0  0
  1  2  1  0
  2  3  1  0
  3  4  1  0
  4  5  1  0
  5  6  1  0
  6  7  1  0
  7  8  1  0
  8  9  1  0
  9 10  2  0
 10 11  1  0
 11 12  2  0
 12 13  1  0
 13 14  2  0
 14 15  1  0
 15 16  2  0
 16 17  1  0
 16 18  1  0
 18 19  2  0
 19 20  1  0
 20 21  2  0
 21 22  1  0
 22 23  2  0
 23  9  1  0
 15 10  1  0
 23 18  1  0
  1 24  1  0
  1 25  1  0
  1 26  1  0
  2 27  1  0
  2 28  1  0
  4 29  1  0
  5 30  1  0
  5 31  1  0
  6 32  1  0
  6 33  1  0
  7 34  1  0
  7 35  1  0
  8 36  1  0
 11 37  1  0
 12 38  1  0
 13 39  1  0
 14 40  1  0
 17 41  1  0
 17 42  1  0
 17 43  1  0
 19 44  1  0
 20 45  1  0
 21 46  1  0
 22 47  1  0
M  CHG  1  16   1
M  END
>  <smiles>  (1) 
CCONCCCNc1c2ccccc2[n+](C)c2ccccc12

>  <score_type>  (1) 
oracle

>  <origin>  (1) 
adg

>  <m_score__min__energy>  (1) 
-9.1799999999999997

>  <m_primary>  (1) 
energy

$$$$
1:0
     RDKit          3D

 59 61  0  0  0  0  0  0  0  0999 V2000
   -3.8660   22.5570  -27.7800 C   0  0  0  0  0  0  0  0  0  0  0  0
   -4.0440   24.0810  -27.9980 C   0  0  0  0  0  0  0  0  0  0  0  0
   -3.1710   24.4900  -29.1340 C   0  0  0  0  0  0  0  0  0  0  0  0
   -3.7380   25.0540  -30.2700 N   0  0  0  0  0  0  0  0  0  0  0  0
   -5.0830   25.0370  -30.6010 C   0  0  0  0  0  0  0  0  0  0  0  0
   -5.6850   23.8800  -31.3150 C   0  0  0  0  0  0  0  0  0  0  0  0
   -4.8470   22.6320  -30.9240 C   0  0  0  0  0  0  0  0  0  0  0  0
   -3.8920   22.3680  -32.0460 C   0  0  0  0  0  0  0  0  0  0  0  0
   -4.4940   21.7510  -33.2100 N   0  0  0  0  0  0  0  0  0  0  0  0
   -4.9930   20.4280  -33.1480 C   0  0  0  0  0  0  0  0  0  0  0  0
   -6.2960   20.1150  -32.9080 C   0  0  0  0  0  0  0  0  0  0  0  0
   -6.7590   18.7880  -32.8650 C   0  0  0  0  0  0  0  0  0  0  0  0
   -5.9040   17.7690  -33.0620 N   0  0  0  0  0  0  0  0  0  0  0  0
   -6.3600   16.4160  -33.0090 C   0  0  0  0  0  0  0  0  0  0  0  0
   -6.8390   15.8650  -34.3210 C   0  0  0  0  0  0  0  0  0  0  0  0
   -4.5910   18.0390  -33.3050 C   0  0  0  0  0  0  0  0  0  0  0  0
   -3.6590   17.0580  -33.5230 C   0  0  0  0  0  0  0  0  0  0  0  0
   -2.3180   17.3440  -33.7760 C   0  0  0  0  0  0  0  0  0  0  0  0
   -1.8800   18.6480  -33.8160 C   0  0  0  0  0  0  0  0  0  0  0  0
   -2.8090   19.6390  -33.5990 C   0  0  0  0  0  0  0  0  0  0  0  0
   -4.1220   19.3530  -33.3500 C   0  0  0  0  0  0  0  0  0  0  0  0
   -8.2040   18.6320  -32.6080 C   0  0  0  0  0  0  0  0  0  0  0  0
   -8.4790   19.3660  -31.3160 C   0  0  0  0  0  0  0  0  0  0  0  0
   -8.1950   20.8260  -31.4810 C   0  0  0  0  0  0  0  0  0  0  0  0
   -7.3190   21.1630  -32.6630 C   0  0  0  0  0  0  0  0  0  0  0  0
   -3.8408   22.3413  -26.7016 H   0  0  0  0  0  0  0  0  0  0  0  0
   -4.7075   22.0198  -28.2418 H   0  0  0  0  0  0  0  0  0  0  0  0
   -2.9233   22.2282  -28.2418 H   0  0  0  0  0  0  0  0  0  0  0  0
   -5.0946   24.3036  -28.2360 H   0  0  0  0  0  0  0  0  0  0  0  0
   -3.7675   24.6317  -27.0868 H   0  0  0  0  0  0  0  0  0  0  0  0
   -2.4544   25.2242  -28.7372 H   0  0  0  0  0  0  0  0  0  0  0  0
   -2.7620   23.5362  -29.4987 H   0  0  0  0  0  0  0  0  0  0  0  0
   -3.1180   25.6770  -30.8380 H   0  0  0  0  0  0  0  0  0  0  0  0
   -5.6379   25.1443  -29.6573 H   0  0  0  0  0  0  0  0  0  0  0  0
   -5.1574   25.8436  -31.3452 H   0  0  0  0  0  0  0  0  0  0  0  0
   -6.7321   23.7462  -31.0056 H   0  0  0  0  0  0  0  0  0  0  0  0
   -5.6769   24.0379  -32.4036 H   0  0  0  0  0  0  0  0  0  0  0  0
   -4.2915   22.8275  -29.9949 H   0  0  0  0  0  0  0  0  0  0  0  0
   -5.4990   21.7624  -30.7547 H   0  0  0  0  0  0  0  0  0  0  0  0
   -3.4498   23.3268  -32.3545 H   0  0  0  0  0  0  0  0  0  0  0  0
   -3.1461   21.6560  -31.6631 H   0  0  0  0  0  0  0  0  0  0  0  0
   -4.5870   22.2440  -34.1380 H   0  0  0  0  0  0  0  0  0  0  0  0
   -5.5290   15.7876  -32.6561 H   0  0  0  0  0  0  0  0  0  0  0  0
   -7.2269   16.4060  -32.3320 H   0  0  0  0  0  0  0  0  0  0  0  0
   -7.5505   15.0465  -34.1371 H   0  0  0  0  0  0  0  0  0  0  0  0
   -7.3365   16.6617  -34.8935 H   0  0  0  0  0  0  0  0  0  0  0  0
   -5.9809   15.4832  -34.8935 H   0  0  0  0  0  0  0  0  0  0  0  0
   -3.9808   16.0064  -33.4974 H   0  0  0  0  0  0  0  0  0  0  0  0
   -1.6061   16.5226  -33.9446 H   0  0  0  0  0  0  0  0  0  0  0  0
   -0.8252   18.8891  -34.0143 H   0  0  0  0  0  0  0  0  0  0  0  0
   -2.4863   20.6902  -33.6266 H   0  0  0  0  0  0  0  0  0  0  0  0
   -8.7880   19.0724  -33.4295 H   0  0  0  0  0  0  0  0  0  0  0  0
   -8.4885   17.5718  -32.5374 H   0  0  0  0  0  0  0  0  0  0  0  0
   -9.5347   19.2302  -31.0385 H   0  0  0  0  0  0  0  0  0  0  0  0
   -7.8284   18.9605  -30.5271 H   0  0  0  0  0  0  0  0  0  0  0  0
   -9.1539   21.3510  -31.6031 H   0  0  0  0  0  0  0  0  0  0  0  0
   -7.6437   21.1412  -30.5828 H   0  0  0  0  0  0  0  0  0  0  0  0
   -7.9508   21.2600  -33.5582 H   0  0  0  0  0  0  0  0  0  0  0  0
   -6.7967   22.1059  -32.4436 H   0  0  0  0  0  0  0  0  0  0  0  0
  1  2  1  0
  2  3  1  0
  3  4  1  0
  4  5  1  0
  5  6  1  0
  6  7  1  0
  7  8  1  0
  8  9  1  0
  9 10  1  0
 10 11  2  0
 11 12  1  0
 12 13  2  0
 13 14  1  0
 14 15  1  0
 13 16  1  0
 16 17  2  0
 17 18  1  0
 18 19  2  0
 19 20  1  0
 20 21  2  0
 12 22  1  0
 22 23  1  0
 23 24  1  0
 24 25  1  0
 21 10  1  0
 25 11  1  0
 21 16  1  0
  1 26  1  0
  1 27  1  0
  1 28  1  0
  2 29  1  0
  2 30  1  0
  3 31  1  0
  3 32  1  0
  4 33  1  0
  5 34  1  0
  5 35  1  0
  6 36  1  0
  6 37  1  0
  7 38  1  0
  7 39  1  0
  8 40  1  0
  8 41  1  0
  9 42  1  0
 14 43  1  0
 14 44  1  0
 15 45  1  0
 15 46  1  0
 15 47  1  0
 17 48  1  0
 18 49  1  0
 19 50  1  0
 20 51  1  0
 22 52  1  0
 22 53  1  0
 23 54  1  0
 23 55  1  0
 24 56  1  0
 24 57  1  0
 25 58  1  0
 25 59  1  0
M  CHG  1  13   1
M  END
>  <smiles>  (2) 
CCCNCCCCNc1c2c([n+](CC)c3ccccc13)CCCC2

>  <score_type>  (2) 
oracle

>  <origin>  (2) 
adg

>  <m_score__min__energy>  (2) 
-9.3200000000000003

>  <m_primary>  (2) 
energy

$$$$
2:0
     RDKit          3D

 57 59  0  0  0  0  0  0  0  0999 V2000
   -0.3010   25.2830  -27.5680 C   0  0  0  0  0  0  0  0  0  0  0  0
   -1.0310   24.7120  -28.7540 C   0  0  0  0  0  0  0  0  0  0  0  0
   -2.4470   24.9380  -28.6860 N   0  0  0  0  0  0  0  0  0  0  0  0
   -3.0240   24.5230  -27.4060 C   0  0  0  0  0  0  0  0  0  0  0  0
   -3.8770   23.3110  -27.5380 C   0  0  0  0  0  0  0  0  0  0  0  0
   -3.1210   24.1980  -29.7640 C   0  0  0  0  0  0  0  0  0  0  0  0
   -4.1610   24.9810  -30.3640 N   0  0  0  0  0  0  0  0  0  0  0  0
   -5.1340   24.1980  -31.1090 C   0  0  0  0  0  0  0  0  0  0  0  0
   -4.9120   22.7370  -30.8690 C   0  0  0  0  0  0  0  0  0  0  0  0
   -3.9820   22.1000  -31.8540 C   0  0  0  0  0  0  0  0  0  0  0  0
   -4.6010   21.5650  -33.0210 N   0  0  0  0  0  0  0  0  0  0  0  0
   -4.9530   20.2180  -33.1570 C   0  0  0  0  0  0  0  0  0  0  0  0
   -4.1290   19.2060  -33.5830 C   0  0  0  0  0  0  0  0  0  0  0  0
   -2.8050   19.5360  -33.8880 C   0  0  0  0  0  0  0  0  0  0  0  0
   -1.9310   18.5580  -34.3110 C   0  0  0  0  0  0  0  0  0  0  0  0
   -2.3770   17.2610  -34.4300 C   0  0  0  0  0  0  0  0  0  0  0  0
   -3.6990   16.9610  -34.1200 C   0  0  0  0  0  0  0  0  0  0  0  0
   -4.6000   17.9090  -33.6940 C   0  0  0  0  0  0  0  0  0  0  0  0
   -5.8800   17.5730  -33.3940 N   0  0  0  0  0  0  0  0  0  0  0  0
   -6.4030   16.2500  -33.5030 C   0  0  0  0  0  0  0  0  0  0  0  0
   -6.7180   18.5560  -32.9680 C   0  0  0  0  0  0  0  0  0  0  0  0
   -8.0350   18.3180  -32.6390 C   0  0  0  0  0  0  0  0  0  0  0  0
   -8.8990   19.3110  -32.2060 C   0  0  0  0  0  0  0  0  0  0  0  0
   -8.4610   20.6080  -32.0840 C   0  0  0  0  0  0  0  0  0  0  0  0
   -9.4840   21.9190  -31.5460 Cl  0  0  0  0  0  0  0  0  0  0  0  0
   -7.1330   20.8700  -32.4130 C   0  0  0  0  0  0  0  0  0  0  0  0
   -6.2740   19.8780  -32.8450 C   0  0  0  0  0  0  0  0  0  0  0  0
   -0.7668   24.9186  -26.6405 H   0  0  0  0  0  0  0  0  0  0  0  0
    0.7520   24.9664  -27.5984 H   0  0  0  0  0  0  0  0  0  0  0  0
   -0.3547   26.3813  -27.5984 H   0  0  0  0  0  0  0  0  0  0  0  0
   -0.6417   25.1830  -29.6687 H   0  0  0  0  0  0  0  0  0  0  0  0
   -0.8648   23.6246  -28.7583 H   0  0  0  0  0  0  0  0  0  0  0  0
   -2.2062   24.3053  -26.7033 H   0  0  0  0  0  0  0  0  0  0  0  0
   -3.6592   25.3436  -27.0411 H   0  0  0  0  0  0  0  0  0  0  0  0
   -4.1402   22.9371  -26.5375 H   0  0  0  0  0  0  0  0  0  0  0  0
   -4.7952   23.5669  -28.0870 H   0  0  0  0  0  0  0  0  0  0  0  0
   -3.3262   22.5330  -28.0870 H   0  0  0  0  0  0  0  0  0  0  0  0
   -2.3813   23.9348  -30.5344 H   0  0  0  0  0  0  0  0  0  0  0  0
   -3.5736   23.2930  -29.3326 H   0  0  0  0  0  0  0  0  0  0  0  0
   -4.5770   25.6790  -29.7360 H   0  0  0  0  0  0  0  0  0  0  0  0
   -6.1480   24.4705  -30.7810 H   0  0  0  0  0  0  0  0  0  0  0  0
   -5.0185   24.4078  -32.1826 H   0  0  0  0  0  0  0  0  0  0  0  0
   -4.4899   22.6108  -29.8611 H   0  0  0  0  0  0  0  0  0  0  0  0
   -5.8875   22.2410  -30.9806 H   0  0  0  0  0  0  0  0  0  0  0  0
   -3.2540   22.8600  -32.1740 H   0  0  0  0  0  0  0  0  0  0  0  0
   -3.5275   21.2447  -31.3326 H   0  0  0  0  0  0  0  0  0  0  0  0
   -4.7970   22.2380  -33.8150 H   0  0  0  0  0  0  0  0  0  0  0  0
   -2.4610   20.5762  -33.7903 H   0  0  0  0  0  0  0  0  0  0  0  0
   -0.8878   18.8111  -34.5511 H   0  0  0  0  0  0  0  0  0  0  0  0
   -1.6931   16.4683  -34.7676 H   0  0  0  0  0  0  0  0  0  0  0  0
   -4.0392   15.9197  -34.2199 H   0  0  0  0  0  0  0  0  0  0  0  0
   -6.5665   15.8363  -32.4969 H   0  0  0  0  0  0  0  0  0  0  0  0
   -7.3581   16.2770  -34.0480 H   0  0  0  0  0  0  0  0  0  0  0  0
   -5.6876   15.6167  -34.0480 H   0  0  0  0  0  0  0  0  0  0  0  0
   -8.4186   17.2906  -32.7242 H   0  0  0  0  0  0  0  0  0  0  0  0
   -9.9410   19.0599  -31.9586 H   0  0  0  0  0  0  0  0  0  0  0  0
   -6.7562   21.8998  -32.3260 H   0  0  0  0  0  0  0  0  0  0  0  0
  1  2  1  0
  2  3  1  0
  3  4  1  0
  4  5  1  0
  3  6  1  0
  6  7  1  0
  7  8  1  0
  8  9  1  0
  9 10  1  0
 10 11  1  0
 11 12  1  0
 12 13  2  0
 13 14  1  0
 14 15  2  0
 15 16  1  0
 16 17  2  0
 17 18  1  0
 18 19  2  0
 19 20  1  0
 19 21  1  0
 21 22  2  0
 22 23  1  0
 23 24  2  0
 24 25  1  0
 24 26  1  0
 26 27  2  0
 27 12  1  0
 18 13  1  0
 27 21  1  0
  1 28  1  0
  1 29  1  0
  1 30  1  0
  2 31  1  0
  2 32  1  0
  4 33  1  0
  4 34  1  0
  5 35  1  0
  5 36  1  0
  5 37  1  0
  6 38  1  0
  6 39  1  0
  7 40  1  0
  8 41  1  0
  8 42  1  0
  9 43  1  0
  9 44  1  0
 10 45  1  0
 10 46  1  0
 11 47  1  0
 14 48  1  0
 15 49  1  0
 16 50  1  0
 17 51  1  0
 20 52  1  0
 20 53  1  0
 20 54  1  0
 22 55  1  0
 23 56  1  0
 26 57  1  0
M  CHG  1  19   1
M  END
>  <smiles>  (3) 
CCN(CC)CNCCCNc1c2ccccc2[n+](C)c2ccc(Cl)cc12

>  <score_type>  (3) 
oracle

>  <origin>  (3) 
adg

>  <m_score__min__energy>  (3) 
-9.5199999999999996

>  <m_primary>  (3) 
energy

$$$$
3:0
     RDKit          3D

 51 53  0  0  0  0  0  0  0  0999 V2000
   -6.3010   25.6420  -29.4730 C   0  0  0  0  0  0  0  0  0  0  0  0
   -5.3300   25.8450  -30.5970 C   0  0  0  0  0  0  0  0  0  0  0  0
   -4.6070   24.6350  -30.8690 N   0  0  0  0  0  0  0  0  0  0  0  0
   -4.4700   23.8060  -29.6730 C   0  0  0  0  0  0  0  0  0  0  0  0
   -3.4290   22.7140  -29.9430 C   0  0  0  0  0  0  0  0  0  0  0  0
   -3.0320   22.7440  -31.3330 N   0  0  0  0  0  0  0  0  0  0  0  0
   -2.4980   21.4550  -31.7870 C   0  0  0  0  0  0  0  0  0  0  0  0
   -2.9220   21.3060  -33.2210 C   0  0  0  0  0  0  0  0  0  0  0  0
   -4.3220   21.5750  -33.4650 N   0  0  0  0  0  0  0  0  0  0  0  0
   -5.3820   20.7130  -33.1270 C   0  0  0  0  0  0  0  0  0  0  0  0
   -6.4910   21.3160  -32.5220 C   0  0  0  0  0  0  0  0  0  0  0  0
   -6.4850   22.6920  -32.3100 C   0  0  0  0  0  0  0  0  0  0  0  0
   -7.5420   23.3570  -31.7270 C   0  0  0  0  0  0  0  0  0  0  0  0
   -8.6450   22.6140  -31.3450 C   0  0  0  0  0  0  0  0  0  0  0  0
   -8.6500   21.2540  -31.5550 C   0  0  0  0  0  0  0  0  0  0  0  0
   -7.5870   20.5730  -32.1420 C   0  0  0  0  0  0  0  0  0  0  0  0
   -7.6430   19.2220  -32.3360 N   0  0  0  0  0  0  0  0  0  0  0  0
   -8.8180   18.5600  -31.8850 C   0  0  0  0  0  0  0  0  0  0  0  0
   -6.5790   18.6460  -32.9190 C   0  0  0  0  0  0  0  0  0  0  0  0
   -6.6200   17.2850  -33.1450 C   0  0  0  0  0  0  0  0  0  0  0  0
   -5.5540   16.6420  -33.7610 C   0  0  0  0  0  0  0  0  0  0  0  0
   -4.4570   17.3830  -34.1420 C   0  0  0  0  0  0  0  0  0  0  0  0
   -3.0240   16.4460  -34.9860 Br  0  0  0  0  0  0  0  0  0  0  0  0
   -4.3900   18.7440  -33.9290 C   0  0  0  0  0  0  0  0  0  0  0  0
   -5.4540   19.3700  -33.3160 C   0  0  0  0  0  0  0  0  0  0  0  0
   -5.7774   25.7515  -28.5118 H   0  0  0  0  0  0  0  0  0  0  0  0
   -7.1028   26.3919  -29.5412 H   0  0  0  0  0  0  0  0  0  0  0  0
   -6.7353   24.6337  -29.5412 H   0  0  0  0  0  0  0  0  0  0  0  0
   -5.8811   26.1469  -31.4999 H   0  0  0  0  0  0  0  0  0  0  0  0
   -4.6130   26.6274  -30.3074 H   0  0  0  0  0  0  0  0  0  0  0  0
   -3.6420   24.9110  -31.1970 H   0  0  0  0  0  0  0  0  0  0  0  0
   -4.1415   24.4286  -28.8277 H   0  0  0  0  0  0  0  0  0  0  0  0
   -5.4379   23.3455  -29.4256 H   0  0  0  0  0  0  0  0  0  0  0  0
   -2.5472   22.8860  -29.3083 H   0  0  0  0  0  0  0  0  0  0  0  0
   -3.8674   21.7316  -29.7132 H   0  0  0  0  0  0  0  0  0  0  0  0
   -3.9070   22.8720  -31.8770 H   0  0  0  0  0  0  0  0  0  0  0  0
   -1.4006   21.4492  -31.7115 H   0  0  0  0  0  0  0  0  0  0  0  0
   -2.8745   20.6259  -31.1699 H   0  0  0  0  0  0  0  0  0  0  0  0
   -2.3273   22.0036  -33.8291 H   0  0  0  0  0  0  0  0  0  0  0  0
   -2.7555   20.2519  -33.4879 H   0  0  0  0  0  0  0  0  0  0  0  0
   -4.6020   22.4840  -33.9360 H   0  0  0  0  0  0  0  0  0  0  0  0
   -5.6024   23.2708  -32.6198 H   0  0  0  0  0  0  0  0  0  0  0  0
   -7.5098   24.4453  -31.5701 H   0  0  0  0  0  0  0  0  0  0  0  0
   -9.5105   23.1062  -30.8774 H   0  0  0  0  0  0  0  0  0  0  0  0
   -9.5346   20.6785  -31.2448 H   0  0  0  0  0  0  0  0  0  0  0  0
   -8.8344   18.5508  -30.7852 H   0  0  0  0  0  0  0  0  0  0  0  0
   -9.7051   19.0911  -32.2605 H   0  0  0  0  0  0  0  0  0  0  0  0
   -8.8234   17.5261  -32.2605 H   0  0  0  0  0  0  0  0  0  0  0  0
   -7.5025   16.7059  -32.8353 H   0  0  0  0  0  0  0  0  0  0  0  0
   -5.5853   15.5574  -33.9419 H   0  0  0  0  0  0  0  0  0  0  0  0
   -3.5055   19.3182  -34.2420 H   0  0  0  0  0  0  0  0  0  0  0  0
  1  2  1  0
  2  3  1  0
  3  4  1  0
  4  5  1  0
  5  6  1  0
  6  7  1  0
  7  8  1  0
  8  9  1  0
  9 10  1  0
 10 11  2  0
 11 12  1  0
 12 13  2  0
 13 14  1  0
 14 15  2  0
 15 16  1  0
 16 17  2  0
 17 18  1  0
 17 19  1  0
 19 20  2  0
 20 21  1  0
 21 22  2  0
 22 23  1  0
 22 24  1  0
 24 25  2  0
 25 10  1  0
 16 11  1  0
 25 19  1  0
  1 26  1  0
  1 27  1  0
  1 28  1  0
  2 29  1  0
  2 30  1  0
  3 31  1  0
  4 32  1  0
  4 33  1  0
  5 34  1  0
  5 35  1  0
  6 36  1  0
  7 37  1  0
  7 38  1  0
  8 39  1  0
  8 40  1  0
  9 41  1  0
 12 42  1  0
 13 43  1  0
 14 44  1  0
 15 45  1  0
 18 46  1  0
 18 47  1  0
 18 48  1  0
 20 49  1  0
 21 50  1  0
 24 51  1  0
M  CHG  1  17   1
M  END
>  <smiles>  (4) 
CCNCCNCCNc1c2ccccc2[n+](C)c2ccc(Br)cc12

>  <score_type>  (4) 
oracle

>  <origin>  (4) 
adg

>  <m_score__min__energy>  (4) 
-9.7400000000000002

>  <m_primary>  (4) 
energy

$$$$
4:0
     RDKit          3D

 51 53  0  0  0  0  0  0  0  0999 V2000
   -0.2320   23.7960  -28.8020 C   0  0  0  0  0  0  0  0  0  0  0  0
   -1.3300   23.3860  -29.6410 N   0  0  0  0  0  0  0  0  0  0  0  0
   -2.4650   24.1030  -29.6660 C   0  0  0  0  0  0  0  0  0  0  0  0
   -2.6430   25.1510  -28.9830 O   0  0  0  0  0  0  0  0  0  0  0  0
   -3.5270   23.6970  -30.4840 C   0  0  0  0  0  0  0  0  0  0  0  0
   -3.3770   22.5420  -31.2620 C   0  0  0  0  0  0  0  0  0  0  0  0
   -4.5340   22.4020  -31.9280 N   0  0  0  0  0  0  0  0  0  0  0  0
   -5.3840   23.4030  -31.6060 C   0  0  0  0  0  0  0  0  0  0  0  0
   -7.0520   23.5970  -32.2840 S   0  0  0  0  0  0  0  0  0  0  0  0
   -8.1460   22.6810  -31.1690 C   0  0  0  0  0  0  0  0  0  0  0  0
   -8.7750   21.5040  -31.7740 C   0  0  0  0  0  0  0  0  0  0  0  0
   -9.8950   21.6440  -32.3610 O   0  0  0  0  0  0  0  0  0  0  0  0
   -8.2290   20.1970  -31.7600 N   0  0  0  0  0  0  0  0  0  0  0  0
   -8.9450   19.0980  -32.3900 C   0  0  0  0  0  0  0  0  0  0  0  0
   -8.3190   17.8190  -31.9580 C   0  0  0  0  0  0  0  0  0  0  0  0
   -6.9430   17.6820  -32.2570 N   0  0  0  0  0  0  0  0  0  0  0  0
   -6.0030   18.1950  -31.3270 C   0  0  0  0  0  0  0  0  0  0  0  0
   -5.1190   19.2790  -31.9630 C   0  0  0  0  0  0  0  0  0  0  0  0
   -5.8520   20.0330  -32.8800 O   0  0  0  0  0  0  0  0  0  0  0  0
   -6.1380   19.2450  -33.9980 C   0  0  0  0  0  0  0  0  0  0  0  0
   -6.5970   17.8630  -33.6330 C   0  0  0  0  0  0  0  0  0  0  0  0
   -4.7680   24.2110  -30.7120 N   0  0  0  0  0  0  0  0  0  0  0  0
   -5.3420   25.4030  -30.1140 C   0  0  0  0  0  0  0  0  0  0  0  0
   -2.2200   21.8560  -31.2010 N   0  0  0  0  0  0  0  0  0  0  0  0
   -2.0440   20.6510  -32.0010 C   0  0  0  0  0  0  0  0  0  0  0  0
   -1.2080   22.2810  -30.3960 C   0  0  0  0  0  0  0  0  0  0  0  0
   -0.1240   21.6470  -30.3340 O   0  0  0  0  0  0  0  0  0  0  0  0
   -0.5182   23.6891  -27.7453 H   0  0  0  0  0  0  0  0  0  0  0  0
    0.6443   23.1645  -29.0102 H   0  0  0  0  0  0  0  0  0  0  0  0
    0.0159   24.8473  -29.0102 H   0  0  0  0  0  0  0  0  0  0  0  0
   -7.5552   22.3488  -30.3027 H   0  0  0  0  0  0  0  0  0  0  0  0
   -8.9606   23.3668  -30.8932 H   0  0  0  0  0  0  0  0  0  0  0  0
   -7.2970   20.0650  -31.2800 H   0  0  0  0  0  0  0  0  0  0  0  0
  -10.0007   19.1174  -32.0816 H   0  0  0  0  0  0  0  0  0  0  0  0
   -8.8937   19.1924  -33.4847 H   0  0  0  0  0  0  0  0  0  0  0  0
   -8.4388   17.7345  -30.8678 H   0  0  0  0  0  0  0  0  0  0  0  0
   -8.8309   17.0265  -32.5236 H   0  0  0  0  0  0  0  0  0  0  0  0
   -6.5444   18.6298  -30.4739 H   0  0  0  0  0  0  0  0  0  0  0  0
   -5.3552   17.3690  -30.9984 H   0  0  0  0  0  0  0  0  0  0  0  0
   -4.7356   19.9423  -31.1736 H   0  0  0  0  0  0  0  0  0  0  0  0
   -4.2843   18.7930  -32.4893 H   0  0  0  0  0  0  0  0  0  0  0  0
   -6.9310   19.7363  -34.5808 H   0  0  0  0  0  0  0  0  0  0  0  0
   -5.2090   19.1432  -34.5782 H   0  0  0  0  0  0  0  0  0  0  0  0
   -7.4827   17.6264  -34.2410 H   0  0  0  0  0  0  0  0  0  0  0  0
   -5.7433   17.1963  -33.8244 H   0  0  0  0  0  0  0  0  0  0  0  0
   -5.3016   25.3192  -29.0179 H   0  0  0  0  0  0  0  0  0  0  0  0
   -4.7704   26.2861  -30.4355 H   0  0  0  0  0  0  0  0  0  0  0  0
   -6.3888   25.5068  -30.4355 H   0  0  0  0  0  0  0  0  0  0  0  0
   -1.9174   19.7843  -31.3355 H   0  0  0  0  0  0  0  0  0  0  0  0
   -2.9296   20.4997  -32.6357 H   0  0  0  0  0  0  0  0  0  0  0  0
   -1.1521   20.7593  -32.6357 H   0  0  0  0  0  0  0  0  0  0  0  0
  1  2  1  0
  2  3  1  0
  3  4  2  0
  3  5  1  0
  5  6  2  0
  6  7  1  0
  7  8  2  0
  8  9  1  0
  9 10  1  0
 10 11  1  0
 11 12  2  0
 11 13  1  0
 13 14  1  0
 14 15  1  0
 15 16  1  0
 16 17  1  0
 17 18  1  0
 18 19  1  0
 19 20  1  0
 20 21  1  0
  8 22  1  0
 22 23  1  0
  6 24  1  0
 24 25  1  0
 24 26  1  0
 26 27  2  0
 26  2  1  0
 22  5  1  0
 21 16  1  0
  1 28  1  0
  1 29  1  0
  1 30  1  0
 10 31  1  0
 10 32  1  0
 13 33  1  0
 14 34  1  0
 14 35  1  0
 15 36  1  0
 15 37  1  0
 17 38  1  0
 17 39  1  0
 18 40  1  0
 18 41  1  0
 20 42  1  0
 20 43  1  0
 21 44  1  0
 21 45  1  0
 23 46  1  0
 23 47  1  0
 23 48  1  0
 25 49  1  0
 25 50  1  0
 25 51  1  0
M  END
>  <smiles>  (5) 
Cn1c(=O)c2c(nc(SCC(=O)NCCN3CCOCC3)n2C)n(C)c1=O

>  <score_type>  (5) 
oracle

>  <origin>  (5) 
adg

>  <m_score__min__energy>  (5) 
-9.1500000000000004

>  <m_primary>  (5) 
energy

$$$$
5:0
     RDKit          3D

 56 57  0  0  1  0  0  0  0  0999 V2000
   -9.0380   19.1600  -32.0810 C   0  0  0  0  0  0  0  0  0  0  0  0
   -7.7560   18.3950  -32.0230 C   0  0  0  0  0  0  0  0  0  0  0  0
   -7.2060   18.1790  -33.2570 O   0  0  0  0  0  0  0  0  0  0  0  0
   -5.9710   17.6450  -33.3220 C   0  0  0  0  0  0  0  0  0  0  0  0
   -5.0830   18.2560  -34.3760 C   0  0  0  0  0  0  0  0  0  0  0  0
   -3.7910   18.3640  -33.9450 O   0  0  0  0  0  0  0  0  0  0  0  0
   -3.6970   19.1430  -32.8070 C   0  0  0  0  0  0  0  0  0  0  0  0
   -3.3550   20.5770  -33.0180 C   0  0  0  0  0  0  0  0  0  0  0  0
   -4.4190   21.4270  -33.4290 N   0  0  0  0  0  0  0  0  0  0  0  0
   -5.7400   21.0690  -33.0840 C   0  0  0  0  0  0  0  0  0  0  0  0
   -6.5210   22.1000  -32.3000 C   0  0  1  0  0  0  0  0  0  0  0  0
   -6.7430   21.6170  -30.8680 C   0  0  0  0  0  0  0  0  0  0  0  0
   -7.7470   22.6010  -30.2530 C   0  0  0  0  0  0  0  0  0  0  0  0
   -7.2240   24.0280  -30.4530 C   0  0  0  0  0  0  0  0  0  0  0  0
   -5.8420   23.8880  -30.8540 N   0  0  0  0  0  0  0  0  0  0  0  0
   -4.7330   24.2360  -30.0450 C   0  0  0  0  0  0  0  0  0  0  0  0
   -3.7490   24.8540  -30.5390 O   0  0  0  0  0  0  0  0  0  0  0  0
   -4.6610   23.9210  -28.6670 N   0  0  0  0  0  0  0  0  0  0  0  0
   -3.5320   24.2790  -27.8660 C   0  0  0  0  0  0  0  0  0  0  0  0
   -3.6460   24.9260  -26.6560 C   0  0  0  0  0  0  0  0  0  0  0  0
   -2.5360   25.2630  -25.8930 C   0  0  0  0  0  0  0  0  0  0  0  0
   -1.2820   24.9260  -26.3890 C   0  0  0  0  0  0  0  0  0  0  0  0
   -1.1190   24.2740  -27.6010 C   0  0  0  0  0  0  0  0  0  0  0  0
    0.4780   23.8870  -28.1520 Cl  0  0  0  0  0  0  0  0  0  0  0  0
   -2.2610   23.9570  -28.3270 C   0  0  0  0  0  0  0  0  0  0  0  0
   -5.6170   23.3320  -32.1880 C   0  0  0  0  0  0  0  0  0  0  0  0
   -9.3872   19.3684  -31.0589 H   0  0  0  0  0  0  0  0  0  0  0  0
   -8.8751   20.1087  -32.6134 H   0  0  0  0  0  0  0  0  0  0  0  0
   -9.7956   18.5662  -32.6134 H   0  0  0  0  0  0  0  0  0  0  0  0
   -7.0370   18.9616  -31.4131 H   0  0  0  0  0  0  0  0  0  0  0  0
   -7.9797   17.4108  -31.5856 H   0  0  0  0  0  0  0  0  0  0  0  0
   -5.4862   17.7792  -32.3437 H   0  0  0  0  0  0  0  0  0  0  0  0
   -6.1003   16.5873  -33.5950 H   0  0  0  0  0  0  0  0  0  0  0  0
   -5.1076   17.6221  -35.2746 H   0  0  0  0  0  0  0  0  0  0  0  0
   -5.4572   19.2664  -34.5973 H   0  0  0  0  0  0  0  0  0  0  0  0
   -4.6676   19.1019  -32.2911 H   0  0  0  0  0  0  0  0  0  0  0  0
   -2.8596   18.7225  -32.2308 H   0  0  0  0  0  0  0  0  0  0  0  0
   -2.9600   20.9699  -32.0695 H   0  0  0  0  0  0  0  0  0  0  0  0
   -2.6354   20.5865  -33.8499 H   0  0  0  0  0  0  0  0  0  0  0  0
   -4.2630   22.0090  -34.2540 H   0  0  0  0  0  0  0  0  0  0  0  0
   -6.2888   20.8676  -34.0158 H   0  0  0  0  0  0  0  0  0  0  0  0
   -5.6480   20.1971  -32.4196 H   0  0  0  0  0  0  0  0  0  0  0  0
   -7.4847   22.2943  -32.7936 H   0  0  0  0  0  0  0  0  0  0  0  0
   -7.1545   20.5969  -30.8661 H   0  0  0  0  0  0  0  0  0  0  0  0
   -5.8026   21.5850  -30.2983 H   0  0  0  0  0  0  0  0  0  0  0  0
   -8.7229   22.4918  -30.7486 H   0  0  0  0  0  0  0  0  0  0  0  0
   -7.8654   22.3928  -29.1794 H   0  0  0  0  0  0  0  0  0  0  0  0
   -7.8003   24.5409  -31.2371 H   0  0  0  0  0  0  0  0  0  0  0  0
   -7.3208   24.6272  -29.5356 H   0  0  0  0  0  0  0  0  0  0  0  0
   -5.4240   23.4140  -28.1780 H   0  0  0  0  0  0  0  0  0  0  0  0
   -4.6478   25.1840  -26.2821 H   0  0  0  0  0  0  0  0  0  0  0  0
   -2.6454   25.7795  -24.9280 H   0  0  0  0  0  0  0  0  0  0  0  0
   -0.3898   25.1853  -25.8002 H   0  0  0  0  0  0  0  0  0  0  0  0
   -2.1562   23.4380  -29.2912 H   0  0  0  0  0  0  0  0  0  0  0  0
   -5.8833   24.0708  -32.9582 H   0  0  0  0  0  0  0  0  0  0  0  0
   -4.5600   23.0664  -32.3368 H   0  0  0  0  0  0  0  0  0  0  0  0
  1  2  1  0
  2  3  1  0
  3  4  1  0
  4  5  1  0
  5  6  1  0
  6  7  1  0
  7  8  1  0
  8  9  1  0
  9 10  1  0
 10 11  1  0
 11 12  1  0
 12 13  1  0
 13 14  1  0
 14 15  1  0
 15 16  1  0
 16 17  2  0
 16 18  1  0
 18 19  1  0
 19 20  2  0
 20 21  1  0
 21 22  2  0
 22 23  1  0
 23 24  1  0
 23 25  2  0
 15 26  1  0
 26 11  1  0
 25 19  1  0
  1 27  1  0
  1 28  1  0
  1 29  1  0
  2 30  1  0
  2 31  1  0
  4 32  1  0
  4 33  1  0
  5 34  1  0
  5 35  1  0
  7 36  1  0
  7 37  1  0
  8 38  1  0
  8 39  1  0
  9 40  1  0
 10 41  1  0
 10 42  1  0
 11 43  1  6
 12 44  1  0
 12 45  1  0
 13 46  1  0
 13 47  1  0
 14 48  1  0
 14 49  1  0
 18 50  1  0
 20 51  1  0
 21 52  1  0
 22 53  1  0
 25 54  1  0
 26 55  1  0
 26 56  1  0
M  END
>  <smiles>  (6) 
CCOCCOCCNCC1CCCN(C(=O)Nc2cccc(Cl)c2)C1

>  <score_type>  (6) 
oracle

>  <origin>  (6) 
adg

>  <m_score__min__energy>  (6) 
-7.75

>  <m_primary>  (6) 
energy

$$$$
6:0
     RDKit          3D

 61 63  0  0  0  0  0  0  0  0999 V2000
   -1.2610   28.0420  -35.5690 C   0  0  0  0  0  0  0  0  0  0  0  0
   -0.4520   26.9380  -36.1860 C   0  0  0  0  0  0  0  0  0  0  0  0
    0.2680   26.1900  -35.3400 O   0  0  0  0  0  0  0  0  0  0  0  0
    1.4700   25.6670  -35.6200 C   0  0  0  0  0  0  0  0  0  0  0  0
    1.5690   24.2620  -36.1270 C   0  0  0  0  0  0  0  0  0  0  0  0
    0.5500   23.4190  -35.6530 O   0  0  0  0  0  0  0  0  0  0  0  0
    0.9180   22.1750  -35.2740 C   0  0  0  0  0  0  0  0  0  0  0  0
   -0.1090   21.1100  -35.6190 C   0  0  0  0  0  0  0  0  0  0  0  0
   -1.0730   20.8400  -34.6150 N   0  0  0  0  0  0  0  0  0  0  0  0
   -0.9820   21.5460  -33.3870 C   0  0  0  0  0  0  0  0  0  0  0  0
   -2.2900   21.5470  -32.5790 C   0  0  0  0  0  0  0  0  0  0  0  0
   -3.3700   21.2090  -33.4880 N   0  0  0  0  0  0  0  0  0  0  0  0
   -4.6840   20.8570  -33.0940 C   0  0  0  0  0  0  0  0  0  0  0  0
   -5.5370   21.7190  -32.4380 C   0  0  0  0  0  0  0  0  0  0  0  0
   -5.0510   22.9920  -32.1260 C   0  0  0  0  0  0  0  0  0  0  0  0
   -5.9030   23.8290  -31.4770 C   0  0  0  0  0  0  0  0  0  0  0  0
   -7.1870   23.5340  -31.1050 C   0  0  0  0  0  0  0  0  0  0  0  0
   -7.6480   22.2580  -31.4280 C   0  0  0  0  0  0  0  0  0  0  0  0
   -6.8420   21.3580  -32.0830 C   0  0  0  0  0  0  0  0  0  0  0  0
   -7.3210   20.1410  -32.3740 N   0  0  0  0  0  0  0  0  0  0  0  0
   -8.6330   19.6610  -32.0690 C   0  0  0  0  0  0  0  0  0  0  0  0
   -6.4960   19.2600  -33.0270 C   0  0  0  0  0  0  0  0  0  0  0  0
   -6.9660   17.9880  -33.3490 C   0  0  0  0  0  0  0  0  0  0  0  0
   -6.2030   17.0540  -34.0060 C   0  0  0  0  0  0  0  0  0  0  0  0
   -4.9170   17.3850  -34.3660 C   0  0  0  0  0  0  0  0  0  0  0  0
   -4.4510   18.6450  -34.0480 C   0  0  0  0  0  0  0  0  0  0  0  0
   -3.1330   18.9200  -34.4440 O   0  0  0  0  0  0  0  0  0  0  0  0
   -2.1250   17.9340  -34.5230 C   0  0  0  0  0  0  0  0  0  0  0  0
   -5.2170   19.5880  -33.3850 C   0  0  0  0  0  0  0  0  0  0  0  0
   -1.2067   27.9678  -34.4728 H   0  0  0  0  0  0  0  0  0  0  0  0
   -0.8601   29.0144  -35.8910 H   0  0  0  0  0  0  0  0  0  0  0  0
   -2.3090   27.9526  -35.8910 H   0  0  0  0  0  0  0  0  0  0  0  0
   -1.1457   26.2701  -36.7177 H   0  0  0  0  0  0  0  0  0  0  0  0
    0.2818   27.4377  -36.8355 H   0  0  0  0  0  0  0  0  0  0  0  0
    1.9294   26.3139  -36.3819 H   0  0  0  0  0  0  0  0  0  0  0  0
    1.9631   25.6196  -34.6379 H   0  0  0  0  0  0  0  0  0  0  0  0
    1.5185   24.2846  -37.2256 H   0  0  0  0  0  0  0  0  0  0  0  0
    2.5220   23.8534  -35.7598 H   0  0  0  0  0  0  0  0  0  0  0  0
    1.8637   21.9230  -35.7762 H   0  0  0  0  0  0  0  0  0  0  0  0
    1.0187   22.1860  -34.1787 H   0  0  0  0  0  0  0  0  0  0  0  0
   -0.6442   21.4363  -36.5229 H   0  0  0  0  0  0  0  0  0  0  0  0
    0.4581   20.1766  -35.7502 H   0  0  0  0  0  0  0  0  0  0  0  0
   -2.0100   20.6900  -34.9990 H   0  0  0  0  0  0  0  0  0  0  0  0
   -0.1957   21.0796  -32.7752 H   0  0  0  0  0  0  0  0  0  0  0  0
   -0.7543   22.5936  -33.6334 H   0  0  0  0  0  0  0  0  0  0  0  0
   -2.2325   20.8018  -31.7719 H   0  0  0  0  0  0  0  0  0  0  0  0
   -2.4624   22.5344  -32.1258 H   0  0  0  0  0  0  0  0  0  0  0  0
   -3.2080   21.2140  -34.5460 H   0  0  0  0  0  0  0  0  0  0  0  0
   -4.0295   23.3011  -32.3925 H   0  0  0  0  0  0  0  0  0  0  0  0
   -5.5274   24.8326  -31.2286 H   0  0  0  0  0  0  0  0  0  0  0  0
   -7.8207   24.2638  -30.5798 H   0  0  0  0  0  0  0  0  0  0  0  0
   -8.6730   21.9674  -31.1542 H   0  0  0  0  0  0  0  0  0  0  0  0
   -8.7617   19.6139  -30.9776 H   0  0  0  0  0  0  0  0  0  0  0  0
   -9.3819   20.3434  -32.4974 H   0  0  0  0  0  0  0  0  0  0  0  0
   -8.7647   18.6564  -32.4974 H   0  0  0  0  0  0  0  0  0  0  0  0
   -7.9942   17.7202  -33.0641 H   0  0  0  0  0  0  0  0  0  0  0  0
   -6.6123   16.0601  -34.2400 H   0  0  0  0  0  0  0  0  0  0  0  0
   -4.2761   16.6636  -34.8941 H   0  0  0  0  0  0  0  0  0  0  0  0
   -1.8218   17.6374  -33.5080 H   0  0  0  0  0  0  0  0  0  0  0  0
   -2.5121   17.0562  -35.0612 H   0  0  0  0  0  0  0  0  0  0  0  0
   -1.2560   18.3403  -35.0612 H   0  0  0  0  0  0  0  0  0  0  0  0
  1  2  1  0
  2  3  1  0
  3  4  1  0
  4  5  1  0
  5  6  1  0
  6  7  1  0
  7  8  1  0
  8  9  1  0
  9 10  1  0
 10 11  1  0
 11 12  1  0
 12 13  1  0
 13 14  2  0
 14 15  1  0
 15 16  2  0
 16 17  1  0
 17 18  2  0
 18 19  1  0
 19 20  2  0
 20 21  1  0
 20 22  1  0
 22 23  2  0
 23 24  1  0
 24 25  2  0
 25 26  1  0
 26 27  1  0
 27 28  1  0
 26 29  2  0
 29 13  1  0
 19 14  1  0
 29 22  1  0
  1 30  1  0
  1 31  1  0
  1 32  1  0
  2 33  1  0
  2 34  1  0
  4 35  1  0
  4 36  1  0
  5 37  1  0
  5 38  1  0
  7 39  1  0
  7 40  1  0
  8 41  1  0
  8 42  1  0
  9 43  1  0
 10 44  1  0
 10 45  1  0
 11 46  1  0
 11 47  1  0
 12 48  1  0
 15 49  1  0
 16 50  1  0
 17 51  1  0
 18 52  1  0
 21 53  1  0
 21 54  1  0
 21 55  1  0
 23 56  1  0
 24 57  1  0
 25 58  1  0
 28 59  1  0
 28 60  1  0
 28 61  1  0
M  CHG  1  20   1
M  END
>  <smiles>  (7) 
CCOCCOCCNCCNc1c2ccccc2[n+](C)c2cccc(OC)c12

>  <score_type>  (7) 
oracle

>  <origin>  (7) 
adg

>  <m_score__min__energy>  (7) 
-8.5899999999999999

>  <m_primary>  (7) 
energy

$$$$
7:0
     RDKit          3D

 60 62  0  0  0  0  0  0  0  0999 V2000
   -3.4900   22.0080  -28.1750 C   0  0  0  0  0  0  0  0  0  0  0  0
   -2.9640   23.4400  -27.9790 C   0  0  0  0  0  0  0  0  0  0  0  0
   -3.9790   24.1960  -27.2070 C   0  0  0  0  0  0  0  0  0  0  0  0
   -2.5850   23.9580  -29.3240 C   0  0  0  0  0  0  0  0  0  0  0  0
   -3.2380   23.3060  -30.4440 N   0  0  0  0  0  0  0  0  0  0  0  0
   -4.5820   23.5540  -30.8420 C   0  0  0  0  0  0  0  0  0  0  0  0
   -5.0710   24.8130  -30.4440 C   0  0  0  0  0  0  0  0  0  0  0  0
   -6.4220   25.0790  -30.4510 C   0  0  0  0  0  0  0  0  0  0  0  0
   -7.2570   24.0650  -30.8620 C   0  0  0  0  0  0  0  0  0  0  0  0
   -6.7950   22.8220  -31.2610 C   0  0  0  0  0  0  0  0  0  0  0  0
   -5.4520   22.5550  -31.2620 C   0  0  0  0  0  0  0  0  0  0  0  0
   -4.9380   21.3020  -31.6550 C   0  0  0  0  0  0  0  0  0  0  0  0
   -3.5850   21.1980  -31.9470 N   0  0  0  0  0  0  0  0  0  0  0  0
   -2.7580   21.3480  -33.0980 C   0  0  0  0  0  0  0  0  0  0  0  0
   -1.3220   20.8250  -32.7820 C   0  0  0  0  0  0  0  0  0  0  0  0
   -0.6670   21.5420  -31.6710 C   0  0  0  0  0  0  0  0  0  0  0  0
   -0.9870   21.2320  -30.3420 N   0  0  0  0  0  0  0  0  0  0  0  0
   -1.2090   19.9010  -29.9410 C   0  0  0  0  0  0  0  0  0  0  0  0
   -0.1810   21.9420  -29.4010 C   0  0  0  0  0  0  0  0  0  0  0  0
   -5.8950   20.3730  -32.0070 C   0  0  0  0  0  0  0  0  0  0  0  0
   -5.5740   19.0900  -32.3850 C   0  0  0  0  0  0  0  0  0  0  0  0
   -6.4590   18.1180  -32.7320 C   0  0  0  0  0  0  0  0  0  0  0  0
   -7.7990   18.4010  -32.7140 C   0  0  0  0  0  0  0  0  0  0  0  0
   -8.1900   19.6860  -32.3370 C   0  0  0  0  0  0  0  0  0  0  0  0
   -7.2660   20.6570  -31.9890 C   0  0  0  0  0  0  0  0  0  0  0  0
   -7.7010   21.8640  -31.6260 N   0  0  0  0  0  0  0  0  0  0  0  0
   -9.0840   22.2700  -31.5840 C   0  0  0  0  0  0  0  0  0  0  0  0
   -3.6610   21.5426  -27.1931 H   0  0  0  0  0  0  0  0  0  0  0  0
   -4.4357   22.0383  -28.7360 H   0  0  0  0  0  0  0  0  0  0  0  0
   -2.7495   21.4190  -28.7360 H   0  0  0  0  0  0  0  0  0  0  0  0
   -2.0485   23.5271  -27.3754 H   0  0  0  0  0  0  0  0  0  0  0  0
   -3.7969   24.0604  -26.1307 H   0  0  0  0  0  0  0  0  0  0  0  0
   -3.9101   25.2646  -27.4587 H   0  0  0  0  0  0  0  0  0  0  0  0
   -4.9831   23.8240  -27.4587 H   0  0  0  0  0  0  0  0  0  0  0  0
   -2.8364   25.0283  -29.3596 H   0  0  0  0  0  0  0  0  0  0  0  0
   -1.5098   23.7550  -29.4373 H   0  0  0  0  0  0  0  0  0  0  0  0
   -2.6340   22.5380  -30.8770 H   0  0  0  0  0  0  0  0  0  0  0  0
   -4.3652   25.5935  -30.1236 H   0  0  0  0  0  0  0  0  0  0  0  0
   -6.8163   26.0583  -30.1419 H   0  0  0  0  0  0  0  0  0  0  0  0
   -8.3412   24.2505  -30.8741 H   0  0  0  0  0  0  0  0  0  0  0  0
   -2.9530   21.1070  -31.0350 H   0  0  0  0  0  0  0  0  0  0  0  0
   -3.1829   20.7701  -33.9320 H   0  0  0  0  0  0  0  0  0  0  0  0
   -2.7070   22.4112  -33.3753 H   0  0  0  0  0  0  0  0  0  0  0  0
   -1.3897   19.7595  -32.5172 H   0  0  0  0  0  0  0  0  0  0  0  0
   -0.7108   20.9928  -33.6811 H   0  0  0  0  0  0  0  0  0  0  0  0
    0.4148   21.3765  -31.7823 H   0  0  0  0  0  0  0  0  0  0  0  0
   -1.0403   22.5705  -31.7838 H   0  0  0  0  0  0  0  0  0  0  0  0
   -1.2182   19.8457  -28.8424 H   0  0  0  0  0  0  0  0  0  0  0  0
   -2.1770   19.5564  -30.3336 H   0  0  0  0  0  0  0  0  0  0  0  0
   -0.4052   19.2608  -30.3336 H   0  0  0  0  0  0  0  0  0  0  0  0
   -0.4869   21.6726  -28.3793 H   0  0  0  0  0  0  0  0  0  0  0  0
    0.8760   21.6762  -29.5494 H   0  0  0  0  0  0  0  0  0  0  0  0
   -0.3113   23.0241  -29.5494 H   0  0  0  0  0  0  0  0  0  0  0  0
   -4.5062   18.8270  -32.4086 H   0  0  0  0  0  0  0  0  0  0  0  0
   -6.1039   17.1184  -33.0231 H   0  0  0  0  0  0  0  0  0  0  0  0
   -8.5435   17.6390  -32.9882 H   0  0  0  0  0  0  0  0  0  0  0  0
   -9.2613   19.9347  -32.3156 H   0  0  0  0  0  0  0  0  0  0  0  0
   -9.4067   22.3647  -30.5367 H   0  0  0  0  0  0  0  0  0  0  0  0
   -9.1972   23.2393  -32.0916 H   0  0  0  0  0  0  0  0  0  0  0  0
   -9.7032   21.5157  -32.0916 H   0  0  0  0  0  0  0  0  0  0  0  0
  1  2  1  0
  2  3  1  0
  2  4  1  0
  4  5  1  0
  5  6  1  0
  6  7  2  0
  7  8  1  0
  8  9  2  0
  9 10  1  0
 10 11  2  0
 11 12  1  0
 12 13  1  0
 13 14  1  0
 14 15  1  0
 15 16  1  0
 16 17  1  0
 17 18  1  0
 17 19  1  0
 12 20  2  0
 20 21  1  0
 21 22  2  0
 22 23  1  0
 23 24  2  0
 24 25  1  0
 25 26  2  0
 26 27  1  0
 11  6  1  0
 25 20  1  0
 26 10  1  0
  1 28  1  0
  1 29  1  0
  1 30  1  0
  2 31  1  0
  3 32  1  0
  3 33  1  0
  3 34  1  0
  4 35  1  0
  4 36  1  0
  5 37  1  0
  7 38  1  0
  8 39  1  0
  9 40  1  0
 13 41  1  0
 14 42  1  0
 14 43  1  0
 15 44  1  0
 15 45  1  0
 16 46  1  0
 16 47  1  0
 18 48  1  0
 18 49  1  0
 18 50  1  0
 19 51  1  0
 19 52  1  0
 19 53  1  0
 21 54  1  0
 22 55  1  0
 23 56  1  0
 24 57  1  0
 27 58  1  0
 27 59  1  0
 27 60  1  0
M  CHG  1  26   1
M  END
>  <smiles>  (8) 
CC(C)CNc1cccc2c1c(NCCCN(C)C)c1ccccc1[n+]2C

>  <score_type>  (8) 
oracle

>  <origin>  (8) 
adg

>  <m_score__min__energy>  (8) 
-8.3800000000000008

>  <m_primary>  (8) 
energy

$$$$
9:0
     RDKit          3D

 44 45  0  0  0  0  0  0  0  0999 V2000
   -8.7480   18.6110  -31.6340 C   0  0  0  0  0  0  0  0  0  0  0  0
   -9.0990   19.9400  -32.2920 C   0  0  0  0  0  0  0  0  0  0  0  0
   -8.3570   21.0810  -31.6670 C   0  0  0  0  0  0  0  0  0  0  0  0
   -7.4040   21.7420  -32.4480 N   0  0  0  0  0  0  0  0  0  0  0  0
   -6.1930   20.9440  -32.4930 C   0  0  0  0  0  0  0  0  0  0  0  0
   -5.4390   21.1850  -31.2180 C   0  0  0  0  0  0  0  0  0  0  0  0
   -5.3770   22.6660  -30.8730 C   0  0  0  0  0  0  0  0  0  0  0  0
   -4.1440   22.9180  -30.1610 C   0  0  0  0  0  0  0  0  0  0  0  0
   -3.4890   21.8200  -29.5780 C   0  0  0  0  0  0  0  0  0  0  0  0
   -2.3140   21.9270  -28.8990 C   0  0  0  0  0  0  0  0  0  0  0  0
   -1.6930   23.1470  -28.7450 C   0  0  0  0  0  0  0  0  0  0  0  0
   -2.3190   24.2390  -29.3090 C   0  0  0  0  0  0  0  0  0  0  0  0
   -1.7060   25.4960  -29.1670 O   0  0  0  0  0  0  0  0  0  0  0  0
   -1.1140   25.7950  -27.9180 C   0  0  0  0  0  0  0  0  0  0  0  0
   -3.5220   24.1280  -30.0040 C   0  0  0  0  0  0  0  0  0  0  0  0
   -4.0410   25.2940  -30.5150 O   0  0  0  0  0  0  0  0  0  0  0  0
   -5.3560   25.6690  -30.0960 C   0  0  0  0  0  0  0  0  0  0  0  0
   -5.7100   23.4250  -32.0880 C   0  0  0  0  0  0  0  0  0  0  0  0
   -7.2090   23.1250  -32.3500 C   0  0  0  0  0  0  0  0  0  0  0  0
   -8.7779   18.7242  -30.5402 H   0  0  0  0  0  0  0  0  0  0  0  0
   -9.4747   17.8454  -31.9434 H   0  0  0  0  0  0  0  0  0  0  0  0
   -7.7380   18.3041  -31.9434 H   0  0  0  0  0  0  0  0  0  0  0  0
   -8.8398   19.8885  -33.3598 H   0  0  0  0  0  0  0  0  0  0  0  0
  -10.1762   20.1160  -32.1557 H   0  0  0  0  0  0  0  0  0  0  0  0
   -9.1030   21.8276  -31.3571 H   0  0  0  0  0  0  0  0  0  0  0  0
   -7.7787   20.6230  -30.8511 H   0  0  0  0  0  0  0  0  0  0  0  0
   -6.4500   19.8780  -32.5803 H   0  0  0  0  0  0  0  0  0  0  0  0
   -5.5794   21.2243  -33.3619 H   0  0  0  0  0  0  0  0  0  0  0  0
   -5.9418   20.6489  -30.3996 H   0  0  0  0  0  0  0  0  0  0  0  0
   -4.4100   20.8208  -31.3537 H   0  0  0  0  0  0  0  0  0  0  0  0
   -6.1274   23.0284  -30.1549 H   0  0  0  0  0  0  0  0  0  0  0  0
   -3.9483   20.8252  -29.6750 H   0  0  0  0  0  0  0  0  0  0  0  0
   -1.8537   21.0262  -28.4670 H   0  0  0  0  0  0  0  0  0  0  0  0
   -0.7435   23.2455  -28.1985 H   0  0  0  0  0  0  0  0  0  0  0  0
   -1.7781   25.4596  -27.1078 H   0  0  0  0  0  0  0  0  0  0  0  0
   -0.1468   25.2773  -27.8373 H   0  0  0  0  0  0  0  0  0  0  0  0
   -0.9566   26.8807  -27.8373 H   0  0  0  0  0  0  0  0  0  0  0  0
   -5.4009   25.6818  -28.9970 H   0  0  0  0  0  0  0  0  0  0  0  0
   -5.5929   26.6705  -30.4844 H   0  0  0  0  0  0  0  0  0  0  0  0
   -6.0855   24.9431  -30.4844 H   0  0  0  0  0  0  0  0  0  0  0  0
   -5.5537   24.5018  -31.9263 H   0  0  0  0  0  0  0  0  0  0  0  0
   -5.0762   23.1394  -32.9405 H   0  0  0  0  0  0  0  0  0  0  0  0
   -7.8117   23.5212  -31.5194 H   0  0  0  0  0  0  0  0  0  0  0  0
   -7.5169   23.6036  -33.2913 H   0  0  0  0  0  0  0  0  0  0  0  0
  1  2  1  0
  2  3  1  0
  3  4  1  0
  4  5  1  0
  5  6  1  0
  6  7  1  0
  7  8  1  0
  8  9  2  0
  9 10  1  0
 10 11  2  0
 11 12  1  0
 12 13  1  0
 13 14  1  0
 12 15  2  0
 15 16  1  0
 16 17  1  0
  7 18  1  0
 18 19  1  0
 19  4  1  0
 15  8  1  0
  1 20  1  0
  1 21  1  0
  1 22  1  0
  2 23  1  0
  2 24  1  0
  3 25  1  0
  3 26  1  0
  5 27  1  0
  5 28  1  0
  6 29  1  0
  6 30  1  0
  7 31  1  0
  9 32  1  0
 10 33  1  0
 11 34  1  0
 14 35  1  0
 14 36  1  0
 14 37  1  0
 17 38  1  0
 17 39  1  0
 17 40  1  0
 18 41  1  0
 18 42  1  0
 19 43  1  0
 19 44  1  0
M  END
>  <smiles>  (9) 
CCCN1CCC(c2cccc(OC)c2OC)CC1

>  <score_type>  (9) 
oracle

>  <origin>  (9) 
adg

>  <m_score__min__energy>  (9) 
-8.4000000000000004

>  <m_primary>  (9) 
energy

$$$$
10:0
     RDKit          3D

 45 49  0  0  1  0  0  0  0  0999 V2000
   -1.3150   22.7600  -30.1470 C   0  0  0  0  0  0  0  0  0  0  0  0
   -2.5970   23.3930  -29.9900 N   0  0  0  0  0  0  0  0  0  0  0  0
   -2.8590   24.5460  -29.3440 C   0  0  0  0  0  0  0  0  0  0  0  0
   -1.9320   25.2370  -28.7690 N   0  0  0  0  0  0  0  0  0  0  0  0
   -0.9830   24.6340  -27.8540 C   0  0  0  0  0  0  0  0  0  0  0  0
   -0.9870   25.3760  -26.5570 C   0  0  0  0  0  0  0  0  0  0  0  0
   -0.7170   24.6600  -25.3990 C   0  0  0  0  0  0  0  0  0  0  0  0
   -0.7180   25.3320  -24.1990 C   0  0  0  0  0  0  0  0  0  0  0  0
   -0.9730   26.6490  -24.1330 N   0  0  0  0  0  0  0  0  0  0  0  0
   -1.2320   27.3300  -25.2580 C   0  0  0  0  0  0  0  0  0  0  0  0
   -1.2540   26.7470  -26.5130 C   0  0  0  0  0  0  0  0  0  0  0  0
   -4.1710   24.8370  -29.3970 N   0  0  0  0  0  0  0  0  0  0  0  0
   -4.7760   23.8380  -30.1010 C   0  0  0  0  0  0  0  0  0  0  0  0
   -6.1000   23.6550  -30.4410 C   0  0  0  0  0  0  0  0  0  0  0  0
   -6.4020   22.5220  -31.1710 C   0  0  0  0  0  0  0  0  0  0  0  0
   -5.4260   21.6210  -31.5420 C   0  0  0  0  0  0  0  0  0  0  0  0
   -5.7830   20.4340  -32.3170 C   0  0  0  0  0  0  0  0  0  0  0  0
   -7.0410   19.8680  -32.2890 C   0  0  0  0  0  0  0  0  0  0  0  0
   -7.2590   18.7480  -33.0630 C   0  0  0  0  0  0  0  0  0  0  0  0
   -6.2680   18.1860  -33.8520 C   0  0  0  0  0  0  0  0  0  0  0  0
   -4.9990   18.7660  -33.8730 C   0  0  0  0  0  0  0  0  0  0  0  0
   -4.7770   19.8890  -33.0990 C   0  0  0  0  0  0  0  0  0  0  0  0
   -4.2260   17.9990  -34.7390 O   0  0  0  0  0  0  0  0  0  0  0  0
   -4.8660   16.7310  -34.9460 C   0  0  0  0  0  0  0  0  0  0  0  0
   -6.2160   17.0820  -34.7120 O   0  0  0  0  0  0  0  0  0  0  0  0
   -4.1040   21.8170  -31.1960 C   0  0  0  0  0  0  0  0  0  0  0  0
   -3.7750   22.9570  -30.4560 C   0  0  0  0  0  0  0  0  0  0  0  0
   -0.8867   22.5485  -29.1561 H   0  0  0  0  0  0  0  0  0  0  0  0
   -1.4366   21.8184  -30.7025 H   0  0  0  0  0  0  0  0  0  0  0  0
   -0.6413   23.4290  -30.7025 H   0  0  0  0  0  0  0  0  0  0  0  0
   -1.2638   23.5855  -27.6755 H   0  0  0  0  0  0  0  0  0  0  0  0
    0.0240   24.6788  -28.2943 H   0  0  0  0  0  0  0  0  0  0  0  0
   -0.5072   23.5810  -25.4400 H   0  0  0  0  0  0  0  0  0  0  0  0
   -0.5052   24.7784  -23.2726 H   0  0  0  0  0  0  0  0  0  0  0  0
   -1.4377   28.4078  -25.1798 H   0  0  0  0  0  0  0  0  0  0  0  0
   -1.4689   27.3283  -27.4218 H   0  0  0  0  0  0  0  0  0  0  0  0
   -4.6320   25.6730  -28.9750 H   0  0  0  0  0  0  0  0  0  0  0  0
   -6.8769   24.3755  -30.1455 H   0  0  0  0  0  0  0  0  0  0  0  0
   -7.4456   22.3339  -31.4634 H   0  0  0  0  0  0  0  0  0  0  0  0
   -7.8432   20.2960  -31.6699 H   0  0  0  0  0  0  0  0  0  0  0  0
   -8.2561   18.2835  -33.0539 H   0  0  0  0  0  0  0  0  0  0  0  0
   -3.7827   20.3594  -33.1037 H   0  0  0  0  0  0  0  0  0  0  0  0
   -4.7142   16.3621  -35.9711 H   0  0  0  0  0  0  0  0  0  0  0  0
   -4.4872   15.9173  -34.3101 H   0  0  0  0  0  0  0  0  0  0  0  0
   -3.3295   21.0952  -31.4946 H   0  0  0  0  0  0  0  0  0  0  0  0
  1  2  1  0
  2  3  1  0
  3  4  2  0
  4  5  1  0
  5  6  1  0
  6  7  2  0
  7  8  1  0
  8  9  2  0
  9 10  1  0
 10 11  2  0
  3 12  1  0
 12 13  1  0
 13 14  2  0
 14 15  1  0
 15 16  2  0
 16 17  1  0
 17 18  2  0
 18 19  1  0
 19 20  2  0
 20 21  1  0
 21 22  2  0
 21 23  1  0
 23 24  1  0
 24 25  1  0
 16 26  1  0
 26 27  2  0
 27  2  1  0
 11  6  1  0
 27 13  1  0
 22 17  1  0
 25 20  1  0
  1 28  1  0
  1 29  1  0
  1 30  1  0
  5 31  1  0
  5 32  1  0
  7 33  1  0
  8 34  1  0
 10 35  1  0
 11 36  1  0
 12 37  1  0
 14 38  1  0
 15 39  1  0
 18 40  1  0
 19 41  1  0
 22 42  1  0
 24 43  1  0
 24 44  1  0
 26 45  1  0
M  END
>  <smiles>  (10) 
Cn1c(=NCc2ccncc2)[nH]c2ccc(-c3ccc4c(c3)OCO4)cc21

>  <score_type>  (10) 
oracle

>  <origin>  (10) 
adg

>  <m_score__min__energy>  (10) 
-8.5999999999999996

>  <m_primary>  (10) 
energy

$$$$
11:0
     RDKit          2D

 60 63  0  0  0  0  0  0  0  0999 V2000
  -13.0687    5.8926    0.0000 C   0  0  0  0  0  0  0  0  0  0  0  0
  -12.7568    4.4254    0.0000 C   0  0  0  0  0  0  0  0  0  0  0  0
  -12.4450    2.9582    0.0000 O   0  0  0  0  0  0  0  0  0  0  0  0
  -11.0184    2.4947    0.0000 C   0  0  0  0  0  0  0  0  0  0  0  0
   -9.5918    2.0312    0.0000 C   0  0  0  0  0  0  0  0  0  0  0  0
   -8.1652    1.5676    0.0000 O   0  0  0  0  0  0  0  0  0  0  0  0
   -7.8533    0.1004    0.0000 C   0  0  0  0  0  0  0  0  0  0  0  0
   -7.5415   -1.3668    0.0000 C   0  0  0  0  0  0  0  0  0  0  0  0
   -7.2296   -2.8340    0.0000 O   0  0  0  0  0  0  0  0  0  0  0  0
   -5.8030   -3.2976    0.0000 C   0  0  0  0  0  0  0  0  0  0  0  0
   -4.3764   -3.7611    0.0000 C   0  0  0  0  0  0  0  0  0  0  0  0
   -2.9499   -4.2246    0.0000 N   0  0  0  0  0  0  0  0  0  0  0  0
   -1.8351   -3.2209    0.0000 C   0  0  0  0  0  0  0  0  0  0  0  0
   -2.1470   -1.7537    0.0000 C   0  0  0  0  0  0  0  0  0  0  0  0
   -1.0323   -0.7500    0.0000 C   0  0  0  0  0  0  0  0  0  0  0  0
   -1.0323    0.7500    0.0000 C   0  0  0  0  0  0  0  0  0  0  0  0
   -2.1470    1.7537    0.0000 C   0  0  0  0  0  0  0  0  0  0  0  0
   -1.8351    3.2209    0.0000 C   0  0  0  0  0  0  0  0  0  0  0  0
   -0.4086    3.6844    0.0000 C   0  0  0  0  0  0  0  0  0  0  0  0
   -0.0967    5.1517    0.0000 Cl  0  0  0  0  0  0  0  0  0  0  0  0
    0.7062    2.6807    0.0000 C   0  0  0  0  0  0  0  0  0  0  0  0
    0.3943    1.2135    0.0000 C   0  0  0  0  0  0  0  0  0  0  0  0
    1.2760    0.0000    0.0000 N   0  0  0  0  0  0  0  0  0  0  0  0
    0.3943   -1.2135    0.0000 C   0  0  0  0  0  0  0  0  0  0  0  0
    0.7062   -2.6807    0.0000 N   0  0  0  0  0  0  0  0  0  0  0  0
    2.1328   -3.1443    0.0000 C   0  0  0  0  0  0  0  0  0  0  0  0
   -0.4086   -3.6844    0.0000 C   0  0  0  0  0  0  0  0  0  0  0  0
   -1.2720   -4.9110    0.0000 C   0  0  0  0  0  0  0  0  0  0  0  0
   -2.7693   -5.0007    0.0000 C   0  0  0  0  0  0  0  0  0  0  0  0
   -3.7730   -3.8860    0.0000 C   0  0  0  0  0  0  0  0  0  0  0  0
   -3.5273   -2.4063    0.0000 C   0  0  0  0  0  0  0  0  0  0  0  0
  -13.3806    7.3599    0.0000 H   0  0  0  0  0  0  0  0  0  0  0  0
  -11.6015    6.2045    0.0000 H   0  0  0  0  0  0  0  0  0  0  0  0
  -14.5359    5.5808    0.0000 H   0  0  0  0  0  0  0  0  0  0  0  0
  -11.2896    4.7373    0.0000 H   0  0  0  0  0  0  0  0  0  0  0  0
  -14.2241    4.1136    0.0000 H   0  0  0  0  0  0  0  0  0  0  0  0
  -11.4819    1.0681    0.0000 H   0  0  0  0  0  0  0  0  0  0  0  0
  -10.5549    3.9213    0.0000 H   0  0  0  0  0  0  0  0  0  0  0  0
  -10.0553    0.6046    0.0000 H   0  0  0  0  0  0  0  0  0  0  0  0
   -9.1283    3.4577    0.0000 H   0  0  0  0  0  0  0  0  0  0  0  0
   -6.3861    0.4123    0.0000 H   0  0  0  0  0  0  0  0  0  0  0  0
   -9.3206   -0.2115    0.0000 H   0  0  0  0  0  0  0  0  0  0  0  0
   -6.0743   -1.0549    0.0000 H   0  0  0  0  0  0  0  0  0  0  0  0
   -9.0087   -1.6787    0.0000 H   0  0  0  0  0  0  0  0  0  0  0  0
   -6.2665   -4.7241    0.0000 H   0  0  0  0  0  0  0  0  0  0  0  0
   -5.5168   -1.8251    0.0000 H   0  0  0  0  0  0  0  0  0  0  0  0
   -4.2719   -2.2647    0.0000 H   0  0  0  0  0  0  0  0  0  0  0  0
   -4.8400   -5.1877    0.0000 H   0  0  0  0  0  0  0  0  0  0  0  0
   -3.0023   -5.7237    0.0000 H   0  0  0  0  0  0  0  0  0  0  0  0
   -3.5736    1.2902    0.0000 H   0  0  0  0  0  0  0  0  0  0  0  0
   -2.9499    4.2246    0.0000 H   0  0  0  0  0  0  0  0  0  0  0  0
    2.1328    3.1443    0.0000 H   0  0  0  0  0  0  0  0  0  0  0  0
    2.7760    0.0000    0.0000 H   0  0  0  0  0  0  0  0  0  0  0  0
    3.5593   -3.6078    0.0000 H   0  0  0  0  0  0  0  0  0  0  0  0
    1.6692   -4.5709    0.0000 H   0  0  0  0  0  0  0  0  0  0  0  0
    2.5963   -1.7177    0.0000 H   0  0  0  0  0  0  0  0  0  0  0  0
   -0.5415   -6.2211    0.0000 H   0  0  0  0  0  0  0  0  0  0  0  0
   -3.3381   -6.3887    0.0000 H   0  0  0  0  0  0  0  0  0  0  0  0
   -5.2128   -4.3067    0.0000 H   0  0  0  0  0  0  0  0  0  0  0  0
   -4.6394   -1.3998    0.0000 H   0  0  0  0  0  0  0  0  0  0  0  0
  1  2  1  0
  2  3  1  0
  3  4  1  0
  4  5  1  0
  5  6  1  0
  6  7  1  0
  7  8  1  0
  8  9  1  0
  9 10  1  0
 10 11  1  0
 11 12  1  0
 12 13  1  0
 13 14  2  0
 14 15  1  0
 15 16  1  0
 16 17  2  0
 17 18  1  0
 18 19  2  0
 19 20  1  0
 19 21  1  0
 21 22  2  0
 22 23  1  0
 23 24  1  0
 24 25  1  0
 25 26  1  0
 25 27  2  0
 27 28  1  0
 28 29  2  0
 29 30  1  0
 30 31  2  0
 27 13  1  0
 31 14  1  0
 24 15  2  0
 22 16  1  0
  1 32  1  0
  1 33  1  0
  1 34  1  0
  2 35  1  0
  2 36  1  0
  4 37  1  0
  4 38  1  0
  5 39  1  0
  5 40  1  0
  7 41  1  0
  7 42  1  0
  8 43  1  0
  8 44  1  0
 10 45  1  0
 10 46  1  0
 11 47  1  0
 11 48  1  0
 12 49  1  0
 17 50  1  0
 18 51  1  0
 21 52  1  0
 23 53  1  0
 26 54  1  0
 26 55  1  0
 26 56  1  0
 28 57  1  0
 29 58  1  0
 30 59  1  0
 31 60  1  0
M  CHG  1  25   1
M  END
>  <smiles>  (11) 
CCOCCOCCOCCNc1c2c3c4ccc(Cl)cc4[nH]c3[n+](C)c1C=CC=C2

>  <m_score__min__energy>  (11) 
nan

>  <m_primary>  (11) 
energy

$$$$
12:0
     RDKit          3D

 55 57  0  0  0  0  0  0  0  0999 V2000
   -0.5360   27.0240  -27.3270 C   0  0  0  0  0  0  0  0  0  0  0  0
   -0.8380   25.6580  -27.8540 C   0  0  0  0  0  0  0  0  0  0  0  0
   -1.6340   25.6500  -29.0010 O   0  0  0  0  0  0  0  0  0  0  0  0
   -2.5880   24.6920  -28.7770 N   0  0  0  0  0  0  0  0  0  0  0  0
   -3.7210   24.5230  -29.5920 C   0  0  0  0  0  0  0  0  0  0  0  0
   -3.8630   25.2950  -30.5730 O   0  0  0  0  0  0  0  0  0  0  0  0
   -4.6810   23.4430  -29.2430 C   0  0  0  0  0  0  0  0  0  0  0  0
   -4.8220   22.5960  -30.4080 N   0  0  0  0  0  0  0  0  0  0  0  0
   -3.6950   21.7470  -30.6450 C   0  0  0  0  0  0  0  0  0  0  0  0
   -3.3180   21.8700  -32.1300 C   0  0  0  0  0  0  0  0  0  0  0  0
   -4.4560   21.6760  -32.9710 N   0  0  0  0  0  0  0  0  0  0  0  0
   -5.0930   20.4170  -33.0860 C   0  0  0  0  0  0  0  0  0  0  0  0
   -4.3280   19.3330  -33.5180 C   0  0  0  0  0  0  0  0  0  0  0  0
   -2.9980   19.5680  -33.8230 C   0  0  0  0  0  0  0  0  0  0  0  0
   -2.1940   18.5280  -34.2670 C   0  0  0  0  0  0  0  0  0  0  0  0
   -2.7600   17.2780  -34.3880 C   0  0  0  0  0  0  0  0  0  0  0  0
   -4.1070   17.0630  -34.0730 C   0  0  0  0  0  0  0  0  0  0  0  0
   -4.9140   18.0860  -33.6320 C   0  0  0  0  0  0  0  0  0  0  0  0
   -6.1960   17.8420  -33.3500 N   0  0  0  0  0  0  0  0  0  0  0  0
   -6.8290   16.5470  -33.4450 C   0  0  0  0  0  0  0  0  0  0  0  0
   -6.9590   18.8970  -32.9280 C   0  0  0  0  0  0  0  0  0  0  0  0
   -8.2950   18.7370  -32.6290 C   0  0  0  0  0  0  0  0  0  0  0  0
   -9.0970   19.7990  -32.2080 C   0  0  0  0  0  0  0  0  0  0  0  0
   -8.5450   21.0390  -32.0870 C   0  0  0  0  0  0  0  0  0  0  0  0
   -7.2120   21.2330  -32.3790 C   0  0  0  0  0  0  0  0  0  0  0  0
   -6.6960   22.5010  -32.2470 O   0  0  0  0  0  0  0  0  0  0  0  0
   -7.3700   23.6260  -31.7830 C   0  0  0  0  0  0  0  0  0  0  0  0
   -6.4120   20.1700  -32.7980 C   0  0  0  0  0  0  0  0  0  0  0  0
   -0.5409   27.0021  -26.2272 H   0  0  0  0  0  0  0  0  0  0  0  0
    0.4545   27.3436  -27.6830 H   0  0  0  0  0  0  0  0  0  0  0  0
   -1.2994   27.7314  -27.6830 H   0  0  0  0  0  0  0  0  0  0  0  0
    0.1144   25.1616  -28.0916 H   0  0  0  0  0  0  0  0  0  0  0  0
   -1.4071   25.1358  -27.0708 H   0  0  0  0  0  0  0  0  0  0  0  0
   -2.3960   24.0860  -27.9360 H   0  0  0  0  0  0  0  0  0  0  0  0
   -4.2954   22.8564  -28.3961 H   0  0  0  0  0  0  0  0  0  0  0  0
   -5.6532   23.8669  -28.9511 H   0  0  0  0  0  0  0  0  0  0  0  0
   -5.6850   22.0200  -30.3860 H   0  0  0  0  0  0  0  0  0  0  0  0
   -2.8494   22.0636  -30.0168 H   0  0  0  0  0  0  0  0  0  0  0  0
   -3.9406   20.7041  -30.3961 H   0  0  0  0  0  0  0  0  0  0  0  0
   -2.9038   22.8725  -32.3129 H   0  0  0  0  0  0  0  0  0  0  0  0
   -2.5752   21.0937  -32.3656 H   0  0  0  0  0  0  0  0  0  0  0  0
   -4.8510   22.4730  -33.5280 H   0  0  0  0  0  0  0  0  0  0  0  0
   -2.5788   20.5791  -33.7133 H   0  0  0  0  0  0  0  0  0  0  0  0
   -1.1357   18.6967  -34.5151 H   0  0  0  0  0  0  0  0  0  0  0  0
   -2.1443   16.4361  -34.7374 H   0  0  0  0  0  0  0  0  0  0  0  0
   -4.5296   16.0531  -34.1806 H   0  0  0  0  0  0  0  0  0  0  0  0
   -7.0196   16.1570  -32.4343 H   0  0  0  0  0  0  0  0  0  0  0  0
   -7.7816   16.6434  -33.9865 H   0  0  0  0  0  0  0  0  0  0  0  0
   -6.1678   15.8545  -33.9865 H   0  0  0  0  0  0  0  0  0  0  0  0
   -8.7447   17.7378  -32.7255 H   0  0  0  0  0  0  0  0  0  0  0  0
  -10.1602   19.6372  -31.9770 H   0  0  0  0  0  0  0  0  0  0  0  0
   -9.1639   21.8860  -31.7560 H   0  0  0  0  0  0  0  0  0  0  0  0
   -7.3699   23.6258  -30.6830 H   0  0  0  0  0  0  0  0  0  0  0  0
   -6.8661   24.5325  -32.1496 H   0  0  0  0  0  0  0  0  0  0  0  0
   -8.4070   23.6093  -32.1496 H   0  0  0  0  0  0  0  0  0  0  0  0
  1  2  1  0
  2  3  1  0
  3  4  1  0
  4  5  1  0
  5  6  2  0
  5  7  1  0
  7  8  1  0
  8  9  1  0
  9 10  1  0
 10 11  1  0
 11 12  1  0
 12 13  2  0
 13 14  1  0
 14 15  2  0
 15 16  1  0
 16 17  2  0
 17 18  1  0
 18 19  2  0
 19 20  1  0
 19 21  1  0
 21 22  2  0
 22 23  1  0
 23 24  2  0
 24 25  1  0
 25 26  1  0
 26 27  1  0
 25 28  2  0
 28 12  1  0
 18 13  1  0
 28 21  1  0
  1 29  1  0
  1 30  1  0
  1 31  1  0
  2 32  1  0
  2 33  1  0
  4 34  1  0
  7 35  1  0
  7 36  1  0
  8 37  1  0
  9 38  1  0
  9 39  1  0
 10 40  1  0
 10 41  1  0
 11 42  1  0
 14 43  1  0
 15 44  1  0
 16 45  1  0
 17 46  1  0
 20 47  1  0
 20 48  1  0
 20 49  1  0
 22 50  1  0
 23 51  1  0
 24 52  1  0
 27 53  1  0
 27 54  1  0
 27 55  1  0
M  CHG  1  19   1
M  END
>  <smiles>  (12) 
CCONC(=O)CNCCNc1c2ccccc2[n+](C)c2cccc(OC)c12

>  <score_type>  (12) 
oracle

>  <origin>  (12) 
adg

>  <m_score__min__energy>  (12) 
-8.9700000000000006

>  <m_primary>  (12) 
energy

$$$$
13:0
     RDKit          3D

 47 49  0  0  0  0  0  0  0  0999 V2000
   -6.1750   25.2890  -29.3220 C   0  0  0  0  0  0  0  0  0  0  0  0
   -5.6140   25.6490  -30.7140 C   0  0  0  0  0  0  0  0  0  0  0  0
   -4.5560   24.7590  -31.0690 N   0  0  0  0  0  0  0  0  0  0  0  0
   -4.2400   23.8930  -29.9650 C   0  0  0  0  0  0  0  0  0  0  0  0
   -3.5610   22.6630  -30.4700 C   0  0  0  0  0  0  0  0  0  0  0  0
   -3.1470   22.7810  -31.7970 O   0  0  0  0  0  0  0  0  0  0  0  0
   -2.1950   21.8740  -32.1830 C   0  0  0  0  0  0  0  0  0  0  0  0
   -2.9520   20.7840  -32.9530 C   0  0  0  0  0  0  0  0  0  0  0  0
   -4.2260   21.3610  -33.3150 N   0  0  0  0  0  0  0  0  0  0  0  0
   -5.4640   20.7320  -32.9990 C   0  0  0  0  0  0  0  0  0  0  0  0
   -5.7190   19.3970  -33.2560 C   0  0  0  0  0  0  0  0  0  0  0  0
   -4.7460   18.6250  -33.8390 C   0  0  0  0  0  0  0  0  0  0  0  0
   -5.0590   17.2960  -34.0710 C   0  0  0  0  0  0  0  0  0  0  0  0
   -6.2990   16.7690  -33.7300 C   0  0  0  0  0  0  0  0  0  0  0  0
   -7.2400   17.6080  -33.1410 C   0  0  0  0  0  0  0  0  0  0  0  0
   -6.9580   18.9190  -32.9010 C   0  0  0  0  0  0  0  0  0  0  0  0
   -7.9090   19.6940  -32.3250 N   0  0  0  0  0  0  0  0  0  0  0  0
   -9.1970   19.1340  -31.9730 C   0  0  0  0  0  0  0  0  0  0  0  0
   -7.6610   20.9950  -32.0750 C   0  0  0  0  0  0  0  0  0  0  0  0
   -8.3820   22.0370  -31.5180 C   0  0  0  0  0  0  0  0  0  0  0  0
   -7.5680   23.1580  -31.5360 C   0  0  0  0  0  0  0  0  0  0  0  0
   -6.4260   22.8190  -32.0710 O   0  0  0  0  0  0  0  0  0  0  0  0
   -6.4300   21.5390  -32.4090 C   0  0  0  0  0  0  0  0  0  0  0  0
   -5.5210   25.7086  -28.5434 H   0  0  0  0  0  0  0  0  0  0  0  0
   -7.1870   25.7068  -29.2153 H   0  0  0  0  0  0  0  0  0  0  0  0
   -6.2168   24.1950  -29.2153 H   0  0  0  0  0  0  0  0  0  0  0  0
   -6.4185   25.5717  -31.4602 H   0  0  0  0  0  0  0  0  0  0  0  0
   -5.2220   26.6764  -30.6862 H   0  0  0  0  0  0  0  0  0  0  0  0
   -4.7880   24.2590  -31.9450 H   0  0  0  0  0  0  0  0  0  0  0  0
   -3.5722   24.4191  -29.2669 H   0  0  0  0  0  0  0  0  0  0  0  0
   -5.1677   23.6104  -29.4459 H   0  0  0  0  0  0  0  0  0  0  0  0
   -2.6792   22.4655  -29.8428 H   0  0  0  0  0  0  0  0  0  0  0  0
   -4.2884   21.8392  -30.4217 H   0  0  0  0  0  0  0  0  0  0  0  0
   -1.4479   22.3542  -32.8321 H   0  0  0  0  0  0  0  0  0  0  0  0
   -1.6528   21.4607  -31.3198 H   0  0  0  0  0  0  0  0  0  0  0  0
   -2.3930   20.4959  -33.8555 H   0  0  0  0  0  0  0  0  0  0  0  0
   -3.0800   19.8769  -32.3441 H   0  0  0  0  0  0  0  0  0  0  0  0
   -4.3160   22.2820  -33.8350 H   0  0  0  0  0  0  0  0  0  0  0  0
   -3.7645   19.0417  -34.1092 H   0  0  0  0  0  0  0  0  0  0  0  0
   -4.3076   16.6413  -34.5367 H   0  0  0  0  0  0  0  0  0  0  0  0
   -6.5316   15.7111  -33.9217 H   0  0  0  0  0  0  0  0  0  0  0  0
   -8.2263   17.2067  -32.8651 H   0  0  0  0  0  0  0  0  0  0  0  0
   -9.2919   19.0927  -30.8779 H   0  0  0  0  0  0  0  0  0  0  0  0
   -9.9969   19.7656  -32.3868 H   0  0  0  0  0  0  0  0  0  0  0  0
   -9.2807   18.1183  -32.3868 H   0  0  0  0  0  0  0  0  0  0  0  0
   -9.4109   21.9847  -31.1324 H   0  0  0  0  0  0  0  0  0  0  0  0
   -7.8366   24.1580  -31.1648 H   0  0  0  0  0  0  0  0  0  0  0  0
  1  2  1  0
  2  3  1  0
  3  4  1  0
  4  5  1  0
  5  6  1  0
  6  7  1  0
  7  8  1  0
  8  9  1  0
  9 10  1  0
 10 11  2  0
 11 12  1  0
 12 13  2  0
 13 14  1  0
 14 15  2  0
 15 16  1  0
 16 17  2  0
 17 18  1  0
 17 19  1  0
 19 20  1  0
 20 21  2  0
 21 22  1  0
 22 23  1  0
 23 10  1  0
 16 11  1  0
 23 19  2  0
  1 24  1  0
  1 25  1  0
  1 26  1  0
  2 27  1  0
  2 28  1  0
  3 29  1  0
  4 30  1  0
  4 31  1  0
  5 32  1  0
  5 33  1  0
  7 34  1  0
  7 35  1  0
  8 36  1  0
  8 37  1  0
  9 38  1  0
 12 39  1  0
 13 40  1  0
 14 41  1  0
 15 42  1  0
 18 43  1  0
 18 44  1  0
 18 45  1  0
 20 46  1  0
 21 47  1  0
M  CHG  1  17   1
M  END
>  <smiles>  (13) 
CCNCCOCCNc1c2ccccc2[n+](C)c2ccoc12

>  <score_type>  (13) 
oracle

>  <origin>  (13) 
adg

>  <m_score__min__energy>  (13) 
-8.0600000000000005

>  <m_primary>  (13) 
energy

$$$$
14:0
     RDKit          3D

 43 46  0  0  0  0  0  0  0  0999 V2000
   -9.0370   21.4830  -31.7750 C   0  0  0  0  0  0  0  0  0  0  0  0
   -7.6680   20.9640  -31.8910 N   0  0  0  0  0  0  0  0  0  0  0  0
   -6.5540   21.6680  -31.7280 C   0  0  0  0  0  0  0  0  0  0  0  0
   -5.5030   20.7970  -31.9250 C   0  0  0  0  0  0  0  0  0  0  0  0
   -6.0060   19.5490  -32.2120 C   0  0  0  0  0  0  0  0  0  0  0  0
   -5.4320   18.3060  -32.4960 C   0  0  0  0  0  0  0  0  0  0  0  0
   -6.2650   17.2200  -32.7470 C   0  0  0  0  0  0  0  0  0  0  0  0
   -7.6380   17.3780  -32.7140 C   0  0  0  0  0  0  0  0  0  0  0  0
   -8.2200   18.6040  -32.4340 C   0  0  0  0  0  0  0  0  0  0  0  0
   -7.3780   19.6850  -32.1840 C   0  0  0  0  0  0  0  0  0  0  0  0
   -4.0840   21.2220  -31.8240 C   0  0  0  0  0  0  0  0  0  0  0  0
   -3.9190   22.7120  -31.8410 C   0  0  0  0  0  0  0  0  0  0  0  0
   -4.9790   23.4490  -31.2260 N   0  0  0  0  0  0  0  0  0  0  0  0
   -4.6940   24.5750  -30.4050 C   0  0  0  0  0  0  0  0  0  0  0  0
   -4.2770   25.6740  -30.8550 O   0  0  0  0  0  0  0  0  0  0  0  0
   -4.8890   24.4740  -28.9190 C   0  0  0  0  0  0  0  0  0  0  0  0
   -3.8210   23.6770  -28.3090 C   0  0  0  0  0  0  0  0  0  0  0  0
   -2.7820   24.3590  -27.6910 C   0  0  0  0  0  0  0  0  0  0  0  0
   -1.7340   23.7190  -27.0910 C   0  0  0  0  0  0  0  0  0  0  0  0
   -1.7180   22.3370  -27.1040 C   0  0  0  0  0  0  0  0  0  0  0  0
   -2.7260   21.6170  -27.7040 C   0  0  0  0  0  0  0  0  0  0  0  0
   -3.7720   22.2990  -28.3040 C   0  0  0  0  0  0  0  0  0  0  0  0
   -6.3780   23.1030  -31.3980 C   0  0  0  0  0  0  0  0  0  0  0  0
   -9.3022   21.5835  -30.7122 H   0  0  0  0  0  0  0  0  0  0  0  0
   -9.0987   22.4669  -32.2630 H   0  0  0  0  0  0  0  0  0  0  0  0
   -9.7355   20.7873  -32.2630 H   0  0  0  0  0  0  0  0  0  0  0  0
   -4.3386   18.1884  -32.5206 H   0  0  0  0  0  0  0  0  0  0  0  0
   -5.8306   16.2348  -32.9719 H   0  0  0  0  0  0  0  0  0  0  0  0
   -8.2835   16.5102  -32.9147 H   0  0  0  0  0  0  0  0  0  0  0  0
   -9.3136   18.7200  -32.4099 H   0  0  0  0  0  0  0  0  0  0  0  0
   -3.6673   20.8334  -30.8831 H   0  0  0  0  0  0  0  0  0  0  0  0
   -3.5559   20.8212  -32.7018 H   0  0  0  0  0  0  0  0  0  0  0  0
   -2.9845   22.9569  -31.3150 H   0  0  0  0  0  0  0  0  0  0  0  0
   -3.9170   23.0068  -32.9007 H   0  0  0  0  0  0  0  0  0  0  0  0
   -4.8789   25.4843  -28.4841 H   0  0  0  0  0  0  0  0  0  0  0  0
   -5.8533   23.9829  -28.7216 H   0  0  0  0  0  0  0  0  0  0  0  0
   -2.8029   25.4588  -27.6839 H   0  0  0  0  0  0  0  0  0  0  0  0
   -0.9248   24.2886  -26.6106 H   0  0  0  0  0  0  0  0  0  0  0  0
   -0.8840   21.8025  -26.6258 H   0  0  0  0  0  0  0  0  0  0  0  0
   -2.7014   20.5173  -27.7071 H   0  0  0  0  0  0  0  0  0  0  0  0
   -4.5801   21.7295  -28.7864 H   0  0  0  0  0  0  0  0  0  0  0  0
   -6.9164   23.3222  -30.4641 H   0  0  0  0  0  0  0  0  0  0  0  0
   -6.7769   23.6973  -32.2333 H   0  0  0  0  0  0  0  0  0  0  0  0
  1  2  1  0
  2  3  1  0
  3  4  2  0
  4  5  1  0
  5  6  2  0
  6  7  1  0
  7  8  2  0
  8  9  1  0
  9 10  2  0
  4 11  1  0
 11 12  1  0
 12 13  1  0
 13 14  1  0
 14 15  2  0
 14 16  1  0
 16 17  1  0
 17 18  2  0
 18 19  1  0
 19 20  2  0
 20 21  1  0
 21 22  2  0
 13 23  1  0
 10  2  1  0
 22 17  1  0
 23  3  1  0
 10  5  1  0
  1 24  1  0
  1 25  1  0
  1 26  1  0
  6 27  1  0
  7 28  1  0
  8 29  1  0
  9 30  1  0
 11 31  1  0
 11 32  1  0
 12 33  1  0
 12 34  1  0
 16 35  1  0
 16 36  1  0
 18 37  1  0
 19 38  1  0
 20 39  1  0
 21 40  1  0
 22 41  1  0
 23 42  1  0
 23 43  1  0
M  END
>  <smiles>  (14) 
Cn1c2c(c3ccccc31)CCN(C(=O)Cc1ccccc1)C2

>  <score_type>  (14) 
oracle

>  <origin>  (14) 
adg

>  <m_score__min__energy>  (14) 
-9.1799999999999997

>  <m_primary>  (14) 
energy

$$$$
15:0
     RDKit          3D

 41 43  0  0  1  0  0  0  0  0999 V2000
   -3.7360   22.3910  -27.9500 C   0  0  0  0  0  0  0  0  0  0  0  0
   -4.0240   23.8670  -28.2490 C   0  0  0  0  0  0  0  0  0  0  0  0
   -4.6540   24.0290  -29.5850 C   0  0  0  0  0  0  0  0  0  0  0  0
   -4.2460   24.9030  -30.5300 N   0  0  0  0  0  0  0  0  0  0  0  0
   -4.9940   24.8080  -31.5830 O   0  0  0  0  0  0  0  0  0  0  0  0
   -5.9080   23.8840  -31.3800 C   0  0  0  0  0  0  0  0  0  0  0  0
   -6.9870   23.4430  -32.3360 C   0  0  0  0  0  0  0  0  0  0  0  0
   -7.6500   22.3070  -31.7180 N   0  0  0  0  0  0  0  0  0  0  0  0
   -9.0830   22.5580  -31.9700 C   0  0  0  0  0  0  0  0  0  0  0  0
   -9.7910   21.2450  -31.7810 C   0  0  0  0  0  0  0  0  0  0  0  0
   -8.6790   20.2690  -31.8610 C   0  0  1  0  0  0  0  0  0  0  0  0
   -8.8440   19.2230  -32.7230 O   0  0  0  0  0  0  0  0  0  0  0  0
   -7.8130   18.3280  -32.6180 C   0  0  0  0  0  0  0  0  0  0  0  0
   -6.6010   18.8220  -31.9480 C   0  0  0  0  0  0  0  0  0  0  0  0
   -5.8050   18.0250  -31.3880 O   0  0  0  0  0  0  0  0  0  0  0  0
   -6.3550   20.2520  -31.9550 N   0  0  0  0  0  0  0  0  0  0  0  0
   -5.0750   20.7230  -31.5530 C   0  0  0  0  0  0  0  0  0  0  0  0
   -4.3350   21.4490  -32.6550 C   0  0  0  0  0  0  0  0  0  0  0  0
   -3.5540   22.4950  -32.2070 O   0  0  0  0  0  0  0  0  0  0  0  0
   -7.4690   21.0670  -32.3800 C   0  0  2  0  0  0  0  0  0  0  0  0
   -5.7000   23.3910  -30.1240 N   0  0  0  0  0  0  0  0  0  0  0  0
   -3.7059   22.2365  -26.8613 H   0  0  0  0  0  0  0  0  0  0  0  0
   -4.5293   21.7668  -28.3871 H   0  0  0  0  0  0  0  0  0  0  0  0
   -2.7662   22.1108  -28.3871 H   0  0  0  0  0  0  0  0  0  0  0  0
   -4.7042   24.2632  -27.4806 H   0  0  0  0  0  0  0  0  0  0  0  0
   -3.0715   24.4171  -28.2428 H   0  0  0  0  0  0  0  0  0  0  0  0
   -7.7060   24.2592  -32.4996 H   0  0  0  0  0  0  0  0  0  0  0  0
   -6.5636   23.1714  -33.3142 H   0  0  0  0  0  0  0  0  0  0  0  0
   -9.4685   23.3026  -31.2580 H   0  0  0  0  0  0  0  0  0  0  0  0
   -9.2435   22.9518  -32.9845 H   0  0  0  0  0  0  0  0  0  0  0  0
  -10.2905   21.1996  -30.8020 H   0  0  0  0  0  0  0  0  0  0  0  0
  -10.5873   21.0651  -32.5183 H   0  0  0  0  0  0  0  0  0  0  0  0
   -8.5857   19.8197  -30.8613 H   0  0  0  0  0  0  0  0  0  0  0  0
   -8.1786   17.4569  -32.0545 H   0  0  0  0  0  0  0  0  0  0  0  0
   -7.5106   18.0990  -33.6505 H   0  0  0  0  0  0  0  0  0  0  0  0
   -5.2062   21.4129  -30.7064 H   0  0  0  0  0  0  0  0  0  0  0  0
   -4.4737   19.8435  -31.2793 H   0  0  0  0  0  0  0  0  0  0  0  0
   -3.6847   20.7267  -33.1702 H   0  0  0  0  0  0  0  0  0  0  0  0
   -5.0964   21.8806  -33.3214 H   0  0  0  0  0  0  0  0  0  0  0  0
   -3.9860   22.9340  -31.4510 H   0  0  0  0  0  0  0  0  0  0  0  0
   -7.3301   21.2697  -33.4522 H   0  0  0  0  0  0  0  0  0  0  0  0
  1  2  1  0
  2  3  1  0
  3  4  2  0
  4  5  1  0
  5  6  1  0
  6  7  1  0
  7  8  1  0
  8  9  1  0
  9 10  1  0
 10 11  1  0
 11 12  1  0
 12 13  1  0
 13 14  1  0
 14 15  2  0
 14 16  1  0
 16 17  1  0
 17 18  1  0
 18 19  1  0
 16 20  1  0
  6 21  2  0
 21  3  1  0
 20  8  1  0
 20 11  1  0
  1 22  1  0
  1 23  1  0
  1 24  1  0
  2 25  1  0
  2 26  1  0
  7 27  1  0
  7 28  1  0
  9 29  1  0
  9 30  1  0
 10 31  1  0
 10 32  1  0
 11 33  1  1
 13 34  1  0
 13 35  1  0
 17 36  1  0
 17 37  1  0
 18 38  1  0
 18 39  1  0
 19 40  1  0
 20 41  1  6
M  END
>  <smiles>  (15) 
CCc1noc(CN2CCC3OCC(=O)N(CCO)C32)n1

>  <score_type>  (15) 
oracle

>  <origin>  (15) 
adg

>  <m_score__min__energy>  (15) 
-7.7599999999999998

>  <m_primary>  (15) 
energy

$$$$
16:0
     RDKit          3D

 75 78  0  0  0  0  0  0  0  0999 V2000
   -6.4340   24.8280  -30.1430 C   0  0  0  0  0  0  0  0  0  0  0  0
   -5.1810   25.5910  -30.4600 C   0  0  0  0  0  0  0  0  0  0  0  0
   -4.0200   24.6480  -30.5450 N   0  0  0  0  0  0  0  0  0  0  0  0
   -3.5740   24.5630  -29.1670 C   0  0  0  0  0  0  0  0  0  0  0  0
   -2.0900   24.5700  -28.9710 C   0  0  0  0  0  0  0  0  0  0  0  0
   -4.6250   23.4360  -31.0120 C   0  0  0  0  0  0  0  0  0  0  0  0
   -3.9160   22.5530  -31.9240 C   0  0  0  0  0  0  0  0  0  0  0  0
   -4.5190   22.0810  -33.1250 N   0  0  0  0  0  0  0  0  0  0  0  0
   -5.0860   20.7640  -33.0880 C   0  0  0  0  0  0  0  0  0  0  0  0
   -6.4330   20.7460  -32.6890 C   0  0  0  0  0  0  0  0  0  0  0  0
   -7.0630   21.9400  -32.3100 C   0  0  0  0  0  0  0  0  0  0  0  0
   -8.3820   21.9740  -31.9050 C   0  0  0  0  0  0  0  0  0  0  0  0
   -9.0720   20.8040  -31.8820 C   0  0  0  0  0  0  0  0  0  0  0  0
   -8.4710   19.6230  -32.2500 C   0  0  0  0  0  0  0  0  0  0  0  0
   -7.1560   19.5750  -32.6560 C   0  0  0  0  0  0  0  0  0  0  0  0
   -6.5390   18.4390  -33.0140 N   0  0  0  0  0  0  0  0  0  0  0  0
   -7.2240   17.1760  -33.0210 C   0  0  0  0  0  0  0  0  0  0  0  0
   -5.2350   18.4380  -33.4010 C   0  0  0  0  0  0  0  0  0  0  0  0
   -4.6810   17.2290  -33.7630 C   0  0  0  0  0  0  0  0  0  0  0  0
   -3.3820   17.2000  -34.1650 C   0  0  0  0  0  0  0  0  0  0  0  0
   -2.6380   18.3780  -34.2010 C   0  0  0  0  0  0  0  0  0  0  0  0
   -3.1630   19.6030  -33.8430 C   0  0  0  0  0  0  0  0  0  0  0  0
   -2.3130   20.7230  -33.8660 N   0  0  0  0  0  0  0  0  0  0  0  0
   -0.9680   20.6660  -33.2450 C   0  0  0  0  0  0  0  0  0  0  0  0
   -0.9940   20.2140  -31.8320 C   0  0  0  0  0  0  0  0  0  0  0  0
   -0.9170   21.3770  -30.8490 C   0  0  0  0  0  0  0  0  0  0  0  0
   -1.3570   20.8240  -29.5600 N   0  0  0  0  0  0  0  0  0  0  0  0
   -2.5790   21.1630  -29.1030 C   0  0  0  0  0  0  0  0  0  0  0  0
   -2.9890   20.6450  -27.8940 C   0  0  0  0  0  0  0  0  0  0  0  0
   -2.1560   19.8090  -27.1940 C   0  0  0  0  0  0  0  0  0  0  0  0
   -2.5720   19.2790  -25.9430 N   0  0  0  0  0  0  0  0  0  0  0  0
   -3.8410   18.5500  -25.9070 C   0  0  0  0  0  0  0  0  0  0  0  0
   -0.9180   19.4960  -27.7080 C   0  0  0  0  0  0  0  0  0  0  0  0
   -0.5160   20.0150  -28.9100 C   0  0  0  0  0  0  0  0  0  0  0  0
   -4.4800   19.6100  -33.4430 C   0  0  0  0  0  0  0  0  0  0  0  0
   -6.5530   24.7555  -29.0519 H   0  0  0  0  0  0  0  0  0  0  0  0
   -7.3008   25.3517  -30.5724 H   0  0  0  0  0  0  0  0  0  0  0  0
   -6.3665   23.8175  -30.5724 H   0  0  0  0  0  0  0  0  0  0  0  0
   -5.3024   26.1084  -31.4231 H   0  0  0  0  0  0  0  0  0  0  0  0
   -4.9932   26.3272  -29.6646 H   0  0  0  0  0  0  0  0  0  0  0  0
   -3.9925   25.4215  -28.6213 H   0  0  0  0  0  0  0  0  0  0  0  0
   -3.9244   23.5891  -28.7945 H   0  0  0  0  0  0  0  0  0  0  0  0
   -1.8623   24.5711  -27.8948 H   0  0  0  0  0  0  0  0  0  0  0  0
   -1.6544   23.6739  -29.4371 H   0  0  0  0  0  0  0  0  0  0  0  0
   -1.6628   25.4702  -29.4371 H   0  0  0  0  0  0  0  0  0  0  0  0
   -4.8622   22.8394  -30.1188 H   0  0  0  0  0  0  0  0  0  0  0  0
   -5.4607   23.8016  -31.6268 H   0  0  0  0  0  0  0  0  0  0  0  0
   -3.0025   23.0869  -32.2249 H   0  0  0  0  0  0  0  0  0  0  0  0
   -3.8185   21.6314  -31.3314 H   0  0  0  0  0  0  0  0  0  0  0  0
   -4.5690   22.5600  -34.0470 H   0  0  0  0  0  0  0  0  0  0  0  0
   -6.4887   22.8778  -32.3363 H   0  0  0  0  0  0  0  0  0  0  0  0
   -8.8600   22.9197  -31.6098 H   0  0  0  0  0  0  0  0  0  0  0  0
  -10.1253   20.8012  -31.5649 H   0  0  0  0  0  0  0  0  0  0  0  0
   -9.0562   18.6921  -32.2192 H   0  0  0  0  0  0  0  0  0  0  0  0
   -7.4012   16.8493  -31.9857 H   0  0  0  0  0  0  0  0  0  0  0  0
   -8.1871   17.2841  -33.5413 H   0  0  0  0  0  0  0  0  0  0  0  0
   -6.6081   16.4277  -33.5413 H   0  0  0  0  0  0  0  0  0  0  0  0
   -5.2778   16.3056  -33.7275 H   0  0  0  0  0  0  0  0  0  0  0  0
   -2.9189   16.2473  -34.4616 H   0  0  0  0  0  0  0  0  0  0  0  0
   -1.5890   18.3293  -34.5283 H   0  0  0  0  0  0  0  0  0  0  0  0
   -2.4840   21.6610  -34.2370 H   0  0  0  0  0  0  0  0  0  0  0  0
   -0.3453   19.9679  -33.8237 H   0  0  0  0  0  0  0  0  0  0  0  0
   -0.5611   21.6880  -33.2533 H   0  0  0  0  0  0  0  0  0  0  0  0
   -1.9291   19.6626  -31.6545 H   0  0  0  0  0  0  0  0  0  0  0  0
   -0.1130   19.5763  -31.6673 H   0  0  0  0  0  0  0  0  0  0  0  0
    0.1145   21.7520  -30.7756 H   0  0  0  0  0  0  0  0  0  0  0  0
   -1.5417   22.2249  -31.1666 H   0  0  0  0  0  0  0  0  0  0  0  0
   -3.2313   21.8351  -29.6798 H   0  0  0  0  0  0  0  0  0  0  0  0
   -3.9803   20.9006  -27.4914 H   0  0  0  0  0  0  0  0  0  0  0  0
   -1.9960   19.4020  -25.0810 H   0  0  0  0  0  0  0  0  0  0  0  0
   -4.1367   18.3801  -24.8612 H   0  0  0  0  0  0  0  0  0  0  0  0
   -4.6173   19.1398  -26.4164 H   0  0  0  0  0  0  0  0  0  0  0  0
   -3.7225   17.5823  -26.4164 H   0  0  0  0  0  0  0  0  0  0  0  0
   -0.2478   18.8253  -27.1503 H   0  0  0  0  0  0  0  0  0  0  0  0
    0.4719   19.7724  -29.3285 H   0  0  0  0  0  0  0  0  0  0  0  0
  1  2  1  0
  2  3  1  0
  3  4  1  0
  4  5  1  0
  3  6  1  0
  6  7  1  0
  7  8  1  0
  8  9  1  0
  9 10  2  0
 10 11  1  0
 11 12  2  0
 12 13  1  0
 13 14  2  0
 14 15  1  0
 15 16  2  0
 16 17  1  0
 16 18  1  0
 18 19  2  0
 19 20  1  0
 20 21  2  0
 21 22  1  0
 22 23  1  0
 23 24  1  0
 24 25  1  0
 25 26  1  0
 26 27  1  0
 27 28  2  0
 28 29  1  0
 29 30  2  0
 30 31  1  0
 31 32  1  0
 30 33  1  0
 33 34  2  0
 22 35  2  0
 35  9  1  0
 15 10  1  0
 35 18  1  0
 34 27  1  0
  1 36  1  0
  1 37  1  0
  1 38  1  0
  2 39  1  0
  2 40  1  0
  4 41  1  0
  4 42  1  0
  5 43  1  0
  5 44  1  0
  5 45  1  0
  6 46  1  0
  6 47  1  0
  7 48  1  0
  7 49  1  0
  8 50  1  0
 11 51  1  0
 12 52  1  0
 13 53  1  0
 14 54  1  0
 17 55  1  0
 17 56  1  0
 17 57  1  0
 19 58  1  0
 20 59  1  0
 21 60  1  0
 23 61  1  0
 24 62  1  0
 24 63  1  0
 25 64  1  0
 25 65  1  0
 26 66  1  0
 26 67  1  0
 28 68  1  0
 29 69  1  0
 31 70  1  0
 32 71  1  0
 32 72  1  0
 32 73  1  0
 33 74  1  0
 34 75  1  0
M  CHG  2  16   1  27   1
M  END
>  <smiles>  (16) 
CCN(CC)CCNc1c2ccccc2[n+](C)c2cccc(NCCC[n+]3ccc(NC)cc3)c12

>  <score_type>  (16) 
oracle

>  <origin>  (16) 
adg

>  <m_score__min__energy>  (16) 
-10.279999999999999

>  <m_primary>  (16) 
energy

$$$$
17:0
     RDKit          3D

 57 61  0  0  1  0  0  0  0  0999 V2000
   -6.2100   18.8800  -34.2270 C   0  0  0  0  0  0  0  0  0  0  0  0
   -6.1880   18.1260  -33.0160 N   0  0  0  0  0  0  0  0  0  0  0  0
   -5.5690   16.9700  -32.7600 C   0  0  0  0  0  0  0  0  0  0  0  0
   -4.5270   15.9100  -33.6880 S   0  0  0  0  0  0  0  0  0  0  0  0
   -3.6370   16.5900  -35.0420 C   0  0  0  0  0  0  0  0  0  0  0  0
   -2.2140   16.9700  -34.8090 C   0  0  0  0  0  0  0  0  0  0  0  0
   -2.0400   17.8230  -33.5650 C   0  0  0  0  0  0  0  0  0  0  0  0
   -1.9090   19.2190  -33.9210 N   0  0  0  0  0  0  0  0  0  0  0  0
   -3.1550   19.9500  -33.6150 C   0  0  0  0  0  0  0  0  0  0  0  0
   -2.6120   20.9940  -32.7140 C   0  0  1  0  0  0  0  0  0  0  0  0
   -3.4380   21.9840  -32.0990 C   0  0  0  0  0  0  0  0  0  0  0  0
   -4.6280   22.4760  -32.6370 C   0  0  0  0  0  0  0  0  0  0  0  0
   -5.3730   23.4460  -31.9640 C   0  0  0  0  0  0  0  0  0  0  0  0
   -4.9700   23.9470  -30.7610 C   0  0  0  0  0  0  0  0  0  0  0  0
   -5.7180   24.9760  -29.9930 C   0  0  0  0  0  0  0  0  0  0  0  0
   -5.4160   26.2500  -30.4230 F   0  0  0  0  0  0  0  0  0  0  0  0
   -5.3770   24.8690  -28.6670 F   0  0  0  0  0  0  0  0  0  0  0  0
   -7.0590   24.7630  -30.1920 F   0  0  0  0  0  0  0  0  0  0  0  0
   -3.8040   23.4750  -30.2150 C   0  0  0  0  0  0  0  0  0  0  0  0
   -3.0590   22.5220  -30.8640 C   0  0  0  0  0  0  0  0  0  0  0  0
   -1.6740   20.1890  -31.8120 C   0  0  0  0  0  0  0  0  0  0  0  0
   -0.9750   19.9390  -33.1380 C   0  0  2  0  0  0  0  0  0  0  0  0
   -1.3440   21.3950  -33.4360 C   0  0  0  0  0  0  0  0  0  0  0  0
   -5.8860   16.6710  -31.4480 N   0  0  0  0  0  0  0  0  0  0  0  0
   -6.6530   17.6210  -30.9800 N   0  0  0  0  0  0  0  0  0  0  0  0
   -6.8750   18.5440  -31.9010 C   0  0  0  0  0  0  0  0  0  0  0  0
   -7.6800   19.7750  -31.7940 C   0  0  0  0  0  0  0  0  0  0  0  0
   -7.1820   20.9290  -31.2250 C   0  0  0  0  0  0  0  0  0  0  0  0
   -8.0530   22.0140  -31.1930 C   0  0  0  0  0  0  0  0  0  0  0  0
   -9.3360   21.9450  -31.6970 C   0  0  0  0  0  0  0  0  0  0  0  0
   -9.8210   20.7840  -32.2630 C   0  0  0  0  0  0  0  0  0  0  0  0
   -8.9680   19.6960  -32.3030 C   0  0  0  0  0  0  0  0  0  0  0  0
   -6.2413   19.9537  -33.9899 H   0  0  0  0  0  0  0  0  0  0  0  0
   -5.3051   18.6600  -34.8124 H   0  0  0  0  0  0  0  0  0  0  0  0
   -7.1006   18.6076  -34.8124 H   0  0  0  0  0  0  0  0  0  0  0  0
   -3.6510   15.8463  -35.8524 H   0  0  0  0  0  0  0  0  0  0  0  0
   -4.1475   17.5385  -35.2651 H   0  0  0  0  0  0  0  0  0  0  0  0
   -1.6174   16.0529  -34.6950 H   0  0  0  0  0  0  0  0  0  0  0  0
   -1.8791   17.5633  -35.6726 H   0  0  0  0  0  0  0  0  0  0  0  0
   -2.9175   17.6965  -32.9139 H   0  0  0  0  0  0  0  0  0  0  0  0
   -1.1280   17.5032  -33.0396 H   0  0  0  0  0  0  0  0  0  0  0  0
   -3.6088   20.3834  -34.5185 H   0  0  0  0  0  0  0  0  0  0  0  0
   -3.9637   19.3383  -33.1885 H   0  0  0  0  0  0  0  0  0  0  0  0
   -4.9840   22.0940  -33.6052 H   0  0  0  0  0  0  0  0  0  0  0  0
   -6.3065   23.8148  -32.4142 H   0  0  0  0  0  0  0  0  0  0  0  0
   -3.4615   23.8648  -29.2451 H   0  0  0  0  0  0  0  0  0  0  0  0
   -2.1289   22.1678  -30.3955 H   0  0  0  0  0  0  0  0  0  0  0  0
   -2.1146   19.3056  -31.3268 H   0  0  0  0  0  0  0  0  0  0  0  0
   -1.1839   20.5799  -30.9081 H   0  0  0  0  0  0  0  0  0  0  0  0
    0.0262   19.4926  -33.2298 H   0  0  0  0  0  0  0  0  0  0  0  0
   -1.4581   21.6534  -34.4991 H   0  0  0  0  0  0  0  0  0  0  0  0
   -0.7229   22.2645  -33.1747 H   0  0  0  0  0  0  0  0  0  0  0  0
   -6.1603   20.9878  -30.8218 H   0  0  0  0  0  0  0  0  0  0  0  0
   -7.7067   22.9597  -30.7505 H   0  0  0  0  0  0  0  0  0  0  0  0
   -9.9841   22.8324  -31.6465 H   0  0  0  0  0  0  0  0  0  0  0  0
  -10.8431   20.7261  -32.6655 H   0  0  0  0  0  0  0  0  0  0  0  0
   -9.3170   18.7516  -32.7461 H   0  0  0  0  0  0  0  0  0  0  0  0
  1  2  1  0
  2  3  1  0
  3  4  1  0
  4  5  1  0
  5  6  1  0
  6  7  1  0
  7  8  1  0
  8  9  1  0
  9 10  1  0
 10 11  1  1
 11 12  2  0
 12 13  1  0
 13 14  2  0
 14 15  1  0
 15 16  1  0
 15 17  1  0
 15 18  1  0
 14 19  1  0
 19 20  2  0
 10 21  1  0
 21 22  1  0
 22 23  1  0
  3 24  2  0
 24 25  1  0
 25 26  2  0
 26 27  1  0
 27 28  2  0
 28 29  1  0
 29 30  2  0
 30 31  1  0
 31 32  2  0
 26  2  1  0
 32 27  1  0
 22  8  1  0
 23 10  1  0
 20 11  1  0
  1 33  1  0
  1 34  1  0
  1 35  1  0
  5 36  1  0
  5 37  1  0
  6 38  1  0
  6 39  1  0
  7 40  1  0
  7 41  1  0
  9 42  1  0
  9 43  1  0
 12 44  1  0
 13 45  1  0
 19 46  1  0
 20 47  1  0
 21 48  1  0
 21 49  1  0
 22 50  1  1
 23 51  1  0
 23 52  1  0
 28 53  1  0
 29 54  1  0
 30 55  1  0
 31 56  1  0
 32 57  1  0
M  END
>  <smiles>  (17) 
Cn1c(SCCCN2CC3(c4ccc(C(F)(F)F)cc4)CC2C3)nnc1-c1ccccc1

>  <score_type>  (17) 
oracle

>  <origin>  (17) 
adg

>  <m_score__min__energy>  (17) 
-10.4

>  <m_primary>  (17) 
energy

$$$$
18:0
     RDKit          3D

 45 46  0  0  1  0  0  0  0  0999 V2000
   -6.2740   24.6290  -30.8310 C   0  0  0  0  0  0  0  0  0  0  0  0
   -5.2380   25.3130  -29.9700 C   0  0  0  0  0  0  0  0  0  0  0  0
   -3.9210   25.1740  -30.4670 O   0  0  0  0  0  0  0  0  0  0  0  0
   -3.5000   23.8970  -30.8360 N   0  0  0  0  0  0  0  0  0  0  0  0
   -2.5490   23.3690  -30.1650 C   0  0  0  0  0  0  0  0  0  0  0  0
   -2.0850   21.9630  -30.3370 C   0  0  0  0  0  0  0  0  0  0  0  0
   -1.4930   21.8660  -31.7210 C   0  0  0  0  0  0  0  0  0  0  0  0
   -2.3650   21.1510  -32.5800 N   0  0  0  0  0  0  0  0  0  0  0  0
   -3.4150   21.8980  -33.1630 C   0  0  0  0  0  0  0  0  0  0  0  0
   -4.6710   21.6520  -32.3250 C   0  0  0  0  0  0  0  0  0  0  0  0
   -5.0230   20.2760  -32.4170 N   0  0  0  0  0  0  0  0  0  0  0  0
   -6.3770   19.8350  -32.3020 C   0  0  0  0  0  0  0  0  0  0  0  0
   -6.7300   18.5020  -32.3180 C   0  0  0  0  0  0  0  0  0  0  0  0
   -8.0460   18.0750  -32.2050 C   0  0  0  0  0  0  0  0  0  0  0  0
   -9.0600   18.9990  -32.0680 C   0  0  0  0  0  0  0  0  0  0  0  0
   -8.7290   20.3490  -32.0480 C   0  0  0  0  0  0  0  0  0  0  0  0
   -9.8610   21.2990  -31.8990 C   0  0  0  0  0  0  0  0  0  0  0  0
   -7.4130   20.7520  -32.1630 C   0  0  0  0  0  0  0  0  0  0  0  0
   -3.9820   19.2990  -32.6290 C   0  0  0  0  0  0  0  0  0  0  0  0
   -2.6120   19.7900  -32.2800 C   0  0  0  0  0  0  0  0  0  0  0  0
   -7.0187   24.1373  -30.1878 H   0  0  0  0  0  0  0  0  0  0  0  0
   -6.7737   25.3753  -31.4661 H   0  0  0  0  0  0  0  0  0  0  0  0
   -5.7840   23.8763  -31.4661 H   0  0  0  0  0  0  0  0  0  0  0  0
   -5.4802   26.3847  -29.9164 H   0  0  0  0  0  0  0  0  0  0  0  0
   -5.2665   24.8331  -28.9806 H   0  0  0  0  0  0  0  0  0  0  0  0
   -2.0411   23.9912  -29.4134 H   0  0  0  0  0  0  0  0  0  0  0  0
   -1.3233   21.7204  -29.5814 H   0  0  0  0  0  0  0  0  0  0  0  0
   -2.9173   21.2546  -30.2131 H   0  0  0  0  0  0  0  0  0  0  0  0
   -1.3389   22.8788  -32.1216 H   0  0  0  0  0  0  0  0  0  0  0  0
   -0.5322   21.3336  -31.6627 H   0  0  0  0  0  0  0  0  0  0  0  0
   -3.1629   22.9687  -33.1574 H   0  0  0  0  0  0  0  0  0  0  0  0
   -3.5778   21.5905  -34.2065 H   0  0  0  0  0  0  0  0  0  0  0  0
   -4.4717   21.9130  -31.2752 H   0  0  0  0  0  0  0  0  0  0  0  0
   -5.4972   22.2744  -32.6993 H   0  0  0  0  0  0  0  0  0  0  0  0
   -5.9371   17.7470  -32.4246 H   0  0  0  0  0  0  0  0  0  0  0  0
   -8.2796   17.0003  -32.2248 H   0  0  0  0  0  0  0  0  0  0  0  0
  -10.1073   18.6753  -31.9766 H   0  0  0  0  0  0  0  0  0  0  0  0
  -10.0608   21.4666  -30.8304 H   0  0  0  0  0  0  0  0  0  0  0  0
   -9.6029   22.2549  -32.3781 H   0  0  0  0  0  0  0  0  0  0  0  0
  -10.7577   20.8790  -32.3781 H   0  0  0  0  0  0  0  0  0  0  0  0
   -7.1783   21.8265  -32.1441 H   0  0  0  0  0  0  0  0  0  0  0  0
   -4.2026   18.4173  -32.0094 H   0  0  0  0  0  0  0  0  0  0  0  0
   -3.9747   19.0671  -33.7043 H   0  0  0  0  0  0  0  0  0  0  0  0
   -2.4645   19.6476  -31.1993 H   0  0  0  0  0  0  0  0  0  0  0  0
   -1.9126   19.2091  -32.8993 H   0  0  0  0  0  0  0  0  0  0  0  0
  1  2  1  0
  2  3  1  0
  3  4  1  0
  4  5  2  0
  5  6  1  0
  6  7  1  0
  7  8  1  0
  8  9  1  0
  9 10  1  0
 10 11  1  0
 11 12  1  0
 12 13  2  0
 13 14  1  0
 14 15  2  0
 15 16  1  0
 16 17  1  0
 16 18  2  0
 11 19  1  0
 19 20  1  0
 20  8  1  0
 18 12  1  0
  1 21  1  0
  1 22  1  0
  1 23  1  0
  2 24  1  0
  2 25  1  0
  5 26  1  0
  6 27  1  0
  6 28  1  0
  7 29  1  0
  7 30  1  0
  9 31  1  0
  9 32  1  0
 10 33  1  0
 10 34  1  0
 13 35  1  0
 14 36  1  0
 15 37  1  0
 17 38  1  0
 17 39  1  0
 17 40  1  0
 18 41  1  0
 19 42  1  0
 19 43  1  0
 20 44  1  0
 20 45  1  0
M  END
>  <smiles>  (18) 
CCON=CCCN1CCN(c2cccc(C)c2)CC1

>  <score_type>  (18) 
oracle

>  <origin>  (18) 
adg

>  <m_score__min__energy>  (18) 
-7.9100000000000001

>  <m_primary>  (18) 
energy

$$$$
19:0
     RDKit          3D

 64 67  0  0  0  0  0  0  0  0999 V2000
   -6.4860   17.8050  -33.8440 C   0  0  0  0  0  0  0  0  0  0  0  0
   -6.1590   19.1030  -33.2970 N   0  0  0  0  0  0  0  0  0  0  0  0
   -4.8650   19.5520  -33.3570 C   0  0  0  0  0  0  0  0  0  0  0  0
   -4.5410   20.7950  -32.8500 C   0  0  0  0  0  0  0  0  0  0  0  0
   -5.4790   21.6410  -32.2670 C   0  0  0  0  0  0  0  0  0  0  0  0
   -5.0440   22.8890  -31.8080 N   0  0  0  0  0  0  0  0  0  0  0  0
   -5.8480   24.1170  -31.7770 C   0  0  0  0  0  0  0  0  0  0  0  0
   -5.1880   25.1470  -30.8940 C   0  0  0  0  0  0  0  0  0  0  0  0
   -3.8770   24.9050  -30.4680 N   0  0  0  0  0  0  0  0  0  0  0  0
   -3.7000   24.5610  -29.0900 C   0  0  0  0  0  0  0  0  0  0  0  0
   -2.2460   24.5870  -28.7070 C   0  0  0  0  0  0  0  0  0  0  0  0
   -1.3890   23.7040  -29.5620 C   0  0  0  0  0  0  0  0  0  0  0  0
   -2.2470   22.6980  -30.1670 N   0  0  0  0  0  0  0  0  0  0  0  0
   -2.0780   21.3700  -29.6480 C   0  0  0  0  0  0  0  0  0  0  0  0
   -1.0470   20.6040  -30.4120 C   0  0  0  0  0  0  0  0  0  0  0  0
   -1.8150   21.4090  -28.1520 C   0  0  0  0  0  0  0  0  0  0  0  0
   -3.4510   20.6930  -29.7910 C   0  0  0  0  0  0  0  0  0  0  0  0
   -6.7700   21.1630  -32.2190 C   0  0  0  0  0  0  0  0  0  0  0  0
   -7.7130   21.9870  -31.6330 C   0  0  0  0  0  0  0  0  0  0  0  0
   -9.0030   21.5660  -31.5490 C   0  0  0  0  0  0  0  0  0  0  0  0
   -9.3600   20.3340  -32.0410 C   0  0  0  0  0  0  0  0  0  0  0  0
   -8.3960   19.5230  -32.6260 C   0  0  0  0  0  0  0  0  0  0  0  0
   -7.0660   19.9190  -32.7320 C   0  0  0  0  0  0  0  0  0  0  0  0
   -3.1000   20.9870  -33.0290 C   0  0  0  0  0  0  0  0  0  0  0  0
   -2.3890   21.9720  -32.7100 O   0  0  0  0  0  0  0  0  0  0  0  0
   -2.5570   19.8010  -33.6690 C   0  0  0  0  0  0  0  0  0  0  0  0
   -1.2630   19.4940  -34.0420 C   0  0  0  0  0  0  0  0  0  0  0  0
   -0.9870   18.2850  -34.6390 C   0  0  0  0  0  0  0  0  0  0  0  0
   -2.0200   17.4010  -34.8510 C   0  0  0  0  0  0  0  0  0  0  0  0
   -3.3160   17.7370  -34.4640 C   0  0  0  0  0  0  0  0  0  0  0  0
   -3.6230   18.9400  -33.8660 C   0  0  0  0  0  0  0  0  0  0  0  0
   -6.6648   17.0954  -33.0227 H   0  0  0  0  0  0  0  0  0  0  0  0
   -7.3919   17.8855  -34.4627 H   0  0  0  0  0  0  0  0  0  0  0  0
   -5.6501   17.4467  -34.4627 H   0  0  0  0  0  0  0  0  0  0  0  0
   -4.0530   22.9590  -31.4520 H   0  0  0  0  0  0  0  0  0  0  0  0
   -5.9397   24.5176  -32.7973 H   0  0  0  0  0  0  0  0  0  0  0  0
   -6.8452   23.8843  -31.3751 H   0  0  0  0  0  0  0  0  0  0  0  0
   -5.1815   26.0971  -31.4484 H   0  0  0  0  0  0  0  0  0  0  0  0
   -5.7833   25.1375  -29.9690 H   0  0  0  0  0  0  0  0  0  0  0  0
   -3.2780   24.3780  -31.1170 H   0  0  0  0  0  0  0  0  0  0  0  0
   -4.2485   25.2824  -28.4665 H   0  0  0  0  0  0  0  0  0  0  0  0
   -4.0842   23.5424  -28.9325 H   0  0  0  0  0  0  0  0  0  0  0  0
   -1.8803   25.6205  -28.7969 H   0  0  0  0  0  0  0  0  0  0  0  0
   -2.1751   24.2087  -27.6765 H   0  0  0  0  0  0  0  0  0  0  0  0
   -0.9031   24.3018  -30.3472 H   0  0  0  0  0  0  0  0  0  0  0  0
   -0.6068   23.2252  -28.9546 H   0  0  0  0  0  0  0  0  0  0  0  0
   -2.1050   22.6470  -31.2080 H   0  0  0  0  0  0  0  0  0  0  0  0
   -0.3685   20.0999  -29.7081 H   0  0  0  0  0  0  0  0  0  0  0  0
   -1.5425   19.8532  -31.0451 H   0  0  0  0  0  0  0  0  0  0  0  0
   -0.4712   21.2951  -31.0451 H   0  0  0  0  0  0  0  0  0  0  0  0
   -2.7616   21.2686  -27.6095 H   0  0  0  0  0  0  0  0  0  0  0  0
   -1.1148   20.6049  -27.8817 H   0  0  0  0  0  0  0  0  0  0  0  0
   -1.3783   22.3817  -27.8817 H   0  0  0  0  0  0  0  0  0  0  0  0
   -3.8649   20.4889  -28.7925 H   0  0  0  0  0  0  0  0  0  0  0  0
   -4.1324   21.3584  -30.3414 H   0  0  0  0  0  0  0  0  0  0  0  0
   -3.3380   19.7473  -30.3414 H   0  0  0  0  0  0  0  0  0  0  0  0
   -7.4228   22.9722  -31.2391 H   0  0  0  0  0  0  0  0  0  0  0  0
   -9.7625   22.2132  -31.0861 H   0  0  0  0  0  0  0  0  0  0  0  0
  -10.4032   19.9918  -31.9721 H   0  0  0  0  0  0  0  0  0  0  0  0
   -8.6925   18.5386  -33.0171 H   0  0  0  0  0  0  0  0  0  0  0  0
   -0.4529   20.2160  -33.8619 H   0  0  0  0  0  0  0  0  0  0  0  0
    0.0396   18.0303  -34.9409 H   0  0  0  0  0  0  0  0  0  0  0  0
   -1.8228   16.4287  -35.3261 H   0  0  0  0  0  0  0  0  0  0  0  0
   -4.1253   17.0138  -34.6428 H   0  0  0  0  0  0  0  0  0  0  0  0
  1  2  1  0
  2  3  2  0
  3  4  1  0
  4  5  2  0
  5  6  1  0
  6  7  1  0
  7  8  1  0
  8  9  1  0
  9 10  1  0
 10 11  1  0
 11 12  1  0
 12 13  1  0
 13 14  1  0
 14 15  1  0
 14 16  1  0
 14 17  1  0
  5 18  1  0
 18 19  2  0
 19 20  1  0
 20 21  2  0
 21 22  1  0
 22 23  2  0
  4 24  1  0
 24 25  2  0
 24 26  1  0
 26 27  2  0
 27 28  1  0
 28 29  2  0
 29 30  1  0
 30 31  2  0
 23  2  1  0
 31 26  1  0
 31  3  1  0
 23 18  1  0
  1 32  1  0
  1 33  1  0
  1 34  1  0
  6 35  1  0
  7 36  1  0
  7 37  1  0
  8 38  1  0
  8 39  1  0
  9 40  1  0
 10 41  1  0
 10 42  1  0
 11 43  1  0
 11 44  1  0
 12 45  1  0
 12 46  1  0
 13 47  1  0
 15 48  1  0
 15 49  1  0
 15 50  1  0
 16 51  1  0
 16 52  1  0
 16 53  1  0
 17 54  1  0
 17 55  1  0
 17 56  1  0
 19 57  1  0
 20 58  1  0
 21 59  1  0
 22 60  1  0
 27 61  1  0
 28 62  1  0
 29 63  1  0
 30 64  1  0
M  CHG  1   2   1
M  END
>  <smiles>  (19) 
C[n+]1c2c(c(NCCNCCCNC(C)(C)C)c3ccccc31)C(=O)c1ccccc1-2

>  <score_type>  (19) 
oracle

>  <origin>  (19) 
adg

>  <m_score__min__energy>  (19) 
-9.1600000000000001

>  <m_primary>  (19) 
energy

$$$$
20:0
     RDKit          3D

 33 33  0  0  1  0  0  0  0  0999 V2000
   -3.5460   21.1010  -32.1310 C   0  0  0  0  0  0  0  0  0  0  0  0
   -4.8830   20.4640  -32.3320 C   0  0  0  0  0  0  0  0  0  0  0  0
   -5.0360   19.2810  -33.0270 C   0  0  0  0  0  0  0  0  0  0  0  0
   -6.2700   18.6810  -33.2210 C   0  0  0  0  0  0  0  0  0  0  0  0
   -6.4310   17.0390  -34.1930 Br  0  0  0  0  0  0  0  0  0  0  0  0
   -7.4010   19.3010  -32.6900 C   0  0  0  0  0  0  0  0  0  0  0  0
   -7.2650   20.4840  -31.9930 C   0  0  0  0  0  0  0  0  0  0  0  0
   -8.8310   21.3180  -31.2730 Br  0  0  0  0  0  0  0  0  0  0  0  0
   -6.0050   21.0720  -31.8100 C   0  0  0  0  0  0  0  0  0  0  0  0
   -5.9760   22.2460  -31.1040 O   0  0  0  0  0  0  0  0  0  0  0  0
   -5.5710   23.5100  -31.4500 C   0  0  0  0  0  0  0  0  0  0  0  0
   -4.3460   23.8390  -30.6640 C   0  0  0  0  0  0  0  0  0  0  0  0
   -3.8410   24.9820  -30.8170 O   0  0  0  0  0  0  0  0  0  0  0  0
   -3.7580   22.8830  -29.7570 N   0  0  0  0  0  0  0  0  0  0  0  0
   -2.5780   23.2200  -29.0100 C   0  0  2  0  0  0  0  0  0  0  0  0
   -2.1610   22.0870  -28.1250 C   0  0  0  0  0  0  0  0  0  0  0  0
   -2.8640   24.4880  -28.2280 C   0  0  0  0  0  0  0  0  0  0  0  0
   -2.2860   25.5440  -28.9590 O   0  0  0  0  0  0  0  0  0  0  0  0
   -3.3439   21.1973  -31.0540 H   0  0  0  0  0  0  0  0  0  0  0  0
   -2.7687   20.4765  -32.5955 H   0  0  0  0  0  0  0  0  0  0  0  0
   -3.5413   22.0981  -32.5955 H   0  0  0  0  0  0  0  0  0  0  0  0
   -4.1417   18.7947  -33.4439 H   0  0  0  0  0  0  0  0  0  0  0  0
   -8.3949   18.8498  -32.8260 H   0  0  0  0  0  0  0  0  0  0  0  0
   -5.3442   23.5469  -32.5257 H   0  0  0  0  0  0  0  0  0  0  0  0
   -6.3678   24.2368  -31.2334 H   0  0  0  0  0  0  0  0  0  0  0  0
   -4.2010   21.9390  -29.6510 H   0  0  0  0  0  0  0  0  0  0  0  0
   -1.7316   23.4000  -29.6891 H   0  0  0  0  0  0  0  0  0  0  0  0
   -2.2706   22.3849  -27.0718 H   0  0  0  0  0  0  0  0  0  0  0  0
   -2.7958   21.2116  -28.3264 H   0  0  0  0  0  0  0  0  0  0  0  0
   -1.1101   21.8320  -28.3264 H   0  0  0  0  0  0  0  0  0  0  0  0
   -3.9493   24.6401  -28.1332 H   0  0  0  0  0  0  0  0  0  0  0  0
   -2.4483   24.4321  -27.2111 H   0  0  0  0  0  0  0  0  0  0  0  0
   -3.0620   26.0510  -29.3530 H   0  0  0  0  0  0  0  0  0  0  0  0
  1  2  1  0
  2  3  2  0
  3  4  1  0
  4  5  1  0
  4  6  2  0
  6  7  1  0
  7  8  1  0
  7  9  2  0
  9 10  1  0
 10 11  1  0
 11 12  1  0
 12 13  2  0
 12 14  1  0
 14 15  1  0
 15 16  1  0
 15 17  1  0
 17 18  1  0
  9  2  1  0
  1 19  1  0
  1 20  1  0
  1 21  1  0
  3 22  1  0
  6 23  1  0
 11 24  1  0
 11 25  1  0
 14 26  1  0
 15 27  1  6
 16 28  1  0
 16 29  1  0
 16 30  1  0
 17 31  1  0
 17 32  1  0
 18 33  1  0
M  END
>  <smiles>  (20) 
Cc1cc(Br)cc(Br)c1OCC(=O)NC(C)CO

>  <score_type>  (20) 
oracle

>  <origin>  (20) 
adg

>  <m_score__min__energy>  (20) 
-8.2799999999999994

>  <m_primary>  (20) 
energy

$$$$
21:0
     RDKit          3D

 60 61  0  0  0  0  0  0  0  0999 V2000
   -4.2510   24.0650  -28.2190 C   0  0  0  0  0  0  0  0  0  0  0  0
   -3.4080   24.1960  -29.4270 C   0  0  0  0  0  0  0  0  0  0  0  0
   -3.8410   25.1000  -30.3970 N   0  0  0  0  0  0  0  0  0  0  0  0
   -5.1600   25.4310  -30.6390 C   0  0  0  0  0  0  0  0  0  0  0  0
   -5.9750   24.3790  -31.2120 C   0  0  0  0  0  0  0  0  0  0  0  0
   -6.6830   23.5040  -31.6950 C   0  0  0  0  0  0  0  0  0  0  0  0
   -7.5260   22.4380  -32.3030 C   0  0  0  0  0  0  0  0  0  0  0  0
   -8.8110   22.4080  -31.5010 C   0  0  0  0  0  0  0  0  0  0  0  0
   -9.3710   21.0160  -31.3840 C   0  0  0  0  0  0  0  0  0  0  0  0
   -8.7550   20.1220  -32.4210 C   0  0  0  0  0  0  0  0  0  0  0  0
   -7.8030   19.2800  -31.7280 N   0  0  0  0  0  0  0  0  0  0  0  0
   -6.8330   18.6720  -32.5870 C   0  0  0  0  0  0  0  0  0  0  0  0
   -7.1400   17.2110  -32.8390 C   0  0  0  0  0  0  0  0  0  0  0  0
   -5.8840   16.5490  -33.3280 C   0  0  0  0  0  0  0  0  0  0  0  0
   -5.0400   17.4050  -34.0950 N   0  0  0  0  0  0  0  0  0  0  0  0
   -3.7310   17.5730  -33.5500 C   0  0  0  0  0  0  0  0  0  0  0  0
   -3.1370   18.7950  -34.2230 C   0  0  0  0  0  0  0  0  0  0  0  0
   -2.8190   19.8940  -33.3060 C   0  0  0  0  0  0  0  0  0  0  0  0
   -1.6350   20.0430  -32.6180 C   0  0  0  0  0  0  0  0  0  0  0  0
   -1.4280   21.1220  -31.7560 C   0  0  0  0  0  0  0  0  0  0  0  0
   -2.4420   22.0700  -31.5890 C   0  0  0  0  0  0  0  0  0  0  0  0
   -3.6440   21.9360  -32.2750 C   0  0  0  0  0  0  0  0  0  0  0  0
   -3.8120   20.8630  -33.1120 C   0  0  0  0  0  0  0  0  0  0  0  0
   -5.6370   18.5150  -34.7230 C   0  0  0  0  0  0  0  0  0  0  0  0
   -6.5540   19.3610  -33.8600 C   0  0  0  0  0  0  0  0  0  0  0  0
   -3.6229   24.1626  -27.3212 H   0  0  0  0  0  0  0  0  0  0  0  0
   -5.0165   24.8550  -28.2186 H   0  0  0  0  0  0  0  0  0  0  0  0
   -4.7406   23.0800  -28.2186 H   0  0  0  0  0  0  0  0  0  0  0  0
   -2.4055   24.5108  -29.1016 H   0  0  0  0  0  0  0  0  0  0  0  0
   -3.4440   23.2101  -29.9135 H   0  0  0  0  0  0  0  0  0  0  0  0
   -3.1020   25.6840  -30.8510 H   0  0  0  0  0  0  0  0  0  0  0  0
   -5.6150   25.7286  -29.6828 H   0  0  0  0  0  0  0  0  0  0  0  0
   -5.1354   26.2348  -31.3895 H   0  0  0  0  0  0  0  0  0  0  0  0
   -7.7389   22.6741  -33.3560 H   0  0  0  0  0  0  0  0  0  0  0  0
   -7.0170   21.4631  -32.2820 H   0  0  0  0  0  0  0  0  0  0  0  0
   -8.6085   22.7952  -30.4915 H   0  0  0  0  0  0  0  0  0  0  0  0
   -9.5525   23.0293  -32.0246 H   0  0  0  0  0  0  0  0  0  0  0  0
   -9.1495   20.6179  -30.3828 H   0  0  0  0  0  0  0  0  0  0  0  0
  -10.4592   21.0519  -31.5408 H   0  0  0  0  0  0  0  0  0  0  0  0
   -9.5301   19.5049  -32.8990 H   0  0  0  0  0  0  0  0  0  0  0  0
   -8.2638   20.7098  -33.2105 H   0  0  0  0  0  0  0  0  0  0  0  0
   -8.3220   18.6270  -31.1420 H   0  0  0  0  0  0  0  0  0  0  0  0
   -5.9026   18.7700  -32.0085 H   0  0  0  0  0  0  0  0  0  0  0  0
   -7.4743   16.7338  -31.9060 H   0  0  0  0  0  0  0  0  0  0  0  0
   -7.9395   17.1129  -33.5881 H   0  0  0  0  0  0  0  0  0  0  0  0
   -5.3165   16.1952  -32.4546 H   0  0  0  0  0  0  0  0  0  0  0  0
   -6.1936   15.7282  -33.9916 H   0  0  0  0  0  0  0  0  0  0  0  0
   -3.7894   17.7289  -32.4627 H   0  0  0  0  0  0  0  0  0  0  0  0
   -3.1103   16.6819  -33.7249 H   0  0  0  0  0  0  0  0  0  0  0  0
   -2.2101   18.4917  -34.7318 H   0  0  0  0  0  0  0  0  0  0  0  0
   -3.9010   19.1750  -34.9172 H   0  0  0  0  0  0  0  0  0  0  0  0
   -0.8370   19.2975  -32.7502 H   0  0  0  0  0  0  0  0  0  0  0  0
   -0.4765   21.2251  -31.2137 H   0  0  0  0  0  0  0  0  0  0  0  0
   -2.2884   22.9242  -30.9131 H   0  0  0  0  0  0  0  0  0  0  0  0
   -4.4462   22.6779  -32.1484 H   0  0  0  0  0  0  0  0  0  0  0  0
   -4.7643   20.7589  -33.6526 H   0  0  0  0  0  0  0  0  0  0  0  0
   -4.8304   19.1651  -35.0928 H   0  0  0  0  0  0  0  0  0  0  0  0
   -6.2794   18.0962  -35.5117 H   0  0  0  0  0  0  0  0  0  0  0  0
   -6.0691   20.3263  -33.6522 H   0  0  0  0  0  0  0  0  0  0  0  0
   -7.5011   19.5243  -34.3951 H   0  0  0  0  0  0  0  0  0  0  0  0
  1  2  1  0
  2  3  1  0
  3  4  1  0
  4  5  1  0
  5  6  3  0
  6  7  1  0
  7  8  1  0
  8  9  1  0
  9 10  1  0
 10 11  1  0
 11 12  1  0
 12 13  1  0
 13 14  1  0
 14 15  1  0
 15 16  1  0
 16 17  1  0
 17 18  1  0
 18 19  2  0
 19 20  1  0
 20 21  2  0
 21 22  1  0
 22 23  2  0
 15 24  1  0
 24 25  1  0
 25 12  1  0
 23 18  1  0
  1 26  1  0
  1 27  1  0
  1 28  1  0
  2 29  1  0
  2 30  1  0
  3 31  1  0
  4 32  1  0
  4 33  1  0
  7 34  1  0
  7 35  1  0
  8 36  1  0
  8 37  1  0
  9 38  1  0
  9 39  1  0
 10 40  1  0
 10 41  1  0
 11 42  1  0
 12 43  1  0
 13 44  1  0
 13 45  1  0
 14 46  1  0
 14 47  1  0
 16 48  1  0
 16 49  1  0
 17 50  1  0
 17 51  1  0
 19 52  1  0
 20 53  1  0
 21 54  1  0
 22 55  1  0
 23 56  1  0
 24 57  1  0
 24 58  1  0
 25 59  1  0
 25 60  1  0
M  END
>  <smiles>  (21) 
CCNCC#CCCCCNC1CCN(CCc2ccccc2)CC1

>  <score_type>  (21) 
oracle

>  <origin>  (21) 
adg

>  <m_score__min__energy>  (21) 
-8.3599999999999994

>  <m_primary>  (21) 
energy

$$$$
22:0
     RDKit          3D

 64 67  0  0  1  0  0  0  0  0999 V2000
    3.0200   25.9370  -23.6960 C   0  0  0  0  0  0  0  0  0  0  0  0
    2.7030   24.5600  -24.2100 C   0  0  0  0  0  0  0  0  0  0  0  0
    1.9690   24.5500  -25.4880 C   0  0  0  0  0  0  0  0  0  0  0  0
    2.6250   24.8320  -26.6450 N   0  0  0  0  0  0  0  0  0  0  0  0
    1.9770   24.8280  -27.8220 C   0  0  0  0  0  0  0  0  0  0  0  0
    0.6710   24.5560  -27.9600 N   0  0  0  0  0  0  0  0  0  0  0  0
   -0.0190   24.2680  -26.8150 C   0  0  0  0  0  0  0  0  0  0  0  0
   -1.4000   23.9910  -26.9900 N   0  0  0  0  0  0  0  0  0  0  0  0
   -2.4210   25.0000  -27.1460 C   0  0  0  0  0  0  0  0  0  0  0  0
   -3.7450   24.2690  -27.1410 C   0  0  0  0  0  0  0  0  0  0  0  0
   -3.7920   23.1800  -28.0860 N   0  0  0  0  0  0  0  0  0  0  0  0
   -4.8890   23.2900  -28.9140 C   0  0  0  0  0  0  0  0  0  0  0  0
   -4.8120   22.3990  -30.1380 C   0  0  0  0  0  0  0  0  0  0  0  0
   -4.6610   23.2970  -31.3360 C   0  0  0  0  0  0  0  0  0  0  0  0
   -5.8160   24.1060  -31.5050 N   0  0  0  0  0  0  0  0  0  0  0  0
   -6.6560   23.7700  -32.6010 C   0  0  0  0  0  0  0  0  0  0  0  0
   -7.2650   22.4170  -32.3430 C   0  0  0  0  0  0  0  0  0  0  0  0
   -6.6210   21.2560  -32.7540 C   0  0  0  0  0  0  0  0  0  0  0  0
   -7.1530   19.9990  -32.5310 C   0  0  0  0  0  0  0  0  0  0  0  0
   -8.3650   19.8910  -31.8760 C   0  0  0  0  0  0  0  0  0  0  0  0
   -9.0380   18.2990  -31.5940 Cl  0  0  0  0  0  0  0  0  0  0  0  0
   -9.0350   21.0340  -31.4520 C   0  0  0  0  0  0  0  0  0  0  0  0
   -8.4740   22.2910  -31.6910 C   0  0  0  0  0  0  0  0  0  0  0  0
   -6.4870   24.4620  -30.2840 C   0  0  0  0  0  0  0  0  0  0  0  0
   -5.3910   24.6730  -29.2260 C   0  0  0  0  0  0  0  0  0  0  0  0
   -2.6490   22.4610  -28.2890 C   0  0  2  0  0  0  0  0  0  0  0  0
   -2.6760   21.0400  -28.6690 C   0  0  0  0  0  0  0  0  0  0  0  0
   -1.7980   22.5950  -27.0120 C   0  0  0  0  0  0  0  0  0  0  0  0
    0.6270   24.2690  -25.6120 C   0  0  0  0  0  0  0  0  0  0  0  0
   -0.1170   23.9510  -24.3670 C   0  0  0  0  0  0  0  0  0  0  0  0
    3.0178   25.9273  -22.5960 H   0  0  0  0  0  0  0  0  0  0  0  0
    4.0123   26.2440  -24.0580 H   0  0  0  0  0  0  0  0  0  0  0  0
    2.2618   26.6470  -24.0580 H   0  0  0  0  0  0  0  0  0  0  0  0
    3.6494   24.0172  -24.3507 H   0  0  0  0  0  0  0  0  0  0  0  0
    2.0485   24.0854  -23.4641 H   0  0  0  0  0  0  0  0  0  0  0  0
    2.5536   25.0624  -28.7290 H   0  0  0  0  0  0  0  0  0  0  0  0
   -2.3786   25.7167  -26.3126 H   0  0  0  0  0  0  0  0  0  0  0  0
   -2.2819   25.5686  -28.0773 H   0  0  0  0  0  0  0  0  0  0  0  0
   -3.9187   23.8655  -26.1325 H   0  0  0  0  0  0  0  0  0  0  0  0
   -4.5207   24.9919  -27.4337 H   0  0  0  0  0  0  0  0  0  0  0  0
   -5.6881   22.8972  -28.2681 H   0  0  0  0  0  0  0  0  0  0  0  0
   -3.9451   21.7263  -30.0601 H   0  0  0  0  0  0  0  0  0  0  0  0
   -5.7169   21.7799  -30.2268 H   0  0  0  0  0  0  0  0  0  0  0  0
   -3.7838   23.9451  -31.1933 H   0  0  0  0  0  0  0  0  0  0  0  0
   -4.5320   22.6726  -32.2324 H   0  0  0  0  0  0  0  0  0  0  0  0
   -7.4526   24.5219  -32.7014 H   0  0  0  0  0  0  0  0  0  0  0  0
   -6.0688   23.7465  -33.5309 H   0  0  0  0  0  0  0  0  0  0  0  0
   -5.6554   21.3397  -33.2743 H   0  0  0  0  0  0  0  0  0  0  0  0
   -6.6194   19.0988  -32.8699 H   0  0  0  0  0  0  0  0  0  0  0  0
  -10.0005   20.9487  -30.9318 H   0  0  0  0  0  0  0  0  0  0  0  0
   -9.0045   23.1939  -31.3541 H   0  0  0  0  0  0  0  0  0  0  0  0
   -7.0631   25.3886  -30.4237 H   0  0  0  0  0  0  0  0  0  0  0  0
   -7.1912   23.6757  -29.9744 H   0  0  0  0  0  0  0  0  0  0  0  0
   -4.5800   25.2985  -29.6272 H   0  0  0  0  0  0  0  0  0  0  0  0
   -5.7701   25.1893  -28.3318 H   0  0  0  0  0  0  0  0  0  0  0  0
   -2.2599   22.9136  -29.2130 H   0  0  0  0  0  0  0  0  0  0  0  0
   -2.6878   20.4180  -27.7618 H   0  0  0  0  0  0  0  0  0  0  0  0
   -3.5782   20.8368  -29.2647 H   0  0  0  0  0  0  0  0  0  0  0  0
   -1.7822   20.8027  -29.2647 H   0  0  0  0  0  0  0  0  0  0  0  0
   -2.3917   22.3451  -26.1203 H   0  0  0  0  0  0  0  0  0  0  0  0
   -0.9355   21.9123  -27.0086 H   0  0  0  0  0  0  0  0  0  0  0  0
    0.4989   24.2142  -23.4944 H   0  0  0  0  0  0  0  0  0  0  0  0
   -1.0535   24.5275  -24.3421 H   0  0  0  0  0  0  0  0  0  0  0  0
   -0.3475   22.8757  -24.3421 H   0  0  0  0  0  0  0  0  0  0  0  0
  1  2  1  0
  2  3  1  0
  3  4  2  0
  4  5  1  0
  5  6  2  0
  6  7  1  0
  7  8  1  0
  8  9  1  0
  9 10  1  0
 10 11  1  0
 11 12  1  0
 12 13  1  0
 13 14  1  0
 14 15  1  0
 15 16  1  0
 16 17  1  0
 17 18  2  0
 18 19  1  0
 19 20  2  0
 20 21  1  0
 20 22  1  0
 22 23  2  0
 15 24  1  0
 24 25  1  0
 11 26  1  0
 26 27  1  0
 26 28  1  0
  7 29  2  0
 29 30  1  0
 29  3  1  0
 28  8  1  0
 25 12  1  0
 23 17  1  0
  1 31  1  0
  1 32  1  0
  1 33  1  0
  2 34  1  0
  2 35  1  0
  5 36  1  0
  9 37  1  0
  9 38  1  0
 10 39  1  0
 10 40  1  0
 12 41  1  0
 13 42  1  0
 13 43  1  0
 14 44  1  0
 14 45  1  0
 16 46  1  0
 16 47  1  0
 18 48  1  0
 19 49  1  0
 22 50  1  0
 23 51  1  0
 24 52  1  0
 24 53  1  0
 25 54  1  0
 25 55  1  0
 26 56  1  6
 27 57  1  0
 27 58  1  0
 27 59  1  0
 28 60  1  0
 28 61  1  0
 30 62  1  0
 30 63  1  0
 30 64  1  0
M  END
>  <smiles>  (22) 
CCc1ncnc(N2CCN(C3CCN(Cc4ccc(Cl)cc4)CC3)C(C)C2)c1C

>  <score_type>  (22) 
oracle

>  <origin>  (22) 
adg

>  <m_score__min__energy>  (22) 
-9.8300000000000001

>  <m_primary>  (22) 
energy

$$$$
23:0
     RDKit          3D

 55 59  0  0  0  0  0  0  0  0999 V2000
   -2.8980   22.2280  -29.2270 C   0  0  0  0  0  0  0  0  0  0  0  0
   -2.5430   23.6000  -29.7940 C   0  0  0  0  0  0  0  0  0  0  0  0
   -3.5720   24.5300  -29.4060 N   0  0  0  0  0  0  0  0  0  0  0  0
   -4.2200   24.1620  -28.1690 C   0  0  0  0  0  0  0  0  0  0  0  0
   -4.5100   24.8380  -30.4560 C   0  0  0  0  0  0  0  0  0  0  0  0
   -5.9430   24.7250  -30.1010 C   0  0  0  0  0  0  0  0  0  0  0  0
   -6.7860   23.9660  -30.9600 N   0  0  0  0  0  0  0  0  0  0  0  0
   -6.4910   22.7330  -31.5770 C   0  0  0  0  0  0  0  0  0  0  0  0
   -5.2060   22.3440  -31.9400 C   0  0  0  0  0  0  0  0  0  0  0  0
   -4.9430   21.1430  -32.5650 C   0  0  0  0  0  0  0  0  0  0  0  0
   -5.9200   20.2710  -32.8640 N   0  0  0  0  0  0  0  0  0  0  0  0
   -7.1880   20.6100  -32.5290 C   0  0  0  0  0  0  0  0  0  0  0  0
   -8.1950   19.7080  -32.8380 C   0  0  0  0  0  0  0  0  0  0  0  0
   -9.5250   19.9450  -32.5450 C   0  0  0  0  0  0  0  0  0  0  0  0
   -9.8210   21.1310  -31.9210 C   0  0  0  0  0  0  0  0  0  0  0  0
   -8.8140   22.0340  -31.6110 C   0  0  0  0  0  0  0  0  0  0  0  0
   -7.4860   21.8020  -31.9020 C   0  0  0  0  0  0  0  0  0  0  0  0
   -5.7080   19.0100  -33.5090 C   0  0  0  0  0  0  0  0  0  0  0  0
   -4.3810   18.7220  -33.8390 O   0  0  0  0  0  0  0  0  0  0  0  0
   -3.3140   19.5460  -33.5750 C   0  0  0  0  0  0  0  0  0  0  0  0
   -3.5820   20.7520  -32.9420 C   0  0  0  0  0  0  0  0  0  0  0  0
   -2.5150   21.5660  -32.6830 C   0  0  0  0  0  0  0  0  0  0  0  0
   -1.2340   21.1640  -33.0540 C   0  0  0  0  0  0  0  0  0  0  0  0
   -0.9910   19.9610  -33.6820 C   0  0  0  0  0  0  0  0  0  0  0  0
    0.2940   19.5840  -34.0410 C   0  0  0  0  0  0  0  0  0  0  0  0
    0.4450   18.3620  -34.6660 C   0  0  0  0  0  0  0  0  0  0  0  0
   -0.6140   17.5500  -34.9260 C   0  0  0  0  0  0  0  0  0  0  0  0
   -1.9150   17.9010  -34.5770 C   0  0  0  0  0  0  0  0  0  0  0  0
   -2.0650   19.1410  -33.9440 C   0  0  0  0  0  0  0  0  0  0  0  0
   -2.8868   22.2714  -28.1279 H   0  0  0  0  0  0  0  0  0  0  0  0
   -3.9010   21.9369  -29.5722 H   0  0  0  0  0  0  0  0  0  0  0  0
   -2.1620   21.4870  -29.5722 H   0  0  0  0  0  0  0  0  0  0  0  0
   -1.5734   23.9291  -29.3919 H   0  0  0  0  0  0  0  0  0  0  0  0
   -2.4715   23.5499  -30.8905 H   0  0  0  0  0  0  0  0  0  0  0  0
   -3.6121   24.5073  -27.3198 H   0  0  0  0  0  0  0  0  0  0  0  0
   -5.2143   24.6302  -28.1225 H   0  0  0  0  0  0  0  0  0  0  0  0
   -4.3272   23.0682  -28.1225 H   0  0  0  0  0  0  0  0  0  0  0  0
   -4.3243   25.8726  -30.7801 H   0  0  0  0  0  0  0  0  0  0  0  0
   -4.3381   24.0832  -31.2375 H   0  0  0  0  0  0  0  0  0  0  0  0
   -5.9975   24.2680  -29.1019 H   0  0  0  0  0  0  0  0  0  0  0  0
   -6.3269   25.7530  -30.1774 H   0  0  0  0  0  0  0  0  0  0  0  0
   -7.7430   24.3900  -31.1550 H   0  0  0  0  0  0  0  0  0  0  0  0
   -4.3669   23.0204  -31.7201 H   0  0  0  0  0  0  0  0  0  0  0  0
   -7.9244   18.7655  -33.3366 H   0  0  0  0  0  0  0  0  0  0  0  0
  -10.3093   19.2171  -32.8000 H   0  0  0  0  0  0  0  0  0  0  0  0
  -10.8643   21.3675  -31.6647 H   0  0  0  0  0  0  0  0  0  0  0  0
   -9.0867   22.9754  -31.1116 H   0  0  0  0  0  0  0  0  0  0  0  0
   -6.0697   18.2191  -32.8355 H   0  0  0  0  0  0  0  0  0  0  0  0
   -6.2536   19.0615  -34.4628 H   0  0  0  0  0  0  0  0  0  0  0  0
   -2.6672   22.5343  -32.1838 H   0  0  0  0  0  0  0  0  0  0  0  0
   -0.3858   21.8303  -32.8382 H   0  0  0  0  0  0  0  0  0  0  0  0
    1.1586   20.2324  -33.8361 H   0  0  0  0  0  0  0  0  0  0  0  0
    1.4527   18.0356  -34.9625 H   0  0  0  0  0  0  0  0  0  0  0  0
   -0.4374   16.5868  -35.4271 H   0  0  0  0  0  0  0  0  0  0  0  0
   -2.7726   17.2446  -34.7857 H   0  0  0  0  0  0  0  0  0  0  0  0
  1  2  1  0
  2  3  1  0
  3  4  1  0
  3  5  1  0
  5  6  1  0
  6  7  1  0
  7  8  1  0
  8  9  2  0
  9 10  1  0
 10 11  2  0
 11 12  1  0
 12 13  2  0
 13 14  1  0
 14 15  2  0
 15 16  1  0
 16 17  2  0
 11 18  1  0
 18 19  1  0
 19 20  1  0
 20 21  2  0
 21 22  1  0
 22 23  2  0
 23 24  1  0
 24 25  2  0
 25 26  1  0
 26 27  2  0
 27 28  1  0
 28 29  2  0
 17  8  1  0
 29 20  1  0
 21 10  1  0
 29 24  1  0
 17 12  1  0
  1 30  1  0
  1 31  1  0
  1 32  1  0
  2 33  1  0
  2 34  1  0
  4 35  1  0
  4 36  1  0
  4 37  1  0
  5 38  1  0
  5 39  1  0
  6 40  1  0
  6 41  1  0
  7 42  1  0
  9 43  1  0
 13 44  1  0
 14 45  1  0
 15 46  1  0
 16 47  1  0
 18 48  1  0
 18 49  1  0
 22 50  1  0
 23 51  1  0
 25 52  1  0
 26 53  1  0
 27 54  1  0
 28 55  1  0
M  CHG  1  11   1
M  END
>  <smiles>  (23) 
CCN(C)CCNc1cc2[n+](c3ccccc13)COc1c-2ccc2ccccc12

>  <score_type>  (23) 
oracle

>  <origin>  (23) 
adg

>  <m_score__min__energy>  (23) 
-8.4600000000000009

>  <m_primary>  (23) 
energy

$$$$
