0:0
     RDKit          3D

 46 48  0  0  0  0  0  0  0  0999 V2000
   -4.1700   24.1540  -27.6860 C   0  0  0  0  0  0  0  0  0  0  0  0
   -3.6940   23.1420  -28.7180 C   0  0  0  0  0  0  0  0  0  0  0  0
   -4.0720   23.6480  -30.3920 S   0  0  0  0  0  0  0  0  0  0  0  0
   -3.0850   23.0210  -31.3400 O   0  0  0  0  0  0  0  0  0  0  0  0
   -3.9020   25.1420  -30.4490 O   0  0  0  0  0  0  0  0  0  0  0  0
   -5.7140   23.2060  -30.8360 N   0  0  0  0  0  0  0  0  0  0  0  0
   -6.0900   23.8090  -32.1340 C   0  0  0  0  0  0  0  0  0  0  0  0
   -7.3010   23.0780  -32.7180 C   0  0  0  0  0  0  0  0  0  0  0  0
   -8.5410   23.1530  -31.8220 C   0  0  0  0  0  0  0  0  0  0  0  0
   -8.4750   22.1990  -30.7050 N   0  0  0  0  0  0  0  0  0  0  0  0
   -8.9690   20.8220  -30.8590 C   0  0  0  0  0  0  0  0  0  0  0  0
   -8.0300   19.9980  -31.6820 C   0  0  0  0  0  0  0  0  0  0  0  0
   -8.3680   18.7560  -32.2130 C   0  0  0  0  0  0  0  0  0  0  0  0
   -7.0190   18.1600  -33.0140 S   0  0  0  0  0  0  0  0  0  0  0  0
   -6.0620   19.5010  -32.6600 C   0  0  0  0  0  0  0  0  0  0  0  0
   -4.6410   19.6700  -33.0290 C   0  0  0  0  0  0  0  0  0  0  0  0
   -3.9610   18.6510  -33.7180 C   0  0  0  0  0  0  0  0  0  0  0  0
   -2.6640   18.8320  -34.0770 N   0  0  0  0  0  0  0  0  0  0  0  0
   -2.0050   19.9810  -33.7830 C   0  0  0  0  0  0  0  0  0  0  0  0
   -2.6710   20.9970  -33.0990 C   0  0  0  0  0  0  0  0  0  0  0  0
   -3.9700   20.8240  -32.7360 N   0  0  0  0  0  0  0  0  0  0  0  0
   -6.7560   20.4040  -31.9330 N   0  0  0  0  0  0  0  0  0  0  0  0
   -7.7720   22.6010  -29.4790 C   0  0  0  0  0  0  0  0  0  0  0  0
   -6.6300   23.6020  -29.7440 C   0  0  0  0  0  0  0  0  0  0  0  0
   -3.9853   23.7614  -26.6752 H   0  0  0  0  0  0  0  0  0  0  0  0
   -3.6216   25.0983  -27.8184 H   0  0  0  0  0  0  0  0  0  0  0  0
   -5.2471   24.3338  -27.8184 H   0  0  0  0  0  0  0  0  0  0  0  0
   -2.6045   23.0246  -28.6217 H   0  0  0  0  0  0  0  0  0  0  0  0
   -4.2193   22.1946  -28.5267 H   0  0  0  0  0  0  0  0  0  0  0  0
   -6.3417   24.8693  -31.9841 H   0  0  0  0  0  0  0  0  0  0  0  0
   -5.2441   23.7221  -32.8317 H   0  0  0  0  0  0  0  0  0  0  0  0
   -7.5453   23.5284  -33.6914 H   0  0  0  0  0  0  0  0  0  0  0  0
   -7.0285   22.0163  -32.8107 H   0  0  0  0  0  0  0  0  0  0  0  0
   -8.6229   24.1714  -31.4143 H   0  0  0  0  0  0  0  0  0  0  0  0
   -9.4177   22.8967  -32.4349 H   0  0  0  0  0  0  0  0  0  0  0  0
   -9.0702   20.3640  -29.8640 H   0  0  0  0  0  0  0  0  0  0  0  0
   -9.9417   20.8567  -31.3714 H   0  0  0  0  0  0  0  0  0  0  0  0
   -9.3435   18.2556  -32.1236 H   0  0  0  0  0  0  0  0  0  0  0  0
   -4.4770   17.7115  -33.9652 H   0  0  0  0  0  0  0  0  0  0  0  0
   -0.9542   20.1098  -34.0818 H   0  0  0  0  0  0  0  0  0  0  0  0
   -2.1485   21.9335  -32.8543 H   0  0  0  0  0  0  0  0  0  0  0  0
   -4.4470   21.6040  -32.2300 H   0  0  0  0  0  0  0  0  0  0  0  0
   -8.4967   23.0679  -28.7958 H   0  0  0  0  0  0  0  0  0  0  0  0
   -7.3236   21.6959  -29.0434 H   0  0  0  0  0  0  0  0  0  0  0  0
   -7.0766   24.5730  -30.0042 H   0  0  0  0  0  0  0  0  0  0  0  0
   -6.0263   23.6412  -28.8253 H   0  0  0  0  0  0  0  0  0  0  0  0
  1  2  1  0
  2  3  1  0
  3  4  2  0
  3  5  2  0
  3  6  1  0
  6  7  1  0
  7  8  1  0
  8  9  1  0
  9 10  1  0
 10 11  1  0
 11 12  1  0
 12 13  2  0
 13 14  1  0
 14 15  1  0
 15 16  1  0
 16 17  2  0
 17 18  1  0
 18 19  2  0
 19 20  1  0
 20 21  2  0
 15 22  2  0
 10 23  1  0
 23 24  1  0
 24  6  1  0
 22 12  1  0
 21 16  1  0
  1 25  1  0
  1 26  1  0
  1 27  1  0
  2 28  1  0
  2 29  1  0
  7 30  1  0
  7 31  1  0
  8 32  1  0
  8 33  1  0
  9 34  1  0
  9 35  1  0
 11 36  1  0
 11 37  1  0
 13 38  1  0
 17 39  1  0
 19 40  1  0
 20 41  1  0
 21 42  1  0
 23 43  1  0
 23 44  1  0
 24 45  1  0
 24 46  1  0
M  CHG  1  21   1
M  END
>  <UniqueID>  (1) 
1

>  <SMILES>  (1) 
CCS(=O)(=O)N1CCCN(Cc2csc(-c3cncc[nH+]3)n2)CC1

>  <Energy>  (1) 
84.46383154440765

>  <Genealogy>  (1) 
CCS(=O)(=O)N1CCCN(Cc2csc(-c3cncc[nH+]3)n2)CC1 (protonated)
CCS(=O)(=O)N1CCCN(Cc2csc(-c3cncc[nH+]3)n2)CC1 (3D coordinates assigned)
CCS(=O)(=O)N1CCCN(Cc2csc(-c3cncc[nH+]3)n2)CC1 (nonaromatic ring conformer: 84.46383154440765 kcal/mol)

>  <smiles>  (1) 
CCS(=O)(=O)N1CCCN(Cc2csc(-c3cnccn3)n2)CC1

>  <score_type>  (1) 
oracle

>  <origin>  (1) 
adg

>  <m_score__min__energy>  (1) 
-5.6299999999999999

>  <m_primary>  (1) 
energy

$$$$
1:0
     RDKit          3D

 63 66  0  0  0  0  0  0  0  0999 V2000
   -4.2360   22.9140  -27.5280 C   0  0  0  0  0  0  0  0  0  0  0  0
   -2.8030   22.3810  -27.4810 C   0  0  0  0  0  0  0  0  0  0  0  0
   -2.6910   21.0500  -28.1210 N   0  0  0  0  0  0  0  0  0  0  0  0
   -2.8320   19.9490  -27.1310 C   0  0  0  0  0  0  0  0  0  0  0  0
   -1.5550   19.1160  -27.0980 C   0  0  0  0  0  0  0  0  0  0  0  0
   -1.4180   20.9510  -28.8750 C   0  0  0  0  0  0  0  0  0  0  0  0
   -1.0930   22.2590  -29.6100 C   0  0  0  0  0  0  0  0  0  0  0  0
   -1.5560   22.2180  -30.9970 N   0  0  0  0  0  0  0  0  0  0  0  0
   -2.9200   21.8960  -31.3180 C   0  0  0  0  0  0  0  0  0  0  0  0
   -3.9530   22.8200  -30.9830 C   0  0  0  0  0  0  0  0  0  0  0  0
   -3.6510   24.1040  -30.4800 C   0  0  0  0  0  0  0  0  0  0  0  0
   -4.6670   25.0260  -30.2340 C   0  0  0  0  0  0  0  0  0  0  0  0
   -5.9900   24.7000  -30.5130 C   0  0  0  0  0  0  0  0  0  0  0  0
   -6.3140   23.4330  -31.0000 C   0  0  0  0  0  0  0  0  0  0  0  0
   -5.3120   22.4590  -31.1800 C   0  0  0  0  0  0  0  0  0  0  0  0
   -5.5740   21.1980  -31.6320 N   0  0  0  0  0  0  0  0  0  0  0  0
   -6.7060   20.4710  -31.8150 C   0  0  0  0  0  0  0  0  0  0  0  0
   -7.9940   20.6940  -31.3020 C   0  0  0  0  0  0  0  0  0  0  0  0
   -9.0000   19.7560  -31.5820 C   0  0  0  0  0  0  0  0  0  0  0  0
   -8.7140   18.5940  -32.3220 C   0  0  0  0  0  0  0  0  0  0  0  0
   -7.4040   18.3390  -32.7740 C   0  0  0  0  0  0  0  0  0  0  0  0
   -7.0730   17.0560  -33.4830 C   0  0  0  0  0  0  0  0  0  0  0  0
   -6.4150   19.2880  -32.4770 C   0  0  0  0  0  0  0  0  0  0  0  0
   -5.0490   19.2110  -32.6840 C   0  0  0  0  0  0  0  0  0  0  0  0
   -4.5270   20.3710  -32.1230 C   0  0  0  0  0  0  0  0  0  0  0  0
   -3.2140   20.7110  -31.9620 N   0  0  0  0  0  0  0  0  0  0  0  0
   -2.1420   19.8850  -32.5600 C   0  0  0  0  0  0  0  0  0  0  0  0
   -1.6350   20.5130  -33.8590 C   0  0  0  0  0  0  0  0  0  0  0  0
   -0.7110   21.5390  -33.5630 O   0  0  0  0  0  0  0  0  0  0  0  0
    0.3190   21.5320  -34.5260 C   0  0  0  0  0  0  0  0  0  0  0  0
   -4.6094   23.0529  -26.5027 H   0  0  0  0  0  0  0  0  0  0  0  0
   -4.2515   23.8780  -28.0576 H   0  0  0  0  0  0  0  0  0  0  0  0
   -4.8777   22.1944  -28.0576 H   0  0  0  0  0  0  0  0  0  0  0  0
   -2.1432   23.0862  -28.0076 H   0  0  0  0  0  0  0  0  0  0  0  0
   -2.5101   22.2791  -26.4256 H   0  0  0  0  0  0  0  0  0  0  0  0
   -3.0152   20.3759  -26.1339 H   0  0  0  0  0  0  0  0  0  0  0  0
   -3.6767   19.3067  -27.4206 H   0  0  0  0  0  0  0  0  0  0  0  0
   -1.2668   18.9280  -26.0532 H   0  0  0  0  0  0  0  0  0  0  0  0
   -1.7293   18.1573  -27.6085 H   0  0  0  0  0  0  0  0  0  0  0  0
   -0.7479   19.6618  -27.6085 H   0  0  0  0  0  0  0  0  0  0  0  0
   -0.6031   20.7249  -28.1715 H   0  0  0  0  0  0  0  0  0  0  0  0
   -1.5232   20.1525  -29.6242 H   0  0  0  0  0  0  0  0  0  0  0  0
   -1.5874   23.0938  -29.0916 H   0  0  0  0  0  0  0  0  0  0  0  0
   -0.0014   22.3943  -29.6121 H   0  0  0  0  0  0  0  0  0  0  0  0
   -0.9610   22.6660  -31.7300 H   0  0  0  0  0  0  0  0  0  0  0  0
   -2.6049   24.3793  -30.2805 H   0  0  0  0  0  0  0  0  0  0  0  0
   -4.4217   26.0143  -29.8180 H   0  0  0  0  0  0  0  0  0  0  0  0
   -6.7839   25.4436  -30.3492 H   0  0  0  0  0  0  0  0  0  0  0  0
   -7.3591   23.1930  -31.2451 H   0  0  0  0  0  0  0  0  0  0  0  0
   -8.2100   21.5847  -30.6937 H   0  0  0  0  0  0  0  0  0  0  0  0
  -10.0234   19.9313  -31.2188 H   0  0  0  0  0  0  0  0  0  0  0  0
   -9.5189   17.8795  -32.5493 H   0  0  0  0  0  0  0  0  0  0  0  0
   -6.8700   16.2692  -32.7416 H   0  0  0  0  0  0  0  0  0  0  0  0
   -7.9230   16.7555  -34.1132 H   0  0  0  0  0  0  0  0  0  0  0  0
   -6.1837   17.2042  -34.1132 H   0  0  0  0  0  0  0  0  0  0  0  0
   -4.4944   18.4041  -33.1854 H   0  0  0  0  0  0  0  0  0  0  0  0
   -1.3075   19.8059  -31.8477 H   0  0  0  0  0  0  0  0  0  0  0  0
   -2.5484   18.8879  -32.7849 H   0  0  0  0  0  0  0  0  0  0  0  0
   -1.1422   19.7422  -34.4697 H   0  0  0  0  0  0  0  0  0  0  0  0
   -2.4846   20.9371  -34.4143 H   0  0  0  0  0  0  0  0  0  0  0  0
    1.2951   21.5254  -34.0188 H   0  0  0  0  0  0  0  0  0  0  0  0
    0.2266   20.6345  -35.1552 H   0  0  0  0  0  0  0  0  0  0  0  0
    0.2388   22.4307  -35.1552 H   0  0  0  0  0  0  0  0  0  0  0  0
  1  2  1  0
  2  3  1  0
  3  4  1  0
  4  5  1  0
  3  6  1  0
  6  7  1  0
  7  8  1  0
  8  9  1  0
  9 10  2  0
 10 11  1  0
 11 12  2  0
 12 13  1  0
 13 14  2  0
 14 15  1  0
 15 16  2  0
 16 17  1  0
 17 18  2  0
 18 19  1  0
 19 20  2  0
 20 21  1  0
 21 22  1  0
 21 23  2  0
 23 24  1  0
 24 25  2  0
 25 26  1  0
 26 27  1  0
 27 28  1  0
 28 29  1  0
 29 30  1  0
 26  9  1  0
 15 10  1  0
 25 16  1  0
 23 17  1  0
  1 31  1  0
  1 32  1  0
  1 33  1  0
  2 34  1  0
  2 35  1  0
  4 36  1  0
  4 37  1  0
  5 38  1  0
  5 39  1  0
  5 40  1  0
  6 41  1  0
  6 42  1  0
  7 43  1  0
  7 44  1  0
  8 45  1  0
 11 46  1  0
 12 47  1  0
 13 48  1  0
 14 49  1  0
 18 50  1  0
 19 51  1  0
 20 52  1  0
 22 53  1  0
 22 54  1  0
 22 55  1  0
 24 56  1  0
 27 57  1  0
 27 58  1  0
 28 59  1  0
 28 60  1  0
 30 61  1  0
 30 62  1  0
 30 63  1  0
M  CHG  1  16   1
M  END
>  <UniqueID>  (2) 
2

>  <SMILES>  (2) 
CCN(CC)CCNc1c2ccccc2[n+]2c3cccc(C)c3cc-2n1CCOC

>  <Energy>  (2) 
118.74965982932275

>  <Genealogy>  (2) 
CCN(CC)CCNc1c2ccccc2[n+]2c3cccc(C)c3cc-2n1CCOC (3D coordinates assigned)
CCN(CC)CCNc1c2ccccc2[n+]2c3cccc(C)c3cc-2n1CCOC (optimized conformer: 118.74965982932275 kcal/mol)

>  <smiles>  (2) 
CCN(CC)CCNc1c2ccccc2[n+]2c3cccc(C)c3cc-2n1CCOC

>  <score_type>  (2) 
oracle

>  <origin>  (2) 
adg

>  <m_score__min__energy>  (2) 
-7.8799999999999999

>  <m_primary>  (2) 
energy

$$$$
2:0
     RDKit          3D

 47 49  0  0  0  0  0  0  0  0999 V2000
   -3.4630   18.6080  -25.9970 C   0  0  0  0  0  0  0  0  0  0  0  0
   -2.1400   18.9070  -26.7010 C   0  0  0  0  0  0  0  0  0  0  0  0
   -2.3370   19.8470  -27.8190 N   0  0  0  0  0  0  0  0  0  0  0  0
   -1.4550   21.0280  -27.7330 C   0  0  0  0  0  0  0  0  0  0  0  0
   -0.6490   21.2780  -29.0220 C   0  0  0  0  0  0  0  0  0  0  0  0
   -1.0410   20.3990  -30.0750 O   0  0  0  0  0  0  0  0  0  0  0  0
   -1.8790   20.7400  -31.1470 C   0  0  0  0  0  0  0  0  0  0  0  0
   -1.4530   20.7050  -32.4890 C   0  0  0  0  0  0  0  0  0  0  0  0
   -2.3220   21.0960  -33.5120 C   0  0  0  0  0  0  0  0  0  0  0  0
   -3.6130   21.5330  -33.2100 C   0  0  0  0  0  0  0  0  0  0  0  0
   -4.0500   21.5640  -31.8780 C   0  0  0  0  0  0  0  0  0  0  0  0
   -5.4060   22.0640  -31.5450 C   0  0  0  0  0  0  0  0  0  0  0  0
   -5.5650   23.3420  -30.9620 C   0  0  0  0  0  0  0  0  0  0  0  0
   -4.4110   24.1750  -30.6870 C   0  0  0  0  0  0  0  0  0  0  0  0
   -3.4900   24.8390  -30.4660 N   0  0  0  0  0  0  0  0  0  0  0  0
   -6.8610   23.8170  -30.6740 C   0  0  0  0  0  0  0  0  0  0  0  0
   -7.0870   25.1700  -30.0620 C   0  0  0  0  0  0  0  0  0  0  0  0
   -7.9410   23.0460  -30.9620 N   0  0  0  0  0  0  0  0  0  0  0  0
   -7.8300   21.8130  -31.5180 C   0  0  0  0  0  0  0  0  0  0  0  0
   -8.9870   21.0720  -31.7850 C   0  0  0  0  0  0  0  0  0  0  0  0
   -8.8910   19.7970  -32.3440 C   0  0  0  0  0  0  0  0  0  0  0  0
   -7.6400   19.2540  -32.6350 C   0  0  0  0  0  0  0  0  0  0  0  0
   -6.4770   19.9830  -32.3730 C   0  0  0  0  0  0  0  0  0  0  0  0
   -6.5560   21.2810  -31.8210 C   0  0  0  0  0  0  0  0  0  0  0  0
   -3.1870   21.1440  -30.8560 C   0  0  0  0  0  0  0  0  0  0  0  0
   -3.3144   18.6416  -24.9076 H   0  0  0  0  0  0  0  0  0  0  0  0
   -4.2114   19.3596  -26.2883 H   0  0  0  0  0  0  0  0  0  0  0  0
   -3.8155   17.6075  -26.2883 H   0  0  0  0  0  0  0  0  0  0  0  0
   -1.4398   19.3502  -25.9776 H   0  0  0  0  0  0  0  0  0  0  0  0
   -1.7358   17.9657  -27.1018 H   0  0  0  0  0  0  0  0  0  0  0  0
   -2.1120   19.3520  -28.7150 H   0  0  0  0  0  0  0  0  0  0  0  0
   -3.3400   20.1440  -27.8600 H   0  0  0  0  0  0  0  0  0  0  0  0
   -2.0752   21.9137  -27.5311 H   0  0  0  0  0  0  0  0  0  0  0  0
   -0.7315   20.8380  -26.9265 H   0  0  0  0  0  0  0  0  0  0  0  0
   -0.8113   22.3163  -29.3469 H   0  0  0  0  0  0  0  0  0  0  0  0
    0.4124   21.0922  -28.8010 H   0  0  0  0  0  0  0  0  0  0  0  0
   -0.4342   20.3693  -32.7328 H   0  0  0  0  0  0  0  0  0  0  0  0
   -1.9871   21.0592  -34.5591 H   0  0  0  0  0  0  0  0  0  0  0  0
   -4.2879   21.8532  -34.0175 H   0  0  0  0  0  0  0  0  0  0  0  0
   -7.0726   25.0835  -28.9655 H   0  0  0  0  0  0  0  0  0  0  0  0
   -6.2911   25.8566  -30.3862 H   0  0  0  0  0  0  0  0  0  0  0  0
   -8.0628   25.5607  -30.3862 H   0  0  0  0  0  0  0  0  0  0  0  0
   -9.9752   21.4961  -31.5534 H   0  0  0  0  0  0  0  0  0  0  0  0
   -9.8032   19.2197  -32.5553 H   0  0  0  0  0  0  0  0  0  0  0  0
   -7.5684   18.2474  -33.0727 H   0  0  0  0  0  0  0  0  0  0  0  0
   -5.4940   19.5435  -32.5979 H   0  0  0  0  0  0  0  0  0  0  0  0
   -3.5416   21.1319  -29.8148 H   0  0  0  0  0  0  0  0  0  0  0  0
  1  2  1  0
  2  3  1  0
  3  4  1  0
  4  5  1  0
  5  6  1  0
  6  7  1  0
  7  8  2  0
  8  9  1  0
  9 10  2  0
 10 11  1  0
 11 12  1  0
 12 13  2  0
 13 14  1  0
 14 15  3  0
 13 16  1  0
 16 17  1  0
 16 18  2  0
 18 19  1  0
 19 20  2  0
 20 21  1  0
 21 22  2  0
 22 23  1  0
 23 24  2  0
 11 25  2  0
 25  7  1  0
 24 12  1  0
 24 19  1  0
  1 26  1  0
  1 27  1  0
  1 28  1  0
  2 29  1  0
  2 30  1  0
  3 31  1  0
  3 32  1  0
  4 33  1  0
  4 34  1  0
  5 35  1  0
  5 36  1  0
  8 37  1  0
  9 38  1  0
 10 39  1  0
 17 40  1  0
 17 41  1  0
 17 42  1  0
 20 43  1  0
 21 44  1  0
 22 45  1  0
 23 46  1  0
 25 47  1  0
M  CHG  1   3   1
M  END
>  <UniqueID>  (3) 
3

>  <SMILES>  (3) 
CC[NH2+]CCOc1cccc(-c2c(C#N)c(C)nc3ccccc23)c1

>  <Energy>  (3) 
58.155908734701455

>  <Genealogy>  (3) 
CC[NH2+]CCOc1cccc(-c2c(C#N)c(C)nc3ccccc23)c1 (protonated)
CC[NH2+]CCOc1cccc(-c2c(C#N)c(C)nc3ccccc23)c1 (3D coordinates assigned)
CC[NH2+]CCOc1cccc(-c2c(C#N)c(C)nc3ccccc23)c1 (optimized conformer: 58.155908734701455 kcal/mol)

>  <smiles>  (3) 
CCNCCOc1cccc(-c2c(C#N)c(C)nc3ccccc23)c1

>  <score_type>  (3) 
oracle

>  <origin>  (3) 
adg

>  <m_score__min__energy>  (3) 
-7.4299999999999997

>  <m_primary>  (3) 
energy

$$$$
3:0
     RDKit          3D

 60 62  0  0  0  0  0  0  0  0999 V2000
   -2.3250   18.6710  -26.3640 C   0  0  0  0  0  0  0  0  0  0  0  0
   -3.1300   19.7460  -27.1090 C   0  0  0  0  0  0  0  0  0  0  0  0
   -2.3010   20.8270  -27.6890 N   0  0  0  0  0  0  0  0  0  0  0  0
   -1.3480   21.4030  -26.7260 C   0  0  0  0  0  0  0  0  0  0  0  0
   -3.0870   21.8600  -28.4000 C   0  0  0  0  0  0  0  0  0  0  0  0
   -2.6780   23.2470  -27.8890 C   0  0  0  0  0  0  0  0  0  0  0  0
   -3.8980   24.0960  -27.5090 C   0  0  0  0  0  0  0  0  0  0  0  0
   -4.9090   24.0530  -28.5770 N   0  0  0  0  0  0  0  0  0  0  0  0
   -4.5120   24.8460  -29.7520 C   0  0  0  0  0  0  0  0  0  0  0  0
   -5.7570   25.2640  -30.5400 C   0  0  0  0  0  0  0  0  0  0  0  0
   -6.2030   24.1600  -31.5010 C   0  0  0  0  0  0  0  0  0  0  0  0
   -6.0640   22.8510  -30.8680 N   0  0  0  0  0  0  0  0  0  0  0  0
   -5.8130   21.6660  -31.6440 C   0  0  0  0  0  0  0  0  0  0  0  0
   -6.8530   20.7570  -31.9090 C   0  0  0  0  0  0  0  0  0  0  0  0
   -8.1360   20.9420  -31.3540 C   0  0  0  0  0  0  0  0  0  0  0  0
   -9.1520   20.0200  -31.5850 C   0  0  0  0  0  0  0  0  0  0  0  0
   -8.9020   18.8860  -32.3470 C   0  0  0  0  0  0  0  0  0  0  0  0
   -7.6400   18.6740  -32.8980 C   0  0  0  0  0  0  0  0  0  0  0  0
   -6.5950   19.6180  -32.7200 C   0  0  0  0  0  0  0  0  0  0  0  0
   -5.3500   19.4430  -33.2950 N   0  0  0  0  0  0  0  0  0  0  0  0
   -5.1630   18.4320  -34.3610 C   0  0  0  0  0  0  0  0  0  0  0  0
   -4.2860   20.2280  -32.8920 C   0  0  0  0  0  0  0  0  0  0  0  0
   -2.9490   19.9130  -33.2480 C   0  0  0  0  0  0  0  0  0  0  0  0
   -1.8900   20.7500  -32.8890 C   0  0  0  0  0  0  0  0  0  0  0  0
   -0.2470   20.3420  -33.3570 Cl  0  0  0  0  0  0  0  0  0  0  0  0
   -2.1340   21.9070  -32.1550 C   0  0  0  0  0  0  0  0  0  0  0  0
   -3.4300   22.2170  -31.7490 C   0  0  0  0  0  0  0  0  0  0  0  0
   -4.5120   21.3770  -32.0870 C   0  0  0  0  0  0  0  0  0  0  0  0
   -2.4344   18.8170  -25.2792 H   0  0  0  0  0  0  0  0  0  0  0  0
   -2.7010   17.6746  -26.6396 H   0  0  0  0  0  0  0  0  0  0  0  0
   -1.2631   18.7514  -26.6396 H   0  0  0  0  0  0  0  0  0  0  0  0
   -3.6838   19.2593  -27.9253 H   0  0  0  0  0  0  0  0  0  0  0  0
   -3.7930   20.2168  -26.3682 H   0  0  0  0  0  0  0  0  0  0  0  0
   -1.6912   21.1956  -25.7017 H   0  0  0  0  0  0  0  0  0  0  0  0
   -0.3558   20.9533  -26.8784 H   0  0  0  0  0  0  0  0  0  0  0  0
   -1.2849   22.4906  -26.8784 H   0  0  0  0  0  0  0  0  0  0  0  0
   -2.8900   21.7933  -29.4802 H   0  0  0  0  0  0  0  0  0  0  0  0
   -4.1595   21.7000  -28.2151 H   0  0  0  0  0  0  0  0  0  0  0  0
   -2.0384   23.1256  -27.0023 H   0  0  0  0  0  0  0  0  0  0  0  0
   -2.1394   23.7642  -28.6967 H   0  0  0  0  0  0  0  0  0  0  0  0
   -4.3365   23.7038  -26.5795 H   0  0  0  0  0  0  0  0  0  0  0  0
   -3.5756   25.1380  -27.3663 H   0  0  0  0  0  0  0  0  0  0  0  0
   -5.8030   24.4500  -28.2040 H   0  0  0  0  0  0  0  0  0  0  0  0
   -3.9709   25.7445  -29.4204 H   0  0  0  0  0  0  0  0  0  0  0  0
   -3.8606   24.2383  -30.3973 H   0  0  0  0  0  0  0  0  0  0  0  0
   -6.5735   25.4760  -29.8340 H   0  0  0  0  0  0  0  0  0  0  0  0
   -5.5104   26.1592  -31.1298 H   0  0  0  0  0  0  0  0  0  0  0  0
   -7.2562   24.3208  -31.7749 H   0  0  0  0  0  0  0  0  0  0  0  0
   -5.5709   24.1916  -32.4007 H   0  0  0  0  0  0  0  0  0  0  0  0
   -6.0450   22.7890  -29.8250 H   0  0  0  0  0  0  0  0  0  0  0  0
   -8.3360   21.8261  -30.7308 H   0  0  0  0  0  0  0  0  0  0  0  0
  -10.1540   20.1893  -31.1638 H   0  0  0  0  0  0  0  0  0  0  0  0
   -9.7038   18.1522  -32.5162 H   0  0  0  0  0  0  0  0  0  0  0  0
   -7.4504   17.7603  -33.4804 H   0  0  0  0  0  0  0  0  0  0  0  0
   -4.9809   17.4477  -33.9050 H   0  0  0  0  0  0  0  0  0  0  0  0
   -6.0678   18.3854  -34.9849 H   0  0  0  0  0  0  0  0  0  0  0  0
   -4.3014   18.7121  -34.9849 H   0  0  0  0  0  0  0  0  0  0  0  0
   -2.7431   18.9940  -33.8164 H   0  0  0  0  0  0  0  0  0  0  0  0
   -1.3020   22.5779  -31.8950 H   0  0  0  0  0  0  0  0  0  0  0  0
   -3.6118   23.1269  -31.1582 H   0  0  0  0  0  0  0  0  0  0  0  0
  1  2  1  0
  2  3  1  0
  3  4  1  0
  3  5  1  0
  5  6  1  0
  6  7  1  0
  7  8  1  0
  8  9  1  0
  9 10  1  0
 10 11  1  0
 11 12  1  0
 12 13  1  0
 13 14  2  0
 14 15  1  0
 15 16  2  0
 16 17  1  0
 17 18  2  0
 18 19  1  0
 19 20  2  0
 20 21  1  0
 20 22  1  0
 22 23  2  0
 23 24  1  0
 24 25  1  0
 24 26  2  0
 26 27  1  0
 27 28  2  0
 28 13  1  0
 19 14  1  0
 28 22  1  0
  1 29  1  0
  1 30  1  0
  1 31  1  0
  2 32  1  0
  2 33  1  0
  4 34  1  0
  4 35  1  0
  4 36  1  0
  5 37  1  0
  5 38  1  0
  6 39  1  0
  6 40  1  0
  7 41  1  0
  7 42  1  0
  8 43  1  0
  9 44  1  0
  9 45  1  0
 10 46  1  0
 10 47  1  0
 11 48  1  0
 11 49  1  0
 12 50  1  0
 15 51  1  0
 16 52  1  0
 17 53  1  0
 18 54  1  0
 21 55  1  0
 21 56  1  0
 21 57  1  0
 23 58  1  0
 26 59  1  0
 27 60  1  0
M  CHG  1  20   1
M  END
>  <UniqueID>  (4) 
4

>  <SMILES>  (4) 
CCN(C)CCCNCCCNc1c2ccccc2[n+](C)c2cc(Cl)ccc12

>  <Energy>  (4) 
79.0763326972505

>  <Genealogy>  (4) 
CCN(C)CCCNCCCNc1c2ccccc2[n+](C)c2cc(Cl)ccc12 (3D coordinates assigned)
CCN(C)CCCNCCCNc1c2ccccc2[n+](C)c2cc(Cl)ccc12 (optimized conformer: 79.0763326972505 kcal/mol)

>  <smiles>  (4) 
CCN(C)CCCNCCCNc1c2ccccc2[n+](C)c2cc(Cl)ccc12

>  <score_type>  (4) 
oracle

>  <origin>  (4) 
adg

>  <m_score__min__energy>  (4) 
-8.4100000000000001

>  <m_primary>  (4) 
energy

$$$$
4:0
     RDKit          3D

 32 32  0  0  0  0  0  0  0  0999 V2000
   -3.9020   24.8890  -26.4830 C   0  0  0  0  0  0  0  0  0  0  0  0
   -3.7740   24.2060  -27.8470 C   0  0  0  0  0  0  0  0  0  0  0  0
   -3.5330   22.7030  -27.6720 C   0  0  0  0  0  0  0  0  0  0  0  0
   -4.9850   24.4290  -28.6430 N   0  0  0  0  0  0  0  0  0  0  0  0
   -4.9390   24.9250  -29.9880 C   0  0  0  0  0  0  0  0  0  0  0  0
   -3.8450   25.2980  -30.4950 O   0  0  0  0  0  0  0  0  0  0  0  0
   -6.1950   24.9920  -30.8060 C   0  0  0  0  0  0  0  0  0  0  0  0
   -6.3690   23.7570  -31.5940 N   0  0  0  0  0  0  0  0  0  0  0  0
   -7.6400   23.0760  -31.2520 C   0  0  0  0  0  0  0  0  0  0  0  0
   -7.6900   21.6340  -31.8040 C   0  0  0  0  0  0  0  0  0  0  0  0
   -6.6860   21.4250  -32.8540 N   0  0  0  0  0  0  0  0  0  0  0  0
   -5.3250   21.6360  -32.3350 C   0  0  0  0  0  0  0  0  0  0  0  0
   -5.2300   22.8460  -31.3810 C   0  0  0  0  0  0  0  0  0  0  0  0
   -3.7624   24.1443  -25.6855 H   0  0  0  0  0  0  0  0  0  0  0  0
   -3.1350   25.6722  -26.3917 H   0  0  0  0  0  0  0  0  0  0  0  0
   -4.9005   25.3413  -26.3917 H   0  0  0  0  0  0  0  0  0  0  0  0
   -2.9141   24.6434  -28.3755 H   0  0  0  0  0  0  0  0  0  0  0  0
   -3.4941   22.4603  -26.5998 H   0  0  0  0  0  0  0  0  0  0  0  0
   -4.3528   22.1426  -28.1453 H   0  0  0  0  0  0  0  0  0  0  0  0
   -2.5791   22.4270  -28.1453 H   0  0  0  0  0  0  0  0  0  0  0  0
   -5.9210   24.2110  -28.2300 H   0  0  0  0  0  0  0  0  0  0  0  0
   -7.0573   25.1167  -30.1345 H   0  0  0  0  0  0  0  0  0  0  0  0
   -6.1231   25.8455  -31.4963 H   0  0  0  0  0  0  0  0  0  0  0  0
   -7.7408   23.0410  -30.1572 H   0  0  0  0  0  0  0  0  0  0  0  0
   -8.4637   23.6438  -31.7092 H   0  0  0  0  0  0  0  0  0  0  0  0
   -7.4987   20.9294  -30.9812 H   0  0  0  0  0  0  0  0  0  0  0  0
   -8.6857   21.4657  -32.2401 H   0  0  0  0  0  0  0  0  0  0  0  0
   -6.8650   22.1090  -33.6270 H   0  0  0  0  0  0  0  0  0  0  0  0
   -5.0128   20.7331  -31.7898 H   0  0  0  0  0  0  0  0  0  0  0  0
   -4.6702   21.8399  -33.1951 H   0  0  0  0  0  0  0  0  0  0  0  0
   -5.2405   22.4893  -30.3405 H   0  0  0  0  0  0  0  0  0  0  0  0
   -4.2951   23.3889  -31.5842 H   0  0  0  0  0  0  0  0  0  0  0  0
  1  2  1  0
  2  3  1  0
  2  4  1  0
  4  5  1  0
  5  6  2  0
  5  7  1  0
  7  8  1  0
  8  9  1  0
  9 10  1  0
 10 11  1  0
 11 12  1  0
 12 13  1  0
 13  8  1  0
  1 14  1  0
  1 15  1  0
  1 16  1  0
  2 17  1  0
  3 18  1  0
  3 19  1  0
  3 20  1  0
  4 21  1  0
  7 22  1  0
  7 23  1  0
  9 24  1  0
  9 25  1  0
 10 26  1  0
 10 27  1  0
 11 28  1  0
 12 29  1  0
 12 30  1  0
 13 31  1  0
 13 32  1  0
M  END
>  <UniqueID>  (5) 
5

>  <SMILES>  (5) 
CC(C)NC(=O)CN1CCNCC1

>  <Energy>  (5) 
28.14028018900311

>  <Genealogy>  (5) 
CC(C)NC(=O)CN1CCNCC1 (3D coordinates assigned)
CC(C)NC(=O)CN1CCNCC1 (nonaromatic ring conformer: 28.14028018900311 kcal/mol)

>  <smiles>  (5) 
CC(C)NC(=O)CN1CCNCC1

>  <score_type>  (5) 
oracle

>  <origin>  (5) 
adg

>  <m_score__min__energy>  (5) 
-6.1600000000000001

>  <m_primary>  (5) 
energy

$$$$
5:0
     RDKit          3D

 62 65  0  0  0  0  0  0  0  0999 V2000
   -2.8180   18.9960  -26.3550 C   0  0  0  0  0  0  0  0  0  0  0  0
   -2.0320   20.2560  -26.7320 C   0  0  0  0  0  0  0  0  0  0  0  0
   -2.7670   21.1230  -27.6650 N   0  0  0  0  0  0  0  0  0  0  0  0
   -2.7870   20.5810  -29.0300 C   0  0  0  0  0  0  0  0  0  0  0  0
   -2.8470   21.7310  -30.0400 C   0  0  0  0  0  0  0  0  0  0  0  0
   -4.1570   22.3920  -30.0060 N   0  0  0  0  0  0  0  0  0  0  0  0
   -4.5540   23.4450  -29.2370 C   0  0  0  0  0  0  0  0  0  0  0  0
   -3.6950   24.1890  -28.2900 C   0  0  0  0  0  0  0  0  0  0  0  0
   -4.1770   24.5850  -27.0370 C   0  0  0  0  0  0  0  0  0  0  0  0
   -3.3510   25.2730  -26.1480 C   0  0  0  0  0  0  0  0  0  0  0  0
   -2.0220   25.5720  -26.4910 C   0  0  0  0  0  0  0  0  0  0  0  0
   -1.1940   26.2950  -25.5610 N   0  0  0  0  0  0  0  0  0  0  0  0
   -0.8560   25.9150  -24.3100 C   0  0  0  0  0  0  0  0  0  0  0  0
   -0.1070   26.8380  -23.6700 N   0  0  0  0  0  0  0  0  0  0  0  0
    0.0280   27.8310  -24.5710 C   0  0  0  0  0  0  0  0  0  0  0  0
    0.7200   29.1230  -24.2910 C   0  0  0  0  0  0  0  0  0  0  0  0
   -0.6490   27.5150  -25.7270 C   0  0  0  0  0  0  0  0  0  0  0  0
   -1.5140   25.1460  -27.7370 C   0  0  0  0  0  0  0  0  0  0  0  0
   -0.1690   25.4000  -28.0480 O   0  0  0  0  0  0  0  0  0  0  0  0
    0.9420   24.7680  -27.4210 C   0  0  0  0  0  0  0  0  0  0  0  0
   -2.3620   24.4570  -28.6290 C   0  0  0  0  0  0  0  0  0  0  0  0
   -5.8740   23.7070  -29.3780 N   0  0  0  0  0  0  0  0  0  0  0  0
   -6.3150   22.7910  -30.2560 C   0  0  0  0  0  0  0  0  0  0  0  0
   -5.2800   21.9970  -30.6460 C   0  0  0  0  0  0  0  0  0  0  0  0
   -5.4350   20.8490  -31.6010 C   0  0  0  0  0  0  0  0  0  0  0  0
   -6.8510   20.6220  -31.9700 N   0  0  0  0  0  0  0  0  0  0  0  0
   -7.1240   19.6360  -32.9920 C   0  0  0  0  0  0  0  0  0  0  0  0
   -7.9450   18.4100  -32.7170 C   0  0  0  0  0  0  0  0  0  0  0  0
   -6.6710   19.7990  -34.1570 O   0  0  0  0  0  0  0  0  0  0  0  0
   -7.9510   21.1780  -31.1450 C   0  0  0  0  0  0  0  0  0  0  0  0
   -7.7020   22.6460  -30.7710 C   0  0  0  0  0  0  0  0  0  0  0  0
   -2.8710   18.9110  -25.2596 H   0  0  0  0  0  0  0  0  0  0  0  0
   -3.8357   19.0616  -26.7674 H   0  0  0  0  0  0  0  0  0  0  0  0
   -2.3116   18.1108  -26.7674 H   0  0  0  0  0  0  0  0  0  0  0  0
   -1.8187   20.8256  -25.8154 H   0  0  0  0  0  0  0  0  0  0  0  0
   -1.1077   19.9343  -27.2341 H   0  0  0  0  0  0  0  0  0  0  0  0
   -3.7520   21.2400  -27.3280 H   0  0  0  0  0  0  0  0  0  0  0  0
   -1.8755   19.9899  -29.2023 H   0  0  0  0  0  0  0  0  0  0  0  0
   -3.6717   19.9394  -29.1548 H   0  0  0  0  0  0  0  0  0  0  0  0
   -2.0664   22.4663  -29.7949 H   0  0  0  0  0  0  0  0  0  0  0  0
   -2.6869   21.3212  -31.0482 H   0  0  0  0  0  0  0  0  0  0  0  0
   -5.2135   24.3523  -26.7516 H   0  0  0  0  0  0  0  0  0  0  0  0
   -3.7441   25.5844  -25.1690 H   0  0  0  0  0  0  0  0  0  0  0  0
   -1.1582   24.9573  -23.8612 H   0  0  0  0  0  0  0  0  0  0  0  0
    0.7982   29.2689  -23.2035 H   0  0  0  0  0  0  0  0  0  0  0  0
    1.7277   29.1022  -24.7315 H   0  0  0  0  0  0  0  0  0  0  0  0
    0.1443   29.9503  -24.7315 H   0  0  0  0  0  0  0  0  0  0  0  0
   -0.7302   28.1455  -26.6247 H   0  0  0  0  0  0  0  0  0  0  0  0
    0.8311   24.8311  -26.3284 H   0  0  0  0  0  0  0  0  0  0  0  0
    0.9825   23.7116  -27.7251 H   0  0  0  0  0  0  0  0  0  0  0  0
    1.8707   25.2730  -27.7251 H   0  0  0  0  0  0  0  0  0  0  0  0
   -1.9721   24.1259  -29.6028 H   0  0  0  0  0  0  0  0  0  0  0  0
   -6.4330   24.4500  -28.9030 H   0  0  0  0  0  0  0  0  0  0  0  0
   -4.8606   21.0661  -32.5136 H   0  0  0  0  0  0  0  0  0  0  0  0
   -5.0635   19.9408  -31.1038 H   0  0  0  0  0  0  0  0  0  0  0  0
   -8.0398   18.2684  -31.6303 H   0  0  0  0  0  0  0  0  0  0  0  0
   -8.9447   18.5313  -33.1596 H   0  0  0  0  0  0  0  0  0  0  0  0
   -7.4522   17.5318  -33.1596 H   0  0  0  0  0  0  0  0  0  0  0  0
   -8.8905   21.1104  -31.7132 H   0  0  0  0  0  0  0  0  0  0  0  0
   -8.0069   20.5944  -30.2143 H   0  0  0  0  0  0  0  0  0  0  0  0
   -7.8321   23.2795  -31.6608 H   0  0  0  0  0  0  0  0  0  0  0  0
   -8.4182   22.9564  -29.9960 H   0  0  0  0  0  0  0  0  0  0  0  0
  1  2  1  0
  2  3  1  0
  3  4  1  0
  4  5  1  0
  5  6  1  0
  6  7  1  0
  7  8  1  0
  8  9  2  0
  9 10  1  0
 10 11  2  0
 11 12  1  0
 12 13  1  0
 13 14  2  0
 14 15  1  0
 15 16  1  0
 15 17  2  0
 11 18  1  0
 18 19  1  0
 19 20  1  0
 18 21  2  0
  7 22  2  0
 22 23  1  0
 23 24  2  0
 24 25  1  0
 25 26  1  0
 26 27  1  0
 27 28  1  0
 27 29  2  0
 26 30  1  0
 30 31  1  0
 24  6  1  0
 21  8  1  0
 31 23  1  0
 17 12  1  0
  1 32  1  0
  1 33  1  0
  1 34  1  0
  2 35  1  0
  2 36  1  0
  3 37  1  0
  4 38  1  0
  4 39  1  0
  5 40  1  0
  5 41  1  0
  9 42  1  0
 10 43  1  0
 13 44  1  0
 16 45  1  0
 16 46  1  0
 16 47  1  0
 17 48  1  0
 20 49  1  0
 20 50  1  0
 20 51  1  0
 21 52  1  0
 22 53  1  0
 25 54  1  0
 25 55  1  0
 28 56  1  0
 28 57  1  0
 28 58  1  0
 30 59  1  0
 30 60  1  0
 31 61  1  0
 31 62  1  0
M  CHG  1  22   1
M  END
>  <UniqueID>  (6) 
6

>  <SMILES>  (6) 
CCNCCn1c(-c2ccc(-n3cnc(C)c3)c(OC)c2)[nH+]c2c1CN(C(C)=O)CC2

>  <Energy>  (6) 
131.22248162074092

>  <Genealogy>  (6) 
CCNCCn1c(-c2ccc(-n3cnc(C)c3)c(OC)c2)[nH+]c2c1CN(C(C)=O)CC2 (protonated)
CCNCCn1c(-c2ccc(-n3cnc(C)c3)c(OC)c2)[nH+]c2c1CN(C(C)=O)CC2 (3D coordinates assigned)
CCNCCn1c(-c2ccc(-n3cnc(C)c3)c(OC)c2)[nH+]c2c1CN(C(C)=O)CC2 (nonaromatic ring conformer: 131.22248162074092 kcal/mol)

>  <smiles>  (6) 
CCNCCn1c(-c2ccc(-n3cnc(C)c3)c(OC)c2)nc2c1CN(C(C)=O)CC2

>  <score_type>  (6) 
oracle

>  <origin>  (6) 
adg

>  <m_score__min__energy>  (6) 
-8.0500000000000007

>  <m_primary>  (6) 
energy

$$$$
6:0
     RDKit          3D

 77 81  0  0  0  0  0  0  0  0999 V2000
   -0.3950   20.2830  -27.6210 C   0  0  0  0  0  0  0  0  0  0  0  0
   -0.0560   21.5780  -28.3680 C   0  0  1  0  0  0  0  0  0  0  0  0
   -0.7010   21.6770  -29.7700 C   0  0  0  0  0  0  0  0  0  0  0  0
   -2.1840   21.2690  -29.8800 C   0  0  0  0  0  0  0  0  0  0  0  0
   -3.1080   22.3410  -29.4770 N   0  0  0  0  0  0  0  0  0  0  0  0
   -3.8870   21.9760  -28.2830 C   0  0  0  0  0  0  0  0  0  0  0  0
   -3.6830   23.0220  -27.1750 C   0  0  0  0  0  0  0  0  0  0  0  0
   -4.2500   24.3940  -27.5610 C   0  0  0  0  0  0  0  0  0  0  0  0
   -4.3440   24.5040  -29.0230 N   0  0  0  0  0  0  0  0  0  0  0  0
   -5.7040   24.8560  -29.4610 C   0  0  0  0  0  0  0  0  0  0  0  0
   -5.7310   25.2410  -30.9480 C   0  0  0  0  0  0  0  0  0  0  0  0
   -5.7610   24.0050  -31.8580 C   0  0  0  0  0  0  0  0  0  0  0  0
   -4.9910   22.8940  -31.2780 N   0  0  0  0  0  0  0  0  0  0  0  0
   -5.3640   21.6420  -31.9200 C   0  0  0  0  0  0  0  0  0  0  0  0
   -6.7050   21.1750  -31.8590 C   0  0  0  0  0  0  0  0  0  0  0  0
   -7.7020   21.8610  -31.1200 C   0  0  0  0  0  0  0  0  0  0  0  0
   -9.0360   21.4610  -31.1680 C   0  0  0  0  0  0  0  0  0  0  0  0
   -9.4060   20.3660  -31.9340 C   0  0  0  0  0  0  0  0  0  0  0  0
   -8.4390   19.6300  -32.6130 C   0  0  0  0  0  0  0  0  0  0  0  0
   -7.0660   19.9850  -32.5500 C   0  0  0  0  0  0  0  0  0  0  0  0
   -6.0970   19.2040  -33.1460 N   0  0  0  0  0  0  0  0  0  0  0  0
   -6.4240   17.8200  -33.5630 C   0  0  0  0  0  0  0  0  0  0  0  0
   -4.8100   19.6810  -33.2940 C   0  0  0  0  0  0  0  0  0  0  0  0
   -3.8660   19.0080  -34.1120 C   0  0  0  0  0  0  0  0  0  0  0  0
   -2.5420   19.4290  -34.1820 C   0  0  0  0  0  0  0  0  0  0  0  0
   -2.1240   20.5290  -33.4500 C   0  0  0  0  0  0  0  0  0  0  0  0
   -3.0370   21.2480  -32.6850 C   0  0  0  0  0  0  0  0  0  0  0  0
   -4.4030   20.8700  -32.6280 C   0  0  0  0  0  0  0  0  0  0  0  0
   -0.3680   22.7930  -27.5360 C   0  0  0  0  0  0  0  0  0  0  0  0
   -0.2010   22.8720  -26.1540 C   0  0  0  0  0  0  0  0  0  0  0  0
   -0.5640   24.1590  -25.8420 C   0  0  0  0  0  0  0  0  0  0  0  0
   -0.5960   24.8250  -24.6200 C   0  0  0  0  0  0  0  0  0  0  0  0
   -0.9920   26.1760  -24.6240 C   0  0  0  0  0  0  0  0  0  0  0  0
   -1.3610   26.8110  -25.8310 C   0  0  0  0  0  0  0  0  0  0  0  0
   -1.3280   26.1040  -27.0480 C   0  0  0  0  0  0  0  0  0  0  0  0
   -0.9160   24.7740  -27.0150 C   0  0  0  0  0  0  0  0  0  0  0  0
   -0.7960   23.9460  -28.0230 O   0  0  0  0  0  0  0  0  0  0  0  0
   -0.3481   20.4621  -26.5367 H   0  0  0  0  0  0  0  0  0  0  0  0
   -1.4089   19.9563  -27.8951 H   0  0  0  0  0  0  0  0  0  0  0  0
    0.3288   19.5014  -27.8951 H   0  0  0  0  0  0  0  0  0  0  0  0
    1.0300   21.5441  -28.5394 H   0  0  0  0  0  0  0  0  0  0  0  0
   -0.6172   22.7222  -30.1025 H   0  0  0  0  0  0  0  0  0  0  0  0
   -0.1547   20.9522  -30.3915 H   0  0  0  0  0  0  0  0  0  0  0  0
   -2.3962   20.9981  -30.9248 H   0  0  0  0  0  0  0  0  0  0  0  0
   -2.3436   20.4231  -29.1952 H   0  0  0  0  0  0  0  0  0  0  0  0
   -2.5130   23.1710  -29.2380 H   0  0  0  0  0  0  0  0  0  0  0  0
   -4.9541   21.9288  -28.5459 H   0  0  0  0  0  0  0  0  0  0  0  0
   -3.5461   20.9959  -27.9181 H   0  0  0  0  0  0  0  0  0  0  0  0
   -4.1885   22.6740  -26.2621 H   0  0  0  0  0  0  0  0  0  0  0  0
   -2.6008   23.1371  -27.0147 H   0  0  0  0  0  0  0  0  0  0  0  0
   -5.2515   24.5113  -27.1215 H   0  0  0  0  0  0  0  0  0  0  0  0
   -3.5821   25.1812  -27.1812 H   0  0  0  0  0  0  0  0  0  0  0  0
   -3.7100   25.2850  -29.3170 H   0  0  0  0  0  0  0  0  0  0  0  0
   -6.3660   23.9919  -29.3028 H   0  0  0  0  0  0  0  0  0  0  0  0
   -6.0445   25.7209  -28.8728 H   0  0  0  0  0  0  0  0  0  0  0  0
   -6.6278   25.8476  -31.1422 H   0  0  0  0  0  0  0  0  0  0  0  0
   -4.8143   25.8066  -31.1708 H   0  0  0  0  0  0  0  0  0  0  0  0
   -6.8047   23.6851  -31.9932 H   0  0  0  0  0  0  0  0  0  0  0  0
   -5.3076   24.2742  -32.8234 H   0  0  0  0  0  0  0  0  0  0  0  0
   -5.1370   22.8570  -30.2460 H   0  0  0  0  0  0  0  0  0  0  0  0
   -3.9640   23.0610  -31.3520 H   0  0  0  0  0  0  0  0  0  0  0  0
   -7.4177   22.7230  -30.4987 H   0  0  0  0  0  0  0  0  0  0  0  0
   -9.7964   22.0146  -30.5976 H   0  0  0  0  0  0  0  0  0  0  0  0
  -10.4654   20.0785  -32.0052 H   0  0  0  0  0  0  0  0  0  0  0  0
   -8.7444   18.7575  -33.2092 H   0  0  0  0  0  0  0  0  0  0  0  0
   -6.5720   17.1936  -32.6710 H   0  0  0  0  0  0  0  0  0  0  0  0
   -7.3454   17.8261  -34.1638 H   0  0  0  0  0  0  0  0  0  0  0  0
   -5.5973   17.4131  -34.1638 H   0  0  0  0  0  0  0  0  0  0  0  0
   -4.1872   18.1369  -34.7019 H   0  0  0  0  0  0  0  0  0  0  0  0
   -1.8263   18.8884  -34.8188 H   0  0  0  0  0  0  0  0  0  0  0  0
   -1.0675   20.8345  -33.4739 H   0  0  0  0  0  0  0  0  0  0  0  0
   -2.6939   22.1240  -32.1150 H   0  0  0  0  0  0  0  0  0  0  0  0
    0.1432   22.0828  -25.4694 H   0  0  0  0  0  0  0  0  0  0  0  0
   -0.3218   24.3142  -23.6852 H   0  0  0  0  0  0  0  0  0  0  0  0
   -1.0143   26.7413  -23.6806 H   0  0  0  0  0  0  0  0  0  0  0  0
   -1.6762   27.8648  -25.8197 H   0  0  0  0  0  0  0  0  0  0  0  0
   -1.6179   26.5859  -27.9934 H   0  0  0  0  0  0  0  0  0  0  0  0
  1  2  1  0
  2  3  1  0
  3  4  1  0
  4  5  1  0
  5  6  1  0
  6  7  1  0
  7  8  1  0
  8  9  1  0
  9 10  1  0
 10 11  1  0
 11 12  1  0
 12 13  1  0
 13 14  1  0
 14 15  1  0
 15 16  2  0
 16 17  1  0
 17 18  2  0
 18 19  1  0
 19 20  2  0
 20 21  1  0
 21 22  1  0
 21 23  2  0
 23 24  1  0
 24 25  2  0
 25 26  1  0
 26 27  2  0
 27 28  1  0
  2 29  1  0
 29 30  2  0
 30 31  1  0
 31 32  2  0
 32 33  1  0
 33 34  2  0
 34 35  1  0
 35 36  2  0
 36 37  1  0
 28 14  2  0
 37 29  1  0
 20 15  1  0
 28 23  1  0
 36 31  1  0
  1 38  1  0
  1 39  1  0
  1 40  1  0
  2 41  1  6
  3 42  1  0
  3 43  1  0
  4 44  1  0
  4 45  1  0
  5 46  1  0
  6 47  1  0
  6 48  1  0
  7 49  1  0
  7 50  1  0
  8 51  1  0
  8 52  1  0
  9 53  1  0
 10 54  1  0
 10 55  1  0
 11 56  1  0
 11 57  1  0
 12 58  1  0
 12 59  1  0
 13 60  1  0
 13 61  1  0
 16 62  1  0
 17 63  1  0
 18 64  1  0
 19 65  1  0
 22 66  1  0
 22 67  1  0
 22 68  1  0
 24 69  1  0
 25 70  1  0
 26 71  1  0
 27 72  1  0
 30 73  1  0
 32 74  1  0
 33 75  1  0
 34 76  1  0
 35 77  1  0
M  CHG  2  13   1  21   1
M  END
>  <UniqueID>  (7) 
7

>  <SMILES>  (7) 
C[C@@H](CCNCCCNCCC[NH2+]c1c2ccccc2[n+](C)c2ccccc12)c1cc2ccccc2o1

>  <Energy>  (7) 
119.98334997228129

>  <Genealogy>  (7) 
CC(CCNCCCNCCC[NH2+]c1c2ccccc2[n+](C)c2ccccc12)c1cc2ccccc2o1 (protonated)
C[C@@H](CCNCCCNCCC[NH2+]c1c2ccccc2[n+](C)c2ccccc12)c1cc2ccccc2o1 (chirality)
C[C@@H](CCNCCCNCCC[NH2+]c1c2ccccc2[n+](C)c2ccccc12)c1cc2ccccc2o1 (3D coordinates assigned)
C[C@@H](CCNCCCNCCC[NH2+]c1c2ccccc2[n+](C)c2ccccc12)c1cc2ccccc2o1 (optimized conformer: 119.98334997228129 kcal/mol)

>  <smiles>  (7) 
CC(CCNCCCNCCCNc1c2ccccc2[n+](C)c2ccccc12)c1cc2ccccc2o1

>  <score_type>  (7) 
oracle

>  <origin>  (7) 
adg

>  <m_score__min__energy>  (7) 
-11.02

>  <m_primary>  (7) 
energy

$$$$
7:0
     RDKit          3D

 33 34  0  0  0  0  0  0  0  0999 V2000
   -6.7880   24.9080  -29.9360 C   0  0  0  0  0  0  0  0  0  0  0  0
   -5.4990   25.6780  -30.2390 C   0  0  0  0  0  0  0  0  0  0  0  0
   -4.6230   24.9680  -31.1840 N   0  0  0  0  0  0  0  0  0  0  0  0
   -3.8920   23.8660  -30.5440 C   0  0  0  0  0  0  0  0  0  0  0  0
   -3.6750   22.7370  -31.5520 C   0  0  0  0  0  0  0  0  0  0  0  0
   -4.8270   22.5710  -32.3790 O   0  0  0  0  0  0  0  0  0  0  0  0
   -5.4980   21.3580  -32.6260 C   0  0  0  0  0  0  0  0  0  0  0  0
   -4.8230   20.2140  -33.0970 C   0  0  0  0  0  0  0  0  0  0  0  0
   -5.5150   19.0250  -33.3310 C   0  0  0  0  0  0  0  0  0  0  0  0
   -6.8870   18.9500  -33.1000 C   0  0  0  0  0  0  0  0  0  0  0  0
   -7.5830   20.0700  -32.6280 C   0  0  0  0  0  0  0  0  0  0  0  0
   -8.9660   19.9980  -32.3930 C   0  0  0  0  0  0  0  0  0  0  0  0
   -9.6580   21.1150  -31.9230 C   0  0  0  0  0  0  0  0  0  0  0  0
   -8.9800   22.3120  -31.6850 C   0  0  0  0  0  0  0  0  0  0  0  0
   -7.6040   22.4000  -31.9140 C   0  0  0  0  0  0  0  0  0  0  0  0
   -6.8890   21.2840  -32.3870 C   0  0  0  0  0  0  0  0  0  0  0  0
   -6.9204   24.8289  -28.8469 H   0  0  0  0  0  0  0  0  0  0  0  0
   -7.6452   25.4421  -30.3718 H   0  0  0  0  0  0  0  0  0  0  0  0
   -6.7240   23.9000  -30.3718 H   0  0  0  0  0  0  0  0  0  0  0  0
   -5.7652   26.6540  -30.6710 H   0  0  0  0  0  0  0  0  0  0  0  0
   -4.9478   25.7887  -29.2935 H   0  0  0  0  0  0  0  0  0  0  0  0
   -3.9350   25.6430  -31.5920 H   0  0  0  0  0  0  0  0  0  0  0  0
   -2.9171   24.2315  -30.1890 H   0  0  0  0  0  0  0  0  0  0  0  0
   -4.4768   23.4869  -29.6930 H   0  0  0  0  0  0  0  0  0  0  0  0
   -2.8082   22.9792  -32.1845 H   0  0  0  0  0  0  0  0  0  0  0  0
   -3.4964   21.8012  -31.0021 H   0  0  0  0  0  0  0  0  0  0  0  0
   -3.7396   20.2588  -33.2821 H   0  0  0  0  0  0  0  0  0  0  0  0
   -4.9739   18.1413  -33.7002 H   0  0  0  0  0  0  0  0  0  0  0  0
   -7.4247   18.0091  -33.2887 H   0  0  0  0  0  0  0  0  0  0  0  0
   -9.5055   19.0578  -32.5801 H   0  0  0  0  0  0  0  0  0  0  0  0
  -10.7408   21.0522  -31.7395 H   0  0  0  0  0  0  0  0  0  0  0  0
   -9.5310   23.1895  -31.3157 H   0  0  0  0  0  0  0  0  0  0  0  0
   -7.0771   23.3466  -31.7235 H   0  0  0  0  0  0  0  0  0  0  0  0
  1  2  1  0
  2  3  1  0
  3  4  1  0
  4  5  1  0
  5  6  1  0
  6  7  1  0
  7  8  2  0
  8  9  1  0
  9 10  2  0
 10 11  1  0
 11 12  2  0
 12 13  1  0
 13 14  2  0
 14 15  1  0
 15 16  2  0
 16  7  1  0
 16 11  1  0
  1 17  1  0
  1 18  1  0
  1 19  1  0
  2 20  1  0
  2 21  1  0
  3 22  1  0
  4 23  1  0
  4 24  1  0
  5 25  1  0
  5 26  1  0
  8 27  1  0
  9 28  1  0
 10 29  1  0
 12 30  1  0
 13 31  1  0
 14 32  1  0
 15 33  1  0
M  END
>  <UniqueID>  (8) 
8

>  <SMILES>  (8) 
CCNCCOc1cccc2ccccc12

>  <Energy>  (8) 
33.32869764835444

>  <Genealogy>  (8) 
CCNCCOc1cccc2ccccc12 (3D coordinates assigned)
CCNCCOc1cccc2ccccc12 (optimized conformer: 33.32869764835444 kcal/mol)

>  <smiles>  (8) 
CCNCCOc1cccc2ccccc12

>  <score_type>  (8) 
oracle

>  <origin>  (8) 
adg

>  <m_score__min__energy>  (8) 
-7.4299999999999997

>  <m_primary>  (8) 
energy

$$$$
8:0
     RDKit          3D

 57 58  0  0  0  0  0  0  0  0999 V2000
   -2.4680   19.2610  -33.2840 C   0  0  0  0  0  0  0  0  0  0  0  0
   -3.1280   20.4640  -33.6070 O   0  0  0  0  0  0  0  0  0  0  0  0
   -2.6550   21.4980  -32.7730 C   0  0  0  0  0  0  0  0  0  0  0  0
   -3.2100   21.3540  -31.3420 C   0  0  0  0  0  0  0  0  0  0  0  0
   -4.5870   21.8720  -31.1170 N   0  0  0  0  0  0  0  0  0  0  0  0
   -4.6570   22.9940  -30.1480 C   0  0  0  0  0  0  0  0  0  0  0  0
   -3.4390   23.9140  -30.2710 C   0  0  0  0  0  0  0  0  0  0  0  0
   -3.8560   25.2330  -30.5530 O   0  0  0  0  0  0  0  0  0  0  0  0
   -5.2610   25.3090  -30.4640 C   0  0  0  0  0  0  0  0  0  0  0  0
   -5.3520   22.1620  -32.3510 C   0  0  0  0  0  0  0  0  0  0  0  0
   -6.8350   21.8690  -32.2130 C   0  0  0  0  0  0  0  0  0  0  0  0
   -7.6880   22.9060  -31.7990 C   0  0  0  0  0  0  0  0  0  0  0  0
   -9.0580   22.6910  -31.6580 C   0  0  0  0  0  0  0  0  0  0  0  0
   -9.5980   21.4350  -31.9130 C   0  0  0  0  0  0  0  0  0  0  0  0
   -8.7720   20.3640  -32.2830 C   0  0  0  0  0  0  0  0  0  0  0  0
   -9.3980   19.0210  -32.5510 C   0  0  0  0  0  0  0  0  0  0  0  0
   -7.3770   20.5750  -32.4380 C   0  0  0  0  0  0  0  0  0  0  0  0
   -6.5190   19.4740  -32.7880 N   0  0  0  0  0  0  0  0  0  0  0  0
   -6.4110   18.3280  -31.8820 C   0  0  0  0  0  0  0  0  0  0  0  0
   -5.3220   17.3580  -32.3640 C   0  0  0  0  0  0  0  0  0  0  0  0
   -5.5060   16.9400  -33.7760 N   0  0  0  0  0  0  0  0  0  0  0  0
   -6.3030   15.7070  -33.8660 C   0  0  0  0  0  0  0  0  0  0  0  0
   -6.0480   17.9910  -34.6800 C   0  0  0  0  0  0  0  0  0  0  0  0
   -5.9020   19.4090  -34.1170 C   0  0  0  0  0  0  0  0  0  0  0  0
   -2.4106   19.1564  -32.1905 H   0  0  0  0  0  0  0  0  0  0  0  0
   -3.0266   18.4119  -33.7047 H   0  0  0  0  0  0  0  0  0  0  0  0
   -1.4518   19.2759  -33.7047 H   0  0  0  0  0  0  0  0  0  0  0  0
   -1.5563   21.4573  -32.7381 H   0  0  0  0  0  0  0  0  0  0  0  0
   -2.9931   22.4607  -33.1838 H   0  0  0  0  0  0  0  0  0  0  0  0
   -3.2080   20.2839  -31.0872 H   0  0  0  0  0  0  0  0  0  0  0  0
   -2.5558   21.9711  -30.7086 H   0  0  0  0  0  0  0  0  0  0  0  0
   -5.5683   23.5786  -30.3423 H   0  0  0  0  0  0  0  0  0  0  0  0
   -4.6727   22.5737  -29.1316 H   0  0  0  0  0  0  0  0  0  0  0  0
   -2.8779   23.9039  -29.3249 H   0  0  0  0  0  0  0  0  0  0  0  0
   -2.7973   23.5557  -31.0894 H   0  0  0  0  0  0  0  0  0  0  0  0
   -5.5610   25.3252  -29.4058 H   0  0  0  0  0  0  0  0  0  0  0  0
   -5.6106   26.2274  -30.9584 H   0  0  0  0  0  0  0  0  0  0  0  0
   -5.7076   24.4337  -30.9584 H   0  0  0  0  0  0  0  0  0  0  0  0
   -5.2267   23.2263  -32.5989 H   0  0  0  0  0  0  0  0  0  0  0  0
   -4.9597   21.5066  -33.1426 H   0  0  0  0  0  0  0  0  0  0  0  0
   -7.2693   23.9001  -31.5834 H   0  0  0  0  0  0  0  0  0  0  0  0
   -9.7136   23.5167  -31.3443 H   0  0  0  0  0  0  0  0  0  0  0  0
  -10.6834   21.2803  -31.8236 H   0  0  0  0  0  0  0  0  0  0  0  0
   -9.6284   18.5267  -31.5957 H   0  0  0  0  0  0  0  0  0  0  0  0
  -10.3255   19.1571  -33.1265 H   0  0  0  0  0  0  0  0  0  0  0  0
   -8.6974   18.3982  -33.1265 H   0  0  0  0  0  0  0  0  0  0  0  0
   -6.1550   18.6869  -30.8742 H   0  0  0  0  0  0  0  0  0  0  0  0
   -7.3749   17.7982  -31.8641 H   0  0  0  0  0  0  0  0  0  0  0  0
   -4.3441   17.8526  -32.2688 H   0  0  0  0  0  0  0  0  0  0  0  0
   -5.3854   16.4538  -31.7407 H   0  0  0  0  0  0  0  0  0  0  0  0
   -6.5361   15.3464  -32.8533 H   0  0  0  0  0  0  0  0  0  0  0  0
   -7.2387   15.9138  -34.4060 H   0  0  0  0  0  0  0  0  0  0  0  0
   -5.7302   14.9387  -34.4060 H   0  0  0  0  0  0  0  0  0  0  0  0
   -5.5102   17.9387  -35.6382 H   0  0  0  0  0  0  0  0  0  0  0  0
   -7.1242   17.7963  -34.7976 H   0  0  0  0  0  0  0  0  0  0  0  0
   -4.8349   19.6642  -34.0386 H   0  0  0  0  0  0  0  0  0  0  0  0
   -6.4017   20.1230  -34.7882 H   0  0  0  0  0  0  0  0  0  0  0  0
  1  2  1  0
  2  3  1  0
  3  4  1  0
  4  5  1  0
  5  6  1  0
  6  7  1  0
  7  8  1  0
  8  9  1  0
  5 10  1  0
 10 11  1  0
 11 12  2  0
 12 13  1  0
 13 14  2  0
 14 15  1  0
 15 16  1  0
 15 17  2  0
 17 18  1  0
 18 19  1  0
 19 20  1  0
 20 21  1  0
 21 22  1  0
 21 23  1  0
 23 24  1  0
 17 11  1  0
 24 18  1  0
  1 25  1  0
  1 26  1  0
  1 27  1  0
  3 28  1  0
  3 29  1  0
  4 30  1  0
  4 31  1  0
  6 32  1  0
  6 33  1  0
  7 34  1  0
  7 35  1  0
  9 36  1  0
  9 37  1  0
  9 38  1  0
 10 39  1  0
 10 40  1  0
 12 41  1  0
 13 42  1  0
 14 43  1  0
 16 44  1  0
 16 45  1  0
 16 46  1  0
 19 47  1  0
 19 48  1  0
 20 49  1  0
 20 50  1  0
 22 51  1  0
 22 52  1  0
 22 53  1  0
 23 54  1  0
 23 55  1  0
 24 56  1  0
 24 57  1  0
M  END
>  <UniqueID>  (9) 
9

>  <SMILES>  (9) 
COCCN(CCOC)Cc1cccc(C)c1N1CCN(C)CC1

>  <Energy>  (9) 
73.5071183246079

>  <Genealogy>  (9) 
COCCN(CCOC)Cc1cccc(C)c1N1CCN(C)CC1 (3D coordinates assigned)
COCCN(CCOC)Cc1cccc(C)c1N1CCN(C)CC1 (nonaromatic ring conformer: 73.5071183246079 kcal/mol)

>  <smiles>  (9) 
COCCN(CCOC)Cc1cccc(C)c1N1CCN(C)CC1

>  <score_type>  (9) 
oracle

>  <origin>  (9) 
adg

>  <m_score__min__energy>  (9) 
-8.0800000000000001

>  <m_primary>  (9) 
energy

$$$$
9:0
     RDKit          3D

 47 50  0  0  0  0  0  0  0  0999 V2000
   -6.4750   19.4360  -33.5990 C   0  0  0  0  0  0  0  0  0  0  0  0
   -7.5860   19.3480  -32.6630 N   0  0  0  0  0  0  0  0  0  0  0  0
   -8.1250   18.2170  -32.2490 N   0  0  0  0  0  0  0  0  0  0  0  0
   -9.0290   18.5070  -31.3250 N   0  0  0  0  0  0  0  0  0  0  0  0
   -9.0880   19.8130  -31.1100 N   0  0  0  0  0  0  0  0  0  0  0  0
   -8.1790   20.3320  -31.9580 C   0  0  0  0  0  0  0  0  0  0  0  0
   -7.8060   22.0840  -32.0810 S   0  0  0  0  0  0  0  0  0  0  0  0
   -7.7510   22.3680  -30.2730 C   0  0  0  0  0  0  0  0  0  0  0  0
   -6.8570   23.5560  -29.8890 C   0  0  0  0  0  0  0  0  0  0  0  0
   -6.2440   24.2650  -31.1110 C   0  0  0  0  0  0  0  0  0  0  0  0
   -4.8320   23.8730  -31.2810 N   0  0  0  0  0  0  0  0  0  0  0  0
   -4.0070   24.1640  -30.0980 C   0  0  0  0  0  0  0  0  0  0  0  0
   -2.8550   23.1730  -30.1060 C   0  0  1  0  0  0  0  0  0  0  0  0
   -3.1270   21.7910  -29.5300 C   0  0  0  0  0  0  0  0  0  0  0  0
   -3.3000   22.0460  -31.0230 C   0  0  2  0  0  0  0  0  0  0  0  0
   -2.2380   21.5670  -31.9790 C   0  0  0  0  0  0  0  0  0  0  0  0
   -2.5770   21.1860  -33.2860 C   0  0  0  0  0  0  0  0  0  0  0  0
   -1.5950   20.7120  -34.1600 C   0  0  0  0  0  0  0  0  0  0  0  0
   -0.2620   20.5840  -33.7330 C   0  0  0  0  0  0  0  0  0  0  0  0
    0.8010   20.1220  -34.6970 C   0  0  0  0  0  0  0  0  0  0  0  0
    0.3410   20.2780  -35.9910 F   0  0  0  0  0  0  0  0  0  0  0  0
    1.1030   18.7890  -34.4820 F   0  0  0  0  0  0  0  0  0  0  0  0
    1.9630   20.8580  -34.5400 F   0  0  0  0  0  0  0  0  0  0  0  0
    0.0750   20.9740  -32.4250 C   0  0  0  0  0  0  0  0  0  0  0  0
   -0.9090   21.4450  -31.5510 C   0  0  0  0  0  0  0  0  0  0  0  0
   -4.6750   22.4400  -31.5440 C   0  0  0  0  0  0  0  0  0  0  0  0
   -5.5302   19.5108  -33.0406 H   0  0  0  0  0  0  0  0  0  0  0  0
   -6.4566   18.5365  -34.2319 H   0  0  0  0  0  0  0  0  0  0  0  0
   -6.5985   20.3272  -34.2319 H   0  0  0  0  0  0  0  0  0  0  0  0
   -9.6110   17.7990  -30.8270 H   0  0  0  0  0  0  0  0  0  0  0  0
   -8.7725   22.5660  -29.9162 H   0  0  0  0  0  0  0  0  0  0  0  0
   -7.3261   21.4668  -29.8069 H   0  0  0  0  0  0  0  0  0  0  0  0
   -7.4620   24.2836  -29.3282 H   0  0  0  0  0  0  0  0  0  0  0  0
   -6.0263   23.1620  -29.2851 H   0  0  0  0  0  0  0  0  0  0  0  0
   -6.8085   23.9852  -32.0127 H   0  0  0  0  0  0  0  0  0  0  0  0
   -6.2950   25.3525  -30.9540 H   0  0  0  0  0  0  0  0  0  0  0  0
   -3.6209   25.1927  -30.1503 H   0  0  0  0  0  0  0  0  0  0  0  0
   -4.5979   24.0721  -29.1747 H   0  0  0  0  0  0  0  0  0  0  0  0
   -2.0089   23.8595  -29.9548 H   0  0  0  0  0  0  0  0  0  0  0  0
   -2.2928   21.1705  -29.1706 H   0  0  0  0  0  0  0  0  0  0  0  0
   -3.7671   21.3935  -28.7286 H   0  0  0  0  0  0  0  0  0  0  0  0
   -3.6210   21.2608  -33.6245 H   0  0  0  0  0  0  0  0  0  0  0  0
   -1.8672   20.4370  -35.1897 H   0  0  0  0  0  0  0  0  0  0  0  0
    1.1198   20.9081  -32.0872 H   0  0  0  0  0  0  0  0  0  0  0  0
   -0.6387   21.7215  -30.5212 H   0  0  0  0  0  0  0  0  0  0  0  0
   -4.7413   22.2436  -32.6243 H   0  0  0  0  0  0  0  0  0  0  0  0
   -5.4666   21.8585  -31.0488 H   0  0  0  0  0  0  0  0  0  0  0  0
  1  2  1  0
  2  3  1  0
  3  4  2  0
  4  5  1  0
  5  6  2  0
  6  7  1  0
  7  8  1  0
  8  9  1  0
  9 10  1  0
 10 11  1  0
 11 12  1  0
 12 13  1  0
 13 14  1  0
 14 15  1  0
 15 16  1  6
 16 17  2  0
 17 18  1  0
 18 19  2  0
 19 20  1  0
 20 21  1  0
 20 22  1  0
 20 23  1  0
 19 24  1  0
 24 25  2  0
 15 26  1  0
  6  2  1  0
 26 11  1  0
 15 13  1  0
 25 16  1  0
  1 27  1  0
  1 28  1  0
  1 29  1  0
  4 30  1  0
  8 31  1  0
  8 32  1  0
  9 33  1  0
  9 34  1  0
 10 35  1  0
 10 36  1  0
 12 37  1  0
 12 38  1  0
 13 39  1  6
 14 40  1  0
 14 41  1  0
 17 42  1  0
 18 43  1  0
 24 44  1  0
 25 45  1  0
 26 46  1  0
 26 47  1  0
M  CHG  1   4   1
M  END
>  <UniqueID>  (10) 
10

>  <SMILES>  (10) 
Cn1n[nH+]nc1SCCCN1C[C@H]2C[C@@]2(c2ccc(C(F)(F)F)cc2)C1

>  <Energy>  (10) 
355.83937268648344

>  <Genealogy>  (10) 
Cn1n[nH+]nc1SCCCN1CC2CC2(c2ccc(C(F)(F)F)cc2)C1 (protonated)
Cn1n[nH+]nc1SCCCN1C[C@H]2C[C@@]2(c2ccc(C(F)(F)F)cc2)C1 (chirality)
Cn1n[nH+]nc1SCCCN1C[C@H]2C[C@@]2(c2ccc(C(F)(F)F)cc2)C1 (3D coordinates assigned)
Cn1n[nH+]nc1SCCCN1C[C@H]2C[C@@]2(c2ccc(C(F)(F)F)cc2)C1 (nonaromatic ring conformer: 355.83937268648344 kcal/mol)

>  <smiles>  (10) 
Cn1nnnc1SCCCN1CC2CC2(c2ccc(C(F)(F)F)cc2)C1

>  <score_type>  (10) 
oracle

>  <origin>  (10) 
adg

>  <m_score__min__energy>  (10) 
-8.7100000000000009

>  <m_primary>  (10) 
energy

$$$$
10:0
     RDKit          3D

 69 72  0  0  0  0  0  0  0  0999 V2000
   -6.0360   25.0020  -29.6540 C   0  0  0  0  0  0  0  0  0  0  0  0
   -5.1140   25.2260  -30.8560 C   0  0  0  0  0  0  0  0  0  0  0  0
   -3.8630   24.4570  -30.7590 N   0  0  0  0  0  0  0  0  0  0  0  0
   -4.1040   23.0070  -30.6970 C   0  0  0  0  0  0  0  0  0  0  0  0
   -3.5260   22.3270  -31.9420 C   0  0  0  0  0  0  0  0  0  0  0  0
   -4.5470   22.1440  -32.9770 N   0  0  0  0  0  0  0  0  0  0  0  0
   -5.6090   21.1800  -32.8640 C   0  0  0  0  0  0  0  0  0  0  0  0
   -5.3940   19.8380  -33.1790 C   0  0  0  0  0  0  0  0  0  0  0  0
   -6.4020   18.9020  -33.0200 C   0  0  0  0  0  0  0  0  0  0  0  0
   -7.6120   19.2260  -32.4570 N   0  0  0  0  0  0  0  0  0  0  0  0
   -8.5220   18.1640  -31.9970 C   0  0  0  0  0  0  0  0  0  0  0  0
   -7.9090   20.5630  -32.2540 C   0  0  0  0  0  0  0  0  0  0  0  0
   -9.2110   20.9890  -31.8940 C   0  0  0  0  0  0  0  0  0  0  0  0
   -9.4810   22.3320  -31.6330 C   0  0  0  0  0  0  0  0  0  0  0  0
   -8.4700   23.2820  -31.7250 C   0  0  0  0  0  0  0  0  0  0  0  0
   -7.1850   22.9030  -32.1090 C   0  0  0  0  0  0  0  0  0  0  0  0
   -6.8910   21.5580  -32.4070 C   0  0  0  0  0  0  0  0  0  0  0  0
   -5.8600   17.5910  -33.4000 C   0  0  0  0  0  0  0  0  0  0  0  0
   -6.4850   16.3590  -33.6360 C   0  0  0  0  0  0  0  0  0  0  0  0
   -5.7030   15.2710  -34.0550 C   0  0  0  0  0  0  0  0  0  0  0  0
   -4.3150   15.4270  -34.2870 C   0  0  0  0  0  0  0  0  0  0  0  0
   -3.4910   14.3690  -34.7010 O   0  0  0  0  0  0  0  0  0  0  0  0
   -2.1550   14.1280  -34.2560 C   0  0  0  0  0  0  0  0  0  0  0  0
   -2.0970   14.0740  -32.7250 C   0  0  0  0  0  0  0  0  0  0  0  0
   -2.4790   12.7340  -32.2300 N   0  0  0  0  0  0  0  0  0  0  0  0
   -1.6450   12.1500  -31.1500 C   0  0  0  0  0  0  0  0  0  0  0  0
   -0.2460   12.7670  -31.0040 C   0  0  0  0  0  0  0  0  0  0  0  0
   -3.9370   12.5420  -32.0670 C   0  0  0  0  0  0  0  0  0  0  0  0
   -4.6120   13.6260  -31.2240 C   0  0  0  0  0  0  0  0  0  0  0  0
   -3.7270   16.6900  -34.1100 C   0  0  0  0  0  0  0  0  0  0  0  0
   -4.5170   17.7570  -33.6820 C   0  0  0  0  0  0  0  0  0  0  0  0
   -4.1000   19.1880  -33.5840 C   0  0  0  0  0  0  0  0  0  0  0  0
   -5.4657   25.1405  -28.7236 H   0  0  0  0  0  0  0  0  0  0  0  0
   -6.8643   25.7250  -29.6875 H   0  0  0  0  0  0  0  0  0  0  0  0
   -6.4402   23.9795  -29.6875 H   0  0  0  0  0  0  0  0  0  0  0  0
   -5.6454   24.9210  -31.7696 H   0  0  0  0  0  0  0  0  0  0  0  0
   -4.8488   26.2933  -30.8789 H   0  0  0  0  0  0  0  0  0  0  0  0
   -3.2600   24.6680  -31.5880 H   0  0  0  0  0  0  0  0  0  0  0  0
   -3.6201   22.5952  -29.7991 H   0  0  0  0  0  0  0  0  0  0  0  0
   -5.1875   22.8222  -30.6544 H   0  0  0  0  0  0  0  0  0  0  0  0
   -2.7152   22.9510  -32.3461 H   0  0  0  0  0  0  0  0  0  0  0  0
   -3.1490   21.3357  -31.6501 H   0  0  0  0  0  0  0  0  0  0  0  0
   -4.4140   22.6290  -33.8920 H   0  0  0  0  0  0  0  0  0  0  0  0
   -8.5378   18.1456  -30.8973 H   0  0  0  0  0  0  0  0  0  0  0  0
   -9.5361   18.3609  -32.3750 H   0  0  0  0  0  0  0  0  0  0  0  0
   -8.1720   17.1921  -32.3750 H   0  0  0  0  0  0  0  0  0  0  0  0
  -10.0216   20.2491  -31.8192 H   0  0  0  0  0  0  0  0  0  0  0  0
  -10.4988   22.6413  -31.3530 H   0  0  0  0  0  0  0  0  0  0  0  0
   -8.6850   24.3358  -31.4940 H   0  0  0  0  0  0  0  0  0  0  0  0
   -6.3921   23.6621  -32.1801 H   0  0  0  0  0  0  0  0  0  0  0  0
   -7.5701   16.2464  -33.4953 H   0  0  0  0  0  0  0  0  0  0  0  0
   -6.1731   14.2878  -34.2045 H   0  0  0  0  0  0  0  0  0  0  0  0
   -1.8054   13.1686  -34.6650 H   0  0  0  0  0  0  0  0  0  0  0  0
   -1.5114   14.9484  -34.6063 H   0  0  0  0  0  0  0  0  0  0  0  0
   -1.0726   14.3014  -32.3951 H   0  0  0  0  0  0  0  0  0  0  0  0
   -2.8038   14.8132  -32.3200 H   0  0  0  0  0  0  0  0  0  0  0  0
   -2.1780   12.2839  -30.1971 H   0  0  0  0  0  0  0  0  0  0  0  0
   -1.4889   11.0949  -31.4189 H   0  0  0  0  0  0  0  0  0  0  0  0
   -0.0022   12.8745  -29.9368 H   0  0  0  0  0  0  0  0  0  0  0  0
    0.4955   12.1124  -31.4853 H   0  0  0  0  0  0  0  0  0  0  0  0
   -0.2294   13.7560  -31.4853 H   0  0  0  0  0  0  0  0  0  0  0  0
   -4.4002   12.5398  -33.0647 H   0  0  0  0  0  0  0  0  0  0  0  0
   -4.0773   11.5891  -31.5357 H   0  0  0  0  0  0  0  0  0  0  0  0
   -4.4717   13.4007  -30.1565 H   0  0  0  0  0  0  0  0  0  0  0  0
   -4.1623   14.6030  -31.4547 H   0  0  0  0  0  0  0  0  0  0  0  0
   -5.6872   13.6535  -31.4547 H   0  0  0  0  0  0  0  0  0  0  0  0
   -2.6547   16.8363  -34.3068 H   0  0  0  0  0  0  0  0  0  0  0  0
   -3.3206   19.3301  -32.8209 H   0  0  0  0  0  0  0  0  0  0  0  0
   -3.6574   19.5950  -34.5051 H   0  0  0  0  0  0  0  0  0  0  0  0
  1  2  1  0
  2  3  1  0
  3  4  1  0
  4  5  1  0
  5  6  1  0
  6  7  1  0
  7  8  2  0
  8  9  1  0
  9 10  2  0
 10 11  1  0
 10 12  1  0
 12 13  2  0
 13 14  1  0
 14 15  2  0
 15 16  1  0
 16 17  2  0
  9 18  1  0
 18 19  2  0
 19 20  1  0
 20 21  2  0
 21 22  1  0
 22 23  1  0
 23 24  1  0
 24 25  1  0
 25 26  1  0
 26 27  1  0
 25 28  1  0
 28 29  1  0
 21 30  1  0
 30 31  2  0
 31 32  1  0
 17  7  1  0
 31 18  1  0
 32  8  1  0
 17 12  1  0
  1 33  1  0
  1 34  1  0
  1 35  1  0
  2 36  1  0
  2 37  1  0
  3 38  1  0
  4 39  1  0
  4 40  1  0
  5 41  1  0
  5 42  1  0
  6 43  1  0
 11 44  1  0
 11 45  1  0
 11 46  1  0
 13 47  1  0
 14 48  1  0
 15 49  1  0
 16 50  1  0
 19 51  1  0
 20 52  1  0
 23 53  1  0
 23 54  1  0
 24 55  1  0
 24 56  1  0
 26 57  1  0
 26 58  1  0
 27 59  1  0
 27 60  1  0
 27 61  1  0
 28 62  1  0
 28 63  1  0
 29 64  1  0
 29 65  1  0
 29 66  1  0
 30 67  1  0
 32 68  1  0
 32 69  1  0
M  CHG  1  10   1
M  END
>  <UniqueID>  (11) 
11

>  <SMILES>  (11) 
CCNCCNc1c2c([n+](C)c3ccccc13)-c1ccc(OCCN(CC)CC)cc1C2

>  <Energy>  (11) 
114.2983048788815

>  <Genealogy>  (11) 
CCNCCNc1c2c([n+](C)c3ccccc13)-c1ccc(OCCN(CC)CC)cc1C2 (3D coordinates assigned)
CCNCCNc1c2c([n+](C)c3ccccc13)-c1ccc(OCCN(CC)CC)cc1C2 (nonaromatic ring conformer: 114.2983048788815 kcal/mol)

>  <smiles>  (11) 
CCNCCNc1c2c([n+](C)c3ccccc13)-c1ccc(OCCN(CC)CC)cc1C2

>  <score_type>  (11) 
oracle

>  <origin>  (11) 
adg

>  <m_score__min__energy>  (11) 
-9.4299999999999997

>  <m_primary>  (11) 
energy

$$$$
11:0
     RDKit          3D

 60 63  0  0  0  0  0  0  0  0999 V2000
   -1.1300   27.2910  -24.9330 C   0  0  0  0  0  0  0  0  0  0  0  0
   -0.6820   26.7410  -23.5760 C   0  0  0  0  0  0  0  0  0  0  0  0
    0.1600   25.5300  -23.7190 N   0  0  0  0  0  0  0  0  0  0  0  0
    0.5840   25.2760  -25.1080 C   0  0  0  0  0  0  0  0  0  0  0  0
   -0.2750   24.2000  -25.7920 C   0  0  0  0  0  0  0  0  0  0  0  0
   -0.2390   24.3500  -27.3170 C   0  0  0  0  0  0  0  0  0  0  0  0
   -1.5930   24.2250  -27.8770 N   0  0  0  0  0  0  0  0  0  0  0  0
   -1.5650   23.6310  -29.2200 C   0  0  0  0  0  0  0  0  0  0  0  0
   -2.9810   23.2680  -29.6600 C   0  0  0  0  0  0  0  0  0  0  0  0
   -3.0700   23.2610  -31.1190 N   0  0  0  0  0  0  0  0  0  0  0  0
   -3.6230   22.1330  -31.8150 C   0  0  0  0  0  0  0  0  0  0  0  0
   -4.9940   21.8960  -31.7680 C   0  0  0  0  0  0  0  0  0  0  0  0
   -5.5410   20.7770  -32.3670 C   0  0  0  0  0  0  0  0  0  0  0  0
   -4.7580   19.8080  -32.9430 N   0  0  0  0  0  0  0  0  0  0  0  0
   -5.3290   18.4900  -33.2650 C   0  0  0  0  0  0  0  0  0  0  0  0
   -3.4150   20.0840  -33.1530 C   0  0  0  0  0  0  0  0  0  0  0  0
   -2.6010   19.2480  -33.9550 C   0  0  0  0  0  0  0  0  0  0  0  0
   -1.2500   19.5360  -34.1520 C   0  0  0  0  0  0  0  0  0  0  0  0
   -0.6820   20.6670  -33.5750 C   0  0  0  0  0  0  0  0  0  0  0  0
   -1.4600   21.5270  -32.8030 C   0  0  0  0  0  0  0  0  0  0  0  0
   -2.8220   21.2520  -32.5760 C   0  0  0  0  0  0  0  0  0  0  0  0
   -6.9950   20.8360  -32.1790 C   0  0  0  0  0  0  0  0  0  0  0  0
   -8.0380   20.0880  -32.7450 C   0  0  0  0  0  0  0  0  0  0  0  0
   -9.3620   20.4340  -32.4350 C   0  0  0  0  0  0  0  0  0  0  0  0
   -9.6350   21.5370  -31.6060 C   0  0  0  0  0  0  0  0  0  0  0  0
   -8.5850   22.3160  -31.1010 C   0  0  0  0  0  0  0  0  0  0  0  0
   -7.2730   21.9560  -31.4090 C   0  0  0  0  0  0  0  0  0  0  0  0
   -6.0350   22.7210  -31.0690 C   0  0  0  0  0  0  0  0  0  0  0  0
   -1.8177   28.1353  -24.7775 H   0  0  0  0  0  0  0  0  0  0  0  0
   -0.2507   27.6336  -25.4982 H   0  0  0  0  0  0  0  0  0  0  0  0
   -1.6434   26.4992  -25.4982 H   0  0  0  0  0  0  0  0  0  0  0  0
   -0.1035   27.5161  -23.0520 H   0  0  0  0  0  0  0  0  0  0  0  0
   -1.5820   26.4641  -23.0074 H   0  0  0  0  0  0  0  0  0  0  0  0
   -0.3150   24.6790  -23.3360 H   0  0  0  0  0  0  0  0  0  0  0  0
    1.0290   25.6690  -23.1500 H   0  0  0  0  0  0  0  0  0  0  0  0
    0.5007   26.2118  -25.6802 H   0  0  0  0  0  0  0  0  0  0  0  0
    1.6218   24.9123  -25.0822 H   0  0  0  0  0  0  0  0  0  0  0  0
    0.1105   23.2064  -25.5198 H   0  0  0  0  0  0  0  0  0  0  0  0
   -1.3153   24.3177  -25.4545 H   0  0  0  0  0  0  0  0  0  0  0  0
    0.1697   25.3383  -27.5743 H   0  0  0  0  0  0  0  0  0  0  0  0
    0.3958   23.5567  -27.7385 H   0  0  0  0  0  0  0  0  0  0  0  0
   -2.1350   23.5750  -27.2580 H   0  0  0  0  0  0  0  0  0  0  0  0
   -1.1373   24.3546  -29.9295 H   0  0  0  0  0  0  0  0  0  0  0  0
   -0.9487   22.7201  -29.1991 H   0  0  0  0  0  0  0  0  0  0  0  0
   -3.2362   22.2694  -29.2756 H   0  0  0  0  0  0  0  0  0  0  0  0
   -3.6834   24.0147  -29.2611 H   0  0  0  0  0  0  0  0  0  0  0  0
   -3.1060   24.1920  -31.5930 H   0  0  0  0  0  0  0  0  0  0  0  0
   -5.5614   17.9535  -32.3332 H   0  0  0  0  0  0  0  0  0  0  0  0
   -6.2503   18.6228  -33.8512 H   0  0  0  0  0  0  0  0  0  0  0  0
   -4.6020   17.9087  -33.8512 H   0  0  0  0  0  0  0  0  0  0  0  0
   -3.0402   18.3582  -34.4298 H   0  0  0  0  0  0  0  0  0  0  0  0
   -0.6313   18.8655  -34.7665 H   0  0  0  0  0  0  0  0  0  0  0  0
    0.3855   20.8832  -33.7288 H   0  0  0  0  0  0  0  0  0  0  0  0
   -1.0060   22.4291  -32.3669 H   0  0  0  0  0  0  0  0  0  0  0  0
   -7.8220   19.2461  -33.4192 H   0  0  0  0  0  0  0  0  0  0  0  0
  -10.1921   19.8386  -32.8431 H   0  0  0  0  0  0  0  0  0  0  0  0
  -10.6755   21.7889  -31.3533 H   0  0  0  0  0  0  0  0  0  0  0  0
   -8.7918   23.1953  -30.4732 H   0  0  0  0  0  0  0  0  0  0  0  0
   -6.0715   23.7468  -31.4646 H   0  0  0  0  0  0  0  0  0  0  0  0
   -5.8629   22.8532  -29.9906 H   0  0  0  0  0  0  0  0  0  0  0  0
  1  2  1  0
  2  3  1  0
  3  4  1  0
  4  5  1  0
  5  6  1  0
  6  7  1  0
  7  8  1  0
  8  9  1  0
  9 10  1  0
 10 11  1  0
 11 12  2  0
 12 13  1  0
 13 14  2  0
 14 15  1  0
 14 16  1  0
 16 17  2  0
 17 18  1  0
 18 19  2  0
 19 20  1  0
 20 21  2  0
 13 22  1  0
 22 23  2  0
 23 24  1  0
 24 25  2  0
 25 26  1  0
 26 27  2  0
 27 28  1  0
 21 11  1  0
 27 22  1  0
 28 12  1  0
 21 16  1  0
  1 29  1  0
  1 30  1  0
  1 31  1  0
  2 32  1  0
  2 33  1  0
  3 34  1  0
  3 35  1  0
  4 36  1  0
  4 37  1  0
  5 38  1  0
  5 39  1  0
  6 40  1  0
  6 41  1  0
  7 42  1  0
  8 43  1  0
  8 44  1  0
  9 45  1  0
  9 46  1  0
 10 47  1  0
 15 48  1  0
 15 49  1  0
 15 50  1  0
 17 51  1  0
 18 52  1  0
 19 53  1  0
 20 54  1  0
 23 55  1  0
 24 56  1  0
 25 57  1  0
 26 58  1  0
 28 59  1  0
 28 60  1  0
M  CHG  2   3   1  14   1
M  END
>  <UniqueID>  (12) 
12

>  <SMILES>  (12) 
CC[NH2+]CCCNCCNc1c2c([n+](C)c3ccccc13)-c1ccccc1C2

>  <Energy>  (12) 
98.32321711362172

>  <Genealogy>  (12) 
CC[NH2+]CCCNCCNc1c2c([n+](C)c3ccccc13)-c1ccccc1C2 (protonated)
CC[NH2+]CCCNCCNc1c2c([n+](C)c3ccccc13)-c1ccccc1C2 (3D coordinates assigned)
CC[NH2+]CCCNCCNc1c2c([n+](C)c3ccccc13)-c1ccccc1C2 (nonaromatic ring conformer: 98.32321711362172 kcal/mol)

>  <smiles>  (12) 
CCNCCCNCCNc1c2c([n+](C)c3ccccc13)-c1ccccc1C2

>  <score_type>  (12) 
oracle

>  <origin>  (12) 
adg

>  <m_score__min__energy>  (12) 
-9.4800000000000004

>  <m_primary>  (12) 
energy

$$$$
12:0
     RDKit          3D

 26 27  0  0  0  0  0  0  0  0999 V2000
   -5.0880   25.0150  -30.3660 C   0  0  0  0  0  0  0  0  0  0  0  0
   -4.9910   24.1290  -31.4740 O   0  0  0  0  0  0  0  0  0  0  0  0
   -5.9800   23.1890  -31.7820 C   0  0  0  0  0  0  0  0  0  0  0  0
   -7.2330   23.0750  -31.1940 C   0  0  0  0  0  0  0  0  0  0  0  0
   -7.8100   21.9940  -31.8340 C   0  0  0  0  0  0  0  0  0  0  0  0
   -9.4850   21.2010  -31.3610 Br  0  0  0  0  0  0  0  0  0  0  0  0
   -6.9400   21.5230  -32.7550 N   0  0  0  0  0  0  0  0  0  0  0  0
   -7.0970   20.3750  -33.5510 N   0  0  0  0  0  0  0  0  0  0  0  0
   -6.5370   19.1020  -33.1950 C   0  0  0  0  0  0  0  0  0  0  0  0
   -6.7620   18.5360  -31.9270 C   0  0  0  0  0  0  0  0  0  0  0  0
   -6.2230   17.2860  -31.6070 C   0  0  0  0  0  0  0  0  0  0  0  0
   -5.4680   16.5860  -32.5520 C   0  0  0  0  0  0  0  0  0  0  0  0
   -5.2560   17.1320  -33.8210 C   0  0  0  0  0  0  0  0  0  0  0  0
   -5.7930   18.3830  -34.1440 C   0  0  0  0  0  0  0  0  0  0  0  0
   -5.8260   22.2320  -32.7130 N   0  0  0  0  0  0  0  0  0  0  0  0
   -5.0251   24.4402  -29.4303 H   0  0  0  0  0  0  0  0  0  0  0  0
   -4.2642   25.7428  -30.4053 H   0  0  0  0  0  0  0  0  0  0  0  0
   -6.0498   25.5474  -30.4053 H   0  0  0  0  0  0  0  0  0  0  0  0
   -7.6669   23.7014  -30.4007 H   0  0  0  0  0  0  0  0  0  0  0  0
   -7.7400   20.4250  -34.3740 H   0  0  0  0  0  0  0  0  0  0  0  0
   -7.3645   19.0790  -31.1840 H   0  0  0  0  0  0  0  0  0  0  0  0
   -6.3935   16.8531  -30.6102 H   0  0  0  0  0  0  0  0  0  0  0  0
   -5.0405   15.6051  -32.2970 H   0  0  0  0  0  0  0  0  0  0  0  0
   -4.6666   16.5778  -34.5663 H   0  0  0  0  0  0  0  0  0  0  0  0
   -5.6314   18.8054  -35.1467 H   0  0  0  0  0  0  0  0  0  0  0  0
   -4.9800   22.0590  -33.3000 H   0  0  0  0  0  0  0  0  0  0  0  0
  1  2  1  0
  2  3  1  0
  3  4  1  0
  4  5  2  0
  5  6  1  0
  5  7  1  0
  7  8  1  0
  8  9  1  0
  9 10  2  0
 10 11  1  0
 11 12  2  0
 12 13  1  0
 13 14  2  0
  7 15  1  0
 15  3  2  0
 14  9  1  0
  1 16  1  0
  1 17  1  0
  1 18  1  0
  4 19  1  0
  8 20  1  0
 10 21  1  0
 11 22  1  0
 12 23  1  0
 13 24  1  0
 14 25  1  0
 15 26  1  0
M  CHG  1  15   1
M  END
>  <UniqueID>  (13) 
13

>  <SMILES>  (13) 
COc1cc(Br)n(Nc2ccccc2)[nH+]1

>  <Energy>  (13) 
62.118205963797735

>  <Genealogy>  (13) 
COc1cc(Br)n(Nc2ccccc2)[nH+]1 (protonated)
COc1cc(Br)n(Nc2ccccc2)[nH+]1 (3D coordinates assigned)
COc1cc(Br)n(Nc2ccccc2)[nH+]1 (optimized conformer: 62.118205963797735 kcal/mol)

>  <smiles>  (13) 
COc1cc(Br)n(Nc2ccccc2)n1

>  <score_type>  (13) 
oracle

>  <origin>  (13) 
adg

>  <m_score__min__energy>  (13) 
-6.21

>  <m_primary>  (13) 
energy

$$$$
13:0
     RDKit          3D

 36 38  0  0  0  0  0  0  0  0999 V2000
   -3.6690   23.6870  -28.3380 C   0  0  0  0  0  0  0  0  0  0  0  0
   -2.9130   24.4960  -29.3870 C   0  0  0  0  0  0  0  0  0  0  0  0
   -3.8510   25.2440  -30.2360 N   0  0  0  0  0  0  0  0  0  0  0  0
   -5.2480   24.9490  -29.8830 C   0  0  0  0  0  0  0  0  0  0  0  0
   -6.1370   24.9800  -31.1290 C   0  0  0  0  0  0  0  0  0  0  0  0
   -6.4970   23.6210  -31.5550 N   0  0  0  0  0  0  0  0  0  0  0  0
   -7.7870   23.2710  -31.5090 N   0  0  0  0  0  0  0  0  0  0  0  0
   -8.2000   22.0540  -31.8570 N   0  0  0  0  0  0  0  0  0  0  0  0
   -7.3200   21.1120  -32.2710 C   0  0  0  0  0  0  0  0  0  0  0  0
   -7.7740   19.8380  -32.6370 C   0  0  0  0  0  0  0  0  0  0  0  0
   -6.8580   18.8740  -33.0690 C   0  0  0  0  0  0  0  0  0  0  0  0
   -5.4890   19.1690  -33.1070 C   0  0  0  0  0  0  0  0  0  0  0  0
   -5.0330   20.4430  -32.7550 C   0  0  0  0  0  0  0  0  0  0  0  0
   -5.9510   21.4240  -32.3330 C   0  0  0  0  0  0  0  0  0  0  0  0
   -5.5520   22.7150  -31.9580 C   0  0  0  0  0  0  0  0  0  0  0  0
   -4.3310   23.0360  -31.9900 O   0  0  0  0  0  0  0  0  0  0  0  0
   -4.5900   18.1710  -33.4990 O   0  0  0  0  0  0  0  0  0  0  0  0
   -4.9990   16.8040  -33.5930 C   0  0  0  0  0  0  0  0  0  0  0  0
   -6.4200   16.7130  -34.1650 C   0  0  0  0  0  0  0  0  0  0  0  0
   -7.2930   17.6060  -33.4700 O   0  0  0  0  0  0  0  0  0  0  0  0
   -3.3637   24.0137  -27.3330 H   0  0  0  0  0  0  0  0  0  0  0  0
   -4.7505   23.8452  -28.4623 H   0  0  0  0  0  0  0  0  0  0  0  0
   -3.4380   22.6187  -28.4623 H   0  0  0  0  0  0  0  0  0  0  0  0
   -2.2392   25.2036  -28.8818 H   0  0  0  0  0  0  0  0  0  0  0  0
   -2.3345   23.8060  -30.0189 H   0  0  0  0  0  0  0  0  0  0  0  0
   -3.7010   24.9240  -31.2220 H   0  0  0  0  0  0  0  0  0  0  0  0
   -5.3020   23.9502  -29.4252 H   0  0  0  0  0  0  0  0  0  0  0  0
   -5.6034   25.7120  -29.1749 H   0  0  0  0  0  0  0  0  0  0  0  0
   -7.0557   25.5404  -30.9011 H   0  0  0  0  0  0  0  0  0  0  0  0
   -5.5802   25.4659  -31.9438 H   0  0  0  0  0  0  0  0  0  0  0  0
   -8.8461   19.5973  -32.5847 H   0  0  0  0  0  0  0  0  0  0  0  0
   -3.9598   20.6785  -32.8076 H   0  0  0  0  0  0  0  0  0  0  0  0
   -4.3062   16.2623  -34.2537 H   0  0  0  0  0  0  0  0  0  0  0  0
   -4.9877   16.3566  -32.5882 H   0  0  0  0  0  0  0  0  0  0  0  0
   -6.3998   16.9821  -35.2314 H   0  0  0  0  0  0  0  0  0  0  0  0
   -6.7895   15.6842  -34.0427 H   0  0  0  0  0  0  0  0  0  0  0  0
  1  2  1  0
  2  3  1  0
  3  4  1  0
  4  5  1  0
  5  6  1  0
  6  7  1  0
  7  8  2  0
  8  9  1  0
  9 10  2  0
 10 11  1  0
 11 12  2  0
 12 13  1  0
 13 14  2  0
 14 15  1  0
 15 16  2  0
 12 17  1  0
 17 18  1  0
 18 19  1  0
 19 20  1  0
 15  6  1  0
 14  9  1  0
 20 11  1  0
  1 21  1  0
  1 22  1  0
  1 23  1  0
  2 24  1  0
  2 25  1  0
  3 26  1  0
  4 27  1  0
  4 28  1  0
  5 29  1  0
  5 30  1  0
 10 31  1  0
 13 32  1  0
 18 33  1  0
 18 34  1  0
 19 35  1  0
 19 36  1  0
M  END
>  <UniqueID>  (14) 
14

>  <SMILES>  (14) 
CCNCCn1nnc2cc3c(cc2c1=O)OCCO3

>  <Energy>  (14) 
39.05126452444155

>  <Genealogy>  (14) 
CCNCCn1nnc2cc3c(cc2c1=O)OCCO3 (3D coordinates assigned)
CCNCCn1nnc2cc3c(cc2c1=O)OCCO3 (nonaromatic ring conformer: 39.05126452444155 kcal/mol)

>  <smiles>  (14) 
CCNCCn1nnc2cc3c(cc2c1=O)OCCO3

>  <score_type>  (14) 
oracle

>  <origin>  (14) 
adg

>  <m_score__min__energy>  (14) 
-7.2400000000000002

>  <m_primary>  (14) 
energy

$$$$
14:0
     RDKit          3D

 51 53  0  0  0  0  0  0  0  0999 V2000
   -3.5200   18.6220  -25.6670 C   0  0  0  0  0  0  0  0  0  0  0  0
   -2.4390   19.4810  -25.9470 O   0  0  0  0  0  0  0  0  0  0  0  0
   -1.6850   18.9750  -27.0310 C   0  0  0  0  0  0  0  0  0  0  0  0
   -1.4540   20.0810  -28.0590 C   0  0  0  0  0  0  0  0  0  0  0  0
   -2.5000   21.1980  -27.9240 C   0  0  0  0  0  0  0  0  0  0  0  0
   -2.1650   22.3380  -28.8100 N   0  0  0  0  0  0  0  0  0  0  0  0
   -2.6260   23.6160  -28.2120 C   0  0  0  0  0  0  0  0  0  0  0  0
   -4.1400   23.6210  -27.9340 C   0  0  0  0  0  0  0  0  0  0  0  0
   -5.0420   23.3690  -29.1540 C   0  0  0  0  0  0  0  0  0  0  0  0
   -4.5430   23.9420  -30.4210 N   0  0  0  0  0  0  0  0  0  0  0  0
   -5.5210   23.9750  -31.5290 C   0  0  0  0  0  0  0  0  0  0  0  0
   -6.1570   22.6290  -31.7160 C   0  0  0  0  0  0  0  0  0  0  0  0
   -7.4020   22.3410  -31.2520 N   0  0  0  0  0  0  0  0  0  0  0  0
   -7.5870   21.0680  -31.6490 C   0  0  0  0  0  0  0  0  0  0  0  0
   -8.7140   20.2710  -31.4480 C   0  0  0  0  0  0  0  0  0  0  0  0
   -8.7020   18.9680  -31.9830 C   0  0  0  0  0  0  0  0  0  0  0  0
   -7.5750   18.4980  -32.6960 C   0  0  0  0  0  0  0  0  0  0  0  0
   -6.4500   19.3270  -32.8790 C   0  0  0  0  0  0  0  0  0  0  0  0
   -6.4930   20.6140  -32.3280 C   0  0  0  0  0  0  0  0  0  0  0  0
   -5.5660   21.5860  -32.3590 N   0  0  0  0  0  0  0  0  0  0  0  0
   -4.2710   21.5680  -33.0390 C   0  0  0  0  0  0  0  0  0  0  0  0
   -3.1840   23.4890  -30.7840 C   0  0  0  0  0  0  0  0  0  0  0  0
   -2.7630   22.1520  -30.1550 C   0  0  0  0  0  0  0  0  0  0  0  0
   -3.6400   18.5267  -24.5777 H   0  0  0  0  0  0  0  0  0  0  0  0
   -4.4408   19.0375  -26.1023 H   0  0  0  0  0  0  0  0  0  0  0  0
   -3.3233   17.6311  -26.1023 H   0  0  0  0  0  0  0  0  0  0  0  0
   -0.7149   18.6099  -26.6627 H   0  0  0  0  0  0  0  0  0  0  0  0
   -2.2360   18.1484  -27.5033 H   0  0  0  0  0  0  0  0  0  0  0  0
   -0.4520   20.5084  -27.9061 H   0  0  0  0  0  0  0  0  0  0  0  0
   -1.5420   19.6435  -29.0644 H   0  0  0  0  0  0  0  0  0  0  0  0
   -3.4883   20.8029  -28.2017 H   0  0  0  0  0  0  0  0  0  0  0  0
   -2.5094   21.5503  -26.8820 H   0  0  0  0  0  0  0  0  0  0  0  0
   -2.0921   23.7751  -27.2635 H   0  0  0  0  0  0  0  0  0  0  0  0
   -2.4146   24.4194  -28.9331 H   0  0  0  0  0  0  0  0  0  0  0  0
   -4.3499   22.8377  -27.1907 H   0  0  0  0  0  0  0  0  0  0  0  0
   -4.3786   24.6379  -27.5891 H   0  0  0  0  0  0  0  0  0  0  0  0
   -5.1431   22.2817  -29.2863 H   0  0  0  0  0  0  0  0  0  0  0  0
   -5.9978   23.8706  -28.9420 H   0  0  0  0  0  0  0  0  0  0  0  0
   -6.3022   24.7146  -31.2991 H   0  0  0  0  0  0  0  0  0  0  0  0
   -4.9960   24.2496  -32.4558 H   0  0  0  0  0  0  0  0  0  0  0  0
   -9.5838   20.6478  -30.8899 H   0  0  0  0  0  0  0  0  0  0  0  0
   -9.5744   18.3123  -31.8453 H   0  0  0  0  0  0  0  0  0  0  0  0
   -7.5763   17.4790  -33.1104 H   0  0  0  0  0  0  0  0  0  0  0  0
   -5.5686   18.9754  -33.4354 H   0  0  0  0  0  0  0  0  0  0  0  0
   -3.4643   21.5568  -32.2912 H   0  0  0  0  0  0  0  0  0  0  0  0
   -4.1999   20.6688  -33.6686 H   0  0  0  0  0  0  0  0  0  0  0  0
   -4.1749   22.4649  -33.6686 H   0  0  0  0  0  0  0  0  0  0  0  0
   -3.1394   23.3821  -31.8779 H   0  0  0  0  0  0  0  0  0  0  0  0
   -2.4894   24.2478  -30.3944 H   0  0  0  0  0  0  0  0  0  0  0  0
   -3.6493   21.5069  -30.0641 H   0  0  0  0  0  0  0  0  0  0  0  0
   -2.0038   21.6930  -30.8054 H   0  0  0  0  0  0  0  0  0  0  0  0
  1  2  1  0
  2  3  1  0
  3  4  1  0
  4  5  1  0
  5  6  1  0
  6  7  1  0
  7  8  1  0
  8  9  1  0
  9 10  1  0
 10 11  1  0
 11 12  1  0
 12 13  2  0
 13 14  1  0
 14 15  2  0
 15 16  1  0
 16 17  2  0
 17 18  1  0
 18 19  2  0
 19 20  1  0
 20 21  1  0
 10 22  1  0
 22 23  1  0
 23  6  1  0
 20 12  1  0
 19 14  1  0
  1 24  1  0
  1 25  1  0
  1 26  1  0
  3 27  1  0
  3 28  1  0
  4 29  1  0
  4 30  1  0
  5 31  1  0
  5 32  1  0
  7 33  1  0
  7 34  1  0
  8 35  1  0
  8 36  1  0
  9 37  1  0
  9 38  1  0
 11 39  1  0
 11 40  1  0
 15 41  1  0
 16 42  1  0
 17 43  1  0
 18 44  1  0
 21 45  1  0
 21 46  1  0
 21 47  1  0
 22 48  1  0
 22 49  1  0
 23 50  1  0
 23 51  1  0
M  END
>  <UniqueID>  (15) 
15

>  <SMILES>  (15) 
COCCCN1CCCN(Cc2nc3ccccc3n2C)CC1

>  <Energy>  (15) 
101.56813134397167

>  <Genealogy>  (15) 
COCCCN1CCCN(Cc2nc3ccccc3n2C)CC1 (3D coordinates assigned)
COCCCN1CCCN(Cc2nc3ccccc3n2C)CC1 (nonaromatic ring conformer: 101.56813134397167 kcal/mol)

>  <smiles>  (15) 
COCCCN1CCCN(Cc2nc3ccccc3n2C)CC1

>  <score_type>  (15) 
oracle

>  <origin>  (15) 
adg

>  <m_score__min__energy>  (15) 
-6.04

>  <m_primary>  (15) 
energy

$$$$
15:0
     RDKit          3D

 52 56  0  0  0  0  0  0  0  0999 V2000
   -9.2690   22.6330  -31.9640 C   0  0  0  0  0  0  0  0  0  0  0  0
   -9.7290   21.1730  -31.9070 C   0  0  0  0  0  0  0  0  0  0  0  0
   -9.0610   20.3280  -32.9080 N   0  0  0  0  0  0  0  0  0  0  0  0
   -9.0090   18.9180  -32.5000 C   0  0  0  0  0  0  0  0  0  0  0  0
   -7.5570   18.4490  -32.4470 C   0  0  0  0  0  0  0  0  0  0  0  0
   -6.7790   19.1020  -33.4980 N   0  0  0  0  0  0  0  0  0  0  0  0
   -5.3570   19.2490  -33.3790 C   0  0  0  0  0  0  0  0  0  0  0  0
   -4.8200   20.2630  -32.5940 C   0  0  0  0  0  0  0  0  0  0  0  0
   -3.4510   20.4230  -32.4680 C   0  0  0  0  0  0  0  0  0  0  0  0
   -2.5550   19.6250  -33.1310 N   0  0  0  0  0  0  0  0  0  0  0  0
   -1.1150   19.9290  -33.0700 C   0  0  0  0  0  0  0  0  0  0  0  0
   -3.0430   18.5400  -33.8450 C   0  0  0  0  0  0  0  0  0  0  0  0
   -2.1760   17.5800  -34.4210 C   0  0  0  0  0  0  0  0  0  0  0  0
   -2.6790   16.5170  -35.1720 C   0  0  0  0  0  0  0  0  0  0  0  0
   -4.0490   16.3750  -35.3620 C   0  0  0  0  0  0  0  0  0  0  0  0
   -4.9350   17.2790  -34.7800 C   0  0  0  0  0  0  0  0  0  0  0  0
   -4.4580   18.3530  -34.0030 C   0  0  0  0  0  0  0  0  0  0  0  0
   -3.2190   21.5100  -31.4980 C   0  0  0  0  0  0  0  0  0  0  0  0
   -2.0510   21.9580  -30.9730 N   0  0  0  0  0  0  0  0  0  0  0  0
   -2.0650   22.9410  -30.0250 C   0  0  0  0  0  0  0  0  0  0  0  0
   -0.8610   23.4170  -29.4960 C   0  0  0  0  0  0  0  0  0  0  0  0
   -0.8720   24.4220  -28.5220 C   0  0  0  0  0  0  0  0  0  0  0  0
   -2.0850   24.9540  -28.0710 C   0  0  0  0  0  0  0  0  0  0  0  0
   -3.2980   24.4870  -28.5880 C   0  0  0  0  0  0  0  0  0  0  0  0
   -3.3020   23.4820  -29.5670 C   0  0  0  0  0  0  0  0  0  0  0  0
   -4.5100   22.9890  -30.0940 C   0  0  0  0  0  0  0  0  0  0  0  0
   -4.4350   21.9950  -31.0650 C   0  0  0  0  0  0  0  0  0  0  0  0
   -5.4870   21.2400  -31.7260 C   0  0  0  0  0  0  0  0  0  0  0  0
   -6.7260   21.3630  -31.5370 O   0  0  0  0  0  0  0  0  0  0  0  0
   -9.1473   23.0193  -30.9413 H   0  0  0  0  0  0  0  0  0  0  0  0
   -8.3081   22.6942  -32.4958 H   0  0  0  0  0  0  0  0  0  0  0  0
  -10.0213   23.2340  -32.4958 H   0  0  0  0  0  0  0  0  0  0  0  0
   -9.5089   20.7735  -30.9060 H   0  0  0  0  0  0  0  0  0  0  0  0
  -10.8073   21.1557  -32.1239 H   0  0  0  0  0  0  0  0  0  0  0  0
   -8.0850   20.6770  -33.0580 H   0  0  0  0  0  0  0  0  0  0  0  0
   -9.4648   18.8086  -31.5049 H   0  0  0  0  0  0  0  0  0  0  0  0
   -9.5617   18.3078  -33.2295 H   0  0  0  0  0  0  0  0  0  0  0  0
   -7.1284   18.7028  -31.4662 H   0  0  0  0  0  0  0  0  0  0  0  0
   -7.5248   17.3601  -32.5994 H   0  0  0  0  0  0  0  0  0  0  0  0
   -7.2910   19.7100  -34.1770 H   0  0  0  0  0  0  0  0  0  0  0  0
   -0.7986   19.9958  -32.0186 H   0  0  0  0  0  0  0  0  0  0  0  0
   -0.5500   19.1303  -33.5729 H   0  0  0  0  0  0  0  0  0  0  0  0
   -0.9211   20.8879  -33.5729 H   0  0  0  0  0  0  0  0  0  0  0  0
   -1.0899   17.6736  -34.2742 H   0  0  0  0  0  0  0  0  0  0  0  0
   -1.9871   15.7865  -35.6166 H   0  0  0  0  0  0  0  0  0  0  0  0
   -4.4346   15.5462  -35.9739 H   0  0  0  0  0  0  0  0  0  0  0  0
   -6.0176   17.1529  -34.9286 H   0  0  0  0  0  0  0  0  0  0  0  0
    0.0954   23.0011  -29.8458 H   0  0  0  0  0  0  0  0  0  0  0  0
    0.0769   24.7952  -28.1093 H   0  0  0  0  0  0  0  0  0  0  0  0
   -2.0847   25.7440  -27.3055 H   0  0  0  0  0  0  0  0  0  0  0  0
   -4.2483   24.9075  -28.2272 H   0  0  0  0  0  0  0  0  0  0  0  0
   -5.4805   23.3761  -29.7502 H   0  0  0  0  0  0  0  0  0  0  0  0
  1  2  1  0
  2  3  1  0
  3  4  1  0
  4  5  1  0
  5  6  1  0
  6  7  1  0
  7  8  2  0
  8  9  1  0
  9 10  2  0
 10 11  1  0
 10 12  1  0
 12 13  2  0
 13 14  1  0
 14 15  2  0
 15 16  1  0
 16 17  2  0
  9 18  1  0
 18 19  2  0
 19 20  1  0
 20 21  2  0
 21 22  1  0
 22 23  2  0
 23 24  1  0
 24 25  2  0
 25 26  1  0
 26 27  2  0
 27 28  1  0
 28 29  2  0
 17  7  1  0
 27 18  1  0
 28  8  1  0
 17 12  1  0
 25 20  1  0
  1 30  1  0
  1 31  1  0
  1 32  1  0
  2 33  1  0
  2 34  1  0
  3 35  1  0
  4 36  1  0
  4 37  1  0
  5 38  1  0
  5 39  1  0
  6 40  1  0
 11 41  1  0
 11 42  1  0
 11 43  1  0
 13 44  1  0
 14 45  1  0
 15 46  1  0
 16 47  1  0
 21 48  1  0
 22 49  1  0
 23 50  1  0
 24 51  1  0
 26 52  1  0
M  CHG  1  10   1
M  END
>  <UniqueID>  (16) 
16

>  <SMILES>  (16) 
CCNCCNc1c2c([n+](C)c3ccccc13)-c1nc3ccccc3cc1C2=O

>  <Energy>  (16) 
108.18983430957933

>  <Genealogy>  (16) 
CCNCCNc1c2c([n+](C)c3ccccc13)-c1nc3ccccc3cc1C2=O (3D coordinates assigned)
CCNCCNc1c2c([n+](C)c3ccccc13)-c1nc3ccccc3cc1C2=O (nonaromatic ring conformer: 108.18983430957933 kcal/mol)

>  <smiles>  (16) 
CCNCCNc1c2c([n+](C)c3ccccc13)-c1nc3ccccc3cc1C2=O

>  <score_type>  (16) 
oracle

>  <origin>  (16) 
adg

>  <m_score__min__energy>  (16) 
-9.1899999999999995

>  <m_primary>  (16) 
energy

$$$$
16:0
     RDKit          3D

 44 46  0  0  0  0  0  0  0  0999 V2000
   -7.2320   24.3100  -30.4990 C   0  0  0  0  0  0  0  0  0  0  0  0
   -6.4110   25.3970  -29.7990 C   0  0  0  0  0  0  0  0  0  0  0  0
   -5.3470   24.8300  -28.9460 N   0  0  0  0  0  0  0  0  0  0  0  0
   -4.2150   24.2850  -29.7240 C   0  0  0  0  0  0  0  0  0  0  0  0
   -4.4440   22.8290  -30.1650 C   0  0  0  0  0  0  0  0  0  0  0  0
   -4.5080   22.7240  -31.6230 N   0  0  0  0  0  0  0  0  0  0  0  0
   -4.6210   21.4460  -32.2740 C   0  0  0  0  0  0  0  0  0  0  0  0
   -5.8710   20.8050  -32.3690 C   0  0  0  0  0  0  0  0  0  0  0  0
   -7.0430   21.4270  -31.8890 C   0  0  0  0  0  0  0  0  0  0  0  0
   -8.2840   20.8060  -32.0180 C   0  0  0  0  0  0  0  0  0  0  0  0
   -9.7300   21.6020  -31.4210 Cl  0  0  0  0  0  0  0  0  0  0  0  0
   -8.3780   19.5650  -32.6380 C   0  0  0  0  0  0  0  0  0  0  0  0
   -7.2310   18.9260  -33.1060 C   0  0  0  0  0  0  0  0  0  0  0  0
   -5.9500   19.5120  -32.9500 C   0  0  0  0  0  0  0  0  0  0  0  0
   -4.7990   18.8620  -33.3560 N   0  0  0  0  0  0  0  0  0  0  0  0
   -4.8370   17.4190  -33.6790 C   0  0  0  0  0  0  0  0  0  0  0  0
   -3.6070   19.5580  -33.4440 C   0  0  0  0  0  0  0  0  0  0  0  0
   -2.4770   19.0220  -34.1130 C   0  0  0  0  0  0  0  0  0  0  0  0
   -1.2710   19.7240  -34.1690 C   0  0  0  0  0  0  0  0  0  0  0  0
    0.1090   19.0320  -35.0030 Cl  0  0  0  0  0  0  0  0  0  0  0  0
   -1.1670   20.9800  -33.5810 C   0  0  0  0  0  0  0  0  0  0  0  0
   -2.2690   21.5480  -32.9490 C   0  0  0  0  0  0  0  0  0  0  0  0
   -3.4960   20.8550  -32.8750 C   0  0  0  0  0  0  0  0  0  0  0  0
   -7.7142   23.6715  -29.7442 H   0  0  0  0  0  0  0  0  0  0  0  0
   -8.0024   24.7802  -31.1278 H   0  0  0  0  0  0  0  0  0  0  0  0
   -6.5690   23.6976  -31.1278 H   0  0  0  0  0  0  0  0  0  0  0  0
   -5.9481   26.0387  -30.5632 H   0  0  0  0  0  0  0  0  0  0  0  0
   -7.0917   25.9710  -29.1531 H   0  0  0  0  0  0  0  0  0  0  0  0
   -5.7640   24.0810  -28.3470 H   0  0  0  0  0  0  0  0  0  0  0  0
   -4.9880   25.5660  -28.2940 H   0  0  0  0  0  0  0  0  0  0  0  0
   -4.0729   24.9061  -30.6207 H   0  0  0  0  0  0  0  0  0  0  0  0
   -3.3276   24.2997  -29.0742 H   0  0  0  0  0  0  0  0  0  0  0  0
   -3.6149   22.2073  -29.7961 H   0  0  0  0  0  0  0  0  0  0  0  0
   -5.4015   22.4840  -29.7475 H   0  0  0  0  0  0  0  0  0  0  0  0
   -4.6690   23.5920  -32.1840 H   0  0  0  0  0  0  0  0  0  0  0  0
   -6.9764   22.4137  -31.4073 H   0  0  0  0  0  0  0  0  0  0  0  0
   -9.3607   19.0859  -32.7596 H   0  0  0  0  0  0  0  0  0  0  0  0
   -7.3216   17.9499  -33.6051 H   0  0  0  0  0  0  0  0  0  0  0  0
   -4.8524   16.8349  -32.7470 H   0  0  0  0  0  0  0  0  0  0  0  0
   -5.7413   17.1981  -34.2651 H   0  0  0  0  0  0  0  0  0  0  0  0
   -3.9456   17.1509  -34.2651 H   0  0  0  0  0  0  0  0  0  0  0  0
   -2.5518   18.0365  -34.5960 H   0  0  0  0  0  0  0  0  0  0  0  0
   -0.2123   21.5252  -33.6156 H   0  0  0  0  0  0  0  0  0  0  0  0
   -2.1826   22.5492  -32.5017 H   0  0  0  0  0  0  0  0  0  0  0  0
  1  2  1  0
  2  3  1  0
  3  4  1  0
  4  5  1  0
  5  6  1  0
  6  7  1  0
  7  8  2  0
  8  9  1  0
  9 10  2  0
 10 11  1  0
 10 12  1  0
 12 13  2  0
 13 14  1  0
 14 15  2  0
 15 16  1  0
 15 17  1  0
 17 18  2  0
 18 19  1  0
 19 20  1  0
 19 21  2  0
 21 22  1  0
 22 23  2  0
 23  7  1  0
 14  8  1  0
 23 17  1  0
  1 24  1  0
  1 25  1  0
  1 26  1  0
  2 27  1  0
  2 28  1  0
  3 29  1  0
  3 30  1  0
  4 31  1  0
  4 32  1  0
  5 33  1  0
  5 34  1  0
  6 35  1  0
  9 36  1  0
 12 37  1  0
 13 38  1  0
 16 39  1  0
 16 40  1  0
 16 41  1  0
 18 42  1  0
 21 43  1  0
 22 44  1  0
M  CHG  2   3   1  15   1
M  END
>  <UniqueID>  (17) 
17

>  <SMILES>  (17) 
CC[NH2+]CCNc1c2cc(Cl)ccc2[n+](C)c2cc(Cl)ccc12

>  <Energy>  (17) 
69.8381247628751

>  <Genealogy>  (17) 
CC[NH2+]CCNc1c2cc(Cl)ccc2[n+](C)c2cc(Cl)ccc12 (protonated)
CC[NH2+]CCNc1c2cc(Cl)ccc2[n+](C)c2cc(Cl)ccc12 (3D coordinates assigned)
CC[NH2+]CCNc1c2cc(Cl)ccc2[n+](C)c2cc(Cl)ccc12 (optimized conformer: 69.8381247628751 kcal/mol)

>  <smiles>  (17) 
CCNCCNc1c2cc(Cl)ccc2[n+](C)c2cc(Cl)ccc12

>  <score_type>  (17) 
oracle

>  <origin>  (17) 
adg

>  <m_score__min__energy>  (17) 
-7.5899999999999999

>  <m_primary>  (17) 
energy

$$$$
17:0
     RDKit          3D

 45 46  0  0  0  0  0  0  0  0999 V2000
   -2.3760   19.3300  -26.6910 C   0  0  0  0  0  0  0  0  0  0  0  0
   -2.7450   20.4690  -27.6330 C   0  0  0  0  0  0  0  0  0  0  0  0
   -1.5760   21.1560  -28.0430 O   0  0  0  0  0  0  0  0  0  0  0  0
   -1.4340   22.3640  -27.3230 C   0  0  0  0  0  0  0  0  0  0  0  0
   -1.1220   23.5070  -28.2900 C   0  0  0  0  0  0  0  0  0  0  0  0
   -2.0290   24.7160  -28.0560 C   0  0  0  0  0  0  0  0  0  0  0  0
   -2.4370   25.2750  -29.3390 N   0  0  0  0  0  0  0  0  0  0  0  0
   -3.5950   24.8260  -30.0470 C   0  0  0  0  0  0  0  0  0  0  0  0
   -4.2320   25.6170  -30.7970 O   0  0  0  0  0  0  0  0  0  0  0  0
   -4.0390   23.4040  -29.9180 C   0  0  0  0  0  0  0  0  0  0  0  0
   -3.9460   22.7290  -31.2150 N   0  0  0  0  0  0  0  0  0  0  0  0
   -4.9240   22.5930  -32.1490 C   0  0  0  0  0  0  0  0  0  0  0  0
   -6.5460   23.3580  -32.0380 S   0  0  0  0  0  0  0  0  0  0  0  0
   -7.4610   21.7760  -31.9530 C   0  0  0  0  0  0  0  0  0  0  0  0
   -8.9290   22.0000  -31.6150 C   0  0  0  0  0  0  0  0  0  0  0  0
   -4.5590   21.7920  -33.1790 N   0  0  0  0  0  0  0  0  0  0  0  0
   -3.3070   21.4140  -32.8770 C   0  0  0  0  0  0  0  0  0  0  0  0
   -2.4700   20.5610  -33.5910 C   0  0  0  0  0  0  0  0  0  0  0  0
   -1.2030   20.2800  -33.0440 C   0  0  0  0  0  0  0  0  0  0  0  0
   -0.8140   20.8510  -31.8110 C   0  0  0  0  0  0  0  0  0  0  0  0
   -1.6870   21.7090  -31.1130 C   0  0  0  0  0  0  0  0  0  0  0  0
   -2.9340   21.9720  -31.6850 C   0  0  0  0  0  0  0  0  0  0  0  0
   -2.4848   19.6659  -25.6492 H   0  0  0  0  0  0  0  0  0  0  0  0
   -3.0428   18.4740  -26.8718 H   0  0  0  0  0  0  0  0  0  0  0  0
   -1.3339   19.0276  -26.8718 H   0  0  0  0  0  0  0  0  0  0  0  0
   -3.2560   20.0597  -28.5169 H   0  0  0  0  0  0  0  0  0  0  0  0
   -3.4110   21.1701  -27.1087 H   0  0  0  0  0  0  0  0  0  0  0  0
   -2.3699   22.5829  -26.7880 H   0  0  0  0  0  0  0  0  0  0  0  0
   -0.6105   22.2629  -26.6008 H   0  0  0  0  0  0  0  0  0  0  0  0
   -0.0754   23.8153  -28.1502 H   0  0  0  0  0  0  0  0  0  0  0  0
   -1.2953   23.1441  -29.3138 H   0  0  0  0  0  0  0  0  0  0  0  0
   -2.9204   24.4018  -27.4932 H   0  0  0  0  0  0  0  0  0  0  0  0
   -1.4818   25.4784  -27.4821 H   0  0  0  0  0  0  0  0  0  0  0  0
   -3.3957   22.8863  -29.1912 H   0  0  0  0  0  0  0  0  0  0  0  0
   -5.0837   23.3823  -29.5744 H   0  0  0  0  0  0  0  0  0  0  0  0
   -7.3913   21.2696  -32.9270 H   0  0  0  0  0  0  0  0  0  0  0  0
   -7.0134   21.1597  -31.1594 H   0  0  0  0  0  0  0  0  0  0  0  0
   -9.0549   22.0192  -30.5224 H   0  0  0  0  0  0  0  0  0  0  0  0
   -9.2607   22.9592  -32.0392 H   0  0  0  0  0  0  0  0  0  0  0  0
   -9.5317   21.1834  -32.0392 H   0  0  0  0  0  0  0  0  0  0  0  0
   -5.1290   21.5200  -34.0120 H   0  0  0  0  0  0  0  0  0  0  0  0
   -2.7870   20.1220  -34.5485 H   0  0  0  0  0  0  0  0  0  0  0  0
   -0.5121   19.6122  -33.5795 H   0  0  0  0  0  0  0  0  0  0  0  0
    0.1778   20.6239  -31.3931 H   0  0  0  0  0  0  0  0  0  0  0  0
   -1.3966   22.1563  -30.1509 H   0  0  0  0  0  0  0  0  0  0  0  0
  1  2  1  0
  2  3  1  0
  3  4  1  0
  4  5  1  0
  5  6  1  0
  6  7  1  0
  7  8  1  0
  8  9  2  0
  8 10  1  0
 10 11  1  0
 11 12  1  0
 12 13  1  0
 13 14  1  0
 14 15  1  0
 12 16  2  0
 16 17  1  0
 17 18  2  0
 18 19  1  0
 19 20  2  0
 20 21  1  0
 21 22  2  0
 22 11  1  0
 22 17  1  0
  1 23  1  0
  1 24  1  0
  1 25  1  0
  2 26  1  0
  2 27  1  0
  4 28  1  0
  4 29  1  0
  5 30  1  0
  5 31  1  0
  6 32  1  0
  6 33  1  0
 10 34  1  0
 10 35  1  0
 14 36  1  0
 14 37  1  0
 15 38  1  0
 15 39  1  0
 15 40  1  0
 16 41  1  0
 18 42  1  0
 19 43  1  0
 20 44  1  0
 21 45  1  0
M  CHG  2   7  -1  16   1
M  END
>  <UniqueID>  (18) 
18

>  <SMILES>  (18) 
CCOCCC[N-]C(=O)Cn1c(SCC)[nH+]c2ccccc21

>  <Energy>  (18) 
67.9345526953554

>  <Genealogy>  (18) 
CCOCCC[N-]C(=O)Cn1c(SCC)[nH+]c2ccccc21 (protonated)
CCOCCC[N-]C(=O)Cn1c(SCC)[nH+]c2ccccc21 (3D coordinates assigned)
CCOCCC[N-]C(=O)Cn1c(SCC)[nH+]c2ccccc21 (optimized conformer: 67.9345526953554 kcal/mol)

>  <smiles>  (18) 
CCOCCCNC(=O)Cn1c(SCC)nc2ccccc21

>  <score_type>  (18) 
oracle

>  <origin>  (18) 
adg

>  <m_score__min__energy>  (18) 
-8.5

>  <m_primary>  (18) 
energy

$$$$
18:0
     RDKit          3D

 80 83  0  0  0  0  0  0  0  0999 V2000
    1.6460   25.1160  -35.7430 C   0  0  0  0  0  0  0  0  0  0  0  0
    0.3630   24.3750  -36.1070 C   0  0  0  0  0  0  0  0  0  0  0  0
    0.2600   23.0700  -35.4380 N   0  0  0  0  0  0  0  0  0  0  0  0
    0.9200   21.9990  -36.1980 C   0  0  0  0  0  0  0  0  0  0  0  0
    0.1250   20.6960  -36.0860 C   0  0  0  0  0  0  0  0  0  0  0  0
   -0.7400   20.6660  -34.8950 N   0  0  0  0  0  0  0  0  0  0  0  0
   -0.0280   20.3550  -33.6450 C   0  0  0  0  0  0  0  0  0  0  0  0
   -0.9360   20.4330  -32.4010 C   0  0  0  0  0  0  0  0  0  0  0  0
   -2.0680   21.4630  -32.5660 C   0  0  0  0  0  0  0  0  0  0  0  0
   -3.0940   21.0860  -33.5530 N   0  0  0  0  0  0  0  0  0  0  0  0
   -4.4140   20.5780  -33.2540 C   0  0  0  0  0  0  0  0  0  0  0  0
   -4.7980   19.2780  -33.6300 C   0  0  0  0  0  0  0  0  0  0  0  0
   -3.8880   18.4000  -34.2540 C   0  0  0  0  0  0  0  0  0  0  0  0
   -4.2980   17.1470  -34.7020 C   0  0  0  0  0  0  0  0  0  0  0  0
   -5.6190   16.7490  -34.5390 C   0  0  0  0  0  0  0  0  0  0  0  0
   -6.5240   17.5760  -33.8780 C   0  0  0  0  0  0  0  0  0  0  0  0
   -6.1200   18.8320  -33.3540 C   0  0  0  0  0  0  0  0  0  0  0  0
   -6.9720   19.6070  -32.5900 N   0  0  0  0  0  0  0  0  0  0  0  0
   -8.2190   19.0250  -32.0380 C   0  0  0  0  0  0  0  0  0  0  0  0
   -6.6340   20.9140  -32.2850 C   0  0  0  0  0  0  0  0  0  0  0  0
   -7.5670   21.8070  -31.6910 C   0  0  0  0  0  0  0  0  0  0  0  0
   -7.2070   23.1130  -31.3600 C   0  0  0  0  0  0  0  0  0  0  0  0
   -5.9150   23.5770  -31.6310 C   0  0  0  0  0  0  0  0  0  0  0  0
   -5.5160   24.8950  -31.3700 O   0  0  0  0  0  0  0  0  0  0  0  0
   -5.1150   25.3900  -30.0940 C   0  0  0  0  0  0  0  0  0  0  0  0
   -5.3500   24.3090  -29.0190 C   0  0  0  0  0  0  0  0  0  0  0  0
   -4.1540   23.9080  -28.1990 N   0  0  0  0  0  0  0  0  0  0  0  0
   -4.2140   24.5710  -26.8680 C   0  0  0  0  0  0  0  0  0  0  0  0
   -2.8600   24.2910  -28.8610 C   0  0  0  0  0  0  0  0  0  0  0  0
   -2.4120   23.2610  -29.9060 C   0  0  0  0  0  0  0  0  0  0  0  0
   -2.1040   21.9110  -29.2360 C   0  0  0  0  0  0  0  0  0  0  0  0
   -2.8720   21.7220  -27.9150 C   0  0  0  0  0  0  0  0  0  0  0  0
   -4.2420   22.4190  -27.9730 C   0  0  0  0  0  0  0  0  0  0  0  0
   -4.9870   22.7170  -32.2190 C   0  0  0  0  0  0  0  0  0  0  0  0
   -5.3350   21.4010  -32.5790 C   0  0  0  0  0  0  0  0  0  0  0  0
    1.7401   25.1703  -34.6484 H   0  0  0  0  0  0  0  0  0  0  0  0
    2.5107   24.5782  -36.1591 H   0  0  0  0  0  0  0  0  0  0  0  0
    1.6123   26.1337  -36.1591 H   0  0  0  0  0  0  0  0  0  0  0  0
   -0.4977   24.9926  -35.8108 H   0  0  0  0  0  0  0  0  0  0  0  0
    0.3761   24.1953  -37.1921 H   0  0  0  0  0  0  0  0  0  0  0  0
   -0.7500   22.8280  -35.3150 H   0  0  0  0  0  0  0  0  0  0  0  0
    0.9861   22.2933  -37.2559 H   0  0  0  0  0  0  0  0  0  0  0  0
    1.9273   21.8384  -35.7862 H   0  0  0  0  0  0  0  0  0  0  0  0
   -0.5039   20.5879  -36.9820 H   0  0  0  0  0  0  0  0  0  0  0  0
    0.8461   19.8701  -35.9972 H   0  0  0  0  0  0  0  0  0  0  0  0
   -1.2140   21.5940  -34.7940 H   0  0  0  0  0  0  0  0  0  0  0  0
    0.3804   19.3362  -33.7180 H   0  0  0  0  0  0  0  0  0  0  0  0
    0.7656   21.1067  -33.5217 H   0  0  0  0  0  0  0  0  0  0  0  0
   -1.3818   19.4427  -32.2261 H   0  0  0  0  0  0  0  0  0  0  0  0
   -0.3144   20.7503  -31.5507 H   0  0  0  0  0  0  0  0  0  0  0  0
   -2.5600   21.5928  -31.5907 H   0  0  0  0  0  0  0  0  0  0  0  0
   -1.6003   22.3871  -32.9365 H   0  0  0  0  0  0  0  0  0  0  0  0
   -2.8210   21.1480  -34.5650 H   0  0  0  0  0  0  0  0  0  0  0  0
   -2.8409   18.7089  -34.3886 H   0  0  0  0  0  0  0  0  0  0  0  0
   -3.5759   16.4722  -35.1850 H   0  0  0  0  0  0  0  0  0  0  0  0
   -5.9514   15.7774  -34.9333 H   0  0  0  0  0  0  0  0  0  0  0  0
   -7.5682   17.2508  -33.7601 H   0  0  0  0  0  0  0  0  0  0  0  0
   -8.1775   19.0444  -30.9390 H   0  0  0  0  0  0  0  0  0  0  0  0
   -9.0822   19.6133  -32.3828 H   0  0  0  0  0  0  0  0  0  0  0  0
   -8.3225   17.9856  -32.3828 H   0  0  0  0  0  0  0  0  0  0  0  0
   -8.5916   21.4616  -31.4888 H   0  0  0  0  0  0  0  0  0  0  0  0
   -7.9409   23.7803  -30.8845 H   0  0  0  0  0  0  0  0  0  0  0  0
   -4.0468   25.6511  -30.1224 H   0  0  0  0  0  0  0  0  0  0  0  0
   -5.7075   26.2834  -29.8475 H   0  0  0  0  0  0  0  0  0  0  0  0
   -6.1181   24.6862  -28.3278 H   0  0  0  0  0  0  0  0  0  0  0  0
   -5.6398   23.4044  -29.5736 H   0  0  0  0  0  0  0  0  0  0  0  0
   -4.1452   23.8106  -26.0762 H   0  0  0  0  0  0  0  0  0  0  0  0
   -3.3761   25.2772  -26.7720 H   0  0  0  0  0  0  0  0  0  0  0  0
   -5.1651   25.1153  -26.7720 H   0  0  0  0  0  0  0  0  0  0  0  0
   -2.9912   25.2639  -29.3572 H   0  0  0  0  0  0  0  0  0  0  0  0
   -2.0850   24.3380  -28.0818 H   0  0  0  0  0  0  0  0  0  0  0  0
   -3.2147   23.1231  -30.6454 H   0  0  0  0  0  0  0  0  0  0  0  0
   -1.5003   23.6289  -30.3994 H   0  0  0  0  0  0  0  0  0  0  0  0
   -2.3845   21.1019  -29.9265 H   0  0  0  0  0  0  0  0  0  0  0  0
   -1.0288   21.8892  -29.0047 H   0  0  0  0  0  0  0  0  0  0  0  0
   -3.0219   20.6471  -27.7360 H   0  0  0  0  0  0  0  0  0  0  0  0
   -2.2843   22.1686  -27.0994 H   0  0  0  0  0  0  0  0  0  0  0  0
   -4.8227   21.9763  -28.7957 H   0  0  0  0  0  0  0  0  0  0  0  0
   -4.7212   22.2695  -26.9942 H   0  0  0  0  0  0  0  0  0  0  0  0
   -3.9633   23.0741  -32.4050 H   0  0  0  0  0  0  0  0  0  0  0  0
  1  2  1  0
  2  3  1  0
  3  4  1  0
  4  5  1  0
  5  6  1  0
  6  7  1  0
  7  8  1  0
  8  9  1  0
  9 10  1  0
 10 11  1  0
 11 12  2  0
 12 13  1  0
 13 14  2  0
 14 15  1  0
 15 16  2  0
 16 17  1  0
 17 18  2  0
 18 19  1  0
 18 20  1  0
 20 21  2  0
 21 22  1  0
 22 23  2  0
 23 24  1  0
 24 25  1  0
 25 26  1  0
 26 27  1  0
 27 28  1  0
 27 29  1  0
 29 30  1  0
 30 31  1  0
 31 32  1  0
 32 33  1  0
 23 34  1  0
 34 35  2  0
 35 11  1  0
 17 12  1  0
 35 20  1  0
 33 27  1  0
  1 36  1  0
  1 37  1  0
  1 38  1  0
  2 39  1  0
  2 40  1  0
  3 41  1  0
  4 42  1  0
  4 43  1  0
  5 44  1  0
  5 45  1  0
  6 46  1  0
  7 47  1  0
  7 48  1  0
  8 49  1  0
  8 50  1  0
  9 51  1  0
  9 52  1  0
 10 53  1  0
 13 54  1  0
 14 55  1  0
 15 56  1  0
 16 57  1  0
 19 58  1  0
 19 59  1  0
 19 60  1  0
 21 61  1  0
 22 62  1  0
 25 63  1  0
 25 64  1  0
 26 65  1  0
 26 66  1  0
 28 67  1  0
 28 68  1  0
 28 69  1  0
 29 70  1  0
 29 71  1  0
 30 72  1  0
 30 73  1  0
 31 74  1  0
 31 75  1  0
 32 76  1  0
 32 77  1  0
 33 78  1  0
 33 79  1  0
 34 80  1  0
M  CHG  2  18   1  27   1
M  END
>  <UniqueID>  (19) 
19

>  <SMILES>  (19) 
CCNCCNCCCNc1c2ccccc2[n+](C)c2ccc(OCC[N+]3(C)CCCCC3)cc12

>  <Energy>  (19) 
117.94299942307424

>  <Genealogy>  (19) 
CCNCCNCCCNc1c2ccccc2[n+](C)c2ccc(OCC[N+]3(C)CCCCC3)cc12 (3D coordinates assigned)
CCNCCNCCCNc1c2ccccc2[n+](C)c2ccc(OCC[N+]3(C)CCCCC3)cc12 (nonaromatic ring conformer: 117.94299942307424 kcal/mol)

>  <smiles>  (19) 
CCNCCNCCCNc1c2ccccc2[n+](C)c2ccc(OCC[N+]3(C)CCCCC3)cc12

>  <score_type>  (19) 
oracle

>  <origin>  (19) 
adg

>  <m_score__min__energy>  (19) 
-9.9399999999999995

>  <m_primary>  (19) 
energy

$$$$
19:0
     RDKit          3D

 49 49  0  0  0  0  0  0  0  0999 V2000
   -3.4790   24.4940  -31.5540 H   0  0  0  0  0  0  0  0  0  0  0  0
   -3.8610   25.1540  -30.8420 N   0  0  0  0  0  0  0  0  0  0  0  0
   -4.8130   24.8010  -30.0400 C   0  0  0  0  0  0  0  0  0  0  0  0
   -6.5250   25.0670  -30.5170 S   0  0  0  0  0  0  0  0  0  0  0  0
   -6.5820   23.6930  -31.7230 C   0  0  0  0  0  0  0  0  0  0  0  0
   -6.2954   24.0663  -32.7173 H   0  0  0  0  0  0  0  0  0  0  0  0
   -5.8827   22.9033  -31.4109 H   0  0  0  0  0  0  0  0  0  0  0  0
   -8.0100   23.1180  -31.7830 C   0  0  0  0  0  0  0  0  0  0  0  0
   -8.5759   23.5163  -30.9279 H   0  0  0  0  0  0  0  0  0  0  0  0
   -8.4256   23.4198  -32.7557 H   0  0  0  0  0  0  0  0  0  0  0  0
   -8.0850   21.6360  -31.7370 N   0  0  0  0  0  0  0  0  0  0  0  0
   -9.4520   21.1400  -31.9620 C   0  0  0  0  0  0  0  0  0  0  0  0
   -9.9417   20.9623  -30.9932 H   0  0  0  0  0  0  0  0  0  0  0  0
  -10.0244   21.8877  -32.5305 H   0  0  0  0  0  0  0  0  0  0  0  0
   -9.4118   20.1992  -32.5305 H   0  0  0  0  0  0  0  0  0  0  0  0
   -7.1150   20.9440  -32.6130 C   0  0  0  0  0  0  0  0  0  0  0  0
   -7.1695   21.3822  -33.6205 H   0  0  0  0  0  0  0  0  0  0  0  0
   -6.1120   21.0715  -32.1798 H   0  0  0  0  0  0  0  0  0  0  0  0
   -7.4040   19.4450  -32.7090 C   0  0  0  0  0  0  0  0  0  0  0  0
   -7.4856   19.0218  -31.6970 H   0  0  0  0  0  0  0  0  0  0  0  0
   -8.3490   19.2877  -33.2495 H   0  0  0  0  0  0  0  0  0  0  0  0
   -6.5852   18.9476  -33.2495 H   0  0  0  0  0  0  0  0  0  0  0  0
   -4.5120   24.1910  -28.7790 N   0  0  0  0  0  0  0  0  0  0  0  0
   -5.3070   23.8110  -28.2230 H   0  0  0  0  0  0  0  0  0  0  0  0
   -3.1370   24.0510  -28.2940 C   0  0  0  0  0  0  0  0  0  0  0  0
   -2.5432   24.9002  -28.6631 H   0  0  0  0  0  0  0  0  0  0  0  0
   -3.1676   24.0309  -27.1946 H   0  0  0  0  0  0  0  0  0  0  0  0
   -2.4820   22.7450  -28.7710 C   0  0  0  0  0  0  0  0  0  0  0  0
   -1.4801   22.9790  -29.1601 H   0  0  0  0  0  0  0  0  0  0  0  0
   -2.4434   22.0658  -27.9066 H   0  0  0  0  0  0  0  0  0  0  0  0
   -3.2810   22.0300  -29.8770 C   0  0  0  0  0  0  0  0  0  0  0  0
   -3.1373   20.9441  -29.7758 H   0  0  0  0  0  0  0  0  0  0  0  0
   -4.3416   22.2987  -29.7631 H   0  0  0  0  0  0  0  0  0  0  0  0
   -2.8390   22.4500  -31.2300 N   0  0  0  0  0  0  0  0  0  0  0  0
   -1.5050   21.9220  -31.5950 C   0  0  0  0  0  0  0  0  0  0  0  0
   -1.1566   22.4426  -32.4992 H   0  0  0  0  0  0  0  0  0  0  0  0
   -0.8353   22.0957  -30.7398 H   0  0  0  0  0  0  0  0  0  0  0  0
   -1.5170   20.4040  -31.8740 C   0  0  0  0  0  0  0  0  0  0  0  0
   -0.7234   20.1743  -32.6003 H   0  0  0  0  0  0  0  0  0  0  0  0
   -1.3550   19.8907  -30.9147 H   0  0  0  0  0  0  0  0  0  0  0  0
   -2.8570   19.9110  -32.4400 C   0  0  0  0  0  0  0  0  0  0  0  0
   -2.6718   19.0663  -33.1198 H   0  0  0  0  0  0  0  0  0  0  0  0
   -3.4978   19.5974  -31.6027 H   0  0  0  0  0  0  0  0  0  0  0  0
   -3.5670   21.0230  -33.2070 C   0  0  0  0  0  0  0  0  0  0  0  0
   -2.9271   21.3509  -34.0395 H   0  0  0  0  0  0  0  0  0  0  0  0
   -4.5227   20.6320  -33.5860 H   0  0  0  0  0  0  0  0  0  0  0  0
   -3.8590   22.2300  -32.2890 C   0  0  0  0  0  0  0  0  0  0  0  0
   -3.9089   23.1343  -32.9133 H   0  0  0  0  0  0  0  0  0  0  0  0
   -4.8074   22.0146  -31.7751 H   0  0  0  0  0  0  0  0  0  0  0  0
  1  2  1  0
  2  3  2  0
  3  4  1  0
  4  5  1  0
  5  6  1  0
  5  7  1  0
  5  8  1  0
  8  9  1  0
  8 10  1  0
  8 11  1  0
 11 12  1  0
 12 13  1  0
 12 14  1  0
 12 15  1  0
 11 16  1  0
 16 17  1  0
 16 18  1  0
 16 19  1  0
 19 20  1  0
 19 21  1  0
 19 22  1  0
  3 23  1  0
 23 24  1  0
 23 25  1  0
 25 26  1  0
 25 27  1  0
 25 28  1  0
 28 29  1  0
 28 30  1  0
 28 31  1  0
 31 32  1  0
 31 33  1  0
 31 34  1  0
 34 35  1  0
 35 36  1  0
 35 37  1  0
 35 38  1  0
 38 39  1  0
 38 40  1  0
 38 41  1  0
 41 42  1  0
 41 43  1  0
 41 44  1  0
 44 45  1  0
 44 46  1  0
 44 47  1  0
 47 48  1  0
 47 49  1  0
 47 34  1  0
M  END
>  <UniqueID>  (20) 
20

>  <SMILES>  (20) 
[H]/N=C(/NCCCN1CCCCC1)SCCN(C)CC

>  <Energy>  (20) 
46.45508360636623

>  <Genealogy>  (20) 
[H]/N=C(/NCCCN1CCCCC1)SCCN(C)CC (cis-trans isomerization)
[H]/N=C(/NCCCN1CCCCC1)SCCN(C)CC (3D coordinates assigned)
[H]/N=C(/NCCCN1CCCCC1)SCCN(C)CC (nonaromatic ring conformer: 46.45508360636623 kcal/mol)

>  <smiles>  (20) 
CCN(C)CCSC(=N)NCCCN1CCCCC1

>  <score_type>  (20) 
oracle

>  <origin>  (20) 
adg

>  <m_score__min__energy>  (20) 
-6.6500000000000004

>  <m_primary>  (20) 
energy

$$$$
20:0
     RDKit          3D

 52 54  0  0  0  0  0  0  0  0999 V2000
   -3.1960   21.6420  -29.5350 C   0  0  0  0  0  0  0  0  0  0  0  0
   -2.6360   23.0260  -29.8530 C   0  0  0  0  0  0  0  0  0  0  0  0
   -3.6580   24.1340  -29.5730 C   0  0  0  0  0  0  0  0  0  0  0  0
   -3.9100   24.9190  -30.7900 N   0  0  0  0  0  0  0  0  0  0  0  0
   -5.1740   25.6640  -30.6970 C   0  0  0  0  0  0  0  0  0  0  0  0
   -6.2220   24.8400  -29.9350 C   0  0  0  0  0  0  0  0  0  0  0  0
   -7.2380   24.1640  -30.8780 C   0  0  0  0  0  0  0  0  0  0  0  0
   -6.6090   23.6350  -32.1740 C   0  0  0  0  0  0  0  0  0  0  0  0
   -5.5070   22.7150  -31.9000 N   0  0  0  0  0  0  0  0  0  0  0  0
   -5.5170   21.3750  -32.4170 C   0  0  0  0  0  0  0  0  0  0  0  0
   -4.3510   20.8290  -32.9770 C   0  0  0  0  0  0  0  0  0  0  0  0
   -3.1380   21.5510  -32.9640 C   0  0  0  0  0  0  0  0  0  0  0  0
   -1.9710   20.9910  -33.4760 C   0  0  0  0  0  0  0  0  0  0  0  0
   -1.9890   19.7030  -34.0000 C   0  0  0  0  0  0  0  0  0  0  0  0
   -3.1800   18.9730  -34.0320 C   0  0  0  0  0  0  0  0  0  0  0  0
   -4.3930   19.5300  -33.5510 C   0  0  0  0  0  0  0  0  0  0  0  0
   -5.5890   18.8360  -33.6120 N   0  0  0  0  0  0  0  0  0  0  0  0
   -5.7020   17.6250  -34.4550 C   0  0  0  0  0  0  0  0  0  0  0  0
   -6.6860   19.2870  -32.9000 C   0  0  0  0  0  0  0  0  0  0  0  0
   -7.8380   18.4800  -32.7090 C   0  0  0  0  0  0  0  0  0  0  0  0
   -8.9510   18.9640  -32.0230 C   0  0  0  0  0  0  0  0  0  0  0  0
   -8.9440   20.2530  -31.4980 C   0  0  0  0  0  0  0  0  0  0  0  0
   -7.8140   21.0580  -31.6350 C   0  0  0  0  0  0  0  0  0  0  0  0
   -6.6740   20.5840  -32.3170 C   0  0  0  0  0  0  0  0  0  0  0  0
   -3.2495   21.5098  -28.4443 H   0  0  0  0  0  0  0  0  0  0  0  0
   -4.2036   21.5463  -29.9658 H   0  0  0  0  0  0  0  0  0  0  0  0
   -2.5385   20.8725  -29.9658 H   0  0  0  0  0  0  0  0  0  0  0  0
   -1.7441   23.1999  -29.2331 H   0  0  0  0  0  0  0  0  0  0  0  0
   -2.3862   23.0551  -30.9239 H   0  0  0  0  0  0  0  0  0  0  0  0
   -4.6005   23.6801  -29.2330 H   0  0  0  0  0  0  0  0  0  0  0  0
   -3.2570   24.8007  -28.7953 H   0  0  0  0  0  0  0  0  0  0  0  0
   -3.9920   24.2460  -31.5870 H   0  0  0  0  0  0  0  0  0  0  0  0
   -4.9992   26.6106  -30.1647 H   0  0  0  0  0  0  0  0  0  0  0  0
   -5.5462   25.8664  -31.7121 H   0  0  0  0  0  0  0  0  0  0  0  0
   -5.7054   24.0608  -29.3554 H   0  0  0  0  0  0  0  0  0  0  0  0
   -6.7779   25.5275  -29.2806 H   0  0  0  0  0  0  0  0  0  0  0  0
   -7.7002   23.3200  -30.3451 H   0  0  0  0  0  0  0  0  0  0  0  0
   -7.9747   24.9293  -31.1637 H   0  0  0  0  0  0  0  0  0  0  0  0
   -7.3792   23.1066  -32.7550 H   0  0  0  0  0  0  0  0  0  0  0  0
   -6.2105   24.4913  -32.7379 H   0  0  0  0  0  0  0  0  0  0  0  0
   -4.8260   22.9440  -31.1370 H   0  0  0  0  0  0  0  0  0  0  0  0
   -3.1148   22.5676  -32.5445 H   0  0  0  0  0  0  0  0  0  0  0  0
   -1.0342   21.5675  -33.4661 H   0  0  0  0  0  0  0  0  0  0  0  0
   -1.0623   19.2573  -34.3907 H   0  0  0  0  0  0  0  0  0  0  0  0
   -3.1771   17.9501  -34.4366 H   0  0  0  0  0  0  0  0  0  0  0  0
   -5.7849   16.7367  -33.8115 H   0  0  0  0  0  0  0  0  0  0  0  0
   -6.5968   17.7025  -35.0901 H   0  0  0  0  0  0  0  0  0  0  0  0
   -4.8083   17.5356  -35.0901 H   0  0  0  0  0  0  0  0  0  0  0  0
   -7.8528   17.4554  -33.1090 H   0  0  0  0  0  0  0  0  0  0  0  0
   -9.8375   18.3252  -31.8963 H   0  0  0  0  0  0  0  0  0  0  0  0
   -9.8316   20.6373  -30.9741 H   0  0  0  0  0  0  0  0  0  0  0  0
   -7.8115   22.0715  -31.2075 H   0  0  0  0  0  0  0  0  0  0  0  0
  1  2  1  0
  2  3  1  0
  3  4  1  0
  4  5  1  0
  5  6  1  0
  6  7  1  0
  7  8  1  0
  8  9  1  0
  9 10  1  0
 10 11  2  0
 11 12  1  0
 12 13  2  0
 13 14  1  0
 14 15  2  0
 15 16  1  0
 16 17  2  0
 17 18  1  0
 17 19  1  0
 19 20  2  0
 20 21  1  0
 21 22  2  0
 22 23  1  0
 23 24  2  0
 24 10  1  0
 16 11  1  0
 24 19  1  0
  1 25  1  0
  1 26  1  0
  1 27  1  0
  2 28  1  0
  2 29  1  0
  3 30  1  0
  3 31  1  0
  4 32  1  0
  5 33  1  0
  5 34  1  0
  6 35  1  0
  6 36  1  0
  7 37  1  0
  7 38  1  0
  8 39  1  0
  8 40  1  0
  9 41  1  0
 12 42  1  0
 13 43  1  0
 14 44  1  0
 15 45  1  0
 18 46  1  0
 18 47  1  0
 18 48  1  0
 20 49  1  0
 21 50  1  0
 22 51  1  0
 23 52  1  0
M  CHG  1  17   1
M  END
>  <UniqueID>  (21) 
21

>  <SMILES>  (21) 
CCCNCCCCNc1c2ccccc2[n+](C)c2ccccc12

>  <Energy>  (21) 
71.79314341629379

>  <Genealogy>  (21) 
CCCNCCCCNc1c2ccccc2[n+](C)c2ccccc12 (3D coordinates assigned)
CCCNCCCCNc1c2ccccc2[n+](C)c2ccccc12 (optimized conformer: 71.79314341629379 kcal/mol)

>  <smiles>  (21) 
CCCNCCCCNc1c2ccccc2[n+](C)c2ccccc12

>  <score_type>  (21) 
oracle

>  <origin>  (21) 
adg

>  <m_score__min__energy>  (21) 
-9.1999999999999993

>  <m_primary>  (21) 
energy

$$$$
21:0
     RDKit          3D

 38 39  0  0  0  0  0  0  0  0999 V2000
   -1.9010   24.9440  -28.6090 C   0  0  0  0  0  0  0  0  0  0  0  0
   -2.7520   24.1260  -29.5770 C   0  0  0  0  0  0  0  0  0  0  0  0
   -3.4800   24.9870  -30.5120 N   0  0  0  0  0  0  0  0  0  0  0  0
   -5.1840   25.0520  -30.1560 S   0  0  0  0  0  0  0  0  0  0  0  0
   -5.7370   26.3880  -30.5680 O   0  0  0  0  0  0  0  0  0  0  0  0
   -5.3740   24.9070  -28.6720 O   0  0  0  0  0  0  0  0  0  0  0  0
   -6.0670   23.7570  -30.9650 C   0  0  0  0  0  0  0  0  0  0  0  0
   -7.4610   23.7190  -30.8950 C   0  0  0  0  0  0  0  0  0  0  0  0
   -8.1670   22.6870  -31.5110 C   0  0  0  0  0  0  0  0  0  0  0  0
   -7.4890   21.6650  -32.2050 C   0  0  0  0  0  0  0  0  0  0  0  0
   -8.1820   20.6340  -32.8640 O   0  0  0  0  0  0  0  0  0  0  0  0
   -9.1370   19.7520  -32.2700 C   0  0  0  0  0  0  0  0  0  0  0  0
   -8.4430   18.5500  -31.6400 C   0  0  0  0  0  0  0  0  0  0  0  0
   -6.0750   21.6920  -32.2660 C   0  0  0  0  0  0  0  0  0  0  0  0
   -5.3070   20.6260  -32.9570 C   0  0  0  0  0  0  0  0  0  0  0  0
   -5.8130   19.5050  -33.6130 C   0  0  0  0  0  0  0  0  0  0  0  0
   -4.8130   18.7060  -34.2120 C   0  0  0  0  0  0  0  0  0  0  0  0
   -5.1320   17.4360  -34.9300 C   0  0  0  0  0  0  0  0  0  0  0  0
   -3.5320   19.1300  -34.0600 N   0  0  0  0  0  0  0  0  0  0  0  0
   -3.6540   20.5320  -33.1800 S   0  0  0  0  0  0  0  0  0  0  0  0
   -5.3790   22.7450  -31.6450 C   0  0  0  0  0  0  0  0  0  0  0  0
   -2.1707   24.6847  -27.5746 H   0  0  0  0  0  0  0  0  0  0  0  0
   -0.8371   24.7208  -28.7775 H   0  0  0  0  0  0  0  0  0  0  0  0
   -2.0819   26.0159  -28.7775 H   0  0  0  0  0  0  0  0  0  0  0  0
   -2.0960   23.4526  -30.1481 H   0  0  0  0  0  0  0  0  0  0  0  0
   -3.4867   23.5539  -28.9915 H   0  0  0  0  0  0  0  0  0  0  0  0
   -8.0041   24.5064  -30.3517 H   0  0  0  0  0  0  0  0  0  0  0  0
   -9.2654   22.6702  -31.4548 H   0  0  0  0  0  0  0  0  0  0  0  0
   -9.6950   20.2948  -31.4928 H   0  0  0  0  0  0  0  0  0  0  0  0
   -9.8219   19.3941  -33.0528 H   0  0  0  0  0  0  0  0  0  0  0  0
   -8.4904   18.6321  -30.5441 H   0  0  0  0  0  0  0  0  0  0  0  0
   -8.9467   17.6262  -31.9606 H   0  0  0  0  0  0  0  0  0  0  0  0
   -7.3911   18.5243  -31.9606 H   0  0  0  0  0  0  0  0  0  0  0  0
   -6.8856   19.2657  -33.6598 H   0  0  0  0  0  0  0  0  0  0  0  0
   -5.3318   16.6406  -34.1969 H   0  0  0  0  0  0  0  0  0  0  0  0
   -6.0207   17.5848  -35.5610 H   0  0  0  0  0  0  0  0  0  0  0  0
   -4.2785   17.1472  -35.5610 H   0  0  0  0  0  0  0  0  0  0  0  0
   -4.2805   22.7736  -31.6943 H   0  0  0  0  0  0  0  0  0  0  0  0
  1  2  1  0
  2  3  1  0
  3  4  1  0
  4  5  2  0
  4  6  2  0
  4  7  1  0
  7  8  2  0
  8  9  1  0
  9 10  2  0
 10 11  1  0
 11 12  1  0
 12 13  1  0
 10 14  1  0
 14 15  1  0
 15 16  2  0
 16 17  1  0
 17 18  1  0
 17 19  2  0
 19 20  1  0
 14 21  2  0
 21  7  1  0
 20 15  1  0
  1 22  1  0
  1 23  1  0
  1 24  1  0
  2 25  1  0
  2 26  1  0
  8 27  1  0
  9 28  1  0
 12 29  1  0
 12 30  1  0
 13 31  1  0
 13 32  1  0
 13 33  1  0
 16 34  1  0
 18 35  1  0
 18 36  1  0
 18 37  1  0
 21 38  1  0
M  CHG  1   3  -1
M  END
>  <UniqueID>  (22) 
22

>  <SMILES>  (22) 
CC[N-]S(=O)(=O)c1ccc(OCC)c(-c2cc(C)ns2)c1

>  <Energy>  (22) 
67.51141466657965

>  <Genealogy>  (22) 
CC[N-]S(=O)(=O)c1ccc(OCC)c(-c2cc(C)ns2)c1 (protonated)
CC[N-]S(=O)(=O)c1ccc(OCC)c(-c2cc(C)ns2)c1 (3D coordinates assigned)
CC[N-]S(=O)(=O)c1ccc(OCC)c(-c2cc(C)ns2)c1 (optimized conformer: 67.51141466657965 kcal/mol)

>  <smiles>  (22) 
CCNS(=O)(=O)c1ccc(OCC)c(-c2cc(C)ns2)c1

>  <score_type>  (22) 
oracle

>  <origin>  (22) 
adg

>  <m_score__min__energy>  (22) 
-9.3100000000000005

>  <m_primary>  (22) 
energy

$$$$
