0:0
     RDKit          3D

 43 45  0  0  0  0  0  0  0  0999 V2000
   -3.0990   19.2980  -26.7470 C   0  0  0  0  0  0  0  0  0  0  0  0
   -2.1930   20.0540  -27.7120 C   0  0  0  0  0  0  0  0  0  0  0  0
   -2.9100   21.1830  -28.2980 N   0  0  0  0  0  0  0  0  0  0  0  0
   -3.5240   22.1840  -27.6370 C   0  0  0  0  0  0  0  0  0  0  0  0
   -4.1830   23.0240  -28.4650 N   0  0  0  0  0  0  0  0  0  0  0  0
   -3.9600   22.5050  -29.6900 C   0  0  0  0  0  0  0  0  0  0  0  0
   -4.6440   23.1450  -31.1710 S   0  0  0  0  0  0  0  0  0  0  0  0
   -3.8230   22.6600  -32.3330 O   0  0  0  0  0  0  0  0  0  0  0  0
   -4.6050   24.6480  -31.1340 O   0  0  0  0  0  0  0  0  0  0  0  0
   -6.2920   22.5920  -31.3260 N   0  0  0  0  0  0  0  0  0  0  0  0
   -7.0090   23.3860  -32.3450 C   0  0  0  0  0  0  0  0  0  0  0  0
   -8.5470   23.3710  -32.1700 C   0  0  0  0  0  0  0  0  0  0  0  0
   -9.0490   22.2280  -31.3790 N   0  0  0  0  0  0  0  0  0  0  0  0
   -9.4520   21.0410  -32.1610 C   0  0  0  0  0  0  0  0  0  0  0  0
   -8.3600   20.0170  -32.2860 C   0  0  0  0  0  0  0  0  0  0  0  0
   -8.5210   18.6470  -32.2150 C   0  0  0  0  0  0  0  0  0  0  0  0
   -7.2570   18.1180  -32.3590 C   0  0  0  0  0  0  0  0  0  0  0  0
   -6.4060   19.1940  -32.5150 C   0  0  0  0  0  0  0  0  0  0  0  0
   -7.0940   20.3120  -32.4690 O   0  0  0  0  0  0  0  0  0  0  0  0
   -8.3340   21.9430  -30.1130 C   0  0  0  0  0  0  0  0  0  0  0  0
   -6.9710   22.6460  -30.0250 C   0  0  0  0  0  0  0  0  0  0  0  0
   -3.1890   21.3700  -29.5970 C   0  0  0  0  0  0  0  0  0  0  0  0
   -2.8128   19.5368  -25.7121 H   0  0  0  0  0  0  0  0  0  0  0  0
   -4.1444   19.5954  -26.9163 H   0  0  0  0  0  0  0  0  0  0  0  0
   -2.9936   18.2162  -26.9163 H   0  0  0  0  0  0  0  0  0  0  0  0
   -1.3124   20.4259  -27.1677 H   0  0  0  0  0  0  0  0  0  0  0  0
   -1.8777   19.3729  -28.5162 H   0  0  0  0  0  0  0  0  0  0  0  0
   -3.4922   22.3040  -26.5440 H   0  0  0  0  0  0  0  0  0  0  0  0
   -6.2370   21.5960  -31.6390 H   0  0  0  0  0  0  0  0  0  0  0  0
   -6.6616   24.4278  -32.2824 H   0  0  0  0  0  0  0  0  0  0  0  0
   -6.7902   22.9312  -33.3224 H   0  0  0  0  0  0  0  0  0  0  0  0
   -8.8470   24.3006  -31.6641 H   0  0  0  0  0  0  0  0  0  0  0  0
   -8.9818   23.2782  -33.1762 H   0  0  0  0  0  0  0  0  0  0  0  0
  -10.3156   20.5728  -31.6660 H   0  0  0  0  0  0  0  0  0  0  0  0
   -9.6953   21.3856  -33.1769 H   0  0  0  0  0  0  0  0  0  0  0  0
   -9.4613   18.0941  -32.0732 H   0  0  0  0  0  0  0  0  0  0  0  0
   -6.9814   17.0531  -32.3512 H   0  0  0  0  0  0  0  0  0  0  0  0
   -5.3173   19.1254  -32.6563 H   0  0  0  0  0  0  0  0  0  0  0  0
   -8.9585   22.2818  -29.2732 H   0  0  0  0  0  0  0  0  0  0  0  0
   -8.1495   20.8592  -30.0748 H   0  0  0  0  0  0  0  0  0  0  0  0
   -7.1212   23.6967  -29.7360 H   0  0  0  0  0  0  0  0  0  0  0  0
   -6.3505   22.1368  -29.2729 H   0  0  0  0  0  0  0  0  0  0  0  0
   -2.8618   20.7336  -30.4325 H   0  0  0  0  0  0  0  0  0  0  0  0
  1  2  1  0
  2  3  1  0
  3  4  1  0
  4  5  2  0
  5  6  1  0
  6  7  1  0
  7  8  2  0
  7  9  2  0
  7 10  1  0
 10 11  1  0
 11 12  1  0
 12 13  1  0
 13 14  1  0
 14 15  1  0
 15 16  2  0
 16 17  1  0
 17 18  2  0
 18 19  1  0
 13 20  1  0
 20 21  1  0
  6 22  2  0
 22  3  1  0
 21 10  1  0
 19 15  1  0
  1 23  1  0
  1 24  1  0
  1 25  1  0
  2 26  1  0
  2 27  1  0
  4 28  1  0
 10 29  1  0
 11 30  1  0
 11 31  1  0
 12 32  1  0
 12 33  1  0
 14 34  1  0
 14 35  1  0
 16 36  1  0
 17 37  1  0
 18 38  1  0
 20 39  1  0
 20 40  1  0
 21 41  1  0
 21 42  1  0
 22 43  1  0
M  CHG  1  10   1
M  END
>  <UniqueID>  (1) 
1

>  <SMILES>  (1) 
CCn1cnc(S(=O)(=O)[NH+]2CCN(Cc3ccco3)CC2)c1

>  <Energy>  (1) 
106.34456699375485

>  <Genealogy>  (1) 
CCn1cnc(S(=O)(=O)[NH+]2CCN(Cc3ccco3)CC2)c1 (protonated)
CCn1cnc(S(=O)(=O)[NH+]2CCN(Cc3ccco3)CC2)c1 (3D coordinates assigned)
CCn1cnc(S(=O)(=O)[NH+]2CCN(Cc3ccco3)CC2)c1 (nonaromatic ring conformer: 106.34456699375485 kcal/mol)

>  <smiles>  (1) 
CCn1cnc(S(=O)(=O)N2CCN(Cc3ccco3)CC2)c1

>  <score_type>  (1) 
oracle

>  <origin>  (1) 
adg

>  <m_score__min__energy>  (1) 
-6.3700000000000001

>  <m_primary>  (1) 
energy

$$$$
1:0
     RDKit          3D

 58 61  0  0  0  0  0  0  0  0999 V2000
   -1.0780   22.2670  -30.4350 C   0  0  0  0  0  0  0  0  0  0  0  0
   -2.3960   22.1470  -29.6570 C   0  0  0  0  0  0  0  0  0  0  0  0
   -3.3570   23.2450  -29.9310 N   0  0  0  0  0  0  0  0  0  0  0  0
   -3.2220   24.3360  -28.9360 C   0  0  0  0  0  0  0  0  0  0  0  0
   -4.2020   24.1750  -27.7780 C   0  0  0  0  0  0  0  0  0  0  0  0
   -4.7470   22.7410  -30.0780 C   0  0  0  0  0  0  0  0  0  0  0  0
   -5.5440   23.5400  -31.1280 C   0  0  0  0  0  0  0  0  0  0  0  0
   -5.6050   22.9110  -32.4540 N   0  0  0  0  0  0  0  0  0  0  0  0
   -5.5980   21.4920  -32.6950 C   0  0  0  0  0  0  0  0  0  0  0  0
   -6.7720   20.7470  -32.4900 C   0  0  0  0  0  0  0  0  0  0  0  0
   -7.9380   21.3510  -31.9760 C   0  0  0  0  0  0  0  0  0  0  0  0
   -9.1130   20.6160  -31.8290 C   0  0  0  0  0  0  0  0  0  0  0  0
   -9.1450   19.2730  -32.1900 C   0  0  0  0  0  0  0  0  0  0  0  0
   -8.0060   18.6590  -32.7100 C   0  0  0  0  0  0  0  0  0  0  0  0
   -6.8010   19.3840  -32.8770 C   0  0  0  0  0  0  0  0  0  0  0  0
   -5.6830   18.8030  -33.4340 N   0  0  0  0  0  0  0  0  0  0  0  0
   -5.8530   17.6350  -34.3220 C   0  0  0  0  0  0  0  0  0  0  0  0
   -4.4540   19.4340  -33.3410 C   0  0  0  0  0  0  0  0  0  0  0  0
   -4.4210   20.8270  -33.0860 C   0  0  0  0  0  0  0  0  0  0  0  0
   -3.2070   21.5130  -33.2150 C   0  0  0  0  0  0  0  0  0  0  0  0
   -2.0600   20.8400  -33.6240 C   0  0  0  0  0  0  0  0  0  0  0  0
   -0.8690   21.5490  -33.8540 C   0  0  0  0  0  0  0  0  0  0  0  0
    0.2850   20.8730  -34.2500 C   0  0  0  0  0  0  0  0  0  0  0  0
    0.2600   19.4900  -34.4170 C   0  0  0  0  0  0  0  0  0  0  0  0
   -0.9140   18.7730  -34.1790 C   0  0  0  0  0  0  0  0  0  0  0  0
   -2.0970   19.4350  -33.7690 C   0  0  0  0  0  0  0  0  0  0  0  0
   -3.2600   18.7470  -33.4920 N   0  0  0  0  0  0  0  0  0  0  0  0
   -3.1740   17.3140  -33.1410 C   0  0  0  0  0  0  0  0  0  0  0  0
   -0.2398   22.3433  -29.7268 H   0  0  0  0  0  0  0  0  0  0  0  0
   -0.9435   21.3774  -31.0678 H   0  0  0  0  0  0  0  0  0  0  0  0
   -1.1063   23.1663  -31.0678 H   0  0  0  0  0  0  0  0  0  0  0  0
   -2.8728   21.1935  -29.9279 H   0  0  0  0  0  0  0  0  0  0  0  0
   -2.1427   22.2030  -28.5880 H   0  0  0  0  0  0  0  0  0  0  0  0
   -2.1967   24.3290  -28.5376 H   0  0  0  0  0  0  0  0  0  0  0  0
   -3.4449   25.2873  -29.4412 H   0  0  0  0  0  0  0  0  0  0  0  0
   -3.6607   24.2639  -26.8245 H   0  0  0  0  0  0  0  0  0  0  0  0
   -4.9716   24.9588  -27.8372 H   0  0  0  0  0  0  0  0  0  0  0  0
   -4.6804   23.1862  -27.8372 H   0  0  0  0  0  0  0  0  0  0  0  0
   -4.7112   21.6859  -30.3870 H   0  0  0  0  0  0  0  0  0  0  0  0
   -5.2537   22.8552  -29.1083 H   0  0  0  0  0  0  0  0  0  0  0  0
   -6.5727   23.6628  -30.7582 H   0  0  0  0  0  0  0  0  0  0  0  0
   -5.0173   24.4967  -31.2593 H   0  0  0  0  0  0  0  0  0  0  0  0
   -5.6740   23.5400  -33.2850 H   0  0  0  0  0  0  0  0  0  0  0  0
   -7.9200   22.4126  -31.6883 H   0  0  0  0  0  0  0  0  0  0  0  0
  -10.0161   21.0985  -31.4270 H   0  0  0  0  0  0  0  0  0  0  0  0
  -10.0716   18.6935  -32.0649 H   0  0  0  0  0  0  0  0  0  0  0  0
   -8.0441   17.5971  -32.9943 H   0  0  0  0  0  0  0  0  0  0  0  0
   -5.9850   16.7281  -33.7137 H   0  0  0  0  0  0  0  0  0  0  0  0
   -6.7391   17.7829  -34.9568 H   0  0  0  0  0  0  0  0  0  0  0  0
   -4.9615   17.5242  -34.9568 H   0  0  0  0  0  0  0  0  0  0  0  0
   -3.1600   22.5891  -32.9919 H   0  0  0  0  0  0  0  0  0  0  0  0
   -0.8466   22.6407  -33.7213 H   0  0  0  0  0  0  0  0  0  0  0  0
    1.2151   21.4319  -34.4305 H   0  0  0  0  0  0  0  0  0  0  0  0
    1.1693   18.9607  -34.7378 H   0  0  0  0  0  0  0  0  0  0  0  0
   -0.9203   17.6810  -34.3115 H   0  0  0  0  0  0  0  0  0  0  0  0
   -3.1674   17.2043  -32.0465 H   0  0  0  0  0  0  0  0  0  0  0  0
   -4.0418   16.7817  -33.5576 H   0  0  0  0  0  0  0  0  0  0  0  0
   -2.2488   16.8893  -33.5576 H   0  0  0  0  0  0  0  0  0  0  0  0
  1  2  1  0
  2  3  1  0
  3  4  1  0
  4  5  1  0
  3  6  1  0
  6  7  1  0
  7  8  1  0
  8  9  1  0
  9 10  2  0
 10 11  1  0
 11 12  2  0
 12 13  1  0
 13 14  2  0
 14 15  1  0
 15 16  2  0
 16 17  1  0
 16 18  1  0
 18 19  2  0
 19 20  1  0
 20 21  2  0
 21 22  1  0
 22 23  2  0
 23 24  1  0
 24 25  2  0
 25 26  1  0
 26 27  2  0
 27 28  1  0
 19  9  1  0
 26 21  1  0
 15 10  1  0
 27 18  1  0
  1 29  1  0
  1 30  1  0
  1 31  1  0
  2 32  1  0
  2 33  1  0
  4 34  1  0
  4 35  1  0
  5 36  1  0
  5 37  1  0
  5 38  1  0
  6 39  1  0
  6 40  1  0
  7 41  1  0
  7 42  1  0
  8 43  1  0
 11 44  1  0
 12 45  1  0
 13 46  1  0
 14 47  1  0
 17 48  1  0
 17 49  1  0
 17 50  1  0
 20 51  1  0
 22 52  1  0
 23 53  1  0
 24 54  1  0
 25 55  1  0
 28 56  1  0
 28 57  1  0
 28 58  1  0
M  CHG  2  16   1  27   1
M  END
>  <UniqueID>  (2) 
2

>  <SMILES>  (2) 
CCN(CC)CCNc1c2ccccc2[n+](C)c2c1cc1ccccc1[n+]2C

>  <Energy>  (2) 
107.60924675154806

>  <Genealogy>  (2) 
CCN(CC)CCNc1c2ccccc2[n+](C)c2c1cc1ccccc1[n+]2C (3D coordinates assigned)
CCN(CC)CCNc1c2ccccc2[n+](C)c2c1cc1ccccc1[n+]2C (optimized conformer: 107.60924675154806 kcal/mol)

>  <smiles>  (2) 
CCN(CC)CCNc1c2ccccc2[n+](C)c2c1cc1ccccc1[n+]2C

>  <score_type>  (2) 
oracle

>  <origin>  (2) 
adg

>  <m_score__min__energy>  (2) 
-8.8000000000000007

>  <m_primary>  (2) 
energy

$$$$
2:0
     RDKit          3D

 57 60  0  0  0  0  0  0  0  0999 V2000
    0.1060   26.9980  -23.3410 C   0  0  0  0  0  0  0  0  0  0  0  0
   -0.7700   25.9860  -24.0840 C   0  0  0  0  0  0  0  0  0  0  0  0
   -1.6450   26.6290  -25.0800 N   0  0  0  0  0  0  0  0  0  0  0  0
   -2.1870   25.6650  -26.0090 C   0  0  0  0  0  0  0  0  0  0  0  0
   -3.5480   25.3200  -25.9650 C   0  0  0  0  0  0  0  0  0  0  0  0
   -4.0880   24.4450  -26.9100 C   0  0  0  0  0  0  0  0  0  0  0  0
   -3.2750   23.8890  -27.9110 C   0  0  0  0  0  0  0  0  0  0  0  0
   -1.9040   24.2060  -27.9390 C   0  0  0  0  0  0  0  0  0  0  0  0
   -1.3670   25.0950  -26.9960 C   0  0  0  0  0  0  0  0  0  0  0  0
   -1.0320   23.5990  -29.0000 C   0  0  0  0  0  0  0  0  0  0  0  0
   -1.4510   22.1480  -29.2030 C   0  0  0  0  0  0  0  0  0  0  0  0
   -2.9460   21.9920  -29.6570 C   0  0  2  0  0  0  0  0  0  0  0  0
   -3.1770   21.8420  -31.1290 N   0  0  0  0  0  0  0  0  0  0  0  0
   -4.2140   20.8250  -31.4060 C   0  0  0  0  0  0  0  0  0  0  0  0
   -4.6300   20.8920  -32.8900 C   0  0  0  0  0  0  0  0  0  0  0  0
   -3.7330   21.6620  -33.6730 O   0  0  0  0  0  0  0  0  0  0  0  0
   -2.4030   21.2500  -33.4240 C   0  0  0  0  0  0  0  0  0  0  0  0
   -1.9930   21.5580  -31.9680 C   0  0  0  0  0  0  0  0  0  0  0  0
   -3.9000   23.1040  -29.0520 C   0  0  2  0  0  0  0  0  0  0  0  0
   -4.5470   24.0970  -30.0750 C   0  0  0  0  0  0  0  0  0  0  0  0
   -5.8170   23.6040  -30.7330 C   0  0  0  0  0  0  0  0  0  0  0  0
   -6.0400   23.8040  -32.1060 C   0  0  0  0  0  0  0  0  0  0  0  0
   -7.2310   23.3760  -32.7000 C   0  0  0  0  0  0  0  0  0  0  0  0
   -8.2040   22.7310  -31.9320 C   0  0  0  0  0  0  0  0  0  0  0  0
   -7.9800   22.4960  -30.5730 C   0  0  0  0  0  0  0  0  0  0  0  0
   -8.9180   21.8590  -29.8290 F   0  0  0  0  0  0  0  0  0  0  0  0
   -6.7880   22.9180  -29.9780 C   0  0  0  0  0  0  0  0  0  0  0  0
   -0.0136   26.8598  -22.2563 H   0  0  0  0  0  0  0  0  0  0  0  0
    1.1596   26.8429  -23.6164 H   0  0  0  0  0  0  0  0  0  0  0  0
   -0.1985   28.0185  -23.6164 H   0  0  0  0  0  0  0  0  0  0  0  0
   -0.1183   25.2647  -24.5988 H   0  0  0  0  0  0  0  0  0  0  0  0
   -1.4126   25.4887  -23.3425 H   0  0  0  0  0  0  0  0  0  0  0  0
   -1.1180   27.3780  -25.5860 H   0  0  0  0  0  0  0  0  0  0  0  0
   -2.4370   27.0940  -24.5780 H   0  0  0  0  0  0  0  0  0  0  0  0
   -4.1932   25.7422  -25.1804 H   0  0  0  0  0  0  0  0  0  0  0  0
   -5.1572   24.1896  -26.8700 H   0  0  0  0  0  0  0  0  0  0  0  0
   -0.2968   25.3471  -27.0300 H   0  0  0  0  0  0  0  0  0  0  0  0
   -1.1529   24.1547  -29.9416 H   0  0  0  0  0  0  0  0  0  0  0  0
    0.0228   23.6457  -28.6913 H   0  0  0  0  0  0  0  0  0  0  0  0
   -0.8039   21.7019  -29.9726 H   0  0  0  0  0  0  0  0  0  0  0  0
   -1.3502   21.6405  -28.2323 H   0  0  0  0  0  0  0  0  0  0  0  0
   -3.2184   21.0185  -29.2233 H   0  0  0  0  0  0  0  0  0  0  0  0
   -3.8130   19.8250  -31.1842 H   0  0  0  0  0  0  0  0  0  0  0  0
   -5.0925   21.0212  -30.7738 H   0  0  0  0  0  0  0  0  0  0  0  0
   -4.6615   19.8692  -33.2937 H   0  0  0  0  0  0  0  0  0  0  0  0
   -5.6159   21.3775  -32.9383 H   0  0  0  0  0  0  0  0  0  0  0  0
   -2.3230   20.1670  -33.5990 H   0  0  0  0  0  0  0  0  0  0  0  0
   -1.7327   21.7998  -34.1011 H   0  0  0  0  0  0  0  0  0  0  0  0
   -1.4595   20.6897  -31.5539 H   0  0  0  0  0  0  0  0  0  0  0  0
   -1.3447   22.4466  -31.9687 H   0  0  0  0  0  0  0  0  0  0  0  0
   -4.7232   22.4874  -28.6621 H   0  0  0  0  0  0  0  0  0  0  0  0
   -4.7795   25.0311  -29.5426 H   0  0  0  0  0  0  0  0  0  0  0  0
   -3.8127   24.2248  -30.8840 H   0  0  0  0  0  0  0  0  0  0  0  0
   -5.2723   24.3007  -32.7175 H   0  0  0  0  0  0  0  0  0  0  0  0
   -7.4023   23.5472  -33.7730 H   0  0  0  0  0  0  0  0  0  0  0  0
   -9.1468   22.4081  -32.3976 H   0  0  0  0  0  0  0  0  0  0  0  0
   -6.6069   22.7129  -28.9126 H   0  0  0  0  0  0  0  0  0  0  0  0
  1  2  1  0
  2  3  1  0
  3  4  1  0
  4  5  2  0
  5  6  1  0
  6  7  2  0
  7  8  1  0
  8  9  2  0
  8 10  1  0
 10 11  1  0
 11 12  1  0
 12 13  1  0
 13 14  1  0
 14 15  1  0
 15 16  1  0
 16 17  1  0
 17 18  1  0
 12 19  1  0
 19 20  1  0
 20 21  1  0
 21 22  2  0
 22 23  1  0
 23 24  2  0
 24 25  1  0
 25 26  1  0
 25 27  2  0
  9  4  1  0
 18 13  1  0
 27 21  1  0
 19  7  1  0
  1 28  1  0
  1 29  1  0
  1 30  1  0
  2 31  1  0
  2 32  1  0
  3 33  1  0
  3 34  1  0
  5 35  1  0
  6 36  1  0
  9 37  1  0
 10 38  1  0
 10 39  1  0
 11 40  1  0
 11 41  1  0
 12 42  1  1
 14 43  1  0
 14 44  1  0
 15 45  1  0
 15 46  1  0
 17 47  1  0
 17 48  1  0
 18 49  1  0
 18 50  1  0
 19 51  1  1
 20 52  1  0
 20 53  1  0
 22 54  1  0
 23 55  1  0
 24 56  1  0
 27 57  1  0
M  CHG  1   3   1
M  END
>  <UniqueID>  (3) 
3

>  <SMILES>  (3) 
CC[NH2+]c1ccc2c(c1)CC[C@H](N1CCOCC1)[C@@H]2Cc1cccc(F)c1

>  <Energy>  (3) 
84.90771733002984

>  <Genealogy>  (3) 
CC[NH2+]c1ccc2c(c1)CCC(N1CCOCC1)C2Cc1cccc(F)c1 (protonated)
CC[NH2+]c1ccc2c(c1)CC[C@H](N1CCOCC1)[C@@H]2Cc1cccc(F)c1 (chirality)
CC[NH2+]c1ccc2c(c1)CC[C@H](N1CCOCC1)[C@@H]2Cc1cccc(F)c1 (3D coordinates assigned)
CC[NH2+]c1ccc2c(c1)CC[C@H](N1CCOCC1)[C@@H]2Cc1cccc(F)c1 (nonaromatic ring conformer: 84.90771733002984 kcal/mol)

>  <smiles>  (3) 
CCNc1ccc2c(c1)CCC(N1CCOCC1)C2Cc1cccc(F)c1

>  <score_type>  (3) 
oracle

>  <origin>  (3) 
adg

>  <m_score__min__energy>  (3) 
-8.4299999999999997

>  <m_primary>  (3) 
energy

$$$$
3:0
     RDKit          3D

 54 59  0  0  0  0  0  0  0  0999 V2000
   -2.0730   24.8830  -28.1650 C   0  0  0  0  0  0  0  0  0  0  0  0
   -2.7710   25.2980  -29.3340 O   0  0  0  0  0  0  0  0  0  0  0  0
   -3.6960   24.5040  -30.0310 C   0  0  0  0  0  0  0  0  0  0  0  0
   -5.0640   24.8160  -30.0820 C   0  0  0  0  0  0  0  0  0  0  0  0
   -5.9490   23.9990  -30.7870 C   0  0  0  0  0  0  0  0  0  0  0  0
   -5.4850   22.8500  -31.4560 C   0  0  0  0  0  0  0  0  0  0  0  0
   -6.3770   22.0130  -32.1720 C   0  0  0  0  0  0  0  0  0  0  0  0
   -7.6040   22.3150  -32.2060 O   0  0  0  0  0  0  0  0  0  0  0  0
   -5.9240   20.8880  -32.8330 N   0  0  0  0  0  0  0  0  0  0  0  0
   -6.8900   20.0470  -33.5640 C   0  0  0  0  0  0  0  0  0  0  0  0
   -7.3650   18.8660  -32.7060 C   0  0  0  0  0  0  0  0  0  0  0  0
   -6.4460   17.7180  -32.8760 N   0  0  0  0  0  0  0  0  0  0  0  0
   -6.9640   16.7350  -33.8480 C   0  0  0  0  0  0  0  0  0  0  0  0
   -6.1100   15.4500  -33.8380 C   0  0  0  0  0  0  0  0  0  0  0  0
   -4.8760   15.6710  -33.1850 O   0  0  0  0  0  0  0  0  0  0  0  0
   -5.0950   15.9480  -31.8120 C   0  0  0  0  0  0  0  0  0  0  0  0
   -6.1530   17.0490  -31.5950 C   0  0  0  0  0  0  0  0  0  0  0  0
   -4.5770   20.5990  -32.8120 C   0  0  0  0  0  0  0  0  0  0  0  0
   -3.6790   21.3920  -32.0990 C   0  0  0  0  0  0  0  0  0  0  0  0
   -4.1080   22.5340  -31.4110 C   0  0  0  0  0  0  0  0  0  0  0  0
   -3.2270   23.3670  -30.6950 C   0  0  0  0  0  0  0  0  0  0  0  0
   -2.3390   20.8150  -32.2380 C   0  0  0  0  0  0  0  0  0  0  0  0
   -1.2660   21.2400  -31.7340 O   0  0  0  0  0  0  0  0  0  0  0  0
   -2.4650   19.6440  -33.0790 C   0  0  0  0  0  0  0  0  0  0  0  0
   -1.4520   18.7760  -33.5160 C   0  0  0  0  0  0  0  0  0  0  0  0
   -1.8540   17.7390  -34.3570 C   0  0  0  0  0  0  0  0  0  0  0  0
   -3.1520   17.5770  -34.7430 C   0  0  0  0  0  0  0  0  0  0  0  0
   -4.1750   18.4330  -34.3210 C   0  0  0  0  0  0  0  0  0  0  0  0
   -3.8070   19.4890  -33.4520 C   0  0  0  0  0  0  0  0  0  0  0  0
   -3.2450   16.4820  -35.5800 O   0  0  0  0  0  0  0  0  0  0  0  0
   -1.9340   15.9200  -35.7280 C   0  0  0  0  0  0  0  0  0  0  0  0
   -1.0780   16.7520  -34.9320 O   0  0  0  0  0  0  0  0  0  0  0  0
   -2.6253   25.2114  -27.2722 H   0  0  0  0  0  0  0  0  0  0  0  0
   -1.9861   23.7864  -28.1597 H   0  0  0  0  0  0  0  0  0  0  0  0
   -1.0681   25.3304  -28.1597 H   0  0  0  0  0  0  0  0  0  0  0  0
   -5.4405   25.7099  -29.5631 H   0  0  0  0  0  0  0  0  0  0  0  0
   -7.0183   24.2548  -30.8204 H   0  0  0  0  0  0  0  0  0  0  0  0
   -7.7599   20.6601  -33.8422 H   0  0  0  0  0  0  0  0  0  0  0  0
   -6.3926   19.6466  -34.4597 H   0  0  0  0  0  0  0  0  0  0  0  0
   -7.3809   19.1669  -31.6481 H   0  0  0  0  0  0  0  0  0  0  0  0
   -8.3759   18.5709  -33.0239 H   0  0  0  0  0  0  0  0  0  0  0  0
   -8.0013   16.4804  -33.5850 H   0  0  0  0  0  0  0  0  0  0  0  0
   -6.9210   17.1783  -34.8538 H   0  0  0  0  0  0  0  0  0  0  0  0
   -6.6595   14.6562  -33.3109 H   0  0  0  0  0  0  0  0  0  0  0  0
   -5.9097   15.1524  -34.8779 H   0  0  0  0  0  0  0  0  0  0  0  0
   -5.4366   15.0274  -31.3162 H   0  0  0  0  0  0  0  0  0  0  0  0
   -4.1460   16.3069  -31.3871 H   0  0  0  0  0  0  0  0  0  0  0  0
   -7.0747   16.5972  -31.1995 H   0  0  0  0  0  0  0  0  0  0  0  0
   -5.7665   17.7887  -30.8785 H   0  0  0  0  0  0  0  0  0  0  0  0
   -2.1558   23.1197  -30.6577 H   0  0  0  0  0  0  0  0  0  0  0  0
   -0.4027   18.9063  -33.2128 H   0  0  0  0  0  0  0  0  0  0  0  0
   -5.2157   18.2925  -34.6486 H   0  0  0  0  0  0  0  0  0  0  0  0
   -1.9147   14.8832  -35.3610 H   0  0  0  0  0  0  0  0  0  0  0  0
   -1.6156   15.8890  -36.7804 H   0  0  0  0  0  0  0  0  0  0  0  0
  1  2  1  0
  2  3  1  0
  3  4  2  0
  4  5  1  0
  5  6  2  0
  6  7  1  0
  7  8  2  0
  7  9  1  0
  9 10  1  0
 10 11  1  0
 11 12  1  0
 12 13  1  0
 13 14  1  0
 14 15  1  0
 15 16  1  0
 16 17  1  0
  9 18  1  0
 18 19  2  0
 19 20  1  0
 20 21  2  0
 19 22  1  0
 22 23  2  0
 22 24  1  0
 24 25  2  0
 25 26  1  0
 26 27  2  0
 27 28  1  0
 28 29  2  0
 27 30  1  0
 30 31  1  0
 31 32  1  0
 21  3  1  0
 29 24  1  0
 20  6  1  0
 32 26  1  0
 17 12  1  0
 29 18  1  0
  1 33  1  0
  1 34  1  0
  1 35  1  0
  4 36  1  0
  5 37  1  0
 10 38  1  0
 10 39  1  0
 11 40  1  0
 11 41  1  0
 13 42  1  0
 13 43  1  0
 14 44  1  0
 14 45  1  0
 16 46  1  0
 16 47  1  0
 17 48  1  0
 17 49  1  0
 21 50  1  0
 25 51  1  0
 28 52  1  0
 31 53  1  0
 31 54  1  0
M  END
>  <UniqueID>  (4) 
4

>  <SMILES>  (4) 
COc1ccc2c(=O)n(CCN3CCOCC3)c3c(c2c1)C(=O)c1cc2c(cc1-3)OCO2

>  <Energy>  (4) 
144.0576662901118

>  <Genealogy>  (4) 
COc1ccc2c(=O)n(CCN3CCOCC3)c3c(c2c1)C(=O)c1cc2c(cc1-3)OCO2 (3D coordinates assigned)
COc1ccc2c(=O)n(CCN3CCOCC3)c3c(c2c1)C(=O)c1cc2c(cc1-3)OCO2 (nonaromatic ring conformer: 144.0576662901118 kcal/mol)

>  <smiles>  (4) 
COc1ccc2c(=O)n(CCN3CCOCC3)c3c(c2c1)C(=O)c1cc2c(cc1-3)OCO2

>  <score_type>  (4) 
oracle

>  <origin>  (4) 
adg

>  <m_score__min__energy>  (4) 
-9.0899999999999999

>  <m_primary>  (4) 
energy

$$$$
4:0
     RDKit          3D

 67 70  0  0  0  0  0  0  0  0999 V2000
   -2.9110   18.5970  -25.7740 C   0  0  0  0  0  0  0  0  0  0  0  0
   -3.1150   19.2690  -27.1290 C   0  0  0  0  0  0  0  0  0  0  0  0
   -1.8030   19.8730  -27.6510 C   0  0  0  0  0  0  0  0  0  0  0  0
   -1.7760   21.4170  -27.5730 C   0  0  0  0  0  0  0  0  0  0  0  0
   -2.6550   22.0950  -28.5640 N   0  0  1  0  0  0  0  0  0  0  0  0
   -2.8050   23.5660  -28.3430 C   0  0  0  0  0  0  0  0  0  0  0  0
   -4.2410   24.1180  -28.1430 C   0  0  0  0  0  0  0  0  0  0  0  0
   -5.2080   23.8030  -29.2830 C   0  0  0  0  0  0  0  0  0  0  0  0
   -5.3420   25.3160  -30.4880 Br  0  0  0  0  0  0  0  0  0  0  0  0
   -2.2310   21.7250  -29.9420 C   0  0  0  0  0  0  0  0  0  0  0  0
   -2.9180   22.5100  -31.0870 C   0  0  0  0  0  0  0  0  0  0  0  0
   -3.0760   21.7470  -32.4140 C   0  0  0  0  0  0  0  0  0  0  0  0
   -4.4060   21.9040  -33.0080 N   0  0  0  0  0  0  0  0  0  0  0  0
   -5.5110   21.0020  -32.7930 C   0  0  0  0  0  0  0  0  0  0  0  0
   -5.3740   19.6280  -33.0120 C   0  0  0  0  0  0  0  0  0  0  0  0
   -6.4600   18.7790  -32.8790 C   0  0  0  0  0  0  0  0  0  0  0  0
   -7.6670   19.2110  -32.3940 N   0  0  0  0  0  0  0  0  0  0  0  0
   -8.6750   18.2350  -31.9480 C   0  0  0  0  0  0  0  0  0  0  0  0
   -7.8790   20.5730  -32.2690 C   0  0  0  0  0  0  0  0  0  0  0  0
   -9.1620   21.0990  -31.9790 C   0  0  0  0  0  0  0  0  0  0  0  0
   -9.3570   22.4700  -31.8130 C   0  0  0  0  0  0  0  0  0  0  0  0
   -8.2880   23.3510  -31.9390 C   0  0  0  0  0  0  0  0  0  0  0  0
   -7.0200   22.8720  -32.2600 C   0  0  0  0  0  0  0  0  0  0  0  0
   -6.7950   21.4920  -32.4510 C   0  0  0  0  0  0  0  0  0  0  0  0
   -6.0560   17.4480  -33.3540 C   0  0  0  0  0  0  0  0  0  0  0  0
   -6.8040   16.2960  -33.6410 C   0  0  0  0  0  0  0  0  0  0  0  0
   -6.1440   15.1820  -34.1830 C   0  0  0  0  0  0  0  0  0  0  0  0
   -4.7700   15.2390  -34.4730 C   0  0  0  0  0  0  0  0  0  0  0  0
   -4.0510   16.4210  -34.2470 C   0  0  0  0  0  0  0  0  0  0  0  0
   -4.7180   17.5170  -33.6980 C   0  0  0  0  0  0  0  0  0  0  0  0
   -4.1570   18.8850  -33.4880 C   0  0  0  0  0  0  0  0  0  0  0  0
   -3.1295   19.3166  -24.9712 H   0  0  0  0  0  0  0  0  0  0  0  0
   -3.5877   17.7341  -25.6871 H   0  0  0  0  0  0  0  0  0  0  0  0
   -1.8688   18.2559  -25.6871 H   0  0  0  0  0  0  0  0  0  0  0  0
   -3.4778   18.5213  -27.8496 H   0  0  0  0  0  0  0  0  0  0  0  0
   -3.8490   20.0795  -27.0095 H   0  0  0  0  0  0  0  0  0  0  0  0
   -0.9712   19.4770  -27.0500 H   0  0  0  0  0  0  0  0  0  0  0  0
   -1.7117   19.5953  -28.7115 H   0  0  0  0  0  0  0  0  0  0  0  0
   -2.0980   21.7168  -26.5648 H   0  0  0  0  0  0  0  0  0  0  0  0
   -0.7455   21.7263  -27.8019 H   0  0  0  0  0  0  0  0  0  0  0  0
   -3.6030   21.6780  -28.4400 H   0  0  0  0  0  0  0  0  0  0  0  0
   -2.2245   23.8251  -27.4453 H   0  0  0  0  0  0  0  0  0  0  0  0
   -2.4557   24.0268  -29.2788 H   0  0  0  0  0  0  0  0  0  0  0  0
   -4.6490   23.6854  -27.2176 H   0  0  0  0  0  0  0  0  0  0  0  0
   -4.1512   25.2136  -28.1042 H   0  0  0  0  0  0  0  0  0  0  0  0
   -4.8410   22.9276  -29.8389 H   0  0  0  0  0  0  0  0  0  0  0  0
   -6.2018   23.5918  -28.8615 H   0  0  0  0  0  0  0  0  0  0  0  0
   -1.1467   21.8935  -30.0192 H   0  0  0  0  0  0  0  0  0  0  0  0
   -2.5285   20.6746  -30.0766 H   0  0  0  0  0  0  0  0  0  0  0  0
   -3.9211   22.8020  -30.7429 H   0  0  0  0  0  0  0  0  0  0  0  0
   -2.2578   23.3621  -31.3063 H   0  0  0  0  0  0  0  0  0  0  0  0
   -2.3270   22.1232  -33.1263 H   0  0  0  0  0  0  0  0  0  0  0  0
   -2.9354   20.6776  -32.1982 H   0  0  0  0  0  0  0  0  0  0  0  0
   -4.5790   22.7790  -33.5530 H   0  0  0  0  0  0  0  0  0  0  0  0
   -8.7003   18.2105  -30.8486 H   0  0  0  0  0  0  0  0  0  0  0  0
   -9.6637   18.5279  -32.3311 H   0  0  0  0  0  0  0  0  0  0  0  0
   -8.4141   17.2374  -32.3311 H   0  0  0  0  0  0  0  0  0  0  0  0
  -10.0182   20.4151  -31.8832 H   0  0  0  0  0  0  0  0  0  0  0  0
  -10.3606   22.8563  -31.5814 H   0  0  0  0  0  0  0  0  0  0  0  0
   -8.4444   24.4288  -31.7847 H   0  0  0  0  0  0  0  0  0  0  0  0
   -6.1834   23.5784  -32.3660 H   0  0  0  0  0  0  0  0  0  0  0  0
   -7.8860   16.2665  -33.4451 H   0  0  0  0  0  0  0  0  0  0  0  0
   -6.7062   14.2578  -34.3822 H   0  0  0  0  0  0  0  0  0  0  0  0
   -4.2576   14.3540  -34.8783 H   0  0  0  0  0  0  0  0  0  0  0  0
   -2.9817   16.4834  -34.4976 H   0  0  0  0  0  0  0  0  0  0  0  0
   -3.3625   18.8828  -32.7272 H   0  0  0  0  0  0  0  0  0  0  0  0
   -3.6814   19.3203  -34.3792 H   0  0  0  0  0  0  0  0  0  0  0  0
  1  2  1  0
  2  3  1  0
  3  4  1  0
  4  5  1  0
  5  6  1  0
  6  7  1  0
  7  8  1  0
  8  9  1  0
  5 10  1  0
 10 11  1  0
 11 12  1  0
 12 13  1  0
 13 14  1  0
 14 15  2  0
 15 16  1  0
 16 17  2  0
 17 18  1  0
 17 19  1  0
 19 20  2  0
 20 21  1  0
 21 22  2  0
 22 23  1  0
 23 24  2  0
 16 25  1  0
 25 26  2  0
 26 27  1  0
 27 28  2  0
 28 29  1  0
 29 30  2  0
 30 31  1  0
 24 14  1  0
 30 25  1  0
 31 15  1  0
 24 19  1  0
  1 32  1  0
  1 33  1  0
  1 34  1  0
  2 35  1  0
  2 36  1  0
  3 37  1  0
  3 38  1  0
  4 39  1  0
  4 40  1  0
  5 41  1  1
  6 42  1  0
  6 43  1  0
  7 44  1  0
  7 45  1  0
  8 46  1  0
  8 47  1  0
 10 48  1  0
 10 49  1  0
 11 50  1  0
 11 51  1  0
 12 52  1  0
 12 53  1  0
 13 54  1  0
 18 55  1  0
 18 56  1  0
 18 57  1  0
 20 58  1  0
 21 59  1  0
 22 60  1  0
 23 61  1  0
 26 62  1  0
 27 63  1  0
 28 64  1  0
 29 65  1  0
 31 66  1  0
 31 67  1  0
M  CHG  2   5   1  17   1
M  END
>  <UniqueID>  (5) 
5

>  <SMILES>  (5) 
CCCC[N@@H+](CCCBr)CCCNc1c2c([n+](C)c3ccccc13)-c1ccccc1C2

>  <Energy>  (5) 
111.68027997403368

>  <Genealogy>  (5) 
CCCC[NH+](CCCBr)CCCNc1c2c([n+](C)c3ccccc13)-c1ccccc1C2 (protonated)
CCCC[N@@H+](CCCBr)CCCNc1c2c([n+](C)c3ccccc13)-c1ccccc1C2 (chirality)
CCCC[N@@H+](CCCBr)CCCNc1c2c([n+](C)c3ccccc13)-c1ccccc1C2 (3D coordinates assigned)
CCCC[N@@H+](CCCBr)CCCNc1c2c([n+](C)c3ccccc13)-c1ccccc1C2 (nonaromatic ring conformer: 111.68027997403368 kcal/mol)

>  <smiles>  (5) 
CCCCN(CCCBr)CCCNc1c2c([n+](C)c3ccccc13)-c1ccccc1C2

>  <score_type>  (5) 
oracle

>  <origin>  (5) 
adg

>  <m_score__min__energy>  (5) 
-8.8900000000000006

>  <m_primary>  (5) 
energy

$$$$
5:0
     RDKit          3D

 47 51  0  0  0  0  0  0  0  0999 V2000
   -8.6130   18.5840  -31.3190 C   0  0  0  0  0  0  0  0  0  0  0  0
   -7.6930   18.9190  -32.4080 N   0  0  0  0  0  0  0  0  0  0  0  0
   -7.3100   20.1530  -32.8420 C   0  0  0  0  0  0  0  0  0  0  0  0
   -7.8770   21.4610  -32.3320 C   0  0  0  0  0  0  0  0  0  0  0  0
   -6.9160   22.5880  -32.3510 N   0  0  0  0  0  0  0  0  0  0  0  0
   -5.4820   22.1920  -32.2580 C   0  0  0  0  0  0  0  0  0  0  0  0
   -5.0470   22.7250  -30.9150 C   0  0  1  0  0  0  0  0  0  0  0  0
   -3.6520   23.1240  -30.4840 C   0  0  0  0  0  0  0  0  0  0  0  0
   -3.9450   24.1450  -29.4680 N   0  0  0  0  0  0  0  0  0  0  0  0
   -2.9850   24.6460  -28.5300 C   0  0  0  0  0  0  0  0  0  0  0  0
   -3.1980   24.5060  -27.1920 N   0  0  0  0  0  0  0  0  0  0  0  0
   -2.2990   24.9740  -26.2870 C   0  0  0  0  0  0  0  0  0  0  0  0
   -1.1380   25.6100  -26.7250 C   0  0  0  0  0  0  0  0  0  0  0  0
   -0.9330   25.7470  -28.0980 C   0  0  0  0  0  0  0  0  0  0  0  0
   -1.8550   25.2650  -28.9710 N   0  0  0  0  0  0  0  0  0  0  0  0
   -5.3470   24.5830  -29.5270 C   0  0  0  0  0  0  0  0  0  0  0  0
   -5.7790   24.0220  -30.8660 C   0  0  2  0  0  0  0  0  0  0  0  0
   -7.1650   23.5960  -31.2830 C   0  0  0  0  0  0  0  0  0  0  0  0
   -6.3310   20.1070  -33.7840 N   0  0  0  0  0  0  0  0  0  0  0  0
   -6.1040   18.7910  -33.9300 C   0  0  0  0  0  0  0  0  0  0  0  0
   -5.1740   18.1810  -34.7690 C   0  0  0  0  0  0  0  0  0  0  0  0
   -5.0830   16.7760  -34.7330 C   0  0  0  0  0  0  0  0  0  0  0  0
   -5.9080   16.0290  -33.8640 C   0  0  0  0  0  0  0  0  0  0  0  0
   -6.8360   16.6760  -33.0270 C   0  0  0  0  0  0  0  0  0  0  0  0
   -6.9090   18.0710  -33.0980 C   0  0  0  0  0  0  0  0  0  0  0  0
   -8.1187   18.7640  -30.3530 H   0  0  0  0  0  0  0  0  0  0  0  0
   -9.5130   19.2121  -31.3930 H   0  0  0  0  0  0  0  0  0  0  0  0
   -8.8984   17.5242  -31.3930 H   0  0  0  0  0  0  0  0  0  0  0  0
   -8.7385   21.7317  -32.9601 H   0  0  0  0  0  0  0  0  0  0  0  0
   -8.1515   21.2974  -31.2794 H   0  0  0  0  0  0  0  0  0  0  0  0
   -5.3742   21.0981  -32.2989 H   0  0  0  0  0  0  0  0  0  0  0  0
   -4.8774   22.5864  -33.0880 H   0  0  0  0  0  0  0  0  0  0  0  0
   -5.2068   21.8473  -30.2715 H   0  0  0  0  0  0  0  0  0  0  0  0
   -3.1048   22.2726  -30.0531 H   0  0  0  0  0  0  0  0  0  0  0  0
   -3.0106   23.4768  -31.3051 H   0  0  0  0  0  0  0  0  0  0  0  0
   -2.4869   24.8513  -25.2101 H   0  0  0  0  0  0  0  0  0  0  0  0
   -0.4010   25.9947  -26.0047 H   0  0  0  0  0  0  0  0  0  0  0  0
   -0.0264   26.2445  -28.4729 H   0  0  0  0  0  0  0  0  0  0  0  0
   -5.9370   24.1560  -28.7026 H   0  0  0  0  0  0  0  0  0  0  0  0
   -5.4830   25.6702  -29.4298 H   0  0  0  0  0  0  0  0  0  0  0  0
   -5.6196   24.8991  -31.5104 H   0  0  0  0  0  0  0  0  0  0  0  0
   -7.7085   23.1472  -30.4385 H   0  0  0  0  0  0  0  0  0  0  0  0
   -7.7853   24.4372  -31.6259 H   0  0  0  0  0  0  0  0  0  0  0  0
   -4.5331   18.7760  -35.4363 H   0  0  0  0  0  0  0  0  0  0  0  0
   -4.3651   16.2576  -35.3856 H   0  0  0  0  0  0  0  0  0  0  0  0
   -5.8246   14.9324  -33.8411 H   0  0  0  0  0  0  0  0  0  0  0  0
   -7.4804   16.1055  -32.3420 H   0  0  0  0  0  0  0  0  0  0  0  0
  1  2  1  0
  2  3  1  0
  3  4  1  0
  4  5  1  0
  5  6  1  0
  6  7  1  0
  7  8  1  0
  8  9  1  0
  9 10  1  0
 10 11  2  0
 11 12  1  0
 12 13  2  0
 13 14  1  0
 14 15  2  0
  9 16  1  0
 16 17  1  0
 17 18  1  0
  3 19  2  0
 19 20  1  0
 20 21  2  0
 21 22  1  0
 22 23  2  0
 23 24  1  0
 24 25  2  0
 25  2  1  0
 18  5  1  0
 25 20  1  0
 17  7  1  0
 15 10  1  0
  1 26  1  0
  1 27  1  0
  1 28  1  0
  4 29  1  0
  4 30  1  0
  6 31  1  0
  6 32  1  0
  7 33  1  1
  8 34  1  0
  8 35  1  0
 12 36  1  0
 13 37  1  0
 14 38  1  0
 16 39  1  0
 16 40  1  0
 17 41  1  6
 18 42  1  0
 18 43  1  0
 21 44  1  0
 22 45  1  0
 23 46  1  0
 24 47  1  0
M  END
>  <UniqueID>  (6) 
6

>  <SMILES>  (6) 
Cn1c(CN2C[C@H]3CN(c4ncccn4)C[C@@H]3C2)nc2ccccc21

>  <Energy>  (6) 
127.56321370226281

>  <Genealogy>  (6) 
Cn1c(CN2C[C@H]3CN(c4ncccn4)C[C@@H]3C2)nc2ccccc21 (chirality)
Cn1c(CN2C[C@H]3CN(c4ncccn4)C[C@@H]3C2)nc2ccccc21 (3D coordinates assigned)
Cn1c(CN2C[C@H]3CN(c4ncccn4)C[C@@H]3C2)nc2ccccc21 (nonaromatic ring conformer: 127.56321370226281 kcal/mol)

>  <smiles>  (6) 
Cn1c(CN2CC3CN(c4ncccn4)CC3C2)nc2ccccc21

>  <score_type>  (6) 
oracle

>  <origin>  (6) 
adg

>  <m_score__min__energy>  (6) 
-8.8399999999999999

>  <m_primary>  (6) 
energy

$$$$
6:0
     RDKit          3D

 65 68  0  0  0  0  0  0  0  0999 V2000
   -6.0960   26.0140  -29.7060 C   0  0  0  0  0  0  0  0  0  0  0  0
   -4.8520   25.6840  -30.5440 C   0  0  0  0  0  0  0  0  0  0  0  0
   -4.6180   24.2280  -30.7500 N   0  0  0  0  0  0  0  0  0  0  0  0
   -3.3490   23.7970  -30.1140 C   0  0  0  0  0  0  0  0  0  0  0  0
   -3.2240   22.2760  -30.1150 C   0  0  0  0  0  0  0  0  0  0  0  0
   -5.7480   23.3620  -30.3200 C   0  0  0  0  0  0  0  0  0  0  0  0
   -6.8360   23.1650  -31.4000 C   0  0  0  0  0  0  0  0  0  0  0  0
   -6.3040   22.7090  -32.7000 N   0  0  0  0  0  0  0  0  0  0  0  0
   -6.1580   21.2580  -32.7770 C   0  0  0  0  0  0  0  0  0  0  0  0
   -7.2640   20.3760  -32.5830 C   0  0  0  0  0  0  0  0  0  0  0  0
   -8.6130   20.8240  -32.5680 C   0  0  0  0  0  0  0  0  0  0  0  0
   -9.6690   19.9290  -32.4200 C   0  0  0  0  0  0  0  0  0  0  0  0
   -9.4230   18.5700  -32.3050 C   0  0  0  0  0  0  0  0  0  0  0  0
   -8.1170   18.0970  -32.3080 C   0  0  0  0  0  0  0  0  0  0  0  0
   -7.0140   18.9830  -32.4120 C   0  0  0  0  0  0  0  0  0  0  0  0
   -5.7210   18.5100  -32.3520 N   0  0  0  0  0  0  0  0  0  0  0  0
   -5.4500   17.1670  -31.7900 C   0  0  0  0  0  0  0  0  0  0  0  0
   -4.6800   19.2940  -32.7980 C   0  0  0  0  0  0  0  0  0  0  0  0
   -3.3940   18.7460  -33.0310 C   0  0  0  0  0  0  0  0  0  0  0  0
   -2.3140   19.5520  -33.3930 C   0  0  0  0  0  0  0  0  0  0  0  0
   -1.0100   18.9720  -33.5550 N   0  0  0  0  0  0  0  0  0  0  0  0
   -0.0090   18.9800  -32.5210 C   0  0  0  0  0  0  0  0  0  0  0  0
    1.3440   18.8650  -32.8680 C   0  0  0  0  0  0  0  0  0  0  0  0
    2.3260   18.8380  -31.8770 C   0  0  0  0  0  0  0  0  0  0  0  0
    1.9670   18.9180  -30.5280 C   0  0  0  0  0  0  0  0  0  0  0  0
    0.6170   19.0350  -30.1570 C   0  0  0  0  0  0  0  0  0  0  0  0
    0.2120   19.0480  -28.7050 C   0  0  0  0  0  0  0  0  0  0  0  0
    1.0510   19.8770  -27.9780 F   0  0  0  0  0  0  0  0  0  0  0  0
    0.2820   17.7770  -28.1590 F   0  0  0  0  0  0  0  0  0  0  0  0
   -1.0860   19.5130  -28.5980 F   0  0  0  0  0  0  0  0  0  0  0  0
   -0.3670   19.0390  -31.1610 C   0  0  0  0  0  0  0  0  0  0  0  0
   -2.5230   20.9100  -33.6260 C   0  0  0  0  0  0  0  0  0  0  0  0
   -3.7850   21.4670  -33.4600 C   0  0  0  0  0  0  0  0  0  0  0  0
   -4.8810   20.6840  -33.0220 C   0  0  0  0  0  0  0  0  0  0  0  0
   -5.8460   25.9477  -28.6368 H   0  0  0  0  0  0  0  0  0  0  0  0
   -6.4362   27.0335  -29.9405 H   0  0  0  0  0  0  0  0  0  0  0  0
   -6.8968   25.2972  -29.9405 H   0  0  0  0  0  0  0  0  0  0  0  0
   -4.9662   26.1571  -31.5305 H   0  0  0  0  0  0  0  0  0  0  0  0
   -3.9856   26.0651  -29.9835 H   0  0  0  0  0  0  0  0  0  0  0  0
   -2.5036   24.2275  -30.6707 H   0  0  0  0  0  0  0  0  0  0  0  0
   -3.3435   24.1478  -29.0714 H   0  0  0  0  0  0  0  0  0  0  0  0
   -3.1939   21.9099  -29.0781 H   0  0  0  0  0  0  0  0  0  0  0  0
   -4.0891   21.8373  -30.6338 H   0  0  0  0  0  0  0  0  0  0  0  0
   -2.2989   21.9845  -30.6338 H   0  0  0  0  0  0  0  0  0  0  0  0
   -5.3443   22.3746  -30.0517 H   0  0  0  0  0  0  0  0  0  0  0  0
   -6.2308   23.8675  -29.4707 H   0  0  0  0  0  0  0  0  0  0  0  0
   -7.5549   22.4159  -31.0366 H   0  0  0  0  0  0  0  0  0  0  0  0
   -7.3033   24.1463  -31.5694 H   0  0  0  0  0  0  0  0  0  0  0  0
   -6.9090   23.1200  -33.4330 H   0  0  0  0  0  0  0  0  0  0  0  0
   -5.3790   23.1600  -32.8760 H   0  0  0  0  0  0  0  0  0  0  0  0
   -8.8264   21.8977  -32.6753 H   0  0  0  0  0  0  0  0  0  0  0  0
  -10.7034   20.3022  -32.3942 H   0  0  0  0  0  0  0  0  0  0  0  0
  -10.2625   17.8654  -32.2113 H   0  0  0  0  0  0  0  0  0  0  0  0
   -7.9346   17.0152  -32.2282 H   0  0  0  0  0  0  0  0  0  0  0  0
   -5.4608   17.2203  -30.6913 H   0  0  0  0  0  0  0  0  0  0  0  0
   -6.2244   16.4639  -32.1306 H   0  0  0  0  0  0  0  0  0  0  0  0
   -4.4636   16.8192  -32.1306 H   0  0  0  0  0  0  0  0  0  0  0  0
   -3.2439   17.6615  -32.9241 H   0  0  0  0  0  0  0  0  0  0  0  0
   -0.7980   18.4700  -34.4460 H   0  0  0  0  0  0  0  0  0  0  0  0
    1.6333   18.7957  -33.9270 H   0  0  0  0  0  0  0  0  0  0  0  0
    3.3861   18.7535  -32.1580 H   0  0  0  0  0  0  0  0  0  0  0  0
    2.7465   18.8891  -29.7524 H   0  0  0  0  0  0  0  0  0  0  0  0
   -1.4294   19.0888  -30.8804 H   0  0  0  0  0  0  0  0  0  0  0  0
   -1.6830   21.5453  -33.9435 H   0  0  0  0  0  0  0  0  0  0  0  0
   -3.9357   22.5357  -33.6726 H   0  0  0  0  0  0  0  0  0  0  0  0
  1  2  1  0
  2  3  1  0
  3  4  1  0
  4  5  1  0
  3  6  1  0
  6  7  1  0
  7  8  1  0
  8  9  1  0
  9 10  2  0
 10 11  1  0
 11 12  2  0
 12 13  1  0
 13 14  2  0
 14 15  1  0
 15 16  2  0
 16 17  1  0
 16 18  1  0
 18 19  2  0
 19 20  1  0
 20 21  1  0
 21 22  1  0
 22 23  2  0
 23 24  1  0
 24 25  2  0
 25 26  1  0
 26 27  1  0
 27 28  1  0
 27 29  1  0
 27 30  1  0
 26 31  2  0
 20 32  2  0
 32 33  1  0
 33 34  2  0
 34  9  1  0
 15 10  1  0
 34 18  1  0
 31 22  1  0
  1 35  1  0
  1 36  1  0
  1 37  1  0
  2 38  1  0
  2 39  1  0
  4 40  1  0
  4 41  1  0
  5 42  1  0
  5 43  1  0
  5 44  1  0
  6 45  1  0
  6 46  1  0
  7 47  1  0
  7 48  1  0
  8 49  1  0
  8 50  1  0
 11 51  1  0
 12 52  1  0
 13 53  1  0
 14 54  1  0
 17 55  1  0
 17 56  1  0
 17 57  1  0
 19 58  1  0
 21 59  1  0
 23 60  1  0
 24 61  1  0
 25 62  1  0
 31 63  1  0
 32 64  1  0
 33 65  1  0
M  CHG  2   8   1  16   1
M  END
>  <UniqueID>  (7) 
7

>  <SMILES>  (7) 
CCN(CC)CC[NH2+]c1c2ccccc2[n+](C)c2cc(Nc3cccc(C(F)(F)F)c3)ccc12

>  <Energy>  (7) 
104.38611774827923

>  <Genealogy>  (7) 
CCN(CC)CC[NH2+]c1c2ccccc2[n+](C)c2cc(Nc3cccc(C(F)(F)F)c3)ccc12 (protonated)
CCN(CC)CC[NH2+]c1c2ccccc2[n+](C)c2cc(Nc3cccc(C(F)(F)F)c3)ccc12 (3D coordinates assigned)
CCN(CC)CC[NH2+]c1c2ccccc2[n+](C)c2cc(Nc3cccc(C(F)(F)F)c3)ccc12 (optimized conformer: 104.38611774827923 kcal/mol)

>  <smiles>  (7) 
CCN(CC)CCNc1c2ccccc2[n+](C)c2cc(Nc3cccc(C(F)(F)F)c3)ccc12

>  <score_type>  (7) 
oracle

>  <origin>  (7) 
adg

>  <m_score__min__energy>  (7) 
-8.6199999999999992

>  <m_primary>  (7) 
energy

$$$$
7:0
     RDKit          3D

 54 55  0  0  0  0  0  0  0  0999 V2000
   -6.4160   24.8190  -30.3130 C   0  0  0  0  0  0  0  0  0  0  0  0
   -5.3640   25.9040  -30.4700 C   0  0  0  0  0  0  0  0  0  0  0  0
   -4.0750   25.3050  -30.5480 O   0  0  0  0  0  0  0  0  0  0  0  0
   -3.8660   23.9270  -30.4340 C   0  0  0  0  0  0  0  0  0  0  0  0
   -3.8210   23.1410  -31.5460 N   0  0  0  0  0  0  0  0  0  0  0  0
   -3.6370   21.7950  -31.4790 C   0  0  0  0  0  0  0  0  0  0  0  0
   -3.6130   20.9730  -32.7480 C   0  0  0  0  0  0  0  0  0  0  0  0
   -4.9500   20.7650  -33.3620 N   0  0  1  0  0  0  0  0  0  0  0  0
   -5.1200   19.3840  -33.8530 C   0  0  0  0  0  0  0  0  0  0  0  0
   -6.0700   21.1400  -32.4650 C   0  0  0  0  0  0  0  0  0  0  0  0
   -7.3650   20.3880  -32.8300 C   0  0  0  0  0  0  0  0  0  0  0  0
   -7.8870   19.4850  -31.7230 C   0  0  0  0  0  0  0  0  0  0  0  0
   -8.6220   20.7700  -32.0640 C   0  0  0  0  0  0  0  0  0  0  0  0
   -3.4760   21.1840  -30.2280 C   0  0  0  0  0  0  0  0  0  0  0  0
   -3.5140   21.9630  -29.0720 C   0  0  0  0  0  0  0  0  0  0  0  0
   -3.7090   23.3480  -29.1630 C   0  0  0  0  0  0  0  0  0  0  0  0
   -3.7740   24.1950  -27.9170 C   0  0  0  0  0  0  0  0  0  0  0  0
   -2.4170   24.4570  -27.3880 N   0  0  0  0  0  0  0  0  0  0  0  0
   -2.4670   25.3000  -26.1730 C   0  0  0  0  0  0  0  0  0  0  0  0
   -1.2190   26.1700  -26.0300 C   0  0  0  0  0  0  0  0  0  0  0  0
   -1.4710   24.9340  -28.4320 C   0  0  0  0  0  0  0  0  0  0  0  0
   -0.4430   23.8910  -28.8960 C   0  0  0  0  0  0  0  0  0  0  0  0
   -6.5953   24.6341  -29.2436 H   0  0  0  0  0  0  0  0  0  0  0  0
   -7.3520   25.1439  -30.7909 H   0  0  0  0  0  0  0  0  0  0  0  0
   -6.0624   23.8935  -30.7909 H   0  0  0  0  0  0  0  0  0  0  0  0
   -5.5598   26.4747  -31.3898 H   0  0  0  0  0  0  0  0  0  0  0  0
   -5.4026   26.5813  -29.6041 H   0  0  0  0  0  0  0  0  0  0  0  0
   -2.9729   21.4868  -33.4803 H   0  0  0  0  0  0  0  0  0  0  0  0
   -3.2317   19.9782  -32.4741 H   0  0  0  0  0  0  0  0  0  0  0  0
   -4.9990   21.3820  -34.2080 H   0  0  0  0  0  0  0  0  0  0  0  0
   -5.2044   18.6983  -32.9970 H   0  0  0  0  0  0  0  0  0  0  0  0
   -6.0326   19.3218  -34.4640 H   0  0  0  0  0  0  0  0  0  0  0  0
   -4.2497   19.1023  -34.4640 H   0  0  0  0  0  0  0  0  0  0  0  0
   -5.7948   20.8949  -31.4286 H   0  0  0  0  0  0  0  0  0  0  0  0
   -6.2549   22.2185  -32.5776 H   0  0  0  0  0  0  0  0  0  0  0  0
   -7.1252   20.2822  -33.8983 H   0  0  0  0  0  0  0  0  0  0  0  0
   -8.3355   18.5121  -31.9726 H   0  0  0  0  0  0  0  0  0  0  0  0
   -7.4604   19.0531  -30.8057 H   0  0  0  0  0  0  0  0  0  0  0  0
   -9.6027   20.7274  -32.5604 H   0  0  0  0  0  0  0  0  0  0  0  0
   -8.9479   21.6537  -31.4957 H   0  0  0  0  0  0  0  0  0  0  0  0
   -3.3207   20.0972  -30.1585 H   0  0  0  0  0  0  0  0  0  0  0  0
   -3.3907   21.4896  -28.0868 H   0  0  0  0  0  0  0  0  0  0  0  0
   -4.2586   25.1529  -28.1570 H   0  0  0  0  0  0  0  0  0  0  0  0
   -4.3518   23.6543  -27.1530 H   0  0  0  0  0  0  0  0  0  0  0  0
   -3.3507   25.9526  -26.2294 H   0  0  0  0  0  0  0  0  0  0  0  0
   -2.5200   24.6344  -25.2988 H   0  0  0  0  0  0  0  0  0  0  0  0
   -0.9992   26.3233  -24.9631 H   0  0  0  0  0  0  0  0  0  0  0  0
   -0.3661   25.6697  -26.5120 H   0  0  0  0  0  0  0  0  0  0  0  0
   -1.3933   27.1433  -26.5120 H   0  0  0  0  0  0  0  0  0  0  0  0
   -2.0580   25.2487  -29.3074 H   0  0  0  0  0  0  0  0  0  0  0  0
   -0.8959   25.7539  -27.9770 H   0  0  0  0  0  0  0  0  0  0  0  0
    0.0223   23.4190  -28.0181 H   0  0  0  0  0  0  0  0  0  0  0  0
   -0.9472   23.1231  -29.5011 H   0  0  0  0  0  0  0  0  0  0  0  0
    0.3321   24.3841  -29.5011 H   0  0  0  0  0  0  0  0  0  0  0  0
  1  2  1  0
  2  3  1  0
  3  4  1  0
  4  5  2  0
  5  6  1  0
  6  7  1  0
  7  8  1  0
  8  9  1  0
  8 10  1  0
 10 11  1  0
 11 12  1  0
 12 13  1  0
  6 14  2  0
 14 15  1  0
 15 16  2  0
 16 17  1  0
 17 18  1  0
 18 19  1  0
 19 20  1  0
 18 21  1  0
 21 22  1  0
 16  4  1  0
 13 11  1  0
  1 23  1  0
  1 24  1  0
  1 25  1  0
  2 26  1  0
  2 27  1  0
  7 28  1  0
  7 29  1  0
  8 30  1  6
  9 31  1  0
  9 32  1  0
  9 33  1  0
 10 34  1  0
 10 35  1  0
 11 36  1  0
 12 37  1  0
 12 38  1  0
 13 39  1  0
 13 40  1  0
 14 41  1  0
 15 42  1  0
 17 43  1  0
 17 44  1  0
 19 45  1  0
 19 46  1  0
 20 47  1  0
 20 48  1  0
 20 49  1  0
 21 50  1  0
 21 51  1  0
 22 52  1  0
 22 53  1  0
 22 54  1  0
M  CHG  1   8   1
M  END
>  <UniqueID>  (8) 
8

>  <SMILES>  (8) 
CCOc1nc(C[N@@H+](C)CC2CC2)ccc1CN(CC)CC

>  <Energy>  (8) 
314.0988627808053

>  <Genealogy>  (8) 
CCOc1nc(C[NH+](C)CC2CC2)ccc1CN(CC)CC (protonated)
CCOc1nc(C[N@@H+](C)CC2CC2)ccc1CN(CC)CC (chirality)
CCOc1nc(C[N@@H+](C)CC2CC2)ccc1CN(CC)CC (3D coordinates assigned)
CCOc1nc(C[N@@H+](C)CC2CC2)ccc1CN(CC)CC (nonaromatic ring conformer: 314.0988627808053 kcal/mol)

>  <smiles>  (8) 
CCOc1nc(CN(C)CC2CC2)ccc1CN(CC)CC

>  <score_type>  (8) 
oracle

>  <origin>  (8) 
adg

>  <m_score__min__energy>  (8) 
-6.9500000000000002

>  <m_primary>  (8) 
energy

$$$$
8:0
     RDKit          3D

 57 58  0  0  0  0  0  0  0  0999 V2000
   -6.7820   24.7320  -29.8050 C   0  0  0  0  0  0  0  0  0  0  0  0
   -5.7270   25.6790  -30.3670 C   0  0  0  0  0  0  0  0  0  0  0  0
   -4.8020   24.9640  -31.1790 O   0  0  0  0  0  0  0  0  0  0  0  0
   -4.2320   23.7120  -30.8940 C   0  0  0  0  0  0  0  0  0  0  0  0
   -4.6190   22.6020  -31.5460 N   0  0  0  0  0  0  0  0  0  0  0  0
   -3.9860   21.5540  -31.0400 N   0  0  0  0  0  0  0  0  0  0  0  0
   -4.1330   20.1910  -31.5600 C   0  0  0  0  0  0  0  0  0  0  0  0
   -5.6060   19.7730  -31.5960 C   0  0  0  0  0  0  0  0  0  0  0  0
   -6.3630   20.6700  -32.4980 N   0  0  0  0  0  0  0  0  0  0  0  0
   -7.5080   21.3100  -31.8290 C   0  0  0  0  0  0  0  0  0  0  0  0
   -6.7210   20.0490  -33.7930 C   0  0  0  0  0  0  0  0  0  0  0  0
   -5.9770   18.7360  -34.0830 C   0  0  0  0  0  0  0  0  0  0  0  0
   -3.1660   21.9780  -30.0530 C   0  0  0  0  0  0  0  0  0  0  0  0
   -2.2330   21.1230  -29.2890 C   0  0  0  0  0  0  0  0  0  0  0  0
   -2.6880   20.4420  -28.1510 C   0  0  0  0  0  0  0  0  0  0  0  0
   -1.8040   19.6620  -27.3840 C   0  0  0  0  0  0  0  0  0  0  0  0
   -2.2090   18.9730  -26.2330 O   0  0  0  0  0  0  0  0  0  0  0  0
   -3.5450   18.5550  -25.9740 C   0  0  0  0  0  0  0  0  0  0  0  0
   -0.4640   19.5700  -27.7730 C   0  0  0  0  0  0  0  0  0  0  0  0
   -0.0030   20.2480  -28.9030 C   0  0  0  0  0  0  0  0  0  0  0  0
   -0.8820   21.0340  -29.6700 C   0  0  0  0  0  0  0  0  0  0  0  0
   -0.4500   21.7310  -30.8120 O   0  0  0  0  0  0  0  0  0  0  0  0
   -0.3890   21.1780  -32.1220 C   0  0  0  0  0  0  0  0  0  0  0  0
   -3.2830   23.3580  -29.9300 C   0  0  0  0  0  0  0  0  0  0  0  0
   -2.6080   24.1830  -28.9120 C   0  0  0  0  0  0  0  0  0  0  0  0
   -2.5620   23.7380  -27.4860 C   0  0  0  0  0  0  0  0  0  0  0  0
   -1.9690   25.2120  -29.2540 O   0  0  0  0  0  0  0  0  0  0  0  0
   -6.7512   24.7596  -28.7058 H   0  0  0  0  0  0  0  0  0  0  0  0
   -7.7778   25.0450  -30.1519 H   0  0  0  0  0  0  0  0  0  0  0  0
   -6.5779   23.7083  -30.1519 H   0  0  0  0  0  0  0  0  0  0  0  0
   -6.2203   26.4523  -30.9742 H   0  0  0  0  0  0  0  0  0  0  0  0
   -5.1836   26.1447  -29.5317 H   0  0  0  0  0  0  0  0  0  0  0  0
   -5.3110   22.5610  -32.3270 H   0  0  0  0  0  0  0  0  0  0  0  0
   -3.7221   20.1487  -32.5795 H   0  0  0  0  0  0  0  0  0  0  0  0
   -3.5895   19.5023  -30.8965 H   0  0  0  0  0  0  0  0  0  0  0  0
   -5.6826   18.7385  -31.9621 H   0  0  0  0  0  0  0  0  0  0  0  0
   -6.0263   19.8410  -30.5818 H   0  0  0  0  0  0  0  0  0  0  0  0
   -7.3818   21.2395  -30.7385 H   0  0  0  0  0  0  0  0  0  0  0  0
   -7.5606   22.3683  -32.1243 H   0  0  0  0  0  0  0  0  0  0  0  0
   -8.4370   20.8003  -32.1243 H   0  0  0  0  0  0  0  0  0  0  0  0
   -7.8012   19.8412  -33.7902 H   0  0  0  0  0  0  0  0  0  0  0  0
   -6.4288   20.7609  -34.5791 H   0  0  0  0  0  0  0  0  0  0  0  0
   -5.7030   18.2524  -33.1337 H   0  0  0  0  0  0  0  0  0  0  0  0
   -6.6291   18.0651  -34.6614 H   0  0  0  0  0  0  0  0  0  0  0  0
   -5.0663   18.9506  -34.6614 H   0  0  0  0  0  0  0  0  0  0  0  0
   -3.7449   20.5184  -27.8557 H   0  0  0  0  0  0  0  0  0  0  0  0
   -3.7090   18.5037  -24.8875 H   0  0  0  0  0  0  0  0  0  0  0  0
   -4.2473   19.2763  -26.4172 H   0  0  0  0  0  0  0  0  0  0  0  0
   -3.7109   17.5620  -26.4172 H   0  0  0  0  0  0  0  0  0  0  0  0
    0.2336   18.9575  -27.1830 H   0  0  0  0  0  0  0  0  0  0  0  0
    1.0543   20.1670  -29.1954 H   0  0  0  0  0  0  0  0  0  0  0  0
   -0.2686   20.0867  -32.0541 H   0  0  0  0  0  0  0  0  0  0  0  0
   -1.3183   21.4115  -32.6622 H   0  0  0  0  0  0  0  0  0  0  0  0
    0.4671   21.6084  -32.6622 H   0  0  0  0  0  0  0  0  0  0  0  0
   -2.6525   24.6131  -26.8257 H   0  0  0  0  0  0  0  0  0  0  0  0
   -3.3932   23.0443  -27.2914 H   0  0  0  0  0  0  0  0  0  0  0  0
   -1.6065   23.2290  -27.2914 H   0  0  0  0  0  0  0  0  0  0  0  0
  1  2  1  0
  2  3  1  0
  3  4  1  0
  4  5  2  0
  5  6  1  0
  6  7  1  0
  7  8  1  0
  8  9  1  0
  9 10  1  0
  9 11  1  0
 11 12  1  0
  6 13  1  0
 13 14  1  0
 14 15  2  0
 15 16  1  0
 16 17  1  0
 17 18  1  0
 16 19  2  0
 19 20  1  0
 20 21  2  0
 21 22  1  0
 22 23  1  0
 13 24  2  0
 24 25  1  0
 25 26  1  0
 25 27  2  0
 24  4  1  0
 21 14  1  0
  1 28  1  0
  1 29  1  0
  1 30  1  0
  2 31  1  0
  2 32  1  0
  5 33  1  0
  7 34  1  0
  7 35  1  0
  8 36  1  0
  8 37  1  0
 10 38  1  0
 10 39  1  0
 10 40  1  0
 11 41  1  0
 11 42  1  0
 12 43  1  0
 12 44  1  0
 12 45  1  0
 15 46  1  0
 18 47  1  0
 18 48  1  0
 18 49  1  0
 19 50  1  0
 20 51  1  0
 23 52  1  0
 23 53  1  0
 23 54  1  0
 26 55  1  0
 26 56  1  0
 26 57  1  0
M  CHG  1   5   1
M  END
>  <UniqueID>  (9) 
9

>  <SMILES>  (9) 
CCOc1[nH+]n(CCN(C)CC)c(-c2cc(OC)ccc2OC)c1C(C)=O

>  <Energy>  (9) 
95.75041832978603

>  <Genealogy>  (9) 
CCOc1[nH+]n(CCN(C)CC)c(-c2cc(OC)ccc2OC)c1C(C)=O (protonated)
CCOc1[nH+]n(CCN(C)CC)c(-c2cc(OC)ccc2OC)c1C(C)=O (3D coordinates assigned)
CCOc1[nH+]n(CCN(C)CC)c(-c2cc(OC)ccc2OC)c1C(C)=O (optimized conformer: 95.75041832978603 kcal/mol)

>  <smiles>  (9) 
CCOc1nn(CCN(C)CC)c(-c2cc(OC)ccc2OC)c1C(C)=O

>  <score_type>  (9) 
oracle

>  <origin>  (9) 
adg

>  <m_score__min__energy>  (9) 
-6.5199999999999996

>  <m_primary>  (9) 
energy

$$$$
9:0
     RDKit          3D

 45 47  0  0  0  0  0  0  0  0999 V2000
   -9.2520   21.2620  -30.9610 C   0  0  0  0  0  0  0  0  0  0  0  0
   -9.8610   20.8940  -32.3110 C   0  0  0  0  0  0  0  0  0  0  0  0
   -9.0030   19.9490  -33.0400 N   0  0  0  0  0  0  0  0  0  0  0  0
   -8.6750   18.7470  -32.2520 C   0  0  0  0  0  0  0  0  0  0  0  0
   -7.3500   18.1540  -32.7350 C   0  0  0  0  0  0  0  0  0  0  0  0
   -6.6780   19.0520  -33.6710 N   0  0  0  0  0  0  0  0  0  0  0  0
   -5.3990   19.6120  -33.3440 C   0  0  0  0  0  0  0  0  0  0  0  0
   -4.2220   18.9500  -33.7240 C   0  0  0  0  0  0  0  0  0  0  0  0
   -4.2780   17.7540  -34.4700 C   0  0  0  0  0  0  0  0  0  0  0  0
   -3.1090   17.1230  -34.8890 C   0  0  0  0  0  0  0  0  0  0  0  0
   -1.8710   17.6770  -34.5830 C   0  0  0  0  0  0  0  0  0  0  0  0
   -1.7930   18.8510  -33.8330 C   0  0  0  0  0  0  0  0  0  0  0  0
   -2.9640   19.4950  -33.3570 C   0  0  0  0  0  0  0  0  0  0  0  0
   -2.9030   20.6290  -32.5680 N   0  0  0  0  0  0  0  0  0  0  0  0
   -1.6220   21.0260  -31.9410 C   0  0  0  0  0  0  0  0  0  0  0  0
   -4.0450   21.3780  -32.3430 C   0  0  0  0  0  0  0  0  0  0  0  0
   -3.9900   22.6770  -31.7770 C   0  0  0  0  0  0  0  0  0  0  0  0
   -5.1570   23.4150  -31.5100 C   0  0  0  0  0  0  0  0  0  0  0  0
   -5.0800   24.7280  -30.9230 N   0  0  0  0  0  0  0  0  0  0  0  0
   -6.1150   25.3770  -30.6710 O   0  0  0  0  0  0  0  0  0  0  0  0
   -3.8580   25.2940  -30.6350 O   0  0  0  0  0  0  0  0  0  0  0  0
   -6.3980   22.8590  -31.8310 C   0  0  0  0  0  0  0  0  0  0  0  0
   -6.4790   21.6040  -32.4290 C   0  0  0  0  0  0  0  0  0  0  0  0
   -5.3160   20.8590  -32.7010 C   0  0  0  0  0  0  0  0  0  0  0  0
   -9.8909   20.8759  -30.1531 H   0  0  0  0  0  0  0  0  0  0  0  0
   -8.2486   20.8190  -30.8784 H   0  0  0  0  0  0  0  0  0  0  0  0
   -9.1776   22.3564  -30.8784 H   0  0  0  0  0  0  0  0  0  0  0  0
  -10.8456   20.4318  -32.1467 H   0  0  0  0  0  0  0  0  0  0  0  0
   -9.9588   21.8107  -32.9111 H   0  0  0  0  0  0  0  0  0  0  0  0
   -9.5260   19.6470  -33.8950 H   0  0  0  0  0  0  0  0  0  0  0  0
   -8.5870   19.0198  -31.1900 H   0  0  0  0  0  0  0  0  0  0  0  0
   -9.4736   18.0013  -32.3792 H   0  0  0  0  0  0  0  0  0  0  0  0
   -6.6953   17.9851  -31.8674 H   0  0  0  0  0  0  0  0  0  0  0  0
   -7.5611   17.2066  -33.2526 H   0  0  0  0  0  0  0  0  0  0  0  0
   -7.0840   19.2480  -34.6140 H   0  0  0  0  0  0  0  0  0  0  0  0
   -5.2544   17.3154  -34.7233 H   0  0  0  0  0  0  0  0  0  0  0  0
   -3.1653   16.1859  -35.4623 H   0  0  0  0  0  0  0  0  0  0  0  0
   -0.9500   17.1881  -34.9333 H   0  0  0  0  0  0  0  0  0  0  0  0
   -0.8075   19.2842  -33.6071 H   0  0  0  0  0  0  0  0  0  0  0  0
   -1.7243   20.9943  -30.8462 H   0  0  0  0  0  0  0  0  0  0  0  0
   -0.8291   20.3314  -32.2554 H   0  0  0  0  0  0  0  0  0  0  0  0
   -1.3608   22.0472  -32.2554 H   0  0  0  0  0  0  0  0  0  0  0  0
   -3.0104   23.1183  -31.5410 H   0  0  0  0  0  0  0  0  0  0  0  0
   -7.3193   23.4176  -31.6093 H   0  0  0  0  0  0  0  0  0  0  0  0
   -7.4635   21.1899  -32.6920 H   0  0  0  0  0  0  0  0  0  0  0  0
  1  2  1  0
  2  3  1  0
  3  4  1  0
  4  5  1  0
  5  6  1  0
  6  7  1  0
  7  8  2  0
  8  9  1  0
  9 10  2  0
 10 11  1  0
 11 12  2  0
 12 13  1  0
 13 14  2  0
 14 15  1  0
 14 16  1  0
 16 17  2  0
 17 18  1  0
 18 19  1  0
 19 20  2  0
 19 21  1  0
 18 22  2  0
 22 23  1  0
 23 24  2  0
 24  7  1  0
 13  8  1  0
 24 16  1  0
  1 25  1  0
  1 26  1  0
  1 27  1  0
  2 28  1  0
  2 29  1  0
  3 30  1  0
  4 31  1  0
  4 32  1  0
  5 33  1  0
  5 34  1  0
  6 35  1  0
  9 36  1  0
 10 37  1  0
 11 38  1  0
 12 39  1  0
 15 40  1  0
 15 41  1  0
 15 42  1  0
 17 43  1  0
 22 44  1  0
 23 45  1  0
M  CHG  3  14   1  19   1  21  -1
M  END
>  <UniqueID>  (10) 
10

>  <SMILES>  (10) 
CCNCCNc1c2ccccc2[n+](C)c2cc([N+](=O)[O-])ccc12

>  <Energy>  (10) 
70.69443370805351

>  <Genealogy>  (10) 
CCNCCNc1c2ccccc2[n+](C)c2cc([N+](=O)[O-])ccc12 (3D coordinates assigned)
CCNCCNc1c2ccccc2[n+](C)c2cc([N+](=O)[O-])ccc12 (optimized conformer: 70.69443370805351 kcal/mol)

>  <smiles>  (10) 
CCNCCNc1c2ccccc2[n+](C)c2cc([N+](=O)[O-])ccc12

>  <score_type>  (10) 
oracle

>  <origin>  (10) 
adg

>  <m_score__min__energy>  (10) 
-8.8399999999999999

>  <m_primary>  (10) 
energy

$$$$
10:0
     RDKit          3D

 52 53  0  0  0  0  0  0  0  0999 V2000
   -9.1173   23.6775  -31.0655 H   0  0  0  0  0  0  0  0  0  0  0  0
   -8.2360   23.0730  -31.3260 C   0  0  0  0  0  0  0  0  0  0  0  0
   -8.4290   21.9210  -31.9800 C   0  0  0  0  0  0  0  0  0  0  0  0
   -8.5004   21.9583  -33.0770 H   0  0  0  0  0  0  0  0  0  0  0  0
   -8.5550   20.5740  -31.3100 C   0  0  0  0  0  0  0  0  0  0  0  0
   -9.1337   20.6968  -30.3826 H   0  0  0  0  0  0  0  0  0  0  0  0
   -7.5364   20.2081  -31.1136 H   0  0  0  0  0  0  0  0  0  0  0  0
   -9.2010   19.6110  -32.1200 O   0  0  0  0  0  0  0  0  0  0  0  0
   -8.7370   18.3040  -31.8330 C   0  0  0  0  0  0  0  0  0  0  0  0
   -9.5413   17.5810  -32.0340 H   0  0  0  0  0  0  0  0  0  0  0  0
   -8.4410   18.2536  -30.7748 H   0  0  0  0  0  0  0  0  0  0  0  0
   -7.5250   17.9670  -32.7060 C   0  0  0  0  0  0  0  0  0  0  0  0
   -7.8708   17.6931  -33.7137 H   0  0  0  0  0  0  0  0  0  0  0  0
   -6.9815   17.1277  -32.2476 H   0  0  0  0  0  0  0  0  0  0  0  0
   -6.6080   19.1330  -32.8050 N   0  0  0  0  0  0  0  0  0  0  0  0
   -6.0370   19.2620  -34.1650 C   0  0  0  0  0  0  0  0  0  0  0  0
   -5.1463   19.9061  -34.1242 H   0  0  0  0  0  0  0  0  0  0  0  0
   -6.7943   19.7046  -34.8288 H   0  0  0  0  0  0  0  0  0  0  0  0
   -5.6420   17.8920  -34.7100 C   0  0  0  0  0  0  0  0  0  0  0  0
   -5.4445   17.2071  -33.8722 H   0  0  0  0  0  0  0  0  0  0  0  0
   -6.4614   17.4920  -35.3253 H   0  0  0  0  0  0  0  0  0  0  0  0
   -4.7354   17.9896  -35.3253 H   0  0  0  0  0  0  0  0  0  0  0  0
   -5.5370   19.0590  -31.7830 C   0  0  0  0  0  0  0  0  0  0  0  0
   -5.9421   19.3798  -30.8119 H   0  0  0  0  0  0  0  0  0  0  0  0
   -5.1771   18.0213  -31.7231 H   0  0  0  0  0  0  0  0  0  0  0  0
   -4.3670   19.9620  -32.1600 C   0  0  0  0  0  0  0  0  0  0  0  0
   -3.8828   20.3357  -31.2457 H   0  0  0  0  0  0  0  0  0  0  0  0
   -3.6384   19.3898  -32.7531 H   0  0  0  0  0  0  0  0  0  0  0  0
   -4.7360   20.8118  -32.7531 H   0  0  0  0  0  0  0  0  0  0  0  0
   -6.9090   23.5740  -30.9370 C   0  0  0  0  0  0  0  0  0  0  0  0
   -6.7960   24.7190  -30.1400 C   0  0  0  0  0  0  0  0  0  0  0  0
   -7.7018   25.2571  -29.8238 H   0  0  0  0  0  0  0  0  0  0  0  0
   -5.5390   25.1820  -29.7440 C   0  0  0  0  0  0  0  0  0  0  0  0
   -5.4597   26.0918  -29.1309 H   0  0  0  0  0  0  0  0  0  0  0  0
   -4.3730   24.4910  -30.1250 C   0  0  0  0  0  0  0  0  0  0  0  0
   -3.0600   24.9420  -29.7370 N   0  0  0  0  0  0  0  0  0  0  0  0
   -2.5920   25.6730  -30.3200 H   0  0  0  0  0  0  0  0  0  0  0  0
   -2.3660   24.5130  -28.5220 C   0  0  0  0  0  0  0  0  0  0  0  0
   -1.3558   24.9483  -28.5110 H   0  0  0  0  0  0  0  0  0  0  0  0
   -2.9402   24.8555  -27.6485 H   0  0  0  0  0  0  0  0  0  0  0  0
   -2.2580   23.0210  -28.4700 C   0  0  0  0  0  0  0  0  0  0  0  0
   -1.0430   22.1030  -29.1850 S   0  0  0  0  0  0  0  0  0  0  0  0
   -1.5980   20.6110  -28.6420 C   0  0  0  0  0  0  0  0  0  0  0  0
   -1.1341   19.6359  -28.8518 H   0  0  0  0  0  0  0  0  0  0  0  0
   -2.7430   20.8210  -27.8830 C   0  0  0  0  0  0  0  0  0  0  0  0
   -3.3080   20.0052  -27.4084 H   0  0  0  0  0  0  0  0  0  0  0  0
   -3.1100   22.1680  -27.7790 C   0  0  0  0  0  0  0  0  0  0  0  0
   -3.9838   22.5157  -27.2084 H   0  0  0  0  0  0  0  0  0  0  0  0
   -4.4980   23.3260  -30.8990 C   0  0  0  0  0  0  0  0  0  0  0  0
   -3.5966   22.7681  -31.1928 H   0  0  0  0  0  0  0  0  0  0  0  0
   -5.7570   22.8680  -31.3000 C   0  0  0  0  0  0  0  0  0  0  0  0
   -5.8417   21.9511  -31.9018 H   0  0  0  0  0  0  0  0  0  0  0  0
  1  2  1  0
  2  3  2  0
  3  4  1  0
  3  5  1  0
  5  6  1  0
  5  7  1  0
  5  8  1  0
  8  9  1  0
  9 10  1  0
  9 11  1  0
  9 12  1  0
 12 13  1  0
 12 14  1  0
 12 15  1  0
 15 16  1  0
 16 17  1  0
 16 18  1  0
 16 19  1  0
 19 20  1  0
 19 21  1  0
 19 22  1  0
 15 23  1  0
 23 24  1  0
 23 25  1  0
 23 26  1  0
 26 27  1  0
 26 28  1  0
 26 29  1  0
  2 30  1  0
 30 31  2  0
 31 32  1  0
 31 33  1  0
 33 34  1  0
 33 35  2  0
 35 36  1  0
 36 37  1  0
 36 38  1  0
 38 39  1  0
 38 40  1  0
 38 41  1  0
 41 42  1  0
 42 43  1  0
 43 44  1  0
 43 45  2  0
 45 46  1  0
 45 47  1  0
 47 48  1  0
 35 49  1  0
 49 50  1  0
 49 51  2  0
 51 52  1  0
 51 30  1  0
 47 41  2  0
M  END
>  <UniqueID>  (11) 
11

>  <SMILES>  (11) 
CCN(CC)CCOC/C=C\c1ccc(NCc2cccs2)cc1

>  <Energy>  (11) 
79.0389610872916

>  <Genealogy>  (11) 
CCN(CC)CCOC/C=C\c1ccc(NCc2cccs2)cc1 (cis-trans isomerization)
CCN(CC)CCOC/C=C\c1ccc(NCc2cccs2)cc1 (3D coordinates assigned)
CCN(CC)CCOC/C=C\c1ccc(NCc2cccs2)cc1 (optimized conformer: 79.0389610872916 kcal/mol)

>  <smiles>  (11) 
CCN(CC)CCOCC=Cc1ccc(NCc2cccs2)cc1

>  <score_type>  (11) 
oracle

>  <origin>  (11) 
adg

>  <m_score__min__energy>  (11) 
-8.6799999999999997

>  <m_primary>  (11) 
energy

$$$$
11:0
     RDKit          3D

 41 42  0  0  0  0  0  0  0  0999 V2000
   -6.4510   25.0520  -29.7240 C   0  0  0  0  0  0  0  0  0  0  0  0
   -5.4270   25.3030  -30.8340 C   0  0  0  0  0  0  0  0  0  0  0  0
   -4.4770   24.1880  -30.9890 N   0  0  0  0  0  0  0  0  0  0  0  0
   -3.5100   24.1330  -29.8860 C   0  0  0  0  0  0  0  0  0  0  0  0
   -2.8030   22.7760  -29.8740 C   0  0  0  0  0  0  0  0  0  0  0  0
   -3.5070   21.8600  -30.6940 O   0  0  0  0  0  0  0  0  0  0  0  0
   -2.6520   21.1440  -31.5690 C   0  0  0  0  0  0  0  0  0  0  0  0
   -3.1490   21.2130  -33.0290 C   0  0  0  0  0  0  0  0  0  0  0  0
   -4.4950   21.8170  -33.1330 N   0  0  0  0  0  0  0  0  0  0  0  0
   -5.5720   20.8400  -33.0850 C   0  0  0  0  0  0  0  0  0  0  0  0
   -5.3870   19.5510  -33.6270 C   0  0  0  0  0  0  0  0  0  0  0  0
   -6.4060   18.6020  -33.5330 C   0  0  0  0  0  0  0  0  0  0  0  0
   -6.2240   17.4400  -33.9800 O   0  0  0  0  0  0  0  0  0  0  0  0
   -7.5670   18.9150  -32.9780 O   0  0  0  0  0  0  0  0  0  0  0  0
   -7.8360   20.1290  -32.5130 C   0  0  0  0  0  0  0  0  0  0  0  0
   -9.1030   20.3800  -31.9750 C   0  0  0  0  0  0  0  0  0  0  0  0
   -9.4390   21.6580  -31.5310 C   0  0  0  0  0  0  0  0  0  0  0  0
   -8.5140   22.6960  -31.6320 C   0  0  0  0  0  0  0  0  0  0  0  0
   -7.2370   22.4580  -32.1500 C   0  0  0  0  0  0  0  0  0  0  0  0
   -6.8640   21.1620  -32.5750 C   0  0  0  0  0  0  0  0  0  0  0  0
   -5.9659   25.1709  -28.7439 H   0  0  0  0  0  0  0  0  0  0  0  0
   -7.2752   25.7747  -29.8153 H   0  0  0  0  0  0  0  0  0  0  0  0
   -6.8476   24.0301  -29.8153 H   0  0  0  0  0  0  0  0  0  0  0  0
   -5.9638   25.4434  -31.7838 H   0  0  0  0  0  0  0  0  0  0  0  0
   -4.8494   26.1979  -30.5592 H   0  0  0  0  0  0  0  0  0  0  0  0
   -5.0050   23.2840  -31.0290 H   0  0  0  0  0  0  0  0  0  0  0  0
   -2.7640   24.9308  -30.0160 H   0  0  0  0  0  0  0  0  0  0  0  0
   -4.0423   24.2702  -28.9332 H   0  0  0  0  0  0  0  0  0  0  0  0
   -1.7783   22.8949  -30.2559 H   0  0  0  0  0  0  0  0  0  0  0  0
   -2.7728   22.3917  -28.8438 H   0  0  0  0  0  0  0  0  0  0  0  0
   -1.6420   21.5763  -31.5146 H   0  0  0  0  0  0  0  0  0  0  0  0
   -2.6443   20.0892  -31.2569 H   0  0  0  0  0  0  0  0  0  0  0  0
   -2.4426   21.8189  -33.6154 H   0  0  0  0  0  0  0  0  0  0  0  0
   -3.2098   20.1844  -33.4140 H   0  0  0  0  0  0  0  0  0  0  0  0
   -4.5910   22.4870  -32.3440 H   0  0  0  0  0  0  0  0  0  0  0  0
   -4.5680   22.3530  -34.0290 H   0  0  0  0  0  0  0  0  0  0  0  0
   -4.4398   19.2938  -34.1237 H   0  0  0  0  0  0  0  0  0  0  0  0
   -9.8378   19.5646  -31.9020 H   0  0  0  0  0  0  0  0  0  0  0  0
  -10.4337   21.8473  -31.1011 H   0  0  0  0  0  0  0  0  0  0  0  0
   -8.7902   23.7084  -31.3023 H   0  0  0  0  0  0  0  0  0  0  0  0
   -6.5168   23.2858  -32.2275 H   0  0  0  0  0  0  0  0  0  0  0  0
  1  2  1  0
  2  3  1  0
  3  4  1  0
  4  5  1  0
  5  6  1  0
  6  7  1  0
  7  8  1  0
  8  9  1  0
  9 10  1  0
 10 11  2  0
 11 12  1  0
 12 13  2  0
 12 14  1  0
 14 15  1  0
 15 16  2  0
 16 17  1  0
 17 18  2  0
 18 19  1  0
 19 20  2  0
 20 10  1  0
 20 15  1  0
  1 21  1  0
  1 22  1  0
  1 23  1  0
  2 24  1  0
  2 25  1  0
  3 26  1  0
  4 27  1  0
  4 28  1  0
  5 29  1  0
  5 30  1  0
  7 31  1  0
  7 32  1  0
  8 33  1  0
  8 34  1  0
  9 35  1  0
  9 36  1  0
 11 37  1  0
 16 38  1  0
 17 39  1  0
 18 40  1  0
 19 41  1  0
M  CHG  1   9   1
M  END
>  <UniqueID>  (12) 
12

>  <SMILES>  (12) 
CCNCCOCC[NH2+]c1cc(=O)oc2ccccc12

>  <Energy>  (12) 
51.49102983525814

>  <Genealogy>  (12) 
CCNCCOCC[NH2+]c1cc(=O)oc2ccccc12 (protonated)
CCNCCOCC[NH2+]c1cc(=O)oc2ccccc12 (3D coordinates assigned)
CCNCCOCC[NH2+]c1cc(=O)oc2ccccc12 (optimized conformer: 51.49102983525814 kcal/mol)

>  <smiles>  (12) 
CCNCCOCCNc1cc(=O)oc2ccccc12

>  <score_type>  (12) 
oracle

>  <origin>  (12) 
adg

>  <m_score__min__energy>  (12) 
-7.04

>  <m_primary>  (12) 
energy

$$$$
12:0
     RDKit          3D

 59 61  0  0  0  0  0  0  0  0999 V2000
   -3.1560   18.9200  -26.2360 C   0  0  0  0  0  0  0  0  0  0  0  0
   -2.6640   19.6990  -27.4580 C   0  0  0  0  0  0  0  0  0  0  0  0
   -3.1170   21.1040  -27.4390 N   0  0  0  0  0  0  0  0  0  0  0  0
   -2.0170   22.0760  -27.5230 C   0  0  0  0  0  0  0  0  0  0  0  0
   -2.5130   23.4850  -27.9090 C   0  0  0  0  0  0  0  0  0  0  0  0
   -3.9300   23.4900  -28.3070 N   0  0  0  0  0  0  0  0  0  0  0  0
   -4.1520   24.1580  -29.5990 C   0  0  0  0  0  0  0  0  0  0  0  0
   -4.0960   23.1380  -30.7500 C   0  0  0  0  0  0  0  0  0  0  0  0
   -4.0830   21.7400  -30.2840 N   0  0  0  0  0  0  0  0  0  0  0  0
   -3.5510   20.8090  -31.2910 C   0  0  0  0  0  0  0  0  0  0  0  0
   -3.2800   21.5500  -32.6020 C   0  0  0  0  0  0  0  0  0  0  0  0
   -4.4780   21.5790  -33.4400 N   0  0  0  0  0  0  0  0  0  0  0  0
   -5.6170   20.7720  -33.1070 C   0  0  0  0  0  0  0  0  0  0  0  0
   -6.7670   21.3640  -32.5610 C   0  0  0  0  0  0  0  0  0  0  0  0
   -6.8200   22.7540  -32.3260 C   0  0  0  0  0  0  0  0  0  0  0  0
   -7.9830   23.3490  -31.8440 C   0  0  0  0  0  0  0  0  0  0  0  0
   -9.1110   22.5750  -31.5960 C   0  0  0  0  0  0  0  0  0  0  0  0
   -9.0730   21.1950  -31.7970 C   0  0  0  0  0  0  0  0  0  0  0  0
   -7.8890   20.5520  -32.2450 C   0  0  0  0  0  0  0  0  0  0  0  0
   -7.8150   19.1780  -32.3890 N   0  0  0  0  0  0  0  0  0  0  0  0
   -8.8650   18.3140  -31.8030 C   0  0  0  0  0  0  0  0  0  0  0  0
   -6.7420   18.6070  -33.0510 C   0  0  0  0  0  0  0  0  0  0  0  0
   -6.7410   17.2410  -33.4370 C   0  0  0  0  0  0  0  0  0  0  0  0
   -5.6300   16.6690  -34.0560 C   0  0  0  0  0  0  0  0  0  0  0  0
   -4.5020   17.4380  -34.3210 C   0  0  0  0  0  0  0  0  0  0  0  0
   -4.4890   18.7910  -33.9940 C   0  0  0  0  0  0  0  0  0  0  0  0
   -5.6070   19.3960  -33.3810 C   0  0  0  0  0  0  0  0  0  0  0  0
   -2.8317   19.4335  -25.3189 H   0  0  0  0  0  0  0  0  0  0  0  0
   -4.2543   18.8629  -26.2554 H   0  0  0  0  0  0  0  0  0  0  0  0
   -2.7356   17.9037  -26.2554 H   0  0  0  0  0  0  0  0  0  0  0  0
   -1.5642   19.6809  -27.4712 H   0  0  0  0  0  0  0  0  0  0  0  0
   -3.0814   19.2202  -28.3561 H   0  0  0  0  0  0  0  0  0  0  0  0
   -3.8230   21.3010  -28.1870 H   0  0  0  0  0  0  0  0  0  0  0  0
   -1.5180   22.1318  -26.5443 H   0  0  0  0  0  0  0  0  0  0  0  0
   -1.3242   21.7353  -28.3066 H   0  0  0  0  0  0  0  0  0  0  0  0
   -2.3862   24.1535  -27.0447 H   0  0  0  0  0  0  0  0  0  0  0  0
   -1.9206   23.8253  -28.7712 H   0  0  0  0  0  0  0  0  0  0  0  0
   -4.2640   22.5000  -28.3680 H   0  0  0  0  0  0  0  0  0  0  0  0
   -5.1401   24.6414  -29.5915 H   0  0  0  0  0  0  0  0  0  0  0  0
   -3.3632   24.9095  -29.7510 H   0  0  0  0  0  0  0  0  0  0  0  0
   -4.9777   23.2850  -31.3912 H   0  0  0  0  0  0  0  0  0  0  0  0
   -3.1564   23.3105  -31.2954 H   0  0  0  0  0  0  0  0  0  0  0  0
   -3.5210   21.6560  -29.4050 H   0  0  0  0  0  0  0  0  0  0  0  0
   -2.6128   20.3700  -30.9207 H   0  0  0  0  0  0  0  0  0  0  0  0
   -4.2901   20.0149  -31.4728 H   0  0  0  0  0  0  0  0  0  0  0  0
   -2.9730   22.5818  -32.3761 H   0  0  0  0  0  0  0  0  0  0  0  0
   -2.4822   21.0232  -33.1460 H   0  0  0  0  0  0  0  0  0  0  0  0
   -4.5700   22.2690  -34.2190 H   0  0  0  0  0  0  0  0  0  0  0  0
   -5.9336   23.3741  -32.5255 H   0  0  0  0  0  0  0  0  0  0  0  0
   -8.0093   24.4330  -31.6592 H   0  0  0  0  0  0  0  0  0  0  0  0
  -10.0361   23.0521  -31.2403 H   0  0  0  0  0  0  0  0  0  0  0  0
   -9.9750   20.5953  -31.6053 H   0  0  0  0  0  0  0  0  0  0  0  0
   -8.8081   18.3608  -30.7055 H   0  0  0  0  0  0  0  0  0  0  0  0
   -9.8542   18.6632  -32.1341 H   0  0  0  0  0  0  0  0  0  0  0  0
   -8.7128   17.2761  -32.1341 H   0  0  0  0  0  0  0  0  0  0  0  0
   -7.6309   16.6237  -33.2448 H   0  0  0  0  0  0  0  0  0  0  0  0
   -5.6459   15.6053  -34.3358 H   0  0  0  0  0  0  0  0  0  0  0  0
   -3.6198   16.9770  -34.7891 H   0  0  0  0  0  0  0  0  0  0  0  0
   -3.5972   19.3955  -34.2159 H   0  0  0  0  0  0  0  0  0  0  0  0
  1  2  1  0
  2  3  1  0
  3  4  1  0
  4  5  1  0
  5  6  1  0
  6  7  1  0
  7  8  1  0
  8  9  1  0
  9 10  1  0
 10 11  1  0
 11 12  1  0
 12 13  1  0
 13 14  2  0
 14 15  1  0
 15 16  2  0
 16 17  1  0
 17 18  2  0
 18 19  1  0
 19 20  2  0
 20 21  1  0
 20 22  1  0
 22 23  2  0
 23 24  1  0
 24 25  2  0
 25 26  1  0
 26 27  2  0
 27 13  1  0
 19 14  1  0
 27 22  1  0
  1 28  1  0
  1 29  1  0
  1 30  1  0
  2 31  1  0
  2 32  1  0
  3 33  1  0
  4 34  1  0
  4 35  1  0
  5 36  1  0
  5 37  1  0
  6 38  1  0
  7 39  1  0
  7 40  1  0
  8 41  1  0
  8 42  1  0
  9 43  1  0
 10 44  1  0
 10 45  1  0
 11 46  1  0
 11 47  1  0
 12 48  1  0
 15 49  1  0
 16 50  1  0
 17 51  1  0
 18 52  1  0
 21 53  1  0
 21 54  1  0
 21 55  1  0
 23 56  1  0
 24 57  1  0
 25 58  1  0
 26 59  1  0
M  CHG  1  20   1
M  END
>  <UniqueID>  (13) 
13

>  <SMILES>  (13) 
CCNCCNCCNCCNc1c2ccccc2[n+](C)c2ccccc12

>  <Energy>  (13) 
84.90890900058743

>  <Genealogy>  (13) 
CCNCCNCCNCCNc1c2ccccc2[n+](C)c2ccccc12 (3D coordinates assigned)
CCNCCNCCNCCNc1c2ccccc2[n+](C)c2ccccc12 (optimized conformer: 84.90890900058743 kcal/mol)

>  <smiles>  (13) 
CCNCCNCCNCCNc1c2ccccc2[n+](C)c2ccccc12

>  <score_type>  (13) 
oracle

>  <origin>  (13) 
adg

>  <m_score__min__energy>  (13) 
-8.5999999999999996

>  <m_primary>  (13) 
energy

$$$$
13:0
     RDKit          3D

 79 82  0  0  0  0  0  0  0  0999 V2000
   -6.0880   25.7180  -30.3110 C   0  0  0  0  0  0  0  0  0  0  0  0
   -5.2020   24.7990  -29.4650 C   0  0  0  0  0  0  0  0  0  0  0  0
   -3.9590   24.3580  -30.1410 N   0  0  0  0  0  0  0  0  0  0  0  0
   -2.6990   24.5600  -29.3900 C   0  0  0  0  0  0  0  0  0  0  0  0
   -2.8220   24.3640  -27.8700 C   0  0  0  0  0  0  0  0  0  0  0  0
   -4.0470   23.1000  -30.9130 C   0  0  0  0  0  0  0  0  0  0  0  0
   -5.5010   22.7490  -31.2630 C   0  0  0  0  0  0  0  0  0  0  0  0
   -5.6550   22.4260  -32.6900 N   0  0  0  0  0  0  0  0  0  0  0  0
   -5.6490   20.9850  -32.8910 C   0  0  0  0  0  0  0  0  0  0  0  0
   -6.8230   20.2180  -32.6690 C   0  0  0  0  0  0  0  0  0  0  0  0
   -8.0660   20.8270  -32.3620 C   0  0  0  0  0  0  0  0  0  0  0  0
   -9.1820   20.0610  -32.0380 C   0  0  0  0  0  0  0  0  0  0  0  0
   -9.0950   18.6770  -32.0180 C   0  0  0  0  0  0  0  0  0  0  0  0
   -7.9060   18.0490  -32.3740 C   0  0  0  0  0  0  0  0  0  0  0  0
   -6.7640   18.7990  -32.7570 C   0  0  0  0  0  0  0  0  0  0  0  0
   -5.6140   18.1760  -33.1970 N   0  0  0  0  0  0  0  0  0  0  0  0
   -5.6550   16.7520  -33.6020 C   0  0  0  0  0  0  0  0  0  0  0  0
   -4.4410   18.8920  -33.3290 C   0  0  0  0  0  0  0  0  0  0  0  0
   -3.1980   18.2350  -33.5260 C   0  0  0  0  0  0  0  0  0  0  0  0
   -2.0240   18.9540  -33.7940 C   0  0  0  0  0  0  0  0  0  0  0  0
   -0.7840   18.3340  -34.0250 O   0  0  0  0  0  0  0  0  0  0  0  0
   -0.3470   17.7640  -35.2600 C   0  0  0  0  0  0  0  0  0  0  0  0
    1.1050   18.1860  -35.6140 C   0  0  0  0  0  0  0  0  0  0  0  0
    1.4480   19.6480  -35.4820 N   0  0  0  0  0  0  0  0  0  0  0  0
    1.6040   19.9750  -34.0380 C   0  0  0  0  0  0  0  0  0  0  0  0
    0.3590   20.4580  -36.1150 C   0  0  0  0  0  0  0  0  0  0  0  0
    0.2310   21.9230  -35.6590 C   0  0  0  0  0  0  0  0  0  0  0  0
    1.4050   22.8150  -36.0660 C   0  0  0  0  0  0  0  0  0  0  0  0
    2.7140   22.3440  -35.4310 C   0  0  0  0  0  0  0  0  0  0  0  0
    3.4340   21.2080  -36.1770 C   0  0  0  0  0  0  0  0  0  0  0  0
    2.7440   19.8220  -36.2280 C   0  0  0  0  0  0  0  0  0  0  0  0
   -2.0770   20.3410  -33.8360 C   0  0  0  0  0  0  0  0  0  0  0  0
   -3.2640   21.0160  -33.5670 C   0  0  0  0  0  0  0  0  0  0  0  0
   -4.4530   20.3110  -33.2590 C   0  0  0  0  0  0  0  0  0  0  0  0
   -6.6978   26.3505  -29.6491 H   0  0  0  0  0  0  0  0  0  0  0  0
   -5.4547   26.3552  -30.9458 H   0  0  0  0  0  0  0  0  0  0  0  0
   -6.7479   25.1084  -30.9458 H   0  0  0  0  0  0  0  0  0  0  0  0
   -4.9225   25.3386  -28.5481 H   0  0  0  0  0  0  0  0  0  0  0  0
   -5.7904   23.8914  -29.2648 H   0  0  0  0  0  0  0  0  0  0  0  0
   -1.9549   23.8441  -29.7692 H   0  0  0  0  0  0  0  0  0  0  0  0
   -2.4072   25.6089  -29.5467 H   0  0  0  0  0  0  0  0  0  0  0  0
   -2.3063   25.1857  -27.3514 H   0  0  0  0  0  0  0  0  0  0  0  0
   -3.8846   24.3605  -27.5856 H   0  0  0  0  0  0  0  0  0  0  0  0
   -2.3631   23.4056  -27.5856 H   0  0  0  0  0  0  0  0  0  0  0  0
   -3.4732   23.2126  -31.8447 H   0  0  0  0  0  0  0  0  0  0  0  0
   -3.6377   22.2882  -30.2938 H   0  0  0  0  0  0  0  0  0  0  0  0
   -5.8115   21.8793  -30.6652 H   0  0  0  0  0  0  0  0  0  0  0  0
   -6.1281   23.6249  -31.0403 H   0  0  0  0  0  0  0  0  0  0  0  0
   -6.5280   22.8510  -33.0720 H   0  0  0  0  0  0  0  0  0  0  0  0
   -4.9100   22.8890  -33.2550 H   0  0  0  0  0  0  0  0  0  0  0  0
   -8.1498   21.9237  -32.3802 H   0  0  0  0  0  0  0  0  0  0  0  0
  -10.1352   20.5545  -31.7972 H   0  0  0  0  0  0  0  0  0  0  0  0
   -9.9667   18.0756  -31.7205 H   0  0  0  0  0  0  0  0  0  0  0  0
   -7.8500   16.9505  -32.3583 H   0  0  0  0  0  0  0  0  0  0  0  0
   -5.6733   16.1160  -32.7047 H   0  0  0  0  0  0  0  0  0  0  0  0
   -6.5588   16.5670  -34.2011 H   0  0  0  0  0  0  0  0  0  0  0  0
   -4.7633   16.5153  -34.2011 H   0  0  0  0  0  0  0  0  0  0  0  0
   -3.1547   17.1374  -33.4671 H   0  0  0  0  0  0  0  0  0  0  0  0
   -0.3886   16.6677  -35.1796 H   0  0  0  0  0  0  0  0  0  0  0  0
   -1.0110   18.1300  -36.0569 H   0  0  0  0  0  0  0  0  0  0  0  0
    1.7830   17.6259  -34.9533 H   0  0  0  0  0  0  0  0  0  0  0  0
    1.2116   17.9650  -36.6863 H   0  0  0  0  0  0  0  0  0  0  0  0
    1.2093   19.1476  -33.4300 H   0  0  0  0  0  0  0  0  0  0  0  0
    2.6696   20.1228  -33.8085 H   0  0  0  0  0  0  0  0  0  0  0  0
    1.0484   20.8962  -33.8085 H   0  0  0  0  0  0  0  0  0  0  0  0
    0.5346   20.4613  -37.2009 H   0  0  0  0  0  0  0  0  0  0  0  0
   -0.5786   19.9754  -35.8020 H   0  0  0  0  0  0  0  0  0  0  0  0
   -0.6872   22.3411  -36.0974 H   0  0  0  0  0  0  0  0  0  0  0  0
    0.2127   21.9096  -34.5592 H   0  0  0  0  0  0  0  0  0  0  0  0
    1.5098   22.7904  -37.1607 H   0  0  0  0  0  0  0  0  0  0  0  0
    1.1995   23.8370  -35.7149 H   0  0  0  0  0  0  0  0  0  0  0  0
    3.3970   23.2048  -35.3817 H   0  0  0  0  0  0  0  0  0  0  0  0
    2.4452   21.9382  -34.4446 H   0  0  0  0  0  0  0  0  0  0  0  0
    3.5802   21.5394  -37.2156 H   0  0  0  0  0  0  0  0  0  0  0  0
    4.3532   21.0370  -35.5975 H   0  0  0  0  0  0  0  0  0  0  0  0
    2.5452   19.5947  -37.2857 H   0  0  0  0  0  0  0  0  0  0  0  0
    3.4468   19.1471  -35.7174 H   0  0  0  0  0  0  0  0  0  0  0  0
   -1.1707   20.9126  -34.0847 H   0  0  0  0  0  0  0  0  0  0  0  0
   -3.2789   22.1156  -33.5941 H   0  0  0  0  0  0  0  0  0  0  0  0
  1  2  1  0
  2  3  1  0
  3  4  1  0
  4  5  1  0
  3  6  1  0
  6  7  1  0
  7  8  1  0
  8  9  1  0
  9 10  2  0
 10 11  1  0
 11 12  2  0
 12 13  1  0
 13 14  2  0
 14 15  1  0
 15 16  2  0
 16 17  1  0
 16 18  1  0
 18 19  2  0
 19 20  1  0
 20 21  1  0
 21 22  1  0
 22 23  1  0
 23 24  1  0
 24 25  1  0
 24 26  1  0
 26 27  1  0
 27 28  1  0
 28 29  1  0
 29 30  1  0
 30 31  1  0
 20 32  2  0
 32 33  1  0
 33 34  2  0
 34  9  1  0
 15 10  1  0
 34 18  1  0
 31 24  1  0
  1 35  1  0
  1 36  1  0
  1 37  1  0
  2 38  1  0
  2 39  1  0
  4 40  1  0
  4 41  1  0
  5 42  1  0
  5 43  1  0
  5 44  1  0
  6 45  1  0
  6 46  1  0
  7 47  1  0
  7 48  1  0
  8 49  1  0
  8 50  1  0
 11 51  1  0
 12 52  1  0
 13 53  1  0
 14 54  1  0
 17 55  1  0
 17 56  1  0
 17 57  1  0
 19 58  1  0
 22 59  1  0
 22 60  1  0
 23 61  1  0
 23 62  1  0
 25 63  1  0
 25 64  1  0
 25 65  1  0
 26 66  1  0
 26 67  1  0
 27 68  1  0
 27 69  1  0
 28 70  1  0
 28 71  1  0
 29 72  1  0
 29 73  1  0
 30 74  1  0
 30 75  1  0
 31 76  1  0
 31 77  1  0
 32 78  1  0
 33 79  1  0
M  CHG  3   8   1  16   1  24   1
M  END
>  <UniqueID>  (14) 
14

>  <SMILES>  (14) 
CCN(CC)CC[NH2+]c1c2ccccc2[n+](C)c2cc(OCC[N+]3(C)CCCCCC3)ccc12

>  <Energy>  (14) 
139.0096725909193

>  <Genealogy>  (14) 
CCN(CC)CC[NH2+]c1c2ccccc2[n+](C)c2cc(OCC[N+]3(C)CCCCCC3)ccc12 (protonated)
CCN(CC)CC[NH2+]c1c2ccccc2[n+](C)c2cc(OCC[N+]3(C)CCCCCC3)ccc12 (3D coordinates assigned)
CCN(CC)CC[NH2+]c1c2ccccc2[n+](C)c2cc(OCC[N+]3(C)CCCCCC3)ccc12 (nonaromatic ring conformer: 139.0096725909193 kcal/mol)

>  <smiles>  (14) 
CCN(CC)CCNc1c2ccccc2[n+](C)c2cc(OCC[N+]3(C)CCCCCC3)ccc12

>  <score_type>  (14) 
oracle

>  <origin>  (14) 
adg

>  <m_score__min__energy>  (14) 
-5.3499999999999996

>  <m_primary>  (14) 
energy

$$$$
14:0
     RDKit          3D

 48 50  0  0  1  0  0  0  0  0999 V2000
   -2.3260   20.8060  -28.6470 C   0  0  0  0  0  0  0  0  0  0  0  0
   -3.2260   21.7350  -29.4020 C   0  0  0  0  0  0  0  0  0  0  0  0
   -2.4450   22.7670  -30.0620 N   0  0  0  0  0  0  0  0  0  0  0  0
   -1.1550   22.2940  -30.4920 C   0  0  0  0  0  0  0  0  0  0  0  0
   -2.3190   23.8840  -29.1140 C   0  0  0  0  0  0  0  0  0  0  0  0
   -3.7220   24.1850  -28.6240 C   0  0  0  0  0  0  0  0  0  0  0  0
   -4.5640   24.8190  -29.6840 C   0  0  0  0  0  0  0  0  0  0  0  0
   -4.5060   24.0840  -30.9330 N   0  0  0  0  0  0  0  0  0  0  0  0
   -5.5980   23.2750  -31.2700 C   0  0  0  0  0  0  0  0  0  0  0  0
   -7.2580   23.5350  -30.5910 S   0  0  0  0  0  0  0  0  0  0  0  0
   -7.9650   22.0910  -31.5510 C   0  0  0  0  0  0  0  0  0  0  0  0
   -9.2180   21.6490  -31.5500 N   0  0  0  0  0  0  0  0  0  0  0  0
   -9.5120   20.5900  -32.3190 C   0  0  0  0  0  0  0  0  0  0  0  0
   -8.5020   20.0590  -33.0320 N   0  0  0  0  0  0  0  0  0  0  0  0
   -7.2440   20.4810  -33.0500 C   0  0  0  0  0  0  0  0  0  0  0  0
   -6.3690   19.8890  -33.7770 N   0  0  0  0  0  0  0  0  0  0  0  0
   -5.9240   18.5570  -33.5440 C   0  0  0  0  0  0  0  0  0  0  0  0
   -5.2810   17.8070  -34.5240 C   0  0  0  0  0  0  0  0  0  0  0  0
   -4.8740   16.5140  -34.2430 C   0  0  0  0  0  0  0  0  0  0  0  0
   -5.0920   15.9480  -33.0010 C   0  0  0  0  0  0  0  0  0  0  0  0
   -4.5550   14.1770  -32.5620 Br  0  0  0  0  0  0  0  0  0  0  0  0
   -5.7290   16.6880  -32.0240 C   0  0  0  0  0  0  0  0  0  0  0  0
   -6.1420   17.9820  -32.2920 C   0  0  0  0  0  0  0  0  0  0  0  0
   -6.9020   21.6010  -32.2450 C   0  0  0  0  0  0  0  0  0  0  0  0
   -5.7050   22.1810  -32.1180 C   0  0  0  0  0  0  0  0  0  0  0  0
   -4.4810   21.7430  -32.8180 C   0  0  0  0  0  0  0  0  0  0  0  0
   -3.5120   21.4030  -33.3920 N   0  0  0  0  0  0  0  0  0  0  0  0
   -2.4694   20.9541  -27.5665 H   0  0  0  0  0  0  0  0  0  0  0  0
   -2.5688   19.7659  -28.9100 H   0  0  0  0  0  0  0  0  0  0  0  0
   -1.2787   21.0157  -28.9100 H   0  0  0  0  0  0  0  0  0  0  0  0
   -3.7854   21.1641  -30.1577 H   0  0  0  0  0  0  0  0  0  0  0  0
   -3.9235   22.2100  -28.6964 H   0  0  0  0  0  0  0  0  0  0  0  0
   -0.5356   22.0669  -29.6118 H   0  0  0  0  0  0  0  0  0  0  0  0
   -1.2811   21.3836  -31.0964 H   0  0  0  0  0  0  0  0  0  0  0  0
   -0.6627   23.0701  -31.0964 H   0  0  0  0  0  0  0  0  0  0  0  0
   -1.6741   23.5970  -28.2704 H   0  0  0  0  0  0  0  0  0  0  0  0
   -1.8641   24.7646  -29.5911 H   0  0  0  0  0  0  0  0  0  0  0  0
   -4.1972   23.2442  -28.3091 H   0  0  0  0  0  0  0  0  0  0  0  0
   -3.6434   24.8927  -27.7855 H   0  0  0  0  0  0  0  0  0  0  0  0
   -5.6077   24.8500  -29.3378 H   0  0  0  0  0  0  0  0  0  0  0  0
   -4.1763   25.8321  -29.8665 H   0  0  0  0  0  0  0  0  0  0  0  0
   -3.7000   24.1210  -31.5910 H   0  0  0  0  0  0  0  0  0  0  0  0
   -9.9290   22.1340  -30.9600 H   0  0  0  0  0  0  0  0  0  0  0  0
  -10.5299   20.1756  -32.3645 H   0  0  0  0  0  0  0  0  0  0  0  0
   -5.0968   18.2399  -35.5183 H   0  0  0  0  0  0  0  0  0  0  0  0
   -4.3677   15.9261  -35.0227 H   0  0  0  0  0  0  0  0  0  0  0  0
   -5.9084   16.2486  -31.0317 H   0  0  0  0  0  0  0  0  0  0  0  0
   -6.6484   18.5639  -31.5078 H   0  0  0  0  0  0  0  0  0  0  0  0
  1  2  1  0
  2  3  1  0
  3  4  1  0
  3  5  1  0
  5  6  1  0
  6  7  1  0
  7  8  1  0
  8  9  1  0
  9 10  1  0
 10 11  1  0
 11 12  1  0
 12 13  1  0
 13 14  2  0
 14 15  1  0
 15 16  2  0
 16 17  1  0
 17 18  2  0
 18 19  1  0
 19 20  2  0
 20 21  1  0
 20 22  1  0
 22 23  2  0
 15 24  1  0
 24 25  1  0
 25 26  1  0
 26 27  3  0
 25  9  2  0
 24 11  2  0
 23 17  1  0
  1 28  1  0
  1 29  1  0
  1 30  1  0
  2 31  1  0
  2 32  1  0
  4 33  1  0
  4 34  1  0
  4 35  1  0
  5 36  1  0
  5 37  1  0
  6 38  1  0
  6 39  1  0
  7 40  1  0
  7 41  1  0
  8 42  1  0
 12 43  1  0
 13 44  1  0
 18 45  1  0
 19 46  1  0
 22 47  1  0
 23 48  1  0
M  END
>  <smiles>  (15) 
CCN(C)CCCNc1sc2[nH]cnc(=Nc3ccc(Br)cc3)c2c1C#N

>  <score_type>  (15) 
oracle

>  <origin>  (15) 
adg

>  <m_score__min__energy>  (15) 
-8.4800000000000004

>  <m_primary>  (15) 
energy

$$$$
15:0
     RDKit          3D

 32 34  0  0  0  0  0  0  0  0999 V2000
   -4.8990   18.6370  -34.1890 C   0  0  0  0  0  0  0  0  0  0  0  0
   -3.8120   18.8850  -33.1480 C   0  0  0  0  0  0  0  0  0  0  0  0
   -3.5050   20.2750  -33.0640 O   0  0  0  0  0  0  0  0  0  0  0  0
   -2.8470   20.8560  -31.9730 C   0  0  0  0  0  0  0  0  0  0  0  0
   -1.8940   20.2500  -31.4140 O   0  0  0  0  0  0  0  0  0  0  0  0
   -3.3000   22.1650  -31.4730 C   0  0  0  0  0  0  0  0  0  0  0  0
   -4.3870   22.9720  -31.8810 C   0  0  0  0  0  0  0  0  0  0  0  0
   -5.3860   22.6080  -32.8520 N   0  0  0  0  0  0  0  0  0  0  0  0
   -6.5240   22.0300  -32.1810 C   0  0  0  0  0  0  0  0  0  0  0  0
   -7.3600   22.8220  -31.3720 C   0  0  0  0  0  0  0  0  0  0  0  0
   -8.4780   22.2600  -30.7490 C   0  0  0  0  0  0  0  0  0  0  0  0
   -8.7740   20.9060  -30.9260 C   0  0  0  0  0  0  0  0  0  0  0  0
   -7.9510   20.1080  -31.7270 C   0  0  0  0  0  0  0  0  0  0  0  0
   -8.3590   18.2600  -31.9740 Br  0  0  0  0  0  0  0  0  0  0  0  0
   -6.8310   20.6670  -32.3530 C   0  0  0  0  0  0  0  0  0  0  0  0
   -4.4840   24.1200  -31.1500 N   0  0  0  0  0  0  0  0  0  0  0  0
   -3.4520   24.0360  -30.2970 C   0  0  0  0  0  0  0  0  0  0  0  0
   -3.0930   24.9200  -29.3420 N   0  0  0  0  0  0  0  0  0  0  0  0
   -1.7830   24.0550  -28.7710 S   0  0  0  0  0  0  0  0  0  0  0  0
   -1.6650   22.6470  -29.6610 N   0  0  0  0  0  0  0  0  0  0  0  0
   -2.7310   22.8860  -30.4560 C   0  0  0  0  0  0  0  0  0  0  0  0
   -5.8503   18.4200  -33.6812 H   0  0  0  0  0  0  0  0  0  0  0  0
   -5.0151   19.5317  -34.8183 H   0  0  0  0  0  0  0  0  0  0  0  0
   -4.6155   17.7805  -34.8183 H   0  0  0  0  0  0  0  0  0  0  0  0
   -4.1637   18.5326  -32.1671 H   0  0  0  0  0  0  0  0  0  0  0  0
   -2.9047   18.3389  -33.4457 H   0  0  0  0  0  0  0  0  0  0  0  0
   -5.6880   23.4700  -33.3630 H   0  0  0  0  0  0  0  0  0  0  0  0
   -4.9920   21.9560  -33.5660 H   0  0  0  0  0  0  0  0  0  0  0  0
   -7.1325   23.8887  -31.2292 H   0  0  0  0  0  0  0  0  0  0  0  0
   -9.1265   22.8853  -30.1178 H   0  0  0  0  0  0  0  0  0  0  0  0
   -9.6551   20.4673  -30.4349 H   0  0  0  0  0  0  0  0  0  0  0  0
   -6.1863   20.0371  -32.9836 H   0  0  0  0  0  0  0  0  0  0  0  0
  1  2  1  0
  2  3  1  0
  3  4  1  0
  4  5  2  0
  4  6  1  0
  6  7  2  0
  7  8  1  0
  8  9  1  0
  9 10  2  0
 10 11  1  0
 11 12  2  0
 12 13  1  0
 13 14  1  0
 13 15  2  0
  7 16  1  0
 16 17  1  0
 17 18  2  0
 18 19  1  0
 19 20  1  0
 20 21  2  0
 21  6  1  0
 15  9  1  0
 21 17  1  0
  1 22  1  0
  1 23  1  0
  1 24  1  0
  2 25  1  0
  2 26  1  0
  8 27  1  0
  8 28  1  0
 10 29  1  0
 11 30  1  0
 12 31  1  0
 15 32  1  0
M  CHG  2   8   1  16  -1
M  END
>  <UniqueID>  (16) 
15

>  <SMILES>  (16) 
CCOC(=O)c1c([NH2+]c2cccc(Br)c2)[n-]c2nsnc12

>  <Energy>  (16) 
108.77245201630949

>  <Genealogy>  (16) 
CCOC(=O)c1c([NH2+]c2cccc(Br)c2)[n-]c2nsnc12 (protonated)
CCOC(=O)c1c([NH2+]c2cccc(Br)c2)[n-]c2nsnc12 (3D coordinates assigned)
CCOC(=O)c1c([NH2+]c2cccc(Br)c2)[n-]c2nsnc12 (optimized conformer: 108.77245201630949 kcal/mol)

>  <smiles>  (16) 
CCOC(=O)c1c(Nc2cccc(Br)c2)[nH]c2nsnc12

>  <score_type>  (16) 
oracle

>  <origin>  (16) 
adg

>  <m_score__min__energy>  (16) 
-7.8300000000000001

>  <m_primary>  (16) 
energy

$$$$
16:0
     RDKit          3D

 39 41  0  0  0  0  0  0  0  0999 V2000
   -9.3990   21.4120  -31.4790 C   0  0  0  0  0  0  0  0  0  0  0  0
   -9.2090   20.7010  -32.6810 O   0  0  0  0  0  0  0  0  0  0  0  0
   -8.9580   19.3430  -32.3880 C   0  0  0  0  0  0  0  0  0  0  0  0
   -7.6560   19.2370  -31.5940 C   0  0  0  0  0  0  0  0  0  0  0  0
   -6.5150   19.0110  -32.4900 N   0  0  0  0  0  0  0  0  0  0  0  0
   -5.4650   19.8380  -32.7750 C   0  0  0  0  0  0  0  0  0  0  0  0
   -5.2860   21.2040  -32.2390 C   0  0  0  0  0  0  0  0  0  0  0  0
   -4.0570   21.5680  -31.6680 C   0  0  0  0  0  0  0  0  0  0  0  0
   -3.8600   22.8610  -31.1740 C   0  0  0  0  0  0  0  0  0  0  0  0
   -4.8890   23.8170  -31.2580 C   0  0  0  0  0  0  0  0  0  0  0  0
   -4.7420   25.1260  -30.7750 O   0  0  0  0  0  0  0  0  0  0  0  0
   -5.7440   25.8310  -30.0490 C   0  0  0  0  0  0  0  0  0  0  0  0
   -6.1060   23.4580  -31.8460 C   0  0  0  0  0  0  0  0  0  0  0  0
   -6.3030   22.1650  -32.3410 C   0  0  0  0  0  0  0  0  0  0  0  0
   -4.5210   19.2570  -33.5660 N   0  0  0  0  0  0  0  0  0  0  0  0
   -5.0270   18.0310  -33.7810 C   0  0  0  0  0  0  0  0  0  0  0  0
   -4.4480   17.0350  -34.4970 N   0  0  0  0  0  0  0  0  0  0  0  0
   -5.0790   15.8240  -34.5770 C   0  0  0  0  0  0  0  0  0  0  0  0
   -6.3090   15.6120  -33.9130 C   0  0  0  0  0  0  0  0  0  0  0  0
   -6.8910   16.6530  -33.1690 C   0  0  0  0  0  0  0  0  0  0  0  0
   -6.2130   17.8710  -33.1370 C   0  0  0  0  0  0  0  0  0  0  0  0
   -9.2201   20.7425  -30.6248 H   0  0  0  0  0  0  0  0  0  0  0  0
   -8.6949   22.2561  -31.4371 H   0  0  0  0  0  0  0  0  0  0  0  0
  -10.4303   21.7923  -31.4371 H   0  0  0  0  0  0  0  0  0  0  0  0
   -9.7876   18.9350  -31.7919 H   0  0  0  0  0  0  0  0  0  0  0  0
   -8.8700   18.7713  -33.3236 H   0  0  0  0  0  0  0  0  0  0  0  0
   -7.4968   20.1716  -31.0363 H   0  0  0  0  0  0  0  0  0  0  0  0
   -7.7340   18.3860  -30.9014 H   0  0  0  0  0  0  0  0  0  0  0  0
   -3.2428   20.8308  -31.6086 H   0  0  0  0  0  0  0  0  0  0  0  0
   -2.8965   23.1321  -30.7177 H   0  0  0  0  0  0  0  0  0  0  0  0
   -5.5696   25.7083  -28.9699 H   0  0  0  0  0  0  0  0  0  0  0  0
   -5.7014   26.8992  -30.3082 H   0  0  0  0  0  0  0  0  0  0  0  0
   -6.7350   25.4301  -30.3082 H   0  0  0  0  0  0  0  0  0  0  0  0
   -6.9154   24.1992  -31.9198 H   0  0  0  0  0  0  0  0  0  0  0  0
   -7.2606   21.9000  -32.8129 H   0  0  0  0  0  0  0  0  0  0  0  0
   -3.5320   17.1860  -34.9760 H   0  0  0  0  0  0  0  0  0  0  0  0
   -4.6264   15.0097  -35.1619 H   0  0  0  0  0  0  0  0  0  0  0  0
   -6.8095   14.6346  -33.9784 H   0  0  0  0  0  0  0  0  0  0  0  0
   -7.8419   16.5126  -32.6342 H   0  0  0  0  0  0  0  0  0  0  0  0
  1  2  1  0
  2  3  1  0
  3  4  1  0
  4  5  1  0
  5  6  1  0
  6  7  1  0
  7  8  2  0
  8  9  1  0
  9 10  2  0
 10 11  1  0
 11 12  1  0
 10 13  1  0
 13 14  2  0
  6 15  2  0
 15 16  1  0
 16 17  2  0
 17 18  1  0
 18 19  2  0
 19 20  1  0
 20 21  2  0
 21  5  1  0
 14  7  1  0
 21 16  1  0
  1 22  1  0
  1 23  1  0
  1 24  1  0
  3 25  1  0
  3 26  1  0
  4 27  1  0
  4 28  1  0
  8 29  1  0
  9 30  1  0
 12 31  1  0
 12 32  1  0
 12 33  1  0
 13 34  1  0
 14 35  1  0
 17 36  1  0
 18 37  1  0
 19 38  1  0
 20 39  1  0
M  CHG  1  17   1
M  END
>  <UniqueID>  (17) 
16

>  <SMILES>  (17) 
COCCn1c(-c2ccc(OC)cc2)nc2[nH+]cccc21

>  <Energy>  (17) 
82.82907358748596

>  <Genealogy>  (17) 
COCCn1c(-c2ccc(OC)cc2)nc2[nH+]cccc21 (protonated)
COCCn1c(-c2ccc(OC)cc2)nc2[nH+]cccc21 (3D coordinates assigned)
COCCn1c(-c2ccc(OC)cc2)nc2[nH+]cccc21 (optimized conformer: 82.82907358748596 kcal/mol)

>  <smiles>  (17) 
COCCn1c(-c2ccc(OC)cc2)nc2ncccc21

>  <score_type>  (17) 
oracle

>  <origin>  (17) 
adg

>  <m_score__min__energy>  (17) 
-6.6699999999999999

>  <m_primary>  (17) 
energy

$$$$
17:0
     RDKit          3D

 57 58  0  0  0  0  0  0  0  0999 V2000
   -6.7510   17.8170  -31.4020 C   0  0  0  0  0  0  0  0  0  0  0  0
   -7.9980   18.0680  -32.2590 C   0  0  0  0  0  0  0  0  0  0  0  0
   -8.0000   19.4040  -32.9110 N   0  0  0  0  0  0  0  0  0  0  0  0
   -6.6520   20.0020  -33.1050 C   0  0  0  0  0  0  0  0  0  0  0  0
   -5.7720   19.3060  -34.1500 C   0  0  0  0  0  0  0  0  0  0  0  0
   -8.9800   20.3590  -32.3100 C   0  0  0  0  0  0  0  0  0  0  0  0
   -8.6310   20.8680  -30.8840 C   0  0  0  0  0  0  0  0  0  0  0  0
   -8.6390   22.3420  -30.8010 N   0  0  0  0  0  0  0  0  0  0  0  0
   -7.8350   22.9960  -31.8450 C   0  0  0  0  0  0  0  0  0  0  0  0
   -6.5190   23.5080  -31.3170 C   0  0  0  0  0  0  0  0  0  0  0  0
   -6.4670   24.7110  -30.5980 C   0  0  0  0  0  0  0  0  0  0  0  0
   -5.2550   25.1680  -30.0740 C   0  0  0  0  0  0  0  0  0  0  0  0
   -4.0770   24.4350  -30.2590 C   0  0  0  0  0  0  0  0  0  0  0  0
   -2.8870   24.9400  -29.7090 O   0  0  0  0  0  0  0  0  0  0  0  0
   -2.3450   24.5680  -28.4410 C   0  0  0  0  0  0  0  0  0  0  0  0
   -1.1400   23.6800  -28.6000 C   0  0  0  0  0  0  0  0  0  0  0  0
   -0.0500   24.1930  -28.9750 O   0  0  0  0  0  0  0  0  0  0  0  0
   -1.2050   22.2680  -28.3100 N   0  0  0  0  0  0  0  0  0  0  0  0
   -2.0890   21.7590  -27.2530 C   0  0  0  0  0  0  0  0  0  0  0  0
   -2.4300   20.2890  -27.5160 C   0  0  0  0  0  0  0  0  0  0  0  0
   -1.2560   19.5270  -27.7160 O   0  0  0  0  0  0  0  0  0  0  0  0
   -0.6120   19.9550  -28.9000 C   0  0  0  0  0  0  0  0  0  0  0  0
   -0.1120   21.3960  -28.7590 C   0  0  0  0  0  0  0  0  0  0  0  0
   -4.1280   23.2270  -30.9820 C   0  0  0  0  0  0  0  0  0  0  0  0
   -5.3410   22.7690  -31.5040 C   0  0  0  0  0  0  0  0  0  0  0  0
   -7.0210   17.8713  -30.3370 H   0  0  0  0  0  0  0  0  0  0  0  0
   -6.3461   16.8193  -31.6272 H   0  0  0  0  0  0  0  0  0  0  0  0
   -5.9916   18.5803  -31.6272 H   0  0  0  0  0  0  0  0  0  0  0  0
   -8.0455   17.2967  -33.0418 H   0  0  0  0  0  0  0  0  0  0  0  0
   -8.8692   18.0297  -31.5885 H   0  0  0  0  0  0  0  0  0  0  0  0
   -8.3540   19.2410  -33.8840 H   0  0  0  0  0  0  0  0  0  0  0  0
   -6.7858   21.0487  -33.4158 H   0  0  0  0  0  0  0  0  0  0  0  0
   -6.1286   19.8919  -32.1438 H   0  0  0  0  0  0  0  0  0  0  0  0
   -5.0072   18.7011  -33.6410 H   0  0  0  0  0  0  0  0  0  0  0  0
   -6.3959   18.6543  -34.7794 H   0  0  0  0  0  0  0  0  0  0  0  0
   -5.2816   20.0632  -34.7794 H   0  0  0  0  0  0  0  0  0  0  0  0
   -9.0515   21.2333  -32.9737 H   0  0  0  0  0  0  0  0  0  0  0  0
   -9.9222   19.8004  -32.2086 H   0  0  0  0  0  0  0  0  0  0  0  0
   -9.3709   20.4691  -30.1745 H   0  0  0  0  0  0  0  0  0  0  0  0
   -7.6158   20.5214  -30.6405 H   0  0  0  0  0  0  0  0  0  0  0  0
   -8.3480   22.6830  -29.8550 H   0  0  0  0  0  0  0  0  0  0  0  0
   -7.6359   22.2686  -32.6458 H   0  0  0  0  0  0  0  0  0  0  0  0
   -8.4062   23.8586  -32.2187 H   0  0  0  0  0  0  0  0  0  0  0  0
   -7.3849   25.2977  -30.4458 H   0  0  0  0  0  0  0  0  0  0  0  0
   -5.2264   26.1125  -29.5109 H   0  0  0  0  0  0  0  0  0  0  0  0
   -2.0505   25.4773  -27.8966 H   0  0  0  0  0  0  0  0  0  0  0  0
   -3.1142   24.0127  -27.8843 H   0  0  0  0  0  0  0  0  0  0  0  0
   -1.5819   21.8467  -26.2808 H   0  0  0  0  0  0  0  0  0  0  0  0
   -3.0176   22.3486  -27.2448 H   0  0  0  0  0  0  0  0  0  0  0  0
   -2.9780   19.8861  -26.6515 H   0  0  0  0  0  0  0  0  0  0  0  0
   -3.0475   20.2284  -28.4243 H   0  0  0  0  0  0  0  0  0  0  0  0
    0.2441   19.2949  -29.1033 H   0  0  0  0  0  0  0  0  0  0  0  0
   -1.3345   19.9128  -29.7284 H   0  0  0  0  0  0  0  0  0  0  0  0
    0.7044   21.4274  -28.0224 H   0  0  0  0  0  0  0  0  0  0  0  0
    0.2513   21.7481  -29.7357 H   0  0  0  0  0  0  0  0  0  0  0  0
   -3.2095   22.6418  -31.1364 H   0  0  0  0  0  0  0  0  0  0  0  0
   -5.3723   21.8233  -32.0649 H   0  0  0  0  0  0  0  0  0  0  0  0
  1  2  1  0
  2  3  1  0
  3  4  1  0
  4  5  1  0
  3  6  1  0
  6  7  1  0
  7  8  1  0
  8  9  1  0
  9 10  1  0
 10 11  2  0
 11 12  1  0
 12 13  2  0
 13 14  1  0
 14 15  1  0
 15 16  1  0
 16 17  2  0
 16 18  1  0
 18 19  1  0
 19 20  1  0
 20 21  1  0
 21 22  1  0
 22 23  1  0
 13 24  1  0
 24 25  2  0
 25 10  1  0
 23 18  1  0
  1 26  1  0
  1 27  1  0
  1 28  1  0
  2 29  1  0
  2 30  1  0
  3 31  1  0
  4 32  1  0
  4 33  1  0
  5 34  1  0
  5 35  1  0
  5 36  1  0
  6 37  1  0
  6 38  1  0
  7 39  1  0
  7 40  1  0
  8 41  1  0
  9 42  1  0
  9 43  1  0
 11 44  1  0
 12 45  1  0
 15 46  1  0
 15 47  1  0
 19 48  1  0
 19 49  1  0
 20 50  1  0
 20 51  1  0
 22 52  1  0
 22 53  1  0
 23 54  1  0
 23 55  1  0
 24 56  1  0
 25 57  1  0
M  CHG  1   3   1
M  END
>  <UniqueID>  (18) 
17

>  <SMILES>  (18) 
CC[NH+](CC)CCNCc1ccc(OCC(=O)N2CCOCC2)cc1

>  <Energy>  (18) 
66.23807025757166

>  <Genealogy>  (18) 
CC[NH+](CC)CCNCc1ccc(OCC(=O)N2CCOCC2)cc1 (protonated)
CC[NH+](CC)CCNCc1ccc(OCC(=O)N2CCOCC2)cc1 (3D coordinates assigned)
CC[NH+](CC)CCNCc1ccc(OCC(=O)N2CCOCC2)cc1 (nonaromatic ring conformer: 66.23807025757166 kcal/mol)

>  <smiles>  (18) 
CCN(CC)CCNCc1ccc(OCC(=O)N2CCOCC2)cc1

>  <score_type>  (18) 
oracle

>  <origin>  (18) 
adg

>  <m_score__min__energy>  (18) 
-7.3300000000000001

>  <m_primary>  (18) 
energy

$$$$
18:0
     RDKit          3D

 50 52  0  0  0  0  0  0  0  0999 V2000
   -5.8470   25.5730  -30.0730 C   0  0  0  0  0  0  0  0  0  0  0  0
   -4.4960   25.0240  -30.5220 C   0  0  0  0  0  0  0  0  0  0  0  0
   -4.6070   23.5820  -30.8480 N   0  0  0  0  0  0  0  0  0  0  0  0
   -5.3850   22.8800  -29.8110 C   0  0  0  0  0  0  0  0  0  0  0  0
   -3.2730   22.9580  -30.9880 C   0  0  0  0  0  0  0  0  0  0  0  0
   -3.3940   21.4250  -31.0030 C   0  0  0  0  0  0  0  0  0  0  0  0
   -3.6630   20.8690  -32.4210 C   0  0  0  0  0  0  0  0  0  0  0  0
   -4.8000   21.5310  -33.0920 N   0  0  0  0  0  0  0  0  0  0  0  0
   -6.0100   20.7210  -33.0400 C   0  0  0  0  0  0  0  0  0  0  0  0
   -5.9810   19.3250  -33.3620 C   0  0  0  0  0  0  0  0  0  0  0  0
   -4.9500   18.7540  -34.1510 C   0  0  0  0  0  0  0  0  0  0  0  0
   -4.9080   17.3850  -34.4050 C   0  0  0  0  0  0  0  0  0  0  0  0
   -5.8910   16.5500  -33.8990 C   0  0  0  0  0  0  0  0  0  0  0  0
   -6.9430   17.0770  -33.1570 C   0  0  0  0  0  0  0  0  0  0  0  0
   -7.0240   18.4660  -32.8810 C   0  0  0  0  0  0  0  0  0  0  0  0
   -8.0800   18.9840  -32.1590 N   0  0  0  0  0  0  0  0  0  0  0  0
   -9.1220   18.1020  -31.5940 C   0  0  0  0  0  0  0  0  0  0  0  0
   -8.1720   20.3410  -32.0110 C   0  0  0  0  0  0  0  0  0  0  0  0
   -9.4330   21.1880  -31.2820 S   0  0  0  0  0  0  0  0  0  0  0  0
   -8.7960   22.7120  -31.5420 C   0  0  0  0  0  0  0  0  0  0  0  0
   -7.5800   22.5930  -32.2150 C   0  0  0  0  0  0  0  0  0  0  0  0
   -6.8970   23.8340  -32.7200 C   0  0  0  0  0  0  0  0  0  0  0  0
   -7.2010   21.2340  -32.4580 C   0  0  0  0  0  0  0  0  0  0  0  0
   -5.8889   25.5900  -28.9739 H   0  0  0  0  0  0  0  0  0  0  0  0
   -5.9749   26.5944  -30.4607 H   0  0  0  0  0  0  0  0  0  0  0  0
   -6.6511   24.9303  -30.4607 H   0  0  0  0  0  0  0  0  0  0  0  0
   -4.1602   25.5726  -31.4144 H   0  0  0  0  0  0  0  0  0  0  0  0
   -3.7700   25.1505  -29.7053 H   0  0  0  0  0  0  0  0  0  0  0  0
   -5.0369   23.1941  -28.8159 H   0  0  0  0  0  0  0  0  0  0  0  0
   -6.4510   23.1279  -29.9217 H   0  0  0  0  0  0  0  0  0  0  0  0
   -5.2476   21.7942  -29.9217 H   0  0  0  0  0  0  0  0  0  0  0  0
   -2.8132   23.2940  -31.9291 H   0  0  0  0  0  0  0  0  0  0  0  0
   -2.6490   23.2571  -30.1329 H   0  0  0  0  0  0  0  0  0  0  0  0
   -2.4553   20.9928  -30.6262 H   0  0  0  0  0  0  0  0  0  0  0  0
   -4.2482   21.1496  -30.3670 H   0  0  0  0  0  0  0  0  0  0  0  0
   -2.7606   21.0160  -33.0326 H   0  0  0  0  0  0  0  0  0  0  0  0
   -3.9169   19.8040  -32.3152 H   0  0  0  0  0  0  0  0  0  0  0  0
   -4.4960   21.7740  -34.0540 H   0  0  0  0  0  0  0  0  0  0  0  0
   -4.9740   22.4610  -32.6650 H   0  0  0  0  0  0  0  0  0  0  0  0
   -4.1685   19.4047  -34.5704 H   0  0  0  0  0  0  0  0  0  0  0  0
   -4.0909   16.9651  -35.0099 H   0  0  0  0  0  0  0  0  0  0  0  0
   -5.8394   15.4670  -34.0846 H   0  0  0  0  0  0  0  0  0  0  0  0
   -7.7263   16.4044  -32.7774 H   0  0  0  0  0  0  0  0  0  0  0  0
   -9.0779   18.1393  -30.4955 H   0  0  0  0  0  0  0  0  0  0  0  0
  -10.1122   18.4405  -31.9329 H   0  0  0  0  0  0  0  0  0  0  0  0
   -8.9517   17.0695  -31.9329 H   0  0  0  0  0  0  0  0  0  0  0  0
   -9.2622   23.6587  -31.2314 H   0  0  0  0  0  0  0  0  0  0  0  0
   -6.5626   24.4417  -31.8663 H   0  0  0  0  0  0  0  0  0  0  0  0
   -6.0276   23.5510  -33.3316 H   0  0  0  0  0  0  0  0  0  0  0  0
   -7.6013   24.4171  -33.3316 H   0  0  0  0  0  0  0  0  0  0  0  0
  1  2  1  0
  2  3  1  0
  3  4  1  0
  3  5  1  0
  5  6  1  0
  6  7  1  0
  7  8  1  0
  8  9  1  0
  9 10  2  0
 10 11  1  0
 11 12  2  0
 12 13  1  0
 13 14  2  0
 14 15  1  0
 15 16  2  0
 16 17  1  0
 16 18  1  0
 18 19  1  0
 19 20  1  0
 20 21  2  0
 21 22  1  0
 21 23  1  0
 23  9  1  0
 15 10  1  0
 23 18  2  0
  1 24  1  0
  1 25  1  0
  1 26  1  0
  2 27  1  0
  2 28  1  0
  4 29  1  0
  4 30  1  0
  4 31  1  0
  5 32  1  0
  5 33  1  0
  6 34  1  0
  6 35  1  0
  7 36  1  0
  7 37  1  0
  8 38  1  0
  8 39  1  0
 11 40  1  0
 12 41  1  0
 13 42  1  0
 14 43  1  0
 17 44  1  0
 17 45  1  0
 17 46  1  0
 20 47  1  0
 22 48  1  0
 22 49  1  0
 22 50  1  0
M  CHG  2   8   1  16   1
M  END
>  <UniqueID>  (19) 
18

>  <SMILES>  (19) 
CCN(C)CCC[NH2+]c1c2ccccc2[n+](C)c2scc(C)c12

>  <Energy>  (19) 
103.5473854703037

>  <Genealogy>  (19) 
CCN(C)CCC[NH2+]c1c2ccccc2[n+](C)c2scc(C)c12 (protonated)
CCN(C)CCC[NH2+]c1c2ccccc2[n+](C)c2scc(C)c12 (3D coordinates assigned)
CCN(C)CCC[NH2+]c1c2ccccc2[n+](C)c2scc(C)c12 (optimized conformer: 103.5473854703037 kcal/mol)

>  <smiles>  (19) 
CCN(C)CCCNc1c2ccccc2[n+](C)c2scc(C)c12

>  <score_type>  (19) 
oracle

>  <origin>  (19) 
adg

>  <m_score__min__energy>  (19) 
-7.8300000000000001

>  <m_primary>  (19) 
energy

$$$$
19:0
     RDKit          3D

 62 64  0  0  0  0  0  0  0  0999 V2000
   -1.1350   20.5710  -29.8230 C   0  0  0  0  0  0  0  0  0  0  0  0
   -0.9800   21.1800  -31.2190 C   0  0  0  0  0  0  0  0  0  0  0  0
   -1.6230   20.3980  -32.2970 N   0  0  0  0  0  0  0  0  0  0  0  0
   -0.9960   19.0950  -32.5680 C   0  0  0  0  0  0  0  0  0  0  0  0
   -2.0710   21.1650  -33.4830 C   0  0  0  0  0  0  0  0  0  0  0  0
   -3.5200   21.6930  -33.4060 C   0  0  0  0  0  0  0  0  0  0  0  0
   -4.1570   21.2820  -32.1380 N   0  0  0  0  0  0  0  0  0  0  0  0
   -5.4570   20.6710  -32.3720 C   0  0  0  0  0  0  0  0  0  0  0  0
   -5.5290   19.3260  -32.8340 C   0  0  0  0  0  0  0  0  0  0  0  0
   -4.3810   18.6220  -33.2840 C   0  0  0  0  0  0  0  0  0  0  0  0
   -4.4760   17.3210  -33.7700 C   0  0  0  0  0  0  0  0  0  0  0  0
   -5.7090   16.6890  -33.8290 C   0  0  0  0  0  0  0  0  0  0  0  0
   -6.8500   17.3450  -33.3810 C   0  0  0  0  0  0  0  0  0  0  0  0
   -6.7810   18.6580  -32.8460 C   0  0  0  0  0  0  0  0  0  0  0  0
   -7.9000   19.2820  -32.3460 N   0  0  0  0  0  0  0  0  0  0  0  0
   -9.0960   18.4780  -32.0010 C   0  0  0  0  0  0  0  0  0  0  0  0
   -7.9040   20.6480  -32.1550 C   0  0  0  0  0  0  0  0  0  0  0  0
   -9.1260   21.3390  -31.9790 C   0  0  0  0  0  0  0  0  0  0  0  0
   -9.1580   22.7020  -31.7450 C   0  0  0  0  0  0  0  0  0  0  0  0
   -7.9830   23.4260  -31.7030 C   0  0  0  0  0  0  0  0  0  0  0  0
   -6.7390   22.8040  -31.9060 C   0  0  0  0  0  0  0  0  0  0  0  0
   -5.5820   23.5980  -31.9250 O   0  0  0  0  0  0  0  0  0  0  0  0
   -5.3690   24.8090  -31.1910 C   0  0  0  0  0  0  0  0  0  0  0  0
   -4.8050   24.5150  -29.7970 C   0  0  0  0  0  0  0  0  0  0  0  0
   -3.8870   23.3560  -29.8320 N   0  0  0  0  0  0  0  0  0  0  0  0
   -2.4880   23.7960  -29.7210 C   0  0  0  0  0  0  0  0  0  0  0  0
   -4.1960   22.4040  -28.7520 C   0  0  0  0  0  0  0  0  0  0  0  0
   -6.6790   21.3880  -32.1460 C   0  0  0  0  0  0  0  0  0  0  0  0
   -0.9389   21.3416  -29.0629 H   0  0  0  0  0  0  0  0  0  0  0  0
   -2.1591   20.1884  -29.7015 H   0  0  0  0  0  0  0  0  0  0  0  0
   -0.4184   19.7454  -29.7015 H   0  0  0  0  0  0  0  0  0  0  0  0
   -1.4270   22.1850  -31.2084 H   0  0  0  0  0  0  0  0  0  0  0  0
    0.0976   21.1948  -31.4392 H   0  0  0  0  0  0  0  0  0  0  0  0
   -0.7569   18.5981  -31.6162 H   0  0  0  0  0  0  0  0  0  0  0  0
   -1.6905   18.4669  -33.1452 H   0  0  0  0  0  0  0  0  0  0  0  0
   -0.0718   19.2458  -33.1452 H   0  0  0  0  0  0  0  0  0  0  0  0
   -1.3992   22.0272  -33.6062 H   0  0  0  0  0  0  0  0  0  0  0  0
   -2.0419   20.4659  -34.3317 H   0  0  0  0  0  0  0  0  0  0  0  0
   -3.5081   22.7913  -33.4651 H   0  0  0  0  0  0  0  0  0  0  0  0
   -4.0953   21.2728  -34.2441 H   0  0  0  0  0  0  0  0  0  0  0  0
   -3.5270   20.6220  -31.6300 H   0  0  0  0  0  0  0  0  0  0  0  0
   -4.2350   22.0660  -31.4570 H   0  0  0  0  0  0  0  0  0  0  0  0
   -3.3978   19.1140  -33.2479 H   0  0  0  0  0  0  0  0  0  0  0  0
   -3.5717   16.7935  -34.1077 H   0  0  0  0  0  0  0  0  0  0  0  0
   -5.7843   15.6677  -34.2306 H   0  0  0  0  0  0  0  0  0  0  0  0
   -7.8239   16.8373  -33.4422 H   0  0  0  0  0  0  0  0  0  0  0  0
   -9.1915   18.4138  -30.9070 H   0  0  0  0  0  0  0  0  0  0  0  0
   -9.9932   18.9571  -32.4199 H   0  0  0  0  0  0  0  0  0  0  0  0
   -8.9911   17.4663  -32.4199 H   0  0  0  0  0  0  0  0  0  0  0  0
  -10.0719   20.7798  -32.0294 H   0  0  0  0  0  0  0  0  0  0  0  0
  -10.1215   23.2101  -31.5921 H   0  0  0  0  0  0  0  0  0  0  0  0
   -8.0211   24.5078  -31.5074 H   0  0  0  0  0  0  0  0  0  0  0  0
   -4.6571   25.4422  -31.7407 H   0  0  0  0  0  0  0  0  0  0  0  0
   -6.3345   25.3236  -31.0767 H   0  0  0  0  0  0  0  0  0  0  0  0
   -4.2565   25.3979  -29.4370 H   0  0  0  0  0  0  0  0  0  0  0  0
   -5.6414   24.2802  -29.1222 H   0  0  0  0  0  0  0  0  0  0  0  0
   -2.2139   23.8822  -28.6592 H   0  0  0  0  0  0  0  0  0  0  0  0
   -1.8324   23.0607  -30.2104 H   0  0  0  0  0  0  0  0  0  0  0  0
   -2.3713   24.7742  -30.2104 H   0  0  0  0  0  0  0  0  0  0  0  0
   -4.0381   22.8904  -27.7781 H   0  0  0  0  0  0  0  0  0  0  0  0
   -5.2446   22.0825  -28.8355 H   0  0  0  0  0  0  0  0  0  0  0  0
   -3.5361   21.5279  -28.8355 H   0  0  0  0  0  0  0  0  0  0  0  0
  1  2  1  0
  2  3  1  0
  3  4  1  0
  3  5  1  0
  5  6  1  0
  6  7  1  0
  7  8  1  0
  8  9  2  0
  9 10  1  0
 10 11  2  0
 11 12  1  0
 12 13  2  0
 13 14  1  0
 14 15  2  0
 15 16  1  0
 15 17  1  0
 17 18  2  0
 18 19  1  0
 19 20  2  0
 20 21  1  0
 21 22  1  0
 22 23  1  0
 23 24  1  0
 24 25  1  0
 25 26  1  0
 25 27  1  0
 21 28  2  0
 28  8  1  0
 14  9  1  0
 28 17  1  0
  1 29  1  0
  1 30  1  0
  1 31  1  0
  2 32  1  0
  2 33  1  0
  4 34  1  0
  4 35  1  0
  4 36  1  0
  5 37  1  0
  5 38  1  0
  6 39  1  0
  6 40  1  0
  7 41  1  0
  7 42  1  0
 10 43  1  0
 11 44  1  0
 12 45  1  0
 13 46  1  0
 16 47  1  0
 16 48  1  0
 16 49  1  0
 18 50  1  0
 19 51  1  0
 20 52  1  0
 23 53  1  0
 23 54  1  0
 24 55  1  0
 24 56  1  0
 26 57  1  0
 26 58  1  0
 26 59  1  0
 27 60  1  0
 27 61  1  0
 27 62  1  0
M  CHG  2   7   1  15   1
M  END
>  <UniqueID>  (20) 
19

>  <SMILES>  (20) 
CCN(C)CC[NH2+]c1c2ccccc2[n+](C)c2cccc(OCCN(C)C)c12

>  <Energy>  (20) 
101.4463615426828

>  <Genealogy>  (20) 
CCN(C)CC[NH2+]c1c2ccccc2[n+](C)c2cccc(OCCN(C)C)c12 (protonated)
CCN(C)CC[NH2+]c1c2ccccc2[n+](C)c2cccc(OCCN(C)C)c12 (3D coordinates assigned)
CCN(C)CC[NH2+]c1c2ccccc2[n+](C)c2cccc(OCCN(C)C)c12 (optimized conformer: 101.4463615426828 kcal/mol)

>  <smiles>  (20) 
CCN(C)CCNc1c2ccccc2[n+](C)c2cccc(OCCN(C)C)c12

>  <score_type>  (20) 
oracle

>  <origin>  (20) 
adg

>  <m_score__min__energy>  (20) 
-8.1799999999999997

>  <m_primary>  (20) 
energy

$$$$
20:0
     RDKit          3D

 52 54  0  0  0  0  0  0  0  0999 V2000
   -4.1160   24.5260  -27.0650 C   0  0  0  0  0  0  0  0  0  0  0  0
   -4.4680   24.1220  -28.4990 C   0  0  0  0  0  0  0  0  0  0  0  0
   -5.5900   24.9120  -29.0450 N   0  0  0  0  0  0  0  0  0  0  0  0
   -5.7760   24.6870  -30.4920 C   0  0  0  0  0  0  0  0  0  0  0  0
   -4.9530   23.4850  -30.9830 C   0  0  0  0  0  0  0  0  0  0  0  0
   -5.4260   23.0300  -32.2910 N   0  0  0  0  0  0  0  0  0  0  0  0
   -5.5430   21.6330  -32.6190 C   0  0  0  0  0  0  0  0  0  0  0  0
   -6.7710   20.9660  -32.4590 C   0  0  0  0  0  0  0  0  0  0  0  0
   -7.8720   21.6060  -31.8490 C   0  0  0  0  0  0  0  0  0  0  0  0
   -9.0770   20.9320  -31.6620 C   0  0  0  0  0  0  0  0  0  0  0  0
   -9.1980   19.6050  -32.0500 C   0  0  0  0  0  0  0  0  0  0  0  0
   -8.1220   18.9460  -32.6430 C   0  0  0  0  0  0  0  0  0  0  0  0
   -6.8940   19.6160  -32.8840 C   0  0  0  0  0  0  0  0  0  0  0  0
   -5.8270   18.9830  -33.4930 N   0  0  0  0  0  0  0  0  0  0  0  0
   -6.0390   17.6990  -34.2020 C   0  0  0  0  0  0  0  0  0  0  0  0
   -4.5700   19.5590  -33.4610 C   0  0  0  0  0  0  0  0  0  0  0  0
   -3.4100   18.8310  -33.8210 C   0  0  0  0  0  0  0  0  0  0  0  0
   -2.1450   19.4420  -33.8710 C   0  0  0  0  0  0  0  0  0  0  0  0
   -0.9910   18.7430  -34.2600 O   0  0  0  0  0  0  0  0  0  0  0  0
   -0.0080   18.2390  -33.3620 C   0  0  0  0  0  0  0  0  0  0  0  0
   -2.0140   20.7900  -33.5300 C   0  0  0  0  0  0  0  0  0  0  0  0
   -0.7410   21.3770  -33.6230 O   0  0  0  0  0  0  0  0  0  0  0  0
   -0.0150   21.5550  -34.8350 C   0  0  0  0  0  0  0  0  0  0  0  0
   -3.1410   21.5120  -33.1070 C   0  0  0  0  0  0  0  0  0  0  0  0
   -4.4150   20.9090  -33.0540 C   0  0  0  0  0  0  0  0  0  0  0  0
   -4.6699   23.8903  -26.3585 H   0  0  0  0  0  0  0  0  0  0  0  0
   -3.0354   24.3990  -26.9030 H   0  0  0  0  0  0  0  0  0  0  0  0
   -4.3898   25.5790  -26.9030 H   0  0  0  0  0  0  0  0  0  0  0  0
   -3.5847   24.2749  -29.1364 H   0  0  0  0  0  0  0  0  0  0  0  0
   -4.7757   23.0660  -28.4850 H   0  0  0  0  0  0  0  0  0  0  0  0
   -5.3800   25.9210  -28.8710 H   0  0  0  0  0  0  0  0  0  0  0  0
   -6.4750   24.6770  -28.5340 H   0  0  0  0  0  0  0  0  0  0  0  0
   -6.8410   24.4966  -30.6906 H   0  0  0  0  0  0  0  0  0  0  0  0
   -5.4331   25.5838  -31.0287 H   0  0  0  0  0  0  0  0  0  0  0  0
   -3.8966   23.7805  -31.0645 H   0  0  0  0  0  0  0  0  0  0  0  0
   -5.0662   22.6623  -30.2617 H   0  0  0  0  0  0  0  0  0  0  0  0
   -5.7960   23.7440  -32.9630 H   0  0  0  0  0  0  0  0  0  0  0  0
   -7.7771   22.6504  -31.5171 H   0  0  0  0  0  0  0  0  0  0  0  0
   -9.9328   21.4519  -31.2066 H   0  0  0  0  0  0  0  0  0  0  0  0
  -10.1463   19.0713  -31.8891 H   0  0  0  0  0  0  0  0  0  0  0  0
   -8.2264   17.8890  -32.9290 H   0  0  0  0  0  0  0  0  0  0  0  0
   -6.1723   16.8918  -33.4667 H   0  0  0  0  0  0  0  0  0  0  0  0
   -6.9372   17.7724  -34.8328 H   0  0  0  0  0  0  0  0  0  0  0  0
   -5.1649   17.4798  -34.8328 H   0  0  0  0  0  0  0  0  0  0  0  0
   -3.5009   17.7628  -34.0672 H   0  0  0  0  0  0  0  0  0  0  0  0
   -0.3369   18.4077  -32.3260 H   0  0  0  0  0  0  0  0  0  0  0  0
    0.1265   17.1607  -33.5331 H   0  0  0  0  0  0  0  0  0  0  0  0
    0.9460   18.7592  -33.5331 H   0  0  0  0  0  0  0  0  0  0  0  0
    1.0293   21.8110  -34.6027 H   0  0  0  0  0  0  0  0  0  0  0  0
   -0.0428   20.6234  -35.4193 H   0  0  0  0  0  0  0  0  0  0  0  0
   -0.4706   22.3680  -35.4193 H   0  0  0  0  0  0  0  0  0  0  0  0
   -3.0287   22.5657  -32.8119 H   0  0  0  0  0  0  0  0  0  0  0  0
  1  2  1  0
  2  3  1  0
  3  4  1  0
  4  5  1  0
  5  6  1  0
  6  7  1  0
  7  8  2  0
  8  9  1  0
  9 10  2  0
 10 11  1  0
 11 12  2  0
 12 13  1  0
 13 14  2  0
 14 15  1  0
 14 16  1  0
 16 17  2  0
 17 18  1  0
 18 19  1  0
 19 20  1  0
 18 21  2  0
 21 22  1  0
 22 23  1  0
 21 24  1  0
 24 25  2  0
 25  7  1  0
 13  8  1  0
 25 16  1  0
  1 26  1  0
  1 27  1  0
  1 28  1  0
  2 29  1  0
  2 30  1  0
  3 31  1  0
  3 32  1  0
  4 33  1  0
  4 34  1  0
  5 35  1  0
  5 36  1  0
  6 37  1  0
  9 38  1  0
 10 39  1  0
 11 40  1  0
 12 41  1  0
 15 42  1  0
 15 43  1  0
 15 44  1  0
 17 45  1  0
 20 46  1  0
 20 47  1  0
 20 48  1  0
 23 49  1  0
 23 50  1  0
 23 51  1  0
 24 52  1  0
M  CHG  2   3   1  14   1
M  END
>  <UniqueID>  (21) 
20

>  <SMILES>  (21) 
CC[NH2+]CCNc1c2ccccc2[n+](C)c2cc(OC)c(OC)cc12

>  <Energy>  (21) 
74.65995191708454

>  <Genealogy>  (21) 
CC[NH2+]CCNc1c2ccccc2[n+](C)c2cc(OC)c(OC)cc12 (protonated)
CC[NH2+]CCNc1c2ccccc2[n+](C)c2cc(OC)c(OC)cc12 (3D coordinates assigned)
CC[NH2+]CCNc1c2ccccc2[n+](C)c2cc(OC)c(OC)cc12 (optimized conformer: 74.65995191708454 kcal/mol)

>  <smiles>  (21) 
CCNCCNc1c2ccccc2[n+](C)c2cc(OC)c(OC)cc12

>  <score_type>  (21) 
oracle

>  <origin>  (21) 
adg

>  <m_score__min__energy>  (21) 
-6.9900000000000002

>  <m_primary>  (21) 
energy

$$$$
21:0
     RDKit          3D

 57 58  0  0  0  0  0  0  0  0999 V2000
   -2.7890   18.9120  -26.2660 C   0  0  0  0  0  0  0  0  0  0  0  0
   -2.8330   19.8530  -27.4710 C   0  0  0  0  0  0  0  0  0  0  0  0
   -1.5310   20.5290  -27.6760 N   0  0  0  0  0  0  0  0  0  0  0  0
   -1.1950   21.3670  -26.5030 C   0  0  0  0  0  0  0  0  0  0  0  0
   -0.1380   22.4110  -26.8640 C   0  0  0  0  0  0  0  0  0  0  0  0
   -1.5150   21.3170  -28.9360 C   0  0  0  0  0  0  0  0  0  0  0  0
   -1.9480   20.4320  -30.1030 C   0  0  0  0  0  0  0  0  0  0  0  0
   -3.2380   20.8280  -30.5240 O   0  0  0  0  0  0  0  0  0  0  0  0
   -3.3910   20.6430  -31.9160 C   0  0  0  0  0  0  0  0  0  0  0  0
   -4.2500   21.7170  -32.5360 C   0  0  0  0  0  0  0  0  0  0  0  0
   -3.8530   22.2390  -33.6130 O   0  0  0  0  0  0  0  0  0  0  0  0
   -5.5010   22.1500  -31.9540 N   0  0  0  0  0  0  0  0  0  0  0  0
   -5.6700   23.4850  -31.3490 C   0  0  0  0  0  0  0  0  0  0  0  0
   -4.7970   23.6480  -30.1280 C   0  0  0  0  0  0  0  0  0  0  0  0
   -5.0500   22.8950  -28.9700 C   0  0  0  0  0  0  0  0  0  0  0  0
   -4.2390   23.0410  -27.8420 C   0  0  0  0  0  0  0  0  0  0  0  0
   -3.1760   23.9450  -27.8550 C   0  0  0  0  0  0  0  0  0  0  0  0
   -2.9170   24.7200  -28.9910 C   0  0  0  0  0  0  0  0  0  0  0  0
   -1.8280   25.6020  -28.9620 O   0  0  0  0  0  0  0  0  0  0  0  0
   -0.9880   25.8040  -27.8310 C   0  0  0  0  0  0  0  0  0  0  0  0
   -3.7450   24.5800  -30.1230 C   0  0  0  0  0  0  0  0  0  0  0  0
   -6.6160   21.2370  -31.9620 C   0  0  0  0  0  0  0  0  0  0  0  0
   -6.5330   20.0340  -32.6830 C   0  0  0  0  0  0  0  0  0  0  0  0
   -7.6020   19.1340  -32.6790 C   0  0  0  0  0  0  0  0  0  0  0  0
   -8.7640   19.4300  -31.9600 C   0  0  0  0  0  0  0  0  0  0  0  0
   -8.8580   20.6290  -31.2470 C   0  0  0  0  0  0  0  0  0  0  0  0
   -7.7900   21.5300  -31.2470 C   0  0  0  0  0  0  0  0  0  0  0  0
   -2.8166   19.5026  -25.3384 H   0  0  0  0  0  0  0  0  0  0  0  0
   -3.6565   18.2364  -26.2965 H   0  0  0  0  0  0  0  0  0  0  0  0
   -1.8622   18.3203  -26.2965 H   0  0  0  0  0  0  0  0  0  0  0  0
   -3.0797   19.2708  -28.3711 H   0  0  0  0  0  0  0  0  0  0  0  0
   -3.5967   20.6219  -27.2824 H   0  0  0  0  0  0  0  0  0  0  0  0
   -2.1036   21.8798  -26.1545 H   0  0  0  0  0  0  0  0  0  0  0  0
   -0.7926   20.7183  -25.7110 H   0  0  0  0  0  0  0  0  0  0  0  0
    0.2897   22.8335  -25.9428 H   0  0  0  0  0  0  0  0  0  0  0  0
    0.6595   21.9363  -27.4545 H   0  0  0  0  0  0  0  0  0  0  0  0
   -0.6028   23.2143  -27.4545 H   0  0  0  0  0  0  0  0  0  0  0  0
   -2.2079   22.1664  -28.8447 H   0  0  0  0  0  0  0  0  0  0  0  0
   -0.4962   21.6890  -29.1197 H   0  0  0  0  0  0  0  0  0  0  0  0
   -1.2374   20.5443  -30.9351 H   0  0  0  0  0  0  0  0  0  0  0  0
   -1.9666   19.3790  -29.7853 H   0  0  0  0  0  0  0  0  0  0  0  0
   -2.3980   20.6650  -32.3888 H   0  0  0  0  0  0  0  0  0  0  0  0
   -3.8866   19.6745  -32.0784 H   0  0  0  0  0  0  0  0  0  0  0  0
   -5.3971   24.2512  -32.0896 H   0  0  0  0  0  0  0  0  0  0  0  0
   -6.7205   23.5970  -31.0424 H   0  0  0  0  0  0  0  0  0  0  0  0
   -5.8912   22.1865  -28.9510 H   0  0  0  0  0  0  0  0  0  0  0  0
   -4.4388   22.4419  -26.9413 H   0  0  0  0  0  0  0  0  0  0  0  0
   -2.5370   24.0491  -26.9657 H   0  0  0  0  0  0  0  0  0  0  0  0
   -1.5729   25.6633  -26.9101 H   0  0  0  0  0  0  0  0  0  0  0  0
   -0.1609   25.0791  -27.8544 H   0  0  0  0  0  0  0  0  0  0  0  0
   -0.5809   26.8256  -27.8544 H   0  0  0  0  0  0  0  0  0  0  0  0
   -3.5663   25.2055  -31.0101 H   0  0  0  0  0  0  0  0  0  0  0  0
   -5.6222   19.7994  -33.2534 H   0  0  0  0  0  0  0  0  0  0  0  0
   -7.5292   18.1918  -33.2420 H   0  0  0  0  0  0  0  0  0  0  0  0
   -9.6040   18.7198  -31.9553 H   0  0  0  0  0  0  0  0  0  0  0  0
   -9.7742   20.8634  -30.6851 H   0  0  0  0  0  0  0  0  0  0  0  0
   -7.8684   22.4724  -30.6851 H   0  0  0  0  0  0  0  0  0  0  0  0
  1  2  1  0
  2  3  1  0
  3  4  1  0
  4  5  1  0
  3  6  1  0
  6  7  1  0
  7  8  1  0
  8  9  1  0
  9 10  1  0
 10 11  2  0
 10 12  1  0
 12 13  1  0
 13 14  1  0
 14 15  2  0
 15 16  1  0
 16 17  2  0
 17 18  1  0
 18 19  1  0
 19 20  1  0
 18 21  2  0
 12 22  1  0
 22 23  2  0
 23 24  1  0
 24 25  2  0
 25 26  1  0
 26 27  2  0
 21 14  1  0
 27 22  1  0
  1 28  1  0
  1 29  1  0
  1 30  1  0
  2 31  1  0
  2 32  1  0
  4 33  1  0
  4 34  1  0
  5 35  1  0
  5 36  1  0
  5 37  1  0
  6 38  1  0
  6 39  1  0
  7 40  1  0
  7 41  1  0
  9 42  1  0
  9 43  1  0
 13 44  1  0
 13 45  1  0
 15 46  1  0
 16 47  1  0
 17 48  1  0
 20 49  1  0
 20 50  1  0
 20 51  1  0
 21 52  1  0
 23 53  1  0
 24 54  1  0
 25 55  1  0
 26 56  1  0
 27 57  1  0
M  END
>  <UniqueID>  (22) 
21

>  <SMILES>  (22) 
CCN(CC)CCOCC(=O)N(Cc1cccc(OC)c1)c1ccccc1

>  <Energy>  (22) 
56.76260361327206

>  <Genealogy>  (22) 
CCN(CC)CCOCC(=O)N(Cc1cccc(OC)c1)c1ccccc1 (3D coordinates assigned)
CCN(CC)CCOCC(=O)N(Cc1cccc(OC)c1)c1ccccc1 (optimized conformer: 56.76260361327206 kcal/mol)

>  <smiles>  (22) 
CCN(CC)CCOCC(=O)N(Cc1cccc(OC)c1)c1ccccc1

>  <score_type>  (22) 
oracle

>  <origin>  (22) 
adg

>  <m_score__min__energy>  (22) 
-7.6399999999999997

>  <m_primary>  (22) 
energy

$$$$
22:0
     RDKit          3D

 57 60  0  0  0  0  0  0  0  0999 V2000
   -2.4200   19.3040  -26.3640 C   0  0  0  0  0  0  0  0  0  0  0  0
   -1.4980   20.5200  -26.5990 C   0  0  0  0  0  0  0  0  0  0  0  0
   -0.2110   20.0400  -27.2960 C   0  0  0  0  0  0  0  0  0  0  0  0
   -1.1500   21.1480  -25.2360 C   0  0  0  0  0  0  0  0  0  0  0  0
   -2.1700   21.5240  -27.4480 N   0  0  0  0  0  0  0  0  0  0  0  0
   -3.4940   21.5570  -27.7470 C   0  0  0  0  0  0  0  0  0  0  0  0
   -3.7210   22.6640  -28.5290 C   0  0  0  0  0  0  0  0  0  0  0  0
   -2.5090   23.2730  -28.6410 C   0  0  0  0  0  0  0  0  0  0  0  0
   -1.5650   22.5820  -27.9820 N   0  0  0  0  0  0  0  0  0  0  0  0
   -2.3720   24.5430  -29.3380 C   0  0  0  0  0  0  0  0  0  0  0  0
   -1.2870   25.1800  -29.3420 O   0  0  0  0  0  0  0  0  0  0  0  0
   -3.5380   25.0670  -29.9860 N   0  0  0  0  0  0  0  0  0  0  0  0
   -4.7400   24.2390  -30.2270 C   0  0  0  0  0  0  0  0  0  0  0  0
   -5.9400   25.1960  -30.4120 C   0  0  0  0  0  0  0  0  0  0  0  0
   -7.2360   24.4280  -30.7280 C   0  0  0  0  0  0  0  0  0  0  0  0
   -6.9850   23.2890  -31.6230 N   0  0  0  0  0  0  0  0  0  0  0  0
   -7.9810   22.2470  -31.7280 C   0  0  0  0  0  0  0  0  0  0  0  0
   -9.1400   22.4540  -31.2720 O   0  0  0  0  0  0  0  0  0  0  0  0
   -7.6650   20.9130  -32.3590 C   0  0  0  0  0  0  0  0  0  0  0  0
   -8.7460   19.9430  -32.1330 N   0  0  0  0  0  0  0  0  0  0  0  0
   -8.2210   18.6420  -31.6900 C   0  0  0  0  0  0  0  0  0  0  0  0
   -6.7260   18.4690  -32.0250 C   0  0  0  0  0  0  0  0  0  0  0  0
   -6.4830   17.7430  -33.3450 C   0  0  0  0  0  0  0  0  0  0  0  0
   -6.1080   17.0710  -32.0380 C   0  0  0  0  0  0  0  0  0  0  0  0
   -5.7550   23.2890  -32.4290 C   0  0  0  0  0  0  0  0  0  0  0  0
   -4.5110   23.4030  -31.5280 C   0  0  0  0  0  0  0  0  0  0  0  0
   -5.0020   23.2800  -29.0090 C   0  0  0  0  0  0  0  0  0  0  0  0
   -2.5436   19.1410  -25.2832 H   0  0  0  0  0  0  0  0  0  0  0  0
   -3.4023   19.4950  -26.8207 H   0  0  0  0  0  0  0  0  0  0  0  0
   -1.9710   18.4097  -26.8207 H   0  0  0  0  0  0  0  0  0  0  0  0
    0.5351   19.7617  -26.5371 H   0  0  0  0  0  0  0  0  0  0  0  0
   -0.4383   19.1662  -27.9243 H   0  0  0  0  0  0  0  0  0  0  0  0
    0.1894   20.8493  -27.9243 H   0  0  0  0  0  0  0  0  0  0  0  0
   -1.5119   20.4949  -24.4283 H   0  0  0  0  0  0  0  0  0  0  0  0
   -0.0592   21.2634  -25.1533 H   0  0  0  0  0  0  0  0  0  0  0  0
   -1.6304   22.1341  -25.1533 H   0  0  0  0  0  0  0  0  0  0  0  0
   -4.2502   20.8276  -27.4213 H   0  0  0  0  0  0  0  0  0  0  0  0
   -6.0833   25.7715  -29.4856 H   0  0  0  0  0  0  0  0  0  0  0  0
   -5.7204   25.8621  -31.2594 H   0  0  0  0  0  0  0  0  0  0  0  0
   -7.6682   24.0549  -29.7878 H   0  0  0  0  0  0  0  0  0  0  0  0
   -7.9297   25.1163  -31.2330 H   0  0  0  0  0  0  0  0  0  0  0  0
   -7.5298   21.0523  -33.4417 H   0  0  0  0  0  0  0  0  0  0  0  0
   -6.7464   20.5211  -31.8980 H   0  0  0  0  0  0  0  0  0  0  0  0
   -9.3540   20.3130  -31.3620 H   0  0  0  0  0  0  0  0  0  0  0  0
   -8.3511   18.5605  -30.6008 H   0  0  0  0  0  0  0  0  0  0  0  0
   -8.7778   17.8561  -32.2213 H   0  0  0  0  0  0  0  0  0  0  0  0
   -6.4268   19.4107  -31.5415 H   0  0  0  0  0  0  0  0  0  0  0  0
   -7.3354   17.3680  -33.9305 H   0  0  0  0  0  0  0  0  0  0  0  0
   -5.9479   17.9831  -34.2756 H   0  0  0  0  0  0  0  0  0  0  0  0
   -6.6890   16.2099  -31.6763 H   0  0  0  0  0  0  0  0  0  0  0  0
   -5.1897   16.6236  -31.6298 H   0  0  0  0  0  0  0  0  0  0  0  0
   -5.7000   22.3523  -33.0031 H   0  0  0  0  0  0  0  0  0  0  0  0
   -5.7787   24.1536  -33.1086 H   0  0  0  0  0  0  0  0  0  0  0  0
   -4.2012   22.3885  -31.2367 H   0  0  0  0  0  0  0  0  0  0  0  0
   -3.7428   23.9302  -32.1128 H   0  0  0  0  0  0  0  0  0  0  0  0
   -5.4549   23.8554  -28.1882 H   0  0  0  0  0  0  0  0  0  0  0  0
   -5.6793   22.4762  -29.3332 H   0  0  0  0  0  0  0  0  0  0  0  0
  1  2  1  0
  2  3  1  0
  2  4  1  0
  2  5  1  0
  5  6  1  0
  6  7  2  0
  7  8  1  0
  8  9  2  0
  8 10  1  0
 10 11  2  0
 10 12  1  0
 12 13  1  0
 13 14  1  0
 14 15  1  0
 15 16  1  0
 16 17  1  0
 17 18  2  0
 17 19  1  0
 19 20  1  0
 20 21  1  0
 21 22  1  0
 22 23  1  0
 23 24  1  0
 16 25  1  0
 25 26  1  0
 13 27  1  0
  9  5  1  0
 26 13  1  0
 27  7  1  0
 24 22  1  0
  1 28  1  0
  1 29  1  0
  1 30  1  0
  3 31  1  0
  3 32  1  0
  3 33  1  0
  4 34  1  0
  4 35  1  0
  4 36  1  0
  6 37  1  0
 14 38  1  0
 14 39  1  0
 15 40  1  0
 15 41  1  0
 19 42  1  0
 19 43  1  0
 20 44  1  0
 21 45  1  0
 21 46  1  0
 22 47  1  0
 23 48  1  0
 23 49  1  0
 24 50  1  0
 24 51  1  0
 25 52  1  0
 25 53  1  0
 26 54  1  0
 26 55  1  0
 27 56  1  0
 27 57  1  0
M  CHG  1  12  -1
M  END
>  <UniqueID>  (23) 
22

>  <SMILES>  (23) 
CC(C)(C)n1cc2c(n1)C(=O)[N-]C1(CCN(C(=O)CNCC3CC3)CC1)C2

>  <Energy>  (23) 
360.69321940846135

>  <Genealogy>  (23) 
CC(C)(C)n1cc2c(n1)C(=O)[N-]C1(CCN(C(=O)CNCC3CC3)CC1)C2 (protonated)
CC(C)(C)n1cc2c(n1)C(=O)[N-]C1(CCN(C(=O)CNCC3CC3)CC1)C2 (3D coordinates assigned)
CC(C)(C)n1cc2c(n1)C(=O)[N-]C1(CCN(C(=O)CNCC3CC3)CC1)C2 (nonaromatic ring conformer: 360.69321940846135 kcal/mol)

>  <smiles>  (23) 
CC(C)(C)n1cc2c(n1)C(=O)NC1(CCN(C(=O)CNCC3CC3)CC1)C2

>  <score_type>  (23) 
oracle

>  <origin>  (23) 
adg

>  <m_score__min__energy>  (23) 
-10.84

>  <m_primary>  (23) 
energy

$$$$
23:0
     RDKit          3D

 38 39  0  0  0  0  0  0  0  0999 V2000
   -0.8820   26.7820  -28.1430 C   0  0  0  0  0  0  0  0  0  0  0  0
   -1.4080   25.7320  -28.9500 O   0  0  0  0  0  0  0  0  0  0  0  0
   -1.1360   24.3670  -28.7660 C   0  0  0  0  0  0  0  0  0  0  0  0
    0.0200   23.9370  -28.0830 C   0  0  0  0  0  0  0  0  0  0  0  0
    0.2990   22.5750  -27.9490 C   0  0  0  0  0  0  0  0  0  0  0  0
   -0.5620   21.6270  -28.4960 C   0  0  0  0  0  0  0  0  0  0  0  0
   -1.7140   22.0350  -29.1690 C   0  0  0  0  0  0  0  0  0  0  0  0
   -2.0250   23.4010  -29.2990 C   0  0  0  0  0  0  0  0  0  0  0  0
   -3.2700   23.7740  -30.0110 C   0  0  0  0  0  0  0  0  0  0  0  0
   -4.3330   22.9560  -30.3500 C   0  0  0  0  0  0  0  0  0  0  0  0
   -5.2000   23.8030  -31.0120 C   0  0  0  0  0  0  0  0  0  0  0  0
   -6.4970   23.4500  -31.6160 C   0  0  0  0  0  0  0  0  0  0  0  0
   -6.8790   24.0710  -32.6460 O   0  0  0  0  0  0  0  0  0  0  0  0
   -7.3270   22.4260  -31.0470 N   0  0  0  0  0  0  0  0  0  0  0  0
   -8.5560   21.9640  -31.6920 C   0  0  0  0  0  0  0  0  0  0  0  0
   -8.3480   20.5950  -32.3690 C   0  0  0  0  0  0  0  0  0  0  0  0
   -6.9000   20.4290  -32.8520 C   0  0  0  0  0  0  0  0  0  0  0  0
   -8.7170   19.4630  -31.4020 C   0  0  0  0  0  0  0  0  0  0  0  0
   -4.6690   25.0400  -31.0630 N   0  0  0  0  0  0  0  0  0  0  0  0
   -3.5200   24.9840  -30.4580 O   0  0  0  0  0  0  0  0  0  0  0  0
   -1.0097   26.5270  -27.0806 H   0  0  0  0  0  0  0  0  0  0  0  0
    0.1879   26.9125  -28.3627 H   0  0  0  0  0  0  0  0  0  0  0  0
   -1.4181   27.7170  -28.3627 H   0  0  0  0  0  0  0  0  0  0  0  0
    0.7075   24.6799  -27.6523 H   0  0  0  0  0  0  0  0  0  0  0  0
    1.2012   22.2503  -27.4100 H   0  0  0  0  0  0  0  0  0  0  0  0
   -0.3336   20.5555  -28.3974 H   0  0  0  0  0  0  0  0  0  0  0  0
   -2.3866   21.2804  -29.6028 H   0  0  0  0  0  0  0  0  0  0  0  0
   -4.4582   21.8833  -30.1413 H   0  0  0  0  0  0  0  0  0  0  0  0
   -7.0870   22.0250  -30.1140 H   0  0  0  0  0  0  0  0  0  0  0  0
   -9.3472   21.8728  -30.9333 H   0  0  0  0  0  0  0  0  0  0  0  0
   -8.8413   22.6948  -32.4631 H   0  0  0  0  0  0  0  0  0  0  0  0
   -9.0083   20.5461  -33.2474 H   0  0  0  0  0  0  0  0  0  0  0  0
   -6.2301   20.3522  -31.9829 H   0  0  0  0  0  0  0  0  0  0  0  0
   -6.8186   19.5156  -33.4596 H   0  0  0  0  0  0  0  0  0  0  0  0
   -6.6140   21.3002  -33.4596 H   0  0  0  0  0  0  0  0  0  0  0  0
   -8.6026   19.8140  -30.3658 H   0  0  0  0  0  0  0  0  0  0  0  0
   -9.7605   19.1599  -31.5734 H   0  0  0  0  0  0  0  0  0  0  0  0
   -8.0526   18.6032  -31.5734 H   0  0  0  0  0  0  0  0  0  0  0  0
  1  2  1  0
  2  3  1  0
  3  4  2  0
  4  5  1  0
  5  6  2  0
  6  7  1  0
  7  8  2  0
  8  9  1  0
  9 10  2  0
 10 11  1  0
 11 12  1  0
 12 13  2  0
 12 14  1  0
 14 15  1  0
 15 16  1  0
 16 17  1  0
 16 18  1  0
 11 19  2  0
 19 20  1  0
  8  3  1  0
 20  9  1  0
  1 21  1  0
  1 22  1  0
  1 23  1  0
  4 24  1  0
  5 25  1  0
  6 26  1  0
  7 27  1  0
 10 28  1  0
 14 29  1  0
 15 30  1  0
 15 31  1  0
 16 32  1  0
 17 33  1  0
 17 34  1  0
 17 35  1  0
 18 36  1  0
 18 37  1  0
 18 38  1  0
M  END
>  <UniqueID>  (24) 
23

>  <SMILES>  (24) 
COc1ccccc1-c1cc(C(=O)NCC(C)C)no1

>  <Energy>  (24) 
62.673401576296506

>  <Genealogy>  (24) 
COc1ccccc1-c1cc(C(=O)NCC(C)C)no1 (3D coordinates assigned)
COc1ccccc1-c1cc(C(=O)NCC(C)C)no1 (optimized conformer: 62.673401576296506 kcal/mol)

>  <smiles>  (24) 
COc1ccccc1-c1cc(C(=O)NCC(C)C)no1

>  <score_type>  (24) 
oracle

>  <origin>  (24) 
adg

>  <m_score__min__energy>  (24) 
-8.2899999999999991

>  <m_primary>  (24) 
energy

$$$$
24:0
     RDKit          3D

 54 56  0  0  0  0  0  0  0  0999 V2000
   -8.1737   18.5786  -32.6435 H   0  0  0  0  0  0  0  0  0  0  0  0
   -7.9740   19.6410  -32.4400 C   0  0  0  0  0  0  0  0  0  0  0  0
   -8.9950   20.4640  -31.9530 C   0  0  0  0  0  0  0  0  0  0  0  0
   -9.9970   20.0478  -31.7721 H   0  0  0  0  0  0  0  0  0  0  0  0
   -8.7430   21.8150  -31.6960 C   0  0  0  0  0  0  0  0  0  0  0  0
   -9.5475   22.4586  -31.3107 H   0  0  0  0  0  0  0  0  0  0  0  0
   -7.4660   22.3540  -31.9280 C   0  0  0  0  0  0  0  0  0  0  0  0
   -7.1790   23.8010  -31.6280 C   0  0  0  0  0  0  0  0  0  0  0  0
   -7.4917   24.0257  -30.5976 H   0  0  0  0  0  0  0  0  0  0  0  0
   -7.7359   24.4285  -32.3394 H   0  0  0  0  0  0  0  0  0  0  0  0
   -5.7510   24.0810  -31.7690 N   0  0  0  0  0  0  0  0  0  0  0  0
   -4.9130   24.1220  -30.7760 C   0  0  0  0  0  0  0  0  0  0  0  0
   -3.6000   23.8050  -30.8850 N   0  0  0  0  0  0  0  0  0  0  0  0
   -2.9760   23.9460  -29.6890 C   0  0  0  0  0  0  0  0  0  0  0  0
   -1.6210   23.7000  -29.4730 C   0  0  0  0  0  0  0  0  0  0  0  0
   -0.9751   23.3663  -30.2985 H   0  0  0  0  0  0  0  0  0  0  0  0
   -1.0940   23.8850  -28.1850 C   0  0  0  0  0  0  0  0  0  0  0  0
   -0.0260   23.6958  -28.0020 H   0  0  0  0  0  0  0  0  0  0  0  0
   -1.9250   24.3140  -27.1150 C   0  0  0  0  0  0  0  0  0  0  0  0
   -1.4090   24.5170  -25.7830 N   0  0  0  0  0  0  0  0  0  0  0  0
   -1.5250   23.7470  -25.0850 H   0  0  0  0  0  0  0  0  0  0  0  0
   -0.7580   25.7420  -25.3180 C   0  0  0  0  0  0  0  0  0  0  0  0
   -1.3931   26.6055  -25.5650 H   0  0  0  0  0  0  0  0  0  0  0  0
    0.2193   25.8355  -25.8141 H   0  0  0  0  0  0  0  0  0  0  0  0
   -0.5410   25.6930  -23.8010 C   0  0  0  0  0  0  0  0  0  0  0  0
    0.3119   25.0310  -23.5904 H   0  0  0  0  0  0  0  0  0  0  0  0
   -1.4720   25.3214  -23.3480 H   0  0  0  0  0  0  0  0  0  0  0  0
   -0.2510   27.0780  -23.1870 C   0  0  0  0  0  0  0  0  0  0  0  0
   -0.7457   27.1362  -22.2062 H   0  0  0  0  0  0  0  0  0  0  0  0
   -0.6345   27.8336  -23.8885 H   0  0  0  0  0  0  0  0  0  0  0  0
    1.2080   27.3450  -23.0000 N   0  0  0  0  0  0  0  0  0  0  0  0
    1.5610   26.7430  -22.2190 H   0  0  0  0  0  0  0  0  0  0  0  0
    1.9940   26.9380  -24.1970 C   0  0  0  0  0  0  0  0  0  0  0  0
    2.6250   27.7868  -24.4994 H   0  0  0  0  0  0  0  0  0  0  0  0
    1.2650   26.6500  -24.9688 H   0  0  0  0  0  0  0  0  0  0  0  0
    2.9030   25.7180  -23.9740 C   0  0  0  0  0  0  0  0  0  0  0  0
    3.0299   25.5477  -22.8947 H   0  0  0  0  0  0  0  0  0  0  0  0
    2.4445   24.8302  -24.4339 H   0  0  0  0  0  0  0  0  0  0  0  0
    3.8849   25.9034  -24.4339 H   0  0  0  0  0  0  0  0  0  0  0  0
    1.4410   28.7600  -22.6010 C   0  0  0  0  0  0  0  0  0  0  0  0
    1.7653   29.3254  -23.4871 H   0  0  0  0  0  0  0  0  0  0  0  0
    0.4963   29.1464  -22.1909 H   0  0  0  0  0  0  0  0  0  0  0  0
    2.5080   28.9060  -21.5110 C   0  0  0  0  0  0  0  0  0  0  0  0
    2.0324   28.8409  -20.5213 H   0  0  0  0  0  0  0  0  0  0  0  0
    3.2506   28.1011  -21.6146 H   0  0  0  0  0  0  0  0  0  0  0  0
    3.0070   29.8808  -21.6146 H   0  0  0  0  0  0  0  0  0  0  0  0
   -3.2910   24.5610  -27.3610 C   0  0  0  0  0  0  0  0  0  0  0  0
   -3.9541   24.8998  -26.5514 H   0  0  0  0  0  0  0  0  0  0  0  0
   -3.7840   24.3680  -28.6470 C   0  0  0  0  0  0  0  0  0  0  0  0
   -5.3530   24.5830  -29.2100 S   0  0  0  0  0  0  0  0  0  0  0  0
   -6.4450   21.5200  -32.4120 C   0  0  0  0  0  0  0  0  0  0  0  0
   -5.4405   21.9311  -32.5905 H   0  0  0  0  0  0  0  0  0  0  0  0
   -6.7000   20.1690  -32.6680 C   0  0  0  0  0  0  0  0  0  0  0  0
   -5.8970   19.5211  -33.0493 H   0  0  0  0  0  0  0  0  0  0  0  0
  1  2  1  0
  2  3  2  0
  3  4  1  0
  3  5  1  0
  5  6  1  0
  5  7  2  0
  7  8  1  0
  8  9  1  0
  8 10  1  0
  8 11  1  0
 11 12  2  0
 12 13  1  0
 13 14  1  0
 14 15  2  0
 15 16  1  0
 15 17  1  0
 17 18  1  0
 17 19  2  0
 19 20  1  0
 20 21  1  0
 20 22  1  0
 22 23  1  0
 22 24  1  0
 22 25  1  0
 25 26  1  0
 25 27  1  0
 25 28  1  0
 28 29  1  0
 28 30  1  0
 28 31  1  0
 31 32  1  0
 31 33  1  0
 33 34  1  0
 33 35  1  0
 33 36  1  0
 36 37  1  0
 36 38  1  0
 36 39  1  0
 31 40  1  0
 40 41  1  0
 40 42  1  0
 40 43  1  0
 43 44  1  0
 43 45  1  0
 43 46  1  0
 19 47  1  0
 47 48  1  0
 47 49  2  0
 49 50  1  0
  7 51  1  0
 51 52  1  0
 51 53  2  0
 53 54  1  0
 53  2  1  0
 50 12  1  0
 49 14  1  0
M  CHG  2  13  -1  31   1
M  END
>  <UniqueID>  (25) 
24

>  <SMILES>  (25) 
CC[NH+](CC)CCCNc1ccc2[n-]/c(=N\Cc3ccccc3)sc2c1

>  <Energy>  (25) 
90.76909568851836

>  <Genealogy>  (25) 
CC[NH+](CC)CCCNc1ccc2[n-]c(=NCc3ccccc3)sc2c1 (protonated)
CC[NH+](CC)CCCNc1ccc2[n-]/c(=N\Cc3ccccc3)sc2c1 (cis-trans isomerization)
CC[NH+](CC)CCCNc1ccc2[n-]/c(=N\Cc3ccccc3)sc2c1 (3D coordinates assigned)
CC[NH+](CC)CCCNc1ccc2[n-]/c(=N\Cc3ccccc3)sc2c1 (optimized conformer: 90.76909568851836 kcal/mol)

>  <smiles>  (25) 
CCN(CC)CCCNc1ccc2[nH]c(=NCc3ccccc3)sc2c1

>  <score_type>  (25) 
oracle

>  <origin>  (25) 
adg

>  <m_score__min__energy>  (25) 
-9.9100000000000001

>  <m_primary>  (25) 
energy

$$$$
25:0
     RDKit          3D

 53 55  0  0  0  0  0  0  0  0999 V2000
   -4.1930   24.0970  -27.8000 C   0  0  0  0  0  0  0  0  0  0  0  0
   -3.4660   24.1170  -29.1430 C   0  0  0  0  0  0  0  0  0  0  0  0
   -4.3060   24.7910  -30.2380 C   0  0  0  0  0  0  0  0  0  0  0  0
   -4.6640   23.8250  -31.3030 N   0  0  0  0  0  0  0  0  0  0  0  0
   -6.1160   23.8540  -31.5870 C   0  0  0  0  0  0  0  0  0  0  0  0
   -6.8750   24.4510  -30.4030 C   0  0  0  0  0  0  0  0  0  0  0  0
   -4.1840   22.4540  -30.9930 C   0  0  0  0  0  0  0  0  0  0  0  0
   -3.3070   21.9280  -32.1360 C   0  0  0  0  0  0  0  0  0  0  0  0
   -4.0880   21.6770  -33.3580 N   0  0  0  0  0  0  0  0  0  0  0  0
   -4.5250   20.2900  -33.4070 C   0  0  0  0  0  0  0  0  0  0  0  0
   -3.6200   19.2570  -33.7710 C   0  0  0  0  0  0  0  0  0  0  0  0
   -2.3050   19.5410  -34.2180 C   0  0  0  0  0  0  0  0  0  0  0  0
   -1.3960   18.5180  -34.4740 C   0  0  0  0  0  0  0  0  0  0  0  0
   -1.7670   17.1960  -34.2890 C   0  0  0  0  0  0  0  0  0  0  0  0
   -3.0660   16.8830  -33.9010 C   0  0  0  0  0  0  0  0  0  0  0  0
   -4.0360   17.8980  -33.6910 C   0  0  0  0  0  0  0  0  0  0  0  0
   -5.3510   17.5860  -33.4060 N   0  0  0  0  0  0  0  0  0  0  0  0
   -5.8440   16.2050  -33.6230 C   0  0  0  0  0  0  0  0  0  0  0  0
   -6.2230   18.5660  -32.9750 C   0  0  0  0  0  0  0  0  0  0  0  0
   -7.5010   18.2390  -32.4530 C   0  0  0  0  0  0  0  0  0  0  0  0
   -8.4190   19.2280  -32.1150 C   0  0  0  0  0  0  0  0  0  0  0  0
   -8.0910   20.5660  -32.2780 C   0  0  0  0  0  0  0  0  0  0  0  0
   -9.3690   21.9230  -31.8570 Br  0  0  0  0  0  0  0  0  0  0  0  0
   -6.8230   20.9210  -32.7280 C   0  0  0  0  0  0  0  0  0  0  0  0
   -5.8500   19.9380  -33.0370 C   0  0  0  0  0  0  0  0  0  0  0  0
   -3.4559   24.1173  -26.9837 H   0  0  0  0  0  0  0  0  0  0  0  0
   -4.8480   24.9775  -27.7245 H   0  0  0  0  0  0  0  0  0  0  0  0
   -4.7986   23.1819  -27.7245 H   0  0  0  0  0  0  0  0  0  0  0  0
   -2.5218   24.6695  -29.0282 H   0  0  0  0  0  0  0  0  0  0  0  0
   -3.2814   23.0760  -29.4467 H   0  0  0  0  0  0  0  0  0  0  0  0
   -5.2278   25.1901  -29.7897 H   0  0  0  0  0  0  0  0  0  0  0  0
   -3.7126   25.6019  -30.6855 H   0  0  0  0  0  0  0  0  0  0  0  0
   -6.2988   24.4671  -32.4818 H   0  0  0  0  0  0  0  0  0  0  0  0
   -6.4684   22.8259  -31.7568 H   0  0  0  0  0  0  0  0  0  0  0  0
   -6.4255   24.0974  -29.4634 H   0  0  0  0  0  0  0  0  0  0  0  0
   -6.8177   25.5486  -30.4466 H   0  0  0  0  0  0  0  0  0  0  0  0
   -7.9283   24.1368  -30.4466 H   0  0  0  0  0  0  0  0  0  0  0  0
   -3.5951   22.4767  -30.0642 H   0  0  0  0  0  0  0  0  0  0  0  0
   -5.0518   21.7891  -30.8717 H   0  0  0  0  0  0  0  0  0  0  0  0
   -2.5287   22.6728  -32.3584 H   0  0  0  0  0  0  0  0  0  0  0  0
   -2.8637   20.9743  -31.8136 H   0  0  0  0  0  0  0  0  0  0  0  0
   -4.8960   22.3350  -33.4140 H   0  0  0  0  0  0  0  0  0  0  0  0
   -3.5370   21.9160  -34.2090 H   0  0  0  0  0  0  0  0  0  0  0  0
   -1.9977   20.5869  -34.3650 H   0  0  0  0  0  0  0  0  0  0  0  0
   -0.3815   18.7598  -34.8237 H   0  0  0  0  0  0  0  0  0  0  0  0
   -1.0332   16.3923  -34.4492 H   0  0  0  0  0  0  0  0  0  0  0  0
   -3.3465   15.8295  -33.7543 H   0  0  0  0  0  0  0  0  0  0  0  0
   -6.0170   15.7204  -32.6508 H   0  0  0  0  0  0  0  0  0  0  0  0
   -6.7863   16.2369  -34.1896 H   0  0  0  0  0  0  0  0  0  0  0  0
   -5.0946   15.6329  -34.1896 H   0  0  0  0  0  0  0  0  0  0  0  0
   -7.7715   17.1820  -32.3127 H   0  0  0  0  0  0  0  0  0  0  0  0
   -9.4061   18.9488  -31.7180 H   0  0  0  0  0  0  0  0  0  0  0  0
   -6.5710   21.9852  -32.8462 H   0  0  0  0  0  0  0  0  0  0  0  0
  1  2  1  0
  2  3  1  0
  3  4  1  0
  4  5  1  0
  5  6  1  0
  4  7  1  0
  7  8  1  0
  8  9  1  0
  9 10  1  0
 10 11  2  0
 11 12  1  0
 12 13  2  0
 13 14  1  0
 14 15  2  0
 15 16  1  0
 16 17  2  0
 17 18  1  0
 17 19  1  0
 19 20  2  0
 20 21  1  0
 21 22  2  0
 22 23  1  0
 22 24  1  0
 24 25  2  0
 25 10  1  0
 16 11  1  0
 25 19  1  0
  1 26  1  0
  1 27  1  0
  1 28  1  0
  2 29  1  0
  2 30  1  0
  3 31  1  0
  3 32  1  0
  5 33  1  0
  5 34  1  0
  6 35  1  0
  6 36  1  0
  6 37  1  0
  7 38  1  0
  7 39  1  0
  8 40  1  0
  8 41  1  0
  9 42  1  0
  9 43  1  0
 12 44  1  0
 13 45  1  0
 14 46  1  0
 15 47  1  0
 18 48  1  0
 18 49  1  0
 18 50  1  0
 20 51  1  0
 21 52  1  0
 24 53  1  0
M  CHG  2   9   1  17   1
M  END
>  <UniqueID>  (26) 
25

>  <SMILES>  (26) 
CCCN(CC)CC[NH2+]c1c2ccccc2[n+](C)c2ccc(Br)cc12

>  <Energy>  (26) 
77.2039763823031

>  <Genealogy>  (26) 
CCCN(CC)CC[NH2+]c1c2ccccc2[n+](C)c2ccc(Br)cc12 (protonated)
CCCN(CC)CC[NH2+]c1c2ccccc2[n+](C)c2ccc(Br)cc12 (3D coordinates assigned)
CCCN(CC)CC[NH2+]c1c2ccccc2[n+](C)c2ccc(Br)cc12 (optimized conformer: 77.2039763823031 kcal/mol)

>  <smiles>  (26) 
CCCN(CC)CCNc1c2ccccc2[n+](C)c2ccc(Br)cc12

>  <score_type>  (26) 
oracle

>  <origin>  (26) 
adg

>  <m_score__min__energy>  (26) 
-8.6300000000000008

>  <m_primary>  (26) 
energy

$$$$
26:0
     RDKit          3D

 49 52  0  0  0  0  0  0  0  0999 V2000
   -4.0170   22.3310  -31.7150 C   0  0  0  0  0  0  0  0  0  0  0  0
   -5.4850   22.3560  -31.5550 N   0  0  0  0  0  0  0  0  0  0  0  0
   -6.1400   23.4270  -30.9730 C   0  0  0  0  0  0  0  0  0  0  0  0
   -5.4140   24.6560  -30.4410 C   0  0  0  0  0  0  0  0  0  0  0  0
   -5.3740   24.6890  -28.9680 N   0  0  0  0  0  0  0  0  0  0  0  0
   -4.3640   23.7670  -28.4260 C   0  0  0  0  0  0  0  0  0  0  0  0
   -3.1470   24.5240  -27.9860 C   0  0  0  0  0  0  0  0  0  0  0  0
   -2.8640   24.9200  -26.6860 C   0  0  0  0  0  0  0  0  0  0  0  0
   -1.6140   25.5370  -26.5580 C   0  0  0  0  0  0  0  0  0  0  0  0
   -0.9070   25.6130  -27.7520 C   0  0  0  0  0  0  0  0  0  0  0  0
   -1.8370   24.9110  -28.9650 S   0  0  0  0  0  0  0  0  0  0  0  0
   -7.5360   23.3940  -30.8190 C   0  0  0  0  0  0  0  0  0  0  0  0
   -8.2670   22.2860  -31.2300 C   0  0  0  0  0  0  0  0  0  0  0  0
   -9.5180   22.2800  -31.0800 O   0  0  0  0  0  0  0  0  0  0  0  0
   -7.6010   21.1910  -31.7920 C   0  0  0  0  0  0  0  0  0  0  0  0
   -8.2910   20.0350  -32.1950 C   0  0  0  0  0  0  0  0  0  0  0  0
   -7.5940   18.9550  -32.7350 C   0  0  0  0  0  0  0  0  0  0  0  0
   -8.2660   17.8250  -33.0680 F   0  0  0  0  0  0  0  0  0  0  0  0
   -6.2020   19.0350  -32.8780 C   0  0  0  0  0  0  0  0  0  0  0  0
   -5.4500   17.9380  -33.4200 N   0  0  0  0  0  0  0  0  0  0  0  0
   -5.3690   16.6740  -32.6820 C   0  0  0  0  0  0  0  0  0  0  0  0
   -4.1250   15.8980  -33.1250 C   0  0  0  0  0  0  0  0  0  0  0  0
   -4.1000   15.7520  -34.5330 O   0  0  0  0  0  0  0  0  0  0  0  0
   -3.9680   17.0220  -35.1440 C   0  0  0  0  0  0  0  0  0  0  0  0
   -5.1950   17.8950  -34.8630 C   0  0  0  0  0  0  0  0  0  0  0  0
   -5.5540   20.1590  -32.4700 N   0  0  0  0  0  0  0  0  0  0  0  0
   -6.1960   21.2400  -31.9410 C   0  0  0  0  0  0  0  0  0  0  0  0
   -3.5402   22.3229  -30.7237 H   0  0  0  0  0  0  0  0  0  0  0  0
   -3.7240   21.4277  -32.2702 H   0  0  0  0  0  0  0  0  0  0  0  0
   -3.6934   23.2238  -32.2702 H   0  0  0  0  0  0  0  0  0  0  0  0
   -4.3824   24.6501  -30.8227 H   0  0  0  0  0  0  0  0  0  0  0  0
   -5.9640   25.5454  -30.7824 H   0  0  0  0  0  0  0  0  0  0  0  0
   -5.1800   25.6600  -28.6310 H   0  0  0  0  0  0  0  0  0  0  0  0
   -6.3160   24.4020  -28.6120 H   0  0  0  0  0  0  0  0  0  0  0  0
   -4.7882   23.2306  -27.5644 H   0  0  0  0  0  0  0  0  0  0  0  0
   -4.0752   23.0529  -29.2113 H   0  0  0  0  0  0  0  0  0  0  0  0
   -3.5522   24.7647  -25.8420 H   0  0  0  0  0  0  0  0  0  0  0  0
   -1.2282   25.9246  -25.6036 H   0  0  0  0  0  0  0  0  0  0  0  0
    0.0911   26.0568  -27.8817 H   0  0  0  0  0  0  0  0  0  0  0  0
   -8.0551   24.2531  -30.3690 H   0  0  0  0  0  0  0  0  0  0  0  0
   -9.3841   19.9821  -32.0841 H   0  0  0  0  0  0  0  0  0  0  0  0
   -5.3051   16.8832  -31.6040 H   0  0  0  0  0  0  0  0  0  0  0  0
   -6.2668   16.0728  -32.8884 H   0  0  0  0  0  0  0  0  0  0  0  0
   -3.2257   16.4434  -32.8027 H   0  0  0  0  0  0  0  0  0  0  0  0
   -4.1506   14.8983  -32.6667 H   0  0  0  0  0  0  0  0  0  0  0  0
   -3.0722   17.5214  -34.7464 H   0  0  0  0  0  0  0  0  0  0  0  0
   -3.8791   16.8809  -36.2313 H   0  0  0  0  0  0  0  0  0  0  0  0
   -5.0108   18.9146  -35.2324 H   0  0  0  0  0  0  0  0  0  0  0  0
   -6.0704   17.4693  -35.3754 H   0  0  0  0  0  0  0  0  0  0  0  0
  1  2  1  0
  2  3  1  0
  3  4  1  0
  4  5  1  0
  5  6  1  0
  6  7  1  0
  7  8  2  0
  8  9  1  0
  9 10  2  0
 10 11  1  0
  3 12  2  0
 12 13  1  0
 13 14  2  0
 13 15  1  0
 15 16  2  0
 16 17  1  0
 17 18  1  0
 17 19  2  0
 19 20  1  0
 20 21  1  0
 21 22  1  0
 22 23  1  0
 23 24  1  0
 24 25  1  0
 19 26  1  0
 26 27  2  0
 27  2  1  0
 11  7  1  0
 27 15  1  0
 25 20  1  0
  1 28  1  0
  1 29  1  0
  1 30  1  0
  4 31  1  0
  4 32  1  0
  5 33  1  0
  5 34  1  0
  6 35  1  0
  6 36  1  0
  8 37  1  0
  9 38  1  0
 10 39  1  0
 12 40  1  0
 16 41  1  0
 21 42  1  0
 21 43  1  0
 22 44  1  0
 22 45  1  0
 24 46  1  0
 24 47  1  0
 25 48  1  0
 25 49  1  0
M  CHG  1   5   1
M  END
>  <UniqueID>  (27) 
26

>  <SMILES>  (27) 
Cn1c(C[NH2+]Cc2cccs2)cc(=O)c2cc(F)c(N3CCOCC3)nc21

>  <Energy>  (27) 
92.97886185832053

>  <Genealogy>  (27) 
Cn1c(C[NH2+]Cc2cccs2)cc(=O)c2cc(F)c(N3CCOCC3)nc21 (protonated)
Cn1c(C[NH2+]Cc2cccs2)cc(=O)c2cc(F)c(N3CCOCC3)nc21 (3D coordinates assigned)
Cn1c(C[NH2+]Cc2cccs2)cc(=O)c2cc(F)c(N3CCOCC3)nc21 (nonaromatic ring conformer: 92.97886185832053 kcal/mol)

>  <smiles>  (27) 
Cn1c(CNCc2cccs2)cc(=O)c2cc(F)c(N3CCOCC3)nc21

>  <score_type>  (27) 
oracle

>  <origin>  (27) 
adg

>  <m_score__min__energy>  (27) 
-7.8399999999999999

>  <m_primary>  (27) 
energy

$$$$
27:0
     RDKit          3D

 47 49  0  0  0  0  0  0  0  0999 V2000
   -1.5130   17.7960  -33.0900 C   0  0  0  0  0  0  0  0  0  0  0  0
   -1.4280   18.8100  -34.2270 C   0  0  0  0  0  0  0  0  0  0  0  0
   -1.8020   20.1600  -33.7430 N   0  0  0  0  0  0  0  0  0  0  0  0
   -0.8320   21.1650  -34.2120 C   0  0  0  0  0  0  0  0  0  0  0  0
   -1.8990   20.1970  -32.2670 C   0  0  0  0  0  0  0  0  0  0  0  0
   -2.3270   21.5960  -31.7990 C   0  0  0  0  0  0  0  0  0  0  0  0
   -3.8560   21.7680  -31.7590 C   0  0  0  0  0  0  0  0  0  0  0  0
   -4.4790   21.4750  -33.0630 N   0  0  0  0  0  0  0  0  0  0  0  0
   -5.6790   20.6790  -32.8910 C   0  0  0  0  0  0  0  0  0  0  0  0
   -5.7240   19.3220  -33.3430 C   0  0  0  0  0  0  0  0  0  0  0  0
   -4.6660   18.7580  -34.0970 C   0  0  0  0  0  0  0  0  0  0  0  0
   -4.7150   17.4360  -34.5300 C   0  0  0  0  0  0  0  0  0  0  0  0
   -5.8150   16.6430  -34.2350 C   0  0  0  0  0  0  0  0  0  0  0  0
   -6.8790   17.1680  -33.5080 C   0  0  0  0  0  0  0  0  0  0  0  0
   -6.8640   18.5080  -33.0450 C   0  0  0  0  0  0  0  0  0  0  0  0
   -7.9240   19.0250  -32.3280 N   0  0  0  0  0  0  0  0  0  0  0  0
   -9.0790   18.1800  -31.9650 C   0  0  0  0  0  0  0  0  0  0  0  0
   -7.9040   20.3490  -31.9830 C   0  0  0  0  0  0  0  0  0  0  0  0
   -9.1300   21.2060  -31.2070 S   0  0  0  0  0  0  0  0  0  0  0  0
   -8.3420   22.6810  -31.2050 C   0  0  0  0  0  0  0  0  0  0  0  0
   -7.1010   22.5350  -31.8150 C   0  0  0  0  0  0  0  0  0  0  0  0
   -6.1170   23.9770  -32.0310 Cl  0  0  0  0  0  0  0  0  0  0  0  0
   -6.8340   21.2030  -32.2540 C   0  0  0  0  0  0  0  0  0  0  0  0
   -1.4689   18.3224  -32.1252 H   0  0  0  0  0  0  0  0  0  0  0  0
   -2.4607   17.2423  -33.1626 H   0  0  0  0  0  0  0  0  0  0  0  0
   -0.6707   17.0923  -33.1626 H   0  0  0  0  0  0  0  0  0  0  0  0
   -0.3986   18.8357  -34.6137 H   0  0  0  0  0  0  0  0  0  0  0  0
   -2.1237   18.5111  -35.0250 H   0  0  0  0  0  0  0  0  0  0  0  0
   -0.3614   21.6526  -33.3456 H   0  0  0  0  0  0  0  0  0  0  0  0
   -0.0590   20.6726  -34.8203 H   0  0  0  0  0  0  0  0  0  0  0  0
   -1.3515   21.9201  -34.8203 H   0  0  0  0  0  0  0  0  0  0  0  0
   -2.6428   19.4587  -31.9330 H   0  0  0  0  0  0  0  0  0  0  0  0
   -0.9150   19.9596  -31.8363 H   0  0  0  0  0  0  0  0  0  0  0  0
   -1.9273   21.7664  -30.7885 H   0  0  0  0  0  0  0  0  0  0  0  0
   -1.9300   22.3237  -32.5221 H   0  0  0  0  0  0  0  0  0  0  0  0
   -4.2709   21.0827  -31.0052 H   0  0  0  0  0  0  0  0  0  0  0  0
   -4.0736   22.8162  -31.5063 H   0  0  0  0  0  0  0  0  0  0  0  0
   -4.7000   22.3600  -33.5720 H   0  0  0  0  0  0  0  0  0  0  0  0
   -3.8160   20.9950  -33.7030 H   0  0  0  0  0  0  0  0  0  0  0  0
   -3.7901   19.3756  -34.3448 H   0  0  0  0  0  0  0  0  0  0  0  0
   -3.8781   17.0180  -35.1086 H   0  0  0  0  0  0  0  0  0  0  0  0
   -5.8458   15.5978  -34.5764 H   0  0  0  0  0  0  0  0  0  0  0  0
   -7.7485   16.5311  -33.2883 H   0  0  0  0  0  0  0  0  0  0  0  0
   -9.1600   18.1207  -30.8696 H   0  0  0  0  0  0  0  0  0  0  0  0
   -9.9991   18.6197  -32.3775 H   0  0  0  0  0  0  0  0  0  0  0  0
   -8.9384   17.1700  -32.3775 H   0  0  0  0  0  0  0  0  0  0  0  0
   -8.7415   23.6171  -30.7878 H   0  0  0  0  0  0  0  0  0  0  0  0
  1  2  1  0
  2  3  1  0
  3  4  1  0
  3  5  1  0
  5  6  1  0
  6  7  1  0
  7  8  1  0
  8  9  1  0
  9 10  2  0
 10 11  1  0
 11 12  2  0
 12 13  1  0
 13 14  2  0
 14 15  1  0
 15 16  2  0
 16 17  1  0
 16 18  1  0
 18 19  1  0
 19 20  1  0
 20 21  2  0
 21 22  1  0
 21 23  1  0
 23  9  1  0
 15 10  1  0
 23 18  2  0
  1 24  1  0
  1 25  1  0
  1 26  1  0
  2 27  1  0
  2 28  1  0
  4 29  1  0
  4 30  1  0
  4 31  1  0
  5 32  1  0
  5 33  1  0
  6 34  1  0
  6 35  1  0
  7 36  1  0
  7 37  1  0
  8 38  1  0
  8 39  1  0
 11 40  1  0
 12 41  1  0
 13 42  1  0
 14 43  1  0
 17 44  1  0
 17 45  1  0
 17 46  1  0
 20 47  1  0
M  CHG  2   8   1  16   1
M  END
>  <UniqueID>  (28) 
27

>  <SMILES>  (28) 
CCN(C)CCC[NH2+]c1c2ccccc2[n+](C)c2scc(Cl)c12

>  <Energy>  (28) 
96.7951736330653

>  <Genealogy>  (28) 
CCN(C)CCC[NH2+]c1c2ccccc2[n+](C)c2scc(Cl)c12 (protonated)
CCN(C)CCC[NH2+]c1c2ccccc2[n+](C)c2scc(Cl)c12 (3D coordinates assigned)
CCN(C)CCC[NH2+]c1c2ccccc2[n+](C)c2scc(Cl)c12 (optimized conformer: 96.7951736330653 kcal/mol)

>  <smiles>  (28) 
CCN(C)CCCNc1c2ccccc2[n+](C)c2scc(Cl)c12

>  <score_type>  (28) 
oracle

>  <origin>  (28) 
adg

>  <m_score__min__energy>  (28) 
-7.8799999999999999

>  <m_primary>  (28) 
energy

$$$$
28:0
     RDKit          3D

 69 72  0  0  0  0  0  0  0  0999 V2000
    0.4120   27.4770  -23.3470 C   0  0  0  0  0  0  0  0  0  0  0  0
   -0.5390   26.3610  -23.7930 C   0  0  0  0  0  0  0  0  0  0  0  0
    0.1590   25.1880  -24.3800 N   0  0  0  0  0  0  0  0  0  0  0  0
   -0.7730   24.0310  -24.4360 C   0  0  0  0  0  0  0  0  0  0  0  0
   -0.0970   22.6900  -24.1280 C   0  0  0  0  0  0  0  0  0  0  0  0
    0.8380   25.4830  -25.6760 C   0  0  0  0  0  0  0  0  0  0  0  0
   -0.0770   25.8780  -26.8560 C   0  0  0  0  0  0  0  0  0  0  0  0
    0.2260   25.1010  -28.0040 O   0  0  0  0  0  0  0  0  0  0  0  0
   -0.0320   23.7260  -27.7780 C   0  0  0  0  0  0  0  0  0  0  0  0
   -0.4720   22.9920  -29.0520 C   0  0  0  0  0  0  0  0  0  0  0  0
   -1.6650   23.5720  -29.5880 O   0  0  0  0  0  0  0  0  0  0  0  0
   -2.6620   22.9260  -30.3420 C   0  0  0  0  0  0  0  0  0  0  0  0
   -2.3350   21.9860  -31.3180 C   0  0  0  0  0  0  0  0  0  0  0  0
   -3.3210   21.3170  -32.0230 C   0  0  0  0  0  0  0  0  0  0  0  0
   -4.6930   21.5940  -31.8290 C   0  0  0  0  0  0  0  0  0  0  0  0
   -5.0540   22.5520  -30.8310 C   0  0  0  0  0  0  0  0  0  0  0  0
   -4.0200   23.2320  -30.0960 C   0  0  0  0  0  0  0  0  0  0  0  0
   -4.3320   24.2620  -29.0260 C   0  0  0  0  0  0  0  0  0  0  0  0
   -6.4360   22.7730  -30.5970 C   0  0  0  0  0  0  0  0  0  0  0  0
   -6.8250   23.6450  -29.7730 O   0  0  0  0  0  0  0  0  0  0  0  0
   -7.4030   22.0050  -31.2600 C   0  0  0  0  0  0  0  0  0  0  0  0
   -8.7740   22.1720  -30.9660 C   0  0  0  0  0  0  0  0  0  0  0  0
   -9.7370   21.3760  -31.5800 C   0  0  0  0  0  0  0  0  0  0  0  0
   -9.3510   20.3940  -32.4860 C   0  0  0  0  0  0  0  0  0  0  0  0
   -8.0020   20.2210  -32.7980 C   0  0  0  0  0  0  0  0  0  0  0  0
   -7.0010   21.0480  -32.2210 C   0  0  0  0  0  0  0  0  0  0  0  0
   -5.6670   20.9310  -32.5640 N   0  0  0  0  0  0  0  0  0  0  0  0
   -5.2870   20.1000  -33.7390 C   0  0  0  0  0  0  0  0  0  0  0  0
   -5.4190   18.6130  -33.4740 C   0  0  0  0  0  0  0  0  0  0  0  0
   -5.3600   17.7220  -34.5600 C   0  0  0  0  0  0  0  0  0  0  0  0
   -5.4850   16.3440  -34.3560 C   0  0  0  0  0  0  0  0  0  0  0  0
   -5.6690   15.8390  -33.0670 C   0  0  0  0  0  0  0  0  0  0  0  0
   -5.7200   16.7110  -31.9780 C   0  0  0  0  0  0  0  0  0  0  0  0
   -5.5900   18.0900  -32.1740 C   0  0  0  0  0  0  0  0  0  0  0  0
    0.4438   27.5143  -22.2481 H   0  0  0  0  0  0  0  0  0  0  0  0
    1.4210   27.2763  -23.7364 H   0  0  0  0  0  0  0  0  0  0  0  0
    0.0538   28.4414  -23.7364 H   0  0  0  0  0  0  0  0  0  0  0  0
   -1.1135   26.0226  -22.9181 H   0  0  0  0  0  0  0  0  0  0  0  0
   -1.1846   26.7803  -24.5787 H   0  0  0  0  0  0  0  0  0  0  0  0
    0.9140   24.9210  -23.7030 H   0  0  0  0  0  0  0  0  0  0  0  0
   -1.5756   24.1938  -23.7016 H   0  0  0  0  0  0  0  0  0  0  0  0
   -1.1571   23.9726  -25.4651 H   0  0  0  0  0  0  0  0  0  0  0  0
   -0.0291   22.5553  -23.0384 H   0  0  0  0  0  0  0  0  0  0  0  0
   -0.6904   21.8719  -24.5623 H   0  0  0  0  0  0  0  0  0  0  0  0
    0.9136   22.6805  -24.5623 H   0  0  0  0  0  0  0  0  0  0  0  0
    1.5402   26.3122  -25.5048 H   0  0  0  0  0  0  0  0  0  0  0  0
    1.3137   24.5384  -25.9784 H   0  0  0  0  0  0  0  0  0  0  0  0
   -1.1263   25.7097  -26.5720 H   0  0  0  0  0  0  0  0  0  0  0  0
    0.0873   26.9396  -27.0925 H   0  0  0  0  0  0  0  0  0  0  0  0
    0.8854   23.2531  -27.3977 H   0  0  0  0  0  0  0  0  0  0  0  0
   -0.8550   23.6560  -27.0515 H   0  0  0  0  0  0  0  0  0  0  0  0
    0.3299   23.0595  -29.8019 H   0  0  0  0  0  0  0  0  0  0  0  0
   -0.6743   21.9405  -28.8002 H   0  0  0  0  0  0  0  0  0  0  0  0
   -1.2772   21.7725  -31.5313 H   0  0  0  0  0  0  0  0  0  0  0  0
   -3.0284   20.5489  -32.7541 H   0  0  0  0  0  0  0  0  0  0  0  0
   -4.1954   23.8110  -28.0320 H   0  0  0  0  0  0  0  0  0  0  0  0
   -3.6538   25.1211  -29.1352 H   0  0  0  0  0  0  0  0  0  0  0  0
   -5.3729   24.6004  -29.1352 H   0  0  0  0  0  0  0  0  0  0  0  0
   -9.0849   22.9405  -30.2430 H   0  0  0  0  0  0  0  0  0  0  0  0
  -10.8022   21.5236  -31.3488 H   0  0  0  0  0  0  0  0  0  0  0  0
  -10.1103   19.7527  -32.9574 H   0  0  0  0  0  0  0  0  0  0  0  0
   -7.7081   19.4299  -33.5036 H   0  0  0  0  0  0  0  0  0  0  0  0
   -5.9399   20.3659  -34.5834 H   0  0  0  0  0  0  0  0  0  0  0  0
   -4.2292   20.3043  -33.9611 H   0  0  0  0  0  0  0  0  0  0  0  0
   -5.2144   18.1118  -35.5783 H   0  0  0  0  0  0  0  0  0  0  0  0
   -5.4383   15.6561  -35.2131 H   0  0  0  0  0  0  0  0  0  0  0  0
   -5.7736   14.7553  -32.9100 H   0  0  0  0  0  0  0  0  0  0  0  0
   -5.8628   16.3125  -30.9627 H   0  0  0  0  0  0  0  0  0  0  0  0
   -5.6212   18.7706  -31.3104 H   0  0  0  0  0  0  0  0  0  0  0  0
  1  2  1  0
  2  3  1  0
  3  4  1  0
  4  5  1  0
  3  6  1  0
  6  7  1  0
  7  8  1  0
  8  9  1  0
  9 10  1  0
 10 11  1  0
 11 12  1  0
 12 13  2  0
 13 14  1  0
 14 15  2  0
 15 16  1  0
 16 17  2  0
 17 18  1  0
 16 19  1  0
 19 20  2  0
 19 21  1  0
 21 22  2  0
 22 23  1  0
 23 24  2  0
 24 25  1  0
 25 26  2  0
 26 27  1  0
 27 28  1  0
 28 29  1  0
 29 30  2  0
 30 31  1  0
 31 32  2  0
 32 33  1  0
 33 34  2  0
 17 12  1  0
 26 21  1  0
 34 29  1  0
 27 15  1  0
  1 35  1  0
  1 36  1  0
  1 37  1  0
  2 38  1  0
  2 39  1  0
  3 40  1  0
  4 41  1  0
  4 42  1  0
  5 43  1  0
  5 44  1  0
  5 45  1  0
  6 46  1  0
  6 47  1  0
  7 48  1  0
  7 49  1  0
  9 50  1  0
  9 51  1  0
 10 52  1  0
 10 53  1  0
 13 54  1  0
 14 55  1  0
 18 56  1  0
 18 57  1  0
 18 58  1  0
 22 59  1  0
 23 60  1  0
 24 61  1  0
 25 62  1  0
 28 63  1  0
 28 64  1  0
 30 65  1  0
 31 66  1  0
 32 67  1  0
 33 68  1  0
 34 69  1  0
M  CHG  1   3   1
M  END
>  <UniqueID>  (29) 
28

>  <SMILES>  (29) 
CC[NH+](CC)CCOCCOc1ccc2c(c1C)c(=O)c1ccccc1n2Cc1ccccc1

>  <Energy>  (29) 
106.30320523051064

>  <Genealogy>  (29) 
CC[NH+](CC)CCOCCOc1ccc2c(c1C)c(=O)c1ccccc1n2Cc1ccccc1 (protonated)
CC[NH+](CC)CCOCCOc1ccc2c(c1C)c(=O)c1ccccc1n2Cc1ccccc1 (3D coordinates assigned)
CC[NH+](CC)CCOCCOc1ccc2c(c1C)c(=O)c1ccccc1n2Cc1ccccc1 (optimized conformer: 106.30320523051064 kcal/mol)

>  <smiles>  (29) 
CCN(CC)CCOCCOc1ccc2c(c1C)c(=O)c1ccccc1n2Cc1ccccc1

>  <score_type>  (29) 
oracle

>  <origin>  (29) 
adg

>  <m_score__min__energy>  (29) 
-10.19

>  <m_primary>  (29) 
energy

$$$$
29:0
     RDKit          3D

 59 62  0  0  0  0  0  0  0  0999 V2000
   -9.1310   18.9720  -32.2800 C   0  0  0  0  0  0  0  0  0  0  0  0
   -7.6140   19.1970  -32.1450 C   0  0  0  0  0  0  0  0  0  0  0  0
   -6.8380   19.1990  -33.4200 N   0  0  0  0  0  0  0  0  0  0  0  0
   -6.2790   17.8840  -33.8320 C   0  0  0  0  0  0  0  0  0  0  0  0
   -4.9350   18.0280  -34.5550 C   0  0  0  0  0  0  0  0  0  0  0  0
   -5.8300   20.2890  -33.4950 C   0  0  0  0  0  0  0  0  0  0  0  0
   -6.1170   21.4960  -32.5850 C   0  0  0  0  0  0  0  0  0  0  0  0
   -5.0570   22.4920  -32.7290 N   0  0  0  0  0  0  0  0  0  0  0  0
   -3.9550   22.5340  -31.8090 C   0  0  0  0  0  0  0  0  0  0  0  0
   -4.0610   23.1740  -30.5520 C   0  0  0  0  0  0  0  0  0  0  0  0
   -5.2330   23.8680  -30.1920 C   0  0  0  0  0  0  0  0  0  0  0  0
   -5.3400   24.4840  -28.9470 C   0  0  0  0  0  0  0  0  0  0  0  0
   -4.2830   24.4290  -28.0450 C   0  0  0  0  0  0  0  0  0  0  0  0
   -3.1010   23.7700  -28.3840 C   0  0  0  0  0  0  0  0  0  0  0  0
   -2.9540   23.1380  -29.6420 C   0  0  0  0  0  0  0  0  0  0  0  0
   -1.7760   22.5020  -29.9990 N   0  0  0  0  0  0  0  0  0  0  0  0
   -0.6230   22.4600  -29.0800 C   0  0  0  0  0  0  0  0  0  0  0  0
   -1.7000   21.9090  -31.2320 C   0  0  0  0  0  0  0  0  0  0  0  0
   -0.4070   21.0560  -31.9020 S   0  0  0  0  0  0  0  0  0  0  0  0
   -1.1910   20.6710  -33.3460 C   0  0  0  0  0  0  0  0  0  0  0  0
   -0.5910   19.9170  -34.4660 C   0  0  0  0  0  0  0  0  0  0  0  0
   -0.7290   18.5190  -34.4860 C   0  0  0  0  0  0  0  0  0  0  0  0
   -0.1230   17.7590  -35.4880 C   0  0  0  0  0  0  0  0  0  0  0  0
    0.6260   18.3840  -36.4840 C   0  0  0  0  0  0  0  0  0  0  0  0
    0.7570   19.7740  -36.4920 C   0  0  0  0  0  0  0  0  0  0  0  0
    0.1440   20.5550  -35.4990 C   0  0  0  0  0  0  0  0  0  0  0  0
    0.2280   21.9830  -35.5940 N   0  0  0  0  0  0  0  0  0  0  0  0
   -2.4670   21.2310  -33.3300 C   0  0  0  0  0  0  0  0  0  0  0  0
   -2.7490   21.9140  -32.1360 C   0  0  0  0  0  0  0  0  0  0  0  0
   -9.5823   18.9051  -31.2791 H   0  0  0  0  0  0  0  0  0  0  0  0
   -9.5791   19.8135  -32.8287 H   0  0  0  0  0  0  0  0  0  0  0  0
   -9.3156   18.0367  -32.8287 H   0  0  0  0  0  0  0  0  0  0  0  0
   -7.4601   20.1700  -31.6556 H   0  0  0  0  0  0  0  0  0  0  0  0
   -7.2366   18.3393  -31.5688 H   0  0  0  0  0  0  0  0  0  0  0  0
   -7.5320   19.4580  -34.1630 H   0  0  0  0  0  0  0  0  0  0  0  0
   -6.1343   17.2637  -32.9352 H   0  0  0  0  0  0  0  0  0  0  0  0
   -6.9901   17.4181  -34.5300 H   0  0  0  0  0  0  0  0  0  0  0  0
   -4.1272   18.1146  -33.8134 H   0  0  0  0  0  0  0  0  0  0  0  0
   -4.7610   17.1434  -35.1852 H   0  0  0  0  0  0  0  0  0  0  0  0
   -4.9524   18.9294  -35.1852 H   0  0  0  0  0  0  0  0  0  0  0  0
   -4.8526   19.8715  -33.2117 H   0  0  0  0  0  0  0  0  0  0  0  0
   -5.8575   20.6661  -34.5280 H   0  0  0  0  0  0  0  0  0  0  0  0
   -7.0803   21.9452  -32.8683 H   0  0  0  0  0  0  0  0  0  0  0  0
   -6.1568   21.1588  -31.5387 H   0  0  0  0  0  0  0  0  0  0  0  0
   -4.9180   22.9110  -33.6770 H   0  0  0  0  0  0  0  0  0  0  0  0
   -6.0721   23.9241  -30.9011 H   0  0  0  0  0  0  0  0  0  0  0  0
   -6.2641   25.0159  -28.6765 H   0  0  0  0  0  0  0  0  0  0  0  0
   -4.3794   24.9075  -27.0592 H   0  0  0  0  0  0  0  0  0  0  0  0
   -2.2708   23.7411  -27.6629 H   0  0  0  0  0  0  0  0  0  0  0  0
   -0.9821   22.4731  -28.0403 H   0  0  0  0  0  0  0  0  0  0  0  0
   -0.0462   21.5402  -29.2572 H   0  0  0  0  0  0  0  0  0  0  0  0
    0.0192   23.3353  -29.2572 H   0  0  0  0  0  0  0  0  0  0  0  0
   -1.3201   18.0186  -33.7048 H   0  0  0  0  0  0  0  0  0  0  0  0
   -0.2367   16.6649  -35.4917 H   0  0  0  0  0  0  0  0  0  0  0  0
    1.1142   17.7815  -37.2642 H   0  0  0  0  0  0  0  0  0  0  0  0
    1.3456   20.2616  -37.2831 H   0  0  0  0  0  0  0  0  0  0  0  0
    1.1570   22.4610  -35.5830 H   0  0  0  0  0  0  0  0  0  0  0  0
   -0.6100   22.5720  -35.7940 H   0  0  0  0  0  0  0  0  0  0  0  0
   -3.1784   21.1468  -34.1648 H   0  0  0  0  0  0  0  0  0  0  0  0
  1  2  1  0
  2  3  1  0
  3  4  1  0
  4  5  1  0
  3  6  1  0
  6  7  1  0
  7  8  1  0
  8  9  1  0
  9 10  2  0
 10 11  1  0
 11 12  2  0
 12 13  1  0
 13 14  2  0
 14 15  1  0
 15 16  2  0
 16 17  1  0
 16 18  1  0
 18 19  1  0
 19 20  1  0
 20 21  1  0
 21 22  2  0
 22 23  1  0
 23 24  2  0
 24 25  1  0
 25 26  2  0
 26 27  1  0
 20 28  2  0
 28 29  1  0
 29  9  1  0
 15 10  1  0
 29 18  2  0
 26 21  1  0
  1 30  1  0
  1 31  1  0
  1 32  1  0
  2 33  1  0
  2 34  1  0
  3 35  1  0
  4 36  1  0
  4 37  1  0
  5 38  1  0
  5 39  1  0
  5 40  1  0
  6 41  1  0
  6 42  1  0
  7 43  1  0
  7 44  1  0
  8 45  1  0
 11 46  1  0
 12 47  1  0
 13 48  1  0
 14 49  1  0
 17 50  1  0
 17 51  1  0
 17 52  1  0
 22 53  1  0
 23 54  1  0
 24 55  1  0
 25 56  1  0
 27 57  1  0
 27 58  1  0
 28 59  1  0
M  CHG  2   3   1  16   1
M  END
>  <UniqueID>  (30) 
29

>  <SMILES>  (30) 
CC[NH+](CC)CCNc1c2ccccc2[n+](C)c2sc(-c3ccccc3N)cc12

>  <Energy>  (30) 
119.45425135811783

>  <Genealogy>  (30) 
CC[NH+](CC)CCNc1c2ccccc2[n+](C)c2sc(-c3ccccc3N)cc12 (protonated)
CC[NH+](CC)CCNc1c2ccccc2[n+](C)c2sc(-c3ccccc3N)cc12 (3D coordinates assigned)
CC[NH+](CC)CCNc1c2ccccc2[n+](C)c2sc(-c3ccccc3N)cc12 (optimized conformer: 119.45425135811783 kcal/mol)

>  <smiles>  (30) 
CCN(CC)CCNc1c2ccccc2[n+](C)c2sc(-c3ccccc3N)cc12

>  <score_type>  (30) 
oracle

>  <origin>  (30) 
adg

>  <m_score__min__energy>  (30) 
-7.9000000000000004

>  <m_primary>  (30) 
energy

$$$$
30:0
     RDKit          3D

 34 37  0  0  0  0  0  0  0  0999 V2000
   -6.8760   24.5190  -30.1410 C   0  0  0  0  0  0  0  0  0  0  0  0
   -6.2970   23.4250  -30.9430 N   0  0  0  0  0  0  0  0  0  0  0  0
   -4.9530   23.4350  -31.2460 C   0  0  0  0  0  0  0  0  0  0  0  0
   -4.1990   24.3680  -30.8470 O   0  0  0  0  0  0  0  0  0  0  0  0
   -4.4300   22.4260  -31.9830 N   0  0  0  0  0  0  0  0  0  0  0  0
   -3.1670   22.2970  -32.3530 N   0  0  0  0  0  0  0  0  0  0  0  0
   -3.0820   21.1540  -33.0720 C   0  0  0  0  0  0  0  0  0  0  0  0
   -1.8170   20.6560  -33.6670 C   0  0  0  0  0  0  0  0  0  0  0  0
   -0.7380   21.5400  -33.8640 C   0  0  0  0  0  0  0  0  0  0  0  0
    0.4590   21.0850  -34.4230 C   0  0  0  0  0  0  0  0  0  0  0  0
    0.5960   19.7450  -34.7930 C   0  0  0  0  0  0  0  0  0  0  0  0
   -0.4660   18.8580  -34.6040 C   0  0  0  0  0  0  0  0  0  0  0  0
   -1.6660   19.3070  -34.0450 C   0  0  0  0  0  0  0  0  0  0  0  0
   -4.3380   20.5520  -33.1520 C   0  0  0  0  0  0  0  0  0  0  0  0
   -5.1600   21.4060  -32.4410 C   0  0  0  0  0  0  0  0  0  0  0  0
   -6.5260   21.3310  -32.1740 C   0  0  0  0  0  0  0  0  0  0  0  0
   -7.3230   20.2720  -32.6390 C   0  0  0  0  0  0  0  0  0  0  0  0
   -8.6850   20.2420  -32.3440 C   0  0  0  0  0  0  0  0  0  0  0  0
   -9.2610   21.2610  -31.5890 C   0  0  0  0  0  0  0  0  0  0  0  0
   -8.4820   22.3210  -31.1190 C   0  0  0  0  0  0  0  0  0  0  0  0
   -7.0950   22.3820  -31.3980 C   0  0  0  0  0  0  0  0  0  0  0  0
   -6.7561   24.2925  -29.0713 H   0  0  0  0  0  0  0  0  0  0  0  0
   -6.3580   25.4603  -30.3768 H   0  0  0  0  0  0  0  0  0  0  0  0
   -7.9457   24.6201  -30.3768 H   0  0  0  0  0  0  0  0  0  0  0  0
   -0.8386   22.5967  -33.5755 H   0  0  0  0  0  0  0  0  0  0  0  0
    1.2954   21.7837  -34.5721 H   0  0  0  0  0  0  0  0  0  0  0  0
    1.5393   19.3889  -35.2327 H   0  0  0  0  0  0  0  0  0  0  0  0
   -0.3579   17.8030  -34.8959 H   0  0  0  0  0  0  0  0  0  0  0  0
   -2.4981   18.6024  -33.8992 H   0  0  0  0  0  0  0  0  0  0  0  0
   -4.6105   19.6162  -33.6619 H   0  0  0  0  0  0  0  0  0  0  0  0
   -6.8721   19.4658  -33.2363 H   0  0  0  0  0  0  0  0  0  0  0  0
   -9.3068   19.4111  -32.7086 H   0  0  0  0  0  0  0  0  0  0  0  0
  -10.3367   21.2308  -31.3613 H   0  0  0  0  0  0  0  0  0  0  0  0
   -8.9519   23.1184  -30.5246 H   0  0  0  0  0  0  0  0  0  0  0  0
  1  2  1  0
  2  3  1  0
  3  4  2  0
  3  5  1  0
  5  6  1  0
  6  7  2  0
  7  8  1  0
  8  9  2  0
  9 10  1  0
 10 11  2  0
 11 12  1  0
 12 13  2  0
  7 14  1  0
 14 15  2  0
 15 16  1  0
 16 17  2  0
 17 18  1  0
 18 19  2  0
 19 20  1  0
 20 21  2  0
 21  2  1  0
 15  5  1  0
 21 16  1  0
 13  8  1  0
  1 22  1  0
  1 23  1  0
  1 24  1  0
  9 25  1  0
 10 26  1  0
 11 27  1  0
 12 28  1  0
 13 29  1  0
 14 30  1  0
 17 31  1  0
 18 32  1  0
 19 33  1  0
 20 34  1  0
M  END
>  <UniqueID>  (31) 
30

>  <SMILES>  (31) 
Cn1c(=O)n2nc(-c3ccccc3)cc2c2ccccc21

>  <Energy>  (31) 
85.44741559583925

>  <Genealogy>  (31) 
Cn1c(=O)n2nc(-c3ccccc3)cc2c2ccccc21 (3D coordinates assigned)
Cn1c(=O)n2nc(-c3ccccc3)cc2c2ccccc21 (optimized conformer: 85.44741559583925 kcal/mol)

>  <smiles>  (31) 
Cn1c(=O)n2nc(-c3ccccc3)cc2c2ccccc21

>  <score_type>  (31) 
oracle

>  <origin>  (31) 
adg

>  <m_score__min__energy>  (31) 
-8.25

>  <m_primary>  (31) 
energy

$$$$
