0:0
     RDKit          3D

 47 50  0  0  0  0  0  0  0  0999 V2000
   -8.2804   23.2489  -31.1612 H   0  0  0  0  0  0  0  0  0  0  0  0
   -7.2640   23.6340  -30.9920 C   0  0  0  0  0  0  0  0  0  0  0  0
   -7.0810   24.8550  -30.4280 N   0  0  0  0  0  0  0  0  0  0  0  0
   -5.8360   25.3610  -30.2200 C   0  0  0  0  0  0  0  0  0  0  0  0
   -5.7095   26.3501  -29.7557 H   0  0  0  0  0  0  0  0  0  0  0  0
   -4.7110   24.6080  -30.6040 C   0  0  0  0  0  0  0  0  0  0  0  0
   -3.4900   25.0330  -30.4420 N   0  0  0  0  0  0  0  0  0  0  0  0
   -2.6190   24.7440  -29.3050 C   0  0  0  0  0  0  0  0  0  0  0  0
   -1.6378   25.2150  -29.4642 H   0  0  0  0  0  0  0  0  0  0  0  0
   -3.0688   25.1435  -28.3841 H   0  0  0  0  0  0  0  0  0  0  0  0
   -2.4480   23.2580  -29.1790 C   0  0  0  0  0  0  0  0  0  0  0  0
   -1.6050   22.5670  -30.0650 C   0  0  0  0  0  0  0  0  0  0  0  0
   -1.0455   23.1212  -30.8330 H   0  0  0  0  0  0  0  0  0  0  0  0
   -1.4740   21.1780  -29.9750 C   0  0  0  0  0  0  0  0  0  0  0  0
   -0.8084   20.6427  -30.6682 H   0  0  0  0  0  0  0  0  0  0  0  0
   -2.1880   20.4690  -29.0050 C   0  0  0  0  0  0  0  0  0  0  0  0
   -2.0783   19.3771  -28.9298 H   0  0  0  0  0  0  0  0  0  0  0  0
   -3.0420   21.1480  -28.1300 C   0  0  0  0  0  0  0  0  0  0  0  0
   -3.6074   20.5888  -27.3700 H   0  0  0  0  0  0  0  0  0  0  0  0
   -3.1780   22.5360  -28.2200 C   0  0  0  0  0  0  0  0  0  0  0  0
   -3.8592   23.0652  -27.5374 H   0  0  0  0  0  0  0  0  0  0  0  0
   -4.9060   23.3880  -31.1680 N   0  0  0  0  0  0  0  0  0  0  0  0
   -6.1500   22.8680  -31.3570 C   0  0  0  0  0  0  0  0  0  0  0  0
   -6.3210   21.5550  -32.0190 C   0  0  0  0  0  0  0  0  0  0  0  0
   -7.5820   21.0430  -32.0830 N   0  0  0  0  0  0  0  0  0  0  0  0
   -7.8670   19.8800  -32.7210 C   0  0  0  0  0  0  0  0  0  0  0  0
   -8.9004   19.5036  -32.7394 H   0  0  0  0  0  0  0  0  0  0  0  0
   -6.8560   19.1620  -33.3520 C   0  0  0  0  0  0  0  0  0  0  0  0
   -7.0903   18.2314  -33.8896 H   0  0  0  0  0  0  0  0  0  0  0  0
   -5.5390   19.6320  -33.2980 C   0  0  0  0  0  0  0  0  0  0  0  0
   -4.5090   18.9010  -33.9070 C   0  0  0  0  0  0  0  0  0  0  0  0
   -4.7464   17.9757  -34.4524 H   0  0  0  0  0  0  0  0  0  0  0  0
   -3.1750   19.3400  -33.8270 C   0  0  0  0  0  0  0  0  0  0  0  0
   -2.1220   18.6320  -34.4270 O   0  0  0  0  0  0  0  0  0  0  0  0
   -2.0490   17.2130  -34.5190 C   0  0  0  0  0  0  0  0  0  0  0  0
   -2.0268   16.7807  -33.5078 H   0  0  0  0  0  0  0  0  0  0  0  0
   -2.9289   16.8349  -35.0602 H   0  0  0  0  0  0  0  0  0  0  0  0
   -1.1350   16.9272  -35.0602 H   0  0  0  0  0  0  0  0  0  0  0  0
   -2.8720   20.5140  -33.1250 C   0  0  0  0  0  0  0  0  0  0  0  0
   -1.5280   20.9140  -33.0540 O   0  0  0  0  0  0  0  0  0  0  0  0
   -0.7080   21.1980  -34.1840 C   0  0  0  0  0  0  0  0  0  0  0  0
    0.2803   21.5403  -33.8431 H   0  0  0  0  0  0  0  0  0  0  0  0
   -0.5917   20.2878  -34.7906 H   0  0  0  0  0  0  0  0  0  0  0  0
   -1.1795   21.9852  -34.7906 H   0  0  0  0  0  0  0  0  0  0  0  0
   -3.9040   21.2500  -32.5130 C   0  0  0  0  0  0  0  0  0  0  0  0
   -3.6584   22.1616  -31.9485 H   0  0  0  0  0  0  0  0  0  0  0  0
   -5.2470   20.8360  -32.6130 C   0  0  0  0  0  0  0  0  0  0  0  0
  1  2  1  0
  2  3  1  0
  3  4  2  0
  4  5  1  0
  4  6  1  0
  6  7  2  0
  7  8  1  0
  8  9  1  0
  8 10  1  0
  8 11  1  0
 11 12  2  0
 12 13  1  0
 12 14  1  0
 14 15  1  0
 14 16  2  0
 16 17  1  0
 16 18  1  0
 18 19  1  0
 18 20  2  0
 20 21  1  0
  6 22  1  0
 22 23  1  0
 23 24  1  0
 24 25  2  0
 25 26  1  0
 26 27  1  0
 26 28  2  0
 28 29  1  0
 28 30  1  0
 30 31  2  0
 31 32  1  0
 31 33  1  0
 33 34  1  0
 34 35  1  0
 35 36  1  0
 35 37  1  0
 35 38  1  0
 33 39  2  0
 39 40  1  0
 40 41  1  0
 41 42  1  0
 41 43  1  0
 41 44  1  0
 39 45  1  0
 45 46  1  0
 45 47  2  0
 23  2  2  0
 47 24  1  0
 20 11  1  0
 47 30  1  0
M  CHG  1  22  -1
M  END
>  <UniqueID>  (1) 
1

>  <SMILES>  (1) 
COc1cc2ccnc(-c3cnc/c(=N\Cc4ccccc4)[n-]3)c2cc1OC

>  <Energy>  (1) 
64.11215172684335

>  <Genealogy>  (1) 
COc1cc2ccnc(-c3cncc(=NCc4ccccc4)[n-]3)c2cc1OC (protonated)
COc1cc2ccnc(-c3cnc/c(=N\Cc4ccccc4)[n-]3)c2cc1OC (cis-trans isomerization)
COc1cc2ccnc(-c3cnc/c(=N\Cc4ccccc4)[n-]3)c2cc1OC (3D coordinates assigned)
COc1cc2ccnc(-c3cnc/c(=N\Cc4ccccc4)[n-]3)c2cc1OC (optimized conformer: 64.11215172684335 kcal/mol)

>  <smiles>  (1) 
COc1cc2ccnc(-c3cncc(=NCc4ccccc4)[nH]3)c2cc1OC

>  <score_type>  (1) 
oracle

>  <origin>  (1) 
adg

>  <m_score__min__energy>  (1) 
-9.5399999999999991

>  <m_primary>  (1) 
energy

$$$$
1:0
     RDKit          3D

 28 29  0  0  0  0  0  0  0  0999 V2000
   -5.3750   17.4400  -34.9700 C   0  0  0  0  0  0  0  0  0  0  0  0
   -5.7130   18.1660  -33.7090 C   0  0  0  0  0  0  0  0  0  0  0  0
   -6.3540   17.5730  -32.8000 O   0  0  0  0  0  0  0  0  0  0  0  0
   -5.2850   19.5220  -33.5280 N   0  0  0  0  0  0  0  0  0  0  0  0
   -5.5720   20.2670  -32.2970 C   0  0  2  0  0  0  0  0  0  0  0  0
   -6.9880   20.7230  -32.2440 C   0  0  0  0  0  0  0  0  0  0  0  0
   -8.1330   19.9360  -32.4130 C   0  0  0  0  0  0  0  0  0  0  0  0
   -9.3930   20.5320  -32.2580 C   0  0  0  0  0  0  0  0  0  0  0  0
   -9.4960   21.8920  -31.9170 C   0  0  0  0  0  0  0  0  0  0  0  0
   -8.3360   22.6600  -31.7280 C   0  0  0  0  0  0  0  0  0  0  0  0
   -7.0900   22.0530  -31.9060 C   0  0  0  0  0  0  0  0  0  0  0  0
   -5.7520   22.6740  -31.6920 C   0  0  2  0  0  0  0  0  0  0  0  0
   -5.6090   23.9060  -32.3590 O   0  0  0  0  0  0  0  0  0  0  0  0
   -4.7560   21.5900  -32.1890 C   0  0  2  0  0  0  0  0  0  0  0  0
   -4.1550   21.9510  -33.4120 O   0  0  0  0  0  0  0  0  0  0  0  0
   -4.9225   16.4681  -34.7235 H   0  0  0  0  0  0  0  0  0  0  0  0
   -6.2910   17.2796  -35.5575 H   0  0  0  0  0  0  0  0  0  0  0  0
   -4.6626   18.0377  -35.5575 H   0  0  0  0  0  0  0  0  0  0  0  0
   -4.7430   19.9790  -34.2970 H   0  0  0  0  0  0  0  0  0  0  0  0
   -5.3184   19.5589  -31.4944 H   0  0  0  0  0  0  0  0  0  0  0  0
   -8.0461   18.8683  -32.6631 H   0  0  0  0  0  0  0  0  0  0  0  0
  -10.3041   19.9331  -32.4038 H   0  0  0  0  0  0  0  0  0  0  0  0
  -10.4867   22.3550  -31.7981 H   0  0  0  0  0  0  0  0  0  0  0  0
   -8.4067   23.7206  -31.4449 H   0  0  0  0  0  0  0  0  0  0  0  0
   -5.5778   22.9429  -30.6397 H   0  0  0  0  0  0  0  0  0  0  0  0
   -5.4410   23.7270  -33.3210 H   0  0  0  0  0  0  0  0  0  0  0  0
   -3.9168   21.4710  -31.4878 H   0  0  0  0  0  0  0  0  0  0  0  0
   -4.7250   22.6420  -33.8400 H   0  0  0  0  0  0  0  0  0  0  0  0
  1  2  1  0
  2  3  2  0
  2  4  1  0
  4  5  1  0
  5  6  1  0
  6  7  2  0
  7  8  1  0
  8  9  2  0
  9 10  1  0
 10 11  2  0
 11 12  1  0
 12 13  1  0
 12 14  1  0
 14 15  1  0
 14  5  1  0
 11  6  1  0
  1 16  1  0
  1 17  1  0
  1 18  1  0
  4 19  1  0
  5 20  1  1
  7 21  1  0
  8 22  1  0
  9 23  1  0
 10 24  1  0
 12 25  1  1
 13 26  1  0
 14 27  1  1
 15 28  1  0
M  END
>  <UniqueID>  (2) 
2

>  <SMILES>  (2) 
CC(=O)N[C@@H]1c2ccccc2[C@H](O)C1O

>  <Energy>  (2) 
38.70758070498737

>  <Genealogy>  (2) 
CC(=O)N[C@@H]1c2ccccc2[C@H](O)C1O (chirality)
CC(=O)N[C@@H]1c2ccccc2[C@H](O)C1O (3D coordinates assigned)
CC(=O)N[C@@H]1c2ccccc2[C@H](O)C1O (nonaromatic ring conformer: 38.70758070498737 kcal/mol)

>  <smiles>  (2) 
CC(=O)NC1c2ccccc2C(O)C1O

>  <score_type>  (2) 
oracle

>  <origin>  (2) 
adg

>  <m_score__min__energy>  (2) 
-6.25

>  <m_primary>  (2) 
energy

$$$$
2:0
     RDKit          3D

 35 39  0  0  0  0  0  0  0  0999 V2000
   -3.1660   21.9100  -33.6650 O   0  0  0  0  0  0  0  0  0  0  0  0
   -3.8730   21.7640  -32.6360 C   0  0  0  0  0  0  0  0  0  0  0  0
   -5.0560   21.1230  -31.8870 N   0  0  0  0  0  0  0  0  0  0  0  0
   -6.1820   20.2540  -31.8190 C   0  0  0  0  0  0  0  0  0  0  0  0
   -5.9990   18.8660  -31.8690 C   0  0  0  0  0  0  0  0  0  0  0  0
   -7.1040   18.0110  -31.8030 C   0  0  0  0  0  0  0  0  0  0  0  0
   -8.3930   18.5420  -31.6850 C   0  0  0  0  0  0  0  0  0  0  0  0
   -9.4640   17.7130  -31.6210 F   0  0  0  0  0  0  0  0  0  0  0  0
   -8.5770   19.9290  -31.6350 C   0  0  0  0  0  0  0  0  0  0  0  0
   -7.4720   20.7840  -31.7020 C   0  0  0  0  0  0  0  0  0  0  0  0
   -4.1860   22.0470  -31.3200 C   0  0  0  0  0  0  0  0  0  0  0  0
   -4.8410   23.3040  -30.8610 C   0  0  0  0  0  0  0  0  0  0  0  0
   -5.6840   24.1850  -31.5380 C   0  0  0  0  0  0  0  0  0  0  0  0
   -6.1830   25.2960  -30.8360 C   0  0  0  0  0  0  0  0  0  0  0  0
   -5.8400   25.5010  -29.4830 C   0  0  0  0  0  0  0  0  0  0  0  0
   -4.9950   24.5970  -28.8170 C   0  0  0  0  0  0  0  0  0  0  0  0
   -4.5060   23.5020  -29.5300 C   0  0  0  0  0  0  0  0  0  0  0  0
   -3.6350   22.4090  -29.0860 C   0  0  0  0  0  0  0  0  0  0  0  0
   -3.0650   22.1750  -27.8350 C   0  0  0  0  0  0  0  0  0  0  0  0
   -2.2720   21.0260  -27.6680 C   0  0  0  0  0  0  0  0  0  0  0  0
   -2.0690   20.1350  -28.7420 C   0  0  0  0  0  0  0  0  0  0  0  0
   -2.6540   20.3850  -29.9960 C   0  0  0  0  0  0  0  0  0  0  0  0
   -3.4300   21.5350  -30.1430 C   0  0  0  0  0  0  0  0  0  0  0  0
   -4.9855   18.4482  -31.9602 H   0  0  0  0  0  0  0  0  0  0  0  0
   -6.9596   16.9213  -31.8439 H   0  0  0  0  0  0  0  0  0  0  0  0
   -9.5906   20.3464  -31.5430 H   0  0  0  0  0  0  0  0  0  0  0  0
   -7.6170   21.8737  -31.6627 H   0  0  0  0  0  0  0  0  0  0  0  0
   -5.9509   24.0153  -32.5916 H   0  0  0  0  0  0  0  0  0  0  0  0
   -6.8459   26.0109  -31.3455 H   0  0  0  0  0  0  0  0  0  0  0  0
   -6.2369   26.3748  -28.9455 H   0  0  0  0  0  0  0  0  0  0  0  0
   -4.7262   24.7487  -27.7612 H   0  0  0  0  0  0  0  0  0  0  0  0
   -3.2315   22.8716  -27.0001 H   0  0  0  0  0  0  0  0  0  0  0  0
   -1.8067   20.8207  -26.6927 H   0  0  0  0  0  0  0  0  0  0  0  0
   -1.4487   19.2381  -28.5978 H   0  0  0  0  0  0  0  0  0  0  0  0
   -2.5039   19.6930  -30.8378 H   0  0  0  0  0  0  0  0  0  0  0  0
  1  2  2  0
  2  3  1  0
  3  4  1  0
  4  5  2  0
  5  6  1  0
  6  7  2  0
  7  8  1  0
  7  9  1  0
  9 10  2  0
  3 11  1  0
 11 12  1  0
 12 13  2  0
 13 14  1  0
 14 15  2  0
 15 16  1  0
 16 17  2  0
 17 18  1  0
 18 19  2  0
 19 20  1  0
 20 21  2  0
 21 22  1  0
 22 23  2  0
 11  2  1  0
 17 12  1  0
 23 18  1  0
 10  4  1  0
 23 11  1  0
  5 24  1  0
  6 25  1  0
  9 26  1  0
 10 27  1  0
 13 28  1  0
 14 29  1  0
 15 30  1  0
 16 31  1  0
 19 32  1  0
 20 33  1  0
 21 34  1  0
 22 35  1  0
M  END
>  <UniqueID>  (3) 
3

>  <SMILES>  (3) 
O=C1N(c2ccc(F)cc2)C12c1ccccc1-c1ccccc12

>  <Energy>  (3) 
186.08855789836974

>  <Genealogy>  (3) 
O=C1N(c2ccc(F)cc2)C12c1ccccc1-c1ccccc12 (3D coordinates assigned)
O=C1N(c2ccc(F)cc2)C12c1ccccc1-c1ccccc12 (nonaromatic ring conformer: 186.08855789836974 kcal/mol)

>  <smiles>  (3) 
O=C1N(c2ccc(F)cc2)C12c1ccccc1-c1ccccc12

>  <score_type>  (3) 
oracle

>  <origin>  (3) 
adg

>  <m_score__min__energy>  (3) 
-7.54

>  <m_primary>  (3) 
energy

$$$$
3:0
     RDKit          3D

 37 39  0  0  0  0  0  0  0  0999 V2000
    0.2340   23.3610  -24.5920 C   0  0  0  0  0  0  0  0  0  0  0  0
   -0.4730   23.8510  -25.8210 C   0  0  0  0  0  0  0  0  0  0  0  0
   -1.3440   24.9480  -25.7450 C   0  0  0  0  0  0  0  0  0  0  0  0
   -1.9750   25.4280  -26.8970 C   0  0  0  0  0  0  0  0  0  0  0  0
   -1.7190   24.8340  -28.1440 C   0  0  0  0  0  0  0  0  0  0  0  0
   -2.3700   25.2860  -29.3380 N   0  0  0  0  0  0  0  0  0  0  0  0
   -3.4930   24.6690  -29.9790 C   0  0  0  0  0  0  0  0  0  0  0  0
   -4.1130   25.3110  -30.8680 O   0  0  0  0  0  0  0  0  0  0  0  0
   -3.9870   23.3020  -29.5850 C   0  0  0  0  0  0  0  0  0  0  0  0
   -4.2760   22.4860  -30.7870 N   0  0  0  0  0  0  0  0  0  0  0  0
   -3.2230   22.0510  -31.5640 C   0  0  0  0  0  0  0  0  0  0  0  0
   -2.0340   22.3600  -31.2760 O   0  0  0  0  0  0  0  0  0  0  0  0
   -3.4440   21.2620  -32.6920 C   0  0  0  0  0  0  0  0  0  0  0  0
   -4.7360   20.9160  -33.0550 C   0  0  0  0  0  0  0  0  0  0  0  0
   -5.8160   21.3720  -32.3000 C   0  0  0  0  0  0  0  0  0  0  0  0
   -7.1250   21.0400  -32.6790 C   0  0  0  0  0  0  0  0  0  0  0  0
   -8.2110   21.5070  -31.9400 C   0  0  0  0  0  0  0  0  0  0  0  0
   -7.9980   22.3120  -30.8220 C   0  0  0  0  0  0  0  0  0  0  0  0
   -6.7020   22.6490  -30.4300 C   0  0  0  0  0  0  0  0  0  0  0  0
   -5.5770   22.1790  -31.1540 C   0  0  0  0  0  0  0  0  0  0  0  0
   -0.8580   23.7320  -28.2160 C   0  0  0  0  0  0  0  0  0  0  0  0
   -0.2260   23.2520  -27.0650 C   0  0  0  0  0  0  0  0  0  0  0  0
   -0.2915   23.7252  -23.6969 H   0  0  0  0  0  0  0  0  0  0  0  0
    0.2444   22.2611  -24.5889 H   0  0  0  0  0  0  0  0  0  0  0  0
    1.2676   23.7374  -24.5889 H   0  0  0  0  0  0  0  0  0  0  0  0
   -1.5314   25.4326  -24.7754 H   0  0  0  0  0  0  0  0  0  0  0  0
   -2.6745   26.2740  -26.8264 H   0  0  0  0  0  0  0  0  0  0  0  0
   -3.2161   22.7986  -28.9830 H   0  0  0  0  0  0  0  0  0  0  0  0
   -4.9126   23.4139  -29.0012 H   0  0  0  0  0  0  0  0  0  0  0  0
   -2.5921   20.9138  -33.2945 H   0  0  0  0  0  0  0  0  0  0  0  0
   -4.9092   20.2826  -33.9375 H   0  0  0  0  0  0  0  0  0  0  0  0
   -7.2955   20.4083  -33.5633 H   0  0  0  0  0  0  0  0  0  0  0  0
   -9.2355   21.2404  -32.2390 H   0  0  0  0  0  0  0  0  0  0  0  0
   -8.8574   22.6840  -30.2450 H   0  0  0  0  0  0  0  0  0  0  0  0
   -6.5510   23.2879  -29.5474 H   0  0  0  0  0  0  0  0  0  0  0  0
   -0.6779   23.2411  -29.1838 H   0  0  0  0  0  0  0  0  0  0  0  0
    0.4677   22.4012  -27.1353 H   0  0  0  0  0  0  0  0  0  0  0  0
  1  2  1  0
  2  3  2  0
  3  4  1  0
  4  5  2  0
  5  6  1  0
  6  7  1  0
  7  8  2  0
  7  9  1  0
  9 10  1  0
 10 11  1  0
 11 12  2  0
 11 13  1  0
 13 14  2  0
 14 15  1  0
 15 16  2  0
 16 17  1  0
 17 18  2  0
 18 19  1  0
 19 20  2  0
  5 21  1  0
 21 22  2  0
 22  2  1  0
 20 10  1  0
 20 15  1  0
  1 23  1  0
  1 24  1  0
  1 25  1  0
  3 26  1  0
  4 27  1  0
  9 28  1  0
  9 29  1  0
 13 30  1  0
 14 31  1  0
 16 32  1  0
 17 33  1  0
 18 34  1  0
 19 35  1  0
 21 36  1  0
 22 37  1  0
M  CHG  1   6  -1
M  END
>  <UniqueID>  (4) 
4

>  <SMILES>  (4) 
Cc1ccc([N-]C(=O)Cn2c(=O)ccc3ccccc32)cc1

>  <Energy>  (4) 
52.96800362545003

>  <Genealogy>  (4) 
Cc1ccc([N-]C(=O)Cn2c(=O)ccc3ccccc32)cc1 (protonated)
Cc1ccc([N-]C(=O)Cn2c(=O)ccc3ccccc32)cc1 (3D coordinates assigned)
Cc1ccc([N-]C(=O)Cn2c(=O)ccc3ccccc32)cc1 (optimized conformer: 52.96800362545003 kcal/mol)

>  <smiles>  (4) 
Cc1ccc(NC(=O)Cn2c(=O)ccc3ccccc32)cc1

>  <score_type>  (4) 
oracle

>  <origin>  (4) 
adg

>  <m_score__min__energy>  (4) 
-9.9700000000000006

>  <m_primary>  (4) 
energy

$$$$
4:0
     RDKit          3D

 41 44  0  0  0  0  0  0  0  0999 V2000
    3.2600   24.9200  -27.4220 C   0  0  0  0  0  0  0  0  0  0  0  0
    2.1360   24.5500  -28.2130 O   0  0  0  0  0  0  0  0  0  0  0  0
    0.9150   24.4600  -27.5590 C   0  0  0  0  0  0  0  0  0  0  0  0
    0.7860   24.5130  -26.1870 C   0  0  0  0  0  0  0  0  0  0  0  0
   -0.4800   24.4130  -25.6490 C   0  0  0  0  0  0  0  0  0  0  0  0
   -1.6180   24.2640  -26.4170 C   0  0  0  0  0  0  0  0  0  0  0  0
   -1.4610   24.2130  -27.7850 C   0  0  0  0  0  0  0  0  0  0  0  0
   -2.6270   24.0570  -28.6460 C   0  0  0  0  0  0  0  0  0  0  0  0
   -3.2740   22.9070  -28.9090 N   0  0  0  0  0  0  0  0  0  0  0  0
   -4.3020   23.1120  -29.7370 C   0  0  0  0  0  0  0  0  0  0  0  0
   -5.2320   22.2440  -30.2730 C   0  0  0  0  0  0  0  0  0  0  0  0
   -6.2030   22.7570  -31.1190 C   0  0  0  0  0  0  0  0  0  0  0  0
   -7.1650   21.8060  -31.6640 C   0  0  0  0  0  0  0  0  0  0  0  0
   -8.4410   21.8280  -31.1390 C   0  0  0  0  0  0  0  0  0  0  0  0
   -9.3300   20.9360  -31.6560 N   0  0  0  0  0  0  0  0  0  0  0  0
   -8.9780   20.0720  -32.6350 C   0  0  0  0  0  0  0  0  0  0  0  0
   -9.8500   19.2350  -33.1050 N   0  0  0  0  0  0  0  0  0  0  0  0
   -7.7220   20.0500  -33.1520 N   0  0  0  0  0  0  0  0  0  0  0  0
   -6.7940   20.9260  -32.6650 C   0  0  0  0  0  0  0  0  0  0  0  0
   -5.5870   20.9290  -33.1390 N   0  0  0  0  0  0  0  0  0  0  0  0
   -6.2250   24.1050  -31.4080 C   0  0  0  0  0  0  0  0  0  0  0  0
   -5.2680   24.9450  -30.8440 C   0  0  0  0  0  0  0  0  0  0  0  0
   -4.3000   24.4630  -30.0080 C   0  0  0  0  0  0  0  0  0  0  0  0
   -3.2620   25.0270  -29.3260 N   0  0  0  0  0  0  0  0  0  0  0  0
   -0.2050   24.3110  -28.3440 C   0  0  0  0  0  0  0  0  0  0  0  0
    3.0021   24.8351  -26.3560 H   0  0  0  0  0  0  0  0  0  0  0  0
    4.1041   24.2523  -27.6493 H   0  0  0  0  0  0  0  0  0  0  0  0
    3.5424   25.9585  -27.6493 H   0  0  0  0  0  0  0  0  0  0  0  0
    1.6677   24.6317  -25.5401 H   0  0  0  0  0  0  0  0  0  0  0  0
   -0.5885   24.4539  -24.5551 H   0  0  0  0  0  0  0  0  0  0  0  0
   -2.6129   24.1888  -25.9538 H   0  0  0  0  0  0  0  0  0  0  0  0
   -5.2033   21.1706  -30.0344 H   0  0  0  0  0  0  0  0  0  0  0  0
   -8.7256   22.5312  -30.3425 H   0  0  0  0  0  0  0  0  0  0  0  0
  -10.2980   20.9400  -31.2710 H   0  0  0  0  0  0  0  0  0  0  0  0
   -9.9870   19.2660  -34.1540 H   0  0  0  0  0  0  0  0  0  0  0  0
   -7.4460   19.3810  -33.9120 H   0  0  0  0  0  0  0  0  0  0  0  0
   -5.2340   21.6910  -33.7330 H   0  0  0  0  0  0  0  0  0  0  0  0
   -6.9937   24.5144  -32.0799 H   0  0  0  0  0  0  0  0  0  0  0  0
   -5.2917   26.0199  -31.0764 H   0  0  0  0  0  0  0  0  0  0  0  0
   -3.0280   26.0480  -29.3530 H   0  0  0  0  0  0  0  0  0  0  0  0
   -0.0961   24.2693  -29.4378 H   0  0  0  0  0  0  0  0  0  0  0  0
  1  2  1  0
  2  3  1  0
  3  4  2  0
  4  5  1  0
  5  6  2  0
  6  7  1  0
  7  8  1  0
  8  9  2  0
  9 10  1  0
 10 11  2  0
 11 12  1  0
 12 13  1  0
 13 14  2  0
 14 15  1  0
 15 16  1  0
 16 17  2  3
 16 18  1  0
 18 19  1  0
 19 20  2  3
 12 21  2  0
 21 22  1  0
 22 23  2  0
 23 24  1  0
  7 25  2  0
 25  3  1  0
 24  8  1  0
 23 10  1  0
 19 13  1  0
  1 26  1  0
  1 27  1  0
  1 28  1  0
  4 29  1  0
  5 30  1  0
  6 31  1  0
 11 32  1  0
 14 33  1  0
 15 34  1  0
 17 35  1  0
 18 36  1  0
 20 37  1  0
 21 38  1  0
 22 39  1  0
 24 40  1  0
 25 41  1  0
M  END
>  <smiles>  (5) 
COc1cccc(-c2nc3cc(-c4c[nH]c(=N)[nH]c4=N)ccc3[nH]2)c1

>  <score_type>  (5) 
oracle

>  <origin>  (5) 
adg

>  <m_score__min__energy>  (5) 
-7.9699999999999998

>  <m_primary>  (5) 
energy

$$$$
5:0
     RDKit          3D

 52 54  0  0  0  0  0  0  0  0999 V2000
   -3.1840   21.9790  -28.2210 C   0  0  0  0  0  0  0  0  0  0  0  0
   -2.8280   21.1480  -29.4500 C   0  0  0  0  0  0  0  0  0  0  0  0
   -2.3570   22.0390  -30.6030 C   0  0  0  0  0  0  0  0  0  0  0  0
   -3.4480   22.2610  -31.5590 N   0  0  0  0  0  0  0  0  0  0  0  0
   -3.4130   21.6230  -32.8560 C   0  0  0  0  0  0  0  0  0  0  0  0
   -4.2340   21.9770  -33.7450 O   0  0  0  0  0  0  0  0  0  0  0  0
   -2.4160   20.5820  -33.1890 C   0  0  0  0  0  0  0  0  0  0  0  0
   -2.3600   19.3830  -32.4610 C   0  0  0  0  0  0  0  0  0  0  0  0
   -1.4100   18.4180  -32.7970 C   0  0  0  0  0  0  0  0  0  0  0  0
   -0.5350   18.6460  -33.8580 C   0  0  0  0  0  0  0  0  0  0  0  0
   -0.6280   19.8400  -34.5750 C   0  0  0  0  0  0  0  0  0  0  0  0
   -1.5590   20.7720  -34.2360 N   0  0  0  0  0  0  0  0  0  0  0  0
   -4.4930   23.1870  -31.2090 C   0  0  0  0  0  0  0  0  0  0  0  0
   -4.1470   24.3870  -30.6650 N   0  0  0  0  0  0  0  0  0  0  0  0
   -5.0710   25.3150  -30.3090 C   0  0  0  0  0  0  0  0  0  0  0  0
   -6.4250   25.0550  -30.4920 C   0  0  0  0  0  0  0  0  0  0  0  0
   -6.8200   23.8280  -31.0240 C   0  0  0  0  0  0  0  0  0  0  0  0
   -5.8600   22.8620  -31.3770 C   0  0  0  0  0  0  0  0  0  0  0  0
   -6.2580   21.5590  -31.8560 N   0  0  0  0  0  0  0  0  0  0  0  0
   -7.5490   20.9310  -31.5620 C   0  0  0  0  0  0  0  0  0  0  0  0
   -7.9950   20.0070  -32.7040 C   0  0  0  0  0  0  0  0  0  0  0  0
   -6.9040   19.0390  -33.0840 C   0  0  0  0  0  0  0  0  0  0  0  0
   -6.7030   17.8690  -32.3340 C   0  0  0  0  0  0  0  0  0  0  0  0
   -5.7230   16.9470  -32.7150 C   0  0  0  0  0  0  0  0  0  0  0  0
   -4.9410   17.1840  -33.8490 C   0  0  0  0  0  0  0  0  0  0  0  0
   -5.1390   18.3430  -34.6040 C   0  0  0  0  0  0  0  0  0  0  0  0
   -6.1170   19.2670  -34.2270 C   0  0  0  0  0  0  0  0  0  0  0  0
   -2.9406   21.4108  -27.3111 H   0  0  0  0  0  0  0  0  0  0  0  0
   -2.6085   22.9163  -28.2329 H   0  0  0  0  0  0  0  0  0  0  0  0
   -4.2596   22.2090  -28.2329 H   0  0  0  0  0  0  0  0  0  0  0  0
   -2.0232   20.4456  -29.1874 H   0  0  0  0  0  0  0  0  0  0  0  0
   -3.7270   20.6037  -29.7750 H   0  0  0  0  0  0  0  0  0  0  0  0
   -2.0258   23.0075  -30.2002 H   0  0  0  0  0  0  0  0  0  0  0  0
   -1.5252   21.5399  -31.1217 H   0  0  0  0  0  0  0  0  0  0  0  0
   -3.0602   19.2055  -31.6314 H   0  0  0  0  0  0  0  0  0  0  0  0
   -1.3516   17.4796  -32.2261 H   0  0  0  0  0  0  0  0  0  0  0  0
    0.2205   17.8932  -34.1272 H   0  0  0  0  0  0  0  0  0  0  0  0
    0.0541   20.0280  -35.4173 H   0  0  0  0  0  0  0  0  0  0  0  0
   -1.5990   21.6590  -34.7890 H   0  0  0  0  0  0  0  0  0  0  0  0
   -4.7489   26.2733  -29.8755 H   0  0  0  0  0  0  0  0  0  0  0  0
   -7.1771   25.8101  -30.2197 H   0  0  0  0  0  0  0  0  0  0  0  0
   -7.8892   23.6140  -31.1686 H   0  0  0  0  0  0  0  0  0  0  0  0
   -5.5700   20.9600  -32.3600 H   0  0  0  0  0  0  0  0  0  0  0  0
   -7.4577   20.3403  -30.6385 H   0  0  0  0  0  0  0  0  0  0  0  0
   -8.3015   21.7247  -31.4447 H   0  0  0  0  0  0  0  0  0  0  0  0
   -8.8804   19.4399  -32.3809 H   0  0  0  0  0  0  0  0  0  0  0  0
   -8.2289   20.6279  -33.5814 H   0  0  0  0  0  0  0  0  0  0  0  0
   -7.3190   17.6769  -31.4431 H   0  0  0  0  0  0  0  0  0  0  0  0
   -5.5674   16.0340  -32.1215 H   0  0  0  0  0  0  0  0  0  0  0  0
   -4.1699   16.4583  -34.1470 H   0  0  0  0  0  0  0  0  0  0  0  0
   -4.5238   18.5283  -35.4968 H   0  0  0  0  0  0  0  0  0  0  0  0
   -6.2719   20.1762  -34.8265 H   0  0  0  0  0  0  0  0  0  0  0  0
  1  2  1  0
  2  3  1  0
  3  4  1  0
  4  5  1  0
  5  6  2  0
  5  7  1  0
  7  8  2  0
  8  9  1  0
  9 10  2  0
 10 11  1  0
 11 12  2  0
  4 13  1  0
 13 14  2  0
 14 15  1  0
 15 16  2  0
 16 17  1  0
 17 18  2  0
 18 19  1  0
 19 20  1  0
 20 21  1  0
 21 22  1  0
 22 23  2  0
 23 24  1  0
 24 25  2  0
 25 26  1  0
 26 27  2  0
 12  7  1  0
 18 13  1  0
 27 22  1  0
  1 28  1  0
  1 29  1  0
  1 30  1  0
  2 31  1  0
  2 32  1  0
  3 33  1  0
  3 34  1  0
  8 35  1  0
  9 36  1  0
 10 37  1  0
 11 38  1  0
 12 39  1  0
 15 40  1  0
 16 41  1  0
 17 42  1  0
 19 43  1  0
 20 44  1  0
 20 45  1  0
 21 46  1  0
 21 47  1  0
 23 48  1  0
 24 49  1  0
 25 50  1  0
 26 51  1  0
 27 52  1  0
M  CHG  1  12   1
M  END
>  <UniqueID>  (6) 
5

>  <SMILES>  (6) 
CCCN(C(=O)c1cccc[nH+]1)c1ncccc1NCCc1ccccc1

>  <Energy>  (6) 
55.39883379464667

>  <Genealogy>  (6) 
CCCN(C(=O)c1cccc[nH+]1)c1ncccc1NCCc1ccccc1 (protonated)
CCCN(C(=O)c1cccc[nH+]1)c1ncccc1NCCc1ccccc1 (3D coordinates assigned)
CCCN(C(=O)c1cccc[nH+]1)c1ncccc1NCCc1ccccc1 (optimized conformer: 55.39883379464667 kcal/mol)

>  <smiles>  (6) 
CCCN(C(=O)c1ccccn1)c1ncccc1NCCc1ccccc1

>  <score_type>  (6) 
oracle

>  <origin>  (6) 
adg

>  <m_score__min__energy>  (6) 
-7.5199999999999996

>  <m_primary>  (6) 
energy

$$$$
6:0
     RDKit          3D

 44 48  0  0  0  0  0  0  0  0999 V2000
   -6.5950   25.2490  -30.0600 C   0  0  0  0  0  0  0  0  0  0  0  0
   -6.1050   23.9770  -30.5830 N   0  0  0  0  0  0  0  0  0  0  0  0
   -4.8420   23.6660  -30.9640 C   0  0  0  0  0  0  0  0  0  0  0  0
   -3.8640   24.4530  -30.8430 O   0  0  0  0  0  0  0  0  0  0  0  0
   -4.7370   22.4170  -31.4880 N   0  0  0  0  0  0  0  0  0  0  0  0
   -3.5460   21.7800  -31.9720 C   0  0  0  0  0  0  0  0  0  0  0  0
   -3.3990   21.4960  -33.3390 C   0  0  0  0  0  0  0  0  0  0  0  0
   -2.2300   20.8910  -33.8100 C   0  0  0  0  0  0  0  0  0  0  0  0
   -1.2070   20.5550  -32.9200 C   0  0  0  0  0  0  0  0  0  0  0  0
   -1.3540   20.8200  -31.5540 C   0  0  0  0  0  0  0  0  0  0  0  0
   -0.3620   20.4910  -30.6900 F   0  0  0  0  0  0  0  0  0  0  0  0
   -2.5220   21.4250  -31.0790 C   0  0  0  0  0  0  0  0  0  0  0  0
   -6.0020   21.9380  -31.4560 C   0  0  0  0  0  0  0  0  0  0  0  0
   -6.5190   20.7370  -31.9460 C   0  0  0  0  0  0  0  0  0  0  0  0
   -5.7360   19.8030  -32.5420 N   0  0  0  0  0  0  0  0  0  0  0  0
   -6.2370   18.6320  -33.0230 C   0  0  0  0  0  0  0  0  0  0  0  0
   -5.3080   17.6620  -33.6570 C   0  0  0  0  0  0  0  0  0  0  0  0
   -4.1040   18.1190  -34.2290 C   0  0  0  0  0  0  0  0  0  0  0  0
   -3.2050   17.2200  -34.8080 C   0  0  0  0  0  0  0  0  0  0  0  0
   -3.4920   15.8540  -34.8220 C   0  0  0  0  0  0  0  0  0  0  0  0
   -4.6760   15.3840  -34.2520 C   0  0  0  0  0  0  0  0  0  0  0  0
   -5.5790   16.2780  -33.6690 C   0  0  0  0  0  0  0  0  0  0  0  0
   -7.6190   18.3840  -32.9170 C   0  0  0  0  0  0  0  0  0  0  0  0
   -8.4520   19.3330  -32.3160 C   0  0  0  0  0  0  0  0  0  0  0  0
   -7.9130   20.5270  -31.8240 C   0  0  0  0  0  0  0  0  0  0  0  0
   -8.7120   21.4890  -31.2540 N   0  0  0  0  0  0  0  0  0  0  0  0
   -8.1990   22.6730  -30.8010 C   0  0  0  0  0  0  0  0  0  0  0  0
   -6.8250   22.8860  -30.9110 C   0  0  0  0  0  0  0  0  0  0  0  0
   -6.5845   25.2218  -28.9604 H   0  0  0  0  0  0  0  0  0  0  0  0
   -5.9467   26.0646  -30.4128 H   0  0  0  0  0  0  0  0  0  0  0  0
   -7.6229   25.4189  -30.4128 H   0  0  0  0  0  0  0  0  0  0  0  0
   -4.2062   21.7503  -34.0417 H   0  0  0  0  0  0  0  0  0  0  0  0
   -2.1155   20.6792  -34.8833 H   0  0  0  0  0  0  0  0  0  0  0  0
   -0.2864   20.0823  -33.2929 H   0  0  0  0  0  0  0  0  0  0  0  0
   -2.6389   21.6233  -30.0033 H   0  0  0  0  0  0  0  0  0  0  0  0
   -3.8698   19.1937  -34.2195 H   0  0  0  0  0  0  0  0  0  0  0  0
   -2.2695   17.5892  -35.2536 H   0  0  0  0  0  0  0  0  0  0  0  0
   -2.7850   15.1481  -35.2823 H   0  0  0  0  0  0  0  0  0  0  0  0
   -4.8994   14.3070  -34.2615 H   0  0  0  0  0  0  0  0  0  0  0  0
   -6.5073   15.8993  -33.2165 H   0  0  0  0  0  0  0  0  0  0  0  0
   -8.0423   17.4462  -33.3059 H   0  0  0  0  0  0  0  0  0  0  0  0
   -9.5316   19.1408  -32.2300 H   0  0  0  0  0  0  0  0  0  0  0  0
   -9.7420   21.3310  -31.1720 H   0  0  0  0  0  0  0  0  0  0  0  0
   -8.8542   23.4389  -30.3605 H   0  0  0  0  0  0  0  0  0  0  0  0
  1  2  1  0
  2  3  1  0
  3  4  2  0
  3  5  1  0
  5  6  1  0
  6  7  2  0
  7  8  1  0
  8  9  2  0
  9 10  1  0
 10 11  1  0
 10 12  2  0
  5 13  1  0
 13 14  2  0
 14 15  1  0
 15 16  2  0
 16 17  1  0
 17 18  2  0
 18 19  1  0
 19 20  2  0
 20 21  1  0
 21 22  2  0
 16 23  1  0
 23 24  2  0
 24 25  1  0
 25 26  2  0
 26 27  1  0
 27 28  2  0
 28  2  1  0
 12  6  1  0
 28 13  1  0
 25 14  1  0
 22 17  1  0
  1 29  1  0
  1 30  1  0
  1 31  1  0
  7 32  1  0
  8 33  1  0
  9 34  1  0
 12 35  1  0
 18 36  1  0
 19 37  1  0
 20 38  1  0
 21 39  1  0
 22 40  1  0
 23 41  1  0
 24 42  1  0
 26 43  1  0
 27 44  1  0
M  CHG  1  26   1
M  END
>  <UniqueID>  (7) 
6

>  <SMILES>  (7) 
Cn1c(=O)n(-c2cccc(F)c2)c2c3nc(-c4ccccc4)ccc3[nH+]cc21

>  <Energy>  (7) 
104.8357552221038

>  <Genealogy>  (7) 
Cn1c(=O)n(-c2cccc(F)c2)c2c3nc(-c4ccccc4)ccc3[nH+]cc21 (protonated)
Cn1c(=O)n(-c2cccc(F)c2)c2c3nc(-c4ccccc4)ccc3[nH+]cc21 (3D coordinates assigned)
Cn1c(=O)n(-c2cccc(F)c2)c2c3nc(-c4ccccc4)ccc3[nH+]cc21 (optimized conformer: 104.8357552221038 kcal/mol)

>  <smiles>  (7) 
Cn1c(=O)n(-c2cccc(F)c2)c2c3nc(-c4ccccc4)ccc3ncc21

>  <score_type>  (7) 
oracle

>  <origin>  (7) 
adg

>  <m_score__min__energy>  (7) 
-8.7400000000000002

>  <m_primary>  (7) 
energy

$$$$
7:0
     RDKit          3D

 29 31  0  0  0  0  0  0  0  0999 V2000
   -9.0410   20.3300  -32.7000 F   0  0  0  0  0  0  0  0  0  0  0  0
   -8.0110   21.0340  -32.1700 C   0  0  0  0  0  0  0  0  0  0  0  0
   -6.7270   20.9040  -32.7040 C   0  0  0  0  0  0  0  0  0  0  0  0
   -5.6630   21.6300  -32.1580 C   0  0  0  0  0  0  0  0  0  0  0  0
   -5.8790   22.4990  -31.0750 C   0  0  0  0  0  0  0  0  0  0  0  0
   -4.7870   23.2360  -30.4940 N   0  0  0  0  0  0  0  0  0  0  0  0
   -3.6970   22.7010  -29.9150 C   0  0  0  0  0  0  0  0  0  0  0  0
   -2.8910   23.7360  -29.4720 C   0  0  0  0  0  0  0  0  0  0  0  0
   -1.5860   23.6190  -28.7770 C   0  0  0  0  0  0  0  0  0  0  0  0
   -0.9020   24.7560  -28.3030 C   0  0  0  0  0  0  0  0  0  0  0  0
    0.3270   24.6230  -27.6510 C   0  0  0  0  0  0  0  0  0  0  0  0
    0.8900   23.3590  -27.4640 C   0  0  0  0  0  0  0  0  0  0  0  0
    0.2230   22.2240  -27.9290 C   0  0  0  0  0  0  0  0  0  0  0  0
   -1.0070   22.3500  -28.5820 C   0  0  0  0  0  0  0  0  0  0  0  0
   -3.4800   24.9170  -29.7620 N   0  0  0  0  0  0  0  0  0  0  0  0
   -4.6250   24.5750  -30.3850 C   0  0  0  0  0  0  0  0  0  0  0  0
   -5.7380   25.6910  -30.8350 S   0  0  0  0  0  0  0  0  0  0  0  0
   -7.1710   22.6110  -30.5340 C   0  0  0  0  0  0  0  0  0  0  0  0
   -8.2330   21.8850  -31.0840 C   0  0  0  0  0  0  0  0  0  0  0  0
   -6.5520   20.2297  -33.5553 H   0  0  0  0  0  0  0  0  0  0  0  0
   -4.6525   21.5201  -32.5785 H   0  0  0  0  0  0  0  0  0  0  0  0
   -3.4830   21.6270  -29.8114 H   0  0  0  0  0  0  0  0  0  0  0  0
   -1.3384   25.7554  -28.4471 H   0  0  0  0  0  0  0  0  0  0  0  0
    0.8525   25.5170  -27.2840 H   0  0  0  0  0  0  0  0  0  0  0  0
    1.8578   23.2576  -26.9510 H   0  0  0  0  0  0  0  0  0  0  0  0
    0.6662   21.2281  -27.7813 H   0  0  0  0  0  0  0  0  0  0  0  0
   -1.5263   21.4513  -28.9461 H   0  0  0  0  0  0  0  0  0  0  0  0
   -7.3484   23.2729  -29.6736 H   0  0  0  0  0  0  0  0  0  0  0  0
   -9.2436   21.9841  -30.6612 H   0  0  0  0  0  0  0  0  0  0  0  0
  1  2  1  0
  2  3  2  0
  3  4  1  0
  4  5  2  0
  5  6  1  0
  6  7  1  0
  7  8  2  0
  8  9  1  0
  9 10  2  0
 10 11  1  0
 11 12  2  0
 12 13  1  0
 13 14  2  0
  8 15  1  0
 15 16  1  0
 16 17  2  0
  5 18  1  0
 18 19  2  0
 19  2  1  0
 16  6  1  0
 14  9  1  0
  3 20  1  0
  4 21  1  0
  7 22  1  0
 10 23  1  0
 11 24  1  0
 12 25  1  0
 13 26  1  0
 14 27  1  0
 18 28  1  0
 19 29  1  0
M  CHG  1  15  -1
M  END
>  <UniqueID>  (8) 
7

>  <SMILES>  (8) 
Fc1ccc(-n2cc(-c3ccccc3)[n-]c2=S)cc1

>  <Energy>  (8) 
69.69595076982895

>  <Genealogy>  (8) 
Fc1ccc(-n2cc(-c3ccccc3)[n-]c2=S)cc1 (protonated)
Fc1ccc(-n2cc(-c3ccccc3)[n-]c2=S)cc1 (3D coordinates assigned)
Fc1ccc(-n2cc(-c3ccccc3)[n-]c2=S)cc1 (optimized conformer: 69.69595076982895 kcal/mol)

>  <smiles>  (8) 
Fc1ccc(-n2cc(-c3ccccc3)[nH]c2=S)cc1

>  <score_type>  (8) 
oracle

>  <origin>  (8) 
adg

>  <m_score__min__energy>  (8) 
-7.4500000000000002

>  <m_primary>  (8) 
energy

$$$$
8:0
     RDKit          3D

 47 49  0  0  0  0  0  0  0  0999 V2000
   -1.1970   21.7390  -31.1840 C   0  0  0  0  0  0  0  0  0  0  0  0
   -2.3420   20.7290  -31.2560 C   0  0  0  0  0  0  0  0  0  0  0  0
   -2.9090   20.6320  -32.6230 N   0  0  0  0  0  0  0  0  0  0  0  0
   -1.8560   20.2370  -33.5870 C   0  0  0  0  0  0  0  0  0  0  0  0
   -1.9930   18.7600  -33.9550 C   0  0  0  0  0  0  0  0  0  0  0  0
   -3.5660   21.8970  -33.0420 C   0  0  0  0  0  0  0  0  0  0  0  0
   -5.0110   21.9130  -32.6040 C   0  0  0  0  0  0  0  0  0  0  0  0
   -5.8930   20.9310  -33.0850 C   0  0  0  0  0  0  0  0  0  0  0  0
   -7.2340   20.9310  -32.6850 C   0  0  0  0  0  0  0  0  0  0  0  0
   -8.1060   19.9790  -33.1230 N   0  0  0  0  0  0  0  0  0  0  0  0
   -9.4060   19.9950  -32.7200 C   0  0  0  0  0  0  0  0  0  0  0  0
   -9.8500   20.9610  -31.8730 N   0  0  0  0  0  0  0  0  0  0  0  0
   -9.0150   21.9290  -31.4130 C   0  0  0  0  0  0  0  0  0  0  0  0
   -7.6800   21.9350  -31.8120 C   0  0  0  0  0  0  0  0  0  0  0  0
   -6.8220   22.8920  -31.3720 N   0  0  0  0  0  0  0  0  0  0  0  0
   -5.5120   22.9120  -31.7450 C   0  0  0  0  0  0  0  0  0  0  0  0
   -4.6620   23.9200  -31.2690 O   0  0  0  0  0  0  0  0  0  0  0  0
   -4.6470   24.3650  -29.9140 C   0  0  0  0  0  0  0  0  0  0  0  0
   -3.6420   23.5740  -29.1190 C   0  0  0  0  0  0  0  0  0  0  0  0
   -4.0070   22.3200  -28.6000 C   0  0  0  0  0  0  0  0  0  0  0  0
   -3.1050   21.5870  -27.8250 C   0  0  0  0  0  0  0  0  0  0  0  0
   -1.8320   22.0980  -27.5610 C   0  0  0  0  0  0  0  0  0  0  0  0
   -1.4590   23.3430  -28.0720 C   0  0  0  0  0  0  0  0  0  0  0  0
   -2.3580   24.0840  -28.8470 C   0  0  0  0  0  0  0  0  0  0  0  0
   -1.9740   25.2940  -29.3260 F   0  0  0  0  0  0  0  0  0  0  0  0
   -0.9590   21.9490  -30.1308 H   0  0  0  0  0  0  0  0  0  0  0  0
   -0.3099   21.3239  -31.6847 H   0  0  0  0  0  0  0  0  0  0  0  0
   -1.4981   22.6710  -31.6847 H   0  0  0  0  0  0  0  0  0  0  0  0
   -1.9634   19.7404  -30.9571 H   0  0  0  0  0  0  0  0  0  0  0  0
   -3.1398   21.0694  -30.5795 H   0  0  0  0  0  0  0  0  0  0  0  0
   -1.9515   20.8471  -34.4973 H   0  0  0  0  0  0  0  0  0  0  0  0
   -0.8714   20.3980  -33.1237 H   0  0  0  0  0  0  0  0  0  0  0  0
   -2.0489   18.1570  -33.0367 H   0  0  0  0  0  0  0  0  0  0  0  0
   -2.9086   18.6129  -34.5466 H   0  0  0  0  0  0  0  0  0  0  0  0
   -1.1200   18.4470  -34.5466 H   0  0  0  0  0  0  0  0  0  0  0  0
   -3.0395   22.7473  -32.5839 H   0  0  0  0  0  0  0  0  0  0  0  0
   -3.5259   21.9723  -34.1387 H   0  0  0  0  0  0  0  0  0  0  0  0
   -5.5281   20.1592  -33.7787 H   0  0  0  0  0  0  0  0  0  0  0  0
   -7.7860   19.2270  -33.7740 H   0  0  0  0  0  0  0  0  0  0  0  0
  -10.1007   19.2225  -33.0815 H   0  0  0  0  0  0  0  0  0  0  0  0
   -9.3910   22.7041  -30.7290 H   0  0  0  0  0  0  0  0  0  0  0  0
   -4.3763   25.4308  -29.8843 H   0  0  0  0  0  0  0  0  0  0  0  0
   -5.6459   24.2194  -29.4769 H   0  0  0  0  0  0  0  0  0  0  0  0
   -5.0083   21.9135  -28.8051 H   0  0  0  0  0  0  0  0  0  0  0  0
   -3.3976   20.6061  -27.4221 H   0  0  0  0  0  0  0  0  0  0  0  0
   -1.1231   21.5195  -26.9504 H   0  0  0  0  0  0  0  0  0  0  0  0
   -0.4553   23.7424  -27.8646 H   0  0  0  0  0  0  0  0  0  0  0  0
  1  2  1  0
  2  3  1  0
  3  4  1  0
  4  5  1  0
  3  6  1  0
  6  7  1  0
  7  8  2  0
  8  9  1  0
  9 10  2  0
 10 11  1  0
 11 12  2  0
 12 13  1  0
 13 14  2  0
 14 15  1  0
 15 16  2  0
 16 17  1  0
 17 18  1  0
 18 19  1  0
 19 20  2  0
 20 21  1  0
 21 22  2  0
 22 23  1  0
 23 24  2  0
 24 25  1  0
 16  7  1  0
 24 19  1  0
 14  9  1  0
  1 26  1  0
  1 27  1  0
  1 28  1  0
  2 29  1  0
  2 30  1  0
  4 31  1  0
  4 32  1  0
  5 33  1  0
  5 34  1  0
  5 35  1  0
  6 36  1  0
  6 37  1  0
  8 38  1  0
 10 39  1  0
 11 40  1  0
 13 41  1  0
 18 42  1  0
 18 43  1  0
 20 44  1  0
 21 45  1  0
 22 46  1  0
 23 47  1  0
M  CHG  1  10   1
M  END
>  <UniqueID>  (9) 
8

>  <SMILES>  (9) 
CCN(CC)Cc1cc2[nH+]cncc2nc1OCc1ccccc1F

>  <Energy>  (9) 
49.685657938404574

>  <Genealogy>  (9) 
CCN(CC)Cc1cc2[nH+]cncc2nc1OCc1ccccc1F (protonated)
CCN(CC)Cc1cc2[nH+]cncc2nc1OCc1ccccc1F (3D coordinates assigned)
CCN(CC)Cc1cc2[nH+]cncc2nc1OCc1ccccc1F (optimized conformer: 49.685657938404574 kcal/mol)

>  <smiles>  (9) 
CCN(CC)Cc1cc2ncncc2nc1OCc1ccccc1F

>  <score_type>  (9) 
oracle

>  <origin>  (9) 
adg

>  <m_score__min__energy>  (9) 
-7.29

>  <m_primary>  (9) 
energy

$$$$
9:0
     RDKit          3D

 28 30  0  0  0  0  0  0  0  0999 V2000
   -0.9450   25.8800  -29.7210 H   0  0  0  0  0  0  0  0  0  0  0  0
   -1.2420   26.1640  -28.7610 N   0  0  0  0  0  0  0  0  0  0  0  0
   -0.9640   25.4400  -27.7230 C   0  0  0  0  0  0  0  0  0  0  0  0
   -0.9410   24.0860  -27.8380 N   0  0  0  0  0  0  0  0  0  0  0  0
   -0.6590   23.2460  -26.8010 C   0  0  0  0  0  0  0  0  0  0  0  0
   -0.6630   21.7690  -27.0510 C   0  0  0  0  0  0  0  0  0  0  0  0
    0.3350   21.1210  -27.8140 C   0  0  0  0  0  0  0  0  0  0  0  0
    1.1551   21.7109  -28.2493 H   0  0  0  0  0  0  0  0  0  0  0  0
    0.2920   19.7380  -28.0220 C   0  0  0  0  0  0  0  0  0  0  0  0
    1.0761   19.2493  -28.6190 H   0  0  0  0  0  0  0  0  0  0  0  0
   -0.7400   18.9770  -27.4760 C   0  0  0  0  0  0  0  0  0  0  0  0
   -0.7691   17.8900  -27.6420 H   0  0  0  0  0  0  0  0  0  0  0  0
   -1.7360   19.5940  -26.7190 C   0  0  0  0  0  0  0  0  0  0  0  0
   -3.1500   18.5510  -25.9720 Br  0  0  0  0  0  0  0  0  0  0  0  0
   -1.6990   20.9770  -26.5070 C   0  0  0  0  0  0  0  0  0  0  0  0
   -2.4883   21.4545  -25.9079 H   0  0  0  0  0  0  0  0  0  0  0  0
   -0.3750   23.8120  -25.5410 C   0  0  0  0  0  0  0  0  0  0  0  0
   -0.1437   23.1601  -24.6857 H   0  0  0  0  0  0  0  0  0  0  0  0
   -0.3870   25.2030  -25.3770 C   0  0  0  0  0  0  0  0  0  0  0  0
   -0.6850   26.0360  -26.4780 C   0  0  0  0  0  0  0  0  0  0  0  0
   -0.6920   27.4290  -26.2900 C   0  0  0  0  0  0  0  0  0  0  0  0
   -0.9221   28.0971  -27.1330 H   0  0  0  0  0  0  0  0  0  0  0  0
   -0.4070   27.9630  -25.0340 C   0  0  0  0  0  0  0  0  0  0  0  0
   -0.4099   29.0523  -24.8813 H   0  0  0  0  0  0  0  0  0  0  0  0
   -0.1180   27.1050  -23.9720 C   0  0  0  0  0  0  0  0  0  0  0  0
    0.1068   27.5200  -22.9784 H   0  0  0  0  0  0  0  0  0  0  0  0
   -0.1130   25.7580  -24.1600 N   0  0  0  0  0  0  0  0  0  0  0  0
    0.1080   25.1460  -23.3400 H   0  0  0  0  0  0  0  0  0  0  0  0
  1  2  1  0
  2  3  2  0
  3  4  1  0
  4  5  1  0
  5  6  1  0
  6  7  2  0
  7  8  1  0
  7  9  1  0
  9 10  1  0
  9 11  2  0
 11 12  1  0
 11 13  1  0
 13 14  1  0
 13 15  2  0
 15 16  1  0
  5 17  2  0
 17 18  1  0
 17 19  1  0
 19 20  2  0
 20 21  1  0
 21 22  1  0
 21 23  2  0
 23 24  1  0
 23 25  1  0
 25 26  1  0
 25 27  2  0
 27 28  1  0
 20  3  1  0
 15  6  1  0
 27 19  1  0
M  CHG  2   4  -1  27   1
M  END
>  <UniqueID>  (10) 
9

>  <SMILES>  (10) 
[H]/N=c1\[n-]c(-c2cccc(Br)c2)cc2[nH+]cccc12

>  <Energy>  (10) 
40.766970887039705

>  <Genealogy>  (10) 
N=c1[n-]c(-c2cccc(Br)c2)cc2[nH+]cccc12 (protonated)
[H]/N=c1\[n-]c(-c2cccc(Br)c2)cc2[nH+]cccc12 (cis-trans isomerization)
[H]/N=c1\[n-]c(-c2cccc(Br)c2)cc2[nH+]cccc12 (3D coordinates assigned)
[H]/N=c1\[n-]c(-c2cccc(Br)c2)cc2[nH+]cccc12 (optimized conformer: 40.766970887039705 kcal/mol)

>  <smiles>  (10) 
N=c1[nH]c(-c2cccc(Br)c2)cc2ncccc12

>  <score_type>  (10) 
oracle

>  <origin>  (10) 
adg

>  <m_score__min__energy>  (10) 
-8.3699999999999992

>  <m_primary>  (10) 
energy

$$$$
10:0
     RDKit          3D

 41 42  0  0  0  0  0  0  0  0999 V2000
   -8.5366   18.5705  -30.9150 H   0  0  0  0  0  0  0  0  0  0  0  0
   -8.4070   18.9960  -31.9210 C   0  0  0  0  0  0  0  0  0  0  0  0
   -9.2830   19.9160  -32.3400 C   0  0  0  0  0  0  0  0  0  0  0  0
   -9.8488   19.7374  -33.2663 H   0  0  0  0  0  0  0  0  0  0  0  0
   -9.5120   21.1920  -31.5710 C   0  0  0  0  0  0  0  0  0  0  0  0
   -9.6160   20.9477  -30.5035 H   0  0  0  0  0  0  0  0  0  0  0  0
  -10.4237   21.6637  -31.9663 H   0  0  0  0  0  0  0  0  0  0  0  0
   -8.3960   22.1560  -31.7330 N   0  0  1  0  0  0  0  0  0  0  0  0
   -7.6940   21.7540  -32.3960 H   0  0  0  0  0  0  0  0  0  0  0  0
   -8.8880   23.4260  -32.3050 C   0  0  0  0  0  0  0  0  0  0  0  0
   -9.1552   24.1157  -31.4908 H   0  0  0  0  0  0  0  0  0  0  0  0
   -8.1001   23.8785  -32.9251 H   0  0  0  0  0  0  0  0  0  0  0  0
   -9.7751   23.2296  -32.9251 H   0  0  0  0  0  0  0  0  0  0  0  0
   -7.7420   22.3890  -30.4190 C   0  0  0  0  0  0  0  0  0  0  0  0
   -7.7886   21.4608  -29.8306 H   0  0  0  0  0  0  0  0  0  0  0  0
   -8.2763   23.2089  -29.9166 H   0  0  0  0  0  0  0  0  0  0  0  0
   -6.2870   22.8020  -30.5670 C   0  0  0  0  0  0  0  0  0  0  0  0
   -5.3670   21.8650  -31.0720 C   0  0  0  0  0  0  0  0  0  0  0  0
   -5.7152   20.8629  -31.3627 H   0  0  0  0  0  0  0  0  0  0  0  0
   -4.0180   22.1930  -31.2080 C   0  0  0  0  0  0  0  0  0  0  0  0
   -3.3085   21.4489  -31.5992 H   0  0  0  0  0  0  0  0  0  0  0  0
   -3.5680   23.4620  -30.8490 C   0  0  0  0  0  0  0  0  0  0  0  0
   -2.5032   23.7171  -30.9543 H   0  0  0  0  0  0  0  0  0  0  0  0
   -4.4660   24.4100  -30.3560 C   0  0  0  0  0  0  0  0  0  0  0  0
   -4.1050   25.4132  -30.0853 H   0  0  0  0  0  0  0  0  0  0  0  0
   -5.8280   24.0950  -30.2020 C   0  0  0  0  0  0  0  0  0  0  0  0
   -6.7710   25.1700  -29.7210 C   0  0  0  0  0  0  0  0  0  0  0  0
   -6.7821   25.1827  -28.6211 H   0  0  0  0  0  0  0  0  0  0  0  0
   -6.4340   26.1478  -30.0956 H   0  0  0  0  0  0  0  0  0  0  0  0
   -7.7844   24.9633  -30.0956 H   0  0  0  0  0  0  0  0  0  0  0  0
   -7.2710   18.5220  -32.7450 C   0  0  0  0  0  0  0  0  0  0  0  0
   -7.0500   17.1380  -32.8430 C   0  0  0  0  0  0  0  0  0  0  0  0
   -7.7135   16.4400  -32.3115 H   0  0  0  0  0  0  0  0  0  0  0  0
   -5.9930   16.6420  -33.6110 C   0  0  0  0  0  0  0  0  0  0  0  0
   -5.8209   15.5573  -33.6720 H   0  0  0  0  0  0  0  0  0  0  0  0
   -5.1550   17.5200  -34.3010 C   0  0  0  0  0  0  0  0  0  0  0  0
   -4.3180   17.1276  -34.8971 H   0  0  0  0  0  0  0  0  0  0  0  0
   -5.3800   18.8970  -34.2340 C   0  0  0  0  0  0  0  0  0  0  0  0
   -4.7253   19.5865  -34.7871 H   0  0  0  0  0  0  0  0  0  0  0  0
   -6.4350   19.4030  -33.4660 C   0  0  0  0  0  0  0  0  0  0  0  0
   -6.6650   20.7400  -33.4770 F   0  0  0  0  0  0  0  0  0  0  0  0
  1  2  1  0
  2  3  2  0
  3  4  1  0
  3  5  1  0
  5  6  1  0
  5  7  1  0
  5  8  1  0
  8  9  1  6
  8 10  1  0
 10 11  1  0
 10 12  1  0
 10 13  1  0
  8 14  1  0
 14 15  1  0
 14 16  1  0
 14 17  1  0
 17 18  2  0
 18 19  1  0
 18 20  1  0
 20 21  1  0
 20 22  2  0
 22 23  1  0
 22 24  1  0
 24 25  1  0
 24 26  2  0
 26 27  1  0
 27 28  1  0
 27 29  1  0
 27 30  1  0
  2 31  1  0
 31 32  2  0
 32 33  1  0
 32 34  1  0
 34 35  1  0
 34 36  2  0
 36 37  1  0
 36 38  1  0
 38 39  1  0
 38 40  2  0
 40 41  1  0
 26 17  1  0
 40 31  1  0
M  CHG  1   8   1
M  END
>  <UniqueID>  (11) 
10

>  <SMILES>  (11) 
Cc1ccccc1C[N@H+](C)C/C=C/c1ccccc1F

>  <Energy>  (11) 
46.83320456234381

>  <Genealogy>  (11) 
Cc1ccccc1C[NH+](C)CC=Cc1ccccc1F (protonated)
Cc1ccccc1C[N@H+](C)CC=Cc1ccccc1F (chirality)
Cc1ccccc1C[N@H+](C)C/C=C/c1ccccc1F (cis-trans isomerization)
Cc1ccccc1C[N@H+](C)C/C=C/c1ccccc1F (3D coordinates assigned)
Cc1ccccc1C[N@H+](C)C/C=C/c1ccccc1F (optimized conformer: 46.83320456234381 kcal/mol)

>  <smiles>  (11) 
Cc1ccccc1CN(C)CC=Cc1ccccc1F

>  <score_type>  (11) 
oracle

>  <origin>  (11) 
adg

>  <m_score__min__energy>  (11) 
-6.8899999999999997

>  <m_primary>  (11) 
energy

$$$$
11:0
     RDKit          3D

 32 34  0  0  0  0  0  0  0  0999 V2000
   -9.1160   19.8580  -32.3190 C   0  0  0  0  0  0  0  0  0  0  0  0
   -8.0260   19.0840  -32.7140 C   0  0  0  0  0  0  0  0  0  0  0  0
   -6.7400   19.6210  -32.6790 C   0  0  0  0  0  0  0  0  0  0  0  0
   -6.5260   20.9320  -32.2330 C   0  0  0  0  0  0  0  0  0  0  0  0
   -7.6310   21.7360  -31.8520 C   0  0  0  0  0  0  0  0  0  0  0  0
   -8.9210   21.1760  -31.8980 C   0  0  0  0  0  0  0  0  0  0  0  0
   -7.5320   23.2080  -31.4820 C   0  0  0  0  0  0  0  0  0  0  0  0
   -6.1480   23.7100  -31.3210 N   0  0  0  0  0  0  0  0  0  0  0  0
   -6.1350   25.1730  -31.0880 C   0  0  0  0  0  0  0  0  0  0  0  0
   -6.2870   25.5200  -29.5970 C   0  0  0  0  0  0  0  0  0  0  0  0
   -5.2670   24.8720  -28.7420 N   0  0  0  0  0  0  0  0  0  0  0  0
   -4.4900   23.8240  -29.4230 C   0  0  0  0  0  0  0  0  0  0  0  0
   -5.4020   22.9350  -30.2970 C   0  0  2  0  0  0  0  0  0  0  0  0
   -4.5740   21.8550  -31.0070 C   0  0  0  0  0  0  0  0  0  0  0  0
   -5.2120   21.4030  -32.1990 O   0  0  0  0  0  0  0  0  0  0  0  0
  -10.1296   19.4312  -32.3387 H   0  0  0  0  0  0  0  0  0  0  0  0
   -8.1807   18.0492  -33.0534 H   0  0  0  0  0  0  0  0  0  0  0  0
   -5.8853   19.0099  -33.0045 H   0  0  0  0  0  0  0  0  0  0  0  0
   -9.7875   21.7839  -31.5986 H   0  0  0  0  0  0  0  0  0  0  0  0
   -8.0201   23.7948  -32.2741 H   0  0  0  0  0  0  0  0  0  0  0  0
   -8.0200   23.3174  -30.5022 H   0  0  0  0  0  0  0  0  0  0  0  0
   -5.1813   25.5823  -31.4525 H   0  0  0  0  0  0  0  0  0  0  0  0
   -6.9878   25.6108  -31.6276 H   0  0  0  0  0  0  0  0  0  0  0  0
   -6.1995   26.6103  -29.4808 H   0  0  0  0  0  0  0  0  0  0  0  0
   -7.2702   25.1483  -29.2728 H   0  0  0  0  0  0  0  0  0  0  0  0
   -5.7390   24.4510  -27.9080 H   0  0  0  0  0  0  0  0  0  0  0  0
   -4.6000   25.5990  -28.3890 H   0  0  0  0  0  0  0  0  0  0  0  0
   -3.7307   24.2979  -30.0624 H   0  0  0  0  0  0  0  0  0  0  0  0
   -4.0127   23.1914  -28.6601 H   0  0  0  0  0  0  0  0  0  0  0  0
   -6.1327   22.4765  -29.6144 H   0  0  0  0  0  0  0  0  0  0  0  0
   -3.5896   22.2723  -31.2653 H   0  0  0  0  0  0  0  0  0  0  0  0
   -4.4710   20.9975  -30.3258 H   0  0  0  0  0  0  0  0  0  0  0  0
  1  2  2  0
  2  3  1  0
  3  4  2  0
  4  5  1  0
  5  6  2  0
  5  7  1  0
  7  8  1  0
  8  9  1  0
  9 10  1  0
 10 11  1  0
 11 12  1  0
 12 13  1  0
 13 14  1  0
 14 15  1  0
  6  1  1  0
 13  8  1  0
 15  4  1  0
  1 16  1  0
  2 17  1  0
  3 18  1  0
  6 19  1  0
  7 20  1  0
  7 21  1  0
  9 22  1  0
  9 23  1  0
 10 24  1  0
 10 25  1  0
 11 26  1  0
 11 27  1  0
 12 28  1  0
 12 29  1  0
 13 30  1  1
 14 31  1  0
 14 32  1  0
M  CHG  1  11   1
M  END
>  <UniqueID>  (12) 
11

>  <SMILES>  (12) 
c1ccc2c(c1)CN1CC[NH2+]C[C@@H]1CO2

>  <Energy>  (12) 
57.1699561175542

>  <Genealogy>  (12) 
c1ccc2c(c1)CN1CC[NH2+]CC1CO2 (protonated)
c1ccc2c(c1)CN1CC[NH2+]C[C@@H]1CO2 (chirality)
c1ccc2c(c1)CN1CC[NH2+]C[C@@H]1CO2 (3D coordinates assigned)
c1ccc2c(c1)CN1CC[NH2+]C[C@@H]1CO2 (nonaromatic ring conformer: 57.1699561175542 kcal/mol)

>  <smiles>  (12) 
c1ccc2c(c1)CN1CCNCC1CO2

>  <score_type>  (12) 
oracle

>  <origin>  (12) 
adg

>  <m_score__min__energy>  (12) 
-5.0599999999999996

>  <m_primary>  (12) 
energy

$$$$
12:0
     RDKit          3D

 38 40  0  0  0  0  0  0  0  0999 V2000
   -0.9360   26.3500  -28.2280 C   0  0  0  0  0  0  0  0  0  0  0  0
   -1.9400   25.6580  -28.9650 O   0  0  0  0  0  0  0  0  0  0  0  0
   -2.4650   24.4030  -28.6180 C   0  0  0  0  0  0  0  0  0  0  0  0
   -1.7450   23.5090  -27.7980 C   0  0  0  0  0  0  0  0  0  0  0  0
   -2.2630   22.2480  -27.4980 C   0  0  0  0  0  0  0  0  0  0  0  0
   -3.4980   21.8590  -28.0130 C   0  0  0  0  0  0  0  0  0  0  0  0
   -4.2260   22.7330  -28.8200 C   0  0  0  0  0  0  0  0  0  0  0  0
   -3.7310   24.0150  -29.1200 C   0  0  0  0  0  0  0  0  0  0  0  0
   -4.5630   24.9210  -29.9520 C   0  0  0  0  0  0  0  0  0  0  0  0
   -4.0110   25.6070  -30.8550 O   0  0  0  0  0  0  0  0  0  0  0  0
   -6.0530   25.0330  -29.7790 C   0  0  0  0  0  0  0  0  0  0  0  0
   -6.6980   23.8000  -30.0910 O   0  0  0  0  0  0  0  0  0  0  0  0
   -6.8790   23.3340  -31.3970 C   0  0  0  0  0  0  0  0  0  0  0  0
   -6.1810   23.7990  -32.3400 O   0  0  0  0  0  0  0  0  0  0  0  0
   -7.8730   22.2850  -31.6780 C   0  0  0  0  0  0  0  0  0  0  0  0
   -9.2360   22.4840  -31.8790 C   0  0  0  0  0  0  0  0  0  0  0  0
   -9.8510   21.3130  -32.1520 N   0  0  0  0  0  0  0  0  0  0  0  0
   -8.8910   20.3730  -32.1280 C   0  0  0  0  0  0  0  0  0  0  0  0
   -9.0470   19.0080  -32.3640 C   0  0  0  0  0  0  0  0  0  0  0  0
   -7.9030   18.1940  -32.2990 C   0  0  0  0  0  0  0  0  0  0  0  0
   -6.6430   18.7550  -32.0020 C   0  0  0  0  0  0  0  0  0  0  0  0
   -6.5140   20.1360  -31.7670 C   0  0  0  0  0  0  0  0  0  0  0  0
   -7.6670   20.9240  -31.8410 C   0  0  0  0  0  0  0  0  0  0  0  0
   -1.1193   26.2236  -27.1508 H   0  0  0  0  0  0  0  0  0  0  0  0
    0.0529   25.9408  -28.4821 H   0  0  0  0  0  0  0  0  0  0  0  0
   -0.9665   27.4198  -28.4821 H   0  0  0  0  0  0  0  0  0  0  0  0
   -0.7675   23.8080  -27.3917 H   0  0  0  0  0  0  0  0  0  0  0  0
   -1.6954   21.5602  -26.8540 H   0  0  0  0  0  0  0  0  0  0  0  0
   -3.8993   20.8611  -27.7827 H   0  0  0  0  0  0  0  0  0  0  0  0
   -5.1979   22.4163  -29.2263 H   0  0  0  0  0  0  0  0  0  0  0  0
   -6.2748   25.3010  -28.7354 H   0  0  0  0  0  0  0  0  0  0  0  0
   -6.4280   25.8077  -30.4640 H   0  0  0  0  0  0  0  0  0  0  0  0
   -9.7417   23.4592  -31.8232 H   0  0  0  0  0  0  0  0  0  0  0  0
  -10.8680   21.1720  -32.3480 H   0  0  0  0  0  0  0  0  0  0  0  0
  -10.0345   18.5813  -32.5939 H   0  0  0  0  0  0  0  0  0  0  0  0
   -7.9906   17.1127  -32.4808 H   0  0  0  0  0  0  0  0  0  0  0  0
   -5.7549   18.1077  -31.9538 H   0  0  0  0  0  0  0  0  0  0  0  0
   -5.5364   20.5823  -31.5323 H   0  0  0  0  0  0  0  0  0  0  0  0
  1  2  1  0
  2  3  1  0
  3  4  2  0
  4  5  1  0
  5  6  2  0
  6  7  1  0
  7  8  2  0
  8  9  1  0
  9 10  2  0
  9 11  1  0
 11 12  1  0
 12 13  1  0
 13 14  2  0
 13 15  1  0
 15 16  2  0
 16 17  1  0
 17 18  1  0
 18 19  2  0
 19 20  1  0
 20 21  2  0
 21 22  1  0
 22 23  2  0
  8  3  1  0
 23 15  1  0
 23 18  1  0
  1 24  1  0
  1 25  1  0
  1 26  1  0
  4 27  1  0
  5 28  1  0
  6 29  1  0
  7 30  1  0
 11 31  1  0
 11 32  1  0
 16 33  1  0
 17 34  1  0
 19 35  1  0
 20 36  1  0
 21 37  1  0
 22 38  1  0
M  END
>  <UniqueID>  (13) 
12

>  <SMILES>  (13) 
COc1ccccc1C(=O)COC(=O)c1c[nH]c2ccccc12

>  <Energy>  (13) 
73.88262699239573

>  <Genealogy>  (13) 
COc1ccccc1C(=O)COC(=O)c1c[nH]c2ccccc12 (3D coordinates assigned)
COc1ccccc1C(=O)COC(=O)c1c[nH]c2ccccc12 (optimized conformer: 73.88262699239573 kcal/mol)

>  <smiles>  (13) 
COc1ccccc1C(=O)COC(=O)c1c[nH]c2ccccc12

>  <score_type>  (13) 
oracle

>  <origin>  (13) 
adg

>  <m_score__min__energy>  (13) 
-9.1600000000000001

>  <m_primary>  (13) 
energy

$$$$
13:0
     RDKit          3D

 41 44  0  0  0  0  0  0  0  0999 V2000
   -4.7270   16.0830  -32.8690 C   0  0  0  0  0  0  0  0  0  0  0  0
   -4.2170   16.5550  -34.1690 N   0  0  0  0  0  0  0  0  0  0  0  0
   -2.8880   17.1750  -34.0250 C   0  0  0  0  0  0  0  0  0  0  0  0
   -5.1860   17.4090  -34.9060 C   0  0  0  0  0  0  0  0  0  0  0  0
   -6.4530   17.8390  -34.1290 C   0  0  0  0  0  0  0  0  0  0  0  0
   -6.3080   19.1400  -33.4740 N   0  0  0  0  0  0  0  0  0  0  0  0
   -5.1350   19.8070  -33.2760 C   0  0  0  0  0  0  0  0  0  0  0  0
   -5.3890   20.9850  -32.5830 C   0  0  0  0  0  0  0  0  0  0  0  0
   -6.7220   21.0060  -32.3520 C   0  0  0  0  0  0  0  0  0  0  0  0
   -7.4170   21.9750  -31.6490 C   0  0  0  0  0  0  0  0  0  0  0  0
   -8.8080   21.7530  -31.4900 C   0  0  0  0  0  0  0  0  0  0  0  0
   -9.4080   20.5830  -32.0250 C   0  0  0  0  0  0  0  0  0  0  0  0
   -8.6380   19.6270  -32.7250 C   0  0  0  0  0  0  0  0  0  0  0  0
   -7.2740   19.8840  -32.8820 C   0  0  0  0  0  0  0  0  0  0  0  0
   -6.6240   23.1330  -31.1170 C   0  0  0  0  0  0  0  0  0  0  0  0
   -7.2310   24.1870  -30.4090 C   0  0  0  0  0  0  0  0  0  0  0  0
   -6.4630   25.2490  -29.9250 C   0  0  0  0  0  0  0  0  0  0  0  0
   -5.0850   25.2800  -30.1390 C   0  0  0  0  0  0  0  0  0  0  0  0
   -4.4570   24.2480  -30.8400 C   0  0  0  0  0  0  0  0  0  0  0  0
   -5.2070   23.1700  -31.3360 C   0  0  0  0  0  0  0  0  0  0  0  0
   -4.5360   22.0650  -32.0890 C   0  0  0  0  0  0  0  0  0  0  0  0
   -3.2910   22.0520  -32.2930 O   0  0  0  0  0  0  0  0  0  0  0  0
   -4.1826   16.5868  -32.0567 H   0  0  0  0  0  0  0  0  0  0  0  0
   -5.7995   16.3141  -32.7901 H   0  0  0  0  0  0  0  0  0  0  0  0
   -4.5794   14.9958  -32.7901 H   0  0  0  0  0  0  0  0  0  0  0  0
   -4.0770   15.7010  -34.7610 H   0  0  0  0  0  0  0  0  0  0  0  0
   -2.6492   17.2864  -32.9570 H   0  0  0  0  0  0  0  0  0  0  0  0
   -2.1317   16.5368  -34.5052 H   0  0  0  0  0  0  0  0  0  0  0  0
   -2.8911   18.1646  -34.5052 H   0  0  0  0  0  0  0  0  0  0  0  0
   -4.6580   18.3225  -35.2172 H   0  0  0  0  0  0  0  0  0  0  0  0
   -5.5498   16.7877  -35.7377 H   0  0  0  0  0  0  0  0  0  0  0  0
   -7.2952   17.8936  -34.8345 H   0  0  0  0  0  0  0  0  0  0  0  0
   -6.6254   17.0912  -33.3410 H   0  0  0  0  0  0  0  0  0  0  0  0
   -4.1443   19.4666  -33.6117 H   0  0  0  0  0  0  0  0  0  0  0  0
   -9.4234   22.4885  -30.9512 H   0  0  0  0  0  0  0  0  0  0  0  0
  -10.4875   20.4182  -31.8928 H   0  0  0  0  0  0  0  0  0  0  0  0
   -9.0962   18.7134  -33.1316 H   0  0  0  0  0  0  0  0  0  0  0  0
   -8.3172   24.1746  -30.2356 H   0  0  0  0  0  0  0  0  0  0  0  0
   -6.9483   26.0663  -29.3714 H   0  0  0  0  0  0  0  0  0  0  0  0
   -4.4900   26.1212  -29.7538 H   0  0  0  0  0  0  0  0  0  0  0  0
   -3.3698   24.2801  -31.0042 H   0  0  0  0  0  0  0  0  0  0  0  0
  1  2  1  0
  2  3  1  0
  2  4  1  0
  4  5  1  0
  5  6  1  0
  6  7  1  0
  7  8  2  0
  8  9  1  0
  9 10  2  0
 10 11  1  0
 11 12  2  0
 12 13  1  0
 13 14  2  0
 10 15  1  0
 15 16  2  0
 16 17  1  0
 17 18  2  0
 18 19  1  0
 19 20  2  0
 20 21  1  0
 21 22  2  0
 14  6  1  0
 20 15  1  0
 21  8  1  0
 14  9  1  0
  1 23  1  0
  1 24  1  0
  1 25  1  0
  2 26  1  0
  3 27  1  0
  3 28  1  0
  3 29  1  0
  4 30  1  0
  4 31  1  0
  5 32  1  0
  5 33  1  0
  7 34  1  0
 11 35  1  0
 12 36  1  0
 13 37  1  0
 16 38  1  0
 17 39  1  0
 18 40  1  0
 19 41  1  0
M  CHG  1   2   1
M  END
>  <UniqueID>  (14) 
13

>  <SMILES>  (14) 
C[NH+](C)CCn1cc2c3c(cccc31)-c1ccccc1C2=O

>  <Energy>  (14) 
94.55450631793549

>  <Genealogy>  (14) 
C[NH+](C)CCn1cc2c3c(cccc31)-c1ccccc1C2=O (protonated)
C[NH+](C)CCn1cc2c3c(cccc31)-c1ccccc1C2=O (3D coordinates assigned)
C[NH+](C)CCn1cc2c3c(cccc31)-c1ccccc1C2=O (nonaromatic ring conformer: 94.55450631793549 kcal/mol)

>  <smiles>  (14) 
CN(C)CCn1cc2c3c(cccc31)-c1ccccc1C2=O

>  <score_type>  (14) 
oracle

>  <origin>  (14) 
adg

>  <m_score__min__energy>  (14) 
-7.7999999999999998

>  <m_primary>  (14) 
energy

$$$$
14:0
     RDKit          3D

 30 30  0  0  0  0  0  0  0  0999 V2000
   -8.6270   18.5860  -31.9930 C   0  0  0  0  0  0  0  0  0  0  0  0
   -7.8620   19.4820  -32.8650 N   0  0  0  0  0  0  0  0  0  0  0  0
   -6.4750   19.6070  -32.3940 C   0  0  0  0  0  0  0  0  0  0  0  0
   -5.7280   20.7410  -33.1150 C   0  0  0  0  0  0  0  0  0  0  0  0
   -5.7760   22.0390  -32.3360 C   0  0  0  0  0  0  0  0  0  0  0  0
   -7.0040   22.5970  -31.9330 C   0  0  0  0  0  0  0  0  0  0  0  0
   -8.2010   21.9470  -32.2780 O   0  0  0  0  0  0  0  0  0  0  0  0
   -9.4430   22.1280  -31.6040 C   0  0  0  0  0  0  0  0  0  0  0  0
   -6.9970   23.7890  -31.1910 C   0  0  0  0  0  0  0  0  0  0  0  0
   -5.7740   24.3840  -30.8660 C   0  0  0  0  0  0  0  0  0  0  0  0
   -5.7390   25.6530  -30.0770 C   0  0  0  0  0  0  0  0  0  0  0  0
   -4.6340   23.8230  -31.2550 O   0  0  0  0  0  0  0  0  0  0  0  0
   -4.5880   22.6970  -31.9590 C   0  0  0  0  0  0  0  0  0  0  0  0
   -3.4650   22.2260  -32.2850 O   0  0  0  0  0  0  0  0  0  0  0  0
   -8.4177   18.8311  -30.9413 H   0  0  0  0  0  0  0  0  0  0  0  0
   -9.7017   18.7104  -32.1917 H   0  0  0  0  0  0  0  0  0  0  0  0
   -8.3356   17.5441  -32.1917 H   0  0  0  0  0  0  0  0  0  0  0  0
   -7.8760   19.0920  -33.8370 H   0  0  0  0  0  0  0  0  0  0  0  0
   -8.3270   20.4200  -32.8590 H   0  0  0  0  0  0  0  0  0  0  0  0
   -6.4830   19.8160  -31.3141 H   0  0  0  0  0  0  0  0  0  0  0  0
   -5.9539   18.6626  -32.6097 H   0  0  0  0  0  0  0  0  0  0  0  0
   -4.6768   20.4454  -33.2476 H   0  0  0  0  0  0  0  0  0  0  0  0
   -6.2202   20.9088  -34.0843 H   0  0  0  0  0  0  0  0  0  0  0  0
   -9.2771   22.1038  -30.5168 H   0  0  0  0  0  0  0  0  0  0  0  0
   -9.8759   23.0987  -31.8874 H   0  0  0  0  0  0  0  0  0  0  0  0
  -10.1349   21.3212  -31.8874 H   0  0  0  0  0  0  0  0  0  0  0  0
   -7.9427   24.2495  -30.8691 H   0  0  0  0  0  0  0  0  0  0  0  0
   -5.7455   25.4171  -29.0026 H   0  0  0  0  0  0  0  0  0  0  0  0
   -4.8251   26.2132  -30.3239 H   0  0  0  0  0  0  0  0  0  0  0  0
   -6.6207   26.2627  -30.3239 H   0  0  0  0  0  0  0  0  0  0  0  0
  1  2  1  0
  2  3  1  0
  3  4  1  0
  4  5  1  0
  5  6  2  0
  6  7  1  0
  7  8  1  0
  6  9  1  0
  9 10  2  0
 10 11  1  0
 10 12  1  0
 12 13  1  0
 13 14  2  0
 13  5  1  0
  1 15  1  0
  1 16  1  0
  1 17  1  0
  2 18  1  0
  2 19  1  0
  3 20  1  0
  3 21  1  0
  4 22  1  0
  4 23  1  0
  8 24  1  0
  8 25  1  0
  8 26  1  0
  9 27  1  0
 11 28  1  0
 11 29  1  0
 11 30  1  0
M  CHG  1   2   1
M  END
>  <UniqueID>  (15) 
14

>  <SMILES>  (15) 
C[NH2+]CCc1c(OC)cc(C)oc1=O

>  <Energy>  (15) 
24.537553562029185

>  <Genealogy>  (15) 
C[NH2+]CCc1c(OC)cc(C)oc1=O (protonated)
C[NH2+]CCc1c(OC)cc(C)oc1=O (3D coordinates assigned)
C[NH2+]CCc1c(OC)cc(C)oc1=O (optimized conformer: 24.537553562029185 kcal/mol)

>  <smiles>  (15) 
CNCCc1c(OC)cc(C)oc1=O

>  <score_type>  (15) 
oracle

>  <origin>  (15) 
adg

>  <m_score__min__energy>  (15) 
-4.4500000000000002

>  <m_primary>  (15) 
energy

$$$$
15:0
     RDKit          3D

 52 54  0  0  0  0  0  0  0  0999 V2000
   -1.8970   21.3880  -32.1720 C   0  0  0  0  0  0  0  0  0  0  0  0
   -3.4440   21.0990  -33.0830 S   0  0  0  0  0  0  0  0  0  0  0  0
   -2.9670   19.4480  -33.6150 C   0  0  0  0  0  0  0  0  0  0  0  0
   -1.6270   19.2070  -33.9460 C   0  0  0  0  0  0  0  0  0  0  0  0
   -1.2270   17.9490  -34.4010 C   0  0  0  0  0  0  0  0  0  0  0  0
   -2.1640   16.9230  -34.5310 C   0  0  0  0  0  0  0  0  0  0  0  0
   -3.5020   17.1500  -34.1990 C   0  0  0  0  0  0  0  0  0  0  0  0
   -3.9140   18.4070  -33.7300 C   0  0  0  0  0  0  0  0  0  0  0  0
   -5.2910   18.6150  -33.3850 N   0  0  0  0  0  0  0  0  0  0  0  0
   -6.1020   19.5480  -34.1690 C   0  0  0  0  0  0  0  0  0  0  0  0
   -7.2440   20.0760  -33.2990 C   0  0  0  0  0  0  0  0  0  0  0  0
   -8.1120   18.9810  -32.7820 N   0  0  0  0  0  0  0  0  0  0  0  0
   -8.8540   19.3910  -31.5620 C   0  0  0  0  0  0  0  0  0  0  0  0
   -9.3810   20.8500  -31.5910 C   0  0  0  0  0  0  0  0  0  0  0  0
   -8.5050   21.7790  -30.8530 N   0  0  0  0  0  0  0  0  0  0  0  0
   -8.1410   22.9740  -31.6280 C   0  0  0  0  0  0  0  0  0  0  0  0
   -6.8500   23.5740  -31.1340 C   0  0  0  0  0  0  0  0  0  0  0  0
   -5.6260   22.9270  -31.3760 C   0  0  0  0  0  0  0  0  0  0  0  0
   -4.4320   23.4830  -30.9070 C   0  0  0  0  0  0  0  0  0  0  0  0
   -4.4520   24.6790  -30.1820 C   0  0  0  0  0  0  0  0  0  0  0  0
   -3.2930   25.2110  -29.7210 F   0  0  0  0  0  0  0  0  0  0  0  0
   -5.6660   25.3250  -29.9340 C   0  0  0  0  0  0  0  0  0  0  0  0
   -6.8620   24.7770  -30.4080 C   0  0  0  0  0  0  0  0  0  0  0  0
   -7.4470   17.6520  -32.6510 C   0  0  0  0  0  0  0  0  0  0  0  0
   -5.9350   17.7430  -32.3960 C   0  0  0  0  0  0  0  0  0  0  0  0
   -2.0958   21.3509  -31.0908 H   0  0  0  0  0  0  0  0  0  0  0  0
   -1.1648   20.6111  -32.4371 H   0  0  0  0  0  0  0  0  0  0  0  0
   -1.4946   22.3769  -32.4371 H   0  0  0  0  0  0  0  0  0  0  0  0
   -0.8857   20.0137  -33.8468 H   0  0  0  0  0  0  0  0  0  0  0  0
   -0.1729   17.7666  -34.6571 H   0  0  0  0  0  0  0  0  0  0  0  0
   -1.8487   15.9342  -34.8954 H   0  0  0  0  0  0  0  0  0  0  0  0
   -4.2370   16.3386  -34.3058 H   0  0  0  0  0  0  0  0  0  0  0  0
   -5.4758   20.3882  -34.5037 H   0  0  0  0  0  0  0  0  0  0  0  0
   -6.5155   19.0304  -35.0471 H   0  0  0  0  0  0  0  0  0  0  0  0
   -6.8155   20.6212  -32.4451 H   0  0  0  0  0  0  0  0  0  0  0  0
   -7.8668   20.7338  -33.9230 H   0  0  0  0  0  0  0  0  0  0  0  0
   -8.8550   18.8490  -33.5120 H   0  0  0  0  0  0  0  0  0  0  0  0
   -9.7147   18.7169  -31.4402 H   0  0  0  0  0  0  0  0  0  0  0  0
   -8.1407   19.3319  -30.7267 H   0  0  0  0  0  0  0  0  0  0  0  0
   -9.4454   21.1816  -32.6379 H   0  0  0  0  0  0  0  0  0  0  0  0
  -10.3670   20.8602  -31.1036 H   0  0  0  0  0  0  0  0  0  0  0  0
   -8.9830   22.0820  -29.9720 H   0  0  0  0  0  0  0  0  0  0  0  0
   -8.0245   22.6938  -32.6853 H   0  0  0  0  0  0  0  0  0  0  0  0
   -8.9393   23.7215  -31.5095 H   0  0  0  0  0  0  0  0  0  0  0  0
   -5.6074   21.9804  -31.9360 H   0  0  0  0  0  0  0  0  0  0  0  0
   -3.4752   22.9790  -31.1085 H   0  0  0  0  0  0  0  0  0  0  0  0
   -5.6809   26.2662  -29.3649 H   0  0  0  0  0  0  0  0  0  0  0  0
   -7.8154   25.2894  -30.2119 H   0  0  0  0  0  0  0  0  0  0  0  0
   -7.9095   17.1131  -31.8109 H   0  0  0  0  0  0  0  0  0  0  0  0
   -7.5815   17.1284  -33.6090 H   0  0  0  0  0  0  0  0  0  0  0  0
   -5.7631   18.1512  -31.3891 H   0  0  0  0  0  0  0  0  0  0  0  0
   -5.5022   16.7352  -32.4798 H   0  0  0  0  0  0  0  0  0  0  0  0
  1  2  1  0
  2  3  1  0
  3  4  2  0
  4  5  1  0
  5  6  2  0
  6  7  1  0
  7  8  2  0
  8  9  1  0
  9 10  1  0
 10 11  1  0
 11 12  1  0
 12 13  1  0
 13 14  1  0
 14 15  1  0
 15 16  1  0
 16 17  1  0
 17 18  2  0
 18 19  1  0
 19 20  2  0
 20 21  1  0
 20 22  1  0
 22 23  2  0
 12 24  1  0
 24 25  1  0
  8  3  1  0
 25  9  1  0
 23 17  1  0
  1 26  1  0
  1 27  1  0
  1 28  1  0
  4 29  1  0
  5 30  1  0
  6 31  1  0
  7 32  1  0
 10 33  1  0
 10 34  1  0
 11 35  1  0
 11 36  1  0
 12 37  1  0
 13 38  1  0
 13 39  1  0
 14 40  1  0
 14 41  1  0
 15 42  1  0
 16 43  1  0
 16 44  1  0
 18 45  1  0
 19 46  1  0
 22 47  1  0
 23 48  1  0
 24 49  1  0
 24 50  1  0
 25 51  1  0
 25 52  1  0
M  CHG  1  12   1
M  END
>  <UniqueID>  (16) 
15

>  <SMILES>  (16) 
CSc1ccccc1N1CC[NH+](CCNCc2ccc(F)cc2)CC1

>  <Energy>  (16) 
62.48304481210264

>  <Genealogy>  (16) 
CSc1ccccc1N1CC[NH+](CCNCc2ccc(F)cc2)CC1 (protonated)
CSc1ccccc1N1CC[NH+](CCNCc2ccc(F)cc2)CC1 (3D coordinates assigned)
CSc1ccccc1N1CC[NH+](CCNCc2ccc(F)cc2)CC1 (nonaromatic ring conformer: 62.48304481210264 kcal/mol)

>  <smiles>  (16) 
CSc1ccccc1N1CCN(CCNCc2ccc(F)cc2)CC1

>  <score_type>  (16) 
oracle

>  <origin>  (16) 
adg

>  <m_score__min__energy>  (16) 
-7.4699999999999998

>  <m_primary>  (16) 
energy

$$$$
16:0
     RDKit          3D

 44 46  0  0  0  0  0  0  0  0999 V2000
   -2.2383   20.6083  -27.8621 H   0  0  0  0  0  0  0  0  0  0  0  0
   -2.1930   21.6790  -28.1100 C   0  0  0  0  0  0  0  0  0  0  0  0
   -0.9970   22.2780  -28.3320 N   0  0  0  0  0  0  0  0  0  0  0  0
   -0.9120   23.6050  -28.6200 C   0  0  0  0  0  0  0  0  0  0  0  0
    0.2440   24.1650  -28.8390 N   0  0  0  0  0  0  0  0  0  0  0  0
    1.2900   24.3510  -27.8340 C   0  0  0  0  0  0  0  0  0  0  0  0
    1.8152   25.2971  -28.0315 H   0  0  0  0  0  0  0  0  0  0  0  0
    1.9894   23.5041  -27.8933 H   0  0  0  0  0  0  0  0  0  0  0  0
    0.6940   24.3940  -26.4310 C   0  0  0  0  0  0  0  0  0  0  0  0
    1.5024   24.3357  -25.6873 H   0  0  0  0  0  0  0  0  0  0  0  0
    0.1395   25.3345  -26.2968 H   0  0  0  0  0  0  0  0  0  0  0  0
    0.0102   23.5429  -26.2968 H   0  0  0  0  0  0  0  0  0  0  0  0
   -2.0880   24.3690  -28.6850 C   0  0  0  0  0  0  0  0  0  0  0  0
   -2.0130   25.6100  -28.9070 O   0  0  0  0  0  0  0  0  0  0  0  0
   -3.3100   23.7590  -28.5170 N   0  0  0  0  0  0  0  0  0  0  0  0
   -4.5740   24.5040  -28.6700 C   0  0  0  0  0  0  0  0  0  0  0  0
   -5.4104   23.8496  -28.3833 H   0  0  0  0  0  0  0  0  0  0  0  0
   -4.5286   25.3924  -28.0230 H   0  0  0  0  0  0  0  0  0  0  0  0
   -4.7810   24.9680  -30.0930 C   0  0  0  0  0  0  0  0  0  0  0  0
   -5.5500   25.9420  -30.3120 O   0  0  0  0  0  0  0  0  0  0  0  0
   -4.1610   24.3140  -31.2080 N   0  0  0  0  0  0  0  0  0  0  0  0
   -4.5710   23.0510  -31.7400 C   0  0  0  0  0  0  0  0  0  0  0  0
   -5.9340   22.7610  -31.8520 C   0  0  0  0  0  0  0  0  0  0  0  0
   -6.6801   23.5281  -31.5973 H   0  0  0  0  0  0  0  0  0  0  0  0
   -6.3520   21.5010  -32.2860 C   0  0  0  0  0  0  0  0  0  0  0  0
   -7.4265   21.2757  -32.3538 H   0  0  0  0  0  0  0  0  0  0  0  0
   -5.4090   20.5180  -32.6370 C   0  0  0  0  0  0  0  0  0  0  0  0
   -5.8480   19.1610  -33.0430 C   0  0  0  0  0  0  0  0  0  0  0  0
   -5.3290   18.5540  -34.2010 C   0  0  0  0  0  0  0  0  0  0  0  0
   -4.5735   19.0810  -34.8023 H   0  0  0  0  0  0  0  0  0  0  0  0
   -5.7670   17.2850  -34.5930 C   0  0  0  0  0  0  0  0  0  0  0  0
   -5.3545   16.8176  -35.4993 H   0  0  0  0  0  0  0  0  0  0  0  0
   -6.7270   16.6100  -33.8360 C   0  0  0  0  0  0  0  0  0  0  0  0
   -7.0697   15.6117  -34.1458 H   0  0  0  0  0  0  0  0  0  0  0  0
   -7.2520   17.2030  -32.6850 C   0  0  0  0  0  0  0  0  0  0  0  0
   -8.0102   16.6722  -32.0905 H   0  0  0  0  0  0  0  0  0  0  0  0
   -6.8150   18.4700  -32.2880 C   0  0  0  0  0  0  0  0  0  0  0  0
   -7.2296   18.9306  -31.3792 H   0  0  0  0  0  0  0  0  0  0  0  0
   -4.0400   20.8360  -32.5740 C   0  0  0  0  0  0  0  0  0  0  0  0
   -3.2912   20.0888  -32.8754 H   0  0  0  0  0  0  0  0  0  0  0  0
   -3.6250   22.0950  -32.1310 C   0  0  0  0  0  0  0  0  0  0  0  0
   -2.5525   22.3357  -32.0893 H   0  0  0  0  0  0  0  0  0  0  0  0
   -3.3650   22.4290  -28.1980 C   0  0  0  0  0  0  0  0  0  0  0  0
   -4.3374   21.9502  -28.0104 H   0  0  0  0  0  0  0  0  0  0  0  0
  1  2  1  0
  2  3  1  0
  3  4  1  0
  4  5  2  0
  5  6  1  0
  6  7  1  0
  6  8  1  0
  6  9  1  0
  9 10  1  0
  9 11  1  0
  9 12  1  0
  4 13  1  0
 13 14  2  0
 13 15  1  0
 15 16  1  0
 16 17  1  0
 16 18  1  0
 16 19  1  0
 19 20  2  0
 19 21  1  0
 21 22  1  0
 22 23  2  0
 23 24  1  0
 23 25  1  0
 25 26  1  0
 25 27  2  0
 27 28  1  0
 28 29  2  0
 29 30  1  0
 29 31  1  0
 31 32  1  0
 31 33  2  0
 33 34  1  0
 33 35  1  0
 35 36  1  0
 35 37  2  0
 37 38  1  0
 27 39  1  0
 39 40  1  0
 39 41  2  0
 41 42  1  0
 15 43  1  0
 43 44  1  0
 43  2  2  0
 41 22  1  0
 37 28  1  0
M  CHG  2   3  -1  21  -1
M  END
>  <UniqueID>  (17) 
16

>  <SMILES>  (17) 
CC/N=c1\[n-]ccn(CC(=O)[N-]c2ccc(-c3ccccc3)cc2)c1=O

>  <Energy>  (17) 
54.394904253693305

>  <Genealogy>  (17) 
CCN=c1[n-]ccn(CC(=O)[N-]c2ccc(-c3ccccc3)cc2)c1=O (protonated)
CC/N=c1\[n-]ccn(CC(=O)[N-]c2ccc(-c3ccccc3)cc2)c1=O (cis-trans isomerization)
CC/N=c1\[n-]ccn(CC(=O)[N-]c2ccc(-c3ccccc3)cc2)c1=O (3D coordinates assigned)
CC/N=c1\[n-]ccn(CC(=O)[N-]c2ccc(-c3ccccc3)cc2)c1=O (optimized conformer: 54.394904253693305 kcal/mol)

>  <smiles>  (17) 
CCN=c1[nH]ccn(CC(=O)Nc2ccc(-c3ccccc3)cc2)c1=O

>  <score_type>  (17) 
oracle

>  <origin>  (17) 
adg

>  <m_score__min__energy>  (17) 
-10.369999999999999

>  <m_primary>  (17) 
energy

$$$$
17:0
     RDKit          3D

 35 38  0  0  0  0  0  0  0  0999 V2000
   -5.3330   25.6740  -30.4460 C   0  0  0  0  0  0  0  0  0  0  0  0
   -5.8510   24.3350  -30.8780 C   0  0  0  0  0  0  0  0  0  0  0  0
   -4.9460   23.3190  -31.2780 C   0  0  0  0  0  0  0  0  0  0  0  0
   -5.4180   22.0710  -31.7260 C   0  0  0  0  0  0  0  0  0  0  0  0
   -6.8000   21.8710  -31.7560 C   0  0  0  0  0  0  0  0  0  0  0  0
   -7.6730   22.8610  -31.4050 C   0  0  0  0  0  0  0  0  0  0  0  0
   -7.2420   24.1090  -30.9620 C   0  0  0  0  0  0  0  0  0  0  0  0
   -8.9340   22.4410  -31.5960 N   0  0  0  0  0  0  0  0  0  0  0  0
   -8.8020   21.1790  -32.0710 C   0  0  0  0  0  0  0  0  0  0  0  0
   -7.5030   20.7970  -32.1740 N   0  0  0  0  0  0  0  0  0  0  0  0
   -7.0200   19.5230  -32.6320 C   0  0  0  0  0  0  0  0  0  0  0  0
   -7.7030   18.3470  -32.2870 C   0  0  0  0  0  0  0  0  0  0  0  0
   -7.2370   17.1020  -32.7150 C   0  0  0  0  0  0  0  0  0  0  0  0
   -6.0710   17.0130  -33.4890 C   0  0  0  0  0  0  0  0  0  0  0  0
   -5.5940   15.7670  -33.9250 C   0  0  0  0  0  0  0  0  0  0  0  0
   -4.4260   15.6930  -34.6890 C   0  0  0  0  0  0  0  0  0  0  0  0
   -3.7270   16.8570  -35.0230 C   0  0  0  0  0  0  0  0  0  0  0  0
   -4.1930   18.1040  -34.5950 C   0  0  0  0  0  0  0  0  0  0  0  0
   -5.3650   18.1930  -33.8290 C   0  0  0  0  0  0  0  0  0  0  0  0
   -5.8420   19.4390  -33.3930 C   0  0  0  0  0  0  0  0  0  0  0  0
   -5.3141   25.7228  -29.3472 H   0  0  0  0  0  0  0  0  0  0  0  0
   -4.3148   25.8168  -30.8369 H   0  0  0  0  0  0  0  0  0  0  0  0
   -5.9901   26.4649  -30.8369 H   0  0  0  0  0  0  0  0  0  0  0  0
   -3.8632   23.5084  -31.2377 H   0  0  0  0  0  0  0  0  0  0  0  0
   -4.7220   21.2799  -32.0418 H   0  0  0  0  0  0  0  0  0  0  0  0
   -7.9622   24.8934  -30.6864 H   0  0  0  0  0  0  0  0  0  0  0  0
   -9.8200   22.9690  -31.4290 H   0  0  0  0  0  0  0  0  0  0  0  0
   -9.6520   20.5358  -32.3428 H   0  0  0  0  0  0  0  0  0  0  0  0
   -8.6142   18.4062  -31.6736 H   0  0  0  0  0  0  0  0  0  0  0  0
   -7.7863   16.1883  -32.4441 H   0  0  0  0  0  0  0  0  0  0  0  0
   -6.1399   14.8480  -33.6652 H   0  0  0  0  0  0  0  0  0  0  0  0
   -4.0551   14.7148  -35.0290 H   0  0  0  0  0  0  0  0  0  0  0  0
   -2.8081   16.7916  -35.6241 H   0  0  0  0  0  0  0  0  0  0  0  0
   -3.6395   19.0171  -34.8595 H   0  0  0  0  0  0  0  0  0  0  0  0
   -5.2900   20.3555  -33.6488 H   0  0  0  0  0  0  0  0  0  0  0  0
  1  2  1  0
  2  3  2  0
  3  4  1  0
  4  5  2  0
  5  6  1  0
  6  7  2  0
  6  8  1  0
  8  9  2  0
  9 10  1  0
 10 11  1  0
 11 12  2  0
 12 13  1  0
 13 14  2  0
 14 15  1  0
 15 16  2  0
 16 17  1  0
 17 18  2  0
 18 19  1  0
 19 20  2  0
  7  2  1  0
 20 11  1  0
 10  5  1  0
 19 14  1  0
  1 21  1  0
  1 22  1  0
  1 23  1  0
  3 24  1  0
  4 25  1  0
  7 26  1  0
  8 27  1  0
  9 28  1  0
 12 29  1  0
 13 30  1  0
 15 31  1  0
 16 32  1  0
 17 33  1  0
 18 34  1  0
 20 35  1  0
M  CHG  1   8   1
M  END
>  <UniqueID>  (18) 
17

>  <SMILES>  (18) 
Cc1ccc2c(c1)[nH+]cn2-c1ccc2ccccc2c1

>  <Energy>  (18) 
85.79140675867288

>  <Genealogy>  (18) 
Cc1ccc2c(c1)[nH+]cn2-c1ccc2ccccc2c1 (protonated)
Cc1ccc2c(c1)[nH+]cn2-c1ccc2ccccc2c1 (3D coordinates assigned)
Cc1ccc2c(c1)[nH+]cn2-c1ccc2ccccc2c1 (optimized conformer: 85.79140675867288 kcal/mol)

>  <smiles>  (18) 
Cc1ccc2c(c1)ncn2-c1ccc2ccccc2c1

>  <score_type>  (18) 
oracle

>  <origin>  (18) 
adg

>  <m_score__min__energy>  (18) 
-7.2699999999999996

>  <m_primary>  (18) 
energy

$$$$
18:0
     RDKit          3D

 41 42  0  0  0  0  0  0  0  0999 V2000
   -5.8740   24.1650  -29.8190 C   0  0  0  0  0  0  0  0  0  0  0  0
   -5.0150   25.2940  -30.2780 C   0  0  0  0  0  0  0  0  0  0  0  0
   -5.5360   26.4190  -30.5020 O   0  0  0  0  0  0  0  0  0  0  0  0
   -3.5960   25.1140  -30.3500 N   0  0  0  0  0  0  0  0  0  0  0  0
   -2.8720   23.8970  -30.1010 C   0  0  0  0  0  0  0  0  0  0  0  0
   -2.9530   22.8030  -30.9810 C   0  0  0  0  0  0  0  0  0  0  0  0
   -2.2790   21.6050  -30.6980 C   0  0  0  0  0  0  0  0  0  0  0  0
   -2.3640   20.4690  -31.5710 N   0  0  0  0  0  0  0  0  0  0  0  0
   -2.8220   20.4650  -32.9320 C   0  0  0  0  0  0  0  0  0  0  0  0
   -1.9790   20.6310  -33.8540 O   0  0  0  0  0  0  0  0  0  0  0  0
   -4.2610   20.2450  -33.3020 C   0  0  0  0  0  0  0  0  0  0  0  0
   -4.4410   18.9270  -33.8120 O   0  0  0  0  0  0  0  0  0  0  0  0
   -5.6940   18.3220  -33.9250 C   0  0  0  0  0  0  0  0  0  0  0  0
   -6.1170   17.9350  -35.0490 O   0  0  0  0  0  0  0  0  0  0  0  0
   -6.5440   18.2340  -32.7230 C   0  0  0  0  0  0  0  0  0  0  0  0
   -7.7510   18.8000  -32.5730 C   0  0  0  0  0  0  0  0  0  0  0  0
   -8.0070   20.2220  -32.2750 C   0  0  0  0  0  0  0  0  0  0  0  0
   -9.1970   20.7830  -31.8440 C   0  0  0  0  0  0  0  0  0  0  0  0
   -8.9270   22.1200  -31.6480 C   0  0  0  0  0  0  0  0  0  0  0  0
   -7.5930   22.2920  -31.9570 C   0  0  0  0  0  0  0  0  0  0  0  0
   -7.0720   21.1420  -32.3200 O   0  0  0  0  0  0  0  0  0  0  0  0
   -1.4760   21.5220  -29.5590 C   0  0  0  0  0  0  0  0  0  0  0  0
   -1.4000   22.5930  -28.6680 C   0  0  0  0  0  0  0  0  0  0  0  0
   -2.1130   23.7770  -28.9180 C   0  0  0  0  0  0  0  0  0  0  0  0
   -2.0290   24.9210  -27.9460 C   0  0  0  0  0  0  0  0  0  0  0  0
   -5.8919   24.1414  -28.7194 H   0  0  0  0  0  0  0  0  0  0  0  0
   -6.8967   24.3042  -30.1995 H   0  0  0  0  0  0  0  0  0  0  0  0
   -5.4671   23.2165  -30.1995 H   0  0  0  0  0  0  0  0  0  0  0  0
   -3.5508   22.8872  -31.9006 H   0  0  0  0  0  0  0  0  0  0  0  0
   -4.8903   20.3786  -32.4097 H   0  0  0  0  0  0  0  0  0  0  0  0
   -4.5482   20.9721  -34.0759 H   0  0  0  0  0  0  0  0  0  0  0  0
   -6.1538   17.6529  -31.8744 H   0  0  0  0  0  0  0  0  0  0  0  0
   -8.6282   18.1453  -32.6819 H   0  0  0  0  0  0  0  0  0  0  0  0
  -10.1573   20.2690  -31.6902 H   0  0  0  0  0  0  0  0  0  0  0  0
   -9.6327   22.8943  -31.3127 H   0  0  0  0  0  0  0  0  0  0  0  0
   -7.0489   23.2467  -31.9070 H   0  0  0  0  0  0  0  0  0  0  0  0
   -0.8993   20.6061  -29.3627 H   0  0  0  0  0  0  0  0  0  0  0  0
   -0.7781   22.5096  -27.7645 H   0  0  0  0  0  0  0  0  0  0  0  0
   -2.0576   24.5313  -26.9177 H   0  0  0  0  0  0  0  0  0  0  0  0
   -1.0882   25.4686  -28.1046 H   0  0  0  0  0  0  0  0  0  0  0  0
   -2.8797   25.6001  -28.1046 H   0  0  0  0  0  0  0  0  0  0  0  0
  1  2  1  0
  2  3  2  0
  2  4  1  0
  4  5  1  0
  5  6  2  0
  6  7  1  0
  7  8  1  0
  8  9  1  0
  9 10  2  0
  9 11  1  0
 11 12  1  0
 12 13  1  0
 13 14  2  0
 13 15  1  0
 15 16  2  3
 16 17  1  0
 17 18  2  0
 18 19  1  0
 19 20  2  0
 20 21  1  0
  7 22  2  0
 22 23  1  0
 23 24  2  0
 24 25  1  0
 24  5  1  0
 21 17  1  0
  1 26  1  0
  1 27  1  0
  1 28  1  0
  6 29  1  0
 11 30  1  0
 11 31  1  0
 15 32  1  0
 16 33  1  0
 18 34  1  0
 19 35  1  0
 20 36  1  0
 22 37  1  0
 23 38  1  0
 25 39  1  0
 25 40  1  0
 25 41  1  0
M  CHG  2   4  -1   8  -1
M  END
>  <UniqueID>  (19) 
18

>  <SMILES>  (19) 
CC(=O)[N-]c1cc([N-]C(=O)COC(=O)C=Cc2ccco2)ccc1C

>  <Energy>  (19) 
76.39106913235624

>  <Genealogy>  (19) 
CC(=O)[N-]c1cc([N-]C(=O)COC(=O)C=Cc2ccco2)ccc1C (protonated)
CC(=O)[N-]c1cc([N-]C(=O)COC(=O)C=Cc2ccco2)ccc1C (3D coordinates assigned)
CC(=O)[N-]c1cc([N-]C(=O)COC(=O)C=Cc2ccco2)ccc1C (optimized conformer: 76.39106913235624 kcal/mol)

>  <smiles>  (19) 
CC(=O)Nc1cc(NC(=O)COC(=O)C=Cc2ccco2)ccc1C

>  <score_type>  (19) 
oracle

>  <origin>  (19) 
adg

>  <m_score__min__energy>  (19) 
-9.1199999999999992

>  <m_primary>  (19) 
energy

$$$$
19:0
     RDKit          3D

 38 40  0  0  0  0  0  0  0  0999 V2000
   -2.5790   16.2150  -35.3510 C   0  0  0  0  0  0  0  0  0  0  0  0
   -3.5740   17.2330  -35.3230 O   0  0  0  0  0  0  0  0  0  0  0  0
   -4.7970   17.1320  -34.6420 C   0  0  0  0  0  0  0  0  0  0  0  0
   -5.4970   15.9160  -34.5480 C   0  0  0  0  0  0  0  0  0  0  0  0
   -6.7040   15.8740  -33.8550 C   0  0  0  0  0  0  0  0  0  0  0  0
   -7.2090   17.0290  -33.2620 C   0  0  0  0  0  0  0  0  0  0  0  0
   -6.4960   18.2350  -33.3710 C   0  0  0  0  0  0  0  0  0  0  0  0
   -7.0290   19.4730  -32.7460 C   0  0  0  0  0  0  0  0  0  0  0  0
   -8.2510   19.6200  -32.0850 C   0  0  0  0  0  0  0  0  0  0  0  0
   -8.4950   20.8660  -31.5970 N   0  0  0  0  0  0  0  0  0  0  0  0
   -7.4840   21.7240  -31.8520 C   0  0  0  0  0  0  0  0  0  0  0  0
   -7.4900   23.1690  -31.4290 C   0  0  0  0  0  0  0  0  0  0  0  0
   -6.3400   23.5390  -30.5740 N   0  0  0  0  0  0  0  0  0  0  0  0
   -5.0330   23.2230  -31.1880 C   0  0  0  0  0  0  0  0  0  0  0  0
   -3.9040   23.9580  -30.4490 C   0  0  0  0  0  0  0  0  0  0  0  0
   -4.0290   25.3760  -30.4600 O   0  0  0  0  0  0  0  0  0  0  0  0
   -5.3620   25.8370  -30.6330 C   0  0  0  0  0  0  0  0  0  0  0  0
   -6.4180   24.9060  -30.0110 C   0  0  0  0  0  0  0  0  0  0  0  0
   -6.2480   20.9680  -32.7050 S   0  0  0  0  0  0  0  0  0  0  0  0
   -5.3110   18.2500  -34.0540 N   0  0  0  0  0  0  0  0  0  0  0  0
   -2.3085   15.9383  -34.3213 H   0  0  0  0  0  0  0  0  0  0  0  0
   -2.9722   15.3323  -35.8767 H   0  0  0  0  0  0  0  0  0  0  0  0
   -1.6876   16.5879  -35.8767 H   0  0  0  0  0  0  0  0  0  0  0  0
   -5.0947   15.0063  -35.0177 H   0  0  0  0  0  0  0  0  0  0  0  0
   -7.2594   14.9278  -33.7757 H   0  0  0  0  0  0  0  0  0  0  0  0
   -8.1608   16.9971  -32.7114 H   0  0  0  0  0  0  0  0  0  0  0  0
   -8.9630   18.7897  -31.9679 H   0  0  0  0  0  0  0  0  0  0  0  0
   -7.4682   23.7963  -32.3324 H   0  0  0  0  0  0  0  0  0  0  0  0
   -8.4006   23.3276  -30.8326 H   0  0  0  0  0  0  0  0  0  0  0  0
   -4.8581   22.1385  -31.1308 H   0  0  0  0  0  0  0  0  0  0  0  0
   -5.0436   23.5485  -32.2387 H   0  0  0  0  0  0  0  0  0  0  0  0
   -3.8988   23.6198  -29.4023 H   0  0  0  0  0  0  0  0  0  0  0  0
   -2.9698   23.7178  -30.9777 H   0  0  0  0  0  0  0  0  0  0  0  0
   -5.4516   26.8279  -30.1639 H   0  0  0  0  0  0  0  0  0  0  0  0
   -5.5558   25.8694  -31.7153 H   0  0  0  0  0  0  0  0  0  0  0  0
   -6.2527   24.8545  -28.9247 H   0  0  0  0  0  0  0  0  0  0  0  0
   -7.4135   25.3151  -30.2384 H   0  0  0  0  0  0  0  0  0  0  0  0
   -4.7570   19.1300  -34.1280 H   0  0  0  0  0  0  0  0  0  0  0  0
  1  2  1  0
  2  3  1  0
  3  4  2  0
  4  5  1  0
  5  6  2  0
  6  7  1  0
  7  8  1  0
  8  9  2  0
  9 10  1  0
 10 11  2  0
 11 12  1  0
 12 13  1  0
 13 14  1  0
 14 15  1  0
 15 16  1  0
 16 17  1  0
 17 18  1  0
 11 19  1  0
  7 20  2  0
 20  3  1  0
 19  8  1  0
 18 13  1  0
  1 21  1  0
  1 22  1  0
  1 23  1  0
  4 24  1  0
  5 25  1  0
  6 26  1  0
  9 27  1  0
 12 28  1  0
 12 29  1  0
 14 30  1  0
 14 31  1  0
 15 32  1  0
 15 33  1  0
 17 34  1  0
 17 35  1  0
 18 36  1  0
 18 37  1  0
 20 38  1  0
M  CHG  1  20   1
M  END
>  <UniqueID>  (20) 
19

>  <SMILES>  (20) 
COc1cccc(-c2cnc(CN3CCOCC3)s2)[nH+]1

>  <Energy>  (20) 
85.86568723422195

>  <Genealogy>  (20) 
COc1cccc(-c2cnc(CN3CCOCC3)s2)[nH+]1 (protonated)
COc1cccc(-c2cnc(CN3CCOCC3)s2)[nH+]1 (3D coordinates assigned)
COc1cccc(-c2cnc(CN3CCOCC3)s2)[nH+]1 (nonaromatic ring conformer: 85.86568723422195 kcal/mol)

>  <smiles>  (20) 
COc1cccc(-c2cnc(CN3CCOCC3)s2)n1

>  <score_type>  (20) 
oracle

>  <origin>  (20) 
adg

>  <m_score__min__energy>  (20) 
-6.7599999999999998

>  <m_primary>  (20) 
energy

$$$$
20:0
     RDKit          3D

 51 55  0  0  0  0  0  0  0  0999 V2000
   -8.7483   17.9481  -30.7553 H   0  0  0  0  0  0  0  0  0  0  0  0
   -8.3160   18.5610  -31.5600 C   0  0  0  0  0  0  0  0  0  0  0  0
   -8.9180   19.7260  -31.8410 C   0  0  0  0  0  0  0  0  0  0  0  0
   -9.9622   19.6982  -32.1858 H   0  0  0  0  0  0  0  0  0  0  0  0
   -8.2820   21.0070  -31.7190 N   0  0  0  0  0  0  0  0  0  0  0  0
   -8.5550   21.9220  -30.8000 N   0  0  0  0  0  0  0  0  0  0  0  0
   -7.7180   22.9440  -30.9030 N   0  0  0  0  0  0  0  0  0  0  0  0
   -6.8800   22.6560  -31.9190 C   0  0  0  0  0  0  0  0  0  0  0  0
   -5.7300   23.5120  -32.3470 C   0  0  0  0  0  0  0  0  0  0  0  0
   -5.9548   24.5636  -32.1154 H   0  0  0  0  0  0  0  0  0  0  0  0
   -5.5760   23.3882  -33.4291 H   0  0  0  0  0  0  0  0  0  0  0  0
   -4.5010   23.1110  -31.6400 N   0  0  0  0  0  0  0  0  0  0  0  0
   -3.9870   23.9560  -30.5870 C   0  0  0  0  0  0  0  0  0  0  0  0
   -4.5050   25.0870  -30.3690 O   0  0  0  0  0  0  0  0  0  0  0  0
   -2.8850   23.4430  -29.6820 C   0  0  0  0  0  0  0  0  0  0  0  0
   -2.0310   22.5450  -30.3980 O   0  0  0  0  0  0  0  0  0  0  0  0
   -2.4880   21.7040  -31.4140 C   0  0  0  0  0  0  0  0  0  0  0  0
   -1.6890   20.6290  -31.8170 C   0  0  0  0  0  0  0  0  0  0  0  0
   -0.7142   20.4601  -31.3360 H   0  0  0  0  0  0  0  0  0  0  0  0
   -2.1240   19.7700  -32.8270 C   0  0  0  0  0  0  0  0  0  0  0  0
   -1.4950   18.9226  -33.1371 H   0  0  0  0  0  0  0  0  0  0  0  0
   -3.3560   19.9860  -33.4430 C   0  0  0  0  0  0  0  0  0  0  0  0
   -3.7001   19.3044  -34.2349 H   0  0  0  0  0  0  0  0  0  0  0  0
   -4.1560   21.0670  -33.0570 C   0  0  0  0  0  0  0  0  0  0  0  0
   -5.1246   21.2332  -33.5512 H   0  0  0  0  0  0  0  0  0  0  0  0
   -3.7290   21.9470  -32.0370 C   0  0  0  0  0  0  0  0  0  0  0  0
   -3.4650   22.7220  -28.4670 C   0  0  0  0  0  0  0  0  0  0  0  0
   -4.3962   23.2081  -28.1407 H   0  0  0  0  0  0  0  0  0  0  0  0
   -3.7113   21.6745  -28.6951 H   0  0  0  0  0  0  0  0  0  0  0  0
   -2.4000   22.8270  -27.3790 C   0  0  0  0  0  0  0  0  0  0  0  0
   -2.8685   23.0626  -26.4120 H   0  0  0  0  0  0  0  0  0  0  0  0
   -1.8566   21.8773  -27.2657 H   0  0  0  0  0  0  0  0  0  0  0  0
   -1.4540   23.9540  -27.7940 C   0  0  0  0  0  0  0  0  0  0  0  0
   -1.4092   24.7211  -27.0069 H   0  0  0  0  0  0  0  0  0  0  0  0
   -0.4324   23.5771  -27.9502 H   0  0  0  0  0  0  0  0  0  0  0  0
   -2.0220   24.5490  -29.0760 C   0  0  0  0  0  0  0  0  0  0  0  0
   -2.6327   25.4361  -28.8522 H   0  0  0  0  0  0  0  0  0  0  0  0
   -1.2289   24.8759  -29.7645 H   0  0  0  0  0  0  0  0  0  0  0  0
   -7.2190   21.4200  -32.4270 C   0  0  0  0  0  0  0  0  0  0  0  0
   -6.7198   20.8816  -33.2461 H   0  0  0  0  0  0  0  0  0  0  0  0
   -7.1170   18.0360  -32.2470 C   0  0  0  0  0  0  0  0  0  0  0  0
   -6.8590   18.4270  -33.5710 C   0  0  0  0  0  0  0  0  0  0  0  0
   -7.5269   19.1440  -34.0708 H   0  0  0  0  0  0  0  0  0  0  0  0
   -5.7560   17.9080  -34.2560 C   0  0  0  0  0  0  0  0  0  0  0  0
   -5.5485   18.2314  -35.2867 H   0  0  0  0  0  0  0  0  0  0  0  0
   -4.9170   16.9800  -33.6350 C   0  0  0  0  0  0  0  0  0  0  0  0
   -4.0464   16.5782  -34.1742 H   0  0  0  0  0  0  0  0  0  0  0  0
   -5.1840   16.5620  -32.3280 C   0  0  0  0  0  0  0  0  0  0  0  0
   -4.5264   15.8264  -31.8417 H   0  0  0  0  0  0  0  0  0  0  0  0
   -6.2850   17.0770  -31.6380 C   0  0  0  0  0  0  0  0  0  0  0  0
   -6.5022   16.7322  -30.6163 H   0  0  0  0  0  0  0  0  0  0  0  0
  1  2  1  0
  2  3  2  0
  3  4  1  0
  3  5  1  0
  5  6  1  0
  6  7  2  0
  7  8  1  0
  8  9  1  0
  9 10  1  0
  9 11  1  0
  9 12  1  0
 12 13  1  0
 13 14  2  0
 13 15  1  0
 15 16  1  0
 16 17  1  0
 17 18  2  0
 18 19  1  0
 18 20  1  0
 20 21  1  0
 20 22  2  0
 22 23  1  0
 22 24  1  0
 24 25  1  0
 24 26  2  0
 15 27  1  0
 27 28  1  0
 27 29  1  0
 27 30  1  0
 30 31  1  0
 30 32  1  0
 30 33  1  0
 33 34  1  0
 33 35  1  0
 33 36  1  0
 36 37  1  0
 36 38  1  0
  8 39  2  0
 39 40  1  0
  2 41  1  0
 41 42  2  0
 42 43  1  0
 42 44  1  0
 44 45  1  0
 44 46  2  0
 46 47  1  0
 46 48  1  0
 48 49  1  0
 48 50  2  0
 50 51  1  0
 39  5  1  0
 50 41  1  0
 26 12  1  0
 36 15  1  0
 26 17  1  0
M  END
>  <UniqueID>  (21) 
20

>  <SMILES>  (21) 
O=C1N(Cc2cn(/C=C\c3ccccc3)nn2)c2ccccc2OC12CCCC2

>  <Energy>  (21) 
104.28173971791733

>  <Genealogy>  (21) 
O=C1N(Cc2cn(/C=C\c3ccccc3)nn2)c2ccccc2OC12CCCC2 (cis-trans isomerization)
O=C1N(Cc2cn(/C=C\c3ccccc3)nn2)c2ccccc2OC12CCCC2 (3D coordinates assigned)
O=C1N(Cc2cn(/C=C\c3ccccc3)nn2)c2ccccc2OC12CCCC2 (nonaromatic ring conformer: 104.28173971791733 kcal/mol)

>  <smiles>  (21) 
O=C1N(Cc2cn(C=Cc3ccccc3)nn2)c2ccccc2OC12CCCC2

>  <score_type>  (21) 
oracle

>  <origin>  (21) 
adg

>  <m_score__min__energy>  (21) 
-11.119999999999999

>  <m_primary>  (21) 
energy

$$$$
21:0
     RDKit          3D

 41 43  0  0  0  0  0  0  0  0999 V2000
   -9.1150   19.1620  -31.9540 C   0  0  0  0  0  0  0  0  0  0  0  0
   -7.7740   18.7680  -32.4860 C   0  0  0  0  0  0  0  0  0  0  0  0
   -7.4780   17.4240  -32.7370 C   0  0  0  0  0  0  0  0  0  0  0  0
   -6.2220   17.0830  -33.2400 C   0  0  0  0  0  0  0  0  0  0  0  0
   -5.2770   18.0790  -33.4860 C   0  0  0  0  0  0  0  0  0  0  0  0
   -5.6000   19.4190  -33.2150 C   0  0  0  0  0  0  0  0  0  0  0  0
   -4.6020   20.5260  -33.4740 C   0  0  0  0  0  0  0  0  0  0  0  0
   -4.4530   21.4850  -32.3510 N   0  0  0  0  0  0  0  0  0  0  0  0
   -5.6610   22.3340  -32.1690 C   0  0  0  0  0  0  0  0  0  0  0  0
   -5.7060   23.0290  -30.7920 C   0  0  0  0  0  0  0  0  0  0  0  0
   -4.3630   23.1170  -30.2110 N   0  0  0  0  0  0  0  0  0  0  0  0
   -3.7340   24.4000  -30.0290 C   0  0  0  0  0  0  0  0  0  0  0  0
   -3.9780   25.3330  -30.8400 O   0  0  0  0  0  0  0  0  0  0  0  0
   -2.7940   24.6590  -28.9240 C   0  0  0  0  0  0  0  0  0  0  0  0
   -2.7600   24.0230  -27.6970 C   0  0  0  0  0  0  0  0  0  0  0  0
   -1.7320   24.6170  -26.9970 C   0  0  0  0  0  0  0  0  0  0  0  0
   -1.2060   25.5790  -27.8330 C   0  0  0  0  0  0  0  0  0  0  0  0
   -1.8620   25.5830  -28.9700 O   0  0  0  0  0  0  0  0  0  0  0  0
   -3.5880   21.8760  -30.0620 C   0  0  0  0  0  0  0  0  0  0  0  0
   -4.0450   20.8260  -31.0900 C   0  0  0  0  0  0  0  0  0  0  0  0
   -6.8360   19.7240  -32.7340 N   0  0  0  0  0  0  0  0  0  0  0  0
   -9.0898   19.1546  -30.8543 H   0  0  0  0  0  0  0  0  0  0  0  0
   -9.3676   20.1723  -32.3082 H   0  0  0  0  0  0  0  0  0  0  0  0
   -9.8740   18.4489  -32.3082 H   0  0  0  0  0  0  0  0  0  0  0  0
   -8.2279   16.6438  -32.5398 H   0  0  0  0  0  0  0  0  0  0  0  0
   -5.9773   16.0298  -33.4423 H   0  0  0  0  0  0  0  0  0  0  0  0
   -4.2874   17.8174  -33.8887 H   0  0  0  0  0  0  0  0  0  0  0  0
   -3.6212   20.0677  -33.6689 H   0  0  0  0  0  0  0  0  0  0  0  0
   -4.9819   21.1001  -34.3320 H   0  0  0  0  0  0  0  0  0  0  0  0
   -3.6700   22.1250  -32.6320 H   0  0  0  0  0  0  0  0  0  0  0  0
   -5.6681   23.1064  -32.9522 H   0  0  0  0  0  0  0  0  0  0  0  0
   -6.5396   21.6755  -32.2347 H   0  0  0  0  0  0  0  0  0  0  0  0
   -6.1142   24.0433  -30.9128 H   0  0  0  0  0  0  0  0  0  0  0  0
   -6.3442   22.4380  -30.1186 H   0  0  0  0  0  0  0  0  0  0  0  0
   -3.4170   23.2114  -27.3512 H   0  0  0  0  0  0  0  0  0  0  0  0
   -1.3986   24.3729  -25.9775 H   0  0  0  0  0  0  0  0  0  0  0  0
   -0.3644   26.2424  -27.5849 H   0  0  0  0  0  0  0  0  0  0  0  0
   -2.5214   22.0948  -30.2183 H   0  0  0  0  0  0  0  0  0  0  0  0
   -3.7498   21.4759  -29.0502 H   0  0  0  0  0  0  0  0  0  0  0  0
   -3.2153   20.1334  -31.2945 H   0  0  0  0  0  0  0  0  0  0  0  0
   -4.9041   20.2745  -30.6803 H   0  0  0  0  0  0  0  0  0  0  0  0
  1  2  1  0
  2  3  2  0
  3  4  1  0
  4  5  2  0
  5  6  1  0
  6  7  1  0
  7  8  1  0
  8  9  1  0
  9 10  1  0
 10 11  1  0
 11 12  1  0
 12 13  2  0
 12 14  1  0
 14 15  2  0
 15 16  1  0
 16 17  2  0
 17 18  1  0
 11 19  1  0
 19 20  1  0
  6 21  2  0
 21  2  1  0
 20  8  1  0
 18 14  1  0
  1 22  1  0
  1 23  1  0
  1 24  1  0
  3 25  1  0
  4 26  1  0
  5 27  1  0
  7 28  1  0
  7 29  1  0
  8 30  1  0
  9 31  1  0
  9 32  1  0
 10 33  1  0
 10 34  1  0
 15 35  1  0
 16 36  1  0
 17 37  1  0
 19 38  1  0
 19 39  1  0
 20 40  1  0
 20 41  1  0
M  CHG  1   8   1
M  END
>  <UniqueID>  (22) 
21

>  <SMILES>  (22) 
Cc1cccc(C[NH+]2CCN(C(=O)c3ccco3)CC2)n1

>  <Energy>  (22) 
79.7466175845228

>  <Genealogy>  (22) 
Cc1cccc(C[NH+]2CCN(C(=O)c3ccco3)CC2)n1 (protonated)
Cc1cccc(C[NH+]2CCN(C(=O)c3ccco3)CC2)n1 (3D coordinates assigned)
Cc1cccc(C[NH+]2CCN(C(=O)c3ccco3)CC2)n1 (nonaromatic ring conformer: 79.7466175845228 kcal/mol)

>  <smiles>  (22) 
Cc1cccc(CN2CCN(C(=O)c3ccco3)CC2)n1

>  <score_type>  (22) 
oracle

>  <origin>  (22) 
adg

>  <m_score__min__energy>  (22) 
-7.5899999999999999

>  <m_primary>  (22) 
energy

$$$$
22:0
     RDKit          3D

 26 28  0  0  0  0  0  0  0  0999 V2000
   -3.1260   25.3790  -31.5940 H   0  0  0  0  0  0  0  0  0  0  0  0
   -3.5130   24.8910  -30.7560 N   0  0  0  0  0  0  0  0  0  0  0  0
   -4.7560   24.5320  -30.6810 C   0  0  0  0  0  0  0  0  0  0  0  0
   -5.2040   23.3590  -31.2960 C   0  0  0  0  0  0  0  0  0  0  0  0
   -4.5650   22.3730  -32.0220 C   0  0  0  0  0  0  0  0  0  0  0  0
   -3.2300   22.2090  -32.3970 C   0  0  0  0  0  0  0  0  0  0  0  0
   -2.4702   22.9594  -32.1332 H   0  0  0  0  0  0  0  0  0  0  0  0
   -2.8880   21.0550  -33.1220 C   0  0  0  0  0  0  0  0  0  0  0  0
   -1.8462   20.8977  -33.4380 H   0  0  0  0  0  0  0  0  0  0  0  0
   -3.8710   20.0960  -33.4480 C   0  0  0  0  0  0  0  0  0  0  0  0
   -3.5876   19.1954  -34.0125 H   0  0  0  0  0  0  0  0  0  0  0  0
   -5.2090   20.2810  -33.0580 C   0  0  0  0  0  0  0  0  0  0  0  0
   -5.9787   19.5353  -33.3061 H   0  0  0  0  0  0  0  0  0  0  0  0
   -5.5340   21.4410  -32.3450 C   0  0  0  0  0  0  0  0  0  0  0  0
   -6.7470   21.8120  -31.8690 N   0  0  0  0  0  0  0  0  0  0  0  0
   -7.9980   21.0550  -31.9390 C   0  0  0  0  0  0  0  0  0  0  0  0
   -8.3538   20.8397  -30.9206 H   0  0  0  0  0  0  0  0  0  0  0  0
   -8.7551   21.6466  -32.4745 H   0  0  0  0  0  0  0  0  0  0  0  0
   -7.8252   20.1098  -32.4745 H   0  0  0  0  0  0  0  0  0  0  0  0
   -6.5280   22.9800  -31.2120 C   0  0  0  0  0  0  0  0  0  0  0  0
   -7.4510   23.7510  -30.5030 C   0  0  0  0  0  0  0  0  0  0  0  0
   -8.5058   23.4490  -30.4245 H   0  0  0  0  0  0  0  0  0  0  0  0
   -6.9830   24.9260  -29.8940 C   0  0  0  0  0  0  0  0  0  0  0  0
   -7.6822   25.5610  -29.3302 H   0  0  0  0  0  0  0  0  0  0  0  0
   -5.6660   25.2920  -29.9930 N   0  0  0  0  0  0  0  0  0  0  0  0
   -5.3610   26.1750  -29.5240 H   0  0  0  0  0  0  0  0  0  0  0  0
  1  2  1  0
  2  3  2  0
  3  4  1  0
  4  5  1  0
  5  6  2  0
  6  7  1  0
  6  8  1  0
  8  9  1  0
  8 10  2  0
 10 11  1  0
 10 12  1  0
 12 13  1  0
 12 14  2  0
 14 15  1  0
 15 16  1  0
 16 17  1  0
 16 18  1  0
 16 19  1  0
 15 20  1  0
 20 21  1  0
 21 22  1  0
 21 23  2  0
 23 24  1  0
 23 25  1  0
 25 26  1  0
 25  3  1  0
 20  4  2  0
 14  5  1  0
M  END
>  <UniqueID>  (23) 
22

>  <SMILES>  (23) 
[H]/N=c1\[nH]ccc2c1c1ccccc1n2C

>  <Energy>  (23) 
72.3464216093447

>  <Genealogy>  (23) 
[H]/N=c1\[nH]ccc2c1c1ccccc1n2C (cis-trans isomerization)
[H]/N=c1\[nH]ccc2c1c1ccccc1n2C (3D coordinates assigned)
[H]/N=c1\[nH]ccc2c1c1ccccc1n2C (optimized conformer: 72.3464216093447 kcal/mol)

>  <smiles>  (23) 
Cn1c2ccccc2c2c(=N)[nH]ccc21

>  <score_type>  (23) 
oracle

>  <origin>  (23) 
adg

>  <m_score__min__energy>  (23) 
-6.7400000000000002

>  <m_primary>  (23) 
energy

$$$$
23:0
     RDKit          3D

 55 57  0  0  0  0  0  0  0  0999 V2000
   -2.4520   19.7110  -26.6990 C   0  0  0  0  0  0  0  0  0  0  0  0
   -2.1780   20.2760  -28.0620 C   0  0  0  0  0  0  0  0  0  0  0  0
   -3.1510   21.0430  -28.7230 C   0  0  0  0  0  0  0  0  0  0  0  0
   -2.8920   21.5870  -29.9920 C   0  0  0  0  0  0  0  0  0  0  0  0
   -3.8960   22.3670  -30.6640 N   0  0  0  0  0  0  0  0  0  0  0  0
   -4.3660   23.6330  -30.0890 C   0  0  0  0  0  0  0  0  0  0  0  0
   -5.9040   23.6800  -30.0820 C   0  0  0  0  0  0  0  0  0  0  0  0
   -6.5150   22.9640  -31.2280 N   0  0  0  0  0  0  0  0  0  0  0  0
   -7.8760   23.4390  -31.5710 C   0  0  0  0  0  0  0  0  0  0  0  0
   -8.9650   22.3440  -31.6130 C   0  0  0  0  0  0  0  0  0  0  0  0
   -8.4360   21.0640  -32.1050 N   0  0  0  0  0  0  0  0  0  0  0  0
   -8.7270   19.9400  -31.1980 C   0  0  0  0  0  0  0  0  0  0  0  0
   -8.1460   18.6120  -31.7130 C   0  0  0  0  0  0  0  0  0  0  0  0
   -7.6840   18.7560  -33.0930 N   0  0  0  0  0  0  0  0  0  0  0  0
   -6.5260   18.0940  -33.6250 C   0  0  0  0  0  0  0  0  0  0  0  0
   -5.8140   17.2450  -32.9660 N   0  0  0  0  0  0  0  0  0  0  0  0
   -4.7230   16.7530  -33.7970 C   0  0  0  0  0  0  0  0  0  0  0  0
   -4.9010   17.4760  -35.1440 C   0  0  0  0  0  0  0  0  0  0  0  0
   -6.0730   18.3080  -34.9440 N   0  0  0  0  0  0  0  0  0  0  0  0
   -5.6200   22.7750  -32.3850 C   0  0  0  0  0  0  0  0  0  0  0  0
   -4.4170   21.9250  -31.9630 C   0  0  0  0  0  0  0  0  0  0  0  0
   -1.6380   21.3750  -30.5890 C   0  0  0  0  0  0  0  0  0  0  0  0
   -1.3470   21.9250  -31.7960 F   0  0  0  0  0  0  0  0  0  0  0  0
   -0.6630   20.6230  -29.9290 C   0  0  0  0  0  0  0  0  0  0  0  0
   -0.9270   20.0760  -28.6700 C   0  0  0  0  0  0  0  0  0  0  0  0
    0.0370   19.3560  -28.0420 F   0  0  0  0  0  0  0  0  0  0  0  0
   -2.1079   20.4205  -25.9320 H   0  0  0  0  0  0  0  0  0  0  0  0
   -3.5326   19.5411  -26.5829 H   0  0  0  0  0  0  0  0  0  0  0  0
   -1.9163   18.7573  -26.5829 H   0  0  0  0  0  0  0  0  0  0  0  0
   -4.1248   21.2194  -28.2428 H   0  0  0  0  0  0  0  0  0  0  0  0
   -3.9959   23.7220  -29.0570 H   0  0  0  0  0  0  0  0  0  0  0  0
   -3.9861   24.4654  -30.6996 H   0  0  0  0  0  0  0  0  0  0  0  0
   -6.2637   23.2196  -29.1500 H   0  0  0  0  0  0  0  0  0  0  0  0
   -6.1994   24.7366  -30.1613 H   0  0  0  0  0  0  0  0  0  0  0  0
   -8.1742   24.1867  -30.8213 H   0  0  0  0  0  0  0  0  0  0  0  0
   -7.8097   23.8421  -32.5923 H   0  0  0  0  0  0  0  0  0  0  0  0
   -9.3620   22.1981  -30.5976 H   0  0  0  0  0  0  0  0  0  0  0  0
   -9.7547   22.6747  -32.3036 H   0  0  0  0  0  0  0  0  0  0  0  0
   -7.4010   21.1480  -32.2430 H   0  0  0  0  0  0  0  0  0  0  0  0
   -8.2912   20.1586  -30.2120 H   0  0  0  0  0  0  0  0  0  0  0  0
   -9.8197   19.8294  -31.1373 H   0  0  0  0  0  0  0  0  0  0  0  0
   -7.2988   18.3165  -31.0766 H   0  0  0  0  0  0  0  0  0  0  0  0
   -8.9319   17.8430  -31.6793 H   0  0  0  0  0  0  0  0  0  0  0  0
   -8.2460   19.3550  -33.7400 H   0  0  0  0  0  0  0  0  0  0  0  0
   -5.9830   16.9380  -31.9840 H   0  0  0  0  0  0  0  0  0  0  0  0
   -3.7504   17.0030  -33.3481 H   0  0  0  0  0  0  0  0  0  0  0  0
   -4.7439   15.6586  -33.9062 H   0  0  0  0  0  0  0  0  0  0  0  0
   -4.0196   18.0916  -35.3767 H   0  0  0  0  0  0  0  0  0  0  0  0
   -5.0159   16.7785  -35.9868 H   0  0  0  0  0  0  0  0  0  0  0  0
   -6.5060   18.9430  -35.6510 H   0  0  0  0  0  0  0  0  0  0  0  0
   -6.1658   22.2639  -33.1918 H   0  0  0  0  0  0  0  0  0  0  0  0
   -5.2707   23.7544  -32.7437 H   0  0  0  0  0  0  0  0  0  0  0  0
   -4.7279   20.8725  -31.8876 H   0  0  0  0  0  0  0  0  0  0  0  0
   -3.6243   22.0372  -32.7173 H   0  0  0  0  0  0  0  0  0  0  0  0
    0.3167   20.4606  -30.4021 H   0  0  0  0  0  0  0  0  0  0  0  0
  1  2  1  0
  2  3  2  0
  3  4  1  0
  4  5  1  0
  5  6  1  0
  6  7  1  0
  7  8  1  0
  8  9  1  0
  9 10  1  0
 10 11  1  0
 11 12  1  0
 12 13  1  0
 13 14  1  0
 14 15  1  0
 15 16  2  0
 16 17  1  0
 17 18  1  0
 18 19  1  0
  8 20  1  0
 20 21  1  0
  4 22  2  0
 22 23  1  0
 22 24  1  0
 24 25  2  0
 25 26  1  0
 25  2  1  0
 21  5  1  0
 19 15  1  0
  1 27  1  0
  1 28  1  0
  1 29  1  0
  3 30  1  0
  6 31  1  0
  6 32  1  0
  7 33  1  0
  7 34  1  0
  9 35  1  0
  9 36  1  0
 10 37  1  0
 10 38  1  0
 11 39  1  0
 12 40  1  0
 12 41  1  0
 13 42  1  0
 13 43  1  0
 14 44  1  0
 16 45  1  0
 17 46  1  0
 17 47  1  0
 18 48  1  0
 18 49  1  0
 19 50  1  0
 20 51  1  0
 20 52  1  0
 21 53  1  0
 21 54  1  0
 24 55  1  0
M  CHG  1  16   1
M  END
>  <UniqueID>  (24) 
23

>  <SMILES>  (24) 
Cc1cc(N2CCN(CCNCCNC3=[NH+]CCN3)CC2)c(F)cc1F

>  <Energy>  (24) 
76.97337296142068

>  <Genealogy>  (24) 
Cc1cc(N2CCN(CCNCCNC3=[NH+]CCN3)CC2)c(F)cc1F (protonated)
Cc1cc(N2CCN(CCNCCNC3=[NH+]CCN3)CC2)c(F)cc1F (3D coordinates assigned)
Cc1cc(N2CCN(CCNCCNC3=[NH+]CCN3)CC2)c(F)cc1F (nonaromatic ring conformer: 76.97337296142068 kcal/mol)

>  <smiles>  (24) 
Cc1cc(N2CCN(CCNCCNC3=NCCN3)CC2)c(F)cc1F

>  <score_type>  (24) 
oracle

>  <origin>  (24) 
adg

>  <m_score__min__energy>  (24) 
-7.9400000000000004

>  <m_primary>  (24) 
energy

$$$$
24:0
     RDKit          3D

 63 66  0  0  0  0  0  0  0  0999 V2000
   -0.4595   22.0532  -29.3557 H   0  0  0  0  0  0  0  0  0  0  0  0
   -0.9940   22.9930  -29.1530 C   0  0  0  0  0  0  0  0  0  0  0  0
   -2.0320   23.3640  -29.9440 N   0  0  0  0  0  0  0  0  0  0  0  0
   -2.7110   24.5200  -29.7200 C   0  0  0  0  0  0  0  0  0  0  0  0
   -3.7160   24.8690  -30.4680 N   0  0  0  0  0  0  0  0  0  0  0  0
   -4.9400   24.1380  -30.6610 C   0  0  0  0  0  0  0  0  0  0  0  0
   -5.7310   24.4340  -31.7780 C   0  0  0  0  0  0  0  0  0  0  0  0
   -5.4166   25.2238  -32.4761 H   0  0  0  0  0  0  0  0  0  0  0  0
   -6.9170   23.7330  -32.0120 C   0  0  0  0  0  0  0  0  0  0  0  0
   -7.5408   23.9875  -32.8816 H   0  0  0  0  0  0  0  0  0  0  0  0
   -7.3160   22.7060  -31.1430 C   0  0  0  0  0  0  0  0  0  0  0  0
   -8.6120   21.9680  -31.3680 C   0  0  0  0  0  0  0  0  0  0  0  0
   -8.9065   21.4645  -30.4354 H   0  0  0  0  0  0  0  0  0  0  0  0
   -9.3815   22.6928  -31.6722 H   0  0  0  0  0  0  0  0  0  0  0  0
   -8.4640   20.9580  -32.4380 N   0  0  0  0  0  0  0  0  0  0  0  0
   -9.2910   19.7530  -32.1680 C   0  0  0  0  0  0  0  0  0  0  0  0
  -10.0663   20.0132  -31.4324 H   0  0  0  0  0  0  0  0  0  0  0  0
   -9.7352   19.4283  -33.1205 H   0  0  0  0  0  0  0  0  0  0  0  0
   -8.4570   18.5880  -31.6160 C   0  0  0  0  0  0  0  0  0  0  0  0
   -7.9731   18.9052  -30.6805 H   0  0  0  0  0  0  0  0  0  0  0  0
   -9.1277   17.7347  -31.4369 H   0  0  0  0  0  0  0  0  0  0  0  0
   -7.4140   18.1690  -32.5810 N   0  0  0  0  0  0  0  0  0  0  0  0
   -6.3420   17.4370  -31.8900 C   0  0  0  0  0  0  0  0  0  0  0  0
   -6.4772   17.5293  -30.8022 H   0  0  0  0  0  0  0  0  0  0  0  0
   -6.3800   16.3754  -32.1754 H   0  0  0  0  0  0  0  0  0  0  0  0
   -5.3670   17.8588  -32.1754 H   0  0  0  0  0  0  0  0  0  0  0  0
   -6.8720   19.2880  -33.3910 C   0  0  0  0  0  0  0  0  0  0  0  0
   -5.8017   19.1088  -33.5708 H   0  0  0  0  0  0  0  0  0  0  0  0
   -7.4365   19.3255  -34.3344 H   0  0  0  0  0  0  0  0  0  0  0  0
   -7.0350   20.6450  -32.6910 C   0  0  0  0  0  0  0  0  0  0  0  0
   -6.4993   20.6185  -31.7306 H   0  0  0  0  0  0  0  0  0  0  0  0
   -6.6219   21.4244  -33.3482 H   0  0  0  0  0  0  0  0  0  0  0  0
   -6.5100   22.3870  -30.0390 C   0  0  0  0  0  0  0  0  0  0  0  0
   -6.8126   21.5808  -29.3545 H   0  0  0  0  0  0  0  0  0  0  0  0
   -5.3240   23.0900  -29.8060 C   0  0  0  0  0  0  0  0  0  0  0  0
   -4.6882   22.8218  -28.9494 H   0  0  0  0  0  0  0  0  0  0  0  0
   -2.3690   25.3030  -28.6650 N   0  0  0  0  0  0  0  0  0  0  0  0
   -1.3470   24.9750  -27.8290 C   0  0  0  0  0  0  0  0  0  0  0  0
   -1.0540   25.8800  -26.6970 C   0  0  0  0  0  0  0  0  0  0  0  0
   -1.3430   25.4990  -25.3780 C   0  0  0  0  0  0  0  0  0  0  0  0
   -1.7835   24.5112  -25.1777 H   0  0  0  0  0  0  0  0  0  0  0  0
   -1.0740   26.3680  -24.3180 C   0  0  0  0  0  0  0  0  0  0  0  0
   -1.2908   26.0576  -23.2852 H   0  0  0  0  0  0  0  0  0  0  0  0
   -0.5300   27.6310  -24.5670 C   0  0  0  0  0  0  0  0  0  0  0  0
   -0.3073   28.3061  -23.7276 H   0  0  0  0  0  0  0  0  0  0  0  0
   -0.2660   28.0430  -25.8850 C   0  0  0  0  0  0  0  0  0  0  0  0
    0.3170   29.3370  -26.1410 N   0  0  0  0  0  0  0  0  0  0  0  0
    0.9710   29.5890  -25.3620 H   0  0  0  0  0  0  0  0  0  0  0  0
    0.8700   29.3050  -27.0290 H   0  0  0  0  0  0  0  0  0  0  0  0
   -0.7410   30.3510  -26.2510 C   0  0  0  0  0  0  0  0  0  0  0  0
   -0.5041   31.1929  -25.5839 H   0  0  0  0  0  0  0  0  0  0  0  0
   -1.6991   29.8928  -25.9646 H   0  0  0  0  0  0  0  0  0  0  0  0
   -0.8540   30.8650  -27.6850 C   0  0  0  0  0  0  0  0  0  0  0  0
   -1.0902   31.9393  -27.6719 H   0  0  0  0  0  0  0  0  0  0  0  0
    0.1006   30.7058  -28.2079 H   0  0  0  0  0  0  0  0  0  0  0  0
   -1.6538   30.3201  -28.2079 H   0  0  0  0  0  0  0  0  0  0  0  0
   -0.5290   27.1580  -26.9470 C   0  0  0  0  0  0  0  0  0  0  0  0
   -0.3216   27.4699  -27.9813 H   0  0  0  0  0  0  0  0  0  0  0  0
   -0.6000   23.8020  -28.0790 C   0  0  0  0  0  0  0  0  0  0  0  0
    0.5810   23.3920  -27.2390 C   0  0  0  0  0  0  0  0  0  0  0  0
    0.3221   23.4819  -26.1737 H   0  0  0  0  0  0  0  0  0  0  0  0
    0.8472   22.3489  -27.4649 H   0  0  0  0  0  0  0  0  0  0  0  0
    1.4363   24.0458  -27.4649 H   0  0  0  0  0  0  0  0  0  0  0  0
  1  2  1  0
  2  3  1  0
  3  4  1  0
  4  5  2  0
  5  6  1  0
  6  7  2  0
  7  8  1  0
  7  9  1  0
  9 10  1  0
  9 11  2  0
 11 12  1  0
 12 13  1  0
 12 14  1  0
 12 15  1  0
 15 16  1  0
 16 17  1  0
 16 18  1  0
 16 19  1  0
 19 20  1  0
 19 21  1  0
 19 22  1  0
 22 23  1  0
 23 24  1  0
 23 25  1  0
 23 26  1  0
 22 27  1  0
 27 28  1  0
 27 29  1  0
 27 30  1  0
 30 31  1  0
 30 32  1  0
 11 33  1  0
 33 34  1  0
 33 35  2  0
 35 36  1  0
  4 37  1  0
 37 38  2  0
 38 39  1  0
 39 40  2  0
 40 41  1  0
 40 42  1  0
 42 43  1  0
 42 44  2  0
 44 45  1  0
 44 46  1  0
 46 47  1  0
 47 48  1  0
 47 49  1  0
 47 50  1  0
 50 51  1  0
 50 52  1  0
 50 53  1  0
 53 54  1  0
 53 55  1  0
 53 56  1  0
 46 57  2  0
 57 58  1  0
 38 59  1  0
 59 60  1  0
 60 61  1  0
 60 62  1  0
 60 63  1  0
 59  2  2  0
 35  6  1  0
 57 39  1  0
 30 15  1  0
M  CHG  2   3  -1  47   1
M  END
>  <UniqueID>  (25) 
24

>  <SMILES>  (25) 
CC[NH2+]c1cccc(-c2n/c(=N/c3ccc(CN4CCN(C)CC4)cc3)[n-]cc2C)c1

>  <Energy>  (25) 
89.26766742184765

>  <Genealogy>  (25) 
CC[NH2+]c1cccc(-c2nc(=Nc3ccc(CN4CCN(C)CC4)cc3)[n-]cc2C)c1 (protonated)
CC[NH2+]c1cccc(-c2n/c(=N/c3ccc(CN4CCN(C)CC4)cc3)[n-]cc2C)c1 (cis-trans isomerization)
CC[NH2+]c1cccc(-c2n/c(=N/c3ccc(CN4CCN(C)CC4)cc3)[n-]cc2C)c1 (3D coordinates assigned)
CC[NH2+]c1cccc(-c2n/c(=N/c3ccc(CN4CCN(C)CC4)cc3)[n-]cc2C)c1 (nonaromatic ring conformer: 89.26766742184765 kcal/mol)

>  <smiles>  (25) 
CCNc1cccc(-c2nc(=Nc3ccc(CN4CCN(C)CC4)cc3)[nH]cc2C)c1

>  <score_type>  (25) 
oracle

>  <origin>  (25) 
adg

>  <m_score__min__energy>  (25) 
-12.210000000000001

>  <m_primary>  (25) 
energy

$$$$
25:0
     RDKit          3D

 43 46  0  0  0  0  0  0  0  0999 V2000
   -9.6558   17.6719  -31.8413 H   0  0  0  0  0  0  0  0  0  0  0  0
   -9.0280   18.5710  -31.9280 C   0  0  0  0  0  0  0  0  0  0  0  0
   -7.3830   18.6600  -31.5970 S   0  0  0  0  0  0  0  0  0  0  0  0
   -7.2070   20.3010  -31.9370 C   0  0  0  0  0  0  0  0  0  0  0  0
   -5.9400   21.0610  -31.9260 C   0  0  0  0  0  0  0  0  0  0  0  0
   -4.8010   20.7340  -32.6820 C   0  0  0  0  0  0  0  0  0  0  0  0
   -4.5500   19.5060  -33.4610 C   0  0  0  0  0  0  0  0  0  0  0  0
   -3.3100   18.8580  -33.3690 C   0  0  0  0  0  0  0  0  0  0  0  0
   -2.5199   19.2775  -32.7289 H   0  0  0  0  0  0  0  0  0  0  0  0
   -3.0720   17.6820  -34.0860 C   0  0  0  0  0  0  0  0  0  0  0  0
   -2.0923   17.1869  -34.0155 H   0  0  0  0  0  0  0  0  0  0  0  0
   -4.0800   17.1280  -34.8980 C   0  0  0  0  0  0  0  0  0  0  0  0
   -3.8890   15.9520  -35.6380 O   0  0  0  0  0  0  0  0  0  0  0  0
   -2.9310   14.9490  -35.3200 C   0  0  0  0  0  0  0  0  0  0  0  0
   -2.8442   14.8582  -34.2272 H   0  0  0  0  0  0  0  0  0  0  0  0
   -3.2536   13.9864  -35.7435 H   0  0  0  0  0  0  0  0  0  0  0  0
   -1.9546   15.2271  -35.7435 H   0  0  0  0  0  0  0  0  0  0  0  0
   -5.3230   17.7670  -34.9720 C   0  0  0  0  0  0  0  0  0  0  0  0
   -6.1187   17.3408  -35.6007 H   0  0  0  0  0  0  0  0  0  0  0  0
   -5.5620   18.9420  -34.2540 C   0  0  0  0  0  0  0  0  0  0  0  0
   -6.5476   19.4272  -34.3105 H   0  0  0  0  0  0  0  0  0  0  0  0
   -3.6480   21.9430  -32.4480 S   0  0  0  0  0  0  0  0  0  0  0  0
   -4.6250   22.8240  -31.4110 C   0  0  0  0  0  0  0  0  0  0  0  0
   -4.2530   23.9380  -30.8510 N   0  0  0  0  0  0  0  0  0  0  0  0
   -3.3070   24.0680  -29.7820 C   0  0  0  0  0  0  0  0  0  0  0  0
   -3.0290   25.2220  -29.3610 O   0  0  0  0  0  0  0  0  0  0  0  0
   -2.7120   22.8840  -29.1120 C   0  0  0  0  0  0  0  0  0  0  0  0
   -3.4210   22.1840  -28.1190 C   0  0  0  0  0  0  0  0  0  0  0  0
   -4.4278   22.5186  -27.8283 H   0  0  0  0  0  0  0  0  0  0  0  0
   -2.8550   21.0660  -27.4990 C   0  0  0  0  0  0  0  0  0  0  0  0
   -3.4196   20.5208  -26.7282 H   0  0  0  0  0  0  0  0  0  0  0  0
   -1.5730   20.6400  -27.8570 C   0  0  0  0  0  0  0  0  0  0  0  0
   -1.0250   19.5560  -27.2550 F   0  0  0  0  0  0  0  0  0  0  0  0
   -0.8550   21.3350  -28.8330 C   0  0  0  0  0  0  0  0  0  0  0  0
    0.1554   21.0017  -29.1124 H   0  0  0  0  0  0  0  0  0  0  0  0
   -1.4180   22.4540  -29.4560 C   0  0  0  0  0  0  0  0  0  0  0  0
   -0.8451   23.0007  -30.2195 H   0  0  0  0  0  0  0  0  0  0  0  0
   -5.8190   22.2160  -31.2110 N   0  0  0  0  0  0  0  0  0  0  0  0
   -6.5730   22.5820  -30.5900 H   0  0  0  0  0  0  0  0  0  0  0  0
   -8.4420   20.7930  -32.3440 C   0  0  0  0  0  0  0  0  0  0  0  0
   -8.6053   21.8376  -32.6475 H   0  0  0  0  0  0  0  0  0  0  0  0
   -9.4580   19.8290  -32.3300 C   0  0  0  0  0  0  0  0  0  0  0  0
  -10.4988   20.0477  -32.6110 H   0  0  0  0  0  0  0  0  0  0  0  0
  1  2  1  0
  2  3  1  0
  3  4  1  0
  4  5  1  0
  5  6  2  0
  6  7  1  0
  7  8  2  0
  8  9  1  0
  8 10  1  0
 10 11  1  0
 10 12  2  0
 12 13  1  0
 13 14  1  0
 14 15  1  0
 14 16  1  0
 14 17  1  0
 12 18  1  0
 18 19  1  0
 18 20  2  0
 20 21  1  0
  6 22  1  0
 22 23  1  0
 23 24  2  0
 24 25  1  0
 25 26  2  0
 25 27  1  0
 27 28  2  0
 28 29  1  0
 28 30  1  0
 30 31  1  0
 30 32  2  0
 32 33  1  0
 32 34  1  0
 34 35  1  0
 34 36  2  0
 36 37  1  0
 23 38  1  0
 38 39  1  0
  4 40  2  0
 40 41  1  0
 40 42  1  0
 42 43  1  0
 42  2  2  0
 38  5  1  0
 20  7  1  0
 36 27  1  0
M  END
>  <UniqueID>  (26) 
25

>  <SMILES>  (26) 
COc1ccc(-c2s/c(=N/C(=O)c3ccc(F)cc3)[nH]c2-c2cccs2)cc1

>  <Energy>  (26) 
118.79635156442504

>  <Genealogy>  (26) 
COc1ccc(-c2s/c(=N/C(=O)c3ccc(F)cc3)[nH]c2-c2cccs2)cc1 (cis-trans isomerization)
COc1ccc(-c2s/c(=N/C(=O)c3ccc(F)cc3)[nH]c2-c2cccs2)cc1 (3D coordinates assigned)
COc1ccc(-c2s/c(=N/C(=O)c3ccc(F)cc3)[nH]c2-c2cccs2)cc1 (optimized conformer: 118.79635156442504 kcal/mol)

>  <smiles>  (26) 
COc1ccc(-c2sc(=NC(=O)c3ccc(F)cc3)[nH]c2-c2cccs2)cc1

>  <score_type>  (26) 
oracle

>  <origin>  (26) 
adg

>  <m_score__min__energy>  (26) 
-8.5500000000000007

>  <m_primary>  (26) 
energy

$$$$
26:0
     RDKit          3D

 58 58  0  0  0  0  0  0  0  0999 V2000
   -2.4760   24.5460  -27.7850 C   0  0  0  0  0  0  0  0  0  0  0  0
   -3.9350   24.1410  -27.6060 C   0  0  0  0  0  0  0  0  0  0  0  0
   -4.2860   22.9170  -28.4620 C   0  0  0  0  0  0  0  0  0  0  0  0
   -3.5390   22.9220  -29.7390 N   0  0  0  0  0  0  0  0  0  0  0  0
   -2.8280   21.6540  -30.0300 C   0  0  0  0  0  0  0  0  0  0  0  0
   -1.5180   21.9360  -30.7770 C   0  0  0  0  0  0  0  0  0  0  0  0
   -1.4520   21.1980  -32.1130 C   0  0  0  0  0  0  0  0  0  0  0  0
   -4.2820   23.4850  -30.8980 C   0  0  0  0  0  0  0  0  0  0  0  0
   -5.2860   22.5400  -31.5570 C   0  0  0  0  0  0  0  0  0  0  0  0
   -4.8140   21.6730  -32.5600 C   0  0  0  0  0  0  0  0  0  0  0  0
   -5.6560   20.7420  -33.1650 C   0  0  0  0  0  0  0  0  0  0  0  0
   -7.0060   20.6580  -32.7980 C   0  0  0  0  0  0  0  0  0  0  0  0
   -7.8600   19.6350  -33.3600 N   0  0  0  0  0  0  0  0  0  0  0  0
   -8.3140   18.6500  -32.3540 C   0  0  0  0  0  0  0  0  0  0  0  0
   -7.1610   18.0590  -31.5170 C   0  0  0  0  0  0  0  0  0  0  0  0
   -6.0950   17.3210  -32.3420 C   0  0  0  0  0  0  0  0  0  0  0  0
   -6.4470   17.2440  -33.7780 N   0  0  0  0  0  0  0  0  0  0  0  0
   -5.3090   17.6940  -34.5960 C   0  0  0  0  0  0  0  0  0  0  0  0
   -6.8130   15.8700  -34.1660 C   0  0  0  0  0  0  0  0  0  0  0  0
   -7.4890   21.5160  -31.7980 C   0  0  0  0  0  0  0  0  0  0  0  0
   -6.6490   22.4520  -31.1680 C   0  0  0  0  0  0  0  0  0  0  0  0
   -7.2440   23.3380  -30.1060 C   0  0  0  0  0  0  0  0  0  0  0  0
   -2.0078   24.6760  -26.7981 H   0  0  0  0  0  0  0  0  0  0  0  0
   -1.9436   23.7617  -28.3430 H   0  0  0  0  0  0  0  0  0  0  0  0
   -2.4240   25.4925  -28.3430 H   0  0  0  0  0  0  0  0  0  0  0  0
   -4.1121   23.9000  -26.5474 H   0  0  0  0  0  0  0  0  0  0  0  0
   -4.5689   24.9808  -27.9268 H   0  0  0  0  0  0  0  0  0  0  0  0
   -4.0333   22.0042  -27.9026 H   0  0  0  0  0  0  0  0  0  0  0  0
   -5.3618   22.9491  -28.6890 H   0  0  0  0  0  0  0  0  0  0  0  0
   -2.6027   21.1393  -29.0843 H   0  0  0  0  0  0  0  0  0  0  0  0
   -3.4698   21.0211  -30.6606 H   0  0  0  0  0  0  0  0  0  0  0  0
   -1.4413   23.0172  -30.9642 H   0  0  0  0  0  0  0  0  0  0  0  0
   -0.6861   21.5812  -30.1508 H   0  0  0  0  0  0  0  0  0  0  0  0
   -1.3554   20.1175  -31.9307 H   0  0  0  0  0  0  0  0  0  0  0  0
   -2.3711   21.3925  -32.6852 H   0  0  0  0  0  0  0  0  0  0  0  0
   -0.5820   21.5525  -32.6852 H   0  0  0  0  0  0  0  0  0  0  0  0
   -4.8301   24.3731  -30.5503 H   0  0  0  0  0  0  0  0  0  0  0  0
   -3.5246   23.7040  -31.6651 H   0  0  0  0  0  0  0  0  0  0  0  0
   -3.7608   21.7313  -32.8722 H   0  0  0  0  0  0  0  0  0  0  0  0
   -5.2578   20.0673  -33.9371 H   0  0  0  0  0  0  0  0  0  0  0  0
   -8.6800   20.0600  -33.8540 H   0  0  0  0  0  0  0  0  0  0  0  0
   -7.3050   19.1310  -34.0910 H   0  0  0  0  0  0  0  0  0  0  0  0
   -9.0211   19.1465  -31.6732 H   0  0  0  0  0  0  0  0  0  0  0  0
   -8.7809   17.8172  -32.9003 H   0  0  0  0  0  0  0  0  0  0  0  0
   -6.6701   18.8821  -30.9771 H   0  0  0  0  0  0  0  0  0  0  0  0
   -7.6100   17.3141  -30.8436 H   0  0  0  0  0  0  0  0  0  0  0  0
   -5.1382   17.8541  -32.2408 H   0  0  0  0  0  0  0  0  0  0  0  0
   -6.0256   16.2926  -31.9578 H   0  0  0  0  0  0  0  0  0  0  0  0
   -4.4896   18.0180  -33.9376 H   0  0  0  0  0  0  0  0  0  0  0  0
   -4.9632   16.8649  -35.2309 H   0  0  0  0  0  0  0  0  0  0  0  0
   -5.6238   18.5353  -35.2309 H   0  0  0  0  0  0  0  0  0  0  0  0
   -6.9743   15.2644  -33.2620 H   0  0  0  0  0  0  0  0  0  0  0  0
   -7.7368   15.8913  -34.7628 H   0  0  0  0  0  0  0  0  0  0  0  0
   -6.0010   15.4289  -34.7628 H   0  0  0  0  0  0  0  0  0  0  0  0
   -8.5463   21.4553  -31.5007 H   0  0  0  0  0  0  0  0  0  0  0  0
   -6.9811   22.9465  -29.1122 H   0  0  0  0  0  0  0  0  0  0  0  0
   -6.8472   24.3581  -30.2149 H   0  0  0  0  0  0  0  0  0  0  0  0
   -8.3384   23.3567  -30.2149 H   0  0  0  0  0  0  0  0  0  0  0  0
  1  2  1  0
  2  3  1  0
  3  4  1  0
  4  5  1  0
  5  6  1  0
  6  7  1  0
  4  8  1  0
  8  9  1  0
  9 10  2  0
 10 11  1  0
 11 12  2  0
 12 13  1  0
 13 14  1  0
 14 15  1  0
 15 16  1  0
 16 17  1  0
 17 18  1  0
 17 19  1  0
 12 20  1  0
 20 21  2  0
 21 22  1  0
 21  9  1  0
  1 23  1  0
  1 24  1  0
  1 25  1  0
  2 26  1  0
  2 27  1  0
  3 28  1  0
  3 29  1  0
  5 30  1  0
  5 31  1  0
  6 32  1  0
  6 33  1  0
  7 34  1  0
  7 35  1  0
  7 36  1  0
  8 37  1  0
  8 38  1  0
 10 39  1  0
 11 40  1  0
 13 41  1  0
 13 42  1  0
 14 43  1  0
 14 44  1  0
 15 45  1  0
 15 46  1  0
 16 47  1  0
 16 48  1  0
 18 49  1  0
 18 50  1  0
 18 51  1  0
 19 52  1  0
 19 53  1  0
 19 54  1  0
 20 55  1  0
 22 56  1  0
 22 57  1  0
 22 58  1  0
M  CHG  1  13   1
M  END
>  <UniqueID>  (27) 
26

>  <SMILES>  (27) 
CCCN(CCC)Cc1ccc([NH2+]CCCN(C)C)cc1C

>  <Energy>  (27) 
56.53401733365429

>  <Genealogy>  (27) 
CCCN(CCC)Cc1ccc([NH2+]CCCN(C)C)cc1C (protonated)
CCCN(CCC)Cc1ccc([NH2+]CCCN(C)C)cc1C (3D coordinates assigned)
CCCN(CCC)Cc1ccc([NH2+]CCCN(C)C)cc1C (optimized conformer: 56.53401733365429 kcal/mol)

>  <smiles>  (27) 
CCCN(CCC)Cc1ccc(NCCCN(C)C)cc1C

>  <score_type>  (27) 
oracle

>  <origin>  (27) 
adg

>  <m_score__min__energy>  (27) 
-6.6100000000000003

>  <m_primary>  (27) 
energy

$$$$
27:0
     RDKit          3D

 56 56  0  0  0  0  0  0  0  0999 V2000
   -5.1690   20.5730  -31.8130 C   0  0  0  0  0  0  0  0  0  0  0  0
   -4.1390   20.7770  -32.8790 C   0  0  0  0  0  0  0  0  0  0  0  0
   -3.8450   21.9550  -33.2170 O   0  0  0  0  0  0  0  0  0  0  0  0
   -3.4620   19.6320  -33.5390 C   0  0  0  0  0  0  0  0  0  0  0  0
   -2.0530   19.5880  -33.6480 C   0  0  0  0  0  0  0  0  0  0  0  0
   -1.2710   20.6350  -33.1610 O   0  0  0  0  0  0  0  0  0  0  0  0
   -1.4320   18.4960  -34.2660 C   0  0  0  0  0  0  0  0  0  0  0  0
   -2.1960   17.4580  -34.7960 C   0  0  0  0  0  0  0  0  0  0  0  0
   -3.5860   17.4960  -34.7050 C   0  0  0  0  0  0  0  0  0  0  0  0
   -4.2330   18.5700  -34.0650 C   0  0  0  0  0  0  0  0  0  0  0  0
   -5.6320   18.6110  -33.9160 O   0  0  0  0  0  0  0  0  0  0  0  0
   -6.4550   17.5450  -33.4430 C   0  0  0  0  0  0  0  0  0  0  0  0
   -7.4410   18.0160  -32.3620 C   0  0  0  0  0  0  0  0  0  0  0  0
   -8.1570   19.3320  -32.7140 C   0  0  0  0  0  0  0  0  0  0  0  0
   -8.2410   20.3040  -31.5240 C   0  0  0  0  0  0  0  0  0  0  0  0
   -8.2800   21.7760  -31.9640 C   0  0  0  0  0  0  0  0  0  0  0  0
   -7.9630   22.7830  -30.8410 C   0  0  0  0  0  0  0  0  0  0  0  0
   -6.4660   23.1550  -30.7510 C   0  0  0  0  0  0  0  0  0  0  0  0
   -6.1270   24.4920  -31.4390 C   0  0  0  0  0  0  0  0  0  0  0  0
   -5.2720   25.4110  -30.5580 C   0  0  0  0  0  0  0  0  0  0  0  0
   -3.8580   25.1150  -30.7450 N   0  0  0  0  0  0  0  0  0  0  0  0
   -3.0310   24.5880  -29.7060 C   0  0  0  0  0  0  0  0  0  0  0  0
   -2.0710   25.2640  -29.2480 O   0  0  0  0  0  0  0  0  0  0  0  0
   -3.2870   23.2090  -29.1830 C   0  0  0  0  0  0  0  0  0  0  0  0
   -2.5710   22.1550  -30.0280 C   0  0  0  0  0  0  0  0  0  0  0  0
   -2.3780   22.6100  -31.3400 O   0  0  0  0  0  0  0  0  0  0  0  0
   -4.6966   20.6666  -30.8240 H   0  0  0  0  0  0  0  0  0  0  0  0
   -5.9583   21.3323  -31.9157 H   0  0  0  0  0  0  0  0  0  0  0  0
   -5.6093   19.5702  -31.9157 H   0  0  0  0  0  0  0  0  0  0  0  0
   -1.6800   21.5240  -32.8930 H   0  0  0  0  0  0  0  0  0  0  0  0
   -0.3348   18.4571  -34.3336 H   0  0  0  0  0  0  0  0  0  0  0  0
   -1.7010   16.6072  -35.2870 H   0  0  0  0  0  0  0  0  0  0  0  0
   -4.1830   16.6794  -35.1372 H   0  0  0  0  0  0  0  0  0  0  0  0
   -7.0252   17.1340  -34.2892 H   0  0  0  0  0  0  0  0  0  0  0  0
   -5.8002   16.7820  -32.9969 H   0  0  0  0  0  0  0  0  0  0  0  0
   -8.2010   17.2337  -32.2196 H   0  0  0  0  0  0  0  0  0  0  0  0
   -6.8556   18.2008  -31.4492 H   0  0  0  0  0  0  0  0  0  0  0  0
   -7.6074   19.8232  -33.5305 H   0  0  0  0  0  0  0  0  0  0  0  0
   -9.1866   19.0797  -33.0078 H   0  0  0  0  0  0  0  0  0  0  0  0
   -9.1545   20.0829  -30.9525 H   0  0  0  0  0  0  0  0  0  0  0  0
   -7.3364   20.1627  -30.9143 H   0  0  0  0  0  0  0  0  0  0  0  0
   -7.5431   21.9145  -32.7688 H   0  0  0  0  0  0  0  0  0  0  0  0
   -9.3111   21.9804  -32.2881 H   0  0  0  0  0  0  0  0  0  0  0  0
   -8.5396   23.7017  -31.0242 H   0  0  0  0  0  0  0  0  0  0  0  0
   -8.2347   22.3026  -29.8895 H   0  0  0  0  0  0  0  0  0  0  0  0
   -6.1878   23.2284  -29.6893 H   0  0  0  0  0  0  0  0  0  0  0  0
   -5.9029   22.3679  -31.2739 H   0  0  0  0  0  0  0  0  0  0  0  0
   -5.5749   24.2804  -32.3666 H   0  0  0  0  0  0  0  0  0  0  0  0
   -7.0752   25.0122  -31.6396 H   0  0  0  0  0  0  0  0  0  0  0  0
   -5.4633   26.4588  -30.8330 H   0  0  0  0  0  0  0  0  0  0  0  0
   -5.5368   25.2449  -29.5034 H   0  0  0  0  0  0  0  0  0  0  0  0
   -2.9238   23.1452  -28.1466 H   0  0  0  0  0  0  0  0  0  0  0  0
   -4.3688   23.0150  -29.2277 H   0  0  0  0  0  0  0  0  0  0  0  0
   -1.5926   21.9351  -29.5758 H   0  0  0  0  0  0  0  0  0  0  0  0
   -3.1933   21.2485  -30.0591 H   0  0  0  0  0  0  0  0  0  0  0  0
   -3.1590   23.1820  -31.5590 H   0  0  0  0  0  0  0  0  0  0  0  0
  1  2  1  0
  2  3  2  0
  2  4  1  0
  4  5  2  0
  5  6  1  0
  5  7  1  0
  7  8  2  0
  8  9  1  0
  9 10  2  0
 10 11  1  0
 11 12  1  0
 12 13  1  0
 13 14  1  0
 14 15  1  0
 15 16  1  0
 16 17  1  0
 17 18  1  0
 18 19  1  0
 19 20  1  0
 20 21  1  0
 21 22  1  0
 22 23  2  0
 22 24  1  0
 24 25  1  0
 25 26  1  0
 10  4  1  0
  1 27  1  0
  1 28  1  0
  1 29  1  0
  6 30  1  0
  7 31  1  0
  8 32  1  0
  9 33  1  0
 12 34  1  0
 12 35  1  0
 13 36  1  0
 13 37  1  0
 14 38  1  0
 14 39  1  0
 15 40  1  0
 15 41  1  0
 16 42  1  0
 16 43  1  0
 17 44  1  0
 17 45  1  0
 18 46  1  0
 18 47  1  0
 19 48  1  0
 19 49  1  0
 20 50  1  0
 20 51  1  0
 24 52  1  0
 24 53  1  0
 25 54  1  0
 25 55  1  0
 26 56  1  0
M  CHG  1  21  -1
M  END
>  <UniqueID>  (28) 
27

>  <SMILES>  (28) 
CC(=O)c1c(O)cccc1OCCCCCCCCC[N-]C(=O)CCO

>  <Energy>  (28) 
40.032664545364355

>  <Genealogy>  (28) 
CC(=O)c1c(O)cccc1OCCCCCCCCC[N-]C(=O)CCO (protonated)
CC(=O)c1c(O)cccc1OCCCCCCCCC[N-]C(=O)CCO (3D coordinates assigned)
CC(=O)c1c(O)cccc1OCCCCCCCCC[N-]C(=O)CCO (optimized conformer: 40.032664545364355 kcal/mol)

>  <smiles>  (28) 
CC(=O)c1c(O)cccc1OCCCCCCCCCNC(=O)CCO

>  <score_type>  (28) 
oracle

>  <origin>  (28) 
adg

>  <m_score__min__energy>  (28) 
-9.0600000000000005

>  <m_primary>  (28) 
energy

$$$$
28:0
     RDKit          3D

 24 24  0  0  0  0  0  0  0  0999 V2000
   -3.8620   25.6650  -30.8340 O   0  0  0  0  0  0  0  0  0  0  0  0
   -3.4440   24.6280  -30.2540 C   0  0  0  0  0  0  0  0  0  0  0  0
   -2.3940   24.7210  -29.3490 O   0  0  0  0  0  0  0  0  0  0  0  0
   -4.0620   23.2930  -30.5540 C   0  0  0  0  0  0  0  0  0  0  0  0
   -5.0900   23.3830  -31.6030 N   0  0  0  0  0  0  0  0  0  0  0  0
   -6.2610   22.5380  -31.3260 C   0  0  0  0  0  0  0  0  0  0  0  0
   -6.2070   21.2690  -32.1340 C   0  0  0  0  0  0  0  0  0  0  0  0
   -7.3640   20.4950  -32.3050 C   0  0  0  0  0  0  0  0  0  0  0  0
   -7.3250   19.3260  -33.0690 C   0  0  0  0  0  0  0  0  0  0  0  0
   -6.1290   18.9110  -33.6810 C   0  0  0  0  0  0  0  0  0  0  0  0
   -6.0920   17.7070  -34.4670 N   0  0  0  0  0  0  0  0  0  0  0  0
   -6.7590   16.7060  -34.1320 O   0  0  0  0  0  0  0  0  0  0  0  0
   -5.3200   17.6380  -35.6040 O   0  0  0  0  0  0  0  0  0  0  0  0
   -4.9720   19.6930  -33.5110 C   0  0  0  0  0  0  0  0  0  0  0  0
   -5.0120   20.8630  -32.7460 C   0  0  0  0  0  0  0  0  0  0  0  0
   -3.2728   22.6038  -30.8888 H   0  0  0  0  0  0  0  0  0  0  0  0
   -4.5457   22.9292  -29.6355 H   0  0  0  0  0  0  0  0  0  0  0  0
   -5.4070   24.3780  -31.6850 H   0  0  0  0  0  0  0  0  0  0  0  0
   -6.2774   22.2839  -30.2559 H   0  0  0  0  0  0  0  0  0  0  0  0
   -7.1698   23.0932  -31.6014 H   0  0  0  0  0  0  0  0  0  0  0  0
   -8.3073   20.8101  -31.8350 H   0  0  0  0  0  0  0  0  0  0  0  0
   -8.2379   18.7250  -33.1929 H   0  0  0  0  0  0  0  0  0  0  0  0
   -4.0286   19.3818  -33.9834 H   0  0  0  0  0  0  0  0  0  0  0  0
   -4.1015   21.4681  -32.6236 H   0  0  0  0  0  0  0  0  0  0  0  0
  1  2  2  0
  2  3  1  0
  2  4  1  0
  4  5  1  0
  5  6  1  0
  6  7  1  0
  7  8  2  0
  8  9  1  0
  9 10  2  0
 10 11  1  0
 11 12  2  0
 11 13  1  0
 10 14  1  0
 14 15  2  0
 15  7  1  0
  4 16  1  0
  4 17  1  0
  5 18  1  0
  6 19  1  0
  6 20  1  0
  8 21  1  0
  9 22  1  0
 14 23  1  0
 15 24  1  0
M  CHG  3   3  -1  11   1  13  -1
M  END
>  <UniqueID>  (29) 
28

>  <SMILES>  (29) 
O=C([O-])CNCc1ccc([N+](=O)[O-])cc1

>  <Energy>  (29) 
22.953172225525375

>  <Genealogy>  (29) 
O=C([O-])CNCc1ccc([N+](=O)[O-])cc1 (protonated)
O=C([O-])CNCc1ccc([N+](=O)[O-])cc1 (3D coordinates assigned)
O=C([O-])CNCc1ccc([N+](=O)[O-])cc1 (optimized conformer: 22.953172225525375 kcal/mol)

>  <smiles>  (29) 
O=C(O)CNCc1ccc([N+](=O)[O-])cc1

>  <score_type>  (29) 
oracle

>  <origin>  (29) 
adg

>  <m_score__min__energy>  (29) 
-8.7400000000000002

>  <m_primary>  (29) 
energy

$$$$
29:0
     RDKit          3D

 36 38  0  0  0  0  0  0  0  0999 V2000
   -1.8120   19.6780  -26.7100 C   0  0  0  0  0  0  0  0  0  0  0  0
   -3.0980   20.0750  -27.4270 C   0  0  0  0  0  0  0  0  0  0  0  0
   -2.8460   21.2140  -28.3610 C   0  0  0  0  0  0  0  0  0  0  0  0
   -3.1690   22.5360  -28.1460 C   0  0  0  0  0  0  0  0  0  0  0  0
   -2.6890   23.1740  -29.2730 C   0  0  0  0  0  0  0  0  0  0  0  0
   -2.7890   24.6240  -29.5430 C   0  0  0  0  0  0  0  0  0  0  0  0
   -1.9980   25.4060  -28.9540 O   0  0  0  0  0  0  0  0  0  0  0  0
   -3.7430   25.1830  -30.4590 N   0  0  0  0  0  0  0  0  0  0  0  0
   -5.1460   24.8010  -30.5980 C   0  0  0  0  0  0  0  0  0  0  0  0
   -5.2680   23.5040  -31.3430 C   0  0  0  0  0  0  0  0  0  0  0  0
   -4.2340   22.8830  -31.9610 N   0  0  0  0  0  0  0  0  0  0  0  0
   -4.7010   21.7780  -32.5320 N   0  0  0  0  0  0  0  0  0  0  0  0
   -3.8820   20.8470  -33.2980 C   0  0  0  0  0  0  0  0  0  0  0  0
   -6.0240   21.6940  -32.3020 C   0  0  0  0  0  0  0  0  0  0  0  0
   -6.9270   20.7110  -32.7120 C   0  0  0  0  0  0  0  0  0  0  0  0
   -8.2740   20.8650  -32.3360 C   0  0  0  0  0  0  0  0  0  0  0  0
   -8.6820   21.9820  -31.5720 C   0  0  0  0  0  0  0  0  0  0  0  0
   -7.7470   22.9540  -31.1700 C   0  0  0  0  0  0  0  0  0  0  0  0
   -6.4210   22.7700  -31.5590 C   0  0  0  0  0  0  0  0  0  0  0  0
   -2.1270   22.2680  -30.0950 N   0  0  0  0  0  0  0  0  0  0  0  0
   -2.2340   21.1080  -29.5170 O   0  0  0  0  0  0  0  0  0  0  0  0
   -1.9687   19.7264  -25.6223 H   0  0  0  0  0  0  0  0  0  0  0  0
   -1.5348   18.6524  -26.9953 H   0  0  0  0  0  0  0  0  0  0  0  0
   -1.0049   20.3688  -26.9953 H   0  0  0  0  0  0  0  0  0  0  0  0
   -3.4741   19.2141  -27.9991 H   0  0  0  0  0  0  0  0  0  0  0  0
   -3.8412   20.3865  -26.6783 H   0  0  0  0  0  0  0  0  0  0  0  0
   -3.6864   22.9783  -27.2819 H   0  0  0  0  0  0  0  0  0  0  0  0
   -5.5906   24.6871  -29.5983 H   0  0  0  0  0  0  0  0  0  0  0  0
   -5.6733   25.5850  -31.1613 H   0  0  0  0  0  0  0  0  0  0  0  0
   -3.3160   20.2035  -32.6084 H   0  0  0  0  0  0  0  0  0  0  0  0
   -4.5303   20.2242  -33.9319 H   0  0  0  0  0  0  0  0  0  0  0  0
   -3.1816   21.4106  -33.9319 H   0  0  0  0  0  0  0  0  0  0  0  0
   -6.5970   19.8471  -33.3077 H   0  0  0  0  0  0  0  0  0  0  0  0
   -9.0150   20.1106  -32.6388 H   0  0  0  0  0  0  0  0  0  0  0  0
   -9.7393   22.0925  -31.2892 H   0  0  0  0  0  0  0  0  0  0  0  0
   -8.0509   23.8256  -30.5717 H   0  0  0  0  0  0  0  0  0  0  0  0
  1  2  1  0
  2  3  1  0
  3  4  2  0
  4  5  1  0
  5  6  1  0
  6  7  2  0
  6  8  1  0
  8  9  1  0
  9 10  1  0
 10 11  2  0
 11 12  1  0
 12 13  1  0
 12 14  1  0
 14 15  2  0
 15 16  1  0
 16 17  2  0
 17 18  1  0
 18 19  2  0
  5 20  2  0
 20 21  1  0
 21  3  1  0
 19 10  1  0
 19 14  1  0
  1 22  1  0
  1 23  1  0
  1 24  1  0
  2 25  1  0
  2 26  1  0
  4 27  1  0
  9 28  1  0
  9 29  1  0
 13 30  1  0
 13 31  1  0
 13 32  1  0
 15 33  1  0
 16 34  1  0
 17 35  1  0
 18 36  1  0
M  CHG  1   8  -1
M  END
>  <UniqueID>  (30) 
29

>  <SMILES>  (30) 
CCc1cc(C(=O)[N-]Cc2nn(C)c3ccccc23)no1

>  <Energy>  (30) 
100.92374789059498

>  <Genealogy>  (30) 
CCc1cc(C(=O)[N-]Cc2nn(C)c3ccccc23)no1 (protonated)
CCc1cc(C(=O)[N-]Cc2nn(C)c3ccccc23)no1 (3D coordinates assigned)
CCc1cc(C(=O)[N-]Cc2nn(C)c3ccccc23)no1 (optimized conformer: 100.92374789059498 kcal/mol)

>  <smiles>  (30) 
CCc1cc(C(=O)NCc2nn(C)c3ccccc23)no1

>  <score_type>  (30) 
oracle

>  <origin>  (30) 
adg

>  <m_score__min__energy>  (30) 
-9.6500000000000004

>  <m_primary>  (30) 
energy

$$$$
30:0
     RDKit          3D

 43 46  0  0  0  0  0  0  0  0999 V2000
   -4.8830   21.4490  -32.7110 C   0  0  0  0  0  0  0  0  0  0  0  0
   -6.3630   21.3400  -32.4520 C   0  0  0  0  0  0  0  0  0  0  0  0
   -7.0880   22.4990  -32.1310 C   0  0  0  0  0  0  0  0  0  0  0  0
   -8.4600   22.4320  -31.8910 C   0  0  0  0  0  0  0  0  0  0  0  0
   -9.1250   21.2100  -31.9580 C   0  0  0  0  0  0  0  0  0  0  0  0
   -8.4240   20.0300  -32.2550 C   0  0  0  0  0  0  0  0  0  0  0  0
   -9.1730   18.7240  -32.3140 C   0  0  0  0  0  0  0  0  0  0  0  0
   -7.0320   20.0930  -32.5100 C   0  0  0  0  0  0  0  0  0  0  0  0
   -6.2800   18.8600  -32.8350 C   0  0  0  0  0  0  0  0  0  0  0  0
   -5.6950   18.7050  -34.0980 C   0  0  0  0  0  0  0  0  0  0  0  0
   -4.9840   17.5450  -34.4100 C   0  0  0  0  0  0  0  0  0  0  0  0
   -4.8340   16.5210  -33.4530 C   0  0  0  0  0  0  0  0  0  0  0  0
   -4.1220   15.3250  -33.7090 C   0  0  0  0  0  0  0  0  0  0  0  0
   -3.3930   15.0770  -34.9710 C   0  0  0  0  0  0  0  0  0  0  0  0
   -3.8160   14.0520  -35.8320 C   0  0  0  0  0  0  0  0  0  0  0  0
   -3.1120   13.7870  -37.0100 C   0  0  0  0  0  0  0  0  0  0  0  0
   -1.9730   14.5320  -37.3290 C   0  0  0  0  0  0  0  0  0  0  0  0
   -1.2900   14.2720  -38.4710 F   0  0  0  0  0  0  0  0  0  0  0  0
   -1.5330   15.5400  -36.4650 C   0  0  0  0  0  0  0  0  0  0  0  0
   -2.2350   15.8070  -35.2860 C   0  0  0  0  0  0  0  0  0  0  0  0
   -4.0900   14.3560  -32.7560 N   0  0  0  0  0  0  0  0  0  0  0  0
   -4.7000   14.5150  -31.5540 C   0  0  0  0  0  0  0  0  0  0  0  0
   -5.3630   15.6640  -31.2680 N   0  0  0  0  0  0  0  0  0  0  0  0
   -5.4490   16.6670  -32.1860 C   0  0  0  0  0  0  0  0  0  0  0  0
   -6.1590   17.8390  -31.8840 C   0  0  0  0  0  0  0  0  0  0  0  0
   -4.3449   21.4886  -31.7524 H   0  0  0  0  0  0  0  0  0  0  0  0
   -4.5457   20.5733  -33.2849 H   0  0  0  0  0  0  0  0  0  0  0  0
   -4.6776   22.3647  -33.2849 H   0  0  0  0  0  0  0  0  0  0  0  0
   -6.5696   23.4672  -32.0684 H   0  0  0  0  0  0  0  0  0  0  0  0
   -9.0191   23.3476  -31.6479 H   0  0  0  0  0  0  0  0  0  0  0  0
  -10.2092   21.1689  -31.7766 H   0  0  0  0  0  0  0  0  0  0  0  0
   -9.3755   18.3710  -31.2921 H   0  0  0  0  0  0  0  0  0  0  0  0
  -10.1243   18.8706  -32.8465 H   0  0  0  0  0  0  0  0  0  0  0  0
   -8.5661   17.9770  -32.8465 H   0  0  0  0  0  0  0  0  0  0  0  0
   -5.7965   19.5024  -34.8489 H   0  0  0  0  0  0  0  0  0  0  0  0
   -4.5380   17.4293  -35.4088 H   0  0  0  0  0  0  0  0  0  0  0  0
   -4.7047   13.4553  -35.5786 H   0  0  0  0  0  0  0  0  0  0  0  0
   -3.4548   12.9909  -37.6872 H   0  0  0  0  0  0  0  0  0  0  0  0
   -0.6339   16.1231  -36.7134 H   0  0  0  0  0  0  0  0  0  0  0  0
   -1.8792   16.5918  -34.6023 H   0  0  0  0  0  0  0  0  0  0  0  0
   -4.6567   13.7081  -30.8076 H   0  0  0  0  0  0  0  0  0  0  0  0
   -5.8160   15.7600  -30.3320 H   0  0  0  0  0  0  0  0  0  0  0  0
   -6.6236   17.9566  -30.8939 H   0  0  0  0  0  0  0  0  0  0  0  0
  1  2  1  0
  2  3  2  0
  3  4  1  0
  4  5  2  0
  5  6  1  0
  6  7  1  0
  6  8  2  0
  8  9  1  0
  9 10  2  0
 10 11  1  0
 11 12  2  0
 12 13  1  0
 13 14  1  0
 14 15  2  0
 15 16  1  0
 16 17  2  0
 17 18  1  0
 17 19  1  0
 19 20  2  0
 13 21  2  0
 21 22  1  0
 22 23  2  0
 23 24  1  0
 24 25  2  0
  8  2  1  0
 25  9  1  0
 24 12  1  0
 20 14  1  0
  1 26  1  0
  1 27  1  0
  1 28  1  0
  3 29  1  0
  4 30  1  0
  5 31  1  0
  7 32  1  0
  7 33  1  0
  7 34  1  0
 10 35  1  0
 11 36  1  0
 15 37  1  0
 16 38  1  0
 19 39  1  0
 20 40  1  0
 22 41  1  0
 23 42  1  0
 25 43  1  0
M  CHG  1  23   1
M  END
>  <UniqueID>  (31) 
30

>  <SMILES>  (31) 
Cc1cccc(C)c1-c1ccc2c(-c3ccc(F)cc3)nc[nH+]c2c1

>  <Energy>  (31) 
67.39230275195852

>  <Genealogy>  (31) 
Cc1cccc(C)c1-c1ccc2c(-c3ccc(F)cc3)nc[nH+]c2c1 (protonated)
Cc1cccc(C)c1-c1ccc2c(-c3ccc(F)cc3)nc[nH+]c2c1 (3D coordinates assigned)
Cc1cccc(C)c1-c1ccc2c(-c3ccc(F)cc3)nc[nH+]c2c1 (optimized conformer: 67.39230275195852 kcal/mol)

>  <smiles>  (31) 
Cc1cccc(C)c1-c1ccc2c(-c3ccc(F)cc3)ncnc2c1

>  <score_type>  (31) 
oracle

>  <origin>  (31) 
adg

>  <m_score__min__energy>  (31) 
-7.7699999999999996

>  <m_primary>  (31) 
energy

$$$$
31:0
     RDKit          3D

 53 56  0  0  0  0  0  0  0  0999 V2000
   -7.2570   18.7600  -32.6910 C   0  0  0  0  0  0  0  0  0  0  0  0
   -8.2560   19.2930  -31.6590 C   0  0  0  0  0  0  0  0  0  0  0  0
   -7.9860   20.7430  -31.1930 C   0  0  2  0  0  0  0  0  0  0  0  0
   -9.1710   21.7050  -31.5000 C   0  0  0  0  0  0  0  0  0  0  0  0
   -8.7300   23.0890  -32.0080 C   0  0  0  0  0  0  0  0  0  0  0  0
   -7.5330   23.6260  -31.2140 C   0  0  0  0  0  0  0  0  0  0  0  0
   -6.4370   22.6470  -31.1760 N   0  0  0  0  0  0  0  0  0  0  0  0
   -5.2260   22.9770  -30.4820 C   0  0  0  0  0  0  0  0  0  0  0  0
   -5.3010   23.5610  -29.2530 N   0  0  0  0  0  0  0  0  0  0  0  0
   -4.1800   23.9400  -28.5800 C   0  0  0  0  0  0  0  0  0  0  0  0
   -4.2610   24.5510  -27.3190 C   0  0  0  0  0  0  0  0  0  0  0  0
   -3.0930   24.9360  -26.6520 C   0  0  0  0  0  0  0  0  0  0  0  0
   -1.8420   24.7140  -27.2380 C   0  0  0  0  0  0  0  0  0  0  0  0
   -1.7530   24.1050  -28.4940 C   0  0  0  0  0  0  0  0  0  0  0  0
   -2.9180   23.7180  -29.1660 C   0  0  0  0  0  0  0  0  0  0  0  0
   -2.8450   23.1240  -30.3820 N   0  0  0  0  0  0  0  0  0  0  0  0
   -3.9590   22.7440  -31.0650 C   0  0  0  0  0  0  0  0  0  0  0  0
   -3.8010   22.0470  -32.3630 C   0  0  0  0  0  0  0  0  0  0  0  0
   -4.2400   22.5940  -33.4120 O   0  0  0  0  0  0  0  0  0  0  0  0
   -3.1830   20.7460  -32.4510 N   0  0  0  0  0  0  0  0  0  0  0  0
   -3.6730   19.7670  -33.4270 C   0  0  0  0  0  0  0  0  0  0  0  0
   -2.5190   18.8790  -33.9010 C   0  0  0  0  0  0  0  0  0  0  0  0
   -1.8270   18.3230  -32.8000 O   0  0  0  0  0  0  0  0  0  0  0  0
   -1.1950   19.3550  -32.0660 C   0  0  0  0  0  0  0  0  0  0  0  0
   -2.2330   20.2850  -31.4300 C   0  0  0  0  0  0  0  0  0  0  0  0
   -6.6340   21.2890  -31.6930 C   0  0  0  0  0  0  0  0  0  0  0  0
   -6.4015   18.3036  -32.1715 H   0  0  0  0  0  0  0  0  0  0  0  0
   -7.7489   18.0044  -33.3212 H   0  0  0  0  0  0  0  0  0  0  0  0
   -6.9033   19.5893  -33.3212 H   0  0  0  0  0  0  0  0  0  0  0  0
   -9.2614   19.2568  -32.1038 H   0  0  0  0  0  0  0  0  0  0  0  0
   -8.1558   18.6549  -30.7686 H   0  0  0  0  0  0  0  0  0  0  0  0
   -7.9080   20.6968  -30.0967 H   0  0  0  0  0  0  0  0  0  0  0  0
   -9.8059   21.2394  -32.2682 H   0  0  0  0  0  0  0  0  0  0  0  0
   -9.7070   21.8665  -30.5531 H   0  0  0  0  0  0  0  0  0  0  0  0
   -8.4476   23.0070  -33.0680 H   0  0  0  0  0  0  0  0  0  0  0  0
   -9.5702   23.7871  -31.8785 H   0  0  0  0  0  0  0  0  0  0  0  0
   -7.1723   24.5499  -31.6898 H   0  0  0  0  0  0  0  0  0  0  0  0
   -7.8598   23.8227  -30.1823 H   0  0  0  0  0  0  0  0  0  0  0  0
   -6.2430   23.7330  -28.8320 H   0  0  0  0  0  0  0  0  0  0  0  0
   -5.2428   24.7271  -26.8552 H   0  0  0  0  0  0  0  0  0  0  0  0
   -3.1584   25.4147  -25.6638 H   0  0  0  0  0  0  0  0  0  0  0  0
   -0.9266   25.0190  -26.7098 H   0  0  0  0  0  0  0  0  0  0  0  0
   -0.7687   23.9305  -28.9530 H   0  0  0  0  0  0  0  0  0  0  0  0
   -4.4461   19.1405  -32.9582 H   0  0  0  0  0  0  0  0  0  0  0  0
   -4.0980   20.2992  -34.2908 H   0  0  0  0  0  0  0  0  0  0  0  0
   -2.9219   18.0652  -34.5218 H   0  0  0  0  0  0  0  0  0  0  0  0
   -1.8175   19.4943  -34.4836 H   0  0  0  0  0  0  0  0  0  0  0  0
   -0.5779   18.9075  -31.2730 H   0  0  0  0  0  0  0  0  0  0  0  0
   -0.5687   19.9432  -32.7528 H   0  0  0  0  0  0  0  0  0  0  0  0
   -2.7775   19.7408  -30.6443 H   0  0  0  0  0  0  0  0  0  0  0  0
   -1.7206   21.1547  -30.9929 H   0  0  0  0  0  0  0  0  0  0  0  0
   -6.6309   21.3108  -32.7928 H   0  0  0  0  0  0  0  0  0  0  0  0
   -5.8208   20.6388  -31.3382 H   0  0  0  0  0  0  0  0  0  0  0  0
  1  2  1  0
  2  3  1  0
  3  4  1  0
  4  5  1  0
  5  6  1  0
  6  7  1  0
  7  8  1  0
  8  9  2  0
  9 10  1  0
 10 11  2  0
 11 12  1  0
 12 13  2  0
 13 14  1  0
 14 15  2  0
 15 16  1  0
 16 17  2  0
 17 18  1  0
 18 19  2  0
 18 20  1  0
 20 21  1  0
 21 22  1  0
 22 23  1  0
 23 24  1  0
 24 25  1  0
  7 26  1  0
 26  3  1  0
 17  8  1  0
 25 20  1  0
 15 10  1  0
  1 27  1  0
  1 28  1  0
  1 29  1  0
  2 30  1  0
  2 31  1  0
  3 32  1  1
  4 33  1  0
  4 34  1  0
  5 35  1  0
  5 36  1  0
  6 37  1  0
  6 38  1  0
  9 39  1  0
 11 40  1  0
 12 41  1  0
 13 42  1  0
 14 43  1  0
 21 44  1  0
 21 45  1  0
 22 46  1  0
 22 47  1  0
 24 48  1  0
 24 49  1  0
 25 50  1  0
 25 51  1  0
 26 52  1  0
 26 53  1  0
M  CHG  1   9   1
M  END
>  <UniqueID>  (32) 
31

>  <SMILES>  (32) 
CC[C@@H]1CCCN(c2[nH+]c3ccccc3nc2C(=O)N2CCOCC2)C1

>  <Energy>  (32) 
69.52512206077151

>  <Genealogy>  (32) 
CCC1CCCN(c2[nH+]c3ccccc3nc2C(=O)N2CCOCC2)C1 (protonated)
CC[C@@H]1CCCN(c2[nH+]c3ccccc3nc2C(=O)N2CCOCC2)C1 (chirality)
CC[C@@H]1CCCN(c2[nH+]c3ccccc3nc2C(=O)N2CCOCC2)C1 (3D coordinates assigned)
CC[C@@H]1CCCN(c2[nH+]c3ccccc3nc2C(=O)N2CCOCC2)C1 (nonaromatic ring conformer: 69.52512206077151 kcal/mol)

>  <smiles>  (32) 
CCC1CCCN(c2nc3ccccc3nc2C(=O)N2CCOCC2)C1

>  <score_type>  (32) 
oracle

>  <origin>  (32) 
adg

>  <m_score__min__energy>  (32) 
-7.8099999999999996

>  <m_primary>  (32) 
energy

$$$$
32:0
     RDKit          3D

 53 55  0  0  0  0  0  0  0  0999 V2000
   -0.1419   16.3556  -35.6956 H   0  0  0  0  0  0  0  0  0  0  0  0
   -0.0920   17.4500  -35.5970 C   0  0  0  0  0  0  0  0  0  0  0  0
   -0.8220   18.0910  -34.5920 C   0  0  0  0  0  0  0  0  0  0  0  0
   -1.4313   17.4955  -33.8962 H   0  0  0  0  0  0  0  0  0  0  0  0
   -0.7840   19.4910  -34.4630 C   0  0  0  0  0  0  0  0  0  0  0  0
   -1.5450   20.1790  -33.3900 C   0  0  0  0  0  0  0  0  0  0  0  0
   -1.1370   20.1130  -32.1970 O   0  0  0  0  0  0  0  0  0  0  0  0
   -2.7180   20.9550  -33.6970 N   0  0  0  0  0  0  0  0  0  0  0  0
   -2.6820   21.5340  -34.5670 H   0  0  0  0  0  0  0  0  0  0  0  0
   -3.7950   21.0050  -32.9520 C   0  0  0  0  0  0  0  0  0  0  0  0
   -4.1400   22.2120  -32.1600 C   0  0  0  0  0  0  0  0  0  0  0  0
   -3.2550   22.7120  -31.1910 C   0  0  0  0  0  0  0  0  0  0  0  0
   -2.2883   22.2141  -31.0246 H   0  0  0  0  0  0  0  0  0  0  0  0
   -3.5950   23.8380  -30.4370 C   0  0  0  0  0  0  0  0  0  0  0  0
   -2.8905   24.2291  -29.6882 H   0  0  0  0  0  0  0  0  0  0  0  0
   -4.8360   24.4740  -30.6320 C   0  0  0  0  0  0  0  0  0  0  0  0
   -5.2250   25.6070  -29.9010 O   0  0  0  0  0  0  0  0  0  0  0  0
   -6.4790   25.7450  -29.2420 C   0  0  0  0  0  0  0  0  0  0  0  0
   -6.3248   25.7280  -28.1530 H   0  0  0  0  0  0  0  0  0  0  0  0
   -6.9424   26.6996  -29.5318 H   0  0  0  0  0  0  0  0  0  0  0  0
   -7.1389   24.9141  -29.5318 H   0  0  0  0  0  0  0  0  0  0  0  0
   -5.7230   23.9630  -31.5870 C   0  0  0  0  0  0  0  0  0  0  0  0
   -6.6971   24.4498  -31.7423 H   0  0  0  0  0  0  0  0  0  0  0  0
   -5.3810   22.8390  -32.3450 C   0  0  0  0  0  0  0  0  0  0  0  0
   -6.0882   22.4447  -33.0896 H   0  0  0  0  0  0  0  0  0  0  0  0
   -4.6500   19.8470  -32.8570 N   0  0  0  0  0  0  0  0  0  0  0  0
   -4.9440   19.0360  -34.0420 C   0  0  0  0  0  0  0  0  0  0  0  0
   -4.8150   19.6475  -34.9472 H   0  0  0  0  0  0  0  0  0  0  0  0
   -4.2570   18.1778  -34.0813 H   0  0  0  0  0  0  0  0  0  0  0  0
   -6.3890   18.5340  -33.9650 C   0  0  0  0  0  0  0  0  0  0  0  0
   -7.0642   19.4024  -33.9731 H   0  0  0  0  0  0  0  0  0  0  0  0
   -6.5596   17.8781  -34.8314 H   0  0  0  0  0  0  0  0  0  0  0  0
   -6.6540   17.7380  -32.7410 N   0  0  0  0  0  0  0  0  0  0  0  0
   -8.0680   17.8420  -32.3500 C   0  0  0  0  0  0  0  0  0  0  0  0
   -8.1455   17.8477  -31.2527 H   0  0  0  0  0  0  0  0  0  0  0  0
   -8.4921   18.7738  -32.7524 H   0  0  0  0  0  0  0  0  0  0  0  0
   -8.6239   16.9823  -32.7524 H   0  0  0  0  0  0  0  0  0  0  0  0
   -5.7560   18.0340  -31.5960 C   0  0  0  0  0  0  0  0  0  0  0  0
   -6.3009   17.8324  -30.6619 H   0  0  0  0  0  0  0  0  0  0  0  0
   -4.8681   17.3931  -31.6999 H   0  0  0  0  0  0  0  0  0  0  0  0
   -5.2710   19.4910  -31.5750 C   0  0  0  0  0  0  0  0  0  0  0  0
   -6.1287   20.1550  -31.3919 H   0  0  0  0  0  0  0  0  0  0  0  0
   -4.5244   19.6049  -30.7753 H   0  0  0  0  0  0  0  0  0  0  0  0
    0.0160   20.2320  -35.3520 C   0  0  0  0  0  0  0  0  0  0  0  0
    0.0633   21.3271  -35.2600 H   0  0  0  0  0  0  0  0  0  0  0  0
    0.7510   19.5880  -36.3510 C   0  0  0  0  0  0  0  0  0  0  0  0
    1.3706   20.1810  -37.0398 H   0  0  0  0  0  0  0  0  0  0  0  0
    0.7060   18.1960  -36.4830 C   0  0  0  0  0  0  0  0  0  0  0  0
    1.4670   17.5980  -37.4990 O   0  0  0  0  0  0  0  0  0  0  0  0
    0.9990   16.5530  -38.3440 C   0  0  0  0  0  0  0  0  0  0  0  0
    0.6267   15.7217  -37.7273 H   0  0  0  0  0  0  0  0  0  0  0  0
    0.1846   16.9319  -38.9790 H   0  0  0  0  0  0  0  0  0  0  0  0
    1.8240   16.1977  -38.9790 H   0  0  0  0  0  0  0  0  0  0  0  0
  1  2  1  0
  2  3  2  0
  3  4  1  0
  3  5  1  0
  5  6  1  0
  6  7  2  0
  6  8  1  0
  8  9  1  0
  8 10  2  0
 10 11  1  0
 11 12  2  0
 12 13  1  0
 12 14  1  0
 14 15  1  0
 14 16  2  0
 16 17  1  0
 17 18  1  0
 18 19  1  0
 18 20  1  0
 18 21  1  0
 16 22  1  0
 22 23  1  0
 22 24  2  0
 24 25  1  0
 10 26  1  0
 26 27  1  0
 27 28  1  0
 27 29  1  0
 27 30  1  0
 30 31  1  0
 30 32  1  0
 30 33  1  0
 33 34  1  0
 34 35  1  0
 34 36  1  0
 34 37  1  0
 33 38  1  0
 38 39  1  0
 38 40  1  0
 38 41  1  0
 41 42  1  0
 41 43  1  0
  5 44  2  0
 44 45  1  0
 44 46  1  0
 46 47  1  0
 46 48  2  0
 48 49  1  0
 49 50  1  0
 50 51  1  0
 50 52  1  0
 50 53  1  0
 48  2  1  0
 24 11  1  0
 41 26  1  0
M  CHG  1   8   1
M  END
>  <UniqueID>  (33) 
32

>  <SMILES>  (33) 
COc1ccc(C(=O)/[NH+]=C(\c2ccc(OC)cc2)N2CCN(C)CC2)cc1

>  <Energy>  (33) 
72.92911117884074

>  <Genealogy>  (33) 
COc1ccc(C(=O)[NH+]=C(c2ccc(OC)cc2)N2CCN(C)CC2)cc1 (protonated)
COc1ccc(C(=O)/[NH+]=C(\c2ccc(OC)cc2)N2CCN(C)CC2)cc1 (cis-trans isomerization)
COc1ccc(C(=O)/[NH+]=C(\c2ccc(OC)cc2)N2CCN(C)CC2)cc1 (3D coordinates assigned)
COc1ccc(C(=O)/[NH+]=C(\c2ccc(OC)cc2)N2CCN(C)CC2)cc1 (nonaromatic ring conformer: 72.92911117884074 kcal/mol)

>  <smiles>  (33) 
COc1ccc(C(=O)N=C(c2ccc(OC)cc2)N2CCN(C)CC2)cc1

>  <score_type>  (33) 
oracle

>  <origin>  (33) 
adg

>  <m_score__min__energy>  (33) 
-7.5499999999999998

>  <m_primary>  (33) 
energy

$$$$
33:0
     RDKit          3D

 43 44  0  0  0  0  0  0  0  0999 V2000
   -0.1866   20.1822  -29.9887 H   0  0  0  0  0  0  0  0  0  0  0  0
   -0.5980   20.8890  -29.2530 C   0  0  0  0  0  0  0  0  0  0  0  0
   -0.8500   22.2130  -29.6230 C   0  0  0  0  0  0  0  0  0  0  0  0
   -0.6449   22.5416  -30.6525 H   0  0  0  0  0  0  0  0  0  0  0  0
   -1.3640   23.1270  -28.6870 C   0  0  0  0  0  0  0  0  0  0  0  0
   -1.6470   24.5270  -29.0630 C   0  0  0  0  0  0  0  0  0  0  0  0
   -0.7750   25.4090  -28.8420 O   0  0  0  0  0  0  0  0  0  0  0  0
   -2.8620   24.9170  -29.7180 N   0  0  0  0  0  0  0  0  0  0  0  0
   -3.9660   24.0270  -30.0560 C   0  0  0  0  0  0  0  0  0  0  0  0
   -4.4284   23.6452  -29.1338 H   0  0  0  0  0  0  0  0  0  0  0  0
   -3.5934   23.1786  -30.6488 H   0  0  0  0  0  0  0  0  0  0  0  0
   -4.9760   24.7900  -30.8440 C   0  0  0  0  0  0  0  0  0  0  0  0
   -4.9680   26.0510  -30.8210 O   0  0  0  0  0  0  0  0  0  0  0  0
   -5.9540   24.0940  -31.5650 O   0  0  0  0  0  0  0  0  0  0  0  0
   -7.2380   23.7730  -31.0300 C   0  0  0  0  0  0  0  0  0  0  0  0
   -7.8122   24.7003  -30.8875 H   0  0  0  0  0  0  0  0  0  0  0  0
   -7.1021   23.2575  -30.0678 H   0  0  0  0  0  0  0  0  0  0  0  0
   -7.9880   22.8670  -31.9620 C   0  0  0  0  0  0  0  0  0  0  0  0
   -9.2460   22.9360  -32.0040 O   0  0  0  0  0  0  0  0  0  0  0  0
   -7.2810   21.8430  -32.6860 N   0  0  0  0  0  0  0  0  0  0  0  0
   -7.3250   20.5440  -32.5380 C   0  0  0  0  0  0  0  0  0  0  0  0
   -8.5150   19.8810  -32.1600 C   0  0  0  0  0  0  0  0  0  0  0  0
   -9.4359   20.4573  -31.9870 H   0  0  0  0  0  0  0  0  0  0  0  0
   -8.5190   18.4960  -32.0070 C   0  0  0  0  0  0  0  0  0  0  0  0
   -9.4420   17.9781  -31.7074 H   0  0  0  0  0  0  0  0  0  0  0  0
   -7.3570   17.7700  -32.2330 C   0  0  0  0  0  0  0  0  0  0  0  0
   -7.3505   16.6779  -32.1012 H   0  0  0  0  0  0  0  0  0  0  0  0
   -6.2000   18.4370  -32.6280 C   0  0  0  0  0  0  0  0  0  0  0  0
   -5.2788   17.8639  -32.8093 H   0  0  0  0  0  0  0  0  0  0  0  0
   -6.1930   19.7970  -32.7940 N   0  0  0  0  0  0  0  0  0  0  0  0
   -4.9270   20.4390  -33.1950 C   0  0  0  0  0  0  0  0  0  0  0  0
   -5.1392   21.2317  -33.9275 H   0  0  0  0  0  0  0  0  0  0  0  0
   -4.2677   19.6788  -33.6393 H   0  0  0  0  0  0  0  0  0  0  0  0
   -4.2300   21.0490  -31.9830 C   0  0  0  0  0  0  0  0  0  0  0  0
   -4.6825   20.6529  -31.0619 H   0  0  0  0  0  0  0  0  0  0  0  0
   -3.1609   20.7911  -32.0065 H   0  0  0  0  0  0  0  0  0  0  0  0
   -4.3439   22.1428  -32.0065 H   0  0  0  0  0  0  0  0  0  0  0  0
   -1.6530   22.6840  -27.3850 C   0  0  0  0  0  0  0  0  0  0  0  0
   -2.0805   23.3834  -26.6515 H   0  0  0  0  0  0  0  0  0  0  0  0
   -1.4000   21.3590  -27.0170 C   0  0  0  0  0  0  0  0  0  0  0  0
   -1.6195   21.0220  -25.9932 H   0  0  0  0  0  0  0  0  0  0  0  0
   -0.8680   20.4610  -27.9490 C   0  0  0  0  0  0  0  0  0  0  0  0
   -0.5540   18.7980  -27.4850 Cl  0  0  0  0  0  0  0  0  0  0  0  0
  1  2  1  0
  2  3  2  0
  3  4  1  0
  3  5  1  0
  5  6  1  0
  6  7  2  0
  6  8  1  0
  8  9  1  0
  9 10  1  0
  9 11  1  0
  9 12  1  0
 12 13  2  0
 12 14  1  0
 14 15  1  0
 15 16  1  0
 15 17  1  0
 15 18  1  0
 18 19  2  0
 18 20  1  0
 20 21  2  0
 21 22  1  0
 22 23  1  0
 22 24  2  0
 24 25  1  0
 24 26  1  0
 26 27  1  0
 26 28  2  0
 28 29  1  0
 28 30  1  0
 30 31  1  0
 31 32  1  0
 31 33  1  0
 31 34  1  0
 34 35  1  0
 34 36  1  0
 34 37  1  0
  5 38  2  0
 38 39  1  0
 38 40  1  0
 40 41  1  0
 40 42  2  0
 42 43  1  0
 42  2  1  0
 30 21  1  0
M  CHG  1   8  -1
M  END
>  <UniqueID>  (34) 
33

>  <SMILES>  (34) 
CCn1cccc/c1=N\C(=O)COC(=O)C[N-]C(=O)c1ccc(Cl)cc1

>  <Energy>  (34) 
49.97254827130292

>  <Genealogy>  (34) 
CCn1ccccc1=NC(=O)COC(=O)C[N-]C(=O)c1ccc(Cl)cc1 (protonated)
CCn1cccc/c1=N\C(=O)COC(=O)C[N-]C(=O)c1ccc(Cl)cc1 (cis-trans isomerization)
CCn1cccc/c1=N\C(=O)COC(=O)C[N-]C(=O)c1ccc(Cl)cc1 (3D coordinates assigned)
CCn1cccc/c1=N\C(=O)COC(=O)C[N-]C(=O)c1ccc(Cl)cc1 (optimized conformer: 49.97254827130292 kcal/mol)

>  <smiles>  (34) 
CCn1ccccc1=NC(=O)COC(=O)CNC(=O)c1ccc(Cl)cc1

>  <score_type>  (34) 
oracle

>  <origin>  (34) 
adg

>  <m_score__min__energy>  (34) 
-9.8200000000000003

>  <m_primary>  (34) 
energy

$$$$
34:0
     RDKit          3D

 34 36  0  0  0  0  0  0  0  0999 V2000
   -1.6540   21.0000  -27.0250 C   0  0  0  0  0  0  0  0  0  0  0  0
   -1.8820   22.4000  -27.1360 O   0  0  0  0  0  0  0  0  0  0  0  0
   -2.7680   22.9910  -28.0510 C   0  0  0  0  0  0  0  0  0  0  0  0
   -3.7100   23.9020  -27.5650 C   0  0  0  0  0  0  0  0  0  0  0  0
   -4.6130   24.5190  -28.4320 C   0  0  0  0  0  0  0  0  0  0  0  0
   -4.5830   24.2330  -29.8010 C   0  0  0  0  0  0  0  0  0  0  0  0
   -5.7500   25.0500  -30.8930 S   0  0  0  0  0  0  0  0  0  0  0  0
   -6.5600   23.5090  -31.3060 C   0  0  0  0  0  0  0  0  0  0  0  0
   -6.1660   22.7060  -32.3230 N   0  0  0  0  0  0  0  0  0  0  0  0
   -7.0460   21.6960  -32.2750 C   0  0  0  0  0  0  0  0  0  0  0  0
   -7.1280   20.5730  -33.0950 C   0  0  0  0  0  0  0  0  0  0  0  0
   -8.1610   19.6520  -32.8310 C   0  0  0  0  0  0  0  0  0  0  0  0
   -9.0700   19.8780  -31.7710 C   0  0  0  0  0  0  0  0  0  0  0  0
   -8.9550   21.0260  -30.9630 C   0  0  0  0  0  0  0  0  0  0  0  0
   -7.9230   21.9140  -31.2530 C   0  0  0  0  0  0  0  0  0  0  0  0
   -7.6130   23.0400  -30.6580 O   0  0  0  0  0  0  0  0  0  0  0  0
   -3.6470   23.3180  -30.3110 C   0  0  0  0  0  0  0  0  0  0  0  0
   -3.6450   23.0530  -31.6900 O   0  0  0  0  0  0  0  0  0  0  0  0
   -3.0440   21.9140  -32.2930 C   0  0  0  0  0  0  0  0  0  0  0  0
   -2.7380   22.7000  -29.4280 C   0  0  0  0  0  0  0  0  0  0  0  0
   -1.6082   20.7191  -25.9625 H   0  0  0  0  0  0  0  0  0  0  0  0
   -2.4752   20.4549  -27.5134 H   0  0  0  0  0  0  0  0  0  0  0  0
   -0.7023   20.7436  -27.5134 H   0  0  0  0  0  0  0  0  0  0  0  0
   -3.7399   24.1346  -26.4903 H   0  0  0  0  0  0  0  0  0  0  0  0
   -5.3510   25.2328  -28.0374 H   0  0  0  0  0  0  0  0  0  0  0  0
   -5.3720   22.8440  -32.9880 H   0  0  0  0  0  0  0  0  0  0  0  0
   -6.4143   20.4116  -33.9164 H   0  0  0  0  0  0  0  0  0  0  0  0
   -8.2614   18.7507  -33.4536 H   0  0  0  0  0  0  0  0  0  0  0  0
   -9.8728   19.1517  -31.5762 H   0  0  0  0  0  0  0  0  0  0  0  0
   -9.6539   21.2136  -30.1346 H   0  0  0  0  0  0  0  0  0  0  0  0
   -2.6838   21.2314  -31.5092 H   0  0  0  0  0  0  0  0  0  0  0  0
   -3.7860   21.3956  -32.9181 H   0  0  0  0  0  0  0  0  0  0  0  0
   -2.1973   22.2339  -32.9181 H   0  0  0  0  0  0  0  0  0  0  0  0
   -1.9992   21.9845  -29.8183 H   0  0  0  0  0  0  0  0  0  0  0  0
  1  2  1  0
  2  3  1  0
  3  4  2  0
  4  5  1  0
  5  6  2  0
  6  7  1  0
  7  8  1  0
  8  9  2  0
  9 10  1  0
 10 11  2  0
 11 12  1  0
 12 13  2  0
 13 14  1  0
 14 15  2  0
 15 16  1  0
  6 17  1  0
 17 18  1  0
 18 19  1  0
 17 20  2  0
 20  3  1  0
 16  8  1  0
 15 10  1  0
  1 21  1  0
  1 22  1  0
  1 23  1  0
  4 24  1  0
  5 25  1  0
  9 26  1  0
 11 27  1  0
 12 28  1  0
 13 29  1  0
 14 30  1  0
 19 31  1  0
 19 32  1  0
 19 33  1  0
 20 34  1  0
M  CHG  1   9   1
M  END
>  <UniqueID>  (35) 
34

>  <SMILES>  (35) 
COc1ccc(Sc2[nH+]c3ccccc3o2)c(OC)c1

>  <Energy>  (35) 
70.00107137674004

>  <Genealogy>  (35) 
COc1ccc(Sc2[nH+]c3ccccc3o2)c(OC)c1 (protonated)
COc1ccc(Sc2[nH+]c3ccccc3o2)c(OC)c1 (3D coordinates assigned)
COc1ccc(Sc2[nH+]c3ccccc3o2)c(OC)c1 (optimized conformer: 70.00107137674004 kcal/mol)

>  <smiles>  (35) 
COc1ccc(Sc2nc3ccccc3o2)c(OC)c1

>  <score_type>  (35) 
oracle

>  <origin>  (35) 
adg

>  <m_score__min__energy>  (35) 
-5.7400000000000002

>  <m_primary>  (35) 
energy

$$$$
35:0
     RDKit          3D

 45 48  0  0  0  0  0  0  0  0999 V2000
   -3.7850   13.5230  -32.2620 C   0  0  0  0  0  0  0  0  0  0  0  0
   -3.8470   14.0750  -33.9960 S   0  0  0  0  0  0  0  0  0  0  0  0
   -4.6700   15.6180  -33.6010 C   0  0  0  0  0  0  0  0  0  0  0  0
   -4.8380   16.5960  -34.5890 C   0  0  0  0  0  0  0  0  0  0  0  0
   -5.4780   17.8000  -34.2810 C   0  0  0  0  0  0  0  0  0  0  0  0
   -5.9390   18.0480  -32.9790 C   0  0  0  0  0  0  0  0  0  0  0  0
   -6.6400   19.3150  -32.6820 C   0  0  0  0  0  0  0  0  0  0  0  0
   -7.9680   19.3400  -32.3880 N   0  0  0  0  0  0  0  0  0  0  0  0
   -8.2220   20.6500  -32.2180 C   0  0  0  0  0  0  0  0  0  0  0  0
   -9.4430   21.2420  -31.9100 C   0  0  0  0  0  0  0  0  0  0  0  0
   -9.4830   22.6460  -31.8080 C   0  0  0  0  0  0  0  0  0  0  0  0
   -8.3130   23.4110  -32.0200 C   0  0  0  0  0  0  0  0  0  0  0  0
   -7.0960   22.7800  -32.3330 C   0  0  0  0  0  0  0  0  0  0  0  0
   -7.0920   21.3860  -32.4170 C   0  0  0  0  0  0  0  0  0  0  0  0
   -6.0740   20.5570  -32.7110 N   0  0  0  0  0  0  0  0  0  0  0  0
   -4.7160   20.9490  -33.1110 C   0  0  0  0  0  0  0  0  0  0  0  0
   -3.8960   21.4110  -31.9280 C   0  0  0  0  0  0  0  0  0  0  0  0
   -2.8690   20.6120  -31.3950 C   0  0  0  0  0  0  0  0  0  0  0  0
   -2.0950   21.0780  -30.3310 C   0  0  0  0  0  0  0  0  0  0  0  0
   -2.3300   22.3430  -29.7890 C   0  0  0  0  0  0  0  0  0  0  0  0
   -3.3580   23.1530  -30.3000 C   0  0  0  0  0  0  0  0  0  0  0  0
   -3.5770   24.5420  -29.7560 C   0  0  0  0  0  0  0  0  0  0  0  0
   -4.1210   25.3700  -30.7230 F   0  0  0  0  0  0  0  0  0  0  0  0
   -4.4430   24.4780  -28.6800 F   0  0  0  0  0  0  0  0  0  0  0  0
   -2.3790   25.0960  -29.3380 F   0  0  0  0  0  0  0  0  0  0  0  0
   -4.1160   22.6900  -31.3900 C   0  0  0  0  0  0  0  0  0  0  0  0
   -5.7820   17.0540  -31.9970 C   0  0  0  0  0  0  0  0  0  0  0  0
   -5.1420   15.8510  -32.3060 C   0  0  0  0  0  0  0  0  0  0  0  0
   -3.8828   14.3933  -31.5964 H   0  0  0  0  0  0  0  0  0  0  0  0
   -4.6099   12.8209  -32.0710 H   0  0  0  0  0  0  0  0  0  0  0  0
   -2.8249   13.0213  -32.0710 H   0  0  0  0  0  0  0  0  0  0  0  0
   -4.4660   16.4166  -35.6085 H   0  0  0  0  0  0  0  0  0  0  0  0
   -5.6213   18.5584  -35.0648 H   0  0  0  0  0  0  0  0  0  0  0  0
  -10.3460   20.6342  -31.7516 H   0  0  0  0  0  0  0  0  0  0  0  0
  -10.4293   23.1501  -31.5621 H   0  0  0  0  0  0  0  0  0  0  0  0
   -8.3551   24.5072  -31.9395 H   0  0  0  0  0  0  0  0  0  0  0  0
   -6.1797   23.3636  -32.5056 H   0  0  0  0  0  0  0  0  0  0  0  0
   -4.2175   20.0849  -33.5746 H   0  0  0  0  0  0  0  0  0  0  0  0
   -4.7957   21.7857  -33.8207 H   0  0  0  0  0  0  0  0  0  0  0  0
   -2.6747   19.6155  -31.8183 H   0  0  0  0  0  0  0  0  0  0  0  0
   -1.2958   20.4453  -29.9174 H   0  0  0  0  0  0  0  0  0  0  0  0
   -1.7076   22.7071  -28.9583 H   0  0  0  0  0  0  0  0  0  0  0  0
   -4.8908   23.3372  -31.8269 H   0  0  0  0  0  0  0  0  0  0  0  0
   -6.1651   17.2244  -30.9800 H   0  0  0  0  0  0  0  0  0  0  0  0
   -5.0092   15.0849  -31.5279 H   0  0  0  0  0  0  0  0  0  0  0  0
  1  2  1  0
  2  3  1  0
  3  4  2  0
  4  5  1  0
  5  6  2  0
  6  7  1  0
  7  8  2  0
  8  9  1  0
  9 10  2  0
 10 11  1  0
 11 12  2  0
 12 13  1  0
 13 14  2  0
 14 15  1  0
 15 16  1  0
 16 17  1  0
 17 18  2  0
 18 19  1  0
 19 20  2  0
 20 21  1  0
 21 22  1  0
 22 23  1  0
 22 24  1  0
 22 25  1  0
 21 26  2  0
  6 27  1  0
 27 28  2  0
 28  3  1  0
 15  7  1  0
 26 17  1  0
 14  9  1  0
  1 29  1  0
  1 30  1  0
  1 31  1  0
  4 32  1  0
  5 33  1  0
 10 34  1  0
 11 35  1  0
 12 36  1  0
 13 37  1  0
 16 38  1  0
 16 39  1  0
 18 40  1  0
 19 41  1  0
 20 42  1  0
 26 43  1  0
 27 44  1  0
 28 45  1  0
M  END
>  <UniqueID>  (36) 
35

>  <SMILES>  (36) 
CSc1ccc(-c2nc3ccccc3n2Cc2cccc(C(F)(F)F)c2)cc1

>  <Energy>  (36) 
88.21421443059731

>  <Genealogy>  (36) 
CSc1ccc(-c2nc3ccccc3n2Cc2cccc(C(F)(F)F)c2)cc1 (3D coordinates assigned)
CSc1ccc(-c2nc3ccccc3n2Cc2cccc(C(F)(F)F)c2)cc1 (optimized conformer: 88.21421443059731 kcal/mol)

>  <smiles>  (36) 
CSc1ccc(-c2nc3ccccc3n2Cc2cccc(C(F)(F)F)c2)cc1

>  <score_type>  (36) 
oracle

>  <origin>  (36) 
adg

>  <m_score__min__energy>  (36) 
-8.3599999999999994

>  <m_primary>  (36) 
energy

$$$$
36:0
     RDKit          3D

 17 18  0  0  0  0  0  0  0  0999 V2000
   -6.1140   17.6160  -33.8150 C   0  0  0  0  0  0  0  0  0  0  0  0
   -6.8630   18.7060  -33.1090 C   0  0  0  0  0  0  0  0  0  0  0  0
   -8.0030   18.3950  -32.3380 C   0  0  0  0  0  0  0  0  0  0  0  0
   -8.7360   19.4050  -31.7000 C   0  0  0  0  0  0  0  0  0  0  0  0
   -8.3350   20.7320  -31.8430 C   0  0  0  0  0  0  0  0  0  0  0  0
   -8.9910   21.7730  -31.2600 N   0  0  0  0  0  0  0  0  0  0  0  0
   -8.0750   23.0500  -31.7870 S   0  0  0  0  0  0  0  0  0  0  0  0
   -6.8910   22.3700  -32.7150 N   0  0  0  0  0  0  0  0  0  0  0  0
   -7.1960   21.0530  -32.6320 C   0  0  0  0  0  0  0  0  0  0  0  0
   -6.4660   20.0480  -33.2680 C   0  0  0  0  0  0  0  0  0  0  0  0
   -5.6542   16.9469  -33.0728 H   0  0  0  0  0  0  0  0  0  0  0  0
   -6.8093   17.0420  -34.4451 H   0  0  0  0  0  0  0  0  0  0  0  0
   -5.3289   18.0593  -34.4451 H   0  0  0  0  0  0  0  0  0  0  0  0
   -8.3205   17.3467  -32.2364 H   0  0  0  0  0  0  0  0  0  0  0  0
   -9.6181   19.1530  -31.0931 H   0  0  0  0  0  0  0  0  0  0  0  0
   -6.1110   22.8330  -33.2310 H   0  0  0  0  0  0  0  0  0  0  0  0
   -5.5916   20.3007  -33.8857 H   0  0  0  0  0  0  0  0  0  0  0  0
  1  2  1  0
  2  3  1  0
  3  4  2  0
  4  5  1  0
  5  6  2  0
  6  7  1  0
  7  8  1  0
  8  9  2  0
  9 10  1  0
 10  2  2  0
  9  5  1  0
  1 11  1  0
  1 12  1  0
  1 13  1  0
  3 14  1  0
  4 15  1  0
  8 16  1  0
 10 17  1  0
M  CHG  1   8   1
M  END
>  <UniqueID>  (37) 
36

>  <SMILES>  (37) 
Cc1ccc2ns[nH+]c2c1

>  <Energy>  (37) 
56.532268104558895

>  <Genealogy>  (37) 
Cc1ccc2ns[nH+]c2c1 (protonated)
Cc1ccc2ns[nH+]c2c1 (3D coordinates assigned)
Cc1ccc2ns[nH+]c2c1 (optimized conformer: 56.532268104558895 kcal/mol)

>  <smiles>  (37) 
Cc1ccc2nsnc2c1

>  <score_type>  (37) 
oracle

>  <origin>  (37) 
adg

>  <m_score__min__energy>  (37) 
-5.1200000000000001

>  <m_primary>  (37) 
energy

$$$$
37:0
     RDKit          3D

 38 39  0  0  0  0  0  0  0  0999 V2000
   -9.7040   19.4790  -32.9840 O   0  0  0  0  0  0  0  0  0  0  0  0
   -9.1160   18.5450  -32.1210 C   0  0  0  0  0  0  0  0  0  0  0  0
   -7.5840   18.7160  -32.1150 C   0  0  0  0  0  0  0  0  0  0  0  0
   -7.0130   19.6830  -33.1040 N   0  0  2  0  0  0  0  0  0  0  0  0
   -5.8150   19.1810  -33.8350 C   0  0  0  0  0  0  0  0  0  0  0  0
   -6.0360   17.8400  -34.5500 C   0  0  0  0  0  0  0  0  0  0  0  0
   -5.3380   17.7950  -35.7440 F   0  0  0  0  0  0  0  0  0  0  0  0
   -6.8340   21.1000  -32.6400 C   0  0  1  0  0  0  0  0  0  0  0  0
   -8.0520   21.6410  -31.8620 C   0  0  0  0  0  0  0  0  0  0  0  0
   -7.9530   23.1590  -31.7020 C   0  0  0  0  0  0  0  0  0  0  0  0
   -6.6140   23.5920  -31.1600 C   0  0  0  0  0  0  0  0  0  0  0  0
   -6.4950   24.8740  -30.5970 C   0  0  0  0  0  0  0  0  0  0  0  0
   -5.2600   25.3330  -30.1380 C   0  0  0  0  0  0  0  0  0  0  0  0
   -4.1280   24.5240  -30.2430 C   0  0  0  0  0  0  0  0  0  0  0  0
   -4.2270   23.2530  -30.8130 C   0  0  0  0  0  0  0  0  0  0  0  0
   -5.4610   22.7790  -31.2930 C   0  0  0  0  0  0  0  0  0  0  0  0
   -5.5280   21.3740  -31.8490 C   0  0  0  0  0  0  0  0  0  0  0  0
   -9.8220   19.0150  -33.8540 H   0  0  0  0  0  0  0  0  0  0  0  0
   -9.5026   18.6977  -31.1026 H   0  0  0  0  0  0  0  0  0  0  0  0
   -9.3625   17.5308  -32.4683 H   0  0  0  0  0  0  0  0  0  0  0  0
   -7.2900   19.0538  -31.1103 H   0  0  0  0  0  0  0  0  0  0  0  0
   -7.1818   17.7340  -32.4048 H   0  0  0  0  0  0  0  0  0  0  0  0
   -7.7600   19.7590  -33.8350 H   0  0  0  0  0  0  0  0  0  0  0  0
   -5.5293   19.9311  -34.5872 H   0  0  0  0  0  0  0  0  0  0  0  0
   -5.0297   19.0150  -33.0828 H   0  0  0  0  0  0  0  0  0  0  0  0
   -5.6892   17.0237  -33.8993 H   0  0  0  0  0  0  0  0  0  0  0  0
   -7.1089   17.7302  -34.7663 H   0  0  0  0  0  0  0  0  0  0  0  0
   -6.7449   21.6575  -33.5841 H   0  0  0  0  0  0  0  0  0  0  0  0
   -8.9720   21.3940  -32.4121 H   0  0  0  0  0  0  0  0  0  0  0  0
   -8.0716   21.1782  -30.8643 H   0  0  0  0  0  0  0  0  0  0  0  0
   -8.1053   23.6288  -32.6849 H   0  0  0  0  0  0  0  0  0  0  0  0
   -8.7241   23.4722  -30.9827 H   0  0  0  0  0  0  0  0  0  0  0  0
   -7.3817   25.5201  -30.5176 H   0  0  0  0  0  0  0  0  0  0  0  0
   -5.1785   26.3353  -29.6922 H   0  0  0  0  0  0  0  0  0  0  0  0
   -3.1567   24.8877  -29.8765 H   0  0  0  0  0  0  0  0  0  0  0  0
   -3.3324   22.6173  -30.8872 H   0  0  0  0  0  0  0  0  0  0  0  0
   -4.6714   21.2215  -32.5220 H   0  0  0  0  0  0  0  0  0  0  0  0
   -5.5067   20.6798  -30.9960 H   0  0  0  0  0  0  0  0  0  0  0  0
  1  2  1  0
  2  3  1  0
  3  4  1  0
  4  5  1  0
  5  6  1  0
  6  7  1  0
  4  8  1  0
  8  9  1  0
  9 10  1  0
 10 11  1  0
 11 12  2  0
 12 13  1  0
 13 14  2  0
 14 15  1  0
 15 16  2  0
 16 17  1  0
 17  8  1  0
 16 11  1  0
  1 18  1  0
  2 19  1  0
  2 20  1  0
  3 21  1  0
  3 22  1  0
  4 23  1  6
  5 24  1  0
  5 25  1  0
  6 26  1  0
  6 27  1  0
  8 28  1  6
  9 29  1  0
  9 30  1  0
 10 31  1  0
 10 32  1  0
 12 33  1  0
 13 34  1  0
 14 35  1  0
 15 36  1  0
 17 37  1  0
 17 38  1  0
M  CHG  1   4   1
M  END
>  <UniqueID>  (38) 
37

>  <SMILES>  (38) 
OCC[N@H+](CCF)[C@H]1CCc2ccccc2C1

>  <Energy>  (38) 
53.16349753885519

>  <Genealogy>  (38) 
OCC[NH+](CCF)C1CCc2ccccc2C1 (protonated)
OCC[N@H+](CCF)[C@H]1CCc2ccccc2C1 (chirality)
OCC[N@H+](CCF)[C@H]1CCc2ccccc2C1 (3D coordinates assigned)
OCC[N@H+](CCF)[C@H]1CCc2ccccc2C1 (nonaromatic ring conformer: 53.16349753885519 kcal/mol)

>  <smiles>  (38) 
OCCN(CCF)C1CCc2ccccc2C1

>  <score_type>  (38) 
oracle

>  <origin>  (38) 
adg

>  <m_score__min__energy>  (38) 
-6.5700000000000003

>  <m_primary>  (38) 
energy

$$$$
38:0
     RDKit          3D

 46 47  0  0  0  0  0  0  0  0999 V2000
   -8.7460   18.4440  -31.5850 C   0  0  0  0  0  0  0  0  0  0  0  0
   -9.1720   19.6600  -32.4080 C   0  0  0  0  0  0  0  0  0  0  0  0
   -8.8350   21.0010  -31.7070 C   0  0  0  0  0  0  0  0  0  0  0  0
   -7.4100   21.4180  -31.8510 N   0  0  0  0  0  0  0  0  0  0  0  0
   -6.7730   20.9070  -33.1000 C   0  0  0  0  0  0  0  0  0  0  0  0
   -5.8520   19.6850  -32.9050 C   0  0  0  0  0  0  0  0  0  0  0  0
   -5.9420   18.7420  -34.1030 C   0  0  0  0  0  0  0  0  0  0  0  0
   -7.1510   22.8940  -31.6450 C   0  0  0  0  0  0  0  0  0  0  0  0
   -7.2530   23.3740  -30.1680 C   0  0  0  0  0  0  0  0  0  0  0  0
   -6.1820   24.4150  -29.8280 C   0  0  0  0  0  0  0  0  0  0  0  0
   -4.8060   23.8270  -29.5600 C   0  0  0  0  0  0  0  0  0  0  0  0
   -4.2150   24.1430  -28.3200 C   0  0  0  0  0  0  0  0  0  0  0  0
   -2.9400   23.6840  -27.9930 C   0  0  0  0  0  0  0  0  0  0  0  0
   -2.2240   22.9100  -28.8980 C   0  0  0  0  0  0  0  0  0  0  0  0
   -2.7760   22.6000  -30.1400 C   0  0  0  0  0  0  0  0  0  0  0  0
   -4.0530   23.0670  -30.5080 C   0  0  0  0  0  0  0  0  0  0  0  0
   -4.5740   22.6350  -31.8690 C   0  0  0  0  0  0  0  0  0  0  0  0
   -5.8360   23.3840  -32.3230 C   0  0  0  0  0  0  0  0  0  0  0  0
   -8.8284   18.6792  -30.5136 H   0  0  0  0  0  0  0  0  0  0  0  0
   -9.3992   17.5920  -31.8246 H   0  0  0  0  0  0  0  0  0  0  0  0
   -7.7039   18.1859  -31.8246 H   0  0  0  0  0  0  0  0  0  0  0  0
   -8.6530   19.6289  -33.3774 H   0  0  0  0  0  0  0  0  0  0  0  0
  -10.2641   19.6133  -32.5313 H   0  0  0  0  0  0  0  0  0  0  0  0
   -9.4712   21.7872  -32.1396 H   0  0  0  0  0  0  0  0  0  0  0  0
   -9.0170   20.8535  -30.6322 H   0  0  0  0  0  0  0  0  0  0  0  0
   -6.9060   20.9050  -31.0910 H   0  0  0  0  0  0  0  0  0  0  0  0
   -7.5725   20.6242  -33.8006 H   0  0  0  0  0  0  0  0  0  0  0  0
   -6.1332   21.7193  -33.4752 H   0  0  0  0  0  0  0  0  0  0  0  0
   -4.8134   20.0300  -32.7948 H   0  0  0  0  0  0  0  0  0  0  0  0
   -6.1725   19.1419  -32.0037 H   0  0  0  0  0  0  0  0  0  0  0  0
   -6.0409   17.7058  -33.7474 H   0  0  0  0  0  0  0  0  0  0  0  0
   -6.8190   19.0058  -34.7122 H   0  0  0  0  0  0  0  0  0  0  0  0
   -5.0309   18.8352  -34.7122 H   0  0  0  0  0  0  0  0  0  0  0  0
   -7.9884   23.3810  -32.1662 H   0  0  0  0  0  0  0  0  0  0  0  0
   -8.2456   23.8200  -30.0072 H   0  0  0  0  0  0  0  0  0  0  0  0
   -7.0985   22.5018  -29.5157 H   0  0  0  0  0  0  0  0  0  0  0  0
   -6.0999   25.1144  -30.6730 H   0  0  0  0  0  0  0  0  0  0  0  0
   -6.5027   24.9070  -28.8979 H   0  0  0  0  0  0  0  0  0  0  0  0
   -4.7688   24.7618  -27.5987 H   0  0  0  0  0  0  0  0  0  0  0  0
   -2.4999   23.9350  -27.0166 H   0  0  0  0  0  0  0  0  0  0  0  0
   -1.2215   22.5418  -28.6344 H   0  0  0  0  0  0  0  0  0  0  0  0
   -2.2040   21.9794  -30.8455 H   0  0  0  0  0  0  0  0  0  0  0  0
   -3.7826   22.8086  -32.6130 H   0  0  0  0  0  0  0  0  0  0  0  0
   -4.8488   21.5735  -31.7816 H   0  0  0  0  0  0  0  0  0  0  0  0
   -5.7056   24.4513  -32.0907 H   0  0  0  0  0  0  0  0  0  0  0  0
   -5.9463   23.1915  -33.4004 H   0  0  0  0  0  0  0  0  0  0  0  0
  1  2  1  0
  2  3  1  0
  3  4  1  0
  4  5  1  0
  5  6  1  0
  6  7  1  0
  4  8  1  0
  8  9  1  0
  9 10  1  0
 10 11  1  0
 11 12  2  0
 12 13  1  0
 13 14  2  0
 14 15  1  0
 15 16  2  0
 16 17  1  0
 17 18  1  0
 18  8  1  0
 16 11  1  0
  1 19  1  0
  1 20  1  0
  1 21  1  0
  2 22  1  0
  2 23  1  0
  3 24  1  0
  3 25  1  0
  4 26  1  0
  5 27  1  0
  5 28  1  0
  6 29  1  0
  6 30  1  0
  7 31  1  0
  7 32  1  0
  7 33  1  0
  8 34  1  0
  9 35  1  0
  9 36  1  0
 10 37  1  0
 10 38  1  0
 12 39  1  0
 13 40  1  0
 14 41  1  0
 15 42  1  0
 17 43  1  0
 17 44  1  0
 18 45  1  0
 18 46  1  0
M  CHG  1   4   1
M  END
>  <UniqueID>  (39) 
38

>  <SMILES>  (39) 
CCC[NH+](CCC)C1CCc2ccccc2CC1

>  <Energy>  (39) 
65.45300750867585

>  <Genealogy>  (39) 
CCC[NH+](CCC)C1CCc2ccccc2CC1 (protonated)
CCC[NH+](CCC)C1CCc2ccccc2CC1 (3D coordinates assigned)
CCC[NH+](CCC)C1CCc2ccccc2CC1 (nonaromatic ring conformer: 65.45300750867585 kcal/mol)

>  <smiles>  (39) 
CCCN(CCC)C1CCc2ccccc2CC1

>  <score_type>  (39) 
oracle

>  <origin>  (39) 
adg

>  <m_score__min__energy>  (39) 
-4.9199999999999999

>  <m_primary>  (39) 
energy

$$$$
39:0
     RDKit          3D

 39 42  0  0  0  0  0  0  0  0999 V2000
   -5.0340   14.1840  -33.7390 C   0  0  0  0  0  0  0  0  0  0  0  0
   -6.2180   14.5880  -34.3590 C   0  0  0  0  0  0  0  0  0  0  0  0
   -6.8670   15.7550  -33.9410 C   0  0  0  0  0  0  0  0  0  0  0  0
   -6.3350   16.5280  -32.8930 C   0  0  0  0  0  0  0  0  0  0  0  0
   -6.9930   17.7340  -32.4600 N   0  0  0  0  0  0  0  0  0  0  0  0
   -8.3330   17.9230  -32.3340 C   0  0  0  0  0  0  0  0  0  0  0  0
   -8.6110   19.2170  -31.9010 C   0  0  0  0  0  0  0  0  0  0  0  0
   -7.3820   19.8270  -31.7710 C   0  0  0  0  0  0  0  0  0  0  0  0
   -7.0360   21.1220  -31.4060 C   0  0  0  0  0  0  0  0  0  0  0  0
   -5.6630   21.4650  -31.4070 C   0  0  0  0  0  0  0  0  0  0  0  0
   -5.2360   22.7960  -31.0400 N   0  0  0  0  0  0  0  0  0  0  0  0
   -5.7660   23.9690  -31.7480 C   0  0  0  0  0  0  0  0  0  0  0  0
   -5.6660   25.2140  -30.8610 C   0  0  0  0  0  0  0  0  0  0  0  0
   -4.2840   25.4750  -30.4170 N   0  0  0  0  0  0  0  0  0  0  0  0
   -3.4720   24.2680  -30.1580 C   0  0  0  0  0  0  0  0  0  0  0  0
   -4.3100   23.0040  -29.9200 C   0  0  0  0  0  0  0  0  0  0  0  0
   -4.7130   20.4770  -31.7880 C   0  0  0  0  0  0  0  0  0  0  0  0
   -5.1120   19.2190  -32.1380 N   0  0  0  0  0  0  0  0  0  0  0  0
   -6.4330   18.9090  -32.1140 C   0  0  0  0  0  0  0  0  0  0  0  0
   -5.1370   16.1170  -32.2820 C   0  0  0  0  0  0  0  0  0  0  0  0
   -4.4920   14.9480  -32.7030 C   0  0  0  0  0  0  0  0  0  0  0  0
   -4.5280   13.2639  -34.0665 H   0  0  0  0  0  0  0  0  0  0  0  0
   -6.6414   13.9876  -35.1777 H   0  0  0  0  0  0  0  0  0  0  0  0
   -7.7983   16.0697  -34.4346 H   0  0  0  0  0  0  0  0  0  0  0  0
   -9.0945   17.1578  -32.5453 H   0  0  0  0  0  0  0  0  0  0  0  0
   -9.5995   19.6578  -31.7048 H   0  0  0  0  0  0  0  0  0  0  0  0
   -7.8046   21.8572  -31.1252 H   0  0  0  0  0  0  0  0  0  0  0  0
   -5.1850   24.1310  -32.6679 H   0  0  0  0  0  0  0  0  0  0  0  0
   -6.8225   23.7902  -31.9968 H   0  0  0  0  0  0  0  0  0  0  0  0
   -6.0249   26.0839  -31.4306 H   0  0  0  0  0  0  0  0  0  0  0  0
   -6.2801   25.0394  -29.9652 H   0  0  0  0  0  0  0  0  0  0  0  0
   -4.3320   26.0430  -29.5380 H   0  0  0  0  0  0  0  0  0  0  0  0
   -2.8197   24.0945  -31.0266 H   0  0  0  0  0  0  0  0  0  0  0  0
   -2.9005   24.4548  -29.2368 H   0  0  0  0  0  0  0  0  0  0  0  0
   -3.6414   22.1347  -29.8341 H   0  0  0  0  0  0  0  0  0  0  0  0
   -4.8879   23.1239  -28.9918 H   0  0  0  0  0  0  0  0  0  0  0  0
   -3.6426   20.7299  -31.8008 H   0  0  0  0  0  0  0  0  0  0  0  0
   -4.7041   16.7176  -31.4684 H   0  0  0  0  0  0  0  0  0  0  0  0
   -3.5574   14.6308  -32.2174 H   0  0  0  0  0  0  0  0  0  0  0  0
  1  2  2  0
  2  3  1  0
  3  4  2  0
  4  5  1  0
  5  6  1  0
  6  7  2  0
  7  8  1  0
  8  9  2  0
  9 10  1  0
 10 11  1  0
 11 12  1  0
 12 13  1  0
 13 14  1  0
 14 15  1  0
 15 16  1  0
 10 17  2  0
 17 18  1  0
 18 19  2  0
  4 20  1  0
 20 21  2  0
 21  1  1  0
 19  5  1  0
 19  8  1  0
 16 11  1  0
  1 22  1  0
  2 23  1  0
  3 24  1  0
  6 25  1  0
  7 26  1  0
  9 27  1  0
 12 28  1  0
 12 29  1  0
 13 30  1  0
 13 31  1  0
 14 32  1  0
 15 33  1  0
 15 34  1  0
 16 35  1  0
 16 36  1  0
 17 37  1  0
 20 38  1  0
 21 39  1  0
M  END
>  <UniqueID>  (40) 
39

>  <SMILES>  (40) 
c1ccc(-n2ccc3cc(N4CCNCC4)cnc32)cc1

>  <Energy>  (40) 
89.92762644219307

>  <Genealogy>  (40) 
c1ccc(-n2ccc3cc(N4CCNCC4)cnc32)cc1 (3D coordinates assigned)
c1ccc(-n2ccc3cc(N4CCNCC4)cnc32)cc1 (nonaromatic ring conformer: 89.92762644219307 kcal/mol)

>  <smiles>  (40) 
c1ccc(-n2ccc3cc(N4CCNCC4)cnc32)cc1

>  <score_type>  (40) 
oracle

>  <origin>  (40) 
adg

>  <m_score__min__energy>  (40) 
-7.4800000000000004

>  <m_primary>  (40) 
energy

$$$$
40:0
     RDKit          3D

 52 55  0  0  0  0  0  0  0  0999 V2000
   -6.2370   16.3060  -34.2060 C   0  0  0  0  0  0  0  0  0  0  0  0
   -5.3430   16.8310  -33.1740 N   0  0  0  0  0  0  0  0  0  0  0  0
   -5.7390   16.7350  -31.7700 C   0  0  0  0  0  0  0  0  0  0  0  0
   -4.2530   17.6900  -33.5540 C   0  0  0  0  0  0  0  0  0  0  0  0
   -3.0400   17.1070  -33.9530 C   0  0  0  0  0  0  0  0  0  0  0  0
   -1.9340   17.9030  -34.2530 C   0  0  0  0  0  0  0  0  0  0  0  0
   -2.0170   19.2870  -34.1270 C   0  0  0  0  0  0  0  0  0  0  0  0
   -3.2150   19.8830  -33.7280 C   0  0  0  0  0  0  0  0  0  0  0  0
   -4.3610   19.1030  -33.4870 C   0  0  0  0  0  0  0  0  0  0  0  0
   -5.6140   19.7620  -33.0430 C   0  0  0  0  0  0  0  0  0  0  0  0
   -6.8100   19.4700  -33.6130 N   0  0  0  0  0  0  0  0  0  0  0  0
   -7.7090   20.1340  -32.8780 C   0  0  0  0  0  0  0  0  0  0  0  0
   -9.0960   20.1160  -33.0040 C   0  0  0  0  0  0  0  0  0  0  0  0
   -9.8480   20.8290  -32.0560 C   0  0  0  0  0  0  0  0  0  0  0  0
   -9.2030   21.5150  -31.0040 C   0  0  0  0  0  0  0  0  0  0  0  0
   -7.8010   21.5040  -30.8970 C   0  0  0  0  0  0  0  0  0  0  0  0
   -7.0730   20.8180  -31.8790 C   0  0  0  0  0  0  0  0  0  0  0  0
   -5.7370   20.6230  -31.9800 N   0  0  0  0  0  0  0  0  0  0  0  0
   -4.6900   21.2050  -31.1130 C   0  0  0  0  0  0  0  0  0  0  0  0
   -4.3520   22.6880  -31.4210 C   0  0  0  0  0  0  0  0  0  0  0  0
   -5.4780   23.6530  -30.9930 C   0  0  0  0  0  0  0  0  0  0  0  0
   -4.9490   25.0850  -30.8530 C   0  0  0  0  0  0  0  0  0  0  0  0
   -3.8950   25.1990  -29.8240 N   0  0  0  0  0  0  0  0  0  0  0  0
   -3.0910   23.9760  -29.6220 C   0  0  0  0  0  0  0  0  0  0  0  0
   -2.9670   23.1440  -30.9030 C   0  0  0  0  0  0  0  0  0  0  0  0
   -7.0920   15.8039  -33.7297 H   0  0  0  0  0  0  0  0  0  0  0  0
   -6.6004   17.1341  -34.8322 H   0  0  0  0  0  0  0  0  0  0  0  0
   -5.6908   15.5852  -34.8322 H   0  0  0  0  0  0  0  0  0  0  0  0
   -4.8704   16.9456  -31.1288 H   0  0  0  0  0  0  0  0  0  0  0  0
   -6.5339   17.4665  -31.5624 H   0  0  0  0  0  0  0  0  0  0  0  0
   -6.1107   15.7207  -31.5624 H   0  0  0  0  0  0  0  0  0  0  0  0
   -2.9607   16.0126  -34.0299 H   0  0  0  0  0  0  0  0  0  0  0  0
   -0.9961   17.4368  -34.5892 H   0  0  0  0  0  0  0  0  0  0  0  0
   -1.1376   19.9118  -34.3421 H   0  0  0  0  0  0  0  0  0  0  0  0
   -3.2634   20.9745  -33.6007 H   0  0  0  0  0  0  0  0  0  0  0  0
   -7.0030   18.8100  -34.4000 H   0  0  0  0  0  0  0  0  0  0  0  0
   -9.5858   19.5621  -33.8184 H   0  0  0  0  0  0  0  0  0  0  0  0
  -10.9450   20.8531  -32.1335 H   0  0  0  0  0  0  0  0  0  0  0  0
   -9.8023   22.0627  -30.2618 H   0  0  0  0  0  0  0  0  0  0  0  0
   -7.2914   22.0177  -30.0685 H   0  0  0  0  0  0  0  0  0  0  0  0
   -5.0323   21.1400  -30.0696 H   0  0  0  0  0  0  0  0  0  0  0  0
   -3.7719   20.6289  -31.3006 H   0  0  0  0  0  0  0  0  0  0  0  0
   -4.2813   22.7363  -32.5177 H   0  0  0  0  0  0  0  0  0  0  0  0
   -6.2743   23.6360  -31.7517 H   0  0  0  0  0  0  0  0  0  0  0  0
   -5.8685   23.3262  -30.0179 H   0  0  0  0  0  0  0  0  0  0  0  0
   -4.5340   25.4042  -31.8204 H   0  0  0  0  0  0  0  0  0  0  0  0
   -5.7894   25.7238  -30.5438 H   0  0  0  0  0  0  0  0  0  0  0  0
   -4.3430   25.4460  -28.9100 H   0  0  0  0  0  0  0  0  0  0  0  0
   -2.0834   24.2659  -29.2894 H   0  0  0  0  0  0  0  0  0  0  0  0
   -3.6007   23.3587  -28.8675 H   0  0  0  0  0  0  0  0  0  0  0  0
   -2.4783   23.7525  -31.6782 H   0  0  0  0  0  0  0  0  0  0  0  0
   -2.3720   22.2473  -30.6752 H   0  0  0  0  0  0  0  0  0  0  0  0
  1  2  1  0
  2  3  1  0
  2  4  1  0
  4  5  2  0
  5  6  1  0
  6  7  2  0
  7  8  1  0
  8  9  2  0
  9 10  1  0
 10 11  2  0
 11 12  1  0
 12 13  2  0
 13 14  1  0
 14 15  2  0
 15 16  1  0
 16 17  2  0
 17 18  1  0
 18 19  1  0
 19 20  1  0
 20 21  1  0
 21 22  1  0
 22 23  1  0
 23 24  1  0
 24 25  1  0
  9  4  1  0
 18 10  1  0
 25 20  1  0
 17 12  1  0
  1 26  1  0
  1 27  1  0
  1 28  1  0
  3 29  1  0
  3 30  1  0
  3 31  1  0
  5 32  1  0
  6 33  1  0
  7 34  1  0
  8 35  1  0
 11 36  1  0
 13 37  1  0
 14 38  1  0
 15 39  1  0
 16 40  1  0
 19 41  1  0
 19 42  1  0
 20 43  1  0
 21 44  1  0
 21 45  1  0
 22 46  1  0
 22 47  1  0
 23 48  1  0
 24 49  1  0
 24 50  1  0
 25 51  1  0
 25 52  1  0
M  CHG  1  11   1
M  END
>  <UniqueID>  (41) 
40

>  <SMILES>  (41) 
CN(C)c1ccccc1-c1[nH+]c2ccccc2n1CC1CCNCC1

>  <Energy>  (41) 
108.87879553370442

>  <Genealogy>  (41) 
CN(C)c1ccccc1-c1[nH+]c2ccccc2n1CC1CCNCC1 (protonated)
CN(C)c1ccccc1-c1[nH+]c2ccccc2n1CC1CCNCC1 (3D coordinates assigned)
CN(C)c1ccccc1-c1[nH+]c2ccccc2n1CC1CCNCC1 (nonaromatic ring conformer: 108.87879553370442 kcal/mol)

>  <smiles>  (41) 
CN(C)c1ccccc1-c1nc2ccccc2n1CC1CCNCC1

>  <score_type>  (41) 
oracle

>  <origin>  (41) 
adg

>  <m_score__min__energy>  (41) 
-8.2799999999999994

>  <m_primary>  (41) 
energy

$$$$
41:0
     RDKit          3D

 42 44  0  0  0  0  0  0  0  0999 V2000
   -4.2500   20.4950  -31.3510 C   0  0  0  0  0  0  0  0  0  0  0  0
   -3.8420   21.5530  -32.2910 N   0  0  0  0  0  0  0  0  0  0  0  0
   -5.0210   22.3470  -32.6960 C   0  0  0  0  0  0  0  0  0  0  0  0
   -5.3470   23.3730  -31.6500 C   0  0  0  0  0  0  0  0  0  0  0  0
   -6.6420   23.4620  -31.1180 C   0  0  0  0  0  0  0  0  0  0  0  0
   -6.9140   24.4140  -30.1330 C   0  0  0  0  0  0  0  0  0  0  0  0
   -5.9000   25.2650  -29.6910 C   0  0  0  0  0  0  0  0  0  0  0  0
   -4.6210   25.1490  -30.2430 C   0  0  0  0  0  0  0  0  0  0  0  0
   -4.3750   24.2150  -31.2000 N   0  0  0  0  0  0  0  0  0  0  0  0
   -3.1720   20.9630  -33.4710 C   0  0  0  0  0  0  0  0  0  0  0  0
   -3.1240   19.4660  -33.3480 C   0  0  0  0  0  0  0  0  0  0  0  0
   -2.0980   18.7480  -32.7760 C   0  0  0  0  0  0  0  0  0  0  0  0
   -2.3970   17.4330  -32.8140 N   0  0  0  0  0  0  0  0  0  0  0  0
   -3.6100   17.3810  -33.4070 C   0  0  0  0  0  0  0  0  0  0  0  0
   -4.0820   18.6010  -33.7350 N   0  0  0  0  0  0  0  0  0  0  0  0
   -5.3430   18.8820  -34.4250 C   0  0  0  0  0  0  0  0  0  0  0  0
   -6.4640   19.0370  -33.4300 C   0  0  0  0  0  0  0  0  0  0  0  0
   -6.7550   18.0140  -32.5120 C   0  0  0  0  0  0  0  0  0  0  0  0
   -7.7930   18.1690  -31.5890 C   0  0  0  0  0  0  0  0  0  0  0  0
   -8.5510   19.3430  -31.5760 C   0  0  0  0  0  0  0  0  0  0  0  0
   -8.2730   20.3640  -32.4910 C   0  0  0  0  0  0  0  0  0  0  0  0
   -7.2350   20.2120  -33.4160 C   0  0  0  0  0  0  0  0  0  0  0  0
   -4.1134   20.8492  -30.3186 H   0  0  0  0  0  0  0  0  0  0  0  0
   -5.3086   20.2460  -31.5162 H   0  0  0  0  0  0  0  0  0  0  0  0
   -3.6326   19.5997  -31.5162 H   0  0  0  0  0  0  0  0  0  0  0  0
   -4.8058   22.8554  -33.6474 H   0  0  0  0  0  0  0  0  0  0  0  0
   -5.8817   21.6722  -32.8135 H   0  0  0  0  0  0  0  0  0  0  0  0
   -7.4357   22.7883  -31.4733 H   0  0  0  0  0  0  0  0  0  0  0  0
   -7.9249   24.4929  -29.7066 H   0  0  0  0  0  0  0  0  0  0  0  0
   -6.1050   26.0189  -28.9166 H   0  0  0  0  0  0  0  0  0  0  0  0
   -3.8132   25.8137  -29.9030 H   0  0  0  0  0  0  0  0  0  0  0  0
   -3.7300   21.2350  -34.3791 H   0  0  0  0  0  0  0  0  0  0  0  0
   -2.1443   21.3507  -33.5306 H   0  0  0  0  0  0  0  0  0  0  0  0
   -1.1782   19.1791  -32.3540 H   0  0  0  0  0  0  0  0  0  0  0  0
   -4.1538   16.4447  -33.6012 H   0  0  0  0  0  0  0  0  0  0  0  0
   -5.2403   19.8123  -35.0029 H   0  0  0  0  0  0  0  0  0  0  0  0
   -5.5763   18.0429  -35.0970 H   0  0  0  0  0  0  0  0  0  0  0  0
   -6.1632   17.0868  -32.5197 H   0  0  0  0  0  0  0  0  0  0  0  0
   -8.0138   17.3652  -30.8713 H   0  0  0  0  0  0  0  0  0  0  0  0
   -9.3656   19.4641  -30.8468 H   0  0  0  0  0  0  0  0  0  0  0  0
   -8.8712   21.2871  -32.4830 H   0  0  0  0  0  0  0  0  0  0  0  0
   -7.0211   21.0158  -34.1358 H   0  0  0  0  0  0  0  0  0  0  0  0
  1  2  1  0
  2  3  1  0
  3  4  1  0
  4  5  2  0
  5  6  1  0
  6  7  2  0
  7  8  1  0
  8  9  2  0
  2 10  1  0
 10 11  1  0
 11 12  2  0
 12 13  1  0
 13 14  2  0
 14 15  1  0
 15 16  1  0
 16 17  1  0
 17 18  2  0
 18 19  1  0
 19 20  2  0
 20 21  1  0
 21 22  2  0
  9  4  1  0
 15 11  1  0
 22 17  1  0
  1 23  1  0
  1 24  1  0
  1 25  1  0
  3 26  1  0
  3 27  1  0
  5 28  1  0
  6 29  1  0
  7 30  1  0
  8 31  1  0
 10 32  1  0
 10 33  1  0
 12 34  1  0
 14 35  1  0
 16 36  1  0
 16 37  1  0
 18 38  1  0
 19 39  1  0
 20 40  1  0
 21 41  1  0
 22 42  1  0
M  END
>  <UniqueID>  (42) 
41

>  <SMILES>  (42) 
CN(Cc1ccccn1)Cc1cncn1Cc1ccccc1

>  <Energy>  (42) 
72.32684610916975

>  <Genealogy>  (42) 
CN(Cc1ccccn1)Cc1cncn1Cc1ccccc1 (3D coordinates assigned)
CN(Cc1ccccn1)Cc1cncn1Cc1ccccc1 (optimized conformer: 72.32684610916975 kcal/mol)

>  <smiles>  (42) 
CN(Cc1ccccn1)Cc1cncn1Cc1ccccc1

>  <score_type>  (42) 
oracle

>  <origin>  (42) 
adg

>  <m_score__min__energy>  (42) 
-7.6200000000000001

>  <m_primary>  (42) 
energy

$$$$
42:0
     RDKit          3D

 32 34  0  0  0  0  0  0  0  0999 V2000
    2.1590   24.8780  -27.2210 C   0  0  0  0  0  0  0  0  0  0  0  0
    1.0980   24.8150  -28.1700 O   0  0  0  0  0  0  0  0  0  0  0  0
   -0.2650   24.7820  -27.8350 C   0  0  0  0  0  0  0  0  0  0  0  0
   -0.6210   24.9530  -26.4930 C   0  0  0  0  0  0  0  0  0  0  0  0
   -1.9620   24.9280  -26.1080 C   0  0  0  0  0  0  0  0  0  0  0  0
   -2.9630   24.7310  -27.0610 C   0  0  0  0  0  0  0  0  0  0  0  0
   -2.6290   24.5560  -28.4170 C   0  0  0  0  0  0  0  0  0  0  0  0
   -3.6740   24.3460  -29.4470 C   0  0  0  0  0  0  0  0  0  0  0  0
   -4.5910   23.3130  -29.5200 C   0  0  0  0  0  0  0  0  0  0  0  0
   -5.3210   23.5980  -30.6620 C   0  0  0  0  0  0  0  0  0  0  0  0
   -6.4470   22.8110  -31.2250 C   0  0  0  0  0  0  0  0  0  0  0  0
   -7.7230   23.3820  -31.4000 C   0  0  0  0  0  0  0  0  0  0  0  0
   -8.7700   22.6230  -31.9340 C   0  0  0  0  0  0  0  0  0  0  0  0
   -8.5580   21.2920  -32.2990 C   0  0  0  0  0  0  0  0  0  0  0  0
   -7.2980   20.7150  -32.1300 C   0  0  0  0  0  0  0  0  0  0  0  0
   -6.2470   21.4690  -31.5970 C   0  0  0  0  0  0  0  0  0  0  0  0
   -4.8500   24.7320  -31.2160 N   0  0  0  0  0  0  0  0  0  0  0  0
   -3.8720   25.1500  -30.4660 O   0  0  0  0  0  0  0  0  0  0  0  0
   -1.2760   24.5820  -28.7950 C   0  0  0  0  0  0  0  0  0  0  0  0
    1.7425   24.8533  -26.2032 H   0  0  0  0  0  0  0  0  0  0  0  0
    2.8300   24.0181  -27.3636 H   0  0  0  0  0  0  0  0  0  0  0  0
    2.7235   25.8112  -27.3636 H   0  0  0  0  0  0  0  0  0  0  0  0
    0.1617   25.1083  -25.7359 H   0  0  0  0  0  0  0  0  0  0  0  0
   -2.2313   25.0640  -25.0502 H   0  0  0  0  0  0  0  0  0  0  0  0
   -4.0181   24.7125  -26.7505 H   0  0  0  0  0  0  0  0  0  0  0  0
   -4.7122   22.4635  -28.8318 H   0  0  0  0  0  0  0  0  0  0  0  0
   -7.8970   24.4302  -31.1153 H   0  0  0  0  0  0  0  0  0  0  0  0
   -9.7634   23.0763  -32.0667 H   0  0  0  0  0  0  0  0  0  0  0  0
   -9.3832   20.6985  -32.7194 H   0  0  0  0  0  0  0  0  0  0  0  0
   -7.1314   19.6661  -32.4163 H   0  0  0  0  0  0  0  0  0  0  0  0
   -5.2563   21.0089  -31.4677 H   0  0  0  0  0  0  0  0  0  0  0  0
   -1.0035   24.4447  -29.8518 H   0  0  0  0  0  0  0  0  0  0  0  0
  1  2  1  0
  2  3  1  0
  3  4  2  0
  4  5  1  0
  5  6  2  0
  6  7  1  0
  7  8  1  0
  8  9  2  0
  9 10  1  0
 10 11  1  0
 11 12  2  0
 12 13  1  0
 13 14  2  0
 14 15  1  0
 15 16  2  0
 10 17  2  0
 17 18  1  0
  7 19  2  0
 19  3  1  0
 18  8  1  0
 16 11  1  0
  1 20  1  0
  1 21  1  0
  1 22  1  0
  4 23  1  0
  5 24  1  0
  6 25  1  0
  9 26  1  0
 12 27  1  0
 13 28  1  0
 14 29  1  0
 15 30  1  0
 16 31  1  0
 19 32  1  0
M  END
>  <UniqueID>  (43) 
42

>  <SMILES>  (43) 
COc1cccc(-c2cc(-c3ccccc3)no2)c1

>  <Energy>  (43) 
66.80974306710837

>  <Genealogy>  (43) 
COc1cccc(-c2cc(-c3ccccc3)no2)c1 (3D coordinates assigned)
COc1cccc(-c2cc(-c3ccccc3)no2)c1 (optimized conformer: 66.80974306710837 kcal/mol)

>  <smiles>  (43) 
COc1cccc(-c2cc(-c3ccccc3)no2)c1

>  <score_type>  (43) 
oracle

>  <origin>  (43) 
adg

>  <m_score__min__energy>  (43) 
-8.5199999999999996

>  <m_primary>  (43) 
energy

$$$$
43:0
     RDKit          3D

 33 35  0  0  0  0  0  0  0  0999 V2000
   -6.8930   25.0590  -29.7130 C   0  0  0  0  0  0  0  0  0  0  0  0
   -6.3280   23.8070  -30.3090 C   0  0  0  0  0  0  0  0  0  0  0  0
   -7.1440   22.7700  -30.6420 N   0  0  0  0  0  0  0  0  0  0  0  0
   -6.4740   21.7380  -31.2040 C   0  0  0  0  0  0  0  0  0  0  0  0
   -7.1300   20.4920  -31.6620 C   0  0  0  0  0  0  0  0  0  0  0  0
   -6.3640   19.3410  -31.9130 C   0  0  0  0  0  0  0  0  0  0  0  0
   -6.9940   18.1710  -32.3450 C   0  0  0  0  0  0  0  0  0  0  0  0
   -8.3410   18.1460  -32.5210 N   0  0  0  0  0  0  0  0  0  0  0  0
   -9.1090   19.2410  -32.2870 C   0  0  0  0  0  0  0  0  0  0  0  0
   -8.5210   20.4320  -31.8540 C   0  0  0  0  0  0  0  0  0  0  0  0
   -4.8280   22.0810  -31.3070 S   0  0  0  0  0  0  0  0  0  0  0  0
   -4.9710   23.5930  -30.5850 C   0  0  0  0  0  0  0  0  0  0  0  0
   -3.8340   24.5050  -30.3510 C   0  0  0  0  0  0  0  0  0  0  0  0
   -3.8750   25.6640  -30.8400 O   0  0  0  0  0  0  0  0  0  0  0  0
   -2.6930   24.1220  -29.5730 N   0  0  0  0  0  0  0  0  0  0  0  0
   -2.1600   22.7960  -29.4510 C   0  0  0  0  0  0  0  0  0  0  0  0
   -1.1640   22.3140  -30.3200 C   0  0  0  0  0  0  0  0  0  0  0  0
   -0.6670   21.0160  -30.1670 C   0  0  0  0  0  0  0  0  0  0  0  0
   -1.1450   20.1980  -29.1410 C   0  0  0  0  0  0  0  0  0  0  0  0
   -2.1190   20.6790  -28.2590 C   0  0  0  0  0  0  0  0  0  0  0  0
   -2.7120   19.6550  -26.9650 Cl  0  0  0  0  0  0  0  0  0  0  0  0
   -2.6180   21.9780  -28.4100 C   0  0  0  0  0  0  0  0  0  0  0  0
   -6.8616   24.9893  -28.6157 H   0  0  0  0  0  0  0  0  0  0  0  0
   -6.2976   25.9232  -30.0427 H   0  0  0  0  0  0  0  0  0  0  0  0
   -7.9349   25.1843  -30.0427 H   0  0  0  0  0  0  0  0  0  0  0  0
   -5.2735   19.3610  -31.7701 H   0  0  0  0  0  0  0  0  0  0  0  0
   -6.3980   17.2680  -32.5431 H   0  0  0  0  0  0  0  0  0  0  0  0
  -10.1973   19.1902  -32.4388 H   0  0  0  0  0  0  0  0  0  0  0  0
   -9.1438   21.3186  -31.6642 H   0  0  0  0  0  0  0  0  0  0  0  0
   -0.7755   22.9596  -31.1214 H   0  0  0  0  0  0  0  0  0  0  0  0
    0.1024   20.6383  -30.8565 H   0  0  0  0  0  0  0  0  0  0  0  0
   -0.7558   19.1756  -29.0262 H   0  0  0  0  0  0  0  0  0  0  0  0
   -3.3739   22.3587  -27.7074 H   0  0  0  0  0  0  0  0  0  0  0  0
  1  2  1  0
  2  3  1  0
  3  4  2  0
  4  5  1  0
  5  6  2  0
  6  7  1  0
  7  8  2  0
  8  9  1  0
  9 10  2  0
  4 11  1  0
 11 12  1  0
 12 13  1  0
 13 14  2  0
 13 15  1  0
 15 16  1  0
 16 17  2  0
 17 18  1  0
 18 19  2  0
 19 20  1  0
 20 21  1  0
 20 22  2  0
 12  2  2  0
 22 16  1  0
 10  5  1  0
  1 23  1  0
  1 24  1  0
  1 25  1  0
  6 26  1  0
  7 27  1  0
  9 28  1  0
 10 29  1  0
 17 30  1  0
 18 31  1  0
 19 32  1  0
 22 33  1  0
M  CHG  1  15  -1
M  END
>  <UniqueID>  (44) 
43

>  <SMILES>  (44) 
Cc1nc(-c2ccncc2)sc1C(=O)[N-]c1cccc(Cl)c1

>  <Energy>  (44) 
73.03834185751495

>  <Genealogy>  (44) 
Cc1nc(-c2ccncc2)sc1C(=O)[N-]c1cccc(Cl)c1 (protonated)
Cc1nc(-c2ccncc2)sc1C(=O)[N-]c1cccc(Cl)c1 (3D coordinates assigned)
Cc1nc(-c2ccncc2)sc1C(=O)[N-]c1cccc(Cl)c1 (optimized conformer: 73.03834185751495 kcal/mol)

>  <smiles>  (44) 
Cc1nc(-c2ccncc2)sc1C(=O)Nc1cccc(Cl)c1

>  <score_type>  (44) 
oracle

>  <origin>  (44) 
adg

>  <m_score__min__energy>  (44) 
-9.4100000000000001

>  <m_primary>  (44) 
energy

$$$$
44:0
     RDKit          3D

 32 33  0  0  0  0  0  0  0  0999 V2000
   -7.5980   20.0370  -33.0910 C   0  0  0  0  0  0  0  0  0  0  0  0
   -7.0470   21.2230  -32.3560 C   0  0  0  0  0  0  0  0  0  0  0  0
   -5.6970   21.2530  -31.9710 C   0  0  0  0  0  0  0  0  0  0  0  0
   -5.1930   22.3440  -31.2570 C   0  0  0  0  0  0  0  0  0  0  0  0
   -6.0330   23.4070  -30.9120 C   0  0  0  0  0  0  0  0  0  0  0  0
   -5.3840   24.7810  -30.0320 S   0  0  0  0  0  0  0  0  0  0  0  0
   -4.2300   25.6090  -30.9330 O   0  0  0  0  0  0  0  0  0  0  0  0
   -4.8160   24.4030  -28.3810 C   0  0  0  0  0  0  0  0  0  0  0  0
   -3.5780   23.5430  -28.4190 C   0  0  0  0  0  0  0  0  0  0  0  0
   -3.6390   22.2500  -27.8710 C   0  0  0  0  0  0  0  0  0  0  0  0
   -2.5140   21.4230  -27.8690 C   0  0  0  0  0  0  0  0  0  0  0  0
   -1.3110   21.8790  -28.4090 C   0  0  0  0  0  0  0  0  0  0  0  0
   -1.2290   23.1640  -28.9450 C   0  0  0  0  0  0  0  0  0  0  0  0
   -2.3460   24.0090  -28.9470 C   0  0  0  0  0  0  0  0  0  0  0  0
   -2.1880   25.2970  -29.4660 O   0  0  0  0  0  0  0  0  0  0  0  0
   -7.3860   23.3680  -31.2700 C   0  0  0  0  0  0  0  0  0  0  0  0
   -7.8920   22.2810  -31.9870 C   0  0  0  0  0  0  0  0  0  0  0  0
   -7.9468   19.2863  -32.3666 H   0  0  0  0  0  0  0  0  0  0  0  0
   -8.4402   20.3559  -33.7227 H   0  0  0  0  0  0  0  0  0  0  0  0
   -6.8111   19.5991  -33.7227 H   0  0  0  0  0  0  0  0  0  0  0  0
   -5.0338   20.4152  -32.2321 H   0  0  0  0  0  0  0  0  0  0  0  0
   -4.1325   22.3662  -30.9658 H   0  0  0  0  0  0  0  0  0  0  0  0
   -3.5640   24.9210  -31.1880 H   0  0  0  0  0  0  0  0  0  0  0  0
   -4.5858   25.3418  -27.8560 H   0  0  0  0  0  0  0  0  0  0  0  0
   -5.6095   23.8519  -27.8550 H   0  0  0  0  0  0  0  0  0  0  0  0
   -4.5829   21.8859  -27.4392 H   0  0  0  0  0  0  0  0  0  0  0  0
   -2.5762   20.4114  -27.4415 H   0  0  0  0  0  0  0  0  0  0  0  0
   -0.4268   21.2247  -28.4120 H   0  0  0  0  0  0  0  0  0  0  0  0
   -0.2780   23.5172  -29.3702 H   0  0  0  0  0  0  0  0  0  0  0  0
   -2.8660   26.0370  -29.3440 H   0  0  0  0  0  0  0  0  0  0  0  0
   -8.0525   24.1957  -30.9859 H   0  0  0  0  0  0  0  0  0  0  0  0
   -8.9564   22.2543  -32.2633 H   0  0  0  0  0  0  0  0  0  0  0  0
  1  2  1  0
  2  3  2  0
  3  4  1  0
  4  5  2  0
  5  6  1  0
  6  7  1  6
  6  8  1  0
  8  9  1  0
  9 10  2  0
 10 11  1  0
 11 12  2  0
 12 13  1  0
 13 14  2  0
 14 15  1  0
  5 16  1  0
 16 17  2  0
 17  2  1  0
 14  9  1  0
  1 18  1  0
  1 19  1  0
  1 20  1  0
  3 21  1  0
  4 22  1  0
  7 23  1  0
  8 24  1  0
  8 25  1  0
 10 26  1  0
 11 27  1  0
 12 28  1  0
 13 29  1  0
 15 30  1  0
 16 31  1  0
 17 32  1  0
M  CHG  1   6   1
M  END
>  <UniqueID>  (45) 
44

>  <SMILES>  (45) 
Cc1ccc([S@+](O)Cc2ccccc2O)cc1

>  <Energy>  (45) 
27.20124121113862

>  <Genealogy>  (45) 
Cc1ccc([S+](O)Cc2ccccc2O)cc1 (protonated)
Cc1ccc([S@+](O)Cc2ccccc2O)cc1 (chirality)
Cc1ccc([S@+](O)Cc2ccccc2O)cc1 (3D coordinates assigned)
Cc1ccc([S@+](O)Cc2ccccc2O)cc1 (optimized conformer: 27.20124121113862 kcal/mol)

>  <smiles>  (45) 
Cc1ccc([S+]([O-])Cc2ccccc2O)cc1

>  <score_type>  (45) 
oracle

>  <origin>  (45) 
adg

>  <m_score__min__energy>  (45) 
-7.9500000000000002

>  <m_primary>  (45) 
energy

$$$$
45:0
     RDKit          3D

 28 30  0  0  0  0  0  0  0  0999 V2000
   -5.7650   18.0820  -32.2660 C   0  0  0  0  0  0  0  0  0  0  0  0
   -5.1710   19.3520  -32.6670 N   0  0  0  0  0  0  0  0  0  0  0  0
   -3.9370   19.4750  -33.1190 N   0  0  0  0  0  0  0  0  0  0  0  0
   -3.7640   20.7890  -33.3640 C   0  0  0  0  0  0  0  0  0  0  0  0
   -4.8670   21.5180  -33.0820 N   0  0  0  0  0  0  0  0  0  0  0  0
   -5.7330   20.5780  -32.6530 C   0  0  0  0  0  0  0  0  0  0  0  0
   -7.1170   20.8850  -32.2260 C   0  0  0  0  0  0  0  0  0  0  0  0
   -8.1650   20.0530  -32.6490 C   0  0  0  0  0  0  0  0  0  0  0  0
   -9.4860   20.3740  -32.3440 C   0  0  0  0  0  0  0  0  0  0  0  0
   -9.7580   21.5370  -31.6280 C   0  0  0  0  0  0  0  0  0  0  0  0
   -8.7400   22.3380  -31.2210 N   0  0  0  0  0  0  0  0  0  0  0  0
   -7.4340   22.0510  -31.4850 C   0  0  0  0  0  0  0  0  0  0  0  0
   -6.4000   22.9680  -30.9570 C   0  0  0  0  0  0  0  0  0  0  0  0
   -5.7800   22.7080  -29.7270 C   0  0  0  0  0  0  0  0  0  0  0  0
   -4.8150   23.5420  -29.2610 N   0  0  0  0  0  0  0  0  0  0  0  0
   -4.4220   24.6260  -29.9770 C   0  0  0  0  0  0  0  0  0  0  0  0
   -4.9890   24.8860  -31.1840 N   0  0  0  0  0  0  0  0  0  0  0  0
   -5.9600   24.0820  -31.6870 C   0  0  0  0  0  0  0  0  0  0  0  0
   -5.7935   18.0210  -31.1681 H   0  0  0  0  0  0  0  0  0  0  0  0
   -6.7883   18.0140  -32.6637 H   0  0  0  0  0  0  0  0  0  0  0  0
   -5.1612   17.2530  -32.6637 H   0  0  0  0  0  0  0  0  0  0  0  0
   -2.8289   21.2204  -33.7506 H   0  0  0  0  0  0  0  0  0  0  0  0
   -7.9423   19.1424  -33.2245 H   0  0  0  0  0  0  0  0  0  0  0  0
  -10.3061   19.7152  -32.6656 H   0  0  0  0  0  0  0  0  0  0  0  0
  -10.7980   21.8068  -31.3921 H   0  0  0  0  0  0  0  0  0  0  0  0
   -6.0756   21.8270  -29.1384 H   0  0  0  0  0  0  0  0  0  0  0  0
   -3.6439   25.2945  -29.5798 H   0  0  0  0  0  0  0  0  0  0  0  0
   -6.4028   24.3045  -32.6691 H   0  0  0  0  0  0  0  0  0  0  0  0
  1  2  1  0
  2  3  1  0
  3  4  2  0
  4  5  1  0
  5  6  2  0
  6  7  1  0
  7  8  2  0
  8  9  1  0
  9 10  2  0
 10 11  1  0
 11 12  2  0
 12 13  1  0
 13 14  2  0
 14 15  1  0
 15 16  2  0
 16 17  1  0
 17 18  2  0
  6  2  1  0
 12  7  1  0
 18 13  1  0
  1 19  1  0
  1 20  1  0
  1 21  1  0
  4 22  1  0
  8 23  1  0
  9 24  1  0
 10 25  1  0
 14 26  1  0
 16 27  1  0
 18 28  1  0
M  END
>  <UniqueID>  (46) 
45

>  <SMILES>  (46) 
Cn1ncnc1-c1cccnc1-c1cncnc1

>  <Energy>  (46) 
76.61549446464667

>  <Genealogy>  (46) 
Cn1ncnc1-c1cccnc1-c1cncnc1 (3D coordinates assigned)
Cn1ncnc1-c1cccnc1-c1cncnc1 (optimized conformer: 76.61549446464667 kcal/mol)

>  <smiles>  (46) 
Cn1ncnc1-c1cccnc1-c1cncnc1

>  <score_type>  (46) 
oracle

>  <origin>  (46) 
adg

>  <m_score__min__energy>  (46) 
-6.2999999999999998

>  <m_primary>  (46) 
energy

$$$$
46:0
     RDKit          3D

 47 50  0  0  0  0  0  0  0  0999 V2000
    0.8460   27.7140  -23.7990 C   0  0  0  0  0  0  0  0  0  0  0  0
   -0.0320   27.0160  -24.8040 C   0  0  0  0  0  0  0  0  0  0  0  0
   -0.8190   25.9300  -24.3920 C   0  0  0  0  0  0  0  0  0  0  0  0
   -1.6330   25.2530  -25.3000 C   0  0  0  0  0  0  0  0  0  0  0  0
   -1.6870   25.6510  -26.6480 C   0  0  0  0  0  0  0  0  0  0  0  0
   -2.5240   24.9220  -27.6390 C   0  0  0  0  0  0  0  0  0  0  0  0
   -3.4920   23.9830  -27.2540 C   0  0  0  0  0  0  0  0  0  0  0  0
   -4.2350   23.3210  -28.2280 C   0  0  0  0  0  0  0  0  0  0  0  0
   -4.0160   23.6100  -29.5840 C   0  0  0  0  0  0  0  0  0  0  0  0
   -4.7570   22.9460  -30.6360 N   0  0  0  0  0  0  0  0  0  0  0  0
   -6.1090   23.4280  -30.9750 C   0  0  0  0  0  0  0  0  0  0  0  0
   -7.0160   22.3150  -31.5510 C   0  0  0  0  0  0  0  0  0  0  0  0
   -6.2780   21.1400  -32.0640 N   0  0  0  0  0  0  0  0  0  0  0  0
   -7.0870   20.4360  -33.0670 C   0  0  0  0  0  0  0  0  0  0  0  0
   -8.4890   20.1000  -32.5920 C   0  0  0  0  0  0  0  0  0  0  0  0
   -7.4310   19.0110  -32.6680 C   0  0  0  0  0  0  0  0  0  0  0  0
   -4.9950   21.5390  -32.6580 C   0  0  0  0  0  0  0  0  0  0  0  0
   -4.0720   22.0060  -31.5370 C   0  0  0  0  0  0  0  0  0  0  0  0
   -3.0760   24.5440  -29.8980 N   0  0  0  0  0  0  0  0  0  0  0  0
   -2.3610   25.1730  -28.9660 N   0  0  0  0  0  0  0  0  0  0  0  0
   -0.8980   26.7390  -27.0630 C   0  0  0  0  0  0  0  0  0  0  0  0
   -0.0830   27.4360  -26.1540 C   0  0  0  0  0  0  0  0  0  0  0  0
    0.7550   28.5880  -26.6510 C   0  0  0  0  0  0  0  0  0  0  0  0
    0.5180   27.4533  -22.7819 H   0  0  0  0  0  0  0  0  0  0  0  0
    1.8895   27.3962  -23.9405 H   0  0  0  0  0  0  0  0  0  0  0  0
    0.7717   28.8023  -23.9405 H   0  0  0  0  0  0  0  0  0  0  0  0
   -0.7937   25.6086  -23.3403 H   0  0  0  0  0  0  0  0  0  0  0  0
   -2.2382   24.4001  -24.9588 H   0  0  0  0  0  0  0  0  0  0  0  0
   -3.6634   23.7706  -26.1884 H   0  0  0  0  0  0  0  0  0  0  0  0
   -4.9895   22.5756  -27.9363 H   0  0  0  0  0  0  0  0  0  0  0  0
   -6.5784   23.8273  -30.0638 H   0  0  0  0  0  0  0  0  0  0  0  0
   -6.0001   24.2005  -31.7505 H   0  0  0  0  0  0  0  0  0  0  0  0
   -7.6949   21.9759  -30.7547 H   0  0  0  0  0  0  0  0  0  0  0  0
   -7.5505   22.7525  -32.4071 H   0  0  0  0  0  0  0  0  0  0  0  0
   -6.6621   20.9182  -33.9597 H   0  0  0  0  0  0  0  0  0  0  0  0
   -8.8389   20.4595  -31.6131 H   0  0  0  0  0  0  0  0  0  0  0  0
   -9.5013   20.2308  -33.0019 H   0  0  0  0  0  0  0  0  0  0  0  0
   -7.0150   18.5826  -31.7442 H   0  0  0  0  0  0  0  0  0  0  0  0
   -7.3600   18.0276  -33.1556 H   0  0  0  0  0  0  0  0  0  0  0  0
   -4.5435   20.6815  -33.1784 H   0  0  0  0  0  0  0  0  0  0  0  0
   -5.1499   22.3508  -33.3839 H   0  0  0  0  0  0  0  0  0  0  0  0
   -3.7411   21.1314  -30.9578 H   0  0  0  0  0  0  0  0  0  0  0  0
   -3.2120   22.5225  -31.9883 H   0  0  0  0  0  0  0  0  0  0  0  0
   -0.9191   27.0501  -28.1179 H   0  0  0  0  0  0  0  0  0  0  0  0
    1.1596   29.1442  -25.7926 H   0  0  0  0  0  0  0  0  0  0  0  0
    1.5845   28.2015  -27.2614 H   0  0  0  0  0  0  0  0  0  0  0  0
    0.1319   29.2582  -27.2614 H   0  0  0  0  0  0  0  0  0  0  0  0
  1  2  1  0
  2  3  2  0
  3  4  1  0
  4  5  2  0
  5  6  1  0
  6  7  2  0
  7  8  1  0
  8  9  2  0
  9 10  1  0
 10 11  1  0
 11 12  1  0
 12 13  1  0
 13 14  1  0
 14 15  1  0
 15 16  1  0
 13 17  1  0
 17 18  1  0
  9 19  1  0
 19 20  2  0
  5 21  1  0
 21 22  2  0
 22 23  1  0
 22  2  1  0
 20  6  1  0
 18 10  1  0
 16 14  1  0
  1 24  1  0
  1 25  1  0
  1 26  1  0
  3 27  1  0
  4 28  1  0
  7 29  1  0
  8 30  1  0
 11 31  1  0
 11 32  1  0
 12 33  1  0
 12 34  1  0
 14 35  1  0
 15 36  1  0
 15 37  1  0
 16 38  1  0
 16 39  1  0
 17 40  1  0
 17 41  1  0
 18 42  1  0
 18 43  1  0
 21 44  1  0
 23 45  1  0
 23 46  1  0
 23 47  1  0
M  END
>  <UniqueID>  (47) 
46

>  <SMILES>  (47) 
Cc1ccc(-c2ccc(N3CCN(C4CC4)CC3)nn2)cc1C

>  <Energy>  (47) 
325.2715935977948

>  <Genealogy>  (47) 
Cc1ccc(-c2ccc(N3CCN(C4CC4)CC3)nn2)cc1C (3D coordinates assigned)
Cc1ccc(-c2ccc(N3CCN(C4CC4)CC3)nn2)cc1C (nonaromatic ring conformer: 325.2715935977948 kcal/mol)

>  <smiles>  (47) 
Cc1ccc(-c2ccc(N3CCN(C4CC4)CC3)nn2)cc1C

>  <score_type>  (47) 
oracle

>  <origin>  (47) 
adg

>  <m_score__min__energy>  (47) 
-8.2699999999999996

>  <m_primary>  (47) 
energy

$$$$
