0:0
     RDKit          3D

 54 57  0  0  0  0  0  0  0  0999 V2000
   -0.2680   20.5869  -34.3627 H   0  0  0  0  0  0  0  0  0  0  0  0
   -0.9510   20.6750  -33.5050 C   0  0  0  0  0  0  0  0  0  0  0  0
   -0.7020   21.5040  -32.4560 N   0  0  0  0  0  0  0  0  0  0  0  0
   -1.6650   21.4160  -31.5130 C   0  0  0  0  0  0  0  0  0  0  0  0
   -1.7410   22.2530  -30.3520 N   0  0  0  0  0  0  0  0  0  0  0  0
   -2.4640   23.3250  -30.1760 C   0  0  0  0  0  0  0  0  0  0  0  0
   -3.6520   23.6890  -30.7880 C   0  0  0  0  0  0  0  0  0  0  0  0
   -4.2570   23.0970  -31.7200 O   0  0  0  0  0  0  0  0  0  0  0  0
   -4.0360   24.8620  -30.2540 N   0  0  0  0  0  0  0  0  0  0  0  0
   -5.1680   25.6970  -30.6480 C   0  0  0  0  0  0  0  0  0  0  0  0
   -5.1097   25.9122  -31.7252 H   0  0  0  0  0  0  0  0  0  0  0  0
   -5.1432   26.6433  -30.0877 H   0  0  0  0  0  0  0  0  0  0  0  0
   -6.4400   24.9690  -30.3510 C   0  0  0  0  0  0  0  0  0  0  0  0
   -7.1300   25.3050  -29.3520 O   0  0  0  0  0  0  0  0  0  0  0  0
   -6.8130   23.8350  -31.1450 N   0  0  0  0  0  0  0  0  0  0  0  0
   -6.3020   23.6630  -32.0400 H   0  0  0  0  0  0  0  0  0  0  0  0
   -7.5980   22.7350  -30.5940 C   0  0  0  0  0  0  0  0  0  0  0  0
   -8.6647   23.0033  -30.6077 H   0  0  0  0  0  0  0  0  0  0  0  0
   -7.2809   22.5419  -29.5586 H   0  0  0  0  0  0  0  0  0  0  0  0
   -7.3820   21.4990  -31.4220 C   0  0  0  0  0  0  0  0  0  0  0  0
   -6.3560   21.4520  -32.3780 C   0  0  0  0  0  0  0  0  0  0  0  0
   -5.6908   22.3182  -32.5090 H   0  0  0  0  0  0  0  0  0  0  0  0
   -6.1740   20.3110  -33.1650 C   0  0  0  0  0  0  0  0  0  0  0  0
   -5.3607   20.2799  -33.9050 H   0  0  0  0  0  0  0  0  0  0  0  0
   -7.0280   19.2010  -33.0140 C   0  0  0  0  0  0  0  0  0  0  0  0
   -6.8760   18.0270  -33.7650 O   0  0  0  0  0  0  0  0  0  0  0  0
   -5.7410   17.7280  -34.5710 C   0  0  0  0  0  0  0  0  0  0  0  0
   -4.8810   17.5014  -33.9236 H   0  0  0  0  0  0  0  0  0  0  0  0
   -5.9614   16.8573  -35.2060 H   0  0  0  0  0  0  0  0  0  0  0  0
   -5.5038   18.5943  -35.2060 H   0  0  0  0  0  0  0  0  0  0  0  0
   -8.0690   19.2630  -32.0820 C   0  0  0  0  0  0  0  0  0  0  0  0
   -8.7494   18.4064  -31.9663 H   0  0  0  0  0  0  0  0  0  0  0  0
   -8.2520   20.4050  -31.2960 C   0  0  0  0  0  0  0  0  0  0  0  0
   -9.0820   20.4461  -30.5753 H   0  0  0  0  0  0  0  0  0  0  0  0
   -3.1150   25.2300  -29.3730 N   0  0  0  0  0  0  0  0  0  0  0  0
   -2.1480   24.3220  -29.3140 N   0  0  0  0  0  0  0  0  0  0  0  0
   -0.9930   24.4580  -28.4630 C   0  0  0  0  0  0  0  0  0  0  0  0
   -0.1920   23.3360  -28.1950 C   0  0  0  0  0  0  0  0  0  0  0  0
   -0.4305   22.3709  -28.6658 H   0  0  0  0  0  0  0  0  0  0  0  0
    0.9060   23.4350  -27.3350 C   0  0  0  0  0  0  0  0  0  0  0  0
    1.5278   22.5488  -27.1402 H   0  0  0  0  0  0  0  0  0  0  0  0
    1.2200   24.6500  -26.7210 C   0  0  0  0  0  0  0  0  0  0  0  0
    2.3230   24.6950  -25.8560 O   0  0  0  0  0  0  0  0  0  0  0  0
    2.2350   24.9270  -24.4530 C   0  0  0  0  0  0  0  0  0  0  0  0
    2.5745   24.0318  -23.9113 H   0  0  0  0  0  0  0  0  0  0  0  0
    2.8710   25.7827  -24.1822 H   0  0  0  0  0  0  0  0  0  0  0  0
    1.1915   25.1456  -24.1822 H   0  0  0  0  0  0  0  0  0  0  0  0
    0.4190   25.7770  -26.9810 C   0  0  0  0  0  0  0  0  0  0  0  0
    0.6602   26.7407  -26.5087 H   0  0  0  0  0  0  0  0  0  0  0  0
   -0.6810   25.6780  -27.8360 C   0  0  0  0  0  0  0  0  0  0  0  0
   -1.3090   26.5620  -28.0207 H   0  0  0  0  0  0  0  0  0  0  0  0
   -2.8880   20.3620  -31.9700 S   0  0  0  0  0  0  0  0  0  0  0  0
   -2.1320   19.9470  -33.4140 C   0  0  0  0  0  0  0  0  0  0  0  0
   -2.5062   19.2263  -34.1560 H   0  0  0  0  0  0  0  0  0  0  0  0
  1  2  1  0
  2  3  1  0
  3  4  2  0
  4  5  1  0
  5  6  2  0
  6  7  1  0
  7  8  2  0
  7  9  1  0
  9 10  1  0
 10 11  1  0
 10 12  1  0
 10 13  1  0
 13 14  2  0
 13 15  1  0
 15 16  1  0
 15 17  1  0
 17 18  1  0
 17 19  1  0
 17 20  1  0
 20 21  2  0
 21 22  1  0
 21 23  1  0
 23 24  1  0
 23 25  2  0
 25 26  1  0
 26 27  1  0
 27 28  1  0
 27 29  1  0
 27 30  1  0
 25 31  1  0
 31 32  1  0
 31 33  2  0
 33 34  1  0
  9 35  1  0
 35 36  1  0
 36 37  1  0
 37 38  2  0
 38 39  1  0
 38 40  1  0
 40 41  1  0
 40 42  2  0
 42 43  1  0
 43 44  1  0
 44 45  1  0
 44 46  1  0
 44 47  1  0
 42 48  1  0
 48 49  1  0
 48 50  2  0
 50 51  1  0
  4 52  1  0
 52 53  1  0
 53 54  1  0
 53  2  2  0
 36  6  1  0
 50 37  1  0
 33 20  1  0
M  CHG  1  35  -1
M  END
>  <UniqueID>  (1) 
1

>  <SMILES>  (1) 
COc1ccc(CNC(=O)Cn2[n-]n(-c3ccc(OC)cc3)/c(=N/c3nccs3)c2=O)cc1

>  <Energy>  (1) 
128.48748675504862

>  <Genealogy>  (1) 
COc1ccc(CNC(=O)Cn2[n-]n(-c3ccc(OC)cc3)c(=Nc3nccs3)c2=O)cc1 (protonated)
COc1ccc(CNC(=O)Cn2[n-]n(-c3ccc(OC)cc3)/c(=N/c3nccs3)c2=O)cc1 (cis-trans isomerization)
COc1ccc(CNC(=O)Cn2[n-]n(-c3ccc(OC)cc3)/c(=N/c3nccs3)c2=O)cc1 (3D coordinates assigned)
COc1ccc(CNC(=O)Cn2[n-]n(-c3ccc(OC)cc3)/c(=N/c3nccs3)c2=O)cc1 (optimized conformer: 128.48748675504862 kcal/mol)

>  <smiles>  (1) 
COc1ccc(CNC(=O)Cn2[nH]n(-c3ccc(OC)cc3)c(=Nc3nccs3)c2=O)cc1

>  <score_type>  (1) 
oracle

>  <origin>  (1) 
adg

>  <m_score__min__energy>  (1) 
-9.3499999999999996

>  <m_primary>  (1) 
energy

$$$$
1:0
     RDKit          3D

 55 57  0  0  0  0  0  0  0  0999 V2000
   -5.2270   24.8850  -29.0760 C   0  0  0  0  0  0  0  0  0  0  0  0
   -4.3830   23.8380  -29.6780 N   0  0  0  0  0  0  0  0  0  0  0  0
   -3.4240   23.1910  -28.9300 C   0  0  0  0  0  0  0  0  0  0  0  0
   -3.1140   23.5720  -27.6140 O   0  0  0  0  0  0  0  0  0  0  0  0
   -2.3610   24.6980  -27.2510 C   0  0  0  0  0  0  0  0  0  0  0  0
   -2.6110   25.2650  -25.9930 C   0  0  0  0  0  0  0  0  0  0  0  0
   -1.9400   26.4200  -25.5890 C   0  0  0  0  0  0  0  0  0  0  0  0
   -1.0010   27.0120  -26.4300 C   0  0  0  0  0  0  0  0  0  0  0  0
   -0.7140   26.4400  -27.6710 C   0  0  0  0  0  0  0  0  0  0  0  0
   -1.3720   25.2720  -28.0870 C   0  0  0  0  0  0  0  0  0  0  0  0
   -0.9780   24.6610  -29.3240 N   0  0  0  0  0  0  0  0  0  0  0  0
   -2.7530   22.1310  -29.4580 N   0  0  0  0  0  0  0  0  0  0  0  0
   -2.9500   21.7320  -30.7350 C   0  0  0  0  0  0  0  0  0  0  0  0
   -3.8530   22.4130  -31.5510 C   0  0  0  0  0  0  0  0  0  0  0  0
   -4.0550   21.9920  -32.9870 C   0  0  0  0  0  0  0  0  0  0  0  0
   -4.8330   20.7330  -33.0570 N   0  0  0  0  0  0  0  0  0  0  0  0
   -3.9730   19.5920  -33.4760 C   0  0  0  0  0  0  0  0  0  0  0  0
   -4.7580   18.2740  -33.3800 C   0  0  0  0  0  0  0  0  0  0  0  0
   -5.7220   18.0790  -34.5550 C   0  0  0  0  0  0  0  0  0  0  0  0
   -5.0350   17.5300  -35.6230 F   0  0  0  0  0  0  0  0  0  0  0  0
   -6.2590   19.2930  -34.9480 F   0  0  0  0  0  0  0  0  0  0  0  0
   -6.7460   17.2190  -34.1970 F   0  0  0  0  0  0  0  0  0  0  0  0
   -5.4970   20.4770  -31.7580 C   0  0  0  0  0  0  0  0  0  0  0  0
   -6.9800   20.7240  -31.8500 C   0  0  0  0  0  0  0  0  0  0  0  0
   -7.5180   21.9810  -31.5220 C   0  0  0  0  0  0  0  0  0  0  0  0
   -8.8950   22.1990  -31.6050 C   0  0  0  0  0  0  0  0  0  0  0  0
   -9.7460   21.1670  -32.0120 C   0  0  0  0  0  0  0  0  0  0  0  0
   -9.2190   19.9140  -32.3360 C   0  0  0  0  0  0  0  0  0  0  0  0
   -7.8410   19.6920  -32.2580 C   0  0  0  0  0  0  0  0  0  0  0  0
   -4.5680   23.4860  -30.9940 C   0  0  0  0  0  0  0  0  0  0  0  0
   -5.3860   24.1190  -31.7170 O   0  0  0  0  0  0  0  0  0  0  0  0
   -5.1711   24.8157  -27.9796 H   0  0  0  0  0  0  0  0  0  0  0  0
   -4.8708   25.8742  -29.3995 H   0  0  0  0  0  0  0  0  0  0  0  0
   -6.2692   24.7468  -29.3995 H   0  0  0  0  0  0  0  0  0  0  0  0
   -3.3423   24.7953  -25.3188 H   0  0  0  0  0  0  0  0  0  0  0  0
   -2.1530   26.8633  -24.6051 H   0  0  0  0  0  0  0  0  0  0  0  0
   -0.4848   27.9313  -26.1162 H   0  0  0  0  0  0  0  0  0  0  0  0
    0.0337   26.9084  -28.3279 H   0  0  0  0  0  0  0  0  0  0  0  0
   -0.5220   25.2030  -30.0880 H   0  0  0  0  0  0  0  0  0  0  0  0
   -1.2660   23.6830  -29.5450 H   0  0  0  0  0  0  0  0  0  0  0  0
   -2.0500   21.6280  -28.8710 H   0  0  0  0  0  0  0  0  0  0  0  0
   -2.3965   20.8679  -31.1312 H   0  0  0  0  0  0  0  0  0  0  0  0
   -4.5995   22.7836  -33.5226 H   0  0  0  0  0  0  0  0  0  0  0  0
   -3.0709   21.8268  -33.4498 H   0  0  0  0  0  0  0  0  0  0  0  0
   -3.6460   19.7456  -34.5150 H   0  0  0  0  0  0  0  0  0  0  0  0
   -3.0980   19.5384  -32.8115 H   0  0  0  0  0  0  0  0  0  0  0  0
   -4.0434   17.4378  -33.3673 H   0  0  0  0  0  0  0  0  0  0  0  0
   -5.3570   18.3078  -32.4580 H   0  0  0  0  0  0  0  0  0  0  0  0
   -5.3244   19.4306  -31.4662 H   0  0  0  0  0  0  0  0  0  0  0  0
   -5.0742   21.1618  -31.0082 H   0  0  0  0  0  0  0  0  0  0  0  0
   -6.8524   22.7951  -31.1991 H   0  0  0  0  0  0  0  0  0  0  0  0
   -9.3109   23.1848  -31.3496 H   0  0  0  0  0  0  0  0  0  0  0  0
  -10.8301   21.3414  -32.0771 H   0  0  0  0  0  0  0  0  0  0  0  0
   -9.8893   19.1014  -32.6528 H   0  0  0  0  0  0  0  0  0  0  0  0
   -7.4294   18.7054  -32.5171 H   0  0  0  0  0  0  0  0  0  0  0  0
  1  2  1  0
  2  3  1  0
  3  4  1  0
  4  5  1  0
  5  6  2  0
  6  7  1  0
  7  8  2  0
  8  9  1  0
  9 10  2  0
 10 11  1  0
  3 12  2  0
 12 13  1  0
 13 14  2  0
 14 15  1  0
 15 16  1  0
 16 17  1  0
 17 18  1  0
 18 19  1  0
 19 20  1  0
 19 21  1  0
 19 22  1  0
 16 23  1  0
 23 24  1  0
 24 25  2  0
 25 26  1  0
 26 27  2  0
 27 28  1  0
 28 29  2  0
 14 30  1  0
 30 31  2  0
 30  2  1  0
 10  5  1  0
 29 24  1  0
  1 32  1  0
  1 33  1  0
  1 34  1  0
  6 35  1  0
  7 36  1  0
  8 37  1  0
  9 38  1  0
 11 39  1  0
 11 40  1  0
 12 41  1  0
 13 42  1  0
 15 43  1  0
 15 44  1  0
 17 45  1  0
 17 46  1  0
 18 47  1  0
 18 48  1  0
 23 49  1  0
 23 50  1  0
 25 51  1  0
 26 52  1  0
 27 53  1  0
 28 54  1  0
 29 55  1  0
M  CHG  1  12   1
M  END
>  <UniqueID>  (2) 
2

>  <SMILES>  (2) 
Cn1c(Oc2ccccc2N)[nH+]cc(CN(CCC(F)(F)F)Cc2ccccc2)c1=O

>  <Energy>  (2) 
70.63759897667522

>  <Genealogy>  (2) 
Cn1c(Oc2ccccc2N)[nH+]cc(CN(CCC(F)(F)F)Cc2ccccc2)c1=O (protonated)
Cn1c(Oc2ccccc2N)[nH+]cc(CN(CCC(F)(F)F)Cc2ccccc2)c1=O (3D coordinates assigned)
Cn1c(Oc2ccccc2N)[nH+]cc(CN(CCC(F)(F)F)Cc2ccccc2)c1=O (optimized conformer: 70.63759897667522 kcal/mol)

>  <smiles>  (2) 
Cn1c(Oc2ccccc2N)ncc(CN(CCC(F)(F)F)Cc2ccccc2)c1=O

>  <score_type>  (2) 
oracle

>  <origin>  (2) 
adg

>  <m_score__min__energy>  (2) 
-7.3499999999999996

>  <m_primary>  (2) 
energy

$$$$
2:0
     RDKit          3D

 51 53  0  0  0  0  0  0  0  0999 V2000
   -4.6860   16.5670  -32.7700 C   0  0  0  0  0  0  0  0  0  0  0  0
   -5.4710   17.7100  -33.2660 N   0  0  0  0  0  0  0  0  0  0  0  0
   -4.6680   18.6420  -34.0960 C   0  0  0  0  0  0  0  0  0  0  0  0
   -3.8230   19.6210  -33.2990 C   0  0  0  0  0  0  0  0  0  0  0  0
   -4.2360   20.9580  -33.1520 C   0  0  0  0  0  0  0  0  0  0  0  0
   -3.4600   21.8630  -32.4220 C   0  0  0  0  0  0  0  0  0  0  0  0
   -2.2570   21.4510  -31.8480 C   0  0  0  0  0  0  0  0  0  0  0  0
   -1.8190   20.1350  -32.0130 C   0  0  0  0  0  0  0  0  0  0  0  0
   -2.5900   19.2240  -32.7410 C   0  0  0  0  0  0  0  0  0  0  0  0
   -2.1220   17.9620  -32.9170 F   0  0  0  0  0  0  0  0  0  0  0  0
   -6.2500   18.3670  -32.1900 C   0  0  0  0  0  0  0  0  0  0  0  0
   -7.5480   19.0210  -32.7260 C   0  0  0  0  0  0  0  0  0  0  0  0
   -8.7080   19.0080  -31.6990 C   0  0  0  0  0  0  0  0  0  0  0  0
   -8.9330   20.3600  -31.0010 C   0  0  0  0  0  0  0  0  0  0  0  0
   -7.6790   21.1330  -30.9410 N   0  0  0  0  0  0  0  0  0  0  0  0
   -7.8150   22.2980  -30.0430 C   0  0  0  0  0  0  0  0  0  0  0  0
   -6.5670   23.1380  -30.0940 C   0  0  0  0  0  0  0  0  0  0  0  0
   -6.5940   24.3920  -30.7260 C   0  0  0  0  0  0  0  0  0  0  0  0
   -5.4310   25.1640  -30.8080 C   0  0  0  0  0  0  0  0  0  0  0  0
   -4.2360   24.6900  -30.2600 C   0  0  0  0  0  0  0  0  0  0  0  0
   -4.2010   23.4440  -29.6300 C   0  0  0  0  0  0  0  0  0  0  0  0
   -5.3620   22.6680  -29.5470 C   0  0  0  0  0  0  0  0  0  0  0  0
   -7.2850   21.5700  -32.2970 C   0  0  0  0  0  0  0  0  0  0  0  0
   -7.3250   20.4230  -33.3340 C   0  0  0  0  0  0  0  0  0  0  0  0
   -4.6883   16.5703  -31.6700 H   0  0  0  0  0  0  0  0  0  0  0  0
   -5.1320   15.6300  -33.1348 H   0  0  0  0  0  0  0  0  0  0  0  0
   -3.6513   16.6469  -33.1348 H   0  0  0  0  0  0  0  0  0  0  0  0
   -3.9967   18.0458  -34.7316 H   0  0  0  0  0  0  0  0  0  0  0  0
   -5.3839   19.2436  -34.6754 H   0  0  0  0  0  0  0  0  0  0  0  0
   -5.1759   21.2934  -33.6147 H   0  0  0  0  0  0  0  0  0  0  0  0
   -3.7987   22.9024  -32.2998 H   0  0  0  0  0  0  0  0  0  0  0  0
   -1.6534   22.1626  -31.2655 H   0  0  0  0  0  0  0  0  0  0  0  0
   -0.8650   19.8146  -31.5690 H   0  0  0  0  0  0  0  0  0  0  0  0
   -6.5183   17.6130  -31.4354 H   0  0  0  0  0  0  0  0  0  0  0  0
   -5.6249   19.1613  -31.7561 H   0  0  0  0  0  0  0  0  0  0  0  0
   -7.8641   18.3752  -33.5585 H   0  0  0  0  0  0  0  0  0  0  0  0
   -9.6336   18.7305  -32.2245 H   0  0  0  0  0  0  0  0  0  0  0  0
   -8.4356   18.2844  -30.9165 H   0  0  0  0  0  0  0  0  0  0  0  0
   -9.6846   20.9349  -31.5620 H   0  0  0  0  0  0  0  0  0  0  0  0
   -9.2817   20.1733  -29.9746 H   0  0  0  0  0  0  0  0  0  0  0  0
   -8.6754   22.9047  -30.3618 H   0  0  0  0  0  0  0  0  0  0  0  0
   -7.9687   21.9432  -29.0132 H   0  0  0  0  0  0  0  0  0  0  0  0
   -7.5332   24.7681  -31.1579 H   0  0  0  0  0  0  0  0  0  0  0  0
   -5.4567   26.1453  -31.3043 H   0  0  0  0  0  0  0  0  0  0  0  0
   -3.3221   25.2988  -30.3249 H   0  0  0  0  0  0  0  0  0  0  0  0
   -3.2597   23.0725  -29.1987 H   0  0  0  0  0  0  0  0  0  0  0  0
   -5.3309   21.6864  -29.0516 H   0  0  0  0  0  0  0  0  0  0  0  0
   -7.9734   22.3632  -32.6241 H   0  0  0  0  0  0  0  0  0  0  0  0
   -6.2463   21.9276  -32.2400 H   0  0  0  0  0  0  0  0  0  0  0  0
   -8.1436   20.6260  -34.0401 H   0  0  0  0  0  0  0  0  0  0  0  0
   -6.3371   20.4021  -33.8174 H   0  0  0  0  0  0  0  0  0  0  0  0
  1  2  1  0
  2  3  1  0
  3  4  1  0
  4  5  2  0
  5  6  1  0
  6  7  2  0
  7  8  1  0
  8  9  2  0
  9 10  1  0
  2 11  1  0
 11 12  1  0
 12 13  1  0
 13 14  1  0
 14 15  1  0
 15 16  1  0
 16 17  1  0
 17 18  2  0
 18 19  1  0
 19 20  2  0
 20 21  1  0
 21 22  2  0
 15 23  1  0
 23 24  1  0
  9  4  1  0
 24 12  1  0
 22 17  1  0
  1 25  1  0
  1 26  1  0
  1 27  1  0
  3 28  1  0
  3 29  1  0
  5 30  1  0
  6 31  1  0
  7 32  1  0
  8 33  1  0
 11 34  1  0
 11 35  1  0
 12 36  1  0
 13 37  1  0
 13 38  1  0
 14 39  1  0
 14 40  1  0
 16 41  1  0
 16 42  1  0
 18 43  1  0
 19 44  1  0
 20 45  1  0
 21 46  1  0
 22 47  1  0
 23 48  1  0
 23 49  1  0
 24 50  1  0
 24 51  1  0
M  END
>  <UniqueID>  (3) 
3

>  <SMILES>  (3) 
CN(Cc1ccccc1F)CC1CCN(Cc2ccccc2)CC1

>  <Energy>  (3) 
63.512202840090595

>  <Genealogy>  (3) 
CN(Cc1ccccc1F)CC1CCN(Cc2ccccc2)CC1 (3D coordinates assigned)
CN(Cc1ccccc1F)CC1CCN(Cc2ccccc2)CC1 (nonaromatic ring conformer: 63.512202840090595 kcal/mol)

>  <smiles>  (3) 
CN(Cc1ccccc1F)CC1CCN(Cc2ccccc2)CC1

>  <score_type>  (3) 
oracle

>  <origin>  (3) 
adg

>  <m_score__min__energy>  (3) 
-8.7699999999999996

>  <m_primary>  (3) 
energy

$$$$
3:0
     RDKit          3D

 39 41  0  0  0  0  0  0  0  0999 V2000
   -4.9320   25.1280  -30.1040 C   0  0  0  0  0  0  0  0  0  0  0  0
   -3.5290   25.2890  -29.9150 O   0  0  0  0  0  0  0  0  0  0  0  0
   -2.6170   24.2410  -29.7120 C   0  0  0  0  0  0  0  0  0  0  0  0
   -2.6910   23.0610  -30.4800 C   0  0  0  0  0  0  0  0  0  0  0  0
   -1.7880   22.0100  -30.2760 C   0  0  0  0  0  0  0  0  0  0  0  0
   -1.9180   20.7380  -31.0680 C   0  0  0  0  0  0  0  0  0  0  0  0
   -3.2190   20.7300  -31.7990 C   0  0  0  0  0  0  0  0  0  0  0  0
   -4.3670   20.2370  -31.2870 N   0  0  0  0  0  0  0  0  0  0  0  0
   -5.2250   20.4080  -32.3160 C   0  0  0  0  0  0  0  0  0  0  0  0
   -6.6580   20.0290  -32.2770 C   0  0  0  0  0  0  0  0  0  0  0  0
   -7.0090   18.6680  -32.3610 C   0  0  0  0  0  0  0  0  0  0  0  0
   -8.3500   18.2760  -32.3440 C   0  0  0  0  0  0  0  0  0  0  0  0
   -9.3570   19.2340  -32.2390 C   0  0  0  0  0  0  0  0  0  0  0  0
   -9.0280   20.5870  -32.1500 C   0  0  0  0  0  0  0  0  0  0  0  0
   -7.6880   20.9950  -32.1660 C   0  0  0  0  0  0  0  0  0  0  0  0
   -7.3590   22.7170  -31.9820 Cl  0  0  0  0  0  0  0  0  0  0  0  0
   -4.6160   20.9800  -33.3740 N   0  0  0  0  0  0  0  0  0  0  0  0
   -3.3800   21.1600  -33.0280 O   0  0  0  0  0  0  0  0  0  0  0  0
   -0.8100   22.1270  -29.2840 C   0  0  0  0  0  0  0  0  0  0  0  0
   -0.7160   23.2910  -28.5190 C   0  0  0  0  0  0  0  0  0  0  0  0
    0.6490   23.4030  -27.1810 Br  0  0  0  0  0  0  0  0  0  0  0  0
   -1.6090   24.3580  -28.7190 C   0  0  0  0  0  0  0  0  0  0  0  0
   -1.4410   25.4940  -27.9040 O   0  0  0  0  0  0  0  0  0  0  0  0
   -1.9960   25.6980  -26.6090 C   0  0  0  0  0  0  0  0  0  0  0  0
   -5.4297   25.0709  -29.1247 H   0  0  0  0  0  0  0  0  0  0  0  0
   -5.3271   25.9867  -30.6666 H   0  0  0  0  0  0  0  0  0  0  0  0
   -5.1223   24.2021  -30.6666 H   0  0  0  0  0  0  0  0  0  0  0  0
   -3.4696   22.9643  -31.2510 H   0  0  0  0  0  0  0  0  0  0  0  0
   -1.0920   20.6719  -31.7914 H   0  0  0  0  0  0  0  0  0  0  0  0
   -1.8800   19.8778  -30.3835 H   0  0  0  0  0  0  0  0  0  0  0  0
   -6.2198   17.9059  -32.4408 H   0  0  0  0  0  0  0  0  0  0  0  0
   -8.6114   17.2098  -32.4136 H   0  0  0  0  0  0  0  0  0  0  0  0
  -10.4121   18.9231  -32.2263 H   0  0  0  0  0  0  0  0  0  0  0  0
   -9.8267   21.3388  -32.0667 H   0  0  0  0  0  0  0  0  0  0  0  0
   -5.0210   21.2170  -34.3050 H   0  0  0  0  0  0  0  0  0  0  0  0
   -0.1105   21.2971  -29.1052 H   0  0  0  0  0  0  0  0  0  0  0  0
   -1.2535   25.4251  -25.8447 H   0  0  0  0  0  0  0  0  0  0  0  0
   -2.2718   26.7563  -26.4908 H   0  0  0  0  0  0  0  0  0  0  0  0
   -2.8915   25.0703  -26.4908 H   0  0  0  0  0  0  0  0  0  0  0  0
  1  2  1  0
  2  3  1  0
  3  4  2  0
  4  5  1  0
  5  6  1  0
  6  7  1  0
  7  8  2  0
  8  9  1  0
  9 10  1  0
 10 11  2  0
 11 12  1  0
 12 13  2  0
 13 14  1  0
 14 15  2  0
 15 16  1  0
  9 17  2  0
 17 18  1  0
  5 19  2  0
 19 20  1  0
 20 21  1  0
 20 22  2  0
 22 23  1  0
 23 24  1  0
 22  3  1  0
 18  7  1  0
 15 10  1  0
  1 25  1  0
  1 26  1  0
  1 27  1  0
  4 28  1  0
  6 29  1  0
  6 30  1  0
 11 31  1  0
 12 32  1  0
 13 33  1  0
 14 34  1  0
 17 35  1  0
 19 36  1  0
 24 37  1  0
 24 38  1  0
 24 39  1  0
M  CHG  1  17   1
M  END
>  <UniqueID>  (4) 
4

>  <SMILES>  (4) 
COc1cc(Cc2nc(-c3ccccc3Cl)[nH+]o2)cc(Br)c1OC

>  <Energy>  (4) 
79.68559990459869

>  <Genealogy>  (4) 
COc1cc(Cc2nc(-c3ccccc3Cl)[nH+]o2)cc(Br)c1OC (protonated)
COc1cc(Cc2nc(-c3ccccc3Cl)[nH+]o2)cc(Br)c1OC (3D coordinates assigned)
COc1cc(Cc2nc(-c3ccccc3Cl)[nH+]o2)cc(Br)c1OC (optimized conformer: 79.68559990459869 kcal/mol)

>  <smiles>  (4) 
COc1cc(Cc2nc(-c3ccccc3Cl)no2)cc(Br)c1OC

>  <score_type>  (4) 
oracle

>  <origin>  (4) 
adg

>  <m_score__min__energy>  (4) 
-8.5099999999999998

>  <m_primary>  (4) 
energy

$$$$
4:0
     RDKit          3D

 38 39  0  0  0  0  0  0  0  0999 V2000
   -6.0840   23.5044  -29.7750 H   0  0  0  0  0  0  0  0  0  0  0  0
   -5.8230   24.0530  -30.6920 C   0  0  0  0  0  0  0  0  0  0  0  0
   -4.9770   25.2540  -30.5420 C   0  0  0  0  0  0  0  0  0  0  0  0
   -5.4890   26.4000  -30.4210 O   0  0  0  0  0  0  0  0  0  0  0  0
   -3.5590   25.0940  -30.4730 N   0  0  0  0  0  0  0  0  0  0  0  0
   -2.8840   24.5470  -29.3030 C   0  0  0  0  0  0  0  0  0  0  0  0
   -3.2533   25.0518  -28.3981 H   0  0  0  0  0  0  0  0  0  0  0  0
   -1.8000   24.7080  -29.3984 H   0  0  0  0  0  0  0  0  0  0  0  0
   -3.1670   23.0500  -29.2010 C   0  0  0  0  0  0  0  0  0  0  0  0
   -4.2550   22.8879  -29.1915 H   0  0  0  0  0  0  0  0  0  0  0  0
   -2.7162   22.6670  -28.2736 H   0  0  0  0  0  0  0  0  0  0  0  0
   -2.5680   22.3150  -30.3700 C   0  0  0  0  0  0  0  0  0  0  0  0
   -1.1780   22.1400  -30.4580 C   0  0  0  0  0  0  0  0  0  0  0  0
   -0.5215   22.5710  -29.6877 H   0  0  0  0  0  0  0  0  0  0  0  0
   -0.6250   21.4200  -31.5210 C   0  0  0  0  0  0  0  0  0  0  0  0
    0.4651   21.2886  -31.5867 H   0  0  0  0  0  0  0  0  0  0  0  0
   -1.4540   20.8670  -32.5000 C   0  0  0  0  0  0  0  0  0  0  0  0
   -1.0144   20.2958  -33.3310 H   0  0  0  0  0  0  0  0  0  0  0  0
   -2.8450   21.0370  -32.4280 C   0  0  0  0  0  0  0  0  0  0  0  0
   -3.7380   20.4030  -33.4520 C   0  0  0  0  0  0  0  0  0  0  0  0
   -4.5339   19.8379  -32.9449 H   0  0  0  0  0  0  0  0  0  0  0  0
   -4.1876   21.1853  -34.0812 H   0  0  0  0  0  0  0  0  0  0  0  0
   -3.1477   19.7206  -34.0812 H   0  0  0  0  0  0  0  0  0  0  0  0
   -3.3990   21.7450  -31.3490 C   0  0  0  0  0  0  0  0  0  0  0  0
   -4.4907   21.8540  -31.2699 H   0  0  0  0  0  0  0  0  0  0  0  0
   -6.3010   23.5730  -31.8510 C   0  0  0  0  0  0  0  0  0  0  0  0
   -5.9716   24.0689  -32.7760 H   0  0  0  0  0  0  0  0  0  0  0  0
   -7.2320   22.4350  -31.9880 C   0  0  0  0  0  0  0  0  0  0  0  0
   -8.5690   22.5880  -31.5870 C   0  0  0  0  0  0  0  0  0  0  0  0
   -8.9203   23.5604  -31.2115 H   0  0  0  0  0  0  0  0  0  0  0  0
   -9.4560   21.5090  -31.6630 C   0  0  0  0  0  0  0  0  0  0  0  0
  -10.5064   21.6393  -31.3637 H   0  0  0  0  0  0  0  0  0  0  0  0
   -9.0090   20.2650  -32.1190 C   0  0  0  0  0  0  0  0  0  0  0  0
   -9.7094   19.4193  -32.1850 H   0  0  0  0  0  0  0  0  0  0  0  0
   -7.6720   20.0960  -32.4910 C   0  0  0  0  0  0  0  0  0  0  0  0
   -7.3193   19.1153  -32.8430 H   0  0  0  0  0  0  0  0  0  0  0  0
   -6.7830   21.1720  -32.4160 C   0  0  0  0  0  0  0  0  0  0  0  0
   -5.7278   21.0308  -32.6928 H   0  0  0  0  0  0  0  0  0  0  0  0
  1  2  1  0
  2  3  1  0
  3  4  2  0
  3  5  1  0
  5  6  1  0
  6  7  1  0
  6  8  1  0
  6  9  1  0
  9 10  1  0
  9 11  1  0
  9 12  1  0
 12 13  2  0
 13 14  1  0
 13 15  1  0
 15 16  1  0
 15 17  2  0
 17 18  1  0
 17 19  1  0
 19 20  1  0
 20 21  1  0
 20 22  1  0
 20 23  1  0
 19 24  2  0
 24 25  1  0
  2 26  2  0
 26 27  1  0
 26 28  1  0
 28 29  2  0
 29 30  1  0
 29 31  1  0
 31 32  1  0
 31 33  2  0
 33 34  1  0
 33 35  1  0
 35 36  1  0
 35 37  2  0
 37 38  1  0
 24 12  1  0
 37 28  1  0
M  CHG  1   5  -1
M  END
>  <UniqueID>  (5) 
5

>  <SMILES>  (5) 
Cc1cccc(CC[N-]C(=O)/C=C\c2ccccc2)c1

>  <Energy>  (5) 
39.617853109513604

>  <Genealogy>  (5) 
Cc1cccc(CC[N-]C(=O)C=Cc2ccccc2)c1 (protonated)
Cc1cccc(CC[N-]C(=O)/C=C\c2ccccc2)c1 (cis-trans isomerization)
Cc1cccc(CC[N-]C(=O)/C=C\c2ccccc2)c1 (3D coordinates assigned)
Cc1cccc(CC[N-]C(=O)/C=C\c2ccccc2)c1 (optimized conformer: 39.617853109513604 kcal/mol)

>  <smiles>  (5) 
Cc1cccc(CCNC(=O)C=Cc2ccccc2)c1

>  <score_type>  (5) 
oracle

>  <origin>  (5) 
adg

>  <m_score__min__energy>  (5) 
-9.5700000000000003

>  <m_primary>  (5) 
energy

$$$$
5:0
     RDKit          3D

 34 35  0  0  0  0  0  0  0  0999 V2000
   -8.9950   20.2130  -32.3150 C   0  0  0  0  0  0  0  0  0  0  0  0
   -8.1590   21.2090  -32.0040 C   0  0  0  0  0  0  0  0  0  0  0  0
   -6.7290   20.9510  -31.5960 C   0  0  0  0  0  0  0  0  0  0  0  0
   -5.8310   22.1170  -31.7820 N   0  0  1  0  0  0  0  0  0  0  0  0
   -4.7660   21.8630  -32.7700 C   0  0  0  0  0  0  0  0  0  0  0  0
   -6.5510   23.4090  -31.9700 C   0  0  0  0  0  0  0  0  0  0  0  0
   -6.9010   24.1820  -30.6780 C   0  0  0  0  0  0  0  0  0  0  0  0
   -5.7450   25.5710  -30.4000 S   0  0  0  0  0  0  0  0  0  0  0  0
   -4.3880   24.4970  -29.9460 C   0  0  0  0  0  0  0  0  0  0  0  0
   -3.0980   24.9210  -29.9210 N   0  0  0  0  0  0  0  0  0  0  0  0
   -2.4420   23.8200  -29.5290 C   0  0  0  0  0  0  0  0  0  0  0  0
   -1.0730   23.6680  -29.3280 C   0  0  0  0  0  0  0  0  0  0  0  0
   -0.6100   22.4060  -28.9100 C   0  0  0  0  0  0  0  0  0  0  0  0
   -1.5190   21.3420  -28.7070 C   0  0  0  0  0  0  0  0  0  0  0  0
   -2.8970   21.5330  -28.9200 C   0  0  0  0  0  0  0  0  0  0  0  0
   -3.3180   22.7950  -29.3340 C   0  0  0  0  0  0  0  0  0  0  0  0
   -4.5690   23.1980  -29.5930 N   0  0  0  0  0  0  0  0  0  0  0  0
  -10.0314   20.4362  -32.6084 H   0  0  0  0  0  0  0  0  0  0  0  0
   -8.6464   19.1704  -32.2775 H   0  0  0  0  0  0  0  0  0  0  0  0
   -8.5238   22.2459  -32.0467 H   0  0  0  0  0  0  0  0  0  0  0  0
   -6.7175   20.6712  -30.5322 H   0  0  0  0  0  0  0  0  0  0  0  0
   -6.3507   20.1496  -32.2477 H   0  0  0  0  0  0  0  0  0  0  0  0
   -5.3310   22.2140  -30.8650 H   0  0  0  0  0  0  0  0  0  0  0  0
   -3.8254   21.6387  -32.2457 H   0  0  0  0  0  0  0  0  0  0  0  0
   -5.0475   21.0068  -33.4006 H   0  0  0  0  0  0  0  0  0  0  0  0
   -4.6308   22.7541  -33.4006 H   0  0  0  0  0  0  0  0  0  0  0  0
   -5.9182   24.0600  -32.5911 H   0  0  0  0  0  0  0  0  0  0  0  0
   -7.5152   23.1478  -32.4306 H   0  0  0  0  0  0  0  0  0  0  0  0
   -7.9234   24.5786  -30.7637 H   0  0  0  0  0  0  0  0  0  0  0  0
   -6.8219   23.4893  -29.8272 H   0  0  0  0  0  0  0  0  0  0  0  0
   -0.3774   24.5046  -29.4901 H   0  0  0  0  0  0  0  0  0  0  0  0
    0.4651   22.2466  -28.7403 H   0  0  0  0  0  0  0  0  0  0  0  0
   -1.1470   20.3596  -28.3808 H   0  0  0  0  0  0  0  0  0  0  0  0
   -3.6160   20.7151  -28.7651 H   0  0  0  0  0  0  0  0  0  0  0  0
  1  2  2  0
  2  3  1  0
  3  4  1  0
  4  5  1  0
  4  6  1  0
  6  7  1  0
  7  8  1  0
  8  9  1  0
  9 10  2  0
 10 11  1  0
 11 12  2  0
 12 13  1  0
 13 14  2  0
 14 15  1  0
 15 16  2  0
 16 17  1  0
 17  9  1  0
 16 11  1  0
  1 18  1  0
  1 19  1  0
  2 20  1  0
  3 21  1  0
  3 22  1  0
  4 23  1  1
  5 24  1  0
  5 25  1  0
  5 26  1  0
  6 27  1  0
  6 28  1  0
  7 29  1  0
  7 30  1  0
 12 31  1  0
 13 32  1  0
 14 33  1  0
 15 34  1  0
M  CHG  2   4   1  17  -1
M  END
>  <UniqueID>  (6) 
6

>  <SMILES>  (6) 
C=CC[N@@H+](C)CCSc1nc2ccccc2[n-]1

>  <Energy>  (6) 
71.50071133155106

>  <Genealogy>  (6) 
C=CC[NH+](C)CCSc1nc2ccccc2[n-]1 (protonated)
C=CC[N@@H+](C)CCSc1nc2ccccc2[n-]1 (chirality)
C=CC[N@@H+](C)CCSc1nc2ccccc2[n-]1 (3D coordinates assigned)
C=CC[N@@H+](C)CCSc1nc2ccccc2[n-]1 (optimized conformer: 71.50071133155106 kcal/mol)

>  <smiles>  (6) 
C=CCN(C)CCSc1nc2ccccc2[nH]1

>  <score_type>  (6) 
oracle

>  <origin>  (6) 
adg

>  <m_score__min__energy>  (6) 
-6.1100000000000003

>  <m_primary>  (6) 
energy

$$$$
6:0
     RDKit          3D

 40 40  0  0  0  0  0  0  0  0999 V2000
   -2.2314   22.6327  -32.4299 H   0  0  0  0  0  0  0  0  0  0  0  0
   -3.6280   21.1150  -32.8130 C   0  0  0  0  0  0  0  0  0  0  0  0
   -3.5660   24.3930  -30.0000 C   0  0  0  0  0  0  0  0  0  0  0  0
   -2.6280   24.7740  -29.2490 O   0  0  0  0  0  0  0  0  0  0  0  0
   -4.2150   25.3120  -30.8340 O   0  0  0  0  0  0  0  0  0  0  0  0
   -5.6120   25.5900  -30.7640 C   0  0  0  0  0  0  0  0  0  0  0  0
   -6.1410   24.9715  -31.5040 H   0  0  0  0  0  0  0  0  0  0  0  0
   -5.7717   26.6576  -30.9756 H   0  0  0  0  0  0  0  0  0  0  0  0
   -6.1530   25.2790  -29.3730 C   0  0  0  0  0  0  0  0  0  0  0  0
   -5.4628   25.6758  -28.6140 H   0  0  0  0  0  0  0  0  0  0  0  0
   -7.1409   25.7471  -29.2507 H   0  0  0  0  0  0  0  0  0  0  0  0
   -6.2457   24.1898  -29.2507 H   0  0  0  0  0  0  0  0  0  0  0  0
   -5.9240   20.1550  -32.8640 C   0  0  0  0  0  0  0  0  0  0  0  0
   -4.7070   20.2430  -32.2980 C   0  0  0  0  0  0  0  0  0  0  0  0
   -4.5029   19.6344  -31.4047 H   0  0  0  0  0  0  0  0  0  0  0  0
   -3.1780   21.9600  -30.5240 C   0  0  0  0  0  0  0  0  0  0  0  0
   -3.3678   21.0847  -33.8813 H   0  0  0  0  0  0  0  0  0  0  0  0
   -3.9250   22.9590  -30.0110 C   0  0  0  0  0  0  0  0  0  0  0  0
   -4.8890   22.6815  -29.5598 H   0  0  0  0  0  0  0  0  0  0  0  0
   -2.9660   21.9390  -31.9950 C   0  0  0  0  0  0  0  0  0  0  0  0
   -7.0610   20.9910  -32.4240 C   0  0  0  0  0  0  0  0  0  0  0  0
   -6.9010   22.3410  -32.3950 N   0  0  0  0  0  0  0  0  0  0  0  0
   -7.9030   23.1630  -31.9940 C   0  0  0  0  0  0  0  0  0  0  0  0
   -7.7482   24.2520  -31.9817 H   0  0  0  0  0  0  0  0  0  0  0  0
   -9.0960   22.6440  -31.6080 N   0  0  0  0  0  0  0  0  0  0  0  0
   -9.3130   21.3040  -31.6290 C   0  0  0  0  0  0  0  0  0  0  0  0
  -10.2846   20.9016  -31.3062 H   0  0  0  0  0  0  0  0  0  0  0  0
   -8.3050   20.4310  -32.0600 C   0  0  0  0  0  0  0  0  0  0  0  0
   -8.5580   18.9480  -32.0830 C   0  0  0  0  0  0  0  0  0  0  0  0
   -8.6223   18.5710  -31.0516 H   0  0  0  0  0  0  0  0  0  0  0  0
   -9.5037   18.7455  -32.6071 H   0  0  0  0  0  0  0  0  0  0  0  0
   -7.7330   18.4434  -32.6071 H   0  0  0  0  0  0  0  0  0  0  0  0
   -2.5460   20.8990  -29.6540 C   0  0  0  0  0  0  0  0  0  0  0  0
   -2.6983   21.1546  -28.5950 H   0  0  0  0  0  0  0  0  0  0  0  0
   -3.0114   19.9253  -29.8667 H   0  0  0  0  0  0  0  0  0  0  0  0
   -1.4681   20.8445  -29.8667 H   0  0  0  0  0  0  0  0  0  0  0  0
   -6.1210   19.2570  -34.0510 C   0  0  0  0  0  0  0  0  0  0  0  0
   -6.3448   18.2368  -33.7058 H   0  0  0  0  0  0  0  0  0  0  0  0
   -6.9585   19.6306  -34.6584 H   0  0  0  0  0  0  0  0  0  0  0  0
   -5.2040   19.2457  -34.6584 H   0  0  0  0  0  0  0  0  0  0  0  0
  1  2  1  0
  2  3  1  0
  3  4  2  0
  3  5  1  0
  5  6  1  0
  6  7  1  0
  6  8  1  0
  6  9  1  0
  9 10  1  0
  9 11  1  0
  9 12  1  0
  2 13  2  0
 13 14  1  0
 14 15  1  0
 14 16  2  0
 16 17  1  0
 16 18  1  0
 18 19  1  0
 18 20  2  3
 20 21  1  0
 21 22  2  0
 22 23  1  0
 23 24  1  0
 23 25  2  0
 25 26  1  0
 26 27  1  0
 26 28  2  0
 28 29  1  0
 29 30  1  0
 29 31  1  0
 29 32  1  0
 20 33  1  0
 33 34  1  0
 33 35  1  0
 33 36  1  0
 13 37  1  0
 37 38  1  0
 37 39  1  0
 37 40  1  0
 28 21  1  0
M  END
>  <UniqueID>  (7) 
7

>  <SMILES>  (7) 
CCOC(=O)C=C(C)/C=C/C=C(C)c1ncncc1C

>  <Energy>  (7) 
42.93966275409429

>  <Genealogy>  (7) 
CCOC(=O)C=C(C)/C=C/C=C(C)c1ncncc1C (cis-trans isomerization)
CCOC(=O)C=C(C)/C=C/C=C(C)c1ncncc1C (3D coordinates assigned)
CCOC(=O)C=C(C)/C=C/C=C(C)c1ncncc1C (optimized conformer: 42.93966275409429 kcal/mol)

>  <smiles>  (7) 
CCOC(=O)C=C(C)C=CC=C(C)c1ncncc1C

>  <score_type>  (7) 
oracle

>  <origin>  (7) 
adg

>  <m_score__min__energy>  (7) 
-7.6399999999999997

>  <m_primary>  (7) 
energy

$$$$
7:0
     RDKit          3D

 44 46  0  0  0  0  0  0  0  0999 V2000
    2.2735   24.2055  -26.7071 H   0  0  0  0  0  0  0  0  0  0  0  0
    1.3880   24.7830  -27.0110 C   0  0  0  0  0  0  0  0  0  0  0  0
    0.4280   24.1990  -27.8440 C   0  0  0  0  0  0  0  0  0  0  0  0
    0.5622   23.1624  -28.1866 H   0  0  0  0  0  0  0  0  0  0  0  0
   -0.7080   24.9250  -28.2480 C   0  0  0  0  0  0  0  0  0  0  0  0
   -1.7430   24.3210  -29.1240 C   0  0  0  0  0  0  0  0  0  0  0  0
   -2.8780   25.0120  -29.3790 N   0  0  0  0  0  0  0  0  0  0  0  0
   -3.8670   24.5350  -30.1730 C   0  0  0  0  0  0  0  0  0  0  0  0
   -4.9980   25.3340  -30.3740 C   0  0  0  0  0  0  0  0  0  0  0  0
   -5.0684   26.3142  -29.8798 H   0  0  0  0  0  0  0  0  0  0  0  0
   -6.0330   24.8990  -31.1930 C   0  0  0  0  0  0  0  0  0  0  0  0
   -6.9215   25.5301  -31.3423 H   0  0  0  0  0  0  0  0  0  0  0  0
   -5.9410   23.6630  -31.8230 C   0  0  0  0  0  0  0  0  0  0  0  0
   -6.7583   23.3208  -32.4748 H   0  0  0  0  0  0  0  0  0  0  0  0
   -4.8190   22.8520  -31.6350 C   0  0  0  0  0  0  0  0  0  0  0  0
   -4.7622   21.8823  -32.1512 H   0  0  0  0  0  0  0  0  0  0  0  0
   -3.7520   23.2540  -30.7920 C   0  0  0  0  0  0  0  0  0  0  0  0
   -2.5590   22.4920  -30.5270 C   0  0  0  0  0  0  0  0  0  0  0  0
   -2.2740   21.2900  -30.9670 N   0  0  0  0  0  0  0  0  0  0  0  0
   -1.0590   20.4900  -31.0810 C   0  0  0  0  0  0  0  0  0  0  0  0
   -0.5055   20.5380  -30.1316 H   0  0  0  0  0  0  0  0  0  0  0  0
   -1.3415   19.4515  -31.3083 H   0  0  0  0  0  0  0  0  0  0  0  0
   -0.1620   21.0150  -32.2140 C   0  0  0  0  0  0  0  0  0  0  0  0
    0.1251   22.0518  -31.9847 H   0  0  0  0  0  0  0  0  0  0  0  0
    0.7165   20.3559  -32.2768 H   0  0  0  0  0  0  0  0  0  0  0  0
   -0.8630   20.9890  -33.5810 C   0  0  0  0  0  0  0  0  0  0  0  0
   -0.3456   21.6840  -34.2586 H   0  0  0  0  0  0  0  0  0  0  0  0
   -0.8246   19.9581  -33.9628 H   0  0  0  0  0  0  0  0  0  0  0  0
   -2.2700   21.3830  -33.4840 N   0  0  0  0  0  0  0  0  0  0  0  0
   -2.8260   20.6400  -33.0030 H   0  0  0  0  0  0  0  0  0  0  0  0
   -2.6630   21.5630  -34.4360 H   0  0  0  0  0  0  0  0  0  0  0  0
   -2.3380   22.2620  -32.9230 H   0  0  0  0  0  0  0  0  0  0  0  0
   -1.5710   23.0610  -29.7070 C   0  0  0  0  0  0  0  0  0  0  0  0
   -0.6415   22.5037  -29.5190 H   0  0  0  0  0  0  0  0  0  0  0  0
   -0.8670   26.2420  -27.7820 C   0  0  0  0  0  0  0  0  0  0  0  0
   -1.7564   26.8193  -28.0747 H   0  0  0  0  0  0  0  0  0  0  0  0
    0.0930   26.8250  -26.9510 C   0  0  0  0  0  0  0  0  0  0  0  0
   -0.0441   27.8589  -26.6014 H   0  0  0  0  0  0  0  0  0  0  0  0
    1.2260   26.1060  -26.5600 C   0  0  0  0  0  0  0  0  0  0  0  0
    2.1610   26.7360  -25.7250 O   0  0  0  0  0  0  0  0  0  0  0  0
    2.0470   26.8160  -24.3090 C   0  0  0  0  0  0  0  0  0  0  0  0
    2.8625   26.2437  -23.8426 H   0  0  0  0  0  0  0  0  0  0  0  0
    2.1111   27.8682  -23.9948 H   0  0  0  0  0  0  0  0  0  0  0  0
    1.0793   26.3979  -23.9948 H   0  0  0  0  0  0  0  0  0  0  0  0
  1  2  1  0
  2  3  2  0
  3  4  1  0
  3  5  1  0
  5  6  1  0
  6  7  1  0
  7  8  1  0
  8  9  2  0
  9 10  1  0
  9 11  1  0
 11 12  1  0
 11 13  2  0
 13 14  1  0
 13 15  1  0
 15 16  1  0
 15 17  2  0
 17 18  1  0
 18 19  2  0
 19 20  1  0
 20 21  1  0
 20 22  1  0
 20 23  1  0
 23 24  1  0
 23 25  1  0
 23 26  1  0
 26 27  1  0
 26 28  1  0
 26 29  1  0
 29 30  1  0
 29 31  1  0
 29 32  1  0
 18 33  1  0
 33 34  1  0
  5 35  2  0
 35 36  1  0
 35 37  1  0
 37 38  1  0
 37 39  2  0
 39 40  1  0
 40 41  1  0
 41 42  1  0
 41 43  1  0
 41 44  1  0
 39  2  1  0
 33  6  2  0
 17  8  1  0
M  CHG  2   7  -1  29   1
M  END
>  <UniqueID>  (8) 
8

>  <SMILES>  (8) 
COc1ccc(-c2c/c(=N/CCC[NH3+])c3ccccc3[n-]2)cc1

>  <Energy>  (8) 
65.79028098067403

>  <Genealogy>  (8) 
COc1ccc(-c2cc(=NCCC[NH3+])c3ccccc3[n-]2)cc1 (protonated)
COc1ccc(-c2c/c(=N/CCC[NH3+])c3ccccc3[n-]2)cc1 (cis-trans isomerization)
COc1ccc(-c2c/c(=N/CCC[NH3+])c3ccccc3[n-]2)cc1 (3D coordinates assigned)
COc1ccc(-c2c/c(=N/CCC[NH3+])c3ccccc3[n-]2)cc1 (optimized conformer: 65.79028098067403 kcal/mol)

>  <smiles>  (8) 
COc1ccc(-c2cc(=NCCCN)c3ccccc3[nH]2)cc1

>  <score_type>  (8) 
oracle

>  <origin>  (8) 
adg

>  <m_score__min__energy>  (8) 
-8.4600000000000009

>  <m_primary>  (8) 
energy

$$$$
8:0
     RDKit          3D

 53 56  0  0  0  0  0  0  0  0999 V2000
   -2.0350   19.7140  -26.8440 C   0  0  0  0  0  0  0  0  0  0  0  0
   -1.1450   20.3240  -27.7750 O   0  0  0  0  0  0  0  0  0  0  0  0
   -1.2250   21.6620  -28.1880 C   0  0  0  0  0  0  0  0  0  0  0  0
   -0.0810   22.4590  -28.0780 C   0  0  0  0  0  0  0  0  0  0  0  0
   -0.1080   23.7970  -28.4750 C   0  0  0  0  0  0  0  0  0  0  0  0
   -1.2830   24.3540  -28.9860 C   0  0  0  0  0  0  0  0  0  0  0  0
   -2.4450   23.5740  -29.1050 C   0  0  0  0  0  0  0  0  0  0  0  0
   -3.6850   24.1680  -29.6450 C   0  0  0  0  0  0  0  0  0  0  0  0
   -4.9230   23.6990  -29.3740 N   0  0  0  0  0  0  0  0  0  0  0  0
   -5.7250   24.5230  -30.0750 C   0  0  0  0  0  0  0  0  0  0  0  0
   -7.2250   24.3970  -30.1400 C   0  0  0  0  0  0  0  0  0  0  0  0
   -7.6800   23.3600  -31.0930 N   0  0  0  0  0  0  0  0  0  0  0  0
   -7.0330   23.4360  -32.4260 C   0  0  0  0  0  0  0  0  0  0  0  0
   -5.9790   22.3400  -32.6390 C   0  0  0  0  0  0  0  0  0  0  0  0
   -6.5510   21.0130  -32.3740 N   0  0  0  0  0  0  0  0  0  0  0  0
   -5.8870   19.8310  -32.8690 C   0  0  0  0  0  0  0  0  0  0  0  0
   -6.6430   18.8020  -33.4600 C   0  0  0  0  0  0  0  0  0  0  0  0
   -6.0170   17.6570  -33.9590 C   0  0  0  0  0  0  0  0  0  0  0  0
   -4.6310   17.5230  -33.8730 C   0  0  0  0  0  0  0  0  0  0  0  0
   -3.8660   18.5320  -33.2830 C   0  0  0  0  0  0  0  0  0  0  0  0
   -4.4850   19.6920  -32.7710 C   0  0  0  0  0  0  0  0  0  0  0  0
   -3.7410   20.7100  -32.1490 O   0  0  0  0  0  0  0  0  0  0  0  0
   -2.3180   20.7740  -32.1240 C   0  0  0  0  0  0  0  0  0  0  0  0
   -7.7550   20.9030  -31.5430 C   0  0  0  0  0  0  0  0  0  0  0  0
   -7.7530   22.0090  -30.4860 C   0  0  0  0  0  0  0  0  0  0  0  0
   -4.9590   25.4580  -30.7380 C   0  0  0  0  0  0  0  0  0  0  0  0
   -3.7060   25.2090  -30.4510 O   0  0  0  0  0  0  0  0  0  0  0  0
   -2.4110   22.2250  -28.7050 C   0  0  0  0  0  0  0  0  0  0  0  0
   -1.7051   19.9401  -25.8193 H   0  0  0  0  0  0  0  0  0  0  0  0
   -3.0512   20.1064  -26.9971 H   0  0  0  0  0  0  0  0  0  0  0  0
   -2.0356   18.6247  -26.9971 H   0  0  0  0  0  0  0  0  0  0  0  0
    0.8475   22.0280  -27.6754 H   0  0  0  0  0  0  0  0  0  0  0  0
    0.7980   24.4143  -28.3853 H   0  0  0  0  0  0  0  0  0  0  0  0
   -1.2982   25.4091  -29.2968 H   0  0  0  0  0  0  0  0  0  0  0  0
   -7.5984   24.1395  -29.1379 H   0  0  0  0  0  0  0  0  0  0  0  0
   -7.6201   25.3615  -30.4916 H   0  0  0  0  0  0  0  0  0  0  0  0
   -7.8084   23.3330  -33.1994 H   0  0  0  0  0  0  0  0  0  0  0  0
   -6.5192   24.4065  -32.4900 H   0  0  0  0  0  0  0  0  0  0  0  0
   -5.6225   22.3787  -33.6789 H   0  0  0  0  0  0  0  0  0  0  0  0
   -5.1442   22.5113  -31.9435 H   0  0  0  0  0  0  0  0  0  0  0  0
   -7.7364   18.8999  -33.5298 H   0  0  0  0  0  0  0  0  0  0  0  0
   -6.6180   16.8597  -34.4205 H   0  0  0  0  0  0  0  0  0  0  0  0
   -4.1402   16.6222  -34.2701 H   0  0  0  0  0  0  0  0  0  0  0  0
   -2.7736   18.4214  -33.2171 H   0  0  0  0  0  0  0  0  0  0  0  0
   -1.9699   20.7897  -31.0806 H   0  0  0  0  0  0  0  0  0  0  0  0
   -1.9023   19.8936  -32.6360 H   0  0  0  0  0  0  0  0  0  0  0  0
   -1.9830   21.6881  -32.6360 H   0  0  0  0  0  0  0  0  0  0  0  0
   -8.6479   21.0047  -32.1773 H   0  0  0  0  0  0  0  0  0  0  0  0
   -7.7663   19.9223  -31.0449 H   0  0  0  0  0  0  0  0  0  0  0  0
   -8.6771   21.9356  -29.8939 H   0  0  0  0  0  0  0  0  0  0  0  0
   -6.8627   21.8726  -29.8545 H   0  0  0  0  0  0  0  0  0  0  0  0
   -5.3314   26.2638  -31.3876 H   0  0  0  0  0  0  0  0  0  0  0  0
   -3.3153   21.6053  -28.7961 H   0  0  0  0  0  0  0  0  0  0  0  0
  1  2  1  0
  2  3  1  0
  3  4  2  0
  4  5  1  0
  5  6  2  0
  6  7  1  0
  7  8  1  0
  8  9  2  0
  9 10  1  0
 10 11  1  0
 11 12  1  0
 12 13  1  0
 13 14  1  0
 14 15  1  0
 15 16  1  0
 16 17  2  0
 17 18  1  0
 18 19  2  0
 19 20  1  0
 20 21  2  0
 21 22  1  0
 22 23  1  0
 15 24  1  0
 24 25  1  0
 10 26  2  0
 26 27  1  0
  7 28  2  0
 28  3  1  0
 27  8  1  0
 25 12  1  0
 21 16  1  0
  1 29  1  0
  1 30  1  0
  1 31  1  0
  4 32  1  0
  5 33  1  0
  6 34  1  0
 11 35  1  0
 11 36  1  0
 13 37  1  0
 13 38  1  0
 14 39  1  0
 14 40  1  0
 17 41  1  0
 18 42  1  0
 19 43  1  0
 20 44  1  0
 23 45  1  0
 23 46  1  0
 23 47  1  0
 24 48  1  0
 24 49  1  0
 25 50  1  0
 25 51  1  0
 26 52  1  0
 28 53  1  0
M  END
>  <UniqueID>  (9) 
9

>  <SMILES>  (9) 
COc1cccc(-c2nc(CN3CCN(c4ccccc4OC)CC3)co2)c1

>  <Energy>  (9) 
96.74788872143718

>  <Genealogy>  (9) 
COc1cccc(-c2nc(CN3CCN(c4ccccc4OC)CC3)co2)c1 (3D coordinates assigned)
COc1cccc(-c2nc(CN3CCN(c4ccccc4OC)CC3)co2)c1 (nonaromatic ring conformer: 96.74788872143718 kcal/mol)

>  <smiles>  (9) 
COc1cccc(-c2nc(CN3CCN(c4ccccc4OC)CC3)co2)c1

>  <score_type>  (9) 
oracle

>  <origin>  (9) 
adg

>  <m_score__min__energy>  (9) 
-9.3699999999999992

>  <m_primary>  (9) 
energy

$$$$
9:0
     RDKit          3D

 40 44  0  0  0  0  0  0  0  0999 V2000
   -3.6030   19.2530  -33.6360 C   0  0  0  0  0  0  0  0  0  0  0  0
   -2.7900   20.4160  -33.5210 O   0  0  0  0  0  0  0  0  0  0  0  0
   -2.8730   21.3420  -32.4700 C   0  0  0  0  0  0  0  0  0  0  0  0
   -1.8390   21.5030  -31.5210 C   0  0  0  0  0  0  0  0  0  0  0  0
   -1.9540   22.4430  -30.4740 C   0  0  0  0  0  0  0  0  0  0  0  0
   -0.9370   22.6290  -29.5250 O   0  0  0  0  0  0  0  0  0  0  0  0
   -0.4080   21.6050  -28.6910 C   0  0  0  0  0  0  0  0  0  0  0  0
   -3.1220   23.2180  -30.3800 C   0  0  0  0  0  0  0  0  0  0  0  0
   -4.1490   23.0590  -31.3470 C   0  0  0  0  0  0  0  0  0  0  0  0
   -4.0270   22.1280  -32.3760 C   0  0  0  0  0  0  0  0  0  0  0  0
   -5.3550   23.9700  -31.1620 C   0  0  1  0  0  0  0  0  0  0  0  0
   -5.8170   23.8280  -29.7220 C   0  0  0  0  0  0  0  0  0  0  0  0
   -4.7770   24.9260  -29.5180 C   0  0  2  0  0  0  0  0  0  0  0  0
   -4.8230   25.2500  -30.8930 O   0  0  0  0  0  0  0  0  0  0  0  0
   -3.3650   24.2810  -29.2830 C   0  0  2  0  0  0  0  0  0  0  0  0
   -2.3550   25.2990  -29.3440 O   0  0  0  0  0  0  0  0  0  0  0  0
   -1.6820   25.3840  -28.1310 C   0  0  0  0  0  0  0  0  0  0  0  0
   -0.6380   26.2510  -27.8120 C   0  0  0  0  0  0  0  0  0  0  0  0
   -0.0760   26.1680  -26.5250 C   0  0  0  0  0  0  0  0  0  0  0  0
   -0.5660   25.2270  -25.5920 C   0  0  0  0  0  0  0  0  0  0  0  0
   -1.6210   24.3650  -25.9420 C   0  0  0  0  0  0  0  0  0  0  0  0
   -2.1560   24.4780  -27.2230 C   0  0  0  0  0  0  0  0  0  0  0  0
   -3.2110   23.7380  -27.8820 C   0  0  0  0  0  0  0  0  0  0  0  0
   -3.8640   22.7890  -27.3730 O   0  0  0  0  0  0  0  0  0  0  0  0
   -3.8604   18.8848  -32.6319 H   0  0  0  0  0  0  0  0  0  0  0  0
   -4.5245   19.5024  -34.1825 H   0  0  0  0  0  0  0  0  0  0  0  0
   -3.0523   18.4732  -34.1825 H   0  0  0  0  0  0  0  0  0  0  0  0
   -0.9310   20.8870  -31.5990 H   0  0  0  0  0  0  0  0  0  0  0  0
   -0.5507   21.8812  -27.6359 H   0  0  0  0  0  0  0  0  0  0  0  0
   -0.9301   20.6588  -28.8961 H   0  0  0  0  0  0  0  0  0  0  0  0
    0.6658   21.4832  -28.8961 H   0  0  0  0  0  0  0  0  0  0  0  0
   -4.8355   22.0110  -33.1126 H   0  0  0  0  0  0  0  0  0  0  0  0
   -6.0584   23.7953  -31.9894 H   0  0  0  0  0  0  0  0  0  0  0  0
   -6.8609   24.1109  -29.5215 H   0  0  0  0  0  0  0  0  0  0  0  0
   -5.8494   22.8813  -29.1628 H   0  0  0  0  0  0  0  0  0  0  0  0
   -4.9306   25.6728  -28.7251 H   0  0  0  0  0  0  0  0  0  0  0  0
   -0.2640   26.9798  -28.5462 H   0  0  0  0  0  0  0  0  0  0  0  0
    0.7490   26.8390  -26.2437 H   0  0  0  0  0  0  0  0  0  0  0  0
   -0.1207   25.1682  -24.5879 H   0  0  0  0  0  0  0  0  0  0  0  0
   -2.0109   23.6255  -25.2271 H   0  0  0  0  0  0  0  0  0  0  0  0
  1  2  1  0
  2  3  1  0
  3  4  2  0
  4  5  1  0
  5  6  1  0
  6  7  1  0
  5  8  2  0
  8  9  1  0
  9 10  2  0
  9 11  1  0
 11 12  1  0
 12 13  1  0
 13 14  1  0
 13 15  1  0
 15 16  1  6
 16 17  1  0
 17 18  2  0
 18 19  1  0
 19 20  2  0
 20 21  1  0
 21 22  2  0
 22 23  1  0
 23 24  2  0
 10  3  1  0
 14 11  1  0
 23 15  1  0
 15  8  1  0
 22 17  1  0
  1 25  1  0
  1 26  1  0
  1 27  1  0
  4 28  1  0
  7 29  1  0
  7 30  1  0
  7 31  1  0
 10 32  1  0
 11 33  1  6
 12 34  1  0
 12 35  1  0
 13 36  1  1
 18 37  1  0
 19 38  1  0
 20 39  1  0
 21 40  1  0
M  END
>  <UniqueID>  (10) 
10

>  <SMILES>  (10) 
COc1cc(OC)c2c(c1)[C@H]1C[C@H](O1)C21Oc2ccccc2C1=O

>  <Energy>  (10) 
163.3988175266821

>  <Genealogy>  (10) 
COc1cc(OC)c2c(c1)[C@H]1C[C@H](O1)C21Oc2ccccc2C1=O (chirality)
COc1cc(OC)c2c(c1)[C@H]1C[C@H](O1)C21Oc2ccccc2C1=O (3D coordinates assigned)
COc1cc(OC)c2c(c1)[C@H]1C[C@H](O1)C21Oc2ccccc2C1=O (nonaromatic ring conformer: 163.3988175266821 kcal/mol)

>  <smiles>  (10) 
COc1cc(OC)c2c(c1)C1CC(O1)C21Oc2ccccc2C1=O

>  <score_type>  (10) 
oracle

>  <origin>  (10) 
adg

>  <m_score__min__energy>  (10) 
-8.1500000000000004

>  <m_primary>  (10) 
energy

$$$$
10:0
     RDKit          3D

 63 67  0  0  0  0  0  0  0  0999 V2000
   -5.0530   23.3990  -31.3370 C   0  0  0  0  0  0  0  0  0  0  0  0
   -5.7530   22.7080  -32.3660 O   0  0  0  0  0  0  0  0  0  0  0  0
   -7.0280   22.1360  -32.2180 C   0  0  0  0  0  0  0  0  0  0  0  0
   -8.1360   22.8930  -31.7900 C   0  0  0  0  0  0  0  0  0  0  0  0
   -9.3910   22.2960  -31.6450 C   0  0  0  0  0  0  0  0  0  0  0  0
   -9.5630   20.9400  -31.9230 C   0  0  0  0  0  0  0  0  0  0  0  0
   -8.4780   20.1700  -32.3490 C   0  0  0  0  0  0  0  0  0  0  0  0
   -8.6470   18.8460  -32.6070 N   0  0  0  0  0  0  0  0  0  0  0  0
   -7.6180   18.0570  -33.0170 C   0  0  0  0  0  0  0  0  0  0  0  0
   -6.3390   18.6000  -33.1970 C   0  0  0  0  0  0  0  0  0  0  0  0
   -5.2390   17.7710  -33.6080 N   0  0  0  0  0  0  0  0  0  0  0  0
   -4.4660   17.0400  -32.5980 C   0  0  0  0  0  0  0  0  0  0  0  0
   -2.9940   16.8540  -33.0260 C   0  0  0  0  0  0  0  0  0  0  0  0
   -2.6310   17.6580  -34.2170 N   0  0  0  0  0  0  0  0  0  0  0  0
   -2.5090   19.1220  -33.9160 C   0  0  0  0  0  0  0  0  0  0  0  0
   -2.8710   19.3690  -32.4390 C   0  0  0  0  0  0  0  0  0  0  0  0
   -2.7980   20.8590  -32.0840 C   0  0  0  0  0  0  0  0  0  0  0  0
   -1.4910   21.4560  -32.4130 N   0  0  0  0  0  0  0  0  0  0  0  0
   -0.4870   21.5300  -31.3270 C   0  0  0  0  0  0  0  0  0  0  0  0
   -0.9710   20.9980  -29.9920 C   0  0  0  0  0  0  0  0  0  0  0  0
   -0.5460   19.7220  -29.5750 C   0  0  0  0  0  0  0  0  0  0  0  0
   -0.9740   19.1910  -28.3570 C   0  0  0  0  0  0  0  0  0  0  0  0
   -1.8140   19.9350  -27.5260 C   0  0  0  0  0  0  0  0  0  0  0  0
   -2.3540   19.2640  -25.9970 Cl  0  0  0  0  0  0  0  0  0  0  0  0
   -2.2100   21.2190  -27.9050 C   0  0  0  0  0  0  0  0  0  0  0  0
   -1.7840   21.7620  -29.1240 C   0  0  0  0  0  0  0  0  0  0  0  0
   -2.2720   23.4120  -29.4970 Cl  0  0  0  0  0  0  0  0  0  0  0  0
   -0.9980   21.1750  -33.7730 C   0  0  0  0  0  0  0  0  0  0  0  0
   -1.0880   19.6870  -34.1470 C   0  0  0  0  0  0  0  0  0  0  0  0
   -3.5200   17.2720  -35.3380 C   0  0  0  0  0  0  0  0  0  0  0  0
   -5.0120   17.5200  -35.0350 C   0  0  0  0  0  0  0  0  0  0  0  0
   -6.1370   19.9620  -32.9340 C   0  0  0  0  0  0  0  0  0  0  0  0
   -7.2050   20.7650  -32.5040 C   0  0  0  0  0  0  0  0  0  0  0  0
   -5.4062   23.0503  -30.3553 H   0  0  0  0  0  0  0  0  0  0  0  0
   -3.9750   23.2011  -31.4303 H   0  0  0  0  0  0  0  0  0  0  0  0
   -5.2369   24.4795  -31.4303 H   0  0  0  0  0  0  0  0  0  0  0  0
   -8.0123   23.9632  -31.5680 H   0  0  0  0  0  0  0  0  0  0  0  0
  -10.2480   22.8987  -31.3098 H   0  0  0  0  0  0  0  0  0  0  0  0
  -10.5538   20.4766  -31.8067 H   0  0  0  0  0  0  0  0  0  0  0  0
   -7.7906   16.9876  -33.2082 H   0  0  0  0  0  0  0  0  0  0  0  0
   -4.4936   17.6021  -31.6529 H   0  0  0  0  0  0  0  0  0  0  0  0
   -4.9158   16.0433  -32.4786 H   0  0  0  0  0  0  0  0  0  0  0  0
   -2.3453   17.1538  -32.1898 H   0  0  0  0  0  0  0  0  0  0  0  0
   -2.8597   15.7948  -33.2907 H   0  0  0  0  0  0  0  0  0  0  0  0
   -3.1939   19.6342  -34.6078 H   0  0  0  0  0  0  0  0  0  0  0  0
   -3.8938   19.0078  -32.2565 H   0  0  0  0  0  0  0  0  0  0  0  0
   -2.1470   18.8288  -31.8113 H   0  0  0  0  0  0  0  0  0  0  0  0
   -3.5803   21.3933  -32.6431 H   0  0  0  0  0  0  0  0  0  0  0  0
   -2.9423   20.9504  -30.9973 H   0  0  0  0  0  0  0  0  0  0  0  0
    0.3938   20.9457  -31.6318 H   0  0  0  0  0  0  0  0  0  0  0  0
   -0.2622   22.5964  -31.1782 H   0  0  0  0  0  0  0  0  0  0  0  0
    0.1305   19.1374  -30.2158 H   0  0  0  0  0  0  0  0  0  0  0  0
   -0.6492   18.1854  -28.0516 H   0  0  0  0  0  0  0  0  0  0  0  0
   -2.8608   21.8081  -27.2421 H   0  0  0  0  0  0  0  0  0  0  0  0
   -1.5981   21.7540  -34.4904 H   0  0  0  0  0  0  0  0  0  0  0  0
    0.0642   21.4592  -33.8040 H   0  0  0  0  0  0  0  0  0  0  0  0
   -0.8267   19.5703  -35.2091 H   0  0  0  0  0  0  0  0  0  0  0  0
   -0.3899   19.1301  -33.5048 H   0  0  0  0  0  0  0  0  0  0  0  0
   -3.2401   17.8584  -36.2256 H   0  0  0  0  0  0  0  0  0  0  0  0
   -3.3922   16.1920  -35.5032 H   0  0  0  0  0  0  0  0  0  0  0  0
   -5.3524   18.3940  -35.6097 H   0  0  0  0  0  0  0  0  0  0  0  0
   -5.5751   16.6189  -35.3195 H   0  0  0  0  0  0  0  0  0  0  0  0
   -5.1379   20.4031  -33.0651 H   0  0  0  0  0  0  0  0  0  0  0  0
  1  2  1  0
  2  3  1  0
  3  4  2  0
  4  5  1  0
  5  6  2  0
  6  7  1  0
  7  8  2  0
  8  9  1  0
  9 10  2  0
 10 11  1  0
 11 12  1  0
 12 13  1  0
 13 14  1  0
 14 15  1  0
 15 16  1  0
 16 17  1  0
 17 18  1  0
 18 19  1  0
 19 20  1  0
 20 21  2  0
 21 22  1  0
 22 23  2  0
 23 24  1  0
 23 25  1  0
 25 26  2  0
 26 27  1  0
 18 28  1  0
 28 29  1  0
 14 30  1  0
 30 31  1  0
 10 32  1  0
 32 33  2  0
 33  3  1  0
 33  7  1  0
 31 11  1  0
 29 15  1  0
 26 20  1  0
  1 34  1  0
  1 35  1  0
  1 36  1  0
  4 37  1  0
  5 38  1  0
  6 39  1  0
  9 40  1  0
 12 41  1  0
 12 42  1  0
 13 43  1  0
 13 44  1  0
 15 45  1  0
 16 46  1  0
 16 47  1  0
 17 48  1  0
 17 49  1  0
 19 50  1  0
 19 51  1  0
 21 52  1  0
 22 53  1  0
 25 54  1  0
 28 55  1  0
 28 56  1  0
 29 57  1  0
 29 58  1  0
 30 59  1  0
 30 60  1  0
 31 61  1  0
 31 62  1  0
 32 63  1  0
M  END
>  <UniqueID>  (11) 
11

>  <SMILES>  (11) 
COc1cccc2ncc(N3CCN(C4CCN(Cc5ccc(Cl)cc5Cl)CC4)CC3)cc12

>  <Energy>  (11) 
97.44002157919437

>  <Genealogy>  (11) 
COc1cccc2ncc(N3CCN(C4CCN(Cc5ccc(Cl)cc5Cl)CC4)CC3)cc12 (3D coordinates assigned)
COc1cccc2ncc(N3CCN(C4CCN(Cc5ccc(Cl)cc5Cl)CC4)CC3)cc12 (nonaromatic ring conformer: 97.44002157919437 kcal/mol)

>  <smiles>  (11) 
COc1cccc2ncc(N3CCN(C4CCN(Cc5ccc(Cl)cc5Cl)CC4)CC3)cc12

>  <score_type>  (11) 
oracle

>  <origin>  (11) 
adg

>  <m_score__min__energy>  (11) 
-9.7799999999999994

>  <m_primary>  (11) 
energy

$$$$
11:0
     RDKit          3D

 28 30  0  0  0  0  0  0  0  0999 V2000
   -9.4470   22.3000  -31.2520 O   0  0  0  0  0  0  0  0  0  0  0  0
   -8.2790   21.9600  -31.5820 C   0  0  0  0  0  0  0  0  0  0  0  0
   -8.0680   20.7050  -32.1620 C   0  0  0  0  0  0  0  0  0  0  0  0
   -6.7700   20.3130  -32.5350 C   0  0  0  0  0  0  0  0  0  0  0  0
   -6.5030   18.9910  -33.1580 C   0  0  0  0  0  0  0  0  0  0  0  0
   -7.0390   17.8240  -32.5790 C   0  0  0  0  0  0  0  0  0  0  0  0
   -6.8040   16.5720  -33.1560 C   0  0  0  0  0  0  0  0  0  0  0  0
   -6.0390   16.4700  -34.3200 C   0  0  0  0  0  0  0  0  0  0  0  0
   -5.5130   17.6200  -34.9130 C   0  0  0  0  0  0  0  0  0  0  0  0
   -5.7430   18.8740  -34.3390 C   0  0  0  0  0  0  0  0  0  0  0  0
   -5.7350   21.1760  -32.3380 N   0  0  0  0  0  0  0  0  0  0  0  0
   -5.9030   22.4030  -31.7780 C   0  0  0  0  0  0  0  0  0  0  0  0
   -4.7990   23.2430  -31.5970 C   0  0  0  0  0  0  0  0  0  0  0  0
   -4.9650   24.5090  -31.0180 C   0  0  0  0  0  0  0  0  0  0  0  0
   -3.8720   25.3530  -30.8330 O   0  0  0  0  0  0  0  0  0  0  0  0
   -6.2380   24.9320  -30.6220 C   0  0  0  0  0  0  0  0  0  0  0  0
   -7.3470   24.1000  -30.8000 C   0  0  0  0  0  0  0  0  0  0  0  0
   -7.1910   22.8270  -31.3800 C   0  0  0  0  0  0  0  0  0  0  0  0
   -8.9168   20.0249  -32.3263 H   0  0  0  0  0  0  0  0  0  0  0  0
   -7.6474   17.8981  -31.6655 H   0  0  0  0  0  0  0  0  0  0  0  0
   -7.2222   15.6663  -32.6925 H   0  0  0  0  0  0  0  0  0  0  0  0
   -5.8507   15.4840  -34.7698 H   0  0  0  0  0  0  0  0  0  0  0  0
   -4.9165   17.5389  -35.8336 H   0  0  0  0  0  0  0  0  0  0  0  0
   -5.3277   19.7758  -34.8127 H   0  0  0  0  0  0  0  0  0  0  0  0
   -3.7985   22.9094  -31.9097 H   0  0  0  0  0  0  0  0  0  0  0  0
   -3.2690   25.6140  -31.6030 H   0  0  0  0  0  0  0  0  0  0  0  0
   -6.3672   25.9254  -30.1677 H   0  0  0  0  0  0  0  0  0  0  0  0
   -8.3445   24.4411  -30.4859 H   0  0  0  0  0  0  0  0  0  0  0  0
  1  2  2  0
  2  3  1  0
  3  4  2  0
  4  5  1  0
  5  6  2  0
  6  7  1  0
  7  8  2  0
  8  9  1  0
  9 10  2  0
  4 11  1  0
 11 12  1  0
 12 13  2  0
 13 14  1  0
 14 15  1  0
 14 16  2  0
 16 17  1  0
 17 18  2  0
 18  2  1  0
 10  5  1  0
 18 12  1  0
  3 19  1  0
  6 20  1  0
  7 21  1  0
  8 22  1  0
  9 23  1  0
 10 24  1  0
 13 25  1  0
 15 26  1  0
 16 27  1  0
 17 28  1  0
M  CHG  1  11  -1
M  END
>  <UniqueID>  (12) 
12

>  <SMILES>  (12) 
O=c1cc(-c2ccccc2)[n-]c2cc(O)ccc12

>  <Energy>  (12) 
39.12694228079693

>  <Genealogy>  (12) 
O=c1cc(-c2ccccc2)[n-]c2cc(O)ccc12 (protonated)
O=c1cc(-c2ccccc2)[n-]c2cc(O)ccc12 (3D coordinates assigned)
O=c1cc(-c2ccccc2)[n-]c2cc(O)ccc12 (optimized conformer: 39.12694228079693 kcal/mol)

>  <smiles>  (12) 
O=c1cc(-c2ccccc2)[nH]c2cc(O)ccc12

>  <score_type>  (12) 
oracle

>  <origin>  (12) 
adg

>  <m_score__min__energy>  (12) 
-8.8699999999999992

>  <m_primary>  (12) 
energy

$$$$
12:0
     RDKit          3D

 30 30  0  0  0  0  0  0  0  0999 V2000
   -1.9270   26.0400  -25.2440 C   0  0  0  0  0  0  0  0  0  0  0  0
   -2.4970   25.2910  -26.1920 C   0  0  0  0  0  0  0  0  0  0  0  0
   -3.9930   25.1420  -26.2890 C   0  0  0  0  0  0  0  0  0  0  0  0
   -4.3770   24.5250  -27.5710 N   0  0  0  0  0  0  0  0  0  0  0  0
   -3.5260   23.3710  -27.9210 C   0  0  0  0  0  0  0  0  0  0  0  0
   -3.1710   23.2930  -29.4190 C   0  0  0  0  0  0  0  0  0  0  0  0
   -4.1230   24.0830  -30.2810 C   0  0  0  0  0  0  0  0  0  0  0  0
   -3.8740   25.3070  -30.4610 O   0  0  0  0  0  0  0  0  0  0  0  0
   -5.3080   23.4730  -30.9480 C   0  0  0  0  0  0  0  0  0  0  0  0
   -6.5960   24.0420  -30.8440 C   0  0  0  0  0  0  0  0  0  0  0  0
   -7.6890   23.4450  -31.4800 C   0  0  0  0  0  0  0  0  0  0  0  0
   -7.5180   22.2790  -32.2270 C   0  0  0  0  0  0  0  0  0  0  0  0
   -6.2510   21.7060  -32.3420 C   0  0  0  0  0  0  0  0  0  0  0  0
   -5.1530   22.2960  -31.7080 C   0  0  0  0  0  0  0  0  0  0  0  0
   -0.8316   26.1297  -25.1985 H   0  0  0  0  0  0  0  0  0  0  0  0
   -2.5530   26.5670  -24.5089 H   0  0  0  0  0  0  0  0  0  0  0  0
   -1.8580   24.7699  -26.9201 H   0  0  0  0  0  0  0  0  0  0  0  0
   -4.3461   24.5068  -25.4633 H   0  0  0  0  0  0  0  0  0  0  0  0
   -4.4508   26.1404  -26.2279 H   0  0  0  0  0  0  0  0  0  0  0  0
   -5.3830   24.2370  -27.5460 H   0  0  0  0  0  0  0  0  0  0  0  0
   -4.2690   25.2370  -28.3310 H   0  0  0  0  0  0  0  0  0  0  0  0
   -2.5910   23.4423  -27.3460 H   0  0  0  0  0  0  0  0  0  0  0  0
   -4.0999   22.4641  -27.6796 H   0  0  0  0  0  0  0  0  0  0  0  0
   -2.1548   23.6892  -29.5616 H   0  0  0  0  0  0  0  0  0  0  0  0
   -3.2411   22.2385  -29.7242 H   0  0  0  0  0  0  0  0  0  0  0  0
   -6.7408   24.9618  -30.2583 H   0  0  0  0  0  0  0  0  0  0  0  0
   -8.6880   23.8967  -31.3910 H   0  0  0  0  0  0  0  0  0  0  0  0
   -8.3808   21.8121  -32.7246 H   0  0  0  0  0  0  0  0  0  0  0  0
   -6.1155   20.7880  -32.9327 H   0  0  0  0  0  0  0  0  0  0  0  0
   -4.1580   21.8368  -31.8034 H   0  0  0  0  0  0  0  0  0  0  0  0
  1  2  2  0
  2  3  1  0
  3  4  1  0
  4  5  1  0
  5  6  1  0
  6  7  1  0
  7  8  2  0
  7  9  1  0
  9 10  2  0
 10 11  1  0
 11 12  2  0
 12 13  1  0
 13 14  2  0
 14  9  1  0
  1 15  1  0
  1 16  1  0
  2 17  1  0
  3 18  1  0
  3 19  1  0
  4 20  1  0
  4 21  1  0
  5 22  1  0
  5 23  1  0
  6 24  1  0
  6 25  1  0
 10 26  1  0
 11 27  1  0
 12 28  1  0
 13 29  1  0
 14 30  1  0
M  CHG  1   4   1
M  END
>  <UniqueID>  (13) 
13

>  <SMILES>  (13) 
C=CC[NH2+]CCC(=O)c1ccccc1

>  <Energy>  (13) 
25.5199889475348

>  <Genealogy>  (13) 
C=CC[NH2+]CCC(=O)c1ccccc1 (protonated)
C=CC[NH2+]CCC(=O)c1ccccc1 (3D coordinates assigned)
C=CC[NH2+]CCC(=O)c1ccccc1 (optimized conformer: 25.5199889475348 kcal/mol)

>  <smiles>  (13) 
C=CCNCCC(=O)c1ccccc1

>  <score_type>  (13) 
oracle

>  <origin>  (13) 
adg

>  <m_score__min__energy>  (13) 
-5.3600000000000003

>  <m_primary>  (13) 
energy

$$$$
13:0
     RDKit          3D

 27 27  0  0  0  0  0  0  0  0999 V2000
   -3.3260   22.6420  -27.8390 C   0  0  0  0  0  0  0  0  0  0  0  0
   -3.7860   23.9980  -27.2970 C   0  0  0  0  0  0  0  0  0  0  0  0
   -4.8890   24.5810  -28.0870 N   0  0  0  0  0  0  0  0  0  0  0  0
   -5.2510   23.7920  -29.2780 C   0  0  0  0  0  0  0  0  0  0  0  0
   -4.7810   24.4430  -30.5470 C   0  0  0  0  0  0  0  0  0  0  0  0
   -3.8610   25.3030  -30.5020 O   0  0  0  0  0  0  0  0  0  0  0  0
   -5.3600   24.0500  -31.7970 N   0  0  0  0  0  0  0  0  0  0  0  0
   -6.3210   23.0040  -31.9980 C   0  0  0  0  0  0  0  0  0  0  0  0
   -7.6910   23.2020  -31.7380 C   0  0  0  0  0  0  0  0  0  0  0  0
   -8.6020   22.1570  -31.9180 C   0  0  0  0  0  0  0  0  0  0  0  0
   -8.1560   20.9040  -32.3430 C   0  0  0  0  0  0  0  0  0  0  0  0
   -6.7960   20.6900  -32.5800 C   0  0  0  0  0  0  0  0  0  0  0  0
   -5.8780   21.7310  -32.4000 C   0  0  0  0  0  0  0  0  0  0  0  0
   -4.0210   21.3950  -32.7290 Br  0  0  0  0  0  0  0  0  0  0  0  0
   -3.0979   21.9696  -26.9989 H   0  0  0  0  0  0  0  0  0  0  0  0
   -4.1253   22.2026  -28.4538 H   0  0  0  0  0  0  0  0  0  0  0  0
   -2.4243   22.7796  -28.4538 H   0  0  0  0  0  0  0  0  0  0  0  0
   -4.1274   23.8653  -26.2598 H   0  0  0  0  0  0  0  0  0  0  0  0
   -2.9317   24.6882  -27.3579 H   0  0  0  0  0  0  0  0  0  0  0  0
   -5.7350   24.6820  -27.4790 H   0  0  0  0  0  0  0  0  0  0  0  0
   -4.6100   25.5440  -28.3890 H   0  0  0  0  0  0  0  0  0  0  0  0
   -4.7907   22.7962  -29.1979 H   0  0  0  0  0  0  0  0  0  0  0  0
   -6.3479   23.7206  -29.3183 H   0  0  0  0  0  0  0  0  0  0  0  0
   -8.0459   24.1838  -31.3916 H   0  0  0  0  0  0  0  0  0  0  0  0
   -9.6722   22.3222  -31.7245 H   0  0  0  0  0  0  0  0  0  0  0  0
   -8.8756   20.0853  -32.4912 H   0  0  0  0  0  0  0  0  0  0  0  0
   -6.4456   19.7006  -32.9090 H   0  0  0  0  0  0  0  0  0  0  0  0
  1  2  1  0
  2  3  1  0
  3  4  1  0
  4  5  1  0
  5  6  2  0
  5  7  1  0
  7  8  1  0
  8  9  2  0
  9 10  1  0
 10 11  2  0
 11 12  1  0
 12 13  2  0
 13 14  1  0
 13  8  1  0
  1 15  1  0
  1 16  1  0
  1 17  1  0
  2 18  1  0
  2 19  1  0
  3 20  1  0
  3 21  1  0
  4 22  1  0
  4 23  1  0
  9 24  1  0
 10 25  1  0
 11 26  1  0
 12 27  1  0
M  CHG  2   3   1   7  -1
M  END
>  <UniqueID>  (14) 
14

>  <SMILES>  (14) 
CC[NH2+]CC(=O)[N-]c1ccccc1Br

>  <Energy>  (14) 
26.872141650597364

>  <Genealogy>  (14) 
CC[NH2+]CC(=O)[N-]c1ccccc1Br (protonated)
CC[NH2+]CC(=O)[N-]c1ccccc1Br (3D coordinates assigned)
CC[NH2+]CC(=O)[N-]c1ccccc1Br (optimized conformer: 26.872141650597364 kcal/mol)

>  <smiles>  (14) 
CCNCC(=O)Nc1ccccc1Br

>  <score_type>  (14) 
oracle

>  <origin>  (14) 
adg

>  <m_score__min__energy>  (14) 
-7

>  <m_primary>  (14) 
energy

$$$$
14:0
     RDKit          3D

 46 47  0  0  0  0  0  0  0  0999 V2000
   -0.6360   27.4460  -26.6590 C   0  0  0  0  0  0  0  0  0  0  0  0
   -1.2360   26.2050  -27.3110 C   0  0  0  0  0  0  0  0  0  0  0  0
   -1.6480   25.2330  -26.2720 N   0  0  0  0  0  0  0  0  0  0  0  0
   -3.1020   25.3140  -26.0080 C   0  0  0  0  0  0  0  0  0  0  0  0
   -3.8780   24.5250  -27.0600 C   0  0  0  0  0  0  0  0  0  0  0  0
   -0.8530   25.3920  -25.0280 C   0  0  0  0  0  0  0  0  0  0  0  0
    0.5270   24.7640  -25.2060 C   0  0  0  0  0  0  0  0  0  0  0  0
    0.4070   23.3690  -25.4640 O   0  0  0  0  0  0  0  0  0  0  0  0
    0.5930   22.8140  -26.7350 C   0  0  0  0  0  0  0  0  0  0  0  0
    1.7540   22.5170  -27.1300 O   0  0  0  0  0  0  0  0  0  0  0  0
   -0.5740   22.5760  -27.6120 C   0  0  0  0  0  0  0  0  0  0  0  0
   -0.6860   23.2460  -28.8420 C   0  0  0  0  0  0  0  0  0  0  0  0
   -1.7900   23.0270  -29.6730 C   0  0  0  0  0  0  0  0  0  0  0  0
   -2.7970   22.1240  -29.2940 C   0  0  0  0  0  0  0  0  0  0  0  0
   -3.9530   21.9000  -30.1190 N   0  0  0  0  0  0  0  0  0  0  0  0
   -4.7490   22.9570  -30.6820 C   0  0  0  0  0  0  0  0  0  0  0  0
   -4.2790   24.1230  -30.7730 O   0  0  0  0  0  0  0  0  0  0  0  0
   -6.1020   22.6890  -31.2010 C   0  0  0  0  0  0  0  0  0  0  0  0
   -6.5730   21.4860  -31.7210 C   0  0  0  0  0  0  0  0  0  0  0  0
   -7.9150   21.5430  -32.1180 C   0  0  0  0  0  0  0  0  0  0  0  0
   -8.5090   22.7810  -31.9090 C   0  0  0  0  0  0  0  0  0  0  0  0
   -7.3610   23.8050  -31.2300 S   0  0  0  0  0  0  0  0  0  0  0  0
   -2.6970   21.4720  -28.0560 C   0  0  0  0  0  0  0  0  0  0  0  0
   -1.5940   21.6890  -27.2260 C   0  0  0  0  0  0  0  0  0  0  0  0
   -0.6847   27.3452  -25.5647 H   0  0  0  0  0  0  0  0  0  0  0  0
    0.4134   27.5531  -26.9710 H   0  0  0  0  0  0  0  0  0  0  0  0
   -1.2038   28.3350  -26.9710 H   0  0  0  0  0  0  0  0  0  0  0  0
   -2.1142   26.4953  -27.9063 H   0  0  0  0  0  0  0  0  0  0  0  0
   -0.4808   25.7389  -27.9609 H   0  0  0  0  0  0  0  0  0  0  0  0
   -3.3136   24.8965  -25.0125 H   0  0  0  0  0  0  0  0  0  0  0  0
   -3.4144   26.3679  -26.0497 H   0  0  0  0  0  0  0  0  0  0  0  0
   -4.5654   23.8261  -26.5610 H   0  0  0  0  0  0  0  0  0  0  0  0
   -4.4542   25.2200  -27.6885 H   0  0  0  0  0  0  0  0  0  0  0  0
   -3.1735   23.9605  -27.6885 H   0  0  0  0  0  0  0  0  0  0  0  0
   -0.7396   26.4627  -24.8026 H   0  0  0  0  0  0  0  0  0  0  0  0
   -1.3742   24.8894  -24.1999 H   0  0  0  0  0  0  0  0  0  0  0  0
    1.0386   25.2465  -26.0518 H   0  0  0  0  0  0  0  0  0  0  0  0
    1.1067   24.9078  -24.2823 H   0  0  0  0  0  0  0  0  0  0  0  0
    0.1008   23.9485  -29.1541 H   0  0  0  0  0  0  0  0  0  0  0  0
   -1.8699   23.5652  -30.6290 H   0  0  0  0  0  0  0  0  0  0  0  0
   -4.1620   20.9180  -30.4070 H   0  0  0  0  0  0  0  0  0  0  0  0
   -5.9532   20.5817  -31.8109 H   0  0  0  0  0  0  0  0  0  0  0  0
   -8.4492   20.6864  -32.5549 H   0  0  0  0  0  0  0  0  0  0  0  0
   -9.5499   23.0457  -32.1465 H   0  0  0  0  0  0  0  0  0  0  0  0
   -3.4935   20.7842  -27.7359 H   0  0  0  0  0  0  0  0  0  0  0  0
   -1.5233   21.1617  -26.2632 H   0  0  0  0  0  0  0  0  0  0  0  0
  1  2  1  0
  2  3  1  0
  3  4  1  0
  4  5  1  0
  3  6  1  0
  6  7  1  0
  7  8  1  0
  8  9  1  0
  9 10  2  0
  9 11  1  0
 11 12  2  0
 12 13  1  0
 13 14  2  0
 14 15  1  0
 15 16  1  0
 16 17  2  0
 16 18  1  0
 18 19  2  0
 19 20  1  0
 20 21  2  0
 21 22  1  0
 14 23  1  0
 23 24  2  0
 24 11  1  0
 22 18  1  0
  1 25  1  0
  1 26  1  0
  1 27  1  0
  2 28  1  0
  2 29  1  0
  4 30  1  0
  4 31  1  0
  5 32  1  0
  5 33  1  0
  5 34  1  0
  6 35  1  0
  6 36  1  0
  7 37  1  0
  7 38  1  0
 12 39  1  0
 13 40  1  0
 15 41  1  0
 19 42  1  0
 20 43  1  0
 21 44  1  0
 23 45  1  0
 24 46  1  0
M  END
>  <UniqueID>  (15) 
15

>  <SMILES>  (15) 
CCN(CC)CCOC(=O)c1ccc(NC(=O)c2cccs2)cc1

>  <Energy>  (15) 
70.30187440483873

>  <Genealogy>  (15) 
CCN(CC)CCOC(=O)c1ccc(NC(=O)c2cccs2)cc1 (3D coordinates assigned)
CCN(CC)CCOC(=O)c1ccc(NC(=O)c2cccs2)cc1 (optimized conformer: 70.30187440483873 kcal/mol)

>  <smiles>  (15) 
CCN(CC)CCOC(=O)c1ccc(NC(=O)c2cccs2)cc1

>  <score_type>  (15) 
oracle

>  <origin>  (15) 
adg

>  <m_score__min__energy>  (15) 
-7.3200000000000003

>  <m_primary>  (15) 
energy

$$$$
15:0
     RDKit          3D

 46 49  0  0  0  0  0  0  0  0999 V2000
   -3.5470   13.5050  -33.5360 C   0  0  0  0  0  0  0  0  0  0  0  0
   -3.7990   13.3150  -32.1620 C   0  0  0  0  0  0  0  0  0  0  0  0
   -4.5270   14.2320  -31.4580 N   0  0  0  0  0  0  0  0  0  0  0  0
   -5.0040   15.3260  -32.1040 C   0  0  0  0  0  0  0  0  0  0  0  0
   -5.7330   16.3060  -31.5360 N   0  0  0  0  0  0  0  0  0  0  0  0
   -5.9630   17.1590  -32.5690 C   0  0  0  0  0  0  0  0  0  0  0  0
   -6.7410   18.4150  -32.4310 C   0  0  0  0  0  0  0  0  0  0  0  0
   -6.3590   19.5580  -33.1530 C   0  0  0  0  0  0  0  0  0  0  0  0
   -7.0810   20.7490  -33.0400 C   0  0  0  0  0  0  0  0  0  0  0  0
   -8.2110   20.8230  -32.2050 C   0  0  0  0  0  0  0  0  0  0  0  0
   -8.9950   22.0260  -32.0720 N   0  0  0  0  0  0  0  0  0  0  0  0
   -8.4530   23.3830  -31.9770 C   0  0  0  0  0  0  0  0  0  0  0  0
   -6.9510   23.3630  -31.6720 C   0  0  0  0  0  0  0  0  0  0  0  0
   -6.7140   23.5540  -30.2210 N   0  0  0  0  0  0  0  0  0  0  0  0
   -6.7680   24.9710  -29.8160 C   0  0  0  0  0  0  0  0  0  0  0  0
   -5.5210   25.7500  -30.2970 C   0  0  0  0  0  0  0  0  0  0  0  0
   -4.5240   24.9020  -30.8370 O   0  0  0  0  0  0  0  0  0  0  0  0
   -4.2400   23.8590  -29.9290 C   0  0  0  0  0  0  0  0  0  0  0  0
   -5.4570   22.9260  -29.7550 C   0  0  0  0  0  0  0  0  0  0  0  0
   -8.5860   19.6840  -31.4770 C   0  0  0  0  0  0  0  0  0  0  0  0
   -7.8640   18.4930  -31.5890 C   0  0  0  0  0  0  0  0  0  0  0  0
   -5.3670   16.6720  -33.7310 C   0  0  0  0  0  0  0  0  0  0  0  0
   -4.7710   15.5170  -33.4080 N   0  0  0  0  0  0  0  0  0  0  0  0
   -4.0570   14.6490  -34.1630 C   0  0  0  0  0  0  0  0  0  0  0  0
   -2.9607   12.7685  -34.1051 H   0  0  0  0  0  0  0  0  0  0  0  0
   -3.4067   12.4221  -31.6532 H   0  0  0  0  0  0  0  0  0  0  0  0
   -4.7140   14.0900  -30.4400 H   0  0  0  0  0  0  0  0  0  0  0  0
   -5.4815   19.5149  -33.8149 H   0  0  0  0  0  0  0  0  0  0  0  0
   -6.7634   21.6357  -33.6083 H   0  0  0  0  0  0  0  0  0  0  0  0
  -10.0370   21.9390  -32.0870 H   0  0  0  0  0  0  0  0  0  0  0  0
   -8.6176   23.9023  -32.9326 H   0  0  0  0  0  0  0  0  0  0  0  0
   -8.9668   23.9053  -31.1565 H   0  0  0  0  0  0  0  0  0  0  0  0
   -6.5311   22.3951  -31.9832 H   0  0  0  0  0  0  0  0  0  0  0  0
   -6.4648   24.1816  -32.2230 H   0  0  0  0  0  0  0  0  0  0  0  0
   -7.6667   25.4324  -30.2512 H   0  0  0  0  0  0  0  0  0  0  0  0
   -6.7968   25.0134  -28.7172 H   0  0  0  0  0  0  0  0  0  0  0  0
   -5.8307   26.4672  -31.0714 H   0  0  0  0  0  0  0  0  0  0  0  0
   -5.0882   26.2584  -29.4229 H   0  0  0  0  0  0  0  0  0  0  0  0
   -3.3900   23.2734  -30.3092 H   0  0  0  0  0  0  0  0  0  0  0  0
   -3.9980   24.3029  -28.9521 H   0  0  0  0  0  0  0  0  0  0  0  0
   -5.2844   22.0068  -30.3340 H   0  0  0  0  0  0  0  0  0  0  0  0
   -5.5654   22.7088  -28.6821 H   0  0  0  0  0  0  0  0  0  0  0  0
   -9.4593   19.7291  -30.8097 H   0  0  0  0  0  0  0  0  0  0  0  0
   -8.1769   17.6092  -31.0136 H   0  0  0  0  0  0  0  0  0  0  0  0
   -5.3831   17.1458  -34.7236 H   0  0  0  0  0  0  0  0  0  0  0  0
   -3.8833   14.8360  -35.2330 H   0  0  0  0  0  0  0  0  0  0  0  0
  1  2  1  0
  2  3  2  0
  3  4  1  0
  4  5  2  0
  5  6  1  0
  6  7  1  0
  7  8  2  0
  8  9  1  0
  9 10  2  0
 10 11  1  0
 11 12  1  0
 12 13  1  0
 13 14  1  0
 14 15  1  0
 15 16  1  0
 16 17  1  0
 17 18  1  0
 18 19  1  0
 10 20  1  0
 20 21  2  0
  6 22  2  0
 22 23  1  0
 23 24  1  0
 24  1  2  0
 23  4  1  0
 21  7  1  0
 19 14  1  0
  1 25  1  0
  2 26  1  0
  3 27  1  0
  8 28  1  0
  9 29  1  0
 11 30  1  0
 12 31  1  0
 12 32  1  0
 13 33  1  0
 13 34  1  0
 15 35  1  0
 15 36  1  0
 16 37  1  0
 16 38  1  0
 18 39  1  0
 18 40  1  0
 19 41  1  0
 19 42  1  0
 20 43  1  0
 21 44  1  0
 22 45  1  0
 24 46  1  0
M  CHG  1   3   1
M  END
>  <UniqueID>  (16) 
16

>  <SMILES>  (16) 
c1c[nH+]c2nc(-c3ccc(NCCN4CCOCC4)cc3)cn2c1

>  <Energy>  (16) 
97.11859115510565

>  <Genealogy>  (16) 
c1c[nH+]c2nc(-c3ccc(NCCN4CCOCC4)cc3)cn2c1 (protonated)
c1c[nH+]c2nc(-c3ccc(NCCN4CCOCC4)cc3)cn2c1 (3D coordinates assigned)
c1c[nH+]c2nc(-c3ccc(NCCN4CCOCC4)cc3)cn2c1 (nonaromatic ring conformer: 97.11859115510565 kcal/mol)

>  <smiles>  (16) 
c1cnc2nc(-c3ccc(NCCN4CCOCC4)cc3)cn2c1

>  <score_type>  (16) 
oracle

>  <origin>  (16) 
adg

>  <m_score__min__energy>  (16) 
-7.8899999999999997

>  <m_primary>  (16) 
energy

$$$$
16:0
     RDKit          3D

 57 61  0  0  0  0  0  0  0  0999 V2000
   -3.9310   24.3410  -27.1490 C   0  0  0  0  0  0  0  0  0  0  0  0
   -2.5210   24.2610  -27.6680 C   0  0  0  0  0  0  0  0  0  0  0  0
   -1.4720   24.7750  -26.8890 C   0  0  0  0  0  0  0  0  0  0  0  0
   -0.1520   24.7080  -27.3430 C   0  0  0  0  0  0  0  0  0  0  0  0
    0.1350   24.1150  -28.5740 C   0  0  0  0  0  0  0  0  0  0  0  0
   -0.8940   23.5820  -29.3510 C   0  0  0  0  0  0  0  0  0  0  0  0
   -2.2250   23.6440  -28.9080 C   0  0  0  0  0  0  0  0  0  0  0  0
   -3.2700   23.0810  -29.7310 N   0  0  0  0  0  0  0  0  0  0  0  0
   -3.5220   21.7270  -29.7190 C   0  0  0  0  0  0  0  0  0  0  0  0
   -2.7070   20.7920  -28.9050 C   0  0  0  0  0  0  0  0  0  0  0  0
   -1.5220   20.2560  -29.4340 C   0  0  0  0  0  0  0  0  0  0  0  0
   -0.7470   19.3750  -28.6740 C   0  0  0  0  0  0  0  0  0  0  0  0
   -1.1450   19.0290  -27.3810 C   0  0  0  0  0  0  0  0  0  0  0  0
   -2.3160   19.5690  -26.8420 C   0  0  0  0  0  0  0  0  0  0  0  0
   -3.0930   20.4510  -27.5980 C   0  0  0  0  0  0  0  0  0  0  0  0
   -4.5520   21.2180  -30.4530 N   0  0  0  0  0  0  0  0  0  0  0  0
   -5.3330   22.0200  -31.2280 C   0  0  0  0  0  0  0  0  0  0  0  0
   -6.3920   21.5150  -32.0090 C   0  0  0  0  0  0  0  0  0  0  0  0
   -6.6680   20.1070  -32.0780 N   0  0  0  0  0  0  0  0  0  0  0  0
   -7.9400   19.6140  -31.5300 C   0  0  0  0  0  0  0  0  0  0  0  0
   -5.5550   19.1920  -32.3980 C   0  0  0  0  0  0  0  0  0  0  0  0
   -5.0900   19.3300  -33.8480 C   0  0  0  0  0  0  0  0  0  0  0  0
   -5.7310   18.1790  -34.6020 C   0  0  0  0  0  0  0  0  0  0  0  0
   -5.9040   17.0630  -33.5840 C   0  0  0  0  0  0  0  0  0  0  0  0
   -5.9600   17.7230  -32.2090 C   0  0  0  0  0  0  0  0  0  0  0  0
   -7.1710   22.3790  -32.7140 N   0  0  0  0  0  0  0  0  0  0  0  0
   -6.9380   23.7170  -32.6980 C   0  0  0  0  0  0  0  0  0  0  0  0
   -5.9110   24.2210  -31.9680 N   0  0  0  0  0  0  0  0  0  0  0  0
   -5.1070   23.4030  -31.2370 C   0  0  0  0  0  0  0  0  0  0  0  0
   -4.0620   23.9210  -30.4690 C   0  0  0  0  0  0  0  0  0  0  0  0
   -3.8660   25.1680  -30.4520 O   0  0  0  0  0  0  0  0  0  0  0  0
   -3.9174   24.3402  -26.0491 H   0  0  0  0  0  0  0  0  0  0  0  0
   -4.4023   25.2673  -27.5092 H   0  0  0  0  0  0  0  0  0  0  0  0
   -4.5041   23.4739  -27.5092 H   0  0  0  0  0  0  0  0  0  0  0  0
   -1.6909   25.2341  -25.9136 H   0  0  0  0  0  0  0  0  0  0  0  0
    0.6617   25.1229  -26.7299 H   0  0  0  0  0  0  0  0  0  0  0  0
    1.1741   24.0679  -28.9318 H   0  0  0  0  0  0  0  0  0  0  0  0
   -0.6610   23.1101  -30.3170 H   0  0  0  0  0  0  0  0  0  0  0  0
   -1.2023   20.5303  -30.4501 H   0  0  0  0  0  0  0  0  0  0  0  0
    0.1777   18.9537  -29.0952 H   0  0  0  0  0  0  0  0  0  0  0  0
   -0.5368   18.3313  -26.7866 H   0  0  0  0  0  0  0  0  0  0  0  0
   -2.6264   19.2995  -25.8217 H   0  0  0  0  0  0  0  0  0  0  0  0
   -4.0102   20.8798  -27.1680 H   0  0  0  0  0  0  0  0  0  0  0  0
   -4.7350   20.1890  -30.4130 H   0  0  0  0  0  0  0  0  0  0  0  0
   -7.8968   19.6307  -30.4310 H   0  0  0  0  0  0  0  0  0  0  0  0
   -8.7620   20.2586  -31.8745 H   0  0  0  0  0  0  0  0  0  0  0  0
   -8.1129   18.5837  -31.8745 H   0  0  0  0  0  0  0  0  0  0  0  0
   -4.7454   19.4716  -31.7078 H   0  0  0  0  0  0  0  0  0  0  0  0
   -5.4206   20.2924  -34.2658 H   0  0  0  0  0  0  0  0  0  0  0  0
   -3.9930   19.3018  -33.9247 H   0  0  0  0  0  0  0  0  0  0  0  0
   -6.7075   18.4829  -35.0071 H   0  0  0  0  0  0  0  0  0  0  0  0
   -5.1129   17.8583  -35.4535 H   0  0  0  0  0  0  0  0  0  0  0  0
   -6.8374   16.5145  -33.7788 H   0  0  0  0  0  0  0  0  0  0  0  0
   -5.0735   16.3441  -33.6425 H   0  0  0  0  0  0  0  0  0  0  0  0
   -6.9802   17.6620  -31.8022 H   0  0  0  0  0  0  0  0  0  0  0  0
   -5.2840   17.2176  -31.5037 H   0  0  0  0  0  0  0  0  0  0  0  0
   -7.5831   24.3935  -33.2779 H   0  0  0  0  0  0  0  0  0  0  0  0
  1  2  1  0
  2  3  2  0
  3  4  1  0
  4  5  2  0
  5  6  1  0
  6  7  2  0
  7  8  1  0
  8  9  1  0
  9 10  1  0
 10 11  2  0
 11 12  1  0
 12 13  2  0
 13 14  1  0
 14 15  2  0
  9 16  2  0
 16 17  1  0
 17 18  2  0
 18 19  1  0
 19 20  1  0
 19 21  1  0
 21 22  1  0
 22 23  1  0
 23 24  1  0
 24 25  1  0
 18 26  1  0
 26 27  2  0
 27 28  1  0
 28 29  2  0
 29 30  1  0
 30 31  2  0
  7  2  1  0
 30  8  1  0
 15 10  1  0
 29 17  1  0
 25 21  1  0
  1 32  1  0
  1 33  1  0
  1 34  1  0
  3 35  1  0
  4 36  1  0
  5 37  1  0
  6 38  1  0
 11 39  1  0
 12 40  1  0
 13 41  1  0
 14 42  1  0
 15 43  1  0
 16 44  1  0
 20 45  1  0
 20 46  1  0
 20 47  1  0
 21 48  1  0
 22 49  1  0
 22 50  1  0
 23 51  1  0
 23 52  1  0
 24 53  1  0
 24 54  1  0
 25 55  1  0
 25 56  1  0
 27 57  1  0
M  CHG  1  16   1
M  END
>  <UniqueID>  (17) 
17

>  <SMILES>  (17) 
Cc1ccccc1-n1c(-c2ccccc2)[nH+]c2c(N(C)C3CCCC3)ncnc2c1=O

>  <Energy>  (17) 
88.83041146033914

>  <Genealogy>  (17) 
Cc1ccccc1-n1c(-c2ccccc2)[nH+]c2c(N(C)C3CCCC3)ncnc2c1=O (protonated)
Cc1ccccc1-n1c(-c2ccccc2)[nH+]c2c(N(C)C3CCCC3)ncnc2c1=O (3D coordinates assigned)
Cc1ccccc1-n1c(-c2ccccc2)[nH+]c2c(N(C)C3CCCC3)ncnc2c1=O (nonaromatic ring conformer: 88.83041146033914 kcal/mol)

>  <smiles>  (17) 
Cc1ccccc1-n1c(-c2ccccc2)nc2c(N(C)C3CCCC3)ncnc2c1=O

>  <score_type>  (17) 
oracle

>  <origin>  (17) 
adg

>  <m_score__min__energy>  (17) 
-9.2400000000000002

>  <m_primary>  (17) 
energy

$$$$
17:0
     RDKit          3D

 53 56  0  0  0  0  0  0  0  0999 V2000
   -5.0390   15.9160  -32.7700 C   0  0  0  0  0  0  0  0  0  0  0  0
   -6.1160   15.8000  -33.8430 C   0  0  0  0  0  0  0  0  0  0  0  0
   -6.7000   17.1070  -34.1360 N   0  0  0  0  0  0  0  0  0  0  0  0
   -5.9720   18.2910  -34.4940 C   0  0  0  0  0  0  0  0  0  0  0  0
   -5.7390   18.5150  -35.7100 O   0  0  0  0  0  0  0  0  0  0  0  0
   -5.5020   19.2630  -33.4870 C   0  0  0  0  0  0  0  0  0  0  0  0
   -4.1410   19.5780  -33.3740 C   0  0  0  0  0  0  0  0  0  0  0  0
   -3.7070   20.5070  -32.4240 C   0  0  0  0  0  0  0  0  0  0  0  0
   -4.6300   21.1500  -31.5790 C   0  0  0  0  0  0  0  0  0  0  0  0
   -4.1690   22.1340  -30.5670 C   0  0  0  0  0  0  0  0  0  0  0  0
   -5.0850   23.0100  -29.9560 C   0  0  0  0  0  0  0  0  0  0  0  0
   -4.6550   23.9400  -29.0050 C   0  0  0  0  0  0  0  0  0  0  0  0
   -3.3010   24.0120  -28.6480 C   0  0  0  0  0  0  0  0  0  0  0  0
   -2.8720   24.9140  -27.7210 N   0  0  0  0  0  0  0  0  0  0  0  0
   -1.5530   24.9870  -27.3700 C   0  0  0  0  0  0  0  0  0  0  0  0
   -1.0960   25.9460  -26.3950 N   0  0  0  0  0  0  0  0  0  0  0  0
   -0.4980   27.2060  -26.8500 C   0  0  0  0  0  0  0  0  0  0  0  0
   -0.8270   28.3410  -25.8730 C   0  0  0  0  0  0  0  0  0  0  0  0
   -0.5370   27.9860  -24.4700 N   0  0  0  0  0  0  0  0  0  0  0  0
    0.9070   27.9510  -24.1790 C   0  0  0  0  0  0  0  0  0  0  0  0
   -1.2280   26.7460  -24.0630 C   0  0  0  0  0  0  0  0  0  0  0  0
   -0.9190   25.5620  -24.9900 C   0  0  0  0  0  0  0  0  0  0  0  0
   -0.6580   24.1370  -27.9450 N   0  0  0  0  0  0  0  0  0  0  0  0
   -1.0390   23.2210  -28.8690 C   0  0  0  0  0  0  0  0  0  0  0  0
   -2.3790   23.1360  -29.2520 C   0  0  0  0  0  0  0  0  0  0  0  0
   -2.8110   22.2030  -30.2060 C   0  0  0  0  0  0  0  0  0  0  0  0
   -5.9970   20.8480  -31.7140 C   0  0  0  0  0  0  0  0  0  0  0  0
   -6.4290   19.9180  -32.6650 C   0  0  0  0  0  0  0  0  0  0  0  0
   -5.5057   15.8657  -31.7752 H   0  0  0  0  0  0  0  0  0  0  0  0
   -4.3210   15.0900  -32.8804 H   0  0  0  0  0  0  0  0  0  0  0  0
   -4.5134   16.8760  -32.8804 H   0  0  0  0  0  0  0  0  0  0  0  0
   -5.6681   15.3913  -34.7608 H   0  0  0  0  0  0  0  0  0  0  0  0
   -6.9100   15.1338  -33.4747 H   0  0  0  0  0  0  0  0  0  0  0  0
   -3.4102   19.0914  -34.0367 H   0  0  0  0  0  0  0  0  0  0  0  0
   -2.6349   20.7372  -32.3363 H   0  0  0  0  0  0  0  0  0  0  0  0
   -6.1495   22.9626  -30.2292 H   0  0  0  0  0  0  0  0  0  0  0  0
   -5.3821   24.6183  -28.5347 H   0  0  0  0  0  0  0  0  0  0  0  0
   -3.5690   25.5410  -27.2580 H   0  0  0  0  0  0  0  0  0  0  0  0
    0.5938   27.0868  -26.9118 H   0  0  0  0  0  0  0  0  0  0  0  0
   -0.9089   27.4578  -27.8388 H   0  0  0  0  0  0  0  0  0  0  0  0
   -0.2284   29.2232  -26.1438 H   0  0  0  0  0  0  0  0  0  0  0  0
   -1.9057   28.5428  -25.9488 H   0  0  0  0  0  0  0  0  0  0  0  0
    1.0616   27.9473  -23.0899 H   0  0  0  0  0  0  0  0  0  0  0  0
    1.3470   27.0419  -24.6149 H   0  0  0  0  0  0  0  0  0  0  0  0
    1.3905   28.8377  -24.6149 H   0  0  0  0  0  0  0  0  0  0  0  0
   -0.9109   26.4856  -23.0424 H   0  0  0  0  0  0  0  0  0  0  0  0
   -2.3100   26.9362  -24.1176 H   0  0  0  0  0  0  0  0  0  0  0  0
    0.1210   25.2405  -24.8314 H   0  0  0  0  0  0  0  0  0  0  0  0
   -1.6113   24.7395  -24.7573 H   0  0  0  0  0  0  0  0  0  0  0  0
   -0.2941   22.5462  -29.3160 H   0  0  0  0  0  0  0  0  0  0  0  0
   -2.0848   21.5222  -30.6740 H   0  0  0  0  0  0  0  0  0  0  0  0
   -6.7325   21.3474  -31.0662 H   0  0  0  0  0  0  0  0  0  0  0  0
   -7.5021   19.6995  -32.7684 H   0  0  0  0  0  0  0  0  0  0  0  0
  1  2  1  0
  2  3  1  0
  3  4  1  0
  4  5  2  0
  4  6  1  0
  6  7  2  0
  7  8  1  0
  8  9  2  0
  9 10  1  0
 10 11  2  0
 11 12  1  0
 12 13  2  0
 13 14  1  0
 14 15  2  0
 15 16  1  0
 16 17  1  0
 17 18  1  0
 18 19  1  0
 19 20  1  0
 19 21  1  0
 21 22  1  0
 15 23  1  0
 23 24  2  0
 24 25  1  0
 25 26  2  0
  9 27  1  0
 27 28  2  0
 28  6  1  0
 26 10  1  0
 25 13  1  0
 22 16  1  0
  1 29  1  0
  1 30  1  0
  1 31  1  0
  2 32  1  0
  2 33  1  0
  7 34  1  0
  8 35  1  0
 11 36  1  0
 12 37  1  0
 14 38  1  0
 17 39  1  0
 17 40  1  0
 18 41  1  0
 18 42  1  0
 20 43  1  0
 20 44  1  0
 20 45  1  0
 21 46  1  0
 21 47  1  0
 22 48  1  0
 22 49  1  0
 24 50  1  0
 26 51  1  0
 27 52  1  0
 28 53  1  0
M  CHG  2   3  -1  14   1
M  END
>  <UniqueID>  (18) 
18

>  <SMILES>  (18) 
CC[N-]C(=O)c1ccc(-c2ccc3[nH+]c(N4CCN(C)CC4)ncc3c2)cc1

>  <Energy>  (18) 
71.53386170693535

>  <Genealogy>  (18) 
CC[N-]C(=O)c1ccc(-c2ccc3[nH+]c(N4CCN(C)CC4)ncc3c2)cc1 (protonated)
CC[N-]C(=O)c1ccc(-c2ccc3[nH+]c(N4CCN(C)CC4)ncc3c2)cc1 (3D coordinates assigned)
CC[N-]C(=O)c1ccc(-c2ccc3[nH+]c(N4CCN(C)CC4)ncc3c2)cc1 (nonaromatic ring conformer: 71.53386170693535 kcal/mol)

>  <smiles>  (18) 
CCNC(=O)c1ccc(-c2ccc3nc(N4CCN(C)CC4)ncc3c2)cc1

>  <score_type>  (18) 
oracle

>  <origin>  (18) 
adg

>  <m_score__min__energy>  (18) 
-7.7000000000000002

>  <m_primary>  (18) 
energy

$$$$
18:0
     RDKit          3D

 38 40  0  0  0  0  0  0  0  0999 V2000
   -5.2640   15.9860  -34.2010 C   0  0  0  0  0  0  0  0  0  0  0  0
   -5.1140   17.2420  -34.8240 O   0  0  0  0  0  0  0  0  0  0  0  0
   -4.9550   18.2570  -33.8510 C   0  0  0  0  0  0  0  0  0  0  0  0
   -6.2880   18.8090  -33.4490 C   0  0  0  0  0  0  0  0  0  0  0  0
   -7.3210   18.0690  -33.1740 N   0  0  0  0  0  0  0  0  0  0  0  0
   -8.3920   18.9590  -32.6790 C   0  0  1  0  0  0  0  0  0  0  0  0
   -8.7760   18.5640  -31.2530 C   0  0  0  0  0  0  0  0  0  0  0  0
   -7.7680   20.2790  -32.7380 N   0  0  0  0  0  0  0  0  0  0  0  0
   -7.8150   21.3850  -31.9690 C   0  0  0  0  0  0  0  0  0  0  0  0
   -8.8070   21.7200  -31.2690 O   0  0  0  0  0  0  0  0  0  0  0  0
   -6.6110   22.0210  -31.9570 N   0  0  0  0  0  0  0  0  0  0  0  0
   -6.2350   23.1870  -31.2010 C   0  0  0  0  0  0  0  0  0  0  0  0
   -7.2220   24.0110  -30.6370 C   0  0  0  0  0  0  0  0  0  0  0  0
   -6.8630   25.1430  -29.9040 C   0  0  0  0  0  0  0  0  0  0  0  0
   -5.5160   25.4640  -29.7210 C   0  0  0  0  0  0  0  0  0  0  0  0
   -4.5130   24.6480  -30.2730 C   0  0  0  0  0  0  0  0  0  0  0  0
   -3.1460   24.9220  -30.1120 O   0  0  0  0  0  0  0  0  0  0  0  0
   -2.2570   24.1370  -29.3230 C   0  0  0  0  0  0  0  0  0  0  0  0
   -4.8800   23.5150  -31.0100 C   0  0  0  0  0  0  0  0  0  0  0  0
   -5.8300   21.1920  -32.6980 C   0  0  0  0  0  0  0  0  0  0  0  0
   -4.5880   21.3250  -32.8580 O   0  0  0  0  0  0  0  0  0  0  0  0
   -6.5520   20.1710  -33.1910 N   0  0  0  0  0  0  0  0  0  0  0  0
   -5.2487   16.1144  -33.1086 H   0  0  0  0  0  0  0  0  0  0  0  0
   -6.2220   15.5384  -34.5042 H   0  0  0  0  0  0  0  0  0  0  0  0
   -4.4384   15.3254  -34.5042 H   0  0  0  0  0  0  0  0  0  0  0  0
   -4.4555   17.8357  -32.9661 H   0  0  0  0  0  0  0  0  0  0  0  0
   -4.3472   19.0683  -34.2780 H   0  0  0  0  0  0  0  0  0  0  0  0
   -9.3265   18.9146  -33.2575 H   0  0  0  0  0  0  0  0  0  0  0  0
   -8.1938   19.1629  -30.5372 H   0  0  0  0  0  0  0  0  0  0  0  0
   -9.8493   18.7485  -31.0978 H   0  0  0  0  0  0  0  0  0  0  0  0
   -8.5613   17.4964  -31.0978 H   0  0  0  0  0  0  0  0  0  0  0  0
   -8.2849   23.7628  -30.7737 H   0  0  0  0  0  0  0  0  0  0  0  0
   -7.6434   25.7846  -29.4689 H   0  0  0  0  0  0  0  0  0  0  0  0
   -5.2391   26.3581  -29.1432 H   0  0  0  0  0  0  0  0  0  0  0  0
   -2.4588   24.3152  -28.2564 H   0  0  0  0  0  0  0  0  0  0  0  0
   -2.4073   23.0716  -29.5516 H   0  0  0  0  0  0  0  0  0  0  0  0
   -1.2184   24.4181  -29.5516 H   0  0  0  0  0  0  0  0  0  0  0  0
   -4.0993   22.8736  -31.4449 H   0  0  0  0  0  0  0  0  0  0  0  0
  1  2  1  0
  2  3  1  0
  3  4  1  0
  4  5  2  0
  5  6  1  0
  6  7  1  0
  6  8  1  0
  8  9  1  0
  9 10  2  0
  9 11  1  0
 11 12  1  0
 12 13  2  0
 13 14  1  0
 14 15  2  0
 15 16  1  0
 16 17  1  0
 17 18  1  0
 16 19  2  0
 11 20  1  0
 20 21  2  0
 20 22  1  0
 22  4  1  0
 22  8  1  0
 19 12  1  0
  1 23  1  0
  1 24  1  0
  1 25  1  0
  3 26  1  0
  3 27  1  0
  6 28  1  6
  7 29  1  0
  7 30  1  0
  7 31  1  0
 13 32  1  0
 14 33  1  0
 15 34  1  0
 18 35  1  0
 18 36  1  0
 18 37  1  0
 19 38  1  0
M  END
>  <UniqueID>  (19) 
19

>  <SMILES>  (19) 
COCC1=N[C@@H](C)n2c(=O)n(-c3cccc(OC)c3)c(=O)n21

>  <Energy>  (19) 
129.75948856582477

>  <Genealogy>  (19) 
COCC1=N[C@@H](C)n2c(=O)n(-c3cccc(OC)c3)c(=O)n21 (chirality)
COCC1=N[C@@H](C)n2c(=O)n(-c3cccc(OC)c3)c(=O)n21 (3D coordinates assigned)
COCC1=N[C@@H](C)n2c(=O)n(-c3cccc(OC)c3)c(=O)n21 (nonaromatic ring conformer: 129.75948856582477 kcal/mol)

>  <smiles>  (19) 
COCC1=NC(C)n2c(=O)n(-c3cccc(OC)c3)c(=O)n21

>  <score_type>  (19) 
oracle

>  <origin>  (19) 
adg

>  <m_score__min__energy>  (19) 
-7.9100000000000001

>  <m_primary>  (19) 
energy

$$$$
19:0
     RDKit          3D

 31 32  0  0  0  0  0  0  0  0999 V2000
   -2.8330   20.7820  -33.5930 C   0  0  0  0  0  0  0  0  0  0  0  0
   -2.9100   21.1890  -32.1610 C   0  0  0  0  0  0  0  0  0  0  0  0
   -2.1860   22.1980  -31.6330 N   0  0  0  0  0  0  0  0  0  0  0  0
   -2.4930   22.4090  -30.3230 C   0  0  0  0  0  0  0  0  0  0  0  0
   -1.7840   23.4440  -29.5030 C   0  0  0  0  0  0  0  0  0  0  0  0
   -2.6520   24.6910  -29.3060 C   0  0  0  0  0  0  0  0  0  0  0  0
   -3.5050   24.9260  -30.4760 N   0  0  0  0  0  0  0  0  0  0  0  0
   -5.1810   25.0370  -30.0230 S   0  0  0  0  0  0  0  0  0  0  0  0
   -5.7350   26.3640  -30.4620 O   0  0  0  0  0  0  0  0  0  0  0  0
   -5.2950   24.9300  -28.5290 O   0  0  0  0  0  0  0  0  0  0  0  0
   -6.0950   23.7250  -30.7610 C   0  0  0  0  0  0  0  0  0  0  0  0
   -5.7600   23.2750  -32.0460 C   0  0  0  0  0  0  0  0  0  0  0  0
   -6.4830   22.2340  -32.6370 C   0  0  0  0  0  0  0  0  0  0  0  0
   -7.5410   21.6360  -31.9460 C   0  0  0  0  0  0  0  0  0  0  0  0
   -8.2400   20.6260  -32.5190 F   0  0  0  0  0  0  0  0  0  0  0  0
   -7.8750   22.0770  -30.6610 C   0  0  0  0  0  0  0  0  0  0  0  0
   -7.1540   23.1190  -30.0690 C   0  0  0  0  0  0  0  0  0  0  0  0
   -3.4690   21.5610  -29.8000 C   0  0  0  0  0  0  0  0  0  0  0  0
   -3.9680   20.5330  -31.0330 S   0  0  0  0  0  0  0  0  0  0  0  0
   -2.6289   19.7030  -33.6570 H   0  0  0  0  0  0  0  0  0  0  0  0
   -3.7891   21.0044  -34.0893 H   0  0  0  0  0  0  0  0  0  0  0  0
   -2.0242   21.3383  -34.0893 H   0  0  0  0  0  0  0  0  0  0  0  0
   -1.5422   23.0169  -28.5186 H   0  0  0  0  0  0  0  0  0  0  0  0
   -0.8680   23.7400  -30.0353 H   0  0  0  0  0  0  0  0  0  0  0  0
   -3.2877   24.5507  -28.4193 H   0  0  0  0  0  0  0  0  0  0  0  0
   -1.9920   25.5607  -29.1723 H   0  0  0  0  0  0  0  0  0  0  0  0
   -4.9262   23.7421  -32.5907 H   0  0  0  0  0  0  0  0  0  0  0  0
   -6.2190   21.8854  -33.6464 H   0  0  0  0  0  0  0  0  0  0  0  0
   -8.7051   21.6039  -30.1160 H   0  0  0  0  0  0  0  0  0  0  0  0
   -7.4180   23.4641  -29.0584 H   0  0  0  0  0  0  0  0  0  0  0  0
   -3.8448   21.5643  -28.7662 H   0  0  0  0  0  0  0  0  0  0  0  0
  1  2  1  0
  2  3  2  0
  3  4  1  0
  4  5  1  0
  5  6  1  0
  6  7  1  0
  7  8  1  0
  8  9  2  0
  8 10  2  0
  8 11  1  0
 11 12  2  0
 12 13  1  0
 13 14  2  0
 14 15  1  0
 14 16  1  0
 16 17  2  0
  4 18  2  0
 18 19  1  0
 19  2  1  0
 17 11  1  0
  1 20  1  0
  1 21  1  0
  1 22  1  0
  5 23  1  0
  5 24  1  0
  6 25  1  0
  6 26  1  0
 12 27  1  0
 13 28  1  0
 16 29  1  0
 17 30  1  0
 18 31  1  0
M  CHG  1   7  -1
M  END
>  <UniqueID>  (20) 
20

>  <SMILES>  (20) 
Cc1nc(CC[N-]S(=O)(=O)c2ccc(F)cc2)cs1

>  <Energy>  (20) 
55.88588345025779

>  <Genealogy>  (20) 
Cc1nc(CC[N-]S(=O)(=O)c2ccc(F)cc2)cs1 (protonated)
Cc1nc(CC[N-]S(=O)(=O)c2ccc(F)cc2)cs1 (3D coordinates assigned)
Cc1nc(CC[N-]S(=O)(=O)c2ccc(F)cc2)cs1 (optimized conformer: 55.88588345025779 kcal/mol)

>  <smiles>  (20) 
Cc1nc(CCNS(=O)(=O)c2ccc(F)cc2)cs1

>  <score_type>  (20) 
oracle

>  <origin>  (20) 
adg

>  <m_score__min__energy>  (20) 
-7.9199999999999999

>  <m_primary>  (20) 
energy

$$$$
20:0
     RDKit          3D

 41 41  0  0  0  0  0  0  0  0999 V2000
   -5.0880   20.3380  -32.2800 C   0  0  0  0  0  0  0  0  0  0  0  0
   -5.9020   20.0880  -33.5570 C   0  0  0  0  0  0  0  0  0  0  0  0
   -6.6280   18.7890  -33.5460 N   0  0  0  0  0  0  0  0  0  0  0  0
   -6.1120   17.8070  -34.5420 C   0  0  0  0  0  0  0  0  0  0  0  0
   -4.7410   17.1890  -34.2120 C   0  0  0  0  0  0  0  0  0  0  0  0
   -6.8450   18.2000  -32.1940 C   0  0  0  0  0  0  0  0  0  0  0  0
   -8.2470   18.4110  -31.5820 C   0  0  0  0  0  0  0  0  0  0  0  0
   -9.1790   18.9820  -32.5680 N   0  0  0  0  0  0  0  0  0  0  0  0
   -9.0540   20.4460  -32.6920 C   0  0  0  0  0  0  0  0  0  0  0  0
   -9.1590   21.1530  -31.3320 C   0  0  0  0  0  0  0  0  0  0  0  0
   -8.0850   22.1990  -31.1960 C   0  0  0  0  0  0  0  0  0  0  0  0
   -7.5410   22.4960  -29.9360 C   0  0  0  0  0  0  0  0  0  0  0  0
   -6.5190   23.4430  -29.8160 C   0  0  0  0  0  0  0  0  0  0  0  0
   -6.0280   24.0910  -30.9520 C   0  0  0  0  0  0  0  0  0  0  0  0
   -6.5540   23.7910  -32.2110 C   0  0  0  0  0  0  0  0  0  0  0  0
   -7.5760   22.8440  -32.3360 C   0  0  0  0  0  0  0  0  0  0  0  0
   -5.7184   20.1444  -31.3996 H   0  0  0  0  0  0  0  0  0  0  0  0
   -4.2174   19.6658  -32.2626 H   0  0  0  0  0  0  0  0  0  0  0  0
   -4.7448   21.3829  -32.2626 H   0  0  0  0  0  0  0  0  0  0  0  0
   -6.6376   20.8984  -33.6667 H   0  0  0  0  0  0  0  0  0  0  0  0
   -5.1915   20.0576  -34.3962 H   0  0  0  0  0  0  0  0  0  0  0  0
   -7.5960   19.0150  -33.8830 H   0  0  0  0  0  0  0  0  0  0  0  0
   -6.8427   16.9886  -34.6214 H   0  0  0  0  0  0  0  0  0  0  0  0
   -5.9735   18.3689  -35.4775 H   0  0  0  0  0  0  0  0  0  0  0  0
   -4.6171   17.1332  -33.1204 H   0  0  0  0  0  0  0  0  0  0  0  0
   -4.6823   16.1773  -34.6399 H   0  0  0  0  0  0  0  0  0  0  0  0
   -3.9441   17.8149  -34.6399 H   0  0  0  0  0  0  0  0  0  0  0  0
   -6.6687   17.1166  -32.2664 H   0  0  0  0  0  0  0  0  0  0  0  0
   -6.1470   18.7253  -31.5256 H   0  0  0  0  0  0  0  0  0  0  0  0
   -8.6378   17.4419  -31.2384 H   0  0  0  0  0  0  0  0  0  0  0  0
   -8.1571   19.1139  -30.7407 H   0  0  0  0  0  0  0  0  0  0  0  0
  -10.1600   18.7360  -32.2980 H   0  0  0  0  0  0  0  0  0  0  0  0
   -8.0773   20.6818  -33.1397 H   0  0  0  0  0  0  0  0  0  0  0  0
   -9.8801   20.8038  -33.3241 H   0  0  0  0  0  0  0  0  0  0  0  0
  -10.1449   21.6339  -31.2494 H   0  0  0  0  0  0  0  0  0  0  0  0
   -9.0320   20.4074  -30.5333 H   0  0  0  0  0  0  0  0  0  0  0  0
   -7.9200   21.9820  -29.0403 H   0  0  0  0  0  0  0  0  0  0  0  0
   -6.1012   23.6779  -28.8259 H   0  0  0  0  0  0  0  0  0  0  0  0
   -5.2265   24.8381  -30.8551 H   0  0  0  0  0  0  0  0  0  0  0  0
   -6.1642   24.2999  -33.1049 H   0  0  0  0  0  0  0  0  0  0  0  0
   -7.9824   22.6036  -33.3295 H   0  0  0  0  0  0  0  0  0  0  0  0
  1  2  1  0
  2  3  1  0
  3  4  1  0
  4  5  1  0
  3  6  1  0
  6  7  1  0
  7  8  1  0
  8  9  1  0
  9 10  1  0
 10 11  1  0
 11 12  2  0
 12 13  1  0
 13 14  2  0
 14 15  1  0
 15 16  2  0
 16 11  1  0
  1 17  1  0
  1 18  1  0
  1 19  1  0
  2 20  1  0
  2 21  1  0
  3 22  1  0
  4 23  1  0
  4 24  1  0
  5 25  1  0
  5 26  1  0
  5 27  1  0
  6 28  1  0
  6 29  1  0
  7 30  1  0
  7 31  1  0
  8 32  1  0
  9 33  1  0
  9 34  1  0
 10 35  1  0
 10 36  1  0
 12 37  1  0
 13 38  1  0
 14 39  1  0
 15 40  1  0
 16 41  1  0
M  CHG  1   3   1
M  END
>  <UniqueID>  (21) 
21

>  <SMILES>  (21) 
CC[NH+](CC)CCNCCc1ccccc1

>  <Energy>  (21) 
46.26557127831995

>  <Genealogy>  (21) 
CC[NH+](CC)CCNCCc1ccccc1 (protonated)
CC[NH+](CC)CCNCCc1ccccc1 (3D coordinates assigned)
CC[NH+](CC)CCNCCc1ccccc1 (optimized conformer: 46.26557127831995 kcal/mol)

>  <smiles>  (21) 
CCN(CC)CCNCCc1ccccc1

>  <score_type>  (21) 
oracle

>  <origin>  (21) 
adg

>  <m_score__min__energy>  (21) 
-5.4500000000000002

>  <m_primary>  (21) 
energy

$$$$
21:0
     RDKit          3D

 32 33  0  0  0  0  0  0  0  0999 V2000
   -6.4870   17.4470  -31.2160 C   0  0  0  0  0  0  0  0  0  0  0  0
   -6.9180   17.4880  -32.6760 C   0  0  0  0  0  0  0  0  0  0  0  0
   -6.7160   18.8270  -33.2520 N   0  0  0  0  0  0  0  0  0  0  0  0
   -6.1100   18.9760  -34.5840 C   0  0  0  0  0  0  0  0  0  0  0  0
   -5.2830   17.7490  -34.9520 C   0  0  0  0  0  0  0  0  0  0  0  0
   -7.4870   19.9230  -32.7230 C   0  0  0  0  0  0  0  0  0  0  0  0
   -8.8670   19.7500  -32.5480 C   0  0  0  0  0  0  0  0  0  0  0  0
   -9.6570   20.7820  -32.0400 C   0  0  0  0  0  0  0  0  0  0  0  0
   -9.0800   22.0050  -31.6970 C   0  0  0  0  0  0  0  0  0  0  0  0
   -7.7020   22.2050  -31.8620 C   0  0  0  0  0  0  0  0  0  0  0  0
   -7.1240   23.4370  -31.5170 C   0  0  0  0  0  0  0  0  0  0  0  0
   -5.7530   23.6410  -31.6780 C   0  0  0  0  0  0  0  0  0  0  0  0
   -4.9480   22.6200  -32.1850 C   0  0  0  0  0  0  0  0  0  0  0  0
   -5.5070   21.3890  -32.5340 C   0  0  0  0  0  0  0  0  0  0  0  0
   -6.8890   21.1610  -32.3790 C   0  0  0  0  0  0  0  0  0  0  0  0
   -7.3731   17.5313  -30.5696 H   0  0  0  0  0  0  0  0  0  0  0  0
   -5.9734   16.4959  -31.0119 H   0  0  0  0  0  0  0  0  0  0  0  0
   -5.8033   18.2842  -31.0119 H   0  0  0  0  0  0  0  0  0  0  0  0
   -6.3241   16.7586  -33.2463 H   0  0  0  0  0  0  0  0  0  0  0  0
   -7.9889   17.2428  -32.7305 H   0  0  0  0  0  0  0  0  0  0  0  0
   -6.9084   19.1076  -35.3291 H   0  0  0  0  0  0  0  0  0  0  0  0
   -5.4460   19.8529  -34.5693 H   0  0  0  0  0  0  0  0  0  0  0  0
   -4.9442   17.2464  -34.0341 H   0  0  0  0  0  0  0  0  0  0  0  0
   -5.8988   17.0557  -35.5437 H   0  0  0  0  0  0  0  0  0  0  0  0
   -4.4093   18.0597  -35.5437 H   0  0  0  0  0  0  0  0  0  0  0  0
   -9.3326   18.7896  -32.8142 H   0  0  0  0  0  0  0  0  0  0  0  0
  -10.7387   20.6307  -31.9095 H   0  0  0  0  0  0  0  0  0  0  0  0
   -9.7077   22.8145  -31.2961 H   0  0  0  0  0  0  0  0  0  0  0  0
   -7.7547   24.2451  -31.1180 H   0  0  0  0  0  0  0  0  0  0  0  0
   -5.3060   24.6082  -31.4048 H   0  0  0  0  0  0  0  0  0  0  0  0
   -3.8678   22.7858  -32.3103 H   0  0  0  0  0  0  0  0  0  0  0  0
   -4.8636   20.5910  -32.9330 H   0  0  0  0  0  0  0  0  0  0  0  0
  1  2  1  0
  2  3  1  0
  3  4  1  0
  4  5  1  0
  3  6  1  0
  6  7  2  0
  7  8  1  0
  8  9  2  0
  9 10  1  0
 10 11  2  0
 11 12  1  0
 12 13  2  0
 13 14  1  0
 14 15  2  0
 15  6  1  0
 15 10  1  0
  1 16  1  0
  1 17  1  0
  1 18  1  0
  2 19  1  0
  2 20  1  0
  4 21  1  0
  4 22  1  0
  5 23  1  0
  5 24  1  0
  5 25  1  0
  7 26  1  0
  8 27  1  0
  9 28  1  0
 11 29  1  0
 12 30  1  0
 13 31  1  0
 14 32  1  0
M  END
>  <UniqueID>  (22) 
22

>  <SMILES>  (22) 
CCN(CC)c1cccc2ccccc12

>  <Energy>  (22) 
35.33466256670882

>  <Genealogy>  (22) 
CCN(CC)c1cccc2ccccc12 (3D coordinates assigned)
CCN(CC)c1cccc2ccccc12 (optimized conformer: 35.33466256670882 kcal/mol)

>  <smiles>  (22) 
CCN(CC)c1cccc2ccccc12

>  <score_type>  (22) 
oracle

>  <origin>  (22) 
adg

>  <m_score__min__energy>  (22) 
-6.4500000000000002

>  <m_primary>  (22) 
energy

$$$$
22:0
     RDKit          3D

 33 34  0  0  0  0  0  0  0  0999 V2000
   -6.8880   17.8240  -33.1470 C   0  0  0  0  0  0  0  0  0  0  0  0
   -7.4490   18.9920  -32.4600 N   0  0  0  0  0  0  0  0  0  0  0  0
   -8.6310   18.8390  -31.6050 C   0  0  0  0  0  0  0  0  0  0  0  0
   -6.8340   20.2830  -32.6660 C   0  0  0  0  0  0  0  0  0  0  0  0
   -5.9730   20.4240  -33.5790 O   0  0  0  0  0  0  0  0  0  0  0  0
   -7.1300   21.4740  -31.7830 C   0  0  0  0  0  0  0  0  0  0  0  0
   -6.6680   22.7300  -32.3950 N   0  0  0  0  0  0  0  0  0  0  0  0
   -5.6390   23.3540  -31.5970 C   0  0  0  0  0  0  0  0  0  0  0  0
   -5.7700   24.6940  -31.1850 C   0  0  0  0  0  0  0  0  0  0  0  0
   -4.7550   25.3110  -30.4480 C   0  0  0  0  0  0  0  0  0  0  0  0
   -3.5950   24.6000  -30.1270 C   0  0  0  0  0  0  0  0  0  0  0  0
   -3.4490   23.2680  -30.5400 C   0  0  0  0  0  0  0  0  0  0  0  0
   -4.4700   22.6460  -31.2640 C   0  0  0  0  0  0  0  0  0  0  0  0
   -2.2880   22.5580  -30.2070 O   0  0  0  0  0  0  0  0  0  0  0  0
   -1.0830   23.1940  -29.7690 C   0  0  0  0  0  0  0  0  0  0  0  0
   -1.3610   24.4940  -29.0690 C   0  0  0  0  0  0  0  0  0  0  0  0
   -0.5020   24.9940  -28.2970 O   0  0  0  0  0  0  0  0  0  0  0  0
   -2.5700   25.2050  -29.3400 N   0  0  0  0  0  0  0  0  0  0  0  0
   -6.5374   17.0941  -32.4025 H   0  0  0  0  0  0  0  0  0  0  0  0
   -7.6625   17.3621  -33.7769 H   0  0  0  0  0  0  0  0  0  0  0  0
   -6.0433   18.1398  -33.7769 H   0  0  0  0  0  0  0  0  0  0  0  0
   -8.3270   18.8784  -30.5486 H   0  0  0  0  0  0  0  0  0  0  0  0
   -9.3415   19.6527  -31.8126 H   0  0  0  0  0  0  0  0  0  0  0  0
   -9.1109   17.8712  -31.8126 H   0  0  0  0  0  0  0  0  0  0  0  0
   -8.2159   21.5353  -31.6185 H   0  0  0  0  0  0  0  0  0  0  0  0
   -6.5956   21.3380  -30.8312 H   0  0  0  0  0  0  0  0  0  0  0  0
   -7.4820   23.3830  -32.4760 H   0  0  0  0  0  0  0  0  0  0  0  0
   -6.3190   22.5510  -33.3660 H   0  0  0  0  0  0  0  0  0  0  0  0
   -6.6772   25.2592  -31.4448 H   0  0  0  0  0  0  0  0  0  0  0  0
   -4.8690   26.3551  -30.1209 H   0  0  0  0  0  0  0  0  0  0  0  0
   -4.3588   21.5968  -31.5752 H   0  0  0  0  0  0  0  0  0  0  0  0
   -0.5572   22.5214  -29.0753 H   0  0  0  0  0  0  0  0  0  0  0  0
   -0.4675   23.4077  -30.6553 H   0  0  0  0  0  0  0  0  0  0  0  0
  1  2  1  0
  2  3  1  0
  2  4  1  0
  4  5  2  0
  4  6  1  0
  6  7  1  0
  7  8  1  0
  8  9  2  0
  9 10  1  0
 10 11  2  0
 11 12  1  0
 12 13  2  0
 12 14  1  0
 14 15  1  0
 15 16  1  0
 16 17  2  0
 16 18  1  0
 13  8  1  0
 18 11  1  0
  1 19  1  0
  1 20  1  0
  1 21  1  0
  3 22  1  0
  3 23  1  0
  3 24  1  0
  6 25  1  0
  6 26  1  0
  7 27  1  0
  7 28  1  0
  9 29  1  0
 10 30  1  0
 13 31  1  0
 15 32  1  0
 15 33  1  0
M  CHG  2   7   1  18  -1
M  END
>  <UniqueID>  (23) 
23

>  <SMILES>  (23) 
CN(C)C(=O)C[NH2+]c1ccc2c(c1)OCC(=O)[N-]2

>  <Energy>  (23) 
31.91750605588129

>  <Genealogy>  (23) 
CN(C)C(=O)C[NH2+]c1ccc2c(c1)OCC(=O)[N-]2 (protonated)
CN(C)C(=O)C[NH2+]c1ccc2c(c1)OCC(=O)[N-]2 (3D coordinates assigned)
CN(C)C(=O)C[NH2+]c1ccc2c(c1)OCC(=O)[N-]2 (nonaromatic ring conformer: 31.91750605588129 kcal/mol)

>  <smiles>  (23) 
CN(C)C(=O)CNc1ccc2c(c1)OCC(=O)N2

>  <score_type>  (23) 
oracle

>  <origin>  (23) 
adg

>  <m_score__min__energy>  (23) 
-7.2800000000000002

>  <m_primary>  (23) 
energy

$$$$
23:0
     RDKit          3D

 47 51  0  0  0  0  0  0  0  0999 V2000
   -5.5150   25.8260  -30.4250 C   0  0  0  0  0  0  0  0  0  0  0  0
   -4.8850   24.8010  -31.1880 O   0  0  0  0  0  0  0  0  0  0  0  0
   -5.4300   23.5340  -31.4480 C   0  0  0  0  0  0  0  0  0  0  0  0
   -6.7930   23.2820  -31.2190 C   0  0  0  0  0  0  0  0  0  0  0  0
   -7.3440   22.0260  -31.4750 C   0  0  0  0  0  0  0  0  0  0  0  0
   -6.5680   21.0320  -32.0880 C   0  0  0  0  0  0  0  0  0  0  0  0
   -5.1860   21.2520  -32.3100 C   0  0  0  0  0  0  0  0  0  0  0  0
   -4.6010   22.4890  -31.9300 C   0  0  0  0  0  0  0  0  0  0  0  0
   -3.1990   22.6110  -32.0020 O   0  0  0  0  0  0  0  0  0  0  0  0
   -2.2520   22.2710  -30.9950 C   0  0  0  0  0  0  0  0  0  0  0  0
   -4.3670   20.0880  -32.7910 C   0  0  0  0  0  0  0  0  0  0  0  0
   -3.1730   20.2500  -33.5390 C   0  0  0  0  0  0  0  0  0  0  0  0
   -2.4620   19.1110  -33.9030 C   0  0  0  0  0  0  0  0  0  0  0  0
   -2.8910   17.8640  -33.5930 C   0  0  0  0  0  0  0  0  0  0  0  0
   -4.0810   17.6410  -32.9150 C   0  0  0  0  0  0  0  0  0  0  0  0
   -4.8480   18.7650  -32.5390 C   0  0  0  0  0  0  0  0  0  0  0  0
   -6.2140   18.5750  -31.9250 C   0  0  0  0  0  0  0  0  0  0  0  0
   -7.1600   19.6720  -32.4580 C   0  0  1  0  0  0  0  0  0  0  0  0
   -8.5760   19.4540  -32.0210 N   0  0  2  0  0  0  0  0  0  0  0  0
   -9.5190   19.6810  -33.1380 C   0  0  0  0  0  0  0  0  0  0  0  0
   -8.9540   20.2470  -30.8320 C   0  0  0  0  0  0  0  0  0  0  0  0
   -8.7580   21.7470  -31.0600 C   0  0  0  0  0  0  0  0  0  0  0  0
   -1.9940   16.9330  -34.0810 O   0  0  0  0  0  0  0  0  0  0  0  0
   -0.9350   17.6420  -34.7410 C   0  0  0  0  0  0  0  0  0  0  0  0
   -1.2760   19.0290  -34.6070 O   0  0  0  0  0  0  0  0  0  0  0  0
   -5.3863   25.6166  -29.3528 H   0  0  0  0  0  0  0  0  0  0  0  0
   -5.0574   26.7967  -30.6665 H   0  0  0  0  0  0  0  0  0  0  0  0
   -6.5877   25.8561  -30.6665 H   0  0  0  0  0  0  0  0  0  0  0  0
   -7.4353   24.0868  -30.8321 H   0  0  0  0  0  0  0  0  0  0  0  0
   -2.6986   22.4313  -30.0026 H   0  0  0  0  0  0  0  0  0  0  0  0
   -1.9663   21.2142  -31.1021 H   0  0  0  0  0  0  0  0  0  0  0  0
   -1.3593   22.9048  -31.1021 H   0  0  0  0  0  0  0  0  0  0  0  0
   -2.8180   21.2513  -33.8242 H   0  0  0  0  0  0  0  0  0  0  0  0
   -4.4162   16.6205  -32.6780 H   0  0  0  0  0  0  0  0  0  0  0  0
   -6.6068   17.5844  -32.1980 H   0  0  0  0  0  0  0  0  0  0  0  0
   -6.1427   18.6450  -30.8295 H   0  0  0  0  0  0  0  0  0  0  0  0
   -7.2284   19.6303  -33.5551 H   0  0  0  0  0  0  0  0  0  0  0  0
   -8.7040   18.4490  -31.7530 H   0  0  0  0  0  0  0  0  0  0  0  0
  -10.5140   19.9205  -32.7349 H   0  0  0  0  0  0  0  0  0  0  0  0
   -9.1619   20.5188  -33.7548 H   0  0  0  0  0  0  0  0  0  0  0  0
   -9.5823   18.7724  -33.7548 H   0  0  0  0  0  0  0  0  0  0  0  0
  -10.0126   20.0579  -30.6005 H   0  0  0  0  0  0  0  0  0  0  0  0
   -8.3047   19.9415  -29.9983 H   0  0  0  0  0  0  0  0  0  0  0  0
   -9.4429   22.0871  -31.8507 H   0  0  0  0  0  0  0  0  0  0  0  0
   -8.9704   22.2838  -30.1236 H   0  0  0  0  0  0  0  0  0  0  0  0
    0.0304   17.4328  -34.2571 H   0  0  0  0  0  0  0  0  0  0  0  0
   -0.8312   17.3422  -35.7943 H   0  0  0  0  0  0  0  0  0  0  0  0
  1  2  1  0
  2  3  1  0
  3  4  2  0
  4  5  1  0
  5  6  2  0
  6  7  1  0
  7  8  2  0
  8  9  1  0
  9 10  1  0
  7 11  1  0
 11 12  2  0
 12 13  1  0
 13 14  2  0
 14 15  1  0
 15 16  2  0
 16 17  1  0
 17 18  1  0
 18 19  1  0
 19 20  1  0
 19 21  1  0
 21 22  1  0
 14 23  1  0
 23 24  1  0
 24 25  1  0
  8  3  1  0
 16 11  1  0
 22  5  1  0
 18  6  1  0
 25 13  1  0
  1 26  1  0
  1 27  1  0
  1 28  1  0
  4 29  1  0
 10 30  1  0
 10 31  1  0
 10 32  1  0
 12 33  1  0
 15 34  1  0
 17 35  1  0
 17 36  1  0
 18 37  1  6
 19 38  1  1
 20 39  1  0
 20 40  1  0
 20 41  1  0
 21 42  1  0
 21 43  1  0
 22 44  1  0
 22 45  1  0
 24 46  1  0
 24 47  1  0
M  CHG  1  19   1
M  END
>  <UniqueID>  (24) 
24

>  <SMILES>  (24) 
COc1cc2c3c(c1OC)-c1cc4c(cc1C[C@H]3[N@H+](C)CC2)OCO4

>  <Energy>  (24) 
103.79165759895952

>  <Genealogy>  (24) 
COc1cc2c3c(c1OC)-c1cc4c(cc1CC3[NH+](C)CC2)OCO4 (protonated)
COc1cc2c3c(c1OC)-c1cc4c(cc1C[C@H]3[N@H+](C)CC2)OCO4 (chirality)
COc1cc2c3c(c1OC)-c1cc4c(cc1C[C@H]3[N@H+](C)CC2)OCO4 (3D coordinates assigned)
COc1cc2c3c(c1OC)-c1cc4c(cc1C[C@H]3[N@H+](C)CC2)OCO4 (nonaromatic ring conformer: 103.79165759895952 kcal/mol)

>  <smiles>  (24) 
COc1cc2c3c(c1OC)-c1cc4c(cc1CC3N(C)CC2)OCO4

>  <score_type>  (24) 
oracle

>  <origin>  (24) 
adg

>  <m_score__min__energy>  (24) 
-6.9699999999999998

>  <m_primary>  (24) 
energy

$$$$
24:0
     RDKit          3D

 53 55  0  0  0  0  0  0  0  0999 V2000
   -7.7690   22.5590  -31.8960 C   0  0  0  0  0  0  0  0  0  0  0  0
   -8.4980   21.6010  -31.9480 C   0  0  0  0  0  0  0  0  0  0  0  0
   -9.3760   20.4290  -32.0100 C   0  0  0  0  0  0  0  0  0  0  0  0
   -8.6930   19.3330  -32.7100 N   0  0  0  0  0  0  0  0  0  0  0  0
   -7.4670   18.9280  -32.0050 C   0  0  0  0  0  0  0  0  0  0  0  0
   -7.0680   17.4950  -32.4190 C   0  0  1  0  0  0  0  0  0  0  0  0
   -6.8560   17.3920  -33.9440 C   0  0  0  0  0  0  0  0  0  0  0  0
   -5.5670   18.0950  -34.4100 C   0  0  0  0  0  0  0  0  0  0  0  0
   -4.3200   17.8590  -33.4910 C   0  0  1  0  0  0  0  0  0  0  0  0
   -3.8940   19.1390  -32.8350 N   0  0  0  0  0  0  0  0  0  0  0  0
   -4.8310   20.2500  -33.2000 C   0  0  0  0  0  0  0  0  0  0  0  0
   -4.1700   21.6190  -33.4390 C   0  0  0  0  0  0  0  0  0  0  0  0
   -3.0570   21.9200  -32.4260 C   0  0  0  0  0  0  0  0  0  0  0  0
   -3.6310   22.3670  -31.0880 C   0  0  0  0  0  0  0  0  0  0  0  0
   -3.0870   21.8630  -29.8920 C   0  0  0  0  0  0  0  0  0  0  0  0
   -3.5820   22.2820  -28.6530 C   0  0  0  0  0  0  0  0  0  0  0  0
   -4.6200   23.2150  -28.5910 C   0  0  0  0  0  0  0  0  0  0  0  0
   -5.1600   23.7340  -29.7690 C   0  0  0  0  0  0  0  0  0  0  0  0
   -4.6670   23.3200  -31.0090 C   0  0  0  0  0  0  0  0  0  0  0  0
   -2.0610   20.7410  -32.2990 C   0  0  0  0  0  0  0  0  0  0  0  0
   -2.4800   19.5000  -33.1000 C   0  0  0  0  0  0  0  0  0  0  0  0
   -4.6140   16.6950  -32.5060 C   0  0  0  0  0  0  0  0  0  0  0  0
   -5.8330   16.9910  -31.6180 C   0  0  0  0  0  0  0  0  0  0  0  0
   -7.1035   23.4336  -31.8485 H   0  0  0  0  0  0  0  0  0  0  0  0
   -9.6298   20.1083  -30.9889 H   0  0  0  0  0  0  0  0  0  0  0  0
  -10.2948   20.6916  -32.5548 H   0  0  0  0  0  0  0  0  0  0  0  0
   -8.4120   19.6840  -33.6570 H   0  0  0  0  0  0  0  0  0  0  0  0
   -6.6529   19.6215  -32.2625 H   0  0  0  0  0  0  0  0  0  0  0  0
   -7.6495   18.9527  -30.9205 H   0  0  0  0  0  0  0  0  0  0  0  0
   -7.9040   16.8272  -32.1638 H   0  0  0  0  0  0  0  0  0  0  0  0
   -6.7978   16.3290  -34.2209 H   0  0  0  0  0  0  0  0  0  0  0  0
   -7.7047   17.8920  -34.4336 H   0  0  0  0  0  0  0  0  0  0  0  0
   -5.3231   17.7290  -35.4182 H   0  0  0  0  0  0  0  0  0  0  0  0
   -5.7747   19.1747  -34.3783 H   0  0  0  0  0  0  0  0  0  0  0  0
   -3.4532   17.5445  -34.0907 H   0  0  0  0  0  0  0  0  0  0  0  0
   -5.3568   19.9614  -34.1221 H   0  0  0  0  0  0  0  0  0  0  0  0
   -5.4968   20.3818  -32.3343 H   0  0  0  0  0  0  0  0  0  0  0  0
   -3.7385   21.6304  -34.4508 H   0  0  0  0  0  0  0  0  0  0  0  0
   -4.9461   22.3896  -33.3212 H   0  0  0  0  0  0  0  0  0  0  0  0
   -2.4709   22.7680  -32.8098 H   0  0  0  0  0  0  0  0  0  0  0  0
   -2.2651   21.1330  -29.9321 H   0  0  0  0  0  0  0  0  0  0  0  0
   -3.1530   21.8760  -27.7250 H   0  0  0  0  0  0  0  0  0  0  0  0
   -5.0111   23.5401  -27.6156 H   0  0  0  0  0  0  0  0  0  0  0  0
   -5.9755   24.4706  -29.7209 H   0  0  0  0  0  0  0  0  0  0  0  0
   -5.0911   23.7415  -31.9323 H   0  0  0  0  0  0  0  0  0  0  0  0
   -1.0776   21.0746  -32.6619 H   0  0  0  0  0  0  0  0  0  0  0  0
   -2.0359   20.4498  -31.2385 H   0  0  0  0  0  0  0  0  0  0  0  0
   -2.3586   19.7085  -34.1732 H   0  0  0  0  0  0  0  0  0  0  0  0
   -1.8433   18.6573  -32.7926 H   0  0  0  0  0  0  0  0  0  0  0  0
   -4.8091   15.7800  -33.0846 H   0  0  0  0  0  0  0  0  0  0  0  0
   -3.7378   16.5712  -31.8526 H   0  0  0  0  0  0  0  0  0  0  0  0
   -6.1125   16.0678  -31.0892 H   0  0  0  0  0  0  0  0  0  0  0  0
   -5.5441   17.7940  -30.9240 H   0  0  0  0  0  0  0  0  0  0  0  0
  1  2  3  0
  2  3  1  0
  3  4  1  0
  4  5  1  0
  5  6  1  0
  6  7  1  0
  7  8  1  0
  8  9  1  0
  9 10  1  0
 10 11  1  0
 11 12  1  0
 12 13  1  0
 13 14  1  0
 14 15  2  0
 15 16  1  0
 16 17  2  0
 17 18  1  0
 18 19  2  0
 13 20  1  0
 20 21  1  0
  9 22  1  0
 22 23  1  0
 23  6  1  0
 21 10  1  0
 19 14  1  0
  1 24  1  0
  3 25  1  0
  3 26  1  0
  4 27  1  0
  5 28  1  0
  5 29  1  0
  6 30  1  1
  7 31  1  0
  7 32  1  0
  8 33  1  0
  8 34  1  0
  9 35  1  6
 11 36  1  0
 11 37  1  0
 12 38  1  0
 12 39  1  0
 13 40  1  0
 15 41  1  0
 16 42  1  0
 17 43  1  0
 18 44  1  0
 19 45  1  0
 20 46  1  0
 20 47  1  0
 21 48  1  0
 21 49  1  0
 22 50  1  0
 22 51  1  0
 23 52  1  0
 23 53  1  0
M  END
>  <UniqueID>  (25) 
25

>  <SMILES>  (25) 
C#CCNCC1CCC(N2CCC(c3ccccc3)CC2)CC1

>  <Energy>  (25) 
68.73633112268348

>  <Genealogy>  (25) 
C#CCNCC1CCC(N2CCC(c3ccccc3)CC2)CC1 (3D coordinates assigned)
C#CCNCC1CCC(N2CCC(c3ccccc3)CC2)CC1 (nonaromatic ring conformer: 68.73633112268348 kcal/mol)

>  <smiles>  (25) 
C#CCNCC1CCC(N2CCC(c3ccccc3)CC2)CC1

>  <score_type>  (25) 
oracle

>  <origin>  (25) 
adg

>  <m_score__min__energy>  (25) 
-8.3100000000000005

>  <m_primary>  (25) 
energy

$$$$
25:0
     RDKit          3D

 37 39  0  0  0  0  0  0  0  0999 V2000
   -2.0980   24.6950  -28.1390 C   0  0  0  0  0  0  0  0  0  0  0  0
   -2.7270   25.0820  -29.3560 O   0  0  0  0  0  0  0  0  0  0  0  0
   -3.9860   24.6290  -29.7770 C   0  0  0  0  0  0  0  0  0  0  0  0
   -4.5940   23.4800  -29.2360 C   0  0  0  0  0  0  0  0  0  0  0  0
   -5.8510   23.0680  -29.6900 C   0  0  0  0  0  0  0  0  0  0  0  0
   -6.5210   23.7960  -30.6850 C   0  0  0  0  0  0  0  0  0  0  0  0
   -7.8600   23.3300  -31.1970 C   0  0  0  0  0  0  0  0  0  0  0  0
   -7.7890   21.9160  -31.6180 N   0  0  0  0  0  0  0  0  0  0  0  0
   -8.7580   21.0250  -31.2210 C   0  0  0  0  0  0  0  0  0  0  0  0
   -9.7360   21.4030  -30.5210 O   0  0  0  0  0  0  0  0  0  0  0  0
   -8.6800   19.7180  -31.5780 N   0  0  0  0  0  0  0  0  0  0  0  0
   -7.6550   19.2460  -32.3270 C   0  0  0  0  0  0  0  0  0  0  0  0
   -7.6090   17.8920  -32.6750 C   0  0  0  0  0  0  0  0  0  0  0  0
   -6.5420   17.3950  -33.4400 C   0  0  0  0  0  0  0  0  0  0  0  0
   -6.5130   15.9510  -33.8470 C   0  0  0  0  0  0  0  0  0  0  0  0
   -5.5390   18.2730  -33.8800 C   0  0  0  0  0  0  0  0  0  0  0  0
   -5.5830   19.6260  -33.5340 C   0  0  0  0  0  0  0  0  0  0  0  0
   -6.6410   20.1230  -32.7520 C   0  0  0  0  0  0  0  0  0  0  0  0
   -6.7310   21.4760  -32.3770 C   0  0  0  0  0  0  0  0  0  0  0  0
   -5.8330   22.2840  -32.7460 O   0  0  0  0  0  0  0  0  0  0  0  0
   -5.9110   24.9390  -31.2250 C   0  0  0  0  0  0  0  0  0  0  0  0
   -4.6550   25.3510  -30.7710 C   0  0  0  0  0  0  0  0  0  0  0  0
   -2.6911   25.0599  -27.2875 H   0  0  0  0  0  0  0  0  0  0  0  0
   -2.0291   23.5981  -28.0945 H   0  0  0  0  0  0  0  0  0  0  0  0
   -1.0878   25.1280  -28.0945 H   0  0  0  0  0  0  0  0  0  0  0  0
   -4.0784   22.9042  -28.4533 H   0  0  0  0  0  0  0  0  0  0  0  0
   -6.3175   22.1674  -29.2643 H   0  0  0  0  0  0  0  0  0  0  0  0
   -8.6089   23.4326  -30.3978 H   0  0  0  0  0  0  0  0  0  0  0  0
   -8.1435   23.9455  -32.0635 H   0  0  0  0  0  0  0  0  0  0  0  0
   -8.4115   17.2144  -32.3482 H   0  0  0  0  0  0  0  0  0  0  0  0
   -6.5003   15.3169  -32.9482 H   0  0  0  0  0  0  0  0  0  0  0  0
   -7.4067   15.7207  -34.4456 H   0  0  0  0  0  0  0  0  0  0  0  0
   -5.6108   15.7568  -34.4456 H   0  0  0  0  0  0  0  0  0  0  0  0
   -4.7138   17.8937  -34.5006 H   0  0  0  0  0  0  0  0  0  0  0  0
   -4.7873   20.3049  -33.8745 H   0  0  0  0  0  0  0  0  0  0  0  0
   -6.4244   25.5137  -32.0099 H   0  0  0  0  0  0  0  0  0  0  0  0
   -4.1886   26.2506  -31.1989 H   0  0  0  0  0  0  0  0  0  0  0  0
  1  2  1  0
  2  3  1  0
  3  4  2  0
  4  5  1  0
  5  6  2  0
  6  7  1  0
  7  8  1  0
  8  9  1  0
  9 10  2  0
  9 11  1  0
 11 12  1  0
 12 13  2  0
 13 14  1  0
 14 15  1  0
 14 16  2  0
 16 17  1  0
 17 18  2  0
 18 19  1  0
 19 20  2  0
  6 21  1  0
 21 22  2  0
 22  3  1  0
 19  8  1  0
 18 12  1  0
  1 23  1  0
  1 24  1  0
  1 25  1  0
  4 26  1  0
  5 27  1  0
  7 28  1  0
  7 29  1  0
 13 30  1  0
 15 31  1  0
 15 32  1  0
 15 33  1  0
 16 34  1  0
 17 35  1  0
 21 36  1  0
 22 37  1  0
M  CHG  1  11  -1
M  END
>  <UniqueID>  (26) 
26

>  <SMILES>  (26) 
COc1ccc(Cn2c(=O)[n-]c3cc(C)ccc3c2=O)cc1

>  <Energy>  (26) 
45.74388916004203

>  <Genealogy>  (26) 
COc1ccc(Cn2c(=O)[n-]c3cc(C)ccc3c2=O)cc1 (protonated)
COc1ccc(Cn2c(=O)[n-]c3cc(C)ccc3c2=O)cc1 (3D coordinates assigned)
COc1ccc(Cn2c(=O)[n-]c3cc(C)ccc3c2=O)cc1 (optimized conformer: 45.74388916004203 kcal/mol)

>  <smiles>  (26) 
COc1ccc(Cn2c(=O)[nH]c3cc(C)ccc3c2=O)cc1

>  <score_type>  (26) 
oracle

>  <origin>  (26) 
adg

>  <m_score__min__energy>  (26) 
-8.5700000000000003

>  <m_primary>  (26) 
energy

$$$$
26:0
     RDKit          3D

 29 31  0  0  0  0  0  0  0  0999 V2000
   -4.0800   25.6720  -31.5950 H   0  0  0  0  0  0  0  0  0  0  0  0
   -4.5250   25.0970  -30.8450 N   0  0  0  0  0  0  0  0  0  0  0  0
   -5.0670   23.9450  -31.0880 C   0  0  0  0  0  0  0  0  0  0  0  0
   -4.2820   22.9140  -31.6060 C   0  0  0  0  0  0  0  0  0  0  0  0
   -3.2151   23.0872  -31.8102 H   0  0  0  0  0  0  0  0  0  0  0  0
   -4.8480   21.6590  -31.8670 C   0  0  0  0  0  0  0  0  0  0  0  0
   -3.9640   20.5820  -32.3720 C   0  0  0  0  0  0  0  0  0  0  0  0
   -2.7130   20.3510  -31.7770 C   0  0  0  0  0  0  0  0  0  0  0  0
   -2.3925   20.9616  -30.9200 H   0  0  0  0  0  0  0  0  0  0  0  0
   -1.8740   19.3480  -32.2700 C   0  0  0  0  0  0  0  0  0  0  0  0
   -0.8982   19.1662  -31.7960 H   0  0  0  0  0  0  0  0  0  0  0  0
   -2.2730   18.5750  -33.3650 C   0  0  0  0  0  0  0  0  0  0  0  0
   -1.6130   17.7837  -33.7501 H   0  0  0  0  0  0  0  0  0  0  0  0
   -3.5120   18.8090  -33.9700 C   0  0  0  0  0  0  0  0  0  0  0  0
   -3.8248   18.2030  -34.8331 H   0  0  0  0  0  0  0  0  0  0  0  0
   -4.3530   19.8110  -33.4800 C   0  0  0  0  0  0  0  0  0  0  0  0
   -5.3234   19.9970  -33.9635 H   0  0  0  0  0  0  0  0  0  0  0  0
   -6.2280   21.4610  -31.6240 C   0  0  0  0  0  0  0  0  0  0  0  0
   -6.8790   20.2440  -31.9190 C   0  0  0  0  0  0  0  0  0  0  0  0
   -6.3084   19.4110  -32.3555 H   0  0  0  0  0  0  0  0  0  0  0  0
   -8.2450   20.0900  -31.6600 C   0  0  0  0  0  0  0  0  0  0  0  0
   -9.0400   18.5690  -32.0260 Cl  0  0  0  0  0  0  0  0  0  0  0  0
   -8.9790   21.1450  -31.1150 C   0  0  0  0  0  0  0  0  0  0  0  0
  -10.0511   21.0162  -30.9049 H   0  0  0  0  0  0  0  0  0  0  0  0
   -8.3570   22.3620  -30.8360 C   0  0  0  0  0  0  0  0  0  0  0  0
   -8.9431   23.1912  -30.4129 H   0  0  0  0  0  0  0  0  0  0  0  0
   -6.9870   22.5350  -31.0920 C   0  0  0  0  0  0  0  0  0  0  0  0
   -6.3920   23.7360  -30.8370 N   0  0  0  0  0  0  0  0  0  0  0  0
   -6.9650   24.5180  -30.4450 H   0  0  0  0  0  0  0  0  0  0  0  0
  1  2  1  0
  2  3  2  0
  3  4  1  0
  4  5  1  0
  4  6  2  0
  6  7  1  0
  7  8  2  0
  8  9  1  0
  8 10  1  0
 10 11  1  0
 10 12  2  0
 12 13  1  0
 12 14  1  0
 14 15  1  0
 14 16  2  0
 16 17  1  0
  6 18  1  0
 18 19  2  0
 19 20  1  0
 19 21  1  0
 21 22  1  0
 21 23  2  0
 23 24  1  0
 23 25  1  0
 25 26  1  0
 25 27  2  0
 27 28  1  0
 28 29  1  0
 28  3  1  0
 16  7  1  0
 27 18  1  0
M  END
>  <UniqueID>  (27) 
27

>  <SMILES>  (27) 
[H]/N=c1/cc(-c2ccccc2)c2cc(Cl)ccc2[nH]1

>  <Energy>  (27) 
44.00399445377525

>  <Genealogy>  (27) 
[H]/N=c1/cc(-c2ccccc2)c2cc(Cl)ccc2[nH]1 (cis-trans isomerization)
[H]/N=c1/cc(-c2ccccc2)c2cc(Cl)ccc2[nH]1 (3D coordinates assigned)
[H]/N=c1/cc(-c2ccccc2)c2cc(Cl)ccc2[nH]1 (optimized conformer: 44.00399445377525 kcal/mol)

>  <smiles>  (27) 
N=c1cc(-c2ccccc2)c2cc(Cl)ccc2[nH]1

>  <score_type>  (27) 
oracle

>  <origin>  (27) 
adg

>  <m_score__min__energy>  (27) 
-7.6600000000000001

>  <m_primary>  (27) 
energy

$$$$
27:0
     RDKit          3D

 31 32  0  0  0  0  0  0  0  0999 V2000
   -6.4930   25.6920  -29.2480 C   0  0  0  0  0  0  0  0  0  0  0  0
   -5.7190   25.7290  -30.5630 C   0  0  0  0  0  0  0  0  0  0  0  0
   -5.0980   24.3930  -30.8670 C   0  0  0  0  0  0  0  0  0  0  0  0
   -3.8410   24.2940  -30.8490 O   0  0  0  0  0  0  0  0  0  0  0  0
   -5.8880   23.2570  -31.2640 N   0  0  0  0  0  0  0  0  0  0  0  0
   -7.2370   23.2430  -31.3100 C   0  0  0  0  0  0  0  0  0  0  0  0
   -7.6490   22.0040  -31.7530 C   0  0  0  0  0  0  0  0  0  0  0  0
   -9.0720   21.5860  -31.9570 C   0  0  0  0  0  0  0  0  0  0  0  0
   -6.5590   21.2480  -32.0120 N   0  0  0  0  0  0  0  0  0  0  0  0
   -6.5360   19.9100  -32.5400 C   0  0  0  0  0  0  0  0  0  0  0  0
   -6.0370   19.6610  -33.8280 C   0  0  0  0  0  0  0  0  0  0  0  0
   -6.0190   18.3600  -34.3380 C   0  0  0  0  0  0  0  0  0  0  0  0
   -6.5000   17.2970  -33.5660 C   0  0  0  0  0  0  0  0  0  0  0  0
   -6.4780   15.6650  -34.2070 Cl  0  0  0  0  0  0  0  0  0  0  0  0
   -6.9980   17.5380  -32.2810 C   0  0  0  0  0  0  0  0  0  0  0  0
   -7.0170   18.8390  -31.7690 C   0  0  0  0  0  0  0  0  0  0  0  0
   -5.4980   22.0320  -31.7030 C   0  0  0  0  0  0  0  0  0  0  0  0
   -3.9420   21.6180  -32.0390 S   0  0  0  0  0  0  0  0  0  0  0  0
   -5.7865   25.7258  -28.4056 H   0  0  0  0  0  0  0  0  0  0  0  0
   -7.1681   26.5589  -29.1954 H   0  0  0  0  0  0  0  0  0  0  0  0
   -7.0823   24.7647  -29.1954 H   0  0  0  0  0  0  0  0  0  0  0  0
   -6.4079   25.9980  -31.3773 H   0  0  0  0  0  0  0  0  0  0  0  0
   -4.9149   26.4742  -30.4728 H   0  0  0  0  0  0  0  0  0  0  0  0
   -7.8973   24.0801  -31.0393 H   0  0  0  0  0  0  0  0  0  0  0  0
   -9.5561   21.4438  -30.9795 H   0  0  0  0  0  0  0  0  0  0  0  0
   -9.6059   22.3653  -32.5207 H   0  0  0  0  0  0  0  0  0  0  0  0
   -9.0996   20.6418  -32.5207 H   0  0  0  0  0  0  0  0  0  0  0  0
   -5.6583   20.4938  -34.4388 H   0  0  0  0  0  0  0  0  0  0  0  0
   -5.6260   18.1715  -35.3480 H   0  0  0  0  0  0  0  0  0  0  0  0
   -7.3751   16.7028  -31.6726 H   0  0  0  0  0  0  0  0  0  0  0  0
   -7.4101   19.0244  -30.7585 H   0  0  0  0  0  0  0  0  0  0  0  0
  1  2  1  0
  2  3  1  0
  3  4  2  0
  3  5  1  0
  5  6  1  0
  6  7  2  0
  7  8  1  0
  7  9  1  0
  9 10  1  0
 10 11  2  0
 11 12  1  0
 12 13  2  0
 13 14  1  0
 13 15  1  0
 15 16  2  0
  9 17  1  0
 17 18  2  0
 17  5  1  0
 16 10  1  0
  1 19  1  0
  1 20  1  0
  1 21  1  0
  2 22  1  0
  2 23  1  0
  6 24  1  0
  8 25  1  0
  8 26  1  0
  8 27  1  0
 11 28  1  0
 12 29  1  0
 15 30  1  0
 16 31  1  0
M  END
>  <UniqueID>  (28) 
28

>  <SMILES>  (28) 
CCC(=O)n1cc(C)n(-c2ccc(Cl)cc2)c1=S

>  <Energy>  (28) 
71.02461429032849

>  <Genealogy>  (28) 
CCC(=O)n1cc(C)n(-c2ccc(Cl)cc2)c1=S (3D coordinates assigned)
CCC(=O)n1cc(C)n(-c2ccc(Cl)cc2)c1=S (optimized conformer: 71.02461429032849 kcal/mol)

>  <smiles>  (28) 
CCC(=O)n1cc(C)n(-c2ccc(Cl)cc2)c1=S

>  <score_type>  (28) 
oracle

>  <origin>  (28) 
adg

>  <m_score__min__energy>  (28) 
-7.9800000000000004

>  <m_primary>  (28) 
energy

$$$$
28:0
     RDKit          3D

 55 57  0  0  0  0  0  0  0  0999 V2000
    0.9180   24.1670  -27.8330 C   0  0  0  0  0  0  0  0  0  0  0  0
   -0.1140   24.7830  -28.5960 O   0  0  0  0  0  0  0  0  0  0  0  0
   -1.4850   24.6690  -28.3140 C   0  0  0  0  0  0  0  0  0  0  0  0
   -1.9140   24.9130  -27.0060 C   0  0  0  0  0  0  0  0  0  0  0  0
   -3.2650   24.8120  -26.6740 C   0  0  0  0  0  0  0  0  0  0  0  0
   -4.2040   24.4670  -27.6480 C   0  0  0  0  0  0  0  0  0  0  0  0
   -3.7990   24.2170  -28.9720 C   0  0  0  0  0  0  0  0  0  0  0  0
   -4.7820   23.8470  -30.0230 C   0  0  0  0  0  0  0  0  0  0  0  0
   -5.6780   22.7940  -29.9950 C   0  0  0  0  0  0  0  0  0  0  0  0
   -6.3880   22.8200  -31.1390 N   0  0  0  0  0  0  0  0  0  0  0  0
   -7.4330   21.9100  -31.5380 C   0  0  0  0  0  0  0  0  0  0  0  0
   -8.7710   22.3390  -31.5930 C   0  0  0  0  0  0  0  0  0  0  0  0
   -9.7840   21.4570  -31.9780 C   0  0  0  0  0  0  0  0  0  0  0  0
   -9.4750   20.1380  -32.3170 C   0  0  0  0  0  0  0  0  0  0  0  0
   -8.1450   19.6900  -32.2800 C   0  0  0  0  0  0  0  0  0  0  0  0
   -7.8060   18.2650  -32.6680 C   0  0  0  0  0  0  0  0  0  0  0  0
   -6.4880   18.1280  -33.3340 N   0  0  0  0  0  0  0  0  0  0  0  0
   -6.4600   16.9860  -34.2670 C   0  0  0  0  0  0  0  0  0  0  0  0
   -5.3720   18.0890  -32.3630 C   0  0  0  0  0  0  0  0  0  0  0  0
   -4.1530   18.8810  -32.8670 C   0  0  0  0  0  0  0  0  0  0  0  0
   -4.1360   20.2520  -32.3120 N   0  0  0  0  0  0  0  0  0  0  0  0
   -2.9300   20.4610  -31.4940 C   0  0  0  0  0  0  0  0  0  0  0  0
   -4.1810   21.2600  -33.3850 C   0  0  0  0  0  0  0  0  0  0  0  0
   -7.1320   20.5790  -31.8800 C   0  0  0  0  0  0  0  0  0  0  0  0
   -5.9130   23.8760  -31.8330 C   0  0  0  0  0  0  0  0  0  0  0  0
   -4.9290   24.5260  -31.1800 N   0  0  0  0  0  0  0  0  0  0  0  0
   -2.4330   24.3200  -29.2960 C   0  0  0  0  0  0  0  0  0  0  0  0
    0.7065   24.2932  -26.7609 H   0  0  0  0  0  0  0  0  0  0  0  0
    0.9621   23.0947  -28.0743 H   0  0  0  0  0  0  0  0  0  0  0  0
    1.8828   24.6371  -28.0743 H   0  0  0  0  0  0  0  0  0  0  0  0
   -1.1808   25.1866  -26.2330 H   0  0  0  0  0  0  0  0  0  0  0  0
   -3.5917   25.0048  -25.6415 H   0  0  0  0  0  0  0  0  0  0  0  0
   -5.2677   24.3901  -27.3784 H   0  0  0  0  0  0  0  0  0  0  0  0
   -5.7910   22.0631  -29.1808 H   0  0  0  0  0  0  0  0  0  0  0  0
   -9.0222   23.3773  -31.3308 H   0  0  0  0  0  0  0  0  0  0  0  0
  -10.8277   21.8025  -32.0142 H   0  0  0  0  0  0  0  0  0  0  0  0
  -10.2774   19.4468  -32.6144 H   0  0  0  0  0  0  0  0  0  0  0  0
   -7.8009   17.6485  -31.7570 H   0  0  0  0  0  0  0  0  0  0  0  0
   -8.5679   17.9378  -33.3908 H   0  0  0  0  0  0  0  0  0  0  0  0
   -6.4370   16.0463  -33.6957 H   0  0  0  0  0  0  0  0  0  0  0  0
   -7.3590   17.0080  -34.9006 H   0  0  0  0  0  0  0  0  0  0  0  0
   -5.5632   17.0520  -34.9006 H   0  0  0  0  0  0  0  0  0  0  0  0
   -5.7116   18.5242  -31.4115 H   0  0  0  0  0  0  0  0  0  0  0  0
   -5.0690   17.0400  -32.2300 H   0  0  0  0  0  0  0  0  0  0  0  0
   -3.2347   18.3589  -32.5603 H   0  0  0  0  0  0  0  0  0  0  0  0
   -4.2133   18.9509  -33.9631 H   0  0  0  0  0  0  0  0  0  0  0  0
   -3.1974   20.4147  -30.4280 H   0  0  0  0  0  0  0  0  0  0  0  0
   -2.1924   19.6773  -31.7214 H   0  0  0  0  0  0  0  0  0  0  0  0
   -2.4991   21.4472  -31.7214 H   0  0  0  0  0  0  0  0  0  0  0  0
   -4.2259   22.2657  -32.9417 H   0  0  0  0  0  0  0  0  0  0  0  0
   -3.2781   21.1736  -34.0073 H   0  0  0  0  0  0  0  0  0  0  0  0
   -5.0726   21.0935  -34.0073 H   0  0  0  0  0  0  0  0  0  0  0  0
   -6.0901   20.2292  -31.8338 H   0  0  0  0  0  0  0  0  0  0  0  0
   -6.2880   24.1736  -32.8234 H   0  0  0  0  0  0  0  0  0  0  0  0
   -2.1022   24.1259  -30.3270 H   0  0  0  0  0  0  0  0  0  0  0  0
  1  2  1  0
  2  3  1  0
  3  4  2  0
  4  5  1  0
  5  6  2  0
  6  7  1  0
  7  8  1  0
  8  9  2  0
  9 10  1  0
 10 11  1  0
 11 12  2  0
 12 13  1  0
 13 14  2  0
 14 15  1  0
 15 16  1  0
 16 17  1  0
 17 18  1  0
 17 19  1  0
 19 20  1  0
 20 21  1  0
 21 22  1  0
 21 23  1  0
 15 24  2  0
 10 25  1  0
 25 26  2  0
  7 27  2  0
 27  3  1  0
 26  8  1  0
 24 11  1  0
  1 28  1  0
  1 29  1  0
  1 30  1  0
  4 31  1  0
  5 32  1  0
  6 33  1  0
  9 34  1  0
 12 35  1  0
 13 36  1  0
 14 37  1  0
 16 38  1  0
 16 39  1  0
 18 40  1  0
 18 41  1  0
 18 42  1  0
 19 43  1  0
 19 44  1  0
 20 45  1  0
 20 46  1  0
 22 47  1  0
 22 48  1  0
 22 49  1  0
 23 50  1  0
 23 51  1  0
 23 52  1  0
 24 53  1  0
 25 54  1  0
 27 55  1  0
M  END
>  <UniqueID>  (29) 
29

>  <SMILES>  (29) 
COc1cccc(-c2cn(-c3cccc(CN(C)CCN(C)C)c3)cn2)c1

>  <Energy>  (29) 
93.73494442646755

>  <Genealogy>  (29) 
COc1cccc(-c2cn(-c3cccc(CN(C)CCN(C)C)c3)cn2)c1 (3D coordinates assigned)
COc1cccc(-c2cn(-c3cccc(CN(C)CCN(C)C)c3)cn2)c1 (optimized conformer: 93.73494442646755 kcal/mol)

>  <smiles>  (29) 
COc1cccc(-c2cn(-c3cccc(CN(C)CCN(C)C)c3)cn2)c1

>  <score_type>  (29) 
oracle

>  <origin>  (29) 
adg

>  <m_score__min__energy>  (29) 
-8.7100000000000009

>  <m_primary>  (29) 
energy

$$$$
29:0
     RDKit          3D

 44 45  0  0  0  0  0  0  0  0999 V2000
   -1.9790   25.6580  -26.5780 C   0  0  0  0  0  0  0  0  0  0  0  0
   -1.1850   26.1530  -27.7820 C   0  0  0  0  0  0  0  0  0  0  0  0
   -1.7590   25.6750  -28.9980 O   0  0  0  0  0  0  0  0  0  0  0  0
   -2.0460   24.3320  -29.3000 C   0  0  0  0  0  0  0  0  0  0  0  0
   -1.2510   23.2660  -28.8340 C   0  0  0  0  0  0  0  0  0  0  0  0
   -1.5790   21.9460  -29.1550 C   0  0  0  0  0  0  0  0  0  0  0  0
   -2.7050   21.6740  -29.9370 C   0  0  0  0  0  0  0  0  0  0  0  0
   -3.4950   22.7230  -30.4080 C   0  0  0  0  0  0  0  0  0  0  0  0
   -3.1680   24.0560  -30.1010 C   0  0  0  0  0  0  0  0  0  0  0  0
   -3.9510   25.1260  -30.5560 O   0  0  0  0  0  0  0  0  0  0  0  0
   -5.3680   25.2170  -30.3930 C   0  0  0  0  0  0  0  0  0  0  0  0
   -6.0680   24.4860  -31.5350 C   0  0  0  0  0  0  0  0  0  0  0  0
   -7.2310   23.7240  -31.0090 N   0  0  0  0  0  0  0  0  0  0  0  0
   -8.1910   23.4240  -32.0840 C   0  0  0  0  0  0  0  0  0  0  0  0
   -6.8200   22.4740  -30.3330 C   0  0  0  0  0  0  0  0  0  0  0  0
   -6.9230   21.3040  -31.2730 C   0  0  0  0  0  0  0  0  0  0  0  0
   -5.9090   21.0770  -32.2200 C   0  0  0  0  0  0  0  0  0  0  0  0
   -6.0160   20.0190  -33.1250 C   0  0  0  0  0  0  0  0  0  0  0  0
   -7.1340   19.1820  -33.0920 C   0  0  0  0  0  0  0  0  0  0  0  0
   -8.1470   19.3980  -32.1530 C   0  0  0  0  0  0  0  0  0  0  0  0
   -8.0450   20.4560  -31.2460 C   0  0  0  0  0  0  0  0  0  0  0  0
   -1.4750   25.9722  -25.6521 H   0  0  0  0  0  0  0  0  0  0  0  0
   -2.9925   26.0845  -26.6067 H   0  0  0  0  0  0  0  0  0  0  0  0
   -2.0422   24.5602  -26.6067 H   0  0  0  0  0  0  0  0  0  0  0  0
   -1.1888   27.2530  -27.7892 H   0  0  0  0  0  0  0  0  0  0  0  0
   -0.1550   25.7745  -27.7053 H   0  0  0  0  0  0  0  0  0  0  0  0
   -0.3667   23.4741  -28.2137 H   0  0  0  0  0  0  0  0  0  0  0  0
   -0.9501   21.1199  -28.7917 H   0  0  0  0  0  0  0  0  0  0  0  0
   -2.9680   20.6341  -30.1808 H   0  0  0  0  0  0  0  0  0  0  0  0
   -4.3801   22.5059  -31.0240 H   0  0  0  0  0  0  0  0  0  0  0  0
   -5.6556   24.7585  -29.4354 H   0  0  0  0  0  0  0  0  0  0  0  0
   -5.6673   26.2755  -30.4020 H   0  0  0  0  0  0  0  0  0  0  0  0
   -6.4173   25.2186  -32.2774 H   0  0  0  0  0  0  0  0  0  0  0  0
   -5.3605   23.7881  -32.0065 H   0  0  0  0  0  0  0  0  0  0  0  0
   -9.1529   23.1234  -31.6432 H   0  0  0  0  0  0  0  0  0  0  0  0
   -8.3366   24.3195  -32.7060 H   0  0  0  0  0  0  0  0  0  0  0  0
   -7.8008   22.6050  -32.7060 H   0  0  0  0  0  0  0  0  0  0  0  0
   -5.7789   22.5731  -29.9921 H   0  0  0  0  0  0  0  0  0  0  0  0
   -7.4866   22.2993  -29.4756 H   0  0  0  0  0  0  0  0  0  0  0  0
   -5.0281   21.7352  -32.2481 H   0  0  0  0  0  0  0  0  0  0  0  0
   -5.2200   19.8446  -33.8639 H   0  0  0  0  0  0  0  0  0  0  0  0
   -7.2175   18.3503  -33.8071 H   0  0  0  0  0  0  0  0  0  0  0  0
   -9.0244   18.7350  -32.1282 H   0  0  0  0  0  0  0  0  0  0  0  0
   -8.8439   20.6261  -30.5092 H   0  0  0  0  0  0  0  0  0  0  0  0
  1  2  1  0
  2  3  1  0
  3  4  1  0
  4  5  2  0
  5  6  1  0
  6  7  2  0
  7  8  1  0
  8  9  2  0
  9 10  1  0
 10 11  1  0
 11 12  1  0
 12 13  1  0
 13 14  1  0
 13 15  1  0
 15 16  1  0
 16 17  2  0
 17 18  1  0
 18 19  2  0
 19 20  1  0
 20 21  2  0
  9  4  1  0
 21 16  1  0
  1 22  1  0
  1 23  1  0
  1 24  1  0
  2 25  1  0
  2 26  1  0
  5 27  1  0
  6 28  1  0
  7 29  1  0
  8 30  1  0
 11 31  1  0
 11 32  1  0
 12 33  1  0
 12 34  1  0
 14 35  1  0
 14 36  1  0
 14 37  1  0
 15 38  1  0
 15 39  1  0
 17 40  1  0
 18 41  1  0
 19 42  1  0
 20 43  1  0
 21 44  1  0
M  END
>  <UniqueID>  (30) 
30

>  <SMILES>  (30) 
CCOc1ccccc1OCCN(C)Cc1ccccc1

>  <Energy>  (30) 
45.69252712109795

>  <Genealogy>  (30) 
CCOc1ccccc1OCCN(C)Cc1ccccc1 (3D coordinates assigned)
CCOc1ccccc1OCCN(C)Cc1ccccc1 (optimized conformer: 45.69252712109795 kcal/mol)

>  <smiles>  (30) 
CCOc1ccccc1OCCN(C)Cc1ccccc1

>  <score_type>  (30) 
oracle

>  <origin>  (30) 
adg

>  <m_score__min__energy>  (30) 
-8.4100000000000001

>  <m_primary>  (30) 
energy

$$$$
30:0
     RDKit          3D

 45 45  0  0  0  0  0  0  0  0999 V2000
   -5.7280   18.4930  -34.3600 C   0  0  0  0  0  0  0  0  0  0  0  0
   -6.3340   18.4080  -32.9510 C   0  0  0  0  0  0  0  0  0  0  0  0
   -6.6280   19.7100  -32.2880 N   0  0  0  0  0  0  0  0  0  0  0  0
   -7.9630   19.7550  -31.6310 C   0  0  0  0  0  0  0  0  0  0  0  0
   -9.1630   19.6760  -32.5810 C   0  0  0  0  0  0  0  0  0  0  0  0
   -6.3460   20.9390  -33.0840 C   0  0  0  0  0  0  0  0  0  0  0  0
   -5.5950   22.0280  -32.3040 C   0  0  0  0  0  0  0  0  0  0  0  0
   -4.1750   22.0930  -32.3650 C   0  0  0  0  0  0  0  0  0  0  0  0
   -3.4120   21.2420  -33.2400 N   0  0  0  0  0  0  0  0  0  0  0  0
   -2.9640   19.9200  -32.8170 C   0  0  0  0  0  0  0  0  0  0  0  0
   -3.4850   23.0280  -31.5880 C   0  0  0  0  0  0  0  0  0  0  0  0
   -4.1600   23.9230  -30.7520 C   0  0  0  0  0  0  0  0  0  0  0  0
   -3.4610   24.8410  -29.9460 O   0  0  0  0  0  0  0  0  0  0  0  0
   -2.9000   24.5430  -28.6710 C   0  0  0  0  0  0  0  0  0  0  0  0
   -5.5660   23.9220  -30.7260 C   0  0  0  0  0  0  0  0  0  0  0  0
   -6.2810   24.9180  -29.8400 C   0  0  0  0  0  0  0  0  0  0  0  0
   -6.2910   23.0450  -31.5790 C   0  0  0  0  0  0  0  0  0  0  0  0
   -7.7900   23.2370  -31.7120 C   0  0  0  0  0  0  0  0  0  0  0  0
   -4.6413   18.6454  -34.2832 H   0  0  0  0  0  0  0  0  0  0  0  0
   -5.9296   17.5578  -34.9029 H   0  0  0  0  0  0  0  0  0  0  0  0
   -6.1791   19.3367  -34.9029 H   0  0  0  0  0  0  0  0  0  0  0  0
   -7.2770   17.8463  -33.0233 H   0  0  0  0  0  0  0  0  0  0  0  0
   -5.5687   17.9230  -32.3272 H   0  0  0  0  0  0  0  0  0  0  0  0
   -5.9770   19.7320  -31.4740 H   0  0  0  0  0  0  0  0  0  0  0  0
   -8.0265   18.9081  -30.9320 H   0  0  0  0  0  0  0  0  0  0  0  0
   -8.0276   20.7372  -31.1400 H   0  0  0  0  0  0  0  0  0  0  0  0
  -10.0916   19.6149  -31.9945 H   0  0  0  0  0  0  0  0  0  0  0  0
   -9.1884   20.5744  -33.2152 H   0  0  0  0  0  0  0  0  0  0  0  0
   -9.0704   18.7820  -33.2152 H   0  0  0  0  0  0  0  0  0  0  0  0
   -5.7374   20.6551  -33.9552 H   0  0  0  0  0  0  0  0  0  0  0  0
   -7.3194   21.3647  -33.3689 H   0  0  0  0  0  0  0  0  0  0  0  0
   -3.1170   21.5720  -34.1840 H   0  0  0  0  0  0  0  0  0  0  0  0
   -2.9479   19.8725  -31.7181 H   0  0  0  0  0  0  0  0  0  0  0  0
   -3.6537   19.1570  -33.2069 H   0  0  0  0  0  0  0  0  0  0  0  0
   -1.9525   19.7335  -33.2069 H   0  0  0  0  0  0  0  0  0  0  0  0
   -2.3865   23.0605  -31.6352 H   0  0  0  0  0  0  0  0  0  0  0  0
   -3.5754   24.9018  -27.8803 H   0  0  0  0  0  0  0  0  0  0  0  0
   -2.7670   23.4554  -28.5740 H   0  0  0  0  0  0  0  0  0  0  0  0
   -1.9244   25.0417  -28.5740 H   0  0  0  0  0  0  0  0  0  0  0  0
   -6.1001   24.6660  -28.7847 H   0  0  0  0  0  0  0  0  0  0  0  0
   -5.9018   25.9299  -30.0455 H   0  0  0  0  0  0  0  0  0  0  0  0
   -7.3610   24.8824  -30.0455 H   0  0  0  0  0  0  0  0  0  0  0  0
   -8.2425   23.2950  -30.7110 H   0  0  0  0  0  0  0  0  0  0  0  0
   -7.9931   24.1685  -32.2607 H   0  0  0  0  0  0  0  0  0  0  0  0
   -8.2213   22.3868  -32.2607 H   0  0  0  0  0  0  0  0  0  0  0  0
  1  2  1  0
  2  3  1  0
  3  4  1  0
  4  5  1  0
  3  6  1  0
  6  7  1  0
  7  8  2  0
  8  9  1  0
  9 10  1  0
  8 11  1  0
 11 12  2  0
 12 13  1  0
 13 14  1  0
 12 15  1  0
 15 16  1  0
 15 17  2  0
 17 18  1  0
 17  7  1  0
  1 19  1  0
  1 20  1  0
  1 21  1  0
  2 22  1  0
  2 23  1  0
  3 24  1  0
  4 25  1  0
  4 26  1  0
  5 27  1  0
  5 28  1  0
  5 29  1  0
  6 30  1  0
  6 31  1  0
  9 32  1  0
 10 33  1  0
 10 34  1  0
 10 35  1  0
 11 36  1  0
 14 37  1  0
 14 38  1  0
 14 39  1  0
 16 40  1  0
 16 41  1  0
 16 42  1  0
 18 43  1  0
 18 44  1  0
 18 45  1  0
M  CHG  1   3   1
M  END
>  <UniqueID>  (31) 
31

>  <SMILES>  (31) 
CC[NH+](CC)Cc1c(NC)cc(OC)c(C)c1C

>  <Energy>  (31) 
64.02979885021567

>  <Genealogy>  (31) 
CC[NH+](CC)Cc1c(NC)cc(OC)c(C)c1C (protonated)
CC[NH+](CC)Cc1c(NC)cc(OC)c(C)c1C (3D coordinates assigned)
CC[NH+](CC)Cc1c(NC)cc(OC)c(C)c1C (optimized conformer: 64.02979885021567 kcal/mol)

>  <smiles>  (31) 
CCN(CC)Cc1c(NC)cc(OC)c(C)c1C

>  <score_type>  (31) 
oracle

>  <origin>  (31) 
adg

>  <m_score__min__energy>  (31) 
-6.0199999999999996

>  <m_primary>  (31) 
energy

$$$$
31:0
     RDKit          3D

 28 29  0  0  0  0  0  0  0  0999 V2000
   -3.7710   24.8770  -26.4370 C   0  0  0  0  0  0  0  0  0  0  0  0
   -2.0360   24.3310  -26.4230 S   0  0  0  0  0  0  0  0  0  0  0  0
   -2.3230   22.9830  -27.5810 C   0  0  0  0  0  0  0  0  0  0  0  0
   -2.3300   21.6710  -27.0930 C   0  0  0  0  0  0  0  0  0  0  0  0
   -2.4680   20.5960  -27.9690 C   0  0  0  0  0  0  0  0  0  0  0  0
   -2.5920   20.8420  -29.3360 C   0  0  0  0  0  0  0  0  0  0  0  0
   -2.5970   22.1190  -29.7990 N   0  0  0  0  0  0  0  0  0  0  0  0
   -2.4850   23.1930  -28.9700 C   0  0  0  0  0  0  0  0  0  0  0  0
   -2.5180   24.5420  -29.5700 C   0  0  0  0  0  0  0  0  0  0  0  0
   -1.6020   25.3570  -29.2830 O   0  0  0  0  0  0  0  0  0  0  0  0
   -3.5590   24.9620  -30.4640 N   0  0  0  0  0  0  0  0  0  0  0  0
   -4.8270   24.3170  -30.6560 C   0  0  0  0  0  0  0  0  0  0  0  0
   -5.9450   24.8080  -29.9690 C   0  0  0  0  0  0  0  0  0  0  0  0
   -7.1980   24.2080  -30.1360 C   0  0  0  0  0  0  0  0  0  0  0  0
   -7.3440   23.1240  -31.0050 C   0  0  0  0  0  0  0  0  0  0  0  0
   -6.2410   22.6430  -31.7150 C   0  0  0  0  0  0  0  0  0  0  0  0
   -6.3870   21.6030  -32.5720 F   0  0  0  0  0  0  0  0  0  0  0  0
   -4.9870   23.2420  -31.5500 C   0  0  0  0  0  0  0  0  0  0  0  0
   -4.1284   24.9895  -25.4028 H   0  0  0  0  0  0  0  0  0  0  0  0
   -3.8473   25.8426  -26.9584 H   0  0  0  0  0  0  0  0  0  0  0  0
   -4.3866   24.1291  -26.9584 H   0  0  0  0  0  0  0  0  0  0  0  0
   -2.2261   21.4878  -26.0134 H   0  0  0  0  0  0  0  0  0  0  0  0
   -2.4790   19.5648  -27.5863 H   0  0  0  0  0  0  0  0  0  0  0  0
   -2.6858   20.0017  -30.0396 H   0  0  0  0  0  0  0  0  0  0  0  0
   -5.8371   25.6702  -29.2944 H   0  0  0  0  0  0  0  0  0  0  0  0
   -8.0686   24.5901  -29.5827 H   0  0  0  0  0  0  0  0  0  0  0  0
   -8.3281   22.6488  -31.1304 H   0  0  0  0  0  0  0  0  0  0  0  0
   -4.1232   22.8712  -32.1212 H   0  0  0  0  0  0  0  0  0  0  0  0
  1  2  1  0
  2  3  1  0
  3  4  2  0
  4  5  1  0
  5  6  2  0
  6  7  1  0
  7  8  2  0
  8  9  1  0
  9 10  2  0
  9 11  1  0
 11 12  1  0
 12 13  2  0
 13 14  1  0
 14 15  2  0
 15 16  1  0
 16 17  1  0
 16 18  2  0
  8  3  1  0
 18 12  1  0
  1 19  1  0
  1 20  1  0
  1 21  1  0
  4 22  1  0
  5 23  1  0
  6 24  1  0
 13 25  1  0
 14 26  1  0
 15 27  1  0
 18 28  1  0
M  CHG  1  11  -1
M  END
>  <UniqueID>  (32) 
32

>  <SMILES>  (32) 
CSc1cccnc1C(=O)[N-]c1cccc(F)c1

>  <Energy>  (32) 
34.24040296786961

>  <Genealogy>  (32) 
CSc1cccnc1C(=O)[N-]c1cccc(F)c1 (protonated)
CSc1cccnc1C(=O)[N-]c1cccc(F)c1 (3D coordinates assigned)
CSc1cccnc1C(=O)[N-]c1cccc(F)c1 (optimized conformer: 34.24040296786961 kcal/mol)

>  <smiles>  (32) 
CSc1cccnc1C(=O)Nc1cccc(F)c1

>  <score_type>  (32) 
oracle

>  <origin>  (32) 
adg

>  <m_score__min__energy>  (32) 
-7.6299999999999999

>  <m_primary>  (32) 
energy

$$$$
32:0
     RDKit          3D

 40 42  0  0  0  0  0  0  0  0999 V2000
   -6.8590   15.6670  -34.2690 F   0  0  0  0  0  0  0  0  0  0  0  0
   -5.7120   16.3270  -33.8700 C   0  0  0  0  0  0  0  0  0  0  0  0
   -5.1100   15.6110  -32.8510 F   0  0  0  0  0  0  0  0  0  0  0  0
   -4.8320   16.3840  -34.9370 F   0  0  0  0  0  0  0  0  0  0  0  0
   -6.0750   17.7150  -33.4040 C   0  0  0  0  0  0  0  0  0  0  0  0
   -7.0550   17.9000  -32.4160 C   0  0  0  0  0  0  0  0  0  0  0  0
   -7.3620   19.1830  -31.9520 C   0  0  0  0  0  0  0  0  0  0  0  0
   -6.6790   20.3050  -32.4530 C   0  0  0  0  0  0  0  0  0  0  0  0
   -7.0010   21.6770  -31.9970 C   0  0  0  0  0  0  0  0  0  0  0  0
   -8.2480   22.2860  -31.9840 C   0  0  0  0  0  0  0  0  0  0  0  0
   -8.0410   23.5640  -31.5130 C   0  0  0  0  0  0  0  0  0  0  0  0
   -6.6860   23.6570  -31.2680 C   0  0  0  0  0  0  0  0  0  0  0  0
   -5.9610   24.8820  -30.8090 C   0  0  0  0  0  0  0  0  0  0  0  0
   -4.5270   24.7720  -31.1250 N   0  0  0  0  0  0  0  0  0  0  0  0
   -3.6900   24.6330  -29.9210 C   0  0  0  0  0  0  0  0  0  0  0  0
   -3.4350   23.1830  -29.5910 C   0  0  0  0  0  0  0  0  0  0  0  0
   -3.2180   22.2470  -30.6130 C   0  0  0  0  0  0  0  0  0  0  0  0
   -2.9440   20.9180  -30.2800 C   0  0  0  0  0  0  0  0  0  0  0  0
   -2.8870   20.5350  -28.9760 N   0  0  0  0  0  0  0  0  0  0  0  0
   -3.1060   21.4220  -27.9670 C   0  0  0  0  0  0  0  0  0  0  0  0
   -3.3900   22.7590  -28.2550 C   0  0  0  0  0  0  0  0  0  0  0  0
   -6.0960   22.5220  -31.5560 O   0  0  0  0  0  0  0  0  0  0  0  0
   -5.6780   20.1150  -33.4200 C   0  0  0  0  0  0  0  0  0  0  0  0
   -5.3730   18.8330  -33.8850 C   0  0  0  0  0  0  0  0  0  0  0  0
   -7.5855   17.0291  -32.0036 H   0  0  0  0  0  0  0  0  0  0  0  0
   -8.1436   19.3153  -31.1894 H   0  0  0  0  0  0  0  0  0  0  0  0
   -9.2062   21.8394  -32.2878 H   0  0  0  0  0  0  0  0  0  0  0  0
   -8.7984   24.3475  -31.3633 H   0  0  0  0  0  0  0  0  0  0  0  0
   -6.3786   25.7635  -31.3175 H   0  0  0  0  0  0  0  0  0  0  0  0
   -6.0821   24.9843  -29.7205 H   0  0  0  0  0  0  0  0  0  0  0  0
   -4.2400   25.6610  -31.5950 H   0  0  0  0  0  0  0  0  0  0  0  0
   -2.7268   25.1350  -30.0950 H   0  0  0  0  0  0  0  0  0  0  0  0
   -4.2225   25.0917  -29.0748 H   0  0  0  0  0  0  0  0  0  0  0  0
   -3.2632   22.5566  -31.6676 H   0  0  0  0  0  0  0  0  0  0  0  0
   -2.7736   20.1781  -31.0759 H   0  0  0  0  0  0  0  0  0  0  0  0
   -2.6700   19.5410  -28.7430 H   0  0  0  0  0  0  0  0  0  0  0  0
   -3.0592   21.0847  -26.9210 H   0  0  0  0  0  0  0  0  0  0  0  0
   -3.5769   23.4738  -27.4401 H   0  0  0  0  0  0  0  0  0  0  0  0
   -5.1294   20.9829  -33.8147 H   0  0  0  0  0  0  0  0  0  0  0  0
   -4.5777   18.6982  -34.6329 H   0  0  0  0  0  0  0  0  0  0  0  0
  1  2  1  0
  2  3  1  0
  2  4  1  0
  2  5  1  0
  5  6  2  0
  6  7  1  0
  7  8  2  0
  8  9  1  0
  9 10  2  0
 10 11  1  0
 11 12  2  0
 12 13  1  0
 13 14  1  0
 14 15  1  0
 15 16  1  0
 16 17  2  0
 17 18  1  0
 18 19  2  0
 19 20  1  0
 20 21  2  0
 12 22  1  0
  8 23  1  0
 23 24  2  0
 24  5  1  0
 22  9  1  0
 21 16  1  0
  6 25  1  0
  7 26  1  0
 10 27  1  0
 11 28  1  0
 13 29  1  0
 13 30  1  0
 14 31  1  0
 15 32  1  0
 15 33  1  0
 17 34  1  0
 18 35  1  0
 19 36  1  0
 20 37  1  0
 21 38  1  0
 23 39  1  0
 24 40  1  0
M  CHG  1  19   1
M  END
>  <UniqueID>  (33) 
33

>  <SMILES>  (33) 
FC(F)(F)c1ccc(-c2ccc(CNCc3cc[nH+]cc3)o2)cc1

>  <Energy>  (33) 
65.21633943029697

>  <Genealogy>  (33) 
FC(F)(F)c1ccc(-c2ccc(CNCc3cc[nH+]cc3)o2)cc1 (protonated)
FC(F)(F)c1ccc(-c2ccc(CNCc3cc[nH+]cc3)o2)cc1 (3D coordinates assigned)
FC(F)(F)c1ccc(-c2ccc(CNCc3cc[nH+]cc3)o2)cc1 (optimized conformer: 65.21633943029697 kcal/mol)

>  <smiles>  (33) 
FC(F)(F)c1ccc(-c2ccc(CNCc3ccncc3)o2)cc1

>  <score_type>  (33) 
oracle

>  <origin>  (33) 
adg

>  <m_score__min__energy>  (33) 
-7.3200000000000003

>  <m_primary>  (33) 
energy

$$$$
33:0
     RDKit          3D

 53 56  0  0  0  0  0  0  0  0999 V2000
   -5.3440   23.0770  -31.8300 C   0  0  0  0  0  0  0  0  0  0  0  0
   -4.1330   22.8860  -30.9550 C   0  0  0  0  0  0  0  0  0  0  0  0
   -3.7110   23.9470  -30.1350 C   0  0  0  0  0  0  0  0  0  0  0  0
   -2.6030   23.8050  -29.2810 C   0  0  0  0  0  0  0  0  0  0  0  0
   -2.1740   24.9260  -28.4140 C   0  0  0  0  0  0  0  0  0  0  0  0
   -1.4400   26.0230  -28.9560 N   0  0  0  0  0  0  0  0  0  0  0  0
   -2.4550   24.9250  -27.1850 O   0  0  0  0  0  0  0  0  0  0  0  0
   -1.9130   22.5820  -29.2620 C   0  0  0  0  0  0  0  0  0  0  0  0
   -2.3120   21.5300  -30.0880 C   0  0  0  0  0  0  0  0  0  0  0  0
   -3.4030   21.6760  -30.9530 C   0  0  0  0  0  0  0  0  0  0  0  0
   -3.7670   20.5810  -31.8070 N   0  0  0  0  0  0  0  0  0  0  0  0
   -4.9850   19.9990  -31.8860 C   0  0  0  0  0  0  0  0  0  0  0  0
   -4.9670   18.9240  -32.7860 C   0  0  0  0  0  0  0  0  0  0  0  0
   -6.1440   18.0150  -33.1500 C   0  0  0  0  0  0  0  0  0  0  0  0
   -6.1310   17.6670  -34.6570 C   0  0  0  0  0  0  0  0  0  0  0  0
   -7.4750   18.7310  -32.8430 C   0  0  0  0  0  0  0  0  0  0  0  0
   -6.0530   16.6950  -32.3600 C   0  0  0  0  0  0  0  0  0  0  0  0
   -3.6480   18.8690  -33.2460 C   0  0  0  0  0  0  0  0  0  0  0  0
   -2.9840   18.0140  -34.1290 C   0  0  0  0  0  0  0  0  0  0  0  0
   -1.6030   18.2200  -34.3510 C   0  0  0  0  0  0  0  0  0  0  0  0
   -0.8480   17.3410  -35.2790 C   0  0  0  0  0  0  0  0  0  0  0  0
   -1.3940   16.1250  -35.7240 C   0  0  0  0  0  0  0  0  0  0  0  0
   -0.6720   15.3090  -36.5960 C   0  0  0  0  0  0  0  0  0  0  0  0
    0.5930   15.7130  -37.0220 C   0  0  0  0  0  0  0  0  0  0  0  0
    1.1160   16.8910  -36.5880 N   0  0  0  0  0  0  0  0  0  0  0  0
    0.4320   17.7030  -35.7360 C   0  0  0  0  0  0  0  0  0  0  0  0
   -0.9490   19.2760  -33.6650 C   0  0  0  0  0  0  0  0  0  0  0  0
   -1.6400   20.0840  -32.8100 N   0  0  0  0  0  0  0  0  0  0  0  0
   -2.9670   19.8800  -32.6240 C   0  0  0  0  0  0  0  0  0  0  0  0
   -6.2339   23.2174  -31.1989 H   0  0  0  0  0  0  0  0  0  0  0  0
   -5.2013   23.9637  -32.4651 H   0  0  0  0  0  0  0  0  0  0  0  0
   -5.4812   22.1894  -32.4651 H   0  0  0  0  0  0  0  0  0  0  0  0
   -4.2556   24.9024  -30.1618 H   0  0  0  0  0  0  0  0  0  0  0  0
   -1.1860   26.0530  -29.9680 H   0  0  0  0  0  0  0  0  0  0  0  0
   -1.0512   22.4521  -28.5908 H   0  0  0  0  0  0  0  0  0  0  0  0
   -1.7638   20.5768  -30.0590 H   0  0  0  0  0  0  0  0  0  0  0  0
   -5.8704   20.3249  -31.3205 H   0  0  0  0  0  0  0  0  0  0  0  0
   -6.0902   16.5747  -34.7807 H   0  0  0  0  0  0  0  0  0  0  0  0
   -7.0443   18.0559  -35.1310 H   0  0  0  0  0  0  0  0  0  0  0  0
   -5.2493   18.1229  -35.1310 H   0  0  0  0  0  0  0  0  0  0  0  0
   -7.6096   18.8034  -31.7537 H   0  0  0  0  0  0  0  0  0  0  0  0
   -7.4569   19.7411  -33.2782 H   0  0  0  0  0  0  0  0  0  0  0  0
   -8.3078   18.1592  -33.2782 H   0  0  0  0  0  0  0  0  0  0  0  0
   -6.0679   16.9113  -31.2816 H   0  0  0  0  0  0  0  0  0  0  0  0
   -6.9091   16.0540  -32.6173 H   0  0  0  0  0  0  0  0  0  0  0  0
   -5.1170   16.1775  -32.6173 H   0  0  0  0  0  0  0  0  0  0  0  0
   -3.5220   17.2011  -34.6386 H   0  0  0  0  0  0  0  0  0  0  0  0
   -2.3933   15.8155  -35.3840 H   0  0  0  0  0  0  0  0  0  0  0  0
   -1.0968   14.3559  -36.9441 H   0  0  0  0  0  0  0  0  0  0  0  0
    1.1691   15.0774  -37.7106 H   0  0  0  0  0  0  0  0  0  0  0  0
    2.0630   17.1810  -36.9180 H   0  0  0  0  0  0  0  0  0  0  0  0
    0.8836   18.6490  -35.4026 H   0  0  0  0  0  0  0  0  0  0  0  0
    0.1262   19.4449  -33.8242 H   0  0  0  0  0  0  0  0  0  0  0  0
  1  2  1  0
  2  3  2  0
  3  4  1  0
  4  5  1  0
  5  6  1  0
  5  7  2  0
  4  8  2  0
  8  9  1  0
  9 10  2  0
 10 11  1  0
 11 12  1  0
 12 13  2  0
 13 14  1  0
 14 15  1  0
 14 16  1  0
 14 17  1  0
 13 18  1  0
 18 19  2  0
 19 20  1  0
 20 21  1  0
 21 22  2  0
 22 23  1  0
 23 24  2  0
 24 25  1  0
 25 26  2  0
 20 27  2  0
 27 28  1  0
 28 29  2  0
 10  2  1  0
 29 11  1  0
 29 18  1  0
 26 21  1  0
  1 30  1  0
  1 31  1  0
  1 32  1  0
  3 33  1  0
  6 34  1  0
  8 35  1  0
  9 36  1  0
 12 37  1  0
 15 38  1  0
 15 39  1  0
 15 40  1  0
 16 41  1  0
 16 42  1  0
 16 43  1  0
 17 44  1  0
 17 45  1  0
 17 46  1  0
 19 47  1  0
 22 48  1  0
 23 49  1  0
 24 50  1  0
 25 51  1  0
 26 52  1  0
 27 53  1  0
M  CHG  2   6  -1  25   1
M  END
>  <UniqueID>  (34) 
34

>  <SMILES>  (34) 
Cc1cc(C([NH-])=O)ccc1-n1cc(C(C)(C)C)c2cc(-c3ccc[nH+]c3)cnc21

>  <Energy>  (34) 
102.78116538432697

>  <Genealogy>  (34) 
Cc1cc(C([NH-])=O)ccc1-n1cc(C(C)(C)C)c2cc(-c3ccc[nH+]c3)cnc21 (protonated)
Cc1cc(C([NH-])=O)ccc1-n1cc(C(C)(C)C)c2cc(-c3ccc[nH+]c3)cnc21 (3D coordinates assigned)
Cc1cc(C([NH-])=O)ccc1-n1cc(C(C)(C)C)c2cc(-c3ccc[nH+]c3)cnc21 (optimized conformer: 102.78116538432697 kcal/mol)

>  <smiles>  (34) 
Cc1cc(C(N)=O)ccc1-n1cc(C(C)(C)C)c2cc(-c3cccnc3)cnc21

>  <score_type>  (34) 
oracle

>  <origin>  (34) 
adg

>  <m_score__min__energy>  (34) 
-10.550000000000001

>  <m_primary>  (34) 
energy

$$$$
34:0
     RDKit          3D

 31 33  0  0  0  0  0  0  0  0999 V2000
   -1.3360   24.3400  -28.9340 C   0  0  0  0  0  0  0  0  0  0  0  0
   -2.8240   24.3830  -28.9690 C   0  0  0  0  0  0  0  0  0  0  0  0
   -3.6170   23.9540  -27.9660 N   0  0  0  0  0  0  0  0  0  0  0  0
   -4.8520   24.1870  -28.3710 N   0  0  0  0  0  0  0  0  0  0  0  0
   -4.7790   24.7460  -29.5920 C   0  0  0  0  0  0  0  0  0  0  0  0
   -5.9580   25.1790  -30.4030 C   0  0  0  0  0  0  0  0  0  0  0  0
   -5.8750   24.6530  -31.7270 O   0  0  0  0  0  0  0  0  0  0  0  0
   -5.7830   23.2890  -32.0530 C   0  0  0  0  0  0  0  0  0  0  0  0
   -4.5590   22.6650  -32.3650 C   0  0  0  0  0  0  0  0  0  0  0  0
   -4.5200   21.3060  -32.6860 C   0  0  0  0  0  0  0  0  0  0  0  0
   -5.6990   20.5470  -32.6990 C   0  0  0  0  0  0  0  0  0  0  0  0
   -5.6690   19.1820  -33.0210 C   0  0  0  0  0  0  0  0  0  0  0  0
   -6.8530   18.4360  -33.0300 C   0  0  0  0  0  0  0  0  0  0  0  0
   -6.8070   16.5780  -33.4690 Br  0  0  0  0  0  0  0  0  0  0  0  0
   -8.0710   19.0500  -32.7170 C   0  0  0  0  0  0  0  0  0  0  0  0
   -8.1120   20.4100  -32.3950 C   0  0  0  0  0  0  0  0  0  0  0  0
   -6.9310   21.1670  -32.3830 C   0  0  0  0  0  0  0  0  0  0  0  0
   -6.9610   22.5320  -32.0620 C   0  0  0  0  0  0  0  0  0  0  0  0
   -3.5290   24.8770  -29.9640 O   0  0  0  0  0  0  0  0  0  0  0  0
   -0.9940   24.3301  -27.8886 H   0  0  0  0  0  0  0  0  0  0  0  0
   -0.9833   23.4313  -29.4438 H   0  0  0  0  0  0  0  0  0  0  0  0
   -0.9315   25.2268  -29.4438 H   0  0  0  0  0  0  0  0  0  0  0  0
   -5.7140   23.9680  -27.8230 H   0  0  0  0  0  0  0  0  0  0  0  0
   -6.8793   24.8139  -29.9257 H   0  0  0  0  0  0  0  0  0  0  0  0
   -5.9682   26.2776  -30.4569 H   0  0  0  0  0  0  0  0  0  0  0  0
   -3.6284   23.2515  -32.3558 H   0  0  0  0  0  0  0  0  0  0  0  0
   -3.5594   20.8288  -32.9298 H   0  0  0  0  0  0  0  0  0  0  0  0
   -4.7128   18.6970  -33.2669 H   0  0  0  0  0  0  0  0  0  0  0  0
   -8.9996   18.4604  -32.7243 H   0  0  0  0  0  0  0  0  0  0  0  0
   -9.0724   20.8874  -32.1506 H   0  0  0  0  0  0  0  0  0  0  0  0
   -7.9192   23.0125  -31.8149 H   0  0  0  0  0  0  0  0  0  0  0  0
  1  2  1  0
  2  3  2  0
  3  4  1  0
  4  5  2  0
  5  6  1  0
  6  7  1  0
  7  8  1  0
  8  9  2  0
  9 10  1  0
 10 11  2  0
 11 12  1  0
 12 13  2  0
 13 14  1  0
 13 15  1  0
 15 16  2  0
 16 17  1  0
 17 18  2  0
  5 19  1  0
 19  2  1  0
 18  8  1  0
 17 11  1  0
  1 20  1  0
  1 21  1  0
  1 22  1  0
  4 23  1  0
  6 24  1  0
  6 25  1  0
  9 26  1  0
 10 27  1  0
 12 28  1  0
 15 29  1  0
 16 30  1  0
 18 31  1  0
M  CHG  1   4   1
M  END
>  <UniqueID>  (35) 
35

>  <SMILES>  (35) 
Cc1n[nH+]c(COc2ccc3cc(Br)ccc3c2)o1

>  <Energy>  (35) 
68.95758212421225

>  <Genealogy>  (35) 
Cc1n[nH+]c(COc2ccc3cc(Br)ccc3c2)o1 (protonated)
Cc1n[nH+]c(COc2ccc3cc(Br)ccc3c2)o1 (3D coordinates assigned)
Cc1n[nH+]c(COc2ccc3cc(Br)ccc3c2)o1 (optimized conformer: 68.95758212421225 kcal/mol)

>  <smiles>  (35) 
Cc1nnc(COc2ccc3cc(Br)ccc3c2)o1

>  <score_type>  (35) 
oracle

>  <origin>  (35) 
adg

>  <m_score__min__energy>  (35) 
-7.6500000000000004

>  <m_primary>  (35) 
energy

$$$$
35:0
     RDKit          3D

 42 45  0  0  0  0  0  0  0  0999 V2000
   -1.7544   19.2393  -29.7218 H   0  0  0  0  0  0  0  0  0  0  0  0
   -1.9440   20.3200  -29.6440 C   0  0  0  0  0  0  0  0  0  0  0  0
   -2.7480   20.8160  -28.6140 C   0  0  0  0  0  0  0  0  0  0  0  0
   -3.1919   20.1248  -27.8825 H   0  0  0  0  0  0  0  0  0  0  0  0
   -2.9890   22.1900  -28.5120 C   0  0  0  0  0  0  0  0  0  0  0  0
   -3.6310   22.5756  -27.7063 H   0  0  0  0  0  0  0  0  0  0  0  0
   -2.4140   23.0790  -29.4350 C   0  0  0  0  0  0  0  0  0  0  0  0
   -2.7000   24.5490  -29.3490 C   0  0  0  0  0  0  0  0  0  0  0  0
   -1.7544   25.1097  -29.3879 H   0  0  0  0  0  0  0  0  0  0  0  0
   -3.2166   24.7680  -28.4029 H   0  0  0  0  0  0  0  0  0  0  0  0
   -3.5480   24.9450  -30.4710 N   0  0  0  0  0  0  0  0  0  0  0  0
   -4.7230   24.4410  -30.7020 C   0  0  0  0  0  0  0  0  0  0  0  0
   -4.8560   23.2790  -31.4190 N   0  0  0  0  0  0  0  0  0  0  0  0
   -6.0980   22.7960  -31.6570 C   0  0  0  0  0  0  0  0  0  0  0  0
   -7.2160   23.3960  -31.1850 C   0  0  0  0  0  0  0  0  0  0  0  0
   -7.1580   24.5670  -30.4430 C   0  0  0  0  0  0  0  0  0  0  0  0
   -8.0678   25.0528  -30.0605 H   0  0  0  0  0  0  0  0  0  0  0  0
   -5.8770   25.1040  -30.2030 C   0  0  0  0  0  0  0  0  0  0  0  0
   -5.7704   26.0365  -29.6293 H   0  0  0  0  0  0  0  0  0  0  0  0
   -8.2660   22.6320  -31.5240 N   0  0  0  0  0  0  0  0  0  0  0  0
   -9.2730   22.7950  -31.3030 H   0  0  0  0  0  0  0  0  0  0  0  0
   -7.7830   21.5830  -32.1870 N   0  0  0  0  0  0  0  0  0  0  0  0
   -6.4570   21.6620  -32.2880 N   0  0  0  0  0  0  0  0  0  0  0  0
   -5.6250   20.6680  -32.9200 C   0  0  0  0  0  0  0  0  0  0  0  0
   -4.2280   20.7970  -32.8730 C   0  0  0  0  0  0  0  0  0  0  0  0
   -3.7759   21.6524  -32.3497 H   0  0  0  0  0  0  0  0  0  0  0  0
   -3.4080   19.8470  -33.4860 C   0  0  0  0  0  0  0  0  0  0  0  0
   -2.3144   19.9593  -33.4468 H   0  0  0  0  0  0  0  0  0  0  0  0
   -3.9720   18.7560  -34.1480 C   0  0  0  0  0  0  0  0  0  0  0  0
   -3.3203   18.0153  -34.6345 H   0  0  0  0  0  0  0  0  0  0  0  0
   -5.3620   18.5980  -34.1970 C   0  0  0  0  0  0  0  0  0  0  0  0
   -5.8810   17.4830  -34.8730 O   0  0  0  0  0  0  0  0  0  0  0  0
   -6.4810   16.3610  -34.2320 C   0  0  0  0  0  0  0  0  0  0  0  0
   -6.4154   16.4837  -33.1408 H   0  0  0  0  0  0  0  0  0  0  0  0
   -7.5374   16.2900  -34.5301 H   0  0  0  0  0  0  0  0  0  0  0  0
   -5.9534   15.4430  -34.5301 H   0  0  0  0  0  0  0  0  0  0  0  0
   -6.1870   19.5530  -33.5720 C   0  0  0  0  0  0  0  0  0  0  0  0
   -7.2796   19.4272  -33.5932 H   0  0  0  0  0  0  0  0  0  0  0  0
   -1.6190   22.5720  -30.4770 C   0  0  0  0  0  0  0  0  0  0  0  0
   -1.1826   23.2583  -31.2177 H   0  0  0  0  0  0  0  0  0  0  0  0
   -1.3810   21.1970  -30.5750 C   0  0  0  0  0  0  0  0  0  0  0  0
   -0.7496   20.8055  -31.3862 H   0  0  0  0  0  0  0  0  0  0  0  0
  1  2  1  0
  2  3  2  0
  3  4  1  0
  3  5  1  0
  5  6  1  0
  5  7  2  0
  7  8  1  0
  8  9  1  0
  8 10  1  0
  8 11  1  0
 11 12  2  0
 12 13  1  0
 13 14  1  0
 14 15  2  0
 15 16  1  0
 16 17  1  0
 16 18  2  0
 18 19  1  0
 15 20  1  0
 20 21  1  0
 20 22  2  0
 22 23  1  0
 23 24  1  0
 24 25  2  0
 25 26  1  0
 25 27  1  0
 27 28  1  0
 27 29  2  0
 29 30  1  0
 29 31  1  0
 31 32  1  0
 32 33  1  0
 33 34  1  0
 33 35  1  0
 33 36  1  0
 31 37  2  0
 37 38  1  0
  7 39  1  0
 39 40  1  0
 39 41  2  0
 41 42  1  0
 41  2  1  0
 18 12  1  0
 37 24  1  0
 23 14  1  0
M  CHG  2  13  -1  20   1
M  END
>  <UniqueID>  (36) 
36

>  <SMILES>  (36) 
COc1cccc(-n2n[nH+]c3cc/c(=N/Cc4ccccc4)[n-]c32)c1

>  <Energy>  (36) 
95.58672138494927

>  <Genealogy>  (36) 
COc1cccc(-n2n[nH+]c3ccc(=NCc4ccccc4)[n-]c32)c1 (protonated)
COc1cccc(-n2n[nH+]c3cc/c(=N/Cc4ccccc4)[n-]c32)c1 (cis-trans isomerization)
COc1cccc(-n2n[nH+]c3cc/c(=N/Cc4ccccc4)[n-]c32)c1 (3D coordinates assigned)
COc1cccc(-n2n[nH+]c3cc/c(=N/Cc4ccccc4)[n-]c32)c1 (optimized conformer: 95.58672138494927 kcal/mol)

>  <smiles>  (36) 
COc1cccc(-n2nnc3ccc(=NCc4ccccc4)[nH]c32)c1

>  <score_type>  (36) 
oracle

>  <origin>  (36) 
adg

>  <m_score__min__energy>  (36) 
-8.9800000000000004

>  <m_primary>  (36) 
energy

$$$$
36:0
     RDKit          3D

 44 46  0  0  0  0  0  0  0  0999 V2000
   -7.5760   17.8780  -32.6720 C   0  0  0  0  0  0  0  0  0  0  0  0
   -7.6840   19.3570  -32.4450 C   0  0  0  0  0  0  0  0  0  0  0  0
   -8.9220   19.9270  -32.1200 C   0  0  0  0  0  0  0  0  0  0  0  0
   -9.0230   21.2990  -31.8820 C   0  0  0  0  0  0  0  0  0  0  0  0
   -7.8880   22.1120  -31.9530 C   0  0  0  0  0  0  0  0  0  0  0  0
   -6.6330   21.5540  -32.2560 C   0  0  0  0  0  0  0  0  0  0  0  0
   -5.4330   22.4130  -32.3620 C   0  0  0  0  0  0  0  0  0  0  0  0
   -4.4800   22.0720  -33.1150 O   0  0  0  0  0  0  0  0  0  0  0  0
   -5.3450   23.6340  -31.6150 N   0  0  0  0  0  0  0  0  0  0  0  0
   -4.6260   23.7870  -30.3810 C   0  0  0  0  0  0  0  0  0  0  0  0
   -5.1320   23.2040  -29.2130 C   0  0  0  0  0  0  0  0  0  0  0  0
   -4.4780   23.3930  -27.9920 C   0  0  0  0  0  0  0  0  0  0  0  0
   -3.3350   24.1970  -27.9210 C   0  0  0  0  0  0  0  0  0  0  0  0
   -2.8450   24.8260  -29.0710 C   0  0  0  0  0  0  0  0  0  0  0  0
   -1.6910   25.6750  -28.9760 N   0  0  0  0  0  0  0  0  0  0  0  0
   -0.4750   25.3110  -28.3110 C   0  0  0  0  0  0  0  0  0  0  0  0
    0.1220   26.1620  -27.6010 O   0  0  0  0  0  0  0  0  0  0  0  0
    0.0870   24.0070  -28.5010 N   0  0  0  0  0  0  0  0  0  0  0  0
   -0.5240   22.7680  -28.1160 C   0  0  0  0  0  0  0  0  0  0  0  0
   -0.6220   22.4630  -26.7540 C   0  0  0  0  0  0  0  0  0  0  0  0
   -1.1130   21.2220  -26.3370 C   0  0  0  0  0  0  0  0  0  0  0  0
   -1.5090   20.2590  -27.2800 C   0  0  0  0  0  0  0  0  0  0  0  0
   -2.0000   18.9780  -26.8480 N   0  0  0  0  0  0  0  0  0  0  0  0
   -1.2310   17.9980  -26.7580 O   0  0  0  0  0  0  0  0  0  0  0  0
   -3.3260   18.8110  -26.5170 O   0  0  0  0  0  0  0  0  0  0  0  0
   -1.4060   20.5660  -28.6490 C   0  0  0  0  0  0  0  0  0  0  0  0
   -0.9140   21.8070  -29.0640 C   0  0  0  0  0  0  0  0  0  0  0  0
   -3.4760   24.5870  -30.3050 C   0  0  0  0  0  0  0  0  0  0  0  0
   -6.5400   20.1700  -32.4960 C   0  0  0  0  0  0  0  0  0  0  0  0
   -7.5382   17.3600  -31.7023 H   0  0  0  0  0  0  0  0  0  0  0  0
   -8.4511   17.5294  -33.2401 H   0  0  0  0  0  0  0  0  0  0  0  0
   -6.6596   17.6602  -33.2401 H   0  0  0  0  0  0  0  0  0  0  0  0
   -9.8173   19.2915  -32.0521 H   0  0  0  0  0  0  0  0  0  0  0  0
   -9.9997   21.7421  -31.6376 H   0  0  0  0  0  0  0  0  0  0  0  0
   -7.9768   23.1932  -31.7710 H   0  0  0  0  0  0  0  0  0  0  0  0
   -6.0472   22.5952  -29.2562 H   0  0  0  0  0  0  0  0  0  0  0  0
   -4.8635   22.9076  -27.0833 H   0  0  0  0  0  0  0  0  0  0  0  0
   -2.8203   24.3350  -26.9587 H   0  0  0  0  0  0  0  0  0  0  0  0
   -0.3101   23.2058  -26.0050 H   0  0  0  0  0  0  0  0  0  0  0  0
   -1.1897   20.9981  -25.2628 H   0  0  0  0  0  0  0  0  0  0  0  0
   -1.7152   19.8233  -29.3992 H   0  0  0  0  0  0  0  0  0  0  0  0
   -0.8318   22.0322  -30.1376 H   0  0  0  0  0  0  0  0  0  0  0  0
   -3.0628   25.0328  -31.2218 H   0  0  0  0  0  0  0  0  0  0  0  0
   -5.5623   19.7212  -32.7256 H   0  0  0  0  0  0  0  0  0  0  0  0
  1  2  1  0
  2  3  2  0
  3  4  1  0
  4  5  2  0
  5  6  1  0
  6  7  1  0
  7  8  2  0
  7  9  1  0
  9 10  1  0
 10 11  2  0
 11 12  1  0
 12 13  2  0
 13 14  1  0
 14 15  1  0
 15 16  1  0
 16 17  2  0
 16 18  1  0
 18 19  1  0
 19 20  2  0
 20 21  1  0
 21 22  2  0
 22 23  1  0
 23 24  2  0
 23 25  1  0
 22 26  1  0
 26 27  2  0
 14 28  2  0
  6 29  2  0
 29  2  1  0
 28 10  1  0
 27 19  1  0
  1 30  1  0
  1 31  1  0
  1 32  1  0
  3 33  1  0
  4 34  1  0
  5 35  1  0
 11 36  1  0
 12 37  1  0
 13 38  1  0
 20 39  1  0
 21 40  1  0
 26 41  1  0
 27 42  1  0
 28 43  1  0
 29 44  1  0
M  CHG  5   9  -1  15  -1  18  -1  23   1  25  -1
M  END
>  <UniqueID>  (37) 
37

>  <SMILES>  (37) 
Cc1cccc(C(=O)[N-]c2cccc([N-]C(=O)[N-]c3ccc([N+](=O)[O-])cc3)c2)c1

>  <Energy>  (37) 
58.698089609686726

>  <Genealogy>  (37) 
Cc1cccc(C(=O)[N-]c2cccc([N-]C(=O)[N-]c3ccc([N+](=O)[O-])cc3)c2)c1 (protonated)
Cc1cccc(C(=O)[N-]c2cccc([N-]C(=O)[N-]c3ccc([N+](=O)[O-])cc3)c2)c1 (3D coordinates assigned)
Cc1cccc(C(=O)[N-]c2cccc([N-]C(=O)[N-]c3ccc([N+](=O)[O-])cc3)c2)c1 (optimized conformer: 58.698089609686726 kcal/mol)

>  <smiles>  (37) 
Cc1cccc(C(=O)Nc2cccc(NC(=O)Nc3ccc([N+](=O)[O-])cc3)c2)c1

>  <score_type>  (37) 
oracle

>  <origin>  (37) 
adg

>  <m_score__min__energy>  (37) 
-11.81

>  <m_primary>  (37) 
energy

$$$$
37:0
     RDKit          3D

 34 36  0  0  0  0  0  0  0  0999 V2000
   -8.1016   23.2838  -31.2971 H   0  0  0  0  0  0  0  0  0  0  0  0
   -7.1150   23.7090  -31.0610 C   0  0  0  0  0  0  0  0  0  0  0  0
   -7.0210   24.8830  -30.3830 N   0  0  0  0  0  0  0  0  0  0  0  0
   -5.8150   25.4310  -30.0800 C   0  0  0  0  0  0  0  0  0  0  0  0
   -5.7607   26.3845  -29.5342 H   0  0  0  0  0  0  0  0  0  0  0  0
   -4.6450   24.7740  -30.4670 C   0  0  0  0  0  0  0  0  0  0  0  0
   -3.4870   25.2930  -30.1800 N   0  0  0  0  0  0  0  0  0  0  0  0
   -2.6310   24.8720  -29.0720 C   0  0  0  0  0  0  0  0  0  0  0  0
   -1.6238   25.2901  -29.2159 H   0  0  0  0  0  0  0  0  0  0  0  0
   -3.0678   25.2382  -28.1312 H   0  0  0  0  0  0  0  0  0  0  0  0
   -2.5370   23.3690  -29.0070 C   0  0  0  0  0  0  0  0  0  0  0  0
   -1.8410   22.6570  -29.9950 C   0  0  0  0  0  0  0  0  0  0  0  0
   -1.3632   23.1969  -30.8258 H   0  0  0  0  0  0  0  0  0  0  0  0
   -1.7550   21.3010  -29.9290 N   0  0  0  0  0  0  0  0  0  0  0  0
   -2.3350   20.5970  -28.9210 C   0  0  0  0  0  0  0  0  0  0  0  0
   -2.2452   19.5010  -28.8938 H   0  0  0  0  0  0  0  0  0  0  0  0
   -3.0440   21.2630  -27.9210 C   0  0  0  0  0  0  0  0  0  0  0  0
   -3.5156   20.6976  -27.1037 H   0  0  0  0  0  0  0  0  0  0  0  0
   -3.1490   22.6550  -27.9680 C   0  0  0  0  0  0  0  0  0  0  0  0
   -3.7120   23.1908  -27.1896 H   0  0  0  0  0  0  0  0  0  0  0  0
   -4.7400   23.5950  -31.1440 N   0  0  0  0  0  0  0  0  0  0  0  0
   -5.9430   23.0410  -31.4590 C   0  0  0  0  0  0  0  0  0  0  0  0
   -5.9880   21.7510  -32.1890 C   0  0  0  0  0  0  0  0  0  0  0  0
   -7.2000   21.0590  -32.3790 C   0  0  0  0  0  0  0  0  0  0  0  0
   -8.1350   21.4737  -31.9742 H   0  0  0  0  0  0  0  0  0  0  0  0
   -7.2230   19.8480  -33.0790 C   0  0  0  0  0  0  0  0  0  0  0  0
   -8.1743   19.3141  -33.2203 H   0  0  0  0  0  0  0  0  0  0  0  0
   -6.0390   19.3140  -33.6000 C   0  0  0  0  0  0  0  0  0  0  0  0
   -6.0650   18.0680  -34.3200 C   0  0  0  0  0  0  0  0  0  0  0  0
   -6.0850   17.0660  -34.8990 N   0  0  0  0  0  0  0  0  0  0  0  0
   -4.8310   19.9970  -33.4210 C   0  0  0  0  0  0  0  0  0  0  0  0
   -3.8989   19.5798  -33.8298 H   0  0  0  0  0  0  0  0  0  0  0  0
   -4.8060   21.2080  -32.7240 C   0  0  0  0  0  0  0  0  0  0  0  0
   -3.8530   21.7415  -32.5926 H   0  0  0  0  0  0  0  0  0  0  0  0
  1  2  1  0
  2  3  1  0
  3  4  2  0
  4  5  1  0
  4  6  1  0
  6  7  2  0
  7  8  1  0
  8  9  1  0
  8 10  1  0
  8 11  1  0
 11 12  2  0
 12 13  1  0
 12 14  1  0
 14 15  2  0
 15 16  1  0
 15 17  1  0
 17 18  1  0
 17 19  2  0
 19 20  1  0
  6 21  1  0
 21 22  1  0
 22 23  1  0
 23 24  2  0
 24 25  1  0
 24 26  1  0
 26 27  1  0
 26 28  2  0
 28 29  1  0
 29 30  3  0
 28 31  1  0
 31 32  1  0
 31 33  2  0
 33 34  1  0
 22  2  2  0
 33 23  1  0
 19 11  1  0
M  CHG  1  21  -1
M  END
>  <UniqueID>  (38) 
38

>  <SMILES>  (38) 
N#Cc1ccc(-c2cnc/c(=N/Cc3cccnc3)[n-]2)cc1

>  <Energy>  (38) 
40.8941192055927

>  <Genealogy>  (38) 
N#Cc1ccc(-c2cncc(=NCc3cccnc3)[n-]2)cc1 (protonated)
N#Cc1ccc(-c2cnc/c(=N/Cc3cccnc3)[n-]2)cc1 (cis-trans isomerization)
N#Cc1ccc(-c2cnc/c(=N/Cc3cccnc3)[n-]2)cc1 (3D coordinates assigned)
N#Cc1ccc(-c2cnc/c(=N/Cc3cccnc3)[n-]2)cc1 (optimized conformer: 40.8941192055927 kcal/mol)

>  <smiles>  (38) 
N#Cc1ccc(-c2cncc(=NCc3cccnc3)[nH]2)cc1

>  <score_type>  (38) 
oracle

>  <origin>  (38) 
adg

>  <m_score__min__energy>  (38) 
-8.3900000000000006

>  <m_primary>  (38) 
energy

$$$$
38:0
     RDKit          3D

 53 55  0  0  0  0  0  0  0  0999 V2000
   -6.8670   17.0310  -33.2230 C   0  0  0  0  0  0  0  0  0  0  0  0
   -5.7420   16.6700  -32.2610 C   0  0  0  0  0  0  0  0  0  0  0  0
   -4.5210   16.3450  -33.0330 N   0  0  0  0  0  0  0  0  0  0  0  0
   -4.1190   14.9210  -32.9020 C   0  0  0  0  0  0  0  0  0  0  0  0
   -4.6270   14.2450  -31.6220 C   0  0  0  0  0  0  0  0  0  0  0  0
   -4.6030   16.8400  -34.4260 C   0  0  0  0  0  0  0  0  0  0  0  0
   -3.2800   17.4500  -34.9210 C   0  0  0  0  0  0  0  0  0  0  0  0
   -2.3170   17.8070  -33.7790 C   0  0  0  0  0  0  0  0  0  0  0  0
   -2.9570   18.7240  -32.8240 N   0  0  0  0  0  0  0  0  0  0  0  0
   -3.4010   19.9690  -33.4710 C   0  0  0  0  0  0  0  0  0  0  0  0
   -4.9010   20.1840  -33.4060 C   0  0  0  0  0  0  0  0  0  0  0  0
   -5.6460   19.6390  -34.2650 O   0  0  0  0  0  0  0  0  0  0  0  0
   -5.5000   20.9290  -32.3210 N   0  0  0  0  0  0  0  0  0  0  0  0
   -6.9290   21.0730  -32.1870 C   0  0  0  0  0  0  0  0  0  0  0  0
   -7.7490   19.9540  -31.9680 C   0  0  0  0  0  0  0  0  0  0  0  0
   -9.1090   20.1220  -31.6840 C   0  0  0  0  0  0  0  0  0  0  0  0
   -9.6490   21.4060  -31.5830 C   0  0  0  0  0  0  0  0  0  0  0  0
   -8.8300   22.5290  -31.7500 C   0  0  0  0  0  0  0  0  0  0  0  0
   -7.4750   22.3640  -32.0590 C   0  0  0  0  0  0  0  0  0  0  0  0
   -6.4130   23.7940  -32.3010 S   0  0  0  0  0  0  0  0  0  0  0  0
   -5.0970   23.1140  -31.2800 C   0  0  0  0  0  0  0  0  0  0  0  0
   -4.4520   23.9080  -30.3250 C   0  0  0  0  0  0  0  0  0  0  0  0
   -3.3820   23.3840  -29.5890 C   0  0  0  0  0  0  0  0  0  0  0  0
   -2.5670   24.3810  -28.3970 Cl  0  0  0  0  0  0  0  0  0  0  0  0
   -2.9620   22.0650  -29.8030 C   0  0  0  0  0  0  0  0  0  0  0  0
   -3.6230   21.2600  -30.7370 C   0  0  0  0  0  0  0  0  0  0  0  0
   -4.6940   21.7820  -31.4830 C   0  0  0  0  0  0  0  0  0  0  0  0
   -7.7612   17.3180  -32.6503 H   0  0  0  0  0  0  0  0  0  0  0  0
   -6.5516   17.8730  -33.8566 H   0  0  0  0  0  0  0  0  0  0  0  0
   -7.1004   16.1626  -33.8566 H   0  0  0  0  0  0  0  0  0  0  0  0
   -5.5398   17.5226  -31.5960 H   0  0  0  0  0  0  0  0  0  0  0  0
   -6.0388   15.7989  -31.6584 H   0  0  0  0  0  0  0  0  0  0  0  0
   -4.5163   14.3684  -33.7662 H   0  0  0  0  0  0  0  0  0  0  0  0
   -3.0201   14.9032  -32.8570 H   0  0  0  0  0  0  0  0  0  0  0  0
   -4.2286   14.7752  -30.7444 H   0  0  0  0  0  0  0  0  0  0  0  0
   -5.7263   14.2771  -31.6019 H   0  0  0  0  0  0  0  0  0  0  0  0
   -4.2903   13.1980  -31.6019 H   0  0  0  0  0  0  0  0  0  0  0  0
   -4.8696   15.9988  -35.0828 H   0  0  0  0  0  0  0  0  0  0  0  0
   -5.3636   17.6342  -34.4509 H   0  0  0  0  0  0  0  0  0  0  0  0
   -2.7851   16.7234  -35.5821 H   0  0  0  0  0  0  0  0  0  0  0  0
   -3.5259   18.3843  -35.4470 H   0  0  0  0  0  0  0  0  0  0  0  0
   -2.0235   16.8862  -33.2536 H   0  0  0  0  0  0  0  0  0  0  0  0
   -1.4325   18.3028  -34.2055 H   0  0  0  0  0  0  0  0  0  0  0  0
   -3.7630   18.2520  -32.3490 H   0  0  0  0  0  0  0  0  0  0  0  0
   -2.9062   20.8157  -32.9728 H   0  0  0  0  0  0  0  0  0  0  0  0
   -3.1310   19.8945  -34.5347 H   0  0  0  0  0  0  0  0  0  0  0  0
   -7.3208   18.9421  -32.0199 H   0  0  0  0  0  0  0  0  0  0  0  0
   -9.7532   19.2420  -31.5402 H   0  0  0  0  0  0  0  0  0  0  0  0
  -10.7207   21.5353  -31.3717 H   0  0  0  0  0  0  0  0  0  0  0  0
   -9.2507   23.5392  -31.6386 H   0  0  0  0  0  0  0  0  0  0  0  0
   -4.7850   24.9421  -30.1527 H   0  0  0  0  0  0  0  0  0  0  0  0
   -2.1106   21.6612  -29.2355 H   0  0  0  0  0  0  0  0  0  0  0  0
   -3.3044   20.2180  -30.8877 H   0  0  0  0  0  0  0  0  0  0  0  0
  1  2  1  0
  2  3  1  0
  3  4  1  0
  4  5  1  0
  3  6  1  0
  6  7  1  0
  7  8  1  0
  8  9  1  0
  9 10  1  0
 10 11  1  0
 11 12  2  0
 11 13  1  0
 13 14  1  0
 14 15  2  0
 15 16  1  0
 16 17  2  0
 17 18  1  0
 18 19  2  0
 19 20  1  0
 20 21  1  0
 21 22  2  0
 22 23  1  0
 23 24  1  0
 23 25  2  0
 25 26  1  0
 26 27  2  0
 27 13  1  0
 19 14  1  0
 27 21  1  0
  1 28  1  0
  1 29  1  0
  1 30  1  0
  2 31  1  0
  2 32  1  0
  4 33  1  0
  4 34  1  0
  5 35  1  0
  5 36  1  0
  5 37  1  0
  6 38  1  0
  6 39  1  0
  7 40  1  0
  7 41  1  0
  8 42  1  0
  8 43  1  0
  9 44  1  0
 10 45  1  0
 10 46  1  0
 15 47  1  0
 16 48  1  0
 17 49  1  0
 18 50  1  0
 22 51  1  0
 25 52  1  0
 26 53  1  0
M  END
>  <UniqueID>  (39) 
39

>  <SMILES>  (39) 
CCN(CC)CCCNCC(=O)N1c2ccccc2Sc2cc(Cl)ccc21

>  <Energy>  (39) 
76.82621687401243

>  <Genealogy>  (39) 
CCN(CC)CCCNCC(=O)N1c2ccccc2Sc2cc(Cl)ccc21 (3D coordinates assigned)
CCN(CC)CCCNCC(=O)N1c2ccccc2Sc2cc(Cl)ccc21 (nonaromatic ring conformer: 76.82621687401243 kcal/mol)

>  <smiles>  (39) 
CCN(CC)CCCNCC(=O)N1c2ccccc2Sc2cc(Cl)ccc21

>  <score_type>  (39) 
oracle

>  <origin>  (39) 
adg

>  <m_score__min__energy>  (39) 
-8.7100000000000009

>  <m_primary>  (39) 
energy

$$$$
39:0
     RDKit          3D

 65 69  0  0  0  0  0  0  0  0999 V2000
   -3.5590   18.3560  -34.0630 C   0  0  0  0  0  0  0  0  0  0  0  0
   -4.8580   18.7070  -34.5330 O   0  0  0  0  0  0  0  0  0  0  0  0
   -5.9360   19.0560  -33.7020 C   0  0  0  0  0  0  0  0  0  0  0  0
   -6.9440   18.1410  -33.3540 C   0  0  0  0  0  0  0  0  0  0  0  0
   -8.0030   18.5350  -32.5360 C   0  0  0  0  0  0  0  0  0  0  0  0
   -8.0800   19.8530  -32.0620 C   0  0  0  0  0  0  0  0  0  0  0  0
   -9.1490   20.2450  -31.2520 C   0  0  0  0  0  0  0  0  0  0  0  0
   -9.2080   21.5490  -30.7770 C   0  0  0  0  0  0  0  0  0  0  0  0
   -8.2570   22.4520  -31.1280 N   0  0  0  0  0  0  0  0  0  0  0  0
   -7.2170   22.1350  -31.9620 C   0  0  0  0  0  0  0  0  0  0  0  0
   -6.2480   23.2380  -32.3480 C   0  0  0  0  0  0  0  0  0  0  0  0
   -5.0620   23.2950  -31.4730 N   0  0  0  0  0  0  0  0  0  0  0  0
   -4.9350   24.0530  -30.3480 C   0  0  0  0  0  0  0  0  0  0  0  0
   -6.0110   24.9540  -29.8120 C   0  0  0  0  0  0  0  0  0  0  0  0
   -3.6880   23.8460  -29.7550 C   0  0  0  0  0  0  0  0  0  0  0  0
   -3.1950   24.4250  -28.4640 C   0  0  0  0  0  0  0  0  0  0  0  0
   -3.0370   22.9390  -30.5680 C   0  0  0  0  0  0  0  0  0  0  0  0
   -1.7810   22.3440  -30.4410 C   0  0  0  0  0  0  0  0  0  0  0  0
   -1.3800   21.4090  -31.4170 C   0  0  0  0  0  0  0  0  0  0  0  0
   -0.0860   20.7030  -31.3000 C   0  0  0  0  0  0  0  0  0  0  0  0
    0.7490   20.7940  -32.2380 O   0  0  0  0  0  0  0  0  0  0  0  0
    0.2600   19.9210  -30.1460 N   0  0  0  0  0  0  0  0  0  0  0  0
    0.3230   20.4070  -28.7680 C   0  0  0  0  0  0  0  0  0  0  0  0
   -0.8620   19.9000  -27.9880 C   0  0  0  0  0  0  0  0  0  0  0  0
   -2.0050   20.7100  -27.8680 C   0  0  0  0  0  0  0  0  0  0  0  0
   -3.1170   20.2640  -27.1530 C   0  0  0  0  0  0  0  0  0  0  0  0
   -3.0920   19.0150  -26.5350 C   0  0  0  0  0  0  0  0  0  0  0  0
   -1.9570   18.2060  -26.6270 C   0  0  0  0  0  0  0  0  0  0  0  0
   -0.8320   18.6350  -27.3610 C   0  0  0  0  0  0  0  0  0  0  0  0
    0.3120   17.8320  -27.4940 O   0  0  0  0  0  0  0  0  0  0  0  0
    0.6350   17.0730  -28.6550 C   0  0  0  0  0  0  0  0  0  0  0  0
   -2.2130   21.1740  -32.5390 C   0  0  0  0  0  0  0  0  0  0  0  0
   -3.4690   21.7940  -32.6460 C   0  0  0  0  0  0  0  0  0  0  0  0
   -3.8770   22.6500  -31.6160 C   0  0  0  0  0  0  0  0  0  0  0  0
   -7.0840   20.7960  -32.4200 C   0  0  0  0  0  0  0  0  0  0  0  0
   -6.0010   20.3660  -33.2160 C   0  0  0  0  0  0  0  0  0  0  0  0
   -3.5550   18.3549  -32.9630 H   0  0  0  0  0  0  0  0  0  0  0  0
   -3.2940   17.3541  -34.4316 H   0  0  0  0  0  0  0  0  0  0  0  0
   -2.8255   19.0882  -34.4316 H   0  0  0  0  0  0  0  0  0  0  0  0
   -6.8977   17.1079  -33.7288 H   0  0  0  0  0  0  0  0  0  0  0  0
   -8.7818   17.8084  -32.2612 H   0  0  0  0  0  0  0  0  0  0  0  0
   -9.9391   19.5252  -30.9920 H   0  0  0  0  0  0  0  0  0  0  0  0
  -10.0304   21.8519  -30.1123 H   0  0  0  0  0  0  0  0  0  0  0  0
   -8.3520   23.4250  -30.7570 H   0  0  0  0  0  0  0  0  0  0  0  0
   -5.9133   23.0648  -33.3814 H   0  0  0  0  0  0  0  0  0  0  0  0
   -6.7802   24.1950  -32.2439 H   0  0  0  0  0  0  0  0  0  0  0  0
   -5.9899   24.9364  -28.7123 H   0  0  0  0  0  0  0  0  0  0  0  0
   -5.8389   25.9813  -30.1656 H   0  0  0  0  0  0  0  0  0  0  0  0
   -6.9921   24.6041  -30.1656 H   0  0  0  0  0  0  0  0  0  0  0  0
   -3.6537   23.8863  -27.6217 H   0  0  0  0  0  0  0  0  0  0  0  0
   -2.1009   24.3246  -28.4112 H   0  0  0  0  0  0  0  0  0  0  0  0
   -3.4685   25.4891  -28.4112 H   0  0  0  0  0  0  0  0  0  0  0  0
   -1.1198   22.5984  -29.5996 H   0  0  0  0  0  0  0  0  0  0  0  0
    1.2498   20.0476  -28.2970 H   0  0  0  0  0  0  0  0  0  0  0  0
    0.3087   21.5069  -28.7721 H   0  0  0  0  0  0  0  0  0  0  0  0
   -2.0226   21.7028  -28.3414 H   0  0  0  0  0  0  0  0  0  0  0  0
   -4.0129   20.8977  -27.0771 H   0  0  0  0  0  0  0  0  0  0  0  0
   -3.9699   18.6648  -25.9723 H   0  0  0  0  0  0  0  0  0  0  0  0
   -1.9407   17.2280  -26.1237 H   0  0  0  0  0  0  0  0  0  0  0  0
    1.0492   16.0997  -28.3532 H   0  0  0  0  0  0  0  0  0  0  0  0
   -0.2738   16.9149  -29.2542 H   0  0  0  0  0  0  0  0  0  0  0  0
    1.3791   17.6182  -29.2542 H   0  0  0  0  0  0  0  0  0  0  0  0
   -1.8718   20.4974  -33.3364 H   0  0  0  0  0  0  0  0  0  0  0  0
   -4.1156   21.6116  -33.5170 H   0  0  0  0  0  0  0  0  0  0  0  0
   -5.1941   21.0732  -33.4584 H   0  0  0  0  0  0  0  0  0  0  0  0
  1  2  1  0
  2  3  1  0
  3  4  2  0
  4  5  1  0
  5  6  2  0
  6  7  1  0
  7  8  2  0
  8  9  1  0
  9 10  2  0
 10 11  1  0
 11 12  1  0
 12 13  1  0
 13 14  1  0
 13 15  2  0
 15 16  1  0
 15 17  1  0
 17 18  2  0
 18 19  1  0
 19 20  1  0
 20 21  2  0
 20 22  1  0
 22 23  1  0
 23 24  1  0
 24 25  2  0
 25 26  1  0
 26 27  2  0
 27 28  1  0
 28 29  2  0
 29 30  1  0
 30 31  1  0
 19 32  2  0
 32 33  1  0
 33 34  2  0
 10 35  1  0
 35 36  2  0
 36  3  1  0
 35  6  1  0
 34 12  1  0
 34 17  1  0
 29 24  1  0
  1 37  1  0
  1 38  1  0
  1 39  1  0
  4 40  1  0
  5 41  1  0
  7 42  1  0
  8 43  1  0
  9 44  1  0
 11 45  1  0
 11 46  1  0
 14 47  1  0
 14 48  1  0
 14 49  1  0
 16 50  1  0
 16 51  1  0
 16 52  1  0
 18 53  1  0
 23 54  1  0
 23 55  1  0
 25 56  1  0
 26 57  1  0
 27 58  1  0
 28 59  1  0
 31 60  1  0
 31 61  1  0
 31 62  1  0
 32 63  1  0
 33 64  1  0
 36 65  1  0
M  CHG  2   9   1  22  -1
M  END
>  <UniqueID>  (40) 
40

>  <SMILES>  (40) 
COc1ccc2cc[nH+]c(Cn3c(C)c(C)c4cc(C(=O)[N-]Cc5ccccc5OC)ccc43)c2c1

>  <Energy>  (40) 
110.5905878919656

>  <Genealogy>  (40) 
COc1ccc2cc[nH+]c(Cn3c(C)c(C)c4cc(C(=O)[N-]Cc5ccccc5OC)ccc43)c2c1 (protonated)
COc1ccc2cc[nH+]c(Cn3c(C)c(C)c4cc(C(=O)[N-]Cc5ccccc5OC)ccc43)c2c1 (3D coordinates assigned)
COc1ccc2cc[nH+]c(Cn3c(C)c(C)c4cc(C(=O)[N-]Cc5ccccc5OC)ccc43)c2c1 (optimized conformer: 110.5905878919656 kcal/mol)

>  <smiles>  (40) 
COc1ccc2ccnc(Cn3c(C)c(C)c4cc(C(=O)NCc5ccccc5OC)ccc43)c2c1

>  <score_type>  (40) 
oracle

>  <origin>  (40) 
adg

>  <m_score__min__energy>  (40) 
-12.01

>  <m_primary>  (40) 
energy

$$$$
40:0
     RDKit          3D

 52 55  0  0  0  0  0  0  0  0999 V2000
   -4.0845   22.1531  -32.4218 H   0  0  0  0  0  0  0  0  0  0  0  0
   -5.1690   22.0420  -32.2750 C   0  0  0  0  0  0  0  0  0  0  0  0
   -5.8450   20.9700  -32.8670 C   0  0  0  0  0  0  0  0  0  0  0  0
   -5.2881   20.2388  -33.4713 H   0  0  0  0  0  0  0  0  0  0  0  0
   -7.2320   20.8220  -32.6940 C   0  0  0  0  0  0  0  0  0  0  0  0
   -7.9330   19.7310  -33.3240 N   0  0  0  0  0  0  0  0  0  0  0  0
   -7.2960   19.2500  -34.0020 H   0  0  0  0  0  0  0  0  0  0  0  0
   -8.7470   20.1050  -33.8650 H   0  0  0  0  0  0  0  0  0  0  0  0
   -8.3870   18.7670  -32.3080 C   0  0  0  0  0  0  0  0  0  0  0  0
   -9.0019   17.9965  -32.7961 H   0  0  0  0  0  0  0  0  0  0  0  0
   -8.9700   19.3125  -31.5513 H   0  0  0  0  0  0  0  0  0  0  0  0
   -7.1960   18.0850  -31.6020 C   0  0  0  0  0  0  0  0  0  0  0  0
   -7.5785   17.2348  -31.0182 H   0  0  0  0  0  0  0  0  0  0  0  0
   -6.7178   18.8468  -30.9687 H   0  0  0  0  0  0  0  0  0  0  0  0
   -6.1210   17.5650  -32.5700 C   0  0  0  0  0  0  0  0  0  0  0  0
   -5.3938   16.9693  -31.9987 H   0  0  0  0  0  0  0  0  0  0  0  0
   -5.6535   18.4411  -33.0432 H   0  0  0  0  0  0  0  0  0  0  0  0
   -6.6930   16.6940  -33.6870 C   0  0  0  0  0  0  0  0  0  0  0  0
   -7.2466   15.8511  -33.2477 H   0  0  0  0  0  0  0  0  0  0  0  0
   -7.3729   17.2949  -34.3088 H   0  0  0  0  0  0  0  0  0  0  0  0
   -5.8714   16.3089  -34.3088 H   0  0  0  0  0  0  0  0  0  0  0  0
   -7.9360   21.7840  -31.9480 C   0  0  0  0  0  0  0  0  0  0  0  0
   -9.0257   21.6935  -31.8277 H   0  0  0  0  0  0  0  0  0  0  0  0
   -7.2580   22.8540  -31.3590 C   0  0  0  0  0  0  0  0  0  0  0  0
   -7.8182   23.6063  -30.7844 H   0  0  0  0  0  0  0  0  0  0  0  0
   -5.8660   22.9750  -31.4960 C   0  0  0  0  0  0  0  0  0  0  0  0
   -5.1590   24.0700  -30.8970 N   0  0  0  0  0  0  0  0  0  0  0  0
   -5.4270   25.0410  -31.1740 H   0  0  0  0  0  0  0  0  0  0  0  0
   -4.0260   23.8920  -30.0320 C   0  0  0  0  0  0  0  0  0  0  0  0
   -3.1390   24.9220  -29.8290 N   0  0  0  0  0  0  0  0  0  0  0  0
   -2.0760   24.8240  -28.9720 C   0  0  0  0  0  0  0  0  0  0  0  0
   -1.2480   25.8120  -28.7570 N   0  0  0  0  0  0  0  0  0  0  0  0
   -0.4110   26.1830  -27.5990 C   0  0  0  0  0  0  0  0  0  0  0  0
    0.4079   25.5085  -27.8895 H   0  0  0  0  0  0  0  0  0  0  0  0
   -1.1110   26.4960  -26.2840 C   0  0  0  0  0  0  0  0  0  0  0  0
   -2.2024   26.3866  -26.2013 H   0  0  0  0  0  0  0  0  0  0  0  0
   -0.9996   26.1603  -25.2424 H   0  0  0  0  0  0  0  0  0  0  0  0
   -0.5160   27.6240  -27.1290 C   0  0  0  0  0  0  0  0  0  0  0  0
   -1.1794   28.3271  -27.6539 H   0  0  0  0  0  0  0  0  0  0  0  0
    0.2015   28.4376  -26.9469 H   0  0  0  0  0  0  0  0  0  0  0  0
   -1.9030   23.6180  -28.2980 C   0  0  0  0  0  0  0  0  0  0  0  0
   -0.9550   23.2910  -27.3970 N   0  0  0  0  0  0  0  0  0  0  0  0
   -1.2860   22.0190  -27.0540 C   0  0  0  0  0  0  0  0  0  0  0  0
   -0.7229   21.4235  -26.3204 H   0  0  0  0  0  0  0  0  0  0  0  0
   -2.3800   21.5580  -27.7070 N   0  0  0  0  0  0  0  0  0  0  0  0
   -3.0430   20.2720  -27.5180 C   0  0  0  0  0  0  0  0  0  0  0  0
   -3.1480   20.0682  -26.4422 H   0  0  0  0  0  0  0  0  0  0  0  0
   -4.0387   20.3007  -27.9847 H   0  0  0  0  0  0  0  0  0  0  0  0
   -2.4421   19.4776  -27.9847 H   0  0  0  0  0  0  0  0  0  0  0  0
   -2.7670   22.5830  -28.4820 C   0  0  0  0  0  0  0  0  0  0  0  0
   -3.8610   22.6770  -29.3370 C   0  0  0  0  0  0  0  0  0  0  0  0
   -4.5648   21.8413  -29.4646 H   0  0  0  0  0  0  0  0  0  0  0  0
  1  2  1  0
  2  3  2  0
  3  4  1  0
  3  5  1  0
  5  6  1  0
  6  7  1  0
  6  8  1  0
  6  9  1  0
  9 10  1  0
  9 11  1  0
  9 12  1  0
 12 13  1  0
 12 14  1  0
 12 15  1  0
 15 16  1  0
 15 17  1  0
 15 18  1  0
 18 19  1  0
 18 20  1  0
 18 21  1  0
  5 22  2  0
 22 23  1  0
 22 24  1  0
 24 25  1  0
 24 26  2  0
 26 27  1  0
 27 28  1  0
 27 29  1  0
 29 30  1  0
 30 31  1  0
 31 32  2  0
 32 33  1  0
 33 34  1  0
 33 35  1  0
 35 36  1  0
 35 37  1  0
 35 38  1  0
 38 39  1  0
 38 40  1  0
 31 41  1  0
 41 42  1  0
 42 43  2  0
 43 44  1  0
 43 45  1  0
 45 46  1  0
 46 47  1  0
 46 48  1  0
 46 49  1  0
 45 50  1  0
 50 51  1  0
 51 52  1  0
 26  2  1  0
 51 29  2  0
 38 33  1  0
 50 41  2  0
M  CHG  2   6   1  30  -1
M  END
>  <UniqueID>  (41) 
41

>  <SMILES>  (41) 
CCCC[NH2+]c1ccc(Nc2cc3c(ncn3C)/c(=N/C3CC3)[n-]2)cc1

>  <Energy>  (41) 
366.46777961477596

>  <Genealogy>  (41) 
CCCC[NH2+]c1ccc(Nc2cc3c(ncn3C)c(=NC3CC3)[n-]2)cc1 (protonated)
CCCC[NH2+]c1ccc(Nc2cc3c(ncn3C)/c(=N/C3CC3)[n-]2)cc1 (cis-trans isomerization)
CCCC[NH2+]c1ccc(Nc2cc3c(ncn3C)/c(=N/C3CC3)[n-]2)cc1 (3D coordinates assigned)
CCCC[NH2+]c1ccc(Nc2cc3c(ncn3C)/c(=N/C3CC3)[n-]2)cc1 (nonaromatic ring conformer: 366.46777961477596 kcal/mol)

>  <smiles>  (41) 
CCCCNc1ccc(Nc2cc3c(ncn3C)c(=NC3CC3)[nH]2)cc1

>  <score_type>  (41) 
oracle

>  <origin>  (41) 
adg

>  <m_score__min__energy>  (41) 
-9.3100000000000005

>  <m_primary>  (41) 
energy

$$$$
41:0
     RDKit          3D

 40 41  0  0  0  0  0  0  0  0999 V2000
   -5.5830   24.4080  -29.3760 C   0  0  0  0  0  0  0  0  0  0  0  0
   -4.9050   25.2970  -30.4140 C   0  0  0  0  0  0  0  0  0  0  0  0
   -3.4870   25.2800  -30.2480 O   0  0  0  0  0  0  0  0  0  0  0  0
   -2.7740   24.4710  -29.3430 C   0  0  0  0  0  0  0  0  0  0  0  0
   -2.3650   24.9400  -28.0780 C   0  0  0  0  0  0  0  0  0  0  0  0
   -1.6640   24.1050  -27.1970 C   0  0  0  0  0  0  0  0  0  0  0  0
   -1.2590   24.6140  -25.8380 C   0  0  0  0  0  0  0  0  0  0  0  0
   -0.6550   25.9620  -25.9390 N   0  0  0  0  0  0  0  0  0  0  0  0
   -1.2430   26.9310  -24.9900 C   0  0  0  0  0  0  0  0  0  0  0  0
   -0.8150   26.6600  -23.5300 C   0  0  0  0  0  0  0  0  0  0  0  0
    0.5370   26.0770  -23.4180 N   0  0  0  0  0  0  0  0  0  0  0  0
    1.3990   26.4590  -24.5400 C   0  0  0  0  0  0  0  0  0  0  0  0
    0.8300   25.9340  -25.8740 C   0  0  0  0  0  0  0  0  0  0  0  0
   -1.3670   22.7900  -27.5820 C   0  0  0  0  0  0  0  0  0  0  0  0
   -1.7600   22.3180  -28.8350 C   0  0  0  0  0  0  0  0  0  0  0  0
   -2.4590   23.1520  -29.7220 C   0  0  0  0  0  0  0  0  0  0  0  0
   -2.8870   22.6300  -31.0650 C   0  0  0  0  0  0  0  0  0  0  0  0
   -5.3180   24.7554  -28.3665 H   0  0  0  0  0  0  0  0  0  0  0  0
   -6.6741   24.4585  -29.5065 H   0  0  0  0  0  0  0  0  0  0  0  0
   -5.2458   23.3691  -29.5065 H   0  0  0  0  0  0  0  0  0  0  0  0
   -5.1546   24.9307  -31.4207 H   0  0  0  0  0  0  0  0  0  0  0  0
   -5.2629   26.3287  -30.2821 H   0  0  0  0  0  0  0  0  0  0  0  0
   -2.5985   25.9725  -27.7791 H   0  0  0  0  0  0  0  0  0  0  0  0
   -2.1482   24.6649  -25.1924 H   0  0  0  0  0  0  0  0  0  0  0  0
   -0.5146   23.9256  -25.4116 H   0  0  0  0  0  0  0  0  0  0  0  0
   -0.9172   27.9432  -25.2715 H   0  0  0  0  0  0  0  0  0  0  0  0
   -2.3371   26.8303  -25.0428 H   0  0  0  0  0  0  0  0  0  0  0  0
   -0.8320   27.6116  -22.9785 H   0  0  0  0  0  0  0  0  0  0  0  0
   -1.5220   25.9276  -23.1131 H   0  0  0  0  0  0  0  0  0  0  0  0
    0.4740   25.0320  -23.3710 H   0  0  0  0  0  0  0  0  0  0  0  0
    0.9780   26.4070  -22.5280 H   0  0  0  0  0  0  0  0  0  0  0  0
    1.4676   27.5560  -24.5844 H   0  0  0  0  0  0  0  0  0  0  0  0
    2.3947   26.0181  -24.3845 H   0  0  0  0  0  0  0  0  0  0  0  0
    1.2257   26.5565  -26.6900 H   0  0  0  0  0  0  0  0  0  0  0  0
    1.1373   24.8817  -25.9643 H   0  0  0  0  0  0  0  0  0  0  0  0
   -0.8219   22.1276  -26.8935 H   0  0  0  0  0  0  0  0  0  0  0  0
   -1.5205   21.2856  -29.1297 H   0  0  0  0  0  0  0  0  0  0  0  0
   -3.5789   21.7861  -30.9269 H   0  0  0  0  0  0  0  0  0  0  0  0
   -3.3922   23.4304  -31.6255 H   0  0  0  0  0  0  0  0  0  0  0  0
   -2.0031   22.2915  -31.6255 H   0  0  0  0  0  0  0  0  0  0  0  0
  1  2  1  0
  2  3  1  0
  3  4  1  0
  4  5  2  0
  5  6  1  0
  6  7  1  0
  7  8  1  0
  8  9  1  0
  9 10  1  0
 10 11  1  0
 11 12  1  0
 12 13  1  0
  6 14  2  0
 14 15  1  0
 15 16  2  0
 16 17  1  0
 16  4  1  0
 13  8  1  0
  1 18  1  0
  1 19  1  0
  1 20  1  0
  2 21  1  0
  2 22  1  0
  5 23  1  0
  7 24  1  0
  7 25  1  0
  9 26  1  0
  9 27  1  0
 10 28  1  0
 10 29  1  0
 11 30  1  0
 11 31  1  0
 12 32  1  0
 12 33  1  0
 13 34  1  0
 13 35  1  0
 14 36  1  0
 15 37  1  0
 17 38  1  0
 17 39  1  0
 17 40  1  0
M  CHG  1  11   1
M  END
>  <UniqueID>  (42) 
42

>  <SMILES>  (42) 
CCOc1cc(CN2CC[NH2+]CC2)ccc1C

>  <Energy>  (42) 
46.95404038754988

>  <Genealogy>  (42) 
CCOc1cc(CN2CC[NH2+]CC2)ccc1C (protonated)
CCOc1cc(CN2CC[NH2+]CC2)ccc1C (3D coordinates assigned)
CCOc1cc(CN2CC[NH2+]CC2)ccc1C (nonaromatic ring conformer: 46.95404038754988 kcal/mol)

>  <smiles>  (42) 
CCOc1cc(CN2CCNCC2)ccc1C

>  <score_type>  (42) 
oracle

>  <origin>  (42) 
adg

>  <m_score__min__energy>  (42) 
-7.1100000000000003

>  <m_primary>  (42) 
energy

$$$$
42:0
     RDKit          3D

 69 72  0  0  0  0  0  0  0  0999 V2000
   -5.7950   17.8260  -33.5090 C   0  0  0  0  0  0  0  0  0  0  0  0
   -4.4780   17.7700  -32.9730 O   0  0  0  0  0  0  0  0  0  0  0  0
   -3.3840   18.4790  -33.4920 C   0  0  0  0  0  0  0  0  0  0  0  0
   -2.2670   17.8340  -34.0580 C   0  0  0  0  0  0  0  0  0  0  0  0
   -1.1990   18.5850  -34.5570 C   0  0  0  0  0  0  0  0  0  0  0  0
   -1.2240   19.9870  -34.4880 C   0  0  0  0  0  0  0  0  0  0  0  0
   -0.0950   20.7930  -35.0710 C   0  0  0  0  0  0  0  0  0  0  0  0
    0.9060   21.1790  -33.9770 C   0  0  0  0  0  0  0  0  0  0  0  0
    0.3300   20.9820  -32.6500 N   0  0  0  0  0  0  0  0  0  0  0  0
    0.6550   19.8510  -31.8290 C   0  0  0  0  0  0  0  0  0  0  0  0
    1.5800   19.0670  -32.1690 O   0  0  0  0  0  0  0  0  0  0  0  0
   -0.1790   19.5430  -30.6110 C   0  0  1  0  0  0  0  0  0  0  0  0
    0.5090   20.0420  -29.3270 C   0  0  0  0  0  0  0  0  0  0  0  0
   -0.3660   19.9410  -28.1000 C   0  0  0  0  0  0  0  0  0  0  0  0
   -0.4530   21.0180  -27.1980 C   0  0  0  0  0  0  0  0  0  0  0  0
   -1.2650   20.9180  -26.0620 C   0  0  0  0  0  0  0  0  0  0  0  0
   -2.0000   19.7510  -25.8250 C   0  0  0  0  0  0  0  0  0  0  0  0
   -1.9140   18.6750  -26.7130 C   0  0  0  0  0  0  0  0  0  0  0  0
   -1.0970   18.7650  -27.8440 C   0  0  0  0  0  0  0  0  0  0  0  0
   -1.5060   20.1450  -30.7380 N   0  0  0  0  0  0  0  0  0  0  0  0
   -1.8240   21.5250  -30.5230 C   0  0  0  0  0  0  0  0  0  0  0  0
   -0.9150   22.3840  -30.6950 O   0  0  0  0  0  0  0  0  0  0  0  0
   -3.1890   21.9600  -30.0310 C   0  0  1  0  0  0  0  0  0  0  0  0
   -3.0880   22.6540  -28.6490 C   0  0  0  0  0  0  0  0  0  0  0  0
   -3.3790   24.1480  -28.8590 C   0  0  0  0  0  0  0  0  0  0  0  0
   -3.8560   24.2040  -30.2510 C   0  0  0  0  0  0  0  0  0  0  0  0
   -4.2700   25.2600  -30.8020 O   0  0  0  0  0  0  0  0  0  0  0  0
   -3.7720   22.9580  -30.9190 N   0  0  0  0  0  0  0  0  0  0  0  0
   -4.3770   22.6650  -32.2210 C   0  0  0  0  0  0  0  0  0  0  0  0
   -5.8360   22.3340  -32.0550 C   0  0  0  0  0  0  0  0  0  0  0  0
   -6.2590   20.9940  -32.0550 C   0  0  0  0  0  0  0  0  0  0  0  0
   -7.6160   20.6860  -31.9380 C   0  0  0  0  0  0  0  0  0  0  0  0
   -8.5600   21.7100  -31.8290 C   0  0  0  0  0  0  0  0  0  0  0  0
   -8.1480   23.0460  -31.8360 C   0  0  0  0  0  0  0  0  0  0  0  0
   -6.7910   23.3600  -31.9570 C   0  0  0  0  0  0  0  0  0  0  0  0
   -2.3450   20.6270  -33.9400 C   0  0  0  0  0  0  0  0  0  0  0  0
   -3.4120   19.8770  -33.4420 C   0  0  0  0  0  0  0  0  0  0  0  0
   -6.5246   17.8570  -32.6864 H   0  0  0  0  0  0  0  0  0  0  0  0
   -5.9011   18.7295  -34.1275 H   0  0  0  0  0  0  0  0  0  0  0  0
   -5.9774   16.9348  -34.1275 H   0  0  0  0  0  0  0  0  0  0  0  0
   -2.2351   16.7356  -34.1075 H   0  0  0  0  0  0  0  0  0  0  0  0
   -0.3342   18.0748  -35.0062 H   0  0  0  0  0  0  0  0  0  0  0  0
    0.4190   20.1950  -35.8380 H   0  0  0  0  0  0  0  0  0  0  0  0
   -0.5053   21.7100  -35.5190 H   0  0  0  0  0  0  0  0  0  0  0  0
    1.8057   20.5538  -34.0754 H   0  0  0  0  0  0  0  0  0  0  0  0
    1.1619   22.2424  -34.0945 H   0  0  0  0  0  0  0  0  0  0  0  0
   -0.4340   21.6270  -32.3490 H   0  0  0  0  0  0  0  0  0  0  0  0
   -0.2867   18.4506  -30.5405 H   0  0  0  0  0  0  0  0  0  0  0  0
    1.4145   19.4402  -29.1601 H   0  0  0  0  0  0  0  0  0  0  0  0
    0.7395   21.1074  -29.4749 H   0  0  0  0  0  0  0  0  0  0  0  0
    0.1177   21.9394  -27.3859 H   0  0  0  0  0  0  0  0  0  0  0  0
   -1.3254   21.7581  -25.3545 H   0  0  0  0  0  0  0  0  0  0  0  0
   -2.6468   19.6803  -24.9380 H   0  0  0  0  0  0  0  0  0  0  0  0
   -2.4893   17.7571  -26.5219 H   0  0  0  0  0  0  0  0  0  0  0  0
   -1.0249   17.9136  -28.5368 H   0  0  0  0  0  0  0  0  0  0  0  0
   -3.8007   21.0469  -29.9853 H   0  0  0  0  0  0  0  0  0  0  0  0
   -3.8256   22.2215  -27.9570 H   0  0  0  0  0  0  0  0  0  0  0  0
   -2.0865   22.5118  -28.2167 H   0  0  0  0  0  0  0  0  0  0  0  0
   -4.1532   24.5011  -28.1620 H   0  0  0  0  0  0  0  0  0  0  0  0
   -2.5035   24.7884  -28.6763 H   0  0  0  0  0  0  0  0  0  0  0  0
   -4.2762   23.5442  -32.8744 H   0  0  0  0  0  0  0  0  0  0  0  0
   -3.8625   21.8022  -32.6692 H   0  0  0  0  0  0  0  0  0  0  0  0
   -5.5191   20.1853  -32.1474 H   0  0  0  0  0  0  0  0  0  0  0  0
   -7.9421   19.6355  -31.9317 H   0  0  0  0  0  0  0  0  0  0  0  0
   -9.6285   21.4649  -31.7376 H   0  0  0  0  0  0  0  0  0  0  0  0
   -8.8923   23.8510  -31.7462 H   0  0  0  0  0  0  0  0  0  0  0  0
   -6.4704   24.4121  -31.9755 H   0  0  0  0  0  0  0  0  0  0  0  0
   -2.3838   21.7257  -33.9023 H   0  0  0  0  0  0  0  0  0  0  0  0
   -4.2824   20.3896  -33.0065 H   0  0  0  0  0  0  0  0  0  0  0  0
  1  2  1  0
  2  3  1  0
  3  4  2  0
  4  5  1  0
  5  6  2  0
  6  7  1  0
  7  8  1  0
  8  9  1  0
  9 10  1  0
 10 11  2  0
 10 12  1  0
 12 13  1  0
 13 14  1  0
 14 15  2  0
 15 16  1  0
 16 17  2  0
 17 18  1  0
 18 19  2  0
 12 20  1  0
 20 21  1  0
 21 22  2  0
 21 23  1  0
 23 24  1  0
 24 25  1  0
 25 26  1  0
 26 27  2  0
 26 28  1  0
 28 29  1  0
 29 30  1  0
 30 31  2  0
 31 32  1  0
 32 33  2  0
 33 34  1  0
 34 35  2  0
  6 36  1  0
 36 37  2  0
 37  3  1  0
 19 14  1  0
 28 23  1  0
 35 30  1  0
  1 38  1  0
  1 39  1  0
  1 40  1  0
  4 41  1  0
  5 42  1  0
  7 43  1  0
  7 44  1  0
  8 45  1  0
  8 46  1  0
  9 47  1  0
 12 48  1  1
 13 49  1  0
 13 50  1  0
 15 51  1  0
 16 52  1  0
 17 53  1  0
 18 54  1  0
 19 55  1  0
 23 56  1  1
 24 57  1  0
 24 58  1  0
 25 59  1  0
 25 60  1  0
 29 61  1  0
 29 62  1  0
 31 63  1  0
 32 64  1  0
 33 65  1  0
 34 66  1  0
 35 67  1  0
 36 68  1  0
 37 69  1  0
M  CHG  1  20  -1
M  END
>  <UniqueID>  (43) 
43

>  <SMILES>  (43) 
COc1ccc(CCNC(=O)[C@@H](Cc2ccccc2)[N-]C(=O)[C@H]2CCC(=O)N2Cc2ccccc2)cc1

>  <Energy>  (43) 
67.34827633786158

>  <Genealogy>  (43) 
COc1ccc(CCNC(=O)C(Cc2ccccc2)[N-]C(=O)C2CCC(=O)N2Cc2ccccc2)cc1 (protonated)
COc1ccc(CCNC(=O)[C@@H](Cc2ccccc2)[N-]C(=O)[C@H]2CCC(=O)N2Cc2ccccc2)cc1 (chirality)
COc1ccc(CCNC(=O)[C@@H](Cc2ccccc2)[N-]C(=O)[C@H]2CCC(=O)N2Cc2ccccc2)cc1 (3D coordinates assigned)
COc1ccc(CCNC(=O)[C@@H](Cc2ccccc2)[N-]C(=O)[C@H]2CCC(=O)N2Cc2ccccc2)cc1 (nonaromatic ring conformer: 67.34827633786158 kcal/mol)

>  <smiles>  (43) 
COc1ccc(CCNC(=O)C(Cc2ccccc2)NC(=O)C2CCC(=O)N2Cc2ccccc2)cc1

>  <score_type>  (43) 
oracle

>  <origin>  (43) 
adg

>  <m_score__min__energy>  (43) 
-12.449999999999999

>  <m_primary>  (43) 
energy

$$$$
43:0
     RDKit          3D

 38 40  0  0  0  0  0  0  0  0999 V2000
   -9.1130   18.2190  -31.5990 C   0  0  0  0  0  0  0  0  0  0  0  0
   -7.9460   19.0730  -32.0240 C   0  0  0  0  0  0  0  0  0  0  0  0
   -7.8470   20.3820  -31.5330 C   0  0  0  0  0  0  0  0  0  0  0  0
   -6.7740   21.2020  -31.9080 C   0  0  0  0  0  0  0  0  0  0  0  0
   -6.6670   22.5390  -31.3830 N   0  0  0  0  0  0  0  0  0  0  0  0
   -6.2930   23.6460  -32.2680 C   0  0  0  0  0  0  0  0  0  0  0  0
   -5.7480   24.8330  -31.4530 C   0  0  0  0  0  0  0  0  0  0  0  0
   -4.9330   24.3830  -30.3040 N   0  0  0  0  0  0  0  0  0  0  0  0
   -3.6790   23.7440  -30.7380 C   0  0  0  0  0  0  0  0  0  0  0  0
   -5.6870   23.5310  -29.3480 C   0  0  0  0  0  0  0  0  0  0  0  0
   -6.9100   22.8270  -29.9670 C   0  0  0  0  0  0  0  0  0  0  0  0
   -5.8120   20.7140  -32.7410 N   0  0  0  0  0  0  0  0  0  0  0  0
   -5.8680   19.4470  -33.2430 C   0  0  0  0  0  0  0  0  0  0  0  0
   -4.8590   18.9880  -34.1060 C   0  0  0  0  0  0  0  0  0  0  0  0
   -4.9090   17.6940  -34.6250 C   0  0  0  0  0  0  0  0  0  0  0  0
   -5.9630   16.8440  -34.2880 C   0  0  0  0  0  0  0  0  0  0  0  0
   -6.9750   17.2830  -33.4310 C   0  0  0  0  0  0  0  0  0  0  0  0
   -6.9430   18.5890  -32.8960 C   0  0  0  0  0  0  0  0  0  0  0  0
   -9.1609   18.1839  -30.5006 H   0  0  0  0  0  0  0  0  0  0  0  0
  -10.0453   18.6497  -31.9931 H   0  0  0  0  0  0  0  0  0  0  0  0
   -8.9845   17.2001  -31.9931 H   0  0  0  0  0  0  0  0  0  0  0  0
   -8.6167   20.7684  -30.8487 H   0  0  0  0  0  0  0  0  0  0  0  0
   -5.5175   23.3024  -32.9684 H   0  0  0  0  0  0  0  0  0  0  0  0
   -7.1859   23.9755  -32.8194 H   0  0  0  0  0  0  0  0  0  0  0  0
   -5.1243   25.4584  -32.1086 H   0  0  0  0  0  0  0  0  0  0  0  0
   -6.6050   25.4013  -31.0623 H   0  0  0  0  0  0  0  0  0  0  0  0
   -3.0945   23.4462  -29.8550 H   0  0  0  0  0  0  0  0  0  0  0  0
   -3.9107   22.8541  -31.3416 H   0  0  0  0  0  0  0  0  0  0  0  0
   -3.0952   24.4545  -31.3416 H   0  0  0  0  0  0  0  0  0  0  0  0
   -5.0049   22.7610  -28.9584 H   0  0  0  0  0  0  0  0  0  0  0  0
   -6.0679   24.1969  -28.5597 H   0  0  0  0  0  0  0  0  0  0  0  0
   -7.0959   21.8843  -29.4315 H   0  0  0  0  0  0  0  0  0  0  0  0
   -7.7853   23.4876  -29.8808 H   0  0  0  0  0  0  0  0  0  0  0  0
   -5.0180   21.3360  -33.0150 H   0  0  0  0  0  0  0  0  0  0  0  0
   -4.0246   19.6528  -34.3741 H   0  0  0  0  0  0  0  0  0  0  0  0
   -4.1157   17.3430  -35.3014 H   0  0  0  0  0  0  0  0  0  0  0  0
   -5.9971   15.8242  -34.6988 H   0  0  0  0  0  0  0  0  0  0  0  0
   -7.8025   16.6064  -33.1712 H   0  0  0  0  0  0  0  0  0  0  0  0
  1  2  1  0
  2  3  2  0
  3  4  1  0
  4  5  1  0
  5  6  1  0
  6  7  1  0
  7  8  1  0
  8  9  1  0
  8 10  1  0
 10 11  1  0
  4 12  2  0
 12 13  1  0
 13 14  2  0
 14 15  1  0
 15 16  2  0
 16 17  1  0
 17 18  2  0
 18  2  1  0
 11  5  1  0
 18 13  1  0
  1 19  1  0
  1 20  1  0
  1 21  1  0
  3 22  1  0
  6 23  1  0
  6 24  1  0
  7 25  1  0
  7 26  1  0
  9 27  1  0
  9 28  1  0
  9 29  1  0
 10 30  1  0
 10 31  1  0
 11 32  1  0
 11 33  1  0
 12 34  1  0
 14 35  1  0
 15 36  1  0
 16 37  1  0
 17 38  1  0
M  CHG  1  12   1
M  END
>  <UniqueID>  (44) 
44

>  <SMILES>  (44) 
Cc1cc(N2CCN(C)CC2)[nH+]c2ccccc12

>  <Energy>  (44) 
54.76471226724347

>  <Genealogy>  (44) 
Cc1cc(N2CCN(C)CC2)[nH+]c2ccccc12 (protonated)
Cc1cc(N2CCN(C)CC2)[nH+]c2ccccc12 (3D coordinates assigned)
Cc1cc(N2CCN(C)CC2)[nH+]c2ccccc12 (nonaromatic ring conformer: 54.76471226724347 kcal/mol)

>  <smiles>  (44) 
Cc1cc(N2CCN(C)CC2)nc2ccccc12

>  <score_type>  (44) 
oracle

>  <origin>  (44) 
adg

>  <m_score__min__energy>  (44) 
-6.5

>  <m_primary>  (44) 
energy

$$$$
44:0
     RDKit          3D

 37 39  0  0  0  0  0  0  0  0999 V2000
  -10.1620   21.1860  -32.0040 N   0  0  0  0  0  0  0  0  0  0  0  0
   -9.0630   21.5240  -31.8780 C   0  0  0  0  0  0  0  0  0  0  0  0
   -7.6930   21.9470  -31.7210 C   0  0  0  0  0  0  0  0  0  0  0  0
   -7.4180   23.1870  -31.1350 C   0  0  0  0  0  0  0  0  0  0  0  0
   -6.0980   23.6220  -31.0110 C   0  0  0  0  0  0  0  0  0  0  0  0
   -5.7090   25.3130  -30.2150 Br  0  0  0  0  0  0  0  0  0  0  0  0
   -5.0640   22.8090  -31.4810 C   0  0  0  0  0  0  0  0  0  0  0  0
   -5.3440   21.6050  -32.0490 N   0  0  0  0  0  0  0  0  0  0  0  0
   -6.6240   21.1510  -32.1730 C   0  0  0  0  0  0  0  0  0  0  0  0
   -6.8610   19.8730  -32.7800 N   0  0  0  0  0  0  0  0  0  0  0  0
   -7.3910   18.7740  -31.9600 C   0  0  0  0  0  0  0  0  0  0  0  0
   -7.4950   17.4790  -32.7710 C   0  0  0  0  0  0  0  0  0  0  0  0
   -6.2560   17.2680  -33.5300 N   0  0  0  0  0  0  0  0  0  0  0  0
   -5.5440   16.0260  -33.4130 C   0  0  0  0  0  0  0  0  0  0  0  0
   -4.3080   15.9860  -32.7470 C   0  0  0  0  0  0  0  0  0  0  0  0
   -3.6030   14.7840  -32.6390 C   0  0  0  0  0  0  0  0  0  0  0  0
   -4.1280   13.6130  -33.1920 C   0  0  0  0  0  0  0  0  0  0  0  0
   -5.3580   13.6430  -33.8530 C   0  0  0  0  0  0  0  0  0  0  0  0
   -6.0680   14.8420  -33.9650 C   0  0  0  0  0  0  0  0  0  0  0  0
   -7.2760   14.8440  -34.5810 F   0  0  0  0  0  0  0  0  0  0  0  0
   -5.6690   18.3660  -34.3130 C   0  0  0  0  0  0  0  0  0  0  0  0
   -6.4890   19.6550  -34.1810 C   0  0  0  0  0  0  0  0  0  0  0  0
   -8.2420   23.8189  -30.7721 H   0  0  0  0  0  0  0  0  0  0  0  0
   -4.0199   23.1434  -31.3916 H   0  0  0  0  0  0  0  0  0  0  0  0
   -4.5530   21.0130  -32.3900 H   0  0  0  0  0  0  0  0  0  0  0  0
   -6.7198   18.6087  -31.1043 H   0  0  0  0  0  0  0  0  0  0  0  0
   -8.3981   19.0509  -31.6148 H   0  0  0  0  0  0  0  0  0  0  0  0
   -7.6537   16.6317  -32.0877 H   0  0  0  0  0  0  0  0  0  0  0  0
   -8.3412   17.5544  -33.4698 H   0  0  0  0  0  0  0  0  0  0  0  0
   -3.8928   16.9053  -32.3082 H   0  0  0  0  0  0  0  0  0  0  0  0
   -2.6343   14.7598  -32.1184 H   0  0  0  0  0  0  0  0  0  0  0  0
   -3.5725   12.6674  -33.1067 H   0  0  0  0  0  0  0  0  0  0  0  0
   -5.7695   12.7198  -34.2870 H   0  0  0  0  0  0  0  0  0  0  0  0
   -4.6470   18.5547  -33.9527 H   0  0  0  0  0  0  0  0  0  0  0  0
   -5.6637   18.0687  -35.3720 H   0  0  0  0  0  0  0  0  0  0  0  0
   -5.8887   20.5061  -34.5349 H   0  0  0  0  0  0  0  0  0  0  0  0
   -7.4028   19.5645  -34.7867 H   0  0  0  0  0  0  0  0  0  0  0  0
  1  2  3  0
  2  3  1  0
  3  4  2  0
  4  5  1  0
  5  6  1  0
  5  7  2  0
  7  8  1  0
  8  9  2  0
  9 10  1  0
 10 11  1  0
 11 12  1  0
 12 13  1  0
 13 14  1  0
 14 15  2  0
 15 16  1  0
 16 17  2  0
 17 18  1  0
 18 19  2  0
 19 20  1  0
 13 21  1  0
 21 22  1  0
  9  3  1  0
 22 10  1  0
 19 14  1  0
  4 23  1  0
  7 24  1  0
  8 25  1  0
 11 26  1  0
 11 27  1  0
 12 28  1  0
 12 29  1  0
 15 30  1  0
 16 31  1  0
 17 32  1  0
 18 33  1  0
 21 34  1  0
 21 35  1  0
 22 36  1  0
 22 37  1  0
M  CHG  1   8   1
M  END
>  <UniqueID>  (45) 
45

>  <SMILES>  (45) 
N#Cc1cc(Br)c[nH+]c1N1CCN(c2ccccc2F)CC1

>  <Energy>  (45) 
49.18658367292313

>  <Genealogy>  (45) 
N#Cc1cc(Br)c[nH+]c1N1CCN(c2ccccc2F)CC1 (protonated)
N#Cc1cc(Br)c[nH+]c1N1CCN(c2ccccc2F)CC1 (3D coordinates assigned)
N#Cc1cc(Br)c[nH+]c1N1CCN(c2ccccc2F)CC1 (nonaromatic ring conformer: 49.18658367292313 kcal/mol)

>  <smiles>  (45) 
N#Cc1cc(Br)cnc1N1CCN(c2ccccc2F)CC1

>  <score_type>  (45) 
oracle

>  <origin>  (45) 
adg

>  <m_score__min__energy>  (45) 
-6.7000000000000002

>  <m_primary>  (45) 
energy

$$$$
45:0
     RDKit          3D

 45 48  0  0  0  0  0  0  0  0999 V2000
   -5.5450   18.9450  -33.8710 C   0  0  0  0  0  0  0  0  0  0  0  0
   -5.7910   20.1050  -33.0850 O   0  0  0  0  0  0  0  0  0  0  0  0
   -7.0500   20.4760  -32.5860 C   0  0  0  0  0  0  0  0  0  0  0  0
   -8.2130   19.7290  -32.8620 C   0  0  0  0  0  0  0  0  0  0  0  0
   -9.4520   20.1430  -32.3640 C   0  0  0  0  0  0  0  0  0  0  0  0
   -9.5460   21.3010  -31.5910 C   0  0  0  0  0  0  0  0  0  0  0  0
   -8.4000   22.0470  -31.3090 C   0  0  0  0  0  0  0  0  0  0  0  0
   -7.1500   21.6380  -31.7970 C   0  0  0  0  0  0  0  0  0  0  0  0
   -5.9820   22.4130  -31.4950 N   0  0  0  0  0  0  0  0  0  0  0  0
   -5.9890   23.8670  -31.6700 C   0  0  0  0  0  0  0  0  0  0  0  0
   -5.1750   24.5050  -30.5430 C   0  0  0  0  0  0  0  0  0  0  0  0
   -3.7710   24.0210  -30.5120 N   0  0  0  0  0  0  0  0  0  0  0  0
   -3.2100   24.1250  -29.1490 C   0  0  0  0  0  0  0  0  0  0  0  0
   -2.7170   22.7830  -28.6770 C   0  0  0  0  0  0  0  0  0  0  0  0
   -1.4050   22.3400  -29.0040 C   0  0  0  0  0  0  0  0  0  0  0  0
   -0.9360   21.0880  -28.5580 C   0  0  0  0  0  0  0  0  0  0  0  0
   -1.8040   20.3160  -27.7940 C   0  0  0  0  0  0  0  0  0  0  0  0
   -1.6060   19.1030  -27.2520 N   0  0  0  0  0  0  0  0  0  0  0  0
   -2.7310   18.8320  -26.6360 O   0  0  0  0  0  0  0  0  0  0  0  0
   -3.6280   19.7770  -26.7440 N   0  0  0  0  0  0  0  0  0  0  0  0
   -3.0550   20.7340  -27.4810 C   0  0  0  0  0  0  0  0  0  0  0  0
   -3.5630   21.9600  -27.8970 C   0  0  0  0  0  0  0  0  0  0  0  0
   -3.5590   22.6740  -31.1050 C   0  0  0  0  0  0  0  0  0  0  0  0
   -4.7810   21.7530  -30.9750 C   0  0  0  0  0  0  0  0  0  0  0  0
   -5.3627   18.0855  -33.2091 H   0  0  0  0  0  0  0  0  0  0  0  0
   -6.4196   18.7400  -34.5058 H   0  0  0  0  0  0  0  0  0  0  0  0
   -4.6624   19.1126  -34.5058 H   0  0  0  0  0  0  0  0  0  0  0  0
   -8.1454   18.8161  -33.4720 H   0  0  0  0  0  0  0  0  0  0  0  0
  -10.3553   19.5543  -32.5821 H   0  0  0  0  0  0  0  0  0  0  0  0
  -10.5230   21.6261  -31.2039 H   0  0  0  0  0  0  0  0  0  0  0  0
   -8.4777   22.9603  -30.7009 H   0  0  0  0  0  0  0  0  0  0  0  0
   -5.5405   24.1243  -32.6409 H   0  0  0  0  0  0  0  0  0  0  0  0
   -7.0230   24.2411  -31.6411 H   0  0  0  0  0  0  0  0  0  0  0  0
   -5.1692   25.5957  -30.6856 H   0  0  0  0  0  0  0  0  0  0  0  0
   -5.6466   24.2247  -29.5896 H   0  0  0  0  0  0  0  0  0  0  0  0
   -2.3712   24.8365  -29.1563 H   0  0  0  0  0  0  0  0  0  0  0  0
   -3.9983   24.4744  -28.4659 H   0  0  0  0  0  0  0  0  0  0  0  0
   -0.7497   22.9816  -29.6114 H   0  0  0  0  0  0  0  0  0  0  0  0
    0.0765   20.7356  -28.8045 H   0  0  0  0  0  0  0  0  0  0  0  0
   -4.5870   19.7650  -26.3320 H   0  0  0  0  0  0  0  0  0  0  0  0
   -4.5819   22.2771  -27.6302 H   0  0  0  0  0  0  0  0  0  0  0  0
   -3.3257   22.7957  -32.1731 H   0  0  0  0  0  0  0  0  0  0  0  0
   -2.7345   22.2008  -30.5515 H   0  0  0  0  0  0  0  0  0  0  0  0
   -4.6002   20.8298  -31.5452 H   0  0  0  0  0  0  0  0  0  0  0  0
   -4.9372   21.5190  -29.9116 H   0  0  0  0  0  0  0  0  0  0  0  0
  1  2  1  0
  2  3  1  0
  3  4  2  0
  4  5  1  0
  5  6  2  0
  6  7  1  0
  7  8  2  0
  8  9  1  0
  9 10  1  0
 10 11  1  0
 11 12  1  0
 12 13  1  0
 13 14  1  0
 14 15  1  0
 15 16  2  0
 16 17  1  0
 17 18  2  0
 18 19  1  0
 19 20  1  0
 20 21  2  0
 21 22  1  0
 12 23  1  0
 23 24  1  0
  8  3  1  0
 24  9  1  0
 22 14  2  0
 21 17  1  0
  1 25  1  0
  1 26  1  0
  1 27  1  0
  4 28  1  0
  5 29  1  0
  6 30  1  0
  7 31  1  0
 10 32  1  0
 10 33  1  0
 11 34  1  0
 11 35  1  0
 13 36  1  0
 13 37  1  0
 15 38  1  0
 16 39  1  0
 20 40  1  0
 22 41  1  0
 23 42  1  0
 23 43  1  0
 24 44  1  0
 24 45  1  0
M  CHG  1  20   1
M  END
>  <UniqueID>  (46) 
46

>  <SMILES>  (46) 
COc1ccccc1N1CCN(Cc2ccc3no[nH+]c3c2)CC1

>  <Energy>  (46) 
104.83270465836829

>  <Genealogy>  (46) 
COc1ccccc1N1CCN(Cc2ccc3no[nH+]c3c2)CC1 (protonated)
COc1ccccc1N1CCN(Cc2ccc3no[nH+]c3c2)CC1 (3D coordinates assigned)
COc1ccccc1N1CCN(Cc2ccc3no[nH+]c3c2)CC1 (nonaromatic ring conformer: 104.83270465836829 kcal/mol)

>  <smiles>  (46) 
COc1ccccc1N1CCN(Cc2ccc3nonc3c2)CC1

>  <score_type>  (46) 
oracle

>  <origin>  (46) 
adg

>  <m_score__min__energy>  (46) 
-9.0399999999999991

>  <m_primary>  (46) 
energy

$$$$
46:0
     RDKit          3D

 41 43  0  0  0  0  0  0  0  0999 V2000
   -0.5240   26.7520  -23.4140 C   0  0  0  0  0  0  0  0  0  0  0  0
   -1.1930   27.2420  -24.5710 O   0  0  0  0  0  0  0  0  0  0  0  0
   -1.5680   26.4470  -25.6650 C   0  0  0  0  0  0  0  0  0  0  0  0
   -0.7470   26.4440  -26.7960 C   0  0  0  0  0  0  0  0  0  0  0  0
   -1.0760   25.6700  -27.9110 C   0  0  0  0  0  0  0  0  0  0  0  0
   -2.2340   24.8730  -27.9140 C   0  0  0  0  0  0  0  0  0  0  0  0
   -2.5460   24.0590  -29.1130 C   0  0  0  0  0  0  0  0  0  0  0  0
   -1.7410   23.1190  -29.7260 C   0  0  0  0  0  0  0  0  0  0  0  0
   -2.3760   22.6280  -30.8030 N   0  0  0  0  0  0  0  0  0  0  0  0
   -3.5490   23.2930  -30.8220 C   0  0  0  0  0  0  0  0  0  0  0  0
   -4.6140   23.0450  -31.8540 C   0  0  1  0  0  0  0  0  0  0  0  0
   -4.2380   21.8790  -32.7720 C   0  0  0  0  0  0  0  0  0  0  0  0
   -5.5180   21.0670  -32.9510 C   0  0  0  0  0  0  0  0  0  0  0  0
   -6.4040   21.4170  -31.7640 C   0  0  0  0  0  0  0  0  0  0  0  0
   -5.8720   22.6600  -31.2280 N   0  0  0  0  0  0  0  0  0  0  0  0
   -6.5850   23.4990  -30.2990 C   0  0  0  0  0  0  0  0  0  0  0  0
   -7.2820   22.9690  -29.3900 O   0  0  0  0  0  0  0  0  0  0  0  0
   -6.4650   24.9970  -30.3540 C   0  0  0  0  0  0  0  0  0  0  0  0
   -6.1340   25.5380  -29.0380 N   0  0  0  0  0  0  0  0  0  0  0  0
   -3.6930   24.1710  -29.8080 N   0  0  0  0  0  0  0  0  0  0  0  0
   -3.0690   24.8850  -26.7780 C   0  0  0  0  0  0  0  0  0  0  0  0
   -4.2290   24.1830  -26.7510 F   0  0  0  0  0  0  0  0  0  0  0  0
   -2.7350   25.6630  -25.6650 C   0  0  0  0  0  0  0  0  0  0  0  0
   -1.0317   27.1239  -22.5118 H   0  0  0  0  0  0  0  0  0  0  0  0
   -0.5424   25.6522  -23.4181 H   0  0  0  0  0  0  0  0  0  0  0  0
    0.5191   27.1013  -23.4181 H   0  0  0  0  0  0  0  0  0  0  0  0
    0.1665   27.0567  -26.8081 H   0  0  0  0  0  0  0  0  0  0  0  0
   -0.4225   25.6842  -28.7957 H   0  0  0  0  0  0  0  0  0  0  0  0
   -0.7385   22.8198  -29.3861 H   0  0  0  0  0  0  0  0  0  0  0  0
   -4.7127   23.9845  -32.4175 H   0  0  0  0  0  0  0  0  0  0  0  0
   -3.8825   22.2542  -33.7430 H   0  0  0  0  0  0  0  0  0  0  0  0
   -3.4269   21.2707  -32.3453 H   0  0  0  0  0  0  0  0  0  0  0  0
   -6.0155   21.3399  -33.8933 H   0  0  0  0  0  0  0  0  0  0  0  0
   -5.3088   19.9879  -32.9943 H   0  0  0  0  0  0  0  0  0  0  0  0
   -7.4454   21.5548  -32.0903 H   0  0  0  0  0  0  0  0  0  0  0  0
   -6.4053   20.6172  -31.0089 H   0  0  0  0  0  0  0  0  0  0  0  0
   -5.6722   25.2697  -31.0662 H   0  0  0  0  0  0  0  0  0  0  0  0
   -7.4292   25.4171  -30.6763 H   0  0  0  0  0  0  0  0  0  0  0  0
   -6.4180   24.8300  -28.3230 H   0  0  0  0  0  0  0  0  0  0  0  0
   -5.0930   25.6250  -28.9730 H   0  0  0  0  0  0  0  0  0  0  0  0
   -3.3910   25.6615  -24.7820 H   0  0  0  0  0  0  0  0  0  0  0  0
  1  2  1  0
  2  3  1  0
  3  4  2  0
  4  5  1  0
  5  6  2  0
  6  7  1  0
  7  8  2  0
  8  9  1  0
  9 10  1  0
 10 11  1  0
 11 12  1  0
 12 13  1  0
 13 14  1  0
 14 15  1  0
 15 16  1  0
 16 17  2  0
 16 18  1  0
 18 19  1  0
 10 20  2  0
  6 21  1  0
 21 22  1  0
 21 23  2  0
 23  3  1  0
 20  7  1  0
 15 11  1  0
  1 24  1  0
  1 25  1  0
  1 26  1  0
  4 27  1  0
  5 28  1  0
  8 29  1  0
 11 30  1  6
 12 31  1  0
 12 32  1  0
 13 33  1  0
 13 34  1  0
 14 35  1  0
 14 36  1  0
 18 37  1  0
 18 38  1  0
 19 39  1  0
 19 40  1  0
 23 41  1  0
M  CHG  1   9  -1
M  END
>  <UniqueID>  (47) 
47

>  <SMILES>  (47) 
COc1ccc(-c2c[n-]c([C@H]3CCCN3C(=O)CN)n2)c(F)c1

>  <Energy>  (47) 
69.95414794033712

>  <Genealogy>  (47) 
COc1ccc(-c2c[n-]c(C3CCCN3C(=O)CN)n2)c(F)c1 (protonated)
COc1ccc(-c2c[n-]c([C@H]3CCCN3C(=O)CN)n2)c(F)c1 (chirality)
COc1ccc(-c2c[n-]c([C@H]3CCCN3C(=O)CN)n2)c(F)c1 (3D coordinates assigned)
COc1ccc(-c2c[n-]c([C@H]3CCCN3C(=O)CN)n2)c(F)c1 (nonaromatic ring conformer: 69.95414794033712 kcal/mol)

>  <smiles>  (47) 
COc1ccc(-c2c[nH]c(C3CCCN3C(=O)CN)n2)c(F)c1

>  <score_type>  (47) 
oracle

>  <origin>  (47) 
adg

>  <m_score__min__energy>  (47) 
-8.1099999999999994

>  <m_primary>  (47) 
energy

$$$$
47:0
     RDKit          3D

 32 33  0  0  0  0  0  0  0  0999 V2000
   -9.1680   20.0200  -32.2230 C   0  0  0  0  0  0  0  0  0  0  0  0
   -7.9950   20.9600  -32.1320 C   0  0  0  0  0  0  0  0  0  0  0  0
   -8.1740   22.2310  -31.5620 C   0  0  0  0  0  0  0  0  0  0  0  0
   -7.1060   23.1240  -31.4680 C   0  0  0  0  0  0  0  0  0  0  0  0
   -5.8380   22.7660  -31.9300 C   0  0  0  0  0  0  0  0  0  0  0  0
   -4.7990   23.7010  -31.8200 O   0  0  0  0  0  0  0  0  0  0  0  0
   -4.4790   24.4210  -30.6610 C   0  0  0  0  0  0  0  0  0  0  0  0
   -4.3710   25.6770  -30.6840 O   0  0  0  0  0  0  0  0  0  0  0  0
   -4.2570   23.6820  -29.3830 C   0  0  0  0  0  0  0  0  0  0  0  0
   -2.8330   23.3930  -29.2210 N   0  0  0  0  0  0  0  0  0  0  0  0
   -2.2560   22.1780  -29.1430 C   0  0  0  0  0  0  0  0  0  0  0  0
   -2.9610   20.9810  -29.1390 O   0  0  0  0  0  0  0  0  0  0  0  0
   -0.8810   22.2850  -29.0790 C   0  0  0  0  0  0  0  0  0  0  0  0
   -0.5990   23.6400  -29.1360 C   0  0  0  0  0  0  0  0  0  0  0  0
   -1.8190   24.2800  -29.2310 C   0  0  0  0  0  0  0  0  0  0  0  0
   -1.9890   25.6550  -29.3370 O   0  0  0  0  0  0  0  0  0  0  0  0
   -5.6530   21.5050  -32.5240 C   0  0  0  0  0  0  0  0  0  0  0  0
   -6.7210   20.5960  -32.6280 C   0  0  0  0  0  0  0  0  0  0  0  0
   -6.4880   19.2530  -33.2690 C   0  0  0  0  0  0  0  0  0  0  0  0
   -9.5025   19.7519  -31.2100 H   0  0  0  0  0  0  0  0  0  0  0  0
   -9.9908   20.5116  -32.7628 H   0  0  0  0  0  0  0  0  0  0  0  0
   -8.8675   19.1099  -32.7628 H   0  0  0  0  0  0  0  0  0  0  0  0
   -9.1651   22.5252  -31.1863 H   0  0  0  0  0  0  0  0  0  0  0  0
   -7.2644   24.1188  -31.0260 H   0  0  0  0  0  0  0  0  0  0  0  0
   -4.6032   24.2978  -28.5398 H   0  0  0  0  0  0  0  0  0  0  0  0
   -4.8198   22.7372  -29.4064 H   0  0  0  0  0  0  0  0  0  0  0  0
   -0.1564   21.4613  -28.9990 H   0  0  0  0  0  0  0  0  0  0  0  0
    0.3949   24.1106  -29.1107 H   0  0  0  0  0  0  0  0  0  0  0  0
   -4.6620   21.2265  -32.9116 H   0  0  0  0  0  0  0  0  0  0  0  0
   -6.3558   18.4912  -32.4865 H   0  0  0  0  0  0  0  0  0  0  0  0
   -7.3539   18.9900  -33.8943 H   0  0  0  0  0  0  0  0  0  0  0  0
   -5.5841   19.2970  -33.8943 H   0  0  0  0  0  0  0  0  0  0  0  0
  1  2  1  0
  2  3  2  0
  3  4  1  0
  4  5  2  0
  5  6  1  0
  6  7  1  0
  7  8  2  0
  7  9  1  0
  9 10  1  0
 10 11  1  0
 11 12  1  0
 11 13  2  0
 13 14  1  0
 14 15  2  0
 15 16  1  0
  5 17  1  0
 17 18  2  0
 18 19  1  0
 18  2  1  0
 15 10  1  0
  1 20  1  0
  1 21  1  0
  1 22  1  0
  3 23  1  0
  4 24  1  0
  9 25  1  0
  9 26  1  0
 13 27  1  0
 14 28  1  0
 17 29  1  0
 19 30  1  0
 19 31  1  0
 19 32  1  0
M  CHG  2  12  -1  16  -1
M  END
>  <UniqueID>  (48) 
48

>  <SMILES>  (48) 
Cc1ccc(OC(=O)Cn2c([O-])ccc2[O-])cc1C

>  <Energy>  (48) 
62.657452134664844

>  <Genealogy>  (48) 
Cc1ccc(OC(=O)Cn2c([O-])ccc2[O-])cc1C (protonated)
Cc1ccc(OC(=O)Cn2c([O-])ccc2[O-])cc1C (3D coordinates assigned)
Cc1ccc(OC(=O)Cn2c([O-])ccc2[O-])cc1C (optimized conformer: 62.657452134664844 kcal/mol)

>  <smiles>  (48) 
Cc1ccc(OC(=O)Cn2c(O)ccc2O)cc1C

>  <score_type>  (48) 
oracle

>  <origin>  (48) 
adg

>  <m_score__min__energy>  (48) 
-10.32

>  <m_primary>  (48) 
energy

$$$$
48:0
     RDKit          3D

 41 42  0  0  0  0  0  0  0  0999 V2000
   -6.3850   25.8600  -29.3090 C   0  0  0  0  0  0  0  0  0  0  0  0
   -5.6600   25.2760  -30.8760 S   0  0  0  0  0  0  0  0  0  0  0  0
   -4.8650   23.7900  -30.1660 C   0  0  0  0  0  0  0  0  0  0  0  0
   -4.7080   22.7080  -31.2000 C   0  0  0  0  0  0  0  0  0  0  0  0
   -3.6410   22.6800  -31.8720 O   0  0  0  0  0  0  0  0  0  0  0  0
   -5.7430   21.7320  -31.4590 N   0  0  0  0  0  0  0  0  0  0  0  0
   -7.0860   21.8530  -30.8740 C   0  0  0  0  0  0  0  0  0  0  0  0
   -8.1550   22.0010  -31.9700 C   0  0  0  0  0  0  0  0  0  0  0  0
   -8.7060   20.6330  -32.4250 C   0  0  0  0  0  0  0  0  0  0  0  0
   -7.6750   19.6650  -32.8850 N   0  0  0  0  0  0  0  0  0  0  0  0
   -7.4680   18.5730  -31.9110 C   0  0  0  0  0  0  0  0  0  0  0  0
   -6.6610   17.4710  -32.5280 C   0  0  0  0  0  0  0  0  0  0  0  0
   -6.7990   16.9470  -33.7980 C   0  0  0  0  0  0  0  0  0  0  0  0
   -5.9160   15.9410  -33.9580 N   0  0  0  0  0  0  0  0  0  0  0  0
   -5.2260   15.8320  -32.8330 N   0  0  0  0  0  0  0  0  0  0  0  0
   -4.2220   14.8060  -32.5930 C   0  0  0  0  0  0  0  0  0  0  0  0
   -5.6590   16.7350  -31.9340 C   0  0  0  0  0  0  0  0  0  0  0  0
   -6.3740   20.2380  -33.3080 C   0  0  0  0  0  0  0  0  0  0  0  0
   -5.3960   20.4830  -32.1490 C   0  0  0  0  0  0  0  0  0  0  0  0
   -5.8365   25.4182  -28.4641 H   0  0  0  0  0  0  0  0  0  0  0  0
   -6.3146   26.9566  -29.2586 H   0  0  0  0  0  0  0  0  0  0  0  0
   -7.4414   25.5577  -29.2586 H   0  0  0  0  0  0  0  0  0  0  0  0
   -3.8719   24.0643  -29.7806 H   0  0  0  0  0  0  0  0  0  0  0  0
   -5.5040   23.4072  -29.3566 H   0  0  0  0  0  0  0  0  0  0  0  0
   -7.3020   20.9524  -30.2805 H   0  0  0  0  0  0  0  0  0  0  0  0
   -7.1109   22.7499  -30.2377 H   0  0  0  0  0  0  0  0  0  0  0  0
   -8.9855   22.6061  -31.5774 H   0  0  0  0  0  0  0  0  0  0  0  0
   -7.6871   22.4863  -32.8393 H   0  0  0  0  0  0  0  0  0  0  0  0
   -9.2442   20.1824  -31.5780 H   0  0  0  0  0  0  0  0  0  0  0  0
   -9.3509   20.8332  -33.2934 H   0  0  0  0  0  0  0  0  0  0  0  0
   -6.9340   18.9661  -31.0333 H   0  0  0  0  0  0  0  0  0  0  0  0
   -8.4471   18.1731  -31.6087 H   0  0  0  0  0  0  0  0  0  0  0  0
   -7.5147   17.2947  -34.5575 H   0  0  0  0  0  0  0  0  0  0  0  0
   -4.0887   14.6698  -31.5096 H   0  0  0  0  0  0  0  0  0  0  0  0
   -4.5512   13.8582  -33.0440 H   0  0  0  0  0  0  0  0  0  0  0  0
   -3.2673   15.1146  -33.0440 H   0  0  0  0  0  0  0  0  0  0  0  0
   -5.2809   16.8626  -30.9089 H   0  0  0  0  0  0  0  0  0  0  0  0
   -5.9030   19.5416  -34.0174 H   0  0  0  0  0  0  0  0  0  0  0  0
   -6.5880   21.2186  -33.7582 H   0  0  0  0  0  0  0  0  0  0  0  0
   -5.4548   19.6452  -31.4386 H   0  0  0  0  0  0  0  0  0  0  0  0
   -4.3737   20.5609  -32.5476 H   0  0  0  0  0  0  0  0  0  0  0  0
  1  2  1  0
  2  3  1  0
  3  4  1  0
  4  5  2  0
  4  6  1  0
  6  7  1  0
  7  8  1  0
  8  9  1  0
  9 10  1  0
 10 11  1  0
 11 12  1  0
 12 13  1  0
 13 14  2  0
 14 15  1  0
 15 16  1  0
 15 17  1  0
 10 18  1  0
 18 19  1  0
 19  6  1  0
 17 12  2  0
  1 20  1  0
  1 21  1  0
  1 22  1  0
  3 23  1  0
  3 24  1  0
  7 25  1  0
  7 26  1  0
  8 27  1  0
  8 28  1  0
  9 29  1  0
  9 30  1  0
 11 31  1  0
 11 32  1  0
 13 33  1  0
 16 34  1  0
 16 35  1  0
 16 36  1  0
 17 37  1  0
 18 38  1  0
 18 39  1  0
 19 40  1  0
 19 41  1  0
M  END
>  <UniqueID>  (49) 
49

>  <SMILES>  (49) 
CSCC(=O)N1CCCN(Cc2cnn(C)c2)CC1

>  <Energy>  (49) 
75.02766873355849

>  <Genealogy>  (49) 
CSCC(=O)N1CCCN(Cc2cnn(C)c2)CC1 (3D coordinates assigned)
CSCC(=O)N1CCCN(Cc2cnn(C)c2)CC1 (nonaromatic ring conformer: 75.02766873355849 kcal/mol)

>  <smiles>  (49) 
CSCC(=O)N1CCCN(Cc2cnn(C)c2)CC1

>  <score_type>  (49) 
oracle

>  <origin>  (49) 
adg

>  <m_score__min__energy>  (49) 
-5.0700000000000003

>  <m_primary>  (49) 
energy

$$$$
