0:0
     RDKit          3D

 47 49  0  0  0  0  0  0  0  0999 V2000
   -3.8410   24.1730  -27.1420 C   0  0  0  0  0  0  0  0  0  0  0  0
   -4.2910   23.8250  -28.5640 C   0  0  0  0  0  0  0  0  0  0  0  0
   -5.3700   24.7080  -29.0410 N   0  0  0  0  0  0  0  0  0  0  0  0
   -5.7370   24.4270  -30.4420 C   0  0  0  0  0  0  0  0  0  0  0  0
   -4.8260   23.3530  -31.0660 C   0  0  0  0  0  0  0  0  0  0  0  0
   -5.3170   22.9070  -32.3750 N   0  0  0  0  0  0  0  0  0  0  0  0
   -5.5700   21.5250  -32.6850 C   0  0  0  0  0  0  0  0  0  0  0  0
   -6.8680   21.0030  -32.5390 C   0  0  0  0  0  0  0  0  0  0  0  0
   -7.9480   21.8420  -32.1910 C   0  0  0  0  0  0  0  0  0  0  0  0
   -9.2130   21.3120  -31.9520 C   0  0  0  0  0  0  0  0  0  0  0  0
   -9.4200   19.9410  -32.0420 C   0  0  0  0  0  0  0  0  0  0  0  0
   -8.3740   19.0950  -32.4100 C   0  0  0  0  0  0  0  0  0  0  0  0
   -7.0860   19.6100  -32.7090 C   0  0  0  0  0  0  0  0  0  0  0  0
   -6.0540   18.7900  -33.1280 N   0  0  0  0  0  0  0  0  0  0  0  0
   -6.3430   17.4030  -33.5580 C   0  0  0  0  0  0  0  0  0  0  0  0
   -4.7620   19.2790  -33.1890 C   0  0  0  0  0  0  0  0  0  0  0  0
   -3.6500   18.4220  -33.3860 C   0  0  0  0  0  0  0  0  0  0  0  0
   -2.3620   18.9320  -33.5390 C   0  0  0  0  0  0  0  0  0  0  0  0
   -2.1390   20.3120  -33.5230 C   0  0  0  0  0  0  0  0  0  0  0  0
   -0.7440   20.8660  -33.6800 C   0  0  0  0  0  0  0  0  0  0  0  0
   -0.2610   21.3190  -32.4650 F   0  0  0  0  0  0  0  0  0  0  0  0
   -0.7300   21.9250  -34.5710 F   0  0  0  0  0  0  0  0  0  0  0  0
    0.0900   19.8700  -34.1530 F   0  0  0  0  0  0  0  0  0  0  0  0
   -3.2120   21.1700  -33.2490 C   0  0  0  0  0  0  0  0  0  0  0  0
   -4.5130   20.6660  -33.0350 C   0  0  0  0  0  0  0  0  0  0  0  0
   -4.4950   23.6673  -26.4164 H   0  0  0  0  0  0  0  0  0  0  0  0
   -2.8030   23.8404  -26.9942 H   0  0  0  0  0  0  0  0  0  0  0  0
   -3.9019   25.2613  -26.9942 H   0  0  0  0  0  0  0  0  0  0  0  0
   -3.4296   23.9215  -29.2412 H   0  0  0  0  0  0  0  0  0  0  0  0
   -4.6791   22.7958  -28.5517 H   0  0  0  0  0  0  0  0  0  0  0  0
   -6.2140   24.5410  -28.4420 H   0  0  0  0  0  0  0  0  0  0  0  0
   -5.0880   25.7050  -28.9170 H   0  0  0  0  0  0  0  0  0  0  0  0
   -6.7781   24.0733  -30.4736 H   0  0  0  0  0  0  0  0  0  0  0  0
   -5.6179   25.3552  -31.0201 H   0  0  0  0  0  0  0  0  0  0  0  0
   -3.8165   23.7721  -31.1896 H   0  0  0  0  0  0  0  0  0  0  0  0
   -4.8167   22.4831  -30.3928 H   0  0  0  0  0  0  0  0  0  0  0  0
   -5.5680   23.6300  -33.0880 H   0  0  0  0  0  0  0  0  0  0  0  0
   -7.7885   22.9272  -32.1076 H   0  0  0  0  0  0  0  0  0  0  0  0
  -10.0485   21.9785  -31.6919 H   0  0  0  0  0  0  0  0  0  0  0  0
  -10.4127   19.5212  -31.8222 H   0  0  0  0  0  0  0  0  0  0  0  0
   -8.5504   18.0109  -32.4694 H   0  0  0  0  0  0  0  0  0  0  0  0
   -6.4760   16.7647  -32.6721 H   0  0  0  0  0  0  0  0  0  0  0  0
   -7.2631   17.3901  -34.1607 H   0  0  0  0  0  0  0  0  0  0  0  0
   -5.5046   17.0237  -34.1607 H   0  0  0  0  0  0  0  0  0  0  0  0
   -3.8067   17.3337  -33.4187 H   0  0  0  0  0  0  0  0  0  0  0  0
   -1.5146   18.2436  -33.6733 H   0  0  0  0  0  0  0  0  0  0  0  0
   -3.0377   22.2550  -33.1998 H   0  0  0  0  0  0  0  0  0  0  0  0
  1  2  1  0
  2  3  1  0
  3  4  1  0
  4  5  1  0
  5  6  1  0
  6  7  1  0
  7  8  2  0
  8  9  1  0
  9 10  2  0
 10 11  1  0
 11 12  2  0
 12 13  1  0
 13 14  2  0
 14 15  1  0
 14 16  1  0
 16 17  2  0
 17 18  1  0
 18 19  2  0
 19 20  1  0
 20 21  1  0
 20 22  1  0
 20 23  1  0
 19 24  1  0
 24 25  2  0
 25  7  1  0
 13  8  1  0
 25 16  1  0
  1 26  1  0
  1 27  1  0
  1 28  1  0
  2 29  1  0
  2 30  1  0
  3 31  1  0
  3 32  1  0
  4 33  1  0
  4 34  1  0
  5 35  1  0
  5 36  1  0
  6 37  1  0
  9 38  1  0
 10 39  1  0
 11 40  1  0
 12 41  1  0
 15 42  1  0
 15 43  1  0
 15 44  1  0
 17 45  1  0
 18 46  1  0
 24 47  1  0
M  CHG  2   3   1  14   1
M  END
>  <UniqueID>  (1) 
1

>  <SMILES>  (1) 
CC[NH2+]CCNc1c2ccccc2[n+](C)c2ccc(C(F)(F)F)cc12

>  <Energy>  (1) 
71.26795041389552

>  <Genealogy>  (1) 
CC[NH2+]CCNc1c2ccccc2[n+](C)c2ccc(C(F)(F)F)cc12 (protonated)
CC[NH2+]CCNc1c2ccccc2[n+](C)c2ccc(C(F)(F)F)cc12 (3D coordinates assigned)
CC[NH2+]CCNc1c2ccccc2[n+](C)c2ccc(C(F)(F)F)cc12 (optimized conformer: 71.26795041389552 kcal/mol)

>  <smiles>  (1) 
CCNCCNc1c2ccccc2[n+](C)c2ccc(C(F)(F)F)cc12

>  <score_type>  (1) 
oracle

>  <origin>  (1) 
adg

>  <m_score__min__energy>  (1) 
-7.29

>  <m_primary>  (1) 
energy

$$$$
1:0
     RDKit          3D

 77 80  0  0  0  0  0  0  0  0999 V2000
    0.4060   25.3070  -36.2250 C   0  0  0  0  0  0  0  0  0  0  0  0
    0.9880   23.8960  -36.0980 C   0  0  0  0  0  0  0  0  0  0  0  0
   -0.0270   22.8920  -35.7230 N   0  0  0  0  0  0  0  0  0  0  0  0
    0.4270   21.4910  -35.8100 C   0  0  0  0  0  0  0  0  0  0  0  0
    0.2400   20.7180  -34.4920 C   0  0  0  0  0  0  0  0  0  0  0  0
   -0.4050   21.5300  -33.5290 O   0  0  0  0  0  0  0  0  0  0  0  0
   -1.5220   20.8710  -32.9570 C   0  0  0  0  0  0  0  0  0  0  0  0
   -2.8220   21.5890  -33.3280 C   0  0  0  0  0  0  0  0  0  0  0  0
   -3.8010   21.4910  -32.2400 N   0  0  0  0  0  0  0  0  0  0  0  0
   -5.0620   20.8210  -32.4180 C   0  0  0  0  0  0  0  0  0  0  0  0
   -5.0740   19.4990  -32.9080 C   0  0  0  0  0  0  0  0  0  0  0  0
   -3.8680   18.7940  -33.1310 C   0  0  0  0  0  0  0  0  0  0  0  0
   -3.8750   17.5330  -33.7220 C   0  0  0  0  0  0  0  0  0  0  0  0
   -5.0790   16.9540  -34.1020 C   0  0  0  0  0  0  0  0  0  0  0  0
   -6.2840   17.5980  -33.8230 C   0  0  0  0  0  0  0  0  0  0  0  0
   -6.3080   18.8520  -33.1570 C   0  0  0  0  0  0  0  0  0  0  0  0
   -7.4890   19.4330  -32.7420 N   0  0  0  0  0  0  0  0  0  0  0  0
   -8.7320   18.6250  -32.7050 C   0  0  0  0  0  0  0  0  0  0  0  0
   -7.5050   20.7450  -32.3000 C   0  0  0  0  0  0  0  0  0  0  0  0
   -8.7290   21.4070  -32.0330 C   0  0  0  0  0  0  0  0  0  0  0  0
   -8.7560   22.6710  -31.4670 C   0  0  0  0  0  0  0  0  0  0  0  0
   -7.5770   23.3470  -31.2120 C   0  0  0  0  0  0  0  0  0  0  0  0
   -6.3390   22.7990  -31.5860 C   0  0  0  0  0  0  0  0  0  0  0  0
   -5.1630   23.5620  -31.4570 O   0  0  0  0  0  0  0  0  0  0  0  0
   -5.0020   24.7670  -30.7030 C   0  0  0  0  0  0  0  0  0  0  0  0
   -4.8770   24.5610  -29.1650 C   0  0  0  0  0  0  0  0  0  0  0  0
   -3.7280   23.7290  -28.6660 N   0  0  0  0  0  0  0  0  0  0  0  0
   -3.1930   24.3130  -27.4090 C   0  0  0  0  0  0  0  0  0  0  0  0
   -4.1790   22.3180  -28.4570 C   0  0  0  0  0  0  0  0  0  0  0  0
   -3.0310   21.3280  -28.1910 C   0  0  0  0  0  0  0  0  0  0  0  0
   -2.0060   21.3750  -29.3160 C   0  0  0  0  0  0  0  0  0  0  0  0
   -1.5010   22.8000  -29.5070 C   0  0  0  0  0  0  0  0  0  0  0  0
   -2.6760   23.7730  -29.7320 C   0  0  0  0  0  0  0  0  0  0  0  0
   -6.2870   21.4670  -32.1050 C   0  0  0  0  0  0  0  0  0  0  0  0
    0.2339   25.7243  -35.2219 H   0  0  0  0  0  0  0  0  0  0  0  0
    1.1134   25.9475  -36.7722 H   0  0  0  0  0  0  0  0  0  0  0  0
   -0.5472   25.2626  -36.7722 H   0  0  0  0  0  0  0  0  0  0  0  0
    1.4271   23.6083  -37.0647 H   0  0  0  0  0  0  0  0  0  0  0  0
    1.7432   23.9192  -35.2985 H   0  0  0  0  0  0  0  0  0  0  0  0
   -0.3430   23.0770  -34.7430 H   0  0  0  0  0  0  0  0  0  0  0  0
   -0.8610   23.0140  -36.3440 H   0  0  0  0  0  0  0  0  0  0  0  0
   -0.1480   20.9840  -36.5989 H   0  0  0  0  0  0  0  0  0  0  0  0
    1.5038   21.5062  -36.0340 H   0  0  0  0  0  0  0  0  0  0  0  0
   -0.3724   19.8239  -34.6804 H   0  0  0  0  0  0  0  0  0  0  0  0
    1.2283   20.4262  -34.1071 H   0  0  0  0  0  0  0  0  0  0  0  0
   -1.5614   19.8370  -33.3302 H   0  0  0  0  0  0  0  0  0  0  0  0
   -1.4142   20.8777  -31.8623 H   0  0  0  0  0  0  0  0  0  0  0  0
   -2.6050   22.6496  -33.5232 H   0  0  0  0  0  0  0  0  0  0  0  0
   -3.2438   21.1126  -34.2253 H   0  0  0  0  0  0  0  0  0  0  0  0
   -3.6050   21.9350  -31.3140 H   0  0  0  0  0  0  0  0  0  0  0  0
   -2.9113   19.2482  -32.8334 H   0  0  0  0  0  0  0  0  0  0  0  0
   -2.9290   16.9966  -33.8875 H   0  0  0  0  0  0  0  0  0  0  0  0
   -5.0820   15.9857  -34.6240 H   0  0  0  0  0  0  0  0  0  0  0  0
   -7.2315   17.1269  -34.1237 H   0  0  0  0  0  0  0  0  0  0  0  0
   -9.0176   18.4393  -31.6591 H   0  0  0  0  0  0  0  0  0  0  0  0
   -9.5397   19.1712  -33.2142 H   0  0  0  0  0  0  0  0  0  0  0  0
   -8.5607   17.6651  -33.2142 H   0  0  0  0  0  0  0  0  0  0  0  0
   -9.6771   20.9070  -32.2802 H   0  0  0  0  0  0  0  0  0  0  0  0
   -9.7200   23.1393  -31.2192 H   0  0  0  0  0  0  0  0  0  0  0  0
   -7.6090   24.3254  -30.7104 H   0  0  0  0  0  0  0  0  0  0  0  0
   -4.0912   25.2728  -31.0560 H   0  0  0  0  0  0  0  0  0  0  0  0
   -5.9156   25.3581  -30.8637 H   0  0  0  0  0  0  0  0  0  0  0  0
   -4.7866   25.5564  -28.7057 H   0  0  0  0  0  0  0  0  0  0  0  0
   -5.7762   23.9928  -28.8849 H   0  0  0  0  0  0  0  0  0  0  0  0
   -3.6537   23.8101  -26.5459 H   0  0  0  0  0  0  0  0  0  0  0  0
   -2.1023   24.1739  -27.3752 H   0  0  0  0  0  0  0  0  0  0  0  0
   -3.4269   25.3873  -27.3752 H   0  0  0  0  0  0  0  0  0  0  0  0
   -4.8611   22.2969  -27.5943 H   0  0  0  0  0  0  0  0  0  0  0  0
   -4.6665   21.9977  -29.3896 H   0  0  0  0  0  0  0  0  0  0  0  0
   -2.5390   21.5923  -27.2434 H   0  0  0  0  0  0  0  0  0  0  0  0
   -3.4474   20.3114  -28.1352 H   0  0  0  0  0  0  0  0  0  0  0  0
   -1.1591   20.7199  -29.0638 H   0  0  0  0  0  0  0  0  0  0  0  0
   -2.4796   21.0335  -30.2483 H   0  0  0  0  0  0  0  0  0  0  0  0
   -0.9444   23.1084  -28.6098 H   0  0  0  0  0  0  0  0  0  0  0  0
   -0.8476   22.8264  -30.3915 H   0  0  0  0  0  0  0  0  0  0  0  0
   -2.2727   24.7955  -29.7755 H   0  0  0  0  0  0  0  0  0  0  0  0
   -3.1643   23.4648  -30.6683 H   0  0  0  0  0  0  0  0  0  0  0  0
  1  2  1  0
  2  3  1  0
  3  4  1  0
  4  5  1  0
  5  6  1  0
  6  7  1  0
  7  8  1  0
  8  9  1  0
  9 10  1  0
 10 11  2  0
 11 12  1  0
 12 13  2  0
 13 14  1  0
 14 15  2  0
 15 16  1  0
 16 17  2  0
 17 18  1  0
 17 19  1  0
 19 20  2  0
 20 21  1  0
 21 22  2  0
 22 23  1  0
 23 24  1  0
 24 25  1  0
 25 26  1  0
 26 27  1  0
 27 28  1  0
 27 29  1  0
 29 30  1  0
 30 31  1  0
 31 32  1  0
 32 33  1  0
 23 34  2  0
 34 10  1  0
 16 11  1  0
 34 19  1  0
 33 27  1  0
  1 35  1  0
  1 36  1  0
  1 37  1  0
  2 38  1  0
  2 39  1  0
  3 40  1  0
  3 41  1  0
  4 42  1  0
  4 43  1  0
  5 44  1  0
  5 45  1  0
  7 46  1  0
  7 47  1  0
  8 48  1  0
  8 49  1  0
  9 50  1  0
 12 51  1  0
 13 52  1  0
 14 53  1  0
 15 54  1  0
 18 55  1  0
 18 56  1  0
 18 57  1  0
 20 58  1  0
 21 59  1  0
 22 60  1  0
 25 61  1  0
 25 62  1  0
 26 63  1  0
 26 64  1  0
 28 65  1  0
 28 66  1  0
 28 67  1  0
 29 68  1  0
 29 69  1  0
 30 70  1  0
 30 71  1  0
 31 72  1  0
 31 73  1  0
 32 74  1  0
 32 75  1  0
 33 76  1  0
 33 77  1  0
M  CHG  3   3   1  17   1  27   1
M  END
>  <UniqueID>  (2) 
2

>  <SMILES>  (2) 
CC[NH2+]CCOCCNc1c2ccccc2[n+](C)c2cccc(OCC[N+]3(C)CCCCC3)c12

>  <Energy>  (2) 
117.81450683227622

>  <Genealogy>  (2) 
CC[NH2+]CCOCCNc1c2ccccc2[n+](C)c2cccc(OCC[N+]3(C)CCCCC3)c12 (protonated)
CC[NH2+]CCOCCNc1c2ccccc2[n+](C)c2cccc(OCC[N+]3(C)CCCCC3)c12 (3D coordinates assigned)
CC[NH2+]CCOCCNc1c2ccccc2[n+](C)c2cccc(OCC[N+]3(C)CCCCC3)c12 (nonaromatic ring conformer: 117.81450683227622 kcal/mol)

>  <smiles>  (2) 
CCNCCOCCNc1c2ccccc2[n+](C)c2cccc(OCC[N+]3(C)CCCCC3)c12

>  <score_type>  (2) 
oracle

>  <origin>  (2) 
adg

>  <m_score__min__energy>  (2) 
-7.7699999999999996

>  <m_primary>  (2) 
energy

$$$$
2:0
     RDKit          3D

 38 40  0  0  0  0  0  0  0  0999 V2000
   -5.8240   25.3660  -30.7750 C   0  0  0  0  0  0  0  0  0  0  0  0
   -5.7790   23.9100  -30.9900 N   0  0  0  0  0  0  0  0  0  0  0  0
   -6.9440   23.2190  -31.2410 C   0  0  0  0  0  0  0  0  0  0  0  0
   -8.0590   23.8070  -31.2700 O   0  0  0  0  0  0  0  0  0  0  0  0
   -6.8600   21.8500  -31.4720 C   0  0  0  0  0  0  0  0  0  0  0  0
   -5.6590   21.2300  -31.4680 C   0  0  0  0  0  0  0  0  0  0  0  0
   -5.7940   19.9220  -31.7600 N   0  0  0  0  0  0  0  0  0  0  0  0
   -7.1370   19.7850  -31.9140 C   0  0  0  0  0  0  0  0  0  0  0  0
   -7.8980   18.2150  -32.3620 S   0  0  0  0  0  0  0  0  0  0  0  0
   -6.6000   17.6020  -33.5190 C   0  0  0  0  0  0  0  0  0  0  0  0
   -6.1110   18.6730  -34.5000 C   0  0  0  0  0  0  0  0  0  0  0  0
   -4.6450   18.9100  -34.1750 C   0  0  0  0  0  0  0  0  0  0  0  0
   -4.1570   17.6210  -33.5400 C   0  0  0  0  0  0  0  0  0  0  0  0
   -5.3600   17.0400  -32.8130 C   0  0  0  0  0  0  0  0  0  0  0  0
   -7.8190   20.9520  -31.7580 N   0  0  0  0  0  0  0  0  0  0  0  0
   -9.2450   21.2030  -31.9630 C   0  0  0  0  0  0  0  0  0  0  0  0
   -4.4950   21.8930  -31.2310 N   0  0  0  0  0  0  0  0  0  0  0  0
   -3.2070   21.1910  -31.2850 C   0  0  0  0  0  0  0  0  0  0  0  0
   -4.5590   23.2540  -31.0160 C   0  0  0  0  0  0  0  0  0  0  0  0
   -3.4910   23.9080  -30.8500 O   0  0  0  0  0  0  0  0  0  0  0  0
   -5.8305   25.5772  -29.6955 H   0  0  0  0  0  0  0  0  0  0  0  0
   -4.9398   25.8320  -31.2344 H   0  0  0  0  0  0  0  0  0  0  0  0
   -6.7353   25.7765  -31.2344 H   0  0  0  0  0  0  0  0  0  0  0  0
   -7.1140   16.7953  -34.0623 H   0  0  0  0  0  0  0  0  0  0  0  0
   -6.2193   18.3190  -35.5358 H   0  0  0  0  0  0  0  0  0  0  0  0
   -6.6967   19.5993  -34.4060 H   0  0  0  0  0  0  0  0  0  0  0  0
   -4.0778   19.1253  -35.0925 H   0  0  0  0  0  0  0  0  0  0  0  0
   -4.5097   19.7718  -33.5049 H   0  0  0  0  0  0  0  0  0  0  0  0
   -3.8018   16.9232  -34.3126 H   0  0  0  0  0  0  0  0  0  0  0  0
   -3.3152   17.7990  -32.8547 H   0  0  0  0  0  0  0  0  0  0  0  0
   -5.3500   15.9419  -32.8766 H   0  0  0  0  0  0  0  0  0  0  0  0
   -5.3508   17.3076  -31.7461 H   0  0  0  0  0  0  0  0  0  0  0  0
   -9.7457   21.2911  -30.9875 H   0  0  0  0  0  0  0  0  0  0  0  0
   -9.3753   22.1379  -32.5278 H   0  0  0  0  0  0  0  0  0  0  0  0
   -9.6867   20.3688  -32.5278 H   0  0  0  0  0  0  0  0  0  0  0  0
   -2.8518   20.9974  -30.2621 H   0  0  0  0  0  0  0  0  0  0  0  0
   -3.3318   20.2362  -31.8167 H   0  0  0  0  0  0  0  0  0  0  0  0
   -2.4722   21.8134  -31.8167 H   0  0  0  0  0  0  0  0  0  0  0  0
  1  2  1  0
  2  3  1  0
  3  4  2  0
  3  5  1  0
  5  6  2  0
  6  7  1  0
  7  8  2  0
  8  9  1  0
  9 10  1  0
 10 11  1  0
 11 12  1  0
 12 13  1  0
 13 14  1  0
  8 15  1  0
 15 16  1  0
  6 17  1  0
 17 18  1  0
 17 19  1  0
 19 20  2  0
 19  2  1  0
 15  5  1  0
 14 10  1  0
  1 21  1  0
  1 22  1  0
  1 23  1  0
 10 24  1  0
 11 25  1  0
 11 26  1  0
 12 27  1  0
 12 28  1  0
 13 29  1  0
 13 30  1  0
 14 31  1  0
 14 32  1  0
 16 33  1  0
 16 34  1  0
 16 35  1  0
 18 36  1  0
 18 37  1  0
 18 38  1  0
M  END
>  <UniqueID>  (3) 
3

>  <SMILES>  (3) 
Cn1c(=O)c2c(nc(SC3CCCC3)n2C)n(C)c1=O

>  <Energy>  (3) 
82.852295272705

>  <Genealogy>  (3) 
Cn1c(=O)c2c(nc(SC3CCCC3)n2C)n(C)c1=O (3D coordinates assigned)
Cn1c(=O)c2c(nc(SC3CCCC3)n2C)n(C)c1=O (nonaromatic ring conformer: 82.852295272705 kcal/mol)

>  <smiles>  (3) 
Cn1c(=O)c2c(nc(SC3CCCC3)n2C)n(C)c1=O

>  <score_type>  (3) 
oracle

>  <origin>  (3) 
adg

>  <m_score__min__energy>  (3) 
-7.0700000000000003

>  <m_primary>  (3) 
energy

$$$$
3:0
     RDKit          3D

 50 51  0  0  0  0  0  0  0  0999 V2000
   -2.7490   23.1030  -29.8710 C   0  0  0  0  0  0  0  0  0  0  0  0
   -3.0160   24.5060  -29.3370 C   0  0  0  0  0  0  0  0  0  0  0  0
   -1.7670   25.1780  -28.9700 N   0  0  0  0  0  0  0  0  0  0  0  0
   -1.4880   25.6510  -27.6390 C   0  0  0  0  0  0  0  0  0  0  0  0
   -2.1770   25.1530  -26.5170 C   0  0  0  0  0  0  0  0  0  0  0  0
   -1.8910   25.6390  -25.2390 C   0  0  0  0  0  0  0  0  0  0  0  0
   -0.9240   26.6370  -25.0560 C   0  0  0  0  0  0  0  0  0  0  0  0
   -0.6300   27.1800  -23.6770 C   0  0  0  0  0  0  0  0  0  0  0  0
    0.5950   26.5920  -23.0990 N   0  0  0  0  0  0  0  0  0  0  0  0
    1.8310   27.2180  -23.6060 C   0  0  0  0  0  0  0  0  0  0  0  0
    3.0610   26.3080  -23.4180 C   0  0  0  0  0  0  0  0  0  0  0  0
    3.1750   25.2640  -24.5390 C   0  0  0  0  0  0  0  0  0  0  0  0
    1.8450   24.7900  -24.9490 N   0  0  0  0  0  0  0  0  0  0  0  0
    1.8180   24.2950  -26.3370 C   0  0  0  0  0  0  0  0  0  0  0  0
    0.7850   23.2090  -26.4540 C   0  0  0  0  0  0  0  0  0  0  0  0
    0.5660   22.5590  -27.6810 C   0  0  0  0  0  0  0  0  0  0  0  0
   -0.3640   21.5200  -27.7700 C   0  0  0  0  0  0  0  0  0  0  0  0
   -1.0760   21.1160  -26.6370 C   0  0  0  0  0  0  0  0  0  0  0  0
   -2.3110   19.6650  -26.7500 Br  0  0  0  0  0  0  0  0  0  0  0  0
   -0.8640   21.7590  -25.4130 C   0  0  0  0  0  0  0  0  0  0  0  0
    0.0620   22.8030  -25.3210 C   0  0  0  0  0  0  0  0  0  0  0  0
   -0.2220   27.1220  -26.1700 C   0  0  0  0  0  0  0  0  0  0  0  0
   -0.5040   26.6350  -27.4500 C   0  0  0  0  0  0  0  0  0  0  0  0
   -2.6169   22.4088  -29.0280 H   0  0  0  0  0  0  0  0  0  0  0  0
   -3.6011   22.7761  -30.4851 H   0  0  0  0  0  0  0  0  0  0  0  0
   -1.8364   23.1119  -30.4851 H   0  0  0  0  0  0  0  0  0  0  0  0
   -3.5258   25.0949  -30.1137 H   0  0  0  0  0  0  0  0  0  0  0  0
   -3.6451   24.4236  -28.4384 H   0  0  0  0  0  0  0  0  0  0  0  0
   -1.0430   25.3350  -29.7100 H   0  0  0  0  0  0  0  0  0  0  0  0
   -2.9452   24.3765  -26.6474 H   0  0  0  0  0  0  0  0  0  0  0  0
   -2.4292   25.2351  -24.3689 H   0  0  0  0  0  0  0  0  0  0  0  0
   -0.5024   28.2705  -23.7448 H   0  0  0  0  0  0  0  0  0  0  0  0
   -1.4739   26.9174  -23.0221 H   0  0  0  0  0  0  0  0  0  0  0  0
    0.6110   25.5660  -23.3100 H   0  0  0  0  0  0  0  0  0  0  0  0
    0.5710   26.6830  -22.0560 H   0  0  0  0  0  0  0  0  0  0  0  0
    1.7072   27.4300  -24.6782 H   0  0  0  0  0  0  0  0  0  0  0  0
    2.0023   28.1417  -23.0338 H   0  0  0  0  0  0  0  0  0  0  0  0
    3.9678   26.9306  -23.4178 H   0  0  0  0  0  0  0  0  0  0  0  0
    2.9481   25.7735  -22.4632 H   0  0  0  0  0  0  0  0  0  0  0  0
    3.6786   25.7184  -25.4050 H   0  0  0  0  0  0  0  0  0  0  0  0
    3.7545   24.4072  -24.1649 H   0  0  0  0  0  0  0  0  0  0  0  0
    1.1760   25.5940  -24.8730 H   0  0  0  0  0  0  0  0  0  0  0  0
    1.5625   25.1208  -27.0173 H   0  0  0  0  0  0  0  0  0  0  0  0
    2.8068   23.8954  -26.6064 H   0  0  0  0  0  0  0  0  0  0  0  0
    1.1285   22.8693  -28.5739 H   0  0  0  0  0  0  0  0  0  0  0  0
   -0.5362   21.0188  -28.7339 H   0  0  0  0  0  0  0  0  0  0  0  0
   -1.4262   21.4432  -24.5218 H   0  0  0  0  0  0  0  0  0  0  0  0
    0.2245   23.3080  -24.3574 H   0  0  0  0  0  0  0  0  0  0  0  0
    0.5544   27.8895  -26.0356 H   0  0  0  0  0  0  0  0  0  0  0  0
    0.0496   27.0260  -28.3164 H   0  0  0  0  0  0  0  0  0  0  0  0
  1  2  1  0
  2  3  1  0
  3  4  1  0
  4  5  2  0
  5  6  1  0
  6  7  2  0
  7  8  1  0
  8  9  1  0
  9 10  1  0
 10 11  1  0
 11 12  1  0
 12 13  1  0
 13 14  1  0
 14 15  1  0
 15 16  2  0
 16 17  1  0
 17 18  2  0
 18 19  1  0
 18 20  1  0
 20 21  2  0
  7 22  1  0
 22 23  2  0
 23  4  1  0
 21 15  1  0
  1 24  1  0
  1 25  1  0
  1 26  1  0
  2 27  1  0
  2 28  1  0
  3 29  1  0
  5 30  1  0
  6 31  1  0
  8 32  1  0
  8 33  1  0
  9 34  1  0
  9 35  1  0
 10 36  1  0
 10 37  1  0
 11 38  1  0
 11 39  1  0
 12 40  1  0
 12 41  1  0
 13 42  1  0
 14 43  1  0
 14 44  1  0
 16 45  1  0
 17 46  1  0
 20 47  1  0
 21 48  1  0
 22 49  1  0
 23 50  1  0
M  CHG  1   9   1
M  END
>  <UniqueID>  (4) 
4

>  <SMILES>  (4) 
CCNc1ccc(C[NH2+]CCCNCc2ccc(Br)cc2)cc1

>  <Energy>  (4) 
40.868532981127885

>  <Genealogy>  (4) 
CCNc1ccc(C[NH2+]CCCNCc2ccc(Br)cc2)cc1 (protonated)
CCNc1ccc(C[NH2+]CCCNCc2ccc(Br)cc2)cc1 (3D coordinates assigned)
CCNc1ccc(C[NH2+]CCCNCc2ccc(Br)cc2)cc1 (optimized conformer: 40.868532981127885 kcal/mol)

>  <smiles>  (4) 
CCNc1ccc(CNCCCNCc2ccc(Br)cc2)cc1

>  <score_type>  (4) 
oracle

>  <origin>  (4) 
adg

>  <m_score__min__energy>  (4) 
-7.25

>  <m_primary>  (4) 
energy

$$$$
4:0
     RDKit          3D

 49 51  0  0  0  0  0  0  0  0999 V2000
   -6.6660   21.1530  -32.3910 C   0  0  0  0  0  0  0  0  0  0  0  0
   -5.2900   21.8120  -32.3520 C   0  0  0  0  0  0  0  0  0  0  0  0
   -5.1750   22.6810  -31.2240 O   0  0  0  0  0  0  0  0  0  0  0  0
   -4.0610   22.8040  -30.3780 C   0  0  0  0  0  0  0  0  0  0  0  0
   -3.4720   21.6760  -29.7710 C   0  0  0  0  0  0  0  0  0  0  0  0
   -2.3910   21.8090  -28.8900 C   0  0  0  0  0  0  0  0  0  0  0  0
   -1.7750   20.5980  -28.2930 C   0  0  0  0  0  0  0  0  0  0  0  0
   -2.3940   19.8150  -27.3890 N   0  0  0  0  0  0  0  0  0  0  0  0
   -1.5460   18.8640  -27.1210 O   0  0  0  0  0  0  0  0  0  0  0  0
   -0.4450   19.0300  -27.8160 C   0  0  0  0  0  0  0  0  0  0  0  0
    0.7290   18.1230  -27.7470 C   0  0  0  0  0  0  0  0  0  0  0  0
    0.5670   16.7450  -27.4920 C   0  0  0  0  0  0  0  0  0  0  0  0
    1.6790   15.9000  -27.4300 C   0  0  0  0  0  0  0  0  0  0  0  0
    2.9630   16.4150  -27.6200 C   0  0  0  0  0  0  0  0  0  0  0  0
    3.1400   17.7760  -27.8680 C   0  0  0  0  0  0  0  0  0  0  0  0
    2.0330   18.6290  -27.9330 C   0  0  0  0  0  0  0  0  0  0  0  0
    2.2430   19.9460  -28.1830 F   0  0  0  0  0  0  0  0  0  0  0  0
   -0.5410   20.1310  -28.5840 N   0  0  0  0  0  0  0  0  0  0  0  0
   -1.8950   23.0900  -28.6050 C   0  0  0  0  0  0  0  0  0  0  0  0
   -2.4570   24.2270  -29.2120 C   0  0  0  0  0  0  0  0  0  0  0  0
   -1.9710   25.5250  -28.9670 O   0  0  0  0  0  0  0  0  0  0  0  0
   -1.2300   25.9410  -27.8180 C   0  0  0  0  0  0  0  0  0  0  0  0
   -2.0070   25.6570  -26.5380 C   0  0  0  0  0  0  0  0  0  0  0  0
   -3.5190   24.0870  -30.1170 C   0  0  0  0  0  0  0  0  0  0  0  0
   -4.0020   25.2660  -30.7180 O   0  0  0  0  0  0  0  0  0  0  0  0
   -5.3680   25.6750  -30.8330 C   0  0  0  0  0  0  0  0  0  0  0  0
   -6.1620   25.3030  -29.5850 C   0  0  0  0  0  0  0  0  0  0  0  0
   -7.0205   20.9832  -31.3636 H   0  0  0  0  0  0  0  0  0  0  0  0
   -7.3726   21.8104  -32.9187 H   0  0  0  0  0  0  0  0  0  0  0  0
   -6.5967   20.1904  -32.9187 H   0  0  0  0  0  0  0  0  0  0  0  0
   -4.5180   21.0312  -32.2858 H   0  0  0  0  0  0  0  0  0  0  0  0
   -5.1573   22.4052  -33.2688 H   0  0  0  0  0  0  0  0  0  0  0  0
   -3.8682   20.6741  -29.9930 H   0  0  0  0  0  0  0  0  0  0  0  0
   -0.4415   16.3325  -27.3409 H   0  0  0  0  0  0  0  0  0  0  0  0
    1.5422   14.8268  -27.2311 H   0  0  0  0  0  0  0  0  0  0  0  0
    3.8355   15.7467  -27.5740 H   0  0  0  0  0  0  0  0  0  0  0  0
    4.1529   18.1799  -28.0129 H   0  0  0  0  0  0  0  0  0  0  0  0
    0.1730   20.5430  -29.2220 H   0  0  0  0  0  0  0  0  0  0  0  0
   -1.0586   23.2060  -27.9001 H   0  0  0  0  0  0  0  0  0  0  0  0
   -0.2752   25.3956  -27.7883 H   0  0  0  0  0  0  0  0  0  0  0  0
   -1.0516   27.0242  -27.8880 H   0  0  0  0  0  0  0  0  0  0  0  0
   -1.3759   25.8877  -25.6671 H   0  0  0  0  0  0  0  0  0  0  0  0
   -2.9113   26.2827  -26.5115 H   0  0  0  0  0  0  0  0  0  0  0  0
   -2.2946   24.5956  -26.5115 H   0  0  0  0  0  0  0  0  0  0  0  0
   -5.4056   26.7657  -30.9703 H   0  0  0  0  0  0  0  0  0  0  0  0
   -5.8144   25.1598  -31.6963 H   0  0  0  0  0  0  0  0  0  0  0  0
   -5.5844   25.5736  -28.6888 H   0  0  0  0  0  0  0  0  0  0  0  0
   -7.1181   25.8469  -29.5831 H   0  0  0  0  0  0  0  0  0  0  0  0
   -6.3560   24.2203  -29.5831 H   0  0  0  0  0  0  0  0  0  0  0  0
  1  2  1  0
  2  3  1  0
  3  4  1  0
  4  5  2  0
  5  6  1  0
  6  7  1  0
  7  8  2  0
  8  9  1  0
  9 10  1  0
 10 11  1  0
 11 12  2  0
 12 13  1  0
 13 14  2  0
 14 15  1  0
 15 16  2  0
 16 17  1  0
 10 18  2  0
  6 19  2  0
 19 20  1  0
 20 21  1  0
 21 22  1  0
 22 23  1  0
 20 24  2  0
 24 25  1  0
 25 26  1  0
 26 27  1  0
 24  4  1  0
 18  7  1  0
 16 11  1  0
  1 28  1  0
  1 29  1  0
  1 30  1  0
  2 31  1  0
  2 32  1  0
  5 33  1  0
 12 34  1  0
 13 35  1  0
 14 36  1  0
 15 37  1  0
 18 38  1  0
 19 39  1  0
 22 40  1  0
 22 41  1  0
 23 42  1  0
 23 43  1  0
 23 44  1  0
 26 45  1  0
 26 46  1  0
 27 47  1  0
 27 48  1  0
 27 49  1  0
M  CHG  1  18   1
M  END
>  <UniqueID>  (5) 
5

>  <SMILES>  (5) 
CCOc1cc(-c2noc(-c3ccccc3F)[nH+]2)cc(OCC)c1OCC

>  <Energy>  (5) 
87.34343234364728

>  <Genealogy>  (5) 
CCOc1cc(-c2noc(-c3ccccc3F)[nH+]2)cc(OCC)c1OCC (protonated)
CCOc1cc(-c2noc(-c3ccccc3F)[nH+]2)cc(OCC)c1OCC (3D coordinates assigned)
CCOc1cc(-c2noc(-c3ccccc3F)[nH+]2)cc(OCC)c1OCC (optimized conformer: 87.34343234364728 kcal/mol)

>  <smiles>  (5) 
CCOc1cc(-c2noc(-c3ccccc3F)n2)cc(OCC)c1OCC

>  <score_type>  (5) 
oracle

>  <origin>  (5) 
adg

>  <m_score__min__energy>  (5) 
-7.3300000000000001

>  <m_primary>  (5) 
energy

$$$$
5:0
     RDKit          3D

 64 67  0  0  0  0  0  0  0  0999 V2000
   -3.8130   24.2000  -27.9510 C   0  0  0  0  0  0  0  0  0  0  0  0
   -3.1260   24.5080  -29.2900 C   0  0  0  0  0  0  0  0  0  0  0  0
   -4.0380   24.4880  -30.4610 N   0  0  0  0  0  0  0  0  0  0  0  0
   -4.9950   25.6200  -30.4950 C   0  0  0  0  0  0  0  0  0  0  0  0
   -6.3680   25.2100  -29.9680 C   0  0  0  0  0  0  0  0  0  0  0  0
   -4.7230   23.1850  -30.6230 C   0  0  0  0  0  0  0  0  0  0  0  0
   -3.7880   22.0440  -30.1940 C   0  0  0  0  0  0  0  0  0  0  0  0
   -3.4260   21.1020  -31.3550 C   0  0  0  0  0  0  0  0  0  0  0  0
   -3.2300   21.8510  -32.6870 C   0  0  0  0  0  0  0  0  0  0  0  0
   -4.4990   22.0240  -33.4200 N   0  0  0  0  0  0  0  0  0  0  0  0
   -5.4520   20.9560  -33.1330 C   0  0  0  0  0  0  0  0  0  0  0  0
   -5.1190   19.6010  -33.3860 C   0  0  0  0  0  0  0  0  0  0  0  0
   -5.9280   18.5800  -32.8470 C   0  0  0  0  0  0  0  0  0  0  0  0
   -7.2030   18.8640  -32.4120 N   0  0  0  0  0  0  0  0  0  0  0  0
   -8.2110   17.7850  -32.3260 C   0  0  0  0  0  0  0  0  0  0  0  0
   -7.5730   20.1690  -32.1650 C   0  0  0  0  0  0  0  0  0  0  0  0
   -8.8080   20.4750  -31.5400 C   0  0  0  0  0  0  0  0  0  0  0  0
   -9.1860   21.7920  -31.2950 C   0  0  0  0  0  0  0  0  0  0  0  0
   -8.3490   22.8360  -31.6620 C   0  0  0  0  0  0  0  0  0  0  0  0
   -7.1220   22.5710  -32.2650 C   0  0  0  0  0  0  0  0  0  0  0  0
   -6.7020   21.2420  -32.5170 C   0  0  0  0  0  0  0  0  0  0  0  0
   -5.3350   17.2070  -32.7830 C   0  0  0  0  0  0  0  0  0  0  0  0
   -5.5950   16.3530  -31.6940 C   0  0  0  0  0  0  0  0  0  0  0  0
   -4.9970   15.0960  -31.6430 C   0  0  0  0  0  0  0  0  0  0  0  0
   -4.1210   14.7050  -32.6510 C   0  0  0  0  0  0  0  0  0  0  0  0
   -3.8250   15.5950  -33.6820 C   0  0  0  0  0  0  0  0  0  0  0  0
   -4.3970   16.8370  -33.7120 N   0  0  0  0  0  0  0  0  0  0  0  0
   -4.0270   17.7850  -34.7690 C   0  0  0  0  0  0  0  0  0  0  0  0
   -3.8900   19.1990  -34.1910 C   0  0  0  0  0  0  0  0  0  0  0  0
   -3.1521   24.4963  -27.1231 H   0  0  0  0  0  0  0  0  0  0  0  0
   -4.7568   24.7611  -27.8855 H   0  0  0  0  0  0  0  0  0  0  0  0
   -4.0220   23.1220  -27.8855 H   0  0  0  0  0  0  0  0  0  0  0  0
   -2.6726   25.5080  -29.2230 H   0  0  0  0  0  0  0  0  0  0  0  0
   -2.3835   23.7132  -29.4543 H   0  0  0  0  0  0  0  0  0  0  0  0
   -4.6031   26.4378  -29.8724 H   0  0  0  0  0  0  0  0  0  0  0  0
   -5.1096   25.9429  -31.5403 H   0  0  0  0  0  0  0  0  0  0  0  0
   -6.3547   25.2140  -28.8681 H   0  0  0  0  0  0  0  0  0  0  0  0
   -7.1262   25.9209  -30.3281 H   0  0  0  0  0  0  0  0  0  0  0  0
   -6.6123   24.1997  -30.3281 H   0  0  0  0  0  0  0  0  0  0  0  0
   -5.6281   23.1689  -29.9981 H   0  0  0  0  0  0  0  0  0  0  0  0
   -4.9972   23.0497  -31.6796 H   0  0  0  0  0  0  0  0  0  0  0  0
   -2.8612   22.4807  -29.7936 H   0  0  0  0  0  0  0  0  0  0  0  0
   -4.3184   21.4480  -29.4367 H   0  0  0  0  0  0  0  0  0  0  0  0
   -2.4919   20.5776  -31.1050 H   0  0  0  0  0  0  0  0  0  0  0  0
   -4.2625   20.4001  -31.4876 H   0  0  0  0  0  0  0  0  0  0  0  0
   -2.8042   22.8431  -32.4764 H   0  0  0  0  0  0  0  0  0  0  0  0
   -2.5552   21.2516  -33.3159 H   0  0  0  0  0  0  0  0  0  0  0  0
   -4.2760   22.1120  -34.4330 H   0  0  0  0  0  0  0  0  0  0  0  0
   -4.9240   22.9470  -33.1770 H   0  0  0  0  0  0  0  0  0  0  0  0
   -8.4197   17.5616  -31.2693 H   0  0  0  0  0  0  0  0  0  0  0  0
   -9.1378   18.1086  -32.8223 H   0  0  0  0  0  0  0  0  0  0  0  0
   -7.8252   16.8824  -32.8223 H   0  0  0  0  0  0  0  0  0  0  0  0
   -9.4801   19.6564  -31.2431 H   0  0  0  0  0  0  0  0  0  0  0  0
  -10.1498   22.0055  -30.8097 H   0  0  0  0  0  0  0  0  0  0  0  0
   -8.6555   23.8760  -31.4761 H   0  0  0  0  0  0  0  0  0  0  0  0
   -6.4679   23.4080  -32.5504 H   0  0  0  0  0  0  0  0  0  0  0  0
   -6.2679   16.6773  -30.8865 H   0  0  0  0  0  0  0  0  0  0  0  0
   -5.2166   14.4143  -30.8081 H   0  0  0  0  0  0  0  0  0  0  0  0
   -3.6666   13.7034  -32.6343 H   0  0  0  0  0  0  0  0  0  0  0  0
   -3.1263   15.2963  -34.4773 H   0  0  0  0  0  0  0  0  0  0  0  0
   -3.0674   17.4791  -35.2113 H   0  0  0  0  0  0  0  0  0  0  0  0
   -4.8127   17.7875  -35.5388 H   0  0  0  0  0  0  0  0  0  0  0  0
   -3.0078   19.2318  -33.5347 H   0  0  0  0  0  0  0  0  0  0  0  0
   -3.7844   19.9031  -35.0295 H   0  0  0  0  0  0  0  0  0  0  0  0
  1  2  1  0
  2  3  1  0
  3  4  1  0
  4  5  1  0
  3  6  1  0
  6  7  1  0
  7  8  1  0
  8  9  1  0
  9 10  1  0
 10 11  1  0
 11 12  2  0
 12 13  1  0
 13 14  2  0
 14 15  1  0
 14 16  1  0
 16 17  2  0
 17 18  1  0
 18 19  2  0
 19 20  1  0
 20 21  2  0
 13 22  1  0
 22 23  2  0
 23 24  1  0
 24 25  2  0
 25 26  1  0
 26 27  2  0
 27 28  1  0
 28 29  1  0
 21 11  1  0
 27 22  1  0
 29 12  1  0
 21 16  1  0
  1 30  1  0
  1 31  1  0
  1 32  1  0
  2 33  1  0
  2 34  1  0
  4 35  1  0
  4 36  1  0
  5 37  1  0
  5 38  1  0
  5 39  1  0
  6 40  1  0
  6 41  1  0
  7 42  1  0
  7 43  1  0
  8 44  1  0
  8 45  1  0
  9 46  1  0
  9 47  1  0
 10 48  1  0
 10 49  1  0
 15 50  1  0
 15 51  1  0
 15 52  1  0
 17 53  1  0
 18 54  1  0
 19 55  1  0
 20 56  1  0
 23 57  1  0
 24 58  1  0
 25 59  1  0
 26 60  1  0
 28 61  1  0
 28 62  1  0
 29 63  1  0
 29 64  1  0
M  CHG  3  10   1  14   1  27   1
M  END
>  <UniqueID>  (6) 
6

>  <SMILES>  (6) 
CCN(CC)CCCC[NH2+]c1c2c([n+](C)c3ccccc13)-c1cccc[n+]1CC2

>  <Energy>  (6) 
97.59256295227107

>  <Genealogy>  (6) 
CCN(CC)CCCC[NH2+]c1c2c([n+](C)c3ccccc13)-c1cccc[n+]1CC2 (protonated)
CCN(CC)CCCC[NH2+]c1c2c([n+](C)c3ccccc13)-c1cccc[n+]1CC2 (3D coordinates assigned)
CCN(CC)CCCC[NH2+]c1c2c([n+](C)c3ccccc13)-c1cccc[n+]1CC2 (nonaromatic ring conformer: 97.59256295227107 kcal/mol)

>  <smiles>  (6) 
CCN(CC)CCCCNc1c2c([n+](C)c3ccccc13)-c1cccc[n+]1CC2

>  <score_type>  (6) 
oracle

>  <origin>  (6) 
adg

>  <m_score__min__energy>  (6) 
-7.8899999999999997

>  <m_primary>  (6) 
energy

$$$$
6:0
     RDKit          3D

 81 83  0  0  0  0  0  0  0  0999 V2000
   -4.1640   23.1450  -27.8570 C   0  0  0  0  0  0  0  0  0  0  0  0
   -3.0270   24.1500  -27.7730 C   0  0  0  0  0  0  0  0  0  0  0  0
   -1.7490   23.4810  -28.0900 N   0  0  0  0  0  0  0  0  0  0  0  0
   -0.8980   24.2720  -28.9910 C   0  0  0  0  0  0  0  0  0  0  0  0
   -1.0350   22.9580  -26.8960 C   0  0  0  0  0  0  0  0  0  0  0  0
   -1.5360   21.5950  -26.3700 C   0  0  0  0  0  0  0  0  0  0  0  0
   -2.2710   20.8820  -27.3500 O   0  0  0  0  0  0  0  0  0  0  0  0
   -2.8010   19.6730  -26.8260 C   0  0  0  0  0  0  0  0  0  0  0  0
   -1.7740   18.5290  -26.9040 C   0  0  0  0  0  0  0  0  0  0  0  0
   -0.4860   19.0640  -27.1320 O   0  0  0  0  0  0  0  0  0  0  0  0
   -0.1300   18.9530  -28.5010 C   0  0  0  0  0  0  0  0  0  0  0  0
   -0.0430   20.3180  -29.2240 C   0  0  0  0  0  0  0  0  0  0  0  0
   -1.3600   20.7730  -29.7150 N   0  0  0  0  0  0  0  0  0  0  0  0
   -1.5840   20.8800  -31.1570 C   0  0  0  0  0  0  0  0  0  0  0  0
   -1.0710   19.9310  -32.0830 C   0  0  0  0  0  0  0  0  0  0  0  0
    0.3090   19.6660  -32.2030 C   0  0  0  0  0  0  0  0  0  0  0  0
    0.7910   18.7360  -33.1200 C   0  0  0  0  0  0  0  0  0  0  0  0
   -0.0940   18.1070  -33.9970 C   0  0  0  0  0  0  0  0  0  0  0  0
   -1.4550   18.3930  -33.9490 C   0  0  0  0  0  0  0  0  0  0  0  0
   -1.9700   19.3200  -33.0060 C   0  0  0  0  0  0  0  0  0  0  0  0
   -3.3000   19.6760  -33.0030 N   0  0  0  0  0  0  0  0  0  0  0  0
   -4.3060   18.8270  -33.6790 C   0  0  0  0  0  0  0  0  0  0  0  0
   -3.6700   20.8730  -32.4250 C   0  0  0  0  0  0  0  0  0  0  0  0
   -4.9250   21.4730  -32.6740 C   0  0  0  0  0  0  0  0  0  0  0  0
   -5.2840   22.7100  -32.1140 C   0  0  0  0  0  0  0  0  0  0  0  0
   -6.6000   23.2280  -32.4290 N   0  0  0  0  0  0  0  0  0  0  0  0
   -7.8470   23.0180  -31.6880 C   0  0  0  0  0  0  0  0  0  0  0  0
   -7.8740   21.6090  -31.0550 C   0  0  0  0  0  0  0  0  0  0  0  0
   -8.0470   20.5110  -32.0350 N   0  0  0  0  0  0  0  0  0  0  0  0
   -7.3490   19.2720  -31.6600 C   0  0  0  0  0  0  0  0  0  0  0  0
   -9.4630   20.2440  -32.3550 C   0  0  0  0  0  0  0  0  0  0  0  0
   -4.3370   23.4060  -31.3300 C   0  0  0  0  0  0  0  0  0  0  0  0
   -4.6140   24.7040  -30.8740 O   0  0  0  0  0  0  0  0  0  0  0  0
   -5.7330   25.0590  -30.0650 C   0  0  0  0  0  0  0  0  0  0  0  0
   -3.1100   22.7930  -31.0330 C   0  0  0  0  0  0  0  0  0  0  0  0
   -2.7790   21.5290  -31.5440 C   0  0  0  0  0  0  0  0  0  0  0  0
   -4.4813   22.8646  -26.8418 H   0  0  0  0  0  0  0  0  0  0  0  0
   -5.0117   23.5945  -28.3950 H   0  0  0  0  0  0  0  0  0  0  0  0
   -3.8220   22.2486  -28.3950 H   0  0  0  0  0  0  0  0  0  0  0  0
   -3.2030   24.9628  -28.4930 H   0  0  0  0  0  0  0  0  0  0  0  0
   -2.9798   24.5634  -26.7547 H   0  0  0  0  0  0  0  0  0  0  0  0
   -0.2203   24.9019  -28.3962 H   0  0  0  0  0  0  0  0  0  0  0  0
   -0.3071   23.5951  -29.6255 H   0  0  0  0  0  0  0  0  0  0  0  0
   -1.5300   24.9108  -29.6255 H   0  0  0  0  0  0  0  0  0  0  0  0
    0.0285   22.8515  -27.1560 H   0  0  0  0  0  0  0  0  0  0  0  0
   -1.2220   23.6820  -26.0892 H   0  0  0  0  0  0  0  0  0  0  0  0
   -0.6679   20.9905  -26.0685 H   0  0  0  0  0  0  0  0  0  0  0  0
   -2.2049   21.7862  -25.5180 H   0  0  0  0  0  0  0  0  0  0  0  0
   -3.0811   19.8313  -25.7741 H   0  0  0  0  0  0  0  0  0  0  0  0
   -3.6791   19.3914  -27.4258 H   0  0  0  0  0  0  0  0  0  0  0  0
   -1.7759   17.9699  -25.9567 H   0  0  0  0  0  0  0  0  0  0  0  0
   -2.0410   17.8537  -27.7302 H   0  0  0  0  0  0  0  0  0  0  0  0
    0.8509   18.4596  -28.5677 H   0  0  0  0  0  0  0  0  0  0  0  0
   -0.9213   18.3718  -28.9970 H   0  0  0  0  0  0  0  0  0  0  0  0
    0.3514   21.0668  -28.5213 H   0  0  0  0  0  0  0  0  0  0  0  0
    0.6194   20.1983  -30.0940 H   0  0  0  0  0  0  0  0  0  0  0  0
   -1.5740   21.6760  -29.2280 H   0  0  0  0  0  0  0  0  0  0  0  0
   -2.0720   20.0940  -29.3570 H   0  0  0  0  0  0  0  0  0  0  0  0
    1.0191   20.2052  -31.5588 H   0  0  0  0  0  0  0  0  0  0  0  0
    1.8644   18.4980  -33.1532 H   0  0  0  0  0  0  0  0  0  0  0  0
    0.2866   17.3809  -34.7305 H   0  0  0  0  0  0  0  0  0  0  0  0
   -2.1400   17.8944  -34.6506 H   0  0  0  0  0  0  0  0  0  0  0  0
   -4.9173   18.3111  -32.9239 H   0  0  0  0  0  0  0  0  0  0  0  0
   -4.9535   19.4558  -34.3078 H   0  0  0  0  0  0  0  0  0  0  0  0
   -3.7950   18.0830  -34.3078 H   0  0  0  0  0  0  0  0  0  0  0  0
   -5.6431   20.9551  -33.3268 H   0  0  0  0  0  0  0  0  0  0  0  0
   -6.6890   23.8150  -33.2880 H   0  0  0  0  0  0  0  0  0  0  0  0
   -7.9259   23.7732  -30.8921 H   0  0  0  0  0  0  0  0  0  0  0  0
   -8.6929   23.1093  -32.3852 H   0  0  0  0  0  0  0  0  0  0  0  0
   -6.9246   21.4508  -30.5224 H   0  0  0  0  0  0  0  0  0  0  0  0
   -8.7459   21.5778  -30.3851 H   0  0  0  0  0  0  0  0  0  0  0  0
   -7.3048   19.1935  -30.5637 H   0  0  0  0  0  0  0  0  0  0  0  0
   -7.8926   18.4071  -32.0679 H   0  0  0  0  0  0  0  0  0  0  0  0
   -6.3276   19.2887  -32.0679 H   0  0  0  0  0  0  0  0  0  0  0  0
  -10.0357   20.1360  -31.4221 H   0  0  0  0  0  0  0  0  0  0  0  0
   -9.8707   21.0811  -32.9407 H   0  0  0  0  0  0  0  0  0  0  0  0
   -9.5379   19.3159  -32.9407 H   0  0  0  0  0  0  0  0  0  0  0  0
   -5.4599   24.9723  -29.0030 H   0  0  0  0  0  0  0  0  0  0  0  0
   -6.0297   26.0954  -30.2839 H   0  0  0  0  0  0  0  0  0  0  0  0
   -6.5728   24.3832  -30.2839 H   0  0  0  0  0  0  0  0  0  0  0  0
   -2.3913   23.3156  -30.3847 H   0  0  0  0  0  0  0  0  0  0  0  0
  1  2  1  0
  2  3  1  0
  3  4  1  0
  3  5  1  0
  5  6  1  0
  6  7  1  0
  7  8  1  0
  8  9  1  0
  9 10  1  0
 10 11  1  0
 11 12  1  0
 12 13  1  0
 13 14  1  0
 14 15  2  0
 15 16  1  0
 16 17  2  0
 17 18  1  0
 18 19  2  0
 19 20  1  0
 20 21  2  0
 21 22  1  0
 21 23  1  0
 23 24  2  0
 24 25  1  0
 25 26  1  0
 26 27  1  0
 27 28  1  0
 28 29  1  0
 29 30  1  0
 29 31  1  0
 25 32  2  0
 32 33  1  0
 33 34  1  0
 32 35  1  0
 35 36  2  0
 36 14  1  0
 20 15  1  0
 36 23  1  0
  1 37  1  0
  1 38  1  0
  1 39  1  0
  2 40  1  0
  2 41  1  0
  4 42  1  0
  4 43  1  0
  4 44  1  0
  5 45  1  0
  5 46  1  0
  6 47  1  0
  6 48  1  0
  8 49  1  0
  8 50  1  0
  9 51  1  0
  9 52  1  0
 11 53  1  0
 11 54  1  0
 12 55  1  0
 12 56  1  0
 13 57  1  0
 13 58  1  0
 16 59  1  0
 17 60  1  0
 18 61  1  0
 19 62  1  0
 22 63  1  0
 22 64  1  0
 22 65  1  0
 24 66  1  0
 26 67  1  0
 27 68  1  0
 27 69  1  0
 28 70  1  0
 28 71  1  0
 30 72  1  0
 30 73  1  0
 30 74  1  0
 31 75  1  0
 31 76  1  0
 31 77  1  0
 34 78  1  0
 34 79  1  0
 34 80  1  0
 35 81  1  0
M  CHG  2  13   1  21   1
M  END
>  <UniqueID>  (7) 
7

>  <SMILES>  (7) 
CCN(C)CCOCCOCC[NH2+]c1c2ccccc2[n+](C)c2cc(NCCN(C)C)c(OC)cc12

>  <Energy>  (7) 
152.07191732122737

>  <Genealogy>  (7) 
CCN(C)CCOCCOCC[NH2+]c1c2ccccc2[n+](C)c2cc(NCCN(C)C)c(OC)cc12 (protonated)
CCN(C)CCOCCOCC[NH2+]c1c2ccccc2[n+](C)c2cc(NCCN(C)C)c(OC)cc12 (3D coordinates assigned)
CCN(C)CCOCCOCC[NH2+]c1c2ccccc2[n+](C)c2cc(NCCN(C)C)c(OC)cc12 (optimized conformer: 152.07191732122737 kcal/mol)

>  <smiles>  (7) 
CCN(C)CCOCCOCCNc1c2ccccc2[n+](C)c2cc(NCCN(C)C)c(OC)cc12

>  <score_type>  (7) 
oracle

>  <origin>  (7) 
adg

>  <m_score__min__energy>  (7) 
-9.0199999999999996

>  <m_primary>  (7) 
energy

$$$$
7:0
     RDKit          3D

 49 51  0  0  0  0  0  0  0  0999 V2000
   -5.7300   24.7660  -30.6890 C   0  0  0  0  0  0  0  0  0  0  0  0
   -5.4190   23.6100  -31.6380 C   0  0  0  0  0  0  0  0  0  0  0  0
   -6.6550   22.7850  -31.9520 C   0  0  0  0  0  0  0  0  0  0  0  0
   -7.8800   23.3860  -31.6220 C   0  0  0  0  0  0  0  0  0  0  0  0
   -9.0650   22.6700  -31.6680 C   0  0  0  0  0  0  0  0  0  0  0  0
   -9.0460   21.3170  -31.9660 C   0  0  0  0  0  0  0  0  0  0  0  0
   -7.8340   20.6480  -32.2690 C   0  0  0  0  0  0  0  0  0  0  0  0
   -6.6390   21.4210  -32.4040 C   0  0  0  0  0  0  0  0  0  0  0  0
   -5.5040   20.7910  -32.9850 C   0  0  0  0  0  0  0  0  0  0  0  0
   -4.3910   21.5590  -33.4680 N   0  0  0  0  0  0  0  0  0  0  0  0
   -3.0920   21.4820  -32.7910 C   0  0  0  0  0  0  0  0  0  0  0  0
   -3.2620   21.1050  -31.3160 C   0  0  0  0  0  0  0  0  0  0  0  0
   -2.8390   22.2330  -30.4580 N   0  0  0  0  0  0  0  0  0  0  0  0
   -1.3740   22.2590  -30.2940 C   0  0  0  0  0  0  0  0  0  0  0  0
   -3.4990   22.1840  -29.1420 C   0  0  0  0  0  0  0  0  0  0  0  0
   -5.5360   19.4120  -33.2700 C   0  0  0  0  0  0  0  0  0  0  0  0
   -4.4010   18.7590  -33.8050 C   0  0  0  0  0  0  0  0  0  0  0  0
   -4.4530   17.4140  -34.1570 C   0  0  0  0  0  0  0  0  0  0  0  0
   -5.6350   16.6980  -33.9960 C   0  0  0  0  0  0  0  0  0  0  0  0
   -6.7550   17.3120  -33.4440 C   0  0  0  0  0  0  0  0  0  0  0  0
   -6.7190   18.6700  -33.0310 C   0  0  0  0  0  0  0  0  0  0  0  0
   -7.8110   19.2770  -32.4470 N   0  0  0  0  0  0  0  0  0  0  0  0
   -8.9380   18.4500  -31.9540 C   0  0  0  0  0  0  0  0  0  0  0  0
   -5.6373   24.4213  -29.6485 H   0  0  0  0  0  0  0  0  0  0  0  0
   -5.0210   25.5879  -30.8676 H   0  0  0  0  0  0  0  0  0  0  0  0
   -6.7556   25.1212  -30.8676 H   0  0  0  0  0  0  0  0  0  0  0  0
   -5.0169   24.0191  -32.5766 H   0  0  0  0  0  0  0  0  0  0  0  0
   -4.6873   22.9528  -31.1454 H   0  0  0  0  0  0  0  0  0  0  0  0
   -7.8992   24.4440  -31.3216 H   0  0  0  0  0  0  0  0  0  0  0  0
  -10.0212   23.1757  -31.4679 H   0  0  0  0  0  0  0  0  0  0  0  0
   -9.9895   20.7515  -31.9674 H   0  0  0  0  0  0  0  0  0  0  0  0
   -4.6110   22.4010  -34.0470 H   0  0  0  0  0  0  0  0  0  0  0  0
   -2.4724   20.7208  -33.2875 H   0  0  0  0  0  0  0  0  0  0  0  0
   -2.6093   22.4688  -32.8466 H   0  0  0  0  0  0  0  0  0  0  0  0
   -4.3187   20.8721  -31.1182 H   0  0  0  0  0  0  0  0  0  0  0  0
   -2.6402   20.2257  -31.0922 H   0  0  0  0  0  0  0  0  0  0  0  0
   -1.1250   22.2634  -29.2226 H   0  0  0  0  0  0  0  0  0  0  0  0
   -0.9361   21.3685  -30.7685 H   0  0  0  0  0  0  0  0  0  0  0  0
   -0.9679   23.1645  -30.7685 H   0  0  0  0  0  0  0  0  0  0  0  0
   -2.7393   22.2404  -28.3485 H   0  0  0  0  0  0  0  0  0  0  0  0
   -4.1918   23.0332  -29.0474 H   0  0  0  0  0  0  0  0  0  0  0  0
   -4.0588   21.2418  -29.0474 H   0  0  0  0  0  0  0  0  0  0  0  0
   -3.4660   19.3214  -33.9444 H   0  0  0  0  0  0  0  0  0  0  0  0
   -3.5596   16.9167  -34.5626 H   0  0  0  0  0  0  0  0  0  0  0  0
   -5.6842   15.6437  -34.3059 H   0  0  0  0  0  0  0  0  0  0  0  0
   -7.6843   16.7354  -33.3255 H   0  0  0  0  0  0  0  0  0  0  0  0
   -8.9387   18.4495  -30.8540 H   0  0  0  0  0  0  0  0  0  0  0  0
   -9.8872   18.8675  -32.3211 H   0  0  0  0  0  0  0  0  0  0  0  0
   -8.8245   17.4193  -32.3211 H   0  0  0  0  0  0  0  0  0  0  0  0
  1  2  1  0
  2  3  1  0
  3  4  2  0
  4  5  1  0
  5  6  2  0
  6  7  1  0
  7  8  2  0
  8  9  1  0
  9 10  1  0
 10 11  1  0
 11 12  1  0
 12 13  1  0
 13 14  1  0
 13 15  1  0
  9 16  2  0
 16 17  1  0
 17 18  2  0
 18 19  1  0
 19 20  2  0
 20 21  1  0
 21 22  2  0
 22 23  1  0
  8  3  1  0
 21 16  1  0
 22  7  1  0
  1 24  1  0
  1 25  1  0
  1 26  1  0
  2 27  1  0
  2 28  1  0
  4 29  1  0
  5 30  1  0
  6 31  1  0
 10 32  1  0
 11 33  1  0
 11 34  1  0
 12 35  1  0
 12 36  1  0
 14 37  1  0
 14 38  1  0
 14 39  1  0
 15 40  1  0
 15 41  1  0
 15 42  1  0
 17 43  1  0
 18 44  1  0
 19 45  1  0
 20 46  1  0
 23 47  1  0
 23 48  1  0
 23 49  1  0
M  CHG  1  22   1
M  END
>  <UniqueID>  (8) 
8

>  <SMILES>  (8) 
CCc1cccc2c1c(NCCN(C)C)c1ccccc1[n+]2C

>  <Energy>  (8) 
85.20787062979569

>  <Genealogy>  (8) 
CCc1cccc2c1c(NCCN(C)C)c1ccccc1[n+]2C (3D coordinates assigned)
CCc1cccc2c1c(NCCN(C)C)c1ccccc1[n+]2C (optimized conformer: 85.20787062979569 kcal/mol)

>  <smiles>  (8) 
CCc1cccc2c1c(NCCN(C)C)c1ccccc1[n+]2C

>  <score_type>  (8) 
oracle

>  <origin>  (8) 
adg

>  <m_score__min__energy>  (8) 
-8.3300000000000001

>  <m_primary>  (8) 
energy

$$$$
8:0
     RDKit          3D

 53 53  0  0  0  0  0  0  0  0999 V2000
   -0.8420   21.5690  -31.1690 C   0  0  0  0  0  0  0  0  0  0  0  0
   -1.7640   20.4240  -30.7430 C   0  0  0  0  0  0  0  0  0  0  0  0
   -3.0540   20.9160  -30.2250 N   0  0  0  0  0  0  0  0  0  0  0  0
   -3.1130   20.8490  -28.7540 C   0  0  0  0  0  0  0  0  0  0  0  0
   -3.6370   22.1560  -28.1550 C   0  0  0  0  0  0  0  0  0  0  0  0
   -3.9410   23.0540  -29.2020 O   0  0  0  0  0  0  0  0  0  0  0  0
   -4.5570   24.2120  -28.6770 C   0  0  0  0  0  0  0  0  0  0  0  0
   -5.3790   24.8830  -29.7770 C   0  0  0  0  0  0  0  0  0  0  0  0
   -4.9800   24.3650  -31.0900 N   0  0  0  0  0  0  0  0  0  0  0  0
   -6.1400   24.1910  -31.9740 C   0  0  0  0  0  0  0  0  0  0  0  0
   -6.6700   22.7920  -31.8060 C   0  0  0  0  0  0  0  0  0  0  0  0
   -8.0380   22.5930  -31.5690 C   0  0  0  0  0  0  0  0  0  0  0  0
   -8.5330   21.3080  -31.3540 C   0  0  0  0  0  0  0  0  0  0  0  0
   -7.6720   20.2100  -31.3710 C   0  0  0  0  0  0  0  0  0  0  0  0
   -6.2920   20.3780  -31.6050 C   0  0  0  0  0  0  0  0  0  0  0  0
   -5.4190   19.2740  -31.6490 O   0  0  0  0  0  0  0  0  0  0  0  0
   -5.6350   18.0600  -32.3630 C   0  0  0  0  0  0  0  0  0  0  0  0
   -6.0810   18.3500  -33.7920 C   0  0  0  0  0  0  0  0  0  0  0  0
   -5.7830   21.6910  -31.8120 C   0  0  0  0  0  0  0  0  0  0  0  0
   -4.4170   21.9710  -32.0130 O   0  0  0  0  0  0  0  0  0  0  0  0
   -3.7030   21.9180  -33.2460 C   0  0  0  0  0  0  0  0  0  0  0  0
   -3.2910   20.4810  -33.5280 C   0  0  0  0  0  0  0  0  0  0  0  0
   -0.4401   22.0681  -30.2749 H   0  0  0  0  0  0  0  0  0  0  0  0
   -0.0121   21.1676  -31.7691 H   0  0  0  0  0  0  0  0  0  0  0  0
   -1.4112   22.2942  -31.7691 H   0  0  0  0  0  0  0  0  0  0  0  0
   -1.9538   19.7786  -31.6133 H   0  0  0  0  0  0  0  0  0  0  0  0
   -1.2641   19.8680  -29.9362 H   0  0  0  0  0  0  0  0  0  0  0  0
   -3.8410   20.3730  -30.6510 H   0  0  0  0  0  0  0  0  0  0  0  0
   -3.1640   21.9160  -30.5110 H   0  0  0  0  0  0  0  0  0  0  0  0
   -3.7823   20.0271  -28.4599 H   0  0  0  0  0  0  0  0  0  0  0  0
   -2.0947   20.6786  -28.3746 H   0  0  0  0  0  0  0  0  0  0  0  0
   -4.5447   21.9542  -27.5673 H   0  0  0  0  0  0  0  0  0  0  0  0
   -2.8718   22.5965  -27.4989 H   0  0  0  0  0  0  0  0  0  0  0  0
   -5.2169   23.9322  -27.8426 H   0  0  0  0  0  0  0  0  0  0  0  0
   -3.7875   24.9083  -28.3121 H   0  0  0  0  0  0  0  0  0  0  0  0
   -6.4464   24.6744  -29.6124 H   0  0  0  0  0  0  0  0  0  0  0  0
   -5.2016   25.9682  -29.7485 H   0  0  0  0  0  0  0  0  0  0  0  0
   -4.5270   23.4300  -30.9590 H   0  0  0  0  0  0  0  0  0  0  0  0
   -6.9215   24.9174  -31.7064 H   0  0  0  0  0  0  0  0  0  0  0  0
   -5.8418   24.3555  -33.0200 H   0  0  0  0  0  0  0  0  0  0  0  0
   -8.7225   23.4540  -31.5528 H   0  0  0  0  0  0  0  0  0  0  0  0
   -9.6072   21.1587  -31.1701 H   0  0  0  0  0  0  0  0  0  0  0  0
   -8.0750   19.2009  -31.1997 H   0  0  0  0  0  0  0  0  0  0  0  0
   -4.6988   17.4830  -32.3865 H   0  0  0  0  0  0  0  0  0  0  0  0
   -6.4235   17.4853  -31.8551 H   0  0  0  0  0  0  0  0  0  0  0  0
   -7.0031   18.9496  -33.7738 H   0  0  0  0  0  0  0  0  0  0  0  0
   -5.2912   18.9078  -34.3165 H   0  0  0  0  0  0  0  0  0  0  0  0
   -6.2704   17.4019  -34.3165 H   0  0  0  0  0  0  0  0  0  0  0  0
   -4.3477   22.2817  -34.0597 H   0  0  0  0  0  0  0  0  0  0  0  0
   -2.8064   22.5518  -33.1797 H   0  0  0  0  0  0  0  0  0  0  0  0
   -3.1387   19.9498  -32.5769 H   0  0  0  0  0  0  0  0  0  0  0  0
   -4.0815   19.9795  -34.1055 H   0  0  0  0  0  0  0  0  0  0  0  0
   -2.3548   20.4746  -34.1055 H   0  0  0  0  0  0  0  0  0  0  0  0
  1  2  1  0
  2  3  1  0
  3  4  1  0
  4  5  1  0
  5  6  1  0
  6  7  1  0
  7  8  1  0
  8  9  1  0
  9 10  1  0
 10 11  1  0
 11 12  2  0
 12 13  1  0
 13 14  2  0
 14 15  1  0
 15 16  1  0
 16 17  1  0
 17 18  1  0
 15 19  2  0
 19 20  1  0
 20 21  1  0
 21 22  1  0
 19 11  1  0
  1 23  1  0
  1 24  1  0
  1 25  1  0
  2 26  1  0
  2 27  1  0
  3 28  1  0
  3 29  1  0
  4 30  1  0
  4 31  1  0
  5 32  1  0
  5 33  1  0
  7 34  1  0
  7 35  1  0
  8 36  1  0
  8 37  1  0
  9 38  1  0
 10 39  1  0
 10 40  1  0
 12 41  1  0
 13 42  1  0
 14 43  1  0
 17 44  1  0
 17 45  1  0
 18 46  1  0
 18 47  1  0
 18 48  1  0
 21 49  1  0
 21 50  1  0
 22 51  1  0
 22 52  1  0
 22 53  1  0
M  CHG  1   3   1
M  END
>  <UniqueID>  (9) 
9

>  <SMILES>  (9) 
CC[NH2+]CCOCCNCc1cccc(OCC)c1OCC

>  <Energy>  (9) 
39.465276883572464

>  <Genealogy>  (9) 
CC[NH2+]CCOCCNCc1cccc(OCC)c1OCC (protonated)
CC[NH2+]CCOCCNCc1cccc(OCC)c1OCC (3D coordinates assigned)
CC[NH2+]CCOCCNCc1cccc(OCC)c1OCC (optimized conformer: 39.465276883572464 kcal/mol)

>  <smiles>  (9) 
CCNCCOCCNCc1cccc(OCC)c1OCC

>  <score_type>  (9) 
oracle

>  <origin>  (9) 
adg

>  <m_score__min__energy>  (9) 
-6.5199999999999996

>  <m_primary>  (9) 
energy

$$$$
9:0
     RDKit          3D

 54 56  0  0  0  0  0  0  0  0999 V2000
   -0.1280   24.3260  -28.0500 C   0  0  0  0  0  0  0  0  0  0  0  0
   -0.9840   25.5820  -28.2020 C   0  0  0  0  0  0  0  0  0  0  0  0
   -2.1970   25.2980  -28.9780 N   0  0  0  0  0  0  0  0  0  0  0  0
   -2.4400   23.8550  -29.1020 C   0  0  0  0  0  0  0  0  0  0  0  0
   -3.3680   23.5840  -30.2820 C   0  0  0  0  0  0  0  0  0  0  0  0
   -3.8490   24.8150  -30.7820 O   0  0  0  0  0  0  0  0  0  0  0  0
   -5.2160   24.9580  -30.4660 C   0  0  0  0  0  0  0  0  0  0  0  0
   -5.9930   23.7420  -30.9850 C   0  0  0  0  0  0  0  0  0  0  0  0
   -5.6040   23.3450  -32.3540 N   0  0  0  0  0  0  0  0  0  0  0  0
   -5.7380   21.9090  -32.5860 C   0  0  0  0  0  0  0  0  0  0  0  0
   -7.0030   21.2750  -32.4170 C   0  0  0  0  0  0  0  0  0  0  0  0
   -8.1610   22.0100  -32.0560 C   0  0  0  0  0  0  0  0  0  0  0  0
   -9.3790   21.3740  -31.8290 C   0  0  0  0  0  0  0  0  0  0  0  0
   -9.4740   19.9960  -31.9390 C   0  0  0  0  0  0  0  0  0  0  0  0
   -8.3620   19.2470  -32.3120 C   0  0  0  0  0  0  0  0  0  0  0  0
   -7.1180   19.8680  -32.6000 C   0  0  0  0  0  0  0  0  0  0  0  0
   -6.0350   19.1290  -33.0260 N   0  0  0  0  0  0  0  0  0  0  0  0
   -6.2320   17.7360  -33.4960 C   0  0  0  0  0  0  0  0  0  0  0  0
   -4.7760   19.6900  -33.0490 C   0  0  0  0  0  0  0  0  0  0  0  0
   -3.6200   18.8820  -33.2050 C   0  0  0  0  0  0  0  0  0  0  0  0
   -2.3550   19.4420  -33.3280 C   0  0  0  0  0  0  0  0  0  0  0  0
   -2.1960   20.8230  -33.3040 C   0  0  0  0  0  0  0  0  0  0  0  0
   -0.8300   21.4280  -33.4510 C   0  0  0  0  0  0  0  0  0  0  0  0
   -3.3050   21.6400  -33.0650 C   0  0  0  0  0  0  0  0  0  0  0  0
   -4.6070   21.0970  -32.8980 C   0  0  0  0  0  0  0  0  0  0  0  0
    0.0194   24.1098  -26.9816 H   0  0  0  0  0  0  0  0  0  0  0  0
   -0.6356   23.4761  -28.5295 H   0  0  0  0  0  0  0  0  0  0  0  0
    0.8487   24.4877  -28.5295 H   0  0  0  0  0  0  0  0  0  0  0  0
   -1.2715   25.9449  -27.2042 H   0  0  0  0  0  0  0  0  0  0  0  0
   -0.3970   26.3453  -28.7339 H   0  0  0  0  0  0  0  0  0  0  0  0
   -2.0470   25.6720  -29.9450 H   0  0  0  0  0  0  0  0  0  0  0  0
   -1.4834   23.3367  -29.2638 H   0  0  0  0  0  0  0  0  0  0  0  0
   -2.9112   23.4866  -28.1788 H   0  0  0  0  0  0  0  0  0  0  0  0
   -2.8146   23.0559  -31.0725 H   0  0  0  0  0  0  0  0  0  0  0  0
   -4.2130   22.9606  -29.9543 H   0  0  0  0  0  0  0  0  0  0  0  0
   -5.3341   25.0296  -29.3747 H   0  0  0  0  0  0  0  0  0  0  0  0
   -5.6071   25.8709  -30.9389 H   0  0  0  0  0  0  0  0  0  0  0  0
   -5.8080   22.8941  -30.3090 H   0  0  0  0  0  0  0  0  0  0  0  0
   -7.0565   24.0215  -31.0149 H   0  0  0  0  0  0  0  0  0  0  0  0
   -6.1050   23.9310  -33.0540 H   0  0  0  0  0  0  0  0  0  0  0  0
   -4.6140   23.6310  -32.5230 H   0  0  0  0  0  0  0  0  0  0  0  0
   -8.0959   23.1033  -31.9533 H   0  0  0  0  0  0  0  0  0  0  0  0
  -10.2667   21.9663  -31.5621 H   0  0  0  0  0  0  0  0  0  0  0  0
  -10.4300   19.4932  -31.7311 H   0  0  0  0  0  0  0  0  0  0  0  0
   -8.4484   18.1528  -32.3851 H   0  0  0  0  0  0  0  0  0  0  0  0
   -6.3267   17.0663  -32.6285 H   0  0  0  0  0  0  0  0  0  0  0  0
   -7.1470   17.6801  -34.1040 H   0  0  0  0  0  0  0  0  0  0  0  0
   -5.3684   17.4286  -34.1040 H   0  0  0  0  0  0  0  0  0  0  0  0
   -3.7282   17.7876  -33.2291 H   0  0  0  0  0  0  0  0  0  0  0  0
   -1.4761   18.7909  -33.4448 H   0  0  0  0  0  0  0  0  0  0  0  0
   -0.4035   21.6169  -32.4548 H   0  0  0  0  0  0  0  0  0  0  0  0
   -0.1791   20.7340  -34.0030 H   0  0  0  0  0  0  0  0  0  0  0  0
   -0.9065   22.3764  -34.0030 H   0  0  0  0  0  0  0  0  0  0  0  0
   -3.1660   22.7295  -33.0048 H   0  0  0  0  0  0  0  0  0  0  0  0
  1  2  1  0
  2  3  1  0
  3  4  1  0
  4  5  1  0
  5  6  1  0
  6  7  1  0
  7  8  1  0
  8  9  1  0
  9 10  1  0
 10 11  2  0
 11 12  1  0
 12 13  2  0
 13 14  1  0
 14 15  2  0
 15 16  1  0
 16 17  2  0
 17 18  1  0
 17 19  1  0
 19 20  2  0
 20 21  1  0
 21 22  2  0
 22 23  1  0
 22 24  1  0
 24 25  2  0
 25 10  1  0
 16 11  1  0
 25 19  1  0
  1 26  1  0
  1 27  1  0
  1 28  1  0
  2 29  1  0
  2 30  1  0
  3 31  1  0
  4 32  1  0
  4 33  1  0
  5 34  1  0
  5 35  1  0
  7 36  1  0
  7 37  1  0
  8 38  1  0
  8 39  1  0
  9 40  1  0
  9 41  1  0
 12 42  1  0
 13 43  1  0
 14 44  1  0
 15 45  1  0
 18 46  1  0
 18 47  1  0
 18 48  1  0
 20 49  1  0
 21 50  1  0
 23 51  1  0
 23 52  1  0
 23 53  1  0
 24 54  1  0
M  CHG  2   9   1  17   1
M  END
>  <UniqueID>  (10) 
10

>  <SMILES>  (10) 
CCNCCOCC[NH2+]c1c2ccccc2[n+](C)c2ccc(C)cc12

>  <Energy>  (10) 
73.81894601121988

>  <Genealogy>  (10) 
CCNCCOCC[NH2+]c1c2ccccc2[n+](C)c2ccc(C)cc12 (protonated)
CCNCCOCC[NH2+]c1c2ccccc2[n+](C)c2ccc(C)cc12 (3D coordinates assigned)
CCNCCOCC[NH2+]c1c2ccccc2[n+](C)c2ccc(C)cc12 (optimized conformer: 73.81894601121988 kcal/mol)

>  <smiles>  (10) 
CCNCCOCCNc1c2ccccc2[n+](C)c2ccc(C)cc12

>  <score_type>  (10) 
oracle

>  <origin>  (10) 
adg

>  <m_score__min__energy>  (10) 
-8.3699999999999992

>  <m_primary>  (10) 
energy

$$$$
10:0
     RDKit          3D

 48 48  0  0  0  0  0  0  0  0999 V2000
   -6.2570   25.6520  -29.5120 C   0  0  0  0  0  0  0  0  0  0  0  0
   -5.3680   25.6450  -30.7510 C   0  0  0  0  0  0  0  0  0  0  0  0
   -4.9870   24.2560  -31.1000 N   0  0  0  0  0  0  0  0  0  0  0  0
   -6.1500   23.3440  -31.0130 C   0  0  0  0  0  0  0  0  0  0  0  0
   -6.9840   23.4080  -32.2890 C   0  0  0  0  0  0  0  0  0  0  0  0
   -3.8790   23.7790  -30.2390 C   0  0  0  0  0  0  0  0  0  0  0  0
   -3.0710   22.6860  -30.9460 C   0  0  0  0  0  0  0  0  0  0  0  0
   -3.6330   22.4030  -32.2690 N   0  0  0  0  0  0  0  0  0  0  0  0
   -3.9060   21.0810  -32.7680 C   0  0  0  0  0  0  0  0  0  0  0  0
   -2.8960   20.3870  -33.4460 C   0  0  0  0  0  0  0  0  0  0  0  0
   -3.1250   19.1010  -33.9330 C   0  0  0  0  0  0  0  0  0  0  0  0
   -4.3600   18.4830  -33.7330 C   0  0  0  0  0  0  0  0  0  0  0  0
   -5.3880   19.1470  -33.0350 C   0  0  0  0  0  0  0  0  0  0  0  0
   -6.6590   18.4950  -32.7920 N   0  0  0  0  0  0  0  0  0  0  0  0
   -6.7370   17.0270  -32.7050 C   0  0  0  0  0  0  0  0  0  0  0  0
   -6.7510   16.3950  -34.0960 C   0  0  0  0  0  0  0  0  0  0  0  0
   -7.9080   19.2720  -32.6930 C   0  0  0  0  0  0  0  0  0  0  0  0
   -8.8120   18.7250  -31.5920 C   0  0  0  0  0  0  0  0  0  0  0  0
   -5.1460   20.4510  -32.5580 C   0  0  0  0  0  0  0  0  0  0  0  0
   -5.6282   25.6470  -28.6095 H   0  0  0  0  0  0  0  0  0  0  0  0
   -6.8850   26.5551  -29.5164 H   0  0  0  0  0  0  0  0  0  0  0  0
   -6.8991   24.7589  -29.5164 H   0  0  0  0  0  0  0  0  0  0  0  0
   -5.9149   26.0942  -31.5931 H   0  0  0  0  0  0  0  0  0  0  0  0
   -4.4571   26.2253  -30.5423 H   0  0  0  0  0  0  0  0  0  0  0  0
   -5.7911   22.3144  -30.8678 H   0  0  0  0  0  0  0  0  0  0  0  0
   -6.7783   23.6531  -30.1647 H   0  0  0  0  0  0  0  0  0  0  0  0
   -8.0492   23.4897  -32.0271 H   0  0  0  0  0  0  0  0  0  0  0  0
   -6.6833   24.2857  -32.8799 H   0  0  0  0  0  0  0  0  0  0  0  0
   -6.8208   22.4947  -32.8799 H   0  0  0  0  0  0  0  0  0  0  0  0
   -3.2148   24.6241  -30.0052 H   0  0  0  0  0  0  0  0  0  0  0  0
   -4.3058   23.3600  -29.3158 H   0  0  0  0  0  0  0  0  0  0  0  0
   -2.0300   23.0226  -31.0600 H   0  0  0  0  0  0  0  0  0  0  0  0
   -3.1103   21.7685  -30.3405 H   0  0  0  0  0  0  0  0  0  0  0  0
   -4.0510   23.2140  -32.7790 H   0  0  0  0  0  0  0  0  0  0  0  0
   -1.9144   20.8603  -33.5954 H   0  0  0  0  0  0  0  0  0  0  0  0
   -2.3291   18.5714  -34.4770 H   0  0  0  0  0  0  0  0  0  0  0  0
   -4.5323   17.4692  -34.1235 H   0  0  0  0  0  0  0  0  0  0  0  0
   -5.8647   16.6529  -32.1489 H   0  0  0  0  0  0  0  0  0  0  0  0
   -7.6694   16.7561  -32.1881 H   0  0  0  0  0  0  0  0  0  0  0  0
   -6.7753   15.2994  -34.0007 H   0  0  0  0  0  0  0  0  0  0  0  0
   -7.6418   16.7352  -34.6444 H   0  0  0  0  0  0  0  0  0  0  0  0
   -5.8460   16.6954  -34.6444 H   0  0  0  0  0  0  0  0  0  0  0  0
   -7.6617   20.3201  -32.4675 H   0  0  0  0  0  0  0  0  0  0  0  0
   -8.4420   19.1969  -33.6517 H   0  0  0  0  0  0  0  0  0  0  0  0
   -8.3890   18.9809  -30.6094 H   0  0  0  0  0  0  0  0  0  0  0  0
   -9.8143   19.1683  -31.6865 H   0  0  0  0  0  0  0  0  0  0  0  0
   -8.8843   17.6315  -31.6865 H   0  0  0  0  0  0  0  0  0  0  0  0
   -5.9390   20.9842  -32.0131 H   0  0  0  0  0  0  0  0  0  0  0  0
  1  2  1  0
  2  3  1  0
  3  4  1  0
  4  5  1  0
  3  6  1  0
  6  7  1  0
  7  8  1  0
  8  9  1  0
  9 10  2  0
 10 11  1  0
 11 12  2  0
 12 13  1  0
 13 14  1  0
 14 15  1  0
 15 16  1  0
 14 17  1  0
 17 18  1  0
 13 19  2  0
 19  9  1  0
  1 20  1  0
  1 21  1  0
  1 22  1  0
  2 23  1  0
  2 24  1  0
  4 25  1  0
  4 26  1  0
  5 27  1  0
  5 28  1  0
  5 29  1  0
  6 30  1  0
  6 31  1  0
  7 32  1  0
  7 33  1  0
  8 34  1  0
 10 35  1  0
 11 36  1  0
 12 37  1  0
 15 38  1  0
 15 39  1  0
 16 40  1  0
 16 41  1  0
 16 42  1  0
 17 43  1  0
 17 44  1  0
 18 45  1  0
 18 46  1  0
 18 47  1  0
 19 48  1  0
M  END
>  <UniqueID>  (11) 
11

>  <SMILES>  (11) 
CCN(CC)CCNc1cccc(N(CC)CC)c1

>  <Energy>  (11) 
36.97822638222765

>  <Genealogy>  (11) 
CCN(CC)CCNc1cccc(N(CC)CC)c1 (3D coordinates assigned)
CCN(CC)CCNc1cccc(N(CC)CC)c1 (optimized conformer: 36.97822638222765 kcal/mol)

>  <smiles>  (11) 
CCN(CC)CCNc1cccc(N(CC)CC)c1

>  <score_type>  (11) 
oracle

>  <origin>  (11) 
adg

>  <m_score__min__energy>  (11) 
-6.5899999999999999

>  <m_primary>  (11) 
energy

$$$$
11:0
     RDKit          3D

 40 42  0  0  0  0  0  0  0  0999 V2000
   -1.1820   23.3800  -29.7910 O   0  0  0  0  0  0  0  0  0  0  0  0
   -1.5710   24.4870  -29.3300 C   0  0  0  0  0  0  0  0  0  0  0  0
   -0.6700   25.3260  -28.5970 N   0  0  0  0  0  0  0  0  0  0  0  0
   -0.8950   25.8970  -27.3000 C   0  0  0  0  0  0  0  0  0  0  0  0
   -1.3800   25.1340  -26.2220 C   0  0  0  0  0  0  0  0  0  0  0  0
   -1.5780   25.7280  -24.9740 C   0  0  0  0  0  0  0  0  0  0  0  0
   -1.2740   27.0780  -24.7810 C   0  0  0  0  0  0  0  0  0  0  0  0
   -0.7400   27.8430  -25.8320 C   0  0  0  0  0  0  0  0  0  0  0  0
   -0.4460   29.3080  -25.6380 C   0  0  0  0  0  0  0  0  0  0  0  0
    0.6160   29.4820  -24.7660 F   0  0  0  0  0  0  0  0  0  0  0  0
   -1.5460   29.9640  -25.1130 F   0  0  0  0  0  0  0  0  0  0  0  0
   -0.1240   29.8740  -26.8570 F   0  0  0  0  0  0  0  0  0  0  0  0
   -0.5690   27.2430  -27.0930 C   0  0  0  0  0  0  0  0  0  0  0  0
   -2.9260   24.9190  -29.5230 N   0  0  0  0  0  0  0  0  0  0  0  0
   -3.9710   24.0940  -30.0630 C   0  0  0  0  0  0  0  0  0  0  0  0
   -3.7460   22.7480  -30.3940 C   0  0  0  0  0  0  0  0  0  0  0  0
   -4.7860   21.9580  -30.8960 C   0  0  0  0  0  0  0  0  0  0  0  0
   -6.0740   22.4970  -31.0630 C   0  0  0  0  0  0  0  0  0  0  0  0
   -7.1800   21.6600  -31.5960 C   0  0  0  0  0  0  0  0  0  0  0  0
   -6.9080   20.4290  -32.2250 C   0  0  0  0  0  0  0  0  0  0  0  0
   -7.9510   19.6440  -32.7260 C   0  0  0  0  0  0  0  0  0  0  0  0
   -9.2740   20.0770  -32.6060 C   0  0  0  0  0  0  0  0  0  0  0  0
   -9.5560   21.2950  -31.9850 C   0  0  0  0  0  0  0  0  0  0  0  0
   -8.5170   22.0840  -31.4820 C   0  0  0  0  0  0  0  0  0  0  0  0
   -6.3010   23.8380  -30.7090 C   0  0  0  0  0  0  0  0  0  0  0  0
   -5.2610   24.6240  -30.2060 C   0  0  0  0  0  0  0  0  0  0  0  0
   -1.6039   24.0663  -26.3628 H   0  0  0  0  0  0  0  0  0  0  0  0
   -1.9748   25.1309  -24.1397 H   0  0  0  0  0  0  0  0  0  0  0  0
   -1.4536   27.5445  -23.8012 H   0  0  0  0  0  0  0  0  0  0  0  0
   -0.1736   27.8397  -27.9282 H   0  0  0  0  0  0  0  0  0  0  0  0
   -3.1350   25.9280  -29.3430 H   0  0  0  0  0  0  0  0  0  0  0  0
   -2.7454   22.3118  -30.2577 H   0  0  0  0  0  0  0  0  0  0  0  0
   -4.5947   20.9079  -31.1619 H   0  0  0  0  0  0  0  0  0  0  0  0
   -5.8683   20.0832  -32.3226 H   0  0  0  0  0  0  0  0  0  0  0  0
   -7.7296   18.6841  -33.2154 H   0  0  0  0  0  0  0  0  0  0  0  0
  -10.0933   19.4582  -33.0008 H   0  0  0  0  0  0  0  0  0  0  0  0
  -10.5980   21.6348  -31.8912 H   0  0  0  0  0  0  0  0  0  0  0  0
   -8.7463   23.0427  -30.9938 H   0  0  0  0  0  0  0  0  0  0  0  0
   -7.3047   24.2720  -30.8288 H   0  0  0  0  0  0  0  0  0  0  0  0
   -5.4562   25.6680  -29.9197 H   0  0  0  0  0  0  0  0  0  0  0  0
  1  2  2  0
  2  3  1  0
  3  4  1  0
  4  5  2  0
  5  6  1  0
  6  7  2  0
  7  8  1  0
  8  9  1  0
  9 10  1  0
  9 11  1  0
  9 12  1  0
  8 13  2  0
  2 14  1  0
 14 15  1  0
 15 16  2  0
 16 17  1  0
 17 18  2  0
 18 19  1  0
 19 20  2  0
 20 21  1  0
 21 22  2  0
 22 23  1  0
 23 24  2  0
 18 25  1  0
 25 26  2  0
 13  4  1  0
 26 15  1  0
 24 19  1  0
  5 27  1  0
  6 28  1  0
  7 29  1  0
 13 30  1  0
 14 31  1  0
 16 32  1  0
 17 33  1  0
 20 34  1  0
 21 35  1  0
 22 36  1  0
 23 37  1  0
 24 38  1  0
 25 39  1  0
 26 40  1  0
M  CHG  1   3  -1
M  END
>  <UniqueID>  (12) 
12

>  <SMILES>  (12) 
O=C([N-]c1cccc(C(F)(F)F)c1)Nc1ccc(-c2ccccc2)cc1

>  <Energy>  (12) 
55.44934078436353

>  <Genealogy>  (12) 
O=C([N-]c1cccc(C(F)(F)F)c1)Nc1ccc(-c2ccccc2)cc1 (protonated)
O=C([N-]c1cccc(C(F)(F)F)c1)Nc1ccc(-c2ccccc2)cc1 (3D coordinates assigned)
O=C([N-]c1cccc(C(F)(F)F)c1)Nc1ccc(-c2ccccc2)cc1 (optimized conformer: 55.44934078436353 kcal/mol)

>  <smiles>  (12) 
O=C(Nc1ccc(-c2ccccc2)cc1)Nc1cccc(C(F)(F)F)c1

>  <score_type>  (12) 
oracle

>  <origin>  (12) 
adg

>  <m_score__min__energy>  (12) 
-10.289999999999999

>  <m_primary>  (12) 
energy

$$$$
12:0
     RDKit          3D

 63 65  0  0  0  0  0  0  0  0999 V2000
   -0.4690   26.0260  -36.5660 C   0  0  0  0  0  0  0  0  0  0  0  0
    0.6110   25.6920  -37.5910 C   0  0  0  0  0  0  0  0  0  0  0  0
    1.4460   24.5690  -37.1090 N   0  0  0  0  0  0  0  0  0  0  0  0
    2.8760   24.9440  -37.0650 C   0  0  0  0  0  0  0  0  0  0  0  0
    3.2230   25.5690  -35.7180 C   0  0  0  0  0  0  0  0  0  0  0  0
    0.9750   24.0660  -35.7940 C   0  0  0  0  0  0  0  0  0  0  0  0
    0.6310   22.5810  -35.8960 C   0  0  0  0  0  0  0  0  0  0  0  0
   -0.3320   22.2430  -34.9230 O   0  0  0  0  0  0  0  0  0  0  0  0
   -0.0780   20.9420  -34.4340 C   0  0  0  0  0  0  0  0  0  0  0  0
   -1.3300   20.3960  -33.7350 C   0  0  0  0  0  0  0  0  0  0  0  0
   -2.4720   21.3370  -33.8110 N   0  0  0  0  0  0  0  0  0  0  0  0
   -3.2660   21.3470  -32.5870 C   0  0  0  0  0  0  0  0  0  0  0  0
   -2.7500   21.9350  -31.4070 C   0  0  0  0  0  0  0  0  0  0  0  0
   -1.3600   22.1150  -31.2180 C   0  0  0  0  0  0  0  0  0  0  0  0
   -0.8630   22.6600  -30.0370 C   0  0  0  0  0  0  0  0  0  0  0  0
   -1.7350   23.0280  -29.0200 C   0  0  0  0  0  0  0  0  0  0  0  0
   -3.1100   22.8780  -29.1880 C   0  0  0  0  0  0  0  0  0  0  0  0
   -3.6470   22.3610  -30.3950 C   0  0  0  0  0  0  0  0  0  0  0  0
   -5.0090   22.2850  -30.6070 N   0  0  0  0  0  0  0  0  0  0  0  0
   -5.9290   23.0590  -29.7440 C   0  0  0  0  0  0  0  0  0  0  0  0
   -5.5010   21.4700  -31.6100 C   0  0  0  0  0  0  0  0  0  0  0  0
   -6.8830   21.1680  -31.7020 C   0  0  0  0  0  0  0  0  0  0  0  0
   -7.3810   20.3410  -32.7090 C   0  0  0  0  0  0  0  0  0  0  0  0
   -8.8510   20.0480  -32.7920 C   0  0  0  0  0  0  0  0  0  0  0  0
   -6.4920   19.6680  -33.5430 C   0  0  0  0  0  0  0  0  0  0  0  0
   -5.1120   19.8690  -33.4310 C   0  0  0  0  0  0  0  0  0  0  0  0
   -4.2350   18.8250  -34.0810 C   0  0  0  0  0  0  0  0  0  0  0  0
   -4.6140   20.8930  -32.5680 C   0  0  0  0  0  0  0  0  0  0  0  0
   -0.0630   25.9004  -35.5514 H   0  0  0  0  0  0  0  0  0  0  0  0
   -0.7959   27.0672  -36.7039 H   0  0  0  0  0  0  0  0  0  0  0  0
   -1.3266   25.3511  -36.7039 H   0  0  0  0  0  0  0  0  0  0  0  0
    0.1345   25.4084  -38.5410 H   0  0  0  0  0  0  0  0  0  0  0  0
    1.2496   26.5753  -37.7390 H   0  0  0  0  0  0  0  0  0  0  0  0
    3.4909   24.0445  -37.2159 H   0  0  0  0  0  0  0  0  0  0  0  0
    3.0760   25.6777  -37.8597 H   0  0  0  0  0  0  0  0  0  0  0  0
    2.8618   24.9184  -34.9079 H   0  0  0  0  0  0  0  0  0  0  0  0
    4.3140   25.6838  -35.6372 H   0  0  0  0  0  0  0  0  0  0  0  0
    2.7435   26.5557  -35.6372 H   0  0  0  0  0  0  0  0  0  0  0  0
    1.7684   24.2056  -35.0450 H   0  0  0  0  0  0  0  0  0  0  0  0
    0.0765   24.6252  -35.4940 H   0  0  0  0  0  0  0  0  0  0  0  0
    0.2281   22.3680  -36.8972 H   0  0  0  0  0  0  0  0  0  0  0  0
    1.5408   21.9863  -35.7267 H   0  0  0  0  0  0  0  0  0  0  0  0
    0.1890   20.2823  -35.2727 H   0  0  0  0  0  0  0  0  0  0  0  0
    0.7525   20.9804  -33.7138 H   0  0  0  0  0  0  0  0  0  0  0  0
   -1.6189   19.4496  -34.2154 H   0  0  0  0  0  0  0  0  0  0  0  0
   -1.0852   20.2490  -32.6727 H   0  0  0  0  0  0  0  0  0  0  0  0
   -3.0850   21.0930  -34.6220 H   0  0  0  0  0  0  0  0  0  0  0  0
   -2.0720   22.2680  -34.0340 H   0  0  0  0  0  0  0  0  0  0  0  0
   -0.6617   21.8203  -32.0152 H   0  0  0  0  0  0  0  0  0  0  0  0
    0.2206   22.7992  -29.9092 H   0  0  0  0  0  0  0  0  0  0  0  0
   -1.3389   23.4389  -28.0797 H   0  0  0  0  0  0  0  0  0  0  0  0
   -3.7897   23.1649  -28.3721 H   0  0  0  0  0  0  0  0  0  0  0  0
   -5.6942   22.8614  -28.6877 H   0  0  0  0  0  0  0  0  0  0  0  0
   -5.8101   24.1327  -29.9514 H   0  0  0  0  0  0  0  0  0  0  0  0
   -6.9665   22.7582  -29.9514 H   0  0  0  0  0  0  0  0  0  0  0  0
   -7.5775   21.5949  -30.9635 H   0  0  0  0  0  0  0  0  0  0  0  0
   -9.2663   19.9652  -31.7768 H   0  0  0  0  0  0  0  0  0  0  0  0
   -9.3575   20.8629  -33.3300 H   0  0  0  0  0  0  0  0  0  0  0  0
   -9.0064   19.1012  -33.3300 H   0  0  0  0  0  0  0  0  0  0  0  0
   -6.8795   18.9696  -34.2993 H   0  0  0  0  0  0  0  0  0  0  0  0
   -3.7351   18.2299  -33.3026 H   0  0  0  0  0  0  0  0  0  0  0  0
   -4.8533   18.1647  -34.7069 H   0  0  0  0  0  0  0  0  0  0  0  0
   -3.4779   19.3201  -34.7069 H   0  0  0  0  0  0  0  0  0  0  0  0
  1  2  1  0
  2  3  1  0
  3  4  1  0
  4  5  1  0
  3  6  1  0
  6  7  1  0
  7  8  1  0
  8  9  1  0
  9 10  1  0
 10 11  1  0
 11 12  1  0
 12 13  2  0
 13 14  1  0
 14 15  2  0
 15 16  1  0
 16 17  2  0
 17 18  1  0
 18 19  2  0
 19 20  1  0
 19 21  1  0
 21 22  2  0
 22 23  1  0
 23 24  1  0
 23 25  2  0
 25 26  1  0
 26 27  1  0
 26 28  2  0
 28 12  1  0
 18 13  1  0
 28 21  1  0
  1 29  1  0
  1 30  1  0
  1 31  1  0
  2 32  1  0
  2 33  1  0
  4 34  1  0
  4 35  1  0
  5 36  1  0
  5 37  1  0
  5 38  1  0
  6 39  1  0
  6 40  1  0
  7 41  1  0
  7 42  1  0
  9 43  1  0
  9 44  1  0
 10 45  1  0
 10 46  1  0
 11 47  1  0
 11 48  1  0
 14 49  1  0
 15 50  1  0
 16 51  1  0
 17 52  1  0
 20 53  1  0
 20 54  1  0
 20 55  1  0
 22 56  1  0
 24 57  1  0
 24 58  1  0
 24 59  1  0
 25 60  1  0
 27 61  1  0
 27 62  1  0
 27 63  1  0
M  CHG  2  11   1  19   1
M  END
>  <UniqueID>  (13) 
13

>  <SMILES>  (13) 
CCN(CC)CCOCC[NH2+]c1c2ccccc2[n+](C)c2cc(C)cc(C)c12

>  <Energy>  (13) 
97.93417791340521

>  <Genealogy>  (13) 
CCN(CC)CCOCC[NH2+]c1c2ccccc2[n+](C)c2cc(C)cc(C)c12 (protonated)
CCN(CC)CCOCC[NH2+]c1c2ccccc2[n+](C)c2cc(C)cc(C)c12 (3D coordinates assigned)
CCN(CC)CCOCC[NH2+]c1c2ccccc2[n+](C)c2cc(C)cc(C)c12 (optimized conformer: 97.93417791340521 kcal/mol)

>  <smiles>  (13) 
CCN(CC)CCOCCNc1c2ccccc2[n+](C)c2cc(C)cc(C)c12

>  <score_type>  (13) 
oracle

>  <origin>  (13) 
adg

>  <m_score__min__energy>  (13) 
-8.6199999999999992

>  <m_primary>  (13) 
energy

$$$$
13:0
     RDKit          3D

 50 53  0  0  1  0  0  0  0  0999 V2000
   -2.4950   20.2130  -32.0670 C   0  0  0  0  0  0  0  0  0  0  0  0
   -2.4990   21.5120  -31.3070 C   0  0  0  0  0  0  0  0  0  0  0  0
   -3.5810   22.3530  -31.4780 C   0  0  0  0  0  0  0  0  0  0  0  0
   -3.6220   23.5540  -30.7980 C   0  0  0  0  0  0  0  0  0  0  0  0
   -4.6220   24.3150  -30.9670 N   0  0  0  0  0  0  0  0  0  0  0  0
   -5.9550   23.8660  -31.0440 C   0  0  0  0  0  0  0  0  0  0  0  0
   -6.8500   23.9000  -29.8490 C   0  0  0  0  0  0  0  0  0  0  0  0
   -7.5730   22.5270  -29.7620 C   0  0  0  0  0  0  0  0  0  0  0  0
   -8.1000   22.3070  -31.0650 N   0  0  0  0  0  0  0  0  0  0  0  0
   -9.3460   21.5750  -31.0770 C   0  0  0  0  0  0  0  0  0  0  0  0
   -9.3290   20.6930  -32.2970 C   0  0  0  0  0  0  0  0  0  0  0  0
   -8.1640   19.7960  -32.3490 C   0  0  0  0  0  0  0  0  0  0  0  0
   -8.0840   18.5820  -31.7010 C   0  0  0  0  0  0  0  0  0  0  0  0
   -6.9370   17.8230  -31.8230 C   0  0  0  0  0  0  0  0  0  0  0  0
   -5.8580   18.2550  -32.5900 C   0  0  0  0  0  0  0  0  0  0  0  0
   -5.9280   19.4710  -33.2450 C   0  0  0  0  0  0  0  0  0  0  0  0
   -7.0800   20.2000  -33.1030 C   0  0  0  0  0  0  0  0  0  0  0  0
   -8.0950   23.4050  -31.9740 C   0  0  0  0  0  0  0  0  0  0  0  0
   -6.6500   23.7760  -32.3540 C   0  0  0  0  0  0  0  0  0  0  0  0
   -2.5950   23.8530  -29.9900 N   0  0  0  0  0  0  0  0  0  0  0  0
   -2.4180   24.9250  -29.2500 N   0  0  0  0  0  0  0  0  0  0  0  0
   -1.2590   24.8490  -28.5800 C   0  0  0  0  0  0  0  0  0  0  0  0
   -0.7030   23.6340  -28.9530 C   0  0  0  0  0  0  0  0  0  0  0  0
   -1.5670   23.0170  -29.8470 C   0  0  0  0  0  0  0  0  0  0  0  0
   -1.4830   21.8430  -30.4870 N   0  0  0  0  0  0  0  0  0  0  0  0
   -2.4924   19.3728  -31.3570 H   0  0  0  0  0  0  0  0  0  0  0  0
   -3.3930   20.1556  -32.6997 H   0  0  0  0  0  0  0  0  0  0  0  0
   -1.5967   20.1611  -32.6997 H   0  0  0  0  0  0  0  0  0  0  0  0
   -4.4036   22.0683  -32.1506 H   0  0  0  0  0  0  0  0  0  0  0  0
   -5.5220   22.8594  -30.9476 H   0  0  0  0  0  0  0  0  0  0  0  0
   -6.2546   24.0684  -28.9395 H   0  0  0  0  0  0  0  0  0  0  0  0
   -7.5819   24.7162  -29.9385 H   0  0  0  0  0  0  0  0  0  0  0  0
   -6.8622   21.7318  -29.4928 H   0  0  0  0  0  0  0  0  0  0  0  0
   -8.3581   22.5208  -28.9915 H   0  0  0  0  0  0  0  0  0  0  0  0
   -9.4317   20.9608  -30.1685 H   0  0  0  0  0  0  0  0  0  0  0  0
  -10.2041   22.2627  -31.1028 H   0  0  0  0  0  0  0  0  0  0  0  0
  -10.2423   20.0799  -32.2976 H   0  0  0  0  0  0  0  0  0  0  0  0
   -9.2726   21.3524  -33.1756 H   0  0  0  0  0  0  0  0  0  0  0  0
   -8.9262   18.2212  -31.0923 H   0  0  0  0  0  0  0  0  0  0  0  0
   -6.8742   16.8558  -31.3029 H   0  0  0  0  0  0  0  0  0  0  0  0
   -4.9550   17.6325  -32.6744 H   0  0  0  0  0  0  0  0  0  0  0  0
   -5.0911   19.8391  -33.8566 H   0  0  0  0  0  0  0  0  0  0  0  0
   -7.1451   21.1676  -33.6222 H   0  0  0  0  0  0  0  0  0  0  0  0
   -8.6493   23.1268  -32.8825 H   0  0  0  0  0  0  0  0  0  0  0  0
   -8.5724   24.2711  -31.4923 H   0  0  0  0  0  0  0  0  0  0  0  0
   -6.1979   22.9970  -32.9855 H   0  0  0  0  0  0  0  0  0  0  0  0
   -6.5873   24.7077  -32.9354 H   0  0  0  0  0  0  0  0  0  0  0  0
   -0.8394   25.5905  -27.8843 H   0  0  0  0  0  0  0  0  0  0  0  0
    0.2573   23.2293  -28.6009 H   0  0  0  0  0  0  0  0  0  0  0  0
   -0.6740   21.2140  -30.3580 H   0  0  0  0  0  0  0  0  0  0  0  0
  1  2  1  0
  2  3  2  0
  3  4  1  0
  4  5  2  0
  5  6  1  0
  6  7  1  0
  7  8  1  0
  8  9  1  0
  9 10  1  0
 10 11  1  0
 11 12  1  0
 12 13  2  0
 13 14  1  0
 14 15  2  0
 15 16  1  0
 16 17  2  0
  9 18  1  0
 18 19  1  0
  4 20  1  0
 20 21  1  0
 21 22  2  0
 22 23  1  0
 23 24  2  0
 24 25  1  0
 25  2  1  0
 19  6  1  0
 24 20  1  0
 17 12  1  0
  1 26  1  0
  1 27  1  0
  1 28  1  0
  3 29  1  0
  6 30  1  0
  7 31  1  0
  7 32  1  0
  8 33  1  0
  8 34  1  0
 10 35  1  0
 10 36  1  0
 11 37  1  0
 11 38  1  0
 13 39  1  0
 14 40  1  0
 15 41  1  0
 16 42  1  0
 17 43  1  0
 18 44  1  0
 18 45  1  0
 19 46  1  0
 19 47  1  0
 22 48  1  0
 23 49  1  0
 25 50  1  0
M  END
>  <smiles>  (14) 
Cc1cc(=NC2CCN(CCc3ccccc3)CC2)n2nccc2[nH]1

>  <score_type>  (14) 
oracle

>  <origin>  (14) 
adg

>  <m_score__min__energy>  (14) 
-9.5199999999999996

>  <m_primary>  (14) 
energy

$$$$
14:0
     RDKit          3D

 62 64  0  0  0  0  0  0  0  0999 V2000
   -6.1500   25.3960  -29.8140 C   0  0  0  0  0  0  0  0  0  0  0  0
   -5.0590   25.1540  -30.8510 C   0  0  0  0  0  0  0  0  0  0  0  0
   -3.7660   24.9310  -30.1870 N   0  0  0  0  0  0  0  0  0  0  0  0
   -3.8650   24.0020  -29.0480 C   0  0  0  0  0  0  0  0  0  0  0  0
   -3.1550   24.5490  -27.7940 C   0  0  0  0  0  0  0  0  0  0  0  0
   -1.6780   24.9120  -28.0470 C   0  0  0  0  0  0  0  0  0  0  0  0
   -1.1610   24.4640  -29.3510 N   0  0  0  0  0  0  0  0  0  0  0  0
   -0.4660   23.1720  -29.2750 C   0  0  0  0  0  0  0  0  0  0  0  0
   -1.2710   22.0850  -30.0030 C   0  0  0  0  0  0  0  0  0  0  0  0
   -2.0370   22.6140  -31.1480 N   0  0  0  0  0  0  0  0  0  0  0  0
   -3.3080   21.9080  -31.3670 C   0  0  0  0  0  0  0  0  0  0  0  0
   -3.2840   21.1420  -32.6930 C   0  0  0  0  0  0  0  0  0  0  0  0
   -4.5230   21.3430  -33.4410 N   0  0  0  0  0  0  0  0  0  0  0  0
   -5.6980   20.5830  -33.1160 C   0  0  0  0  0  0  0  0  0  0  0  0
   -6.8210   21.2230  -32.5710 C   0  0  0  0  0  0  0  0  0  0  0  0
   -6.8320   22.6200  -32.3740 C   0  0  0  0  0  0  0  0  0  0  0  0
   -7.9660   23.2590  -31.8790 C   0  0  0  0  0  0  0  0  0  0  0  0
   -9.1070   22.5220  -31.5840 C   0  0  0  0  0  0  0  0  0  0  0  0
   -9.1130   21.1380  -31.7530 C   0  0  0  0  0  0  0  0  0  0  0  0
   -7.9600   20.4510  -32.2140 C   0  0  0  0  0  0  0  0  0  0  0  0
   -7.9300   19.0740  -32.3330 N   0  0  0  0  0  0  0  0  0  0  0  0
   -8.9850   18.2520  -31.6990 C   0  0  0  0  0  0  0  0  0  0  0  0
   -6.9000   18.4620  -33.0250 C   0  0  0  0  0  0  0  0  0  0  0  0
   -6.9580   17.0950  -33.3980 C   0  0  0  0  0  0  0  0  0  0  0  0
   -5.8960   16.4840  -34.0660 C   0  0  0  0  0  0  0  0  0  0  0  0
   -4.7620   17.2170  -34.3990 C   0  0  0  0  0  0  0  0  0  0  0  0
   -3.4320   16.4460  -35.2450 Cl  0  0  0  0  0  0  0  0  0  0  0  0
   -4.6930   18.5720  -34.0800 C   0  0  0  0  0  0  0  0  0  0  0  0
   -5.7520   19.2100  -33.4020 C   0  0  0  0  0  0  0  0  0  0  0  0
   -5.7237   25.3014  -28.8044 H   0  0  0  0  0  0  0  0  0  0  0  0
   -6.5623   26.4074  -29.9447 H   0  0  0  0  0  0  0  0  0  0  0  0
   -6.9512   24.6538  -29.9447 H   0  0  0  0  0  0  0  0  0  0  0  0
   -5.3173   24.2681  -31.4498 H   0  0  0  0  0  0  0  0  0  0  0  0
   -4.9803   26.0377  -31.5013 H   0  0  0  0  0  0  0  0  0  0  0  0
   -3.0790   24.5600  -30.8860 H   0  0  0  0  0  0  0  0  0  0  0  0
   -4.9273   23.8404  -28.8127 H   0  0  0  0  0  0  0  0  0  0  0  0
   -3.3733   23.0604  -29.3336 H   0  0  0  0  0  0  0  0  0  0  0  0
   -3.6850   25.4521  -27.4572 H   0  0  0  0  0  0  0  0  0  0  0  0
   -3.1725   23.7544  -27.0335 H   0  0  0  0  0  0  0  0  0  0  0  0
   -1.5777   26.0061  -27.9936 H   0  0  0  0  0  0  0  0  0  0  0  0
   -1.0885   24.3918  -27.2777 H   0  0  0  0  0  0  0  0  0  0  0  0
   -1.9400   24.4040  -30.0460 H   0  0  0  0  0  0  0  0  0  0  0  0
    0.5241   23.2653  -29.7451 H   0  0  0  0  0  0  0  0  0  0  0  0
   -0.3583   22.8874  -28.2179 H   0  0  0  0  0  0  0  0  0  0  0  0
   -0.5738   21.3176  -30.3705 H   0  0  0  0  0  0  0  0  0  0  0  0
   -1.9925   21.6688  -29.2845 H   0  0  0  0  0  0  0  0  0  0  0  0
   -2.2330   23.6350  -31.0200 H   0  0  0  0  0  0  0  0  0  0  0  0
   -3.4724   21.1977  -30.5433 H   0  0  0  0  0  0  0  0  0  0  0  0
   -4.1207   22.6485  -31.4026 H   0  0  0  0  0  0  0  0  0  0  0  0
   -2.4375   21.4985  -33.2982 H   0  0  0  0  0  0  0  0  0  0  0  0
   -3.1791   20.0691  -32.4740 H   0  0  0  0  0  0  0  0  0  0  0  0
   -4.6130   22.1400  -34.1120 H   0  0  0  0  0  0  0  0  0  0  0  0
   -5.9355   23.2106  -32.6139 H   0  0  0  0  0  0  0  0  0  0  0  0
   -7.9588   24.3476  -31.7214 H   0  0  0  0  0  0  0  0  0  0  0  0
  -10.0089   23.0327  -31.2157 H   0  0  0  0  0  0  0  0  0  0  0  0
  -10.0266   20.5692  -31.5252 H   0  0  0  0  0  0  0  0  0  0  0  0
   -8.8959   18.3214  -30.6048 H   0  0  0  0  0  0  0  0  0  0  0  0
   -9.9736   18.6203  -32.0105 H   0  0  0  0  0  0  0  0  0  0  0  0
   -8.8696   17.2034  -32.0105 H   0  0  0  0  0  0  0  0  0  0  0  0
   -7.8553   16.5063  -33.1567 H   0  0  0  0  0  0  0  0  0  0  0  0
   -5.9561   15.4179  -34.3303 H   0  0  0  0  0  0  0  0  0  0  0  0
   -3.8009   19.1511  -34.3608 H   0  0  0  0  0  0  0  0  0  0  0  0
  1  2  1  0
  2  3  1  0
  3  4  1  0
  4  5  1  0
  5  6  1  0
  6  7  1  0
  7  8  1  0
  8  9  1  0
  9 10  1  0
 10 11  1  0
 11 12  1  0
 12 13  1  0
 13 14  1  0
 14 15  2  0
 15 16  1  0
 16 17  2  0
 17 18  1  0
 18 19  2  0
 19 20  1  0
 20 21  2  0
 21 22  1  0
 21 23  1  0
 23 24  2  0
 24 25  1  0
 25 26  2  0
 26 27  1  0
 26 28  1  0
 28 29  2  0
 29 14  1  0
 20 15  1  0
 29 23  1  0
  1 30  1  0
  1 31  1  0
  1 32  1  0
  2 33  1  0
  2 34  1  0
  3 35  1  0
  4 36  1  0
  4 37  1  0
  5 38  1  0
  5 39  1  0
  6 40  1  0
  6 41  1  0
  7 42  1  0
  8 43  1  0
  8 44  1  0
  9 45  1  0
  9 46  1  0
 10 47  1  0
 11 48  1  0
 11 49  1  0
 12 50  1  0
 12 51  1  0
 13 52  1  0
 16 53  1  0
 17 54  1  0
 18 55  1  0
 19 56  1  0
 22 57  1  0
 22 58  1  0
 22 59  1  0
 24 60  1  0
 25 61  1  0
 28 62  1  0
M  CHG  1  21   1
M  END
>  <UniqueID>  (15) 
14

>  <SMILES>  (15) 
CCNCCCNCCNCCNc1c2ccccc2[n+](C)c2ccc(Cl)cc12

>  <Energy>  (15) 
83.90476526290392

>  <Genealogy>  (15) 
CCNCCCNCCNCCNc1c2ccccc2[n+](C)c2ccc(Cl)cc12 (3D coordinates assigned)
CCNCCCNCCNCCNc1c2ccccc2[n+](C)c2ccc(Cl)cc12 (optimized conformer: 83.90476526290392 kcal/mol)

>  <smiles>  (15) 
CCNCCCNCCNCCNc1c2ccccc2[n+](C)c2ccc(Cl)cc12

>  <score_type>  (15) 
oracle

>  <origin>  (15) 
adg

>  <m_score__min__energy>  (15) 
-9.0700000000000003

>  <m_primary>  (15) 
energy

$$$$
15:0
     RDKit          3D

 41 44  0  0  0  0  0  0  0  0999 V2000
   -7.7740   23.3030  -31.2810 C   0  0  0  0  0  0  0  0  0  0  0  0
   -6.4030   22.8950  -31.5880 N   0  0  0  0  0  0  0  0  0  0  0  0
   -5.2740   23.6260  -31.4860 C   0  0  0  0  0  0  0  0  0  0  0  0
   -5.2070   25.0560  -31.0330 C   0  0  0  0  0  0  0  0  0  0  0  0
   -4.7760   25.1390  -29.6360 N   0  0  0  0  0  0  0  0  0  0  0  0
   -4.0000   24.1130  -28.9890 C   0  0  0  0  0  0  0  0  0  0  0  0
   -4.6010   22.9420  -28.4790 C   0  0  0  0  0  0  0  0  0  0  0  0
   -3.8250   21.9610  -27.8550 C   0  0  0  0  0  0  0  0  0  0  0  0
   -2.4450   22.1320  -27.7310 C   0  0  0  0  0  0  0  0  0  0  0  0
   -1.8380   23.2860  -28.2290 C   0  0  0  0  0  0  0  0  0  0  0  0
   -2.6060   24.2730  -28.8540 C   0  0  0  0  0  0  0  0  0  0  0  0
   -1.9910   25.3840  -29.3320 F   0  0  0  0  0  0  0  0  0  0  0  0
   -4.1860   22.8950  -31.7940 N   0  0  0  0  0  0  0  0  0  0  0  0
   -4.6100   21.6760  -32.0950 N   0  0  0  0  0  0  0  0  0  0  0  0
   -5.9510   21.6800  -31.9640 C   0  0  0  0  0  0  0  0  0  0  0  0
   -6.7900   20.4740  -32.1450 C   0  0  0  0  0  0  0  0  0  0  0  0
   -7.9930   20.3800  -31.4260 C   0  0  0  0  0  0  0  0  0  0  0  0
   -8.7970   19.2430  -31.5270 C   0  0  0  0  0  0  0  0  0  0  0  0
   -8.4120   18.1800  -32.3430 C   0  0  0  0  0  0  0  0  0  0  0  0
   -7.2210   18.2490  -33.0710 C   0  0  0  0  0  0  0  0  0  0  0  0
   -6.8610   17.2080  -33.8690 N   0  0  0  0  0  0  0  0  0  0  0  0
   -5.7220   17.2300  -34.6080 C   0  0  0  0  0  0  0  0  0  0  0  0
   -4.8850   18.3450  -34.5690 C   0  0  0  0  0  0  0  0  0  0  0  0
   -5.2230   19.4320  -33.7610 C   0  0  0  0  0  0  0  0  0  0  0  0
   -6.3960   19.3980  -32.9820 C   0  0  0  0  0  0  0  0  0  0  0  0
   -7.9090   23.3432  -30.1901 H   0  0  0  0  0  0  0  0  0  0  0  0
   -7.9657   24.2971  -31.7111 H   0  0  0  0  0  0  0  0  0  0  0  0
   -8.4781   22.5755  -31.7111 H   0  0  0  0  0  0  0  0  0  0  0  0
   -4.4902   25.6012  -31.6646 H   0  0  0  0  0  0  0  0  0  0  0  0
   -6.2093   25.5008  -31.1199 H   0  0  0  0  0  0  0  0  0  0  0  0
   -5.0420   25.9850  -29.0820 H   0  0  0  0  0  0  0  0  0  0  0  0
   -5.6878   22.8004  -28.5733 H   0  0  0  0  0  0  0  0  0  0  0  0
   -4.3028   21.0521  -27.4607 H   0  0  0  0  0  0  0  0  0  0  0  0
   -1.8364   21.3577  -27.2411 H   0  0  0  0  0  0  0  0  0  0  0  0
   -0.7507   23.4195  -28.1293 H   0  0  0  0  0  0  0  0  0  0  0  0
   -8.3050   21.2111  -30.7764 H   0  0  0  0  0  0  0  0  0  0  0  0
   -9.7381   19.1856  -30.9604 H   0  0  0  0  0  0  0  0  0  0  0  0
   -9.0473   17.2848  -32.4140 H   0  0  0  0  0  0  0  0  0  0  0  0
   -5.4592   16.3675  -35.2381 H   0  0  0  0  0  0  0  0  0  0  0  0
   -3.9646   18.3677  -35.1710 H   0  0  0  0  0  0  0  0  0  0  0  0
   -4.5713   20.3177  -33.7326 H   0  0  0  0  0  0  0  0  0  0  0  0
  1  2  1  0
  2  3  1  0
  3  4  1  0
  4  5  1  0
  5  6  1  0
  6  7  2  0
  7  8  1  0
  8  9  2  0
  9 10  1  0
 10 11  2  0
 11 12  1  0
  3 13  2  0
 13 14  1  0
 14 15  2  0
 15 16  1  0
 16 17  2  0
 17 18  1  0
 18 19  2  0
 19 20  1  0
 20 21  2  0
 21 22  1  0
 22 23  2  0
 23 24  1  0
 24 25  2  0
 15  2  1  0
 25 16  1  0
 11  6  1  0
 25 20  1  0
  1 26  1  0
  1 27  1  0
  1 28  1  0
  4 29  1  0
  4 30  1  0
  5 31  1  0
  7 32  1  0
  8 33  1  0
  9 34  1  0
 10 35  1  0
 17 36  1  0
 18 37  1  0
 19 38  1  0
 22 39  1  0
 23 40  1  0
 24 41  1  0
M  END
>  <UniqueID>  (16) 
15

>  <SMILES>  (16) 
Cn1c(CNc2ccccc2F)nnc1-c1cccc2ncccc12

>  <Energy>  (16) 
90.36888019867432

>  <Genealogy>  (16) 
Cn1c(CNc2ccccc2F)nnc1-c1cccc2ncccc12 (3D coordinates assigned)
Cn1c(CNc2ccccc2F)nnc1-c1cccc2ncccc12 (optimized conformer: 90.36888019867432 kcal/mol)

>  <smiles>  (16) 
Cn1c(CNc2ccccc2F)nnc1-c1cccc2ncccc12

>  <score_type>  (16) 
oracle

>  <origin>  (16) 
adg

>  <m_score__min__energy>  (16) 
-9.9399999999999995

>  <m_primary>  (16) 
energy

$$$$
16:0
     RDKit          3D

 63 65  0  0  0  0  0  0  0  0999 V2000
   -1.2380   21.8790  -30.3360 C   0  0  0  0  0  0  0  0  0  0  0  0
   -2.4870   22.7570  -30.2940 C   0  0  0  0  0  0  0  0  0  0  0  0
   -3.5510   22.1460  -29.4690 N   0  0  0  0  0  0  0  0  0  0  0  0
   -2.9610   21.1700  -28.5360 C   0  0  0  0  0  0  0  0  0  0  0  0
   -4.3580   23.1550  -28.7330 C   0  0  0  0  0  0  0  0  0  0  0  0
   -4.3560   24.4990  -29.4760 C   0  0  0  0  0  0  0  0  0  0  0  0
   -5.7330   25.1800  -29.4420 C   0  0  0  0  0  0  0  0  0  0  0  0
   -6.4180   25.0120  -30.6730 O   0  0  0  0  0  0  0  0  0  0  0  0
   -5.8170   23.9960  -31.4600 C   0  0  0  0  0  0  0  0  0  0  0  0
   -6.8500   23.0080  -31.9760 C   0  0  0  0  0  0  0  0  0  0  0  0
   -8.1890   23.4330  -31.9610 C   0  0  0  0  0  0  0  0  0  0  0  0
   -9.2290   22.5130  -32.0330 C   0  0  0  0  0  0  0  0  0  0  0  0
   -8.9500   21.1520  -32.0680 C   0  0  0  0  0  0  0  0  0  0  0  0
   -7.6190   20.6950  -32.1360 C   0  0  0  0  0  0  0  0  0  0  0  0
   -7.3320   19.3200  -32.0790 C   0  0  0  0  0  0  0  0  0  0  0  0
   -8.2860   18.4970  -31.9690 O   0  0  0  0  0  0  0  0  0  0  0  0
   -6.0360   18.8650  -32.1220 N   0  0  0  0  0  0  0  0  0  0  0  0
   -5.7950   17.4150  -31.9220 C   0  0  0  0  0  0  0  0  0  0  0  0
   -6.4360   16.5990  -33.0630 C   0  0  0  0  0  0  0  0  0  0  0  0
   -5.5940   16.5750  -34.2840 N   0  0  0  0  0  0  0  0  0  0  0  0
   -4.1960   16.2820  -33.9250 C   0  0  0  0  0  0  0  0  0  0  0  0
   -5.6630   17.8550  -35.0150 C   0  0  0  0  0  0  0  0  0  0  0  0
   -5.0080   19.7360  -32.4340 C   0  0  0  0  0  0  0  0  0  0  0  0
   -3.6890   19.2730  -32.6860 C   0  0  0  0  0  0  0  0  0  0  0  0
   -2.6970   20.1390  -33.1380 C   0  0  0  0  0  0  0  0  0  0  0  0
   -2.9980   21.4690  -33.3980 C   0  0  0  0  0  0  0  0  0  0  0  0
   -4.2780   21.9550  -33.1460 C   0  0  0  0  0  0  0  0  0  0  0  0
   -5.2710   21.1310  -32.5660 C   0  0  0  0  0  0  0  0  0  0  0  0
   -6.5590   21.6290  -32.2320 C   0  0  0  0  0  0  0  0  0  0  0  0
   -0.9148   21.6518  -29.3094 H   0  0  0  0  0  0  0  0  0  0  0  0
   -1.4663   20.9416  -30.8644 H   0  0  0  0  0  0  0  0  0  0  0  0
   -0.4333   22.4112  -30.8644 H   0  0  0  0  0  0  0  0  0  0  0  0
   -2.2218   23.7358  -29.8678 H   0  0  0  0  0  0  0  0  0  0  0  0
   -2.8664   22.8670  -31.3206 H   0  0  0  0  0  0  0  0  0  0  0  0
   -3.1539   21.4891  -27.5011 H   0  0  0  0  0  0  0  0  0  0  0  0
   -3.4129   20.1815  -28.7052 H   0  0  0  0  0  0  0  0  0  0  0  0
   -1.8757   21.1108  -28.7052 H   0  0  0  0  0  0  0  0  0  0  0  0
   -5.3931   22.7937  -28.6432 H   0  0  0  0  0  0  0  0  0  0  0  0
   -3.9169   23.3016  -27.7360 H   0  0  0  0  0  0  0  0  0  0  0  0
   -3.6192   25.1648  -29.0029 H   0  0  0  0  0  0  0  0  0  0  0  0
   -4.1002   24.3042  -30.5280 H   0  0  0  0  0  0  0  0  0  0  0  0
   -6.3330   24.7363  -28.6338 H   0  0  0  0  0  0  0  0  0  0  0  0
   -5.5856   26.2563  -29.2690 H   0  0  0  0  0  0  0  0  0  0  0  0
   -5.3081   24.4615  -32.3169 H   0  0  0  0  0  0  0  0  0  0  0  0
   -5.1006   23.4490  -30.8295 H   0  0  0  0  0  0  0  0  0  0  0  0
   -8.4174   24.5068  -31.8914 H   0  0  0  0  0  0  0  0  0  0  0  0
  -10.2717   22.8621  -32.0622 H   0  0  0  0  0  0  0  0  0  0  0  0
   -9.7754   20.4253  -32.0424 H   0  0  0  0  0  0  0  0  0  0  0  0
   -4.7113   17.2268  -31.9068 H   0  0  0  0  0  0  0  0  0  0  0  0
   -6.2465   17.1075  -30.9672 H   0  0  0  0  0  0  0  0  0  0  0  0
   -6.5860   15.5656  -32.7171 H   0  0  0  0  0  0  0  0  0  0  0  0
   -7.3905   17.0797  -33.3235 H   0  0  0  0  0  0  0  0  0  0  0  0
   -5.9230   15.8110  -34.9230 H   0  0  0  0  0  0  0  0  0  0  0  0
   -4.0954   16.2609  -32.8298 H   0  0  0  0  0  0  0  0  0  0  0  0
   -3.9085   15.3041  -34.3385 H   0  0  0  0  0  0  0  0  0  0  0  0
   -3.5400   17.0622  -34.3385 H   0  0  0  0  0  0  0  0  0  0  0  0
   -5.7078   18.6861  -34.2957 H   0  0  0  0  0  0  0  0  0  0  0  0
   -4.7695   17.9649  -35.6471 H   0  0  0  0  0  0  0  0  0  0  0  0
   -6.5632   17.8682  -35.6471 H   0  0  0  0  0  0  0  0  0  0  0  0
   -3.4473   18.2126  -32.5213 H   0  0  0  0  0  0  0  0  0  0  0  0
   -1.6724   19.7685  -33.2894 H   0  0  0  0  0  0  0  0  0  0  0  0
   -2.2252   22.1388  -33.8031 H   0  0  0  0  0  0  0  0  0  0  0  0
   -4.5213   22.9968  -33.4020 H   0  0  0  0  0  0  0  0  0  0  0  0
  1  2  1  0
  2  3  1  0
  3  4  1  0
  3  5  1  0
  5  6  1  0
  6  7  1  0
  7  8  1  0
  8  9  1  0
  9 10  1  0
 10 11  2  0
 11 12  1  0
 12 13  2  0
 13 14  1  0
 14 15  1  0
 15 16  2  0
 15 17  1  0
 17 18  1  0
 18 19  1  0
 19 20  1  0
 20 21  1  0
 20 22  1  0
 17 23  1  0
 23 24  2  0
 24 25  1  0
 25 26  2  0
 26 27  1  0
 27 28  2  0
 28 29  1  0
 29 10  1  0
 29 14  2  0
 28 23  1  0
  1 30  1  0
  1 31  1  0
  1 32  1  0
  2 33  1  0
  2 34  1  0
  4 35  1  0
  4 36  1  0
  4 37  1  0
  5 38  1  0
  5 39  1  0
  6 40  1  0
  6 41  1  0
  7 42  1  0
  7 43  1  0
  9 44  1  0
  9 45  1  0
 11 46  1  0
 12 47  1  0
 13 48  1  0
 18 49  1  0
 18 50  1  0
 19 51  1  0
 19 52  1  0
 20 53  1  0
 21 54  1  0
 21 55  1  0
 21 56  1  0
 22 57  1  0
 22 58  1  0
 22 59  1  0
 24 60  1  0
 25 61  1  0
 26 62  1  0
 27 63  1  0
M  CHG  1  20   1
M  END
>  <UniqueID>  (17) 
16

>  <SMILES>  (17) 
CCN(C)CCCOCc1cccc2c(=O)n(CC[NH+](C)C)c3ccccc3c12

>  <Energy>  (17) 
95.7005981444815

>  <Genealogy>  (17) 
CCN(C)CCCOCc1cccc2c(=O)n(CC[NH+](C)C)c3ccccc3c12 (protonated)
CCN(C)CCCOCc1cccc2c(=O)n(CC[NH+](C)C)c3ccccc3c12 (3D coordinates assigned)
CCN(C)CCCOCc1cccc2c(=O)n(CC[NH+](C)C)c3ccccc3c12 (optimized conformer: 95.7005981444815 kcal/mol)

>  <smiles>  (17) 
CCN(C)CCCOCc1cccc2c(=O)n(CCN(C)C)c3ccccc3c12

>  <score_type>  (17) 
oracle

>  <origin>  (17) 
adg

>  <m_score__min__energy>  (17) 
-8.2799999999999994

>  <m_primary>  (17) 
energy

$$$$
17:0
     RDKit          3D

 24 24  0  0  0  0  0  0  0  0999 V2000
   -3.7766   21.6851  -27.4974 H   0  0  0  0  0  0  0  0  0  0  0  0
   -3.8450   22.6840  -27.9530 C   0  0  0  0  0  0  0  0  0  0  0  0
   -4.5326   23.4336  -27.5342 H   0  0  0  0  0  0  0  0  0  0  0  0
   -3.0950   22.9860  -29.0120 C   0  0  0  0  0  0  0  0  0  0  0  0
   -2.4147   22.2204  -29.4134 H   0  0  0  0  0  0  0  0  0  0  0  0
   -3.1410   24.3040  -29.6660 C   0  0  0  0  0  0  0  0  0  0  0  0
   -2.3220   25.2060  -29.3390 O   0  0  0  0  0  0  0  0  0  0  0  0
   -4.0940   24.5160  -30.7200 N   0  0  0  0  0  0  0  0  0  0  0  0
   -5.3950   24.4760  -30.6470 C   0  0  0  0  0  0  0  0  0  0  0  0
   -6.1920   23.3040  -31.0770 C   0  0  0  0  0  0  0  0  0  0  0  0
   -5.6890   22.4280  -32.0520 C   0  0  0  0  0  0  0  0  0  0  0  0
   -4.7118   22.6275  -32.5159 H   0  0  0  0  0  0  0  0  0  0  0  0
   -6.4260   21.3020  -32.4360 C   0  0  0  0  0  0  0  0  0  0  0  0
   -6.0318   20.6241  -33.2074 H   0  0  0  0  0  0  0  0  0  0  0  0
   -7.6630   21.0380  -31.8400 C   0  0  0  0  0  0  0  0  0  0  0  0
   -8.6680   19.5000  -32.3650 Br  0  0  0  0  0  0  0  0  0  0  0  0
   -8.1610   21.8960  -30.8550 C   0  0  0  0  0  0  0  0  0  0  0  0
   -9.1321   21.6851  -30.3833 H   0  0  0  0  0  0  0  0  0  0  0  0
   -7.4270   23.0220  -30.4680 C   0  0  0  0  0  0  0  0  0  0  0  0
   -7.8173   23.6886  -29.6849 H   0  0  0  0  0  0  0  0  0  0  0  0
   -6.1100   25.6610  -30.0730 C   0  0  0  0  0  0  0  0  0  0  0  0
   -6.0797   25.6108  -28.9746 H   0  0  0  0  0  0  0  0  0  0  0  0
   -5.6186   26.5851  -30.4115 H   0  0  0  0  0  0  0  0  0  0  0  0
   -7.1566   25.6571  -30.4115 H   0  0  0  0  0  0  0  0  0  0  0  0
  1  2  1  0
  2  3  1  0
  2  4  2  0
  4  5  1  0
  4  6  1  0
  6  7  2  0
  6  8  1  0
  8  9  2  0
  9 10  1  0
 10 11  2  0
 11 12  1  0
 11 13  1  0
 13 14  1  0
 13 15  2  0
 15 16  1  0
 15 17  1  0
 17 18  1  0
 17 19  2  0
 19 20  1  0
  9 21  1  0
 21 22  1  0
 21 23  1  0
 21 24  1  0
 19 10  1  0
M  END
>  <UniqueID>  (18) 
17

>  <SMILES>  (18) 
C=CC(=O)/N=C(/C)c1ccc(Br)cc1

>  <Energy>  (18) 
28.553335191385717

>  <Genealogy>  (18) 
C=CC(=O)/N=C(/C)c1ccc(Br)cc1 (cis-trans isomerization)
C=CC(=O)/N=C(/C)c1ccc(Br)cc1 (3D coordinates assigned)
C=CC(=O)/N=C(/C)c1ccc(Br)cc1 (optimized conformer: 28.553335191385717 kcal/mol)

>  <smiles>  (18) 
C=CC(=O)N=C(C)c1ccc(Br)cc1

>  <score_type>  (18) 
oracle

>  <origin>  (18) 
adg

>  <m_score__min__energy>  (18) 
-7.2400000000000002

>  <m_primary>  (18) 
energy

$$$$
18:0
     RDKit          3D

 49 50  0  0  0  0  0  0  0  0999 V2000
   -2.8120   20.8090  -29.9100 C   0  0  0  0  0  0  0  0  0  0  0  0
   -3.7010   20.4560  -31.1020 C   0  0  0  0  0  0  0  0  0  0  0  0
   -3.9140   21.6350  -31.9720 N   0  0  0  0  0  0  0  0  0  0  0  0
   -3.1230   21.5430  -33.2260 C   0  0  0  0  0  0  0  0  0  0  0  0
   -2.6080   20.1210  -33.4080 C   0  0  0  0  0  0  0  0  0  0  0  0
   -3.6290   22.8880  -31.2310 C   0  0  0  0  0  0  0  0  0  0  0  0
   -4.9090   23.4460  -30.5780 C   0  0  0  0  0  0  0  0  0  0  0  0
   -5.8790   24.0730  -31.5990 C   0  0  0  0  0  0  0  0  0  0  0  0
   -6.2320   23.1610  -32.7050 N   0  0  0  0  0  0  0  0  0  0  0  0
   -7.3120   22.2700  -32.3420 C   0  0  0  0  0  0  0  0  0  0  0  0
   -8.4490   22.7840  -31.6890 C   0  0  0  0  0  0  0  0  0  0  0  0
   -9.5050   21.9450  -31.3310 C   0  0  0  0  0  0  0  0  0  0  0  0
   -9.4480   20.5840  -31.6280 C   0  0  0  0  0  0  0  0  0  0  0  0
   -8.3310   20.0570  -32.2780 C   0  0  0  0  0  0  0  0  0  0  0  0
   -7.2480   20.8870  -32.6250 C   0  0  0  0  0  0  0  0  0  0  0  0
   -6.1290   20.3680  -33.2930 O   0  0  0  0  0  0  0  0  0  0  0  0
   -5.8410   19.0050  -33.4620 C   0  0  0  0  0  0  0  0  0  0  0  0
   -5.5290   18.5420  -34.7460 C   0  0  0  0  0  0  0  0  0  0  0  0
   -5.1880   17.2020  -34.9510 C   0  0  0  0  0  0  0  0  0  0  0  0
   -5.1480   16.3170  -33.8710 C   0  0  0  0  0  0  0  0  0  0  0  0
   -5.4440   16.7720  -32.5830 C   0  0  0  0  0  0  0  0  0  0  0  0
   -5.7870   18.1110  -32.3750 C   0  0  0  0  0  0  0  0  0  0  0  0
   -3.3505   20.5952  -28.9750 H   0  0  0  0  0  0  0  0  0  0  0  0
   -1.8914   20.2082  -29.9486 H   0  0  0  0  0  0  0  0  0  0  0  0
   -2.5543   21.8777  -29.9486 H   0  0  0  0  0  0  0  0  0  0  0  0
   -3.2185   19.6594  -31.6873 H   0  0  0  0  0  0  0  0  0  0  0  0
   -4.6772   20.1185  -30.7236 H   0  0  0  0  0  0  0  0  0  0  0  0
   -3.7608   21.8126  -34.0807 H   0  0  0  0  0  0  0  0  0  0  0  0
   -2.2691   22.2340  -33.1683 H   0  0  0  0  0  0  0  0  0  0  0  0
   -2.4418   19.6622  -32.4221 H   0  0  0  0  0  0  0  0  0  0  0  0
   -3.3496   19.5311  -33.9666 H   0  0  0  0  0  0  0  0  0  0  0  0
   -1.6607   20.1428  -33.9666 H   0  0  0  0  0  0  0  0  0  0  0  0
   -2.8857   22.6813  -30.4469 H   0  0  0  0  0  0  0  0  0  0  0  0
   -3.2428   23.6349  -31.9402 H   0  0  0  0  0  0  0  0  0  0  0  0
   -5.4263   22.6242  -30.0613 H   0  0  0  0  0  0  0  0  0  0  0  0
   -4.6045   24.2406  -29.8809 H   0  0  0  0  0  0  0  0  0  0  0  0
   -6.8023   24.3586  -31.0737 H   0  0  0  0  0  0  0  0  0  0  0  0
   -5.3692   24.9410  -32.0424 H   0  0  0  0  0  0  0  0  0  0  0  0
   -6.5480   23.7420  -33.5180 H   0  0  0  0  0  0  0  0  0  0  0  0
   -5.3940   22.6330  -33.0370 H   0  0  0  0  0  0  0  0  0  0  0  0
   -8.5052   23.8582  -31.4587 H   0  0  0  0  0  0  0  0  0  0  0  0
  -10.3836   22.3580  -30.8138 H   0  0  0  0  0  0  0  0  0  0  0  0
  -10.2838   19.9252  -31.3499 H   0  0  0  0  0  0  0  0  0  0  0  0
   -8.2965   18.9848  -32.5211 H   0  0  0  0  0  0  0  0  0  0  0  0
   -5.5524   19.2368  -35.5984 H   0  0  0  0  0  0  0  0  0  0  0  0
   -4.9509   16.8441  -35.9638 H   0  0  0  0  0  0  0  0  0  0  0  0
   -4.8835   15.2618  -34.0342 H   0  0  0  0  0  0  0  0  0  0  0  0
   -5.4070   16.0757  -31.7322 H   0  0  0  0  0  0  0  0  0  0  0  0
   -6.0153   18.4674  -31.3597 H   0  0  0  0  0  0  0  0  0  0  0  0
  1  2  1  0
  2  3  1  0
  3  4  1  0
  4  5  1  0
  3  6  1  0
  6  7  1  0
  7  8  1  0
  8  9  1  0
  9 10  1  0
 10 11  2  0
 11 12  1  0
 12 13  2  0
 13 14  1  0
 14 15  2  0
 15 16  1  0
 16 17  1  0
 17 18  2  0
 18 19  1  0
 19 20  2  0
 20 21  1  0
 21 22  2  0
 15 10  1  0
 22 17  1  0
  1 23  1  0
  1 24  1  0
  1 25  1  0
  2 26  1  0
  2 27  1  0
  4 28  1  0
  4 29  1  0
  5 30  1  0
  5 31  1  0
  5 32  1  0
  6 33  1  0
  6 34  1  0
  7 35  1  0
  7 36  1  0
  8 37  1  0
  8 38  1  0
  9 39  1  0
  9 40  1  0
 11 41  1  0
 12 42  1  0
 13 43  1  0
 14 44  1  0
 18 45  1  0
 19 46  1  0
 20 47  1  0
 21 48  1  0
 22 49  1  0
M  CHG  1   9   1
M  END
>  <UniqueID>  (19) 
18

>  <SMILES>  (19) 
CCN(CC)CCC[NH2+]c1ccccc1Oc1ccccc1

>  <Energy>  (19) 
51.841817276168356

>  <Genealogy>  (19) 
CCN(CC)CCC[NH2+]c1ccccc1Oc1ccccc1 (protonated)
CCN(CC)CCC[NH2+]c1ccccc1Oc1ccccc1 (3D coordinates assigned)
CCN(CC)CCC[NH2+]c1ccccc1Oc1ccccc1 (optimized conformer: 51.841817276168356 kcal/mol)

>  <smiles>  (19) 
CCN(CC)CCCNc1ccccc1Oc1ccccc1

>  <score_type>  (19) 
oracle

>  <origin>  (19) 
adg

>  <m_score__min__energy>  (19) 
-6.96

>  <m_primary>  (19) 
energy

$$$$
19:0
     RDKit          3D

 45 46  0  0  0  0  0  0  0  0999 V2000
   -5.3110   22.6780  -32.2710 C   0  0  0  0  0  0  0  0  0  0  0  0
   -6.3250   23.7720  -31.9360 C   0  0  0  0  0  0  0  0  0  0  0  0
   -6.1320   24.3480  -30.5220 C   0  0  0  0  0  0  0  0  0  0  0  0
   -5.2790   25.6250  -30.4870 C   0  0  0  0  0  0  0  0  0  0  0  0
   -3.8640   25.3260  -30.6840 N   0  0  0  0  0  0  0  0  0  0  0  0
   -3.0860   24.5410  -29.7740 C   0  0  0  0  0  0  0  0  0  0  0  0
   -2.3720   25.0990  -28.8970 O   0  0  0  0  0  0  0  0  0  0  0  0
   -3.0910   23.0470  -29.8920 C   0  0  0  0  0  0  0  0  0  0  0  0
   -1.9500   22.5520  -30.7850 C   0  0  0  0  0  0  0  0  0  0  0  0
   -2.0820   21.1260  -31.0880 N   0  0  0  0  0  0  0  0  0  0  0  0
   -2.1320   20.6500  -32.4380 C   0  0  0  0  0  0  0  0  0  0  0  0
   -2.0990   21.4630  -33.4020 O   0  0  0  0  0  0  0  0  0  0  0  0
   -2.2620   19.1830  -32.7140 C   0  0  0  0  0  0  0  0  0  0  0  0
   -3.6200   18.8800  -33.2860 C   0  0  0  0  0  0  0  0  0  0  0  0
   -3.7420   18.0890  -34.4380 C   0  0  0  0  0  0  0  0  0  0  0  0
   -5.0040   17.7930  -34.9560 C   0  0  0  0  0  0  0  0  0  0  0  0
   -6.1530   18.2760  -34.3260 C   0  0  0  0  0  0  0  0  0  0  0  0
   -6.0550   19.0580  -33.1630 C   0  0  0  0  0  0  0  0  0  0  0  0
   -7.2510   19.5470  -32.5220 N   0  0  0  0  0  0  0  0  0  0  0  0
   -8.0890   18.9050  -31.6850 C   0  0  0  0  0  0  0  0  0  0  0  0
   -9.0880   19.7300  -31.3190 N   0  0  0  0  0  0  0  0  0  0  0  0
   -8.8430   20.8750  -31.9420 N   0  0  0  0  0  0  0  0  0  0  0  0
   -7.7400   20.7670  -32.6660 N   0  0  0  0  0  0  0  0  0  0  0  0
   -4.7790   19.3530  -32.6460 C   0  0  0  0  0  0  0  0  0  0  0  0
   -4.9133   22.2489  -31.3395 H   0  0  0  0  0  0  0  0  0  0  0  0
   -5.8038   21.8884  -32.8573 H   0  0  0  0  0  0  0  0  0  0  0  0
   -4.4863   23.1095  -32.8573 H   0  0  0  0  0  0  0  0  0  0  0  0
   -6.2167   24.5877  -32.6660 H   0  0  0  0  0  0  0  0  0  0  0  0
   -7.3270   23.3200  -31.9767 H   0  0  0  0  0  0  0  0  0  0  0  0
   -7.1224   24.5802  -30.1034 H   0  0  0  0  0  0  0  0  0  0  0  0
   -5.5964   23.5873  -29.9351 H   0  0  0  0  0  0  0  0  0  0  0  0
   -5.6161   26.3025  -31.2853 H   0  0  0  0  0  0  0  0  0  0  0  0
   -5.3993   26.0947  -29.4996 H   0  0  0  0  0  0  0  0  0  0  0  0
   -2.9766   22.6087  -28.8896 H   0  0  0  0  0  0  0  0  0  0  0  0
   -4.0442   22.7394  -30.3468 H   0  0  0  0  0  0  0  0  0  0  0  0
   -1.9622   23.1197  -31.7271 H   0  0  0  0  0  0  0  0  0  0  0  0
   -1.0023   22.7030  -30.2473 H   0  0  0  0  0  0  0  0  0  0  0  0
   -2.1490   20.4290  -30.3120 H   0  0  0  0  0  0  0  0  0  0  0  0
   -1.4883   18.8789  -33.4343 H   0  0  0  0  0  0  0  0  0  0  0  0
   -2.1374   18.6283  -31.7723 H   0  0  0  0  0  0  0  0  0  0  0  0
   -2.8405   17.7008  -34.9347 H   0  0  0  0  0  0  0  0  0  0  0  0
   -5.0937   17.1774  -35.8632 H   0  0  0  0  0  0  0  0  0  0  0  0
   -7.1432   18.0421  -34.7440 H   0  0  0  0  0  0  0  0  0  0  0  0
   -7.9742   17.8633  -31.3508 H   0  0  0  0  0  0  0  0  0  0  0  0
   -4.6881   19.9593  -31.7327 H   0  0  0  0  0  0  0  0  0  0  0  0
  1  2  1  0
  2  3  1  0
  3  4  1  0
  4  5  1  0
  5  6  1  0
  6  7  2  0
  6  8  1  0
  8  9  1  0
  9 10  1  0
 10 11  1  0
 11 12  2  0
 11 13  1  0
 13 14  1  0
 14 15  2  0
 15 16  1  0
 16 17  2  0
 17 18  1  0
 18 19  1  0
 19 20  1  0
 20 21  2  0
 21 22  1  0
 22 23  2  0
 18 24  2  0
 24 14  1  0
 23 19  1  0
  1 25  1  0
  1 26  1  0
  1 27  1  0
  2 28  1  0
  2 29  1  0
  3 30  1  0
  3 31  1  0
  4 32  1  0
  4 33  1  0
  8 34  1  0
  8 35  1  0
  9 36  1  0
  9 37  1  0
 10 38  1  0
 13 39  1  0
 13 40  1  0
 15 41  1  0
 16 42  1  0
 17 43  1  0
 20 44  1  0
 24 45  1  0
M  CHG  1   5  -1
M  END
>  <UniqueID>  (20) 
19

>  <SMILES>  (20) 
CCCC[N-]C(=O)CCNC(=O)Cc1cccc(-n2cnnn2)c1

>  <Energy>  (20) 
71.35897210041875

>  <Genealogy>  (20) 
CCCC[N-]C(=O)CCNC(=O)Cc1cccc(-n2cnnn2)c1 (protonated)
CCCC[N-]C(=O)CCNC(=O)Cc1cccc(-n2cnnn2)c1 (3D coordinates assigned)
CCCC[N-]C(=O)CCNC(=O)Cc1cccc(-n2cnnn2)c1 (optimized conformer: 71.35897210041875 kcal/mol)

>  <smiles>  (20) 
CCCCNC(=O)CCNC(=O)Cc1cccc(-n2cnnn2)c1

>  <score_type>  (20) 
oracle

>  <origin>  (20) 
adg

>  <m_score__min__energy>  (20) 
-10.109999999999999

>  <m_primary>  (20) 
energy

$$$$
20:0
     RDKit          3D

 52 54  0  0  0  0  0  0  0  0999 V2000
   -6.1330   25.5240  -29.3820 C   0  0  0  0  0  0  0  0  0  0  0  0
   -5.5180   25.6340  -30.7720 C   0  0  0  0  0  0  0  0  0  0  0  0
   -4.9620   24.3280  -31.1900 N   0  0  0  0  0  0  0  0  0  0  0  0
   -4.5000   23.5350  -30.0270 C   0  0  0  0  0  0  0  0  0  0  0  0
   -2.9790   23.3930  -30.0060 C   0  0  0  0  0  0  0  0  0  0  0  0
   -5.8750   23.5920  -32.0990 C   0  0  0  0  0  0  0  0  0  0  0  0
   -7.3430   23.5550  -31.6180 C   0  0  0  0  0  0  0  0  0  0  0  0
   -8.0230   22.2190  -31.9530 C   0  0  0  0  0  0  0  0  0  0  0  0
   -7.3670   21.0890  -31.2870 N   0  0  0  0  0  0  0  0  0  0  0  0
   -6.8970   19.9230  -31.9860 C   0  0  0  0  0  0  0  0  0  0  0  0
   -7.6920   18.8150  -32.3080 C   0  0  0  0  0  0  0  0  0  0  0  0
   -9.1260   18.5950  -31.9560 C   0  0  0  0  0  0  0  0  0  0  0  0
   -6.7660   17.7220  -33.2000 S   0  0  0  0  0  0  0  0  0  0  0  0
   -5.3440   18.6280  -33.1660 C   0  0  0  0  0  0  0  0  0  0  0  0
   -5.5760   19.7980  -32.4570 C   0  0  0  0  0  0  0  0  0  0  0  0
   -4.5550   20.7340  -32.3230 C   0  0  0  0  0  0  0  0  0  0  0  0
   -3.3150   20.4740  -32.9190 C   0  0  0  0  0  0  0  0  0  0  0  0
   -2.2790   21.4140  -32.8110 C   0  0  0  0  0  0  0  0  0  0  0  0
   -1.0420   21.1720  -33.4080 C   0  0  0  0  0  0  0  0  0  0  0  0
   -0.8280   19.9920  -34.1180 C   0  0  0  0  0  0  0  0  0  0  0  0
   -1.8460   19.0430  -34.2380 C   0  0  0  0  0  0  0  0  0  0  0  0
   -3.1120   19.2590  -33.6430 C   0  0  0  0  0  0  0  0  0  0  0  0
   -4.1390   18.3360  -33.7520 N   0  0  0  0  0  0  0  0  0  0  0  0
   -3.9540   17.0750  -34.4920 C   0  0  0  0  0  0  0  0  0  0  0  0
   -5.3498   25.6641  -28.6224 H   0  0  0  0  0  0  0  0  0  0  0  0
   -6.9047   26.2984  -29.2601 H   0  0  0  0  0  0  0  0  0  0  0  0
   -6.5884   24.5301  -29.2601 H   0  0  0  0  0  0  0  0  0  0  0  0
   -6.2926   25.9451  -31.4884 H   0  0  0  0  0  0  0  0  0  0  0  0
   -4.7079   26.3777  -30.7480 H   0  0  0  0  0  0  0  0  0  0  0  0
   -4.8237   24.0363  -29.1029 H   0  0  0  0  0  0  0  0  0  0  0  0
   -4.9366   22.5283  -30.1041 H   0  0  0  0  0  0  0  0  0  0  0  0
   -2.6282   23.3602  -28.9640 H   0  0  0  0  0  0  0  0  0  0  0  0
   -2.6903   22.4640  -30.5195 H   0  0  0  0  0  0  0  0  0  0  0  0
   -2.5234   24.2525  -30.5195 H   0  0  0  0  0  0  0  0  0  0  0  0
   -5.8462   24.0771  -33.0858 H   0  0  0  0  0  0  0  0  0  0  0  0
   -5.5231   22.5503  -32.1296 H   0  0  0  0  0  0  0  0  0  0  0  0
   -7.3637   23.7009  -30.5279 H   0  0  0  0  0  0  0  0  0  0  0  0
   -7.8914   24.3555  -32.1361 H   0  0  0  0  0  0  0  0  0  0  0  0
   -9.0728   22.2629  -31.6275 H   0  0  0  0  0  0  0  0  0  0  0  0
   -7.9508   22.0629  -33.0395 H   0  0  0  0  0  0  0  0  0  0  0  0
   -7.0590   21.2300  -30.2990 H   0  0  0  0  0  0  0  0  0  0  0  0
   -9.2365   18.5780  -30.8617 H   0  0  0  0  0  0  0  0  0  0  0  0
   -9.7353   19.4102  -32.3735 H   0  0  0  0  0  0  0  0  0  0  0  0
   -9.4629   17.6347  -32.3735 H   0  0  0  0  0  0  0  0  0  0  0  0
   -4.7195   21.6633  -31.7579 H   0  0  0  0  0  0  0  0  0  0  0  0
   -2.4433   22.3472  -32.2523 H   0  0  0  0  0  0  0  0  0  0  0  0
   -0.2343   21.9134  -33.3184 H   0  0  0  0  0  0  0  0  0  0  0  0
    0.1495   19.8066  -34.5872 H   0  0  0  0  0  0  0  0  0  0  0  0
   -1.6615   18.1166  -34.8017 H   0  0  0  0  0  0  0  0  0  0  0  0
   -3.8324   16.2460  -33.7792 H   0  0  0  0  0  0  0  0  0  0  0  0
   -4.8344   16.8885  -35.1245 H   0  0  0  0  0  0  0  0  0  0  0  0
   -3.0571   17.1493  -35.1245 H   0  0  0  0  0  0  0  0  0  0  0  0
  1  2  1  0
  2  3  1  0
  3  4  1  0
  4  5  1  0
  3  6  1  0
  6  7  1  0
  7  8  1  0
  8  9  1  0
  9 10  1  0
 10 11  2  0
 11 12  1  0
 11 13  1  0
 13 14  1  0
 14 15  2  0
 15 16  1  0
 16 17  2  0
 17 18  1  0
 18 19  2  0
 19 20  1  0
 20 21  2  0
 21 22  1  0
 22 23  2  0
 23 24  1  0
 15 10  1  0
 22 17  1  0
 23 14  1  0
  1 25  1  0
  1 26  1  0
  1 27  1  0
  2 28  1  0
  2 29  1  0
  4 30  1  0
  4 31  1  0
  5 32  1  0
  5 33  1  0
  5 34  1  0
  6 35  1  0
  6 36  1  0
  7 37  1  0
  7 38  1  0
  8 39  1  0
  8 40  1  0
  9 41  1  0
 12 42  1  0
 12 43  1  0
 12 44  1  0
 16 45  1  0
 18 46  1  0
 19 47  1  0
 20 48  1  0
 21 49  1  0
 24 50  1  0
 24 51  1  0
 24 52  1  0
M  CHG  1  23   1
M  END
>  <UniqueID>  (21) 
20

>  <SMILES>  (21) 
CCN(CC)CCCNc1c(C)sc2c1cc1ccccc1[n+]2C

>  <Energy>  (21) 
90.52923242756897

>  <Genealogy>  (21) 
CCN(CC)CCCNc1c(C)sc2c1cc1ccccc1[n+]2C (3D coordinates assigned)
CCN(CC)CCCNc1c(C)sc2c1cc1ccccc1[n+]2C (optimized conformer: 90.52923242756897 kcal/mol)

>  <smiles>  (21) 
CCN(CC)CCCNc1c(C)sc2c1cc1ccccc1[n+]2C

>  <score_type>  (21) 
oracle

>  <origin>  (21) 
adg

>  <m_score__min__energy>  (21) 
-8.1699999999999999

>  <m_primary>  (21) 
energy

$$$$
21:0
     RDKit          3D

 47 49  0  0  0  0  0  0  0  0999 V2000
   -5.3560   17.0180  -32.4840 C   0  0  0  0  0  0  0  0  0  0  0  0
   -5.4970   18.4700  -32.7440 N   0  0  0  0  0  0  0  0  0  0  0  0
   -6.7250   19.0770  -32.5960 C   0  0  0  0  0  0  0  0  0  0  0  0
   -7.9180   18.3120  -32.5230 C   0  0  0  0  0  0  0  0  0  0  0  0
   -9.1500   18.9150  -32.2960 C   0  0  0  0  0  0  0  0  0  0  0  0
   -9.2320   20.2900  -32.1420 C   0  0  0  0  0  0  0  0  0  0  0  0
   -8.0880   21.0750  -32.2550 C   0  0  0  0  0  0  0  0  0  0  0  0
   -6.8200   20.4950  -32.5200 C   0  0  0  0  0  0  0  0  0  0  0  0
   -5.6560   21.2940  -32.7090 C   0  0  0  0  0  0  0  0  0  0  0  0
   -5.7490   22.7480  -32.6030 N   0  0  0  0  0  0  0  0  0  0  0  0
   -5.9130   23.1890  -31.2000 C   0  0  0  0  0  0  0  0  0  0  0  0
   -6.1730   24.7050  -31.0660 C   0  0  0  0  0  0  0  0  0  0  0  0
   -5.0830   25.4360  -30.2670 C   0  0  0  0  0  0  0  0  0  0  0  0
   -3.7510   24.8760  -30.5430 N   0  0  0  0  0  0  0  0  0  0  0  0
   -3.1950   24.2080  -29.3570 C   0  0  0  0  0  0  0  0  0  0  0  0
   -2.7610   22.7840  -29.7000 C   0  0  0  0  0  0  0  0  0  0  0  0
   -2.3310   22.7370  -31.0130 F   0  0  0  0  0  0  0  0  0  0  0  0
   -3.8260   21.9130  -29.5450 F   0  0  0  0  0  0  0  0  0  0  0  0
   -1.7260   22.3870  -28.8730 F   0  0  0  0  0  0  0  0  0  0  0  0
   -4.4320   20.6400  -33.0420 C   0  0  0  0  0  0  0  0  0  0  0  0
   -3.2390   21.3540  -33.3300 C   0  0  0  0  0  0  0  0  0  0  0  0
   -2.0750   20.6980  -33.7180 C   0  0  0  0  0  0  0  0  0  0  0  0
   -2.0610   19.3200  -33.8450 C   0  0  0  0  0  0  0  0  0  0  0  0
   -3.2030   18.5840  -33.5470 C   0  0  0  0  0  0  0  0  0  0  0  0
   -4.3930   19.2160  -33.1000 C   0  0  0  0  0  0  0  0  0  0  0  0
   -5.3387   16.8398  -31.3987 H   0  0  0  0  0  0  0  0  0  0  0  0
   -6.2063   16.4813  -32.9302 H   0  0  0  0  0  0  0  0  0  0  0  0
   -4.4184   16.6550  -32.9302 H   0  0  0  0  0  0  0  0  0  0  0  0
   -7.8670   17.2204  -32.6485 H   0  0  0  0  0  0  0  0  0  0  0  0
  -10.0604   18.3003  -32.2386 H   0  0  0  0  0  0  0  0  0  0  0  0
  -10.2028   20.7618  -31.9301 H   0  0  0  0  0  0  0  0  0  0  0  0
   -8.1683   22.1657  -32.1367 H   0  0  0  0  0  0  0  0  0  0  0  0
   -6.5620   23.0800  -33.1680 H   0  0  0  0  0  0  0  0  0  0  0  0
   -4.9670   23.2550  -33.0590 H   0  0  0  0  0  0  0  0  0  0  0  0
   -6.7640   22.6480  -30.7606 H   0  0  0  0  0  0  0  0  0  0  0  0
   -4.9705   22.9712  -30.6763 H   0  0  0  0  0  0  0  0  0  0  0  0
   -6.2205   25.1423  -32.0742 H   0  0  0  0  0  0  0  0  0  0  0  0
   -7.1189   24.8280  -30.5182 H   0  0  0  0  0  0  0  0  0  0  0  0
   -5.0886   26.5004  -30.5444 H   0  0  0  0  0  0  0  0  0  0  0  0
   -5.2963   25.3118  -29.1951 H   0  0  0  0  0  0  0  0  0  0  0  0
   -3.1140   25.6710  -30.7860 H   0  0  0  0  0  0  0  0  0  0  0  0
   -2.3240   24.7752  -28.9969 H   0  0  0  0  0  0  0  0  0  0  0  0
   -3.9689   24.1661  -28.5764 H   0  0  0  0  0  0  0  0  0  0  0  0
   -3.2349   22.4507  -33.2444 H   0  0  0  0  0  0  0  0  0  0  0  0
   -1.1626   21.2767  -33.9245 H   0  0  0  0  0  0  0  0  0  0  0  0
   -1.1477   18.8073  -34.1813 H   0  0  0  0  0  0  0  0  0  0  0  0
   -3.1837   17.4900  -33.6600 H   0  0  0  0  0  0  0  0  0  0  0  0
  1  2  1  0
  2  3  2  0
  3  4  1  0
  4  5  2  0
  5  6  1  0
  6  7  2  0
  7  8  1  0
  8  9  2  0
  9 10  1  0
 10 11  1  0
 11 12  1  0
 12 13  1  0
 13 14  1  0
 14 15  1  0
 15 16  1  0
 16 17  1  0
 16 18  1  0
 16 19  1  0
  9 20  1  0
 20 21  2  0
 21 22  1  0
 22 23  2  0
 23 24  1  0
 24 25  2  0
 25  2  1  0
  8  3  1  0
 25 20  1  0
  1 26  1  0
  1 27  1  0
  1 28  1  0
  4 29  1  0
  5 30  1  0
  6 31  1  0
  7 32  1  0
 10 33  1  0
 10 34  1  0
 11 35  1  0
 11 36  1  0
 12 37  1  0
 12 38  1  0
 13 39  1  0
 13 40  1  0
 14 41  1  0
 15 42  1  0
 15 43  1  0
 21 44  1  0
 22 45  1  0
 23 46  1  0
 24 47  1  0
M  CHG  2   2   1  10   1
M  END
>  <UniqueID>  (22) 
21

>  <SMILES>  (22) 
C[n+]1c2ccccc2c([NH2+]CCCNCC(F)(F)F)c2ccccc21

>  <Energy>  (22) 
75.80396413139793

>  <Genealogy>  (22) 
C[n+]1c2ccccc2c([NH2+]CCCNCC(F)(F)F)c2ccccc21 (protonated)
C[n+]1c2ccccc2c([NH2+]CCCNCC(F)(F)F)c2ccccc21 (3D coordinates assigned)
C[n+]1c2ccccc2c([NH2+]CCCNCC(F)(F)F)c2ccccc21 (optimized conformer: 75.80396413139793 kcal/mol)

>  <smiles>  (22) 
C[n+]1c2ccccc2c(NCCCNCC(F)(F)F)c2ccccc21

>  <score_type>  (22) 
oracle

>  <origin>  (22) 
adg

>  <m_score__min__energy>  (22) 
-7.8799999999999999

>  <m_primary>  (22) 
energy

$$$$
22:0
     RDKit          3D

 53 54  0  0  0  0  0  0  0  0999 V2000
   -0.1120   23.4690  -24.4840 C   0  0  0  0  0  0  0  0  0  0  0  0
   -0.4760   23.8890  -25.8460 N   0  0  0  0  0  0  0  0  0  0  0  0
    0.7090   24.0100  -26.7110 C   0  0  0  0  0  0  0  0  0  0  0  0
   -1.3410   25.0900  -25.8720 C   0  0  0  0  0  0  0  0  0  0  0  0
   -1.5770   25.6930  -27.2850 C   0  0  0  0  0  0  0  0  0  0  0  0
   -2.4760   24.8680  -28.1130 N   0  0  0  0  0  0  0  0  0  0  0  0
   -3.2030   23.8610  -27.3270 C   0  0  0  0  0  0  0  0  0  0  0  0
   -3.1260   22.4970  -28.0140 C   0  0  0  0  0  0  0  0  0  0  0  0
   -2.2570   22.6260  -29.6160 S   0  0  0  0  0  0  0  0  0  0  0  0
   -3.6460   23.3670  -30.4800 C   0  0  0  0  0  0  0  0  0  0  0  0
   -3.8910   24.6900  -30.4950 N   0  0  0  0  0  0  0  0  0  0  0  0
   -5.0050   24.8660  -31.1900 N   0  0  0  0  0  0  0  0  0  0  0  0
   -5.4210   23.6480  -31.5910 C   0  0  0  0  0  0  0  0  0  0  0  0
   -6.6970   23.4250  -32.3520 C   0  0  0  0  0  0  0  0  0  0  0  0
   -7.9300   23.4110  -31.4350 C   0  0  0  0  0  0  0  0  0  0  0  0
   -8.2750   22.0280  -30.8550 C   0  0  0  0  0  0  0  0  0  0  0  0
   -9.0720   21.1570  -31.8350 C   0  0  0  0  0  0  0  0  0  0  0  0
   -8.2780   19.9480  -32.2210 C   0  0  0  0  0  0  0  0  0  0  0  0
   -7.2130   19.9280  -33.0990 C   0  0  0  0  0  0  0  0  0  0  0  0
   -6.7760   18.6220  -33.1180 C   0  0  0  0  0  0  0  0  0  0  0  0
   -7.5970   17.9290  -32.2500 C   0  0  0  0  0  0  0  0  0  0  0  0
   -8.4810   18.7480  -31.7290 O   0  0  0  0  0  0  0  0  0  0  0  0
   -4.5810   22.6800  -31.1650 N   0  0  0  0  0  0  0  0  0  0  0  0
   -4.7160   21.2300  -31.2820 C   0  0  0  0  0  0  0  0  0  0  0  0
   -0.6501   24.0899  -23.7527 H   0  0  0  0  0  0  0  0  0  0  0  0
   -0.3855   22.4133  -24.3404 H   0  0  0  0  0  0  0  0  0  0  0  0
    0.9719   23.5897  -24.3404 H   0  0  0  0  0  0  0  0  0  0  0  0
    1.6104   24.1020  -26.0873 H   0  0  0  0  0  0  0  0  0  0  0  0
    0.7923   23.1157  -27.3460 H   0  0  0  0  0  0  0  0  0  0  0  0
    0.6098   24.9027  -27.3460 H   0  0  0  0  0  0  0  0  0  0  0  0
   -2.3189   24.8166  -25.4490 H   0  0  0  0  0  0  0  0  0  0  0  0
   -0.8166   25.8619  -25.2896 H   0  0  0  0  0  0  0  0  0  0  0  0
   -2.0219   26.6926  -27.1712 H   0  0  0  0  0  0  0  0  0  0  0  0
   -0.6031   25.7368  -27.7944 H   0  0  0  0  0  0  0  0  0  0  0  0
   -3.1660   25.4830  -28.6010 H   0  0  0  0  0  0  0  0  0  0  0  0
   -2.7544   23.7889  -26.3252 H   0  0  0  0  0  0  0  0  0  0  0  0
   -4.2577   24.1625  -27.2458 H   0  0  0  0  0  0  0  0  0  0  0  0
   -2.5820   21.7959  -27.3640 H   0  0  0  0  0  0  0  0  0  0  0  0
   -4.1488   22.1353  -28.1957 H   0  0  0  0  0  0  0  0  0  0  0  0
   -6.8143   24.2325  -33.0897 H   0  0  0  0  0  0  0  0  0  0  0  0
   -6.6298   22.4412  -32.8394 H   0  0  0  0  0  0  0  0  0  0  0  0
   -7.7434   24.0987  -30.5970 H   0  0  0  0  0  0  0  0  0  0  0  0
   -8.7863   23.7137  -32.0556 H   0  0  0  0  0  0  0  0  0  0  0  0
   -7.3387   21.5083  -30.6036 H   0  0  0  0  0  0  0  0  0  0  0  0
   -8.9029   22.1877  -29.9661 H   0  0  0  0  0  0  0  0  0  0  0  0
  -10.0096   20.8376  -31.3565 H   0  0  0  0  0  0  0  0  0  0  0  0
   -9.2908   21.7445  -32.7389 H   0  0  0  0  0  0  0  0  0  0  0  0
   -6.8002   20.7765  -33.6644 H   0  0  0  0  0  0  0  0  0  0  0  0
   -5.9412   18.2131  -33.7061 H   0  0  0  0  0  0  0  0  0  0  0  0
   -7.5216   16.8541  -32.0288 H   0  0  0  0  0  0  0  0  0  0  0  0
   -4.7576   20.7834  -30.2776 H   0  0  0  0  0  0  0  0  0  0  0  0
   -5.6403   20.9907  -31.8282 H   0  0  0  0  0  0  0  0  0  0  0  0
   -3.8518   20.8242  -31.8282 H   0  0  0  0  0  0  0  0  0  0  0  0
  1  2  1  0
  2  3  1  0
  2  4  1  0
  4  5  1  0
  5  6  1  0
  6  7  1  0
  7  8  1  0
  8  9  1  0
  9 10  1  0
 10 11  2  0
 11 12  1  0
 12 13  2  0
 13 14  1  0
 14 15  1  0
 15 16  1  0
 16 17  1  0
 17 18  1  0
 18 19  2  0
 19 20  1  0
 20 21  2  0
 21 22  1  0
 13 23  1  0
 23 24  1  0
 23 10  1  0
 22 18  1  0
  1 25  1  0
  1 26  1  0
  1 27  1  0
  3 28  1  0
  3 29  1  0
  3 30  1  0
  4 31  1  0
  4 32  1  0
  5 33  1  0
  5 34  1  0
  6 35  1  0
  7 36  1  0
  7 37  1  0
  8 38  1  0
  8 39  1  0
 14 40  1  0
 14 41  1  0
 15 42  1  0
 15 43  1  0
 16 44  1  0
 16 45  1  0
 17 46  1  0
 17 47  1  0
 19 48  1  0
 20 49  1  0
 21 50  1  0
 24 51  1  0
 24 52  1  0
 24 53  1  0
M  END
>  <UniqueID>  (23) 
22

>  <SMILES>  (23) 
CN(C)CCNCCSc1nnc(CCCCc2ccco2)n1C

>  <Energy>  (23) 
105.38032272576989

>  <Genealogy>  (23) 
CN(C)CCNCCSc1nnc(CCCCc2ccco2)n1C (3D coordinates assigned)
CN(C)CCNCCSc1nnc(CCCCc2ccco2)n1C (optimized conformer: 105.38032272576989 kcal/mol)

>  <smiles>  (23) 
CN(C)CCNCCSc1nnc(CCCCc2ccco2)n1C

>  <score_type>  (23) 
oracle

>  <origin>  (23) 
adg

>  <m_score__min__energy>  (23) 
-7.1500000000000004

>  <m_primary>  (23) 
energy

$$$$
23:0
     RDKit          3D

 64 66  0  0  0  0  0  0  0  0999 V2000
   -0.6610   20.0840  -34.6010 C   0  0  0  0  0  0  0  0  0  0  0  0
   -1.5570   18.8900  -34.2920 C   0  0  0  0  0  0  0  0  0  0  0  0
   -2.8330   19.3380  -33.7170 N   0  0  0  0  0  0  0  0  0  0  0  0
   -2.6270   20.0780  -32.4640 C   0  0  0  0  0  0  0  0  0  0  0  0
   -3.0400   21.5410  -32.6490 C   0  0  0  0  0  0  0  0  0  0  0  0
   -4.2580   21.6430  -33.4720 N   0  0  0  0  0  0  0  0  0  0  0  0
   -5.4490   21.5770  -32.6390 C   0  0  0  0  0  0  0  0  0  0  0  0
   -5.7410   22.6070  -31.7060 C   0  0  0  0  0  0  0  0  0  0  0  0
   -4.8160   23.6440  -31.4250 C   0  0  0  0  0  0  0  0  0  0  0  0
   -5.1050   24.6320  -30.4880 C   0  0  0  0  0  0  0  0  0  0  0  0
   -6.3090   24.6060  -29.7970 C   0  0  0  0  0  0  0  0  0  0  0  0
   -7.2360   23.5990  -30.0480 C   0  0  0  0  0  0  0  0  0  0  0  0
   -6.9880   22.5950  -31.0210 C   0  0  0  0  0  0  0  0  0  0  0  0
   -7.9190   21.6140  -31.2890 N   0  0  0  0  0  0  0  0  0  0  0  0
   -9.3180   21.7750  -30.8340 C   0  0  0  0  0  0  0  0  0  0  0  0
   -7.5480   20.4840  -31.9880 C   0  0  0  0  0  0  0  0  0  0  0  0
   -8.3590   19.3230  -31.9920 C   0  0  0  0  0  0  0  0  0  0  0  0
   -7.9980   18.1900  -32.7120 C   0  0  0  0  0  0  0  0  0  0  0  0
   -6.8150   18.1710  -33.4500 C   0  0  0  0  0  0  0  0  0  0  0  0
   -6.3890   16.9180  -34.1720 C   0  0  0  0  0  0  0  0  0  0  0  0
   -4.9090   16.9590  -34.5700 C   0  0  0  0  0  0  0  0  0  0  0  0
   -4.0560   16.5510  -33.4260 N   0  0  0  0  0  0  0  0  0  0  0  0
   -4.8410   15.8740  -32.3680 C   0  0  0  0  0  0  0  0  0  0  0  0
   -4.5120   14.3830  -32.3340 C   0  0  0  0  0  0  0  0  0  0  0  0
   -2.9130   15.7150  -33.8640 C   0  0  0  0  0  0  0  0  0  0  0  0
   -2.8020   15.7120  -35.3880 C   0  0  0  0  0  0  0  0  0  0  0  0
   -5.9840   19.2960  -33.4440 C   0  0  0  0  0  0  0  0  0  0  0  0
   -6.3190   20.4570  -32.7030 C   0  0  0  0  0  0  0  0  0  0  0  0
   -0.3193   20.5393  -33.6598 H   0  0  0  0  0  0  0  0  0  0  0  0
    0.2098   19.7480  -35.1831 H   0  0  0  0  0  0  0  0  0  0  0  0
   -1.2269   20.8262  -35.1831 H   0  0  0  0  0  0  0  0  0  0  0  0
   -1.7538   18.3353  -35.2213 H   0  0  0  0  0  0  0  0  0  0  0  0
   -1.0471   18.2421  -33.5638 H   0  0  0  0  0  0  0  0  0  0  0  0
   -3.3960   18.4850  -33.4880 H   0  0  0  0  0  0  0  0  0  0  0  0
   -3.2364   19.6248  -31.6683 H   0  0  0  0  0  0  0  0  0  0  0  0
   -1.5631   20.0341  -32.1881 H   0  0  0  0  0  0  0  0  0  0  0  0
   -3.2331   21.9883  -31.6628 H   0  0  0  0  0  0  0  0  0  0  0  0
   -2.2248   22.0746  -33.1596 H   0  0  0  0  0  0  0  0  0  0  0  0
   -4.2760   20.8930  -34.1980 H   0  0  0  0  0  0  0  0  0  0  0  0
   -4.2450   22.5220  -34.0340 H   0  0  0  0  0  0  0  0  0  0  0  0
   -3.8533   23.6683  -31.9566 H   0  0  0  0  0  0  0  0  0  0  0  0
   -4.3782   25.4348  -30.2947 H   0  0  0  0  0  0  0  0  0  0  0  0
   -6.5304   25.3826  -29.0501 H   0  0  0  0  0  0  0  0  0  0  0  0
   -8.1789   23.5804  -29.4818 H   0  0  0  0  0  0  0  0  0  0  0  0
   -9.3479   21.7784  -29.7344 H   0  0  0  0  0  0  0  0  0  0  0  0
   -9.7203   22.7254  -31.2147 H   0  0  0  0  0  0  0  0  0  0  0  0
   -9.9257   20.9409  -31.2147 H   0  0  0  0  0  0  0  0  0  0  0  0
   -9.2944   19.3177  -31.4131 H   0  0  0  0  0  0  0  0  0  0  0  0
   -8.6492   17.3035  -32.6995 H   0  0  0  0  0  0  0  0  0  0  0  0
   -6.5554   16.0539  -33.5119 H   0  0  0  0  0  0  0  0  0  0  0  0
   -6.9860   16.8367  -35.0923 H   0  0  0  0  0  0  0  0  0  0  0  0
   -4.7405   16.2711  -35.4117 H   0  0  0  0  0  0  0  0  0  0  0  0
   -4.6460   17.9859  -34.8638 H   0  0  0  0  0  0  0  0  0  0  0  0
   -4.5972   16.3215  -31.3931 H   0  0  0  0  0  0  0  0  0  0  0  0
   -5.9125   15.9986  -32.5832 H   0  0  0  0  0  0  0  0  0  0  0  0
   -4.4380   14.0476  -31.2890 H   0  0  0  0  0  0  0  0  0  0  0  0
   -5.3076   13.8202  -32.8443 H   0  0  0  0  0  0  0  0  0  0  0  0
   -3.5535   14.2073  -32.8443 H   0  0  0  0  0  0  0  0  0  0  0  0
   -1.9842   16.1188  -33.4346 H   0  0  0  0  0  0  0  0  0  0  0  0
   -3.0749   14.6834  -33.5181 H   0  0  0  0  0  0  0  0  0  0  0  0
   -1.7414   15.6833  -35.6783 H   0  0  0  0  0  0  0  0  0  0  0  0
   -3.3166   14.8274  -35.7914 H   0  0  0  0  0  0  0  0  0  0  0  0
   -3.2681   16.6231  -35.7914 H   0  0  0  0  0  0  0  0  0  0  0  0
   -5.0510   19.2795  -34.0265 H   0  0  0  0  0  0  0  0  0  0  0  0
  1  2  1  0
  2  3  1  0
  3  4  1  0
  4  5  1  0
  5  6  1  0
  6  7  1  0
  7  8  2  0
  8  9  1  0
  9 10  2  0
 10 11  1  0
 11 12  2  0
 12 13  1  0
 13 14  2  0
 14 15  1  0
 14 16  1  0
 16 17  2  0
 17 18  1  0
 18 19  2  0
 19 20  1  0
 20 21  1  0
 21 22  1  0
 22 23  1  0
 23 24  1  0
 22 25  1  0
 25 26  1  0
 19 27  1  0
 27 28  2  0
 28  7  1  0
 13  8  1  0
 28 16  1  0
  1 29  1  0
  1 30  1  0
  1 31  1  0
  2 32  1  0
  2 33  1  0
  3 34  1  0
  4 35  1  0
  4 36  1  0
  5 37  1  0
  5 38  1  0
  6 39  1  0
  6 40  1  0
  9 41  1  0
 10 42  1  0
 11 43  1  0
 12 44  1  0
 15 45  1  0
 15 46  1  0
 15 47  1  0
 17 48  1  0
 18 49  1  0
 20 50  1  0
 20 51  1  0
 21 52  1  0
 21 53  1  0
 23 54  1  0
 23 55  1  0
 24 56  1  0
 24 57  1  0
 24 58  1  0
 25 59  1  0
 25 60  1  0
 26 61  1  0
 26 62  1  0
 26 63  1  0
 27 64  1  0
M  CHG  2   6   1  14   1
M  END
>  <UniqueID>  (24) 
23

>  <SMILES>  (24) 
CCNCC[NH2+]c1c2ccccc2[n+](C)c2ccc(CCN(CC)CC)cc12

>  <Energy>  (24) 
82.52000055576195

>  <Genealogy>  (24) 
CCNCC[NH2+]c1c2ccccc2[n+](C)c2ccc(CCN(CC)CC)cc12 (protonated)
CCNCC[NH2+]c1c2ccccc2[n+](C)c2ccc(CCN(CC)CC)cc12 (3D coordinates assigned)
CCNCC[NH2+]c1c2ccccc2[n+](C)c2ccc(CCN(CC)CC)cc12 (optimized conformer: 82.52000055576195 kcal/mol)

>  <smiles>  (24) 
CCNCCNc1c2ccccc2[n+](C)c2ccc(CCN(CC)CC)cc12

>  <score_type>  (24) 
oracle

>  <origin>  (24) 
adg

>  <m_score__min__energy>  (24) 
-9.0299999999999994

>  <m_primary>  (24) 
energy

$$$$
24:0
     RDKit          3D

 41 42  0  0  0  0  0  0  0  0999 V2000
   -9.3950   18.1900  -31.6040 C   0  0  0  0  0  0  0  0  0  0  0  0
   -8.1110   18.6540  -32.2120 C   0  0  0  0  0  0  0  0  0  0  0  0
   -7.3820   17.9220  -33.0780 N   0  0  0  0  0  0  0  0  0  0  0  0
   -6.3400   18.6570  -33.4350 N   0  0  0  0  0  0  0  0  0  0  0  0
   -5.3440   18.2330  -34.4080 C   0  0  0  0  0  0  0  0  0  0  0  0
   -6.3950   19.8650  -32.8410 C   0  0  0  0  0  0  0  0  0  0  0  0
   -7.5240   19.8970  -32.0500 C   0  0  0  0  0  0  0  0  0  0  0  0
   -7.9850   21.0250  -31.1760 C   0  0  0  0  0  0  0  0  0  0  0  0
   -6.9500   22.0740  -31.1190 N   0  0  0  0  0  0  0  0  0  0  0  0
   -6.9000   22.8500  -32.3710 C   0  0  0  0  0  0  0  0  0  0  0  0
   -5.7010   23.8240  -32.3570 C   0  0  0  0  0  0  0  0  0  0  0  0
   -5.1440   24.0470  -30.9970 N   0  0  0  0  0  0  0  0  0  0  0  0
   -4.0770   23.0570  -30.6490 C   0  0  0  0  0  0  0  0  0  0  0  0
   -2.8240   23.6840  -30.0030 C   0  0  0  0  0  0  0  0  0  0  0  0
   -3.6270   22.3240  -31.9250 C   0  0  0  0  0  0  0  0  0  0  0  0
   -6.2510   24.2080  -30.0240 C   0  0  0  0  0  0  0  0  0  0  0  0
   -7.1830   22.9750  -29.9750 C   0  0  0  0  0  0  0  0  0  0  0  0
   -9.3132   18.2196  -30.5074 H   0  0  0  0  0  0  0  0  0  0  0  0
  -10.2137   18.8492  -31.9285 H   0  0  0  0  0  0  0  0  0  0  0  0
   -9.6032   17.1598  -31.9285 H   0  0  0  0  0  0  0  0  0  0  0  0
   -4.4552   17.8546  -33.8818 H   0  0  0  0  0  0  0  0  0  0  0  0
   -5.7638   17.4356  -35.0388 H   0  0  0  0  0  0  0  0  0  0  0  0
   -5.0602   19.0883  -35.0388 H   0  0  0  0  0  0  0  0  0  0  0  0
   -5.6680   20.6812  -32.9651 H   0  0  0  0  0  0  0  0  0  0  0  0
   -8.9121   21.4499  -31.5883 H   0  0  0  0  0  0  0  0  0  0  0  0
   -8.1689   20.6435  -30.1608 H   0  0  0  0  0  0  0  0  0  0  0  0
   -6.7954   22.1595  -33.2208 H   0  0  0  0  0  0  0  0  0  0  0  0
   -7.8291   23.4312  -32.4664 H   0  0  0  0  0  0  0  0  0  0  0  0
   -4.9072   23.4106  -32.9965 H   0  0  0  0  0  0  0  0  0  0  0  0
   -6.0641   24.7950  -32.7249 H   0  0  0  0  0  0  0  0  0  0  0  0
   -4.5269   22.3774  -29.9103 H   0  0  0  0  0  0  0  0  0  0  0  0
   -2.9145   23.6387  -28.9077 H   0  0  0  0  0  0  0  0  0  0  0  0
   -1.9301   23.1270  -30.3204 H   0  0  0  0  0  0  0  0  0  0  0  0
   -2.7340   24.7334  -30.3204 H   0  0  0  0  0  0  0  0  0  0  0  0
   -3.0699   21.4165  -31.6494 H   0  0  0  0  0  0  0  0  0  0  0  0
   -4.5102   22.0459  -32.5189 H   0  0  0  0  0  0  0  0  0  0  0  0
   -2.9793   22.9857  -32.5189 H   0  0  0  0  0  0  0  0  0  0  0  0
   -5.8210   24.3647  -29.0237 H   0  0  0  0  0  0  0  0  0  0  0  0
   -6.8546   25.0696  -30.3453 H   0  0  0  0  0  0  0  0  0  0  0  0
   -6.9965   22.4231  -29.0419 H   0  0  0  0  0  0  0  0  0  0  0  0
   -8.2239   23.3278  -30.0207 H   0  0  0  0  0  0  0  0  0  0  0  0
  1  2  1  0
  2  3  2  0
  3  4  1  0
  4  5  1  0
  4  6  1  0
  6  7  2  0
  7  8  1  0
  8  9  1  0
  9 10  1  0
 10 11  1  0
 11 12  1  0
 12 13  1  0
 13 14  1  0
 13 15  1  0
 12 16  1  0
 16 17  1  0
  7  2  1  0
 17  9  1  0
  1 18  1  0
  1 19  1  0
  1 20  1  0
  5 21  1  0
  5 22  1  0
  5 23  1  0
  6 24  1  0
  8 25  1  0
  8 26  1  0
 10 27  1  0
 10 28  1  0
 11 29  1  0
 11 30  1  0
 13 31  1  0
 14 32  1  0
 14 33  1  0
 14 34  1  0
 15 35  1  0
 15 36  1  0
 15 37  1  0
 16 38  1  0
 16 39  1  0
 17 40  1  0
 17 41  1  0
M  END
>  <UniqueID>  (25) 
24

>  <SMILES>  (25) 
Cc1nn(C)cc1CN1CCN(C(C)C)CC1

>  <Energy>  (25) 
79.58786978146829

>  <Genealogy>  (25) 
Cc1nn(C)cc1CN1CCN(C(C)C)CC1 (3D coordinates assigned)
Cc1nn(C)cc1CN1CCN(C(C)C)CC1 (nonaromatic ring conformer: 79.58786978146829 kcal/mol)

>  <smiles>  (25) 
Cc1nn(C)cc1CN1CCN(C(C)C)CC1

>  <score_type>  (25) 
oracle

>  <origin>  (25) 
adg

>  <m_score__min__energy>  (25) 
-6.79

>  <m_primary>  (25) 
energy

$$$$
25:0
     RDKit          3D

 44 46  0  0  0  0  0  0  0  0999 V2000
    2.1540   26.8200  -25.7760 C   0  0  0  0  0  0  0  0  0  0  0  0
    2.6440   26.1070  -24.5020 C   0  0  0  0  0  0  0  0  0  0  0  0
    2.7530   24.5990  -24.7690 C   0  0  0  0  0  0  0  0  0  0  0  0
    1.7440   26.3480  -23.3480 N   0  0  0  0  0  0  0  0  0  0  0  0
    0.6650   27.3270  -23.5950 C   0  0  0  0  0  0  0  0  0  0  0  0
   -0.7470   26.7090  -23.6270 C   0  0  0  0  0  0  0  0  0  0  0  0
   -1.0140   26.0370  -24.9010 N   0  0  0  0  0  0  0  0  0  0  0  0
   -1.4630   26.6260  -26.0350 C   0  0  0  0  0  0  0  0  0  0  0  0
   -1.6490   25.6810  -27.0370 C   0  0  0  0  0  0  0  0  0  0  0  0
   -1.2950   24.4750  -26.4690 C   0  0  0  0  0  0  0  0  0  0  0  0
   -1.2910   23.1930  -27.0130 C   0  0  0  0  0  0  0  0  0  0  0  0
   -0.8790   22.1160  -26.1910 C   0  0  0  0  0  0  0  0  0  0  0  0
   -0.8580   20.7290  -26.7240 C   0  0  0  0  0  0  0  0  0  0  0  0
   -1.7280   19.6900  -26.4210 C   0  0  0  0  0  0  0  0  0  0  0  0
   -1.3630   18.5870  -27.1020 N   0  0  0  0  0  0  0  0  0  0  0  0
   -0.3030   18.8990  -27.8300 N   0  0  0  0  0  0  0  0  0  0  0  0
    0.4260   17.9440  -28.6530 C   0  0  0  0  0  0  0  0  0  0  0  0
    0.0420   20.1810  -27.6210 C   0  0  0  0  0  0  0  0  0  0  0  0
   -0.4830   22.3800  -24.8510 C   0  0  0  0  0  0  0  0  0  0  0  0
   -0.5000   23.6880  -24.3360 C   0  0  0  0  0  0  0  0  0  0  0  0
   -0.9150   24.7200  -25.1770 C   0  0  0  0  0  0  0  0  0  0  0  0
    1.5514   27.6968  -25.4967 H   0  0  0  0  0  0  0  0  0  0  0  0
    3.0205   27.1449  -26.3706 H   0  0  0  0  0  0  0  0  0  0  0  0
    1.5401   26.1275  -26.3706 H   0  0  0  0  0  0  0  0  0  0  0  0
    3.6307   26.5192  -24.2442 H   0  0  0  0  0  0  0  0  0  0  0  0
    2.7920   24.0590  -23.8115 H   0  0  0  0  0  0  0  0  0  0  0  0
    1.8767   24.2641  -25.3434 H   0  0  0  0  0  0  0  0  0  0  0  0
    3.6683   24.3936  -25.3434 H   0  0  0  0  0  0  0  0  0  0  0  0
    1.2970   25.4420  -23.0710 H   0  0  0  0  0  0  0  0  0  0  0  0
    2.3040   26.6680  -22.5240 H   0  0  0  0  0  0  0  0  0  0  0  0
    0.6939   28.0825  -22.7961 H   0  0  0  0  0  0  0  0  0  0  0  0
    0.8470   27.7567  -24.5911 H   0  0  0  0  0  0  0  0  0  0  0  0
   -0.8340   25.9757  -22.8117 H   0  0  0  0  0  0  0  0  0  0  0  0
   -1.4799   27.5203  -23.5063 H   0  0  0  0  0  0  0  0  0  0  0  0
   -1.6540   27.7034  -26.1474 H   0  0  0  0  0  0  0  0  0  0  0  0
   -2.0029   25.8572  -28.0635 H   0  0  0  0  0  0  0  0  0  0  0  0
   -1.6000   23.0214  -28.0547 H   0  0  0  0  0  0  0  0  0  0  0  0
   -2.5826   19.7574  -25.7317 H   0  0  0  0  0  0  0  0  0  0  0  0
    0.9652   17.2377  -28.0046 H   0  0  0  0  0  0  0  0  0  0  0  0
   -0.2822   17.3915  -29.2880 H   0  0  0  0  0  0  0  0  0  0  0  0
    1.1457   18.4815  -29.2880 H   0  0  0  0  0  0  0  0  0  0  0  0
    0.8924   20.7040  -28.0829 H   0  0  0  0  0  0  0  0  0  0  0  0
   -0.1586   21.5486  -24.2080 H   0  0  0  0  0  0  0  0  0  0  0  0
   -0.1946   23.8916  -23.2990 H   0  0  0  0  0  0  0  0  0  0  0  0
  1  2  1  0
  2  3  1  0
  2  4  1  0
  4  5  1  0
  5  6  1  0
  6  7  1  0
  7  8  1  0
  8  9  2  0
  9 10  1  0
 10 11  2  0
 11 12  1  0
 12 13  1  0
 13 14  1  0
 14 15  2  0
 15 16  1  0
 16 17  1  0
 16 18  1  0
 12 19  2  0
 19 20  1  0
 20 21  2  0
 21  7  1  0
 21 10  1  0
 18 13  2  0
  1 22  1  0
  1 23  1  0
  1 24  1  0
  2 25  1  0
  3 26  1  0
  3 27  1  0
  3 28  1  0
  4 29  1  0
  4 30  1  0
  5 31  1  0
  5 32  1  0
  6 33  1  0
  6 34  1  0
  8 35  1  0
  9 36  1  0
 11 37  1  0
 14 38  1  0
 17 39  1  0
 17 40  1  0
 17 41  1  0
 18 42  1  0
 19 43  1  0
 20 44  1  0
M  CHG  1   4   1
M  END
>  <UniqueID>  (26) 
25

>  <SMILES>  (26) 
CC(C)[NH2+]CCn1ccc2cc(-c3cnn(C)c3)ccc21

>  <Energy>  (26) 
106.09596324912876

>  <Genealogy>  (26) 
CC(C)[NH2+]CCn1ccc2cc(-c3cnn(C)c3)ccc21 (protonated)
CC(C)[NH2+]CCn1ccc2cc(-c3cnn(C)c3)ccc21 (3D coordinates assigned)
CC(C)[NH2+]CCn1ccc2cc(-c3cnn(C)c3)ccc21 (optimized conformer: 106.09596324912876 kcal/mol)

>  <smiles>  (26) 
CC(C)NCCn1ccc2cc(-c3cnn(C)c3)ccc21

>  <score_type>  (26) 
oracle

>  <origin>  (26) 
adg

>  <m_score__min__energy>  (26) 
-7.0800000000000001

>  <m_primary>  (26) 
energy

$$$$
26:0
     RDKit          3D

 53 55  0  0  0  0  0  0  0  0999 V2000
   -0.5970   24.9370  -24.4610 C   0  0  0  0  0  0  0  0  0  0  0  0
   -0.8790   24.1290  -25.7420 C   0  0  0  0  0  0  0  0  0  0  0  0
   -1.7570   24.7880  -26.7660 N   0  0  0  0  0  0  0  0  0  0  0  0
   -2.9930   25.3080  -26.1260 C   0  0  0  0  0  0  0  0  0  0  0  0
   -1.0290   25.9040  -27.4200 C   0  0  0  0  0  0  0  0  0  0  0  0
   -2.1040   23.7280  -27.7710 C   0  0  0  0  0  0  0  0  0  0  0  0
   -1.8690   24.0840  -29.2530 C   0  0  0  0  0  0  0  0  0  0  0  0
   -2.9240   24.9360  -29.6950 O   0  0  0  0  0  0  0  0  0  0  0  0
   -4.1420   24.4850  -30.2240 C   0  0  0  0  0  0  0  0  0  0  0  0
   -5.2990   25.2880  -30.2480 C   0  0  0  0  0  0  0  0  0  0  0  0
   -6.4920   24.7960  -30.7850 C   0  0  0  0  0  0  0  0  0  0  0  0
   -6.5460   23.4930  -31.3080 C   0  0  0  0  0  0  0  0  0  0  0  0
   -7.7190   22.9510  -31.8530 C   0  0  0  0  0  0  0  0  0  0  0  0
   -8.7880   23.6200  -31.8920 O   0  0  0  0  0  0  0  0  0  0  0  0
   -7.7050   21.6480  -32.3570 C   0  0  0  0  0  0  0  0  0  0  0  0
   -6.5100   20.9060  -32.3100 C   0  0  0  0  0  0  0  0  0  0  0  0
   -6.4320   19.5160  -32.8280 C   0  0  0  0  0  0  0  0  0  0  0  0
   -5.8370   19.2750  -34.0780 C   0  0  0  0  0  0  0  0  0  0  0  0
   -5.7600   17.9780  -34.5920 C   0  0  0  0  0  0  0  0  0  0  0  0
   -6.2810   16.8970  -33.8750 C   0  0  0  0  0  0  0  0  0  0  0  0
   -6.1770   15.6140  -34.4330 O   0  0  0  0  0  0  0  0  0  0  0  0
   -5.3440   14.5800  -33.9210 C   0  0  0  0  0  0  0  0  0  0  0  0
   -6.8910   17.1310  -32.6290 C   0  0  0  0  0  0  0  0  0  0  0  0
   -6.9690   18.4280  -32.1130 C   0  0  0  0  0  0  0  0  0  0  0  0
   -5.4180   21.4510  -31.7760 O   0  0  0  0  0  0  0  0  0  0  0  0
   -5.3870   22.6870  -31.2850 C   0  0  0  0  0  0  0  0  0  0  0  0
   -4.1990   23.1870  -30.7450 C   0  0  0  0  0  0  0  0  0  0  0  0
   -0.8140   24.3151  -23.5800 H   0  0  0  0  0  0  0  0  0  0  0  0
    0.4602   25.2405  -24.4442 H   0  0  0  0  0  0  0  0  0  0  0  0
   -1.2358   25.8324  -24.4442 H   0  0  0  0  0  0  0  0  0  0  0  0
    0.0874   23.9111  -26.2200 H   0  0  0  0  0  0  0  0  0  0  0  0
   -1.4336   23.2388  -25.4104 H   0  0  0  0  0  0  0  0  0  0  0  0
   -2.8863   25.2631  -25.0321 H   0  0  0  0  0  0  0  0  0  0  0  0
   -3.1556   26.3508  -26.4360 H   0  0  0  0  0  0  0  0  0  0  0  0
   -3.8522   24.6951  -26.4360 H   0  0  0  0  0  0  0  0  0  0  0  0
   -0.5995   26.5624  -26.6506 H   0  0  0  0  0  0  0  0  0  0  0  0
   -0.2217   25.4976  -28.0471 H   0  0  0  0  0  0  0  0  0  0  0  0
   -1.7262   26.4790  -28.0471 H   0  0  0  0  0  0  0  0  0  0  0  0
   -1.4997   22.8381  -27.5408 H   0  0  0  0  0  0  0  0  0  0  0  0
   -3.1897   23.5791  -27.6752 H   0  0  0  0  0  0  0  0  0  0  0  0
   -0.9052   24.6034  -29.3599 H   0  0  0  0  0  0  0  0  0  0  0  0
   -1.8516   23.1662  -29.8591 H   0  0  0  0  0  0  0  0  0  0  0  0
   -5.2634   26.3094  -29.8413 H   0  0  0  0  0  0  0  0  0  0  0  0
   -7.3906   25.4303  -30.7982 H   0  0  0  0  0  0  0  0  0  0  0  0
   -8.6172   21.2072  -32.7855 H   0  0  0  0  0  0  0  0  0  0  0  0
   -5.4278   20.1157  -34.6575 H   0  0  0  0  0  0  0  0  0  0  0  0
   -5.2853   17.8061  -35.5693 H   0  0  0  0  0  0  0  0  0  0  0  0
   -5.3635   14.6042  -32.8214 H   0  0  0  0  0  0  0  0  0  0  0  0
   -5.7117   13.6048  -34.2729 H   0  0  0  0  0  0  0  0  0  0  0  0
   -4.3129   14.7318  -34.2729 H   0  0  0  0  0  0  0  0  0  0  0  0
   -7.3088   16.2889  -32.0577 H   0  0  0  0  0  0  0  0  0  0  0  0
   -7.4537   18.6001  -31.1407 H   0  0  0  0  0  0  0  0  0  0  0  0
   -3.2995   22.5541  -30.7292 H   0  0  0  0  0  0  0  0  0  0  0  0
  1  2  1  0
  2  3  1  0
  3  4  1  0
  3  5  1  0
  3  6  1  0
  6  7  1  0
  7  8  1  0
  8  9  1  0
  9 10  2  0
 10 11  1  0
 11 12  2  0
 12 13  1  0
 13 14  2  0
 13 15  1  0
 15 16  2  0
 16 17  1  0
 17 18  2  0
 18 19  1  0
 19 20  2  0
 20 21  1  0
 21 22  1  0
 20 23  1  0
 23 24  2  0
 16 25  1  0
 25 26  1  0
 26 27  2  0
 27  9  1  0
 26 12  1  0
 24 17  1  0
  1 28  1  0
  1 29  1  0
  1 30  1  0
  2 31  1  0
  2 32  1  0
  4 33  1  0
  4 34  1  0
  4 35  1  0
  5 36  1  0
  5 37  1  0
  5 38  1  0
  6 39  1  0
  6 40  1  0
  7 41  1  0
  7 42  1  0
 10 43  1  0
 11 44  1  0
 15 45  1  0
 18 46  1  0
 19 47  1  0
 22 48  1  0
 22 49  1  0
 22 50  1  0
 23 51  1  0
 24 52  1  0
 27 53  1  0
M  CHG  1   3   1
M  END
>  <UniqueID>  (27) 
26

>  <SMILES>  (27) 
CC[N+](C)(C)CCOc1ccc2c(=O)cc(-c3ccc(OC)cc3)oc2c1

>  <Energy>  (27) 
72.57688442540582

>  <Genealogy>  (27) 
CC[N+](C)(C)CCOc1ccc2c(=O)cc(-c3ccc(OC)cc3)oc2c1 (3D coordinates assigned)
CC[N+](C)(C)CCOc1ccc2c(=O)cc(-c3ccc(OC)cc3)oc2c1 (optimized conformer: 72.57688442540582 kcal/mol)

>  <smiles>  (27) 
CC[N+](C)(C)CCOc1ccc2c(=O)cc(-c3ccc(OC)cc3)oc2c1

>  <score_type>  (27) 
oracle

>  <origin>  (27) 
adg

>  <m_score__min__energy>  (27) 
-7.7400000000000002

>  <m_primary>  (27) 
energy

$$$$
