0:0
     RDKit          3D

 47 46  0  0  0  0  0  0  0  0999 V2000
   -2.4310   21.1410  -32.8270 C   0  0  0  0  0  0  0  0  0  0  0  0
   -3.8230   21.2200  -33.4510 C   0  0  0  0  0  0  0  0  0  0  0  0
   -4.7780   21.8030  -32.5000 N   0  0  0  0  0  0  0  0  0  0  0  0
   -4.0970   22.6030  -31.4720 C   0  0  0  0  0  0  0  0  0  0  0  0
   -5.1000   23.4870  -30.7180 C   0  0  0  0  0  0  0  0  0  0  0  0
   -6.3350   23.8780  -31.5530 C   0  0  0  0  0  0  0  0  0  0  0  0
   -7.0360   22.7010  -32.0950 N   0  0  0  0  0  0  0  0  0  0  0  0
   -8.4940   22.8730  -31.9890 C   0  0  0  0  0  0  0  0  0  0  0  0
   -9.1360   21.8270  -31.0590 C   0  0  0  0  0  0  0  0  0  0  0  0
   -8.6630   20.3780  -31.2870 C   0  0  0  0  0  0  0  0  0  0  0  0
   -8.4030   20.0280  -32.7580 C   0  0  0  0  0  0  0  0  0  0  0  0
   -7.0190   20.3750  -33.1270 N   0  0  0  0  0  0  0  0  0  0  0  0
   -6.3830   19.3830  -34.0110 C   0  0  0  0  0  0  0  0  0  0  0  0
   -6.5300   17.9570  -33.4450 C   0  0  0  0  0  0  0  0  0  0  0  0
   -5.8700   17.7910  -32.0660 C   0  0  0  0  0  0  0  0  0  0  0  0
   -5.5590   19.0900  -31.4700 N   0  0  0  0  0  0  0  0  0  0  0  0
   -2.5198   21.1460  -31.7306 H   0  0  0  0  0  0  0  0  0  0  0  0
   -1.9363   20.2133  -33.1505 H   0  0  0  0  0  0  0  0  0  0  0  0
   -1.8345   22.0067  -33.1505 H   0  0  0  0  0  0  0  0  0  0  0  0
   -3.7807   21.8480  -34.3531 H   0  0  0  0  0  0  0  0  0  0  0  0
   -4.1549   20.2044  -33.7126 H   0  0  0  0  0  0  0  0  0  0  0  0
   -5.2700   21.0160  -32.0130 H   0  0  0  0  0  0  0  0  0  0  0  0
   -3.6030   21.9278  -30.7578 H   0  0  0  0  0  0  0  0  0  0  0  0
   -3.3548   23.2501  -31.9623 H   0  0  0  0  0  0  0  0  0  0  0  0
   -5.4427   22.9404  -29.8270 H   0  0  0  0  0  0  0  0  0  0  0  0
   -4.5765   24.4205  -30.4638 H   0  0  0  0  0  0  0  0  0  0  0  0
   -7.0308   24.4414  -30.9139 H   0  0  0  0  0  0  0  0  0  0  0  0
   -5.9896   24.4859  -32.4022 H   0  0  0  0  0  0  0  0  0  0  0  0
   -6.7730   22.5830  -33.1010 H   0  0  0  0  0  0  0  0  0  0  0  0
   -6.7540   21.8520  -31.5520 H   0  0  0  0  0  0  0  0  0  0  0  0
   -8.7045   23.8770  -31.5919 H   0  0  0  0  0  0  0  0  0  0  0  0
   -8.9238   22.7419  -32.9930 H   0  0  0  0  0  0  0  0  0  0  0  0
   -8.9015   22.1035  -30.0205 H   0  0  0  0  0  0  0  0  0  0  0  0
  -10.2135   21.8380  -31.2800 H   0  0  0  0  0  0  0  0  0  0  0  0
   -7.7291   20.2271  -30.7257 H   0  0  0  0  0  0  0  0  0  0  0  0
   -9.4759   19.7213  -30.9436 H   0  0  0  0  0  0  0  0  0  0  0  0
   -8.5595   18.9496  -32.9080 H   0  0  0  0  0  0  0  0  0  0  0  0
   -9.0973   20.6000  -33.3911 H   0  0  0  0  0  0  0  0  0  0  0  0
   -6.4530   20.4320  -32.2460 H   0  0  0  0  0  0  0  0  0  0  0  0
   -6.8598   19.4269  -35.0013 H   0  0  0  0  0  0  0  0  0  0  0  0
   -5.3113   19.6194  -34.0858 H   0  0  0  0  0  0  0  0  0  0  0  0
   -7.6012   17.7247  -33.3520 H   0  0  0  0  0  0  0  0  0  0  0  0
   -6.0220   17.2716  -34.1394 H   0  0  0  0  0  0  0  0  0  0  0  0
   -6.5577   17.2467  -31.4020 H   0  0  0  0  0  0  0  0  0  0  0  0
   -4.9313   17.2320  -32.1935 H   0  0  0  0  0  0  0  0  0  0  0  0
   -6.4510   19.5480  -31.1640 H   0  0  0  0  0  0  0  0  0  0  0  0
   -5.1220   19.7010  -32.2020 H   0  0  0  0  0  0  0  0  0  0  0  0
  1  2  1  0
  2  3  1  0
  3  4  1  0
  4  5  1  0
  5  6  1  0
  6  7  1  0
  7  8  1  0
  8  9  1  0
  9 10  1  0
 10 11  1  0
 11 12  1  0
 12 13  1  0
 13 14  1  0
 14 15  1  0
 15 16  1  0
  1 17  1  0
  1 18  1  0
  1 19  1  0
  2 20  1  0
  2 21  1  0
  3 22  1  0
  4 23  1  0
  4 24  1  0
  5 25  1  0
  5 26  1  0
  6 27  1  0
  6 28  1  0
  7 29  1  0
  7 30  1  0
  8 31  1  0
  8 32  1  0
  9 33  1  0
  9 34  1  0
 10 35  1  0
 10 36  1  0
 11 37  1  0
 11 38  1  0
 12 39  1  0
 13 40  1  0
 13 41  1  0
 14 42  1  0
 14 43  1  0
 15 44  1  0
 15 45  1  0
 16 46  1  0
 16 47  1  0
M  CHG  1   7   1
M  END
>  <UniqueID>  (1) 
1

>  <SMILES>  (1) 
CCNCCC[NH2+]CCCCNCCCN

>  <Energy>  (1) 
29.20426161736413

>  <Genealogy>  (1) 
CCNCCC[NH2+]CCCCNCCCN (protonated)
CCNCCC[NH2+]CCCCNCCCN (3D coordinates assigned)
CCNCCC[NH2+]CCCCNCCCN (optimized conformer: 29.20426161736413 kcal/mol)

>  <smiles>  (1) 
CCNCCCNCCCCNCCCN

>  <score_type>  (1) 
oracle

>  <origin>  (1) 
adg

>  <m_score__min__energy>  (1) 
-3.2799999999999998

>  <m_primary>  (1) 
energy

$$$$
1:0
     RDKit          3D

 69 71  0  0  0  0  0  0  0  0999 V2000
   -3.7200   24.5250  -26.9820 C   0  0  0  0  0  0  0  0  0  0  0  0
   -3.7670   24.1850  -28.4750 C   0  0  0  0  0  0  0  0  0  0  0  0
   -5.1650   24.0170  -28.9740 N   0  0  0  0  0  0  0  0  0  0  0  0
   -5.7280   25.2780  -29.5290 C   0  0  0  0  0  0  0  0  0  0  0  0
   -7.1370   25.0900  -30.1010 C   0  0  0  0  0  0  0  0  0  0  0  0
   -5.2640   22.9080  -29.9580 C   0  0  0  0  0  0  0  0  0  0  0  0
   -4.7110   23.2560  -31.3570 C   0  0  0  0  0  0  0  0  0  0  0  0
   -5.5640   22.7000  -32.4080 N   0  0  0  0  0  0  0  0  0  0  0  0
   -5.6030   21.2930  -32.6950 C   0  0  0  0  0  0  0  0  0  0  0  0
   -6.7720   20.5210  -32.4980 C   0  0  0  0  0  0  0  0  0  0  0  0
   -7.9860   21.1280  -32.1190 C   0  0  0  0  0  0  0  0  0  0  0  0
   -9.1290   20.3620  -31.9080 C   0  0  0  0  0  0  0  0  0  0  0  0
   -9.0910   18.9830  -32.0860 C   0  0  0  0  0  0  0  0  0  0  0  0
   -7.9130   18.3590  -32.4940 C   0  0  0  0  0  0  0  0  0  0  0  0
   -6.7330   19.1070  -32.7260 C   0  0  0  0  0  0  0  0  0  0  0  0
   -5.5690   18.5030  -33.1750 N   0  0  0  0  0  0  0  0  0  0  0  0
   -5.5110   17.0500  -33.4170 C   0  0  0  0  0  0  0  0  0  0  0  0
   -4.4680   19.2860  -33.3930 C   0  0  0  0  0  0  0  0  0  0  0  0
   -2.9440   18.8120  -33.9460 S   0  0  0  0  0  0  0  0  0  0  0  0
   -2.2660   20.3540  -33.8930 C   0  0  0  0  0  0  0  0  0  0  0  0
   -0.8670   20.6960  -34.3200 C   0  0  0  0  0  0  0  0  0  0  0  0
   -0.0490   21.1700  -33.1950 N   0  0  0  0  0  0  0  0  0  0  0  0
    0.7630   20.0900  -32.6180 C   0  0  0  0  0  0  0  0  0  0  0  0
    0.6110   20.0520  -31.0920 C   0  0  0  0  0  0  0  0  0  0  0  0
   -0.8340   19.7840  -30.6380 C   0  0  0  0  0  0  0  0  0  0  0  0
   -1.6320   21.0300  -30.5900 N   0  0  0  0  0  0  0  0  0  0  0  0
   -2.8180   20.8710  -29.7300 C   0  0  0  0  0  0  0  0  0  0  0  0
   -0.8070   22.1400  -30.0850 C   0  0  0  0  0  0  0  0  0  0  0  0
   -3.2260   21.2620  -33.4540 C   0  0  0  0  0  0  0  0  0  0  0  0
   -4.4600   20.6520  -33.1710 C   0  0  0  0  0  0  0  0  0  0  0  0
   -3.8472   23.6052  -26.3923 H   0  0  0  0  0  0  0  0  0  0  0  0
   -2.7499   24.9840  -26.7408 H   0  0  0  0  0  0  0  0  0  0  0  0
   -4.5292   25.2300  -26.7408 H   0  0  0  0  0  0  0  0  0  0  0  0
   -3.2855   24.9979  -29.0383 H   0  0  0  0  0  0  0  0  0  0  0  0
   -3.2408   23.2299  -28.6196 H   0  0  0  0  0  0  0  0  0  0  0  0
   -5.7860   23.7280  -28.1780 H   0  0  0  0  0  0  0  0  0  0  0  0
   -5.7705   26.0287  -28.7261 H   0  0  0  0  0  0  0  0  0  0  0  0
   -5.0739   25.6023  -30.3518 H   0  0  0  0  0  0  0  0  0  0  0  0
   -7.8579   24.9938  -29.2758 H   0  0  0  0  0  0  0  0  0  0  0  0
   -7.4011   25.9609  -30.7189 H   0  0  0  0  0  0  0  0  0  0  0  0
   -7.1635   24.1804  -30.7189 H   0  0  0  0  0  0  0  0  0  0  0  0
   -4.6999   22.0482  -29.5675 H   0  0  0  0  0  0  0  0  0  0  0  0
   -6.3349   22.6909  -30.0849 H   0  0  0  0  0  0  0  0  0  0  0  0
   -4.6708   24.3498  -31.4667 H   0  0  0  0  0  0  0  0  0  0  0  0
   -3.7045   22.8231  -31.4551 H   0  0  0  0  0  0  0  0  0  0  0  0
   -5.9900   23.3580  -33.1010 H   0  0  0  0  0  0  0  0  0  0  0  0
   -8.0309   22.2193  -31.9884 H   0  0  0  0  0  0  0  0  0  0  0  0
  -10.0658   20.8490  -31.5994 H   0  0  0  0  0  0  0  0  0  0  0  0
   -9.9943   18.3822  -31.9041 H   0  0  0  0  0  0  0  0  0  0  0  0
   -7.8998   17.2685  -32.6380 H   0  0  0  0  0  0  0  0  0  0  0  0
   -5.4898   16.5185  -32.4542 H   0  0  0  0  0  0  0  0  0  0  0  0
   -6.3974   16.7378  -33.9887 H   0  0  0  0  0  0  0  0  0  0  0  0
   -4.6025   16.8095  -33.9887 H   0  0  0  0  0  0  0  0  0  0  0  0
   -0.3967   19.7983  -34.7478 H   0  0  0  0  0  0  0  0  0  0  0  0
   -0.9264   21.5058  -35.0621 H   0  0  0  0  0  0  0  0  0  0  0  0
   -0.6780   21.5590  -32.4520 H   0  0  0  0  0  0  0  0  0  0  0  0
    0.4343   19.1277  -33.0375 H   0  0  0  0  0  0  0  0  0  0  0  0
    1.8196   20.2728  -32.8633 H   0  0  0  0  0  0  0  0  0  0  0  0
    1.2566   19.2546  -30.6953 H   0  0  0  0  0  0  0  0  0  0  0  0
    0.8980   21.0421  -30.7082 H   0  0  0  0  0  0  0  0  0  0  0  0
   -1.3060   19.0852  -31.3444 H   0  0  0  0  0  0  0  0  0  0  0  0
   -0.8019   19.3577  -29.6245 H   0  0  0  0  0  0  0  0  0  0  0  0
   -2.5132   20.9119  -28.6739 H   0  0  0  0  0  0  0  0  0  0  0  0
   -3.5324   21.6814  -29.9371 H   0  0  0  0  0  0  0  0  0  0  0  0
   -3.2937   19.9010  -29.9371 H   0  0  0  0  0  0  0  0  0  0  0  0
   -0.8137   22.1309  -28.9851 H   0  0  0  0  0  0  0  0  0  0  0  0
    0.2254   22.0234  -30.4463 H   0  0  0  0  0  0  0  0  0  0  0  0
   -1.2163   23.0949  -30.4463 H   0  0  0  0  0  0  0  0  0  0  0  0
   -3.0388   22.3400  -33.3409 H   0  0  0  0  0  0  0  0  0  0  0  0
  1  2  1  0
  2  3  1  0
  3  4  1  0
  4  5  1  0
  3  6  1  0
  6  7  1  0
  7  8  1  0
  8  9  1  0
  9 10  2  0
 10 11  1  0
 11 12  2  0
 12 13  1  0
 13 14  2  0
 14 15  1  0
 15 16  2  0
 16 17  1  0
 16 18  1  0
 18 19  1  0
 19 20  1  0
 20 21  1  0
 21 22  1  0
 22 23  1  0
 23 24  1  0
 24 25  1  0
 25 26  1  0
 26 27  1  0
 26 28  1  0
 20 29  2  0
 29 30  1  0
 30  9  1  0
 15 10  1  0
 30 18  2  0
  1 31  1  0
  1 32  1  0
  1 33  1  0
  2 34  1  0
  2 35  1  0
  3 36  1  0
  4 37  1  0
  4 38  1  0
  5 39  1  0
  5 40  1  0
  5 41  1  0
  6 42  1  0
  6 43  1  0
  7 44  1  0
  7 45  1  0
  8 46  1  0
 11 47  1  0
 12 48  1  0
 13 49  1  0
 14 50  1  0
 17 51  1  0
 17 52  1  0
 17 53  1  0
 21 54  1  0
 21 55  1  0
 22 56  1  0
 23 57  1  0
 23 58  1  0
 24 59  1  0
 24 60  1  0
 25 61  1  0
 25 62  1  0
 27 63  1  0
 27 64  1  0
 27 65  1  0
 28 66  1  0
 28 67  1  0
 28 68  1  0
 29 69  1  0
M  CHG  2   3   1  16   1
M  END
>  <UniqueID>  (2) 
2

>  <SMILES>  (2) 
CC[NH+](CC)CCNc1c2ccccc2[n+](C)c2sc(CNCCCN(C)C)cc12

>  <Energy>  (2) 
113.7607092401873

>  <Genealogy>  (2) 
CC[NH+](CC)CCNc1c2ccccc2[n+](C)c2sc(CNCCCN(C)C)cc12 (protonated)
CC[NH+](CC)CCNc1c2ccccc2[n+](C)c2sc(CNCCCN(C)C)cc12 (3D coordinates assigned)
CC[NH+](CC)CCNc1c2ccccc2[n+](C)c2sc(CNCCCN(C)C)cc12 (optimized conformer: 113.7607092401873 kcal/mol)

>  <smiles>  (2) 
CCN(CC)CCNc1c2ccccc2[n+](C)c2sc(CNCCCN(C)C)cc12

>  <score_type>  (2) 
oracle

>  <origin>  (2) 
adg

>  <m_score__min__energy>  (2) 
-8.3200000000000003

>  <m_primary>  (2) 
energy

$$$$
2:0
     RDKit          3D

 54 56  0  0  0  0  0  0  0  0999 V2000
   -6.3020   25.6340  -29.5640 C   0  0  0  0  0  0  0  0  0  0  0  0
   -5.3460   25.6820  -30.7530 C   0  0  0  0  0  0  0  0  0  0  0  0
   -4.3370   24.6160  -30.6580 N   0  0  0  0  0  0  0  0  0  0  0  0
   -3.8850   24.4330  -29.2730 C   0  0  0  0  0  0  0  0  0  0  0  0
   -2.4860   23.8280  -29.2460 C   0  0  0  0  0  0  0  0  0  0  0  0
   -2.2410   23.1990  -30.4860 O   0  0  0  0  0  0  0  0  0  0  0  0
   -2.2810   21.7980  -30.3270 C   0  0  0  0  0  0  0  0  0  0  0  0
   -3.7400   21.3230  -30.2670 C   0  0  0  0  0  0  0  0  0  0  0  0
   -4.6080   22.0250  -31.2380 N   0  0  0  0  0  0  0  0  0  0  0  0
   -5.2640   21.1160  -32.1780 C   0  0  0  0  0  0  0  0  0  0  0  0
   -4.4890   20.2010  -32.9320 C   0  0  0  0  0  0  0  0  0  0  0  0
   -3.1580   20.4930  -33.3120 C   0  0  0  0  0  0  0  0  0  0  0  0
   -2.4070   19.5780  -34.0450 C   0  0  0  0  0  0  0  0  0  0  0  0
   -2.9700   18.3710  -34.4380 C   0  0  0  0  0  0  0  0  0  0  0  0
   -4.2880   18.0710  -34.1010 C   0  0  0  0  0  0  0  0  0  0  0  0
   -5.0680   18.9700  -33.3320 C   0  0  0  0  0  0  0  0  0  0  0  0
   -6.3630   18.6720  -32.9660 N   0  0  0  0  0  0  0  0  0  0  0  0
   -6.8540   17.2770  -33.0400 C   0  0  0  0  0  0  0  0  0  0  0  0
   -7.2080   19.6880  -32.5620 C   0  0  0  0  0  0  0  0  0  0  0  0
   -8.6070   19.4840  -32.4850 C   0  0  0  0  0  0  0  0  0  0  0  0
   -9.4620   20.5020  -32.0910 C   0  0  0  0  0  0  0  0  0  0  0  0
   -8.9670   21.7710  -31.8410 C   0  0  0  0  0  0  0  0  0  0  0  0
   -7.5980   22.0440  -31.9630 C   0  0  0  0  0  0  0  0  0  0  0  0
   -7.1970   23.4980  -31.9290 C   0  0  0  0  0  0  0  0  0  0  0  0
   -6.6820   20.9740  -32.2280 C   0  0  0  0  0  0  0  0  0  0  0  0
   -5.7248   25.6630  -28.6280 H   0  0  0  0  0  0  0  0  0  0  0  0
   -6.9801   26.4992  -29.6036 H   0  0  0  0  0  0  0  0  0  0  0  0
   -6.8900   24.7052  -29.6036 H   0  0  0  0  0  0  0  0  0  0  0  0
   -5.9202   25.5528  -31.6823 H   0  0  0  0  0  0  0  0  0  0  0  0
   -4.8315   26.6543  -30.7515 H   0  0  0  0  0  0  0  0  0  0  0  0
   -3.5080   24.9200  -31.2220 H   0  0  0  0  0  0  0  0  0  0  0  0
   -3.8678   25.4088  -28.7655 H   0  0  0  0  0  0  0  0  0  0  0  0
   -4.5784   23.7515  -28.7585 H   0  0  0  0  0  0  0  0  0  0  0  0
   -1.7426   24.6217  -29.0802 H   0  0  0  0  0  0  0  0  0  0  0  0
   -2.4113   23.0926  -28.4314 H   0  0  0  0  0  0  0  0  0  0  0  0
   -1.7758   21.3192  -31.1788 H   0  0  0  0  0  0  0  0  0  0  0  0
   -1.7709   21.5238  -29.3918 H   0  0  0  0  0  0  0  0  0  0  0  0
   -3.7686   20.2450  -30.4841 H   0  0  0  0  0  0  0  0  0  0  0  0
   -4.1210   21.5445  -29.2591 H   0  0  0  0  0  0  0  0  0  0  0  0
   -5.3060   22.6180  -30.7470 H   0  0  0  0  0  0  0  0  0  0  0  0
   -3.9920   22.7100  -31.7240 H   0  0  0  0  0  0  0  0  0  0  0  0
   -2.7104   21.4558  -33.0245 H   0  0  0  0  0  0  0  0  0  0  0  0
   -1.3661   19.8116  -34.3132 H   0  0  0  0  0  0  0  0  0  0  0  0
   -2.3739   17.6501  -35.0168 H   0  0  0  0  0  0  0  0  0  0  0  0
   -4.7301   17.1215  -34.4371 H   0  0  0  0  0  0  0  0  0  0  0  0
   -6.9928   16.8827  -32.0225 H   0  0  0  0  0  0  0  0  0  0  0  0
   -7.8142   17.2542  -33.5762 H   0  0  0  0  0  0  0  0  0  0  0  0
   -6.1198   16.6578  -33.5762 H   0  0  0  0  0  0  0  0  0  0  0  0
   -9.0236   18.4991  -32.7427 H   0  0  0  0  0  0  0  0  0  0  0  0
  -10.5374   20.3009  -31.9766 H   0  0  0  0  0  0  0  0  0  0  0  0
   -9.6568   22.5744  -31.5431 H   0  0  0  0  0  0  0  0  0  0  0  0
   -7.1058   23.8288  -30.8839 H   0  0  0  0  0  0  0  0  0  0  0  0
   -6.2306   23.6239  -32.4392 H   0  0  0  0  0  0  0  0  0  0  0  0
   -7.9623   24.1014  -32.4392 H   0  0  0  0  0  0  0  0  0  0  0  0
  1  2  1  0
  2  3  1  0
  3  4  1  0
  4  5  1  0
  5  6  1  0
  6  7  1  0
  7  8  1  0
  8  9  1  0
  9 10  1  0
 10 11  2  0
 11 12  1  0
 12 13  2  0
 13 14  1  0
 14 15  2  0
 15 16  1  0
 16 17  2  0
 17 18  1  0
 17 19  1  0
 19 20  2  0
 20 21  1  0
 21 22  2  0
 22 23  1  0
 23 24  1  0
 23 25  2  0
 25 10  1  0
 16 11  1  0
 25 19  1  0
  1 26  1  0
  1 27  1  0
  1 28  1  0
  2 29  1  0
  2 30  1  0
  3 31  1  0
  4 32  1  0
  4 33  1  0
  5 34  1  0
  5 35  1  0
  7 36  1  0
  7 37  1  0
  8 38  1  0
  8 39  1  0
  9 40  1  0
  9 41  1  0
 12 42  1  0
 13 43  1  0
 14 44  1  0
 15 45  1  0
 18 46  1  0
 18 47  1  0
 18 48  1  0
 20 49  1  0
 21 50  1  0
 22 51  1  0
 24 52  1  0
 24 53  1  0
 24 54  1  0
M  CHG  2   9   1  17   1
M  END
>  <UniqueID>  (3) 
3

>  <SMILES>  (3) 
CCNCCOCC[NH2+]c1c2ccccc2[n+](C)c2cccc(C)c12

>  <Energy>  (3) 
89.50451034732143

>  <Genealogy>  (3) 
CCNCCOCC[NH2+]c1c2ccccc2[n+](C)c2cccc(C)c12 (protonated)
CCNCCOCC[NH2+]c1c2ccccc2[n+](C)c2cccc(C)c12 (3D coordinates assigned)
CCNCCOCC[NH2+]c1c2ccccc2[n+](C)c2cccc(C)c12 (optimized conformer: 89.50451034732143 kcal/mol)

>  <smiles>  (3) 
CCNCCOCCNc1c2ccccc2[n+](C)c2cccc(C)c12

>  <score_type>  (3) 
oracle

>  <origin>  (3) 
adg

>  <m_score__min__energy>  (3) 
-7.2599999999999998

>  <m_primary>  (3) 
energy

$$$$
3:0
     RDKit          3D

 40 41  0  0  0  0  0  0  0  0999 V2000
   -9.7460   22.2270  -31.3690 O   0  0  0  0  0  0  0  0  0  0  0  0
   -8.9140   21.4380  -31.8640 N   0  0  0  0  0  0  0  0  0  0  0  0
   -9.3700   20.3500  -32.5700 O   0  0  0  0  0  0  0  0  0  0  0  0
   -7.5310   21.8160  -31.9360 C   0  0  0  0  0  0  0  0  0  0  0  0
   -7.0910   22.9280  -31.1990 C   0  0  0  0  0  0  0  0  0  0  0  0
   -5.7500   23.3270  -31.2370 C   0  0  0  0  0  0  0  0  0  0  0  0
   -5.2110   24.7450  -30.3400 S   0  0  0  0  0  0  0  0  0  0  0  0
   -5.8920   25.9810  -30.8580 O   0  0  0  0  0  0  0  0  0  0  0  0
   -5.5710   24.5740  -28.8910 O   0  0  0  0  0  0  0  0  0  0  0  0
   -3.4890   24.9220  -30.4820 N   0  0  0  0  0  0  0  0  0  0  0  0
   -2.8190   23.9910  -29.5790 C   0  0  0  0  0  0  0  0  0  0  0  0
   -2.3530   24.7330  -28.3610 C   0  0  0  0  0  0  0  0  0  0  0  0
   -3.0390   24.5980  -27.1420 C   0  0  0  0  0  0  0  0  0  0  0  0
   -2.5830   25.2630  -26.0000 C   0  0  0  0  0  0  0  0  0  0  0  0
   -1.4330   26.0560  -26.0630 C   0  0  0  0  0  0  0  0  0  0  0  0
   -0.7360   26.1820  -27.2680 C   0  0  0  0  0  0  0  0  0  0  0  0
   -1.1890   25.5190  -28.4120 C   0  0  0  0  0  0  0  0  0  0  0  0
   -4.8380   22.6120  -32.0160 C   0  0  0  0  0  0  0  0  0  0  0  0
   -5.2550   21.4950  -32.7410 C   0  0  0  0  0  0  0  0  0  0  0  0
   -6.6000   21.0820  -32.7200 C   0  0  0  0  0  0  0  0  0  0  0  0
   -6.9760   19.8680  -33.4090 N   0  0  0  0  0  0  0  0  0  0  0  0
   -5.7860   19.2250  -33.9890 C   0  0  0  0  0  0  0  0  0  0  0  0
   -5.8450   17.7020  -33.8470 C   0  0  0  0  0  0  0  0  0  0  0  0
   -6.0390   17.1710  -31.9900 Br  0  0  0  0  0  0  0  0  0  0  0  0
   -7.8087   23.4917  -30.5849 H   0  0  0  0  0  0  0  0  0  0  0  0
   -3.5211   23.1985  -29.2806 H   0  0  0  0  0  0  0  0  0  0  0  0
   -1.9555   23.5389  -30.0889 H   0  0  0  0  0  0  0  0  0  0  0  0
   -3.9381   23.9667  -27.0862 H   0  0  0  0  0  0  0  0  0  0  0  0
   -3.1295   25.1623  -25.0507 H   0  0  0  0  0  0  0  0  0  0  0  0
   -1.0768   26.5807  -25.1642 H   0  0  0  0  0  0  0  0  0  0  0  0
    0.1702   26.8037  -27.3160 H   0  0  0  0  0  0  0  0  0  0  0  0
   -0.6323   25.6128  -29.3561 H   0  0  0  0  0  0  0  0  0  0  0  0
   -3.7860   22.9307  -32.0583 H   0  0  0  0  0  0  0  0  0  0  0  0
   -4.5228   20.9300  -33.3366 H   0  0  0  0  0  0  0  0  0  0  0  0
   -7.4660   19.2170  -32.7570 H   0  0  0  0  0  0  0  0  0  0  0  0
   -7.6530   20.0900  -34.1760 H   0  0  0  0  0  0  0  0  0  0  0  0
   -5.7256   19.4822  -35.0568 H   0  0  0  0  0  0  0  0  0  0  0  0
   -4.8998   19.5877  -33.4477 H   0  0  0  0  0  0  0  0  0  0  0  0
   -6.7041   17.3222  -34.4195 H   0  0  0  0  0  0  0  0  0  0  0  0
   -4.9037   17.2817  -34.2308 H   0  0  0  0  0  0  0  0  0  0  0  0
  1  2  2  0
  2  3  1  0
  2  4  1  0
  4  5  2  0
  5  6  1  0
  6  7  1  0
  7  8  2  0
  7  9  2  0
  7 10  1  0
 10 11  1  0
 11 12  1  0
 12 13  2  0
 13 14  1  0
 14 15  2  0
 15 16  1  0
 16 17  2  0
  6 18  2  0
 18 19  1  0
 19 20  2  0
 20 21  1  0
 21 22  1  0
 22 23  1  0
 23 24  1  0
 20  4  1  0
 17 12  1  0
  5 25  1  0
 11 26  1  0
 11 27  1  0
 13 28  1  0
 14 29  1  0
 15 30  1  0
 16 31  1  0
 17 32  1  0
 18 33  1  0
 19 34  1  0
 21 35  1  0
 21 36  1  0
 22 37  1  0
 22 38  1  0
 23 39  1  0
 23 40  1  0
M  CHG  4   2   1   3  -1  10  -1  21   1
M  END
>  <UniqueID>  (4) 
4

>  <SMILES>  (4) 
O=[N+]([O-])c1cc(S(=O)(=O)[N-]Cc2ccccc2)ccc1[NH2+]CCBr

>  <Energy>  (4) 
43.0905172987913

>  <Genealogy>  (4) 
O=[N+]([O-])c1cc(S(=O)(=O)[N-]Cc2ccccc2)ccc1[NH2+]CCBr (protonated)
O=[N+]([O-])c1cc(S(=O)(=O)[N-]Cc2ccccc2)ccc1[NH2+]CCBr (3D coordinates assigned)
O=[N+]([O-])c1cc(S(=O)(=O)[N-]Cc2ccccc2)ccc1[NH2+]CCBr (optimized conformer: 43.0905172987913 kcal/mol)

>  <smiles>  (4) 
O=[N+]([O-])c1cc(S(=O)(=O)NCc2ccccc2)ccc1NCCBr

>  <score_type>  (4) 
oracle

>  <origin>  (4) 
adg

>  <m_score__min__energy>  (4) 
-9.5399999999999991

>  <m_primary>  (4) 
energy

$$$$
4:0
     RDKit          3D

 66 68  0  0  0  0  0  0  0  0999 V2000
    0.5920   18.9410  -35.8610 C   0  0  0  0  0  0  0  0  0  0  0  0
   -0.4850   19.3920  -34.8650 C   0  0  0  0  0  0  0  0  0  0  0  0
   -0.5110   20.8700  -34.7010 N   0  0  0  0  0  0  0  0  0  0  0  0
    0.7990   21.4520  -35.1040 C   0  0  0  0  0  0  0  0  0  0  0  0
    0.6580   22.8500  -35.7120 C   0  0  0  0  0  0  0  0  0  0  0  0
   -0.8210   21.2390  -33.2920 C   0  0  0  0  0  0  0  0  0  0  0  0
   -2.1370   20.6230  -32.7580 C   0  0  0  0  0  0  0  0  0  0  0  0
   -3.3030   20.8890  -33.6150 N   0  0  0  0  0  0  0  0  0  0  0  0
   -4.6720   20.6630  -33.2190 C   0  0  0  0  0  0  0  0  0  0  0  0
   -5.3380   19.4330  -33.4490 C   0  0  0  0  0  0  0  0  0  0  0  0
   -4.7790   18.4480  -34.2850 C   0  0  0  0  0  0  0  0  0  0  0  0
   -5.4140   17.2200  -34.4650 C   0  0  0  0  0  0  0  0  0  0  0  0
   -6.6240   16.9590  -33.8330 C   0  0  0  0  0  0  0  0  0  0  0  0
   -7.2330   17.9370  -33.0480 C   0  0  0  0  0  0  0  0  0  0  0  0
   -6.6270   19.2040  -32.8620 C   0  0  0  0  0  0  0  0  0  0  0  0
   -7.2580   20.2090  -32.1470 N   0  0  0  0  0  0  0  0  0  0  0  0
   -8.5830   19.9950  -31.5360 C   0  0  0  0  0  0  0  0  0  0  0  0
   -6.6260   21.4160  -32.0180 C   0  0  0  0  0  0  0  0  0  0  0  0
   -7.1590   22.7840  -31.1810 S   0  0  0  0  0  0  0  0  0  0  0  0
   -5.7870   23.7100  -31.5000 C   0  0  0  0  0  0  0  0  0  0  0  0
   -5.5400   25.0980  -30.9750 C   0  0  0  0  0  0  0  0  0  0  0  0
   -4.1620   25.2670  -30.4840 N   0  0  0  0  0  0  0  0  0  0  0  0
   -3.9110   24.5420  -29.2280 C   0  0  0  0  0  0  0  0  0  0  0  0
   -2.4710   23.9950  -29.2150 C   0  0  0  0  0  0  0  0  0  0  0  0
   -2.2700   22.7890  -30.0510 N   0  0  0  0  0  0  0  0  0  0  0  0
   -3.1730   21.6810  -29.6950 C   0  0  0  0  0  0  0  0  0  0  0  0
   -0.8690   22.3420  -30.0860 C   0  0  0  0  0  0  0  0  0  0  0  0
   -4.8960   22.9620  -32.2620 C   0  0  0  0  0  0  0  0  0  0  0  0
   -5.3680   21.6690  -32.5430 C   0  0  0  0  0  0  0  0  0  0  0  0
    1.4701   18.5733  -35.3099 H   0  0  0  0  0  0  0  0  0  0  0  0
    0.1920   18.1348  -36.4935 H   0  0  0  0  0  0  0  0  0  0  0  0
    0.8858   19.7917  -36.4935 H   0  0  0  0  0  0  0  0  0  0  0  0
   -1.4676   19.0582  -35.2297 H   0  0  0  0  0  0  0  0  0  0  0  0
   -0.2501   18.9465  -33.8870 H   0  0  0  0  0  0  0  0  0  0  0  0
   -1.2570   21.2610  -35.3200 H   0  0  0  0  0  0  0  0  0  0  0  0
    1.4442   21.5173  -34.2155 H   0  0  0  0  0  0  0  0  0  0  0  0
    1.2337   20.7959  -35.8725 H   0  0  0  0  0  0  0  0  0  0  0  0
    0.5829   23.5946  -34.9058 H   0  0  0  0  0  0  0  0  0  0  0  0
    1.5385   23.0701  -36.3335 H   0  0  0  0  0  0  0  0  0  0  0  0
   -0.2487   22.8898  -36.3335 H   0  0  0  0  0  0  0  0  0  0  0  0
    0.0064   20.8953  -32.6538 H   0  0  0  0  0  0  0  0  0  0  0  0
   -0.9467   22.3315  -33.2680 H   0  0  0  0  0  0  0  0  0  0  0  0
   -2.0043   19.5338  -32.6798 H   0  0  0  0  0  0  0  0  0  0  0  0
   -2.3398   21.0912  -31.7835 H   0  0  0  0  0  0  0  0  0  0  0  0
   -3.1360   21.4790  -34.4600 H   0  0  0  0  0  0  0  0  0  0  0  0
   -3.8296   18.6497  -34.8026 H   0  0  0  0  0  0  0  0  0  0  0  0
   -4.9559   16.4552  -35.1093 H   0  0  0  0  0  0  0  0  0  0  0  0
   -7.1034   15.9762  -33.9527 H   0  0  0  0  0  0  0  0  0  0  0  0
   -8.1981   17.7218  -32.5660 H   0  0  0  0  0  0  0  0  0  0  0  0
   -8.4882   20.0103  -30.4402 H   0  0  0  0  0  0  0  0  0  0  0  0
   -9.2677   20.7942  -31.8560 H   0  0  0  0  0  0  0  0  0  0  0  0
   -8.9813   19.0209  -31.8560 H   0  0  0  0  0  0  0  0  0  0  0  0
   -5.7193   25.8207  -31.7847 H   0  0  0  0  0  0  0  0  0  0  0  0
   -6.2239   25.2676  -30.1303 H   0  0  0  0  0  0  0  0  0  0  0  0
   -3.4910   24.9260  -31.2130 H   0  0  0  0  0  0  0  0  0  0  0  0
   -4.0483   25.2268  -28.3782 H   0  0  0  0  0  0  0  0  0  0  0  0
   -4.6172   23.7024  -29.1480 H   0  0  0  0  0  0  0  0  0  0  0  0
   -1.7991   24.7847  -29.5822 H   0  0  0  0  0  0  0  0  0  0  0  0
   -2.2556   23.6989  -28.1777 H   0  0  0  0  0  0  0  0  0  0  0  0
   -3.2394   21.5995  -28.6000 H   0  0  0  0  0  0  0  0  0  0  0  0
   -4.1732   21.8755  -30.1096 H   0  0  0  0  0  0  0  0  0  0  0  0
   -2.7807   20.7406  -30.1096 H   0  0  0  0  0  0  0  0  0  0  0  0
   -0.4963   22.2231  -29.0579 H   0  0  0  0  0  0  0  0  0  0  0  0
   -0.8045   21.3787  -30.6131 H   0  0  0  0  0  0  0  0  0  0  0  0
   -0.2585   23.0900  -30.6131 H   0  0  0  0  0  0  0  0  0  0  0  0
   -3.9238   23.3428  -32.6083 H   0  0  0  0  0  0  0  0  0  0  0  0
  1  2  1  0
  2  3  1  0
  3  4  1  0
  4  5  1  0
  3  6  1  0
  6  7  1  0
  7  8  1  0
  8  9  1  0
  9 10  2  0
 10 11  1  0
 11 12  2  0
 12 13  1  0
 13 14  2  0
 14 15  1  0
 15 16  2  0
 16 17  1  0
 16 18  1  0
 18 19  1  0
 19 20  1  0
 20 21  1  0
 21 22  1  0
 22 23  1  0
 23 24  1  0
 24 25  1  0
 25 26  1  0
 25 27  1  0
 20 28  2  0
 28 29  1  0
 29  9  1  0
 15 10  1  0
 29 18  2  0
  1 30  1  0
  1 31  1  0
  1 32  1  0
  2 33  1  0
  2 34  1  0
  3 35  1  0
  4 36  1  0
  4 37  1  0
  5 38  1  0
  5 39  1  0
  5 40  1  0
  6 41  1  0
  6 42  1  0
  7 43  1  0
  7 44  1  0
  8 45  1  0
 11 46  1  0
 12 47  1  0
 13 48  1  0
 14 49  1  0
 17 50  1  0
 17 51  1  0
 17 52  1  0
 21 53  1  0
 21 54  1  0
 22 55  1  0
 23 56  1  0
 23 57  1  0
 24 58  1  0
 24 59  1  0
 26 60  1  0
 26 61  1  0
 26 62  1  0
 27 63  1  0
 27 64  1  0
 27 65  1  0
 28 66  1  0
M  CHG  2   3   1  16   1
M  END
>  <UniqueID>  (5) 
5

>  <SMILES>  (5) 
CC[NH+](CC)CCNc1c2ccccc2[n+](C)c2sc(CNCCN(C)C)cc12

>  <Energy>  (5) 
111.67080062473602

>  <Genealogy>  (5) 
CC[NH+](CC)CCNc1c2ccccc2[n+](C)c2sc(CNCCN(C)C)cc12 (protonated)
CC[NH+](CC)CCNc1c2ccccc2[n+](C)c2sc(CNCCN(C)C)cc12 (3D coordinates assigned)
CC[NH+](CC)CCNc1c2ccccc2[n+](C)c2sc(CNCCN(C)C)cc12 (optimized conformer: 111.67080062473602 kcal/mol)

>  <smiles>  (5) 
CCN(CC)CCNc1c2ccccc2[n+](C)c2sc(CNCCN(C)C)cc12

>  <score_type>  (5) 
oracle

>  <origin>  (5) 
adg

>  <m_score__min__energy>  (5) 
-8.9800000000000004

>  <m_primary>  (5) 
energy

$$$$
5:0
     RDKit          3D

 56 57  0  0  0  0  0  0  0  0999 V2000
   -9.1070   18.5180  -31.6830 C   0  0  0  0  0  0  0  0  0  0  0  0
   -8.9380   19.6160  -32.7380 C   0  0  0  0  0  0  0  0  0  0  0  0
   -7.6680   20.3820  -32.5610 N   0  0  0  0  0  0  0  0  0  0  0  0
   -7.8630   21.6500  -31.8100 C   0  0  0  0  0  0  0  0  0  0  0  0
   -9.3410   21.9780  -31.5800 C   0  0  0  0  0  0  0  0  0  0  0  0
   -6.6050   19.5490  -31.9390 C   0  0  0  0  0  0  0  0  0  0  0  0
   -5.1930   19.7970  -32.5050 C   0  0  0  0  0  0  0  0  0  0  0  0
   -5.1580   21.0840  -33.0880 O   0  0  0  0  0  0  0  0  0  0  0  0
   -4.0850   21.8250  -32.5440 C   0  0  0  0  0  0  0  0  0  0  0  0
   -3.7750   21.2770  -31.1420 C   0  0  0  0  0  0  0  0  0  0  0  0
   -3.3510   22.3110  -30.0480 C   0  0  0  0  0  0  0  0  0  0  0  0
   -4.4690   23.3870  -30.0360 C   0  0  0  0  0  0  0  0  0  0  0  0
   -4.2330   24.7200  -30.4530 C   0  0  0  0  0  0  0  0  0  0  0  0
   -5.2660   25.6630  -30.4700 C   0  0  0  0  0  0  0  0  0  0  0  0
   -6.5580   25.2950  -30.1030 C   0  0  0  0  0  0  0  0  0  0  0  0
   -6.8260   23.9790  -29.7340 C   0  0  0  0  0  0  0  0  0  0  0  0
   -5.8000   23.0320  -29.7130 C   0  0  0  0  0  0  0  0  0  0  0  0
   -3.2020   21.6290  -28.6550 C   0  0  0  0  0  0  0  0  0  0  0  0
   -2.8290   22.6120  -27.5220 C   0  0  0  0  0  0  0  0  0  0  0  0
   -2.2690   23.9660  -28.0020 C   0  0  0  0  0  0  0  0  0  0  0  0
   -1.4110   23.8790  -29.2780 C   0  0  0  0  0  0  0  0  0  0  0  0
   -1.9410   22.9010  -30.3580 C   0  0  0  0  0  0  0  0  0  0  0  0
   -9.0388   18.9611  -30.6785 H   0  0  0  0  0  0  0  0  0  0  0  0
  -10.0895   18.0389  -31.8065 H   0  0  0  0  0  0  0  0  0  0  0  0
   -8.3141   17.7657  -31.8065 H   0  0  0  0  0  0  0  0  0  0  0  0
   -8.9346   19.1511  -33.7349 H   0  0  0  0  0  0  0  0  0  0  0  0
   -9.7746   20.3214  -32.6263 H   0  0  0  0  0  0  0  0  0  0  0  0
   -7.2860   20.6390  -33.5040 H   0  0  0  0  0  0  0  0  0  0  0  0
   -7.3660   21.5605  -30.8328 H   0  0  0  0  0  0  0  0  0  0  0  0
   -7.4315   22.4631  -32.4122 H   0  0  0  0  0  0  0  0  0  0  0  0
   -9.5428   22.0228  -30.4996 H   0  0  0  0  0  0  0  0  0  0  0  0
   -9.5763   22.9502  -32.0376 H   0  0  0  0  0  0  0  0  0  0  0  0
   -9.9655   21.1966  -32.0376 H   0  0  0  0  0  0  0  0  0  0  0  0
   -6.5863   19.7632  -30.8602 H   0  0  0  0  0  0  0  0  0  0  0  0
   -6.8545   18.5012  -32.1622 H   0  0  0  0  0  0  0  0  0  0  0  0
   -4.4532   19.7382  -31.6931 H   0  0  0  0  0  0  0  0  0  0  0  0
   -4.9538   19.0359  -33.2623 H   0  0  0  0  0  0  0  0  0  0  0  0
   -3.1987   21.7213  -33.1872 H   0  0  0  0  0  0  0  0  0  0  0  0
   -4.3556   22.8893  -32.4812 H   0  0  0  0  0  0  0  0  0  0  0  0
   -4.6782   20.7640  -30.7801 H   0  0  0  0  0  0  0  0  0  0  0  0
   -2.8948   20.6314  -31.2782 H   0  0  0  0  0  0  0  0  0  0  0  0
   -3.2222   25.0181  -30.7682 H   0  0  0  0  0  0  0  0  0  0  0  0
   -5.0570   26.6992  -30.7744 H   0  0  0  0  0  0  0  0  0  0  0  0
   -7.3653   26.0422  -30.1045 H   0  0  0  0  0  0  0  0  0  0  0  0
   -7.8494   23.6846  -29.4582 H   0  0  0  0  0  0  0  0  0  0  0  0
   -6.0307   21.9915  -29.4405 H   0  0  0  0  0  0  0  0  0  0  0  0
   -4.1581   21.1492  -28.3985 H   0  0  0  0  0  0  0  0  0  0  0  0
   -2.3790   20.9038  -28.7371 H   0  0  0  0  0  0  0  0  0  0  0  0
   -3.7329   22.8069  -26.9261 H   0  0  0  0  0  0  0  0  0  0  0  0
   -2.0257   22.1306  -26.9450 H   0  0  0  0  0  0  0  0  0  0  0  0
   -3.1164   24.6383  -28.2016 H   0  0  0  0  0  0  0  0  0  0  0  0
   -1.6097   24.3359  -27.2030 H   0  0  0  0  0  0  0  0  0  0  0  0
   -1.3587   24.8835  -29.7233 H   0  0  0  0  0  0  0  0  0  0  0  0
   -0.4315   23.4892  -28.9641 H   0  0  0  0  0  0  0  0  0  0  0  0
   -1.9953   23.4403  -31.3152 H   0  0  0  0  0  0  0  0  0  0  0  0
   -1.2420   22.0521  -30.3868 H   0  0  0  0  0  0  0  0  0  0  0  0
  1  2  1  0
  2  3  1  0
  3  4  1  0
  4  5  1  0
  3  6  1  0
  6  7  1  0
  7  8  1  0
  8  9  1  0
  9 10  1  0
 10 11  1  0
 11 12  1  0
 12 13  2  0
 13 14  1  0
 14 15  2  0
 15 16  1  0
 16 17  2  0
 11 18  1  0
 18 19  1  0
 19 20  1  0
 20 21  1  0
 21 22  1  0
 22 11  1  0
 17 12  1  0
  1 23  1  0
  1 24  1  0
  1 25  1  0
  2 26  1  0
  2 27  1  0
  3 28  1  0
  4 29  1  0
  4 30  1  0
  5 31  1  0
  5 32  1  0
  5 33  1  0
  6 34  1  0
  6 35  1  0
  7 36  1  0
  7 37  1  0
  9 38  1  0
  9 39  1  0
 10 40  1  0
 10 41  1  0
 13 42  1  0
 14 43  1  0
 15 44  1  0
 16 45  1  0
 17 46  1  0
 18 47  1  0
 18 48  1  0
 19 49  1  0
 19 50  1  0
 20 51  1  0
 20 52  1  0
 21 53  1  0
 21 54  1  0
 22 55  1  0
 22 56  1  0
M  CHG  1   3   1
M  END
>  <UniqueID>  (6) 
6

>  <SMILES>  (6) 
CC[NH+](CC)CCOCCC1(c2ccccc2)CCCCC1

>  <Energy>  (6) 
72.13089295494387

>  <Genealogy>  (6) 
CC[NH+](CC)CCOCCC1(c2ccccc2)CCCCC1 (protonated)
CC[NH+](CC)CCOCCC1(c2ccccc2)CCCCC1 (3D coordinates assigned)
CC[NH+](CC)CCOCCC1(c2ccccc2)CCCCC1 (nonaromatic ring conformer: 72.13089295494387 kcal/mol)

>  <smiles>  (6) 
CCN(CC)CCOCCC1(c2ccccc2)CCCCC1

>  <score_type>  (6) 
oracle

>  <origin>  (6) 
adg

>  <m_score__min__energy>  (6) 
-6.46

>  <m_primary>  (6) 
energy

$$$$
6:0
     RDKit          3D

 58 60  0  0  0  0  0  0  0  0999 V2000
   -5.9810   25.3580  -29.6620 C   0  0  0  0  0  0  0  0  0  0  0  0
   -5.0020   25.3770  -30.8300 C   0  0  0  0  0  0  0  0  0  0  0  0
   -4.1270   24.2020  -30.7710 N   0  0  0  0  0  0  0  0  0  0  0  0
   -4.1680   23.5280  -29.4570 C   0  0  0  0  0  0  0  0  0  0  0  0
   -2.7730   23.3510  -28.8200 C   0  0  0  0  0  0  0  0  0  0  0  0
   -1.7740   22.6190  -29.7280 C   0  0  0  0  0  0  0  0  0  0  0  0
   -2.3000   22.5030  -31.0960 N   0  0  0  0  0  0  0  0  0  0  0  0
   -1.5070   21.5700  -31.9120 C   0  0  0  0  0  0  0  0  0  0  0  0
   -2.0210   21.4780  -33.3580 C   0  0  0  0  0  0  0  0  0  0  0  0
   -3.5330   21.2170  -33.4720 C   0  0  0  0  0  0  0  0  0  0  0  0
   -4.2160   21.2900  -32.1700 N   0  0  0  0  0  0  0  0  0  0  0  0
   -5.5070   20.6190  -32.2520 C   0  0  0  0  0  0  0  0  0  0  0  0
   -6.7130   21.3430  -32.0520 C   0  0  0  0  0  0  0  0  0  0  0  0
   -6.7100   22.7110  -31.6800 C   0  0  0  0  0  0  0  0  0  0  0  0
   -7.8950   23.4270  -31.5570 C   0  0  0  0  0  0  0  0  0  0  0  0
   -9.1110   22.8100  -31.8120 C   0  0  0  0  0  0  0  0  0  0  0  0
   -9.1500   21.4610  -32.1430 C   0  0  0  0  0  0  0  0  0  0  0  0
   -7.9640   20.6830  -32.2130 C   0  0  0  0  0  0  0  0  0  0  0  0
   -8.0140   19.3210  -32.4300 N   0  0  0  0  0  0  0  0  0  0  0  0
   -9.2980   18.5960  -32.2890 C   0  0  0  0  0  0  0  0  0  0  0  0
   -6.8580   18.6200  -32.7150 C   0  0  0  0  0  0  0  0  0  0  0  0
   -6.9060   17.2760  -33.1710 C   0  0  0  0  0  0  0  0  0  0  0  0
   -5.7430   16.5280  -33.3430 C   0  0  0  0  0  0  0  0  0  0  0  0
   -5.8420   14.8560  -33.8740 Cl  0  0  0  0  0  0  0  0  0  0  0  0
   -4.5080   17.0980  -33.0740 C   0  0  0  0  0  0  0  0  0  0  0  0
   -4.4220   18.4310  -32.6810 C   0  0  0  0  0  0  0  0  0  0  0  0
   -5.5850   19.2330  -32.5510 C   0  0  0  0  0  0  0  0  0  0  0  0
   -5.4219   25.3689  -28.7147 H   0  0  0  0  0  0  0  0  0  0  0  0
   -6.6313   26.2437  -29.7141 H   0  0  0  0  0  0  0  0  0  0  0  0
   -6.5964   24.4477  -29.7141 H   0  0  0  0  0  0  0  0  0  0  0  0
   -5.5634   25.3658  -31.7759 H   0  0  0  0  0  0  0  0  0  0  0  0
   -4.3877   26.2876  -30.7711 H   0  0  0  0  0  0  0  0  0  0  0  0
   -3.1520   24.4940  -31.0200 H   0  0  0  0  0  0  0  0  0  0  0  0
   -4.7897   24.1276  -28.7759 H   0  0  0  0  0  0  0  0  0  0  0  0
   -4.5834   22.5223  -29.6185 H   0  0  0  0  0  0  0  0  0  0  0  0
   -2.3674   24.3467  -28.5875 H   0  0  0  0  0  0  0  0  0  0  0  0
   -2.9044   22.7336  -27.9192 H   0  0  0  0  0  0  0  0  0  0  0  0
   -0.8289   23.1813  -29.7515 H   0  0  0  0  0  0  0  0  0  0  0  0
   -1.6082   21.6082  -29.3271 H   0  0  0  0  0  0  0  0  0  0  0  0
   -2.2250   23.4450  -31.5500 H   0  0  0  0  0  0  0  0  0  0  0  0
   -0.4625   21.9147  -31.9291 H   0  0  0  0  0  0  0  0  0  0  0  0
   -1.5928   20.5708  -31.4600 H   0  0  0  0  0  0  0  0  0  0  0  0
   -1.7951   22.4272  -33.8659 H   0  0  0  0  0  0  0  0  0  0  0  0
   -1.5149   20.6177  -33.8203 H   0  0  0  0  0  0  0  0  0  0  0  0
   -3.9716   21.9699  -34.1434 H   0  0  0  0  0  0  0  0  0  0  0  0
   -3.6683   20.1983  -33.8645 H   0  0  0  0  0  0  0  0  0  0  0  0
   -4.3150   22.2800  -31.8580 H   0  0  0  0  0  0  0  0  0  0  0  0
   -3.6320   20.8670  -31.4180 H   0  0  0  0  0  0  0  0  0  0  0  0
   -5.7520   23.2152  -31.4851 H   0  0  0  0  0  0  0  0  0  0  0  0
   -7.8685   24.4849  -31.2569 H   0  0  0  0  0  0  0  0  0  0  0  0
  -10.0445   23.3887  -31.7522 H   0  0  0  0  0  0  0  0  0  0  0  0
  -10.1192   20.9861  -32.3551 H   0  0  0  0  0  0  0  0  0  0  0  0
   -9.5299   18.4651  -31.2217 H   0  0  0  0  0  0  0  0  0  0  0  0
  -10.1004   19.1744  -32.7703 H   0  0  0  0  0  0  0  0  0  0  0  0
   -9.2172   17.6102  -32.7703 H   0  0  0  0  0  0  0  0  0  0  0  0
   -7.8804   16.8164  -33.3928 H   0  0  0  0  0  0  0  0  0  0  0  0
   -3.5931   16.4951  -33.1714 H   0  0  0  0  0  0  0  0  0  0  0  0
   -3.4360   18.8695  -32.4678 H   0  0  0  0  0  0  0  0  0  0  0  0
  1  2  1  0
  2  3  1  0
  3  4  1  0
  4  5  1  0
  5  6  1  0
  6  7  1  0
  7  8  1  0
  8  9  1  0
  9 10  1  0
 10 11  1  0
 11 12  1  0
 12 13  2  0
 13 14  1  0
 14 15  2  0
 15 16  1  0
 16 17  2  0
 17 18  1  0
 18 19  2  0
 19 20  1  0
 19 21  1  0
 21 22  2  0
 22 23  1  0
 23 24  1  0
 23 25  2  0
 25 26  1  0
 26 27  2  0
 27 12  1  0
 18 13  1  0
 27 21  1  0
  1 28  1  0
  1 29  1  0
  1 30  1  0
  2 31  1  0
  2 32  1  0
  3 33  1  0
  4 34  1  0
  4 35  1  0
  5 36  1  0
  5 37  1  0
  6 38  1  0
  6 39  1  0
  7 40  1  0
  8 41  1  0
  8 42  1  0
  9 43  1  0
  9 44  1  0
 10 45  1  0
 10 46  1  0
 11 47  1  0
 11 48  1  0
 14 49  1  0
 15 50  1  0
 16 51  1  0
 17 52  1  0
 20 53  1  0
 20 54  1  0
 20 55  1  0
 22 56  1  0
 25 57  1  0
 26 58  1  0
M  CHG  2  11   1  19   1
M  END
>  <UniqueID>  (7) 
7

>  <SMILES>  (7) 
CCNCCCNCCC[NH2+]c1c2ccccc2[n+](C)c2cc(Cl)ccc12

>  <Energy>  (7) 
78.58618669723367

>  <Genealogy>  (7) 
CCNCCCNCCC[NH2+]c1c2ccccc2[n+](C)c2cc(Cl)ccc12 (protonated)
CCNCCCNCCC[NH2+]c1c2ccccc2[n+](C)c2cc(Cl)ccc12 (3D coordinates assigned)
CCNCCCNCCC[NH2+]c1c2ccccc2[n+](C)c2cc(Cl)ccc12 (optimized conformer: 78.58618669723367 kcal/mol)

>  <smiles>  (7) 
CCNCCCNCCCNc1c2ccccc2[n+](C)c2cc(Cl)ccc12

>  <score_type>  (7) 
oracle

>  <origin>  (7) 
adg

>  <m_score__min__energy>  (7) 
-8.6799999999999997

>  <m_primary>  (7) 
energy

$$$$
7:0
     RDKit          3D

 54 56  0  0  0  0  0  0  0  0999 V2000
   -1.2250   26.1450  -27.8190 C   0  0  0  0  0  0  0  0  0  0  0  0
   -1.8880   25.6210  -28.9660 O   0  0  0  0  0  0  0  0  0  0  0  0
   -1.9000   24.2640  -29.3280 C   0  0  0  0  0  0  0  0  0  0  0  0
   -0.8610   23.3830  -28.9680 C   0  0  0  0  0  0  0  0  0  0  0  0
   -0.9140   22.0400  -29.3450 C   0  0  0  0  0  0  0  0  0  0  0  0
   -1.9970   21.5630  -30.0850 C   0  0  0  0  0  0  0  0  0  0  0  0
   -3.0320   22.4270  -30.4480 C   0  0  0  0  0  0  0  0  0  0  0  0
   -2.9900   23.7830  -30.0720 C   0  0  0  0  0  0  0  0  0  0  0  0
   -4.0080   24.6840  -30.4120 O   0  0  0  0  0  0  0  0  0  0  0  0
   -5.3930   24.3540  -30.5020 C   0  0  0  0  0  0  0  0  0  0  0  0
   -5.8460   24.4500  -31.9600 C   0  0  0  0  0  0  0  0  0  0  0  0
   -6.7470   23.3330  -32.3190 N   0  0  0  0  0  0  0  0  0  0  0  0
   -8.0330   23.4060  -31.5940 C   0  0  0  0  0  0  0  0  0  0  0  0
   -8.8780   22.1710  -31.9060 C   0  0  0  0  0  0  0  0  0  0  0  0
   -8.2190   20.9290  -31.4530 N   0  0  0  0  0  0  0  0  0  0  0  0
   -8.6470   19.7250  -32.2000 C   0  0  0  0  0  0  0  0  0  0  0  0
   -7.4980   18.8630  -32.6560 C   0  0  0  0  0  0  0  0  0  0  0  0
   -6.9430   17.8020  -31.9670 C   0  0  0  0  0  0  0  0  0  0  0  0
   -5.9640   17.2780  -32.7300 N   0  0  0  0  0  0  0  0  0  0  0  0
   -5.0880   16.1670  -32.3710 C   0  0  0  0  0  0  0  0  0  0  0  0
   -5.9160   18.0410  -33.8430 C   0  0  0  0  0  0  0  0  0  0  0  0
   -4.9750   17.8160  -34.9850 C   0  0  0  0  0  0  0  0  0  0  0  0
   -6.8510   19.0130  -33.8280 N   0  0  0  0  0  0  0  0  0  0  0  0
   -6.7580   21.0340  -31.2350 C   0  0  0  0  0  0  0  0  0  0  0  0
   -6.0750   22.0100  -32.2130 C   0  0  0  0  0  0  0  0  0  0  0  0
   -1.7094   25.7621  -26.9086 H   0  0  0  0  0  0  0  0  0  0  0  0
   -0.1699   25.8341  -27.8314 H   0  0  0  0  0  0  0  0  0  0  0  0
   -1.2837   27.2434  -27.8314 H   0  0  0  0  0  0  0  0  0  0  0  0
   -0.0042   23.7552  -28.3872 H   0  0  0  0  0  0  0  0  0  0  0  0
   -0.1010   21.3566  -29.0584 H   0  0  0  0  0  0  0  0  0  0  0  0
   -2.0352   20.5047  -30.3827 H   0  0  0  0  0  0  0  0  0  0  0  0
   -3.8841   22.0464  -31.0304 H   0  0  0  0  0  0  0  0  0  0  0  0
   -5.5503   23.3287  -30.1359 H   0  0  0  0  0  0  0  0  0  0  0  0
   -5.9779   25.0557  -29.8892 H   0  0  0  0  0  0  0  0  0  0  0  0
   -6.3785   25.4011  -32.1076 H   0  0  0  0  0  0  0  0  0  0  0  0
   -4.9556   24.3977  -32.6037 H   0  0  0  0  0  0  0  0  0  0  0  0
   -7.8395   23.4515  -30.5121 H   0  0  0  0  0  0  0  0  0  0  0  0
   -8.5775   24.3069  -31.9130 H   0  0  0  0  0  0  0  0  0  0  0  0
   -9.8487   22.2655  -31.3972 H   0  0  0  0  0  0  0  0  0  0  0  0
   -9.0085   22.1116  -32.9966 H   0  0  0  0  0  0  0  0  0  0  0  0
   -9.2970   19.1230  -31.5480 H   0  0  0  0  0  0  0  0  0  0  0  0
   -9.1703   20.0724  -33.1030 H   0  0  0  0  0  0  0  0  0  0  0  0
   -7.2468   17.4475  -30.9710 H   0  0  0  0  0  0  0  0  0  0  0  0
   -5.0259   16.0882  -31.2756 H   0  0  0  0  0  0  0  0  0  0  0  0
   -5.4943   15.2317  -32.7834 H   0  0  0  0  0  0  0  0  0  0  0  0
   -4.0837   16.3439  -32.7834 H   0  0  0  0  0  0  0  0  0  0  0  0
   -3.9749   17.5769  -34.5944 H   0  0  0  0  0  0  0  0  0  0  0  0
   -5.3381   16.9794  -35.6000 H   0  0  0  0  0  0  0  0  0  0  0  0
   -4.9204   18.7264  -35.6000 H   0  0  0  0  0  0  0  0  0  0  0  0
   -7.0320   19.7270  -34.5680 H   0  0  0  0  0  0  0  0  0  0  0  0
   -6.5806   21.3848  -30.2077 H   0  0  0  0  0  0  0  0  0  0  0  0
   -6.3258   20.0372  -31.4072 H   0  0  0  0  0  0  0  0  0  0  0  0
   -5.0418   22.1736  -31.8727 H   0  0  0  0  0  0  0  0  0  0  0  0
   -6.1257   21.5476  -33.2098 H   0  0  0  0  0  0  0  0  0  0  0  0
  1  2  1  0
  2  3  1  0
  3  4  2  0
  4  5  1  0
  5  6  2  0
  6  7  1  0
  7  8  2  0
  8  9  1  0
  9 10  1  0
 10 11  1  0
 11 12  1  0
 12 13  1  0
 13 14  1  0
 14 15  1  0
 15 16  1  0
 16 17  1  0
 17 18  2  0
 18 19  1  0
 19 20  1  0
 19 21  1  0
 21 22  1  0
 21 23  2  0
 15 24  1  0
 24 25  1  0
  8  3  1  0
 25 12  1  0
 23 17  1  0
  1 26  1  0
  1 27  1  0
  1 28  1  0
  4 29  1  0
  5 30  1  0
  6 31  1  0
  7 32  1  0
 10 33  1  0
 10 34  1  0
 11 35  1  0
 11 36  1  0
 13 37  1  0
 13 38  1  0
 14 39  1  0
 14 40  1  0
 16 41  1  0
 16 42  1  0
 18 43  1  0
 20 44  1  0
 20 45  1  0
 20 46  1  0
 22 47  1  0
 22 48  1  0
 22 49  1  0
 23 50  1  0
 24 51  1  0
 24 52  1  0
 25 53  1  0
 25 54  1  0
M  CHG  1  23   1
M  END
>  <UniqueID>  (8) 
8

>  <SMILES>  (8) 
COc1ccccc1OCCN1CCN(Cc2cn(C)c(C)[nH+]2)CC1

>  <Energy>  (8) 
95.02223372248585

>  <Genealogy>  (8) 
COc1ccccc1OCCN1CCN(Cc2cn(C)c(C)[nH+]2)CC1 (protonated)
COc1ccccc1OCCN1CCN(Cc2cn(C)c(C)[nH+]2)CC1 (3D coordinates assigned)
COc1ccccc1OCCN1CCN(Cc2cn(C)c(C)[nH+]2)CC1 (nonaromatic ring conformer: 95.02223372248585 kcal/mol)

>  <smiles>  (8) 
COc1ccccc1OCCN1CCN(Cc2cn(C)c(C)n2)CC1

>  <score_type>  (8) 
oracle

>  <origin>  (8) 
adg

>  <m_score__min__energy>  (8) 
-9.0800000000000001

>  <m_primary>  (8) 
energy

$$$$
8:0
     RDKit          3D

 78 81  0  0  0  0  0  0  0  0999 V2000
   -0.1240   22.4650  -26.8750 C   0  0  0  0  0  0  0  0  0  0  0  0
    0.8540   23.4450  -27.5380 C   0  0  0  0  0  0  0  0  0  0  0  0
    0.1940   24.5330  -28.2910 N   0  0  0  0  0  0  0  0  0  0  0  0
   -0.0500   25.7280  -27.4660 C   0  0  0  0  0  0  0  0  0  0  0  0
   -1.0180   24.0960  -29.0180 C   0  0  0  0  0  0  0  0  0  0  0  0
   -2.2220   24.9270  -28.5700 C   0  0  0  0  0  0  0  0  0  0  0  0
   -3.0480   25.2310  -29.6940 O   0  0  0  0  0  0  0  0  0  0  0  0
   -4.0760   24.3910  -30.1370 C   0  0  0  0  0  0  0  0  0  0  0  0
   -5.3970   24.5760  -29.7270 C   0  0  0  0  0  0  0  0  0  0  0  0
   -6.4020   23.7290  -30.1970 C   0  0  0  0  0  0  0  0  0  0  0  0
   -6.1110   22.6630  -31.0860 C   0  0  0  0  0  0  0  0  0  0  0  0
   -4.7620   22.4620  -31.4680 C   0  0  0  0  0  0  0  0  0  0  0  0
   -3.7660   23.3450  -30.9990 C   0  0  0  0  0  0  0  0  0  0  0  0
   -4.4230   21.3670  -32.2870 C   0  0  0  0  0  0  0  0  0  0  0  0
   -3.0590   21.2070  -32.7250 N   0  0  0  0  0  0  0  0  0  0  0  0
   -2.0120   20.7750  -31.8380 C   0  0  0  0  0  0  0  0  0  0  0  0
   -2.2830   20.6910  -30.4640 C   0  0  0  0  0  0  0  0  0  0  0  0
   -1.2720   20.3580  -29.5600 C   0  0  0  0  0  0  0  0  0  0  0  0
    0.0190   20.1060  -30.0210 C   0  0  0  0  0  0  0  0  0  0  0  0
    0.2970   20.1550  -31.3880 C   0  0  0  0  0  0  0  0  0  0  0  0
   -0.7220   20.4490  -32.3170 C   0  0  0  0  0  0  0  0  0  0  0  0
   -0.5000   20.4070  -33.7040 O   0  0  0  0  0  0  0  0  0  0  0  0
   -0.5040   21.5270  -34.5930 C   0  0  0  0  0  0  0  0  0  0  0  0
    0.7970   21.6100  -35.3980 C   0  0  0  0  0  0  0  0  0  0  0  0
    1.3810   22.9720  -35.2970 N   0  0  0  0  0  0  0  0  0  0  0  0
    0.6410   23.9800  -36.0980 C   0  0  0  0  0  0  0  0  0  0  0  0
    1.2080   25.3670  -35.8160 C   0  0  0  0  0  0  0  0  0  0  0  0
    2.8270   22.9450  -35.6220 C   0  0  0  0  0  0  0  0  0  0  0  0
    3.3980   21.5230  -35.5940 C   0  0  0  0  0  0  0  0  0  0  0  0
   -5.3780   20.4540  -32.6670 N   0  0  0  0  0  0  0  0  0  0  0  0
   -4.9570   19.2470  -33.4070 C   0  0  0  0  0  0  0  0  0  0  0  0
   -6.7150   20.6920  -32.4170 C   0  0  0  0  0  0  0  0  0  0  0  0
   -7.7240   19.8620  -32.9720 C   0  0  0  0  0  0  0  0  0  0  0  0
   -9.0740   20.0980  -32.7200 C   0  0  0  0  0  0  0  0  0  0  0  0
   -9.4570   21.1670  -31.9240 C   0  0  0  0  0  0  0  0  0  0  0  0
   -8.4950   22.0150  -31.3810 C   0  0  0  0  0  0  0  0  0  0  0  0
   -7.1110   21.8000  -31.6110 C   0  0  0  0  0  0  0  0  0  0  0  0
   -0.0412   22.5480  -25.7813 H   0  0  0  0  0  0  0  0  0  0  0  0
   -1.1515   22.7068  -27.1843 H   0  0  0  0  0  0  0  0  0  0  0  0
    0.1199   21.4380  -27.1843 H   0  0  0  0  0  0  0  0  0  0  0  0
    1.4778   23.8964  -26.7524 H   0  0  0  0  0  0  0  0  0  0  0  0
    1.4430   22.8658  -28.2643 H   0  0  0  0  0  0  0  0  0  0  0  0
    0.0055   25.4563  -26.4015 H   0  0  0  0  0  0  0  0  0  0  0  0
    0.7111   26.4899  -27.6901 H   0  0  0  0  0  0  0  0  0  0  0  0
   -1.0489   26.1306  -27.6901 H   0  0  0  0  0  0  0  0  0  0  0  0
   -0.8636   24.2309  -30.0987 H   0  0  0  0  0  0  0  0  0  0  0  0
   -1.2087   23.0350  -28.7992 H   0  0  0  0  0  0  0  0  0  0  0  0
   -2.8052   24.3559  -27.8326 H   0  0  0  0  0  0  0  0  0  0  0  0
   -1.8667   25.8646  -28.1176 H   0  0  0  0  0  0  0  0  0  0  0  0
   -5.6468   25.3911  -29.0319 H   0  0  0  0  0  0  0  0  0  0  0  0
   -7.4401   23.8915  -29.8715 H   0  0  0  0  0  0  0  0  0  0  0  0
   -2.7240   23.2029  -31.3217 H   0  0  0  0  0  0  0  0  0  0  0  0
   -2.8970   21.1660  -33.7580 H   0  0  0  0  0  0  0  0  0  0  0  0
   -3.3004   20.8891  -30.0957 H   0  0  0  0  0  0  0  0  0  0  0  0
   -1.4944   20.2946  -28.4846 H   0  0  0  0  0  0  0  0  0  0  0  0
    0.8204   19.8680  -29.3061 H   0  0  0  0  0  0  0  0  0  0  0  0
    1.3200   19.9626  -31.7436 H   0  0  0  0  0  0  0  0  0  0  0  0
   -1.3495   21.4274  -35.2896 H   0  0  0  0  0  0  0  0  0  0  0  0
   -0.5972   22.4438  -33.9924 H   0  0  0  0  0  0  0  0  0  0  0  0
    1.5156   20.8770  -35.0025 H   0  0  0  0  0  0  0  0  0  0  0  0
    0.5784   21.3923  -36.4539 H   0  0  0  0  0  0  0  0  0  0  0  0
    0.7495   23.7498  -37.1682 H   0  0  0  0  0  0  0  0  0  0  0  0
   -0.4243   23.9562  -35.8247 H   0  0  0  0  0  0  0  0  0  0  0  0
    1.2718   25.5230  -34.7290 H   0  0  0  0  0  0  0  0  0  0  0  0
    2.2120   25.4495  -36.2578 H   0  0  0  0  0  0  0  0  0  0  0  0
    0.5493   26.1292  -36.2578 H   0  0  0  0  0  0  0  0  0  0  0  0
    2.9723   23.3658  -36.6279 H   0  0  0  0  0  0  0  0  0  0  0  0
    3.3562   23.5375  -34.8611 H   0  0  0  0  0  0  0  0  0  0  0  0
    3.5275   21.2004  -34.5504 H   0  0  0  0  0  0  0  0  0  0  0  0
    2.7047   20.8393  -36.1058 H   0  0  0  0  0  0  0  0  0  0  0  0
    4.3716   21.5087  -36.1058 H   0  0  0  0  0  0  0  0  0  0  0  0
   -4.6814   18.4568  -32.6931 H   0  0  0  0  0  0  0  0  0  0  0  0
   -5.7861   18.8969  -34.0395 H   0  0  0  0  0  0  0  0  0  0  0  0
   -4.0900   19.4885  -34.0395 H   0  0  0  0  0  0  0  0  0  0  0  0
   -7.4347   19.0164  -33.6133 H   0  0  0  0  0  0  0  0  0  0  0  0
   -9.8374   19.4351  -33.1533 H   0  0  0  0  0  0  0  0  0  0  0  0
  -10.5233   21.3456  -31.7210 H   0  0  0  0  0  0  0  0  0  0  0  0
   -8.8136   22.8671  -30.7625 H   0  0  0  0  0  0  0  0  0  0  0  0
  1  2  1  0
  2  3  1  0
  3  4  1  0
  3  5  1  0
  5  6  1  0
  6  7  1  0
  7  8  1  0
  8  9  2  0
  9 10  1  0
 10 11  2  0
 11 12  1  0
 12 13  2  0
 12 14  1  0
 14 15  1  0
 15 16  1  0
 16 17  2  0
 17 18  1  0
 18 19  2  0
 19 20  1  0
 20 21  2  0
 21 22  1  0
 22 23  1  0
 23 24  1  0
 24 25  1  0
 25 26  1  0
 26 27  1  0
 25 28  1  0
 28 29  1  0
 14 30  2  0
 30 31  1  0
 30 32  1  0
 32 33  2  0
 33 34  1  0
 34 35  2  0
 35 36  1  0
 36 37  2  0
 13  8  1  0
 21 16  1  0
 37 32  1  0
 37 11  1  0
  1 38  1  0
  1 39  1  0
  1 40  1  0
  2 41  1  0
  2 42  1  0
  4 43  1  0
  4 44  1  0
  4 45  1  0
  5 46  1  0
  5 47  1  0
  6 48  1  0
  6 49  1  0
  9 50  1  0
 10 51  1  0
 13 52  1  0
 15 53  1  0
 17 54  1  0
 18 55  1  0
 19 56  1  0
 20 57  1  0
 23 58  1  0
 23 59  1  0
 24 60  1  0
 24 61  1  0
 26 62  1  0
 26 63  1  0
 27 64  1  0
 27 65  1  0
 27 66  1  0
 28 67  1  0
 28 68  1  0
 29 69  1  0
 29 70  1  0
 29 71  1  0
 31 72  1  0
 31 73  1  0
 31 74  1  0
 33 75  1  0
 34 76  1  0
 35 77  1  0
 36 78  1  0
M  CHG  1  30   1
M  END
>  <UniqueID>  (9) 
9

>  <SMILES>  (9) 
CCN(C)CCOc1ccc2c(c1)c(Nc1ccccc1OCCN(CC)CC)[n+](C)c1ccccc21

>  <Energy>  (9) 
111.65202158007357

>  <Genealogy>  (9) 
CCN(C)CCOc1ccc2c(c1)c(Nc1ccccc1OCCN(CC)CC)[n+](C)c1ccccc21 (3D coordinates assigned)
CCN(C)CCOc1ccc2c(c1)c(Nc1ccccc1OCCN(CC)CC)[n+](C)c1ccccc21 (optimized conformer: 111.65202158007357 kcal/mol)

>  <smiles>  (9) 
CCN(C)CCOc1ccc2c(c1)c(Nc1ccccc1OCCN(CC)CC)[n+](C)c1ccccc21

>  <score_type>  (9) 
oracle

>  <origin>  (9) 
adg

>  <m_score__min__energy>  (9) 
-10.02

>  <m_primary>  (9) 
energy

$$$$
9:0
     RDKit          3D

 63 65  0  0  0  0  0  0  0  0999 V2000
   -0.0960   23.8440  -28.2590 C   0  0  0  0  0  0  0  0  0  0  0  0
   -1.1700   23.8640  -29.3480 C   0  0  0  0  0  0  0  0  0  0  0  0
   -2.5300   23.6260  -28.8020 N   0  0  0  0  0  0  0  0  0  0  0  0
   -2.7560   24.5210  -27.6420 C   0  0  0  0  0  0  0  0  0  0  0  0
   -4.1780   24.3830  -27.1010 C   0  0  0  0  0  0  0  0  0  0  0  0
   -2.7360   22.1990  -28.4310 C   0  0  0  0  0  0  0  0  0  0  0  0
   -3.4640   21.4390  -29.5540 C   0  0  0  0  0  0  0  0  0  0  0  0
   -3.8340   22.3300  -30.6720 N   0  0  0  0  0  0  0  0  0  0  0  0
   -4.0970   21.5590  -31.8800 C   0  0  0  0  0  0  0  0  0  0  0  0
   -3.0290   21.0100  -32.6270 C   0  0  0  0  0  0  0  0  0  0  0  0
   -1.7320   21.5710  -32.5850 C   0  0  0  0  0  0  0  0  0  0  0  0
   -0.6980   21.0330  -33.3470 C   0  0  0  0  0  0  0  0  0  0  0  0
   -0.9350   19.9400  -34.1720 C   0  0  0  0  0  0  0  0  0  0  0  0
   -2.2020   19.3610  -34.2200 C   0  0  0  0  0  0  0  0  0  0  0  0
   -3.2650   19.8630  -33.4290 C   0  0  0  0  0  0  0  0  0  0  0  0
   -4.5040   19.2570  -33.4090 N   0  0  0  0  0  0  0  0  0  0  0  0
   -4.6600   17.8720  -33.9050 C   0  0  0  0  0  0  0  0  0  0  0  0
   -5.6000   19.9570  -32.9390 C   0  0  0  0  0  0  0  0  0  0  0  0
   -6.9190   19.4910  -33.1510 C   0  0  0  0  0  0  0  0  0  0  0  0
   -8.0160   20.2170  -32.7060 C   0  0  0  0  0  0  0  0  0  0  0  0
   -7.8400   21.4700  -32.1350 C   0  0  0  0  0  0  0  0  0  0  0  0
   -6.5530   22.0050  -31.9620 C   0  0  0  0  0  0  0  0  0  0  0  0
   -6.4070   23.4200  -31.7110 N   0  0  0  0  0  0  0  0  0  0  0  0
   -7.2520   24.1580  -30.7660 C   0  0  0  0  0  0  0  0  0  0  0  0
   -6.4140   24.9770  -29.7730 C   0  0  0  0  0  0  0  0  0  0  0  0
   -5.3220   25.7970  -30.4730 C   0  0  0  0  0  0  0  0  0  0  0  0
   -4.2190   24.9260  -30.8710 N   0  0  0  0  0  0  0  0  0  0  0  0
   -5.4180   21.1870  -32.2450 C   0  0  0  0  0  0  0  0  0  0  0  0
   -0.5768   23.8530  -27.2697 H   0  0  0  0  0  0  0  0  0  0  0  0
    0.5138   22.9343  -28.3621 H   0  0  0  0  0  0  0  0  0  0  0  0
    0.5473   24.7303  -28.3621 H   0  0  0  0  0  0  0  0  0  0  0  0
   -1.1542   24.8464  -29.8425 H   0  0  0  0  0  0  0  0  0  0  0  0
   -0.9454   23.0538  -30.0573 H   0  0  0  0  0  0  0  0  0  0  0  0
   -2.0432   24.2616  -26.8454 H   0  0  0  0  0  0  0  0  0  0  0  0
   -2.6104   25.5600  -27.9725 H   0  0  0  0  0  0  0  0  0  0  0  0
   -4.1537   24.3854  -26.0013 H   0  0  0  0  0  0  0  0  0  0  0  0
   -4.7888   25.2261  -27.4561 H   0  0  0  0  0  0  0  0  0  0  0  0
   -4.6153   23.4382  -27.4561 H   0  0  0  0  0  0  0  0  0  0  0  0
   -1.7578   21.7283  -28.2531 H   0  0  0  0  0  0  0  0  0  0  0  0
   -3.3533   22.1580  -27.5215 H   0  0  0  0  0  0  0  0  0  0  0  0
   -2.8021   20.6471  -29.9345 H   0  0  0  0  0  0  0  0  0  0  0  0
   -4.3888   21.0157  -29.1351 H   0  0  0  0  0  0  0  0  0  0  0  0
   -3.0890   23.0370  -30.8580 H   0  0  0  0  0  0  0  0  0  0  0  0
   -4.6800   22.8430  -30.3470 H   0  0  0  0  0  0  0  0  0  0  0  0
   -1.5373   22.4427  -31.9429 H   0  0  0  0  0  0  0  0  0  0  0  0
    0.3084   21.4740  -33.2958 H   0  0  0  0  0  0  0  0  0  0  0  0
   -0.1209   19.5309  -34.7884 H   0  0  0  0  0  0  0  0  0  0  0  0
   -2.3794   18.5009  -34.8823 H   0  0  0  0  0  0  0  0  0  0  0  0
   -4.7376   17.1832  -33.0509 H   0  0  0  0  0  0  0  0  0  0  0  0
   -5.5717   17.8020  -34.5165 H   0  0  0  0  0  0  0  0  0  0  0  0
   -3.7867   17.6010  -34.5165 H   0  0  0  0  0  0  0  0  0  0  0  0
   -7.0781   18.5381  -33.6769 H   0  0  0  0  0  0  0  0  0  0  0  0
   -9.0280   19.7977  -32.8063 H   0  0  0  0  0  0  0  0  0  0  0  0
   -8.7180   22.0501  -31.8146 H   0  0  0  0  0  0  0  0  0  0  0  0
   -5.6560   23.9370  -32.2230 H   0  0  0  0  0  0  0  0  0  0  0  0
   -7.9045   24.8410  -31.3297 H   0  0  0  0  0  0  0  0  0  0  0  0
   -7.8443   23.4284  -30.1942 H   0  0  0  0  0  0  0  0  0  0  0  0
   -7.0797   25.6642  -29.2303 H   0  0  0  0  0  0  0  0  0  0  0  0
   -5.9198   24.2728  -29.0875 H   0  0  0  0  0  0  0  0  0  0  0  0
   -5.7454   26.2795  -31.3663 H   0  0  0  0  0  0  0  0  0  0  0  0
   -4.9446   26.5619  -29.7784 H   0  0  0  0  0  0  0  0  0  0  0  0
   -3.6080   24.7840  -30.0340 H   0  0  0  0  0  0  0  0  0  0  0  0
   -3.6400   25.4370  -31.5780 H   0  0  0  0  0  0  0  0  0  0  0  0
  1  2  1  0
  2  3  1  0
  3  4  1  0
  4  5  1  0
  3  6  1  0
  6  7  1  0
  7  8  1  0
  8  9  1  0
  9 10  2  0
 10 11  1  0
 11 12  2  0
 12 13  1  0
 13 14  2  0
 14 15  1  0
 15 16  2  0
 16 17  1  0
 16 18  1  0
 18 19  2  0
 19 20  1  0
 20 21  2  0
 21 22  1  0
 22 23  1  0
 23 24  1  0
 24 25  1  0
 25 26  1  0
 26 27  1  0
 22 28  2  0
 28  9  1  0
 15 10  1  0
 28 18  1  0
  1 29  1  0
  1 30  1  0
  1 31  1  0
  2 32  1  0
  2 33  1  0
  4 34  1  0
  4 35  1  0
  5 36  1  0
  5 37  1  0
  5 38  1  0
  6 39  1  0
  6 40  1  0
  7 41  1  0
  7 42  1  0
  8 43  1  0
  8 44  1  0
 11 45  1  0
 12 46  1  0
 13 47  1  0
 14 48  1  0
 17 49  1  0
 17 50  1  0
 17 51  1  0
 19 52  1  0
 20 53  1  0
 21 54  1  0
 23 55  1  0
 24 56  1  0
 24 57  1  0
 25 58  1  0
 25 59  1  0
 26 60  1  0
 26 61  1  0
 27 62  1  0
 27 63  1  0
M  CHG  2   8   1  16   1
M  END
>  <UniqueID>  (10) 
10

>  <SMILES>  (10) 
CCN(CC)CC[NH2+]c1c2ccccc2[n+](C)c2cccc(NCCCN)c12

>  <Energy>  (10) 
96.37555849178514

>  <Genealogy>  (10) 
CCN(CC)CC[NH2+]c1c2ccccc2[n+](C)c2cccc(NCCCN)c12 (protonated)
CCN(CC)CC[NH2+]c1c2ccccc2[n+](C)c2cccc(NCCCN)c12 (3D coordinates assigned)
CCN(CC)CC[NH2+]c1c2ccccc2[n+](C)c2cccc(NCCCN)c12 (optimized conformer: 96.37555849178514 kcal/mol)

>  <smiles>  (10) 
CCN(CC)CCNc1c2ccccc2[n+](C)c2cccc(NCCCN)c12

>  <score_type>  (10) 
oracle

>  <origin>  (10) 
adg

>  <m_score__min__energy>  (10) 
-6.2400000000000002

>  <m_primary>  (10) 
energy

$$$$
10:0
     RDKit          3D

 62 64  0  0  0  0  0  0  0  0999 V2000
   -4.2090   24.0780  -28.0500 C   0  0  0  0  0  0  0  0  0  0  0  0
   -3.3770   24.5720  -29.2440 C   0  0  0  0  0  0  0  0  0  0  0  0
   -3.7870   23.9910  -30.5460 N   0  0  0  0  0  0  0  0  0  0  0  0
   -3.3920   22.5730  -30.6960 C   0  0  0  0  0  0  0  0  0  0  0  0
   -1.9040   22.4180  -30.4020 C   0  0  0  0  0  0  0  0  0  0  0  0
   -5.2090   24.2400  -30.8630 C   0  0  0  0  0  0  0  0  0  0  0  0
   -5.9480   22.9390  -31.2090 C   0  0  0  0  0  0  0  0  0  0  0  0
   -5.8100   22.5890  -32.6330 N   0  0  0  0  0  0  0  0  0  0  0  0
   -5.7430   21.1450  -32.8120 C   0  0  0  0  0  0  0  0  0  0  0  0
   -6.8870   20.3340  -32.5980 C   0  0  0  0  0  0  0  0  0  0  0  0
   -8.1630   20.8920  -32.3340 C   0  0  0  0  0  0  0  0  0  0  0  0
   -9.2620   20.0780  -32.0740 C   0  0  0  0  0  0  0  0  0  0  0  0
   -9.1230   18.6980  -32.0710 C   0  0  0  0  0  0  0  0  0  0  0  0
   -7.8930   18.1220  -32.3680 C   0  0  0  0  0  0  0  0  0  0  0  0
   -6.7610   18.9200  -32.6770 C   0  0  0  0  0  0  0  0  0  0  0  0
   -5.5620   18.3450  -33.0440 N   0  0  0  0  0  0  0  0  0  0  0  0
   -5.5570   16.9450  -33.5300 C   0  0  0  0  0  0  0  0  0  0  0  0
   -4.4070   19.1050  -33.1010 C   0  0  0  0  0  0  0  0  0  0  0  0
   -3.1070   18.5110  -33.1090 C   0  0  0  0  0  0  0  0  0  0  0  0
   -2.9980   17.1630  -32.7010 O   0  0  0  0  0  0  0  0  0  0  0  0
   -2.2320   16.1330  -33.3070 C   0  0  0  0  0  0  0  0  0  0  0  0
   -1.9670   19.2890  -33.4500 C   0  0  0  0  0  0  0  0  0  0  0  0
   -0.7180   18.6440  -33.5560 O   0  0  0  0  0  0  0  0  0  0  0  0
    0.3560   18.6660  -32.6230 C   0  0  0  0  0  0  0  0  0  0  0  0
   -2.1200   20.6770  -33.6760 C   0  0  0  0  0  0  0  0  0  0  0  0
   -1.0140   21.4570  -34.0600 O   0  0  0  0  0  0  0  0  0  0  0  0
   -0.1040   21.1350  -35.1060 C   0  0  0  0  0  0  0  0  0  0  0  0
   -3.3750   21.2690  -33.4870 C   0  0  0  0  0  0  0  0  0  0  0  0
   -4.5090   20.5160  -33.1290 C   0  0  0  0  0  0  0  0  0  0  0  0
   -3.7147   24.3715  -27.1122 H   0  0  0  0  0  0  0  0  0  0  0  0
   -5.2124   24.5267  -28.0916 H   0  0  0  0  0  0  0  0  0  0  0  0
   -4.2954   22.9822  -28.0916 H   0  0  0  0  0  0  0  0  0  0  0  0
   -3.4768   25.6657  -29.3064 H   0  0  0  0  0  0  0  0  0  0  0  0
   -2.3403   24.2511  -29.0643 H   0  0  0  0  0  0  0  0  0  0  0  0
   -3.9697   21.9564  -29.9916 H   0  0  0  0  0  0  0  0  0  0  0  0
   -3.5947   22.2464  -31.7266 H   0  0  0  0  0  0  0  0  0  0  0  0
   -1.7451   22.4014  -29.3137 H   0  0  0  0  0  0  0  0  0  0  0  0
   -1.5398   21.4771  -30.8401 H   0  0  0  0  0  0  0  0  0  0  0  0
   -1.3536   23.2637  -30.8401 H   0  0  0  0  0  0  0  0  0  0  0  0
   -5.6930   24.7043  -29.9911 H   0  0  0  0  0  0  0  0  0  0  0  0
   -5.2548   24.9046  -31.7383 H   0  0  0  0  0  0  0  0  0  0  0  0
   -5.5330   22.1220  -30.6005 H   0  0  0  0  0  0  0  0  0  0  0  0
   -7.0171   23.0885  -30.9975 H   0  0  0  0  0  0  0  0  0  0  0  0
   -4.9720   23.0560  -33.0390 H   0  0  0  0  0  0  0  0  0  0  0  0
   -6.5850   22.9930  -33.2010 H   0  0  0  0  0  0  0  0  0  0  0  0
   -8.2867   21.9850  -32.3346 H   0  0  0  0  0  0  0  0  0  0  0  0
  -10.2436   20.5307  -31.8703 H   0  0  0  0  0  0  0  0  0  0  0  0
   -9.9863   18.0590  -31.8335 H   0  0  0  0  0  0  0  0  0  0  0  0
   -7.7954   17.0263  -32.3634 H   0  0  0  0  0  0  0  0  0  0  0  0
   -5.5545   16.2585  -32.6705 H   0  0  0  0  0  0  0  0  0  0  0  0
   -6.4545   16.7655  -34.1401 H   0  0  0  0  0  0  0  0  0  0  0  0
   -4.6582   16.7719  -34.1401 H   0  0  0  0  0  0  0  0  0  0  0  0
   -1.7699   15.5117  -32.5257 H   0  0  0  0  0  0  0  0  0  0  0  0
   -2.8869   15.5086  -33.9325 H   0  0  0  0  0  0  0  0  0  0  0  0
   -1.4455   16.5805  -33.9325 H   0  0  0  0  0  0  0  0  0  0  0  0
   -0.0471   18.6577  -31.5996 H   0  0  0  0  0  0  0  0  0  0  0  0
    0.9911   17.7807  -32.7741 H   0  0  0  0  0  0  0  0  0  0  0  0
    0.9543   19.5766  -32.7741 H   0  0  0  0  0  0  0  0  0  0  0  0
    0.8489   20.7978  -34.6721 H   0  0  0  0  0  0  0  0  0  0  0  0
   -0.5284   20.3325  -35.7271 H   0  0  0  0  0  0  0  0  0  0  0  0
    0.0708   22.0259  -35.7271 H   0  0  0  0  0  0  0  0  0  0  0  0
   -3.4777   22.3558  -33.6225 H   0  0  0  0  0  0  0  0  0  0  0  0
  1  2  1  0
  2  3  1  0
  3  4  1  0
  4  5  1  0
  3  6  1  0
  6  7  1  0
  7  8  1  0
  8  9  1  0
  9 10  2  0
 10 11  1  0
 11 12  2  0
 12 13  1  0
 13 14  2  0
 14 15  1  0
 15 16  2  0
 16 17  1  0
 16 18  1  0
 18 19  2  0
 19 20  1  0
 20 21  1  0
 19 22  1  0
 22 23  1  0
 23 24  1  0
 22 25  2  0
 25 26  1  0
 26 27  1  0
 25 28  1  0
 28 29  2  0
 29  9  1  0
 15 10  1  0
 29 18  1  0
  1 30  1  0
  1 31  1  0
  1 32  1  0
  2 33  1  0
  2 34  1  0
  4 35  1  0
  4 36  1  0
  5 37  1  0
  5 38  1  0
  5 39  1  0
  6 40  1  0
  6 41  1  0
  7 42  1  0
  7 43  1  0
  8 44  1  0
  8 45  1  0
 11 46  1  0
 12 47  1  0
 13 48  1  0
 14 49  1  0
 17 50  1  0
 17 51  1  0
 17 52  1  0
 21 53  1  0
 21 54  1  0
 21 55  1  0
 24 56  1  0
 24 57  1  0
 24 58  1  0
 27 59  1  0
 27 60  1  0
 27 61  1  0
 28 62  1  0
M  CHG  2   8   1  16   1
M  END
>  <UniqueID>  (11) 
11

>  <SMILES>  (11) 
CCN(CC)CC[NH2+]c1c2ccccc2[n+](C)c2c(OC)c(OC)c(OC)cc12

>  <Energy>  (11) 
103.62537762208856

>  <Genealogy>  (11) 
CCN(CC)CC[NH2+]c1c2ccccc2[n+](C)c2c(OC)c(OC)c(OC)cc12 (protonated)
CCN(CC)CC[NH2+]c1c2ccccc2[n+](C)c2c(OC)c(OC)c(OC)cc12 (3D coordinates assigned)
CCN(CC)CC[NH2+]c1c2ccccc2[n+](C)c2c(OC)c(OC)c(OC)cc12 (optimized conformer: 103.62537762208856 kcal/mol)

>  <smiles>  (11) 
CCN(CC)CCNc1c2ccccc2[n+](C)c2c(OC)c(OC)c(OC)cc12

>  <score_type>  (11) 
oracle

>  <origin>  (11) 
adg

>  <m_score__min__energy>  (11) 
-6.7000000000000002

>  <m_primary>  (11) 
energy

$$$$
11:0
     RDKit          3D

 32 32  0  0  0  0  0  0  0  0999 V2000
   -5.6840   21.7460  -32.2620 C   0  0  0  0  0  0  0  0  0  0  0  0
   -6.8700   22.2890  -31.9480 C   0  0  0  0  0  0  0  0  0  0  0  0
   -8.0680   21.4110  -31.6750 C   0  0  0  0  0  0  0  0  0  0  0  0
   -8.2040   20.4310  -32.6850 O   0  0  0  0  0  0  0  0  0  0  0  0
   -8.7500   19.2470  -32.1440 C   0  0  0  0  0  0  0  0  0  0  0  0
   -6.9950   23.7830  -31.8090 C   0  0  0  0  0  0  0  0  0  0  0  0
   -5.6960   24.3620  -31.7840 O   0  0  0  0  0  0  0  0  0  0  0  0
   -5.2490   25.1830  -30.7460 C   0  0  0  0  0  0  0  0  0  0  0  0
   -6.0680   25.8450  -30.0530 O   0  0  0  0  0  0  0  0  0  0  0  0
   -3.8510   25.2870  -30.4680 N   0  0  0  0  0  0  0  0  0  0  0  0
   -3.1090   24.2740  -29.7260 C   0  0  0  0  0  0  0  0  0  0  0  0
   -2.4320   24.8850  -28.5340 C   0  0  0  0  0  0  0  0  0  0  0  0
   -2.8540   24.5820  -27.2310 C   0  0  0  0  0  0  0  0  0  0  0  0
   -2.1820   25.1470  -26.1450 C   0  0  0  0  0  0  0  0  0  0  0  0
   -1.1040   26.0050  -26.3650 C   0  0  0  0  0  0  0  0  0  0  0  0
   -0.7120   26.2870  -27.6760 C   0  0  0  0  0  0  0  0  0  0  0  0
   -1.3760   25.7250  -28.7210 N   0  0  0  0  0  0  0  0  0  0  0  0
   -4.8173   22.3941  -32.4591 H   0  0  0  0  0  0  0  0  0  0  0  0
   -5.5783   20.6528  -32.3223 H   0  0  0  0  0  0  0  0  0  0  0  0
   -7.9380   20.9132  -30.7027 H   0  0  0  0  0  0  0  0  0  0  0  0
   -8.9724   22.0370  -31.6625 H   0  0  0  0  0  0  0  0  0  0  0  0
   -8.7254   19.3004  -31.0456 H   0  0  0  0  0  0  0  0  0  0  0  0
   -9.7906   19.1351  -32.4824 H   0  0  0  0  0  0  0  0  0  0  0  0
   -8.1594   18.3829  -32.4824 H   0  0  0  0  0  0  0  0  0  0  0  0
   -7.5606   24.1856  -32.6622 H   0  0  0  0  0  0  0  0  0  0  0  0
   -7.5243   24.0237  -30.8752 H   0  0  0  0  0  0  0  0  0  0  0  0
   -3.8046   23.4926  -29.3860 H   0  0  0  0  0  0  0  0  0  0  0  0
   -2.3434   23.8398  -30.3858 H   0  0  0  0  0  0  0  0  0  0  0  0
   -3.7059   23.9059  -27.0663 H   0  0  0  0  0  0  0  0  0  0  0  0
   -2.5019   24.9161  -25.1182 H   0  0  0  0  0  0  0  0  0  0  0  0
   -0.5687   26.4544  -25.5156 H   0  0  0  0  0  0  0  0  0  0  0  0
    0.1344   26.9642  -27.8629 H   0  0  0  0  0  0  0  0  0  0  0  0
  1  2  2  0
  2  3  1  0
  3  4  1  0
  4  5  1  0
  2  6  1  0
  6  7  1  0
  7  8  1  0
  8  9  2  0
  8 10  1  0
 10 11  1  0
 11 12  1  0
 12 13  2  0
 13 14  1  0
 14 15  2  0
 15 16  1  0
 16 17  2  0
 17 12  1  0
  1 18  1  0
  1 19  1  0
  3 20  1  0
  3 21  1  0
  5 22  1  0
  5 23  1  0
  5 24  1  0
  6 25  1  0
  6 26  1  0
 11 27  1  0
 11 28  1  0
 13 29  1  0
 14 30  1  0
 15 31  1  0
 16 32  1  0
M  CHG  1  10  -1
M  END
>  <UniqueID>  (12) 
12

>  <SMILES>  (12) 
C=C(COC)COC(=O)[N-]Cc1ccccn1

>  <Energy>  (12) 
22.07289920516612

>  <Genealogy>  (12) 
C=C(COC)COC(=O)[N-]Cc1ccccn1 (protonated)
C=C(COC)COC(=O)[N-]Cc1ccccn1 (3D coordinates assigned)
C=C(COC)COC(=O)[N-]Cc1ccccn1 (optimized conformer: 22.07289920516612 kcal/mol)

>  <smiles>  (12) 
C=C(COC)COC(=O)NCc1ccccn1

>  <score_type>  (12) 
oracle

>  <origin>  (12) 
adg

>  <m_score__min__energy>  (12) 
-7.4299999999999997

>  <m_primary>  (12) 
energy

$$$$
12:0
     RDKit          3D

 52 54  0  0  0  0  0  0  0  0999 V2000
   -2.6880   24.8600  -26.9740 C   0  0  0  0  0  0  0  0  0  0  0  0
   -1.6720   25.3520  -28.0000 C   0  0  0  0  0  0  0  0  0  0  0  0
   -1.9900   24.8370  -29.3330 N   0  0  0  0  0  0  0  0  0  0  0  0
   -3.2200   24.1730  -29.6860 C   0  0  0  0  0  0  0  0  0  0  0  0
   -4.3550   24.9450  -29.9710 C   0  0  0  0  0  0  0  0  0  0  0  0
   -5.5660   24.3360  -30.3120 C   0  0  0  0  0  0  0  0  0  0  0  0
   -5.6680   22.9360  -30.3750 C   0  0  0  0  0  0  0  0  0  0  0  0
   -6.9530   22.2900  -30.7390 C   0  0  0  0  0  0  0  0  0  0  0  0
   -7.2310   21.6060  -31.9110 C   0  0  0  0  0  0  0  0  0  0  0  0
   -8.5380   21.1860  -31.7500 C   0  0  0  0  0  0  0  0  0  0  0  0
   -9.3310   20.3620  -32.7170 C   0  0  0  0  0  0  0  0  0  0  0  0
   -8.6140   19.1240  -33.0460 N   0  0  0  0  0  0  0  0  0  0  0  0
   -8.6440   18.1770  -31.9230 C   0  0  0  0  0  0  0  0  0  0  0  0
   -7.2640   18.1200  -31.2490 C   0  0  0  0  0  0  0  0  0  0  0  0
   -6.1660   17.7990  -32.1830 N   0  0  0  0  0  0  0  0  0  0  0  0
   -6.5660   17.0330  -33.3860 C   0  0  0  0  0  0  0  0  0  0  0  0
   -5.9490   17.5940  -34.6720 C   0  0  0  0  0  0  0  0  0  0  0  0
   -6.1220   19.0470  -34.7240 N   0  0  0  0  0  0  0  0  0  0  0  0
   -5.4020   19.7320  -33.6380 C   0  0  0  0  0  0  0  0  0  0  0  0
   -5.1580   18.8630  -32.3810 C   0  0  0  0  0  0  0  0  0  0  0  0
   -8.9770   21.5900  -30.5820 O   0  0  0  0  0  0  0  0  0  0  0  0
   -8.0530   22.2570  -29.9570 N   0  0  0  0  0  0  0  0  0  0  0  0
   -4.5340   22.1610  -30.0820 C   0  0  0  0  0  0  0  0  0  0  0  0
   -3.3230   22.7710  -29.7400 C   0  0  0  0  0  0  0  0  0  0  0  0
   -2.3044   25.0458  -25.9599 H   0  0  0  0  0  0  0  0  0  0  0  0
   -3.6376   25.3981  -27.1111 H   0  0  0  0  0  0  0  0  0  0  0  0
   -2.8547   23.7814  -27.1111 H   0  0  0  0  0  0  0  0  0  0  0  0
   -1.6877   26.4516  -28.0248 H   0  0  0  0  0  0  0  0  0  0  0  0
   -0.6743   24.9904  -27.7105 H   0  0  0  0  0  0  0  0  0  0  0  0
   -1.2710   24.9790  -30.0780 H   0  0  0  0  0  0  0  0  0  0  0  0
   -4.2918   26.0423  -29.9258 H   0  0  0  0  0  0  0  0  0  0  0  0
   -6.4462   24.9577  -30.5328 H   0  0  0  0  0  0  0  0  0  0  0  0
   -6.5659   21.4364  -32.7705 H   0  0  0  0  0  0  0  0  0  0  0  0
  -10.3019   20.1091  -32.2660 H   0  0  0  0  0  0  0  0  0  0  0  0
   -9.4811   20.9422  -33.6394 H   0  0  0  0  0  0  0  0  0  0  0  0
   -7.6130   19.3810  -33.2180 H   0  0  0  0  0  0  0  0  0  0  0  0
   -9.3949   18.5052  -31.1892 H   0  0  0  0  0  0  0  0  0  0  0  0
   -8.9043   17.1769  -32.2999 H   0  0  0  0  0  0  0  0  0  0  0  0
   -7.0583   19.0997  -30.7931 H   0  0  0  0  0  0  0  0  0  0  0  0
   -7.3010   17.3126  -30.5028 H   0  0  0  0  0  0  0  0  0  0  0  0
   -6.2396   15.9896  -33.2643 H   0  0  0  0  0  0  0  0  0  0  0  0
   -7.6594   17.1068  -33.4805 H   0  0  0  0  0  0  0  0  0  0  0  0
   -4.8755   17.3549  -34.6943 H   0  0  0  0  0  0  0  0  0  0  0  0
   -6.4527   17.1414  -35.5388 H   0  0  0  0  0  0  0  0  0  0  0  0
   -7.1430   19.2680  -34.6540 H   0  0  0  0  0  0  0  0  0  0  0  0
   -4.4253   20.0576  -34.0253 H   0  0  0  0  0  0  0  0  0  0  0  0
   -6.0399   20.5698  -33.3198 H   0  0  0  0  0  0  0  0  0  0  0  0
   -4.1691   18.3903  -32.4734 H   0  0  0  0  0  0  0  0  0  0  0  0
   -5.2262   19.5332  -31.5114 H   0  0  0  0  0  0  0  0  0  0  0  0
   -8.1670   22.6590  -29.0010 H   0  0  0  0  0  0  0  0  0  0  0  0
   -4.5990   21.0636  -30.1219 H   0  0  0  0  0  0  0  0  0  0  0  0
   -2.4443   22.1499  -29.5115 H   0  0  0  0  0  0  0  0  0  0  0  0
  1  2  1  0
  2  3  1  0
  3  4  1  0
  4  5  2  0
  5  6  1  0
  6  7  2  0
  7  8  1  0
  8  9  1  0
  9 10  2  0
 10 11  1  0
 11 12  1  0
 12 13  1  0
 13 14  1  0
 14 15  1  0
 15 16  1  0
 16 17  1  0
 17 18  1  0
 18 19  1  0
 19 20  1  0
 10 21  1  0
 21 22  1  0
  7 23  1  0
 23 24  2  0
 24  4  1  0
 22  8  2  0
 20 15  1  0
  1 25  1  0
  1 26  1  0
  1 27  1  0
  2 28  1  0
  2 29  1  0
  3 30  1  0
  5 31  1  0
  6 32  1  0
  9 33  1  0
 11 34  1  0
 11 35  1  0
 12 36  1  0
 13 37  1  0
 13 38  1  0
 14 39  1  0
 14 40  1  0
 16 41  1  0
 16 42  1  0
 17 43  1  0
 17 44  1  0
 18 45  1  0
 19 46  1  0
 19 47  1  0
 20 48  1  0
 20 49  1  0
 22 50  1  0
 23 51  1  0
 24 52  1  0
M  CHG  1  22   1
M  END
>  <UniqueID>  (13) 
13

>  <SMILES>  (13) 
CCNc1ccc(-c2cc(CNCCN3CCNCC3)o[nH+]2)cc1

>  <Energy>  (13) 
93.62913878967316

>  <Genealogy>  (13) 
CCNc1ccc(-c2cc(CNCCN3CCNCC3)o[nH+]2)cc1 (protonated)
CCNc1ccc(-c2cc(CNCCN3CCNCC3)o[nH+]2)cc1 (3D coordinates assigned)
CCNc1ccc(-c2cc(CNCCN3CCNCC3)o[nH+]2)cc1 (nonaromatic ring conformer: 93.62913878967316 kcal/mol)

>  <smiles>  (13) 
CCNc1ccc(-c2cc(CNCCN3CCNCC3)on2)cc1

>  <score_type>  (13) 
oracle

>  <origin>  (13) 
adg

>  <m_score__min__energy>  (13) 
-8.1799999999999997

>  <m_primary>  (13) 
energy

$$$$
13:0
     RDKit          3D

 41 42  0  0  1  0  0  0  0  0999 V2000
   -9.2230   21.4380  -31.7780 C   0  0  0  0  0  0  0  0  0  0  0  0
   -8.1200   21.6960  -30.7980 C   0  0  0  0  0  0  0  0  0  0  0  0
   -7.9610   23.0360  -30.4680 O   0  0  0  0  0  0  0  0  0  0  0  0
   -6.6470   23.2510  -30.1150 C   0  0  0  0  0  0  0  0  0  0  0  0
   -6.0010   24.4310  -30.8030 C   0  0  1  0  0  0  0  0  0  0  0  0
   -4.7420   24.7220  -29.9700 C   0  0  0  0  0  0  0  0  0  0  0  0
   -3.7450   25.2890  -30.7640 O   0  0  0  0  0  0  0  0  0  0  0  0
   -5.5080   23.9910  -32.0620 N   0  0  0  0  0  0  0  0  0  0  0  0
   -4.9760   22.8340  -32.2280 C   0  0  0  0  0  0  0  0  0  0  0  0
   -5.7980   21.8500  -32.6780 N   0  0  0  0  0  0  0  0  0  0  0  0
   -5.2550   20.6270  -32.8580 C   0  0  0  0  0  0  0  0  0  0  0  0
   -6.0420   19.5390  -33.3270 N   0  0  0  0  0  0  0  0  0  0  0  0
   -7.1750   19.0060  -32.5930 C   0  0  0  0  0  0  0  0  0  0  0  0
   -7.2380   17.5280  -32.7770 C   0  0  0  0  0  0  0  0  0  0  0  0
   -6.3700   16.8460  -33.5110 C   0  0  0  0  0  0  0  0  0  0  0  0
   -5.2360   17.5020  -34.2290 C   0  0  0  0  0  0  0  0  0  0  0  0
   -5.7240   18.9090  -34.5950 C   0  0  0  0  0  0  0  0  0  0  0  0
   -3.9410   20.3860  -32.6010 N   0  0  0  0  0  0  0  0  0  0  0  0
   -3.1630   21.3980  -32.1540 C   0  0  0  0  0  0  0  0  0  0  0  0
   -3.6730   22.6200  -31.9670 N   0  0  0  0  0  0  0  0  0  0  0  0
  -10.1537   21.2203  -31.2336 H   0  0  0  0  0  0  0  0  0  0  0  0
   -9.3672   22.3267  -32.4101 H   0  0  0  0  0  0  0  0  0  0  0  0
   -8.9581   20.5776  -32.4101 H   0  0  0  0  0  0  0  0  0  0  0  0
   -8.3377   21.1361  -29.8765 H   0  0  0  0  0  0  0  0  0  0  0  0
   -7.1847   21.3728  -31.2783 H   0  0  0  0  0  0  0  0  0  0  0  0
   -6.6059   23.4211  -29.0290 H   0  0  0  0  0  0  0  0  0  0  0  0
   -6.0870   22.3584  -30.4306 H   0  0  0  0  0  0  0  0  0  0  0  0
   -6.6948   25.2781  -30.9080 H   0  0  0  0  0  0  0  0  0  0  0  0
   -4.9987   25.4201  -29.1596 H   0  0  0  0  0  0  0  0  0  0  0  0
   -4.3668   23.7753  -29.5540 H   0  0  0  0  0  0  0  0  0  0  0  0
   -4.1780   25.6230  -31.5870 H   0  0  0  0  0  0  0  0  0  0  0  0
   -7.0604   19.2375  -31.5237 H   0  0  0  0  0  0  0  0  0  0  0  0
   -8.1024   19.4615  -32.9704 H   0  0  0  0  0  0  0  0  0  0  0  0
   -8.0469   16.9745  -32.2777 H   0  0  0  0  0  0  0  0  0  0  0  0
   -6.4892   15.7557  -33.5946 H   0  0  0  0  0  0  0  0  0  0  0  0
   -4.3533   17.5617  -33.5753 H   0  0  0  0  0  0  0  0  0  0  0  0
   -4.9421   16.9325  -35.1230 H   0  0  0  0  0  0  0  0  0  0  0  0
   -4.9338   19.4685  -35.1170 H   0  0  0  0  0  0  0  0  0  0  0  0
   -6.5910   18.8822  -35.2715 H   0  0  0  0  0  0  0  0  0  0  0  0
   -2.0994   21.2140  -31.9420 H   0  0  0  0  0  0  0  0  0  0  0  0
   -3.0860   23.4080  -31.6240 H   0  0  0  0  0  0  0  0  0  0  0  0
  1  2  1  0
  2  3  1  0
  3  4  1  0
  4  5  1  0
  5  6  1  0
  6  7  1  0
  5  8  1  0
  8  9  2  0
  9 10  1  0
 10 11  2  0
 11 12  1  0
 12 13  1  0
 13 14  1  0
 14 15  2  0
 15 16  1  0
 16 17  1  0
 11 18  1  0
 18 19  2  0
 19 20  1  0
 20  9  1  0
 17 12  1  0
  1 21  1  0
  1 22  1  0
  1 23  1  0
  2 24  1  0
  2 25  1  0
  4 26  1  0
  4 27  1  0
  5 28  1  6
  6 29  1  0
  6 30  1  0
  7 31  1  0
 13 32  1  0
 13 33  1  0
 14 34  1  0
 15 35  1  0
 16 36  1  0
 16 37  1  0
 17 38  1  0
 17 39  1  0
 19 40  1  0
 20 41  1  0
M  END
>  <smiles>  (14) 
CCOCC(CO)N=c1nc(N2CC=CCC2)nc[nH]1

>  <score_type>  (14) 
oracle

>  <origin>  (14) 
adg

>  <m_score__min__energy>  (14) 
-7.4800000000000004

>  <m_primary>  (14) 
energy

$$$$
14:0
     RDKit          3D

 59 62  0  0  0  0  0  0  0  0999 V2000
   -0.4780   20.9810  -33.2290 C   0  0  0  0  0  0  0  0  0  0  0  0
   -1.6430   21.5520  -32.4260 C   0  0  0  0  0  0  0  0  0  0  0  0
   -2.8600   21.5940  -33.2380 N   0  0  0  0  0  0  0  0  0  0  0  0
   -4.0040   20.7330  -33.0440 C   0  0  0  0  0  0  0  0  0  0  0  0
   -4.0170   19.4150  -33.5390 C   0  0  0  0  0  0  0  0  0  0  0  0
   -5.1130   18.5780  -33.3150 C   0  0  0  0  0  0  0  0  0  0  0  0
   -5.0930   17.3080  -33.7990 N   0  0  0  0  0  0  0  0  0  0  0  0
   -6.1210   16.4370  -33.6170 C   0  0  0  0  0  0  0  0  0  0  0  0
   -6.0240   15.1020  -34.1600 N   0  0  0  0  0  0  0  0  0  0  0  0
   -4.7290   14.5420  -34.5690 C   0  0  0  0  0  0  0  0  0  0  0  0
   -4.7600   13.0130  -34.4800 C   0  0  0  0  0  0  0  0  0  0  0  0
   -5.8810   12.4900  -35.1650 O   0  0  0  0  0  0  0  0  0  0  0  0
   -7.0670   12.9010  -34.5130 C   0  0  0  0  0  0  0  0  0  0  0  0
   -7.2440   14.4180  -34.6110 C   0  0  0  0  0  0  0  0  0  0  0  0
   -7.2500   16.8550  -32.8930 C   0  0  0  0  0  0  0  0  0  0  0  0
   -7.3170   18.1580  -32.3740 C   0  0  0  0  0  0  0  0  0  0  0  0
   -8.5420   18.5770  -31.6020 C   0  0  0  0  0  0  0  0  0  0  0  0
   -6.2300   19.0400  -32.5860 C   0  0  0  0  0  0  0  0  0  0  0  0
   -6.2200   20.3580  -32.0960 C   0  0  0  0  0  0  0  0  0  0  0  0
   -5.1280   21.2030  -32.3310 C   0  0  0  0  0  0  0  0  0  0  0  0
   -5.1550   22.5380  -31.7980 N   0  0  0  0  0  0  0  0  0  0  0  0
   -6.1280   23.4830  -32.3660 C   0  0  0  0  0  0  0  0  0  0  0  0
   -7.4720   23.3810  -31.6480 C   0  0  0  0  0  0  0  0  0  0  0  0
   -4.2920   22.8890  -30.6850 C   0  0  0  0  0  0  0  0  0  0  0  0
   -3.7160   21.8980  -29.8650 C   0  0  0  0  0  0  0  0  0  0  0  0
   -2.8860   22.2500  -28.7970 C   0  0  0  0  0  0  0  0  0  0  0  0
   -2.6170   23.5940  -28.5290 C   0  0  0  0  0  0  0  0  0  0  0  0
   -1.4820   24.0710  -27.0690 Br  0  0  0  0  0  0  0  0  0  0  0  0
   -3.1800   24.5880  -29.3310 C   0  0  0  0  0  0  0  0  0  0  0  0
   -4.0090   24.2420  -30.4010 C   0  0  0  0  0  0  0  0  0  0  0  0
    0.2921   20.6036  -32.5401 H   0  0  0  0  0  0  0  0  0  0  0  0
   -0.8384   20.1574  -33.8629 H   0  0  0  0  0  0  0  0  0  0  0  0
   -0.0478   21.7704  -33.8629 H   0  0  0  0  0  0  0  0  0  0  0  0
   -1.8189   20.9181  -31.5444 H   0  0  0  0  0  0  0  0  0  0  0  0
   -1.3898   22.5764  -32.1153 H   0  0  0  0  0  0  0  0  0  0  0  0
   -2.9020   22.3380  -33.9690 H   0  0  0  0  0  0  0  0  0  0  0  0
   -3.1541   19.0399  -34.1088 H   0  0  0  0  0  0  0  0  0  0  0  0
   -4.5153   14.8410  -35.6058 H   0  0  0  0  0  0  0  0  0  0  0  0
   -3.9456   14.9240  -33.8980 H   0  0  0  0  0  0  0  0  0  0  0  0
   -3.8417   12.6074  -34.9298 H   0  0  0  0  0  0  0  0  0  0  0  0
   -4.8293   12.7241  -33.4209 H   0  0  0  0  0  0  0  0  0  0  0  0
   -7.9283   12.4063  -34.9857 H   0  0  0  0  0  0  0  0  0  0  0  0
   -7.0001   12.6220  -33.4511 H   0  0  0  0  0  0  0  0  0  0  0  0
   -7.4494   14.6930  -35.6561 H   0  0  0  0  0  0  0  0  0  0  0  0
   -8.0842   14.7233  -33.9700 H   0  0  0  0  0  0  0  0  0  0  0  0
   -8.0857   16.1581  -32.7319 H   0  0  0  0  0  0  0  0  0  0  0  0
   -8.3374   18.5070  -30.5235 H   0  0  0  0  0  0  0  0  0  0  0  0
   -8.8006   19.6147  -31.8596 H   0  0  0  0  0  0  0  0  0  0  0  0
   -9.3819   17.9151  -31.8596 H   0  0  0  0  0  0  0  0  0  0  0  0
   -7.0807   20.7301  -31.5209 H   0  0  0  0  0  0  0  0  0  0  0  0
   -5.7398   24.5067  -32.2594 H   0  0  0  0  0  0  0  0  0  0  0  0
   -6.2778   23.2367  -33.4275 H   0  0  0  0  0  0  0  0  0  0  0  0
   -7.3085   23.3934  -30.5603 H   0  0  0  0  0  0  0  0  0  0  0  0
   -8.1058   24.2336  -31.9333 H   0  0  0  0  0  0  0  0  0  0  0  0
   -7.9698   22.4425  -31.9333 H   0  0  0  0  0  0  0  0  0  0  0  0
   -3.9218   20.8366  -30.0676 H   0  0  0  0  0  0  0  0  0  0  0  0
   -2.4431   21.4658  -28.1654 H   0  0  0  0  0  0  0  0  0  0  0  0
   -2.9703   25.6470  -29.1199 H   0  0  0  0  0  0  0  0  0  0  0  0
   -4.4458   25.0327  -31.0288 H   0  0  0  0  0  0  0  0  0  0  0  0
  1  2  1  0
  2  3  1  0
  3  4  1  0
  4  5  2  0
  5  6  1  0
  6  7  2  0
  7  8  1  0
  8  9  1  0
  9 10  1  0
 10 11  1  0
 11 12  1  0
 12 13  1  0
 13 14  1  0
  8 15  2  0
 15 16  1  0
 16 17  1  0
 16 18  2  0
 18 19  1  0
 19 20  2  0
 20 21  1  0
 21 22  1  0
 22 23  1  0
 21 24  1  0
 24 25  2  0
 25 26  1  0
 26 27  2  0
 27 28  1  0
 27 29  1  0
 29 30  2  0
 20  4  1  0
 30 24  1  0
 18  6  1  0
 14  9  1  0
  1 31  1  0
  1 32  1  0
  1 33  1  0
  2 34  1  0
  2 35  1  0
  3 36  1  0
  5 37  1  0
 10 38  1  0
 10 39  1  0
 11 40  1  0
 11 41  1  0
 13 42  1  0
 13 43  1  0
 14 44  1  0
 14 45  1  0
 15 46  1  0
 17 47  1  0
 17 48  1  0
 17 49  1  0
 19 50  1  0
 22 51  1  0
 22 52  1  0
 23 53  1  0
 23 54  1  0
 23 55  1  0
 25 56  1  0
 26 57  1  0
 29 58  1  0
 30 59  1  0
M  END
>  <UniqueID>  (15) 
14

>  <SMILES>  (15) 
CCNc1cc2nc(N3CCOCC3)cc(C)c2cc1N(CC)c1ccc(Br)cc1

>  <Energy>  (15) 
74.45087393147304

>  <Genealogy>  (15) 
CCNc1cc2nc(N3CCOCC3)cc(C)c2cc1N(CC)c1ccc(Br)cc1 (3D coordinates assigned)
CCNc1cc2nc(N3CCOCC3)cc(C)c2cc1N(CC)c1ccc(Br)cc1 (nonaromatic ring conformer: 74.45087393147304 kcal/mol)

>  <smiles>  (15) 
CCNc1cc2nc(N3CCOCC3)cc(C)c2cc1N(CC)c1ccc(Br)cc1

>  <score_type>  (15) 
oracle

>  <origin>  (15) 
adg

>  <m_score__min__energy>  (15) 
-8.3100000000000005

>  <m_primary>  (15) 
energy

$$$$
15:0
     RDKit          3D

 46 49  0  0  0  0  0  0  0  0999 V2000
   -8.8200   19.0110  -32.2310 C   0  0  0  0  0  0  0  0  0  0  0  0
   -8.2700   20.0540  -33.1010 N   0  0  0  0  0  0  0  0  0  0  0  0
   -6.8160   19.9070  -33.2780 C   0  0  0  0  0  0  0  0  0  0  0  0
   -6.0340   20.7550  -32.3030 C   0  0  0  0  0  0  0  0  0  0  0  0
   -6.6630   21.8030  -31.6170 C   0  0  0  0  0  0  0  0  0  0  0  0
   -5.9380   22.6030  -30.7290 C   0  0  0  0  0  0  0  0  0  0  0  0
   -4.5680   22.3720  -30.5160 C   0  0  0  0  0  0  0  0  0  0  0  0
   -3.7950   23.2220  -29.5740 C   0  0  0  0  0  0  0  0  0  0  0  0
   -4.3990   23.7460  -28.4230 C   0  0  0  0  0  0  0  0  0  0  0  0
   -3.6580   24.5430  -27.5490 C   0  0  0  0  0  0  0  0  0  0  0  0
   -2.3450   24.8240  -27.8020 N   0  0  0  0  0  0  0  0  0  0  0  0
   -1.6220   25.6600  -26.8760 C   0  0  0  0  0  0  0  0  0  0  0  0
   -0.8330   26.7410  -27.3540 C   0  0  0  0  0  0  0  0  0  0  0  0
   -0.1150   27.5570  -26.4630 C   0  0  0  0  0  0  0  0  0  0  0  0
   -0.2080   27.2650  -25.1030 C   0  0  0  0  0  0  0  0  0  0  0  0
   -0.9550   26.2260  -24.6340 C   0  0  0  0  0  0  0  0  0  0  0  0
   -1.6780   25.3960  -25.4860 C   0  0  0  0  0  0  0  0  0  0  0  0
   -0.8620   26.1440  -23.2930 N   0  0  0  0  0  0  0  0  0  0  0  0
   -0.0320   27.1750  -22.9790 C   0  0  0  0  0  0  0  0  0  0  0  0
    0.3760   27.8780  -24.0630 N   0  0  0  0  0  0  0  0  0  0  0  0
    1.2990   29.0080  -24.0890 C   0  0  0  0  0  0  0  0  0  0  0  0
   -1.7300   24.3150  -28.9180 C   0  0  0  0  0  0  0  0  0  0  0  0
   -0.5110   24.5490  -29.1460 O   0  0  0  0  0  0  0  0  0  0  0  0
   -2.4450   23.5140  -29.8150 C   0  0  0  0  0  0  0  0  0  0  0  0
   -3.9390   21.3230  -31.2110 C   0  0  0  0  0  0  0  0  0  0  0  0
   -4.6660   20.5230  -32.0980 C   0  0  0  0  0  0  0  0  0  0  0  0
   -8.6704   19.2947  -31.1788 H   0  0  0  0  0  0  0  0  0  0  0  0
   -9.8957   18.8966  -32.4306 H   0  0  0  0  0  0  0  0  0  0  0  0
   -8.3068   18.0588  -32.4306 H   0  0  0  0  0  0  0  0  0  0  0  0
   -8.7440   19.9990  -34.0320 H   0  0  0  0  0  0  0  0  0  0  0  0
   -6.5455   18.8517  -33.1259 H   0  0  0  0  0  0  0  0  0  0  0  0
   -6.5640   20.2423  -34.2949 H   0  0  0  0  0  0  0  0  0  0  0  0
   -7.7336   21.9971  -31.7784 H   0  0  0  0  0  0  0  0  0  0  0  0
   -6.4436   23.4196  -30.1928 H   0  0  0  0  0  0  0  0  0  0  0  0
   -5.4559   23.5294  -28.2086 H   0  0  0  0  0  0  0  0  0  0  0  0
   -4.1367   24.9497  -26.6459 H   0  0  0  0  0  0  0  0  0  0  0  0
   -0.7836   26.9415  -28.4344 H   0  0  0  0  0  0  0  0  0  0  0  0
    0.4979   28.3954  -26.8255 H   0  0  0  0  0  0  0  0  0  0  0  0
   -2.2747   24.5604  -25.0915 H   0  0  0  0  0  0  0  0  0  0  0  0
    0.2763   27.4135  -21.9504 H   0  0  0  0  0  0  0  0  0  0  0  0
    1.5426   29.3062  -23.0586 H   0  0  0  0  0  0  0  0  0  0  0  0
    2.2207   28.7166  -24.6140 H   0  0  0  0  0  0  0  0  0  0  0  0
    0.8295   29.8529  -24.6140 H   0  0  0  0  0  0  0  0  0  0  0  0
   -1.9475   23.1129  -30.7103 H   0  0  0  0  0  0  0  0  0  0  0  0
   -2.8672   21.1306  -31.0555 H   0  0  0  0  0  0  0  0  0  0  0  0
   -4.1624   19.7075  -32.6378 H   0  0  0  0  0  0  0  0  0  0  0  0
  1  2  1  0
  2  3  1  0
  3  4  1  0
  4  5  2  0
  5  6  1  0
  6  7  2  0
  7  8  1  0
  8  9  1  0
  9 10  2  0
 10 11  1  0
 11 12  1  0
 12 13  2  0
 13 14  1  0
 14 15  2  0
 15 16  1  0
 16 17  2  0
 16 18  1  0
 18 19  2  0
 19 20  1  0
 20 21  1  0
 11 22  1  0
 22 23  2  0
 22 24  1  0
  7 25  1  0
 25 26  2  0
 26  4  1  0
 24  8  2  0
 17 12  1  0
 20 15  1  0
  1 27  1  0
  1 28  1  0
  1 29  1  0
  2 30  1  0
  3 31  1  0
  3 32  1  0
  5 33  1  0
  6 34  1  0
  9 35  1  0
 10 36  1  0
 13 37  1  0
 14 38  1  0
 17 39  1  0
 19 40  1  0
 21 41  1  0
 21 42  1  0
 21 43  1  0
 24 44  1  0
 25 45  1  0
 26 46  1  0
M  END
>  <UniqueID>  (16) 
15

>  <SMILES>  (16) 
CNCc1ccc(-c2ccn(-c3ccc4c(c3)ncn4C)c(=O)c2)cc1

>  <Energy>  (16) 
100.15269413313959

>  <Genealogy>  (16) 
CNCc1ccc(-c2ccn(-c3ccc4c(c3)ncn4C)c(=O)c2)cc1 (3D coordinates assigned)
CNCc1ccc(-c2ccn(-c3ccc4c(c3)ncn4C)c(=O)c2)cc1 (optimized conformer: 100.15269413313959 kcal/mol)

>  <smiles>  (16) 
CNCc1ccc(-c2ccn(-c3ccc4c(c3)ncn4C)c(=O)c2)cc1

>  <score_type>  (16) 
oracle

>  <origin>  (16) 
adg

>  <m_score__min__energy>  (16) 
-8.0299999999999994

>  <m_primary>  (16) 
energy

$$$$
16:0
     RDKit          3D

 55 57  0  0  0  0  0  0  0  0999 V2000
   -6.2420   25.4740  -29.7480 C   0  0  0  0  0  0  0  0  0  0  0  0
   -6.6640   24.0610  -30.1510 C   0  0  0  0  0  0  0  0  0  0  0  0
   -6.3680   23.7400  -31.6270 C   0  0  0  0  0  0  0  0  0  0  0  0
   -7.2460   22.6360  -32.2460 C   0  0  0  0  0  0  0  0  0  0  0  0
   -8.7200   22.7360  -31.8190 C   0  0  0  0  0  0  0  0  0  0  0  0
   -9.2860   21.3990  -31.3070 C   0  0  0  0  0  0  0  0  0  0  0  0
   -9.3430   20.2690  -32.3550 C   0  0  0  0  0  0  0  0  0  0  0  0
   -8.5680   18.9990  -31.9690 C   0  0  0  0  0  0  0  0  0  0  0  0
   -7.2420   18.8970  -32.6720 C   0  0  0  0  0  0  0  0  0  0  0  0
   -6.9640   19.5120  -33.8360 N   0  0  0  0  0  0  0  0  0  0  0  0
   -5.7360   19.1770  -34.2000 N   0  0  0  0  0  0  0  0  0  0  0  0
   -5.2760   18.3480  -33.2420 C   0  0  0  0  0  0  0  0  0  0  0  0
   -3.6250   17.6390  -33.2620 S   0  0  0  0  0  0  0  0  0  0  0  0
   -2.8220   19.1340  -33.9410 C   0  0  0  0  0  0  0  0  0  0  0  0
   -3.2140   20.3450  -33.1590 C   0  0  0  0  0  0  0  0  0  0  0  0
   -2.9960   20.4860  -31.8380 N   0  0  0  0  0  0  0  0  0  0  0  0
   -3.4390   21.7420  -31.6260 C   0  0  0  0  0  0  0  0  0  0  0  0
   -3.3570   22.4290  -30.3210 C   0  0  0  0  0  0  0  0  0  0  0  0
   -3.1970   23.8250  -30.2570 C   0  0  0  0  0  0  0  0  0  0  0  0
   -3.0970   24.4680  -29.0180 C   0  0  0  0  0  0  0  0  0  0  0  0
   -3.1530   23.7250  -27.8360 C   0  0  0  0  0  0  0  0  0  0  0  0
   -3.3100   22.3380  -27.8900 C   0  0  0  0  0  0  0  0  0  0  0  0
   -3.4120   21.6900  -29.1250 C   0  0  0  0  0  0  0  0  0  0  0  0
   -3.9040   22.3190  -32.7540 N   0  0  0  0  0  0  0  0  0  0  0  0
   -3.7450   21.4230  -33.6800 O   0  0  0  0  0  0  0  0  0  0  0  0
   -6.1920   18.1520  -32.2660 N   0  0  0  0  0  0  0  0  0  0  0  0
   -6.1130   17.2390  -31.1280 C   0  0  0  0  0  0  0  0  0  0  0  0
   -6.2190   25.5509  -28.6509 H   0  0  0  0  0  0  0  0  0  0  0  0
   -5.2411   25.6869  -30.1515 H   0  0  0  0  0  0  0  0  0  0  0  0
   -6.9623   26.2009  -30.1515 H   0  0  0  0  0  0  0  0  0  0  0  0
   -6.1220   23.3406  -29.5206 H   0  0  0  0  0  0  0  0  0  0  0  0
   -7.7531   23.9920  -30.0125 H   0  0  0  0  0  0  0  0  0  0  0  0
   -6.5153   24.6600  -32.2117 H   0  0  0  0  0  0  0  0  0  0  0  0
   -5.3355   23.3618  -31.6564 H   0  0  0  0  0  0  0  0  0  0  0  0
   -7.1914   22.7168  -33.3417 H   0  0  0  0  0  0  0  0  0  0  0  0
   -6.8628   21.6690  -31.8880 H   0  0  0  0  0  0  0  0  0  0  0  0
   -8.8031   23.4832  -31.0160 H   0  0  0  0  0  0  0  0  0  0  0  0
   -9.3026   23.0235  -32.7066 H   0  0  0  0  0  0  0  0  0  0  0  0
   -8.6548   21.0587  -30.4729 H   0  0  0  0  0  0  0  0  0  0  0  0
  -10.3275   21.5989  -31.0148 H   0  0  0  0  0  0  0  0  0  0  0  0
  -10.3974   19.9947  -32.5069 H   0  0  0  0  0  0  0  0  0  0  0  0
   -8.8644   20.6622  -33.2640 H   0  0  0  0  0  0  0  0  0  0  0  0
   -8.3917   19.0097  -30.8833 H   0  0  0  0  0  0  0  0  0  0  0  0
   -9.1743   18.1326  -32.2719 H   0  0  0  0  0  0  0  0  0  0  0  0
   -7.5910   20.1440  -34.3810 H   0  0  0  0  0  0  0  0  0  0  0  0
   -1.7300   19.0109  -33.8928 H   0  0  0  0  0  0  0  0  0  0  0  0
   -3.1453   19.2665  -34.9840 H   0  0  0  0  0  0  0  0  0  0  0  0
   -3.1503   24.4139  -31.1849 H   0  0  0  0  0  0  0  0  0  0  0  0
   -2.9741   25.5603  -28.9746 H   0  0  0  0  0  0  0  0  0  0  0  0
   -3.0735   24.2322  -26.8631 H   0  0  0  0  0  0  0  0  0  0  0  0
   -3.3535   21.7541  -26.9588 H   0  0  0  0  0  0  0  0  0  0  0  0
   -3.5358   20.5976  -29.1616 H   0  0  0  0  0  0  0  0  0  0  0  0
   -6.1628   17.8146  -30.1920 H   0  0  0  0  0  0  0  0  0  0  0  0
   -6.9532   16.5301  -31.1677 H   0  0  0  0  0  0  0  0  0  0  0  0
   -5.1636   16.6849  -31.1677 H   0  0  0  0  0  0  0  0  0  0  0  0
  1  2  1  0
  2  3  1  0
  3  4  1  0
  4  5  1  0
  5  6  1  0
  6  7  1  0
  7  8  1  0
  8  9  1  0
  9 10  2  0
 10 11  1  0
 11 12  2  0
 12 13  1  0
 13 14  1  0
 14 15  1  0
 15 16  2  0
 16 17  1  0
 17 18  1  0
 18 19  2  0
 19 20  1  0
 20 21  2  0
 21 22  1  0
 22 23  2  0
 17 24  2  0
 24 25  1  0
 12 26  1  0
 26 27  1  0
 26  9  1  0
 25 15  1  0
 23 18  1  0
  1 28  1  0
  1 29  1  0
  1 30  1  0
  2 31  1  0
  2 32  1  0
  3 33  1  0
  3 34  1  0
  4 35  1  0
  4 36  1  0
  5 37  1  0
  5 38  1  0
  6 39  1  0
  6 40  1  0
  7 41  1  0
  7 42  1  0
  8 43  1  0
  8 44  1  0
 10 45  1  0
 14 46  1  0
 14 47  1  0
 19 48  1  0
 20 49  1  0
 21 50  1  0
 22 51  1  0
 23 52  1  0
 27 53  1  0
 27 54  1  0
 27 55  1  0
M  CHG  1  10   1
M  END
>  <UniqueID>  (17) 
16

>  <SMILES>  (17) 
CCCCCCCCc1[nH+]nc(SCc2nc(-c3ccccc3)no2)n1C

>  <Energy>  (17) 
106.07301893670369

>  <Genealogy>  (17) 
CCCCCCCCc1[nH+]nc(SCc2nc(-c3ccccc3)no2)n1C (protonated)
CCCCCCCCc1[nH+]nc(SCc2nc(-c3ccccc3)no2)n1C (3D coordinates assigned)
CCCCCCCCc1[nH+]nc(SCc2nc(-c3ccccc3)no2)n1C (optimized conformer: 106.07301893670369 kcal/mol)

>  <smiles>  (17) 
CCCCCCCCc1nnc(SCc2nc(-c3ccccc3)no2)n1C

>  <score_type>  (17) 
oracle

>  <origin>  (17) 
adg

>  <m_score__min__energy>  (17) 
-8.4100000000000001

>  <m_primary>  (17) 
energy

$$$$
17:0
     RDKit          3D

 36 37  0  0  0  0  0  0  0  0999 V2000
   -4.1880   23.0500  -28.5440 C   0  0  0  0  0  0  0  0  0  0  0  0
   -3.7610   24.3960  -29.1270 C   0  0  0  0  0  0  0  0  0  0  0  0
   -4.2320   24.5680  -30.5210 N   0  0  0  0  0  0  0  0  0  0  0  0
   -5.3640   25.5160  -30.6690 C   0  0  0  0  0  0  0  0  0  0  0  0
   -6.4860   25.3170  -29.6400 C   0  0  0  0  0  0  0  0  0  0  0  0
   -4.5000   23.2660  -31.1740 C   0  0  0  0  0  0  0  0  0  0  0  0
   -5.4930   23.4350  -32.3290 C   0  0  0  0  0  0  0  0  0  0  0  0
   -6.3010   22.2280  -32.5010 N   0  0  0  0  0  0  0  0  0  0  0  0
   -5.8080   20.9120  -32.7650 C   0  0  0  0  0  0  0  0  0  0  0  0
   -4.6430   20.6590  -33.1710 O   0  0  0  0  0  0  0  0  0  0  0  0
   -6.8360   19.9220  -32.4640 C   0  0  0  0  0  0  0  0  0  0  0  0
   -6.8170   18.5320  -32.5610 C   0  0  0  0  0  0  0  0  0  0  0  0
   -7.9710   17.8280  -32.1720 C   0  0  0  0  0  0  0  0  0  0  0  0
   -9.1060   18.5200  -31.6980 C   0  0  0  0  0  0  0  0  0  0  0  0
   -9.0990   19.9230  -31.6060 C   0  0  0  0  0  0  0  0  0  0  0  0
   -7.9440   20.5980  -32.0010 C   0  0  0  0  0  0  0  0  0  0  0  0
   -7.6270   22.0210  -32.0050 C   0  0  0  0  0  0  0  0  0  0  0  0
   -8.3910   22.9430  -31.6140 O   0  0  0  0  0  0  0  0  0  0  0  0
   -4.1708   23.1042  -27.4455 H   0  0  0  0  0  0  0  0  0  0  0  0
   -5.2064   22.8099  -28.8834 H   0  0  0  0  0  0  0  0  0  0  0  0
   -3.4942   22.2667  -28.8834 H   0  0  0  0  0  0  0  0  0  0  0  0
   -4.1818   25.2016  -28.5074 H   0  0  0  0  0  0  0  0  0  0  0  0
   -2.6616   24.4325  -29.1314 H   0  0  0  0  0  0  0  0  0  0  0  0
   -4.9743   26.5390  -30.5618 H   0  0  0  0  0  0  0  0  0  0  0  0
   -5.8053   25.3315  -31.6596 H   0  0  0  0  0  0  0  0  0  0  0  0
   -6.0696   25.3909  -28.6246 H   0  0  0  0  0  0  0  0  0  0  0  0
   -7.2530   26.0931  -29.7791 H   0  0  0  0  0  0  0  0  0  0  0  0
   -6.9393   24.3244  -29.7791 H   0  0  0  0  0  0  0  0  0  0  0  0
   -3.5568   22.8571  -31.5653 H   0  0  0  0  0  0  0  0  0  0  0  0
   -4.9337   22.5800  -30.4315 H   0  0  0  0  0  0  0  0  0  0  0  0
   -6.1565   24.2852  -32.1125 H   0  0  0  0  0  0  0  0  0  0  0  0
   -4.9283   23.6159  -33.2555 H   0  0  0  0  0  0  0  0  0  0  0  0
   -5.9269   18.0016  -32.9304 H   0  0  0  0  0  0  0  0  0  0  0  0
   -7.9889   16.7301  -32.2377 H   0  0  0  0  0  0  0  0  0  0  0  0
  -10.0026   17.9576  -31.3983 H   0  0  0  0  0  0  0  0  0  0  0  0
   -9.9771   20.4713  -31.2341 H   0  0  0  0  0  0  0  0  0  0  0  0
  1  2  1  0
  2  3  1  0
  3  4  1  0
  4  5  1  0
  3  6  1  0
  6  7  1  0
  7  8  1  0
  8  9  1  0
  9 10  2  0
  9 11  1  0
 11 12  2  0
 12 13  1  0
 13 14  2  0
 14 15  1  0
 15 16  2  0
 16 17  1  0
 17 18  2  0
 17  8  1  0
 16 11  1  0
  1 19  1  0
  1 20  1  0
  1 21  1  0
  2 22  1  0
  2 23  1  0
  4 24  1  0
  4 25  1  0
  5 26  1  0
  5 27  1  0
  5 28  1  0
  6 29  1  0
  6 30  1  0
  7 31  1  0
  7 32  1  0
 12 33  1  0
 13 34  1  0
 14 35  1  0
 15 36  1  0
M  END
>  <UniqueID>  (18) 
17

>  <SMILES>  (18) 
CCN(CC)CCN1C(=O)c2ccccc2C1=O

>  <Energy>  (18) 
65.62744458652851

>  <Genealogy>  (18) 
CCN(CC)CCN1C(=O)c2ccccc2C1=O (3D coordinates assigned)
CCN(CC)CCN1C(=O)c2ccccc2C1=O (nonaromatic ring conformer: 65.62744458652851 kcal/mol)

>  <smiles>  (18) 
CCN(CC)CCN1C(=O)c2ccccc2C1=O

>  <score_type>  (18) 
oracle

>  <origin>  (18) 
adg

>  <m_score__min__energy>  (18) 
-7.1600000000000001

>  <m_primary>  (18) 
energy

$$$$
18:0
     RDKit          3D

 51 52  0  0  0  0  0  0  0  0999 V2000
   -2.1990   19.7900  -27.7040 C   0  0  0  0  0  0  0  0  0  0  0  0
   -3.0140   21.0810  -27.6230 C   0  0  0  0  0  0  0  0  0  0  0  0
   -3.0040   21.8020  -28.9170 N   0  0  0  0  0  0  0  0  0  0  0  0
   -1.6400   21.8070  -29.5000 C   0  0  0  0  0  0  0  0  0  0  0  0
   -1.6670   21.2150  -30.9060 C   0  0  0  0  0  0  0  0  0  0  0  0
   -3.5220   23.1810  -28.7670 C   0  0  0  0  0  0  0  0  0  0  0  0
   -2.7810   24.1430  -29.6980 C   0  0  0  0  0  0  0  0  0  0  0  0
   -3.7150   24.8730  -30.4680 O   0  0  0  0  0  0  0  0  0  0  0  0
   -4.9280   24.9890  -29.7560 C   0  0  0  0  0  0  0  0  0  0  0  0
   -6.1070   25.0170  -30.7270 C   0  0  0  0  0  0  0  0  0  0  0  0
   -5.7820   24.3340  -31.9400 O   0  0  0  0  0  0  0  0  0  0  0  0
   -5.8110   22.9430  -32.1510 C   0  0  0  0  0  0  0  0  0  0  0  0
   -4.6550   22.2120  -32.4750 C   0  0  0  0  0  0  0  0  0  0  0  0
   -4.7100   20.8280  -32.6410 C   0  0  0  0  0  0  0  0  0  0  0  0
   -5.9240   20.1390  -32.4970 C   0  0  0  0  0  0  0  0  0  0  0  0
   -6.0280   18.7410  -32.6800 C   0  0  0  0  0  0  0  0  0  0  0  0
   -4.8430   17.8940  -33.0660 C   0  0  0  0  0  0  0  0  0  0  0  0
   -7.2750   18.1310  -32.5010 C   0  0  0  0  0  0  0  0  0  0  0  0
   -8.3780   18.9130  -32.1580 C   0  0  0  0  0  0  0  0  0  0  0  0
   -9.5040   18.3750  -31.9920 O   0  0  0  0  0  0  0  0  0  0  0  0
   -8.2510   20.2260  -32.0080 O   0  0  0  0  0  0  0  0  0  0  0  0
   -7.0930   20.8650  -32.1650 C   0  0  0  0  0  0  0  0  0  0  0  0
   -7.0400   22.2650  -32.0070 C   0  0  0  0  0  0  0  0  0  0  0  0
   -8.2820   23.0350  -31.6330 C   0  0  0  0  0  0  0  0  0  0  0  0
   -1.9742   19.4339  -26.6878 H   0  0  0  0  0  0  0  0  0  0  0  0
   -2.7777   19.0242  -28.2412 H   0  0  0  0  0  0  0  0  0  0  0  0
   -1.2587   19.9831  -28.2412 H   0  0  0  0  0  0  0  0  0  0  0  0
   -4.0526   20.8338  -27.3578 H   0  0  0  0  0  0  0  0  0  0  0  0
   -2.5630   21.7306  -26.8584 H   0  0  0  0  0  0  0  0  0  0  0  0
   -1.2690   22.8414  -29.5481 H   0  0  0  0  0  0  0  0  0  0  0  0
   -0.9763   21.1997  -28.8670 H   0  0  0  0  0  0  0  0  0  0  0  0
   -1.7170   20.1181  -30.8411 H   0  0  0  0  0  0  0  0  0  0  0  0
   -2.5489   21.5910  -31.4453 H   0  0  0  0  0  0  0  0  0  0  0  0
   -0.7545   21.5092  -31.4453 H   0  0  0  0  0  0  0  0  0  0  0  0
   -4.5937   23.1928  -29.0148 H   0  0  0  0  0  0  0  0  0  0  0  0
   -3.3662   23.5055  -27.7276 H   0  0  0  0  0  0  0  0  0  0  0  0
   -2.1769   24.8398  -29.0985 H   0  0  0  0  0  0  0  0  0  0  0  0
   -2.1247   23.5689  -30.3686 H   0  0  0  0  0  0  0  0  0  0  0  0
   -5.0355   24.1294  -29.0782 H   0  0  0  0  0  0  0  0  0  0  0  0
   -4.9170   25.9240  -29.1766 H   0  0  0  0  0  0  0  0  0  0  0  0
   -6.9725   24.5264  -30.2576 H   0  0  0  0  0  0  0  0  0  0  0  0
   -6.3432   26.0647  -30.9647 H   0  0  0  0  0  0  0  0  0  0  0  0
   -3.6964   22.7370  -32.5990 H   0  0  0  0  0  0  0  0  0  0  0  0
   -3.7935   20.2717  -32.8870 H   0  0  0  0  0  0  0  0  0  0  0  0
   -4.3385   17.5334  -32.1574 H   0  0  0  0  0  0  0  0  0  0  0  0
   -5.1850   17.0345  -33.6612 H   0  0  0  0  0  0  0  0  0  0  0  0
   -4.1404   18.4958  -33.6612 H   0  0  0  0  0  0  0  0  0  0  0  0
   -7.3843   17.0440  -32.6297 H   0  0  0  0  0  0  0  0  0  0  0  0
   -8.3654   23.0867  -30.5374 H   0  0  0  0  0  0  0  0  0  0  0  0
   -8.2199   24.0533  -32.0444 H   0  0  0  0  0  0  0  0  0  0  0  0
   -9.1664   22.5266  -32.0444 H   0  0  0  0  0  0  0  0  0  0  0  0
  1  2  1  0
  2  3  1  0
  3  4  1  0
  4  5  1  0
  3  6  1  0
  6  7  1  0
  7  8  1  0
  8  9  1  0
  9 10  1  0
 10 11  1  0
 11 12  1  0
 12 13  2  0
 13 14  1  0
 14 15  2  0
 15 16  1  0
 16 17  1  0
 16 18  2  0
 18 19  1  0
 19 20  2  0
 19 21  1  0
 21 22  1  0
 22 23  2  0
 23 24  1  0
 23 12  1  0
 22 15  1  0
  1 25  1  0
  1 26  1  0
  1 27  1  0
  2 28  1  0
  2 29  1  0
  4 30  1  0
  4 31  1  0
  5 32  1  0
  5 33  1  0
  5 34  1  0
  6 35  1  0
  6 36  1  0
  7 37  1  0
  7 38  1  0
  9 39  1  0
  9 40  1  0
 10 41  1  0
 10 42  1  0
 13 43  1  0
 14 44  1  0
 17 45  1  0
 17 46  1  0
 17 47  1  0
 18 48  1  0
 24 49  1  0
 24 50  1  0
 24 51  1  0
M  END
>  <UniqueID>  (19) 
18

>  <SMILES>  (19) 
CCN(CC)CCOCCOc1ccc2c(C)cc(=O)oc2c1C

>  <Energy>  (19) 
49.25254784629015

>  <Genealogy>  (19) 
CCN(CC)CCOCCOc1ccc2c(C)cc(=O)oc2c1C (3D coordinates assigned)
CCN(CC)CCOCCOc1ccc2c(C)cc(=O)oc2c1C (optimized conformer: 49.25254784629015 kcal/mol)

>  <smiles>  (19) 
CCN(CC)CCOCCOc1ccc2c(C)cc(=O)oc2c1C

>  <score_type>  (19) 
oracle

>  <origin>  (19) 
adg

>  <m_score__min__energy>  (19) 
-7.8200000000000003

>  <m_primary>  (19) 
energy

$$$$
19:0
     RDKit          3D

 47 49  0  0  0  0  0  0  0  0999 V2000
   -1.7060   19.1730  -33.4680 C   0  0  0  0  0  0  0  0  0  0  0  0
   -3.1260   19.5150  -33.3900 N   0  0  0  0  0  0  0  0  0  0  0  0
   -4.1150   18.6560  -34.0540 C   0  0  0  0  0  0  0  0  0  0  0  0
   -5.4160   18.6770  -33.2970 C   0  0  0  0  0  0  0  0  0  0  0  0
   -5.6170   17.8200  -32.2010 C   0  0  0  0  0  0  0  0  0  0  0  0
   -6.8450   17.8120  -31.5290 C   0  0  0  0  0  0  0  0  0  0  0  0
   -7.8810   18.6510  -31.9550 C   0  0  0  0  0  0  0  0  0  0  0  0
   -9.0710   18.6420  -31.3030 F   0  0  0  0  0  0  0  0  0  0  0  0
   -7.6900   19.5020  -33.0520 C   0  0  0  0  0  0  0  0  0  0  0  0
   -6.4630   19.5140  -33.7210 C   0  0  0  0  0  0  0  0  0  0  0  0
   -3.4910   20.8440  -32.9740 C   0  0  0  0  0  0  0  0  0  0  0  0
   -3.9580   21.6490  -33.8260 O   0  0  0  0  0  0  0  0  0  0  0  0
   -3.3250   21.2870  -31.5710 C   0  0  0  0  0  0  0  0  0  0  0  0
   -3.1260   20.3520  -30.5410 C   0  0  0  0  0  0  0  0  0  0  0  0
   -2.9590   20.7800  -29.2210 C   0  0  0  0  0  0  0  0  0  0  0  0
   -2.9910   22.1420  -28.9140 C   0  0  0  0  0  0  0  0  0  0  0  0
   -3.1910   23.0890  -29.9280 C   0  0  0  0  0  0  0  0  0  0  0  0
   -3.2500   24.5570  -29.5900 C   0  0  0  0  0  0  0  0  0  0  0  0
   -4.1030   25.2960  -30.5340 N   0  0  0  0  0  0  0  0  0  0  0  0
   -5.5210   25.3060  -30.1320 C   0  0  0  0  0  0  0  0  0  0  0  0
   -6.2370   24.1220  -30.7150 C   0  0  0  0  0  0  0  0  0  0  0  0
   -6.9300   23.1710  -29.9400 C   0  0  0  0  0  0  0  0  0  0  0  0
   -7.5600   22.1900  -30.6980 C   0  0  0  0  0  0  0  0  0  0  0  0
   -7.2570   22.5100  -32.3280 S   0  0  0  0  0  0  0  0  0  0  0  0
   -6.3150   23.8890  -32.0900 C   0  0  0  0  0  0  0  0  0  0  0  0
   -3.3370   22.6580  -31.2560 C   0  0  0  0  0  0  0  0  0  0  0  0
   -1.2963   19.0743  -32.4519 H   0  0  0  0  0  0  0  0  0  0  0  0
   -1.5872   18.2206  -34.0054 H   0  0  0  0  0  0  0  0  0  0  0  0
   -1.1666   19.9669  -34.0054 H   0  0  0  0  0  0  0  0  0  0  0  0
   -4.2846   19.0217  -35.0775 H   0  0  0  0  0  0  0  0  0  0  0  0
   -3.7330   17.6248  -34.0812 H   0  0  0  0  0  0  0  0  0  0  0  0
   -4.8067   17.1535  -31.8704 H   0  0  0  0  0  0  0  0  0  0  0  0
   -6.9956   17.1464  -30.6663 H   0  0  0  0  0  0  0  0  0  0  0  0
   -8.5055   20.1602  -33.3863 H   0  0  0  0  0  0  0  0  0  0  0  0
   -6.3158   20.1812  -34.5831 H   0  0  0  0  0  0  0  0  0  0  0  0
   -3.1015   19.2774  -30.7749 H   0  0  0  0  0  0  0  0  0  0  0  0
   -2.8018   20.0414  -28.4211 H   0  0  0  0  0  0  0  0  0  0  0  0
   -2.8589   22.4727  -27.8732 H   0  0  0  0  0  0  0  0  0  0  0  0
   -3.6569   24.6735  -28.5747 H   0  0  0  0  0  0  0  0  0  0  0  0
   -2.2309   24.9662  -29.6541 H   0  0  0  0  0  0  0  0  0  0  0  0
   -4.0370   24.7960  -31.4500 H   0  0  0  0  0  0  0  0  0  0  0  0
   -5.5873   25.2658  -29.0347 H   0  0  0  0  0  0  0  0  0  0  0  0
   -5.9918   26.2276  -30.5048 H   0  0  0  0  0  0  0  0  0  0  0  0
   -6.9689   23.2016  -28.8411 H   0  0  0  0  0  0  0  0  0  0  0  0
   -8.1528   21.3513  -30.3041 H   0  0  0  0  0  0  0  0  0  0  0  0
   -5.8456   24.4967  -32.8776 H   0  0  0  0  0  0  0  0  0  0  0  0
   -3.4621   23.3999  -32.0585 H   0  0  0  0  0  0  0  0  0  0  0  0
  1  2  1  0
  2  3  1  0
  3  4  1  0
  4  5  2  0
  5  6  1  0
  6  7  2  0
  7  8  1  0
  7  9  1  0
  9 10  2  0
  2 11  1  0
 11 12  2  0
 11 13  1  0
 13 14  2  0
 14 15  1  0
 15 16  2  0
 16 17  1  0
 17 18  1  0
 18 19  1  0
 19 20  1  0
 20 21  1  0
 21 22  1  0
 22 23  2  0
 23 24  1  0
 24 25  1  0
 17 26  2  0
 10  4  1  0
 26 13  1  0
 25 21  2  0
  1 27  1  0
  1 28  1  0
  1 29  1  0
  3 30  1  0
  3 31  1  0
  5 32  1  0
  6 33  1  0
  9 34  1  0
 10 35  1  0
 14 36  1  0
 15 37  1  0
 16 38  1  0
 18 39  1  0
 18 40  1  0
 19 41  1  0
 20 42  1  0
 20 43  1  0
 22 44  1  0
 23 45  1  0
 25 46  1  0
 26 47  1  0
M  END
>  <UniqueID>  (20) 
19

>  <SMILES>  (20) 
CN(Cc1ccc(F)cc1)C(=O)c1cccc(CNCc2ccsc2)c1

>  <Energy>  (20) 
72.54115172635626

>  <Genealogy>  (20) 
CN(Cc1ccc(F)cc1)C(=O)c1cccc(CNCc2ccsc2)c1 (3D coordinates assigned)
CN(Cc1ccc(F)cc1)C(=O)c1cccc(CNCc2ccsc2)c1 (optimized conformer: 72.54115172635626 kcal/mol)

>  <smiles>  (20) 
CN(Cc1ccc(F)cc1)C(=O)c1cccc(CNCc2ccsc2)c1

>  <score_type>  (20) 
oracle

>  <origin>  (20) 
adg

>  <m_score__min__energy>  (20) 
-8.8100000000000005

>  <m_primary>  (20) 
energy

$$$$
20:0
     RDKit          3D

 66 68  0  0  0  0  0  0  0  0999 V2000
   -3.4600   18.8520  -26.2590 C   0  0  0  0  0  0  0  0  0  0  0  0
   -1.9880   18.8440  -26.6660 C   0  0  0  0  0  0  0  0  0  0  0  0
   -1.6190   20.0560  -27.4320 N   0  0  0  0  0  0  0  0  0  0  0  0
   -0.1960   20.0450  -27.8420 C   0  0  0  0  0  0  0  0  0  0  0  0
    0.2610   18.6140  -28.0880 C   0  0  0  0  0  0  0  0  0  0  0  0
   -2.5260   20.3770  -28.5650 C   0  0  0  0  0  0  0  0  0  0  0  0
   -3.4010   21.6280  -28.3430 C   0  0  0  0  0  0  0  0  0  0  0  0
   -2.9020   22.7020  -29.1210 O   0  0  0  0  0  0  0  0  0  0  0  0
   -3.1910   23.9600  -28.5390 C   0  0  0  0  0  0  0  0  0  0  0  0
   -4.4650   24.5750  -29.1310 C   0  0  0  0  0  0  0  0  0  0  0  0
   -4.2630   24.9360  -30.4820 O   0  0  0  0  0  0  0  0  0  0  0  0
   -5.4930   25.1890  -31.1270 C   0  0  0  0  0  0  0  0  0  0  0  0
   -6.0720   23.8760  -31.6540 C   0  0  0  0  0  0  0  0  0  0  0  0
   -5.2280   22.7360  -31.2910 N   0  0  0  0  0  0  0  0  0  0  0  0
   -5.3020   21.4770  -31.9840 C   0  0  0  0  0  0  0  0  0  0  0  0
   -6.5090   20.7600  -32.0050 C   0  0  0  0  0  0  0  0  0  0  0  0
   -7.6280   21.2100  -31.2740 C   0  0  0  0  0  0  0  0  0  0  0  0
   -8.8110   20.4770  -31.2620 C   0  0  0  0  0  0  0  0  0  0  0  0
   -8.8940   19.2810  -31.9650 C   0  0  0  0  0  0  0  0  0  0  0  0
   -7.8070   18.8240  -32.7070 C   0  0  0  0  0  0  0  0  0  0  0  0
   -6.5990   19.5660  -32.7690 C   0  0  0  0  0  0  0  0  0  0  0  0
   -5.5220   19.1480  -33.5280 N   0  0  0  0  0  0  0  0  0  0  0  0
   -5.6920   18.0770  -34.5340 C   0  0  0  0  0  0  0  0  0  0  0  0
   -4.2810   19.7310  -33.3450 C   0  0  0  0  0  0  0  0  0  0  0  0
   -3.0990   19.1450  -33.8670 C   0  0  0  0  0  0  0  0  0  0  0  0
   -1.8460   19.7400  -33.6760 C   0  0  0  0  0  0  0  0  0  0  0  0
   -0.6140   19.1120  -34.2600 C   0  0  0  0  0  0  0  0  0  0  0  0
   -1.7550   20.9470  -32.9820 C   0  0  0  0  0  0  0  0  0  0  0  0
   -2.8960   21.5270  -32.4310 C   0  0  0  0  0  0  0  0  0  0  0  0
   -4.1610   20.9270  -32.5920 C   0  0  0  0  0  0  0  0  0  0  0  0
   -3.5370   18.8524  -25.1617 H   0  0  0  0  0  0  0  0  0  0  0  0
   -3.9467   19.7528  -26.6611 H   0  0  0  0  0  0  0  0  0  0  0  0
   -3.9565   17.9565  -26.6611 H   0  0  0  0  0  0  0  0  0  0  0  0
   -1.3686   18.7950  -25.7583 H   0  0  0  0  0  0  0  0  0  0  0  0
   -1.8179   17.9691  -27.3107 H   0  0  0  0  0  0  0  0  0  0  0  0
   -0.0782   20.6296  -28.7663 H   0  0  0  0  0  0  0  0  0  0  0  0
    0.4150   20.4879  -27.0417 H   0  0  0  0  0  0  0  0  0  0  0  0
    0.4221   18.1097  -27.1238 H   0  0  0  0  0  0  0  0  0  0  0  0
   -0.5100   18.0759  -28.6590 H   0  0  0  0  0  0  0  0  0  0  0  0
    1.2012   18.6224  -28.6590 H   0  0  0  0  0  0  0  0  0  0  0  0
   -1.9114   20.5413  -29.4624 H   0  0  0  0  0  0  0  0  0  0  0  0
   -3.2145   19.5254  -28.6684 H   0  0  0  0  0  0  0  0  0  0  0  0
   -4.4362   21.4085  -28.6434 H   0  0  0  0  0  0  0  0  0  0  0  0
   -3.3771   21.9061  -27.2790 H   0  0  0  0  0  0  0  0  0  0  0  0
   -3.3276   23.8294  -27.4554 H   0  0  0  0  0  0  0  0  0  0  0  0
   -2.3509   24.6383  -28.7494 H   0  0  0  0  0  0  0  0  0  0  0  0
   -5.2819   23.8408  -29.0715 H   0  0  0  0  0  0  0  0  0  0  0  0
   -4.7216   25.4781  -28.5578 H   0  0  0  0  0  0  0  0  0  0  0  0
   -6.1967   25.6388  -30.4111 H   0  0  0  0  0  0  0  0  0  0  0  0
   -5.3311   25.8812  -31.9664 H   0  0  0  0  0  0  0  0  0  0  0  0
   -7.0746   23.7296  -31.2259 H   0  0  0  0  0  0  0  0  0  0  0  0
   -6.1209   23.9350  -32.7513 H   0  0  0  0  0  0  0  0  0  0  0  0
   -4.5770   22.8240  -30.4790 H   0  0  0  0  0  0  0  0  0  0  0  0
   -7.5651   22.1506  -30.7071 H   0  0  0  0  0  0  0  0  0  0  0  0
   -9.6800   20.8441  -30.6963 H   0  0  0  0  0  0  0  0  0  0  0  0
   -9.8227   18.6922  -31.9354 H   0  0  0  0  0  0  0  0  0  0  0  0
   -7.8864   17.8727  -33.2536 H   0  0  0  0  0  0  0  0  0  0  0  0
   -5.8447   17.1149  -34.0231 H   0  0  0  0  0  0  0  0  0  0  0  0
   -6.5659   18.3006  -35.1635 H   0  0  0  0  0  0  0  0  0  0  0  0
   -4.7918   18.0190  -35.1635 H   0  0  0  0  0  0  0  0  0  0  0  0
   -3.1684   18.2044  -34.4331 H   0  0  0  0  0  0  0  0  0  0  0  0
    0.0464   18.7754  -33.4473 H   0  0  0  0  0  0  0  0  0  0  0  0
   -0.9007   18.2500  -34.8803 H   0  0  0  0  0  0  0  0  0  0  0  0
   -0.0849   19.8504  -34.8803 H   0  0  0  0  0  0  0  0  0  0  0  0
   -0.7793   21.4424  -32.8694 H   0  0  0  0  0  0  0  0  0  0  0  0
   -2.8082   22.4650  -31.8632 H   0  0  0  0  0  0  0  0  0  0  0  0
  1  2  1  0
  2  3  1  0
  3  4  1  0
  4  5  1  0
  3  6  1  0
  6  7  1  0
  7  8  1  0
  8  9  1  0
  9 10  1  0
 10 11  1  0
 11 12  1  0
 12 13  1  0
 13 14  1  0
 14 15  1  0
 15 16  2  0
 16 17  1  0
 17 18  2  0
 18 19  1  0
 19 20  2  0
 20 21  1  0
 21 22  2  0
 22 23  1  0
 22 24  1  0
 24 25  2  0
 25 26  1  0
 26 27  1  0
 26 28  2  0
 28 29  1  0
 29 30  2  0
 30 15  1  0
 21 16  1  0
 30 24  1  0
  1 31  1  0
  1 32  1  0
  1 33  1  0
  2 34  1  0
  2 35  1  0
  4 36  1  0
  4 37  1  0
  5 38  1  0
  5 39  1  0
  5 40  1  0
  6 41  1  0
  6 42  1  0
  7 43  1  0
  7 44  1  0
  9 45  1  0
  9 46  1  0
 10 47  1  0
 10 48  1  0
 12 49  1  0
 12 50  1  0
 13 51  1  0
 13 52  1  0
 14 53  1  0
 17 54  1  0
 18 55  1  0
 19 56  1  0
 20 57  1  0
 23 58  1  0
 23 59  1  0
 23 60  1  0
 25 61  1  0
 27 62  1  0
 27 63  1  0
 27 64  1  0
 28 65  1  0
 29 66  1  0
M  CHG  1  22   1
M  END
>  <UniqueID>  (21) 
20

>  <SMILES>  (21) 
CCN(CC)CCOCCOCCNc1c2ccccc2[n+](C)c2cc(C)ccc12

>  <Energy>  (21) 
88.85399568349892

>  <Genealogy>  (21) 
CCN(CC)CCOCCOCCNc1c2ccccc2[n+](C)c2cc(C)ccc12 (3D coordinates assigned)
CCN(CC)CCOCCOCCNc1c2ccccc2[n+](C)c2cc(C)ccc12 (optimized conformer: 88.85399568349892 kcal/mol)

>  <smiles>  (21) 
CCN(CC)CCOCCOCCNc1c2ccccc2[n+](C)c2cc(C)ccc12

>  <score_type>  (21) 
oracle

>  <origin>  (21) 
adg

>  <m_score__min__energy>  (21) 
-8.6400000000000006

>  <m_primary>  (21) 
energy

$$$$
21:0
     RDKit          3D

 47 49  0  0  0  0  0  0  0  0999 V2000
   -5.9770   25.6170  -30.0450 C   0  0  0  0  0  0  0  0  0  0  0  0
   -4.7720   25.0540  -30.8170 C   0  0  0  0  0  0  0  0  0  0  0  0
   -4.7590   23.5770  -30.9430 N   0  0  0  0  0  0  0  0  0  0  0  0
   -5.4480   22.8990  -29.8320 C   0  0  0  0  0  0  0  0  0  0  0  0
   -3.4120   23.0200  -31.1890 C   0  0  0  0  0  0  0  0  0  0  0  0
   -3.5040   21.8310  -32.1520 C   0  0  0  0  0  0  0  0  0  0  0  0
   -4.5900   22.0280  -33.1280 N   0  0  0  0  0  0  0  0  0  0  0  0
   -5.6590   21.0650  -32.9150 C   0  0  0  0  0  0  0  0  0  0  0  0
   -6.9400   21.4890  -32.4740 C   0  0  0  0  0  0  0  0  0  0  0  0
   -7.2860   22.8610  -32.3950 C   0  0  0  0  0  0  0  0  0  0  0  0
   -8.5570   23.2590  -31.9890 C   0  0  0  0  0  0  0  0  0  0  0  0
   -9.5180   22.3100  -31.6720 C   0  0  0  0  0  0  0  0  0  0  0  0
   -9.2090   20.9540  -31.7410 C   0  0  0  0  0  0  0  0  0  0  0  0
   -7.9130   20.5130  -32.1160 C   0  0  0  0  0  0  0  0  0  0  0  0
   -7.5970   19.1710  -32.1510 N   0  0  0  0  0  0  0  0  0  0  0  0
   -8.4710   18.1870  -31.4740 C   0  0  0  0  0  0  0  0  0  0  0  0
   -6.4600   18.7470  -32.8090 C   0  0  0  0  0  0  0  0  0  0  0  0
   -6.2710   17.3820  -33.1460 C   0  0  0  0  0  0  0  0  0  0  0  0
   -5.1070   16.9490  -33.7780 C   0  0  0  0  0  0  0  0  0  0  0  0
   -4.8850   15.1020  -34.2130 Br  0  0  0  0  0  0  0  0  0  0  0  0
   -4.1150   17.8620  -34.1070 C   0  0  0  0  0  0  0  0  0  0  0  0
   -4.2860   19.2150  -33.8240 C   0  0  0  0  0  0  0  0  0  0  0  0
   -5.4570   19.6850  -33.1820 C   0  0  0  0  0  0  0  0  0  0  0  0
   -5.7926   25.5309  -28.9640 H   0  0  0  0  0  0  0  0  0  0  0  0
   -6.1200   26.6751  -30.3094 H   0  0  0  0  0  0  0  0  0  0  0  0
   -6.8803   25.0477  -30.3094 H   0  0  0  0  0  0  0  0  0  0  0  0
   -4.7802   25.4852  -31.8289 H   0  0  0  0  0  0  0  0  0  0  0  0
   -3.8757   25.3270  -30.2407 H   0  0  0  0  0  0  0  0  0  0  0  0
   -5.0619   23.2790  -28.8746 H   0  0  0  0  0  0  0  0  0  0  0  0
   -6.5283   23.0960  -29.8958 H   0  0  0  0  0  0  0  0  0  0  0  0
   -5.2684   21.8156  -29.8958 H   0  0  0  0  0  0  0  0  0  0  0  0
   -2.7714   23.7976  -31.6305 H   0  0  0  0  0  0  0  0  0  0  0  0
   -2.9824   22.6797  -30.2353 H   0  0  0  0  0  0  0  0  0  0  0  0
   -2.5501   21.7288  -32.6903 H   0  0  0  0  0  0  0  0  0  0  0  0
   -3.7155   20.9223  -31.5694 H   0  0  0  0  0  0  0  0  0  0  0  0
   -4.9580   23.0040  -33.0740 H   0  0  0  0  0  0  0  0  0  0  0  0
   -4.2210   21.9620  -34.1030 H   0  0  0  0  0  0  0  0  0  0  0  0
   -6.5385   23.6237  -32.6586 H   0  0  0  0  0  0  0  0  0  0  0  0
   -8.8000   24.3296  -31.9194 H   0  0  0  0  0  0  0  0  0  0  0  0
  -10.5252   22.6291  -31.3658 H   0  0  0  0  0  0  0  0  0  0  0  0
   -9.9835   20.2109  -31.5005 H   0  0  0  0  0  0  0  0  0  0  0  0
   -8.3725   18.2979  -30.3840 H   0  0  0  0  0  0  0  0  0  0  0  0
   -9.5166   18.3623  -31.7674 H   0  0  0  0  0  0  0  0  0  0  0  0
   -8.1735   17.1694  -31.7674 H   0  0  0  0  0  0  0  0  0  0  0  0
   -7.0576   16.6521  -32.9040 H   0  0  0  0  0  0  0  0  0  0  0  0
   -3.1907   17.5160  -34.5928 H   0  0  0  0  0  0  0  0  0  0  0  0
   -3.4984   19.9300  -34.1039 H   0  0  0  0  0  0  0  0  0  0  0  0
  1  2  1  0
  2  3  1  0
  3  4  1  0
  3  5  1  0
  5  6  1  0
  6  7  1  0
  7  8  1  0
  8  9  2  0
  9 10  1  0
 10 11  2  0
 11 12  1  0
 12 13  2  0
 13 14  1  0
 14 15  2  0
 15 16  1  0
 15 17  1  0
 17 18  2  0
 18 19  1  0
 19 20  1  0
 19 21  2  0
 21 22  1  0
 22 23  2  0
 23  8  1  0
 14  9  1  0
 23 17  1  0
  1 24  1  0
  1 25  1  0
  1 26  1  0
  2 27  1  0
  2 28  1  0
  4 29  1  0
  4 30  1  0
  4 31  1  0
  5 32  1  0
  5 33  1  0
  6 34  1  0
  6 35  1  0
  7 36  1  0
  7 37  1  0
 10 38  1  0
 11 39  1  0
 12 40  1  0
 13 41  1  0
 16 42  1  0
 16 43  1  0
 16 44  1  0
 18 45  1  0
 21 46  1  0
 22 47  1  0
M  CHG  2   7   1  15   1
M  END
>  <UniqueID>  (22) 
21

>  <SMILES>  (22) 
CCN(C)CC[NH2+]c1c2ccccc2[n+](C)c2cc(Br)ccc12

>  <Energy>  (22) 
77.04043623326203

>  <Genealogy>  (22) 
CCN(C)CC[NH2+]c1c2ccccc2[n+](C)c2cc(Br)ccc12 (protonated)
CCN(C)CC[NH2+]c1c2ccccc2[n+](C)c2cc(Br)ccc12 (3D coordinates assigned)
CCN(C)CC[NH2+]c1c2ccccc2[n+](C)c2cc(Br)ccc12 (optimized conformer: 77.04043623326203 kcal/mol)

>  <smiles>  (22) 
CCN(C)CCNc1c2ccccc2[n+](C)c2cc(Br)ccc12

>  <score_type>  (22) 
oracle

>  <origin>  (22) 
adg

>  <m_score__min__energy>  (22) 
-8.0199999999999996

>  <m_primary>  (22) 
energy

$$$$
22:0
     RDKit          3D

 39 41  0  0  1  0  0  0  0  0999 V2000
   -5.7550   25.8270  -30.3350 C   0  0  0  0  0  0  0  0  0  0  0  0
   -5.1750   24.4900  -30.6500 C   0  0  0  0  0  0  0  0  0  0  0  0
   -3.8530   24.3160  -30.4960 N   0  0  0  0  0  0  0  0  0  0  0  0
   -3.2860   23.1410  -30.7640 C   0  0  0  0  0  0  0  0  0  0  0  0
   -2.0190   23.0340  -30.5970 N   0  0  0  0  0  0  0  0  0  0  0  0
   -1.4610   22.8770  -29.2960 C   0  0  0  0  0  0  0  0  0  0  0  0
   -1.3220   24.1650  -28.5190 C   0  0  0  0  0  0  0  0  0  0  0  0
   -1.6130   25.2700  -29.3450 O   0  0  0  0  0  0  0  0  0  0  0  0
   -4.0680   22.1080  -31.2010 N   0  0  0  0  0  0  0  0  0  0  0  0
   -5.4010   22.2560  -31.3650 C   0  0  0  0  0  0  0  0  0  0  0  0
   -6.0120   23.4560  -31.0960 C   0  0  0  0  0  0  0  0  0  0  0  0
   -7.4290   23.7680  -31.2220 C   0  0  0  0  0  0  0  0  0  0  0  0
   -8.2620   22.6440  -31.6990 C   0  0  0  0  0  0  0  0  0  0  0  0
   -7.5680   21.3850  -31.9710 C   0  0  0  0  0  0  0  0  0  0  0  0
   -8.0900   20.1860  -32.4170 C   0  0  0  0  0  0  0  0  0  0  0  0
   -9.5060   19.8810  -32.7330 C   0  0  0  0  0  0  0  0  0  0  0  0
   -7.0700   19.3320  -32.5150 N   0  0  0  0  0  0  0  0  0  0  0  0
   -5.9120   19.9000  -32.1610 N   0  0  0  0  0  0  0  0  0  0  0  0
   -4.6660   19.1900  -32.1790 C   0  0  0  0  0  0  0  0  0  0  0  0
   -6.2180   21.1600  -31.8270 C   0  0  0  0  0  0  0  0  0  0  0  0
   -5.8104   25.9548  -29.2439 H   0  0  0  0  0  0  0  0  0  0  0  0
   -5.1173   26.6137  -30.7644 H   0  0  0  0  0  0  0  0  0  0  0  0
   -6.7652   25.8989  -30.7644 H   0  0  0  0  0  0  0  0  0  0  0  0
   -2.1090   22.1974  -28.7231 H   0  0  0  0  0  0  0  0  0  0  0  0
   -0.4438   22.4821  -29.4354 H   0  0  0  0  0  0  0  0  0  0  0  0
   -2.0207   24.1533  -27.6695 H   0  0  0  0  0  0  0  0  0  0  0  0
   -0.2875   24.2532  -28.1556 H   0  0  0  0  0  0  0  0  0  0  0  0
   -1.7660   24.9000  -30.2480 H   0  0  0  0  0  0  0  0  0  0  0  0
   -3.5530   21.2320  -31.3860 H   0  0  0  0  0  0  0  0  0  0  0  0
   -7.8021   24.0778  -30.2347 H   0  0  0  0  0  0  0  0  0  0  0  0
   -7.5094   24.5616  -31.9794 H   0  0  0  0  0  0  0  0  0  0  0  0
   -9.0257   22.4455  -30.9326 H   0  0  0  0  0  0  0  0  0  0  0  0
   -8.6623   22.9707  -32.6701 H   0  0  0  0  0  0  0  0  0  0  0  0
  -10.0723   19.7590  -31.7979 H   0  0  0  0  0  0  0  0  0  0  0  0
   -9.9373   20.7068  -33.3178 H   0  0  0  0  0  0  0  0  0  0  0  0
   -9.5590   18.9508  -33.3178 H   0  0  0  0  0  0  0  0  0  0  0  0
   -4.3361   19.0020  -31.1466 H   0  0  0  0  0  0  0  0  0  0  0  0
   -4.7978   18.2314  -32.7021 H   0  0  0  0  0  0  0  0  0  0  0  0
   -3.9084   19.7921  -32.7021 H   0  0  0  0  0  0  0  0  0  0  0  0
  1  2  1  0
  2  3  2  0
  3  4  1  0
  4  5  2  0
  5  6  1  0
  6  7  1  0
  7  8  1  0
  4  9  1  0
  9 10  1  0
 10 11  2  0
 11 12  1  0
 12 13  1  0
 13 14  1  0
 14 15  1  0
 15 16  1  0
 15 17  2  0
 17 18  1  0
 18 19  1  0
 18 20  1  0
 11  2  1  0
 20 14  2  0
 20 10  1  0
  1 21  1  0
  1 22  1  0
  1 23  1  0
  6 24  1  0
  6 25  1  0
  7 26  1  0
  7 27  1  0
  8 28  1  0
  9 29  1  0
 12 30  1  0
 12 31  1  0
 13 32  1  0
 13 33  1  0
 16 34  1  0
 16 35  1  0
 16 36  1  0
 19 37  1  0
 19 38  1  0
 19 39  1  0
M  END
>  <smiles>  (23) 
Cc1nc(=NCCO)[nH]c2c1CCc1c(C)nn(C)c1-2

>  <score_type>  (23) 
oracle

>  <origin>  (23) 
adg

>  <m_score__min__energy>  (23) 
-8.8100000000000005

>  <m_primary>  (23) 
energy

$$$$
23:0
     RDKit          3D

 63 66  0  0  0  0  0  0  0  0999 V2000
   -0.0480   27.7610  -24.0910 C   0  0  0  0  0  0  0  0  0  0  0  0
   -0.8600   26.4930  -23.8290 C   0  0  0  0  0  0  0  0  0  0  0  0
    0.0200   25.3160  -23.7350 N   0  0  0  0  0  0  0  0  0  0  0  0
    0.2180   24.6500  -25.0360 C   0  0  0  0  0  0  0  0  0  0  0  0
   -0.8760   24.9580  -26.0820 C   0  0  0  0  0  0  0  0  0  0  0  0
   -0.3930   25.6840  -27.3580 C   0  0  0  0  0  0  0  0  0  0  0  0
   -0.6320   24.9370  -28.6050 N   0  0  0  0  0  0  0  0  0  0  0  0
   -2.0170   24.4640  -28.7230 C   0  0  0  0  0  0  0  0  0  0  0  0
   -2.0220   23.0110  -29.2030 C   0  0  0  0  0  0  0  0  0  0  0  0
   -3.2200   22.7220  -29.9920 N   0  0  0  0  0  0  0  0  0  0  0  0
   -3.1880   22.0330  -31.2540 C   0  0  0  0  0  0  0  0  0  0  0  0
   -4.2500   21.6960  -32.1020 C   0  0  0  0  0  0  0  0  0  0  0  0
   -5.6750   22.0330  -31.9170 C   0  0  0  0  0  0  0  0  0  0  0  0
   -6.0110   23.3380  -31.5100 C   0  0  0  0  0  0  0  0  0  0  0  0
   -4.9790   24.2690  -31.3000 O   0  0  0  0  0  0  0  0  0  0  0  0
   -5.0840   25.4210  -30.4710 C   0  0  0  0  0  0  0  0  0  0  0  0
   -7.3630   23.6830  -31.3340 C   0  0  0  0  0  0  0  0  0  0  0  0
   -8.3700   22.7440  -31.5560 C   0  0  0  0  0  0  0  0  0  0  0  0
   -8.0490   21.4410  -31.9510 C   0  0  0  0  0  0  0  0  0  0  0  0
   -9.0690   20.5010  -32.1700 C   0  0  0  0  0  0  0  0  0  0  0  0
   -8.7540   19.2000  -32.5640 C   0  0  0  0  0  0  0  0  0  0  0  0
   -7.4220   18.8240  -32.7390 C   0  0  0  0  0  0  0  0  0  0  0  0
   -6.3960   19.7460  -32.5230 C   0  0  0  0  0  0  0  0  0  0  0  0
   -6.6920   21.0680  -32.1280 C   0  0  0  0  0  0  0  0  0  0  0  0
   -3.8110   21.0190  -33.1900 N   0  0  0  0  0  0  0  0  0  0  0  0
   -2.4770   20.9330  -33.0270 C   0  0  0  0  0  0  0  0  0  0  0  0
   -1.5750   20.3160  -33.8920 C   0  0  0  0  0  0  0  0  0  0  0  0
   -0.2120   20.3280  -33.5440 C   0  0  0  0  0  0  0  0  0  0  0  0
    0.2160   20.9480  -32.3500 C   0  0  0  0  0  0  0  0  0  0  0  0
   -0.7160   21.5630  -31.4940 C   0  0  0  0  0  0  0  0  0  0  0  0
   -2.0600   21.5380  -31.8690 C   0  0  0  0  0  0  0  0  0  0  0  0
    0.2427   28.2149  -23.1321 H   0  0  0  0  0  0  0  0  0  0  0  0
    0.8552   27.5060  -24.6647 H   0  0  0  0  0  0  0  0  0  0  0  0
   -0.6575   28.4747  -24.6647 H   0  0  0  0  0  0  0  0  0  0  0  0
   -1.4112   26.6071  -22.8839 H   0  0  0  0  0  0  0  0  0  0  0  0
   -1.5587   26.3438  -24.6654 H   0  0  0  0  0  0  0  0  0  0  0  0
    0.9400   25.5860  -23.3180 H   0  0  0  0  0  0  0  0  0  0  0  0
   -0.4230   24.6170  -23.0920 H   0  0  0  0  0  0  0  0  0  0  0  0
    1.1863   24.9742  -25.4449 H   0  0  0  0  0  0  0  0  0  0  0  0
    0.1747   23.5676  -24.8450 H   0  0  0  0  0  0  0  0  0  0  0  0
   -1.3311   24.0041  -26.3869 H   0  0  0  0  0  0  0  0  0  0  0  0
   -1.5776   25.6478  -25.5901 H   0  0  0  0  0  0  0  0  0  0  0  0
   -0.9193   26.6475  -27.4268 H   0  0  0  0  0  0  0  0  0  0  0  0
    0.6968   25.7994  -27.2626 H   0  0  0  0  0  0  0  0  0  0  0  0
    0.0250   24.1260  -28.6720 H   0  0  0  0  0  0  0  0  0  0  0  0
   -2.5108   24.5276  -27.7421 H   0  0  0  0  0  0  0  0  0  0  0  0
   -2.5575   25.0908  -29.4476 H   0  0  0  0  0  0  0  0  0  0  0  0
   -1.1314   22.8345  -29.8240 H   0  0  0  0  0  0  0  0  0  0  0  0
   -2.0156   22.3517  -28.3225 H   0  0  0  0  0  0  0  0  0  0  0  0
   -4.1380   23.0980  -29.6660 H   0  0  0  0  0  0  0  0  0  0  0  0
   -5.0562   25.1162  -29.4144 H   0  0  0  0  0  0  0  0  0  0  0  0
   -4.2440   26.1001  -30.6789 H   0  0  0  0  0  0  0  0  0  0  0  0
   -6.0329   25.9371  -30.6789 H   0  0  0  0  0  0  0  0  0  0  0  0
   -7.6286   24.7027  -31.0184 H   0  0  0  0  0  0  0  0  0  0  0  0
   -9.4234   23.0298  -31.4196 H   0  0  0  0  0  0  0  0  0  0  0  0
  -10.1207   20.7915  -32.0304 H   0  0  0  0  0  0  0  0  0  0  0  0
   -9.5578   18.4692  -32.7370 H   0  0  0  0  0  0  0  0  0  0  0  0
   -7.1790   17.7968  -33.0485 H   0  0  0  0  0  0  0  0  0  0  0  0
   -5.3487   19.4395  -32.6618 H   0  0  0  0  0  0  0  0  0  0  0  0
   -1.9186   19.8340  -34.8192 H   0  0  0  0  0  0  0  0  0  0  0  0
    0.5252   19.8511  -34.2066 H   0  0  0  0  0  0  0  0  0  0  0  0
    1.2842   20.9503  -32.0874 H   0  0  0  0  0  0  0  0  0  0  0  0
   -0.3958   22.0476  -30.5599 H   0  0  0  0  0  0  0  0  0  0  0  0
  1  2  1  0
  2  3  1  0
  3  4  1  0
  4  5  1  0
  5  6  1  0
  6  7  1  0
  7  8  1  0
  8  9  1  0
  9 10  1  0
 10 11  1  0
 11 12  2  0
 12 13  1  0
 13 14  2  0
 14 15  1  0
 15 16  1  0
 14 17  1  0
 17 18  2  0
 18 19  1  0
 19 20  2  0
 20 21  1  0
 21 22  2  0
 22 23  1  0
 23 24  2  0
 12 25  1  0
 25 26  1  0
 26 27  2  0
 27 28  1  0
 28 29  2  0
 29 30  1  0
 30 31  2  0
 31 11  1  0
 24 13  1  0
 31 26  1  0
 24 19  1  0
  1 32  1  0
  1 33  1  0
  1 34  1  0
  2 35  1  0
  2 36  1  0
  3 37  1  0
  3 38  1  0
  4 39  1  0
  4 40  1  0
  5 41  1  0
  5 42  1  0
  6 43  1  0
  6 44  1  0
  7 45  1  0
  8 46  1  0
  8 47  1  0
  9 48  1  0
  9 49  1  0
 10 50  1  0
 16 51  1  0
 16 52  1  0
 16 53  1  0
 17 54  1  0
 18 55  1  0
 20 56  1  0
 21 57  1  0
 22 58  1  0
 23 59  1  0
 27 60  1  0
 28 61  1  0
 29 62  1  0
 30 63  1  0
M  CHG  2   3   1  25  -1
M  END
>  <UniqueID>  (24) 
22

>  <SMILES>  (24) 
CC[NH2+]CCCNCCNc1c(-c2c(OC)ccc3ccccc23)[n-]c2ccccc12

>  <Energy>  (24) 
104.73129573698274

>  <Genealogy>  (24) 
CC[NH2+]CCCNCCNc1c(-c2c(OC)ccc3ccccc23)[n-]c2ccccc12 (protonated)
CC[NH2+]CCCNCCNc1c(-c2c(OC)ccc3ccccc23)[n-]c2ccccc12 (3D coordinates assigned)
CC[NH2+]CCCNCCNc1c(-c2c(OC)ccc3ccccc23)[n-]c2ccccc12 (optimized conformer: 104.73129573698274 kcal/mol)

>  <smiles>  (24) 
CCNCCCNCCNc1c(-c2c(OC)ccc3ccccc23)[nH]c2ccccc12

>  <score_type>  (24) 
oracle

>  <origin>  (24) 
adg

>  <m_score__min__energy>  (24) 
-10.050000000000001

>  <m_primary>  (24) 
energy

$$$$
24:0
     RDKit          3D

 62 66  0  0  0  0  0  0  0  0999 V2000
   -0.1960   22.6910  -23.7020 C   0  0  0  0  0  0  0  0  0  0  0  0
   -0.4070   24.0100  -24.3800 C   0  0  0  0  0  0  0  0  0  0  0  0
   -0.1590   25.2000  -23.8040 N   0  0  0  0  0  0  0  0  0  0  0  0
   -0.4320   26.1330  -24.6680 O   0  0  0  0  0  0  0  0  0  0  0  0
   -0.8460   25.6100  -25.8010 C   0  0  0  0  0  0  0  0  0  0  0  0
   -1.2160   26.4250  -26.9970 C   0  0  0  0  0  0  0  0  0  0  0  0
   -0.8590   24.2240  -25.6720 C   0  0  0  0  0  0  0  0  0  0  0  0
   -1.2250   23.1980  -26.6730 C   0  0  0  0  0  0  0  0  0  0  0  0
   -0.5760   21.9580  -26.7200 C   0  0  0  0  0  0  0  0  0  0  0  0
   -0.9360   21.0050  -27.6850 C   0  0  0  0  0  0  0  0  0  0  0  0
   -0.2040   19.6790  -27.7050 C   0  0  0  0  0  0  0  0  0  0  0  0
    1.0880   19.8070  -28.4110 N   0  0  0  0  0  0  0  0  0  0  0  0
    2.0820   18.8700  -27.8590 C   0  0  0  0  0  0  0  0  0  0  0  0
    0.9060   19.5420  -29.8470 C   0  0  0  0  0  0  0  0  0  0  0  0
   -1.9490   21.3250  -28.6220 C   0  0  0  0  0  0  0  0  0  0  0  0
   -2.3600   20.4330  -29.6340 C   0  0  0  0  0  0  0  0  0  0  0  0
   -3.3540   20.8020  -30.5440 C   0  0  0  0  0  0  0  0  0  0  0  0
   -3.9610   22.0640  -30.4650 C   0  0  0  0  0  0  0  0  0  0  0  0
   -4.9930   22.4330  -31.4000 N   0  0  0  0  0  0  0  0  0  0  0  0
   -5.9520   23.4870  -31.0500 C   0  0  0  0  0  0  0  0  0  0  0  0
   -7.1570   23.4780  -32.0040 C   0  0  0  0  0  0  0  0  0  0  0  0
   -7.5990   22.1010  -32.3180 N   0  0  0  0  0  0  0  0  0  0  0  0
   -8.6720   21.4700  -31.5080 C   0  0  0  0  0  0  0  0  0  0  0  0
   -9.6160   20.5730  -32.3060 C   0  0  0  0  0  0  0  0  0  0  0  0
   -8.6690   19.9540  -31.2940 C   0  0  0  0  0  0  0  0  0  0  0  0
   -6.5570   21.1600  -32.7950 C   0  0  0  0  0  0  0  0  0  0  0  0
   -5.1380   21.7270  -32.6760 C   0  0  0  0  0  0  0  0  0  0  0  0
   -3.5680   22.9530  -29.4550 C   0  0  0  0  0  0  0  0  0  0  0  0
   -2.5680   22.5950  -28.5440 C   0  0  0  0  0  0  0  0  0  0  0  0
   -2.1910   23.4810  -27.5870 N   0  0  0  0  0  0  0  0  0  0  0  0
   -0.2185   22.8316  -22.6113 H   0  0  0  0  0  0  0  0  0  0  0  0
   -0.9941   21.9945  -23.9984 H   0  0  0  0  0  0  0  0  0  0  0  0
    0.7796   22.2783  -23.9984 H   0  0  0  0  0  0  0  0  0  0  0  0
    0.1930   25.3690  -22.8360 H   0  0  0  0  0  0  0  0  0  0  0  0
   -1.6501   27.3811  -26.6692 H   0  0  0  0  0  0  0  0  0  0  0  0
   -0.3174   26.6183  -27.6013 H   0  0  0  0  0  0  0  0  0  0  0  0
   -1.9530   25.8757  -27.6013 H   0  0  0  0  0  0  0  0  0  0  0  0
    0.2204   21.7298  -25.9964 H   0  0  0  0  0  0  0  0  0  0  0  0
   -0.0198   19.3525  -26.6709 H   0  0  0  0  0  0  0  0  0  0  0  0
   -0.8244   18.9401  -28.2333 H   0  0  0  0  0  0  0  0  0  0  0  0
    2.0466   18.9033  -26.7601 H   0  0  0  0  0  0  0  0  0  0  0  0
    1.8547   17.8500  -28.2024 H   0  0  0  0  0  0  0  0  0  0  0  0
    3.0868   19.1571  -28.2024 H   0  0  0  0  0  0  0  0  0  0  0  0
    0.2877   18.6417  -29.9782 H   0  0  0  0  0  0  0  0  0  0  0  0
    0.4068   20.4016  -30.3181 H   0  0  0  0  0  0  0  0  0  0  0  0
    1.8875   19.3846  -30.3181 H   0  0  0  0  0  0  0  0  0  0  0  0
   -1.8945   19.4391  -29.7075 H   0  0  0  0  0  0  0  0  0  0  0  0
   -3.6632   20.0965  -31.3293 H   0  0  0  0  0  0  0  0  0  0  0  0
   -6.3067   23.3229  -30.0217 H   0  0  0  0  0  0  0  0  0  0  0  0
   -5.4471   24.4606  -31.1342 H   0  0  0  0  0  0  0  0  0  0  0  0
   -7.9894   24.0201  -31.5314 H   0  0  0  0  0  0  0  0  0  0  0  0
   -6.8528   23.9621  -32.9437 H   0  0  0  0  0  0  0  0  0  0  0  0
   -8.7509   22.3246  -30.8199 H   0  0  0  0  0  0  0  0  0  0  0  0
  -10.6970   20.5960  -32.1038 H   0  0  0  0  0  0  0  0  0  0  0  0
   -9.8180   20.4168  -33.3759 H   0  0  0  0  0  0  0  0  0  0  0  0
   -9.0642   19.5301  -30.3590 H   0  0  0  0  0  0  0  0  0  0  0  0
   -7.9023   19.1659  -31.3278 H   0  0  0  0  0  0  0  0  0  0  0  0
   -6.6173   20.2382  -32.1978 H   0  0  0  0  0  0  0  0  0  0  0  0
   -6.7475   20.9715  -33.8618 H   0  0  0  0  0  0  0  0  0  0  0  0
   -4.4102   20.9035  -32.7229 H   0  0  0  0  0  0  0  0  0  0  0  0
   -4.9559   22.4289  -33.5031 H   0  0  0  0  0  0  0  0  0  0  0  0
   -4.0492   23.9392  -29.3780 H   0  0  0  0  0  0  0  0  0  0  0  0
  1  2  1  0
  2  3  2  0
  3  4  1  0
  4  5  1  0
  5  6  1  0
  5  7  2  0
  7  8  1  0
  8  9  2  0
  9 10  1  0
 10 11  1  0
 11 12  1  0
 12 13  1  0
 12 14  1  0
 10 15  2  0
 15 16  1  0
 16 17  2  0
 17 18  1  0
 18 19  1  0
 19 20  1  0
 20 21  1  0
 21 22  1  0
 22 23  1  0
 23 24  1  0
 24 25  1  0
 22 26  1  0
 26 27  1  0
 18 28  2  0
 28 29  1  0
 29 30  2  0
  7  2  1  0
 30  8  1  0
 29 15  1  0
 27 19  1  0
 25 23  1  0
  1 31  1  0
  1 32  1  0
  1 33  1  0
  3 34  1  0
  6 35  1  0
  6 36  1  0
  6 37  1  0
  9 38  1  0
 11 39  1  0
 11 40  1  0
 13 41  1  0
 13 42  1  0
 13 43  1  0
 14 44  1  0
 14 45  1  0
 14 46  1  0
 16 47  1  0
 17 48  1  0
 20 49  1  0
 20 50  1  0
 21 51  1  0
 21 52  1  0
 23 53  1  0
 24 54  1  0
 24 55  1  0
 25 56  1  0
 25 57  1  0
 26 58  1  0
 26 59  1  0
 27 60  1  0
 27 61  1  0
 28 62  1  0
M  CHG  1   3   1
M  END
>  <UniqueID>  (25) 
23

>  <SMILES>  (25) 
Cc1[nH+]oc(C)c1-c1cc(CN(C)C)c2ccc(N3CCN(C4CC4)CC3)cc2n1

>  <Energy>  (25) 
389.5019892400245

>  <Genealogy>  (25) 
Cc1[nH+]oc(C)c1-c1cc(CN(C)C)c2ccc(N3CCN(C4CC4)CC3)cc2n1 (protonated)
Cc1[nH+]oc(C)c1-c1cc(CN(C)C)c2ccc(N3CCN(C4CC4)CC3)cc2n1 (3D coordinates assigned)
Cc1[nH+]oc(C)c1-c1cc(CN(C)C)c2ccc(N3CCN(C4CC4)CC3)cc2n1 (nonaromatic ring conformer: 389.5019892400245 kcal/mol)

>  <smiles>  (25) 
Cc1noc(C)c1-c1cc(CN(C)C)c2ccc(N3CCN(C4CC4)CC3)cc2n1

>  <score_type>  (25) 
oracle

>  <origin>  (25) 
adg

>  <m_score__min__energy>  (25) 
-9.4399999999999995

>  <m_primary>  (25) 
energy

$$$$
25:0
     RDKit          3D

 69 72  0  0  0  0  0  0  0  0999 V2000
   -1.5717   22.0523  -27.1524 H   0  0  0  0  0  0  0  0  0  0  0  0
   -1.6870   21.1190  -27.7230 C   0  0  0  0  0  0  0  0  0  0  0  0
   -2.7090   20.3100  -27.4170 C   0  0  0  0  0  0  0  0  0  0  0  0
   -3.6653   20.4308  -27.9471 H   0  0  0  0  0  0  0  0  0  0  0  0
   -2.5830   19.2370  -26.3640 C   0  0  0  0  0  0  0  0  0  0  0  0
   -2.2790   19.6948  -25.4111 H   0  0  0  0  0  0  0  0  0  0  0  0
   -3.9350   18.5470  -26.1660 C   0  0  0  0  0  0  0  0  0  0  0  0
   -4.1394   18.4427  -25.0902 H   0  0  0  0  0  0  0  0  0  0  0  0
   -4.7269   19.1512  -26.6328 H   0  0  0  0  0  0  0  0  0  0  0  0
   -3.9103   17.5512  -26.6328 H   0  0  0  0  0  0  0  0  0  0  0  0
   -1.5120   18.2240  -26.7730 C   0  0  0  0  0  0  0  0  0  0  0  0
   -1.0539   17.7907  -25.8717 H   0  0  0  0  0  0  0  0  0  0  0  0
   -1.9732   17.4240  -27.3707 H   0  0  0  0  0  0  0  0  0  0  0  0
   -0.7389   18.7290  -27.3707 H   0  0  0  0  0  0  0  0  0  0  0  0
   -0.6990   20.8210  -28.7950 C   0  0  0  0  0  0  0  0  0  0  0  0
    0.4950   20.1520  -28.4610 C   0  0  0  0  0  0  0  0  0  0  0  0
    0.8040   20.0844  -27.4075 H   0  0  0  0  0  0  0  0  0  0  0  0
    1.2890   19.5750  -29.4500 C   0  0  0  0  0  0  0  0  0  0  0  0
    2.2509   19.1134  -29.1823 H   0  0  0  0  0  0  0  0  0  0  0  0
    0.8670   19.5820  -30.7750 C   0  0  0  0  0  0  0  0  0  0  0  0
    1.4657   19.0721  -31.5441 H   0  0  0  0  0  0  0  0  0  0  0  0
   -0.3190   20.2370  -31.1330 C   0  0  0  0  0  0  0  0  0  0  0  0
   -0.8170   20.1070  -32.4280 C   0  0  0  0  0  0  0  0  0  0  0  0
   -0.2292   19.5726  -33.1889 H   0  0  0  0  0  0  0  0  0  0  0  0
   -2.0530   20.6490  -32.7640 C   0  0  0  0  0  0  0  0  0  0  0  0
   -2.4911   20.4280  -33.7485 H   0  0  0  0  0  0  0  0  0  0  0  0
   -2.7560   21.4800  -31.8600 C   0  0  0  0  0  0  0  0  0  0  0  0
   -4.0400   22.0300  -32.1490 C   0  0  0  0  0  0  0  0  0  0  0  0
   -4.7750   21.6590  -33.3520 N   0  0  0  0  0  0  0  0  0  0  0  0
   -5.6460   22.2300  -33.4200 H   0  0  0  0  0  0  0  0  0  0  0  0
   -4.2780   21.9150  -34.2300 H   0  0  0  0  0  0  0  0  0  0  0  0
   -5.1370   20.2280  -33.3610 C   0  0  0  0  0  0  0  0  0  0  0  0
   -4.7769   19.7674  -32.4293 H   0  0  0  0  0  0  0  0  0  0  0  0
   -4.6696   19.7711  -34.2457 H   0  0  0  0  0  0  0  0  0  0  0  0
   -6.6540   20.0040  -33.4670 C   0  0  0  0  0  0  0  0  0  0  0  0
   -6.8487   19.1269  -34.1016 H   0  0  0  0  0  0  0  0  0  0  0  0
   -7.1196   20.8971  -33.9093 H   0  0  0  0  0  0  0  0  0  0  0  0
   -7.2300   19.7730  -32.1220 N   0  0  0  0  0  0  0  0  0  0  0  0
   -8.6760   20.1080  -32.0680 C   0  0  0  0  0  0  0  0  0  0  0  0
   -9.1351   19.5231  -31.2574 H   0  0  0  0  0  0  0  0  0  0  0  0
   -9.0924   19.8675  -33.0573 H   0  0  0  0  0  0  0  0  0  0  0  0
   -8.9710   21.5930  -31.8160 C   0  0  0  0  0  0  0  0  0  0  0  0
   -9.0083   21.7807  -30.7328 H   0  0  0  0  0  0  0  0  0  0  0  0
   -8.1771   22.2063  -32.2673 H   0  0  0  0  0  0  0  0  0  0  0  0
   -9.9390   21.8563  -32.2673 H   0  0  0  0  0  0  0  0  0  0  0  0
   -6.9090   18.4180  -31.6160 C   0  0  0  0  0  0  0  0  0  0  0  0
   -5.8698   18.4090  -31.2556 H   0  0  0  0  0  0  0  0  0  0  0  0
   -7.6104   18.1806  -30.8026 H   0  0  0  0  0  0  0  0  0  0  0  0
   -7.0650   17.3560  -32.7050 C   0  0  0  0  0  0  0  0  0  0  0  0
   -7.2098   16.3706  -32.2381 H   0  0  0  0  0  0  0  0  0  0  0  0
   -7.9373   17.5973  -33.3302 H   0  0  0  0  0  0  0  0  0  0  0  0
   -6.1601   17.3362  -33.3302 H   0  0  0  0  0  0  0  0  0  0  0  0
   -4.6190   22.9210  -31.2000 C   0  0  0  0  0  0  0  0  0  0  0  0
   -5.9430   23.4100  -31.3360 C   0  0  0  0  0  0  0  0  0  0  0  0
   -6.5687   23.0545  -32.1680 H   0  0  0  0  0  0  0  0  0  0  0  0
   -6.4640   24.3340  -30.4320 C   0  0  0  0  0  0  0  0  0  0  0  0
   -7.4944   24.6992  -30.5541 H   0  0  0  0  0  0  0  0  0  0  0  0
   -5.6870   24.7950  -29.3780 C   0  0  0  0  0  0  0  0  0  0  0  0
   -6.0998   25.5299  -28.6712 H   0  0  0  0  0  0  0  0  0  0  0  0
   -4.3860   24.3280  -29.2150 C   0  0  0  0  0  0  0  0  0  0  0  0
   -3.7774   24.7016  -28.3783 H   0  0  0  0  0  0  0  0  0  0  0  0
   -3.8340   23.3800  -30.1090 C   0  0  0  0  0  0  0  0  0  0  0  0
   -2.5550   22.9080  -29.9340 N   0  0  0  0  0  0  0  0  0  0  0  0
   -1.5680   23.7520  -29.2210 C   0  0  0  0  0  0  0  0  0  0  0  0
   -1.7031   23.6365  -28.1355 H   0  0  0  0  0  0  0  0  0  0  0  0
   -0.5503   23.4405  -29.4991 H   0  0  0  0  0  0  0  0  0  0  0  0
   -1.7178   24.8057  -29.4991 H   0  0  0  0  0  0  0  0  0  0  0  0
   -2.1380   21.7910  -30.6200 C   0  0  0  0  0  0  0  0  0  0  0  0
   -1.0430   20.9830  -30.1710 C   0  0  0  0  0  0  0  0  0  0  0  0
  1  2  1  0
  2  3  2  0
  3  4  1  0
  3  5  1  0
  5  6  1  0
  5  7  1  0
  7  8  1  0
  7  9  1  0
  7 10  1  0
  5 11  1  0
 11 12  1  0
 11 13  1  0
 11 14  1  0
  2 15  1  0
 15 16  2  0
 16 17  1  0
 16 18  1  0
 18 19  1  0
 18 20  2  0
 20 21  1  0
 20 22  1  0
 22 23  2  0
 23 24  1  0
 23 25  1  0
 25 26  1  0
 25 27  2  0
 27 28  1  0
 28 29  1  0
 29 30  1  0
 29 31  1  0
 29 32  1  0
 32 33  1  0
 32 34  1  0
 32 35  1  0
 35 36  1  0
 35 37  1  0
 35 38  1  0
 38 39  1  0
 39 40  1  0
 39 41  1  0
 39 42  1  0
 42 43  1  0
 42 44  1  0
 42 45  1  0
 38 46  1  0
 46 47  1  0
 46 48  1  0
 46 49  1  0
 49 50  1  0
 49 51  1  0
 49 52  1  0
 28 53  2  0
 53 54  1  0
 54 55  1  0
 54 56  2  0
 56 57  1  0
 56 58  1  0
 58 59  1  0
 58 60  2  0
 60 61  1  0
 60 62  1  0
 62 63  2  0
 63 64  1  0
 64 65  1  0
 64 66  1  0
 64 67  1  0
 63 68  1  0
 68 69  2  0
 69 15  1  0
 69 22  1  0
 68 27  1  0
 62 53  1  0
M  CHG  2  29   1  63   1
M  END
>  <UniqueID>  (26) 
24

>  <SMILES>  (26) 
CCN(CC)CC[NH2+]c1c2ccccc2[n+](C)c2c1ccc1cccc(/C=C/C(C)C)c12

>  <Energy>  (26) 
119.89706135641474

>  <Genealogy>  (26) 
CCN(CC)CC[NH2+]c1c2ccccc2[n+](C)c2c1ccc1cccc(C=CC(C)C)c12 (protonated)
CCN(CC)CC[NH2+]c1c2ccccc2[n+](C)c2c1ccc1cccc(/C=C/C(C)C)c12 (cis-trans isomerization)
CCN(CC)CC[NH2+]c1c2ccccc2[n+](C)c2c1ccc1cccc(/C=C/C(C)C)c12 (3D coordinates assigned)
CCN(CC)CC[NH2+]c1c2ccccc2[n+](C)c2c1ccc1cccc(/C=C/C(C)C)c12 (optimized conformer: 119.89706135641474 kcal/mol)

>  <smiles>  (26) 
CCN(CC)CCNc1c2ccccc2[n+](C)c2c1ccc1cccc(C=CC(C)C)c12

>  <score_type>  (26) 
oracle

>  <origin>  (26) 
adg

>  <m_score__min__energy>  (26) 
-8.4900000000000002

>  <m_primary>  (26) 
energy

$$$$
26:0
     RDKit          3D

 44 46  0  0  0  0  0  0  0  0999 V2000
   -1.2400   26.0310  -29.0110 O   0  0  0  0  0  0  0  0  0  0  0  0
   -1.2520   25.5530  -27.8590 N   0  0  0  0  0  0  0  0  0  0  0  0
   -1.4290   26.4050  -26.7930 O   0  0  0  0  0  0  0  0  0  0  0  0
   -1.2900   24.1300  -27.6530 C   0  0  0  0  0  0  0  0  0  0  0  0
   -0.0770   23.4350  -27.5020 C   0  0  0  0  0  0  0  0  0  0  0  0
   -0.0660   22.0570  -27.2880 C   0  0  0  0  0  0  0  0  0  0  0  0
   -1.2640   21.3490  -27.2280 C   0  0  0  0  0  0  0  0  0  0  0  0
   -2.4790   22.0150  -27.3920 C   0  0  0  0  0  0  0  0  0  0  0  0
   -2.5130   23.4050  -27.6150 C   0  0  0  0  0  0  0  0  0  0  0  0
   -3.8540   24.0660  -27.8570 C   0  0  0  0  0  0  0  0  0  0  0  0
   -4.0040   24.4490  -29.2760 N   0  0  0  0  0  0  0  0  0  0  0  0
   -3.6070   23.3520  -30.1980 C   0  0  0  0  0  0  0  0  0  0  0  0
   -4.8180   22.6290  -30.8010 C   0  0  0  0  0  0  0  0  0  0  0  0
   -5.6620   23.5680  -31.5720 N   0  0  0  0  0  0  0  0  0  0  0  0
   -6.9800   23.0100  -31.9510 C   0  0  0  0  0  0  0  0  0  0  0  0
   -6.9470   21.5330  -32.2960 C   0  0  0  0  0  0  0  0  0  0  0  0
   -5.8900   21.0080  -33.0600 C   0  0  0  0  0  0  0  0  0  0  0  0
   -5.8520   19.6460  -33.3750 C   0  0  0  0  0  0  0  0  0  0  0  0
   -6.8760   18.7990  -32.9430 C   0  0  0  0  0  0  0  0  0  0  0  0
   -6.8210   16.9380  -33.3730 Br  0  0  0  0  0  0  0  0  0  0  0  0
   -7.9440   19.3160  -32.2060 C   0  0  0  0  0  0  0  0  0  0  0  0
   -7.9850   20.6770  -31.8900 C   0  0  0  0  0  0  0  0  0  0  0  0
   -5.7090   24.9440  -31.0230 C   0  0  0  0  0  0  0  0  0  0  0  0
   -5.3690   24.9720  -29.5270 C   0  0  0  0  0  0  0  0  0  0  0  0
    0.8744   23.9847  -27.5533 H   0  0  0  0  0  0  0  0  0  0  0  0
    0.8908   21.5281  -27.1663 H   0  0  0  0  0  0  0  0  0  0  0  0
   -1.2522   20.2634  -27.0511 H   0  0  0  0  0  0  0  0  0  0  0  0
   -3.4206   21.4481  -27.3466 H   0  0  0  0  0  0  0  0  0  0  0  0
   -4.6560   23.3633  -27.5868 H   0  0  0  0  0  0  0  0  0  0  0  0
   -3.9150   24.9741  -27.2393 H   0  0  0  0  0  0  0  0  0  0  0  0
   -3.0063   23.7774  -31.0154 H   0  0  0  0  0  0  0  0  0  0  0  0
   -3.0320   22.6163  -29.6165 H   0  0  0  0  0  0  0  0  0  0  0  0
   -4.4646   21.8301  -31.4695 H   0  0  0  0  0  0  0  0  0  0  0  0
   -5.4191   22.2064  -29.9824 H   0  0  0  0  0  0  0  0  0  0  0  0
   -7.6719   23.1532  -31.1080 H   0  0  0  0  0  0  0  0  0  0  0  0
   -7.3028   23.5422  -32.8580 H   0  0  0  0  0  0  0  0  0  0  0  0
   -5.0876   21.6729  -33.4123 H   0  0  0  0  0  0  0  0  0  0  0  0
   -5.0154   19.2411  -33.9633 H   0  0  0  0  0  0  0  0  0  0  0  0
   -8.7545   18.6507  -31.8736 H   0  0  0  0  0  0  0  0  0  0  0  0
   -8.8349   21.0805  -31.3201 H   0  0  0  0  0  0  0  0  0  0  0  0
   -4.9836   25.5686  -31.5649 H   0  0  0  0  0  0  0  0  0  0  0  0
   -6.7322   25.3277  -31.1485 H   0  0  0  0  0  0  0  0  0  0  0  0
   -5.4277   26.0092  -29.1653 H   0  0  0  0  0  0  0  0  0  0  0  0
   -6.0894   24.3335  -28.9947 H   0  0  0  0  0  0  0  0  0  0  0  0
  1  2  2  0
  2  3  1  0
  2  4  1  0
  4  5  2  0
  5  6  1  0
  6  7  2  0
  7  8  1  0
  8  9  2  0
  9 10  1  0
 10 11  1  0
 11 12  1  0
 12 13  1  0
 13 14  1  0
 14 15  1  0
 15 16  1  0
 16 17  2  0
 17 18  1  0
 18 19  2  0
 19 20  1  0
 19 21  1  0
 21 22  2  0
 14 23  1  0
 23 24  1  0
  9  4  1  0
 24 11  1  0
 22 16  1  0
  5 25  1  0
  6 26  1  0
  7 27  1  0
  8 28  1  0
 10 29  1  0
 10 30  1  0
 12 31  1  0
 12 32  1  0
 13 33  1  0
 13 34  1  0
 15 35  1  0
 15 36  1  0
 17 37  1  0
 18 38  1  0
 21 39  1  0
 22 40  1  0
 23 41  1  0
 23 42  1  0
 24 43  1  0
 24 44  1  0
M  CHG  2   2   1   3  -1
M  END
>  <UniqueID>  (27) 
25

>  <SMILES>  (27) 
O=[N+]([O-])c1ccccc1CN1CCN(Cc2ccc(Br)cc2)CC1

>  <Energy>  (27) 
65.83053679037256

>  <Genealogy>  (27) 
O=[N+]([O-])c1ccccc1CN1CCN(Cc2ccc(Br)cc2)CC1 (3D coordinates assigned)
O=[N+]([O-])c1ccccc1CN1CCN(Cc2ccc(Br)cc2)CC1 (nonaromatic ring conformer: 65.83053679037256 kcal/mol)

>  <smiles>  (27) 
O=[N+]([O-])c1ccccc1CN1CCN(Cc2ccc(Br)cc2)CC1

>  <score_type>  (27) 
oracle

>  <origin>  (27) 
adg

>  <m_score__min__energy>  (27) 
-9.6899999999999995

>  <m_primary>  (27) 
energy

$$$$
27:0
     RDKit          3D

 83 86  0  0  0  0  0  0  0  0999 V2000
   -1.1790   20.0540  -29.2250 C   0  0  0  0  0  0  0  0  0  0  0  0
   -0.1110   20.1750  -30.3210 C   0  0  0  0  0  0  0  0  0  0  0  0
   -0.6780   19.9560  -31.6800 N   0  0  0  0  0  0  0  0  0  0  0  0
   -0.1020   20.9350  -32.6430 C   0  0  0  0  0  0  0  0  0  0  0  0
   -1.0410   21.2050  -33.8230 C   0  0  0  0  0  0  0  0  0  0  0  0
   -0.4300   18.5570  -32.1370 C   0  0  0  0  0  0  0  0  0  0  0  0
   -1.6490   17.9520  -32.8580 C   0  0  0  0  0  0  0  0  0  0  0  0
   -2.7790   18.7980  -32.7460 O   0  0  0  0  0  0  0  0  0  0  0  0
   -3.9790   18.1300  -33.0970 C   0  0  0  0  0  0  0  0  0  0  0  0
   -5.0070   19.1560  -33.6110 C   0  0  0  0  0  0  0  0  0  0  0  0
   -4.6850   20.5290  -33.1790 N   0  0  0  0  0  0  0  0  0  0  0  0
   -5.3210   21.3120  -32.1240 C   0  0  0  0  0  0  0  0  0  0  0  0
   -6.7240   21.3360  -31.9450 C   0  0  0  0  0  0  0  0  0  0  0  0
   -7.5450   20.2460  -32.2960 C   0  0  0  0  0  0  0  0  0  0  0  0
   -8.9240   20.4010  -32.4290 C   0  0  0  0  0  0  0  0  0  0  0  0
   -9.5110   21.6270  -32.1200 C   0  0  0  0  0  0  0  0  0  0  0  0
   -8.7350   22.6560  -31.5790 C   0  0  0  0  0  0  0  0  0  0  0  0
   -7.3370   22.4930  -31.3870 C   0  0  0  0  0  0  0  0  0  0  0  0
   -6.5710   23.4290  -30.7200 N   0  0  0  0  0  0  0  0  0  0  0  0
   -7.2140   24.5070  -29.9280 C   0  0  0  0  0  0  0  0  0  0  0  0
   -5.1890   23.3160  -30.7100 C   0  0  0  0  0  0  0  0  0  0  0  0
   -4.3690   24.2820  -30.0590 C   0  0  0  0  0  0  0  0  0  0  0  0
   -2.9770   24.1350  -29.9770 C   0  0  0  0  0  0  0  0  0  0  0  0
   -2.1510   25.0510  -29.3030 O   0  0  0  0  0  0  0  0  0  0  0  0
   -0.9430   24.7100  -28.6140 C   0  0  0  0  0  0  0  0  0  0  0  0
   -1.2800   24.2840  -27.1590 C   0  0  0  0  0  0  0  0  0  0  0  0
   -1.4240   25.3740  -26.1320 N   0  0  1  0  0  0  0  0  0  0  0  0
   -2.8830   25.6340  -25.9630 C   0  0  0  0  0  0  0  0  0  0  0  0
   -0.8670   24.9920  -24.8150 C   0  0  0  0  0  0  0  0  0  0  0  0
   -0.4940   26.2730  -24.0910 C   0  0  0  0  0  0  0  0  0  0  0  0
   -0.2130   27.2860  -25.2030 C   0  0  2  0  0  0  0  0  0  0  0  0
   -0.8470   28.6560  -24.9190 C   0  0  0  0  0  0  0  0  0  0  0  0
   -0.7450   26.6460  -26.4960 C   0  0  0  0  0  0  0  0  0  0  0  0
   -2.3800   23.0380  -30.5770 C   0  0  0  0  0  0  0  0  0  0  0  0
   -3.1420   22.0840  -31.2450 C   0  0  0  0  0  0  0  0  0  0  0  0
   -4.5480   22.2310  -31.3710 C   0  0  0  0  0  0  0  0  0  0  0  0
   -0.6984   20.1085  -28.2371 H   0  0  0  0  0  0  0  0  0  0  0  0
   -1.9031   20.8759  -29.3263 H   0  0  0  0  0  0  0  0  0  0  0  0
   -1.7009   19.0910  -29.3263 H   0  0  0  0  0  0  0  0  0  0  0  0
    0.3292   21.1822  -30.2781 H   0  0  0  0  0  0  0  0  0  0  0  0
    0.6489   19.4002  -30.1414 H   0  0  0  0  0  0  0  0  0  0  0  0
   -1.7120   20.1180  -31.6230 H   0  0  0  0  0  0  0  0  0  0  0  0
    0.0863   21.8820  -32.1159 H   0  0  0  0  0  0  0  0  0  0  0  0
    0.8296   20.5081  -33.0428 H   0  0  0  0  0  0  0  0  0  0  0  0
   -2.0334   21.4904  -33.4440 H   0  0  0  0  0  0  0  0  0  0  0  0
   -0.6337   22.0224  -34.4361 H   0  0  0  0  0  0  0  0  0  0  0  0
   -1.1301   20.2961  -34.4361 H   0  0  0  0  0  0  0  0  0  0  0  0
    0.4255   18.5573  -32.8284 H   0  0  0  0  0  0  0  0  0  0  0  0
   -0.2274   17.9435  -31.2468 H   0  0  0  0  0  0  0  0  0  0  0  0
   -1.4060   17.8161  -33.9222 H   0  0  0  0  0  0  0  0  0  0  0  0
   -1.8880   16.9858  -32.3896 H   0  0  0  0  0  0  0  0  0  0  0  0
   -3.7707   17.3927  -33.8864 H   0  0  0  0  0  0  0  0  0  0  0  0
   -4.3845   17.6163  -32.2129 H   0  0  0  0  0  0  0  0  0  0  0  0
   -5.0205   19.1242  -34.7105 H   0  0  0  0  0  0  0  0  0  0  0  0
   -5.9887   18.8907  -33.1917 H   0  0  0  0  0  0  0  0  0  0  0  0
   -4.2120   21.0380  -33.9580 H   0  0  0  0  0  0  0  0  0  0  0  0
   -7.0913   19.2587  -32.4675 H   0  0  0  0  0  0  0  0  0  0  0  0
   -9.5447   19.5615  -32.7754 H   0  0  0  0  0  0  0  0  0  0  0  0
  -10.5844   21.7846  -32.3018 H   0  0  0  0  0  0  0  0  0  0  0  0
   -9.2137   23.6056  -31.2979 H   0  0  0  0  0  0  0  0  0  0  0  0
   -7.0894   24.2980  -28.8552 H   0  0  0  0  0  0  0  0  0  0  0  0
   -6.7433   25.4711  -30.1709 H   0  0  0  0  0  0  0  0  0  0  0  0
   -8.2860   24.5509  -30.1709 H   0  0  0  0  0  0  0  0  0  0  0  0
   -4.8408   25.1676  -29.6083 H   0  0  0  0  0  0  0  0  0  0  0  0
   -0.4466   23.8776  -29.1342 H   0  0  0  0  0  0  0  0  0  0  0  0
   -0.2728   25.5821  -28.5950 H   0  0  0  0  0  0  0  0  0  0  0  0
   -2.2310   23.7319  -27.1892 H   0  0  0  0  0  0  0  0  0  0  0  0
   -0.4078   23.7009  -26.8285 H   0  0  0  0  0  0  0  0  0  0  0  0
   -3.1260   25.6773  -24.8910 H   0  0  0  0  0  0  0  0  0  0  0  0
   -3.1419   26.5924  -26.4367 H   0  0  0  0  0  0  0  0  0  0  0  0
   -3.4571   24.8240  -26.4367 H   0  0  0  0  0  0  0  0  0  0  0  0
   -1.6196   24.4378  -24.2349 H   0  0  0  0  0  0  0  0  0  0  0  0
    0.0141   24.3452  -24.9388 H   0  0  0  0  0  0  0  0  0  0  0  0
   -1.3250   26.6151  -23.4567 H   0  0  0  0  0  0  0  0  0  0  0  0
    0.3721   26.1362  -23.4268 H   0  0  0  0  0  0  0  0  0  0  0  0
    0.8632   27.4988  -25.2837 H   0  0  0  0  0  0  0  0  0  0  0  0
   -0.9178   28.8090  -23.8320 H   0  0  0  0  0  0  0  0  0  0  0  0
   -0.2235   29.4472  -25.3608 H   0  0  0  0  0  0  0  0  0  0  0  0
   -1.8537   28.6928  -25.3608 H   0  0  0  0  0  0  0  0  0  0  0  0
   -1.4605   27.3255  -26.9822 H   0  0  0  0  0  0  0  0  0  0  0  0
    0.0817   26.4520  -27.1952 H   0  0  0  0  0  0  0  0  0  0  0  0
   -1.2877   22.9194  -30.5246 H   0  0  0  0  0  0  0  0  0  0  0  0
   -2.6476   21.2036  -31.6815 H   0  0  0  0  0  0  0  0  0  0  0  0
  1  2  1  0
  2  3  1  0
  3  4  1  0
  4  5  1  0
  3  6  1  0
  6  7  1  0
  7  8  1  0
  8  9  1  0
  9 10  1  0
 10 11  1  0
 11 12  1  0
 12 13  2  0
 13 14  1  0
 14 15  2  0
 15 16  1  0
 16 17  2  0
 17 18  1  0
 18 19  2  0
 19 20  1  0
 19 21  1  0
 21 22  2  0
 22 23  1  0
 23 24  1  0
 24 25  1  0
 25 26  1  0
 27 26  1  6
 27 28  1  0
 27 29  1  0
 29 30  1  0
 30 31  1  0
 31 32  1  0
 31 33  1  0
 23 34  2  0
 34 35  1  0
 35 36  2  0
 36 12  1  0
 18 13  1  0
 36 21  1  0
 33 27  1  0
  1 37  1  0
  1 38  1  0
  1 39  1  0
  2 40  1  0
  2 41  1  0
  3 42  1  0
  4 43  1  0
  4 44  1  0
  5 45  1  0
  5 46  1  0
  5 47  1  0
  6 48  1  0
  6 49  1  0
  7 50  1  0
  7 51  1  0
  9 52  1  0
  9 53  1  0
 10 54  1  0
 10 55  1  0
 11 56  1  0
 14 57  1  0
 15 58  1  0
 16 59  1  0
 17 60  1  0
 20 61  1  0
 20 62  1  0
 20 63  1  0
 22 64  1  0
 25 65  1  0
 25 66  1  0
 26 67  1  0
 26 68  1  0
 28 69  1  0
 28 70  1  0
 28 71  1  0
 29 72  1  0
 29 73  1  0
 30 74  1  0
 30 75  1  0
 31 76  1  6
 32 77  1  0
 32 78  1  0
 32 79  1  0
 33 80  1  0
 33 81  1  0
 34 82  1  0
 35 83  1  0
M  CHG  3   3   1  19   1  27   1
M  END
>  <UniqueID>  (28) 
26

>  <SMILES>  (28) 
CC[NH+](CC)CCOCCNc1c2ccccc2[n+](C)c2cc(OCC[N@@+]3(C)CC[C@H](C)C3)ccc12

>  <Energy>  (28) 
143.91356569221057

>  <Genealogy>  (28) 
CC[NH+](CC)CCOCCNc1c2ccccc2[n+](C)c2cc(OCC[N+]3(C)CCC(C)C3)ccc12 (protonated)
CC[NH+](CC)CCOCCNc1c2ccccc2[n+](C)c2cc(OCC[N@@+]3(C)CC[C@H](C)C3)ccc12 (chirality)
CC[NH+](CC)CCOCCNc1c2ccccc2[n+](C)c2cc(OCC[N@@+]3(C)CC[C@H](C)C3)ccc12 (3D coordinates assigned)
CC[NH+](CC)CCOCCNc1c2ccccc2[n+](C)c2cc(OCC[N@@+]3(C)CC[C@H](C)C3)ccc12 (nonaromatic ring conformer: 143.91356569221057 kcal/mol)

>  <smiles>  (28) 
CCN(CC)CCOCCNc1c2ccccc2[n+](C)c2cc(OCC[N+]3(C)CCC(C)C3)ccc12

>  <score_type>  (28) 
oracle

>  <origin>  (28) 
adg

>  <m_score__min__energy>  (28) 
-8.5600000000000005

>  <m_primary>  (28) 
energy

$$$$
28:0
     RDKit          3D

 54 56  0  0  0  0  0  0  0  0999 V2000
   -5.7700   14.4290  -34.1470 C   0  0  0  0  0  0  0  0  0  0  0  0
   -6.8330   15.5250  -34.2240 C   0  0  0  0  0  0  0  0  0  0  0  0
   -6.2910   16.8330  -33.7850 N   0  0  0  0  0  0  0  0  0  0  0  0
   -4.8110   16.8240  -33.7600 C   0  0  0  0  0  0  0  0  0  0  0  0
   -4.2590   17.5900  -34.9600 C   0  0  0  0  0  0  0  0  0  0  0  0
   -6.8510   17.2200  -32.4650 C   0  0  0  0  0  0  0  0  0  0  0  0
   -7.2760   18.6900  -32.4780 C   0  0  0  0  0  0  0  0  0  0  0  0
   -6.3560   19.4820  -33.2980 N   0  0  0  0  0  0  0  0  0  0  0  0
   -5.6510   20.6500  -32.8320 C   0  0  0  0  0  0  0  0  0  0  0  0
   -4.2580   20.7330  -32.9620 C   0  0  0  0  0  0  0  0  0  0  0  0
   -3.5790   21.8280  -32.4290 C   0  0  0  0  0  0  0  0  0  0  0  0
   -2.3270   21.9040  -32.5370 O   0  0  0  0  0  0  0  0  0  0  0  0
   -4.2410   22.7870  -31.7970 O   0  0  0  0  0  0  0  0  0  0  0  0
   -5.5610   22.7710  -31.6420 C   0  0  0  0  0  0  0  0  0  0  0  0
   -6.1920   23.8180  -30.9450 C   0  0  0  0  0  0  0  0  0  0  0  0
   -5.2380   25.1090  -30.2050 S   0  0  0  0  0  0  0  0  0  0  0  0
   -6.1050   26.2940  -29.8850 O   0  0  0  0  0  0  0  0  0  0  0  0
   -4.1680   25.5310  -31.1720 O   0  0  0  0  0  0  0  0  0  0  0  0
   -4.4980   24.5420  -28.7410 N   0  0  0  0  0  0  0  0  0  0  0  0
   -3.5730   23.4410  -28.6990 C   0  0  0  0  0  0  0  0  0  0  0  0
   -3.8830   22.3120  -27.9250 C   0  0  0  0  0  0  0  0  0  0  0  0
   -2.9880   21.2400  -27.8460 C   0  0  0  0  0  0  0  0  0  0  0  0
   -1.7800   21.2840  -28.5470 C   0  0  0  0  0  0  0  0  0  0  0  0
   -1.4680   22.3950  -29.3320 C   0  0  0  0  0  0  0  0  0  0  0  0
   -2.3600   23.4700  -29.4140 C   0  0  0  0  0  0  0  0  0  0  0  0
   -7.5850   23.8220  -30.8130 C   0  0  0  0  0  0  0  0  0  0  0  0
   -8.3490   22.7900  -31.3610 C   0  0  0  0  0  0  0  0  0  0  0  0
   -7.7300   21.7360  -32.0340 C   0  0  0  0  0  0  0  0  0  0  0  0
   -6.3280   21.7010  -32.1690 C   0  0  0  0  0  0  0  0  0  0  0  0
   -5.5514   14.2036  -33.0928 H   0  0  0  0  0  0  0  0  0  0  0  0
   -6.1416   13.5221  -34.6464 H   0  0  0  0  0  0  0  0  0  0  0  0
   -4.8521   14.7727  -34.6464 H   0  0  0  0  0  0  0  0  0  0  0  0
   -7.1826   15.6126  -35.2633 H   0  0  0  0  0  0  0  0  0  0  0  0
   -7.6629   15.2512  -33.5559 H   0  0  0  0  0  0  0  0  0  0  0  0
   -4.4603   17.3000  -32.8324 H   0  0  0  0  0  0  0  0  0  0  0  0
   -4.4575   15.7833  -33.8048 H   0  0  0  0  0  0  0  0  0  0  0  0
   -3.6499   18.4352  -34.6069 H   0  0  0  0  0  0  0  0  0  0  0  0
   -3.6360   16.9182  -35.5688 H   0  0  0  0  0  0  0  0  0  0  0  0
   -5.0934   17.9684  -35.5688 H   0  0  0  0  0  0  0  0  0  0  0  0
   -7.7261   16.5913  -32.2438 H   0  0  0  0  0  0  0  0  0  0  0  0
   -6.0797   17.0776  -31.6938 H   0  0  0  0  0  0  0  0  0  0  0  0
   -8.2915   18.7697  -32.8933 H   0  0  0  0  0  0  0  0  0  0  0  0
   -7.2567   19.0754  -31.4479 H   0  0  0  0  0  0  0  0  0  0  0  0
   -6.2450   19.1850  -34.2930 H   0  0  0  0  0  0  0  0  0  0  0  0
   -3.7031   19.9382  -33.4820 H   0  0  0  0  0  0  0  0  0  0  0  0
   -4.6210   25.1320  -27.8880 H   0  0  0  0  0  0  0  0  0  0  0  0
   -4.8359   22.2699  -27.3770 H   0  0  0  0  0  0  0  0  0  0  0  0
   -3.2353   20.3617  -27.2316 H   0  0  0  0  0  0  0  0  0  0  0  0
   -1.0746   20.4426  -28.4801 H   0  0  0  0  0  0  0  0  0  0  0  0
   -0.5190   22.4256  -29.8874 H   0  0  0  0  0  0  0  0  0  0  0  0
   -2.1129   24.3408  -30.0391 H   0  0  0  0  0  0  0  0  0  0  0  0
   -8.0809   24.6429  -30.2744 H   0  0  0  0  0  0  0  0  0  0  0  0
   -9.4444   22.8079  -31.2617 H   0  0  0  0  0  0  0  0  0  0  0  0
   -8.3406   20.9272  -32.4619 H   0  0  0  0  0  0  0  0  0  0  0  0
  1  2  1  0
  2  3  1  0
  3  4  1  0
  4  5  1  0
  3  6  1  0
  6  7  1  0
  7  8  1  0
  8  9  1  0
  9 10  2  0
 10 11  1  0
 11 12  2  0
 11 13  1  0
 13 14  1  0
 14 15  2  0
 15 16  1  0
 16 17  2  0
 16 18  2  0
 16 19  1  0
 19 20  1  0
 20 21  2  0
 21 22  1  0
 22 23  2  0
 23 24  1  0
 24 25  2  0
 15 26  1  0
 26 27  2  0
 27 28  1  0
 28 29  2  0
 29  9  1  0
 29 14  1  0
 25 20  1  0
  1 30  1  0
  1 31  1  0
  1 32  1  0
  2 33  1  0
  2 34  1  0
  4 35  1  0
  4 36  1  0
  5 37  1  0
  5 38  1  0
  5 39  1  0
  6 40  1  0
  6 41  1  0
  7 42  1  0
  7 43  1  0
  8 44  1  0
 10 45  1  0
 19 46  1  0
 21 47  1  0
 22 48  1  0
 23 49  1  0
 24 50  1  0
 25 51  1  0
 26 52  1  0
 27 53  1  0
 28 54  1  0
M  END
>  <UniqueID>  (29) 
27

>  <SMILES>  (29) 
CCN(CC)CCNc1cc(=O)oc2c(S(=O)(=O)Nc3ccccc3)cccc12

>  <Energy>  (29) 
62.98218734141626

>  <Genealogy>  (29) 
CCN(CC)CCNc1cc(=O)oc2c(S(=O)(=O)Nc3ccccc3)cccc12 (3D coordinates assigned)
CCN(CC)CCNc1cc(=O)oc2c(S(=O)(=O)Nc3ccccc3)cccc12 (optimized conformer: 62.98218734141626 kcal/mol)

>  <smiles>  (29) 
CCN(CC)CCNc1cc(=O)oc2c(S(=O)(=O)Nc3ccccc3)cccc12

>  <score_type>  (29) 
oracle

>  <origin>  (29) 
adg

>  <m_score__min__energy>  (29) 
-9.8200000000000003

>  <m_primary>  (29) 
energy

$$$$
29:0
     RDKit          3D

 47 49  0  0  0  0  0  0  0  0999 V2000
   -4.4610   19.1560  -33.4960 C   0  0  0  0  0  0  0  0  0  0  0  0
   -3.1670   19.8930  -33.3210 C   0  0  0  0  0  0  0  0  0  0  0  0
   -2.0780   19.6110  -34.1560 C   0  0  0  0  0  0  0  0  0  0  0  0
   -0.8640   20.2590  -33.9420 C   0  0  0  0  0  0  0  0  0  0  0  0
   -0.7320   21.1590  -32.8860 C   0  0  0  0  0  0  0  0  0  0  0  0
   -1.8280   21.4050  -32.0480 C   0  0  0  0  0  0  0  0  0  0  0  0
   -1.6730   22.2960  -30.8390 C   0  0  0  0  0  0  0  0  0  0  0  0
   -2.9560   22.4690  -30.1240 N   0  0  0  0  0  0  0  0  0  0  0  0
   -4.0030   23.2850  -30.6930 C   0  0  0  0  0  0  0  0  0  0  0  0
   -3.8200   24.5240  -30.8430 O   0  0  0  0  0  0  0  0  0  0  0  0
   -5.3000   22.7000  -31.0790 C   0  0  0  0  0  0  0  0  0  0  0  0
   -5.4260   21.4910  -31.5960 O   0  0  0  0  0  0  0  0  0  0  0  0
   -6.7040   21.2710  -31.7900 C   0  0  0  0  0  0  0  0  0  0  0  0
   -7.2970   20.1200  -32.3010 C   0  0  0  0  0  0  0  0  0  0  0  0
   -8.6990   20.0920  -32.4040 C   0  0  0  0  0  0  0  0  0  0  0  0
   -9.4680   21.2070  -31.9980 C   0  0  0  0  0  0  0  0  0  0  0  0
   -8.8410   22.3580  -31.4870 C   0  0  0  0  0  0  0  0  0  0  0  0
   -7.4480   22.3540  -31.3980 C   0  0  0  0  0  0  0  0  0  0  0  0
   -6.5540   23.2960  -30.9320 C   0  0  0  0  0  0  0  0  0  0  0  0
   -6.8600   24.6430  -30.3520 C   0  0  0  0  0  0  0  0  0  0  0  0
   -3.2100   21.7670  -28.8490 C   0  0  0  0  0  0  0  0  0  0  0  0
   -3.8540   22.7030  -27.8180 C   0  0  0  0  0  0  0  0  0  0  0  0
   -1.9270   21.1310  -28.3050 C   0  0  0  0  0  0  0  0  0  0  0  0
   -3.0180   20.7800  -32.2940 N   0  0  0  0  0  0  0  0  0  0  0  0
   -4.8826   18.9159  -32.5088 H   0  0  0  0  0  0  0  0  0  0  0  0
   -5.1693   19.7862  -34.0538 H   0  0  0  0  0  0  0  0  0  0  0  0
   -4.2803   18.2253  -34.0538 H   0  0  0  0  0  0  0  0  0  0  0  0
   -2.1810   18.8833  -34.9744 H   0  0  0  0  0  0  0  0  0  0  0  0
   -0.0098   20.0606  -34.6060 H   0  0  0  0  0  0  0  0  0  0  0  0
    0.2251   21.6723  -32.7117 H   0  0  0  0  0  0  0  0  0  0  0  0
   -0.9403   21.8444  -30.1540 H   0  0  0  0  0  0  0  0  0  0  0  0
   -1.3328   23.2847  -31.1807 H   0  0  0  0  0  0  0  0  0  0  0  0
   -6.6879   19.2593  -32.6144 H   0  0  0  0  0  0  0  0  0  0  0  0
   -9.2004   19.1977  -32.8026 H   0  0  0  0  0  0  0  0  0  0  0  0
  -10.5643   21.1742  -32.0823 H   0  0  0  0  0  0  0  0  0  0  0  0
   -9.4286   23.2316  -31.1684 H   0  0  0  0  0  0  0  0  0  0  0  0
   -6.8459   24.5811  -29.2538 H   0  0  0  0  0  0  0  0  0  0  0  0
   -6.1035   25.3674  -30.6882 H   0  0  0  0  0  0  0  0  0  0  0  0
   -7.8552   24.9695  -30.6882 H   0  0  0  0  0  0  0  0  0  0  0  0
   -3.9248   20.9549  -29.0480 H   0  0  0  0  0  0  0  0  0  0  0  0
   -3.6129   22.3525  -26.8036 H   0  0  0  0  0  0  0  0  0  0  0  0
   -3.4655   23.7229  -27.9556 H   0  0  0  0  0  0  0  0  0  0  0  0
   -4.9454   22.7047  -27.9556 H   0  0  0  0  0  0  0  0  0  0  0  0
   -1.9499   21.1423  -27.2053 H   0  0  0  0  0  0  0  0  0  0  0  0
   -1.8538   20.0923  -28.6595 H   0  0  0  0  0  0  0  0  0  0  0  0
   -1.0560   21.7017  -28.6595 H   0  0  0  0  0  0  0  0  0  0  0  0
   -3.8340   20.9680  -31.6690 H   0  0  0  0  0  0  0  0  0  0  0  0
  1  2  1  0
  2  3  2  0
  3  4  1  0
  4  5  2  0
  5  6  1  0
  6  7  1  0
  7  8  1  0
  8  9  1  0
  9 10  2  0
  9 11  1  0
 11 12  1  0
 12 13  1  0
 13 14  2  0
 14 15  1  0
 15 16  2  0
 16 17  1  0
 17 18  2  0
 18 19  1  0
 19 20  1  0
  8 21  1  0
 21 22  1  0
 21 23  1  0
  6 24  2  0
 24  2  1  0
 19 11  2  0
 18 13  1  0
  1 25  1  0
  1 26  1  0
  1 27  1  0
  3 28  1  0
  4 29  1  0
  5 30  1  0
  7 31  1  0
  7 32  1  0
 14 33  1  0
 15 34  1  0
 16 35  1  0
 17 36  1  0
 20 37  1  0
 20 38  1  0
 20 39  1  0
 21 40  1  0
 22 41  1  0
 22 42  1  0
 22 43  1  0
 23 44  1  0
 23 45  1  0
 23 46  1  0
 24 47  1  0
M  CHG  1  24   1
M  END
>  <UniqueID>  (30) 
28

>  <SMILES>  (30) 
Cc1cccc(CN(C(=O)c2oc3ccccc3c2C)C(C)C)[nH+]1

>  <Energy>  (30) 
78.12728952046308

>  <Genealogy>  (30) 
Cc1cccc(CN(C(=O)c2oc3ccccc3c2C)C(C)C)[nH+]1 (protonated)
Cc1cccc(CN(C(=O)c2oc3ccccc3c2C)C(C)C)[nH+]1 (3D coordinates assigned)
Cc1cccc(CN(C(=O)c2oc3ccccc3c2C)C(C)C)[nH+]1 (optimized conformer: 78.12728952046308 kcal/mol)

>  <smiles>  (30) 
Cc1cccc(CN(C(=O)c2oc3ccccc3c2C)C(C)C)n1

>  <score_type>  (30) 
oracle

>  <origin>  (30) 
adg

>  <m_score__min__energy>  (30) 
-7.3300000000000001

>  <m_primary>  (30) 
energy

$$$$
30:0
     RDKit          3D

 50 52  0  0  0  0  0  0  0  0999 V2000
   -3.4420   16.4660  -34.6860 C   0  0  0  0  0  0  0  0  0  0  0  0
   -4.6300   17.1760  -34.0860 C   0  0  0  0  0  0  0  0  0  0  0  0
   -4.5420   18.5440  -33.8050 C   0  0  0  0  0  0  0  0  0  0  0  0
   -5.6330   19.2690  -33.2640 C   0  0  0  0  0  0  0  0  0  0  0  0
   -5.5690   20.6780  -33.0520 C   0  0  0  0  0  0  0  0  0  0  0  0
   -4.3510   21.4150  -33.3750 N   0  0  0  0  0  0  0  0  0  0  0  0
   -3.4940   21.6730  -32.1970 C   0  0  0  0  0  0  0  0  0  0  0  0
   -1.9890   21.4490  -32.4520 C   0  0  0  0  0  0  0  0  0  0  0  0
   -1.7090   20.8940  -33.7950 N   0  0  0  0  0  0  0  0  0  0  0  0
   -1.4960   19.4350  -33.7500 C   0  0  0  0  0  0  0  0  0  0  0  0
   -0.5120   21.5410  -34.3590 C   0  0  0  0  0  0  0  0  0  0  0  0
   -6.7270   21.3420  -32.5500 C   0  0  0  0  0  0  0  0  0  0  0  0
   -6.7850   22.7530  -32.3940 C   0  0  0  0  0  0  0  0  0  0  0  0
   -7.9480   23.3860  -31.9620 C   0  0  0  0  0  0  0  0  0  0  0  0
   -9.0840   22.6450  -31.6870 C   0  0  0  0  0  0  0  0  0  0  0  0
   -9.0580   21.2600  -31.8120 C   0  0  0  0  0  0  0  0  0  0  0  0
   -7.8780   20.5770  -32.2060 C   0  0  0  0  0  0  0  0  0  0  0  0
   -7.8470   19.2000  -32.2720 N   0  0  0  0  0  0  0  0  0  0  0  0
   -8.9050   18.4050  -31.6060 C   0  0  0  0  0  0  0  0  0  0  0  0
   -6.8140   18.5610  -32.9240 C   0  0  0  0  0  0  0  0  0  0  0  0
   -6.9120   17.1930  -33.2810 C   0  0  0  0  0  0  0  0  0  0  0  0
   -5.8450   16.5030  -33.8660 C   0  0  0  0  0  0  0  0  0  0  0  0
   -6.0050   15.0440  -34.2080 C   0  0  0  0  0  0  0  0  0  0  0  0
   -2.7991   16.0818  -33.8803 H   0  0  0  0  0  0  0  0  0  0  0  0
   -3.7910   15.6283  -35.3076 H   0  0  0  0  0  0  0  0  0  0  0  0
   -2.8695   17.1702  -35.3076 H   0  0  0  0  0  0  0  0  0  0  0  0
   -3.5989   19.0718  -34.0099 H   0  0  0  0  0  0  0  0  0  0  0  0
   -3.7910   20.9800  -34.1350 H   0  0  0  0  0  0  0  0  0  0  0  0
   -4.6140   22.3280  -33.8080 H   0  0  0  0  0  0  0  0  0  0  0  0
   -3.6399   22.7179  -31.8858 H   0  0  0  0  0  0  0  0  0  0  0  0
   -3.7951   20.9530  -31.4218 H   0  0  0  0  0  0  0  0  0  0  0  0
   -1.4692   22.4136  -32.3555 H   0  0  0  0  0  0  0  0  0  0  0  0
   -1.6340   20.7170  -31.7116 H   0  0  0  0  0  0  0  0  0  0  0  0
   -1.4476   19.1037  -32.7022 H   0  0  0  0  0  0  0  0  0  0  0  0
   -2.3295   18.9269  -34.2571 H   0  0  0  0  0  0  0  0  0  0  0  0
   -0.5520   19.1864  -34.2571 H   0  0  0  0  0  0  0  0  0  0  0  0
    0.1353   21.8909  -33.5414 H   0  0  0  0  0  0  0  0  0  0  0  0
    0.0384   20.8175  -34.9784 H   0  0  0  0  0  0  0  0  0  0  0  0
   -0.8158   22.3978  -34.9784 H   0  0  0  0  0  0  0  0  0  0  0  0
   -5.8938   23.3574  -32.6188 H   0  0  0  0  0  0  0  0  0  0  0  0
   -7.9636   24.4790  -31.8389 H   0  0  0  0  0  0  0  0  0  0  0  0
  -10.0075   23.1514  -31.3696 H   0  0  0  0  0  0  0  0  0  0  0  0
   -9.9702   20.6825  -31.6013 H   0  0  0  0  0  0  0  0  0  0  0  0
   -8.7941   18.4883  -30.5148 H   0  0  0  0  0  0  0  0  0  0  0  0
   -9.8927   18.7862  -31.9044 H   0  0  0  0  0  0  0  0  0  0  0  0
   -8.8137   17.3502  -31.9044 H   0  0  0  0  0  0  0  0  0  0  0  0
   -7.8546   16.6582  -33.0926 H   0  0  0  0  0  0  0  0  0  0  0  0
   -6.0696   14.4551  -33.2812 H   0  0  0  0  0  0  0  0  0  0  0  0
   -6.9239   14.9039  -34.7962 H   0  0  0  0  0  0  0  0  0  0  0  0
   -5.1383   14.7081  -34.7962 H   0  0  0  0  0  0  0  0  0  0  0  0
  1  2  1  0
  2  3  2  0
  3  4  1  0
  4  5  2  0
  5  6  1  0
  6  7  1  0
  7  8  1  0
  8  9  1  0
  9 10  1  0
  9 11  1  0
  5 12  1  0
 12 13  2  0
 13 14  1  0
 14 15  2  0
 15 16  1  0
 16 17  2  0
 17 18  1  0
 18 19  1  0
 18 20  2  0
 20 21  1  0
 21 22  2  0
 22 23  1  0
 22  2  1  0
 20  4  1  0
 17 12  1  0
  1 24  1  0
  1 25  1  0
  1 26  1  0
  3 27  1  0
  6 28  1  0
  6 29  1  0
  7 30  1  0
  7 31  1  0
  8 32  1  0
  8 33  1  0
 10 34  1  0
 10 35  1  0
 10 36  1  0
 11 37  1  0
 11 38  1  0
 11 39  1  0
 13 40  1  0
 14 41  1  0
 15 42  1  0
 16 43  1  0
 19 44  1  0
 19 45  1  0
 19 46  1  0
 21 47  1  0
 23 48  1  0
 23 49  1  0
 23 50  1  0
M  CHG  2   6   1  18   1
M  END
>  <UniqueID>  (31) 
29

>  <SMILES>  (31) 
Cc1cc2c([NH2+]CCN(C)C)c3ccccc3[n+](C)c2cc1C

>  <Energy>  (31) 
80.9381427501881

>  <Genealogy>  (31) 
Cc1cc2c([NH2+]CCN(C)C)c3ccccc3[n+](C)c2cc1C (protonated)
Cc1cc2c([NH2+]CCN(C)C)c3ccccc3[n+](C)c2cc1C (3D coordinates assigned)
Cc1cc2c([NH2+]CCN(C)C)c3ccccc3[n+](C)c2cc1C (optimized conformer: 80.9381427501881 kcal/mol)

>  <smiles>  (31) 
Cc1cc2c(NCCN(C)C)c3ccccc3[n+](C)c2cc1C

>  <score_type>  (31) 
oracle

>  <origin>  (31) 
adg

>  <m_score__min__energy>  (31) 
-8.0999999999999996

>  <m_primary>  (31) 
energy

$$$$
31:0
     RDKit          3D

 36 38  0  0  0  0  0  0  0  0999 V2000
   -5.1610   16.0750  -34.5870 C   0  0  0  0  0  0  0  0  0  0  0  0
   -6.2560   15.8580  -33.7480 C   0  0  0  0  0  0  0  0  0  0  0  0
   -6.8580   16.9320  -33.0850 C   0  0  0  0  0  0  0  0  0  0  0  0
   -6.3650   18.2400  -33.2560 C   0  0  0  0  0  0  0  0  0  0  0  0
   -6.9930   19.3880  -32.5610 C   0  0  0  0  0  0  0  0  0  0  0  0
   -8.0800   19.2730  -31.7640 N   0  0  0  0  0  0  0  0  0  0  0  0
   -8.4700   20.4670  -31.2410 C   0  0  0  0  0  0  0  0  0  0  0  0
   -7.6820   21.5530  -31.6110 C   0  0  0  0  0  0  0  0  0  0  0  0
   -7.9050   22.9940  -31.2200 C   0  0  0  0  0  0  0  0  0  0  0  0
   -6.8520   23.5560  -30.3360 N   0  0  0  0  0  0  0  0  0  0  0  0
   -5.6880   22.6430  -30.1530 C   0  0  0  0  0  0  0  0  0  0  0  0
   -4.4450   23.1250  -30.9170 C   0  0  0  0  0  0  0  0  0  0  0  0
   -4.0240   24.4690  -30.4770 N   0  0  0  0  0  0  0  0  0  0  0  0
   -5.1410   25.3470  -30.0760 C   0  0  0  0  0  0  0  0  0  0  0  0
   -6.4680   24.9350  -30.7320 C   0  0  0  0  0  0  0  0  0  0  0  0
   -6.4820   20.9930  -32.6490 S   0  0  0  0  0  0  0  0  0  0  0  0
   -5.2610   18.4460  -34.1050 C   0  0  0  0  0  0  0  0  0  0  0  0
   -4.6640   17.3670  -34.7650 C   0  0  0  0  0  0  0  0  0  0  0  0
   -4.6903   15.2279  -35.1075 H   0  0  0  0  0  0  0  0  0  0  0  0
   -6.6462   14.8391  -33.6082 H   0  0  0  0  0  0  0  0  0  0  0  0
   -7.7210   16.7542  -32.4265 H   0  0  0  0  0  0  0  0  0  0  0  0
   -9.3412   20.5664  -30.5768 H   0  0  0  0  0  0  0  0  0  0  0  0
   -7.9430   23.5985  -32.1382 H   0  0  0  0  0  0  0  0  0  0  0  0
   -8.8452   23.0245  -30.6498 H   0  0  0  0  0  0  0  0  0  0  0  0
   -7.3040   23.6430  -29.3940 H   0  0  0  0  0  0  0  0  0  0  0  0
   -5.4458   22.5885  -29.0814 H   0  0  0  0  0  0  0  0  0  0  0  0
   -5.9673   21.6565  -30.5516 H   0  0  0  0  0  0  0  0  0  0  0  0
   -3.6213   22.4175  -30.7411 H   0  0  0  0  0  0  0  0  0  0  0  0
   -4.6971   23.1765  -31.9865 H   0  0  0  0  0  0  0  0  0  0  0  0
   -3.5120   24.9200  -31.2710 H   0  0  0  0  0  0  0  0  0  0  0  0
   -5.2558   25.2974  -28.9831 H   0  0  0  0  0  0  0  0  0  0  0  0
   -4.9033   26.3685  -30.4078 H   0  0  0  0  0  0  0  0  0  0  0  0
   -7.2574   25.6329  -30.4161 H   0  0  0  0  0  0  0  0  0  0  0  0
   -6.3427   24.9638  -31.8245 H   0  0  0  0  0  0  0  0  0  0  0  0
   -4.8654   19.4621  -34.2502 H   0  0  0  0  0  0  0  0  0  0  0  0
   -3.8011   17.5370  -35.4257 H   0  0  0  0  0  0  0  0  0  0  0  0
  1  2  2  0
  2  3  1  0
  3  4  2  0
  4  5  1  0
  5  6  2  0
  6  7  1  0
  7  8  2  0
  8  9  1  0
  9 10  1  0
 10 11  1  0
 11 12  1  0
 12 13  1  0
 13 14  1  0
 14 15  1  0
  8 16  1  0
  4 17  1  0
 17 18  2  0
 18  1  1  0
 16  5  1  0
 15 10  1  0
  1 19  1  0
  2 20  1  0
  3 21  1  0
  7 22  1  0
  9 23  1  0
  9 24  1  0
 10 25  1  0
 11 26  1  0
 11 27  1  0
 12 28  1  0
 12 29  1  0
 13 30  1  0
 14 31  1  0
 14 32  1  0
 15 33  1  0
 15 34  1  0
 17 35  1  0
 18 36  1  0
M  CHG  1  10   1
M  END
>  <UniqueID>  (32) 
30

>  <SMILES>  (32) 
c1ccc(-c2ncc(C[NH+]3CCNCC3)s2)cc1

>  <Energy>  (32) 
80.51409429215107

>  <Genealogy>  (32) 
c1ccc(-c2ncc(C[NH+]3CCNCC3)s2)cc1 (protonated)
c1ccc(-c2ncc(C[NH+]3CCNCC3)s2)cc1 (3D coordinates assigned)
c1ccc(-c2ncc(C[NH+]3CCNCC3)s2)cc1 (nonaromatic ring conformer: 80.51409429215107 kcal/mol)

>  <smiles>  (32) 
c1ccc(-c2ncc(CN3CCNCC3)s2)cc1

>  <score_type>  (32) 
oracle

>  <origin>  (32) 
adg

>  <m_score__min__energy>  (32) 
-6.7699999999999996

>  <m_primary>  (32) 
energy

$$$$
32:0
     RDKit          3D

 54 55  0  0  0  0  0  0  0  0999 V2000
   -2.7560   20.6260  -27.6820 C   0  0  0  0  0  0  0  0  0  0  0  0
   -3.0210   20.8030  -29.1770 C   0  0  0  0  0  0  0  0  0  0  0  0
   -2.7270   22.1840  -29.6320 N   0  0  0  0  0  0  0  0  0  0  0  0
   -1.3140   22.2790  -30.0690 C   0  0  0  0  0  0  0  0  0  0  0  0
   -0.7660   20.9040  -30.4370 C   0  0  0  0  0  0  0  0  0  0  0  0
   -3.0380   23.1910  -28.5780 C   0  0  0  0  0  0  0  0  0  0  0  0
   -3.1420   24.5970  -29.1800 C   0  0  0  0  0  0  0  0  0  0  0  0
   -3.8500   24.5590  -30.4650 N   0  0  0  0  0  0  0  0  0  0  0  0
   -5.1140   25.3010  -30.3770 C   0  0  0  0  0  0  0  0  0  0  0  0
   -6.2750   24.4420  -30.8940 C   0  0  0  0  0  0  0  0  0  0  0  0
   -5.8630   23.5440  -32.0690 C   0  0  0  0  0  0  0  0  0  0  0  0
   -5.3790   22.2760  -31.6220 O   0  0  0  0  0  0  0  0  0  0  0  0
   -4.5600   21.3990  -32.3560 C   0  0  0  0  0  0  0  0  0  0  0  0
   -3.2220   21.7160  -32.6700 C   0  0  0  0  0  0  0  0  0  0  0  0
   -2.4460   20.8400  -33.4310 C   0  0  0  0  0  0  0  0  0  0  0  0
   -2.9850   19.6370  -33.8810 C   0  0  0  0  0  0  0  0  0  0  0  0
   -4.3030   19.3000  -33.5670 C   0  0  0  0  0  0  0  0  0  0  0  0
   -5.1000   20.1690  -32.8000 C   0  0  0  0  0  0  0  0  0  0  0  0
   -6.5030   19.7890  -32.4960 C   0  0  0  0  0  0  0  0  0  0  0  0
   -7.5530   20.7060  -32.6830 C   0  0  0  0  0  0  0  0  0  0  0  0
   -8.8730   20.3350  -32.4050 C   0  0  0  0  0  0  0  0  0  0  0  0
   -9.1560   19.0530  -31.9310 C   0  0  0  0  0  0  0  0  0  0  0  0
   -8.1200   18.1390  -31.7260 C   0  0  0  0  0  0  0  0  0  0  0  0
   -6.7990   18.5050  -32.0000 C   0  0  0  0  0  0  0  0  0  0  0  0
   -3.5359   21.1469  -27.1072 H   0  0  0  0  0  0  0  0  0  0  0  0
   -2.7696   19.5550  -27.4315 H   0  0  0  0  0  0  0  0  0  0  0  0
   -1.7719   21.0487  -27.4315 H   0  0  0  0  0  0  0  0  0  0  0  0
   -2.3847   20.1014  -29.7363 H   0  0  0  0  0  0  0  0  0  0  0  0
   -4.0873   20.6040  -29.3598 H   0  0  0  0  0  0  0  0  0  0  0  0
   -1.2519   22.9386  -30.9471 H   0  0  0  0  0  0  0  0  0  0  0  0
   -0.7159   22.6862  -29.2405 H   0  0  0  0  0  0  0  0  0  0  0  0
   -0.5416   20.3410  -29.5190 H   0  0  0  0  0  0  0  0  0  0  0  0
   -1.5149   20.3572  -31.0287 H   0  0  0  0  0  0  0  0  0  0  0  0
    0.1537   21.0222  -31.0287 H   0  0  0  0  0  0  0  0  0  0  0  0
   -3.9952   22.9309  -28.1024 H   0  0  0  0  0  0  0  0  0  0  0  0
   -2.2265   23.1853  -27.8354 H   0  0  0  0  0  0  0  0  0  0  0  0
   -3.6911   25.2483  -28.4841 H   0  0  0  0  0  0  0  0  0  0  0  0
   -2.1270   24.9869  -29.3464 H   0  0  0  0  0  0  0  0  0  0  0  0
   -4.0910   23.5610  -30.6700 H   0  0  0  0  0  0  0  0  0  0  0  0
   -5.3029   25.5722  -29.3278 H   0  0  0  0  0  0  0  0  0  0  0  0
   -5.0389   26.2085  -30.9942 H   0  0  0  0  0  0  0  0  0  0  0  0
   -6.6359   23.8053  -30.0728 H   0  0  0  0  0  0  0  0  0  0  0  0
   -7.0610   25.1228  -31.2527 H   0  0  0  0  0  0  0  0  0  0  0  0
   -6.7365   23.3833  -32.7180 H   0  0  0  0  0  0  0  0  0  0  0  0
   -5.0519   24.0467  -32.6162 H   0  0  0  0  0  0  0  0  0  0  0  0
   -2.7866   22.6608  -32.3125 H   0  0  0  0  0  0  0  0  0  0  0  0
   -1.4058   21.1005  -33.6760 H   0  0  0  0  0  0  0  0  0  0  0  0
   -2.3716   18.9517  -34.4844 H   0  0  0  0  0  0  0  0  0  0  0  0
   -4.7217   18.3469  -33.9224 H   0  0  0  0  0  0  0  0  0  0  0  0
   -7.3352   21.7200  -33.0497 H   0  0  0  0  0  0  0  0  0  0  0  0
   -9.6897   21.0553  -32.5603 H   0  0  0  0  0  0  0  0  0  0  0  0
  -10.1955   18.7624  -31.7188 H   0  0  0  0  0  0  0  0  0  0  0  0
   -8.3438   17.1303  -31.3486 H   0  0  0  0  0  0  0  0  0  0  0  0
   -5.9855   17.7851  -31.8270 H   0  0  0  0  0  0  0  0  0  0  0  0
  1  2  1  0
  2  3  1  0
  3  4  1  0
  4  5  1  0
  3  6  1  0
  6  7  1  0
  7  8  1  0
  8  9  1  0
  9 10  1  0
 10 11  1  0
 11 12  1  0
 12 13  1  0
 13 14  2  0
 14 15  1  0
 15 16  2  0
 16 17  1  0
 17 18  2  0
 18 19  1  0
 19 20  2  0
 20 21  1  0
 21 22  2  0
 22 23  1  0
 23 24  2  0
 18 13  1  0
 24 19  1  0
  1 25  1  0
  1 26  1  0
  1 27  1  0
  2 28  1  0
  2 29  1  0
  4 30  1  0
  4 31  1  0
  5 32  1  0
  5 33  1  0
  5 34  1  0
  6 35  1  0
  6 36  1  0
  7 37  1  0
  7 38  1  0
  8 39  1  0
  9 40  1  0
  9 41  1  0
 10 42  1  0
 10 43  1  0
 11 44  1  0
 11 45  1  0
 14 46  1  0
 15 47  1  0
 16 48  1  0
 17 49  1  0
 20 50  1  0
 21 51  1  0
 22 52  1  0
 23 53  1  0
 24 54  1  0
M  END
>  <UniqueID>  (33) 
31

>  <SMILES>  (33) 
CCN(CC)CCNCCCOc1ccccc1-c1ccccc1

>  <Energy>  (33) 
49.31961646741839

>  <Genealogy>  (33) 
CCN(CC)CCNCCCOc1ccccc1-c1ccccc1 (3D coordinates assigned)
CCN(CC)CCNCCCOc1ccccc1-c1ccccc1 (optimized conformer: 49.31961646741839 kcal/mol)

>  <smiles>  (33) 
CCN(CC)CCNCCCOc1ccccc1-c1ccccc1

>  <score_type>  (33) 
oracle

>  <origin>  (33) 
adg

>  <m_score__min__energy>  (33) 
-7.8899999999999997

>  <m_primary>  (33) 
energy

$$$$
33:0
     RDKit          3D

 43 44  0  0  0  0  0  0  0  0999 V2000
   -6.7230   25.2220  -29.8330 C   0  0  0  0  0  0  0  0  0  0  0  0
   -5.5460   25.8640  -30.5730 C   0  0  0  0  0  0  0  0  0  0  0  0
   -4.2920   25.1160  -30.3990 N   0  0  0  0  0  0  0  0  0  0  0  0
   -4.4780   23.6680  -30.5670 C   0  0  0  0  0  0  0  0  0  0  0  0
   -3.4550   22.8990  -29.7260 C   0  0  0  0  0  0  0  0  0  0  0  0
   -2.0280   23.4220  -29.9420 C   0  0  0  0  0  0  0  0  0  0  0  0
   -1.8480   24.6740  -29.2810 O   0  0  0  0  0  0  0  0  0  0  0  0
   -1.3450   24.8460  -27.9800 C   0  0  0  0  0  0  0  0  0  0  0  0
   -1.5170   23.8930  -26.9670 C   0  0  0  0  0  0  0  0  0  0  0  0
   -0.9870   24.1130  -25.6980 C   0  0  0  0  0  0  0  0  0  0  0  0
   -0.2640   25.2840  -25.3960 C   0  0  0  0  0  0  0  0  0  0  0  0
   -0.1250   26.2810  -26.4130 C   0  0  0  0  0  0  0  0  0  0  0  0
   -0.6530   26.0230  -27.6930 C   0  0  0  0  0  0  0  0  0  0  0  0
    0.6640   27.5710  -26.2550 C   0  0  0  0  0  0  0  0  0  0  0  0
    0.6500   28.1550  -24.8400 C   0  0  0  0  0  0  0  0  0  0  0  0
   -0.6340   27.8060  -24.0790 C   0  0  0  0  0  0  0  0  0  0  0  0
   -0.5360   26.4930  -23.2880 C   0  0  0  0  0  0  0  0  0  0  0  0
    0.2050   25.4610  -24.0330 N   0  0  0  0  0  0  0  0  0  0  0  0
   -6.5649   25.3083  -28.7479 H   0  0  0  0  0  0  0  0  0  0  0  0
   -7.6549   25.7368  -30.1098 H   0  0  0  0  0  0  0  0  0  0  0  0
   -6.7947   24.1598  -30.1098 H   0  0  0  0  0  0  0  0  0  0  0  0
   -5.7851   25.9058  -31.6459 H   0  0  0  0  0  0  0  0  0  0  0  0
   -5.3956   26.8686  -30.1510 H   0  0  0  0  0  0  0  0  0  0  0  0
   -3.9050   25.3040  -29.4420 H   0  0  0  0  0  0  0  0  0  0  0  0
   -5.4930   23.3928  -30.2445 H   0  0  0  0  0  0  0  0  0  0  0  0
   -4.3360   23.4099  -31.6268 H   0  0  0  0  0  0  0  0  0  0  0  0
   -3.7160   23.0062  -28.6628 H   0  0  0  0  0  0  0  0  0  0  0  0
   -3.4823   21.8441  -30.0364 H   0  0  0  0  0  0  0  0  0  0  0  0
   -1.3104   22.6929  -29.5376 H   0  0  0  0  0  0  0  0  0  0  0  0
   -1.8603   23.5621  -31.0201 H   0  0  0  0  0  0  0  0  0  0  0  0
   -2.0731   22.9670  -27.1751 H   0  0  0  0  0  0  0  0  0  0  0  0
   -1.1361   23.3558  -24.9142 H   0  0  0  0  0  0  0  0  0  0  0  0
   -0.5160   26.7702  -28.4885 H   0  0  0  0  0  0  0  0  0  0  0  0
    1.7091   27.3707  -26.5336 H   0  0  0  0  0  0  0  0  0  0  0  0
    0.1803   28.3149  -26.9051 H   0  0  0  0  0  0  0  0  0  0  0  0
    1.5106   27.7550  -24.2838 H   0  0  0  0  0  0  0  0  0  0  0  0
    0.7020   29.2503  -24.9276 H   0  0  0  0  0  0  0  0  0  0  0  0
   -0.8547   28.6217  -23.3748 H   0  0  0  0  0  0  0  0  0  0  0  0
   -1.4299   27.6760  -24.8271 H   0  0  0  0  0  0  0  0  0  0  0  0
   -0.0176   26.6875  -22.3375 H   0  0  0  0  0  0  0  0  0  0  0  0
   -1.5566   26.1221  -23.1123 H   0  0  0  0  0  0  0  0  0  0  0  0
    0.1880   24.5410  -23.5360 H   0  0  0  0  0  0  0  0  0  0  0  0
    1.2070   25.7650  -24.0470 H   0  0  0  0  0  0  0  0  0  0  0  0
  1  2  1  0
  2  3  1  0
  3  4  1  0
  4  5  1  0
  5  6  1  0
  6  7  1  0
  7  8  1  0
  8  9  2  0
  9 10  1  0
 10 11  2  0
 11 12  1  0
 12 13  2  0
 12 14  1  0
 14 15  1  0
 15 16  1  0
 16 17  1  0
 17 18  1  0
 13  8  1  0
 18 11  1  0
  1 19  1  0
  1 20  1  0
  1 21  1  0
  2 22  1  0
  2 23  1  0
  3 24  1  0
  4 25  1  0
  4 26  1  0
  5 27  1  0
  5 28  1  0
  6 29  1  0
  6 30  1  0
  9 31  1  0
 10 32  1  0
 13 33  1  0
 14 34  1  0
 14 35  1  0
 15 36  1  0
 15 37  1  0
 16 38  1  0
 16 39  1  0
 17 40  1  0
 17 41  1  0
 18 42  1  0
 18 43  1  0
M  CHG  1  18   1
M  END
>  <UniqueID>  (34) 
32

>  <SMILES>  (34) 
CCNCCCOc1ccc2c(c1)CCCC[NH2+]2

>  <Energy>  (34) 
46.00379910615302

>  <Genealogy>  (34) 
CCNCCCOc1ccc2c(c1)CCCC[NH2+]2 (protonated)
CCNCCCOc1ccc2c(c1)CCCC[NH2+]2 (3D coordinates assigned)
CCNCCCOc1ccc2c(c1)CCCC[NH2+]2 (nonaromatic ring conformer: 46.00379910615302 kcal/mol)

>  <smiles>  (34) 
CCNCCCOc1ccc2c(c1)CCCCN2

>  <score_type>  (34) 
oracle

>  <origin>  (34) 
adg

>  <m_score__min__energy>  (34) 
-5.5999999999999996

>  <m_primary>  (34) 
energy

$$$$
34:0
     RDKit          3D

 46 49  0  0  0  0  0  0  0  0999 V2000
   -5.6590   15.2300  -33.8270 C   0  0  0  0  0  0  0  0  0  0  0  0
   -4.6140   16.2990  -33.6830 C   0  0  0  0  0  0  0  0  0  0  0  0
   -3.4770   16.1990  -34.4250 N   0  0  0  0  0  0  0  0  0  0  0  0
   -2.4820   17.1220  -34.3580 C   0  0  0  0  0  0  0  0  0  0  0  0
   -2.6060   18.2190  -33.5070 C   0  0  0  0  0  0  0  0  0  0  0  0
   -3.7560   18.3560  -32.7320 C   0  0  0  0  0  0  0  0  0  0  0  0
   -4.7800   17.3990  -32.8070 C   0  0  0  0  0  0  0  0  0  0  0  0
   -6.0270   17.5740  -31.9690 C   0  0  0  0  0  0  0  0  0  0  0  0
   -7.1650   17.9910  -32.8170 N   0  0  0  0  0  0  0  0  0  0  0  0
   -6.7740   19.0000  -33.8390 C   0  0  0  0  0  0  0  0  0  0  0  0
   -7.2520   20.4350  -33.5330 C   0  0  0  0  0  0  0  0  0  0  0  0
   -7.3350   20.6600  -32.0880 N   0  0  0  0  0  0  0  0  0  0  0  0
   -6.8060   21.8610  -31.5080 C   0  0  0  0  0  0  0  0  0  0  0  0
   -7.6290   22.6230  -30.6350 C   0  0  0  0  0  0  0  0  0  0  0  0
   -7.1420   23.7930  -30.0240 C   0  0  0  0  0  0  0  0  0  0  0  0
   -5.8350   24.1620  -30.3100 C   0  0  0  0  0  0  0  0  0  0  0  0
   -5.1280   25.2070  -29.8660 N   0  0  0  0  0  0  0  0  0  0  0  0
   -3.9530   25.1040  -30.4300 O   0  0  0  0  0  0  0  0  0  0  0  0
   -3.8400   24.0600  -31.2160 N   0  0  0  0  0  0  0  0  0  0  0  0
   -5.0380   23.4500  -31.1470 C   0  0  0  0  0  0  0  0  0  0  0  0
   -5.4790   22.2900  -31.7910 C   0  0  0  0  0  0  0  0  0  0  0  0
   -4.5700   21.5240  -32.7120 C   0  0  0  0  0  0  0  0  0  0  0  0
   -8.0430   19.7010  -31.2380 C   0  0  0  0  0  0  0  0  0  0  0  0
   -8.3320   18.4070  -32.0120 C   0  0  0  0  0  0  0  0  0  0  0  0
   -5.9836   14.8979  -32.8298 H   0  0  0  0  0  0  0  0  0  0  0  0
   -6.5216   15.6324  -34.3783 H   0  0  0  0  0  0  0  0  0  0  0  0
   -5.2371   14.3767  -34.3783 H   0  0  0  0  0  0  0  0  0  0  0  0
   -1.5791   17.0035  -34.9750 H   0  0  0  0  0  0  0  0  0  0  0  0
   -1.8038   18.9693  -33.4478 H   0  0  0  0  0  0  0  0  0  0  0  0
   -3.8618   19.2188  -32.0579 H   0  0  0  0  0  0  0  0  0  0  0  0
   -6.2709   16.6199  -31.4789 H   0  0  0  0  0  0  0  0  0  0  0  0
   -5.8422   18.3514  -31.2131 H   0  0  0  0  0  0  0  0  0  0  0  0
   -5.6763   19.0107  -33.9097 H   0  0  0  0  0  0  0  0  0  0  0  0
   -7.2611   18.7003  -34.7786 H   0  0  0  0  0  0  0  0  0  0  0  0
   -6.5412   21.1523  -33.9692 H   0  0  0  0  0  0  0  0  0  0  0  0
   -8.2525   20.5732  -33.9688 H   0  0  0  0  0  0  0  0  0  0  0  0
   -8.6593   22.2939  -30.4346 H   0  0  0  0  0  0  0  0  0  0  0  0
   -7.7710   24.3905  -29.3477 H   0  0  0  0  0  0  0  0  0  0  0  0
   -5.4290   25.9590  -29.2070 H   0  0  0  0  0  0  0  0  0  0  0  0
   -3.8626   20.9279  -32.1168 H   0  0  0  0  0  0  0  0  0  0  0  0
   -5.1700   20.8551  -33.3465 H   0  0  0  0  0  0  0  0  0  0  0  0
   -4.0125   22.2287  -33.3465 H   0  0  0  0  0  0  0  0  0  0  0  0
   -7.4216   19.4671  -30.3610 H   0  0  0  0  0  0  0  0  0  0  0  0
   -8.9974   20.1453  -30.9191 H   0  0  0  0  0  0  0  0  0  0  0  0
   -8.5766   17.6084  -31.2962 H   0  0  0  0  0  0  0  0  0  0  0  0
   -9.1759   18.5910  -32.6932 H   0  0  0  0  0  0  0  0  0  0  0  0
  1  2  1  0
  2  3  2  0
  3  4  1  0
  4  5  2  0
  5  6  1  0
  6  7  2  0
  7  8  1  0
  8  9  1  0
  9 10  1  0
 10 11  1  0
 11 12  1  0
 12 13  1  0
 13 14  1  0
 14 15  2  0
 15 16  1  0
 16 17  2  0
 17 18  1  0
 18 19  1  0
 19 20  2  0
 20 21  1  0
 21 22  1  0
 12 23  1  0
 23 24  1  0
  7  2  1  0
 24  9  1  0
 21 13  2  0
 20 16  1  0
  1 25  1  0
  1 26  1  0
  1 27  1  0
  4 28  1  0
  5 29  1  0
  6 30  1  0
  8 31  1  0
  8 32  1  0
 10 33  1  0
 10 34  1  0
 11 35  1  0
 11 36  1  0
 14 37  1  0
 15 38  1  0
 17 39  1  0
 22 40  1  0
 22 41  1  0
 22 42  1  0
 23 43  1  0
 23 44  1  0
 24 45  1  0
 24 46  1  0
M  CHG  1  17   1
M  END
>  <UniqueID>  (35) 
33

>  <SMILES>  (35) 
Cc1ncccc1CN1CCN(c2ccc3[nH+]onc3c2C)CC1

>  <Energy>  (35) 
106.46330405181351

>  <Genealogy>  (35) 
Cc1ncccc1CN1CCN(c2ccc3[nH+]onc3c2C)CC1 (protonated)
Cc1ncccc1CN1CCN(c2ccc3[nH+]onc3c2C)CC1 (3D coordinates assigned)
Cc1ncccc1CN1CCN(c2ccc3[nH+]onc3c2C)CC1 (nonaromatic ring conformer: 106.46330405181351 kcal/mol)

>  <smiles>  (35) 
Cc1ncccc1CN1CCN(c2ccc3nonc3c2C)CC1

>  <score_type>  (35) 
oracle

>  <origin>  (35) 
adg

>  <m_score__min__energy>  (35) 
-8.1500000000000004

>  <m_primary>  (35) 
energy

$$$$
