0:0
     RDKit          3D

 45 47  0  0  0  0  0  0  0  0999 V2000
   -5.7590   18.6590  -34.8570 C   0  0  0  0  0  0  0  0  0  0  0  0
   -6.3490   18.4660  -33.4610 C   0  0  0  0  0  0  0  0  0  0  0  0
   -6.6300   19.8030  -32.7930 C   0  0  0  0  0  0  0  0  0  0  0  0
   -7.9630   20.1660  -32.4180 C   0  0  0  0  0  0  0  0  0  0  0  0
   -9.1350   19.2550  -32.6780 C   0  0  0  0  0  0  0  0  0  0  0  0
   -8.2060   21.3880  -31.8520 N   0  0  0  0  0  0  0  0  0  0  0  0
   -7.1780   22.2370  -31.6350 C   0  0  0  0  0  0  0  0  0  0  0  0
   -7.2290   23.5120  -31.1200 C   0  0  0  0  0  0  0  0  0  0  0  0
   -5.8970   23.9110  -31.1580 C   0  0  0  0  0  0  0  0  0  0  0  0
   -5.3770   25.2630  -30.7660 C   0  0  0  0  0  0  0  0  0  0  0  0
   -3.9350   25.2410  -30.4650 N   0  0  0  0  0  0  0  0  0  0  0  0
   -3.6170   24.5690  -29.1940 C   0  0  0  0  0  0  0  0  0  0  0  0
   -2.9230   23.2530  -29.4310 C   0  0  0  0  0  0  0  0  0  0  0  0
   -3.5120   22.0510  -29.0050 C   0  0  0  0  0  0  0  0  0  0  0  0
   -2.8540   20.8340  -29.2100 C   0  0  0  0  0  0  0  0  0  0  0  0
   -1.6050   20.8100  -29.8390 C   0  0  0  0  0  0  0  0  0  0  0  0
   -0.9680   19.6300  -30.0360 F   0  0  0  0  0  0  0  0  0  0  0  0
   -1.0130   22.0040  -30.2620 C   0  0  0  0  0  0  0  0  0  0  0  0
   -1.6680   23.2220  -30.0590 C   0  0  0  0  0  0  0  0  0  0  0  0
   -5.1190   22.9310  -31.6730 N   0  0  0  0  0  0  0  0  0  0  0  0
   -5.9210   21.9150  -31.9510 N   0  0  0  0  0  0  0  0  0  0  0  0
   -5.5750   20.7210  -32.5040 C   0  0  0  0  0  0  0  0  0  0  0  0
   -4.1280   20.4600  -32.8660 C   0  0  0  0  0  0  0  0  0  0  0  0
   -3.4770   19.8130  -31.8320 F   0  0  0  0  0  0  0  0  0  0  0  0
   -3.4970   21.6640  -33.1160 F   0  0  0  0  0  0  0  0  0  0  0  0
   -4.7167   18.9999  -34.7706 H   0  0  0  0  0  0  0  0  0  0  0  0
   -5.7885   17.7044  -35.4027 H   0  0  0  0  0  0  0  0  0  0  0  0
   -6.3470   19.4116  -35.4027 H   0  0  0  0  0  0  0  0  0  0  0  0
   -7.2895   17.9016  -33.5439 H   0  0  0  0  0  0  0  0  0  0  0  0
   -5.6197   17.9166  -32.8476 H   0  0  0  0  0  0  0  0  0  0  0  0
   -9.5614   18.9235  -31.7197 H   0  0  0  0  0  0  0  0  0  0  0  0
   -9.9007   19.7974  -33.2520 H   0  0  0  0  0  0  0  0  0  0  0  0
   -8.7983   18.3791  -33.2520 H   0  0  0  0  0  0  0  0  0  0  0  0
   -9.1770   21.6820  -31.5970 H   0  0  0  0  0  0  0  0  0  0  0  0
   -8.1050   24.0754  -30.7663 H   0  0  0  0  0  0  0  0  0  0  0  0
   -5.5549   25.9644  -31.5945 H   0  0  0  0  0  0  0  0  0  0  0  0
   -5.9066   25.5762  -29.8542 H   0  0  0  0  0  0  0  0  0  0  0  0
   -3.4390   24.7370  -31.2370 H   0  0  0  0  0  0  0  0  0  0  0  0
   -2.9588   25.2195  -28.5993 H   0  0  0  0  0  0  0  0  0  0  0  0
   -4.5579   24.3745  -28.6584 H   0  0  0  0  0  0  0  0  0  0  0  0
   -4.4936   22.0670  -28.5087 H   0  0  0  0  0  0  0  0  0  0  0  0
   -3.3192   19.8948  -28.8762 H   0  0  0  0  0  0  0  0  0  0  0  0
   -0.0301   21.9848  -30.7554 H   0  0  0  0  0  0  0  0  0  0  0  0
   -1.1985   24.1592  -30.3924 H   0  0  0  0  0  0  0  0  0  0  0  0
   -4.0967   19.8211  -33.7609 H   0  0  0  0  0  0  0  0  0  0  0  0
  1  2  1  0
  2  3  1  0
  3  4  1  0
  4  5  1  0
  4  6  2  0
  6  7  1  0
  7  8  2  0
  8  9  1  0
  9 10  1  0
 10 11  1  0
 11 12  1  0
 12 13  1  0
 13 14  2  0
 14 15  1  0
 15 16  2  0
 16 17  1  0
 16 18  1  0
 18 19  2  0
  9 20  2  0
 20 21  1  0
 21 22  1  0
 22 23  1  0
 23 24  1  0
 23 25  1  0
 22  3  2  0
 21  7  1  0
 19 13  1  0
  1 26  1  0
  1 27  1  0
  1 28  1  0
  2 29  1  0
  2 30  1  0
  5 31  1  0
  5 32  1  0
  5 33  1  0
  6 34  1  0
  8 35  1  0
 10 36  1  0
 10 37  1  0
 11 38  1  0
 12 39  1  0
 12 40  1  0
 14 41  1  0
 15 42  1  0
 18 43  1  0
 19 44  1  0
 23 45  1  0
M  CHG  1   6   1
M  END
>  <UniqueID>  (1) 
1

>  <SMILES>  (1) 
CCc1c(C)[nH+]c2cc(CNCc3ccc(F)cc3)nn2c1C(F)F

>  <Energy>  (1) 
82.49619516270002

>  <Genealogy>  (1) 
CCc1c(C)[nH+]c2cc(CNCc3ccc(F)cc3)nn2c1C(F)F (protonated)
CCc1c(C)[nH+]c2cc(CNCc3ccc(F)cc3)nn2c1C(F)F (3D coordinates assigned)
CCc1c(C)[nH+]c2cc(CNCc3ccc(F)cc3)nn2c1C(F)F (optimized conformer: 82.49619516270002 kcal/mol)

>  <smiles>  (1) 
CCc1c(C)nc2cc(CNCc3ccc(F)cc3)nn2c1C(F)F

>  <score_type>  (1) 
oracle

>  <origin>  (1) 
adg

>  <m_score__min__energy>  (1) 
-7.4800000000000004

>  <m_primary>  (1) 
energy

$$$$
1:0
     RDKit          3D

 55 59  0  0  0  0  0  0  0  0999 V2000
   -5.8210   16.7180  -31.7140 C   0  0  0  0  0  0  0  0  0  0  0  0
   -6.0040   17.7140  -32.7670 N   0  0  0  0  0  0  0  0  0  0  0  0
   -6.9410   18.6850  -32.8260 C   0  0  0  0  0  0  0  0  0  0  0  0
   -8.1860   18.9880  -31.5710 S   0  0  0  0  0  0  0  0  0  0  0  0
   -9.1980   20.0410  -32.6650 C   0  0  0  0  0  0  0  0  0  0  0  0
   -9.5210   21.3560  -31.9550 C   0  0  0  0  0  0  0  0  0  0  0  0
   -8.5100   21.7430  -30.8420 C   0  0  0  0  0  0  0  0  0  0  0  0
   -7.8340   23.0550  -30.9900 N   0  0  0  0  0  0  0  0  0  0  0  0
   -7.2050   23.5670  -29.7610 C   0  0  0  0  0  0  0  0  0  0  0  0
   -5.6990   23.6230  -29.9830 C   0  0  2  0  0  0  0  0  0  0  0  0
   -5.2000   24.7460  -30.8840 C   0  0  0  0  0  0  0  0  0  0  0  0
   -5.4860   23.3640  -31.4580 C   0  0  1  0  0  0  0  0  0  0  0  0
   -4.2910   22.5450  -31.8760 C   0  0  0  0  0  0  0  0  0  0  0  0
   -4.3550   21.7970  -33.0590 C   0  0  0  0  0  0  0  0  0  0  0  0
   -3.2760   20.9990  -33.4500 C   0  0  0  0  0  0  0  0  0  0  0  0
   -2.1250   20.9320  -32.6580 C   0  0  0  0  0  0  0  0  0  0  0  0
   -0.7870   19.9170  -33.1800 Cl  0  0  0  0  0  0  0  0  0  0  0  0
   -2.0560   21.6710  -31.4650 C   0  0  0  0  0  0  0  0  0  0  0  0
   -0.6340   21.6120  -30.4330 Cl  0  0  0  0  0  0  0  0  0  0  0  0
   -3.1390   22.4690  -31.0770 C   0  0  0  0  0  0  0  0  0  0  0  0
   -6.8540   23.1330  -32.0840 C   0  0  0  0  0  0  0  0  0  0  0  0
   -6.8290   19.4240  -33.9470 N   0  0  0  0  0  0  0  0  0  0  0  0
   -5.8010   18.9240  -34.6130 N   0  0  0  0  0  0  0  0  0  0  0  0
   -5.2880   17.9050  -33.8980 C   0  0  0  0  0  0  0  0  0  0  0  0
   -4.1060   17.1220  -34.3230 C   0  0  0  0  0  0  0  0  0  0  0  0
   -4.2300   15.7430  -34.5600 C   0  0  0  0  0  0  0  0  0  0  0  0
   -3.1250   14.9960  -34.9790 C   0  0  0  0  0  0  0  0  0  0  0  0
   -1.8910   15.6220  -35.1760 C   0  0  0  0  0  0  0  0  0  0  0  0
   -1.7630   16.9960  -34.9610 C   0  0  0  0  0  0  0  0  0  0  0  0
   -2.8660   17.7460  -34.5410 C   0  0  0  0  0  0  0  0  0  0  0  0
   -5.9102   17.2032  -30.7308 H   0  0  0  0  0  0  0  0  0  0  0  0
   -6.5909   15.9381  -31.8092 H   0  0  0  0  0  0  0  0  0  0  0  0
   -4.8242   16.2627  -31.8092 H   0  0  0  0  0  0  0  0  0  0  0  0
   -8.6401   20.2514  -33.5894 H   0  0  0  0  0  0  0  0  0  0  0  0
  -10.1344   19.5189  -32.9111 H   0  0  0  0  0  0  0  0  0  0  0  0
   -9.5320   22.1598  -32.7058 H   0  0  0  0  0  0  0  0  0  0  0  0
  -10.4954   21.2189  -31.4634 H   0  0  0  0  0  0  0  0  0  0  0  0
   -9.0532   21.7528  -29.8855 H   0  0  0  0  0  0  0  0  0  0  0  0
   -7.7076   20.9931  -30.9036 H   0  0  0  0  0  0  0  0  0  0  0  0
   -7.5863   24.5749  -29.5399 H   0  0  0  0  0  0  0  0  0  0  0  0
   -7.4390   22.9078  -28.9121 H   0  0  0  0  0  0  0  0  0  0  0  0
   -5.3419   23.2599  -29.0080 H   0  0  0  0  0  0  0  0  0  0  0  0
   -5.8599   25.5916  -31.1279 H   0  0  0  0  0  0  0  0  0  0  0  0
   -4.3348   25.4252  -30.8784 H   0  0  0  0  0  0  0  0  0  0  0  0
   -5.2595   21.8380  -33.6836 H   0  0  0  0  0  0  0  0  0  0  0  0
   -3.3323   20.4213  -34.3844 H   0  0  0  0  0  0  0  0  0  0  0  0
   -3.0869   23.0409  -30.1388 H   0  0  0  0  0  0  0  0  0  0  0  0
   -7.1057   23.9677  -32.7548 H   0  0  0  0  0  0  0  0  0  0  0  0
   -6.8579   22.2048  -32.6742 H   0  0  0  0  0  0  0  0  0  0  0  0
   -5.4510   19.2960  -35.5240 H   0  0  0  0  0  0  0  0  0  0  0  0
   -5.2017   15.2482  -34.4152 H   0  0  0  0  0  0  0  0  0  0  0  0
   -3.2269   13.9148  -35.1538 H   0  0  0  0  0  0  0  0  0  0  0  0
   -1.0207   15.0326  -35.5003 H   0  0  0  0  0  0  0  0  0  0  0  0
   -0.7930   17.4890  -35.1223 H   0  0  0  0  0  0  0  0  0  0  0  0
   -2.7625   18.8293  -34.3806 H   0  0  0  0  0  0  0  0  0  0  0  0
  1  2  1  0
  2  3  1  0
  3  4  1  0
  4  5  1  0
  5  6  1  0
  6  7  1  0
  7  8  1  0
  8  9  1  0
  9 10  1  0
 10 11  1  0
 11 12  1  0
 12 13  1  1
 13 14  2  0
 14 15  1  0
 15 16  2  0
 16 17  1  0
 16 18  1  0
 18 19  1  0
 18 20  2  0
 12 21  1  0
  3 22  2  0
 22 23  1  0
 23 24  2  0
 24 25  1  0
 25 26  2  0
 26 27  1  0
 27 28  2  0
 28 29  1  0
 29 30  2  0
 24  2  1  0
 30 25  1  0
 21  8  1  0
 12 10  1  0
 20 13  1  0
  1 31  1  0
  1 32  1  0
  1 33  1  0
  5 34  1  0
  5 35  1  0
  6 36  1  0
  6 37  1  0
  7 38  1  0
  7 39  1  0
  9 40  1  0
  9 41  1  0
 10 42  1  1
 11 43  1  0
 11 44  1  0
 14 45  1  0
 15 46  1  0
 20 47  1  0
 21 48  1  0
 21 49  1  0
 23 50  1  0
 26 51  1  0
 27 52  1  0
 28 53  1  0
 29 54  1  0
 30 55  1  0
M  CHG  1  23   1
M  END
>  <UniqueID>  (2) 
2

>  <SMILES>  (2) 
Cn1c(SCCCN2C[C@@H]3C[C@]3(c3ccc(Cl)c(Cl)c3)C2)n[nH+]c1-c1ccccc1

>  <Energy>  (2) 
369.9359233784621

>  <Genealogy>  (2) 
Cn1c(SCCCN2CC3CC3(c3ccc(Cl)c(Cl)c3)C2)n[nH+]c1-c1ccccc1 (protonated)
Cn1c(SCCCN2C[C@@H]3C[C@]3(c3ccc(Cl)c(Cl)c3)C2)n[nH+]c1-c1ccccc1 (chirality)
Cn1c(SCCCN2C[C@@H]3C[C@]3(c3ccc(Cl)c(Cl)c3)C2)n[nH+]c1-c1ccccc1 (3D coordinates assigned)
Cn1c(SCCCN2C[C@@H]3C[C@]3(c3ccc(Cl)c(Cl)c3)C2)n[nH+]c1-c1ccccc1 (nonaromatic ring conformer: 369.9359233784621 kcal/mol)

>  <smiles>  (2) 
Cn1c(SCCCN2CC3CC3(c3ccc(Cl)c(Cl)c3)C2)nnc1-c1ccccc1

>  <score_type>  (2) 
oracle

>  <origin>  (2) 
adg

>  <m_score__min__energy>  (2) 
-9.2899999999999991

>  <m_primary>  (2) 
energy

$$$$
2:0
     RDKit          3D

 36 37  0  0  0  0  0  0  0  0999 V2000
   -6.3100   25.1110  -29.7260 C   0  0  0  0  0  0  0  0  0  0  0  0
   -5.3590   25.6060  -30.8190 C   0  0  0  0  0  0  0  0  0  0  0  0
   -4.0660   24.9070  -30.8020 N   0  0  0  0  0  0  0  0  0  0  0  0
   -3.8330   24.1950  -29.5380 C   0  0  0  0  0  0  0  0  0  0  0  0
   -2.5710   23.3340  -29.6450 C   0  0  0  0  0  0  0  0  0  0  0  0
   -2.4440   22.7500  -30.9800 N   0  0  0  0  0  0  0  0  0  0  0  0
   -3.5010   22.0980  -31.7020 C   0  0  0  0  0  0  0  0  0  0  0  0
   -4.7630   22.1870  -31.3520 O   0  0  0  0  0  0  0  0  0  0  0  0
   -5.4630   21.4730  -32.2100 C   0  0  0  0  0  0  0  0  0  0  0  0
   -6.9360   21.3320  -32.1390 C   0  0  0  0  0  0  0  0  0  0  0  0
   -7.5820   20.1290  -32.4840 C   0  0  0  0  0  0  0  0  0  0  0  0
   -8.9750   20.0270  -32.4080 C   0  0  0  0  0  0  0  0  0  0  0  0
   -9.7370   21.1190  -31.9880 C   0  0  0  0  0  0  0  0  0  0  0  0
   -9.1080   22.3170  -31.6430 C   0  0  0  0  0  0  0  0  0  0  0  0
   -7.7170   22.4240  -31.7180 C   0  0  0  0  0  0  0  0  0  0  0  0
   -4.6690   20.8940  -33.1400 N   0  0  0  0  0  0  0  0  0  0  0  0
   -3.4230   21.2870  -32.8220 C   0  0  0  0  0  0  0  0  0  0  0  0
   -2.2500   20.8470  -33.5320 C   0  0  0  0  0  0  0  0  0  0  0  0
   -1.3100   20.4920  -34.1050 N   0  0  0  0  0  0  0  0  0  0  0  0
   -5.8810   25.3343  -28.7380 H   0  0  0  0  0  0  0  0  0  0  0  0
   -7.2808   25.6182  -29.8273 H   0  0  0  0  0  0  0  0  0  0  0  0
   -6.4514   24.0249  -29.8273 H   0  0  0  0  0  0  0  0  0  0  0  0
   -5.8336   25.4453  -31.7983 H   0  0  0  0  0  0  0  0  0  0  0  0
   -5.1638   26.6725  -30.6330 H   0  0  0  0  0  0  0  0  0  0  0  0
   -4.0310   24.2210  -31.5930 H   0  0  0  0  0  0  0  0  0  0  0  0
   -3.7069   24.9264  -28.7261 H   0  0  0  0  0  0  0  0  0  0  0  0
   -4.6953   23.5459  -29.3257 H   0  0  0  0  0  0  0  0  0  0  0  0
   -1.6901   23.9607  -29.4417 H   0  0  0  0  0  0  0  0  0  0  0  0
   -2.6419   22.5173  -28.9115 H   0  0  0  0  0  0  0  0  0  0  0  0
   -1.4970   22.7570  -31.4220 H   0  0  0  0  0  0  0  0  0  0  0  0
   -6.9877   19.2646  -32.8151 H   0  0  0  0  0  0  0  0  0  0  0  0
   -9.4715   19.0838  -32.6799 H   0  0  0  0  0  0  0  0  0  0  0  0
  -10.8322   21.0356  -31.9289 H   0  0  0  0  0  0  0  0  0  0  0  0
   -9.7082   23.1773  -31.3119 H   0  0  0  0  0  0  0  0  0  0  0  0
   -7.2279   23.3708  -31.4454 H   0  0  0  0  0  0  0  0  0  0  0  0
   -4.9380   20.2660  -33.9280 H   0  0  0  0  0  0  0  0  0  0  0  0
  1  2  1  0
  2  3  1  0
  3  4  1  0
  4  5  1  0
  5  6  1  0
  6  7  1  0
  7  8  1  0
  8  9  1  0
  9 10  1  0
 10 11  2  0
 11 12  1  0
 12 13  2  0
 13 14  1  0
 14 15  2  0
  9 16  2  0
 16 17  1  0
 17 18  1  0
 18 19  3  0
 17  7  2  0
 15 10  1  0
  1 20  1  0
  1 21  1  0
  1 22  1  0
  2 23  1  0
  2 24  1  0
  3 25  1  0
  4 26  1  0
  4 27  1  0
  5 28  1  0
  5 29  1  0
  6 30  1  0
 11 31  1  0
 12 32  1  0
 13 33  1  0
 14 34  1  0
 15 35  1  0
 16 36  1  0
M  CHG  1  16   1
M  END
>  <UniqueID>  (3) 
3

>  <SMILES>  (3) 
CCNCCNc1oc(-c2ccccc2)[nH+]c1C#N

>  <Energy>  (3) 
64.44330636234113

>  <Genealogy>  (3) 
CCNCCNc1oc(-c2ccccc2)[nH+]c1C#N (protonated)
CCNCCNc1oc(-c2ccccc2)[nH+]c1C#N (3D coordinates assigned)
CCNCCNc1oc(-c2ccccc2)[nH+]c1C#N (optimized conformer: 64.44330636234113 kcal/mol)

>  <smiles>  (3) 
CCNCCNc1oc(-c2ccccc2)nc1C#N

>  <score_type>  (3) 
oracle

>  <origin>  (3) 
adg

>  <m_score__min__energy>  (3) 
-5.8499999999999996

>  <m_primary>  (3) 
energy

$$$$
3:0
     RDKit          3D

 34 35  0  0  0  0  0  0  0  0999 V2000
   -6.1000   25.2440  -29.8930 C   0  0  0  0  0  0  0  0  0  0  0  0
   -4.7580   24.5380  -29.6710 C   0  0  0  0  0  0  0  0  0  0  0  0
   -4.0790   24.2030  -30.9330 N   0  0  0  0  0  0  0  0  0  0  0  0
   -3.2510   22.9950  -30.8160 C   0  0  0  0  0  0  0  0  0  0  0  0
   -3.4020   22.1420  -32.0790 C   0  0  0  0  0  0  0  0  0  0  0  0
   -4.5040   22.6360  -32.9150 N   0  0  0  0  0  0  0  0  0  0  0  0
   -5.7110   21.9160  -32.6060 C   0  0  0  0  0  0  0  0  0  0  0  0
   -6.8750   22.6030  -32.2280 C   0  0  0  0  0  0  0  0  0  0  0  0
   -8.0360   21.8790  -31.9540 C   0  0  0  0  0  0  0  0  0  0  0  0
   -9.0840   22.4900  -31.6100 O   0  0  0  0  0  0  0  0  0  0  0  0
   -8.0160   20.4800  -32.0670 C   0  0  0  0  0  0  0  0  0  0  0  0
   -9.1500   19.6890  -31.8060 C   0  0  0  0  0  0  0  0  0  0  0  0
   -9.0780   18.2990  -31.9370 C   0  0  0  0  0  0  0  0  0  0  0  0
   -7.8820   17.6880  -32.3260 C   0  0  0  0  0  0  0  0  0  0  0  0
   -6.7500   18.4660  -32.5870 C   0  0  0  0  0  0  0  0  0  0  0  0
   -6.8080   19.8580  -32.4610 C   0  0  0  0  0  0  0  0  0  0  0  0
   -5.7260   20.5880  -32.7110 O   0  0  0  0  0  0  0  0  0  0  0  0
   -6.5540   25.4829  -28.9200 H   0  0  0  0  0  0  0  0  0  0  0  0
   -5.9364   26.1728  -30.4592 H   0  0  0  0  0  0  0  0  0  0  0  0
   -6.7728   24.5831  -30.4592 H   0  0  0  0  0  0  0  0  0  0  0  0
   -4.1044   25.2002  -29.0843 H   0  0  0  0  0  0  0  0  0  0  0  0
   -4.9611   23.5954  -29.1416 H   0  0  0  0  0  0  0  0  0  0  0  0
   -3.4750   25.0070  -31.2250 H   0  0  0  0  0  0  0  0  0  0  0  0
   -2.1968   23.2846  -30.6941 H   0  0  0  0  0  0  0  0  0  0  0  0
   -3.5773   22.4127  -29.9417 H   0  0  0  0  0  0  0  0  0  0  0  0
   -2.4660   22.1828  -32.6555 H   0  0  0  0  0  0  0  0  0  0  0  0
   -3.6236   21.1068  -31.7802 H   0  0  0  0  0  0  0  0  0  0  0  0
   -4.6620   23.6530  -32.7240 H   0  0  0  0  0  0  0  0  0  0  0  0
   -4.2690   22.5190  -33.9280 H   0  0  0  0  0  0  0  0  0  0  0  0
   -6.8721   23.7001  -32.1486 H   0  0  0  0  0  0  0  0  0  0  0  0
  -10.0933   20.1643  -31.4989 H   0  0  0  0  0  0  0  0  0  0  0  0
   -9.9663   17.6831  -31.7331 H   0  0  0  0  0  0  0  0  0  0  0  0
   -7.8316   16.5938  -32.4268 H   0  0  0  0  0  0  0  0  0  0  0  0
   -5.8107   17.9819  -32.8924 H   0  0  0  0  0  0  0  0  0  0  0  0
  1  2  1  0
  2  3  1  0
  3  4  1  0
  4  5  1  0
  5  6  1  0
  6  7  1  0
  7  8  2  0
  8  9  1  0
  9 10  2  0
  9 11  1  0
 11 12  2  0
 12 13  1  0
 13 14  2  0
 14 15  1  0
 15 16  2  0
 16 17  1  0
 17  7  1  0
 16 11  1  0
  1 18  1  0
  1 19  1  0
  1 20  1  0
  2 21  1  0
  2 22  1  0
  3 23  1  0
  4 24  1  0
  4 25  1  0
  5 26  1  0
  5 27  1  0
  6 28  1  0
  6 29  1  0
  8 30  1  0
 12 31  1  0
 13 32  1  0
 14 33  1  0
 15 34  1  0
M  CHG  1   6   1
M  END
>  <UniqueID>  (4) 
4

>  <SMILES>  (4) 
CCNCC[NH2+]c1cc(=O)c2ccccc2o1

>  <Energy>  (4) 
34.61515874694083

>  <Genealogy>  (4) 
CCNCC[NH2+]c1cc(=O)c2ccccc2o1 (protonated)
CCNCC[NH2+]c1cc(=O)c2ccccc2o1 (3D coordinates assigned)
CCNCC[NH2+]c1cc(=O)c2ccccc2o1 (optimized conformer: 34.61515874694083 kcal/mol)

>  <smiles>  (4) 
CCNCCNc1cc(=O)c2ccccc2o1

>  <score_type>  (4) 
oracle

>  <origin>  (4) 
adg

>  <m_score__min__energy>  (4) 
-6.0999999999999996

>  <m_primary>  (4) 
energy

$$$$
4:0
     RDKit          3D

 52 55  0  0  0  0  0  0  0  0999 V2000
   -4.3780   25.0010  -30.4250 C   0  0  0  0  0  0  0  0  0  0  0  0
   -4.9850   23.9140  -31.2120 N   0  0  0  0  0  0  0  0  0  0  0  0
   -6.3800   24.2560  -31.5310 C   0  0  0  0  0  0  0  0  0  0  0  0
   -4.9200   22.6270  -30.4840 C   0  0  0  0  0  0  0  0  0  0  0  0
   -3.6920   21.8040  -30.9130 C   0  0  0  0  0  0  0  0  0  0  0  0
   -3.3640   21.9240  -32.4130 C   0  0  0  0  0  0  0  0  0  0  0  0
   -4.5740   21.8880  -33.2540 N   0  0  0  0  0  0  0  0  0  0  0  0
   -5.1640   20.5650  -33.2320 C   0  0  0  0  0  0  0  0  0  0  0  0
   -4.3910   19.4500  -33.5780 C   0  0  0  0  0  0  0  0  0  0  0  0
   -4.9250   18.1760  -33.5600 C   0  0  0  0  0  0  0  0  0  0  0  0
   -6.2560   17.9510  -33.3190 N   0  0  0  0  0  0  0  0  0  0  0  0
   -6.8540   16.6450  -33.6460 C   0  0  0  0  0  0  0  0  0  0  0  0
   -7.0250   18.9930  -32.8290 C   0  0  0  0  0  0  0  0  0  0  0  0
   -8.3320   18.7720  -32.3330 C   0  0  0  0  0  0  0  0  0  0  0  0
   -9.1120   19.8270  -31.8640 C   0  0  0  0  0  0  0  0  0  0  0  0
   -8.6090   21.1230  -31.8620 C   0  0  0  0  0  0  0  0  0  0  0  0
   -7.3170   21.3750  -32.3130 C   0  0  0  0  0  0  0  0  0  0  0  0
   -6.4970   20.3280  -32.7920 C   0  0  0  0  0  0  0  0  0  0  0  0
   -3.8490   17.2300  -33.8830 C   0  0  0  0  0  0  0  0  0  0  0  0
   -3.7810   15.8310  -33.7930 C   0  0  0  0  0  0  0  0  0  0  0  0
   -2.5660   15.1940  -34.0900 C   0  0  0  0  0  0  0  0  0  0  0  0
   -1.4300   15.9500  -34.4260 C   0  0  0  0  0  0  0  0  0  0  0  0
   -1.4930   17.3500  -34.4450 C   0  0  0  0  0  0  0  0  0  0  0  0
   -2.7110   17.9690  -34.1580 C   0  0  0  0  0  0  0  0  0  0  0  0
   -2.9500   19.4360  -34.0080 C   0  0  0  0  0  0  0  0  0  0  0  0
   -4.4971   24.7878  -29.3525 H   0  0  0  0  0  0  0  0  0  0  0  0
   -3.3076   25.0756  -30.6674 H   0  0  0  0  0  0  0  0  0  0  0  0
   -4.8760   25.9514  -30.6674 H   0  0  0  0  0  0  0  0  0  0  0  0
   -6.9460   24.3948  -30.5981 H   0  0  0  0  0  0  0  0  0  0  0  0
   -6.4046   25.1868  -32.1167 H   0  0  0  0  0  0  0  0  0  0  0  0
   -6.8323   23.4421  -32.1167 H   0  0  0  0  0  0  0  0  0  0  0  0
   -4.8571   22.8286  -29.4045 H   0  0  0  0  0  0  0  0  0  0  0  0
   -5.8255   22.0485  -30.7194 H   0  0  0  0  0  0  0  0  0  0  0  0
   -2.8215   22.1521  -30.3376 H   0  0  0  0  0  0  0  0  0  0  0  0
   -3.9269   20.7474  -30.7172 H   0  0  0  0  0  0  0  0  0  0  0  0
   -2.8411   22.8762  -32.5858 H   0  0  0  0  0  0  0  0  0  0  0  0
   -2.7354   21.0649  -32.6902 H   0  0  0  0  0  0  0  0  0  0  0  0
   -5.2750   22.5920  -32.9420 H   0  0  0  0  0  0  0  0  0  0  0  0
   -4.3200   22.1520  -34.2330 H   0  0  0  0  0  0  0  0  0  0  0  0
   -7.0987   16.1106  -32.7162 H   0  0  0  0  0  0  0  0  0  0  0  0
   -7.7715   16.7985  -34.2330 H   0  0  0  0  0  0  0  0  0  0  0  0
   -6.1383   16.0507  -34.2330 H   0  0  0  0  0  0  0  0  0  0  0  0
   -8.7389   17.7501  -32.3175 H   0  0  0  0  0  0  0  0  0  0  0  0
  -10.1297   19.6337  -31.4939 H   0  0  0  0  0  0  0  0  0  0  0  0
   -9.2351   21.9529  -31.5023 H   0  0  0  0  0  0  0  0  0  0  0  0
   -6.9281   22.4038  -32.2965 H   0  0  0  0  0  0  0  0  0  0  0  0
   -4.6630   15.2450  -33.4954 H   0  0  0  0  0  0  0  0  0  0  0  0
   -2.5026   14.0962  -34.0596 H   0  0  0  0  0  0  0  0  0  0  0  0
   -0.4873   15.4408  -34.6752 H   0  0  0  0  0  0  0  0  0  0  0  0
   -0.6010   17.9488  -34.6812 H   0  0  0  0  0  0  0  0  0  0  0  0
   -2.2954   19.8755  -33.2410 H   0  0  0  0  0  0  0  0  0  0  0  0
   -2.7416   20.0241  -34.9139 H   0  0  0  0  0  0  0  0  0  0  0  0
  1  2  1  0
  2  3  1  0
  2  4  1  0
  4  5  1  0
  5  6  1  0
  6  7  1  0
  7  8  1  0
  8  9  2  0
  9 10  1  0
 10 11  2  0
 11 12  1  0
 11 13  1  0
 13 14  2  0
 14 15  1  0
 15 16  2  0
 16 17  1  0
 17 18  2  0
 10 19  1  0
 19 20  2  0
 20 21  1  0
 21 22  2  0
 22 23  1  0
 23 24  2  0
 24 25  1  0
 18  8  1  0
 24 19  1  0
 25  9  1  0
 18 13  1  0
  1 26  1  0
  1 27  1  0
  1 28  1  0
  3 29  1  0
  3 30  1  0
  3 31  1  0
  4 32  1  0
  4 33  1  0
  5 34  1  0
  5 35  1  0
  6 36  1  0
  6 37  1  0
  7 38  1  0
  7 39  1  0
 12 40  1  0
 12 41  1  0
 12 42  1  0
 14 43  1  0
 15 44  1  0
 16 45  1  0
 17 46  1  0
 20 47  1  0
 21 48  1  0
 22 49  1  0
 23 50  1  0
 25 51  1  0
 25 52  1  0
M  CHG  2   7   1  11   1
M  END
>  <UniqueID>  (5) 
5

>  <SMILES>  (5) 
CN(C)CCC[NH2+]c1c2c([n+](C)c3ccccc13)-c1ccccc1C2

>  <Energy>  (5) 
94.07691903266566

>  <Genealogy>  (5) 
CN(C)CCC[NH2+]c1c2c([n+](C)c3ccccc13)-c1ccccc1C2 (protonated)
CN(C)CCC[NH2+]c1c2c([n+](C)c3ccccc13)-c1ccccc1C2 (3D coordinates assigned)
CN(C)CCC[NH2+]c1c2c([n+](C)c3ccccc13)-c1ccccc1C2 (nonaromatic ring conformer: 94.07691903266566 kcal/mol)

>  <smiles>  (5) 
CN(C)CCCNc1c2c([n+](C)c3ccccc13)-c1ccccc1C2

>  <score_type>  (5) 
oracle

>  <origin>  (5) 
adg

>  <m_score__min__energy>  (5) 
-7.96

>  <m_primary>  (5) 
energy

$$$$
5:0
     RDKit          3D

 64 66  0  0  0  0  0  0  0  0999 V2000
   -2.7600   20.6840  -27.5890 C   0  0  0  0  0  0  0  0  0  0  0  0
   -1.8420   21.9030  -27.6100 C   0  0  0  0  0  0  0  0  0  0  0  0
   -1.4890   22.2570  -29.0040 N   0  0  0  0  0  0  0  0  0  0  0  0
   -0.7940   21.1410  -29.6840 C   0  0  0  0  0  0  0  0  0  0  0  0
   -0.5080   21.5020  -31.1400 C   0  0  0  0  0  0  0  0  0  0  0  0
   -0.6880   23.5030  -29.0590 C   0  0  0  0  0  0  0  0  0  0  0  0
   -1.4960   24.6830  -28.5070 C   0  0  0  0  0  0  0  0  0  0  0  0
   -2.5590   25.0140  -29.3820 O   0  0  0  0  0  0  0  0  0  0  0  0
   -3.7890   24.5310  -28.8810 C   0  0  0  0  0  0  0  0  0  0  0  0
   -4.7840   24.4180  -30.0350 C   0  0  0  0  0  0  0  0  0  0  0  0
   -4.1450   23.7940  -31.2010 N   0  0  0  0  0  0  0  0  0  0  0  0
   -3.9180   22.3580  -30.9860 C   0  0  0  0  0  0  0  0  0  0  0  0
   -3.4830   21.6940  -32.2920 C   0  0  0  0  0  0  0  0  0  0  0  0
   -4.5940   21.6150  -33.2380 N   0  0  0  0  0  0  0  0  0  0  0  0
   -5.7450   20.8140  -32.9390 C   0  0  0  0  0  0  0  0  0  0  0  0
   -6.9230   21.4190  -32.4770 C   0  0  0  0  0  0  0  0  0  0  0  0
   -7.0060   22.8200  -32.3410 C   0  0  0  0  0  0  0  0  0  0  0  0
   -8.1910   23.4250  -31.9260 C   0  0  0  0  0  0  0  0  0  0  0  0
   -9.3100   22.6470  -31.6550 C   0  0  0  0  0  0  0  0  0  0  0  0
   -9.2460   21.2580  -31.7690 C   0  0  0  0  0  0  0  0  0  0  0  0
   -8.0430   20.6090  -32.1480 C   0  0  0  0  0  0  0  0  0  0  0  0
   -7.9460   19.2310  -32.2160 N   0  0  0  0  0  0  0  0  0  0  0  0
   -8.9980   18.3840  -31.6090 C   0  0  0  0  0  0  0  0  0  0  0  0
   -6.8550   18.6440  -32.8320 C   0  0  0  0  0  0  0  0  0  0  0  0
   -6.8340   17.2630  -33.1600 C   0  0  0  0  0  0  0  0  0  0  0  0
   -5.7080   16.6780  -33.7410 C   0  0  0  0  0  0  0  0  0  0  0  0
   -5.7060   14.9660  -34.1270 Cl  0  0  0  0  0  0  0  0  0  0  0  0
   -4.5870   17.4510  -34.0270 C   0  0  0  0  0  0  0  0  0  0  0  0
   -4.5930   18.8170  -33.7560 C   0  0  0  0  0  0  0  0  0  0  0  0
   -5.7220   19.4290  -33.1710 C   0  0  0  0  0  0  0  0  0  0  0  0
   -2.9720   20.4025  -26.5470 H   0  0  0  0  0  0  0  0  0  0  0  0
   -3.7023   20.9257  -28.1025 H   0  0  0  0  0  0  0  0  0  0  0  0
   -2.2674   19.8451  -28.1025 H   0  0  0  0  0  0  0  0  0  0  0  0
   -2.3571   22.7532  -27.1391 H   0  0  0  0  0  0  0  0  0  0  0  0
   -0.9210   21.6668  -27.0568 H   0  0  0  0  0  0  0  0  0  0  0  0
    0.1556   20.9367  -29.1677 H   0  0  0  0  0  0  0  0  0  0  0  0
   -1.4377   20.2494  -29.6567 H   0  0  0  0  0  0  0  0  0  0  0  0
    0.1747   22.3637  -31.1768 H   0  0  0  0  0  0  0  0  0  0  0  0
   -0.0424   20.6434  -31.6460 H   0  0  0  0  0  0  0  0  0  0  0  0
   -1.4503   21.7589  -31.6460 H   0  0  0  0  0  0  0  0  0  0  0  0
    0.2235   23.3747  -28.4568 H   0  0  0  0  0  0  0  0  0  0  0  0
   -0.4233   23.7109  -30.1062 H   0  0  0  0  0  0  0  0  0  0  0  0
   -1.9086   24.4101  -27.5245 H   0  0  0  0  0  0  0  0  0  0  0  0
   -0.8309   25.5541  -28.4128 H   0  0  0  0  0  0  0  0  0  0  0  0
   -3.6387   23.5414  -28.4249 H   0  0  0  0  0  0  0  0  0  0  0  0
   -4.1786   25.2229  -28.1198 H   0  0  0  0  0  0  0  0  0  0  0  0
   -5.6391   23.8031  -29.7177 H   0  0  0  0  0  0  0  0  0  0  0  0
   -5.1262   25.4261  -30.3118 H   0  0  0  0  0  0  0  0  0  0  0  0
   -3.2090   24.2440  -31.3380 H   0  0  0  0  0  0  0  0  0  0  0  0
   -3.1309   22.2233  -30.2295 H   0  0  0  0  0  0  0  0  0  0  0  0
   -4.8531   21.8934  -30.6398 H   0  0  0  0  0  0  0  0  0  0  0  0
   -2.6700   22.2833  -32.7412 H   0  0  0  0  0  0  0  0  0  0  0  0
   -3.1420   20.6725  -32.0677 H   0  0  0  0  0  0  0  0  0  0  0  0
   -4.6130   22.2120  -34.0980 H   0  0  0  0  0  0  0  0  0  0  0  0
   -6.1266   23.4418  -32.5647 H   0  0  0  0  0  0  0  0  0  0  0  0
   -8.2404   24.5181  -31.8130 H   0  0  0  0  0  0  0  0  0  0  0  0
  -10.2506   23.1285  -31.3492 H   0  0  0  0  0  0  0  0  0  0  0  0
  -10.1432   20.6563  -31.5616 H   0  0  0  0  0  0  0  0  0  0  0  0
   -8.9274   18.4409  -30.5127 H   0  0  0  0  0  0  0  0  0  0  0  0
   -9.9873   18.7405  -31.9317 H   0  0  0  0  0  0  0  0  0  0  0  0
   -8.8608   17.3414  -31.9317 H   0  0  0  0  0  0  0  0  0  0  0  0
   -7.7194   16.6441  -32.9529 H   0  0  0  0  0  0  0  0  0  0  0  0
   -3.6947   16.9825  -34.4678 H   0  0  0  0  0  0  0  0  0  0  0  0
   -3.7093   19.4247  -34.0003 H   0  0  0  0  0  0  0  0  0  0  0  0
  1  2  1  0
  2  3  1  0
  3  4  1  0
  4  5  1  0
  3  6  1  0
  6  7  1  0
  7  8  1  0
  8  9  1  0
  9 10  1  0
 10 11  1  0
 11 12  1  0
 12 13  1  0
 13 14  1  0
 14 15  1  0
 15 16  2  0
 16 17  1  0
 17 18  2  0
 18 19  1  0
 19 20  2  0
 20 21  1  0
 21 22  2  0
 22 23  1  0
 22 24  1  0
 24 25  2  0
 25 26  1  0
 26 27  1  0
 26 28  2  0
 28 29  1  0
 29 30  2  0
 30 15  1  0
 21 16  1  0
 30 24  1  0
  1 31  1  0
  1 32  1  0
  1 33  1  0
  2 34  1  0
  2 35  1  0
  4 36  1  0
  4 37  1  0
  5 38  1  0
  5 39  1  0
  5 40  1  0
  6 41  1  0
  6 42  1  0
  7 43  1  0
  7 44  1  0
  9 45  1  0
  9 46  1  0
 10 47  1  0
 10 48  1  0
 11 49  1  0
 12 50  1  0
 12 51  1  0
 13 52  1  0
 13 53  1  0
 14 54  1  0
 17 55  1  0
 18 56  1  0
 19 57  1  0
 20 58  1  0
 23 59  1  0
 23 60  1  0
 23 61  1  0
 25 62  1  0
 28 63  1  0
 29 64  1  0
M  CHG  1  22   1
M  END
>  <UniqueID>  (6) 
6

>  <SMILES>  (6) 
CCN(CC)CCOCCNCCNc1c2ccccc2[n+](C)c2cc(Cl)ccc12

>  <Energy>  (6) 
84.3898587557374

>  <Genealogy>  (6) 
CCN(CC)CCOCCNCCNc1c2ccccc2[n+](C)c2cc(Cl)ccc12 (3D coordinates assigned)
CCN(CC)CCOCCNCCNc1c2ccccc2[n+](C)c2cc(Cl)ccc12 (optimized conformer: 84.3898587557374 kcal/mol)

>  <smiles>  (6) 
CCN(CC)CCOCCNCCNc1c2ccccc2[n+](C)c2cc(Cl)ccc12

>  <score_type>  (6) 
oracle

>  <origin>  (6) 
adg

>  <m_score__min__energy>  (6) 
-10.119999999999999

>  <m_primary>  (6) 
energy

$$$$
6:0
     RDKit          3D

 81 85  0  0  0  0  0  0  0  0999 V2000
   -1.5340   24.9520  -28.1640 C   0  0  0  0  0  0  0  0  0  0  0  0
   -3.0110   24.5530  -28.2910 C   0  0  0  0  0  0  0  0  0  0  0  0
   -3.5580   24.6010  -29.6740 N   0  0  0  0  0  0  0  0  0  0  0  0
   -3.2210   23.4060  -30.4860 C   0  0  0  0  0  0  0  0  0  0  0  0
   -3.5630   22.0960  -29.7700 C   0  0  0  0  0  0  0  0  0  0  0  0
   -5.0150   24.8630  -29.7410 C   0  0  0  0  0  0  0  0  0  0  0  0
   -5.5540   24.8370  -31.1810 C   0  0  0  0  0  0  0  0  0  0  0  0
   -6.6540   23.7840  -31.3560 C   0  0  0  0  0  0  0  0  0  0  0  0
   -6.4780   23.0720  -32.6200 N   0  0  0  0  0  0  0  0  0  0  0  0
   -6.1740   21.6760  -32.6480 C   0  0  0  0  0  0  0  0  0  0  0  0
   -7.1720   20.6890  -32.4970 C   0  0  0  0  0  0  0  0  0  0  0  0
   -8.4960   21.0490  -32.1870 C   0  0  0  0  0  0  0  0  0  0  0  0
   -9.4610   20.0680  -31.9700 C   0  0  0  0  0  0  0  0  0  0  0  0
   -9.1220   18.7210  -32.0510 C   0  0  0  0  0  0  0  0  0  0  0  0
   -7.8200   18.3360  -32.3790 C   0  0  0  0  0  0  0  0  0  0  0  0
   -6.8230   19.3030  -32.6470 C   0  0  0  0  0  0  0  0  0  0  0  0
   -5.5370   18.9430  -33.0250 N   0  0  0  0  0  0  0  0  0  0  0  0
   -5.2150   17.5820  -33.4850 C   0  0  0  0  0  0  0  0  0  0  0  0
   -4.5750   19.9190  -33.0340 C   0  0  0  0  0  0  0  0  0  0  0  0
   -4.8760   21.2510  -32.8670 C   0  0  0  0  0  0  0  0  0  0  0  0
   -3.7990   22.0030  -32.9480 O   0  0  0  0  0  0  0  0  0  0  0  0
   -2.7840   21.1910  -33.1520 C   0  0  0  0  0  0  0  0  0  0  0  0
   -1.4450   21.5490  -33.2740 C   0  0  0  0  0  0  0  0  0  0  0  0
   -0.5060   20.5270  -33.4830 C   0  0  0  0  0  0  0  0  0  0  0  0
   -0.9120   19.1790  -33.5780 C   0  0  0  0  0  0  0  0  0  0  0  0
    0.0580   18.2110  -33.8640 O   0  0  0  0  0  0  0  0  0  0  0  0
    0.7810   17.5000  -32.8630 C   0  0  0  0  0  0  0  0  0  0  0  0
    0.0410   17.4910  -31.5030 C   0  0  0  0  0  0  0  0  0  0  0  0
    0.7090   18.1940  -30.3510 N   0  0  0  0  0  0  0  0  0  0  0  0
    2.1850   18.1090  -30.5170 C   0  0  0  0  0  0  0  0  0  0  0  0
    0.3440   19.6540  -30.4170 C   0  0  0  0  0  0  0  0  0  0  0  0
   -0.8990   19.9950  -29.5790 C   0  0  0  0  0  0  0  0  0  0  0  0
   -0.6400   19.7240  -28.0870 C   0  0  0  0  0  0  0  0  0  0  0  0
    0.3670   18.5830  -27.8680 C   0  0  0  0  0  0  0  0  0  0  0  0
    0.3160   17.5840  -29.0350 C   0  0  0  0  0  0  0  0  0  0  0  0
   -2.2740   18.8380  -33.4030 C   0  0  0  0  0  0  0  0  0  0  0  0
   -3.1970   19.8740  -33.2210 C   0  0  0  0  0  0  0  0  0  0  0  0
   -1.2641   25.0249  -27.1001 H   0  0  0  0  0  0  0  0  0  0  0  0
   -0.9056   24.1914  -28.6504 H   0  0  0  0  0  0  0  0  0  0  0  0
   -1.3741   25.9255  -28.6504 H   0  0  0  0  0  0  0  0  0  0  0  0
   -3.1202   23.5246  -27.9162 H   0  0  0  0  0  0  0  0  0  0  0  0
   -3.5806   25.2924  -27.7089 H   0  0  0  0  0  0  0  0  0  0  0  0
   -3.7847   23.4501  -31.4296 H   0  0  0  0  0  0  0  0  0  0  0  0
   -2.1354   23.4170  -30.6630 H   0  0  0  0  0  0  0  0  0  0  0  0
   -3.5224   22.2515  -28.6818 H   0  0  0  0  0  0  0  0  0  0  0  0
   -4.5751   21.7747  -30.0570 H   0  0  0  0  0  0  0  0  0  0  0  0
   -2.8371   21.3209  -30.0570 H   0  0  0  0  0  0  0  0  0  0  0  0
   -5.5388   24.0937  -29.1546 H   0  0  0  0  0  0  0  0  0  0  0  0
   -5.1916   25.8707  -29.3369 H   0  0  0  0  0  0  0  0  0  0  0  0
   -5.9663   25.8271  -31.4252 H   0  0  0  0  0  0  0  0  0  0  0  0
   -4.7226   24.5792  -31.8536 H   0  0  0  0  0  0  0  0  0  0  0  0
   -6.6040   23.0654  -30.5247 H   0  0  0  0  0  0  0  0  0  0  0  0
   -7.6326   24.2863  -31.3615 H   0  0  0  0  0  0  0  0  0  0  0  0
   -6.5150   23.5810  -33.5310 H   0  0  0  0  0  0  0  0  0  0  0  0
   -8.7711   22.1116  -32.1155 H   0  0  0  0  0  0  0  0  0  0  0  0
  -10.4950   20.3595  -31.7337 H   0  0  0  0  0  0  0  0  0  0  0  0
   -9.8852   17.9534  -31.8552 H   0  0  0  0  0  0  0  0  0  0  0  0
   -7.5666   17.2668  -32.4296 H   0  0  0  0  0  0  0  0  0  0  0  0
   -5.0602   16.9277  -32.6144 H   0  0  0  0  0  0  0  0  0  0  0  0
   -6.0461   17.1939  -34.0921 H   0  0  0  0  0  0  0  0  0  0  0  0
   -4.2981   17.6075  -34.0921 H   0  0  0  0  0  0  0  0  0  0  0  0
   -1.1318   22.6014  -33.2086 H   0  0  0  0  0  0  0  0  0  0  0  0
    0.5606   20.7802  -33.5740 H   0  0  0  0  0  0  0  0  0  0  0  0
    0.9207   16.4614  -33.1973 H   0  0  0  0  0  0  0  0  0  0  0  0
    1.7464   18.0073  -32.7190 H   0  0  0  0  0  0  0  0  0  0  0  0
   -0.9394   17.9656  -31.6566 H   0  0  0  0  0  0  0  0  0  0  0  0
    0.0055   16.4322  -31.2067 H   0  0  0  0  0  0  0  0  0  0  0  0
    2.6643   18.0814  -29.5273 H   0  0  0  0  0  0  0  0  0  0  0  0
    2.4394   17.1947  -31.0732 H   0  0  0  0  0  0  0  0  0  0  0  0
    2.5427   18.9880  -31.0732 H   0  0  0  0  0  0  0  0  0  0  0  0
    1.1928   20.2458  -30.0438 H   0  0  0  0  0  0  0  0  0  0  0  0
    0.1118   19.8906  -31.4659 H   0  0  0  0  0  0  0  0  0  0  0  0
   -1.1458   21.0582  -29.7153 H   0  0  0  0  0  0  0  0  0  0  0  0
   -1.7351   19.3632  -29.9133 H   0  0  0  0  0  0  0  0  0  0  0  0
   -0.2431   20.6398  -27.6247 H   0  0  0  0  0  0  0  0  0  0  0  0
   -1.5939   19.4239  -27.6287 H   0  0  0  0  0  0  0  0  0  0  0  0
    1.3806   19.0043  -27.7970 H   0  0  0  0  0  0  0  0  0  0  0  0
    0.1078   18.0553  -26.9383 H   0  0  0  0  0  0  0  0  0  0  0  0
    1.0029   16.7535  -28.8151 H   0  0  0  0  0  0  0  0  0  0  0  0
   -0.7256   17.2431  -29.1296 H   0  0  0  0  0  0  0  0  0  0  0  0
   -2.5986   17.7870  -33.4098 H   0  0  0  0  0  0  0  0  0  0  0  0
  1  2  1  0
  2  3  1  0
  3  4  1  0
  4  5  1  0
  3  6  1  0
  6  7  1  0
  7  8  1  0
  8  9  1  0
  9 10  1  0
 10 11  2  0
 11 12  1  0
 12 13  2  0
 13 14  1  0
 14 15  2  0
 15 16  1  0
 16 17  2  0
 17 18  1  0
 17 19  1  0
 19 20  2  0
 20 21  1  0
 21 22  1  0
 22 23  2  0
 23 24  1  0
 24 25  2  0
 25 26  1  0
 26 27  1  0
 27 28  1  0
 28 29  1  0
 29 30  1  0
 29 31  1  0
 31 32  1  0
 32 33  1  0
 33 34  1  0
 34 35  1  0
 25 36  1  0
 36 37  2  0
 20 10  1  0
 37 22  1  0
 16 11  1  0
 37 19  1  0
 35 29  1  0
  1 38  1  0
  1 39  1  0
  1 40  1  0
  2 41  1  0
  2 42  1  0
  4 43  1  0
  4 44  1  0
  5 45  1  0
  5 46  1  0
  5 47  1  0
  6 48  1  0
  6 49  1  0
  7 50  1  0
  7 51  1  0
  8 52  1  0
  8 53  1  0
  9 54  1  0
 12 55  1  0
 13 56  1  0
 14 57  1  0
 15 58  1  0
 18 59  1  0
 18 60  1  0
 18 61  1  0
 23 62  1  0
 24 63  1  0
 27 64  1  0
 27 65  1  0
 28 66  1  0
 28 67  1  0
 30 68  1  0
 30 69  1  0
 30 70  1  0
 31 71  1  0
 31 72  1  0
 32 73  1  0
 32 74  1  0
 33 75  1  0
 33 76  1  0
 34 77  1  0
 34 78  1  0
 35 79  1  0
 35 80  1  0
 36 81  1  0
M  CHG  2  17   1  29   1
M  END
>  <UniqueID>  (7) 
7

>  <SMILES>  (7) 
CCN(CC)CCCNc1c2ccccc2[n+](C)c2c1oc1ccc(OCC[N+]3(C)CCCCC3)cc12

>  <Energy>  (7) 
167.5865496840638

>  <Genealogy>  (7) 
CCN(CC)CCCNc1c2ccccc2[n+](C)c2c1oc1ccc(OCC[N+]3(C)CCCCC3)cc12 (3D coordinates assigned)
CCN(CC)CCCNc1c2ccccc2[n+](C)c2c1oc1ccc(OCC[N+]3(C)CCCCC3)cc12 (nonaromatic ring conformer: 167.5865496840638 kcal/mol)

>  <smiles>  (7) 
CCN(CC)CCCNc1c2ccccc2[n+](C)c2c1oc1ccc(OCC[N+]3(C)CCCCC3)cc12

>  <score_type>  (7) 
oracle

>  <origin>  (7) 
adg

>  <m_score__min__energy>  (7) 
-8.5399999999999991

>  <m_primary>  (7) 
energy

$$$$
7:0
     RDKit          3D

 49 52  0  0  0  0  0  0  0  0999 V2000
   -2.0230   23.4520  -29.7230 C   0  0  0  0  0  0  0  0  0  0  0  0
   -2.7120   24.6680  -29.2580 N   0  0  0  0  0  0  0  0  0  0  0  0
   -2.3690   24.9130  -27.8460 C   0  0  0  0  0  0  0  0  0  0  0  0
   -4.1740   24.5190  -29.4340 C   0  0  0  0  0  0  0  0  0  0  0  0
   -4.5310   23.5950  -30.6140 C   0  0  0  0  0  0  0  0  0  0  0  0
   -5.8650   23.9440  -31.2920 C   0  0  0  0  0  0  0  0  0  0  0  0
   -6.0000   23.2670  -32.5840 N   0  0  0  0  0  0  0  0  0  0  0  0
   -5.8920   21.8390  -32.7070 C   0  0  0  0  0  0  0  0  0  0  0  0
   -6.9840   20.9590  -32.5070 C   0  0  0  0  0  0  0  0  0  0  0  0
   -8.2090   21.4290  -31.9930 C   0  0  0  0  0  0  0  0  0  0  0  0
   -9.2710   20.5550  -31.7740 C   0  0  0  0  0  0  0  0  0  0  0  0
   -9.1250   19.1960  -32.0310 C   0  0  0  0  0  0  0  0  0  0  0  0
   -7.9150   18.6940  -32.5110 C   0  0  0  0  0  0  0  0  0  0  0  0
   -6.8230   19.5550  -32.7750 C   0  0  0  0  0  0  0  0  0  0  0  0
   -5.6100   19.0680  -33.2450 N   0  0  0  0  0  0  0  0  0  0  0  0
   -5.4750   17.7060  -33.7860 C   0  0  0  0  0  0  0  0  0  0  0  0
   -4.5360   19.9180  -33.2410 C   0  0  0  0  0  0  0  0  0  0  0  0
   -4.6650   21.2680  -33.0110 C   0  0  0  0  0  0  0  0  0  0  0  0
   -3.5120   21.8910  -33.1370 O   0  0  0  0  0  0  0  0  0  0  0  0
   -2.6140   20.9750  -33.4260 C   0  0  0  0  0  0  0  0  0  0  0  0
   -1.2510   21.1770  -33.6230 C   0  0  0  0  0  0  0  0  0  0  0  0
   -0.4460   20.0530  -33.8730 C   0  0  0  0  0  0  0  0  0  0  0  0
   -1.0120   18.7620  -33.9030 C   0  0  0  0  0  0  0  0  0  0  0  0
   -2.3920   18.5780  -33.7020 C   0  0  0  0  0  0  0  0  0  0  0  0
   -3.1830   19.7160  -33.4960 C   0  0  0  0  0  0  0  0  0  0  0  0
   -1.6901   22.8644  -28.8547 H   0  0  0  0  0  0  0  0  0  0  0  0
   -2.7136   22.8490  -30.3308 H   0  0  0  0  0  0  0  0  0  0  0  0
   -1.1508   23.7345  -30.3308 H   0  0  0  0  0  0  0  0  0  0  0  0
   -3.0923   24.3964  -27.1980 H   0  0  0  0  0  0  0  0  0  0  0  0
   -1.3573   24.5319  -27.6430 H   0  0  0  0  0  0  0  0  0  0  0  0
   -2.4014   25.9936  -27.6430 H   0  0  0  0  0  0  0  0  0  0  0  0
   -4.5997   24.0958  -28.5122 H   0  0  0  0  0  0  0  0  0  0  0  0
   -4.5897   25.5145  -29.6491 H   0  0  0  0  0  0  0  0  0  0  0  0
   -3.7307   23.6666  -31.3653 H   0  0  0  0  0  0  0  0  0  0  0  0
   -4.6348   22.5788  -30.2058 H   0  0  0  0  0  0  0  0  0  0  0  0
   -6.6919   23.6330  -30.6366 H   0  0  0  0  0  0  0  0  0  0  0  0
   -5.8921   25.0299  -31.4652 H   0  0  0  0  0  0  0  0  0  0  0  0
   -6.4840   23.7900  -33.3490 H   0  0  0  0  0  0  0  0  0  0  0  0
   -8.3278   22.4979  -31.7622 H   0  0  0  0  0  0  0  0  0  0  0  0
  -10.2292   20.9412  -31.3962 H   0  0  0  0  0  0  0  0  0  0  0  0
   -9.9688   18.5127  -31.8547 H   0  0  0  0  0  0  0  0  0  0  0  0
   -7.8081   17.6134  -32.6868 H   0  0  0  0  0  0  0  0  0  0  0  0
   -5.4038   16.9873  -32.9563 H   0  0  0  0  0  0  0  0  0  0  0  0
   -6.3539   17.4678  -34.4030 H   0  0  0  0  0  0  0  0  0  0  0  0
   -4.5664   17.6449  -34.4030 H   0  0  0  0  0  0  0  0  0  0  0  0
   -0.8169   22.1870  -33.5841 H   0  0  0  0  0  0  0  0  0  0  0  0
    0.6327   20.1810  -34.0464 H   0  0  0  0  0  0  0  0  0  0  0  0
   -0.3676   17.8894  -34.0855 H   0  0  0  0  0  0  0  0  0  0  0  0
   -2.8364   17.5718  -33.7064 H   0  0  0  0  0  0  0  0  0  0  0  0
  1  2  1  0
  2  3  1  0
  2  4  1  0
  4  5  1  0
  5  6  1  0
  6  7  1  0
  7  8  1  0
  8  9  2  0
  9 10  1  0
 10 11  2  0
 11 12  1  0
 12 13  2  0
 13 14  1  0
 14 15  2  0
 15 16  1  0
 15 17  1  0
 17 18  2  0
 18 19  1  0
 19 20  1  0
 20 21  2  0
 21 22  1  0
 22 23  2  0
 23 24  1  0
 24 25  2  0
 18  8  1  0
 25 20  1  0
 14  9  1  0
 25 17  1  0
  1 26  1  0
  1 27  1  0
  1 28  1  0
  3 29  1  0
  3 30  1  0
  3 31  1  0
  4 32  1  0
  4 33  1  0
  5 34  1  0
  5 35  1  0
  6 36  1  0
  6 37  1  0
  7 38  1  0
 10 39  1  0
 11 40  1  0
 12 41  1  0
 13 42  1  0
 16 43  1  0
 16 44  1  0
 16 45  1  0
 21 46  1  0
 22 47  1  0
 23 48  1  0
 24 49  1  0
M  CHG  1  15   1
M  END
>  <UniqueID>  (8) 
8

>  <SMILES>  (8) 
CN(C)CCCNc1c2ccccc2[n+](C)c2c1oc1ccccc12

>  <Energy>  (8) 
108.86804264020017

>  <Genealogy>  (8) 
CN(C)CCCNc1c2ccccc2[n+](C)c2c1oc1ccccc12 (3D coordinates assigned)
CN(C)CCCNc1c2ccccc2[n+](C)c2c1oc1ccccc12 (optimized conformer: 108.86804264020017 kcal/mol)

>  <smiles>  (8) 
CN(C)CCCNc1c2ccccc2[n+](C)c2c1oc1ccccc12

>  <score_type>  (8) 
oracle

>  <origin>  (8) 
adg

>  <m_score__min__energy>  (8) 
-8.25

>  <m_primary>  (8) 
energy

$$$$
8:0
     RDKit          3D

 52 55  0  0  0  0  0  0  0  0999 V2000
   -0.7950   19.3440  -30.9910 C   0  0  0  0  0  0  0  0  0  0  0  0
   -1.8330   20.2880  -31.5400 C   0  0  0  0  0  0  0  0  0  0  0  0
   -2.4460   21.2110  -30.6770 C   0  0  0  0  0  0  0  0  0  0  0  0
   -3.3730   22.0850  -31.1490 N   0  0  0  0  0  0  0  0  0  0  0  0
   -3.7430   22.0970  -32.4560 C   0  0  0  0  0  0  0  0  0  0  0  0
   -3.1800   21.1880  -33.3510 C   0  0  0  0  0  0  0  0  0  0  0  0
   -2.2330   20.2620  -32.8970 C   0  0  0  0  0  0  0  0  0  0  0  0
   -1.6680   19.2940  -33.8570 C   0  0  0  0  0  0  0  0  0  0  0  0
   -0.6620   19.5130  -34.7780 C   0  0  0  0  0  0  0  0  0  0  0  0
    0.0480   20.8020  -35.0350 C   0  0  0  0  0  0  0  0  0  0  0  0
   -0.4240   18.3740  -35.4580 N   0  0  0  0  0  0  0  0  0  0  0  0
   -1.2380   17.4720  -34.9880 O   0  0  0  0  0  0  0  0  0  0  0  0
   -2.0010   17.9630  -34.0370 C   0  0  0  0  0  0  0  0  0  0  0  0
   -3.0560   17.1970  -33.3460 C   0  0  0  0  0  0  0  0  0  0  0  0
   -2.7450   16.1600  -32.7000 O   0  0  0  0  0  0  0  0  0  0  0  0
   -4.4230   17.6470  -33.3500 N   0  0  0  0  0  0  0  0  0  0  0  0
   -5.2350   17.4650  -32.1360 C   0  0  0  0  0  0  0  0  0  0  0  0
   -6.6650   17.9910  -32.3250 C   0  0  0  0  0  0  0  0  0  0  0  0
   -6.6400   19.2770  -33.0310 N   0  0  0  0  0  0  0  0  0  0  0  0
   -7.4010   20.3810  -32.5250 C   0  0  0  0  0  0  0  0  0  0  0  0
   -6.7690   21.6210  -32.3530 C   0  0  0  0  0  0  0  0  0  0  0  0
   -7.4860   22.7180  -31.8740 C   0  0  0  0  0  0  0  0  0  0  0  0
   -8.8410   22.5870  -31.5650 C   0  0  0  0  0  0  0  0  0  0  0  0
   -9.4800   21.3550  -31.7260 C   0  0  0  0  0  0  0  0  0  0  0  0
   -8.7660   20.2370  -32.1900 C   0  0  0  0  0  0  0  0  0  0  0  0
   -9.4820   18.9270  -32.3700 C   0  0  0  0  0  0  0  0  0  0  0  0
   -5.8120   19.4640  -34.2290 C   0  0  0  0  0  0  0  0  0  0  0  0
   -5.0400   18.1870  -34.5690 C   0  0  0  0  0  0  0  0  0  0  0  0
   -0.8220   19.3685  -29.8916 H   0  0  0  0  0  0  0  0  0  0  0  0
   -1.0069   18.3227  -31.3403 H   0  0  0  0  0  0  0  0  0  0  0  0
    0.2017   19.6516  -31.3403 H   0  0  0  0  0  0  0  0  0  0  0  0
   -2.1737   21.2264  -29.6114 H   0  0  0  0  0  0  0  0  0  0  0  0
   -4.4881   22.8252  -32.8090 H   0  0  0  0  0  0  0  0  0  0  0  0
   -3.4787   21.1984  -34.4096 H   0  0  0  0  0  0  0  0  0  0  0  0
    0.3083   21.2747  -34.0764 H   0  0  0  0  0  0  0  0  0  0  0  0
    0.9659   20.6069  -35.6089 H   0  0  0  0  0  0  0  0  0  0  0  0
   -0.6075   21.4736  -35.6089 H   0  0  0  0  0  0  0  0  0  0  0  0
   -5.2787   16.3929  -31.8938 H   0  0  0  0  0  0  0  0  0  0  0  0
   -4.7651   18.0346  -31.3207 H   0  0  0  0  0  0  0  0  0  0  0  0
   -7.2452   17.2645  -32.9128 H   0  0  0  0  0  0  0  0  0  0  0  0
   -7.1305   18.1310  -31.3382 H   0  0  0  0  0  0  0  0  0  0  0  0
   -5.7019   21.7295  -32.5971 H   0  0  0  0  0  0  0  0  0  0  0  0
   -6.9830   23.6870  -31.7397 H   0  0  0  0  0  0  0  0  0  0  0  0
   -9.4063   23.4548  -31.1943 H   0  0  0  0  0  0  0  0  0  0  0  0
  -10.5497   21.2594  -31.4879 H   0  0  0  0  0  0  0  0  0  0  0  0
   -9.7161   18.4986  -31.3843 H   0  0  0  0  0  0  0  0  0  0  0  0
  -10.4149   19.0928  -32.9287 H   0  0  0  0  0  0  0  0  0  0  0  0
   -8.8387   18.2313  -32.9287 H   0  0  0  0  0  0  0  0  0  0  0  0
   -6.4611   19.7281  -35.0769 H   0  0  0  0  0  0  0  0  0  0  0  0
   -5.0880   20.2683  -34.0317 H   0  0  0  0  0  0  0  0  0  0  0  0
   -5.7311   17.4423  -34.9907 H   0  0  0  0  0  0  0  0  0  0  0  0
   -4.2557   18.4183  -35.3047 H   0  0  0  0  0  0  0  0  0  0  0  0
  1  2  1  0
  2  3  2  0
  3  4  1  0
  4  5  2  0
  5  6  1  0
  6  7  2  0
  7  8  1  0
  8  9  1  0
  9 10  1  0
  9 11  2  0
 11 12  1  0
 12 13  1  0
 13 14  1  0
 14 15  2  0
 14 16  1  0
 16 17  1  0
 17 18  1  0
 18 19  1  0
 19 20  1  0
 20 21  2  0
 21 22  1  0
 22 23  2  0
 23 24  1  0
 24 25  2  0
 25 26  1  0
 19 27  1  0
 27 28  1  0
  7  2  1  0
 13  8  2  0
 28 16  1  0
 25 20  1  0
  1 29  1  0
  1 30  1  0
  1 31  1  0
  3 32  1  0
  5 33  1  0
  6 34  1  0
 10 35  1  0
 10 36  1  0
 10 37  1  0
 17 38  1  0
 17 39  1  0
 18 40  1  0
 18 41  1  0
 21 42  1  0
 22 43  1  0
 23 44  1  0
 24 45  1  0
 26 46  1  0
 26 47  1  0
 26 48  1  0
 27 49  1  0
 27 50  1  0
 28 51  1  0
 28 52  1  0
M  END
>  <UniqueID>  (9) 
9

>  <SMILES>  (9) 
Cc1cnccc1-c1c(C)noc1C(=O)N1CCN(c2ccccc2C)CC1

>  <Energy>  (9) 
100.67368994344396

>  <Genealogy>  (9) 
Cc1cnccc1-c1c(C)noc1C(=O)N1CCN(c2ccccc2C)CC1 (3D coordinates assigned)
Cc1cnccc1-c1c(C)noc1C(=O)N1CCN(c2ccccc2C)CC1 (nonaromatic ring conformer: 100.67368994344396 kcal/mol)

>  <smiles>  (9) 
Cc1cnccc1-c1c(C)noc1C(=O)N1CCN(c2ccccc2C)CC1

>  <score_type>  (9) 
oracle

>  <origin>  (9) 
adg

>  <m_score__min__energy>  (9) 
-9.1300000000000008

>  <m_primary>  (9) 
energy

$$$$
9:0
     RDKit          3D

 30 31  0  0  0  0  0  0  0  0999 V2000
   -4.2640   18.3900  -34.2130 C   0  0  0  0  0  0  0  0  0  0  0  0
   -5.7380   18.3820  -34.5970 C   0  0  0  0  0  0  0  0  0  0  0  0
   -6.7760   17.8610  -33.1860 S   0  0  0  0  0  0  0  0  0  0  0  0
   -7.0750   19.5330  -32.5820 C   0  0  0  0  0  0  0  0  0  0  0  0
   -6.0050   20.3720  -32.4860 N   0  0  0  0  0  0  0  0  0  0  0  0
   -6.1860   21.6260  -32.0220 C   0  0  0  0  0  0  0  0  0  0  0  0
   -5.0120   22.8020  -31.8020 S   0  0  0  0  0  0  0  0  0  0  0  0
   -6.1050   23.9530  -31.2070 C   0  0  0  0  0  0  0  0  0  0  0  0
   -5.7250   25.3140  -30.7140 C   0  0  0  0  0  0  0  0  0  0  0  0
   -6.4720   25.6490  -29.4290 C   0  0  0  0  0  0  0  0  0  0  0  0
   -7.3890   23.4080  -31.1590 C   0  0  0  0  0  0  0  0  0  0  0  0
   -7.4180   22.0900  -31.6320 C   0  0  0  0  0  0  0  0  0  0  0  0
   -8.5180   21.2390  -31.7330 C   0  0  0  0  0  0  0  0  0  0  0  0
   -9.6560   21.6460  -31.3690 O   0  0  0  0  0  0  0  0  0  0  0  0
   -8.3410   19.9650  -32.2290 N   0  0  0  0  0  0  0  0  0  0  0  0
   -9.4870   19.0490  -32.3550 C   0  0  0  0  0  0  0  0  0  0  0  0
   -4.1706   18.3905  -33.1170 H   0  0  0  0  0  0  0  0  0  0  0  0
   -3.7736   17.4945  -34.6224 H   0  0  0  0  0  0  0  0  0  0  0  0
   -3.7833   19.2908  -34.6224 H   0  0  0  0  0  0  0  0  0  0  0  0
   -6.0347   19.3945  -34.9080 H   0  0  0  0  0  0  0  0  0  0  0  0
   -5.8826   17.6691  -35.4221 H   0  0  0  0  0  0  0  0  0  0  0  0
   -4.6426   25.3384  -30.5194 H   0  0  0  0  0  0  0  0  0  0  0  0
   -5.9914   26.0555  -31.4816 H   0  0  0  0  0  0  0  0  0  0  0  0
   -5.8537   25.3717  -28.5625 H   0  0  0  0  0  0  0  0  0  0  0  0
   -6.6833   26.7281  -29.3984 H   0  0  0  0  0  0  0  0  0  0  0  0
   -7.4183   25.0891  -29.3984 H   0  0  0  0  0  0  0  0  0  0  0  0
   -8.2737   23.9496  -30.7929 H   0  0  0  0  0  0  0  0  0  0  0  0
   -9.8417   18.7655  -31.3531 H   0  0  0  0  0  0  0  0  0  0  0  0
  -10.2985   19.5502  -32.9030 H   0  0  0  0  0  0  0  0  0  0  0  0
   -9.1769   18.1470  -32.9030 H   0  0  0  0  0  0  0  0  0  0  0  0
  1  2  1  0
  2  3  1  0
  3  4  1  0
  4  5  2  0
  5  6  1  0
  6  7  1  0
  7  8  1  0
  8  9  1  0
  9 10  1  0
  8 11  2  0
 11 12  1  0
 12 13  1  0
 13 14  2  0
 13 15  1  0
 15 16  1  0
 15  4  1  0
 12  6  2  0
  1 17  1  0
  1 18  1  0
  1 19  1  0
  2 20  1  0
  2 21  1  0
  9 22  1  0
  9 23  1  0
 10 24  1  0
 10 25  1  0
 10 26  1  0
 11 27  1  0
 16 28  1  0
 16 29  1  0
 16 30  1  0
M  END
>  <UniqueID>  (10) 
10

>  <SMILES>  (10) 
CCSc1nc2sc(CC)cc2c(=O)n1C

>  <Energy>  (10) 
56.7522975292067

>  <Genealogy>  (10) 
CCSc1nc2sc(CC)cc2c(=O)n1C (3D coordinates assigned)
CCSc1nc2sc(CC)cc2c(=O)n1C (optimized conformer: 56.7522975292067 kcal/mol)

>  <smiles>  (10) 
CCSc1nc2sc(CC)cc2c(=O)n1C

>  <score_type>  (10) 
oracle

>  <origin>  (10) 
adg

>  <m_score__min__energy>  (10) 
-6.5899999999999999

>  <m_primary>  (10) 
energy

$$$$
10:0
     RDKit          3D

 68 72  0  0  0  0  0  0  0  0999 V2000
   -8.8230   20.2110  -32.3400 C   0  0  0  0  0  0  0  0  0  0  0  0
   -8.4230   18.7670  -32.0030 C   0  0  0  0  0  0  0  0  0  0  0  0
   -7.0250   18.4150  -32.3520 N   0  0  0  0  0  0  0  0  0  0  0  0
   -6.2350   17.7950  -31.2760 C   0  0  0  0  0  0  0  0  0  0  0  0
   -6.8340   17.7950  -33.6820 C   0  0  0  0  0  0  0  0  0  0  0  0
   -5.8450   18.5410  -34.5860 C   0  0  0  0  0  0  0  0  0  0  0  0
   -5.4140   17.6660  -35.6060 O   0  0  0  0  0  0  0  0  0  0  0  0
   -4.1280   17.1740  -35.2950 C   0  0  0  0  0  0  0  0  0  0  0  0
   -3.6710   17.7800  -33.9690 C   0  0  0  0  0  0  0  0  0  0  0  0
   -3.1140   19.0780  -34.1710 O   0  0  0  0  0  0  0  0  0  0  0  0
   -2.7000   19.9590  -33.1570 C   0  0  0  0  0  0  0  0  0  0  0  0
   -1.3460   20.3110  -33.1070 C   0  0  0  0  0  0  0  0  0  0  0  0
   -0.8650   21.1820  -32.1260 C   0  0  0  0  0  0  0  0  0  0  0  0
   -1.7380   21.7220  -31.1740 C   0  0  0  0  0  0  0  0  0  0  0  0
   -1.2710   22.5740  -30.2090 N   0  0  0  0  0  0  0  0  0  0  0  0
   -2.1400   23.0830  -29.2980 C   0  0  0  0  0  0  0  0  0  0  0  0
   -3.4780   22.7780  -29.3020 C   0  0  0  0  0  0  0  0  0  0  0  0
   -4.0020   21.9180  -30.2610 C   0  0  0  0  0  0  0  0  0  0  0  0
   -3.1220   21.3760  -31.2170 C   0  0  0  0  0  0  0  0  0  0  0  0
   -3.5900   20.5020  -32.2090 C   0  0  0  0  0  0  0  0  0  0  0  0
   -4.1690   23.4940  -28.1780 C   0  0  0  0  0  0  0  0  0  0  0  0
   -3.0630   24.2290  -27.5520 N   0  0  0  0  0  0  0  0  0  0  0  0
   -1.9020   23.9880  -28.1980 C   0  0  0  0  0  0  0  0  0  0  0  0
   -0.7090   24.5860  -27.8030 C   0  0  0  0  0  0  0  0  0  0  0  0
   -0.7280   25.4530  -26.6900 C   0  0  0  0  0  0  0  0  0  0  0  0
   -1.9560   25.6840  -26.0120 C   0  0  0  0  0  0  0  0  0  0  0  0
   -3.1350   25.0610  -26.4780 C   0  0  0  0  0  0  0  0  0  0  0  0
   -4.2440   25.2720  -25.9150 O   0  0  0  0  0  0  0  0  0  0  0  0
   -1.9850   26.6370  -24.8460 C   0  0  0  0  0  0  0  0  0  0  0  0
   -0.7600   26.5760  -24.1210 O   0  0  0  0  0  0  0  0  0  0  0  0
    0.4740   26.4370  -24.7610 C   0  0  0  0  0  0  0  0  0  0  0  0
    1.5310   26.5530  -24.0840 O   0  0  0  0  0  0  0  0  0  0  0  0
    0.5420   26.1830  -26.2550 C   0  0  1  0  0  0  0  0  0  0  0  0
    1.6610   25.3670  -26.5310 O   0  0  0  0  0  0  0  0  0  0  0  0
    0.6590   27.5490  -26.9860 C   0  0  0  0  0  0  0  0  0  0  0  0
    0.0690   28.7220  -26.2000 C   0  0  0  0  0  0  0  0  0  0  0  0
   -8.9792   20.7751  -31.4086 H   0  0  0  0  0  0  0  0  0  0  0  0
   -8.0226   20.6859  -32.9264 H   0  0  0  0  0  0  0  0  0  0  0  0
   -9.7537   20.2063  -32.9264 H   0  0  0  0  0  0  0  0  0  0  0  0
   -8.5541   18.6185  -30.9210 H   0  0  0  0  0  0  0  0  0  0  0  0
   -9.0688   18.1154  -32.6099 H   0  0  0  0  0  0  0  0  0  0  0  0
   -6.6346   18.1086  -30.3003 H   0  0  0  0  0  0  0  0  0  0  0  0
   -6.2945   16.7000  -31.3617 H   0  0  0  0  0  0  0  0  0  0  0  0
   -5.1855   18.1130  -31.3617 H   0  0  0  0  0  0  0  0  0  0  0  0
   -6.4619   16.7703  -33.5349 H   0  0  0  0  0  0  0  0  0  0  0  0
   -7.8101   17.8248  -34.1883 H   0  0  0  0  0  0  0  0  0  0  0  0
   -6.3400   19.4155  -35.0335 H   0  0  0  0  0  0  0  0  0  0  0  0
   -4.9817   18.8816  -33.9955 H   0  0  0  0  0  0  0  0  0  0  0  0
   -4.1637   16.0781  -35.2068 H   0  0  0  0  0  0  0  0  0  0  0  0
   -3.4219   17.4491  -36.0924 H   0  0  0  0  0  0  0  0  0  0  0  0
   -4.5344   17.8593  -33.2920 H   0  0  0  0  0  0  0  0  0  0  0  0
   -2.8998   17.1294  -33.5309 H   0  0  0  0  0  0  0  0  0  0  0  0
   -0.6504   19.8957  -33.8511 H   0  0  0  0  0  0  0  0  0  0  0  0
    0.2030   21.4442  -32.1016 H   0  0  0  0  0  0  0  0  0  0  0  0
   -0.2600   22.8350  -30.1670 H   0  0  0  0  0  0  0  0  0  0  0  0
   -5.0732   21.6684  -30.2723 H   0  0  0  0  0  0  0  0  0  0  0  0
   -4.6574   20.2390  -32.2472 H   0  0  0  0  0  0  0  0  0  0  0  0
   -4.9403   24.1807  -28.5569 H   0  0  0  0  0  0  0  0  0  0  0  0
   -4.7000   22.8227  -27.4871 H   0  0  0  0  0  0  0  0  0  0  0  0
    0.2269   24.3874  -28.3458 H   0  0  0  0  0  0  0  0  0  0  0  0
   -2.1342   27.6610  -25.2191 H   0  0  0  0  0  0  0  0  0  0  0  0
   -2.8097   26.3537  -24.1755 H   0  0  0  0  0  0  0  0  0  0  0  0
    2.2700   25.3950  -25.7470 H   0  0  0  0  0  0  0  0  0  0  0  0
    1.7241   27.7546  -27.1687 H   0  0  0  0  0  0  0  0  0  0  0  0
    0.0809   27.4644  -27.9180 H   0  0  0  0  0  0  0  0  0  0  0  0
    0.1670   28.5272  -25.1218 H   0  0  0  0  0  0  0  0  0  0  0  0
    0.6103   29.6446  -26.4566 H   0  0  0  0  0  0  0  0  0  0  0  0
   -0.9944   28.8374  -26.4566 H   0  0  0  0  0  0  0  0  0  0  0  0
  1  2  1  0
  2  3  1  0
  3  4  1  0
  3  5  1  0
  5  6  1  0
  6  7  1  0
  7  8  1  0
  8  9  1  0
  9 10  1  0
 10 11  1  0
 11 12  2  0
 12 13  1  0
 13 14  2  0
 14 15  1  0
 15 16  2  0
 16 17  1  0
 17 18  2  0
 18 19  1  0
 19 20  2  0
 17 21  1  0
 21 22  1  0
 22 23  1  0
 23 24  2  0
 24 25  1  0
 25 26  2  0
 26 27  1  0
 27 28  2  0
 26 29  1  0
 29 30  1  0
 30 31  1  0
 31 32  2  0
 31 33  1  0
 33 34  1  1
 33 35  1  0
 35 36  1  0
 20 11  1  0
 27 22  1  0
 19 14  1  0
 33 25  1  0
 23 16  1  0
  1 37  1  0
  1 38  1  0
  1 39  1  0
  2 40  1  0
  2 41  1  0
  4 42  1  0
  4 43  1  0
  4 44  1  0
  5 45  1  0
  5 46  1  0
  6 47  1  0
  6 48  1  0
  8 49  1  0
  8 50  1  0
  9 51  1  0
  9 52  1  0
 12 53  1  0
 13 54  1  0
 15 55  1  0
 18 56  1  0
 20 57  1  0
 21 58  1  0
 21 59  1  0
 24 60  1  0
 29 61  1  0
 29 62  1  0
 34 63  1  0
 35 64  1  0
 35 65  1  0
 36 66  1  0
 36 67  1  0
 36 68  1  0
M  CHG  1  15   1
M  END
>  <UniqueID>  (11) 
11

>  <SMILES>  (11) 
CCN(C)CCOCCOc1ccc2[nH+]c3c(cc2c1)Cn1c-3cc2c(c1=O)COC(=O)[C@]2(O)CC

>  <Energy>  (11) 
109.42633301221791

>  <Genealogy>  (11) 
CCN(C)CCOCCOc1ccc2[nH+]c3c(cc2c1)Cn1c-3cc2c(c1=O)COC(=O)C2(O)CC (protonated)
CCN(C)CCOCCOc1ccc2[nH+]c3c(cc2c1)Cn1c-3cc2c(c1=O)COC(=O)[C@]2(O)CC (chirality)
CCN(C)CCOCCOc1ccc2[nH+]c3c(cc2c1)Cn1c-3cc2c(c1=O)COC(=O)[C@]2(O)CC (3D coordinates assigned)
CCN(C)CCOCCOc1ccc2[nH+]c3c(cc2c1)Cn1c-3cc2c(c1=O)COC(=O)[C@]2(O)CC (nonaromatic ring conformer: 109.42633301221791 kcal/mol)

>  <smiles>  (11) 
CCN(C)CCOCCOc1ccc2nc3c(cc2c1)Cn1c-3cc2c(c1=O)COC(=O)C2(O)CC

>  <score_type>  (11) 
oracle

>  <origin>  (11) 
adg

>  <m_score__min__energy>  (11) 
-7.5599999999999996

>  <m_primary>  (11) 
energy

$$$$
11:0
     RDKit          3D

 49 50  0  0  0  0  0  0  0  0999 V2000
   -2.7550   25.1000  -26.5150 C   0  0  0  0  0  0  0  0  0  0  0  0
   -4.0550   24.5360  -27.0830 C   0  0  0  0  0  0  0  0  0  0  0  0
   -3.7900   23.6660  -28.2390 N   0  0  0  0  0  0  0  0  0  0  0  0
   -2.8350   22.6040  -27.8790 C   0  0  0  0  0  0  0  0  0  0  0  0
   -2.7810   21.4900  -28.9400 C   0  0  0  0  0  0  0  0  0  0  0  0
   -3.9120   21.6030  -29.9760 C   0  0  0  0  0  0  0  0  0  0  0  0
   -3.9500   22.8740  -30.6090 O   0  0  0  0  0  0  0  0  0  0  0  0
   -5.2370   23.4380  -30.9040 C   0  0  0  0  0  0  0  0  0  0  0  0
   -5.3270   24.9880  -30.7190 C   0  0  0  0  0  0  0  0  0  0  0  0
   -4.0470   25.5630  -30.7050 O   0  0  0  0  0  0  0  0  0  0  0  0
   -5.4710   23.1340  -32.4130 C   0  0  0  0  0  0  0  0  0  0  0  0
   -5.8370   21.6650  -32.6520 C   0  0  0  0  0  0  0  0  0  0  0  0
   -7.0350   21.2930  -31.8830 N   0  0  0  0  0  0  0  0  0  0  0  0
   -7.8910   20.2370  -32.3550 C   0  0  0  0  0  0  0  0  0  0  0  0
   -9.1410   20.3980  -32.3390 O   0  0  0  0  0  0  0  0  0  0  0  0
   -7.3400   18.9650  -32.8660 C   0  0  0  0  0  0  0  0  0  0  0  0
   -6.4480   18.9010  -33.9490 C   0  0  0  0  0  0  0  0  0  0  0  0
   -6.0770   17.6070  -34.2890 C   0  0  0  0  0  0  0  0  0  0  0  0
   -6.8750   16.5480  -33.2580 S   0  0  0  0  0  0  0  0  0  0  0  0
   -7.6910   17.7140  -32.3650 C   0  0  0  0  0  0  0  0  0  0  0  0
   -7.5090   22.1760  -30.8110 C   0  0  0  0  0  0  0  0  0  0  0  0
   -6.3170   22.7250  -30.0180 C   0  0  0  0  0  0  0  0  0  0  0  0
   -2.7968   25.0819  -25.4159 H   0  0  0  0  0  0  0  0  0  0  0  0
   -1.9083   24.4883  -26.8599 H   0  0  0  0  0  0  0  0  0  0  0  0
   -2.6233   26.1362  -26.8599 H   0  0  0  0  0  0  0  0  0  0  0  0
   -4.5654   23.9523  -26.3027 H   0  0  0  0  0  0  0  0  0  0  0  0
   -4.6871   25.3740  -27.4120 H   0  0  0  0  0  0  0  0  0  0  0  0
   -4.6930   23.2370  -28.5470 H   0  0  0  0  0  0  0  0  0  0  0  0
   -3.3930   24.2430  -29.0180 H   0  0  0  0  0  0  0  0  0  0  0  0
   -1.8332   23.0470  -27.7785 H   0  0  0  0  0  0  0  0  0  0  0  0
   -3.1693   22.1544  -26.9324 H   0  0  0  0  0  0  0  0  0  0  0  0
   -1.8159   21.5497  -29.4644 H   0  0  0  0  0  0  0  0  0  0  0  0
   -2.9017   20.5286  -28.4193 H   0  0  0  0  0  0  0  0  0  0  0  0
   -3.7631   20.8310  -30.7453 H   0  0  0  0  0  0  0  0  0  0  0  0
   -4.8651   21.4681  -29.4437 H   0  0  0  0  0  0  0  0  0  0  0  0
   -5.9062   25.4174  -31.5497 H   0  0  0  0  0  0  0  0  0  0  0  0
   -5.8197   25.2006  -29.7588 H   0  0  0  0  0  0  0  0  0  0  0  0
   -3.4630   24.9530  -31.2260 H   0  0  0  0  0  0  0  0  0  0  0  0
   -6.2909   23.7687  -32.7803 H   0  0  0  0  0  0  0  0  0  0  0  0
   -4.5347   23.3431  -32.9512 H   0  0  0  0  0  0  0  0  0  0  0  0
   -6.0344   21.5123  -33.7233 H   0  0  0  0  0  0  0  0  0  0  0  0
   -4.9975   21.0346  -32.3235 H   0  0  0  0  0  0  0  0  0  0  0  0
   -6.0783   19.7919  -34.4778 H   0  0  0  0  0  0  0  0  0  0  0  0
   -5.3817   17.3246  -35.0933 H   0  0  0  0  0  0  0  0  0  0  0  0
   -8.3817   17.5227  -31.5305 H   0  0  0  0  0  0  0  0  0  0  0  0
   -8.0708   23.0134  -31.2505 H   0  0  0  0  0  0  0  0  0  0  0  0
   -8.1605   21.6041  -30.1338 H   0  0  0  0  0  0  0  0  0  0  0  0
   -6.6951   23.4503  -29.2825 H   0  0  0  0  0  0  0  0  0  0  0  0
   -5.8235   21.8625  -29.5462 H   0  0  0  0  0  0  0  0  0  0  0  0
  1  2  1  0
  2  3  1  0
  3  4  1  0
  4  5  1  0
  5  6  1  0
  6  7  1  0
  7  8  1  0
  8  9  1  0
  9 10  1  0
  8 11  1  0
 11 12  1  0
 12 13  1  0
 13 14  1  0
 14 15  2  0
 14 16  1  0
 16 17  1  0
 17 18  2  0
 18 19  1  0
 19 20  1  0
 13 21  1  0
 21 22  1  0
 22  8  1  0
 20 16  2  0
  1 23  1  0
  1 24  1  0
  1 25  1  0
  2 26  1  0
  2 27  1  0
  3 28  1  0
  3 29  1  0
  4 30  1  0
  4 31  1  0
  5 32  1  0
  5 33  1  0
  6 34  1  0
  6 35  1  0
  9 36  1  0
  9 37  1  0
 10 38  1  0
 11 39  1  0
 11 40  1  0
 12 41  1  0
 12 42  1  0
 17 43  1  0
 18 44  1  0
 20 45  1  0
 21 46  1  0
 21 47  1  0
 22 48  1  0
 22 49  1  0
M  CHG  1   3   1
M  END
>  <UniqueID>  (12) 
12

>  <SMILES>  (12) 
CC[NH2+]CCCOC1(CO)CCN(C(=O)c2ccsc2)CC1

>  <Energy>  (12) 
87.36205270403147

>  <Genealogy>  (12) 
CC[NH2+]CCCOC1(CO)CCN(C(=O)c2ccsc2)CC1 (protonated)
CC[NH2+]CCCOC1(CO)CCN(C(=O)c2ccsc2)CC1 (3D coordinates assigned)
CC[NH2+]CCCOC1(CO)CCN(C(=O)c2ccsc2)CC1 (nonaromatic ring conformer: 87.36205270403147 kcal/mol)

>  <smiles>  (12) 
CCNCCCOC1(CO)CCN(C(=O)c2ccsc2)CC1

>  <score_type>  (12) 
oracle

>  <origin>  (12) 
adg

>  <m_score__min__energy>  (12) 
-6.8399999999999999

>  <m_primary>  (12) 
energy

$$$$
12:0
     RDKit          3D

 63 66  0  0  0  0  0  0  0  0999 V2000
    0.3390   21.0950  -36.0990 C   0  0  0  0  0  0  0  0  0  0  0  0
   -0.0890   20.6700  -34.6920 C   0  0  0  0  0  0  0  0  0  0  0  0
   -1.2810   21.4070  -34.2260 N   0  0  0  0  0  0  0  0  0  0  0  0
   -1.4000   21.4380  -32.7560 C   0  0  0  0  0  0  0  0  0  0  0  0
   -2.7830   20.9600  -32.2800 C   0  0  0  0  0  0  0  0  0  0  0  0
   -3.6650   20.6960  -33.4180 N   0  0  0  0  0  0  0  0  0  0  0  0
   -4.3940   19.4670  -33.5390 C   0  0  0  0  0  0  0  0  0  0  0  0
   -3.8110   18.3050  -34.0980 C   0  0  0  0  0  0  0  0  0  0  0  0
   -2.4410   18.2760  -34.4270 C   0  0  0  0  0  0  0  0  0  0  0  0
   -1.8780   17.1530  -35.0260 C   0  0  0  0  0  0  0  0  0  0  0  0
   -2.6630   16.0400  -35.3040 C   0  0  0  0  0  0  0  0  0  0  0  0
   -4.0150   16.0250  -34.9570 C   0  0  0  0  0  0  0  0  0  0  0  0
   -4.6170   17.1380  -34.3180 C   0  0  0  0  0  0  0  0  0  0  0  0
   -5.9470   17.1160  -33.9240 N   0  0  0  0  0  0  0  0  0  0  0  0
   -6.7680   15.8980  -34.0680 C   0  0  0  0  0  0  0  0  0  0  0  0
   -6.4870   18.2600  -33.3930 C   0  0  0  0  0  0  0  0  0  0  0  0
   -7.7850   18.4580  -33.0480 N   0  0  0  0  0  0  0  0  0  0  0  0
   -7.8390   19.7250  -32.5940 C   0  0  0  0  0  0  0  0  0  0  0  0
   -8.9710   20.4010  -32.1430 C   0  0  0  0  0  0  0  0  0  0  0  0
   -8.8240   21.7350  -31.7260 C   0  0  0  0  0  0  0  0  0  0  0  0
   -7.5540   22.3640  -31.7500 C   0  0  0  0  0  0  0  0  0  0  0  0
   -7.4160   23.8070  -31.3490 C   0  0  0  0  0  0  0  0  0  0  0  0
   -5.9920   24.3080  -31.6370 C   0  0  0  0  0  0  0  0  0  0  0  0
   -5.3500   25.0170  -30.4240 C   0  0  0  0  0  0  0  0  0  0  0  0
   -6.4090   25.6280  -29.4920 C   0  0  0  0  0  0  0  0  0  0  0  0
   -4.4780   24.0280  -29.6400 C   0  0  0  0  0  0  0  0  0  0  0  0
   -6.4280   21.6550  -32.2190 C   0  0  0  0  0  0  0  0  0  0  0  0
   -6.6060   20.3360  -32.6450 C   0  0  0  0  0  0  0  0  0  0  0  0
   -5.7370   19.3990  -33.1760 C   0  0  0  0  0  0  0  0  0  0  0  0
    1.1179   21.8684  -36.0274 H   0  0  0  0  0  0  0  0  0  0  0  0
    0.7362   20.2237  -36.6403 H   0  0  0  0  0  0  0  0  0  0  0  0
   -0.5295   21.4983  -36.6403 H   0  0  0  0  0  0  0  0  0  0  0  0
   -0.3186   19.5943  -34.7012 H   0  0  0  0  0  0  0  0  0  0  0  0
    0.7389   20.8964  -34.0039 H   0  0  0  0  0  0  0  0  0  0  0  0
   -2.1420   20.9690  -34.6290 H   0  0  0  0  0  0  0  0  0  0  0  0
   -1.2410   22.3850  -34.5970 H   0  0  0  0  0  0  0  0  0  0  0  0
   -0.6294   20.7830  -32.3233 H   0  0  0  0  0  0  0  0  0  0  0  0
   -1.2679   22.4790  -32.4261 H   0  0  0  0  0  0  0  0  0  0  0  0
   -2.6631   20.0359  -31.6954 H   0  0  0  0  0  0  0  0  0  0  0  0
   -3.2341   21.7501  -31.6618 H   0  0  0  0  0  0  0  0  0  0  0  0
   -3.7780   21.4240  -34.1580 H   0  0  0  0  0  0  0  0  0  0  0  0
   -1.8101   19.1501  -34.2081 H   0  0  0  0  0  0  0  0  0  0  0  0
   -0.8078   17.1461  -35.2804 H   0  0  0  0  0  0  0  0  0  0  0  0
   -2.2162   15.1659  -35.8003 H   0  0  0  0  0  0  0  0  0  0  0  0
   -4.6224   15.1361  -35.1828 H   0  0  0  0  0  0  0  0  0  0  0  0
   -7.0285   15.5115  -33.0716 H   0  0  0  0  0  0  0  0  0  0  0  0
   -7.6884   16.1394  -34.6198 H   0  0  0  0  0  0  0  0  0  0  0  0
   -6.1989   15.1354  -34.6198 H   0  0  0  0  0  0  0  0  0  0  0  0
   -8.6000   17.8140  -33.1400 H   0  0  0  0  0  0  0  0  0  0  0  0
   -9.9521   19.9044  -32.1142 H   0  0  0  0  0  0  0  0  0  0  0  0
   -9.7033   22.2966  -31.3775 H   0  0  0  0  0  0  0  0  0  0  0  0
   -8.1358   24.4124  -31.9195 H   0  0  0  0  0  0  0  0  0  0  0  0
   -7.6160   23.8991  -30.2713 H   0  0  0  0  0  0  0  0  0  0  0  0
   -5.3655   23.4469  -31.9128 H   0  0  0  0  0  0  0  0  0  0  0  0
   -6.0581   25.0426  -32.4531 H   0  0  0  0  0  0  0  0  0  0  0  0
   -4.7272   25.8376  -30.8098 H   0  0  0  0  0  0  0  0  0  0  0  0
   -6.1170   25.4595  -28.4449 H   0  0  0  0  0  0  0  0  0  0  0  0
   -6.4850   26.7088  -29.6821 H   0  0  0  0  0  0  0  0  0  0  0  0
   -7.3827   25.1529  -29.6821 H   0  0  0  0  0  0  0  0  0  0  0  0
   -4.6201   24.1892  -28.5612 H   0  0  0  0  0  0  0  0  0  0  0  0
   -4.7680   22.9988  -29.8983 H   0  0  0  0  0  0  0  0  0  0  0  0
   -3.4206   24.1868  -29.8983 H   0  0  0  0  0  0  0  0  0  0  0  0
   -5.4355   22.1283  -32.2486 H   0  0  0  0  0  0  0  0  0  0  0  0
  1  2  1  0
  2  3  1  0
  3  4  1  0
  4  5  1  0
  5  6  1  0
  6  7  1  0
  7  8  2  0
  8  9  1  0
  9 10  2  0
 10 11  1  0
 11 12  2  0
 12 13  1  0
 13 14  2  0
 14 15  1  0
 14 16  1  0
 16 17  1  0
 17 18  1  0
 18 19  2  0
 19 20  1  0
 20 21  2  0
 21 22  1  0
 22 23  1  0
 23 24  1  0
 24 25  1  0
 24 26  1  0
 21 27  1  0
 27 28  2  0
 28 29  1  0
 29  7  1  0
 13  8  1  0
 29 16  2  0
 28 18  1  0
  1 30  1  0
  1 31  1  0
  1 32  1  0
  2 33  1  0
  2 34  1  0
  3 35  1  0
  3 36  1  0
  4 37  1  0
  4 38  1  0
  5 39  1  0
  5 40  1  0
  6 41  1  0
  9 42  1  0
 10 43  1  0
 11 44  1  0
 12 45  1  0
 15 46  1  0
 15 47  1  0
 15 48  1  0
 17 49  1  0
 19 50  1  0
 20 51  1  0
 22 52  1  0
 22 53  1  0
 23 54  1  0
 23 55  1  0
 24 56  1  0
 25 57  1  0
 25 58  1  0
 25 59  1  0
 26 60  1  0
 26 61  1  0
 26 62  1  0
 27 63  1  0
M  CHG  2   3   1  14   1
M  END
>  <UniqueID>  (13) 
13

>  <SMILES>  (13) 
CC[NH2+]CCNc1c2ccccc2[n+](C)c2[nH]c3ccc(CCC(C)C)cc3c12

>  <Energy>  (13) 
111.97460124732909

>  <Genealogy>  (13) 
CC[NH2+]CCNc1c2ccccc2[n+](C)c2[nH]c3ccc(CCC(C)C)cc3c12 (protonated)
CC[NH2+]CCNc1c2ccccc2[n+](C)c2[nH]c3ccc(CCC(C)C)cc3c12 (3D coordinates assigned)
CC[NH2+]CCNc1c2ccccc2[n+](C)c2[nH]c3ccc(CCC(C)C)cc3c12 (optimized conformer: 111.97460124732909 kcal/mol)

>  <smiles>  (13) 
CCNCCNc1c2ccccc2[n+](C)c2[nH]c3ccc(CCC(C)C)cc3c12

>  <score_type>  (13) 
oracle

>  <origin>  (13) 
adg

>  <m_score__min__energy>  (13) 
-8.5600000000000005

>  <m_primary>  (13) 
energy

$$$$
13:0
     RDKit          3D

 79 81  0  0  0  0  0  0  0  0999 V2000
   -2.5970   24.3950  -27.4840 C   0  0  0  0  0  0  0  0  0  0  0  0
   -1.8770   24.8850  -28.7420 C   0  0  0  0  0  0  0  0  0  0  0  0
   -0.4360   24.5450  -28.7180 N   0  0  0  0  0  0  0  0  0  0  0  0
    0.1750   24.9610  -27.4390 C   0  0  0  0  0  0  0  0  0  0  0  0
   -0.2440   23.0900  -28.9300 C   0  0  0  0  0  0  0  0  0  0  0  0
   -0.8450   22.6560  -30.2740 C   0  0  0  0  0  0  0  0  0  0  0  0
   -0.9120   21.2420  -30.3450 O   0  0  0  0  0  0  0  0  0  0  0  0
   -1.3550   20.6800  -29.1230 C   0  0  0  0  0  0  0  0  0  0  0  0
   -2.8640   20.8570  -28.9670 C   0  0  0  0  0  0  0  0  0  0  0  0
   -3.4510   20.9720  -30.2510 O   0  0  0  0  0  0  0  0  0  0  0  0
   -4.3640   22.0530  -30.3020 C   0  0  0  0  0  0  0  0  0  0  0  0
   -4.0930   22.9700  -31.5010 C   0  0  0  0  0  0  0  0  0  0  0  0
   -4.6170   22.3800  -32.7320 N   0  0  0  0  0  0  0  0  0  0  0  0
   -5.3310   21.1380  -32.6870 C   0  0  0  0  0  0  0  0  0  0  0  0
   -6.7090   21.1600  -32.4030 C   0  0  0  0  0  0  0  0  0  0  0  0
   -7.3530   22.3670  -32.0480 C   0  0  0  0  0  0  0  0  0  0  0  0
   -8.7250   22.4020  -31.8200 C   0  0  0  0  0  0  0  0  0  0  0  0
   -9.4820   21.2450  -31.9530 C   0  0  0  0  0  0  0  0  0  0  0  0
   -8.8670   20.0400  -32.2930 C   0  0  0  0  0  0  0  0  0  0  0  0
   -7.4640   19.9630  -32.4950 C   0  0  0  0  0  0  0  0  0  0  0  0
   -6.8400   18.7730  -32.8090 N   0  0  0  0  0  0  0  0  0  0  0  0
   -7.5730   17.4950  -32.6520 C   0  0  0  0  0  0  0  0  0  0  0  0
   -5.5230   18.7690  -33.2350 C   0  0  0  0  0  0  0  0  0  0  0  0
   -4.9600   17.6290  -33.8590 C   0  0  0  0  0  0  0  0  0  0  0  0
   -3.6140   17.5880  -34.2200 C   0  0  0  0  0  0  0  0  0  0  0  0
   -3.0330   16.3440  -34.8260 C   0  0  0  0  0  0  0  0  0  0  0  0
   -2.7890   18.6660  -33.9130 C   0  0  0  0  0  0  0  0  0  0  0  0
   -3.3090   19.8360  -33.3450 C   0  0  0  0  0  0  0  0  0  0  0  0
   -2.3860   20.8530  -32.9180 N   0  0  0  0  0  0  0  0  0  0  0  0
   -1.4590   21.5280  -33.8290 C   0  0  0  0  0  0  0  0  0  0  0  0
   -0.0140   21.1300  -33.5190 C   0  0  0  0  0  0  0  0  0  0  0  0
    0.9310   21.8640  -34.3900 N   0  0  0  0  0  0  0  0  0  0  0  0
    0.3030   22.1900  -35.6800 C   0  0  0  0  0  0  0  0  0  0  0  0
    2.1550   21.0740  -34.6230 C   0  0  0  0  0  0  0  0  0  0  0  0
   -4.7090   19.9270  -33.0770 C   0  0  0  0  0  0  0  0  0  0  0  0
   -2.0646   24.7573  -26.5922 H   0  0  0  0  0  0  0  0  0  0  0  0
   -3.6273   24.7802  -27.4777 H   0  0  0  0  0  0  0  0  0  0  0  0
   -2.6167   23.2952  -27.4777 H   0  0  0  0  0  0  0  0  0  0  0  0
   -2.3392   24.4151  -29.6227 H   0  0  0  0  0  0  0  0  0  0  0  0
   -1.9694   25.9803  -28.7843 H   0  0  0  0  0  0  0  0  0  0  0  0
   -0.4156   24.5589  -26.6026 H   0  0  0  0  0  0  0  0  0  0  0  0
    1.2032   24.5745  -27.3810 H   0  0  0  0  0  0  0  0  0  0  0  0
    0.1923   26.0593  -27.3810 H   0  0  0  0  0  0  0  0  0  0  0  0
    0.8323   22.8629  -28.9251 H   0  0  0  0  0  0  0  0  0  0  0  0
   -0.7519   22.5437  -28.1215 H   0  0  0  0  0  0  0  0  0  0  0  0
   -1.8581   23.0733  -30.3710 H   0  0  0  0  0  0  0  0  0  0  0  0
   -0.2070   23.0271  -31.0897 H   0  0  0  0  0  0  0  0  0  0  0  0
   -1.1134   19.6069  -29.1097 H   0  0  0  0  0  0  0  0  0  0  0  0
   -0.8494   21.1936  -28.2920 H   0  0  0  0  0  0  0  0  0  0  0  0
   -3.2855   19.9848  -28.4458 H   0  0  0  0  0  0  0  0  0  0  0  0
   -3.0727   21.7641  -28.3808 H   0  0  0  0  0  0  0  0  0  0  0  0
   -5.3855   21.6530  -30.3831 H   0  0  0  0  0  0  0  0  0  0  0  0
   -4.2440   22.6461  -29.3834 H   0  0  0  0  0  0  0  0  0  0  0  0
   -4.5804   23.9412  -31.3302 H   0  0  0  0  0  0  0  0  0  0  0  0
   -3.0061   23.1017  -31.6068 H   0  0  0  0  0  0  0  0  0  0  0  0
   -4.2830   22.7190  -33.6630 H   0  0  0  0  0  0  0  0  0  0  0  0
   -6.7623   23.2898  -31.9508 H   0  0  0  0  0  0  0  0  0  0  0  0
   -9.2107   23.3467  -31.5342 H   0  0  0  0  0  0  0  0  0  0  0  0
  -10.5693   21.2791  -31.7898 H   0  0  0  0  0  0  0  0  0  0  0  0
   -9.4799   19.1336  -32.4066 H   0  0  0  0  0  0  0  0  0  0  0  0
   -7.6997   17.2741  -31.5819 H   0  0  0  0  0  0  0  0  0  0  0  0
   -8.5608   17.5779  -33.1288 H   0  0  0  0  0  0  0  0  0  0  0  0
   -7.0026   16.6842  -33.1288 H   0  0  0  0  0  0  0  0  0  0  0  0
   -5.5986   16.7570  -34.0633 H   0  0  0  0  0  0  0  0  0  0  0  0
   -2.7138   15.6606  -34.0253 H   0  0  0  0  0  0  0  0  0  0  0  0
   -3.7934   15.8497  -35.4484 H   0  0  0  0  0  0  0  0  0  0  0  0
   -2.1659   16.6098  -35.4484 H   0  0  0  0  0  0  0  0  0  0  0  0
   -1.7108   18.5981  -34.1198 H   0  0  0  0  0  0  0  0  0  0  0  0
   -2.3930   21.1540  -31.9170 H   0  0  0  0  0  0  0  0  0  0  0  0
   -1.6982   21.2436  -34.8643 H   0  0  0  0  0  0  0  0  0  0  0  0
   -1.5630   22.6154  -33.6995 H   0  0  0  0  0  0  0  0  0  0  0  0
    0.2074   21.3653  -32.4675 H   0  0  0  0  0  0  0  0  0  0  0  0
    0.1020   20.0516  -33.7023 H   0  0  0  0  0  0  0  0  0  0  0  0
   -0.6605   22.6902  -35.5027 H   0  0  0  0  0  0  0  0  0  0  0  0
    0.9638   22.8589  -36.2509 H   0  0  0  0  0  0  0  0  0  0  0  0
    0.1362   21.2646  -36.2509 H   0  0  0  0  0  0  0  0  0  0  0  0
    2.5968   20.7888  -33.6568 H   0  0  0  0  0  0  0  0  0  0  0  0
    1.9033   20.1674  -35.1929 H   0  0  0  0  0  0  0  0  0  0  0  0
    2.8774   21.6767  -35.1929 H   0  0  0  0  0  0  0  0  0  0  0  0
  1  2  1  0
  2  3  1  0
  3  4  1  0
  3  5  1  0
  5  6  1  0
  6  7  1  0
  7  8  1  0
  8  9  1  0
  9 10  1  0
 10 11  1  0
 11 12  1  0
 12 13  1  0
 13 14  1  0
 14 15  2  0
 15 16  1  0
 16 17  2  0
 17 18  1  0
 18 19  2  0
 19 20  1  0
 20 21  2  0
 21 22  1  0
 21 23  1  0
 23 24  2  0
 24 25  1  0
 25 26  1  0
 25 27  2  0
 27 28  1  0
 28 29  1  0
 29 30  1  0
 30 31  1  0
 31 32  1  0
 32 33  1  0
 32 34  1  0
 28 35  2  0
 35 14  1  0
 20 15  1  0
 35 23  1  0
  1 36  1  0
  1 37  1  0
  1 38  1  0
  2 39  1  0
  2 40  1  0
  4 41  1  0
  4 42  1  0
  4 43  1  0
  5 44  1  0
  5 45  1  0
  6 46  1  0
  6 47  1  0
  8 48  1  0
  8 49  1  0
  9 50  1  0
  9 51  1  0
 11 52  1  0
 11 53  1  0
 12 54  1  0
 12 55  1  0
 13 56  1  0
 16 57  1  0
 17 58  1  0
 18 59  1  0
 19 60  1  0
 22 61  1  0
 22 62  1  0
 22 63  1  0
 24 64  1  0
 26 65  1  0
 26 66  1  0
 26 67  1  0
 27 68  1  0
 29 69  1  0
 30 70  1  0
 30 71  1  0
 31 72  1  0
 31 73  1  0
 33 74  1  0
 33 75  1  0
 33 76  1  0
 34 77  1  0
 34 78  1  0
 34 79  1  0
M  CHG  1  21   1
M  END
>  <UniqueID>  (14) 
14

>  <SMILES>  (14) 
CCN(C)CCOCCOCCNc1c2ccccc2[n+](C)c2cc(C)cc(NCCN(C)C)c12

>  <Energy>  (14) 
112.64630129117344

>  <Genealogy>  (14) 
CCN(C)CCOCCOCCNc1c2ccccc2[n+](C)c2cc(C)cc(NCCN(C)C)c12 (3D coordinates assigned)
CCN(C)CCOCCOCCNc1c2ccccc2[n+](C)c2cc(C)cc(NCCN(C)C)c12 (optimized conformer: 112.64630129117344 kcal/mol)

>  <smiles>  (14) 
CCN(C)CCOCCOCCNc1c2ccccc2[n+](C)c2cc(C)cc(NCCN(C)C)c12

>  <score_type>  (14) 
oracle

>  <origin>  (14) 
adg

>  <m_score__min__energy>  (14) 
-9.1600000000000001

>  <m_primary>  (14) 
energy

$$$$
14:0
     RDKit          3D

 58 60  0  0  0  0  0  0  0  0999 V2000
   -5.4140   24.9620  -29.8440 C   0  0  0  0  0  0  0  0  0  0  0  0
   -4.1090   24.2060  -30.0820 C   0  0  0  0  0  0  0  0  0  0  0  0
   -4.1460   22.8170  -29.4250 C   0  0  0  0  0  0  0  0  0  0  0  0
   -3.0420   21.9530  -29.8990 N   0  0  0  0  0  0  0  0  0  0  0  0
   -2.7730   20.8730  -28.9340 C   0  0  0  0  0  0  0  0  0  0  0  0
   -1.8080   22.6640  -30.3280 C   0  0  0  0  0  0  0  0  0  0  0  0
   -0.8460   21.8500  -31.2160 C   0  0  0  0  0  0  0  0  0  0  0  0
   -1.5610   20.7700  -31.9080 N   0  0  0  0  0  0  0  0  0  0  0  0
   -2.0000   21.1560  -33.2580 C   0  0  0  0  0  0  0  0  0  0  0  0
   -3.5350   21.1170  -33.4080 C   0  0  0  0  0  0  0  0  0  0  0  0
   -4.2210   21.0230  -32.1050 N   0  0  0  0  0  0  0  0  0  0  0  0
   -5.5540   20.4430  -32.2310 C   0  0  0  0  0  0  0  0  0  0  0  0
   -5.7060   19.0630  -32.5500 C   0  0  0  0  0  0  0  0  0  0  0  0
   -4.5850   18.2180  -32.7620 C   0  0  0  0  0  0  0  0  0  0  0  0
   -4.7450   16.8890  -33.1460 C   0  0  0  0  0  0  0  0  0  0  0  0
   -6.0150   16.3690  -33.3370 C   0  0  0  0  0  0  0  0  0  0  0  0
   -7.1340   17.1610  -33.1060 C   0  0  0  0  0  0  0  0  0  0  0  0
   -7.0090   18.5050  -32.6650 C   0  0  0  0  0  0  0  0  0  0  0  0
   -8.1210   19.2620  -32.3650 N   0  0  0  0  0  0  0  0  0  0  0  0
   -9.4310   18.5990  -32.1620 C   0  0  0  0  0  0  0  0  0  0  0  0
   -8.0100   20.6280  -32.2130 C   0  0  0  0  0  0  0  0  0  0  0  0
   -9.1620   21.4560  -32.1930 C   0  0  0  0  0  0  0  0  0  0  0  0
   -9.0680   22.8210  -31.9530 C   0  0  0  0  0  0  0  0  0  0  0  0
   -7.8300   23.4020  -31.7340 C   0  0  0  0  0  0  0  0  0  0  0  0
   -6.6730   22.6300  -31.8000 C   0  0  0  0  0  0  0  0  0  0  0  0
   -6.7280   21.2390  -32.0810 C   0  0  0  0  0  0  0  0  0  0  0  0
   -5.5875   25.0625  -28.7624 H   0  0  0  0  0  0  0  0  0  0  0  0
   -5.3471   25.9612  -30.2991 H   0  0  0  0  0  0  0  0  0  0  0  0
   -6.2476   24.4069  -30.2991 H   0  0  0  0  0  0  0  0  0  0  0  0
   -3.9550   24.0872  -31.1647 H   0  0  0  0  0  0  0  0  0  0  0  0
   -3.2853   24.7819  -29.6350 H   0  0  0  0  0  0  0  0  0  0  0  0
   -4.0609   22.9368  -28.3349 H   0  0  0  0  0  0  0  0  0  0  0  0
   -5.0968   22.3359  -29.6980 H   0  0  0  0  0  0  0  0  0  0  0  0
   -2.8702   21.2634  -27.9102 H   0  0  0  0  0  0  0  0  0  0  0  0
   -3.4955   20.0575  -29.0856 H   0  0  0  0  0  0  0  0  0  0  0  0
   -1.7524   20.4916  -29.0856 H   0  0  0  0  0  0  0  0  0  0  0  0
   -2.1113   23.5598  -30.8898 H   0  0  0  0  0  0  0  0  0  0  0  0
   -1.2517   22.8856  -29.4053 H   0  0  0  0  0  0  0  0  0  0  0  0
   -0.3924   22.5182  -31.9628 H   0  0  0  0  0  0  0  0  0  0  0  0
   -0.0689   21.4049  -30.5773 H   0  0  0  0  0  0  0  0  0  0  0  0
   -2.3910   20.4820  -31.3380 H   0  0  0  0  0  0  0  0  0  0  0  0
   -1.6502   22.1782  -33.4650 H   0  0  0  0  0  0  0  0  0  0  0  0
   -1.5738   20.4337  -33.9698 H   0  0  0  0  0  0  0  0  0  0  0  0
   -3.8645   22.0352  -33.9162 H   0  0  0  0  0  0  0  0  0  0  0  0
   -3.7943   20.2210  -33.9911 H   0  0  0  0  0  0  0  0  0  0  0  0
   -3.6150   20.5330  -31.4160 H   0  0  0  0  0  0  0  0  0  0  0  0
   -4.2870   21.9750  -31.6820 H   0  0  0  0  0  0  0  0  0  0  0  0
   -3.5712   18.6206  -32.6203 H   0  0  0  0  0  0  0  0  0  0  0  0
   -3.8618   16.2511  -33.2979 H   0  0  0  0  0  0  0  0  0  0  0  0
   -6.1380   15.3284  -33.6718 H   0  0  0  0  0  0  0  0  0  0  0  0
   -8.1364   16.7380  -33.2681 H   0  0  0  0  0  0  0  0  0  0  0  0
   -9.6283   18.4991  -31.0845 H   0  0  0  0  0  0  0  0  0  0  0  0
  -10.2240   19.2043  -32.6254 H   0  0  0  0  0  0  0  0  0  0  0  0
   -9.4129   17.6016  -32.6254 H   0  0  0  0  0  0  0  0  0  0  0  0
  -10.1505   21.0075  -32.3713 H   0  0  0  0  0  0  0  0  0  0  0  0
   -9.9769   23.4405  -31.9369 H   0  0  0  0  0  0  0  0  0  0  0  0
   -7.7605   24.4761  -31.5073 H   0  0  0  0  0  0  0  0  0  0  0  0
   -5.6965   23.1073  -31.6310 H   0  0  0  0  0  0  0  0  0  0  0  0
  1  2  1  0
  2  3  1  0
  3  4  1  0
  4  5  1  0
  4  6  1  0
  6  7  1  0
  7  8  1  0
  8  9  1  0
  9 10  1  0
 10 11  1  0
 11 12  1  0
 12 13  2  0
 13 14  1  0
 14 15  2  0
 15 16  1  0
 16 17  2  0
 17 18  1  0
 18 19  2  0
 19 20  1  0
 19 21  1  0
 21 22  2  0
 22 23  1  0
 23 24  2  0
 24 25  1  0
 25 26  2  0
 26 12  1  0
 18 13  1  0
 26 21  1  0
  1 27  1  0
  1 28  1  0
  1 29  1  0
  2 30  1  0
  2 31  1  0
  3 32  1  0
  3 33  1  0
  5 34  1  0
  5 35  1  0
  5 36  1  0
  6 37  1  0
  6 38  1  0
  7 39  1  0
  7 40  1  0
  8 41  1  0
  9 42  1  0
  9 43  1  0
 10 44  1  0
 10 45  1  0
 11 46  1  0
 11 47  1  0
 14 48  1  0
 15 49  1  0
 16 50  1  0
 17 51  1  0
 20 52  1  0
 20 53  1  0
 20 54  1  0
 22 55  1  0
 23 56  1  0
 24 57  1  0
 25 58  1  0
M  CHG  2  11   1  19   1
M  END
>  <UniqueID>  (15) 
15

>  <SMILES>  (15) 
CCCN(C)CCNCC[NH2+]c1c2ccccc2[n+](C)c2ccccc12

>  <Energy>  (15) 
88.37545256045546

>  <Genealogy>  (15) 
CCCN(C)CCNCC[NH2+]c1c2ccccc2[n+](C)c2ccccc12 (protonated)
CCCN(C)CCNCC[NH2+]c1c2ccccc2[n+](C)c2ccccc12 (3D coordinates assigned)
CCCN(C)CCNCC[NH2+]c1c2ccccc2[n+](C)c2ccccc12 (optimized conformer: 88.37545256045546 kcal/mol)

>  <smiles>  (15) 
CCCN(C)CCNCCNc1c2ccccc2[n+](C)c2ccccc12

>  <score_type>  (15) 
oracle

>  <origin>  (15) 
adg

>  <m_score__min__energy>  (15) 
-8.5600000000000005

>  <m_primary>  (15) 
energy

$$$$
15:0
     RDKit          3D

 59 58  0  0  0  0  0  0  0  0999 V2000
   -7.3028   16.9452  -31.8304 H   0  0  0  0  0  0  0  0  0  0  0  0
   -7.3760   17.8210  -32.4920 C   0  0  0  0  0  0  0  0  0  0  0  0
   -6.4970   17.9070  -33.5140 C   0  0  0  0  0  0  0  0  0  0  0  0
   -5.8870   16.6840  -34.1550 C   0  0  0  0  0  0  0  0  0  0  0  0
   -5.5423   15.9929  -33.3717 H   0  0  0  0  0  0  0  0  0  0  0  0
   -6.6408   16.1831  -34.7802 H   0  0  0  0  0  0  0  0  0  0  0  0
   -5.0334   16.9848  -34.7802 H   0  0  0  0  0  0  0  0  0  0  0  0
   -6.1050   19.2810  -34.0000 C   0  0  0  0  0  0  0  0  0  0  0  0
   -5.9181   19.9360  -33.1362 H   0  0  0  0  0  0  0  0  0  0  0  0
   -5.1919   19.2078  -34.6090 H   0  0  0  0  0  0  0  0  0  0  0  0
   -6.9193   19.7006  -34.6090 H   0  0  0  0  0  0  0  0  0  0  0  0
   -8.4530   18.8380  -32.1890 C   0  0  0  0  0  0  0  0  0  0  0  0
   -9.2691   18.3395  -31.6455 H   0  0  0  0  0  0  0  0  0  0  0  0
   -8.8060   19.2533  -33.1445 H   0  0  0  0  0  0  0  0  0  0  0  0
   -7.9220   20.0060  -31.3290 C   0  0  0  0  0  0  0  0  0  0  0  0
   -6.8237   19.9490  -31.3069 H   0  0  0  0  0  0  0  0  0  0  0  0
   -8.3695   19.8975  -30.3300 H   0  0  0  0  0  0  0  0  0  0  0  0
   -8.3290   21.4090  -31.8570 C   0  0  1  0  0  0  0  0  0  0  0  0
   -7.8675   21.5613  -32.8438 H   0  0  0  0  0  0  0  0  0  0  0  0
   -9.8620   21.4820  -32.0020 C   0  0  0  0  0  0  0  0  0  0  0  0
  -10.3241   21.5040  -31.0040 H   0  0  0  0  0  0  0  0  0  0  0  0
  -10.1352   22.3942  -32.5527 H   0  0  0  0  0  0  0  0  0  0  0  0
  -10.2206   20.5999  -32.5527 H   0  0  0  0  0  0  0  0  0  0  0  0
   -7.8070   22.5340  -30.9250 C   0  0  0  0  0  0  0  0  0  0  0  0
   -7.1474   22.0898  -30.1650 H   0  0  0  0  0  0  0  0  0  0  0  0
   -8.6749   23.0219  -30.4574 H   0  0  0  0  0  0  0  0  0  0  0  0
   -7.0350   23.5810  -31.6910 C   0  0  0  0  0  0  0  0  0  0  0  0
   -7.4613   24.5930  -31.7545 H   0  0  0  0  0  0  0  0  0  0  0  0
   -5.8650   23.3540  -32.2970 C   0  0  0  0  0  0  0  0  0  0  0  0
   -5.8274   23.3770  -33.3961 H   0  0  0  0  0  0  0  0  0  0  0  0
   -4.6580   23.0820  -31.5740 N   0  0  0  0  0  0  0  0  0  0  0  0
   -4.2600   23.9420  -30.4910 C   0  0  0  0  0  0  0  0  0  0  0  0
   -4.0280   25.1640  -30.7090 O   0  0  0  0  0  0  0  0  0  0  0  0
   -4.2040   23.4320  -29.0700 C   0  0  0  0  0  0  0  0  0  0  0  0
   -5.2331   23.3067  -28.7024 H   0  0  0  0  0  0  0  0  0  0  0  0
   -3.6528   22.4802  -29.0849 H   0  0  0  0  0  0  0  0  0  0  0  0
   -3.4810   24.3480  -28.1490 N   0  0  0  0  0  0  0  0  0  0  0  0
   -3.4360   25.2890  -28.6040 H   0  0  0  0  0  0  0  0  0  0  0  0
   -4.2210   24.5110  -26.8690 C   0  0  0  0  0  0  0  0  0  0  0  0
   -5.1649   25.0374  -27.0740 H   0  0  0  0  0  0  0  0  0  0  0  0
   -4.3935   23.5056  -26.4575 H   0  0  0  0  0  0  0  0  0  0  0  0
   -3.4340   25.3080  -25.8210 C   0  0  0  0  0  0  0  0  0  0  0  0
   -3.7437   24.9943  -24.8132 H   0  0  0  0  0  0  0  0  0  0  0  0
   -2.3579   25.1195  -25.9491 H   0  0  0  0  0  0  0  0  0  0  0  0
   -3.6360   26.3817  -25.9491 H   0  0  0  0  0  0  0  0  0  0  0  0
   -2.0680   23.9100  -27.9720 C   0  0  0  0  0  0  0  0  0  0  0  0
   -1.5408   24.6819  -27.3922 H   0  0  0  0  0  0  0  0  0  0  0  0
   -2.1077   22.9356  -27.4631 H   0  0  0  0  0  0  0  0  0  0  0  0
   -1.2940   23.6830  -29.2800 C   0  0  0  0  0  0  0  0  0  0  0  0
   -0.2623   23.3804  -29.0477 H   0  0  0  0  0  0  0  0  0  0  0  0
   -1.7856   22.8912  -29.8643 H   0  0  0  0  0  0  0  0  0  0  0  0
   -1.2801   24.6149  -29.8643 H   0  0  0  0  0  0  0  0  0  0  0  0
   -3.9750   21.8010  -31.7950 C   0  0  0  0  0  0  0  0  0  0  0  0
   -4.5900   20.9885  -31.3808 H   0  0  0  0  0  0  0  0  0  0  0  0
   -2.9955   21.8334  -31.2954 H   0  0  0  0  0  0  0  0  0  0  0  0
   -3.7560   21.5530  -33.2820 C   0  0  0  0  0  0  0  0  0  0  0  0
   -3.0332   20.7345  -33.4147 H   0  0  0  0  0  0  0  0  0  0  0  0
   -4.7116   21.2782  -33.7525 H   0  0  0  0  0  0  0  0  0  0  0  0
   -3.3651   22.4672  -33.7525 H   0  0  0  0  0  0  0  0  0  0  0  0
  1  2  1  0
  2  3  2  3
  3  4  1  0
  4  5  1  0
  4  6  1  0
  4  7  1  0
  3  8  1  0
  8  9  1  0
  8 10  1  0
  8 11  1  0
  2 12  1  0
 12 13  1  0
 12 14  1  0
 12 15  1  0
 15 16  1  0
 15 17  1  0
 15 18  1  0
 18 19  1  6
 18 20  1  0
 20 21  1  0
 20 22  1  0
 20 23  1  0
 18 24  1  0
 24 25  1  0
 24 26  1  0
 24 27  1  0
 27 28  1  0
 27 29  2  0
 29 30  1  0
 29 31  1  0
 31 32  1  0
 32 33  2  0
 32 34  1  0
 34 35  1  0
 34 36  1  0
 34 37  1  0
 37 38  1  0
 37 39  1  0
 39 40  1  0
 39 41  1  0
 39 42  1  0
 42 43  1  0
 42 44  1  0
 42 45  1  0
 37 46  1  0
 46 47  1  0
 46 48  1  0
 46 49  1  0
 49 50  1  0
 49 51  1  0
 49 52  1  0
 31 53  1  0
 53 54  1  0
 53 55  1  0
 53 56  1  0
 56 57  1  0
 56 58  1  0
 56 59  1  0
M  CHG  1  37   1
M  END
>  <UniqueID>  (16) 
16

>  <SMILES>  (16) 
CCN(/C=C\C[C@H](C)CCC=C(C)C)C(=O)C[NH+](CC)CC

>  <Energy>  (16) 
48.5722422058164

>  <Genealogy>  (16) 
CCN(C=CCC(C)CCC=C(C)C)C(=O)C[NH+](CC)CC (protonated)
CCN(C=CC[C@H](C)CCC=C(C)C)C(=O)C[NH+](CC)CC (chirality)
CCN(/C=C\C[C@H](C)CCC=C(C)C)C(=O)C[NH+](CC)CC (cis-trans isomerization)
CCN(/C=C\C[C@H](C)CCC=C(C)C)C(=O)C[NH+](CC)CC (3D coordinates assigned)
CCN(/C=C\C[C@H](C)CCC=C(C)C)C(=O)C[NH+](CC)CC (optimized conformer: 48.5722422058164 kcal/mol)

>  <smiles>  (16) 
CCN(CC)CC(=O)N(C=CCC(C)CCC=C(C)C)CC

>  <score_type>  (16) 
oracle

>  <origin>  (16) 
adg

>  <m_score__min__energy>  (16) 
-6.3200000000000003

>  <m_primary>  (16) 
energy

$$$$
16:0
     RDKit          3D

 60 61  0  0  0  0  0  0  0  0999 V2000
   -0.2180   20.7230  -35.0140 C   0  0  0  0  0  0  0  0  0  0  0  0
   -0.7620   21.5260  -33.8190 C   0  0  0  0  0  0  0  0  0  0  0  0
   -1.7590   20.7950  -32.9990 N   0  0  0  0  0  0  0  0  0  0  0  0
   -1.4340   19.3640  -32.7970 C   0  0  0  0  0  0  0  0  0  0  0  0
   -0.2520   19.1960  -31.8440 C   0  0  0  0  0  0  0  0  0  0  0  0
   -3.1420   20.9900  -33.4930 C   0  0  0  0  0  0  0  0  0  0  0  0
   -3.9200   19.6740  -33.4500 C   0  0  0  0  0  0  0  0  0  0  0  0
   -5.3090   19.9320  -33.4580 O   0  0  0  0  0  0  0  0  0  0  0  0
   -6.0180   18.8280  -33.9880 C   0  0  0  0  0  0  0  0  0  0  0  0
   -6.6740   18.0160  -32.8690 C   0  0  0  0  0  0  0  0  0  0  0  0
   -7.0840   18.9020  -31.7720 N   0  0  0  0  0  0  0  0  0  0  0  0
   -8.3930   19.5310  -32.0300 C   0  0  0  0  0  0  0  0  0  0  0  0
   -8.4370   20.9620  -31.4560 C   0  0  2  0  0  0  0  0  0  0  0  0
   -9.8460   21.5600  -31.5900 C   0  0  0  0  0  0  0  0  0  0  0  0
   -7.3810   21.8640  -32.1230 C   0  0  0  0  0  0  0  0  0  0  0  0
   -6.0640   21.6960  -31.5040 N   0  0  0  0  0  0  0  0  0  0  0  0
   -5.2810   22.8120  -31.0350 C   0  0  0  0  0  0  0  0  0  0  0  0
   -5.7800   24.1190  -31.1430 C   0  0  0  0  0  0  0  0  0  0  0  0
   -4.9880   25.1960  -30.7370 C   0  0  0  0  0  0  0  0  0  0  0  0
   -5.4290   26.3710  -30.8350 O   0  0  0  0  0  0  0  0  0  0  0  0
   -3.7680   24.9920  -30.2560 O   0  0  0  0  0  0  0  0  0  0  0  0
   -3.2430   23.7780  -30.1260 C   0  0  0  0  0  0  0  0  0  0  0  0
   -1.9500   23.6440  -29.6090 C   0  0  0  0  0  0  0  0  0  0  0  0
   -1.3860   22.3770  -29.4480 C   0  0  0  0  0  0  0  0  0  0  0  0
   -2.1150   21.2380  -29.7930 C   0  0  0  0  0  0  0  0  0  0  0  0
   -3.4090   21.3560  -30.3110 C   0  0  0  0  0  0  0  0  0  0  0  0
   -3.9840   22.6290  -30.5030 C   0  0  0  0  0  0  0  0  0  0  0  0
    0.3632   19.8650  -34.6451 H   0  0  0  0  0  0  0  0  0  0  0  0
   -1.0578   20.3613  -35.6255 H   0  0  0  0  0  0  0  0  0  0  0  0
    0.4294   21.3688  -35.6255 H   0  0  0  0  0  0  0  0  0  0  0  0
    0.0848   21.7975  -33.1716 H   0  0  0  0  0  0  0  0  0  0  0  0
   -1.2778   22.4035  -34.2361 H   0  0  0  0  0  0  0  0  0  0  0  0
   -2.3115   18.8528  -32.3742 H   0  0  0  0  0  0  0  0  0  0  0  0
   -1.1626   18.9274  -33.7695 H   0  0  0  0  0  0  0  0  0  0  0  0
   -0.6088   19.2467  -30.8047 H   0  0  0  0  0  0  0  0  0  0  0  0
    0.2256   18.2209  -32.0205 H   0  0  0  0  0  0  0  0  0  0  0  0
    0.4784   19.9994  -32.0205 H   0  0  0  0  0  0  0  0  0  0  0  0
   -3.6508   21.7315  -32.8596 H   0  0  0  0  0  0  0  0  0  0  0  0
   -3.1001   21.3431  -34.5339 H   0  0  0  0  0  0  0  0  0  0  0  0
   -3.6574   19.0670  -34.3290 H   0  0  0  0  0  0  0  0  0  0  0  0
   -3.6594   19.1310  -32.5295 H   0  0  0  0  0  0  0  0  0  0  0  0
   -6.7974   19.1947  -34.6721 H   0  0  0  0  0  0  0  0  0  0  0  0
   -5.3106   18.1798  -34.5260 H   0  0  0  0  0  0  0  0  0  0  0  0
   -7.5587   17.4975  -33.2671 H   0  0  0  0  0  0  0  0  0  0  0  0
   -5.9492   17.2826  -32.4859 H   0  0  0  0  0  0  0  0  0  0  0  0
   -6.3620   19.6550  -31.6760 H   0  0  0  0  0  0  0  0  0  0  0  0
   -8.5651   19.5727  -33.1156 H   0  0  0  0  0  0  0  0  0  0  0  0
   -9.1745   18.9311  -31.5406 H   0  0  0  0  0  0  0  0  0  0  0  0
   -8.1932   20.9057  -30.3848 H   0  0  0  0  0  0  0  0  0  0  0  0
  -10.2655   21.7380  -30.5888 H   0  0  0  0  0  0  0  0  0  0  0  0
   -9.7897   22.5118  -32.1385 H   0  0  0  0  0  0  0  0  0  0  0  0
  -10.4915   20.8583  -32.1385 H   0  0  0  0  0  0  0  0  0  0  0  0
   -7.3106   21.6037  -33.1894 H   0  0  0  0  0  0  0  0  0  0  0  0
   -7.6914   22.9116  -31.9955 H   0  0  0  0  0  0  0  0  0  0  0  0
   -5.6360   20.7430  -31.5030 H   0  0  0  0  0  0  0  0  0  0  0  0
   -6.7888   24.2946  -31.5449 H   0  0  0  0  0  0  0  0  0  0  0  0
   -1.3760   24.5395  -29.3285 H   0  0  0  0  0  0  0  0  0  0  0  0
   -0.3659   22.2764  -29.0488 H   0  0  0  0  0  0  0  0  0  0  0  0
   -1.6694   20.2416  -29.6568 H   0  0  0  0  0  0  0  0  0  0  0  0
   -3.9802   20.4522  -30.5696 H   0  0  0  0  0  0  0  0  0  0  0  0
  1  2  1  0
  2  3  1  0
  3  4  1  0
  4  5  1  0
  3  6  1  0
  6  7  1  0
  7  8  1  0
  8  9  1  0
  9 10  1  0
 10 11  1  0
 11 12  1  0
 12 13  1  0
 13 14  1  0
 13 15  1  0
 15 16  1  0
 16 17  1  0
 17 18  2  0
 18 19  1  0
 19 20  2  0
 19 21  1  0
 21 22  1  0
 22 23  2  0
 23 24  1  0
 24 25  2  0
 25 26  1  0
 26 27  2  0
 27 17  1  0
 27 22  1  0
  1 28  1  0
  1 29  1  0
  1 30  1  0
  2 31  1  0
  2 32  1  0
  4 33  1  0
  4 34  1  0
  5 35  1  0
  5 36  1  0
  5 37  1  0
  6 38  1  0
  6 39  1  0
  7 40  1  0
  7 41  1  0
  9 42  1  0
  9 43  1  0
 10 44  1  0
 10 45  1  0
 11 46  1  0
 12 47  1  0
 12 48  1  0
 13 49  1  1
 14 50  1  0
 14 51  1  0
 14 52  1  0
 15 53  1  0
 15 54  1  0
 16 55  1  0
 18 56  1  0
 23 57  1  0
 24 58  1  0
 25 59  1  0
 26 60  1  0
M  END
>  <UniqueID>  (17) 
17

>  <SMILES>  (17) 
CCN(CC)CCOCCNC[C@H](C)CNc1cc(=O)oc2ccccc12

>  <Energy>  (17) 
59.229198189876755

>  <Genealogy>  (17) 
CCN(CC)CCOCCNC[C@H](C)CNc1cc(=O)oc2ccccc12 (chirality)
CCN(CC)CCOCCNC[C@H](C)CNc1cc(=O)oc2ccccc12 (3D coordinates assigned)
CCN(CC)CCOCCNC[C@H](C)CNc1cc(=O)oc2ccccc12 (optimized conformer: 59.229198189876755 kcal/mol)

>  <smiles>  (17) 
CCN(CC)CCOCCNCC(C)CNc1cc(=O)oc2ccccc12

>  <score_type>  (17) 
oracle

>  <origin>  (17) 
adg

>  <m_score__min__energy>  (17) 
-8.3100000000000005

>  <m_primary>  (17) 
energy

$$$$
17:0
     RDKit          3D

 65 69  0  0  0  0  0  0  0  0999 V2000
   -0.4430   20.8190  -34.8290 C   0  0  0  0  0  0  0  0  0  0  0  0
    0.7570   19.9120  -34.5950 C   0  0  0  0  0  0  0  0  0  0  0  0
    0.2930   18.5630  -34.2510 N   0  0  0  0  0  0  0  0  0  0  0  0
   -0.1080   17.7920  -35.4380 C   0  0  0  0  0  0  0  0  0  0  0  0
   -1.4660   17.0950  -35.2340 C   0  0  0  0  0  0  0  0  0  0  0  0
   -1.7510   16.7310  -33.8300 N   0  0  0  0  0  0  0  0  0  0  0  0
   -3.0700   17.1570  -33.3920 C   0  0  0  0  0  0  0  0  0  0  0  0
   -3.2130   18.3830  -32.7260 C   0  0  0  0  0  0  0  0  0  0  0  0
   -4.4450   18.8380  -32.3160 C   0  0  0  0  0  0  0  0  0  0  0  0
   -5.5720   18.0660  -32.4020 N   0  0  0  0  0  0  0  0  0  0  0  0
   -6.7750   18.4220  -31.6280 C   0  0  0  0  0  0  0  0  0  0  0  0
   -5.5200   16.9050  -33.1550 C   0  0  0  0  0  0  0  0  0  0  0  0
   -6.6970   16.1970  -33.4850 C   0  0  0  0  0  0  0  0  0  0  0  0
   -6.6490   15.0050  -34.1990 C   0  0  0  0  0  0  0  0  0  0  0  0
   -5.4280   14.4740  -34.6200 C   0  0  0  0  0  0  0  0  0  0  0  0
   -5.3930   13.2350  -35.3550 N   0  0  0  0  0  0  0  0  0  0  0  0
   -6.4380   12.7490  -35.8380 O   0  0  0  0  0  0  0  0  0  0  0  0
   -4.2060   12.5650  -35.5420 O   0  0  0  0  0  0  0  0  0  0  0  0
   -4.2450   15.1740  -34.3350 C   0  0  0  0  0  0  0  0  0  0  0  0
   -4.2620   16.4020  -33.6320 C   0  0  0  0  0  0  0  0  0  0  0  0
   -4.2250   20.1520  -31.6980 C   0  0  0  0  0  0  0  0  0  0  0  0
   -5.1540   21.1350  -31.3390 C   0  0  0  0  0  0  0  0  0  0  0  0
   -4.6930   22.3620  -30.8050 C   0  0  0  0  0  0  0  0  0  0  0  0
   -3.2900   22.5780  -30.7280 C   0  0  0  0  0  0  0  0  0  0  0  0
   -2.4000   21.5800  -31.1730 C   0  0  0  0  0  0  0  0  0  0  0  0
   -1.1520   21.7630  -31.1370 O   0  0  0  0  0  0  0  0  0  0  0  0
   -2.9030   20.4130  -31.6550 N   0  0  0  0  0  0  0  0  0  0  0  0
   -2.1390   19.3350  -32.2770 C   0  0  0  0  0  0  0  0  0  0  0  0
   -2.7810   23.8880  -30.1790 C   0  0  0  0  0  0  0  0  0  0  0  0
   -3.6390   24.9470  -30.5910 O   0  0  0  0  0  0  0  0  0  0  0  0
   -5.0260   24.7980  -30.5990 C   0  0  0  0  0  0  0  0  0  0  0  0
   -5.7440   25.8060  -30.8400 O   0  0  0  0  0  0  0  0  0  0  0  0
   -5.6400   23.4450  -30.2500 C   0  0  2  0  0  0  0  0  0  0  0  0
   -5.6510   23.3170  -28.8480 O   0  0  0  0  0  0  0  0  0  0  0  0
   -7.1030   23.3390  -30.8070 C   0  0  0  0  0  0  0  0  0  0  0  0
   -7.1920   23.4170  -32.3390 C   0  0  0  0  0  0  0  0  0  0  0  0
   -0.8592   21.1336  -33.8606 H   0  0  0  0  0  0  0  0  0  0  0  0
   -0.1269   21.7059  -35.3977 H   0  0  0  0  0  0  0  0  0  0  0  0
   -1.2100   20.2729  -35.3977 H   0  0  0  0  0  0  0  0  0  0  0  0
    1.3666   19.8676  -35.5096 H   0  0  0  0  0  0  0  0  0  0  0  0
    1.3627   20.3124  -33.7687 H   0  0  0  0  0  0  0  0  0  0  0  0
   -0.5490   18.6640  -33.6370 H   0  0  0  0  0  0  0  0  0  0  0  0
   -0.1834   18.4745  -36.2974 H   0  0  0  0  0  0  0  0  0  0  0  0
    0.6517   17.0164  -35.6152 H   0  0  0  0  0  0  0  0  0  0  0  0
   -2.2586   17.7732  -35.5830 H   0  0  0  0  0  0  0  0  0  0  0  0
   -1.4300   16.1555  -35.8049 H   0  0  0  0  0  0  0  0  0  0  0  0
   -1.0400   17.2110  -33.2320 H   0  0  0  0  0  0  0  0  0  0  0  0
   -1.5700   15.7180  -33.6680 H   0  0  0  0  0  0  0  0  0  0  0  0
   -6.5521   18.3560  -30.5528 H   0  0  0  0  0  0  0  0  0  0  0  0
   -7.0804   19.4490  -31.8768 H   0  0  0  0  0  0  0  0  0  0  0  0
   -7.5902   17.7266  -31.8768 H   0  0  0  0  0  0  0  0  0  0  0  0
   -7.6721   16.5972  -33.1704 H   0  0  0  0  0  0  0  0  0  0  0  0
   -7.5832   14.4743  -34.4349 H   0  0  0  0  0  0  0  0  0  0  0  0
   -3.2820   14.7581  -34.6660 H   0  0  0  0  0  0  0  0  0  0  0  0
   -6.2313   20.9560  -31.4705 H   0  0  0  0  0  0  0  0  0  0  0  0
   -1.5548   19.7055  -33.1323 H   0  0  0  0  0  0  0  0  0  0  0  0
   -1.4039   18.8750  -31.6003 H   0  0  0  0  0  0  0  0  0  0  0  0
   -2.7604   23.8406  -29.0802 H   0  0  0  0  0  0  0  0  0  0  0  0
   -1.7657   24.0727  -30.5600 H   0  0  0  0  0  0  0  0  0  0  0  0
   -5.8780   24.2050  -28.4620 H   0  0  0  0  0  0  0  0  0  0  0  0
   -7.5281   22.3773  -30.4837 H   0  0  0  0  0  0  0  0  0  0  0  0
   -7.6595   24.2009  -30.4101 H   0  0  0  0  0  0  0  0  0  0  0  0
   -7.9909   24.1171  -32.6247 H   0  0  0  0  0  0  0  0  0  0  0  0
   -6.2325   23.7703  -32.7445 H   0  0  0  0  0  0  0  0  0  0  0  0
   -7.4164   22.4194  -32.7445 H   0  0  0  0  0  0  0  0  0  0  0  0
  1  2  1  0
  2  3  1  0
  3  4  1  0
  4  5  1  0
  5  6  1  0
  6  7  1  0
  7  8  2  0
  8  9  1  0
  9 10  2  0
 10 11  1  0
 10 12  1  0
 12 13  2  0
 13 14  1  0
 14 15  2  0
 15 16  1  0
 16 17  2  0
 16 18  1  0
 15 19  1  0
 19 20  2  0
  9 21  1  0
 21 22  2  0
 22 23  1  0
 23 24  2  0
 24 25  1  0
 25 26  2  0
 25 27  1  0
 27 28  1  0
 24 29  1  0
 29 30  1  0
 30 31  1  0
 31 32  2  0
 31 33  1  0
 33 34  1  1
 33 35  1  0
 35 36  1  0
 20  7  1  0
 27 21  1  0
 28  8  1  0
 20 12  1  0
 33 23  1  0
  1 37  1  0
  1 38  1  0
  1 39  1  0
  2 40  1  0
  2 41  1  0
  3 42  1  0
  4 43  1  0
  4 44  1  0
  5 45  1  0
  5 46  1  0
  6 47  1  0
  6 48  1  0
 11 49  1  0
 11 50  1  0
 11 51  1  0
 13 52  1  0
 14 53  1  0
 19 54  1  0
 22 55  1  0
 28 56  1  0
 28 57  1  0
 29 58  1  0
 29 59  1  0
 34 60  1  0
 35 61  1  0
 35 62  1  0
 36 63  1  0
 36 64  1  0
 36 65  1  0
M  CHG  4   6   1  10   1  16   1  18  -1
M  END
>  <UniqueID>  (18) 
18

>  <SMILES>  (18) 
CCNCC[NH2+]c1c2c([n+](C)c3ccc([N+](=O)[O-])cc13)-c1cc3c(c(=O)n1C2)COC(=O)[C@@]3(O)CC

>  <Energy>  (18) 
122.64765177925561

>  <Genealogy>  (18) 
CCNCC[NH2+]c1c2c([n+](C)c3ccc([N+](=O)[O-])cc13)-c1cc3c(c(=O)n1C2)COC(=O)C3(O)CC (protonated)
CCNCC[NH2+]c1c2c([n+](C)c3ccc([N+](=O)[O-])cc13)-c1cc3c(c(=O)n1C2)COC(=O)[C@@]3(O)CC (chirality)
CCNCC[NH2+]c1c2c([n+](C)c3ccc([N+](=O)[O-])cc13)-c1cc3c(c(=O)n1C2)COC(=O)[C@@]3(O)CC (3D coordinates assigned)
CCNCC[NH2+]c1c2c([n+](C)c3ccc([N+](=O)[O-])cc13)-c1cc3c(c(=O)n1C2)COC(=O)[C@@]3(O)CC (nonaromatic ring conformer: 122.64765177925561 kcal/mol)

>  <smiles>  (18) 
CCNCCNc1c2c([n+](C)c3ccc([N+](=O)[O-])cc13)-c1cc3c(c(=O)n1C2)COC(=O)C3(O)CC

>  <score_type>  (18) 
oracle

>  <origin>  (18) 
adg

>  <m_score__min__energy>  (18) 
-8.8599999999999994

>  <m_primary>  (18) 
energy

$$$$
18:0
     RDKit          3D

 56 58  0  0  0  0  0  0  0  0999 V2000
   -1.2080   25.7090  -27.5630 C   0  0  0  0  0  0  0  0  0  0  0  0
   -0.9280   24.3720  -28.2290 C   0  0  0  0  0  0  0  0  0  0  0  0
   -1.6670   24.2880  -29.4300 O   0  0  0  0  0  0  0  0  0  0  0  0
   -2.2080   22.9880  -29.5890 C   0  0  0  0  0  0  0  0  0  0  0  0
   -2.7220   22.8020  -31.0190 C   0  0  0  0  0  0  0  0  0  0  0  0
   -4.1600   23.0940  -31.0840 N   0  0  0  0  0  0  0  0  0  0  0  0
   -5.1080   21.9820  -31.2430 C   0  0  0  0  0  0  0  0  0  0  0  0
   -6.3910   22.4390  -31.9520 C   0  0  1  0  0  0  0  0  0  0  0  0
   -7.3890   21.3010  -32.0270 C   0  0  0  0  0  0  0  0  0  0  0  0
   -8.5770   21.5350  -31.8330 O   0  0  0  0  0  0  0  0  0  0  0  0
   -6.9540   19.9470  -32.3210 N   0  0  0  0  0  0  0  0  0  0  0  0
   -8.0690   19.0100  -32.1410 C   0  0  0  0  0  0  0  0  0  0  0  0
   -7.6270   17.5540  -32.3470 C   0  0  0  0  0  0  0  0  0  0  0  0
   -6.5670   17.3480  -33.3660 N   0  0  0  0  0  0  0  0  0  0  0  0
   -6.1320   15.9760  -33.6590 C   0  0  0  0  0  0  0  0  0  0  0  0
   -7.0240   15.0470  -34.2590 C   0  0  0  0  0  0  0  0  0  0  0  0
   -6.6300   13.7410  -34.5560 C   0  0  0  0  0  0  0  0  0  0  0  0
   -5.3400   13.3150  -34.2610 C   0  0  0  0  0  0  0  0  0  0  0  0
   -4.4420   14.1900  -33.6610 C   0  0  0  0  0  0  0  0  0  0  0  0
   -4.8200   15.5020  -33.3540 C   0  0  0  0  0  0  0  0  0  0  0  0
   -3.8860   16.2710  -32.7430 F   0  0  0  0  0  0  0  0  0  0  0  0
   -5.8500   18.4890  -33.9770 C   0  0  0  0  0  0  0  0  0  0  0  0
   -6.4830   19.8560  -33.7070 C   0  0  0  0  0  0  0  0  0  0  0  0
   -6.9960   23.6420  -31.2130 C   0  0  0  0  0  0  0  0  0  0  0  0
   -6.0330   24.8320  -31.2390 C   0  0  0  0  0  0  0  0  0  0  0  0
   -4.6430   24.4300  -30.8350 C   0  0  0  0  0  0  0  0  0  0  0  0
   -3.8740   25.3050  -30.3500 O   0  0  0  0  0  0  0  0  0  0  0  0
   -1.1824   25.5867  -26.4701 H   0  0  0  0  0  0  0  0  0  0  0  0
   -0.4431   26.4381  -27.8684 H   0  0  0  0  0  0  0  0  0  0  0  0
   -2.2012   26.0699  -27.8684 H   0  0  0  0  0  0  0  0  0  0  0  0
    0.1461   24.2894  -28.4513 H   0  0  0  0  0  0  0  0  0  0  0  0
   -1.2233   23.5542  -27.5552 H   0  0  0  0  0  0  0  0  0  0  0  0
   -1.4267   22.2414  -29.3835 H   0  0  0  0  0  0  0  0  0  0  0  0
   -3.0445   22.8584  -28.8866 H   0  0  0  0  0  0  0  0  0  0  0  0
   -2.1819   23.4853  -31.6908 H   0  0  0  0  0  0  0  0  0  0  0  0
   -2.5534   21.7598  -31.3279 H   0  0  0  0  0  0  0  0  0  0  0  0
   -4.6328   21.1885  -31.8385 H   0  0  0  0  0  0  0  0  0  0  0  0
   -5.3776   21.6103  -30.2434 H   0  0  0  0  0  0  0  0  0  0  0  0
   -6.1417   22.7441  -32.9790 H   0  0  0  0  0  0  0  0  0  0  0  0
   -6.1760   19.6770  -31.6730 H   0  0  0  0  0  0  0  0  0  0  0  0
   -8.4666   19.1209  -31.1214 H   0  0  0  0  0  0  0  0  0  0  0  0
   -8.8380   19.2441  -32.8919 H   0  0  0  0  0  0  0  0  0  0  0  0
   -7.2516   17.1741  -31.3854 H   0  0  0  0  0  0  0  0  0  0  0  0
   -8.5128   17.0182  -32.7188 H   0  0  0  0  0  0  0  0  0  0  0  0
   -8.0503   15.3646  -34.4953 H   0  0  0  0  0  0  0  0  0  0  0  0
   -7.3427   13.0467  -35.0250 H   0  0  0  0  0  0  0  0  0  0  0  0
   -5.0305   12.2873  -34.5020 H   0  0  0  0  0  0  0  0  0  0  0  0
   -3.4236   13.8476  -33.4250 H   0  0  0  0  0  0  0  0  0  0  0  0
   -4.8239   18.5015  -33.5809 H   0  0  0  0  0  0  0  0  0  0  0  0
   -5.8897   18.3360  -35.0656 H   0  0  0  0  0  0  0  0  0  0  0  0
   -5.7343   20.6418  -33.8858 H   0  0  0  0  0  0  0  0  0  0  0  0
   -7.3427   19.9859  -34.3809 H   0  0  0  0  0  0  0  0  0  0  0  0
   -7.9387   23.9294  -31.7016 H   0  0  0  0  0  0  0  0  0  0  0  0
   -7.1802   23.3584  -30.1663 H   0  0  0  0  0  0  0  0  0  0  0  0
   -6.0029   25.2442  -32.2584 H   0  0  0  0  0  0  0  0  0  0  0  0
   -6.3955   25.5826  -30.5212 H   0  0  0  0  0  0  0  0  0  0  0  0
  1  2  1  0
  2  3  1  0
  3  4  1  0
  4  5  1  0
  5  6  1  0
  6  7  1  0
  7  8  1  0
  8  9  1  0
  9 10  2  0
  9 11  1  0
 11 12  1  0
 12 13  1  0
 13 14  1  0
 14 15  1  0
 15 16  2  0
 16 17  1  0
 17 18  2  0
 18 19  1  0
 19 20  2  0
 20 21  1  0
 14 22  1  0
 22 23  1  0
  8 24  1  0
 24 25  1  0
 25 26  1  0
 26 27  2  0
 26  6  1  0
 23 11  1  0
 20 15  1  0
  1 28  1  0
  1 29  1  0
  1 30  1  0
  2 31  1  0
  2 32  1  0
  4 33  1  0
  4 34  1  0
  5 35  1  0
  5 36  1  0
  7 37  1  0
  7 38  1  0
  8 39  1  6
 11 40  1  0
 12 41  1  0
 12 42  1  0
 13 43  1  0
 13 44  1  0
 16 45  1  0
 17 46  1  0
 18 47  1  0
 19 48  1  0
 22 49  1  0
 22 50  1  0
 23 51  1  0
 23 52  1  0
 24 53  1  0
 24 54  1  0
 25 55  1  0
 25 56  1  0
M  CHG  1  11   1
M  END
>  <UniqueID>  (19) 
19

>  <SMILES>  (19) 
CCOCCN1C[C@@H](C(=O)[NH+]2CCN(c3ccccc3F)CC2)CCC1=O

>  <Energy>  (19) 
61.2602268878487

>  <Genealogy>  (19) 
CCOCCN1CC(C(=O)[NH+]2CCN(c3ccccc3F)CC2)CCC1=O (protonated)
CCOCCN1C[C@@H](C(=O)[NH+]2CCN(c3ccccc3F)CC2)CCC1=O (chirality)
CCOCCN1C[C@@H](C(=O)[NH+]2CCN(c3ccccc3F)CC2)CCC1=O (3D coordinates assigned)
CCOCCN1C[C@@H](C(=O)[NH+]2CCN(c3ccccc3F)CC2)CCC1=O (nonaromatic ring conformer: 61.2602268878487 kcal/mol)

>  <smiles>  (19) 
CCOCCN1CC(C(=O)N2CCN(c3ccccc3F)CC2)CCC1=O

>  <score_type>  (19) 
oracle

>  <origin>  (19) 
adg

>  <m_score__min__energy>  (19) 
-7.6500000000000004

>  <m_primary>  (19) 
energy

$$$$
19:0
     RDKit          3D

 64 66  0  0  0  0  0  0  0  0999 V2000
   -6.1130   18.4480  -34.5280 C   0  0  0  0  0  0  0  0  0  0  0  0
   -5.8410   19.4660  -33.4920 N   0  0  0  0  0  0  0  0  0  0  0  0
   -6.8760   20.0120  -32.7440 C   0  0  0  0  0  0  0  0  0  0  0  0
   -8.2020   19.5170  -32.8330 C   0  0  0  0  0  0  0  0  0  0  0  0
   -9.2370   20.0940  -32.0970 C   0  0  0  0  0  0  0  0  0  0  0  0
   -8.9830   21.1650  -31.2470 C   0  0  0  0  0  0  0  0  0  0  0  0
   -7.6890   21.6590  -31.1100 C   0  0  0  0  0  0  0  0  0  0  0  0
   -6.6220   21.0920  -31.8370 C   0  0  0  0  0  0  0  0  0  0  0  0
   -5.3040   21.5550  -31.6550 C   0  0  0  0  0  0  0  0  0  0  0  0
   -5.0060   22.6320  -30.7520 N   0  0  0  0  0  0  0  0  0  0  0  0
   -5.1990   24.0360  -31.1150 C   0  0  0  0  0  0  0  0  0  0  0  0
   -4.4160   24.9580  -30.1630 C   0  0  0  0  0  0  0  0  0  0  0  0
   -3.8950   24.2370  -28.9900 N   0  0  0  0  0  0  0  0  0  0  0  0
   -4.6280   24.5520  -27.7530 C   0  0  0  0  0  0  0  0  0  0  0  0
   -3.6660   24.9020  -26.6020 C   0  0  0  0  0  0  0  0  0  0  0  0
   -2.3190   24.3300  -26.7700 N   0  0  0  0  0  0  0  0  0  0  0  0
   -1.2550   25.3280  -26.5890 C   0  0  0  0  0  0  0  0  0  0  0  0
   -0.4440   25.4920  -27.8810 C   0  0  0  0  0  0  0  0  0  0  0  0
   -0.0160   24.1400  -28.4820 C   0  0  0  0  0  0  0  0  0  0  0  0
   -1.0510   23.5600  -29.3520 N   0  0  0  0  0  0  0  0  0  0  0  0
   -0.6520   22.2580  -29.9050 C   0  0  0  0  0  0  0  0  0  0  0  0
   -0.7230   21.1730  -28.8220 C   0  0  0  0  0  0  0  0  0  0  0  0
   -2.1600   20.8530  -28.3910 C   0  0  0  0  0  0  0  0  0  0  0  0
   -3.0180   22.0270  -28.5240 N   0  0  0  0  0  0  0  0  0  0  0  0
   -4.2910   20.9200  -32.3650 C   0  0  0  0  0  0  0  0  0  0  0  0
   -2.6410   21.2390  -32.3390 S   0  0  0  0  0  0  0  0  0  0  0  0
   -2.2200   20.0350  -33.4350 C   0  0  0  0  0  0  0  0  0  0  0  0
   -3.3740   19.3740  -33.8420 C   0  0  0  0  0  0  0  0  0  0  0  0
   -4.5520   19.8870  -33.2530 C   0  0  0  0  0  0  0  0  0  0  0  0
   -6.3682   17.4930  -34.0455 H   0  0  0  0  0  0  0  0  0  0  0  0
   -6.9544   18.7785  -35.1548 H   0  0  0  0  0  0  0  0  0  0  0  0
   -5.2189   18.3148  -35.1548 H   0  0  0  0  0  0  0  0  0  0  0  0
   -8.4179   18.6641  -33.4932 H   0  0  0  0  0  0  0  0  0  0  0  0
  -10.2597   19.6997  -32.1894 H   0  0  0  0  0  0  0  0  0  0  0  0
   -9.8075   21.6232  -30.6811 H   0  0  0  0  0  0  0  0  0  0  0  0
   -7.4967   22.5002  -30.4278 H   0  0  0  0  0  0  0  0  0  0  0  0
   -4.5040   22.4140  -29.8620 H   0  0  0  0  0  0  0  0  0  0  0  0
   -4.8442   24.1947  -32.1440 H   0  0  0  0  0  0  0  0  0  0  0  0
   -6.2696   24.2766  -31.0384 H   0  0  0  0  0  0  0  0  0  0  0  0
   -3.5704   25.3977  -30.7123 H   0  0  0  0  0  0  0  0  0  0  0  0
   -5.1072   25.7337  -29.8016 H   0  0  0  0  0  0  0  0  0  0  0  0
   -2.8820   24.4640  -28.8550 H   0  0  0  0  0  0  0  0  0  0  0  0
   -5.2908   25.4100  -27.9386 H   0  0  0  0  0  0  0  0  0  0  0  0
   -5.2093   23.6652  -27.4602 H   0  0  0  0  0  0  0  0  0  0  0  0
   -3.5751   25.9967  -26.5444 H   0  0  0  0  0  0  0  0  0  0  0  0
   -4.0893   24.4706  -25.6829 H   0  0  0  0  0  0  0  0  0  0  0  0
   -2.2420   23.9110  -27.7260 H   0  0  0  0  0  0  0  0  0  0  0  0
   -1.7073   26.2942  -26.3208 H   0  0  0  0  0  0  0  0  0  0  0  0
   -0.5819   24.9879  -25.7882 H   0  0  0  0  0  0  0  0  0  0  0  0
   -1.0596   26.0274  -28.6188 H   0  0  0  0  0  0  0  0  0  0  0  0
    0.4693   26.0532  -27.6344 H   0  0  0  0  0  0  0  0  0  0  0  0
    0.8991   24.2903  -29.0735 H   0  0  0  0  0  0  0  0  0  0  0  0
    0.1524   23.4412  -27.6494 H   0  0  0  0  0  0  0  0  0  0  0  0
   -1.9400   23.4450  -28.8090 H   0  0  0  0  0  0  0  0  0  0  0  0
   -1.3291   21.9916  -30.7300 H   0  0  0  0  0  0  0  0  0  0  0  0
    0.3823   22.3281  -30.2729 H   0  0  0  0  0  0  0  0  0  0  0  0
   -0.2615   20.2548  -29.2143 H   0  0  0  0  0  0  0  0  0  0  0  0
   -0.1902   21.5535  -27.9381 H   0  0  0  0  0  0  0  0  0  0  0  0
   -2.5545   20.0451  -29.0247 H   0  0  0  0  0  0  0  0  0  0  0  0
   -2.1495   20.5434  -27.3355 H   0  0  0  0  0  0  0  0  0  0  0  0
   -2.6640   22.7680  -27.8760 H   0  0  0  0  0  0  0  0  0  0  0  0
   -2.9010   22.4000  -29.4930 H   0  0  0  0  0  0  0  0  0  0  0  0
   -1.1988   19.8074  -33.7745 H   0  0  0  0  0  0  0  0  0  0  0  0
   -3.3703   18.5343  -34.5526 H   0  0  0  0  0  0  0  0  0  0  0  0
  1  2  1  0
  2  3  2  0
  3  4  1  0
  4  5  2  0
  5  6  1  0
  6  7  2  0
  7  8  1  0
  8  9  2  0
  9 10  1  0
 10 11  1  0
 11 12  1  0
 12 13  1  0
 13 14  1  0
 14 15  1  0
 15 16  1  0
 16 17  1  0
 17 18  1  0
 18 19  1  0
 19 20  1  0
 20 21  1  0
 21 22  1  0
 22 23  1  0
 23 24  1  0
  9 25  1  0
 25 26  1  0
 26 27  1  0
 27 28  2  0
 28 29  1  0
 29  2  1  0
  8  3  1  0
 29 25  2  0
  1 30  1  0
  1 31  1  0
  1 32  1  0
  4 33  1  0
  5 34  1  0
  6 35  1  0
  7 36  1  0
 10 37  1  0
 11 38  1  0
 11 39  1  0
 12 40  1  0
 12 41  1  0
 13 42  1  0
 14 43  1  0
 14 44  1  0
 15 45  1  0
 15 46  1  0
 16 47  1  0
 17 48  1  0
 17 49  1  0
 18 50  1  0
 18 51  1  0
 19 52  1  0
 19 53  1  0
 20 54  1  0
 21 55  1  0
 21 56  1  0
 22 57  1  0
 22 58  1  0
 23 59  1  0
 23 60  1  0
 24 61  1  0
 24 62  1  0
 27 63  1  0
 28 64  1  0
M  CHG  1   2   1
M  END
>  <UniqueID>  (20) 
20

>  <SMILES>  (20) 
C[n+]1c2ccccc2c(NCCNCCNCCCNCCCN)c2sccc21

>  <Energy>  (20) 
103.55943844287908

>  <Genealogy>  (20) 
C[n+]1c2ccccc2c(NCCNCCNCCCNCCCN)c2sccc21 (3D coordinates assigned)
C[n+]1c2ccccc2c(NCCNCCNCCCNCCCN)c2sccc21 (optimized conformer: 103.55943844287908 kcal/mol)

>  <smiles>  (20) 
C[n+]1c2ccccc2c(NCCNCCNCCCNCCCN)c2sccc21

>  <score_type>  (20) 
oracle

>  <origin>  (20) 
adg

>  <m_score__min__energy>  (20) 
-7.9699999999999998

>  <m_primary>  (20) 
energy

$$$$
21:0
     RDKit          3D

 45 46  0  0  0  0  0  0  0  0999 V2000
   -5.7070   18.1140  -34.9400 C   0  0  0  0  0  0  0  0  0  0  0  0
   -6.0890   19.2980  -34.0400 C   0  0  0  0  0  0  0  0  0  0  0  0
   -5.8050   19.0830  -32.5990 N   0  0  0  0  0  0  0  0  0  0  0  0
   -5.0150   20.1680  -31.9720 C   0  0  0  0  0  0  0  0  0  0  0  0
   -4.5980   21.2280  -32.9910 C   0  0  0  0  0  0  0  0  0  0  0  0
   -7.0310   18.7800  -31.8250 C   0  0  0  0  0  0  0  0  0  0  0  0
   -8.2750   18.9580  -32.7000 C   0  0  0  0  0  0  0  0  0  0  0  0
   -9.3640   19.4390  -31.9310 O   0  0  0  0  0  0  0  0  0  0  0  0
   -9.6490   20.7910  -32.2310 C   0  0  0  0  0  0  0  0  0  0  0  0
   -8.6040   21.6620  -31.6820 C   0  0  0  0  0  0  0  0  0  0  0  0
   -7.7460   22.3810  -31.2330 C   0  0  0  0  0  0  0  0  0  0  0  0
   -6.7240   23.2350  -30.6980 C   0  0  0  0  0  0  0  0  0  0  0  0
   -6.8660   24.5780  -30.4220 C   0  0  0  0  0  0  0  0  0  0  0  0
   -5.6440   24.9850  -29.9290 C   0  0  0  0  0  0  0  0  0  0  0  0
   -4.8330   23.8580  -29.9360 C   0  0  0  0  0  0  0  0  0  0  0  0
   -3.4200   23.7720  -29.4990 C   0  0  0  0  0  0  0  0  0  0  0  0
   -2.4940   22.9400  -30.1580 C   0  0  0  0  0  0  0  0  0  0  0  0
   -1.1660   22.8780  -29.7250 C   0  0  0  0  0  0  0  0  0  0  0  0
   -0.7460   23.6420  -28.6330 C   0  0  0  0  0  0  0  0  0  0  0  0
    0.5420   23.5790  -28.2160 F   0  0  0  0  0  0  0  0  0  0  0  0
   -1.6560   24.4700  -27.9720 C   0  0  0  0  0  0  0  0  0  0  0  0
   -2.9850   24.5360  -28.4010 C   0  0  0  0  0  0  0  0  0  0  0  0
   -5.5120   22.8320  -30.4010 O   0  0  0  0  0  0  0  0  0  0  0  0
   -5.4291   17.2528  -34.3146 H   0  0  0  0  0  0  0  0  0  0  0  0
   -6.5639   17.8447  -35.5750 H   0  0  0  0  0  0  0  0  0  0  0  0
   -4.8543   18.3963  -35.5750 H   0  0  0  0  0  0  0  0  0  0  0  0
   -5.5257   20.1816  -34.3746 H   0  0  0  0  0  0  0  0  0  0  0  0
   -7.1776   19.4268  -34.1320 H   0  0  0  0  0  0  0  0  0  0  0  0
   -5.6238   20.6457  -31.1902 H   0  0  0  0  0  0  0  0  0  0  0  0
   -4.1025   19.7247  -31.5468 H   0  0  0  0  0  0  0  0  0  0  0  0
   -4.2448   22.1258  -32.4625 H   0  0  0  0  0  0  0  0  0  0  0  0
   -3.7887   20.8318  -33.6219 H   0  0  0  0  0  0  0  0  0  0  0  0
   -5.4603   21.4894  -33.6219 H   0  0  0  0  0  0  0  0  0  0  0  0
   -6.9857   17.7408  -31.4672 H   0  0  0  0  0  0  0  0  0  0  0  0
   -7.0937   19.4721  -30.9723 H   0  0  0  0  0  0  0  0  0  0  0  0
   -8.0528   19.6782  -33.5012 H   0  0  0  0  0  0  0  0  0  0  0  0
   -8.5484   17.9825  -33.1285 H   0  0  0  0  0  0  0  0  0  0  0  0
   -9.6931   20.9197  -33.3226 H   0  0  0  0  0  0  0  0  0  0  0  0
  -10.6157   21.0626  -31.7819 H   0  0  0  0  0  0  0  0  0  0  0  0
   -7.7651   25.1954  -30.5649 H   0  0  0  0  0  0  0  0  0  0  0  0
   -5.3679   25.9969  -29.5976 H   0  0  0  0  0  0  0  0  0  0  0  0
   -2.8175   22.3356  -31.0182 H   0  0  0  0  0  0  0  0  0  0  0  0
   -0.4495   22.2257  -30.2457 H   0  0  0  0  0  0  0  0  0  0  0  0
   -1.3264   25.0715  -27.1120 H   0  0  0  0  0  0  0  0  0  0  0  0
   -3.6961   25.1906  -27.8757 H   0  0  0  0  0  0  0  0  0  0  0  0
  1  2  1  0
  2  3  1  0
  3  4  1  0
  4  5  1  0
  3  6  1  0
  6  7  1  0
  7  8  1  0
  8  9  1  0
  9 10  1  0
 10 11  3  0
 11 12  1  0
 12 13  2  0
 13 14  1  0
 14 15  2  0
 15 16  1  0
 16 17  2  0
 17 18  1  0
 18 19  2  0
 19 20  1  0
 19 21  1  0
 21 22  2  0
 15 23  1  0
 23 12  1  0
 22 16  1  0
  1 24  1  0
  1 25  1  0
  1 26  1  0
  2 27  1  0
  2 28  1  0
  4 29  1  0
  4 30  1  0
  5 31  1  0
  5 32  1  0
  5 33  1  0
  6 34  1  0
  6 35  1  0
  7 36  1  0
  7 37  1  0
  9 38  1  0
  9 39  1  0
 13 40  1  0
 14 41  1  0
 17 42  1  0
 18 43  1  0
 21 44  1  0
 22 45  1  0
M  END
>  <UniqueID>  (21) 
21

>  <SMILES>  (21) 
CCN(CC)CCOCC#Cc1ccc(-c2ccc(F)cc2)o1

>  <Energy>  (21) 
70.95416459404139

>  <Genealogy>  (21) 
CCN(CC)CCOCC#Cc1ccc(-c2ccc(F)cc2)o1 (3D coordinates assigned)
CCN(CC)CCOCC#Cc1ccc(-c2ccc(F)cc2)o1 (optimized conformer: 70.95416459404139 kcal/mol)

>  <smiles>  (21) 
CCN(CC)CCOCC#Cc1ccc(-c2ccc(F)cc2)o1

>  <score_type>  (21) 
oracle

>  <origin>  (21) 
adg

>  <m_score__min__energy>  (21) 
-7.3899999999999997

>  <m_primary>  (21) 
energy

$$$$
22:0
     RDKit          3D

 50 52  0  0  0  0  0  0  0  0999 V2000
   -4.3010   22.6560  -28.3960 C   0  0  0  0  0  0  0  0  0  0  0  0
   -4.0600   24.1690  -28.4430 C   0  0  0  0  0  0  0  0  0  0  0  0
   -5.3090   24.9260  -28.6460 N   0  0  0  0  0  0  0  0  0  0  0  0
   -6.1970   24.2640  -29.6150 C   0  0  0  0  0  0  0  0  0  0  0  0
   -5.7530   24.5590  -31.0590 C   0  0  0  0  0  0  0  0  0  0  0  0
   -4.9590   23.3980  -31.6780 C   0  0  0  0  0  0  0  0  0  0  0  0
   -5.7880   22.5890  -32.5760 N   0  0  0  0  0  0  0  0  0  0  0  0
   -5.6910   21.1580  -32.6130 C   0  0  0  0  0  0  0  0  0  0  0  0
   -4.4880   20.5670  -33.0370 C   0  0  0  0  0  0  0  0  0  0  0  0
   -3.3010   21.3240  -33.1330 C   0  0  0  0  0  0  0  0  0  0  0  0
   -2.1130   20.7310  -33.5520 C   0  0  0  0  0  0  0  0  0  0  0  0
   -2.0800   19.3760  -33.8660 C   0  0  0  0  0  0  0  0  0  0  0  0
   -0.5720   18.6250  -34.3530 Cl  0  0  0  0  0  0  0  0  0  0  0  0
   -3.2490   18.6140  -33.7950 C   0  0  0  0  0  0  0  0  0  0  0  0
   -4.4830   19.2040  -33.4240 C   0  0  0  0  0  0  0  0  0  0  0  0
   -5.6680   18.4960  -33.4680 N   0  0  0  0  0  0  0  0  0  0  0  0
   -5.7380   17.2260  -34.2270 C   0  0  0  0  0  0  0  0  0  0  0  0
   -6.7940   18.9930  -32.8350 C   0  0  0  0  0  0  0  0  0  0  0  0
   -7.9350   18.1790  -32.6290 C   0  0  0  0  0  0  0  0  0  0  0  0
   -9.0830   18.6850  -32.0310 C   0  0  0  0  0  0  0  0  0  0  0  0
   -9.1010   19.9810  -31.5400 C   0  0  0  0  0  0  0  0  0  0  0  0
   -7.9680   20.8030  -31.6330 C   0  0  0  0  0  0  0  0  0  0  0  0
   -7.9990   22.0950  -30.8520 C   0  0  0  0  0  0  0  0  0  0  0  0
   -6.8210   20.3390  -32.3590 C   0  0  0  0  0  0  0  0  0  0  0  0
   -4.3536   22.3255  -27.3482 H   0  0  0  0  0  0  0  0  0  0  0  0
   -5.2481   22.4196  -28.9031 H   0  0  0  0  0  0  0  0  0  0  0  0
   -3.4742   22.1371  -28.9031 H   0  0  0  0  0  0  0  0  0  0  0  0
   -3.6048   24.4849  -27.4927 H   0  0  0  0  0  0  0  0  0  0  0  0
   -3.3958   24.3788  -29.2944 H   0  0  0  0  0  0  0  0  0  0  0  0
   -5.0630   25.8740  -29.0150 H   0  0  0  0  0  0  0  0  0  0  0  0
   -5.8060   25.0550  -27.7310 H   0  0  0  0  0  0  0  0  0  0  0  0
   -6.1695   23.1776  -29.4447 H   0  0  0  0  0  0  0  0  0  0  0  0
   -7.2179   24.6494  -29.4759 H   0  0  0  0  0  0  0  0  0  0  0  0
   -6.6473   24.7419  -31.6729 H   0  0  0  0  0  0  0  0  0  0  0  0
   -5.0938   25.4392  -31.0334 H   0  0  0  0  0  0  0  0  0  0  0  0
   -4.1132   23.8094  -32.2484 H   0  0  0  0  0  0  0  0  0  0  0  0
   -4.6076   22.7504  -30.8612 H   0  0  0  0  0  0  0  0  0  0  0  0
   -6.5350   23.0620  -33.1320 H   0  0  0  0  0  0  0  0  0  0  0  0
   -3.3144   22.3931  -32.8743 H   0  0  0  0  0  0  0  0  0  0  0  0
   -1.1978   21.3356  -33.6350 H   0  0  0  0  0  0  0  0  0  0  0  0
   -3.2110   17.5402  -34.0306 H   0  0  0  0  0  0  0  0  0  0  0  0
   -5.7846   16.3810  -33.5243 H   0  0  0  0  0  0  0  0  0  0  0  0
   -6.6375   17.2264  -34.8602 H   0  0  0  0  0  0  0  0  0  0  0  0
   -4.8439   17.1275  -34.8602 H   0  0  0  0  0  0  0  0  0  0  0  0
   -7.9119   17.1266  -32.9484 H   0  0  0  0  0  0  0  0  0  0  0  0
   -9.9806   18.0547  -31.9471 H   0  0  0  0  0  0  0  0  0  0  0  0
  -10.0165   20.3705  -31.0708 H   0  0  0  0  0  0  0  0  0  0  0  0
   -7.9937   21.8725  -29.7748 H   0  0  0  0  0  0  0  0  0  0  0  0
   -7.1151   22.6984  -31.1062 H   0  0  0  0  0  0  0  0  0  0  0  0
   -8.9108   22.6553  -31.1062 H   0  0  0  0  0  0  0  0  0  0  0  0
  1  2  1  0
  2  3  1  0
  3  4  1  0
  4  5  1  0
  5  6  1  0
  6  7  1  0
  7  8  1  0
  8  9  2  0
  9 10  1  0
 10 11  2  0
 11 12  1  0
 12 13  1  0
 12 14  2  0
 14 15  1  0
 15 16  2  0
 16 17  1  0
 16 18  1  0
 18 19  2  0
 19 20  1  0
 20 21  2  0
 21 22  1  0
 22 23  1  0
 22 24  2  0
 24  8  1  0
 15  9  1  0
 24 18  1  0
  1 25  1  0
  1 26  1  0
  1 27  1  0
  2 28  1  0
  2 29  1  0
  3 30  1  0
  3 31  1  0
  4 32  1  0
  4 33  1  0
  5 34  1  0
  5 35  1  0
  6 36  1  0
  6 37  1  0
  7 38  1  0
 10 39  1  0
 11 40  1  0
 14 41  1  0
 17 42  1  0
 17 43  1  0
 17 44  1  0
 19 45  1  0
 20 46  1  0
 21 47  1  0
 23 48  1  0
 23 49  1  0
 23 50  1  0
M  CHG  2   3   1  16   1
M  END
>  <UniqueID>  (22) 
22

>  <SMILES>  (22) 
CC[NH2+]CCCNc1c2ccc(Cl)cc2[n+](C)c2cccc(C)c12

>  <Energy>  (22) 
78.42172145902802

>  <Genealogy>  (22) 
CC[NH2+]CCCNc1c2ccc(Cl)cc2[n+](C)c2cccc(C)c12 (protonated)
CC[NH2+]CCCNc1c2ccc(Cl)cc2[n+](C)c2cccc(C)c12 (3D coordinates assigned)
CC[NH2+]CCCNc1c2ccc(Cl)cc2[n+](C)c2cccc(C)c12 (optimized conformer: 78.42172145902802 kcal/mol)

>  <smiles>  (22) 
CCNCCCNc1c2ccc(Cl)cc2[n+](C)c2cccc(C)c12

>  <score_type>  (22) 
oracle

>  <origin>  (22) 
adg

>  <m_score__min__energy>  (22) 
-8.1400000000000006

>  <m_primary>  (22) 
energy

$$$$
23:0
     RDKit          3D

 37 38  0  0  0  0  0  0  0  0999 V2000
   -6.0600   17.7440  -34.1440 C   0  0  0  0  0  0  0  0  0  0  0  0
   -6.5770   17.0780  -32.8700 C   0  0  0  0  0  0  0  0  0  0  0  0
   -6.9960   18.0850  -31.8790 N   0  0  0  0  0  0  0  0  0  0  0  0
   -8.3820   18.5440  -32.1080 C   0  0  0  0  0  0  0  0  0  0  0  0
   -8.4650   19.9930  -32.6250 C   0  0  0  0  0  0  0  0  0  0  0  0
   -7.2100   20.4440  -33.1390 O   0  0  0  0  0  0  0  0  0  0  0  0
   -6.3070   21.3180  -32.5070 C   0  0  0  0  0  0  0  0  0  0  0  0
   -4.9810   20.8930  -32.3690 C   0  0  0  0  0  0  0  0  0  0  0  0
   -4.0370   21.6980  -31.7290 C   0  0  0  0  0  0  0  0  0  0  0  0
   -4.4000   22.9530  -31.2250 C   0  0  0  0  0  0  0  0  0  0  0  0
   -5.7350   23.3900  -31.3450 C   0  0  0  0  0  0  0  0  0  0  0  0
   -6.6740   22.5860  -32.0110 C   0  0  0  0  0  0  0  0  0  0  0  0
   -6.1500   24.7490  -30.8410 C   0  0  0  0  0  0  0  0  0  0  0  0
   -5.1320   25.3180  -29.8510 C   0  0  0  0  0  0  0  0  0  0  0  0
   -3.7780   25.1910  -30.4010 N   0  0  0  0  0  0  0  0  0  0  0  0
   -3.3850   23.7770  -30.4690 C   0  0  0  0  0  0  0  0  0  0  0  0
   -5.4056   18.5870  -33.8774 H   0  0  0  0  0  0  0  0  0  0  0  0
   -5.4916   17.0115  -34.7359 H   0  0  0  0  0  0  0  0  0  0  0  0
   -6.9105   18.1130  -34.7359 H   0  0  0  0  0  0  0  0  0  0  0  0
   -7.4378   16.4410  -33.1213 H   0  0  0  0  0  0  0  0  0  0  0  0
   -5.7652   16.4761  -32.4356 H   0  0  0  0  0  0  0  0  0  0  0  0
   -6.3340   18.8930  -31.8700 H   0  0  0  0  0  0  0  0  0  0  0  0
   -6.9480   17.6390  -30.9330 H   0  0  0  0  0  0  0  0  0  0  0  0
   -8.8516   17.8810  -32.8495 H   0  0  0  0  0  0  0  0  0  0  0  0
   -8.9005   18.5132  -31.1383 H   0  0  0  0  0  0  0  0  0  0  0  0
   -9.2170   20.0430  -33.4262 H   0  0  0  0  0  0  0  0  0  0  0  0
   -8.7433   20.6423  -31.7818 H   0  0  0  0  0  0  0  0  0  0  0  0
   -4.6791   19.9139  -32.7692 H   0  0  0  0  0  0  0  0  0  0  0  0
   -3.0012   21.3441  -31.6199 H   0  0  0  0  0  0  0  0  0  0  0  0
   -7.7038   22.9481  -32.1469 H   0  0  0  0  0  0  0  0  0  0  0  0
   -6.2381   25.4352  -31.6962 H   0  0  0  0  0  0  0  0  0  0  0  0
   -7.1135   24.6433  -30.3209 H   0  0  0  0  0  0  0  0  0  0  0  0
   -5.3540   26.3799  -29.6691 H   0  0  0  0  0  0  0  0  0  0  0  0
   -5.1935   24.7588  -28.9058 H   0  0  0  0  0  0  0  0  0  0  0  0
   -3.1190   25.6730  -29.7460 H   0  0  0  0  0  0  0  0  0  0  0  0
   -2.4129   23.7009  -30.9782 H   0  0  0  0  0  0  0  0  0  0  0  0
   -3.3224   23.3878  -29.4421 H   0  0  0  0  0  0  0  0  0  0  0  0
  1  2  1  0
  2  3  1  0
  3  4  1  0
  4  5  1  0
  5  6  1  0
  6  7  1  0
  7  8  2  0
  8  9  1  0
  9 10  2  0
 10 11  1  0
 11 12  2  0
 11 13  1  0
 13 14  1  0
 14 15  1  0
 15 16  1  0
 12  7  1  0
 16 10  1  0
  1 17  1  0
  1 18  1  0
  1 19  1  0
  2 20  1  0
  2 21  1  0
  3 22  1  0
  3 23  1  0
  4 24  1  0
  4 25  1  0
  5 26  1  0
  5 27  1  0
  8 28  1  0
  9 29  1  0
 12 30  1  0
 13 31  1  0
 13 32  1  0
 14 33  1  0
 14 34  1  0
 15 35  1  0
 16 36  1  0
 16 37  1  0
M  CHG  1   3   1
M  END
>  <UniqueID>  (23) 
23

>  <SMILES>  (23) 
CC[NH2+]CCOc1ccc2c(c1)CCNC2

>  <Energy>  (23) 
36.13079963836728

>  <Genealogy>  (23) 
CC[NH2+]CCOc1ccc2c(c1)CCNC2 (protonated)
CC[NH2+]CCOc1ccc2c(c1)CCNC2 (3D coordinates assigned)
CC[NH2+]CCOc1ccc2c(c1)CCNC2 (nonaromatic ring conformer: 36.13079963836728 kcal/mol)

>  <smiles>  (23) 
CCNCCOc1ccc2c(c1)CCNC2

>  <score_type>  (23) 
oracle

>  <origin>  (23) 
adg

>  <m_score__min__energy>  (23) 
-6.2000000000000002

>  <m_primary>  (23) 
energy

$$$$
24:0
     RDKit          3D

 61 64  0  0  0  0  0  0  0  0999 V2000
   -8.5760   18.5530  -31.9960 C   0  0  0  0  0  0  0  0  0  0  0  0
   -7.3780   17.7540  -32.5060 C   0  0  0  0  0  0  0  0  0  0  0  0
   -6.1390   18.5710  -32.3980 N   0  0  0  0  0  0  0  0  0  0  0  0
   -6.4410   20.0120  -32.2670 C   0  0  0  0  0  0  0  0  0  0  0  0
   -5.4500   20.8730  -33.0500 C   0  0  0  0  0  0  0  0  0  0  0  0
   -5.2220   18.3390  -33.5420 C   0  0  0  0  0  0  0  0  0  0  0  0
   -4.5610   16.9600  -33.4400 C   0  0  0  0  0  0  0  0  0  0  0  0
   -3.2380   17.0920  -32.9450 O   0  0  0  0  0  0  0  0  0  0  0  0
   -2.3100   16.4410  -33.7920 C   0  0  0  0  0  0  0  0  0  0  0  0
   -1.6890   17.4180  -34.7930 C   0  0  0  0  0  0  0  0  0  0  0  0
   -0.7090   18.1750  -34.1130 O   0  0  0  0  0  0  0  0  0  0  0  0
   -1.3490   19.1790  -33.4500 N   0  0  0  0  0  0  0  0  0  0  0  0
   -1.7190   20.3790  -34.2110 C   0  0  0  0  0  0  0  0  0  0  0  0
   -2.4920   21.2990  -33.4330 O   0  0  0  0  0  0  0  0  0  0  0  0
   -2.3110   21.4550  -32.0560 C   0  0  0  0  0  0  0  0  0  0  0  0
   -2.7240   22.6310  -31.4300 C   0  0  0  0  0  0  0  0  0  0  0  0
   -2.5260   22.8200  -30.0490 C   0  0  0  0  0  0  0  0  0  0  0  0
   -1.9730   21.7640  -29.2710 C   0  0  0  0  0  0  0  0  0  0  0  0
   -1.5820   20.5830  -29.9190 C   0  0  0  0  0  0  0  0  0  0  0  0
   -1.7250   20.4340  -31.3060 C   0  0  0  0  0  0  0  0  0  0  0  0
   -1.2740   19.2280  -32.0150 C   0  0  0  0  0  0  0  0  0  0  0  0
   -0.8210   18.2390  -31.3770 O   0  0  0  0  0  0  0  0  0  0  0  0
   -1.8430   21.7650  -27.8330 N   0  0  0  0  0  0  0  0  0  0  0  0
   -1.8920   22.6740  -26.8980 C   0  0  0  0  0  0  0  0  0  0  0  0
   -2.1870   24.1440  -27.0720 C   0  0  1  0  0  0  0  0  0  0  0  0
   -1.2280   24.9860  -26.2190 C   0  0  0  0  0  0  0  0  0  0  0  0
   -0.8400   26.1960  -27.0710 C   0  0  0  0  0  0  0  0  0  0  0  0
   -1.2150   25.8430  -28.5050 C   0  0  0  0  0  0  0  0  0  0  0  0
   -2.0030   24.6200  -28.4190 N   0  0  0  0  0  0  0  0  0  0  0  0
   -2.7970   24.1440  -29.4910 C   0  0  0  0  0  0  0  0  0  0  0  0
   -3.6590   24.9010  -30.0130 O   0  0  0  0  0  0  0  0  0  0  0  0
   -8.5755   18.5527  -30.8960 H   0  0  0  0  0  0  0  0  0  0  0  0
   -8.5092   19.5880  -32.3624 H   0  0  0  0  0  0  0  0  0  0  0  0
   -9.5059   18.0936  -32.3624 H   0  0  0  0  0  0  0  0  0  0  0  0
   -7.2659   16.8407  -31.9033 H   0  0  0  0  0  0  0  0  0  0  0  0
   -7.5440   17.4870  -33.5601 H   0  0  0  0  0  0  0  0  0  0  0  0
   -7.4552   20.1995  -32.6494 H   0  0  0  0  0  0  0  0  0  0  0  0
   -6.3632   20.2824  -31.2036 H   0  0  0  0  0  0  0  0  0  0  0  0
   -4.8113   21.4280  -32.3471 H   0  0  0  0  0  0  0  0  0  0  0  0
   -4.8237   20.2273  -33.6832 H   0  0  0  0  0  0  0  0  0  0  0  0
   -6.0019   21.5833  -33.6832 H   0  0  0  0  0  0  0  0  0  0  0  0
   -5.7941   18.3960  -34.4798 H   0  0  0  0  0  0  0  0  0  0  0  0
   -4.4360   19.1084  -33.5250 H   0  0  0  0  0  0  0  0  0  0  0  0
   -5.1444   16.3260  -32.7561 H   0  0  0  0  0  0  0  0  0  0  0  0
   -4.5289   16.5000  -34.4387 H   0  0  0  0  0  0  0  0  0  0  0  0
   -1.5106   16.0019  -33.1770 H   0  0  0  0  0  0  0  0  0  0  0  0
   -2.8425   15.6599  -34.3545 H   0  0  0  0  0  0  0  0  0  0  0  0
   -1.2234   16.8605  -35.6191 H   0  0  0  0  0  0  0  0  0  0  0  0
   -2.4618   18.0801  -35.2107 H   0  0  0  0  0  0  0  0  0  0  0  0
   -0.8002   20.8832  -34.5452 H   0  0  0  0  0  0  0  0  0  0  0  0
   -2.3351   20.0595  -35.0644 H   0  0  0  0  0  0  0  0  0  0  0  0
   -3.2102   23.4202  -32.0223 H   0  0  0  0  0  0  0  0  0  0  0  0
   -1.1555   19.7588  -29.3285 H   0  0  0  0  0  0  0  0  0  0  0  0
   -1.6970   22.3316  -25.8710 H   0  0  0  0  0  0  0  0  0  0  0  0
   -3.2417   24.2496  -26.7781 H   0  0  0  0  0  0  0  0  0  0  0  0
   -1.7288   25.3152  -25.2966 H   0  0  0  0  0  0  0  0  0  0  0  0
   -0.3415   24.4049  -25.9250 H   0  0  0  0  0  0  0  0  0  0  0  0
   -1.3925   27.0880  -26.7408 H   0  0  0  0  0  0  0  0  0  0  0  0
    0.2326   26.4226  -26.9810 H   0  0  0  0  0  0  0  0  0  0  0  0
   -1.8098   26.6512  -28.9555 H   0  0  0  0  0  0  0  0  0  0  0  0
   -0.3237   25.7072  -29.1352 H   0  0  0  0  0  0  0  0  0  0  0  0
  1  2  1  0
  2  3  1  0
  3  4  1  0
  4  5  1  0
  3  6  1  0
  6  7  1  0
  7  8  1  0
  8  9  1  0
  9 10  1  0
 10 11  1  0
 11 12  1  0
 12 13  1  0
 13 14  1  0
 14 15  1  0
 15 16  2  0
 16 17  1  0
 17 18  2  0
 18 19  1  0
 19 20  2  0
 20 21  1  0
 21 22  2  0
 18 23  1  0
 23 24  2  0
 24 25  1  0
 25 26  1  0
 26 27  1  0
 27 28  1  0
 28 29  1  0
 29 30  1  0
 30 31  2  0
 21 12  1  0
 29 25  1  0
 20 15  1  0
 30 17  1  0
  1 32  1  0
  1 33  1  0
  1 34  1  0
  2 35  1  0
  2 36  1  0
  4 37  1  0
  4 38  1  0
  5 39  1  0
  5 40  1  0
  5 41  1  0
  6 42  1  0
  6 43  1  0
  7 44  1  0
  7 45  1  0
  9 46  1  0
  9 47  1  0
 10 48  1  0
 10 49  1  0
 13 50  1  0
 13 51  1  0
 16 52  1  0
 19 53  1  0
 24 54  1  0
 25 55  1  1
 26 56  1  0
 26 57  1  0
 27 58  1  0
 27 59  1  0
 28 60  1  0
 28 61  1  0
M  END
>  <UniqueID>  (24) 
24

>  <SMILES>  (24) 
CCN(CC)CCOCCON1COc2cc3c(cc2C1=O)N=C[C@H]1CCCN1C3=O

>  <Energy>  (24) 
90.32381857141048

>  <Genealogy>  (24) 
CCN(CC)CCOCCON1COc2cc3c(cc2C1=O)N=C[C@H]1CCCN1C3=O (chirality)
CCN(CC)CCOCCON1COc2cc3c(cc2C1=O)N=C[C@H]1CCCN1C3=O (3D coordinates assigned)
CCN(CC)CCOCCON1COc2cc3c(cc2C1=O)N=C[C@H]1CCCN1C3=O (nonaromatic ring conformer: 90.32381857141048 kcal/mol)

>  <smiles>  (24) 
CCN(CC)CCOCCON1COc2cc3c(cc2C1=O)N=CC1CCCN1C3=O

>  <score_type>  (24) 
oracle

>  <origin>  (24) 
adg

>  <m_score__min__energy>  (24) 
-6.6500000000000004

>  <m_primary>  (24) 
energy

$$$$
25:0
     RDKit          3D

 87 90  0  0  0  0  0  0  0  0999 V2000
   -3.0900   18.9490  -26.3280 C   0  0  0  0  0  0  0  0  0  0  0  0
   -2.4020   20.1330  -26.9980 C   0  0  0  0  0  0  0  0  0  0  0  0
   -1.5320   19.6600  -28.0820 N   0  0  0  0  0  0  0  0  0  0  0  0
   -0.1220   19.8570  -27.7250 C   0  0  0  0  0  0  0  0  0  0  0  0
    0.7670   19.7040  -28.9610 C   0  0  0  0  0  0  0  0  0  0  0  0
    0.0920   20.2380  -30.0850 O   0  0  0  0  0  0  0  0  0  0  0  0
   -0.4640   19.2170  -30.8900 C   0  0  0  0  0  0  0  0  0  0  0  0
   -1.6840   19.7650  -31.6420 C   0  0  0  0  0  0  0  0  0  0  0  0
   -1.6010   21.2160  -31.8810 N   0  0  0  0  0  0  0  0  0  0  0  0
   -2.7220   21.9400  -31.2890 C   0  0  0  0  0  0  0  0  0  0  0  0
   -4.0540   21.6360  -31.6860 C   0  0  0  0  0  0  0  0  0  0  0  0
   -4.3370   20.6650  -32.6800 C   0  0  0  0  0  0  0  0  0  0  0  0
   -5.6440   20.3400  -33.0260 C   0  0  0  0  0  0  0  0  0  0  0  0
   -6.7050   20.9480  -32.3760 C   0  0  0  0  0  0  0  0  0  0  0  0
   -6.4660   21.9170  -31.4050 C   0  0  0  0  0  0  0  0  0  0  0  0
   -5.1450   22.3150  -31.0700 C   0  0  0  0  0  0  0  0  0  0  0  0
   -4.9120   23.3190  -30.1530 N   0  0  0  0  0  0  0  0  0  0  0  0
   -6.0160   24.2150  -29.7400 C   0  0  0  0  0  0  0  0  0  0  0  0
   -3.6450   23.5080  -29.6380 C   0  0  0  0  0  0  0  0  0  0  0  0
   -3.4420   24.3050  -28.4850 C   0  0  0  0  0  0  0  0  0  0  0  0
   -2.1580   24.5920  -28.0030 C   0  0  0  0  0  0  0  0  0  0  0  0
   -1.9370   25.3720  -26.8540 O   0  0  0  0  0  0  0  0  0  0  0  0
   -1.7330   24.8740  -25.5310 C   0  0  0  0  0  0  0  0  0  0  0  0
   -0.3200   25.2620  -25.0230 C   0  0  0  0  0  0  0  0  0  0  0  0
   -0.1880   26.6460  -24.4560 N   0  0  0  0  0  0  0  0  0  0  0  0
   -0.4920   26.6210  -22.9990 C   0  0  0  0  0  0  0  0  0  0  0  0
   -1.2190   27.4980  -25.1350 C   0  0  0  0  0  0  0  0  0  0  0  0
   -0.9200   29.0060  -25.0360 C   0  0  0  0  0  0  0  0  0  0  0  0
    0.4090   29.3850  -25.6250 N   0  0  0  0  0  0  0  0  0  0  0  0
    0.2060   30.0440  -26.9420 C   0  0  0  0  0  0  0  0  0  0  0  0
    1.0790   30.3640  -24.7260 C   0  0  0  0  0  0  0  0  0  0  0  0
    1.2920   28.2010  -25.8270 C   0  0  0  0  0  0  0  0  0  0  0  0
    1.1980   27.1890  -24.6710 C   0  0  0  0  0  0  0  0  0  0  0  0
   -1.0490   24.0960  -28.6790 C   0  0  0  0  0  0  0  0  0  0  0  0
    0.2280   24.4620  -28.2130 O   0  0  0  0  0  0  0  0  0  0  0  0
    1.0960   23.6130  -27.4700 C   0  0  0  0  0  0  0  0  0  0  0  0
   -1.2290   23.2580  -29.7910 C   0  0  0  0  0  0  0  0  0  0  0  0
   -2.5200   22.8940  -30.2490 C   0  0  0  0  0  0  0  0  0  0  0  0
   -3.0265   19.0583  -25.2353 H   0  0  0  0  0  0  0  0  0  0  0  0
   -4.1465   18.9184  -26.6326 H   0  0  0  0  0  0  0  0  0  0  0  0
   -2.5934   18.0159  -26.6326 H   0  0  0  0  0  0  0  0  0  0  0  0
   -3.1635   20.8107  -27.4114 H   0  0  0  0  0  0  0  0  0  0  0  0
   -1.7934   20.6662  -26.2528 H   0  0  0  0  0  0  0  0  0  0  0  0
   -1.7330   20.2450  -28.9270 H   0  0  0  0  0  0  0  0  0  0  0  0
    0.0086   20.8661  -27.3071 H   0  0  0  0  0  0  0  0  0  0  0  0
    0.1672   19.0999  -26.9813 H   0  0  0  0  0  0  0  0  0  0  0  0
    1.7108   20.2472  -28.8056 H   0  0  0  0  0  0  0  0  0  0  0  0
    0.9860   18.6395  -29.1310 H   0  0  0  0  0  0  0  0  0  0  0  0
    0.2880   18.8709  -31.6144 H   0  0  0  0  0  0  0  0  0  0  0  0
   -0.7740   18.3758  -30.2526 H   0  0  0  0  0  0  0  0  0  0  0  0
   -1.7585   19.2524  -32.6124 H   0  0  0  0  0  0  0  0  0  0  0  0
   -2.5696   19.5820  -31.0157 H   0  0  0  0  0  0  0  0  0  0  0  0
   -1.4710   21.4020  -32.8960 H   0  0  0  0  0  0  0  0  0  0  0  0
   -0.7070   21.5830  -31.4870 H   0  0  0  0  0  0  0  0  0  0  0  0
   -3.5041   20.1576  -33.1887 H   0  0  0  0  0  0  0  0  0  0  0  0
   -5.8353   19.5994  -33.8166 H   0  0  0  0  0  0  0  0  0  0  0  0
   -7.7379   20.6651  -32.6271 H   0  0  0  0  0  0  0  0  0  0  0  0
   -7.3173   22.3832  -30.8874 H   0  0  0  0  0  0  0  0  0  0  0  0
   -6.0648   24.2546  -28.6418 H   0  0  0  0  0  0  0  0  0  0  0  0
   -5.8357   25.2254  -30.1357 H   0  0  0  0  0  0  0  0  0  0  0  0
   -6.9677   23.8307  -30.1357 H   0  0  0  0  0  0  0  0  0  0  0  0
   -4.3159   24.7096  -27.9535 H   0  0  0  0  0  0  0  0  0  0  0  0
   -2.4909   25.3046  -24.8601 H   0  0  0  0  0  0  0  0  0  0  0  0
   -1.8207   23.7776  -25.5434 H   0  0  0  0  0  0  0  0  0  0  0  0
   -0.0353   24.5466  -24.2374 H   0  0  0  0  0  0  0  0  0  0  0  0
    0.3333   25.2374  -25.9076 H   0  0  0  0  0  0  0  0  0  0  0  0
    0.4448   26.6980  -22.4276 H   0  0  0  0  0  0  0  0  0  0  0  0
   -1.1463   27.4684  -22.7464 H   0  0  0  0  0  0  0  0  0  0  0  0
   -0.9991   25.6781  -22.7464 H   0  0  0  0  0  0  0  0  0  0  0  0
   -1.2587   27.2184  -26.1981 H   0  0  0  0  0  0  0  0  0  0  0  0
   -2.1775   27.3204  -24.6253 H   0  0  0  0  0  0  0  0  0  0  0  0
   -1.7090   29.5549  -25.5710 H   0  0  0  0  0  0  0  0  0  0  0  0
   -0.8897   29.2641  -23.9671 H   0  0  0  0  0  0  0  0  0  0  0  0
   -0.1145   31.0846  -26.7858 H   0  0  0  0  0  0  0  0  0  0  0  0
    1.1495   30.0319  -27.5074 H   0  0  0  0  0  0  0  0  0  0  0  0
   -0.5672   29.5031  -27.5074 H   0  0  0  0  0  0  0  0  0  0  0  0
    0.8903   30.0882  -23.6780 H   0  0  0  0  0  0  0  0  0  0  0  0
    2.1621   30.3564  -24.9178 H   0  0  0  0  0  0  0  0  0  0  0  0
    0.6797   31.3709  -24.9178 H   0  0  0  0  0  0  0  0  0  0  0  0
    0.9990   27.6980  -26.7604 H   0  0  0  0  0  0  0  0  0  0  0  0
    2.3300   28.5627  -25.8699 H   0  0  0  0  0  0  0  0  0  0  0  0
    1.8710   26.3470  -24.8906 H   0  0  0  0  0  0  0  0  0  0  0  0
    1.4810   27.7228  -23.7518 H   0  0  0  0  0  0  0  0  0  0  0  0
    0.9326   23.7728  -26.3940 H   0  0  0  0  0  0  0  0  0  0  0  0
    0.8851   22.5630  -27.7209 H   0  0  0  0  0  0  0  0  0  0  0  0
    2.1411   23.8471  -27.7209 H   0  0  0  0  0  0  0  0  0  0  0  0
   -0.3448   22.8738  -30.3207 H   0  0  0  0  0  0  0  0  0  0  0  0
  1  2  1  0
  2  3  1  0
  3  4  1  0
  4  5  1  0
  5  6  1  0
  6  7  1  0
  7  8  1  0
  8  9  1  0
  9 10  1  0
 10 11  2  0
 11 12  1  0
 12 13  2  0
 13 14  1  0
 14 15  2  0
 15 16  1  0
 16 17  2  0
 17 18  1  0
 17 19  1  0
 19 20  2  0
 20 21  1  0
 21 22  1  0
 22 23  1  0
 23 24  1  0
 24 25  1  0
 25 26  1  0
 25 27  1  0
 27 28  1  0
 28 29  1  0
 29 30  1  0
 29 31  1  0
 29 32  1  0
 32 33  1  0
 21 34  2  0
 34 35  1  0
 35 36  1  0
 34 37  1  0
 37 38  2  0
 38 10  1  0
 16 11  1  0
 38 19  1  0
 33 25  1  0
  1 39  1  0
  1 40  1  0
  1 41  1  0
  2 42  1  0
  2 43  1  0
  3 44  1  0
  4 45  1  0
  4 46  1  0
  5 47  1  0
  5 48  1  0
  7 49  1  0
  7 50  1  0
  8 51  1  0
  8 52  1  0
  9 53  1  0
  9 54  1  0
 12 55  1  0
 13 56  1  0
 14 57  1  0
 15 58  1  0
 18 59  1  0
 18 60  1  0
 18 61  1  0
 20 62  1  0
 23 63  1  0
 23 64  1  0
 24 65  1  0
 24 66  1  0
 26 67  1  0
 26 68  1  0
 26 69  1  0
 27 70  1  0
 27 71  1  0
 28 72  1  0
 28 73  1  0
 30 74  1  0
 30 75  1  0
 30 76  1  0
 31 77  1  0
 31 78  1  0
 31 79  1  0
 32 80  1  0
 32 81  1  0
 33 82  1  0
 33 83  1  0
 36 84  1  0
 36 85  1  0
 36 86  1  0
 37 87  1  0
M  CHG  4   9   1  17   1  25   1  29   1
M  END
>  <UniqueID>  (25) 
25

>  <SMILES>  (25) 
CCNCCOCC[NH2+]c1c2ccccc2[n+](C)c2cc(OCC[N+]3(C)CC[N+](C)(C)CC3)c(OC)cc12

>  <Energy>  (25) 
142.1834277534348

>  <Genealogy>  (25) 
CCNCCOCC[NH2+]c1c2ccccc2[n+](C)c2cc(OCC[N+]3(C)CC[N+](C)(C)CC3)c(OC)cc12 (protonated)
CCNCCOCC[NH2+]c1c2ccccc2[n+](C)c2cc(OCC[N+]3(C)CC[N+](C)(C)CC3)c(OC)cc12 (3D coordinates assigned)
CCNCCOCC[NH2+]c1c2ccccc2[n+](C)c2cc(OCC[N+]3(C)CC[N+](C)(C)CC3)c(OC)cc12 (nonaromatic ring conformer: 142.1834277534348 kcal/mol)

>  <smiles>  (25) 
CCNCCOCCNc1c2ccccc2[n+](C)c2cc(OCC[N+]3(C)CC[N+](C)(C)CC3)c(OC)cc12

>  <score_type>  (25) 
oracle

>  <origin>  (25) 
adg

>  <m_score__min__energy>  (25) 
-7.75

>  <m_primary>  (25) 
energy

$$$$
26:0
     RDKit          3D

 56 58  0  0  0  0  0  0  0  0999 V2000
   -0.3467   20.7532  -30.3252 H   0  0  0  0  0  0  0  0  0  0  0  0
   -1.1570   21.4960  -30.3670 C   0  0  0  0  0  0  0  0  0  0  0  0
   -1.1690   22.5630  -29.4760 C   0  0  0  0  0  0  0  0  0  0  0  0
   -0.3378   22.6973  -28.7681 H   0  0  0  0  0  0  0  0  0  0  0  0
   -2.2350   23.4640  -29.4790 C   0  0  0  0  0  0  0  0  0  0  0  0
   -2.2242   24.3146  -28.7816 H   0  0  0  0  0  0  0  0  0  0  0  0
   -3.3260   23.3050  -30.3590 C   0  0  0  0  0  0  0  0  0  0  0  0
   -3.2320   22.2850  -31.3580 C   0  0  0  0  0  0  0  0  0  0  0  0
   -2.1720   21.3680  -31.3130 C   0  0  0  0  0  0  0  0  0  0  0  0
   -2.1414   20.5373  -32.0335 H   0  0  0  0  0  0  0  0  0  0  0  0
   -4.2450   22.2150  -32.8500 S   0  0  0  0  0  0  0  0  0  0  0  0
   -5.8110   22.0680  -32.0060 C   0  0  0  0  0  0  0  0  0  0  0  0
   -6.4890   20.8450  -31.9790 C   0  0  0  0  0  0  0  0  0  0  0  0
   -6.0429   19.9575  -32.4515 H   0  0  0  0  0  0  0  0  0  0  0  0
   -7.7340   20.7520  -31.3510 C   0  0  0  0  0  0  0  0  0  0  0  0
   -8.2674   19.7903  -31.3281 H   0  0  0  0  0  0  0  0  0  0  0  0
   -8.3020   21.8800  -30.7520 C   0  0  0  0  0  0  0  0  0  0  0  0
   -9.2858   21.8064  -30.2655 H   0  0  0  0  0  0  0  0  0  0  0  0
   -7.6220   23.1020  -30.7700 C   0  0  0  0  0  0  0  0  0  0  0  0
   -8.0657   23.9836  -30.2843 H   0  0  0  0  0  0  0  0  0  0  0  0
   -6.3730   23.2070  -31.4070 C   0  0  0  0  0  0  0  0  0  0  0  0
   -5.5260   24.4420  -31.2340 C   0  0  0  0  0  0  0  0  0  0  0  0
   -6.1589   25.3002  -30.9640 H   0  0  0  0  0  0  0  0  0  0  0  0
   -5.0000   24.6930  -32.1669 H   0  0  0  0  0  0  0  0  0  0  0  0
   -4.5540   24.1510  -30.1310 C   0  0  0  0  0  0  0  0  0  0  0  0
   -4.9770   24.4240  -28.9270 N   0  0  0  0  0  0  0  0  0  0  0  0
   -4.3480   23.9970  -27.7750 O   0  0  0  0  0  0  0  0  0  0  0  0
   -4.2700   24.8670  -26.6510 C   0  0  0  0  0  0  0  0  0  0  0  0
   -4.7696   24.3949  -25.7922 H   0  0  0  0  0  0  0  0  0  0  0  0
   -4.7643   25.8173  -26.9011 H   0  0  0  0  0  0  0  0  0  0  0  0
   -2.8120   25.1470  -26.2930 C   0  0  0  0  0  0  0  0  0  0  0  0
   -2.7571   25.5353  -25.2653 H   0  0  0  0  0  0  0  0  0  0  0  0
   -2.4036   25.8898  -26.9940 H   0  0  0  0  0  0  0  0  0  0  0  0
   -2.0550   23.9550  -26.3850 O   0  0  0  0  0  0  0  0  0  0  0  0
   -0.6700   24.2450  -26.3970 C   0  0  0  0  0  0  0  0  0  0  0  0
   -0.5252   25.3067  -26.6458 H   0  0  0  0  0  0  0  0  0  0  0  0
   -0.1811   23.6076  -27.1484 H   0  0  0  0  0  0  0  0  0  0  0  0
   -0.0430   23.9580  -25.0190 C   0  0  0  0  0  0  0  0  0  0  0  0
    0.8256   23.3011  -25.1738 H   0  0  0  0  0  0  0  0  0  0  0  0
   -0.8438   23.5065  -24.4149 H   0  0  0  0  0  0  0  0  0  0  0  0
    0.4180   25.1540  -24.2520 N   0  0  0  0  0  0  0  0  0  0  0  0
    0.9220   24.7880  -23.4090 H   0  0  0  0  0  0  0  0  0  0  0  0
   -0.6860   26.0090  -23.7390 C   0  0  0  0  0  0  0  0  0  0  0  0
   -0.6903   25.9504  -22.6406 H   0  0  0  0  0  0  0  0  0  0  0  0
   -1.6201   25.6311  -24.1802 H   0  0  0  0  0  0  0  0  0  0  0  0
   -0.5580   27.4810  -24.1460 C   0  0  0  0  0  0  0  0  0  0  0  0
   -0.5035   28.1075  -23.2435 H   0  0  0  0  0  0  0  0  0  0  0  0
    0.3555   27.6182  -24.7433 H   0  0  0  0  0  0  0  0  0  0  0  0
   -1.4341   27.7738  -24.7433 H   0  0  0  0  0  0  0  0  0  0  0  0
    1.3930   26.0010  -24.9870 C   0  0  0  0  0  0  0  0  0  0  0  0
    0.8802   26.4569  -25.8468 H   0  0  0  0  0  0  0  0  0  0  0  0
    1.7672   26.7546  -24.2784 H   0  0  0  0  0  0  0  0  0  0  0  0
    2.6080   25.2230  -25.5030 C   0  0  0  0  0  0  0  0  0  0  0  0
    3.1929   24.8485  -24.6500 H   0  0  0  0  0  0  0  0  0  0  0  0
    2.2674   24.3746  -26.1147 H   0  0  0  0  0  0  0  0  0  0  0  0
    3.2360   25.8874  -26.1147 H   0  0  0  0  0  0  0  0  0  0  0  0
  1  2  1  0
  2  3  2  0
  3  4  1  0
  3  5  1  0
  5  6  1  0
  5  7  2  0
  7  8  1  0
  8  9  2  0
  9 10  1  0
  8 11  1  0
 11 12  1  0
 12 13  2  0
 13 14  1  0
 13 15  1  0
 15 16  1  0
 15 17  2  0
 17 18  1  0
 17 19  1  0
 19 20  1  0
 19 21  2  0
 21 22  1  0
 22 23  1  0
 22 24  1  0
 22 25  1  0
 25 26  2  0
 26 27  1  0
 27 28  1  0
 28 29  1  0
 28 30  1  0
 28 31  1  0
 31 32  1  0
 31 33  1  0
 31 34  1  0
 34 35  1  0
 35 36  1  0
 35 37  1  0
 35 38  1  0
 38 39  1  0
 38 40  1  0
 38 41  1  0
 41 42  1  0
 41 43  1  0
 43 44  1  0
 43 45  1  0
 43 46  1  0
 46 47  1  0
 46 48  1  0
 46 49  1  0
 41 50  1  0
 50 51  1  0
 50 52  1  0
 50 53  1  0
 53 54  1  0
 53 55  1  0
 53 56  1  0
  9  2  1  0
 21 12  1  0
 25  7  1  0
M  CHG  1  41   1
M  END
>  <UniqueID>  (26) 
26

>  <SMILES>  (26) 
CC[NH+](CC)CCOCCO/N=C1/Cc2ccccc2Sc2ccccc21

>  <Energy>  (26) 
80.35466091340776

>  <Genealogy>  (26) 
CC[NH+](CC)CCOCCON=C1Cc2ccccc2Sc2ccccc21 (protonated)
CC[NH+](CC)CCOCCO/N=C1/Cc2ccccc2Sc2ccccc21 (cis-trans isomerization)
CC[NH+](CC)CCOCCO/N=C1/Cc2ccccc2Sc2ccccc21 (3D coordinates assigned)
CC[NH+](CC)CCOCCO/N=C1/Cc2ccccc2Sc2ccccc21 (nonaromatic ring conformer: 80.35466091340776 kcal/mol)

>  <smiles>  (26) 
CCN(CC)CCOCCON=C1Cc2ccccc2Sc2ccccc21

>  <score_type>  (26) 
oracle

>  <origin>  (26) 
adg

>  <m_score__min__energy>  (26) 
-6.5800000000000001

>  <m_primary>  (26) 
energy

$$$$
27:0
     RDKit          3D

 54 55  0  0  0  0  0  0  0  0999 V2000
   -2.5690   24.0980  -29.2890 C   0  0  0  0  0  0  0  0  0  0  0  0
   -1.6190   23.1030  -29.9500 C   0  0  0  0  0  0  0  0  0  0  0  0
   -2.3800   22.0770  -30.6990 N   0  0  0  0  0  0  0  0  0  0  0  0
   -3.3840   21.4110  -29.8380 C   0  0  0  0  0  0  0  0  0  0  0  0
   -2.7020   20.7430  -28.6450 C   0  0  0  0  0  0  0  0  0  0  0  0
   -1.4860   21.1010  -31.3760 C   0  0  0  0  0  0  0  0  0  0  0  0
   -2.2000   20.5010  -32.5930 C   0  0  0  0  0  0  0  0  0  0  0  0
   -3.1350   21.4600  -33.2020 N   0  0  0  0  0  0  0  0  0  0  0  0
   -4.4980   20.9990  -33.0350 C   0  0  0  0  0  0  0  0  0  0  0  0
   -4.8950   19.7610  -33.5680 C   0  0  0  0  0  0  0  0  0  0  0  0
   -3.9450   18.9820  -34.2520 O   0  0  0  0  0  0  0  0  0  0  0  0
   -4.1050   17.6070  -34.5820 C   0  0  0  0  0  0  0  0  0  0  0  0
   -6.2210   19.3340  -33.4110 C   0  0  0  0  0  0  0  0  0  0  0  0
   -7.1770   20.1250  -32.7470 C   0  0  0  0  0  0  0  0  0  0  0  0
   -8.4960   19.6640  -32.6000 O   0  0  0  0  0  0  0  0  0  0  0  0
   -8.9000   18.5550  -31.8020 C   0  0  0  0  0  0  0  0  0  0  0  0
   -6.7980   21.3960  -32.2320 C   0  0  0  0  0  0  0  0  0  0  0  0
   -7.7010   22.2830  -31.5630 C   0  0  0  0  0  0  0  0  0  0  0  0
   -9.1550   21.9640  -31.3160 C   0  0  0  0  0  0  0  0  0  0  0  0
   -7.2310   23.5250  -31.1050 C   0  0  0  0  0  0  0  0  0  0  0  0
   -5.9020   23.8920  -31.3060 C   0  0  0  0  0  0  0  0  0  0  0  0
   -5.3880   25.2050  -30.8070 C   0  0  0  0  0  0  0  0  0  0  0  0
   -5.0590   23.0350  -31.9270 N   0  0  0  0  0  0  0  0  0  0  0  0
   -5.4500   21.8190  -32.3910 C   0  0  0  0  0  0  0  0  0  0  0  0
   -2.4871   24.0122  -28.1954 H   0  0  0  0  0  0  0  0  0  0  0  0
   -2.3027   25.1197  -29.5976 H   0  0  0  0  0  0  0  0  0  0  0  0
   -3.6019   23.8792  -29.5976 H   0  0  0  0  0  0  0  0  0  0  0  0
   -0.9572   23.6413  -30.6444 H   0  0  0  0  0  0  0  0  0  0  0  0
   -1.0257   22.6054  -29.1687 H   0  0  0  0  0  0  0  0  0  0  0  0
   -4.1022   22.1598  -29.4726 H   0  0  0  0  0  0  0  0  0  0  0  0
   -3.9064   20.6428  -30.4270 H   0  0  0  0  0  0  0  0  0  0  0  0
   -3.1168   21.1493  -27.7107 H   0  0  0  0  0  0  0  0  0  0  0  0
   -2.8776   19.6578  -28.6827 H   0  0  0  0  0  0  0  0  0  0  0  0
   -1.6206   20.9410  -28.6827 H   0  0  0  0  0  0  0  0  0  0  0  0
   -0.5697   21.6126  -31.7056 H   0  0  0  0  0  0  0  0  0  0  0  0
   -1.2280   20.2957  -30.6725 H   0  0  0  0  0  0  0  0  0  0  0  0
   -1.4474   20.2123  -33.3415 H   0  0  0  0  0  0  0  0  0  0  0  0
   -2.7762   19.6266  -32.2563 H   0  0  0  0  0  0  0  0  0  0  0  0
   -2.9310   21.5800  -34.2200 H   0  0  0  0  0  0  0  0  0  0  0  0
   -3.0040   22.4000  -32.7620 H   0  0  0  0  0  0  0  0  0  0  0  0
   -4.1740   17.0138  -33.6582 H   0  0  0  0  0  0  0  0  0  0  0  0
   -5.0245   17.4760  -35.1714 H   0  0  0  0  0  0  0  0  0  0  0  0
   -3.2402   17.2683  -35.1714 H   0  0  0  0  0  0  0  0  0  0  0  0
   -6.5216   18.3567  -33.8167 H   0  0  0  0  0  0  0  0  0  0  0  0
   -8.8051   18.8154  -30.7375 H   0  0  0  0  0  0  0  0  0  0  0  0
   -9.9473   18.3041  -32.0262 H   0  0  0  0  0  0  0  0  0  0  0  0
   -8.2595   17.6893  -32.0262 H   0  0  0  0  0  0  0  0  0  0  0  0
   -9.3425   21.9229  -30.2329 H   0  0  0  0  0  0  0  0  0  0  0  0
   -9.7837   22.7456  -31.7675 H   0  0  0  0  0  0  0  0  0  0  0  0
   -9.3988   20.9910  -31.7675 H   0  0  0  0  0  0  0  0  0  0  0  0
   -7.9156   24.2113  -30.5851 H   0  0  0  0  0  0  0  0  0  0  0  0
   -5.3881   25.2047  -29.7070 H   0  0  0  0  0  0  0  0  0  0  0  0
   -4.3626   25.3606  -31.1735 H   0  0  0  0  0  0  0  0  0  0  0  0
   -6.0353   26.0154  -31.1735 H   0  0  0  0  0  0  0  0  0  0  0  0
  1  2  1  0
  2  3  1  0
  3  4  1  0
  4  5  1  0
  3  6  1  0
  6  7  1  0
  7  8  1  0
  8  9  1  0
  9 10  2  0
 10 11  1  0
 11 12  1  0
 10 13  1  0
 13 14  2  0
 14 15  1  0
 15 16  1  0
 14 17  1  0
 17 18  2  0
 18 19  1  0
 18 20  1  0
 20 21  2  0
 21 22  1  0
 21 23  1  0
 23 24  2  0
 24  9  1  0
 24 17  1  0
  1 25  1  0
  1 26  1  0
  1 27  1  0
  2 28  1  0
  2 29  1  0
  4 30  1  0
  4 31  1  0
  5 32  1  0
  5 33  1  0
  5 34  1  0
  6 35  1  0
  6 36  1  0
  7 37  1  0
  7 38  1  0
  8 39  1  0
  8 40  1  0
 12 41  1  0
 12 42  1  0
 12 43  1  0
 13 44  1  0
 16 45  1  0
 16 46  1  0
 16 47  1  0
 19 48  1  0
 19 49  1  0
 19 50  1  0
 20 51  1  0
 22 52  1  0
 22 53  1  0
 22 54  1  0
M  CHG  1   8   1
M  END
>  <UniqueID>  (27) 
27

>  <SMILES>  (27) 
CCN(CC)CC[NH2+]c1c(OC)cc(OC)c2c(C)cc(C)nc12

>  <Energy>  (27) 
59.03234263157684

>  <Genealogy>  (27) 
CCN(CC)CC[NH2+]c1c(OC)cc(OC)c2c(C)cc(C)nc12 (protonated)
CCN(CC)CC[NH2+]c1c(OC)cc(OC)c2c(C)cc(C)nc12 (3D coordinates assigned)
CCN(CC)CC[NH2+]c1c(OC)cc(OC)c2c(C)cc(C)nc12 (optimized conformer: 59.03234263157684 kcal/mol)

>  <smiles>  (27) 
CCN(CC)CCNc1c(OC)cc(OC)c2c(C)cc(C)nc12

>  <score_type>  (27) 
oracle

>  <origin>  (27) 
adg

>  <m_score__min__energy>  (27) 
-7.5199999999999996

>  <m_primary>  (27) 
energy

$$$$
28:0
     RDKit          3D

 28 29  0  0  0  0  0  0  0  0999 V2000
   -6.5030   17.4340  -31.8170 C   0  0  0  0  0  0  0  0  0  0  0  0
   -6.7460   17.8950  -33.0470 C   0  0  0  0  0  0  0  0  0  0  0  0
   -6.2760   19.2520  -33.4900 C   0  0  0  0  0  0  0  0  0  0  0  0
   -7.0570   20.3400  -32.8000 C   0  0  0  0  0  0  0  0  0  0  0  0
   -8.4490   20.2230  -32.6240 C   0  0  0  0  0  0  0  0  0  0  0  0
   -9.1750   21.2280  -31.9620 C   0  0  0  0  0  0  0  0  0  0  0  0
   -8.5250   22.3630  -31.4540 C   0  0  0  0  0  0  0  0  0  0  0  0
   -7.1360   22.4800  -31.6100 C   0  0  0  0  0  0  0  0  0  0  0  0
   -6.4290   21.4800  -32.2750 C   0  0  0  0  0  0  0  0  0  0  0  0
   -4.7970   21.8950  -32.3250 S   0  0  0  0  0  0  0  0  0  0  0  0
   -5.0610   23.3370  -31.4940 C   0  0  0  0  0  0  0  0  0  0  0  0
   -4.1480   24.1600  -31.2180 O   0  0  0  0  0  0  0  0  0  0  0  0
   -6.3660   23.5200  -31.1610 N   0  0  0  0  0  0  0  0  0  0  0  0
   -6.8680   24.7120  -30.4640 C   0  0  0  0  0  0  0  0  0  0  0  0
   -5.9150   25.1130  -29.3430 C   0  0  0  0  0  0  0  0  0  0  0  0
   -6.8605   16.4361  -31.5231 H   0  0  0  0  0  0  0  0  0  0  0  0
   -5.9454   18.0523  -31.0981 H   0  0  0  0  0  0  0  0  0  0  0  0
   -7.3049   17.2647  -33.7543 H   0  0  0  0  0  0  0  0  0  0  0  0
   -5.2095   19.3623  -33.2442 H   0  0  0  0  0  0  0  0  0  0  0  0
   -6.4299   19.3415  -34.5755 H   0  0  0  0  0  0  0  0  0  0  0  0
   -8.9737   19.3360  -33.0085 H   0  0  0  0  0  0  0  0  0  0  0  0
  -10.2633   21.1238  -31.8410 H   0  0  0  0  0  0  0  0  0  0  0  0
   -9.0968   23.1501  -30.9406 H   0  0  0  0  0  0  0  0  0  0  0  0
   -6.9539   25.5418  -31.1809 H   0  0  0  0  0  0  0  0  0  0  0  0
   -7.8529   24.4836  -30.0305 H   0  0  0  0  0  0  0  0  0  0  0  0
   -6.3885   24.9137  -28.3703 H   0  0  0  0  0  0  0  0  0  0  0  0
   -4.9862   24.5294  -29.4250 H   0  0  0  0  0  0  0  0  0  0  0  0
   -5.6829   26.1851  -29.4250 H   0  0  0  0  0  0  0  0  0  0  0  0
  1  2  2  0
  2  3  1  0
  3  4  1  0
  4  5  2  0
  5  6  1  0
  6  7  2  0
  7  8  1  0
  8  9  2  0
  9 10  1  0
 10 11  1  0
 11 12  2  0
 11 13  1  0
 13 14  1  0
 14 15  1  0
  9  4  1  0
 13  8  1  0
  1 16  1  0
  1 17  1  0
  2 18  1  0
  3 19  1  0
  3 20  1  0
  5 21  1  0
  6 22  1  0
  7 23  1  0
 14 24  1  0
 14 25  1  0
 15 26  1  0
 15 27  1  0
 15 28  1  0
M  END
>  <UniqueID>  (28) 
28

>  <SMILES>  (28) 
C=CCc1cccc2c1sc(=O)n2CC

>  <Energy>  (28) 
58.58458628978516

>  <Genealogy>  (28) 
C=CCc1cccc2c1sc(=O)n2CC (3D coordinates assigned)
C=CCc1cccc2c1sc(=O)n2CC (optimized conformer: 58.58458628978516 kcal/mol)

>  <smiles>  (28) 
C=CCc1cccc2c1sc(=O)n2CC

>  <score_type>  (28) 
oracle

>  <origin>  (28) 
adg

>  <m_score__min__energy>  (28) 
-7.0099999999999998

>  <m_primary>  (28) 
energy

$$$$
