0:0
     RDKit          2D

 73 77  0  0  0  0  0  0  0  0999 V2000
    8.2500   -3.8971    0.0000 C   0  0  0  0  0  0  0  0  0  0  0  0
    6.7500   -3.8971    0.0000 C   0  0  0  0  0  0  0  0  0  0  0  0
    5.2500   -3.8971    0.0000 N   0  0  0  0  0  0  0  0  0  0  0  0
    4.5000   -5.1962    0.0000 C   0  0  0  0  0  0  0  0  0  0  0  0
    4.5000   -2.5981    0.0000 C   0  0  0  0  0  0  0  0  0  0  0  0
    3.7500   -1.2990    0.0000 C   0  0  0  0  0  0  0  0  0  0  0  0
    3.0000   -0.0000    0.0000 N   0  0  0  0  0  0  0  0  0  0  0  0
    1.5000    0.0000    0.0000 C   0  0  0  0  0  0  0  0  0  0  0  0
    0.7500   -1.2990    0.0000 C   0  0  0  0  0  0  0  0  0  0  0  0
    1.5000   -2.5981    0.0000 C   0  0  0  0  0  0  0  0  0  0  0  0
    0.7500   -3.8971    0.0000 C   0  0  0  0  0  0  0  0  0  0  0  0
   -0.7500   -3.8971    0.0000 C   0  0  0  0  0  0  0  0  0  0  0  0
   -1.5000   -2.5981    0.0000 C   0  0  0  0  0  0  0  0  0  0  0  0
   -0.7500   -1.2990    0.0000 C   0  0  0  0  0  0  0  0  0  0  0  0
   -1.5000    0.0000    0.0000 N   0  0  0  0  0  0  0  0  0  0  0  0
   -3.0000    0.0000    0.0000 C   0  0  0  0  0  0  0  0  0  0  0  0
   -0.7500    1.2990    0.0000 C   0  0  0  0  0  0  0  0  0  0  0  0
   -1.5000    2.5981    0.0000 C   0  0  0  0  0  0  0  0  0  0  0  0
   -0.7500    3.8971    0.0000 C   0  0  0  0  0  0  0  0  0  0  0  0
    0.7500    3.8971    0.0000 C   0  0  0  0  0  0  0  0  0  0  0  0
    1.5000    5.1962    0.0000 C   0  0  0  0  0  0  0  0  0  0  0  0
    2.2500    6.4952    0.0000 C   0  0  0  0  0  0  0  0  0  0  0  0
    3.0000    7.7942    0.0000 C   0  0  0  0  0  0  0  0  0  0  0  0
    3.7500    9.0933    0.0000 C   0  0  0  0  0  0  0  0  0  0  0  0
    4.5000   10.3923    0.0000 C   0  0  0  0  0  0  0  0  0  0  0  0
    5.2500   11.6913    0.0000 N   0  0  0  0  0  0  0  0  0  0  0  0
    4.5000   12.9904    0.0000 C   0  0  0  0  0  0  0  0  0  0  0  0
    5.2500   14.2894    0.0000 C   0  0  0  0  0  0  0  0  0  0  0  0
    6.7500   14.2894    0.0000 C   0  0  0  0  0  0  0  0  0  0  0  0
    7.5000   12.9904    0.0000 C   0  0  0  0  0  0  0  0  0  0  0  0
    6.7500   11.6913    0.0000 C   0  0  0  0  0  0  0  0  0  0  0  0
    6.3079   10.2580    0.0000 C   0  0  0  0  0  0  0  0  0  0  0  0
    4.9116    9.7100    0.0000 C   0  0  0  0  0  0  0  0  0  0  0  0
    3.6125   10.4600    0.0000 C   0  0  0  0  0  0  0  0  0  0  0  0
    3.3890   11.9432    0.0000 C   0  0  0  0  0  0  0  0  0  0  0  0
    1.5000    2.5981    0.0000 C   0  0  0  0  0  0  0  0  0  0  0  0
    0.7500    1.2990    0.0000 C   0  0  0  0  0  0  0  0  0  0  0  0
    9.7500   -3.8971    0.0000 H   0  0  0  0  0  0  0  0  0  0  0  0
    8.2500   -2.3971    0.0000 H   0  0  0  0  0  0  0  0  0  0  0  0
    8.2500   -5.3971    0.0000 H   0  0  0  0  0  0  0  0  0  0  0  0
    6.7500   -2.3971    0.0000 H   0  0  0  0  0  0  0  0  0  0  0  0
    6.7500   -5.3971    0.0000 H   0  0  0  0  0  0  0  0  0  0  0  0
    3.7500   -6.4952    0.0000 H   0  0  0  0  0  0  0  0  0  0  0  0
    5.7990   -5.9462    0.0000 H   0  0  0  0  0  0  0  0  0  0  0  0
    3.2010   -4.4462    0.0000 H   0  0  0  0  0  0  0  0  0  0  0  0
    3.4934   -3.0253    0.0000 H   0  0  0  0  0  0  0  0  0  0  0  0
    5.7990   -1.8481    0.0000 H   0  0  0  0  0  0  0  0  0  0  0  0
    5.0490   -0.5490    0.0000 H   0  0  0  0  0  0  0  0  0  0  0  0
    2.8767   -1.9571    0.0000 H   0  0  0  0  0  0  0  0  0  0  0  0
    3.7500    1.2990    0.0000 H   0  0  0  0  0  0  0  0  0  0  0  0
    2.2972   -2.5981    0.0000 H   0  0  0  0  0  0  0  0  0  0  0  0
    1.5000   -5.1962    0.0000 H   0  0  0  0  0  0  0  0  0  0  0  0
   -1.5000   -5.1962    0.0000 H   0  0  0  0  0  0  0  0  0  0  0  0
   -3.0000   -2.5981    0.0000 H   0  0  0  0  0  0  0  0  0  0  0  0
   -4.5000    0.0000    0.0000 H   0  0  0  0  0  0  0  0  0  0  0  0
   -3.0000    1.5000    0.0000 H   0  0  0  0  0  0  0  0  0  0  0  0
   -3.0000   -1.5000    0.0000 H   0  0  0  0  0  0  0  0  0  0  0  0
   -3.0000    2.5981    0.0000 H   0  0  0  0  0  0  0  0  0  0  0  0
   -1.5000    5.1962    0.0000 H   0  0  0  0  0  0  0  0  0  0  0  0
    4.2990    7.0442    0.0000 H   0  0  0  0  0  0  0  0  0  0  0  0
    1.7010    8.5442    0.0000 H   0  0  0  0  0  0  0  0  0  0  0  0
    2.3692    9.6793    0.0000 H   0  0  0  0  0  0  0  0  0  0  0  0
    4.9479    8.1905    0.0000 H   0  0  0  0  0  0  0  0  0  0  0  0
    5.7990    9.6423    0.0000 H   0  0  0  0  0  0  0  0  0  0  0  0
    3.0581   10.8057    0.0000 H   0  0  0  0  0  0  0  0  0  0  0  0
    4.5000   15.5885    0.0000 H   0  0  0  0  0  0  0  0  0  0  0  0
    7.5000   15.5885    0.0000 H   0  0  0  0  0  0  0  0  0  0  0  0
    9.0000   12.9904    0.0000 H   0  0  0  0  0  0  0  0  0  0  0  0
    7.4074    9.2377    0.0000 H   0  0  0  0  0  0  0  0  0  0  0  0
    4.9826    8.2117    0.0000 H   0  0  0  0  0  0  0  0  0  0  0  0
    2.2794    9.7724    0.0000 H   0  0  0  0  0  0  0  0  0  0  0  0
    1.9556   12.3854    0.0000 H   0  0  0  0  0  0  0  0  0  0  0  0
    3.0000    2.5981    0.0000 H   0  0  0  0  0  0  0  0  0  0  0  0
  1  2  1  0
  2  3  1  0
  3  4  1  0
  3  5  1  0
  5  6  1  0
  6  7  1  0
  7  8  1  0
  8  9  2  0
  9 10  1  0
 10 11  2  0
 11 12  1  0
 12 13  2  0
 13 14  1  0
 14 15  2  0
 15 16  1  0
 15 17  1  0
 17 18  2  0
 18 19  1  0
 19 20  2  0
 20 21  1  0
 21 22  3  0
 22 23  1  0
 23 24  1  0
 24 25  1  0
 25 26  1  0
 26 27  1  0
 27 28  2  0
 28 29  1  0
 29 30  2  0
 30 31  1  0
 31 32  1  0
 32 33  2  0
 33 34  1  0
 34 35  2  0
 20 36  1  0
 36 37  2  0
 37  8  1  0
 14  9  1  0
 37 17  1  0
 31 26  2  0
 35 27  1  0
  1 38  1  0
  1 39  1  0
  1 40  1  0
  2 41  1  0
  2 42  1  0
  4 43  1  0
  4 44  1  0
  4 45  1  0
  5 46  1  0
  5 47  1  0
  6 48  1  0
  6 49  1  0
  7 50  1  0
 10 51  1  0
 11 52  1  0
 12 53  1  0
 13 54  1  0
 16 55  1  0
 16 56  1  0
 16 57  1  0
 18 58  1  0
 19 59  1  0
 23 60  1  0
 23 61  1  0
 24 62  1  0
 24 63  1  0
 25 64  1  0
 25 65  1  0
 28 66  1  0
 29 67  1  0
 30 68  1  0
 32 69  1  0
 33 70  1  0
 34 71  1  0
 35 72  1  0
 36 73  1  0
M  CHG  2  15   1  26   1
M  END
>  <smiles>  (1) 
CCN(C)CCNc1c2ccccc2[n+](C)c2ccc(C#CCCC[n+]3c4cccc3C=CC=C4)cc12

>  <m_score__min__energy>  (1) 
nan

>  <m_primary>  (1) 
energy

$$$$
1:0
     RDKit          3D

 59 61  0  0  0  0  0  0  0  0999 V2000
    2.1790   23.5120  -35.7340 C   0  0  0  0  0  0  0  0  0  0  0  0
    0.6950   23.5460  -35.8900 C   0  0  0  0  0  0  0  0  0  0  0  0
   -0.0310   22.4430  -35.3560 N   0  0  0  0  0  0  0  0  0  0  0  0
    0.6580   21.4190  -34.6850 C   0  0  0  0  0  0  0  0  0  0  0  0
   -0.1350   20.5010  -33.7990 C   0  0  0  0  0  0  0  0  0  0  0  0
   -1.5240   20.8450  -33.8120 N   0  0  0  0  0  0  0  0  0  0  0  0
   -2.1690   20.8230  -32.5360 C   0  0  0  0  0  0  0  0  0  0  0  0
   -3.2510   21.8900  -32.4570 C   0  0  0  0  0  0  0  0  0  0  0  0
   -4.3220   21.6480  -33.4080 N   0  0  0  0  0  0  0  0  0  0  0  0
   -5.4510   20.9590  -32.9470 C   0  0  0  0  0  0  0  0  0  0  0  0
   -5.4770   19.5820  -33.2050 C   0  0  0  0  0  0  0  0  0  0  0  0
   -6.5300   18.7930  -32.8050 C   0  0  0  0  0  0  0  0  0  0  0  0
   -7.5910   19.3330  -32.1380 N   0  0  0  0  0  0  0  0  0  0  0  0
   -8.6270   18.4320  -31.7580 C   0  0  0  0  0  0  0  0  0  0  0  0
   -7.5970   20.6630  -31.8750 C   0  0  0  0  0  0  0  0  0  0  0  0
   -6.5250   21.4750  -32.2800 C   0  0  0  0  0  0  0  0  0  0  0  0
   -6.5450   22.9320  -31.9750 C   0  0  0  0  0  0  0  0  0  0  0  0
   -7.9140   23.4280  -32.3590 C   0  0  0  0  0  0  0  0  0  0  0  0
   -9.0530   22.6800  -31.7620 C   0  0  0  0  0  0  0  0  0  0  0  0
   -8.6930   21.3300  -31.1700 C   0  0  0  0  0  0  0  0  0  0  0  0
   -6.4790   17.3320  -33.1270 C   0  0  0  0  0  0  0  0  0  0  0  0
   -6.1100   17.2530  -34.5930 C   0  0  0  0  0  0  0  0  0  0  0  0
   -4.7430   17.8140  -34.8200 C   0  0  0  0  0  0  0  0  0  0  0  0
   -4.3570   18.9440  -33.9360 C   0  0  0  0  0  0  0  0  0  0  0  0
    2.4352   23.5061  -34.6643 H   0  0  0  0  0  0  0  0  0  0  0  0
    2.5772   22.6045  -36.2114 H   0  0  0  0  0  0  0  0  0  0  0  0
    2.6183   24.4003  -36.2114 H   0  0  0  0  0  0  0  0  0  0  0  0
    0.3288   24.4571  -35.3943 H   0  0  0  0  0  0  0  0  0  0  0  0
    0.5181   23.5097  -36.9751 H   0  0  0  0  0  0  0  0  0  0  0  0
   -1.0050   22.6360  -35.0690 H   0  0  0  0  0  0  0  0  0  0  0  0
    1.1448   20.7961  -35.4499 H   0  0  0  0  0  0  0  0  0  0  0  0
    1.3360   21.9470  -33.9983 H   0  0  0  0  0  0  0  0  0  0  0  0
   -0.0176   19.4672  -34.1560 H   0  0  0  0  0  0  0  0  0  0  0  0
    0.2396   20.5995  -32.7695 H   0  0  0  0  0  0  0  0  0  0  0  0
   -1.7240   21.6890  -34.3450 H   0  0  0  0  0  0  0  0  0  0  0  0
   -2.6257   19.8345  -32.3801 H   0  0  0  0  0  0  0  0  0  0  0  0
   -1.4177   21.0256  -31.7585 H   0  0  0  0  0  0  0  0  0  0  0  0
   -3.6722   21.8946  -31.4409 H   0  0  0  0  0  0  0  0  0  0  0  0
   -2.7918   22.8594  -32.7007 H   0  0  0  0  0  0  0  0  0  0  0  0
   -4.2810   21.9610  -34.4030 H   0  0  0  0  0  0  0  0  0  0  0  0
   -8.6849   18.3816  -30.6607 H   0  0  0  0  0  0  0  0  0  0  0  0
   -9.5874   18.7870  -32.1600 H   0  0  0  0  0  0  0  0  0  0  0  0
   -8.4086   17.4316  -32.1600 H   0  0  0  0  0  0  0  0  0  0  0  0
   -6.3670   23.0986  -30.9024 H   0  0  0  0  0  0  0  0  0  0  0  0
   -5.7579   23.4659  -32.5276 H   0  0  0  0  0  0  0  0  0  0  0  0
   -7.9953   24.4787  -32.0438 H   0  0  0  0  0  0  0  0  0  0  0  0
   -7.9943   23.2860  -33.4468 H   0  0  0  0  0  0  0  0  0  0  0  0
   -9.4861   23.2988  -30.9623 H   0  0  0  0  0  0  0  0  0  0  0  0
   -9.7537   22.4779  -32.5855 H   0  0  0  0  0  0  0  0  0  0  0  0
   -8.3956   21.4766  -30.1212 H   0  0  0  0  0  0  0  0  0  0  0  0
   -9.5801   20.6862  -31.2628 H   0  0  0  0  0  0  0  0  0  0  0  0
   -5.7185   16.8291  -32.5116 H   0  0  0  0  0  0  0  0  0  0  0  0
   -7.4384   16.8351  -32.9206 H   0  0  0  0  0  0  0  0  0  0  0  0
   -6.1276   16.2012  -34.9145 H   0  0  0  0  0  0  0  0  0  0  0  0
   -6.8363   17.8396  -35.1747 H   0  0  0  0  0  0  0  0  0  0  0  0
   -4.0153   17.0030  -34.6696 H   0  0  0  0  0  0  0  0  0  0  0  0
   -4.7511   18.2211  -35.8419 H   0  0  0  0  0  0  0  0  0  0  0  0
   -3.6376   18.5661  -33.1946 H   0  0  0  0  0  0  0  0  0  0  0  0
   -3.9404   19.7198  -34.5952 H   0  0  0  0  0  0  0  0  0  0  0  0
  1  2  1  0
  2  3  1  0
  3  4  1  0
  4  5  1  0
  5  6  1  0
  6  7  1  0
  7  8  1  0
  8  9  1  0
  9 10  1  0
 10 11  2  0
 11 12  1  0
 12 13  2  0
 13 14  1  0
 13 15  1  0
 15 16  2  0
 16 17  1  0
 17 18  1  0
 18 19  1  0
 19 20  1  0
 12 21  1  0
 21 22  1  0
 22 23  1  0
 23 24  1  0
 16 10  1  0
 24 11  1  0
 20 15  1  0
  1 25  1  0
  1 26  1  0
  1 27  1  0
  2 28  1  0
  2 29  1  0
  3 30  1  0
  4 31  1  0
  4 32  1  0
  5 33  1  0
  5 34  1  0
  6 35  1  0
  7 36  1  0
  7 37  1  0
  8 38  1  0
  8 39  1  0
  9 40  1  0
 14 41  1  0
 14 42  1  0
 14 43  1  0
 17 44  1  0
 17 45  1  0
 18 46  1  0
 18 47  1  0
 19 48  1  0
 19 49  1  0
 20 50  1  0
 20 51  1  0
 21 52  1  0
 21 53  1  0
 22 54  1  0
 22 55  1  0
 23 56  1  0
 23 57  1  0
 24 58  1  0
 24 59  1  0
M  CHG  1  13   1
M  END
>  <smiles>  (2) 
CCNCCNCCNc1c2c([n+](C)c3c1CCCC3)CCCC2

>  <score_type>  (2) 
oracle

>  <origin>  (2) 
adg

>  <m_score__min__energy>  (2) 
-9.4000000000000004

>  <m_primary>  (2) 
energy

$$$$
2:0
     RDKit          3D

 48 51  0  0  0  0  0  0  0  0999 V2000
   -0.1940   19.4020  -34.2460 C   0  0  0  0  0  0  0  0  0  0  0  0
   -1.2440   19.9470  -33.3480 C   0  0  0  0  0  0  0  0  0  0  0  0
   -2.0560   20.9560  -33.8140 C   0  0  0  0  0  0  0  0  0  0  0  0
   -3.0470   21.4960  -33.0150 C   0  0  0  0  0  0  0  0  0  0  0  0
   -3.2870   21.0710  -31.7210 C   0  0  0  0  0  0  0  0  0  0  0  0
   -4.3610   21.6450  -30.8760 C   0  0  0  0  0  0  0  0  0  0  0  0
   -4.4590   23.0680  -30.8660 N   0  0  0  0  0  0  0  0  0  0  0  0
   -3.4880   23.8710  -30.3440 C   0  0  0  0  0  0  0  0  0  0  0  0
   -2.2000   23.4990  -29.7160 C   0  0  0  0  0  0  0  0  0  0  0  0
   -3.8660   25.1670  -30.4870 N   0  0  0  0  0  0  0  0  0  0  0  0
   -5.0220   25.1290  -31.0750 N   0  0  0  0  0  0  0  0  0  0  0  0
   -5.4400   23.9000  -31.3340 C   0  0  0  0  0  0  0  0  0  0  0  0
   -6.6930   23.4250  -31.9800 C   0  0  0  0  0  0  0  0  0  0  0  0
   -6.4530   22.1980  -32.7110 N   0  0  0  0  0  0  0  0  0  0  0  0
   -7.1550   20.9910  -32.5240 C   0  0  0  0  0  0  0  0  0  0  0  0
   -8.3210   20.9070  -31.8100 C   0  0  0  0  0  0  0  0  0  0  0  0
   -9.0050   19.7100  -31.6000 C   0  0  0  0  0  0  0  0  0  0  0  0
   -8.5300   18.5340  -32.1080 C   0  0  0  0  0  0  0  0  0  0  0  0
   -7.3520   18.5900  -32.8320 C   0  0  0  0  0  0  0  0  0  0  0  0
   -6.8900   17.3920  -33.3380 C   0  0  0  0  0  0  0  0  0  0  0  0
   -5.7260   17.3410  -34.0740 C   0  0  0  0  0  0  0  0  0  0  0  0
   -5.0540   18.5090  -34.2830 C   0  0  0  0  0  0  0  0  0  0  0  0
   -5.5190   19.7110  -33.7750 C   0  0  0  0  0  0  0  0  0  0  0  0
   -6.6690   19.7840  -33.0430 C   0  0  0  0  0  0  0  0  0  0  0  0
   -2.4520   20.0450  -31.2680 C   0  0  0  0  0  0  0  0  0  0  0  0
   -1.4610   19.5050  -32.0680 C   0  0  0  0  0  0  0  0  0  0  0  0
    0.6218   18.9786  -33.6416 H   0  0  0  0  0  0  0  0  0  0  0  0
   -0.6268   18.6147  -34.8807 H   0  0  0  0  0  0  0  0  0  0  0  0
    0.2007   20.2090  -34.8807 H   0  0  0  0  0  0  0  0  0  0  0  0
   -1.9147   21.3380  -34.8358 H   0  0  0  0  0  0  0  0  0  0  0  0
   -3.6733   22.3007  -33.4276 H   0  0  0  0  0  0  0  0  0  0  0  0
   -5.3208   21.2446  -31.2345 H   0  0  0  0  0  0  0  0  0  0  0  0
   -4.1095   21.3590  -29.8440 H   0  0  0  0  0  0  0  0  0  0  0  0
   -2.3037   23.5289  -28.6213 H   0  0  0  0  0  0  0  0  0  0  0  0
   -1.9189   22.4830  -30.0300 H   0  0  0  0  0  0  0  0  0  0  0  0
   -1.4205   24.2087  -30.0300 H   0  0  0  0  0  0  0  0  0  0  0  0
   -7.4528   23.2424  -31.2058 H   0  0  0  0  0  0  0  0  0  0  0  0
   -7.0450   24.1947  -32.6826 H   0  0  0  0  0  0  0  0  0  0  0  0
   -5.6740   22.2720  -33.4320 H   0  0  0  0  0  0  0  0  0  0  0  0
   -8.7386   21.8297  -31.3809 H   0  0  0  0  0  0  0  0  0  0  0  0
   -9.9385   19.7127  -31.0182 H   0  0  0  0  0  0  0  0  0  0  0  0
   -9.0609   17.5839  -31.9484 H   0  0  0  0  0  0  0  0  0  0  0  0
   -7.4570   16.4679  -33.1518 H   0  0  0  0  0  0  0  0  0  0  0  0
   -5.3514   16.3896  -34.4795 H   0  0  0  0  0  0  0  0  0  0  0  0
   -4.1224   18.4965  -34.8677 H   0  0  0  0  0  0  0  0  0  0  0  0
   -4.9466   20.6306  -33.9665 H   0  0  0  0  0  0  0  0  0  0  0  0
   -2.5868   19.6567  -30.2477 H   0  0  0  0  0  0  0  0  0  0  0  0
   -0.8296   18.6988  -31.6664 H   0  0  0  0  0  0  0  0  0  0  0  0
  1  2  1  0
  2  3  2  0
  3  4  1  0
  4  5  2  0
  5  6  1  0
  6  7  1  0
  7  8  1  0
  8  9  1  0
  8 10  2  0
 10 11  1  0
 11 12  2  0
 12 13  1  0
 13 14  1  0
 14 15  1  0
 15 16  2  0
 16 17  1  0
 17 18  2  0
 18 19  1  0
 19 20  2  0
 20 21  1  0
 21 22  2  0
 22 23  1  0
 23 24  2  0
  5 25  1  0
 25 26  2  0
 26  2  1  0
 12  7  1  0
 24 15  1  0
 24 19  1  0
  1 27  1  0
  1 28  1  0
  1 29  1  0
  3 30  1  0
  4 31  1  0
  6 32  1  0
  6 33  1  0
  9 34  1  0
  9 35  1  0
  9 36  1  0
 13 37  1  0
 13 38  1  0
 14 39  1  0
 16 40  1  0
 17 41  1  0
 18 42  1  0
 20 43  1  0
 21 44  1  0
 22 45  1  0
 23 46  1  0
 25 47  1  0
 26 48  1  0
M  END
>  <smiles>  (3) 
Cc1ccc(Cn2c(C)nnc2CNc2cccc3ccccc23)cc1

>  <score_type>  (3) 
oracle

>  <origin>  (3) 
adg

>  <m_score__min__energy>  (3) 
-10.029999999999999

>  <m_primary>  (3) 
energy

$$$$
3:0
     RDKit          3D

 50 50  0  0  0  0  0  0  0  0999 V2000
   -5.7680   18.2430  -34.4150 C   0  0  0  0  0  0  0  0  0  0  0  0
   -6.0490   19.6550  -33.9560 C   0  0  0  0  0  0  0  0  0  0  0  0
   -6.0670   19.7870  -32.5370 N   0  0  0  0  0  0  0  0  0  0  0  0
   -4.7820   20.0080  -31.9460 C   0  0  0  0  0  0  0  0  0  0  0  0
   -4.0360   21.1850  -32.5120 C   0  0  0  0  0  0  0  0  0  0  0  0
   -6.9120   18.8990  -31.8320 C   0  0  0  0  0  0  0  0  0  0  0  0
   -8.3770   19.2150  -32.1800 C   0  0  0  0  0  0  0  0  0  0  0  0
   -8.4870   20.5550  -32.5280 O   0  0  0  0  0  0  0  0  0  0  0  0
   -9.3820   21.2030  -31.7160 C   0  0  0  0  0  0  0  0  0  0  0  0
   -9.1400   22.6740  -31.6290 C   0  0  0  0  0  0  0  0  0  0  0  0
   -7.7360   23.0000  -32.1310 C   0  0  0  0  0  0  0  0  0  0  0  0
   -6.8140   22.3090  -31.2820 N   0  0  0  0  0  0  0  0  0  0  0  0
   -6.6970   22.9800  -30.0020 C   0  0  0  0  0  0  0  0  0  0  0  0
   -5.4760   23.8110  -30.0740 C   0  0  0  0  0  0  0  0  0  0  0  0
   -5.1740   24.9020  -30.8570 C   0  0  0  0  0  0  0  0  0  0  0  0
   -3.9120   25.2970  -30.5240 N   0  0  0  0  0  0  0  0  0  0  0  0
   -3.4230   24.5010  -29.5720 N   0  0  0  0  0  0  0  0  0  0  0  0
   -2.1140   24.5800  -28.9390 C   0  0  0  0  0  0  0  0  0  0  0  0
   -4.3660   23.5610  -29.2640 C   0  0  0  0  0  0  0  0  0  0  0  0
   -4.2360   22.4650  -28.2510 C   0  0  0  0  0  0  0  0  0  0  0  0
   -5.6383   17.5914  -33.5383 H   0  0  0  0  0  0  0  0  0  0  0  0
   -6.6114   17.8796  -35.0204 H   0  0  0  0  0  0  0  0  0  0  0  0
   -4.8497   18.2302  -35.0204 H   0  0  0  0  0  0  0  0  0  0  0  0
   -5.2682   20.3165  -34.3595 H   0  0  0  0  0  0  0  0  0  0  0  0
   -7.0492   19.9273  -34.3241 H   0  0  0  0  0  0  0  0  0  0  0  0
   -4.9225   20.1750  -30.8679 H   0  0  0  0  0  0  0  0  0  0  0  0
   -4.1766   19.1160  -32.1644 H   0  0  0  0  0  0  0  0  0  0  0  0
   -3.6452   21.8016  -31.6891 H   0  0  0  0  0  0  0  0  0  0  0  0
   -3.2000   20.8263  -33.1304 H   0  0  0  0  0  0  0  0  0  0  0  0
   -4.7172   21.7879  -33.1304 H   0  0  0  0  0  0  0  0  0  0  0  0
   -6.6802   17.8630  -32.1202 H   0  0  0  0  0  0  0  0  0  0  0  0
   -6.7542   19.0179  -30.7499 H   0  0  0  0  0  0  0  0  0  0  0  0
   -8.6973   18.5883  -33.0253 H   0  0  0  0  0  0  0  0  0  0  0  0
   -9.0159   19.0066  -31.3092 H   0  0  0  0  0  0  0  0  0  0  0  0
  -10.3953   21.0382  -32.1111 H   0  0  0  0  0  0  0  0  0  0  0  0
   -9.2613   20.7916  -30.7030 H   0  0  0  0  0  0  0  0  0  0  0  0
   -9.8804   23.2026  -32.2474 H   0  0  0  0  0  0  0  0  0  0  0  0
   -9.2336   22.9951  -30.5811 H   0  0  0  0  0  0  0  0  0  0  0  0
   -7.6188   22.6603  -33.1707 H   0  0  0  0  0  0  0  0  0  0  0  0
   -7.5535   24.0845  -32.1061 H   0  0  0  0  0  0  0  0  0  0  0  0
   -6.9310   21.2930  -31.2150 H   0  0  0  0  0  0  0  0  0  0  0  0
   -7.5781   23.6138  -29.8232 H   0  0  0  0  0  0  0  0  0  0  0  0
   -6.6369   22.2552  -29.1768 H   0  0  0  0  0  0  0  0  0  0  0  0
   -5.8275   25.3675  -31.6095 H   0  0  0  0  0  0  0  0  0  0  0  0
   -2.2344   24.5727  -27.8456 H   0  0  0  0  0  0  0  0  0  0  0  0
   -1.5053   23.7170  -29.2466 H   0  0  0  0  0  0  0  0  0  0  0  0
   -1.6135   25.5100  -29.2466 H   0  0  0  0  0  0  0  0  0  0  0  0
   -4.2868   22.8931  -27.2390 H   0  0  0  0  0  0  0  0  0  0  0  0
   -5.0548   21.7428  -28.3851 H   0  0  0  0  0  0  0  0  0  0  0  0
   -3.2710   21.9543  -28.3851 H   0  0  0  0  0  0  0  0  0  0  0  0
  1  2  1  0
  2  3  1  0
  3  4  1  0
  4  5  1  0
  3  6  1  0
  6  7  1  0
  7  8  1  0
  8  9  1  0
  9 10  1  0
 10 11  1  0
 11 12  1  0
 12 13  1  0
 13 14  1  0
 14 15  1  0
 15 16  2  0
 16 17  1  0
 17 18  1  0
 17 19  1  0
 19 20  1  0
 19 14  2  0
  1 21  1  0
  1 22  1  0
  1 23  1  0
  2 24  1  0
  2 25  1  0
  4 26  1  0
  4 27  1  0
  5 28  1  0
  5 29  1  0
  5 30  1  0
  6 31  1  0
  6 32  1  0
  7 33  1  0
  7 34  1  0
  9 35  1  0
  9 36  1  0
 10 37  1  0
 10 38  1  0
 11 39  1  0
 11 40  1  0
 12 41  1  0
 13 42  1  0
 13 43  1  0
 15 44  1  0
 18 45  1  0
 18 46  1  0
 18 47  1  0
 20 48  1  0
 20 49  1  0
 20 50  1  0
M  END
>  <smiles>  (4) 
CCN(CC)CCOCCCNCc1cnn(C)c1C

>  <score_type>  (4) 
oracle

>  <origin>  (4) 
adg

>  <m_score__min__energy>  (4) 
-6.6600000000000001

>  <m_primary>  (4) 
energy

$$$$
4:0
     RDKit          2D

142144  0  0  0  0  0  0  0  0999 V2000
  -28.3721   43.9819    0.0000 C   0  0  0  0  0  0  0  0  0  0  0  0
  -26.9049   43.6700    0.0000 C   0  0  0  0  0  0  0  0  0  0  0  0
  -25.4376   43.3581    0.0000 N   0  0  0  0  0  0  0  0  0  0  0  0
  -24.9741   41.9315    0.0000 C   0  0  0  0  0  0  0  0  0  0  0  0
  -24.4339   44.4729    0.0000 C   0  0  0  0  0  0  0  0  0  0  0  0
  -23.4302   45.5876    0.0000 C   0  0  0  0  0  0  0  0  0  0  0  0
  -22.4265   46.7023    0.0000 O   0  0  0  0  0  0  0  0  0  0  0  0
  -20.9593   46.3904    0.0000 C   0  0  0  0  0  0  0  0  0  0  0  0
  -19.4921   46.0785    0.0000 C   0  0  0  0  0  0  0  0  0  0  0  0
  -18.0249   45.7667    0.0000 N   0  0  0  0  0  0  0  0  0  0  0  0
  -16.5577   45.4548    0.0000 C   0  0  0  0  0  0  0  0  0  0  0  0
  -17.7130   47.2339    0.0000 C   0  0  0  0  0  0  0  0  0  0  0  0
  -18.3368   44.2995    0.0000 C   0  0  0  0  0  0  0  0  0  0  0  0
  -18.6486   42.8322    0.0000 C   0  0  0  0  0  0  0  0  0  0  0  0
  -18.9605   41.3650    0.0000 O   0  0  0  0  0  0  0  0  0  0  0  0
  -17.8458   40.3613    0.0000 C   0  0  0  0  0  0  0  0  0  0  0  0
  -16.7311   39.3576    0.0000 C   0  0  0  0  0  0  0  0  0  0  0  0
  -15.6163   38.3539    0.0000 O   0  0  0  0  0  0  0  0  0  0  0  0
  -15.9282   36.8867    0.0000 C   0  0  0  0  0  0  0  0  0  0  0  0
  -16.2401   35.4195    0.0000 C   0  0  0  0  0  0  0  0  0  0  0  0
  -16.5519   33.9523    0.0000 O   0  0  0  0  0  0  0  0  0  0  0  0
  -15.4372   32.9486    0.0000 C   0  0  0  0  0  0  0  0  0  0  0  0
  -14.3225   31.9449    0.0000 C   0  0  0  0  0  0  0  0  0  0  0  0
  -13.2078   30.9412    0.0000 O   0  0  0  0  0  0  0  0  0  0  0  0
  -13.5197   29.4740    0.0000 C   0  0  0  0  0  0  0  0  0  0  0  0
  -13.8315   28.0067    0.0000 C   0  0  0  0  0  0  0  0  0  0  0  0
  -14.1434   26.5395    0.0000 O   0  0  0  0  0  0  0  0  0  0  0  0
  -13.0287   25.5358    0.0000 C   0  0  0  0  0  0  0  0  0  0  0  0
  -11.9140   24.5321    0.0000 C   0  0  0  0  0  0  0  0  0  0  0  0
  -10.7992   23.5284    0.0000 O   0  0  0  0  0  0  0  0  0  0  0  0
  -11.1111   22.0612    0.0000 C   0  0  0  0  0  0  0  0  0  0  0  0
  -11.4230   20.5940    0.0000 C   0  0  0  0  0  0  0  0  0  0  0  0
  -11.7348   19.1268    0.0000 O   0  0  0  0  0  0  0  0  0  0  0  0
  -10.6201   18.1231    0.0000 C   0  0  0  0  0  0  0  0  0  0  0  0
   -9.5054   17.1194    0.0000 C   0  0  0  0  0  0  0  0  0  0  0  0
   -8.3907   16.1157    0.0000 O   0  0  0  0  0  0  0  0  0  0  0  0
   -8.7026   14.6485    0.0000 C   0  0  0  0  0  0  0  0  0  0  0  0
   -9.0144   13.1812    0.0000 C   0  0  0  0  0  0  0  0  0  0  0  0
   -9.3263   11.7140    0.0000 O   0  0  0  0  0  0  0  0  0  0  0  0
   -8.2116   10.7103    0.0000 C   0  0  0  0  0  0  0  0  0  0  0  0
   -7.0969    9.7066    0.0000 C   0  0  0  0  0  0  0  0  0  0  0  0
   -5.9821    8.7029    0.0000 O   0  0  0  0  0  0  0  0  0  0  0  0
   -6.2940    7.2357    0.0000 C   0  0  0  0  0  0  0  0  0  0  0  0
   -6.6059    5.7685    0.0000 C   0  0  0  0  0  0  0  0  0  0  0  0
   -6.9177    4.3013    0.0000 O   0  0  0  0  0  0  0  0  0  0  0  0
   -5.8030    3.2976    0.0000 C   0  0  0  0  0  0  0  0  0  0  0  0
   -4.6883    2.2939    0.0000 C   0  0  0  0  0  0  0  0  0  0  0  0
   -3.5736    1.2902    0.0000 N   0  0  0  0  0  0  0  0  0  0  0  0
   -2.1470    1.7537    0.0000 C   0  0  0  0  0  0  0  0  0  0  0  0
   -1.8351    3.2209    0.0000 C   0  0  0  0  0  0  0  0  0  0  0  0
   -2.9499    4.2246    0.0000 C   0  0  0  0  0  0  0  0  0  0  0  0
   -2.6380    5.6918    0.0000 C   0  0  0  0  0  0  0  0  0  0  0  0
   -1.2114    6.1554    0.0000 C   0  0  0  0  0  0  0  0  0  0  0  0
   -0.0967    5.1517    0.0000 C   0  0  0  0  0  0  0  0  0  0  0  0
   -0.4086    3.6844    0.0000 C   0  0  0  0  0  0  0  0  0  0  0  0
    0.7062    2.6807    0.0000 N   0  0  0  0  0  0  0  0  0  0  0  0
    2.1328    3.1443    0.0000 C   0  0  0  0  0  0  0  0  0  0  0  0
    0.3943    1.2135    0.0000 C   0  0  0  0  0  0  0  0  0  0  0  0
    1.2760    0.0000    0.0000 C   0  0  0  0  0  0  0  0  0  0  0  0
    0.3943   -1.2135    0.0000 C   0  0  0  0  0  0  0  0  0  0  0  0
   -1.0323   -0.7500    0.0000 S   0  0  0  0  0  0  0  0  0  0  0  0
   -1.0323    0.7500    0.0000 C   0  0  0  0  0  0  0  0  0  0  0  0
  -29.8393   44.2937    0.0000 H   0  0  0  0  0  0  0  0  0  0  0  0
  -28.0602   45.4491    0.0000 H   0  0  0  0  0  0  0  0  0  0  0  0
  -28.6839   42.5146    0.0000 H   0  0  0  0  0  0  0  0  0  0  0  0
  -26.5930   45.1372    0.0000 H   0  0  0  0  0  0  0  0  0  0  0  0
  -27.2167   42.2028    0.0000 H   0  0  0  0  0  0  0  0  0  0  0  0
  -24.5106   40.5050    0.0000 H   0  0  0  0  0  0  0  0  0  0  0  0
  -26.4007   41.4680    0.0000 H   0  0  0  0  0  0  0  0  0  0  0  0
  -23.5475   42.3951    0.0000 H   0  0  0  0  0  0  0  0  0  0  0  0
  -23.3192   43.4692    0.0000 H   0  0  0  0  0  0  0  0  0  0  0  0
  -25.5487   45.4765    0.0000 H   0  0  0  0  0  0  0  0  0  0  0  0
  -22.3155   44.5839    0.0000 H   0  0  0  0  0  0  0  0  0  0  0  0
  -24.5450   46.5913    0.0000 H   0  0  0  0  0  0  0  0  0  0  0  0
  -20.6475   47.8576    0.0000 H   0  0  0  0  0  0  0  0  0  0  0  0
  -21.2712   44.9232    0.0000 H   0  0  0  0  0  0  0  0  0  0  0  0
  -19.9805   44.6603    0.0000 H   0  0  0  0  0  0  0  0  0  0  0  0
  -19.4149   46.9609    0.0000 H   0  0  0  0  0  0  0  0  0  0  0  0
  -15.0904   45.1429    0.0000 H   0  0  0  0  0  0  0  0  0  0  0  0
  -16.2693   46.2923    0.0000 H   0  0  0  0  0  0  0  0  0  0  0  0
  -16.6348   44.5724    0.0000 H   0  0  0  0  0  0  0  0  0  0  0  0
  -17.4011   48.7011    0.0000 H   0  0  0  0  0  0  0  0  0  0  0  0
  -16.8306   47.1567    0.0000 H   0  0  0  0  0  0  0  0  0  0  0  0
  -18.5505   47.5223    0.0000 H   0  0  0  0  0  0  0  0  0  0  0  0
  -17.4993   44.0111    0.0000 H   0  0  0  0  0  0  0  0  0  0  0  0
  -19.8310   44.4302    0.0000 H   0  0  0  0  0  0  0  0  0  0  0  0
  -17.1814   42.5204    0.0000 H   0  0  0  0  0  0  0  0  0  0  0  0
  -20.1158   43.1441    0.0000 H   0  0  0  0  0  0  0  0  0  0  0  0
  -18.8495   39.2466    0.0000 H   0  0  0  0  0  0  0  0  0  0  0  0
  -16.8421   41.4760    0.0000 H   0  0  0  0  0  0  0  0  0  0  0  0
  -17.7347   38.2429    0.0000 H   0  0  0  0  0  0  0  0  0  0  0  0
  -15.7274   40.4723    0.0000 H   0  0  0  0  0  0  0  0  0  0  0  0
  -14.4610   36.5748    0.0000 H   0  0  0  0  0  0  0  0  0  0  0  0
  -17.3954   37.1986    0.0000 H   0  0  0  0  0  0  0  0  0  0  0  0
  -14.7728   35.1076    0.0000 H   0  0  0  0  0  0  0  0  0  0  0  0
  -17.7073   35.7314    0.0000 H   0  0  0  0  0  0  0  0  0  0  0  0
  -16.4409   31.8339    0.0000 H   0  0  0  0  0  0  0  0  0  0  0  0
  -14.4335   34.0633    0.0000 H   0  0  0  0  0  0  0  0  0  0  0  0
  -15.3262   30.8302    0.0000 H   0  0  0  0  0  0  0  0  0  0  0  0
  -13.3188   33.0596    0.0000 H   0  0  0  0  0  0  0  0  0  0  0  0
  -12.0524   29.1621    0.0000 H   0  0  0  0  0  0  0  0  0  0  0  0
  -14.9869   29.7858    0.0000 H   0  0  0  0  0  0  0  0  0  0  0  0
  -12.3643   27.6949    0.0000 H   0  0  0  0  0  0  0  0  0  0  0  0
  -15.2987   28.3186    0.0000 H   0  0  0  0  0  0  0  0  0  0  0  0
  -14.0324   24.4211    0.0000 H   0  0  0  0  0  0  0  0  0  0  0  0
  -12.0250   26.6505    0.0000 H   0  0  0  0  0  0  0  0  0  0  0  0
  -12.9176   23.4174    0.0000 H   0  0  0  0  0  0  0  0  0  0  0  0
  -10.9103   25.6468    0.0000 H   0  0  0  0  0  0  0  0  0  0  0  0
   -9.6439   21.7493    0.0000 H   0  0  0  0  0  0  0  0  0  0  0  0
  -12.5783   22.3731    0.0000 H   0  0  0  0  0  0  0  0  0  0  0  0
   -9.9557   20.2821    0.0000 H   0  0  0  0  0  0  0  0  0  0  0  0
  -12.8902   20.9059    0.0000 H   0  0  0  0  0  0  0  0  0  0  0  0
  -11.6238   17.0083    0.0000 H   0  0  0  0  0  0  0  0  0  0  0  0
   -9.6164   19.2378    0.0000 H   0  0  0  0  0  0  0  0  0  0  0  0
  -10.5091   16.0047    0.0000 H   0  0  0  0  0  0  0  0  0  0  0  0
   -8.5017   18.2341    0.0000 H   0  0  0  0  0  0  0  0  0  0  0  0
   -7.2353   14.3366    0.0000 H   0  0  0  0  0  0  0  0  0  0  0  0
  -10.1698   14.9603    0.0000 H   0  0  0  0  0  0  0  0  0  0  0  0
   -7.5472   12.8694    0.0000 H   0  0  0  0  0  0  0  0  0  0  0  0
  -10.4816   13.4931    0.0000 H   0  0  0  0  0  0  0  0  0  0  0  0
   -9.2153    9.5956    0.0000 H   0  0  0  0  0  0  0  0  0  0  0  0
   -7.2079   11.8250    0.0000 H   0  0  0  0  0  0  0  0  0  0  0  0
   -8.1006    8.5919    0.0000 H   0  0  0  0  0  0  0  0  0  0  0  0
   -6.0932   10.8213    0.0000 H   0  0  0  0  0  0  0  0  0  0  0  0
   -4.8268    6.9238    0.0000 H   0  0  0  0  0  0  0  0  0  0  0  0
   -7.7612    7.5476    0.0000 H   0  0  0  0  0  0  0  0  0  0  0  0
   -5.1387    5.4566    0.0000 H   0  0  0  0  0  0  0  0  0  0  0  0
   -8.0731    6.0803    0.0000 H   0  0  0  0  0  0  0  0  0  0  0  0
   -6.8067    2.1828    0.0000 H   0  0  0  0  0  0  0  0  0  0  0  0
   -4.9427    4.5263    0.0000 H   0  0  0  0  0  0  0  0  0  0  0  0
   -3.8280    3.5226    0.0000 H   0  0  0  0  0  0  0  0  0  0  0  0
   -5.6920    1.1791    0.0000 H   0  0  0  0  0  0  0  0  0  0  0  0
   -3.8855   -0.1771    0.0000 H   0  0  0  0  0  0  0  0  0  0  0  0
   -4.4462    4.1201    0.0000 H   0  0  0  0  0  0  0  0  0  0  0  0
   -3.7527    6.6955    0.0000 H   0  0  0  0  0  0  0  0  0  0  0  0
   -0.8995    7.6226    0.0000 H   0  0  0  0  0  0  0  0  0  0  0  0
    1.3299    5.6152    0.0000 H   0  0  0  0  0  0  0  0  0  0  0  0
    3.5593    3.6078    0.0000 H   0  0  0  0  0  0  0  0  0  0  0  0
    2.5963    1.7177    0.0000 H   0  0  0  0  0  0  0  0  0  0  0  0
    1.6692    4.5709    0.0000 H   0  0  0  0  0  0  0  0  0  0  0  0
    2.7760    0.0000    0.0000 H   0  0  0  0  0  0  0  0  0  0  0  0
    0.8578   -2.6401    0.0000 H   0  0  0  0  0  0  0  0  0  0  0  0
  1  2  1  0
  2  3  1  0
  3  4  1  0
  3  5  1  0
  5  6  1  0
  6  7  1  0
  7  8  1  0
  8  9  1  0
  9 10  1  0
 10 11  1  0
 10 12  1  0
 10 13  1  0
 13 14  1  0
 14 15  1  0
 15 16  1  0
 16 17  1  0
 17 18  1  0
 18 19  1  0
 19 20  1  0
 20 21  1  0
 21 22  1  0
 22 23  1  0
 23 24  1  0
 24 25  1  0
 25 26  1  0
 26 27  1  0
 27 28  1  0
 28 29  1  0
 29 30  1  0
 30 31  1  0
 31 32  1  0
 32 33  1  0
 33 34  1  0
 34 35  1  0
 35 36  1  0
 36 37  1  0
 37 38  1  0
 38 39  1  0
 39 40  1  0
 40 41  1  0
 41 42  1  0
 42 43  1  0
 43 44  1  0
 44 45  1  0
 45 46  1  0
 46 47  1  0
 47 48  1  0
 48 49  1  0
 49 50  2  0
 50 51  1  0
 51 52  2  0
 52 53  1  0
 53 54  2  0
 54 55  1  0
 55 56  2  0
 56 57  1  0
 56 58  1  0
 58 59  1  0
 59 60  2  0
 60 61  1  0
 61 62  1  0
 62 49  1  0
 55 50  1  0
 62 58  2  0
  1 63  1  0
  1 64  1  0
  1 65  1  0
  2 66  1  0
  2 67  1  0
  4 68  1  0
  4 69  1  0
  4 70  1  0
  5 71  1  0
  5 72  1  0
  6 73  1  0
  6 74  1  0
  8 75  1  0
  8 76  1  0
  9 77  1  0
  9 78  1  0
 11 79  1  0
 11 80  1  0
 11 81  1  0
 12 82  1  0
 12 83  1  0
 12 84  1  0
 13 85  1  0
 13 86  1  0
 14 87  1  0
 14 88  1  0
 16 89  1  0
 16 90  1  0
 17 91  1  0
 17 92  1  0
 19 93  1  0
 19 94  1  0
 20 95  1  0
 20 96  1  0
 22 97  1  0
 22 98  1  0
 23 99  1  0
 23100  1  0
 25101  1  0
 25102  1  0
 26103  1  0
 26104  1  0
 28105  1  0
 28106  1  0
 29107  1  0
 29108  1  0
 31109  1  0
 31110  1  0
 32111  1  0
 32112  1  0
 34113  1  0
 34114  1  0
 35115  1  0
 35116  1  0
 37117  1  0
 37118  1  0
 38119  1  0
 38120  1  0
 40121  1  0
 40122  1  0
 41123  1  0
 41124  1  0
 43125  1  0
 43126  1  0
 44127  1  0
 44128  1  0
 46129  1  0
 46130  1  0
 47131  1  0
 47132  1  0
 48133  1  0
 51134  1  0
 52135  1  0
 53136  1  0
 54137  1  0
 57138  1  0
 57139  1  0
 57140  1  0
 59141  1  0
 60142  1  0
M  CHG  2  10   1  56   1
M  END
>  <smiles>  (5) 
CCN(C)CCOCC[N+](C)(C)CCOCCOCCOCCOCCOCCOCCOCCOCCOCCOCCOCCNc1c2ccccc2[n+](C)c2ccsc12

>  <m_score__min__energy>  (5) 
nan

>  <m_primary>  (5) 
energy

$$$$
5:0
     RDKit          3D

 32 34  0  0  0  0  0  0  0  0999 V2000
   -6.1120   26.4080  -29.5540 O   0  0  0  0  0  0  0  0  0  0  0  0
   -6.1100   25.3040  -30.1580 C   0  0  0  0  0  0  0  0  0  0  0  0
   -7.2590   24.5400  -30.1910 C   0  0  0  0  0  0  0  0  0  0  0  0
   -7.2500   23.3340  -30.8540 C   0  0  0  0  0  0  0  0  0  0  0  0
   -6.1760   22.8410  -31.4850 N   0  0  0  0  0  0  0  0  0  0  0  0
   -6.2680   21.5840  -32.1420 C   0  0  0  0  0  0  0  0  0  0  0  0
   -5.1710   20.8910  -32.6070 C   0  0  0  0  0  0  0  0  0  0  0  0
   -5.3130   19.6680  -33.2410 C   0  0  0  0  0  0  0  0  0  0  0  0
   -4.1760   18.9090  -33.7450 C   0  0  0  0  0  0  0  0  0  0  0  0
   -4.4160   17.7270  -34.4310 C   0  0  0  0  0  0  0  0  0  0  0  0
   -3.3960   16.9490  -34.9380 C   0  0  0  0  0  0  0  0  0  0  0  0
   -2.0850   17.3420  -34.7690 C   0  0  0  0  0  0  0  0  0  0  0  0
   -0.7940   16.3420  -35.4210 Cl  0  0  0  0  0  0  0  0  0  0  0  0
   -1.8310   18.5170  -34.0890 C   0  0  0  0  0  0  0  0  0  0  0  0
   -2.8650   19.3010  -33.5760 C   0  0  0  0  0  0  0  0  0  0  0  0
   -6.5720   19.1240  -33.4180 C   0  0  0  0  0  0  0  0  0  0  0  0
   -7.6560   19.8330  -32.9460 C   0  0  0  0  0  0  0  0  0  0  0  0
   -7.4710   21.0170  -32.3360 N   0  0  0  0  0  0  0  0  0  0  0  0
   -5.0550   23.5740  -31.4610 C   0  0  0  0  0  0  0  0  0  0  0  0
   -4.9960   24.8000  -30.8090 C   0  0  0  0  0  0  0  0  0  0  0  0
   -3.8450   25.5720  -30.7740 O   0  0  0  0  0  0  0  0  0  0  0  0
   -8.1738   24.8919  -29.6918 H   0  0  0  0  0  0  0  0  0  0  0  0
   -8.1768   22.7416  -30.8665 H   0  0  0  0  0  0  0  0  0  0  0  0
   -4.1657   21.3166  -32.4722 H   0  0  0  0  0  0  0  0  0  0  0  0
   -5.4559   17.3989  -34.5756 H   0  0  0  0  0  0  0  0  0  0  0  0
   -3.6277   16.0177  -35.4756 H   0  0  0  0  0  0  0  0  0  0  0  0
   -0.7896   18.8422  -33.9486 H   0  0  0  0  0  0  0  0  0  0  0  0
   -2.6342   20.2316  -33.0369 H   0  0  0  0  0  0  0  0  0  0  0  0
   -6.7046   18.1545  -33.9204 H   0  0  0  0  0  0  0  0  0  0  0  0
   -8.6722   19.4302  -33.0684 H   0  0  0  0  0  0  0  0  0  0  0  0
   -4.1570   23.1954  -31.9711 H   0  0  0  0  0  0  0  0  0  0  0  0
   -3.8670   26.4550  -30.2970 H   0  0  0  0  0  0  0  0  0  0  0  0
  1  2  2  0
  2  3  1  0
  3  4  2  0
  4  5  1  0
  5  6  1  0
  6  7  2  0
  7  8  1  0
  8  9  1  0
  9 10  2  0
 10 11  1  0
 11 12  2  0
 12 13  1  0
 12 14  1  0
 14 15  2  0
  8 16  2  0
 16 17  1  0
 17 18  2  0
  5 19  1  0
 19 20  2  0
 20 21  1  0
 20  2  1  0
 18  6  1  0
 15  9  1  0
  3 22  1  0
  4 23  1  0
  7 24  1  0
 10 25  1  0
 11 26  1  0
 14 27  1  0
 15 28  1  0
 16 29  1  0
 17 30  1  0
 19 31  1  0
 21 32  1  0
M  END
>  <smiles>  (6) 
O=c1ccn(-c2cc(-c3ccc(Cl)cc3)ccn2)cc1O

>  <score_type>  (6) 
oracle

>  <origin>  (6) 
adg

>  <m_score__min__energy>  (6) 
-8.3699999999999992

>  <m_primary>  (6) 
energy

$$$$
6:0
     RDKit          3D

 25 26  0  0  1  0  0  0  0  0999 V2000
   -6.6690   18.1740  -31.7170 C   0  0  0  0  0  0  0  0  0  0  0  0
   -7.9990   18.4610  -32.3630 C   0  0  0  0  0  0  0  0  0  0  0  0
   -8.7770   19.9190  -31.6260 S   0  0  0  0  0  0  0  0  0  0  0  0
   -7.4830   21.2430  -31.9580 C   0  0  0  0  0  0  0  0  0  0  0  0
   -6.5730   21.4590  -32.7130 N   0  0  0  0  0  0  0  0  0  0  0  0
   -5.8170   22.5060  -32.7080 N   0  0  0  0  0  0  0  0  0  0  0  0
   -6.0590   23.4260  -31.7920 C   0  0  0  0  0  0  0  0  0  0  0  0
   -5.5230   24.5540  -31.5070 N   0  0  0  0  0  0  0  0  0  0  0  0
   -4.6650   24.6390  -30.3780 C   0  0  0  0  0  0  0  0  0  0  0  0
   -3.5860   25.2790  -30.4680 O   0  0  0  0  0  0  0  0  0  0  0  0
   -5.0200   23.9800  -29.0800 C   0  0  0  0  0  0  0  0  0  0  0  0
   -4.0100   22.9200  -28.6950 C   0  0  0  0  0  0  0  0  0  0  0  0
   -4.2150   24.1760  -27.8710 C   0  0  0  0  0  0  0  0  0  0  0  0
   -7.4600   22.7620  -30.8720 S   0  0  0  0  0  0  0  0  0  0  0  0
   -6.7800   18.1980  -30.6229 H   0  0  0  0  0  0  0  0  0  0  0  0
   -6.3173   17.1793  -32.0282 H   0  0  0  0  0  0  0  0  0  0  0  0
   -5.9384   18.9352  -32.0282 H   0  0  0  0  0  0  0  0  0  0  0  0
   -7.8459   18.6395  -33.4376 H   0  0  0  0  0  0  0  0  0  0  0  0
   -8.6588   17.5949  -32.2063 H   0  0  0  0  0  0  0  0  0  0  0  0
   -5.0220   22.6260  -33.4180 H   0  0  0  0  0  0  0  0  0  0  0  0
   -6.1044   24.0745  -29.2389 H   0  0  0  0  0  0  0  0  0  0  0  0
   -4.3460   21.9443  -28.3141 H   0  0  0  0  0  0  0  0  0  0  0  0
   -3.1574   22.4262  -29.1841 H   0  0  0  0  0  0  0  0  0  0  0  0
   -4.6896   24.1095  -26.8809 H   0  0  0  0  0  0  0  0  0  0  0  0
   -3.5541   24.9755  -27.5049 H   0  0  0  0  0  0  0  0  0  0  0  0
  1  2  1  0
  2  3  1  0
  3  4  1  0
  4  5  2  0
  5  6  1  0
  6  7  1  0
  7  8  2  0
  8  9  1  0
  9 10  2  0
  9 11  1  0
 11 12  1  0
 12 13  1  0
  7 14  1  0
 14  4  1  0
 13 11  1  0
  1 15  1  0
  1 16  1  0
  1 17  1  0
  2 18  1  0
  2 19  1  0
  6 20  1  0
 11 21  1  0
 12 22  1  0
 12 23  1  0
 13 24  1  0
 13 25  1  0
M  END
>  <smiles>  (7) 
CCSc1n[nH]c(=NC(=O)C2CC2)s1

>  <score_type>  (7) 
oracle

>  <origin>  (7) 
adg

>  <m_score__min__energy>  (7) 
-6.6399999999999997

>  <m_primary>  (7) 
energy

$$$$
7:0
     RDKit          3D

 36 38  0  0  0  0  0  0  0  0999 V2000
   -4.3830   16.9160  -34.9250 C   0  0  0  0  0  0  0  0  0  0  0  0
   -5.5170   16.2290  -34.2260 C   0  0  0  0  0  0  0  0  0  0  0  0
   -6.4290   17.1720  -33.5740 N   0  0  0  0  0  0  0  0  0  0  0  0
   -6.0720   17.0930  -32.1620 C   0  0  0  0  0  0  0  0  0  0  0  0
   -6.1330   18.4830  -34.1180 C   0  0  0  0  0  0  0  0  0  0  0  0
   -6.6560   19.5720  -33.2540 C   0  0  0  0  0  0  0  0  0  0  0  0
   -7.9760   19.5720  -32.7960 C   0  0  0  0  0  0  0  0  0  0  0  0
   -8.4180   20.5950  -32.0010 C   0  0  0  0  0  0  0  0  0  0  0  0
   -7.6280   21.6530  -31.6120 C   0  0  0  0  0  0  0  0  0  0  0  0
   -6.3140   21.6510  -32.0690 C   0  0  0  0  0  0  0  0  0  0  0  0
   -5.8580   20.6220  -32.8720 C   0  0  0  0  0  0  0  0  0  0  0  0
   -5.6420   22.8380  -31.5580 C   0  0  0  0  0  0  0  0  0  0  0  0
   -4.4520   23.4630  -31.5790 N   0  0  0  0  0  0  0  0  0  0  0  0
   -4.6030   24.5520  -30.8440 N   0  0  0  0  0  0  0  0  0  0  0  0
   -5.8570   24.6040  -30.3760 C   0  0  0  0  0  0  0  0  0  0  0  0
   -6.3490   25.7130  -29.5100 C   0  0  0  0  0  0  0  0  0  0  0  0
   -6.5330   23.5220  -30.8200 N   0  0  0  0  0  0  0  0  0  0  0  0
   -7.8090   22.8710  -30.7850 C   0  0  0  0  0  0  0  0  0  0  0  0
   -3.6919   17.3347  -34.1786 H   0  0  0  0  0  0  0  0  0  0  0  0
   -3.8470   16.1906  -35.5547 H   0  0  0  0  0  0  0  0  0  0  0  0
   -4.7778   17.7269  -35.5547 H   0  0  0  0  0  0  0  0  0  0  0  0
   -6.0840   15.6438  -34.9650 H   0  0  0  0  0  0  0  0  0  0  0  0
   -5.0867   15.5859  -33.4441 H   0  0  0  0  0  0  0  0  0  0  0  0
   -6.9625   17.2901  -31.5471 H   0  0  0  0  0  0  0  0  0  0  0  0
   -5.6862   16.0877  -31.9370 H   0  0  0  0  0  0  0  0  0  0  0  0
   -5.2981   17.8416  -31.9370 H   0  0  0  0  0  0  0  0  0  0  0  0
   -5.0422   18.5929  -34.2076 H   0  0  0  0  0  0  0  0  0  0  0  0
   -6.6215   18.5628  -35.1003 H   0  0  0  0  0  0  0  0  0  0  0  0
   -8.6569   18.7537  -33.0730 H   0  0  0  0  0  0  0  0  0  0  0  0
   -9.4616   20.5702  -31.6541 H   0  0  0  0  0  0  0  0  0  0  0  0
   -4.8143   20.6455  -33.2186 H   0  0  0  0  0  0  0  0  0  0  0  0
   -6.2257   25.4350  -28.4529 H   0  0  0  0  0  0  0  0  0  0  0  0
   -5.7712   26.6254  -29.7190 H   0  0  0  0  0  0  0  0  0  0  0  0
   -7.4132   25.8970  -29.7190 H   0  0  0  0  0  0  0  0  0  0  0  0
   -8.0807   22.6034  -29.7532 H   0  0  0  0  0  0  0  0  0  0  0  0
   -8.6174   23.5152  -31.1610 H   0  0  0  0  0  0  0  0  0  0  0  0
  1  2  1  0
  2  3  1  0
  3  4  1  0
  3  5  1  0
  5  6  1  0
  6  7  2  0
  7  8  1  0
  8  9  2  0
  9 10  1  0
 10 11  2  0
 10 12  1  0
 12 13  2  0
 13 14  1  0
 14 15  2  0
 15 16  1  0
 15 17  1  0
 17 18  1  0
 11  6  1  0
 17 12  1  0
 18  9  1  0
  1 19  1  0
  1 20  1  0
  1 21  1  0
  2 22  1  0
  2 23  1  0
  4 24  1  0
  4 25  1  0
  4 26  1  0
  5 27  1  0
  5 28  1  0
  7 29  1  0
  8 30  1  0
 11 31  1  0
 16 32  1  0
 16 33  1  0
 16 34  1  0
 18 35  1  0
 18 36  1  0
M  END
>  <smiles>  (8) 
CCN(C)Cc1ccc2c(c1)-c1nnc(C)n1C2

>  <score_type>  (8) 
oracle

>  <origin>  (8) 
adg

>  <m_score__min__energy>  (8) 
-7.96

>  <m_primary>  (8) 
energy

$$$$
8:0
     RDKit          3D

 43 45  0  0  0  0  0  0  0  0999 V2000
   -6.1480   25.3160  -29.5820 C   0  0  0  0  0  0  0  0  0  0  0  0
   -5.2860   25.3460  -30.8230 C   0  0  0  0  0  0  0  0  0  0  0  0
   -3.8710   25.2970  -30.5050 N   0  0  0  0  0  0  0  0  0  0  0  0
   -3.5500   24.3750  -29.4570 C   0  0  0  0  0  0  0  0  0  0  0  0
   -3.1820   23.0040  -29.9720 C   0  0  0  0  0  0  0  0  0  0  0  0
   -3.2740   22.9070  -31.4080 N   0  0  0  0  0  0  0  0  0  0  0  0
   -3.5330   21.7160  -32.1190 C   0  0  0  0  0  0  0  0  0  0  0  0
   -2.4910   20.9980  -32.6540 C   0  0  0  0  0  0  0  0  0  0  0  0
   -1.0670   21.4410  -32.5120 C   0  0  0  0  0  0  0  0  0  0  0  0
   -2.7280   19.8220  -33.3560 C   0  0  0  0  0  0  0  0  0  0  0  0
   -4.0270   19.3360  -33.5370 C   0  0  0  0  0  0  0  0  0  0  0  0
   -5.0640   20.0750  -32.9880 C   0  0  0  0  0  0  0  0  0  0  0  0
   -6.3400   19.5920  -33.1680 C   0  0  0  0  0  0  0  0  0  0  0  0
   -7.3880   20.3330  -32.6160 C   0  0  0  0  0  0  0  0  0  0  0  0
   -8.6600   19.8190  -32.8140 C   0  0  0  0  0  0  0  0  0  0  0  0
   -9.7580   20.5040  -32.2920 C   0  0  0  0  0  0  0  0  0  0  0  0
   -9.5090   21.6710  -31.5960 C   0  0  0  0  0  0  0  0  0  0  0  0
   -8.2290   22.1370  -31.4280 C   0  0  0  0  0  0  0  0  0  0  0  0
   -7.1610   21.4710  -31.9360 N   0  0  0  0  0  0  0  0  0  0  0  0
   -5.9050   21.9650  -31.7480 C   0  0  0  0  0  0  0  0  0  0  0  0
   -4.8270   21.2570  -32.2830 C   0  0  0  0  0  0  0  0  0  0  0  0
   -5.5060   25.3383  -28.6890 H   0  0  0  0  0  0  0  0  0  0  0  0
   -6.8139   26.1915  -29.5769 H   0  0  0  0  0  0  0  0  0  0  0  0
   -6.7514   24.3963  -29.5769 H   0  0  0  0  0  0  0  0  0  0  0  0
   -5.5387   24.4794  -31.4516 H   0  0  0  0  0  0  0  0  0  0  0  0
   -5.4827   26.2914  -31.3498 H   0  0  0  0  0  0  0  0  0  0  0  0
   -3.3740   25.0840  -31.4070 H   0  0  0  0  0  0  0  0  0  0  0  0
   -2.6993   24.7753  -28.8859 H   0  0  0  0  0  0  0  0  0  0  0  0
   -4.4472   24.2622  -28.8306 H   0  0  0  0  0  0  0  0  0  0  0  0
   -2.1485   22.7799  -29.6694 H   0  0  0  0  0  0  0  0  0  0  0  0
   -3.8956   22.2849  -29.5435 H   0  0  0  0  0  0  0  0  0  0  0  0
   -3.1360   23.7900  -31.9670 H   0  0  0  0  0  0  0  0  0  0  0  0
   -0.8123   21.5202  -31.4448 H   0  0  0  0  0  0  0  0  0  0  0  0
   -0.4047   20.7064  -32.9935 H   0  0  0  0  0  0  0  0  0  0  0  0
   -0.9383   22.4216  -32.9935 H   0  0  0  0  0  0  0  0  0  0  0  0
   -1.8788   19.2636  -33.7767 H   0  0  0  0  0  0  0  0  0  0  0  0
   -4.2181   18.4057  -34.0921 H   0  0  0  0  0  0  0  0  0  0  0  0
   -6.5271   18.6611  -33.7234 H   0  0  0  0  0  0  0  0  0  0  0  0
   -8.8020   18.8836  -33.3751 H   0  0  0  0  0  0  0  0  0  0  0  0
  -10.7829   20.1289  -32.4295 H   0  0  0  0  0  0  0  0  0  0  0  0
  -10.3507   22.2362  -31.1693 H   0  0  0  0  0  0  0  0  0  0  0  0
   -8.0651   23.0704  -30.8696 H   0  0  0  0  0  0  0  0  0  0  0  0
   -5.7444   22.8984  -31.1886 H   0  0  0  0  0  0  0  0  0  0  0  0
  1  2  1  0
  2  3  1  0
  3  4  1  0
  4  5  1  0
  5  6  1  0
  6  7  1  0
  7  8  2  0
  8  9  1  0
  8 10  1  0
 10 11  2  0
 11 12  1  0
 12 13  2  0
 13 14  1  0
 14 15  2  0
 15 16  1  0
 16 17  2  0
 17 18  1  0
 18 19  2  0
 19 20  1  0
 20 21  2  0
 21  7  1  0
 21 12  1  0
 19 14  1  0
  1 22  1  0
  1 23  1  0
  1 24  1  0
  2 25  1  0
  2 26  1  0
  3 27  1  0
  4 28  1  0
  4 29  1  0
  5 30  1  0
  5 31  1  0
  6 32  1  0
  9 33  1  0
  9 34  1  0
  9 35  1  0
 10 36  1  0
 11 37  1  0
 13 38  1  0
 15 39  1  0
 16 40  1  0
 17 41  1  0
 18 42  1  0
 20 43  1  0
M  CHG  1  19   1
M  END
>  <smiles>  (9) 
CCNCCNc1c(C)ccc2cc3cccc[n+]3cc12

>  <score_type>  (9) 
oracle

>  <origin>  (9) 
adg

>  <m_score__min__energy>  (9) 
-8.5399999999999991

>  <m_primary>  (9) 
energy

$$$$
9:0
     RDKit          3D

 50 51  0  0  0  0  0  0  0  0999 V2000
   -5.3920   16.3270  -31.9070 C   0  0  0  0  0  0  0  0  0  0  0  0
   -6.4310   17.3760  -31.5860 C   0  0  0  0  0  0  0  0  0  0  0  0
   -6.9170   17.9590  -32.7930 N   0  0  0  0  0  0  0  0  0  0  0  0
   -6.5110   17.3440  -34.0050 C   0  0  0  0  0  0  0  0  0  0  0  0
   -5.7480   18.2200  -34.9520 C   0  0  0  0  0  0  0  0  0  0  0  0
   -8.2700   18.4400  -32.7300 C   0  0  0  0  0  0  0  0  0  0  0  0
   -8.6240   19.1170  -31.4610 C   0  0  0  0  0  0  0  0  0  0  0  0
   -7.7830   20.1750  -31.2120 O   0  0  0  0  0  0  0  0  0  0  0  0
   -8.0880   21.2790  -31.9660 C   0  0  0  0  0  0  0  0  0  0  0  0
   -6.8120   21.6740  -32.7090 C   0  0  0  0  0  0  0  0  0  0  0  0
   -5.8850   20.5480  -32.5900 N   0  0  0  0  0  0  0  0  0  0  0  0
   -4.5050   20.8660  -32.5560 C   0  0  0  0  0  0  0  0  0  0  0  0
   -3.6500   21.7060  -31.8780 C   0  0  0  0  0  0  0  0  0  0  0  0
   -3.7840   22.6840  -30.8580 N   0  0  0  0  0  0  0  0  0  0  0  0
   -2.6670   23.1840  -30.0780 C   0  0  0  0  0  0  0  0  0  0  0  0
   -3.1820   24.4270  -29.3810 C   0  0  0  0  0  0  0  0  0  0  0  0
   -3.9200   25.2620  -30.1730 O   0  0  0  0  0  0  0  0  0  0  0  0
   -4.9760   24.7270  -30.8460 C   0  0  0  0  0  0  0  0  0  0  0  0
   -5.0910   23.2540  -30.5320 C   0  0  0  0  0  0  0  0  0  0  0  0
   -2.5900   21.2090  -32.6020 C   0  0  0  0  0  0  0  0  0  0  0  0
   -1.3570   21.4850  -32.5750 O   0  0  0  0  0  0  0  0  0  0  0  0
   -3.4390   20.3710  -33.2790 C   0  0  0  0  0  0  0  0  0  0  0  0
   -3.2500   19.5180  -34.1850 O   0  0  0  0  0  0  0  0  0  0  0  0
   -4.9848   15.9159  -30.9715 H   0  0  0  0  0  0  0  0  0  0  0  0
   -5.8555   15.5187  -32.4916 H   0  0  0  0  0  0  0  0  0  0  0  0
   -4.5793   16.7827  -32.4916 H   0  0  0  0  0  0  0  0  0  0  0  0
   -7.2663   16.9088  -31.0438 H   0  0  0  0  0  0  0  0  0  0  0  0
   -5.9760   18.1591  -30.9617 H   0  0  0  0  0  0  0  0  0  0  0  0
   -5.8736   16.4842  -33.7512 H   0  0  0  0  0  0  0  0  0  0  0  0
   -7.4387   17.0707  -34.5291 H   0  0  0  0  0  0  0  0  0  0  0  0
   -5.1310   18.9284  -34.3798 H   0  0  0  0  0  0  0  0  0  0  0  0
   -5.0993   17.5973  -35.5856 H   0  0  0  0  0  0  0  0  0  0  0  0
   -6.4538   18.7771  -35.5856 H   0  0  0  0  0  0  0  0  0  0  0  0
   -8.4192   19.1541  -33.5533 H   0  0  0  0  0  0  0  0  0  0  0  0
   -8.9197   17.5554  -32.8039 H   0  0  0  0  0  0  0  0  0  0  0  0
   -9.6574   19.4879  -31.5281 H   0  0  0  0  0  0  0  0  0  0  0  0
   -8.5253   18.3921  -30.6396 H   0  0  0  0  0  0  0  0  0  0  0  0
   -8.8852   21.0381  -32.6846 H   0  0  0  0  0  0  0  0  0  0  0  0
   -8.4459   22.1032  -31.3315 H   0  0  0  0  0  0  0  0  0  0  0  0
   -7.0360   21.8692  -33.7681 H   0  0  0  0  0  0  0  0  0  0  0  0
   -6.3759   22.5897  -32.2832 H   0  0  0  0  0  0  0  0  0  0  0  0
   -6.2240   19.5520  -32.5320 H   0  0  0  0  0  0  0  0  0  0  0  0
   -2.3478   22.4338  -29.3395 H   0  0  0  0  0  0  0  0  0  0  0  0
   -1.7943   23.4036  -30.7105 H   0  0  0  0  0  0  0  0  0  0  0  0
   -3.8119   24.1102  -28.5367 H   0  0  0  0  0  0  0  0  0  0  0  0
   -2.2952   24.9982  -29.0691 H   0  0  0  0  0  0  0  0  0  0  0  0
   -5.9006   25.2386  -30.5404 H   0  0  0  0  0  0  0  0  0  0  0  0
   -4.8202   24.8563  -31.9272 H   0  0  0  0  0  0  0  0  0  0  0  0
   -5.3212   23.1044  -29.4668 H   0  0  0  0  0  0  0  0  0  0  0  0
   -5.8999   22.7758  -31.1039 H   0  0  0  0  0  0  0  0  0  0  0  0
  1  2  1  0
  2  3  1  0
  3  4  1  0
  4  5  1  0
  3  6  1  0
  6  7  1  0
  7  8  1  0
  8  9  1  0
  9 10  1  0
 10 11  1  0
 11 12  1  0
 12 13  2  0
 13 14  1  0
 14 15  1  0
 15 16  1  0
 16 17  1  0
 17 18  1  0
 18 19  1  0
 13 20  1  0
 20 21  2  0
 20 22  1  0
 22 23  2  0
 22 12  1  0
 19 14  1  0
  1 24  1  0
  1 25  1  0
  1 26  1  0
  2 27  1  0
  2 28  1  0
  4 29  1  0
  4 30  1  0
  5 31  1  0
  5 32  1  0
  5 33  1  0
  6 34  1  0
  6 35  1  0
  7 36  1  0
  7 37  1  0
  9 38  1  0
  9 39  1  0
 10 40  1  0
 10 41  1  0
 11 42  1  0
 15 43  1  0
 15 44  1  0
 16 45  1  0
 16 46  1  0
 18 47  1  0
 18 48  1  0
 19 49  1  0
 19 50  1  0
M  END
>  <smiles>  (10) 
CCN(CC)CCOCCNc1c(N2CCOCC2)c(=O)c1=O

>  <score_type>  (10) 
oracle

>  <origin>  (10) 
adg

>  <m_score__min__energy>  (10) 
-6.5999999999999996

>  <m_primary>  (10) 
energy

$$$$
10:0
     RDKit          3D

 45 45  0  0  0  0  0  0  0  0999 V2000
   -1.1670   25.9010  -27.2670 C   0  0  0  0  0  0  0  0  0  0  0  0
   -1.2240   25.6820  -28.7910 C   0  0  0  0  0  0  0  0  0  0  0  0
   -2.4470   25.0570  -29.1940 N   0  0  0  0  0  0  0  0  0  0  0  0
   -3.0280   24.2020  -28.1940 C   0  0  0  0  0  0  0  0  0  0  0  0
   -4.2940   23.5720  -28.6910 C   0  0  0  0  0  0  0  0  0  0  0  0
   -4.3430   23.3420  -30.1480 C   0  0  0  0  0  0  0  0  0  0  0  0
   -4.3690   24.4460  -31.0270 N   0  0  0  0  0  0  0  0  0  0  0  0
   -5.6100   25.1280  -31.2110 C   0  0  0  0  0  0  0  0  0  0  0  0
   -6.7060   24.0620  -31.0480 C   0  0  0  0  0  0  0  0  0  0  0  0
   -6.6220   23.2780  -32.2570 N   0  0  0  0  0  0  0  0  0  0  0  0
   -6.7130   21.8760  -32.3480 C   0  0  0  0  0  0  0  0  0  0  0  0
   -5.6810   21.0150  -32.6100 C   0  0  0  0  0  0  0  0  0  0  0  0
   -5.9390   19.6400  -32.7170 C   0  0  0  0  0  0  0  0  0  0  0  0
   -5.0090   18.8440  -32.9560 O   0  0  0  0  0  0  0  0  0  0  0  0
   -7.2210   19.1960  -32.5560 N   0  0  0  0  0  0  0  0  0  0  0  0
   -7.5660   17.7900  -32.6660 C   0  0  0  0  0  0  0  0  0  0  0  0
   -8.2230   20.0470  -32.3000 C   0  0  0  0  0  0  0  0  0  0  0  0
   -9.4060   19.6660  -32.1500 O   0  0  0  0  0  0  0  0  0  0  0  0
   -7.9770   21.3610  -32.1980 N   0  0  0  0  0  0  0  0  0  0  0  0
   -9.0800   22.2950  -31.9200 C   0  0  0  0  0  0  0  0  0  0  0  0
   -1.4118   24.9603  -26.7520 H   0  0  0  0  0  0  0  0  0  0  0  0
   -0.1551   26.2233  -26.9805 H   0  0  0  0  0  0  0  0  0  0  0  0
   -1.8934   26.6757  -26.9805 H   0  0  0  0  0  0  0  0  0  0  0  0
   -1.1399   26.6567  -29.2939 H   0  0  0  0  0  0  0  0  0  0  0  0
   -0.3928   25.0185  -29.0719 H   0  0  0  0  0  0  0  0  0  0  0  0
   -3.1050   25.6610  -29.7090 H   0  0  0  0  0  0  0  0  0  0  0  0
   -2.3093   23.4098  -27.9373 H   0  0  0  0  0  0  0  0  0  0  0  0
   -3.2651   24.8109  -27.3091 H   0  0  0  0  0  0  0  0  0  0  0  0
   -4.4132   22.6012  -28.1876 H   0  0  0  0  0  0  0  0  0  0  0  0
   -5.1023   24.2825  -28.4634 H   0  0  0  0  0  0  0  0  0  0  0  0
   -3.4547   22.7475  -30.4078 H   0  0  0  0  0  0  0  0  0  0  0  0
   -5.3237   22.8678  -30.3010 H   0  0  0  0  0  0  0  0  0  0  0  0
   -3.5050   24.9430  -31.2110 H   0  0  0  0  0  0  0  0  0  0  0  0
   -5.7286   25.9173  -30.4540 H   0  0  0  0  0  0  0  0  0  0  0  0
   -5.6618   25.6124  -32.1972 H   0  0  0  0  0  0  0  0  0  0  0  0
   -6.5133   23.4368  -30.1637 H   0  0  0  0  0  0  0  0  0  0  0  0
   -7.7030   24.5027  -30.9008 H   0  0  0  0  0  0  0  0  0  0  0  0
   -6.4780   23.7620  -33.2200 H   0  0  0  0  0  0  0  0  0  0  0  0
   -4.6576   21.3983  -32.7356 H   0  0  0  0  0  0  0  0  0  0  0  0
   -7.6719   17.3586  -31.6597 H   0  0  0  0  0  0  0  0  0  0  0  0
   -8.5160   17.6871  -33.2108 H   0  0  0  0  0  0  0  0  0  0  0  0
   -6.7715   17.2590  -33.2108 H   0  0  0  0  0  0  0  0  0  0  0  0
   -9.2053   22.4011  -30.8323 H   0  0  0  0  0  0  0  0  0  0  0  0
   -8.8491   23.2764  -32.3600 H   0  0  0  0  0  0  0  0  0  0  0  0
  -10.0099   21.9056  -32.3600 H   0  0  0  0  0  0  0  0  0  0  0  0
  1  2  1  0
  2  3  1  0
  3  4  1  0
  4  5  1  0
  5  6  1  0
  6  7  1  0
  7  8  1  0
  8  9  1  0
  9 10  1  0
 10 11  1  0
 11 12  2  0
 12 13  1  0
 13 14  2  0
 13 15  1  0
 15 16  1  0
 15 17  1  0
 17 18  2  0
 17 19  1  0
 19 20  1  0
 19 11  1  0
  1 21  1  0
  1 22  1  0
  1 23  1  0
  2 24  1  0
  2 25  1  0
  3 26  1  0
  4 27  1  0
  4 28  1  0
  5 29  1  0
  5 30  1  0
  6 31  1  0
  6 32  1  0
  7 33  1  0
  8 34  1  0
  8 35  1  0
  9 36  1  0
  9 37  1  0
 10 38  1  0
 12 39  1  0
 16 40  1  0
 16 41  1  0
 16 42  1  0
 20 43  1  0
 20 44  1  0
 20 45  1  0
M  END
>  <smiles>  (11) 
CCNCCCNCCNc1cc(=O)n(C)c(=O)n1C

>  <score_type>  (11) 
oracle

>  <origin>  (11) 
adg

>  <m_score__min__energy>  (11) 
-6.71

>  <m_primary>  (11) 
energy

$$$$
11:0
     RDKit          3D

 46 48  0  0  0  0  0  0  0  0999 V2000
   -6.0510   25.2500  -30.0330 C   0  0  0  0  0  0  0  0  0  0  0  0
   -6.8810   23.9950  -30.0980 C   0  0  0  0  0  0  0  0  0  0  0  0
   -6.7560   23.2570  -31.3090 N   0  0  0  0  0  0  0  0  0  0  0  0
   -5.7980   23.6010  -32.3090 C   0  0  0  0  0  0  0  0  0  0  0  0
   -4.6110   22.6970  -32.1620 C   0  0  0  0  0  0  0  0  0  0  0  0
   -4.4510   21.5570  -32.9220 C   0  0  0  0  0  0  0  0  0  0  0  0
   -3.3200   20.7770  -32.7180 C   0  0  0  0  0  0  0  0  0  0  0  0
   -2.3730   21.1530  -31.7590 C   0  0  0  0  0  0  0  0  0  0  0  0
   -2.6190   22.3190  -31.0400 C   0  0  0  0  0  0  0  0  0  0  0  0
   -3.7050   23.0720  -31.2320 N   0  0  0  0  0  0  0  0  0  0  0  0
   -7.5990   22.1160  -31.5820 C   0  0  0  0  0  0  0  0  0  0  0  0
   -7.4300   20.9240  -31.6460 N   0  0  0  0  0  0  0  0  0  0  0  0
   -8.3330   20.0120  -31.9130 C   0  0  0  0  0  0  0  0  0  0  0  0
   -8.0020   18.5370  -31.9650 C   0  0  0  0  0  0  0  0  0  0  0  0
   -6.8560   18.2240  -32.6900 N   0  0  0  0  0  0  0  0  0  0  0  0
   -6.5170   18.9410  -33.8360 C   0  0  0  0  0  0  0  0  0  0  0  0
   -5.2000   18.4870  -34.3990 C   0  0  0  0  0  0  0  0  0  0  0  0
   -5.0870   16.9950  -34.5190 C   0  0  0  0  0  0  0  0  0  0  0  0
   -5.6550   16.2680  -33.3230 C   0  0  0  0  0  0  0  0  0  0  0  0
   -5.9910   17.2240  -32.1960 C   0  0  0  0  0  0  0  0  0  0  0  0
   -9.5890   20.4750  -32.1390 C   0  0  0  0  0  0  0  0  0  0  0  0
   -9.3720   22.3150  -31.9410 S   0  0  0  0  0  0  0  0  0  0  0  0
   -5.8736   25.5182  -28.9811 H   0  0  0  0  0  0  0  0  0  0  0  0
   -5.0874   25.0788  -30.5352 H   0  0  0  0  0  0  0  0  0  0  0  0
   -6.5857   26.0697  -30.5352 H   0  0  0  0  0  0  0  0  0  0  0  0
   -6.5784   23.3415  -29.2665 H   0  0  0  0  0  0  0  0  0  0  0  0
   -7.9315   24.3159  -30.0387 H   0  0  0  0  0  0  0  0  0  0  0  0
   -6.2413   23.4719  -33.3074 H   0  0  0  0  0  0  0  0  0  0  0  0
   -5.4896   24.6502  -32.1903 H   0  0  0  0  0  0  0  0  0  0  0  0
   -5.2025   21.2720  -33.6730 H   0  0  0  0  0  0  0  0  0  0  0  0
   -3.1686   19.8629  -33.3109 H   0  0  0  0  0  0  0  0  0  0  0  0
   -1.4699   20.5509  -31.5804 H   0  0  0  0  0  0  0  0  0  0  0  0
   -1.8876   22.6338  -30.2811 H   0  0  0  0  0  0  0  0  0  0  0  0
   -7.8633   18.1803  -30.9337 H   0  0  0  0  0  0  0  0  0  0  0  0
   -8.8406   18.0482  -32.4825 H   0  0  0  0  0  0  0  0  0  0  0  0
   -7.2999   18.7939  -34.5945 H   0  0  0  0  0  0  0  0  0  0  0  0
   -6.4292   20.0036  -33.5654 H   0  0  0  0  0  0  0  0  0  0  0  0
   -5.0776   18.9278  -35.3994 H   0  0  0  0  0  0  0  0  0  0  0  0
   -4.4166   18.8175  -33.7011 H   0  0  0  0  0  0  0  0  0  0  0  0
   -5.6322   16.6722  -35.4182 H   0  0  0  0  0  0  0  0  0  0  0  0
   -4.0170   16.7473  -34.5803 H   0  0  0  0  0  0  0  0  0  0  0  0
   -6.5706   15.7401  -33.6280 H   0  0  0  0  0  0  0  0  0  0  0  0
   -4.8959   15.5602  -32.9586 H   0  0  0  0  0  0  0  0  0  0  0  0
   -6.4870   16.6756  -31.3816 H   0  0  0  0  0  0  0  0  0  0  0  0
   -5.0698   17.6845  -31.8095 H   0  0  0  0  0  0  0  0  0  0  0  0
  -10.5013   19.9088  -32.3779 H   0  0  0  0  0  0  0  0  0  0  0  0
  1  2  1  0
  2  3  1  0
  3  4  1  0
  4  5  1  0
  5  6  2  0
  6  7  1  0
  7  8  2  0
  8  9  1  0
  9 10  2  0
  3 11  1  0
 11 12  2  0
 12 13  1  0
 13 14  1  0
 14 15  1  0
 15 16  1  0
 16 17  1  0
 17 18  1  0
 18 19  1  0
 19 20  1  0
 13 21  2  0
 21 22  1  0
 10  5  1  0
 22 11  1  0
 20 15  1  0
  1 23  1  0
  1 24  1  0
  1 25  1  0
  2 26  1  0
  2 27  1  0
  4 28  1  0
  4 29  1  0
  6 30  1  0
  7 31  1  0
  8 32  1  0
  9 33  1  0
 14 34  1  0
 14 35  1  0
 16 36  1  0
 16 37  1  0
 17 38  1  0
 17 39  1  0
 18 40  1  0
 18 41  1  0
 19 42  1  0
 19 43  1  0
 20 44  1  0
 20 45  1  0
 21 46  1  0
M  END
>  <smiles>  (12) 
CCN(Cc1ccccn1)c1nc(CN2CCCCC2)cs1

>  <score_type>  (12) 
oracle

>  <origin>  (12) 
adg

>  <m_score__min__energy>  (12) 
-7.6500000000000004

>  <m_primary>  (12) 
energy

$$$$
12:0
     RDKit          3D

 76 78  0  0  0  0  0  0  0  0999 V2000
   -4.1020   23.6710  -28.5960 C   0  0  0  0  0  0  0  0  0  0  0  0
   -3.5020   24.4940  -29.6870 C   0  0  0  0  0  0  0  0  0  0  0  0
   -4.4080   24.6210  -30.8110 N   0  0  0  0  0  0  0  0  0  0  0  0
   -5.3510   25.6530  -30.4450 C   0  0  0  0  0  0  0  0  0  0  0  0
   -6.6640   25.0670  -29.9660 C   0  0  0  0  0  0  0  0  0  0  0  0
   -4.9970   23.3840  -31.1690 C   0  0  0  0  0  0  0  0  0  0  0  0
   -4.1100   22.3250  -31.7260 C   0  0  0  0  0  0  0  0  0  0  0  0
   -4.5360   21.7770  -33.0050 N   0  0  0  0  0  0  0  0  0  0  0  0
   -4.8150   20.3870  -33.0380 C   0  0  0  0  0  0  0  0  0  0  0  0
   -6.1300   20.0680  -32.6410 C   0  0  0  0  0  0  0  0  0  0  0  0
   -6.6170   18.7890  -32.6760 C   0  0  0  0  0  0  0  0  0  0  0  0
   -5.7790   17.8060  -33.1150 N   0  0  0  0  0  0  0  0  0  0  0  0
   -6.2710   16.4260  -33.1890 C   0  0  0  0  0  0  0  0  0  0  0  0
   -4.5180   18.0860  -33.4960 C   0  0  0  0  0  0  0  0  0  0  0  0
   -3.7490   17.0220  -33.9150 C   0  0  0  0  0  0  0  0  0  0  0  0
   -2.4600   17.2920  -34.2970 C   0  0  0  0  0  0  0  0  0  0  0  0
   -1.9570   18.5800  -34.2610 C   0  0  0  0  0  0  0  0  0  0  0  0
   -2.7130   19.6740  -33.8400 C   0  0  0  0  0  0  0  0  0  0  0  0
   -2.0930   20.9230  -33.7710 N   0  0  0  0  0  0  0  0  0  0  0  0
   -1.0010   21.1140  -32.7910 C   0  0  0  0  0  0  0  0  0  0  0  0
   -1.3570   20.5250  -31.4660 C   0  0  0  0  0  0  0  0  0  0  0  0
   -1.0510   21.4720  -30.3290 C   0  0  0  0  0  0  0  0  0  0  0  0
   -1.2420   20.8520  -29.0490 N   0  0  0  0  0  0  0  0  0  0  0  0
   -0.4810   19.5990  -28.9770 C   0  0  0  0  0  0  0  0  0  0  0  0
   -2.6320   20.4880  -28.8000 C   0  0  0  0  0  0  0  0  0  0  0  0
   -0.8500   21.6890  -27.9330 C   0  0  0  0  0  0  0  0  0  0  0  0
   -4.0040   19.3910  -33.4650 C   0  0  0  0  0  0  0  0  0  0  0  0
   -7.9710   18.3710  -32.2710 C   0  0  0  0  0  0  0  0  0  0  0  0
   -8.7440   19.4850  -31.6170 C   0  0  0  0  0  0  0  0  0  0  0  0
   -8.4970   20.7470  -32.4110 C   0  0  0  0  0  0  0  0  0  0  0  0
   -7.0540   21.1120  -32.1320 C   0  0  0  0  0  0  0  0  0  0  0  0
   -3.8028   24.0814  -27.6203 H   0  0  0  0  0  0  0  0  0  0  0  0
   -5.1985   23.6916  -28.6818 H   0  0  0  0  0  0  0  0  0  0  0  0
   -3.7469   22.6334  -28.6818 H   0  0  0  0  0  0  0  0  0  0  0  0
   -3.2742   25.4964  -29.2955 H   0  0  0  0  0  0  0  0  0  0  0  0
   -2.5859   23.9941  -30.0347 H   0  0  0  0  0  0  0  0  0  0  0  0
   -4.9173   26.2627  -29.6387 H   0  0  0  0  0  0  0  0  0  0  0  0
   -5.5531   26.2651  -31.3363 H   0  0  0  0  0  0  0  0  0  0  0  0
   -6.6823   25.0588  -28.8662 H   0  0  0  0  0  0  0  0  0  0  0  0
   -7.4974   25.6786  -30.3421 H   0  0  0  0  0  0  0  0  0  0  0  0
   -6.7653   24.0383  -30.3421 H   0  0  0  0  0  0  0  0  0  0  0  0
   -5.4704   22.9728  -30.2652 H   0  0  0  0  0  0  0  0  0  0  0  0
   -5.6811   23.6327  -31.9937 H   0  0  0  0  0  0  0  0  0  0  0  0
   -3.1057   22.7545  -31.8561 H   0  0  0  0  0  0  0  0  0  0  0  0
   -4.1385   21.4912  -31.0091 H   0  0  0  0  0  0  0  0  0  0  0  0
   -4.5980   22.3800  -33.8840 H   0  0  0  0  0  0  0  0  0  0  0  0
   -6.4115   16.0318  -32.1717 H   0  0  0  0  0  0  0  0  0  0  0  0
   -7.2312   16.4073  -33.7254 H   0  0  0  0  0  0  0  0  0  0  0  0
   -5.5392   15.8041  -33.7254 H   0  0  0  0  0  0  0  0  0  0  0  0
   -4.1523   15.9989  -33.9419 H   0  0  0  0  0  0  0  0  0  0  0  0
   -1.8143   16.4694  -34.6382 H   0  0  0  0  0  0  0  0  0  0  0  0
   -0.9172   18.7486  -34.5777 H   0  0  0  0  0  0  0  0  0  0  0  0
   -2.2880   21.7940  -34.2770 H   0  0  0  0  0  0  0  0  0  0  0  0
   -0.0906   20.6253  -33.1682 H   0  0  0  0  0  0  0  0  0  0  0  0
   -0.8351   22.1934  -32.6596 H   0  0  0  0  0  0  0  0  0  0  0  0
   -2.4324   20.2937  -31.4568 H   0  0  0  0  0  0  0  0  0  0  0  0
   -0.7550   19.6154  -31.3240 H   0  0  0  0  0  0  0  0  0  0  0  0
   -0.0046   21.8008  -30.4121 H   0  0  0  0  0  0  0  0  0  0  0  0
   -1.7420   22.3248  -30.4008 H   0  0  0  0  0  0  0  0  0  0  0  0
   -0.3173   19.3295  -27.9232 H   0  0  0  0  0  0  0  0  0  0  0  0
   -1.0453   18.7980  -29.4769 H   0  0  0  0  0  0  0  0  0  0  0  0
    0.4900   19.7305  -29.4769 H   0  0  0  0  0  0  0  0  0  0  0  0
   -2.8102   20.4413  -27.7155 H   0  0  0  0  0  0  0  0  0  0  0  0
   -3.2947   21.2429  -29.2483 H   0  0  0  0  0  0  0  0  0  0  0  0
   -2.8396   19.5052  -29.2483 H   0  0  0  0  0  0  0  0  0  0  0  0
   -1.0896   21.1775  -26.9891 H   0  0  0  0  0  0  0  0  0  0  0  0
    0.2319   21.8815  -27.9814 H   0  0  0  0  0  0  0  0  0  0  0  0
   -1.3948   22.6434  -27.9814 H   0  0  0  0  0  0  0  0  0  0  0  0
   -8.5196   18.0373  -33.1641 H   0  0  0  0  0  0  0  0  0  0  0  0
   -7.8656   17.5594  -31.5360 H   0  0  0  0  0  0  0  0  0  0  0  0
   -9.8178   19.2463  -31.6183 H   0  0  0  0  0  0  0  0  0  0  0  0
   -8.4193   19.6174  -30.5744 H   0  0  0  0  0  0  0  0  0  0  0  0
   -8.6483   20.5635  -33.4850 H   0  0  0  0  0  0  0  0  0  0  0  0
   -9.1886   21.5542  -32.1280 H   0  0  0  0  0  0  0  0  0  0  0  0
   -6.8233   22.0675  -32.6258 H   0  0  0  0  0  0  0  0  0  0  0  0
   -6.9195   21.1966  -31.0435 H   0  0  0  0  0  0  0  0  0  0  0  0
  1  2  1  0
  2  3  1  0
  3  4  1  0
  4  5  1  0
  3  6  1  0
  6  7  1  0
  7  8  1  0
  8  9  1  0
  9 10  2  0
 10 11  1  0
 11 12  2  0
 12 13  1  0
 12 14  1  0
 14 15  2  0
 15 16  1  0
 16 17  2  0
 17 18  1  0
 18 19  1  0
 19 20  1  0
 20 21  1  0
 21 22  1  0
 22 23  1  0
 23 24  1  0
 23 25  1  0
 23 26  1  0
 18 27  2  0
 11 28  1  0
 28 29  1  0
 29 30  1  0
 30 31  1  0
 27  9  1  0
 31 10  1  0
 27 14  1  0
  1 32  1  0
  1 33  1  0
  1 34  1  0
  2 35  1  0
  2 36  1  0
  4 37  1  0
  4 38  1  0
  5 39  1  0
  5 40  1  0
  5 41  1  0
  6 42  1  0
  6 43  1  0
  7 44  1  0
  7 45  1  0
  8 46  1  0
 13 47  1  0
 13 48  1  0
 13 49  1  0
 15 50  1  0
 16 51  1  0
 17 52  1  0
 19 53  1  0
 20 54  1  0
 20 55  1  0
 21 56  1  0
 21 57  1  0
 22 58  1  0
 22 59  1  0
 24 60  1  0
 24 61  1  0
 24 62  1  0
 25 63  1  0
 25 64  1  0
 25 65  1  0
 26 66  1  0
 26 67  1  0
 26 68  1  0
 28 69  1  0
 28 70  1  0
 29 71  1  0
 29 72  1  0
 30 73  1  0
 30 74  1  0
 31 75  1  0
 31 76  1  0
M  CHG  2  12   1  23   1
M  END
>  <smiles>  (13) 
CCN(CC)CCNc1c2c([n+](C)c3cccc(NCCC[N+](C)(C)C)c13)CCCC2

>  <score_type>  (13) 
oracle

>  <origin>  (13) 
adg

>  <m_score__min__energy>  (13) 
-8.6199999999999992

>  <m_primary>  (13) 
energy

$$$$
13:0
     RDKit          3D

 43 45  0  0  0  0  0  0  0  0999 V2000
   -3.0470   24.1780  -27.8230 C   0  0  0  0  0  0  0  0  0  0  0  0
   -2.5220   24.9230  -29.0020 C   0  0  0  0  0  0  0  0  0  0  0  0
   -3.4800   25.2840  -29.9520 O   0  0  0  0  0  0  0  0  0  0  0  0
   -4.6650   24.6480  -30.1780 C   0  0  0  0  0  0  0  0  0  0  0  0
   -5.8400   25.2110  -29.7710 C   0  0  0  0  0  0  0  0  0  0  0  0
   -7.0040   24.5040  -30.0380 C   0  0  0  0  0  0  0  0  0  0  0  0
   -7.0060   23.2930  -30.6790 C   0  0  0  0  0  0  0  0  0  0  0  0
   -5.8360   22.7220  -31.0880 C   0  0  0  0  0  0  0  0  0  0  0  0
   -5.8400   21.5180  -31.7390 C   0  0  0  0  0  0  0  0  0  0  0  0
   -6.9310   20.6930  -32.0070 N   0  0  0  0  0  0  0  0  0  0  0  0
   -6.6910   19.2280  -31.8660 C   0  0  0  0  0  0  0  0  0  0  0  0
   -7.6360   18.5100  -32.7660 C   0  0  0  0  0  0  0  0  0  0  0  0
   -8.9200   18.7070  -32.2690 O   0  0  0  0  0  0  0  0  0  0  0  0
   -9.1150   19.9170  -31.6410 C   0  0  0  0  0  0  0  0  0  0  0  0
   -8.2850   21.0310  -32.3490 C   0  0  0  0  0  0  0  0  0  0  0  0
   -4.5760   21.0430  -32.1260 C   0  0  0  0  0  0  0  0  0  0  0  0
   -3.4180   21.7320  -31.8720 C   0  0  0  0  0  0  0  0  0  0  0  0
   -2.0700   21.2500  -32.2710 C   0  0  0  0  0  0  0  0  0  0  0  0
   -2.0080   20.7870  -33.7070 C   0  0  0  0  0  0  0  0  0  0  0  0
   -3.4800   22.9170  -31.2220 N   0  0  0  0  0  0  0  0  0  0  0  0
   -4.6670   23.4300  -30.8220 C   0  0  0  0  0  0  0  0  0  0  0  0
   -2.7035   24.6654  -26.8986 H   0  0  0  0  0  0  0  0  0  0  0  0
   -4.1467   24.1767  -27.8500 H   0  0  0  0  0  0  0  0  0  0  0  0
   -2.6783   23.1420  -27.8500 H   0  0  0  0  0  0  0  0  0  0  0  0
   -2.0413   25.8426  -28.6370 H   0  0  0  0  0  0  0  0  0  0  0  0
   -1.8291   24.2378  -29.5123 H   0  0  0  0  0  0  0  0  0  0  0  0
   -5.8632   26.1819  -29.2544 H   0  0  0  0  0  0  0  0  0  0  0  0
   -7.9657   24.9341  -29.7216 H   0  0  0  0  0  0  0  0  0  0  0  0
   -7.9591   22.7765  -30.8656 H   0  0  0  0  0  0  0  0  0  0  0  0
   -5.6549   18.9919  -32.1501 H   0  0  0  0  0  0  0  0  0  0  0  0
   -6.8507   18.9167  -30.8231 H   0  0  0  0  0  0  0  0  0  0  0  0
   -7.5625   18.9139  -33.7865 H   0  0  0  0  0  0  0  0  0  0  0  0
   -7.3957   17.4372  -32.8026 H   0  0  0  0  0  0  0  0  0  0  0  0
  -10.1826   20.1789  -31.6803 H   0  0  0  0  0  0  0  0  0  0  0  0
   -8.7867   19.8352  -30.5943 H   0  0  0  0  0  0  0  0  0  0  0  0
   -8.4359   21.0043  -33.4383 H   0  0  0  0  0  0  0  0  0  0  0  0
   -8.5696   22.0470  -32.0380 H   0  0  0  0  0  0  0  0  0  0  0  0
   -4.5126   20.0800  -32.6538 H   0  0  0  0  0  0  0  0  0  0  0  0
   -1.3505   22.0711  -32.1365 H   0  0  0  0  0  0  0  0  0  0  0  0
   -1.8299   20.3842  -31.6364 H   0  0  0  0  0  0  0  0  0  0  0  0
   -1.8620   19.6971  -33.7349 H   0  0  0  0  0  0  0  0  0  0  0  0
   -2.9486   21.0441  -34.2161 H   0  0  0  0  0  0  0  0  0  0  0  0
   -1.1682   21.2825  -34.2161 H   0  0  0  0  0  0  0  0  0  0  0  0
  1  2  1  0
  2  3  1  0
  3  4  1  0
  4  5  2  0
  5  6  1  0
  6  7  2  0
  7  8  1  0
  8  9  2  0
  9 10  1  0
 10 11  1  0
 11 12  1  0
 12 13  1  0
 13 14  1  0
 14 15  1  0
  9 16  1  0
 16 17  2  0
 17 18  1  0
 18 19  1  0
 17 20  1  0
 20 21  2  0
 21  4  1  0
 21  8  1  0
 15 10  1  0
  1 22  1  0
  1 23  1  0
  1 24  1  0
  2 25  1  0
  2 26  1  0
  5 27  1  0
  6 28  1  0
  7 29  1  0
 11 30  1  0
 11 31  1  0
 12 32  1  0
 12 33  1  0
 14 34  1  0
 14 35  1  0
 15 36  1  0
 15 37  1  0
 16 38  1  0
 18 39  1  0
 18 40  1  0
 19 41  1  0
 19 42  1  0
 19 43  1  0
M  END
>  <smiles>  (14) 
CCOc1cccc2c(N3CCOCC3)cc(CC)nc12

>  <score_type>  (14) 
oracle

>  <origin>  (14) 
adg

>  <m_score__min__energy>  (14) 
-7.96

>  <m_primary>  (14) 
energy

$$$$
14:0
     RDKit          3D

 51 53  0  0  0  0  0  0  0  0999 V2000
    0.1240   25.3740  -36.4560 C   0  0  0  0  0  0  0  0  0  0  0  0
    0.9240   24.2890  -35.7390 C   0  0  0  0  0  0  0  0  0  0  0  0
    0.2590   23.0210  -35.7860 N   0  0  0  0  0  0  0  0  0  0  0  0
    1.1220   21.9550  -35.3590 C   0  0  0  0  0  0  0  0  0  0  0  0
    0.3420   20.7950  -34.8530 C   0  0  0  0  0  0  0  0  0  0  0  0
   -0.9780   21.1620  -34.3350 N   0  0  0  0  0  0  0  0  0  0  0  0
   -0.9300   21.3630  -32.9050 C   0  0  0  0  0  0  0  0  0  0  0  0
   -2.3070   21.3130  -32.2750 C   0  0  0  0  0  0  0  0  0  0  0  0
   -3.3510   21.2940  -33.2700 N   0  0  0  0  0  0  0  0  0  0  0  0
   -4.6680   20.8800  -33.0270 C   0  0  0  0  0  0  0  0  0  0  0  0
   -5.1880   19.6470  -33.3640 C   0  0  0  0  0  0  0  0  0  0  0  0
   -4.3190   18.7660  -33.9870 C   0  0  0  0  0  0  0  0  0  0  0  0
   -4.7420   17.5080  -34.3610 C   0  0  0  0  0  0  0  0  0  0  0  0
   -6.0480   17.1610  -34.0910 C   0  0  0  0  0  0  0  0  0  0  0  0
   -6.9100   18.0560  -33.4630 C   0  0  0  0  0  0  0  0  0  0  0  0
   -6.5040   19.3260  -33.0830 C   0  0  0  0  0  0  0  0  0  0  0  0
   -7.3470   20.1960  -32.4670 N   0  0  0  0  0  0  0  0  0  0  0  0
   -8.7050   19.8310  -32.2120 C   0  0  0  0  0  0  0  0  0  0  0  0
   -6.8320   21.4100  -32.1360 C   0  0  0  0  0  0  0  0  0  0  0  0
   -7.6170   22.3480  -31.5030 C   0  0  0  0  0  0  0  0  0  0  0  0
   -7.1310   23.6040  -31.1390 C   0  0  0  0  0  0  0  0  0  0  0  0
   -5.8240   23.9520  -31.4070 C   0  0  0  0  0  0  0  0  0  0  0  0
   -5.2990   25.1570  -31.0800 F   0  0  0  0  0  0  0  0  0  0  0  0
   -5.0370   23.0160  -32.0390 C   0  0  0  0  0  0  0  0  0  0  0  0
   -5.5280   21.7610  -32.4000 C   0  0  0  0  0  0  0  0  0  0  0  0
   -0.3571   26.0265  -35.7126 H   0  0  0  0  0  0  0  0  0  0  0  0
    0.7993   25.9716  -37.0860 H   0  0  0  0  0  0  0  0  0  0  0  0
   -0.6465   24.9056  -37.0860 H   0  0  0  0  0  0  0  0  0  0  0  0
    1.9077   24.1936  -36.2220 H   0  0  0  0  0  0  0  0  0  0  0  0
    1.0292   24.5817  -34.6839 H   0  0  0  0  0  0  0  0  0  0  0  0
   -0.6220   23.0470  -35.2370 H   0  0  0  0  0  0  0  0  0  0  0  0
    1.7363   21.6288  -36.2112 H   0  0  0  0  0  0  0  0  0  0  0  0
    1.7557   22.3291  -34.5414 H   0  0  0  0  0  0  0  0  0  0  0  0
    0.2063   20.0799  -35.6777 H   0  0  0  0  0  0  0  0  0  0  0  0
    0.9100   20.3624  -34.0162 H   0  0  0  0  0  0  0  0  0  0  0  0
   -1.3640   21.9770  -34.8380 H   0  0  0  0  0  0  0  0  0  0  0  0
   -0.3064   20.5754  -32.4570 H   0  0  0  0  0  0  0  0  0  0  0  0
   -0.5083   22.3615  -32.7176 H   0  0  0  0  0  0  0  0  0  0  0  0
   -2.3845   20.4041  -31.6602 H   0  0  0  0  0  0  0  0  0  0  0  0
   -2.4355   22.2172  -31.6619 H   0  0  0  0  0  0  0  0  0  0  0  0
   -3.0990   21.6100  -34.2350 H   0  0  0  0  0  0  0  0  0  0  0  0
   -3.2815   19.0731  -34.1852 H   0  0  0  0  0  0  0  0  0  0  0  0
   -4.0589   16.8041  -34.8589 H   0  0  0  0  0  0  0  0  0  0  0  0
   -6.4144   16.1636  -34.3754 H   0  0  0  0  0  0  0  0  0  0  0  0
   -7.9460   17.7456  -33.2620 H   0  0  0  0  0  0  0  0  0  0  0  0
   -8.8747   19.7854  -31.1261 H   0  0  0  0  0  0  0  0  0  0  0  0
   -9.3759   20.5807  -32.6568 H   0  0  0  0  0  0  0  0  0  0  0  0
   -8.9096   18.8460  -32.6568 H   0  0  0  0  0  0  0  0  0  0  0  0
   -8.6640   22.0981  -31.2765 H   0  0  0  0  0  0  0  0  0  0  0  0
   -7.7950   24.3216  -30.6348 H   0  0  0  0  0  0  0  0  0  0  0  0
   -3.9899   23.2649  -32.2661 H   0  0  0  0  0  0  0  0  0  0  0  0
  1  2  1  0
  2  3  1  0
  3  4  1  0
  4  5  1  0
  5  6  1  0
  6  7  1  0
  7  8  1  0
  8  9  1  0
  9 10  1  0
 10 11  2  0
 11 12  1  0
 12 13  2  0
 13 14  1  0
 14 15  2  0
 15 16  1  0
 16 17  2  0
 17 18  1  0
 17 19  1  0
 19 20  2  0
 20 21  1  0
 21 22  2  0
 22 23  1  0
 22 24  1  0
 24 25  2  0
 25 10  1  0
 16 11  1  0
 25 19  1  0
  1 26  1  0
  1 27  1  0
  1 28  1  0
  2 29  1  0
  2 30  1  0
  3 31  1  0
  4 32  1  0
  4 33  1  0
  5 34  1  0
  5 35  1  0
  6 36  1  0
  7 37  1  0
  7 38  1  0
  8 39  1  0
  8 40  1  0
  9 41  1  0
 12 42  1  0
 13 43  1  0
 14 44  1  0
 15 45  1  0
 18 46  1  0
 18 47  1  0
 18 48  1  0
 20 49  1  0
 21 50  1  0
 24 51  1  0
M  CHG  1  17   1
M  END
>  <smiles>  (15) 
CCNCCNCCNc1c2ccccc2[n+](C)c2ccc(F)cc12

>  <score_type>  (15) 
oracle

>  <origin>  (15) 
adg

>  <m_score__min__energy>  (15) 
-9.1199999999999992

>  <m_primary>  (15) 
energy

$$$$
15:0
     RDKit          3D

 57 60  0  0  0  0  0  0  0  0999 V2000
   -7.1410   23.7830  -31.7560 C   0  0  0  0  0  0  0  0  0  0  0  0
   -6.4940   23.5240  -30.5130 N   0  0  0  0  0  0  0  0  0  0  0  0
   -5.5700   22.4300  -30.5520 C   0  0  0  0  0  0  0  0  0  0  0  0
   -4.6350   22.5700  -31.6970 C   0  0  0  0  0  0  0  0  0  0  0  0
   -4.9580   21.8720  -32.8970 N   0  0  0  0  0  0  0  0  0  0  0  0
   -5.2720   20.5020  -33.0090 C   0  0  0  0  0  0  0  0  0  0  0  0
   -4.2650   19.6110  -33.3880 C   0  0  0  0  0  0  0  0  0  0  0  0
   -2.9920   20.1110  -33.6610 C   0  0  0  0  0  0  0  0  0  0  0  0
   -1.9480   19.2990  -34.0500 C   0  0  0  0  0  0  0  0  0  0  0  0
   -2.1940   17.9480  -34.1660 C   0  0  0  0  0  0  0  0  0  0  0  0
   -3.4580   17.4530  -33.8940 C   0  0  0  0  0  0  0  0  0  0  0  0
   -4.5130   18.2600  -33.5030 C   0  0  0  0  0  0  0  0  0  0  0  0
   -5.7480   17.7270  -33.2550 N   0  0  0  0  0  0  0  0  0  0  0  0
   -5.8780   16.3150  -33.3910 C   0  0  0  0  0  0  0  0  0  0  0  0
   -6.7370   18.5690  -32.8900 C   0  0  0  0  0  0  0  0  0  0  0  0
   -7.9880   18.0640  -32.6520 C   0  0  0  0  0  0  0  0  0  0  0  0
   -9.0110   18.9440  -32.2910 C   0  0  0  0  0  0  0  0  0  0  0  0
   -8.8180   20.2960  -32.1640 C   0  0  0  0  0  0  0  0  0  0  0  0
   -7.5460   20.7740  -32.4100 C   0  0  0  0  0  0  0  0  0  0  0  0
   -6.5050   19.9460  -32.7680 C   0  0  0  0  0  0  0  0  0  0  0  0
   -6.0950   24.6680  -29.7620 C   0  0  0  0  0  0  0  0  0  0  0  0
   -5.2190   25.5800  -30.6330 C   0  0  0  0  0  0  0  0  0  0  0  0
   -3.8670   25.3050  -30.4590 O   0  0  0  0  0  0  0  0  0  0  0  0
   -3.7460   24.5610  -29.2610 C   0  0  0  0  0  0  0  0  0  0  0  0
   -2.3860   24.0510  -29.1050 C   0  0  0  0  0  0  0  0  0  0  0  0
   -1.7930   22.8550  -29.3700 C   0  0  0  0  0  0  0  0  0  0  0  0
   -0.4980   22.6750  -29.1100 C   0  0  0  0  0  0  0  0  0  0  0  0
    0.1730   23.7950  -28.5570 C   0  0  0  0  0  0  0  0  0  0  0  0
   -1.0590   25.0770  -28.4210 S   0  0  0  0  0  0  0  0  0  0  0  0
   -8.1473   24.1858  -31.5686 H   0  0  0  0  0  0  0  0  0  0  0  0
   -6.5538   24.5154  -32.3294 H   0  0  0  0  0  0  0  0  0  0  0  0
   -7.2214   22.8477  -32.3294 H   0  0  0  0  0  0  0  0  0  0  0  0
   -4.9932   22.4116  -29.6156 H   0  0  0  0  0  0  0  0  0  0  0  0
   -6.1361   21.4945  -30.6715 H   0  0  0  0  0  0  0  0  0  0  0  0
   -4.5739   23.6401  -31.9441 H   0  0  0  0  0  0  0  0  0  0  0  0
   -3.6959   22.1139  -31.3505 H   0  0  0  0  0  0  0  0  0  0  0  0
   -4.9670   22.4270  -33.7980 H   0  0  0  0  0  0  0  0  0  0  0  0
   -2.8146   21.1921  -33.5624 H   0  0  0  0  0  0  0  0  0  0  0  0
   -0.9520   19.7155  -34.2607 H   0  0  0  0  0  0  0  0  0  0  0  0
   -1.3885   17.2650  -34.4738 H   0  0  0  0  0  0  0  0  0  0  0  0
   -3.6318   16.3713  -33.9928 H   0  0  0  0  0  0  0  0  0  0  0  0
   -5.9205   15.8530  -32.3937 H   0  0  0  0  0  0  0  0  0  0  0  0
   -6.8013   16.0832  -33.9422 H   0  0  0  0  0  0  0  0  0  0  0  0
   -5.0126   15.9185  -33.9422 H   0  0  0  0  0  0  0  0  0  0  0  0
   -8.1833   16.9854  -32.7435 H   0  0  0  0  0  0  0  0  0  0  0  0
  -10.0143   18.5352  -32.1004 H   0  0  0  0  0  0  0  0  0  0  0  0
   -9.6397   20.9694  -31.8789 H   0  0  0  0  0  0  0  0  0  0  0  0
   -7.3575   21.8537  -32.3168 H   0  0  0  0  0  0  0  0  0  0  0  0
   -6.9882   25.2214  -29.4366 H   0  0  0  0  0  0  0  0  0  0  0  0
   -5.5202   24.3434  -28.8821 H   0  0  0  0  0  0  0  0  0  0  0  0
   -5.4822   25.4254  -31.6898 H   0  0  0  0  0  0  0  0  0  0  0  0
   -5.4007   26.6225  -30.3329 H   0  0  0  0  0  0  0  0  0  0  0  0
   -3.9884   25.2102  -28.4067 H   0  0  0  0  0  0  0  0  0  0  0  0
   -4.4406   23.7091  -29.3021 H   0  0  0  0  0  0  0  0  0  0  0  0
   -2.3847   22.0336  -29.8004 H   0  0  0  0  0  0  0  0  0  0  0  0
    0.0149   21.7228  -29.3107 H   0  0  0  0  0  0  0  0  0  0  0  0
    1.2333   23.8596  -28.2712 H   0  0  0  0  0  0  0  0  0  0  0  0
  1  2  1  0
  2  3  1  0
  3  4  1  0
  4  5  1  0
  5  6  1  0
  6  7  1  0
  7  8  2  0
  8  9  1  0
  9 10  2  0
 10 11  1  0
 11 12  2  0
 12 13  1  0
 13 14  1  0
 13 15  2  0
 15 16  1  0
 16 17  2  0
 17 18  1  0
 18 19  2  0
 19 20  1  0
  2 21  1  0
 21 22  1  0
 22 23  1  0
 23 24  1  0
 24 25  1  0
 25 26  2  0
 26 27  1  0
 27 28  2  0
 28 29  1  0
 20  6  2  0
 29 25  1  0
 12  7  1  0
 20 15  1  0
  1 30  1  0
  1 31  1  0
  1 32  1  0
  3 33  1  0
  3 34  1  0
  4 35  1  0
  4 36  1  0
  5 37  1  0
  8 38  1  0
  9 39  1  0
 10 40  1  0
 11 41  1  0
 14 42  1  0
 14 43  1  0
 14 44  1  0
 16 45  1  0
 17 46  1  0
 18 47  1  0
 19 48  1  0
 21 49  1  0
 21 50  1  0
 22 51  1  0
 22 52  1  0
 24 53  1  0
 24 54  1  0
 26 55  1  0
 27 56  1  0
 28 57  1  0
M  CHG  1  13   1
M  END
>  <smiles>  (16) 
CN(CCNc1c2ccccc2[n+](C)c2ccccc12)CCOCc1cccs1

>  <score_type>  (16) 
oracle

>  <origin>  (16) 
adg

>  <m_score__min__energy>  (16) 
-9.4199999999999999

>  <m_primary>  (16) 
energy

$$$$
16:0
     RDKit          3D

 67 69  0  0  0  0  0  0  0  0999 V2000
   -1.6070   24.8030  -27.1750 C   0  0  0  0  0  0  0  0  0  0  0  0
   -1.3340   25.2990  -28.6240 C   0  0  0  0  0  0  0  0  0  0  0  0
   -2.0910   24.5760  -29.4640 O   0  0  0  0  0  0  0  0  0  0  0  0
   -1.5990   23.3860  -29.8830 C   0  0  0  0  0  0  0  0  0  0  0  0
   -2.3260   22.1990  -29.3140 C   0  0  0  0  0  0  0  0  0  0  0  0
   -3.6330   22.2190  -29.2940 O   0  0  0  0  0  0  0  0  0  0  0  0
   -4.5130   22.6900  -28.4400 C   0  0  0  0  0  0  0  0  0  0  0  0
   -4.6150   24.1530  -28.2030 C   0  0  0  0  0  0  0  0  0  0  0  0
   -5.2970   24.9230  -29.2530 C   0  0  0  0  0  0  0  0  0  0  0  0
   -4.6880   24.6710  -30.5500 N   0  0  0  0  0  0  0  0  0  0  0  0
   -5.6930   24.5170  -31.5270 C   0  0  0  0  0  0  0  0  0  0  0  0
   -5.6410   23.2700  -32.3780 C   0  0  0  0  0  0  0  0  0  0  0  0
   -5.0390   22.1770  -31.6400 N   0  0  0  0  0  0  0  0  0  0  0  0
   -5.0310   20.9070  -32.2330 C   0  0  0  0  0  0  0  0  0  0  0  0
   -3.8250   20.5560  -32.8810 C   0  0  0  0  0  0  0  0  0  0  0  0
   -2.7760   21.4890  -32.8900 C   0  0  0  0  0  0  0  0  0  0  0  0
   -1.5730   21.2340  -33.5070 C   0  0  0  0  0  0  0  0  0  0  0  0
   -1.4190   20.0170  -34.1280 C   0  0  0  0  0  0  0  0  0  0  0  0
   -2.4620   19.0880  -34.1200 C   0  0  0  0  0  0  0  0  0  0  0  0
   -3.6690   19.3400  -33.5010 C   0  0  0  0  0  0  0  0  0  0  0  0
   -4.6850   18.4330  -33.5050 N   0  0  0  0  0  0  0  0  0  0  0  0
   -4.4890   17.1350  -34.1450 C   0  0  0  0  0  0  0  0  0  0  0  0
   -5.8600   18.7470  -32.8880 C   0  0  0  0  0  0  0  0  0  0  0  0
   -6.8810   17.8210  -32.8930 C   0  0  0  0  0  0  0  0  0  0  0  0
   -8.0740   18.1310  -32.2600 C   0  0  0  0  0  0  0  0  0  0  0  0
   -8.2130   19.3500  -31.6410 C   0  0  0  0  0  0  0  0  0  0  0  0
   -7.2170   20.3100  -31.6110 C   0  0  0  0  0  0  0  0  0  0  0  0
   -7.4050   21.5200  -30.9760 O   0  0  0  0  0  0  0  0  0  0  0  0
   -8.7170   22.0220  -30.8430 C   0  0  0  0  0  0  0  0  0  0  0  0
   -9.1050   22.9820  -31.9580 C   0  0  0  0  0  0  0  0  0  0  0  0
   -6.0350   19.9830  -32.2500 C   0  0  0  0  0  0  0  0  0  0  0  0
   -1.2056   25.5324  -26.4560 H   0  0  0  0  0  0  0  0  0  0  0  0
   -2.6911   24.6960  -27.0222 H   0  0  0  0  0  0  0  0  0  0  0  0
   -1.1174   23.8299  -27.0222 H   0  0  0  0  0  0  0  0  0  0  0  0
   -1.5966   26.3638  -28.7088 H   0  0  0  0  0  0  0  0  0  0  0  0
   -0.2692   25.1787  -28.8727 H   0  0  0  0  0  0  0  0  0  0  0  0
   -1.6731   23.3460  -30.9798 H   0  0  0  0  0  0  0  0  0  0  0  0
   -0.5586   23.3256  -29.5310 H   0  0  0  0  0  0  0  0  0  0  0  0
   -2.0236   21.3203  -29.9026 H   0  0  0  0  0  0  0  0  0  0  0  0
   -2.0405   22.1921  -28.2517 H   0  0  0  0  0  0  0  0  0  0  0  0
   -5.5017   22.3558  -28.7875 H   0  0  0  0  0  0  0  0  0  0  0  0
   -4.1564   22.3037  -27.4738 H   0  0  0  0  0  0  0  0  0  0  0  0
   -5.1636   24.3054  -27.2618 H   0  0  0  0  0  0  0  0  0  0  0  0
   -3.5804   24.5261  -28.1818 H   0  0  0  0  0  0  0  0  0  0  0  0
   -6.3562   24.6280  -29.2875 H   0  0  0  0  0  0  0  0  0  0  0  0
   -5.2079   25.9947  -29.0215 H   0  0  0  0  0  0  0  0  0  0  0  0
   -3.9430   23.9720  -30.5470 H   0  0  0  0  0  0  0  0  0  0  0  0
   -6.6630   24.5238  -31.0083 H   0  0  0  0  0  0  0  0  0  0  0  0
   -5.5354   25.3479  -32.2304 H   0  0  0  0  0  0  0  0  0  0  0  0
   -6.6632   22.9891  -32.6715 H   0  0  0  0  0  0  0  0  0  0  0  0
   -5.0327   23.4739  -33.2715 H   0  0  0  0  0  0  0  0  0  0  0  0
   -4.6340   22.3830  -30.6880 H   0  0  0  0  0  0  0  0  0  0  0  0
   -2.9208   22.4564  -32.3868 H   0  0  0  0  0  0  0  0  0  0  0  0
   -0.7626   21.9778  -33.5036 H   0  0  0  0  0  0  0  0  0  0  0  0
   -0.4720   19.7744  -34.6324 H   0  0  0  0  0  0  0  0  0  0  0  0
   -2.3160   18.1217  -34.6249 H   0  0  0  0  0  0  0  0  0  0  0  0
   -4.3719   16.3597  -33.3735 H   0  0  0  0  0  0  0  0  0  0  0  0
   -5.3618   16.8997  -34.7718 H   0  0  0  0  0  0  0  0  0  0  0  0
   -3.5856   17.1679  -34.7718 H   0  0  0  0  0  0  0  0  0  0  0  0
   -6.7506   16.8496  -33.3924 H   0  0  0  0  0  0  0  0  0  0  0  0
   -8.9026   17.4076  -32.2530 H   0  0  0  0  0  0  0  0  0  0  0  0
   -9.1675   19.5747  -31.1425 H   0  0  0  0  0  0  0  0  0  0  0  0
   -9.4184   21.1747  -30.8508 H   0  0  0  0  0  0  0  0  0  0  0  0
   -8.7591   22.5831  -29.8978 H   0  0  0  0  0  0  0  0  0  0  0  0
   -9.4833   23.9179  -31.5210 H   0  0  0  0  0  0  0  0  0  0  0  0
   -8.2234   23.1976  -32.5795 H   0  0  0  0  0  0  0  0  0  0  0  0
   -9.8888   22.5245  -32.5795 H   0  0  0  0  0  0  0  0  0  0  0  0
  1  2  1  0
  2  3  1  0
  3  4  1  0
  4  5  1  0
  5  6  1  0
  6  7  1  0
  7  8  1  0
  8  9  1  0
  9 10  1  0
 10 11  1  0
 11 12  1  0
 12 13  1  0
 13 14  1  0
 14 15  2  0
 15 16  1  0
 16 17  2  0
 17 18  1  0
 18 19  2  0
 19 20  1  0
 20 21  2  0
 21 22  1  0
 21 23  1  0
 23 24  2  0
 24 25  1  0
 25 26  2  0
 26 27  1  0
 27 28  1  0
 28 29  1  0
 29 30  1  0
 27 31  2  0
 31 14  1  0
 20 15  1  0
 31 23  1  0
  1 32  1  0
  1 33  1  0
  1 34  1  0
  2 35  1  0
  2 36  1  0
  4 37  1  0
  4 38  1  0
  5 39  1  0
  5 40  1  0
  7 41  1  0
  7 42  1  0
  8 43  1  0
  8 44  1  0
  9 45  1  0
  9 46  1  0
 10 47  1  0
 11 48  1  0
 11 49  1  0
 12 50  1  0
 12 51  1  0
 13 52  1  0
 16 53  1  0
 17 54  1  0
 18 55  1  0
 19 56  1  0
 22 57  1  0
 22 58  1  0
 22 59  1  0
 24 60  1  0
 25 61  1  0
 26 62  1  0
 29 63  1  0
 29 64  1  0
 30 65  1  0
 30 66  1  0
 30 67  1  0
M  CHG  1  21   1
M  END
>  <smiles>  (17) 
CCOCCOCCCNCCNc1c2ccccc2[n+](C)c2cccc(OCC)c12

>  <score_type>  (17) 
oracle

>  <origin>  (17) 
adg

>  <m_score__min__energy>  (17) 
-8.4199999999999999

>  <m_primary>  (17) 
energy

$$$$
17:0
     RDKit          3D

 30 29  0  0  0  0  0  0  0  0999 V2000
   -9.4870   21.5710  -30.8540 C   0  0  0  0  0  0  0  0  0  0  0  0
   -8.5880   21.5520  -31.8470 C   0  0  0  0  0  0  0  0  0  0  0  0
   -8.3770   20.3690  -32.7190 C   0  0  0  0  0  0  0  0  0  0  0  0
   -7.0780   19.7530  -32.5620 N   0  0  0  0  0  0  0  0  0  0  0  0
   -6.2020   20.5980  -31.8270 C   0  0  0  0  0  0  0  0  0  0  0  0
   -5.1450   21.2710  -32.6550 C   0  0  0  0  0  0  0  0  0  0  0  0
   -6.4790   19.4500  -33.8450 C   0  0  0  0  0  0  0  0  0  0  0  0
   -6.1150   17.9840  -33.9910 C   0  0  0  0  0  0  0  0  0  0  0  0
   -7.3100   18.4670  -31.9070 C   0  0  0  0  0  0  0  0  0  0  0  0
   -8.7460   18.1850  -31.6190 C   0  0  0  0  0  0  0  0  0  0  0  0
   -9.6049   22.4733  -30.2360 H   0  0  0  0  0  0  0  0  0  0  0  0
  -10.1073   20.6843  -30.6566 H   0  0  0  0  0  0  0  0  0  0  0  0
   -7.9800   22.4515  -32.0239 H   0  0  0  0  0  0  0  0  0  0  0  0
   -9.1470   19.6205  -32.4805 H   0  0  0  0  0  0  0  0  0  0  0  0
   -8.4409   20.7218  -33.7589 H   0  0  0  0  0  0  0  0  0  0  0  0
   -6.8055   21.3782  -31.3402 H   0  0  0  0  0  0  0  0  0  0  0  0
   -5.6736   19.9526  -31.1099 H   0  0  0  0  0  0  0  0  0  0  0  0
   -4.4047   21.7424  -31.9919 H   0  0  0  0  0  0  0  0  0  0  0  0
   -4.6457   20.5242  -33.2898 H   0  0  0  0  0  0  0  0  0  0  0  0
   -5.6105   22.0394  -33.2898 H   0  0  0  0  0  0  0  0  0  0  0  0
   -7.1933   19.7157  -34.6382 H   0  0  0  0  0  0  0  0  0  0  0  0
   -5.5489   20.0321  -33.9227 H   0  0  0  0  0  0  0  0  0  0  0  0
   -6.0030   17.5330  -32.9940 H   0  0  0  0  0  0  0  0  0  0  0  0
   -6.9107   17.4618  -34.5424 H   0  0  0  0  0  0  0  0  0  0  0  0
   -5.1674   17.8946  -34.5424 H   0  0  0  0  0  0  0  0  0  0  0  0
   -6.9253   17.6708  -32.5613 H   0  0  0  0  0  0  0  0  0  0  0  0
   -6.7917   18.5047  -30.9375 H   0  0  0  0  0  0  0  0  0  0  0  0
   -8.9025   18.1543  -30.5306 H   0  0  0  0  0  0  0  0  0  0  0  0
   -9.3703   18.9777  -32.0570 H   0  0  0  0  0  0  0  0  0  0  0  0
   -9.0242   17.2151  -32.0570 H   0  0  0  0  0  0  0  0  0  0  0  0
  1  2  2  0
  2  3  1  0
  3  4  1  0
  4  5  1  0
  5  6  1  0
  4  7  1  0
  7  8  1  0
  4  9  1  0
  9 10  1  0
  1 11  1  0
  1 12  1  0
  2 13  1  0
  3 14  1  0
  3 15  1  0
  5 16  1  0
  5 17  1  0
  6 18  1  0
  6 19  1  0
  6 20  1  0
  7 21  1  0
  7 22  1  0
  8 23  1  0
  8 24  1  0
  8 25  1  0
  9 26  1  0
  9 27  1  0
 10 28  1  0
 10 29  1  0
 10 30  1  0
M  CHG  1   4   1
M  END
>  <smiles>  (18) 
C=CC[N+](CC)(CC)CC

>  <score_type>  (18) 
oracle

>  <origin>  (18) 
adg

>  <m_score__min__energy>  (18) 
-3.1400000000000001

>  <m_primary>  (18) 
energy

$$$$
