0:0
     RDKit          3D

 52 54  0  0  0  0  0  0  0  0999 V2000
   -9.3600   19.2770  -32.5480 C   0  0  0  0  0  0  0  0  0  0  0  0
   -7.9190   19.1230  -32.1300 C   0  0  0  0  0  0  0  0  0  0  0  0
   -7.0410   20.0180  -32.7530 O   0  0  0  0  0  0  0  0  0  0  0  0
   -6.8340   21.3190  -32.3220 C   0  0  0  0  0  0  0  0  0  0  0  0
   -7.8650   22.1130  -31.8510 C   0  0  0  0  0  0  0  0  0  0  0  0
   -7.6750   23.4110  -31.4180 C   0  0  0  0  0  0  0  0  0  0  0  0
   -6.3970   23.9250  -31.4620 C   0  0  0  0  0  0  0  0  0  0  0  0
   -6.1190   25.3240  -31.0060 C   0  0  0  0  0  0  0  0  0  0  0  0
   -5.9880   25.3070  -29.4980 C   0  0  0  0  0  0  0  0  0  0  0  0
   -5.0900   24.3100  -29.0000 N   0  0  0  0  0  0  0  0  0  0  0  0
   -3.7800   24.1510  -29.5260 C   0  0  0  0  0  0  0  0  0  0  0  0
   -3.4630   24.9540  -30.4650 O   0  0  0  0  0  0  0  0  0  0  0  0
   -2.8350   23.1530  -29.0510 C   0  0  0  0  0  0  0  0  0  0  0  0
   -1.4720   23.2450  -29.2190 C   0  0  0  0  0  0  0  0  0  0  0  0
   -0.6330   22.2740  -28.7490 C   0  0  0  0  0  0  0  0  0  0  0  0
   -1.1400   21.1940  -28.1030 C   0  0  0  0  0  0  0  0  0  0  0  0
   -2.4970   21.0410  -27.9010 C   0  0  0  0  0  0  0  0  0  0  0  0
   -3.3150   22.0440  -28.3900 C   0  0  0  0  0  0  0  0  0  0  0  0
   -3.0700   19.9400  -27.2360 N   0  0  0  0  0  0  0  0  0  0  0  0
   -2.3020   18.8890  -26.7170 C   0  0  0  0  0  0  0  0  0  0  0  0
   -2.7320   18.2960  -25.6690 O   0  0  0  0  0  0  0  0  0  0  0  0
   -1.0090   18.4260  -27.3160 C   0  0  0  0  0  0  0  0  0  0  0  0
   -0.0050   19.9500  -27.5060 S   0  0  0  0  0  0  0  0  0  0  0  0
   -5.3750   23.1260  -31.9320 C   0  0  0  0  0  0  0  0  0  0  0  0
   -5.5450   21.8370  -32.3670 C   0  0  0  0  0  0  0  0  0  0  0  0
   -4.5450   21.0260  -32.8390 O   0  0  0  0  0  0  0  0  0  0  0  0
   -3.3550   20.7060  -32.1670 C   0  0  0  0  0  0  0  0  0  0  0  0
   -2.2000   21.5080  -32.6670 C   0  0  0  0  0  0  0  0  0  0  0  0
   -9.9961   19.3450  -31.6531 H   0  0  0  0  0  0  0  0  0  0  0  0
   -9.4720   20.1922  -33.1479 H   0  0  0  0  0  0  0  0  0  0  0  0
   -9.6629   18.4061  -33.1479 H   0  0  0  0  0  0  0  0  0  0  0  0
   -7.8568   19.2793  -31.0429 H   0  0  0  0  0  0  0  0  0  0  0  0
   -7.6083   18.1126  -32.4343 H   0  0  0  0  0  0  0  0  0  0  0  0
   -8.8807   21.6919  -31.8200 H   0  0  0  0  0  0  0  0  0  0  0  0
   -8.5172   24.0152  -31.0497 H   0  0  0  0  0  0  0  0  0  0  0  0
   -5.1834   25.6850  -31.4580 H   0  0  0  0  0  0  0  0  0  0  0  0
   -6.9356   25.9948  -31.3111 H   0  0  0  0  0  0  0  0  0  0  0  0
   -5.6248   26.2927  -29.1718 H   0  0  0  0  0  0  0  0  0  0  0  0
   -6.9833   25.0662  -29.0962 H   0  0  0  0  0  0  0  0  0  0  0  0
   -5.3740   23.6650  -28.2310 H   0  0  0  0  0  0  0  0  0  0  0  0
   -1.0501   24.1163  -29.7413 H   0  0  0  0  0  0  0  0  0  0  0  0
    0.4533   22.3681  -28.8944 H   0  0  0  0  0  0  0  0  0  0  0  0
   -4.4013   21.9513  -28.2438 H   0  0  0  0  0  0  0  0  0  0  0  0
   -4.1050   19.8960  -27.1240 H   0  0  0  0  0  0  0  0  0  0  0  0
   -0.5062   17.7121  -26.6471 H   0  0  0  0  0  0  0  0  0  0  0  0
   -1.1587   17.9064  -28.2739 H   0  0  0  0  0  0  0  0  0  0  0  0
   -4.3603   23.5498  -31.9594 H   0  0  0  0  0  0  0  0  0  0  0  0
   -3.4882   20.9055  -31.0935 H   0  0  0  0  0  0  0  0  0  0  0  0
   -3.1362   19.6435  -32.3489 H   0  0  0  0  0  0  0  0  0  0  0  0
   -1.6308   21.9032  -31.8127 H   0  0  0  0  0  0  0  0  0  0  0  0
   -1.5467   20.8682  -33.2784 H   0  0  0  0  0  0  0  0  0  0  0  0
   -2.5712   22.3437  -33.2784 H   0  0  0  0  0  0  0  0  0  0  0  0
  1  2  1  0
  2  3  1  0
  3  4  1  0
  4  5  2  0
  5  6  1  0
  6  7  2  0
  7  8  1  0
  8  9  1  0
  9 10  1  0
 10 11  1  0
 11 12  2  0
 11 13  1  0
 13 14  2  0
 14 15  1  0
 15 16  2  0
 16 17  1  0
 17 18  2  0
 17 19  1  0
 19 20  1  0
 20 21  2  0
 20 22  1  0
 22 23  1  0
  7 24  1  0
 24 25  2  0
 25 26  1  0
 26 27  1  0
 27 28  1  0
 25  4  1  0
 18 13  1  0
 23 16  1  0
  1 29  1  0
  1 30  1  0
  1 31  1  0
  2 32  1  0
  2 33  1  0
  5 34  1  0
  6 35  1  0
  8 36  1  0
  8 37  1  0
  9 38  1  0
  9 39  1  0
 10 40  1  0
 14 41  1  0
 15 42  1  0
 18 43  1  0
 19 44  1  0
 22 45  1  0
 22 46  1  0
 24 47  1  0
 27 48  1  0
 27 49  1  0
 28 50  1  0
 28 51  1  0
 28 52  1  0
M  END
>  <smiles>  (1) 
CCOc1ccc(CCNC(=O)c2ccc3c(c2)NC(=O)CS3)cc1OCC

>  <score_type>  (1) 
oracle

>  <origin>  (1) 
adg

>  <m_score__min__energy>  (1) 
-8.7300000000000004

>  <m_primary>  (1) 
energy

$$$$
1:0
     RDKit          3D

 46 48  0  0  0  0  0  0  0  0999 V2000
   -1.3500   25.9830  -26.7040 C   0  0  0  0  0  0  0  0  0  0  0  0
   -0.9280   26.3720  -28.1160 C   0  0  0  0  0  0  0  0  0  0  0  0
   -1.3910   25.2860  -28.9750 N   0  0  0  0  0  0  0  0  0  0  0  0
   -1.9560   24.2110  -28.2550 C   0  0  0  0  0  0  0  0  0  0  0  0
   -2.4530   23.0280  -28.9940 C   0  0  0  0  0  0  0  0  0  0  0  0
   -2.4550   23.2030  -30.4440 N   0  0  0  0  0  0  0  0  0  0  0  0
   -3.5010   22.5410  -31.1440 C   0  0  0  0  0  0  0  0  0  0  0  0
   -4.7310   23.2120  -31.1530 C   0  0  0  0  0  0  0  0  0  0  0  0
   -5.8460   22.6400  -31.7810 C   0  0  0  0  0  0  0  0  0  0  0  0
   -5.7360   21.4390  -32.3840 N   0  0  0  0  0  0  0  0  0  0  0  0
   -6.8430   20.8070  -33.0750 C   0  0  0  0  0  0  0  0  0  0  0  0
   -4.5430   20.7690  -32.3870 C   0  0  0  0  0  0  0  0  0  0  0  0
   -4.4020   19.5440  -33.0070 C   0  0  0  0  0  0  0  0  0  0  0  0
   -3.2030   18.8490  -33.0410 C   0  0  0  0  0  0  0  0  0  0  0  0
   -2.1270   19.4390  -32.4180 C   0  0  0  0  0  0  0  0  0  0  0  0
   -2.2200   20.6610  -31.7860 C   0  0  0  0  0  0  0  0  0  0  0  0
   -0.6200   21.3700  -31.0400 Br  0  0  0  0  0  0  0  0  0  0  0  0
   -3.4190   21.3300  -31.7610 C   0  0  0  0  0  0  0  0  0  0  0  0
   -7.0990   23.4150  -31.7100 C   0  0  0  0  0  0  0  0  0  0  0  0
   -7.2400   24.0220  -30.3190 C   0  0  0  0  0  0  0  0  0  0  0  0
   -6.1810   25.0570  -30.0460 C   0  0  0  0  0  0  0  0  0  0  0  0
   -4.8910   24.5300  -30.5490 C   0  0  0  0  0  0  0  0  0  0  0  0
   -3.8550   25.2390  -30.4630 O   0  0  0  0  0  0  0  0  0  0  0  0
   -0.7451   26.5406  -25.9738 H   0  0  0  0  0  0  0  0  0  0  0  0
   -2.4135   26.2242  -26.5596 H   0  0  0  0  0  0  0  0  0  0  0  0
   -1.1960   24.9035  -26.5596 H   0  0  0  0  0  0  0  0  0  0  0  0
   -1.3986   27.3218  -28.4099 H   0  0  0  0  0  0  0  0  0  0  0  0
    0.1599   26.5163  -28.1915 H   0  0  0  0  0  0  0  0  0  0  0  0
   -2.0020   25.6700  -29.7360 H   0  0  0  0  0  0  0  0  0  0  0  0
   -1.1862   23.8529  -27.5556 H   0  0  0  0  0  0  0  0  0  0  0  0
   -2.8651   24.6428  -27.8111 H   0  0  0  0  0  0  0  0  0  0  0  0
   -1.8109   22.1694  -28.7482 H   0  0  0  0  0  0  0  0  0  0  0  0
   -3.4974   22.8708  -28.6865 H   0  0  0  0  0  0  0  0  0  0  0  0
   -1.7350   23.7770  -30.9420 H   0  0  0  0  0  0  0  0  0  0  0  0
   -7.5522   20.4021  -32.3380 H   0  0  0  0  0  0  0  0  0  0  0  0
   -7.3536   21.5497  -33.7056 H   0  0  0  0  0  0  0  0  0  0  0  0
   -6.4630   19.9897  -33.7056 H   0  0  0  0  0  0  0  0  0  0  0  0
   -5.2809   19.0990  -33.4964 H   0  0  0  0  0  0  0  0  0  0  0  0
   -3.1159   17.8734  -33.5416 H   0  0  0  0  0  0  0  0  0  0  0  0
   -1.1586   18.9173  -32.4244 H   0  0  0  0  0  0  0  0  0  0  0  0
   -7.0766   24.2187  -32.4607 H   0  0  0  0  0  0  0  0  0  0  0  0
   -7.9534   22.7517  -31.9101 H   0  0  0  0  0  0  0  0  0  0  0  0
   -8.2293   24.4957  -30.2367 H   0  0  0  0  0  0  0  0  0  0  0  0
   -7.1237   23.2138  -29.5819 H   0  0  0  0  0  0  0  0  0  0  0  0
   -6.4306   25.9937  -30.5659 H   0  0  0  0  0  0  0  0  0  0  0  0
   -6.1164   25.2649  -28.9678 H   0  0  0  0  0  0  0  0  0  0  0  0
  1  2  1  0
  2  3  1  0
  3  4  1  0
  4  5  1  0
  5  6  1  0
  6  7  1  0
  7  8  2  0
  8  9  1  0
  9 10  2  0
 10 11  1  0
 10 12  1  0
 12 13  2  0
 13 14  1  0
 14 15  2  0
 15 16  1  0
 16 17  1  0
 16 18  2  0
  9 19  1  0
 19 20  1  0
 20 21  1  0
 21 22  1  0
 22 23  2  0
 18  7  1  0
 22  8  1  0
 18 12  1  0
  1 24  1  0
  1 25  1  0
  1 26  1  0
  2 27  1  0
  2 28  1  0
  3 29  1  0
  4 30  1  0
  4 31  1  0
  5 32  1  0
  5 33  1  0
  6 34  1  0
 11 35  1  0
 11 36  1  0
 11 37  1  0
 13 38  1  0
 14 39  1  0
 15 40  1  0
 19 41  1  0
 19 42  1  0
 20 43  1  0
 20 44  1  0
 21 45  1  0
 21 46  1  0
M  CHG  1  10   1
M  END
>  <smiles>  (2) 
CCNCCNc1c2c([n+](C)c3cccc(Br)c13)CCCC2=O

>  <score_type>  (2) 
oracle

>  <origin>  (2) 
adg

>  <m_score__min__energy>  (2) 
-9.0899999999999999

>  <m_primary>  (2) 
energy

$$$$
2:0
     RDKit          3D

 54 57  0  0  0  0  0  0  0  0999 V2000
   -6.7540   23.7420  -30.1500 C   0  0  0  0  0  0  0  0  0  0  0  0
   -6.0480   24.4520  -31.0240 C   0  0  0  0  0  0  0  0  0  0  0  0
   -5.1510   25.5700  -30.5430 C   0  0  0  0  0  0  0  0  0  0  0  0
   -3.8730   25.0870  -30.4690 O   0  0  0  0  0  0  0  0  0  0  0  0
   -3.4860   24.5280  -29.2840 C   0  0  0  0  0  0  0  0  0  0  0  0
   -2.8460   23.1670  -29.4870 C   0  0  0  0  0  0  0  0  0  0  0  0
   -3.7890   22.1570  -29.5280 O   0  0  0  0  0  0  0  0  0  0  0  0
   -3.7150   21.4770  -30.7190 C   0  0  0  0  0  0  0  0  0  0  0  0
   -3.6390   22.3050  -31.9520 C   0  0  0  0  0  0  0  0  0  0  0  0
   -4.5940   21.9300  -32.9800 N   0  0  0  0  0  0  0  0  0  0  0  0
   -5.1680   20.6340  -33.0740 C   0  0  0  0  0  0  0  0  0  0  0  0
   -6.4810   20.3500  -32.7750 C   0  0  0  0  0  0  0  0  0  0  0  0
   -7.3230   21.3380  -32.3480 C   0  0  0  0  0  0  0  0  0  0  0  0
   -8.6330   21.0940  -32.0390 C   0  0  0  0  0  0  0  0  0  0  0  0
   -9.1800   19.8320  -32.1430 C   0  0  0  0  0  0  0  0  0  0  0  0
   -8.3420   18.8240  -32.5740 C   0  0  0  0  0  0  0  0  0  0  0  0
   -7.0180   19.0720  -32.8850 C   0  0  0  0  0  0  0  0  0  0  0  0
   -6.2600   18.0530  -33.2940 N   0  0  0  0  0  0  0  0  0  0  0  0
   -6.8480   16.7320  -33.3990 C   0  0  0  0  0  0  0  0  0  0  0  0
   -4.9730   18.2770  -33.5970 C   0  0  0  0  0  0  0  0  0  0  0  0
   -4.0510   17.3930  -34.0220 N   0  0  0  0  0  0  0  0  0  0  0  0
   -2.8910   18.0500  -34.2040 C   0  0  0  0  0  0  0  0  0  0  0  0
   -1.6440   17.6200  -34.6240 C   0  0  0  0  0  0  0  0  0  0  0  0
   -0.5930   18.5060  -34.7290 C   0  0  0  0  0  0  0  0  0  0  0  0
   -0.8290   19.8280  -34.4020 C   0  0  0  0  0  0  0  0  0  0  0  0
   -2.0550   20.2930  -33.9800 C   0  0  0  0  0  0  0  0  0  0  0  0
   -3.0880   19.3930  -33.8830 C   0  0  0  0  0  0  0  0  0  0  0  0
   -4.3980   19.5470  -33.5000 C   0  0  0  0  0  0  0  0  0  0  0  0
   -7.4063   22.9288  -30.5011 H   0  0  0  0  0  0  0  0  0  0  0  0
   -6.6860   23.9675  -29.0755 H   0  0  0  0  0  0  0  0  0  0  0  0
   -6.1164   24.2260  -32.0984 H   0  0  0  0  0  0  0  0  0  0  0  0
   -5.1914   26.4112  -31.2506 H   0  0  0  0  0  0  0  0  0  0  0  0
   -5.4817   25.9264  -29.5563 H   0  0  0  0  0  0  0  0  0  0  0  0
   -2.7593   25.1943  -28.7962 H   0  0  0  0  0  0  0  0  0  0  0  0
   -4.3815   24.3957  -28.6590 H   0  0  0  0  0  0  0  0  0  0  0  0
   -2.2895   23.1732  -30.4358 H   0  0  0  0  0  0  0  0  0  0  0  0
   -2.1755   22.9743  -28.6365 H   0  0  0  0  0  0  0  0  0  0  0  0
   -2.8169   20.8427  -30.6865 H   0  0  0  0  0  0  0  0  0  0  0  0
   -4.6624   20.9237  -30.7978 H   0  0  0  0  0  0  0  0  0  0  0  0
   -3.8236   23.3536  -31.6755 H   0  0  0  0  0  0  0  0  0  0  0  0
   -2.6372   22.1470  -32.3780 H   0  0  0  0  0  0  0  0  0  0  0  0
   -4.8810   22.6410  -33.6930 H   0  0  0  0  0  0  0  0  0  0  0  0
   -6.9348   22.3625  -32.2496 H   0  0  0  0  0  0  0  0  0  0  0  0
   -9.2669   21.9261  -31.6986 H   0  0  0  0  0  0  0  0  0  0  0  0
  -10.2339   19.6384  -31.8942 H   0  0  0  0  0  0  0  0  0  0  0  0
   -8.7357   17.8016  -32.6722 H   0  0  0  0  0  0  0  0  0  0  0  0
   -7.0273   16.3293  -32.3912 H   0  0  0  0  0  0  0  0  0  0  0  0
   -7.8020   16.7974  -33.9427 H   0  0  0  0  0  0  0  0  0  0  0  0
   -6.1609   16.0670  -33.9427 H   0  0  0  0  0  0  0  0  0  0  0  0
   -4.1500   16.3680  -34.2000 H   0  0  0  0  0  0  0  0  0  0  0  0
   -1.4901   16.5605  -34.8766 H   0  0  0  0  0  0  0  0  0  0  0  0
    0.4007   18.1718  -35.0621 H   0  0  0  0  0  0  0  0  0  0  0  0
    0.0026   20.5435  -34.4827 H   0  0  0  0  0  0  0  0  0  0  0  0
   -2.2024   21.3536  -33.7282 H   0  0  0  0  0  0  0  0  0  0  0  0
  1  2  2  0
  2  3  1  0
  3  4  1  0
  4  5  1  0
  5  6  1  0
  6  7  1  0
  7  8  1  0
  8  9  1  0
  9 10  1  0
 10 11  1  0
 11 12  2  0
 12 13  1  0
 13 14  2  0
 14 15  1  0
 15 16  2  0
 16 17  1  0
 17 18  2  0
 18 19  1  0
 18 20  1  0
 20 21  1  0
 21 22  1  0
 22 23  2  0
 23 24  1  0
 24 25  2  0
 25 26  1  0
 26 27  2  0
 27 28  1  0
 28 11  1  0
 17 12  1  0
 28 20  2  0
 27 22  1  0
  1 29  1  0
  1 30  1  0
  2 31  1  0
  3 32  1  0
  3 33  1  0
  5 34  1  0
  5 35  1  0
  6 36  1  0
  6 37  1  0
  8 38  1  0
  8 39  1  0
  9 40  1  0
  9 41  1  0
 10 42  1  0
 13 43  1  0
 14 44  1  0
 15 45  1  0
 16 46  1  0
 19 47  1  0
 19 48  1  0
 19 49  1  0
 21 50  1  0
 23 51  1  0
 24 52  1  0
 25 53  1  0
 26 54  1  0
M  CHG  1  18   1
M  END
>  <smiles>  (3) 
C=CCOCCOCCNc1c2ccccc2[n+](C)c2[nH]c3ccccc3c12

>  <score_type>  (3) 
oracle

>  <origin>  (3) 
adg

>  <m_score__min__energy>  (3) 
-9.4100000000000001

>  <m_primary>  (3) 
energy

$$$$
3:0
     RDKit          3D

 67 69  0  0  0  0  0  0  0  0999 V2000
   -0.0550   29.2140  -26.4770 C   0  0  0  0  0  0  0  0  0  0  0  0
   -0.8610   28.3260  -25.5880 C   0  0  0  0  0  0  0  0  0  0  0  0
   -0.5120   26.9190  -25.6670 N   0  0  0  0  0  0  0  0  0  0  0  0
   -0.8100   26.2670  -24.3830 C   0  0  0  0  0  0  0  0  0  0  0  0
   -0.1220   26.9700  -23.2280 C   0  0  0  0  0  0  0  0  0  0  0  0
   -1.3780   26.2330  -26.6360 C   0  0  0  0  0  0  0  0  0  0  0  0
   -0.9050   26.4080  -28.0510 C   0  0  0  0  0  0  0  0  0  0  0  0
   -1.6740   25.6780  -28.9170 O   0  0  0  0  0  0  0  0  0  0  0  0
   -1.8990   24.3680  -28.5930 C   0  0  0  0  0  0  0  0  0  0  0  0
   -1.9910   23.4250  -29.7590 C   0  0  0  0  0  0  0  0  0  0  0  0
   -3.3860   23.5300  -30.3370 C   0  0  0  0  0  0  0  0  0  0  0  0
   -3.8600   24.8890  -30.4530 N   0  0  0  0  0  0  0  0  0  0  0  0
   -5.2300   24.8260  -30.9320 C   0  0  0  0  0  0  0  0  0  0  0  0
   -5.7900   23.4390  -30.9530 C   0  0  0  0  0  0  0  0  0  0  0  0
   -5.6200   22.9080  -32.2970 N   0  0  0  0  0  0  0  0  0  0  0  0
   -5.7850   21.5210  -32.5990 C   0  0  0  0  0  0  0  0  0  0  0  0
   -7.0020   20.8770  -32.5050 C   0  0  0  0  0  0  0  0  0  0  0  0
   -8.0780   21.6410  -32.0990 C   0  0  0  0  0  0  0  0  0  0  0  0
   -9.3230   21.0670  -31.9780 C   0  0  0  0  0  0  0  0  0  0  0  0
   -9.4800   19.7440  -32.2620 C   0  0  0  0  0  0  0  0  0  0  0  0
   -8.3790   18.9850  -32.6730 C   0  0  0  0  0  0  0  0  0  0  0  0
   -7.1230   19.5220  -32.8050 C   0  0  0  0  0  0  0  0  0  0  0  0
   -6.0600   18.7790  -33.1990 N   0  0  0  0  0  0  0  0  0  0  0  0
   -6.2130   17.3790  -33.5210 C   0  0  0  0  0  0  0  0  0  0  0  0
   -4.8630   19.3990  -33.2920 C   0  0  0  0  0  0  0  0  0  0  0  0
   -3.7270   18.7350  -33.6750 C   0  0  0  0  0  0  0  0  0  0  0  0
   -2.4840   19.3630  -33.7700 C   0  0  0  0  0  0  0  0  0  0  0  0
   -2.3600   20.7020  -33.4750 C   0  0  0  0  0  0  0  0  0  0  0  0
   -0.8120   21.5180  -33.5870 Cl  0  0  0  0  0  0  0  0  0  0  0  0
   -3.4930   21.3790  -33.0910 C   0  0  0  0  0  0  0  0  0  0  0  0
   -4.7100   20.7570  -32.9990 C   0  0  0  0  0  0  0  0  0  0  0  0
    0.5581   29.8894  -25.8622 H   0  0  0  0  0  0  0  0  0  0  0  0
    0.6005   28.5998  -27.1119 H   0  0  0  0  0  0  0  0  0  0  0  0
   -0.7296   29.8071  -27.1119 H   0  0  0  0  0  0  0  0  0  0  0  0
   -0.7174   28.6579  -24.5491 H   0  0  0  0  0  0  0  0  0  0  0  0
   -1.9047   28.4091  -25.9254 H   0  0  0  0  0  0  0  0  0  0  0  0
   -1.8971   26.2864  -24.2164 H   0  0  0  0  0  0  0  0  0  0  0  0
   -0.4383   25.2326  -24.4274 H   0  0  0  0  0  0  0  0  0  0  0  0
   -0.5080   26.5756  -22.2764 H   0  0  0  0  0  0  0  0  0  0  0  0
    0.9623   26.7939  -23.2851 H   0  0  0  0  0  0  0  0  0  0  0  0
   -0.3215   28.0503  -23.2851 H   0  0  0  0  0  0  0  0  0  0  0  0
   -1.3924   25.1590  -26.3986 H   0  0  0  0  0  0  0  0  0  0  0  0
   -2.3821   26.6759  -26.5608 H   0  0  0  0  0  0  0  0  0  0  0  0
   -0.9679   27.4720  -28.3228 H   0  0  0  0  0  0  0  0  0  0  0  0
    0.1343   26.0545  -28.1204 H   0  0  0  0  0  0  0  0  0  0  0  0
   -1.0744   24.0311  -27.9477 H   0  0  0  0  0  0  0  0  0  0  0  0
   -2.8827   24.3408  -28.1014 H   0  0  0  0  0  0  0  0  0  0  0  0
   -1.2489   23.7018  -30.5223 H   0  0  0  0  0  0  0  0  0  0  0  0
   -1.7891   22.3939  -29.4332 H   0  0  0  0  0  0  0  0  0  0  0  0
   -3.3831   23.0755  -31.3387 H   0  0  0  0  0  0  0  0  0  0  0  0
   -4.0635   23.0088  -29.6446 H   0  0  0  0  0  0  0  0  0  0  0  0
   -3.7600   25.4390  -29.5970 H   0  0  0  0  0  0  0  0  0  0  0  0
   -5.8578   25.4454  -30.2746 H   0  0  0  0  0  0  0  0  0  0  0  0
   -5.2277   25.1905  -31.9699 H   0  0  0  0  0  0  0  0  0  0  0  0
   -5.2515   22.8076  -30.2309 H   0  0  0  0  0  0  0  0  0  0  0  0
   -6.8550   23.4517  -30.6781 H   0  0  0  0  0  0  0  0  0  0  0  0
   -5.3660   23.5180  -33.1080 H   0  0  0  0  0  0  0  0  0  0  0  0
   -7.9402   22.7085  -31.8722 H   0  0  0  0  0  0  0  0  0  0  0  0
  -10.1836   21.6711  -31.6549 H   0  0  0  0  0  0  0  0  0  0  0  0
  -10.4700   19.2736  -32.1684 H   0  0  0  0  0  0  0  0  0  0  0  0
   -8.5255   17.9184  -32.8987 H   0  0  0  0  0  0  0  0  0  0  0  0
   -6.2769   16.7939  -32.5917 H   0  0  0  0  0  0  0  0  0  0  0  0
   -7.1321   17.2361  -34.1082 H   0  0  0  0  0  0  0  0  0  0  0  0
   -5.3464   17.0410  -34.1082 H   0  0  0  0  0  0  0  0  0  0  0  0
   -3.7975   17.6643  -33.9172 H   0  0  0  0  0  0  0  0  0  0  0  0
   -1.6007   18.7862  -34.0816 H   0  0  0  0  0  0  0  0  0  0  0  0
   -3.4204   22.4500  -32.8509 H   0  0  0  0  0  0  0  0  0  0  0  0
  1  2  1  0
  2  3  1  0
  3  4  1  0
  4  5  1  0
  3  6  1  0
  6  7  1  0
  7  8  1  0
  8  9  1  0
  9 10  1  0
 10 11  1  0
 11 12  1  0
 12 13  1  0
 13 14  1  0
 14 15  1  0
 15 16  1  0
 16 17  2  0
 17 18  1  0
 18 19  2  0
 19 20  1  0
 20 21  2  0
 21 22  1  0
 22 23  2  0
 23 24  1  0
 23 25  1  0
 25 26  2  0
 26 27  1  0
 27 28  2  0
 28 29  1  0
 28 30  1  0
 30 31  2  0
 31 16  1  0
 22 17  1  0
 31 25  1  0
  1 32  1  0
  1 33  1  0
  1 34  1  0
  2 35  1  0
  2 36  1  0
  4 37  1  0
  4 38  1  0
  5 39  1  0
  5 40  1  0
  5 41  1  0
  6 42  1  0
  6 43  1  0
  7 44  1  0
  7 45  1  0
  9 46  1  0
  9 47  1  0
 10 48  1  0
 10 49  1  0
 11 50  1  0
 11 51  1  0
 12 52  1  0
 13 53  1  0
 13 54  1  0
 14 55  1  0
 14 56  1  0
 15 57  1  0
 18 58  1  0
 19 59  1  0
 20 60  1  0
 21 61  1  0
 24 62  1  0
 24 63  1  0
 24 64  1  0
 26 65  1  0
 27 66  1  0
 30 67  1  0
M  CHG  1  23   1
M  END
>  <smiles>  (4) 
CCN(CC)CCOCCCNCCNc1c2ccccc2[n+](C)c2ccc(Cl)cc12

>  <score_type>  (4) 
oracle

>  <origin>  (4) 
adg

>  <m_score__min__energy>  (4) 
-9.9399999999999995

>  <m_primary>  (4) 
energy

$$$$
5:0
     RDKit          3D

 50 51  0  0  1  0  0  0  0  0999 V2000
   -2.3610   19.5280  -26.7100 C   0  0  0  0  0  0  0  0  0  0  0  0
   -1.9130   20.1530  -28.0120 C   0  0  0  0  0  0  0  0  0  0  0  0
   -1.3260   21.5150  -27.6800 C   0  0  0  0  0  0  0  0  0  0  0  0
   -2.1890   22.5760  -28.1220 N   0  0  0  0  0  0  0  0  0  0  0  0
   -1.8800   23.7810  -27.4010 C   0  0  0  0  0  0  0  0  0  0  0  0
   -2.7340   24.9060  -27.9220 C   0  0  0  0  0  0  0  0  0  0  0  0
   -2.6840   24.8910  -29.3360 O   0  0  0  0  0  0  0  0  0  0  0  0
   -3.7620   24.3190  -29.9990 C   0  0  0  0  0  0  0  0  0  0  0  0
   -5.0370   24.8140  -29.8470 C   0  0  0  0  0  0  0  0  0  0  0  0
   -6.1190   24.2600  -30.4980 C   0  0  0  0  0  0  0  0  0  0  0  0
   -5.9660   23.1610  -31.3480 C   0  0  0  0  0  0  0  0  0  0  0  0
   -7.1490   22.6420  -31.9820 C   0  0  0  0  0  0  0  0  0  0  0  0
   -7.4530   21.3690  -32.1240 C   0  0  0  0  0  0  0  0  0  0  0  0
   -6.4720   20.2940  -32.4050 C   0  0  0  0  0  0  0  0  0  0  0  0
   -7.2460   19.2290  -33.1880 C   0  0  0  0  0  0  0  0  0  0  0  0
   -8.3090   18.5660  -32.3440 C   0  0  0  0  0  0  0  0  0  0  0  0
   -9.1060   19.5260  -31.5190 C   0  0  0  0  0  0  0  0  0  0  0  0
   -8.8630   20.9340  -32.0000 C   0  0  0  0  0  0  0  0  0  0  0  0
   -9.8000   21.7140  -32.2850 O   0  0  0  0  0  0  0  0  0  0  0  0
   -4.6990   22.6770  -31.4940 C   0  0  0  0  0  0  0  0  0  0  0  0
   -3.6080   23.2290  -30.8440 C   0  0  0  0  0  0  0  0  0  0  0  0
   -2.3160   22.7430  -30.9880 O   0  0  0  0  0  0  0  0  0  0  0  0
   -2.0830   21.5300  -31.7010 C   0  0  0  0  0  0  0  0  0  0  0  0
   -1.9494   20.1022  -25.8669 H   0  0  0  0  0  0  0  0  0  0  0  0
   -3.4597   19.5368  -26.6580 H   0  0  0  0  0  0  0  0  0  0  0  0
   -1.9998   18.4903  -26.6580 H   0  0  0  0  0  0  0  0  0  0  0  0
   -1.1505   19.5208  -28.4905 H   0  0  0  0  0  0  0  0  0  0  0  0
   -2.7589   20.2523  -28.7081 H   0  0  0  0  0  0  0  0  0  0  0  0
   -1.1921   21.5919  -26.5909 H   0  0  0  0  0  0  0  0  0  0  0  0
   -0.3606   21.6133  -28.1981 H   0  0  0  0  0  0  0  0  0  0  0  0
   -2.0890   22.7820  -29.1430 H   0  0  0  0  0  0  0  0  0  0  0  0
   -2.0833   23.6309  -26.3304 H   0  0  0  0  0  0  0  0  0  0  0  0
   -0.8176   24.0307  -27.5391 H   0  0  0  0  0  0  0  0  0  0  0  0
   -3.7725   24.7695  -27.5861 H   0  0  0  0  0  0  0  0  0  0  0  0
   -2.3612   25.8687  -27.5422 H   0  0  0  0  0  0  0  0  0  0  0  0
   -5.1980   25.6782  -29.1858 H   0  0  0  0  0  0  0  0  0  0  0  0
   -7.1198   24.6904  -30.3458 H   0  0  0  0  0  0  0  0  0  0  0  0
   -7.8637   23.3750  -32.3843 H   0  0  0  0  0  0  0  0  0  0  0  0
   -5.6373   20.6828  -33.0067 H   0  0  0  0  0  0  0  0  0  0  0  0
   -6.0375   19.8859  -31.4806 H   0  0  0  0  0  0  0  0  0  0  0  0
   -7.7270   19.7054  -34.0550 H   0  0  0  0  0  0  0  0  0  0  0  0
   -6.5319   18.4545  -33.5045 H   0  0  0  0  0  0  0  0  0  0  0  0
   -8.9972   18.0274  -33.0120 H   0  0  0  0  0  0  0  0  0  0  0  0
   -7.7913   17.8932  -31.6445 H   0  0  0  0  0  0  0  0  0  0  0  0
  -10.1758   19.2874  -31.6122 H   0  0  0  0  0  0  0  0  0  0  0  0
   -8.7990   19.4430  -30.4660 H   0  0  0  0  0  0  0  0  0  0  0  0
   -4.5374   21.8128  -32.1551 H   0  0  0  0  0  0  0  0  0  0  0  0
   -1.9253   20.7090  -30.9861 H   0  0  0  0  0  0  0  0  0  0  0  0
   -2.9540   21.3033  -32.3334 H   0  0  0  0  0  0  0  0  0  0  0  0
   -1.1900   21.6422  -32.3334 H   0  0  0  0  0  0  0  0  0  0  0  0
  1  2  1  0
  2  3  1  0
  3  4  1  0
  4  5  1  0
  5  6  1  0
  6  7  1  0
  7  8  1  0
  8  9  2  0
  9 10  1  0
 10 11  2  0
 11 12  1  0
 12 13  2  0
 13 14  1  0
 14 15  1  0
 15 16  1  0
 16 17  1  0
 17 18  1  0
 18 19  2  0
 11 20  1  0
 20 21  2  0
 21 22  1  0
 22 23  1  0
 21  8  1  0
 18 13  1  0
  1 24  1  0
  1 25  1  0
  1 26  1  0
  2 27  1  0
  2 28  1  0
  3 29  1  0
  3 30  1  0
  4 31  1  0
  5 32  1  0
  5 33  1  0
  6 34  1  0
  6 35  1  0
  9 36  1  0
 10 37  1  0
 12 38  1  0
 14 39  1  0
 14 40  1  0
 15 41  1  0
 15 42  1  0
 16 43  1  0
 16 44  1  0
 17 45  1  0
 17 46  1  0
 20 47  1  0
 23 48  1  0
 23 49  1  0
 23 50  1  0
M  END
>  <smiles>  (5) 
CCCNCCOc1ccc(C=C2CCCCC2=O)cc1OC

>  <score_type>  (5) 
oracle

>  <origin>  (5) 
adg

>  <m_score__min__energy>  (5) 
-8.4700000000000006

>  <m_primary>  (5) 
energy

$$$$
6:0
     RDKit          3D

 59 61  0  0  0  0  0  0  0  0999 V2000
   -1.4450   26.0140  -26.5860 C   0  0  0  0  0  0  0  0  0  0  0  0
   -0.8450   26.6860  -27.8050 C   0  0  0  0  0  0  0  0  0  0  0  0
   -1.2720   26.0440  -28.9600 O   0  0  0  0  0  0  0  0  0  0  0  0
   -1.3100   24.6690  -28.7330 C   0  0  0  0  0  0  0  0  0  0  0  0
   -2.6620   24.0930  -29.1590 C   0  0  0  0  0  0  0  0  0  0  0  0
   -3.3900   24.9850  -29.8860 O   0  0  0  0  0  0  0  0  0  0  0  0
   -4.7470   24.8330  -29.6960 C   0  0  0  0  0  0  0  0  0  0  0  0
   -5.5460   25.3070  -30.8500 C   0  0  0  0  0  0  0  0  0  0  0  0
   -5.8810   24.3960  -31.8270 O   0  0  0  0  0  0  0  0  0  0  0  0
   -6.6180   23.2700  -31.8480 C   0  0  0  0  0  0  0  0  0  0  0  0
   -7.9190   23.1310  -31.4080 C   0  0  0  0  0  0  0  0  0  0  0  0
   -8.6250   21.9550  -31.4510 C   0  0  0  0  0  0  0  0  0  0  0  0
   -8.0120   20.8400  -31.9610 C   0  0  0  0  0  0  0  0  0  0  0  0
   -8.7460   19.6720  -31.9890 C   0  0  0  0  0  0  0  0  0  0  0  0
   -8.1430   18.5540  -32.4920 C   0  0  0  0  0  0  0  0  0  0  0  0
   -6.8620   18.6150  -32.9440 C   0  0  0  0  0  0  0  0  0  0  0  0
   -6.1410   19.7860  -32.9100 C   0  0  0  0  0  0  0  0  0  0  0  0
   -6.7140   20.9350  -32.4110 C   0  0  0  0  0  0  0  0  0  0  0  0
   -5.9990   22.1120  -32.3700 C   0  0  0  0  0  0  0  0  0  0  0  0
   -4.6020   22.2430  -32.8480 C   0  0  0  0  0  0  0  0  0  0  0  0
   -3.7320   21.2060  -32.4160 N   0  0  0  0  0  0  0  0  0  0  0  0
   -3.1090   21.4690  -31.1530 C   0  0  0  0  0  0  0  0  0  0  0  0
   -1.6570   21.7910  -31.2230 C   0  0  0  0  0  0  0  0  0  0  0  0
   -0.9470   20.7870  -31.9520 N   0  0  0  0  0  0  0  0  0  0  0  0
    0.0530   20.1600  -31.1420 C   0  0  0  0  0  0  0  0  0  0  0  0
   -1.7640   19.8470  -32.6590 C   0  0  0  0  0  0  0  0  0  0  0  0
   -2.8610   20.6360  -33.3840 C   0  0  0  0  0  0  0  0  0  0  0  0
   -1.0347   26.4736  -25.6747 H   0  0  0  0  0  0  0  0  0  0  0  0
   -2.5378   26.1385  -26.5993 H   0  0  0  0  0  0  0  0  0  0  0  0
   -1.1979   24.9422  -26.5993 H   0  0  0  0  0  0  0  0  0  0  0  0
   -1.1634   27.7385  -27.8344 H   0  0  0  0  0  0  0  0  0  0  0  0
    0.2519   26.6295  -27.7451 H   0  0  0  0  0  0  0  0  0  0  0  0
   -0.5109   24.1841  -29.3130 H   0  0  0  0  0  0  0  0  0  0  0  0
   -1.1659   24.4815  -27.6587 H   0  0  0  0  0  0  0  0  0  0  0  0
   -2.4888   23.1945  -29.7695 H   0  0  0  0  0  0  0  0  0  0  0  0
   -3.2307   23.8519  -28.2488 H   0  0  0  0  0  0  0  0  0  0  0  0
   -4.9618   23.7663  -29.5345 H   0  0  0  0  0  0  0  0  0  0  0  0
   -5.0294   25.4431  -28.8253 H   0  0  0  0  0  0  0  0  0  0  0  0
   -6.4852   25.7169  -30.4502 H   0  0  0  0  0  0  0  0  0  0  0  0
   -4.8879   26.0253  -31.3608 H   0  0  0  0  0  0  0  0  0  0  0  0
   -8.4216   24.0190  -30.9970 H   0  0  0  0  0  0  0  0  0  0  0  0
   -9.6609   21.9081  -31.0840 H   0  0  0  0  0  0  0  0  0  0  0  0
   -9.7814   19.6420  -31.6189 H   0  0  0  0  0  0  0  0  0  0  0  0
   -8.6946   17.6031  -32.5314 H   0  0  0  0  0  0  0  0  0  0  0  0
   -6.3910   17.7061  -33.3465 H   0  0  0  0  0  0  0  0  0  0  0  0
   -5.1059   19.8049  -33.2817 H   0  0  0  0  0  0  0  0  0  0  0  0
   -4.6140   22.2455  -33.9479 H   0  0  0  0  0  0  0  0  0  0  0  0
   -4.2112   23.1780  -32.4201 H   0  0  0  0  0  0  0  0  0  0  0  0
   -3.6257   22.3218  -30.6885 H   0  0  0  0  0  0  0  0  0  0  0  0
   -3.1902   20.5395  -30.5704 H   0  0  0  0  0  0  0  0  0  0  0  0
   -1.5269   22.7608  -31.7255 H   0  0  0  0  0  0  0  0  0  0  0  0
   -1.2561   21.8321  -30.1995 H   0  0  0  0  0  0  0  0  0  0  0  0
   -0.1880   20.3111  -30.0794 H   0  0  0  0  0  0  0  0  0  0  0  0
    0.0806   19.0826  -31.3621 H   0  0  0  0  0  0  0  0  0  0  0  0
    1.0348   20.6045  -31.3621 H   0  0  0  0  0  0  0  0  0  0  0  0
   -1.1540   19.2955  -33.3896 H   0  0  0  0  0  0  0  0  0  0  0  0
   -2.2080   19.1213  -31.9617 H   0  0  0  0  0  0  0  0  0  0  0  0
   -2.4046   21.4351  -33.9866 H   0  0  0  0  0  0  0  0  0  0  0  0
   -3.4272   19.9653  -34.0470 H   0  0  0  0  0  0  0  0  0  0  0  0
  1  2  1  0
  2  3  1  0
  3  4  1  0
  4  5  1  0
  5  6  1  0
  6  7  1  0
  7  8  1  0
  8  9  1  0
  9 10  1  0
 10 11  2  0
 11 12  1  0
 12 13  2  0
 13 14  1  0
 14 15  2  0
 15 16  1  0
 16 17  2  0
 17 18  1  0
 18 19  2  0
 19 20  1  0
 20 21  1  0
 21 22  1  0
 22 23  1  0
 23 24  1  0
 24 25  1  0
 24 26  1  0
 26 27  1  0
 19 10  1  0
 27 21  1  0
 18 13  1  0
  1 28  1  0
  1 29  1  0
  1 30  1  0
  2 31  1  0
  2 32  1  0
  4 33  1  0
  4 34  1  0
  5 35  1  0
  5 36  1  0
  7 37  1  0
  7 38  1  0
  8 39  1  0
  8 40  1  0
 11 41  1  0
 12 42  1  0
 14 43  1  0
 15 44  1  0
 16 45  1  0
 17 46  1  0
 20 47  1  0
 20 48  1  0
 22 49  1  0
 22 50  1  0
 23 51  1  0
 23 52  1  0
 25 53  1  0
 25 54  1  0
 25 55  1  0
 26 56  1  0
 26 57  1  0
 27 58  1  0
 27 59  1  0
M  END
>  <smiles>  (6) 
CCOCCOCCOc1ccc2ccccc2c1CN1CCN(C)CC1

>  <score_type>  (6) 
oracle

>  <origin>  (6) 
adg

>  <m_score__min__energy>  (6) 
-9.4700000000000006

>  <m_primary>  (6) 
energy

$$$$
7:0
     RDKit          3D

 32 32  0  0  1  0  0  0  0  0999 V2000
   -1.5050   24.9860  -28.5180 C   0  0  0  0  0  0  0  0  0  0  0  0
   -2.0020   23.8720  -28.9970 C   0  0  0  0  0  0  0  0  0  0  0  0
   -3.0090   23.7800  -30.0850 C   0  0  0  0  0  0  0  0  0  0  0  0
   -3.5560   25.0650  -30.3870 O   0  0  0  0  0  0  0  0  0  0  0  0
   -4.6340   25.0690  -31.2070 N   0  0  0  0  0  0  0  0  0  0  0  0
   -5.7310   24.5280  -30.8490 C   0  0  0  0  0  0  0  0  0  0  0  0
   -6.4770   25.2640  -29.7550 C   0  0  0  0  0  0  0  0  0  0  0  0
   -6.3210   23.3190  -31.3630 C   0  0  0  0  0  0  0  0  0  0  0  0
   -5.6950   22.3450  -32.0910 C   0  0  0  0  0  0  0  0  0  0  0  0
   -6.3810   21.2170  -32.5340 C   0  0  0  0  0  0  0  0  0  0  0  0
   -7.6820   21.0090  -32.2790 N   0  0  0  0  0  0  0  0  0  0  0  0
   -8.4050   19.8560  -32.7250 C   0  0  0  0  0  0  0  0  0  0  0  0
   -8.7400   18.8880  -31.5980 C   0  0  0  0  0  0  0  0  0  0  0  0
   -8.3210   21.9570  -31.5610 C   0  0  0  0  0  0  0  0  0  0  0  0
   -7.6800   23.0860  -31.1060 C   0  0  0  0  0  0  0  0  0  0  0  0
   -0.7609   24.9530  -27.7086 H   0  0  0  0  0  0  0  0  0  0  0  0
   -1.8319   25.9541  -28.9254 H   0  0  0  0  0  0  0  0  0  0  0  0
   -1.6445   22.9289  -28.5579 H   0  0  0  0  0  0  0  0  0  0  0  0
   -2.5281   23.3729  -30.9867 H   0  0  0  0  0  0  0  0  0  0  0  0
   -3.8249   23.1214  -29.7524 H   0  0  0  0  0  0  0  0  0  0  0  0
   -6.1244   24.9161  -28.7728 H   0  0  0  0  0  0  0  0  0  0  0  0
   -6.2933   26.3445  -29.8489 H   0  0  0  0  0  0  0  0  0  0  0  0
   -7.5549   25.0658  -29.8489 H   0  0  0  0  0  0  0  0  0  0  0  0
   -4.6273   22.4549  -32.3316 H   0  0  0  0  0  0  0  0  0  0  0  0
   -5.8325   20.4636  -33.1185 H   0  0  0  0  0  0  0  0  0  0  0  0
   -9.3441   20.1900  -33.1903 H   0  0  0  0  0  0  0  0  0  0  0  0
   -7.7604   19.3199  -33.4371 H   0  0  0  0  0  0  0  0  0  0  0  0
   -8.5697   19.3802  -30.6291 H   0  0  0  0  0  0  0  0  0  0  0  0
   -9.7949   18.5860  -31.6754 H   0  0  0  0  0  0  0  0  0  0  0  0
   -8.0974   17.9986  -31.6754 H   0  0  0  0  0  0  0  0  0  0  0  0
   -9.3885   21.8224  -31.3324 H   0  0  0  0  0  0  0  0  0  0  0  0
   -8.2490   23.8264  -30.5246 H   0  0  0  0  0  0  0  0  0  0  0  0
  1  2  2  0
  2  3  1  0
  3  4  1  0
  4  5  1  0
  5  6  2  0
  6  7  1  0
  6  8  1  0
  8  9  2  0
  9 10  1  0
 10 11  2  0
 11 12  1  0
 12 13  1  0
 11 14  1  0
 14 15  2  0
 15  8  1  0
  1 16  1  0
  1 17  1  0
  2 18  1  0
  3 19  1  0
  3 20  1  0
  7 21  1  0
  7 22  1  0
  7 23  1  0
  9 24  1  0
 10 25  1  0
 12 26  1  0
 12 27  1  0
 13 28  1  0
 13 29  1  0
 13 30  1  0
 14 31  1  0
 15 32  1  0
M  CHG  1  11   1
M  END
>  <smiles>  (7) 
C=CCON=C(C)c1cc[n+](CC)cc1

>  <score_type>  (7) 
oracle

>  <origin>  (7) 
adg

>  <m_score__min__energy>  (7) 
-6.5

>  <m_primary>  (7) 
energy

$$$$
8:0
     RDKit          3D

 64 67  0  0  0  0  0  0  0  0999 V2000
   -5.0880   23.3000  -29.5270 C   0  0  0  0  0  0  0  0  0  0  0  0
   -4.7660   23.9980  -30.8370 C   0  0  0  0  0  0  0  0  0  0  0  0
   -4.1210   23.0750  -31.6380 O   0  0  0  0  0  0  0  0  0  0  0  0
   -4.9200   22.7330  -32.6860 N   0  0  0  0  0  0  0  0  0  0  0  0
   -5.5000   21.4660  -32.6830 C   0  0  0  0  0  0  0  0  0  0  0  0
   -6.8720   21.4240  -32.3860 C   0  0  0  0  0  0  0  0  0  0  0  0
   -7.5360   22.6230  -32.1220 C   0  0  0  0  0  0  0  0  0  0  0  0
   -8.8780   22.6770  -31.8170 C   0  0  0  0  0  0  0  0  0  0  0  0
   -9.5840   21.5000  -31.7720 C   0  0  0  0  0  0  0  0  0  0  0  0
   -8.9170   20.3050  -32.0360 C   0  0  0  0  0  0  0  0  0  0  0  0
   -7.5770   20.2510  -32.3400 C   0  0  0  0  0  0  0  0  0  0  0  0
   -6.9630   19.0840  -32.5840 N   0  0  0  0  0  0  0  0  0  0  0  0
   -7.6360   17.8180  -32.5630 C   0  0  0  0  0  0  0  0  0  0  0  0
   -5.6390   19.0840  -32.8750 C   0  0  0  0  0  0  0  0  0  0  0  0
   -5.0360   17.8700  -33.1160 C   0  0  0  0  0  0  0  0  0  0  0  0
   -3.7010   17.8250  -33.4100 C   0  0  0  0  0  0  0  0  0  0  0  0
   -2.9950   19.0010  -33.4570 C   0  0  0  0  0  0  0  0  0  0  0  0
   -3.5550   20.2530  -33.2200 C   0  0  0  0  0  0  0  0  0  0  0  0
   -2.7150   21.3700  -33.3270 N   0  0  0  0  0  0  0  0  0  0  0  0
   -1.2570   21.1100  -33.4840 C   0  0  0  0  0  0  0  0  0  0  0  0
   -0.5320   21.1840  -32.1790 C   0  0  0  0  0  0  0  0  0  0  0  0
   -1.2270   21.7400  -31.0270 C   0  0  0  0  0  0  0  0  0  0  0  0
   -1.3600   21.0920  -29.7980 N   0  0  0  0  0  0  0  0  0  0  0  0
   -0.8010   22.0220  -28.7910 C   0  0  0  0  0  0  0  0  0  0  0  0
   -0.6000   19.8730  -29.6380 C   0  0  0  0  0  0  0  0  0  0  0  0
   -0.8210   19.3510  -28.2390 C   0  0  0  0  0  0  0  0  0  0  0  0
   -1.5020   20.1970  -27.4040 O   0  0  0  0  0  0  0  0  0  0  0  0
   -2.7440   20.5970  -27.8200 C   0  0  0  0  0  0  0  0  0  0  0  0
   -2.7000   20.7930  -29.3350 C   0  0  0  0  0  0  0  0  0  0  0  0
   -4.8970   20.2680  -32.9270 C   0  0  0  0  0  0  0  0  0  0  0  0
   -4.7910   23.9437  -28.6859 H   0  0  0  0  0  0  0  0  0  0  0  0
   -6.1686   23.1016  -29.4732 H   0  0  0  0  0  0  0  0  0  0  0  0
   -4.5375   22.3492  -29.4732 H   0  0  0  0  0  0  0  0  0  0  0  0
   -5.6931   24.3371  -31.3223 H   0  0  0  0  0  0  0  0  0  0  0  0
   -4.1323   24.8808  -30.6663 H   0  0  0  0  0  0  0  0  0  0  0  0
   -5.1420   23.3970  -33.4770 H   0  0  0  0  0  0  0  0  0  0  0  0
   -6.9647   23.5623  -32.1590 H   0  0  0  0  0  0  0  0  0  0  0  0
   -9.3719   23.6388  -31.6145 H   0  0  0  0  0  0  0  0  0  0  0  0
  -10.6574   21.5003  -31.5317 H   0  0  0  0  0  0  0  0  0  0  0  0
   -9.4869   19.3648  -31.9996 H   0  0  0  0  0  0  0  0  0  0  0  0
   -7.8010   17.5077  -31.5206 H   0  0  0  0  0  0  0  0  0  0  0  0
   -8.6047   17.9091  -33.0761 H   0  0  0  0  0  0  0  0  0  0  0  0
   -7.0186   17.0660  -33.0761 H   0  0  0  0  0  0  0  0  0  0  0  0
   -5.6245   16.9417  -33.0724 H   0  0  0  0  0  0  0  0  0  0  0  0
   -3.2024   16.8641  -33.6052 H   0  0  0  0  0  0  0  0  0  0  0  0
   -1.9225   18.9511  -33.6963 H   0  0  0  0  0  0  0  0  0  0  0  0
   -2.9070   22.3700  -33.3250 H   0  0  0  0  0  0  0  0  0  0  0  0
   -1.1192   20.1055  -33.9105 H   0  0  0  0  0  0  0  0  0  0  0  0
   -0.8431   21.8838  -34.1473 H   0  0  0  0  0  0  0  0  0  0  0  0
   -0.2346   20.1585  -31.9145 H   0  0  0  0  0  0  0  0  0  0  0  0
    0.2870   21.8939  -32.3668 H   0  0  0  0  0  0  0  0  0  0  0  0
   -0.7212   22.6917  -30.8069 H   0  0  0  0  0  0  0  0  0  0  0  0
   -2.2670   21.7166  -31.3844 H   0  0  0  0  0  0  0  0  0  0  0  0
   -1.0260   21.6477  -27.7814 H   0  0  0  0  0  0  0  0  0  0  0  0
    0.2890   22.0920  -28.9217 H   0  0  0  0  0  0  0  0  0  0  0  0
   -1.2506   23.0174  -28.9217 H   0  0  0  0  0  0  0  0  0  0  0  0
   -0.9387   19.1257  -30.3707 H   0  0  0  0  0  0  0  0  0  0  0  0
    0.4695   20.0714  -29.8017 H   0  0  0  0  0  0  0  0  0  0  0  0
   -1.3902   18.4125  -28.3114 H   0  0  0  0  0  0  0  0  0  0  0  0
    0.1786   19.2241  -27.7978 H   0  0  0  0  0  0  0  0  0  0  0  0
   -3.4877   19.8275  -27.5655 H   0  0  0  0  0  0  0  0  0  0  0  0
   -3.0266   21.5369  -27.3233 H   0  0  0  0  0  0  0  0  0  0  0  0
   -3.0488   19.8714  -29.8240 H   0  0  0  0  0  0  0  0  0  0  0  0
   -3.3487   21.6441  -29.5896 H   0  0  0  0  0  0  0  0  0  0  0  0
  1  2  1  0
  2  3  1  0
  3  4  1  0
  4  5  1  0
  5  6  2  0
  6  7  1  0
  7  8  2  0
  8  9  1  0
  9 10  2  0
 10 11  1  0
 11 12  2  0
 12 13  1  0
 12 14  1  0
 14 15  2  0
 15 16  1  0
 16 17  2  0
 17 18  1  0
 18 19  1  0
 19 20  1  0
 20 21  1  0
 21 22  1  0
 22 23  1  0
 23 24  1  0
 23 25  1  0
 25 26  1  0
 26 27  1  0
 27 28  1  0
 28 29  1  0
 18 30  2  0
 30  5  1  0
 11  6  1  0
 30 14  1  0
 29 23  1  0
  1 31  1  0
  1 32  1  0
  1 33  1  0
  2 34  1  0
  2 35  1  0
  4 36  1  0
  7 37  1  0
  8 38  1  0
  9 39  1  0
 10 40  1  0
 13 41  1  0
 13 42  1  0
 13 43  1  0
 15 44  1  0
 16 45  1  0
 17 46  1  0
 19 47  1  0
 20 48  1  0
 20 49  1  0
 21 50  1  0
 21 51  1  0
 22 52  1  0
 22 53  1  0
 24 54  1  0
 24 55  1  0
 24 56  1  0
 25 57  1  0
 25 58  1  0
 26 59  1  0
 26 60  1  0
 28 61  1  0
 28 62  1  0
 29 63  1  0
 29 64  1  0
M  CHG  2  12   1  23   1
M  END
>  <smiles>  (8) 
CCONc1c2ccccc2[n+](C)c2cccc(NCCC[N+]3(C)CCOCC3)c12

>  <score_type>  (8) 
oracle

>  <origin>  (8) 
adg

>  <m_score__min__energy>  (8) 
-8.3399999999999999

>  <m_primary>  (8) 
energy

$$$$
9:0
     RDKit          3D

 39 40  0  0  0  0  0  0  0  0999 V2000
   -2.7010   23.3240  -29.9310 C   0  0  0  0  0  0  0  0  0  0  0  0
   -3.5030   24.5100  -29.4030 C   0  0  0  0  0  0  0  0  0  0  0  0
   -3.8610   25.3030  -30.4630 O   0  0  0  0  0  0  0  0  0  0  0  0
   -5.1730   25.7390  -30.4740 C   0  0  0  0  0  0  0  0  0  0  0  0
   -6.0580   24.7590  -29.7830 C   0  0  0  0  0  0  0  0  0  0  0  0
   -6.3700   23.6130  -30.7180 C   0  0  0  0  0  0  0  0  0  0  0  0
   -7.6430   23.1300  -30.7410 N   0  0  0  0  0  0  0  0  0  0  0  0
   -7.9760   22.1050  -31.5590 C   0  0  0  0  0  0  0  0  0  0  0  0
   -9.3710   21.5640  -31.5970 C   0  0  0  0  0  0  0  0  0  0  0  0
   -7.0110   21.5360  -32.3860 C   0  0  0  0  0  0  0  0  0  0  0  0
   -5.7200   22.0400  -32.3490 C   0  0  0  0  0  0  0  0  0  0  0  0
   -4.7730   21.4620  -33.1770 O   0  0  0  0  0  0  0  0  0  0  0  0
   -4.2510   20.2120  -32.8590 C   0  0  0  0  0  0  0  0  0  0  0  0
   -5.1570   19.0760  -33.0150 C   0  0  0  0  0  0  0  0  0  0  0  0
   -5.8330   18.5480  -31.9390 C   0  0  0  0  0  0  0  0  0  0  0  0
   -6.6740   17.4660  -32.2020 C   0  0  0  0  0  0  0  0  0  0  0  0
   -6.8070   16.9680  -33.4820 C   0  0  0  0  0  0  0  0  0  0  0  0
   -6.1090   17.5280  -34.5280 C   0  0  0  0  0  0  0  0  0  0  0  0
   -5.3110   18.5600  -34.2620 N   0  0  0  0  0  0  0  0  0  0  0  0
   -5.4490   23.0660  -31.5100 N   0  0  0  0  0  0  0  0  0  0  0  0
   -2.3073   22.7418  -29.0848 H   0  0  0  0  0  0  0  0  0  0  0  0
   -3.3528   22.6845  -30.5444 H   0  0  0  0  0  0  0  0  0  0  0  0
   -1.8648   23.6908  -30.5444 H   0  0  0  0  0  0  0  0  0  0  0  0
   -4.4059   24.1477  -28.8897 H   0  0  0  0  0  0  0  0  0  0  0  0
   -2.8953   25.0871  -28.6905 H   0  0  0  0  0  0  0  0  0  0  0  0
   -5.2359   26.7087  -29.9586 H   0  0  0  0  0  0  0  0  0  0  0  0
   -5.5039   25.8404  -31.5181 H   0  0  0  0  0  0  0  0  0  0  0  0
   -5.5486   24.3731  -28.8877 H   0  0  0  0  0  0  0  0  0  0  0  0
   -6.9940   25.2558  -29.4878 H   0  0  0  0  0  0  0  0  0  0  0  0
   -9.7373   21.4219  -30.5696 H   0  0  0  0  0  0  0  0  0  0  0  0
  -10.0252   22.2736  -32.1247 H   0  0  0  0  0  0  0  0  0  0  0  0
   -9.3757   20.5988  -32.1247 H   0  0  0  0  0  0  0  0  0  0  0  0
   -7.2681   20.7024  -33.0560 H   0  0  0  0  0  0  0  0  0  0  0  0
   -3.3793   20.0376  -33.5069 H   0  0  0  0  0  0  0  0  0  0  0  0
   -4.0156   20.2556  -31.7854 H   0  0  0  0  0  0  0  0  0  0  0  0
   -5.7165   18.9574  -30.9247 H   0  0  0  0  0  0  0  0  0  0  0  0
   -7.2382   17.0041  -31.3784 H   0  0  0  0  0  0  0  0  0  0  0  0
   -7.4770   16.1157  -33.6682 H   0  0  0  0  0  0  0  0  0  0  0  0
   -6.2074   17.1354  -35.5508 H   0  0  0  0  0  0  0  0  0  0  0  0
  1  2  1  0
  2  3  1  0
  3  4  1  0
  4  5  1  0
  5  6  1  0
  6  7  2  0
  7  8  1  0
  8  9  1  0
  8 10  2  0
 10 11  1  0
 11 12  1  0
 12 13  1  0
 13 14  1  0
 14 15  2  0
 15 16  1  0
 16 17  2  0
 17 18  1  0
 18 19  2  0
 11 20  2  0
 20  6  1  0
 19 14  1  0
  1 21  1  0
  1 22  1  0
  1 23  1  0
  2 24  1  0
  2 25  1  0
  4 26  1  0
  4 27  1  0
  5 28  1  0
  5 29  1  0
  9 30  1  0
  9 31  1  0
  9 32  1  0
 10 33  1  0
 13 34  1  0
 13 35  1  0
 15 36  1  0
 16 37  1  0
 17 38  1  0
 18 39  1  0
M  END
>  <smiles>  (9) 
CCOCCc1nc(C)cc(OCc2ccccn2)n1

>  <score_type>  (9) 
oracle

>  <origin>  (9) 
adg

>  <m_score__min__energy>  (9) 
-6.9100000000000001

>  <m_primary>  (9) 
energy

$$$$
10:0
     RDKit          3D

 38 40  0  0  0  0  0  0  0  0999 V2000
   -6.1780   17.0340  -31.8590 C   0  0  0  0  0  0  0  0  0  0  0  0
   -6.7770   17.0280  -33.2270 C   0  0  0  0  0  0  0  0  0  0  0  0
   -6.8560   18.2720  -33.8530 O   0  0  0  0  0  0  0  0  0  0  0  0
   -6.3240   19.4500  -33.3880 C   0  0  0  0  0  0  0  0  0  0  0  0
   -4.9730   19.7630  -33.4770 C   0  0  0  0  0  0  0  0  0  0  0  0
   -4.4770   20.9750  -32.9910 C   0  0  0  0  0  0  0  0  0  0  0  0
   -5.3230   21.9040  -32.4020 C   0  0  0  0  0  0  0  0  0  0  0  0
   -4.8610   23.0430  -31.9420 O   0  0  0  0  0  0  0  0  0  0  0  0
   -5.5850   23.9570  -31.3820 C   0  0  0  0  0  0  0  0  0  0  0  0
   -5.1430   25.2540  -30.8450 C   0  0  0  0  0  0  0  0  0  0  0  0
   -3.8720   25.3360  -30.3350 O   0  0  0  0  0  0  0  0  0  0  0  0
   -3.2750   24.5270  -29.4400 C   0  0  0  0  0  0  0  0  0  0  0  0
   -1.9490   24.2350  -29.2960 C   0  0  0  0  0  0  0  0  0  0  0  0
   -1.4560   23.3690  -28.3200 C   0  0  0  0  0  0  0  0  0  0  0  0
   -2.3220   22.7630  -27.4430 C   0  0  0  0  0  0  0  0  0  0  0  0
   -3.6500   23.0320  -27.5560 C   0  0  0  0  0  0  0  0  0  0  0  0
   -4.1250   23.8840  -28.5170 C   0  0  0  0  0  0  0  0  0  0  0  0
   -6.9560   23.6800  -31.2710 C   0  0  0  0  0  0  0  0  0  0  0  0
   -7.4950   22.4980  -31.7370 C   0  0  0  0  0  0  0  0  0  0  0  0
   -8.7250   22.2690  -31.6290 O   0  0  0  0  0  0  0  0  0  0  0  0
   -6.6600   21.5700  -32.3240 C   0  0  0  0  0  0  0  0  0  0  0  0
   -7.1690   20.3790  -32.7980 C   0  0  0  0  0  0  0  0  0  0  0  0
   -6.9809   17.0260  -31.1071 H   0  0  0  0  0  0  0  0  0  0  0  0
   -5.5470   16.1421  -31.7311 H   0  0  0  0  0  0  0  0  0  0  0  0
   -5.5649   17.9383  -31.7311 H   0  0  0  0  0  0  0  0  0  0  0  0
   -6.1673   16.3675  -33.8611 H   0  0  0  0  0  0  0  0  0  0  0  0
   -7.8151   16.6867  -33.1008 H   0  0  0  0  0  0  0  0  0  0  0  0
   -4.2814   19.0430  -33.9387 H   0  0  0  0  0  0  0  0  0  0  0  0
   -3.4027   21.1957  -33.0762 H   0  0  0  0  0  0  0  0  0  0  0  0
   -5.2174   25.9890  -31.6600 H   0  0  0  0  0  0  0  0  0  0  0  0
   -5.8000   25.4344  -29.9814 H   0  0  0  0  0  0  0  0  0  0  0  0
   -1.2329   24.7068  -29.9849 H   0  0  0  0  0  0  0  0  0  0  0  0
   -0.3759   23.1718  -28.2528 H   0  0  0  0  0  0  0  0  0  0  0  0
   -1.9502   22.0766  -26.6680 H   0  0  0  0  0  0  0  0  0  0  0  0
   -4.3573   22.5555  -26.8612 H   0  0  0  0  0  0  0  0  0  0  0  0
   -5.2073   24.0733  -28.5707 H   0  0  0  0  0  0  0  0  0  0  0  0
   -7.6173   24.4229  -30.8012 H   0  0  0  0  0  0  0  0  0  0  0  0
   -8.2444   20.1657  -32.7083 H   0  0  0  0  0  0  0  0  0  0  0  0
  1  2  1  0
  2  3  1  0
  3  4  1  0
  4  5  2  0
  5  6  1  0
  6  7  2  0
  7  8  1  0
  8  9  1  0
  9 10  1  0
 10 11  1  0
 11 12  1  0
 12 13  2  0
 13 14  1  0
 14 15  2  0
 15 16  1  0
 16 17  2  0
  9 18  2  0
 18 19  1  0
 19 20  2  0
 19 21  1  0
 21 22  2  0
 22  4  1  0
 21  7  1  0
 17 12  1  0
  1 23  1  0
  1 24  1  0
  1 25  1  0
  2 26  1  0
  2 27  1  0
  5 28  1  0
  6 29  1  0
 10 30  1  0
 10 31  1  0
 13 32  1  0
 14 33  1  0
 15 34  1  0
 16 35  1  0
 17 36  1  0
 18 37  1  0
 22 38  1  0
M  END
>  <smiles>  (10) 
CCOc1ccc2oc(COc3ccccc3)cc(=O)c2c1

>  <score_type>  (10) 
oracle

>  <origin>  (10) 
adg

>  <m_score__min__energy>  (10) 
-7.71

>  <m_primary>  (10) 
energy

$$$$
11:0
     RDKit          3D

 54 57  0  0  0  0  0  0  0  0999 V2000
   -0.8840   26.5310  -24.2510 C   0  0  0  0  0  0  0  0  0  0  0  0
   -0.8010   26.8360  -25.7050 C   0  0  0  0  0  0  0  0  0  0  0  0
   -1.6060   25.9360  -26.6010 C   0  0  0  0  0  0  0  0  0  0  0  0
   -0.9300   25.6740  -27.9270 C   0  0  0  0  0  0  0  0  0  0  0  0
   -1.8830   25.3430  -28.9780 N   0  0  0  0  0  0  0  0  0  0  0  0
   -2.9580   24.4860  -28.4720 C   0  0  0  0  0  0  0  0  0  0  0  0
   -2.3270   23.1700  -28.1220 C   0  0  0  0  0  0  0  0  0  0  0  0
   -1.7070   22.4660  -29.3100 C   0  0  0  0  0  0  0  0  0  0  0  0
   -2.3320   23.0340  -30.4950 N   0  0  0  0  0  0  0  0  0  0  0  0
   -2.7040   22.2280  -31.6010 C   0  0  0  0  0  0  0  0  0  0  0  0
   -3.9270   21.9940  -32.1750 C   0  0  0  0  0  0  0  0  0  0  0  0
   -5.2120   22.5190  -31.7750 C   0  0  0  0  0  0  0  0  0  0  0  0
   -6.4100   21.9700  -31.7210 C   0  0  0  0  0  0  0  0  0  0  0  0
   -6.8160   20.6740  -32.0450 C   0  0  0  0  0  0  0  0  0  0  0  0
   -8.1490   20.3580  -31.8890 C   0  0  0  0  0  0  0  0  0  0  0  0
   -8.6870   18.5890  -32.3360 Br  0  0  0  0  0  0  0  0  0  0  0  0
   -9.0570   21.2790  -31.4310 C   0  0  0  0  0  0  0  0  0  0  0  0
   -8.6770   22.5720  -31.1040 C   0  0  0  0  0  0  0  0  0  0  0  0
   -7.3440   22.8800  -31.2620 C   0  0  0  0  0  0  0  0  0  0  0  0
   -6.7700   24.0250  -31.0140 N   0  0  0  0  0  0  0  0  0  0  0  0
   -5.3840   23.9080  -31.3100 C   0  0  0  0  0  0  0  0  0  0  0  0
   -4.4770   24.7870  -31.2070 O   0  0  0  0  0  0  0  0  0  0  0  0
   -3.7620   21.1520  -33.2160 N   0  0  0  0  0  0  0  0  0  0  0  0
   -2.4660   20.8220  -33.3450 C   0  0  0  0  0  0  0  0  0  0  0  0
   -1.7500   20.0180  -34.2120 C   0  0  0  0  0  0  0  0  0  0  0  0
   -0.3900   19.8540  -34.1140 C   0  0  0  0  0  0  0  0  0  0  0  0
    0.2920   20.5340  -33.0930 C   0  0  0  0  0  0  0  0  0  0  0  0
   -0.3890   21.3500  -32.2030 C   0  0  0  0  0  0  0  0  0  0  0  0
   -1.7720   21.4890  -32.3370 C   0  0  0  0  0  0  0  0  0  0  0  0
   -0.6383   27.4337  -23.6724 H   0  0  0  0  0  0  0  0  0  0  0  0
   -1.9041   26.2027  -24.0029 H   0  0  0  0  0  0  0  0  0  0  0  0
   -0.1709   25.7311  -24.0029 H   0  0  0  0  0  0  0  0  0  0  0  0
   -1.1527   27.8673  -25.8558 H   0  0  0  0  0  0  0  0  0  0  0  0
    0.2509   26.6813  -25.9870 H   0  0  0  0  0  0  0  0  0  0  0  0
   -1.7588   24.9749  -26.0883 H   0  0  0  0  0  0  0  0  0  0  0  0
   -2.5597   26.4430  -26.8096 H   0  0  0  0  0  0  0  0  0  0  0  0
   -0.3740   26.5753  -28.2247 H   0  0  0  0  0  0  0  0  0  0  0  0
   -0.2589   24.8121  -27.7979 H   0  0  0  0  0  0  0  0  0  0  0  0
   -1.3300   24.8440  -29.7060 H   0  0  0  0  0  0  0  0  0  0  0  0
   -3.4150   24.9374  -27.5791 H   0  0  0  0  0  0  0  0  0  0  0  0
   -3.7513   24.3587  -29.2233 H   0  0  0  0  0  0  0  0  0  0  0  0
   -1.5412   23.3482  -27.3732 H   0  0  0  0  0  0  0  0  0  0  0  0
   -3.1261   22.5183  -27.7389 H   0  0  0  0  0  0  0  0  0  0  0  0
   -0.6211   22.6405  -29.3317 H   0  0  0  0  0  0  0  0  0  0  0  0
   -1.8657   21.3788  -29.2572 H   0  0  0  0  0  0  0  0  0  0  0  0
   -2.5360   24.0630  -30.5910 H   0  0  0  0  0  0  0  0  0  0  0  0
   -6.0954   19.9288  -32.4130 H   0  0  0  0  0  0  0  0  0  0  0  0
  -10.1112   20.9849  -31.3206 H   0  0  0  0  0  0  0  0  0  0  0  0
   -9.4026   23.3131  -30.7375 H   0  0  0  0  0  0  0  0  0  0  0  0
   -4.5000   20.7680  -33.8730 H   0  0  0  0  0  0  0  0  0  0  0  0
   -2.2903   19.4893  -35.0111 H   0  0  0  0  0  0  0  0  0  0  0  0
    0.1516   19.2056  -34.8185 H   0  0  0  0  0  0  0  0  0  0  0  0
    1.3817   20.4179  -32.9977 H   0  0  0  0  0  0  0  0  0  0  0  0
    0.1512   21.8793  -31.4043 H   0  0  0  0  0  0  0  0  0  0  0  0
  1  2  1  0
  2  3  1  0
  3  4  1  0
  4  5  1  0
  5  6  1  0
  6  7  1  0
  7  8  1  0
  8  9  1  0
  9 10  1  0
 10 11  2  0
 11 12  1  0
 12 13  2  0
 13 14  1  0
 14 15  2  0
 15 16  1  0
 15 17  1  0
 17 18  2  0
 18 19  1  0
 19 20  2  0
 20 21  1  0
 21 22  2  0
 11 23  1  0
 23 24  1  0
 24 25  2  0
 25 26  1  0
 26 27  2  0
 27 28  1  0
 28 29  2  0
 29 10  1  0
 21 12  1  0
 29 24  1  0
 19 13  1  0
  1 30  1  0
  1 31  1  0
  1 32  1  0
  2 33  1  0
  2 34  1  0
  3 35  1  0
  3 36  1  0
  4 37  1  0
  4 38  1  0
  5 39  1  0
  6 40  1  0
  6 41  1  0
  7 42  1  0
  7 43  1  0
  8 44  1  0
  8 45  1  0
  9 46  1  0
 14 47  1  0
 17 48  1  0
 18 49  1  0
 23 50  1  0
 25 51  1  0
 26 52  1  0
 27 53  1  0
 28 54  1  0
M  END
>  <smiles>  (11) 
CCCCNCCCNc1c(C2=c3cc(Br)ccc3=NC2=O)[nH]c2ccccc12

>  <score_type>  (11) 
oracle

>  <origin>  (11) 
adg

>  <m_score__min__energy>  (11) 
-10.220000000000001

>  <m_primary>  (11) 
energy

$$$$
12:0
     RDKit          3D

 54 56  0  0  0  0  0  0  0  0999 V2000
   -1.3910   21.9200  -31.5950 C   0  0  0  0  0  0  0  0  0  0  0  0
   -2.6050   21.8970  -32.3180 O   0  0  0  0  0  0  0  0  0  0  0  0
   -3.0140   20.7210  -32.9170 C   0  0  0  0  0  0  0  0  0  0  0  0
   -2.0970   19.9450  -33.5940 C   0  0  0  0  0  0  0  0  0  0  0  0
   -2.4720   18.7670  -34.1990 C   0  0  0  0  0  0  0  0  0  0  0  0
   -3.8030   18.3360  -34.1330 C   0  0  0  0  0  0  0  0  0  0  0  0
   -4.7290   19.0880  -33.4670 C   0  0  0  0  0  0  0  0  0  0  0  0
   -4.3240   20.2830  -32.8610 C   0  0  0  0  0  0  0  0  0  0  0  0
   -5.2260   21.0620  -32.1790 C   0  0  0  0  0  0  0  0  0  0  0  0
   -4.9620   22.2920  -31.5630 N   0  0  0  0  0  0  0  0  0  0  0  0
   -5.7220   23.4530  -32.0390 C   0  0  0  0  0  0  0  0  0  0  0  0
   -6.0820   24.3550  -30.9050 C   0  0  0  0  0  0  0  0  0  0  0  0
   -5.2030   25.5660  -30.8520 C   0  0  0  0  0  0  0  0  0  0  0  0
   -3.9170   25.2770  -30.3960 O   0  0  0  0  0  0  0  0  0  0  0  0
   -3.8750   24.5340  -29.2440 C   0  0  0  0  0  0  0  0  0  0  0  0
   -2.9550   23.4180  -29.4180 N   0  0  0  0  0  0  0  0  0  0  0  0
   -3.3670   22.2660  -28.6390 C   0  0  0  0  0  0  0  0  0  0  0  0
   -1.6380   23.8170  -28.9940 C   0  0  0  0  0  0  0  0  0  0  0  0
   -6.5450   20.6000  -32.1250 C   0  0  0  0  0  0  0  0  0  0  0  0
   -7.4960   21.3490  -31.4490 C   0  0  0  0  0  0  0  0  0  0  0  0
   -8.8160   20.9680  -31.3490 C   0  0  0  0  0  0  0  0  0  0  0  0
   -9.1720   19.7860  -31.9600 C   0  0  0  0  0  0  0  0  0  0  0  0
   -8.2300   19.0220  -32.6430 C   0  0  0  0  0  0  0  0  0  0  0  0
   -6.8990   19.4190  -32.7360 C   0  0  0  0  0  0  0  0  0  0  0  0
   -5.9970   18.6500  -33.4120 N   0  0  0  0  0  0  0  0  0  0  0  0
   -6.4910   17.4450  -33.9920 C   0  0  0  0  0  0  0  0  0  0  0  0
   -1.6065   21.9159  -30.5163 H   0  0  0  0  0  0  0  0  0  0  0  0
   -0.7937   21.0330  -31.8529 H   0  0  0  0  0  0  0  0  0  0  0  0
   -0.8278   22.8290  -31.8529 H   0  0  0  0  0  0  0  0  0  0  0  0
   -1.0486   20.2728  -33.6515 H   0  0  0  0  0  0  0  0  0  0  0  0
   -1.7252   18.1631  -34.7352 H   0  0  0  0  0  0  0  0  0  0  0  0
   -4.1021   17.3942  -34.6163 H   0  0  0  0  0  0  0  0  0  0  0  0
   -4.2560   22.3640  -30.8040 H   0  0  0  0  0  0  0  0  0  0  0  0
   -5.1107   24.0113  -32.7633 H   0  0  0  0  0  0  0  0  0  0  0  0
   -6.6486   23.0965  -32.5126 H   0  0  0  0  0  0  0  0  0  0  0  0
   -7.1262   24.6789  -31.0263 H   0  0  0  0  0  0  0  0  0  0  0  0
   -5.9460   23.7947  -29.9682 H   0  0  0  0  0  0  0  0  0  0  0  0
   -5.1304   25.9929  -31.8632 H   0  0  0  0  0  0  0  0  0  0  0  0
   -5.6558   26.2750  -30.1432 H   0  0  0  0  0  0  0  0  0  0  0  0
   -3.5308   25.1664  -28.4124 H   0  0  0  0  0  0  0  0  0  0  0  0
   -4.8805   24.1482  -29.0202 H   0  0  0  0  0  0  0  0  0  0  0  0
   -3.2836   22.4993  -27.5673 H   0  0  0  0  0  0  0  0  0  0  0  0
   -4.4106   22.0150  -28.8795 H   0  0  0  0  0  0  0  0  0  0  0  0
   -2.7193   21.4101  -28.8795 H   0  0  0  0  0  0  0  0  0  0  0  0
   -1.5949   23.8301  -27.8949 H   0  0  0  0  0  0  0  0  0  0  0  0
   -0.8961   23.1033  -29.3816 H   0  0  0  0  0  0  0  0  0  0  0  0
   -1.4169   24.8224  -29.3816 H   0  0  0  0  0  0  0  0  0  0  0  0
   -7.1826   22.2890  -30.9714 H   0  0  0  0  0  0  0  0  0  0  0  0
   -9.5518   21.5795  -30.8062 H   0  0  0  0  0  0  0  0  0  0  0  0
  -10.2152   19.4410  -31.9075 H   0  0  0  0  0  0  0  0  0  0  0  0
   -8.5448   18.0824  -33.1205 H   0  0  0  0  0  0  0  0  0  0  0  0
   -6.7781   16.7447  -33.1938 H   0  0  0  0  0  0  0  0  0  0  0  0
   -7.3691   17.6710  -34.6149 H   0  0  0  0  0  0  0  0  0  0  0  0
   -5.7070   16.9896  -34.6149 H   0  0  0  0  0  0  0  0  0  0  0  0
  1  2  1  0
  2  3  1  0
  3  4  2  0
  4  5  1  0
  5  6  2  0
  6  7  1  0
  7  8  2  0
  8  9  1  0
  9 10  1  0
 10 11  1  0
 11 12  1  0
 12 13  1  0
 13 14  1  0
 14 15  1  0
 15 16  1  0
 16 17  1  0
 16 18  1  0
  9 19  2  0
 19 20  1  0
 20 21  2  0
 21 22  1  0
 22 23  2  0
 23 24  1  0
 24 25  2  0
 25 26  1  0
  8  3  1  0
 24 19  1  0
 25  7  1  0
  1 27  1  0
  1 28  1  0
  1 29  1  0
  4 30  1  0
  5 31  1  0
  6 32  1  0
 10 33  1  0
 11 34  1  0
 11 35  1  0
 12 36  1  0
 12 37  1  0
 13 38  1  0
 13 39  1  0
 15 40  1  0
 15 41  1  0
 17 42  1  0
 17 43  1  0
 17 44  1  0
 18 45  1  0
 18 46  1  0
 18 47  1  0
 20 48  1  0
 21 49  1  0
 22 50  1  0
 23 51  1  0
 26 52  1  0
 26 53  1  0
 26 54  1  0
M  CHG  1  25   1
M  END
>  <smiles>  (12) 
COc1cccc2c1c(NCCCOCN(C)C)c1ccccc1[n+]2C

>  <score_type>  (12) 
oracle

>  <origin>  (12) 
adg

>  <m_score__min__energy>  (12) 
-8.7300000000000004

>  <m_primary>  (12) 
energy

$$$$
13:0
     RDKit          3D

 36 38  0  0  0  0  0  0  0  0999 V2000
   -6.1310   25.4290  -29.2610 C   0  0  0  0  0  0  0  0  0  0  0  0
   -5.1470   24.5690  -29.9200 N   0  0  0  0  0  0  0  0  0  0  0  0
   -5.2690   23.9800  -31.1160 C   0  0  0  0  0  0  0  0  0  0  0  0
   -6.5060   24.1590  -31.9550 C   0  0  0  0  0  0  0  0  0  0  0  0
   -6.8110   23.0120  -32.7200 N   0  0  0  0  0  0  0  0  0  0  0  0
   -7.0280   21.8560  -31.9050 C   0  0  0  0  0  0  0  0  0  0  0  0
   -6.6180   20.5840  -32.5270 C   0  0  0  0  0  0  0  0  0  0  0  0
   -5.4350   20.3760  -33.1910 C   0  0  0  0  0  0  0  0  0  0  0  0
   -4.4590   21.3410  -33.2700 F   0  0  0  0  0  0  0  0  0  0  0  0
   -5.1070   19.1710  -33.8020 C   0  0  0  0  0  0  0  0  0  0  0  0
   -5.9900   18.1010  -33.7600 C   0  0  0  0  0  0  0  0  0  0  0  0
   -7.1860   18.2920  -33.0920 C   0  0  0  0  0  0  0  0  0  0  0  0
   -7.5070   19.5040  -32.4840 C   0  0  0  0  0  0  0  0  0  0  0  0
   -9.0490   19.6390  -31.6640 Cl  0  0  0  0  0  0  0  0  0  0  0  0
   -4.1670   23.2660  -31.4020 N   0  0  0  0  0  0  0  0  0  0  0  0
   -3.3090   23.3900  -30.3770 C   0  0  0  0  0  0  0  0  0  0  0  0
   -2.0300   22.8910  -30.1070 C   0  0  0  0  0  0  0  0  0  0  0  0
   -1.3840   23.2180  -28.9120 C   0  0  0  0  0  0  0  0  0  0  0  0
   -2.0170   24.0470  -27.9780 C   0  0  0  0  0  0  0  0  0  0  0  0
   -3.2920   24.5390  -28.2550 C   0  0  0  0  0  0  0  0  0  0  0  0
   -3.9280   24.2160  -29.4350 C   0  0  0  0  0  0  0  0  0  0  0  0
   -6.0259   25.3372  -28.1699 H   0  0  0  0  0  0  0  0  0  0  0  0
   -5.9623   26.4744  -29.5589 H   0  0  0  0  0  0  0  0  0  0  0  0
   -7.1444   25.1218  -29.5589 H   0  0  0  0  0  0  0  0  0  0  0  0
   -7.3550   24.3755  -31.2900 H   0  0  0  0  0  0  0  0  0  0  0  0
   -6.3187   24.9872  -32.6543 H   0  0  0  0  0  0  0  0  0  0  0  0
   -6.1190   22.7610  -33.4600 H   0  0  0  0  0  0  0  0  0  0  0  0
   -6.4588   21.9815  -30.9721 H   0  0  0  0  0  0  0  0  0  0  0  0
   -8.1135   21.7883  -31.7406 H   0  0  0  0  0  0  0  0  0  0  0  0
   -4.1430   19.0651  -34.3212 H   0  0  0  0  0  0  0  0  0  0  0  0
   -5.7485   17.1404  -34.2384 H   0  0  0  0  0  0  0  0  0  0  0  0
   -7.9057   17.4618  -33.0391 H   0  0  0  0  0  0  0  0  0  0  0  0
   -1.5310   22.2385  -30.8386 H   0  0  0  0  0  0  0  0  0  0  0  0
   -0.3780   22.8241  -28.7050 H   0  0  0  0  0  0  0  0  0  0  0  0
   -1.5136   24.3075  -27.0353 H   0  0  0  0  0  0  0  0  0  0  0  0
   -3.7950   25.1908  -27.5255 H   0  0  0  0  0  0  0  0  0  0  0  0
  1  2  1  0
  2  3  1  0
  3  4  1  0
  4  5  1  0
  5  6  1  0
  6  7  1  0
  7  8  2  0
  8  9  1  0
  8 10  1  0
 10 11  2  0
 11 12  1  0
 12 13  2  0
 13 14  1  0
  3 15  2  0
 15 16  1  0
 16 17  2  0
 17 18  1  0
 18 19  2  0
 19 20  1  0
 20 21  2  0
 21  2  1  0
 13  7  1  0
 21 16  1  0
  1 22  1  0
  1 23  1  0
  1 24  1  0
  4 25  1  0
  4 26  1  0
  5 27  1  0
  6 28  1  0
  6 29  1  0
 10 30  1  0
 11 31  1  0
 12 32  1  0
 17 33  1  0
 18 34  1  0
 19 35  1  0
 20 36  1  0
M  END
>  <smiles>  (13) 
Cn1c(CNCc2c(F)cccc2Cl)nc2ccccc21

>  <score_type>  (13) 
oracle

>  <origin>  (13) 
adg

>  <m_score__min__energy>  (13) 
-7.9000000000000004

>  <m_primary>  (13) 
energy

$$$$
14:0
     RDKit          3D

 41 43  0  0  0  0  0  0  0  0999 V2000
   -2.6980   21.5290  -33.3840 C   0  0  0  0  0  0  0  0  0  0  0  0
   -4.0170   21.8650  -32.7550 C   0  0  0  0  0  0  0  0  0  0  0  0
   -4.2890   22.9560  -32.0370 N   0  0  0  0  0  0  0  0  0  0  0  0
   -5.5650   22.9490  -31.6260 N   0  0  0  0  0  0  0  0  0  0  0  0
   -6.0980   24.0480  -30.8370 C   0  0  0  0  0  0  0  0  0  0  0  0
   -5.4110   25.3460  -31.0610 C   0  0  0  0  0  0  0  0  0  0  0  0
   -4.0760   25.2800  -30.4980 N   0  0  0  0  0  0  0  0  0  0  0  0
   -4.0020   24.5490  -29.2530 C   0  0  0  0  0  0  0  0  0  0  0  0
   -2.6250   23.9980  -29.0570 C   0  0  0  0  0  0  0  0  0  0  0  0
   -2.0690   23.4290  -30.2530 N   0  0  0  0  0  0  0  0  0  0  0  0
   -1.8400   22.0300  -30.0870 C   0  0  0  0  0  0  0  0  0  0  0  0
   -2.9310   21.0880  -29.7210 C   0  0  0  0  0  0  0  0  0  0  0  0
   -1.9550   21.5370  -28.6380 C   0  0  0  0  0  0  0  0  0  0  0  0
   -6.1600   21.8380  -32.0720 C   0  0  0  0  0  0  0  0  0  0  0  0
   -7.4440   21.3400  -31.9460 C   0  0  0  0  0  0  0  0  0  0  0  0
   -7.7410   20.1390  -32.5490 C   0  0  0  0  0  0  0  0  0  0  0  0
   -9.3640   19.5070  -32.3900 Cl  0  0  0  0  0  0  0  0  0  0  0  0
   -6.7730   19.4560  -33.2590 C   0  0  0  0  0  0  0  0  0  0  0  0
   -5.4880   19.9360  -33.3940 C   0  0  0  0  0  0  0  0  0  0  0  0
   -5.1890   21.1410  -32.7900 C   0  0  0  0  0  0  0  0  0  0  0  0
   -1.9539   21.3394  -32.5964 H   0  0  0  0  0  0  0  0  0  0  0  0
   -2.8080   20.6302  -34.0085 H   0  0  0  0  0  0  0  0  0  0  0  0
   -2.3645   22.3709  -34.0085 H   0  0  0  0  0  0  0  0  0  0  0  0
   -7.1611   24.1717  -31.0912 H   0  0  0  0  0  0  0  0  0  0  0  0
   -5.9410   23.7847  -29.7806 H   0  0  0  0  0  0  0  0  0  0  0  0
   -5.3459   25.5468  -32.1406 H   0  0  0  0  0  0  0  0  0  0  0  0
   -5.9782   26.1540  -30.5757 H   0  0  0  0  0  0  0  0  0  0  0  0
   -3.4860   24.7810  -31.1920 H   0  0  0  0  0  0  0  0  0  0  0  0
   -4.2445   25.2252  -28.4199 H   0  0  0  0  0  0  0  0  0  0  0  0
   -4.7202   23.7164  -29.2830 H   0  0  0  0  0  0  0  0  0  0  0  0
   -1.9673   24.8121  -28.7184 H   0  0  0  0  0  0  0  0  0  0  0  0
   -2.6981   23.1905  -28.3136 H   0  0  0  0  0  0  0  0  0  0  0  0
   -2.7080   23.6500  -31.0590 H   0  0  0  0  0  0  0  0  0  0  0  0
   -1.1032   22.0106  -30.9035 H   0  0  0  0  0  0  0  0  0  0  0  0
   -3.9727   21.4406  -29.6982 H   0  0  0  0  0  0  0  0  0  0  0  0
   -3.2648   20.1109  -30.1003 H   0  0  0  0  0  0  0  0  0  0  0  0
   -2.2847   22.2221  -27.8431 H   0  0  0  0  0  0  0  0  0  0  0  0
   -1.2886   21.0363  -27.9202 H   0  0  0  0  0  0  0  0  0  0  0  0
   -8.2088   21.8900  -31.3780 H   0  0  0  0  0  0  0  0  0  0  0  0
   -7.0360   18.4983  -33.7319 H   0  0  0  0  0  0  0  0  0  0  0  0
   -4.7283   19.3793  -33.9623 H   0  0  0  0  0  0  0  0  0  0  0  0
  1  2  1  0
  2  3  2  0
  3  4  1  0
  4  5  1  0
  5  6  1  0
  6  7  1  0
  7  8  1  0
  8  9  1  0
  9 10  1  0
 10 11  1  0
 11 12  1  0
 12 13  1  0
  4 14  1  0
 14 15  2  0
 15 16  1  0
 16 17  1  0
 16 18  2  0
 18 19  1  0
 19 20  2  0
 20  2  1  0
 13 11  1  0
 20 14  1  0
  1 21  1  0
  1 22  1  0
  1 23  1  0
  5 24  1  0
  5 25  1  0
  6 26  1  0
  6 27  1  0
  7 28  1  0
  8 29  1  0
  8 30  1  0
  9 31  1  0
  9 32  1  0
 10 33  1  0
 11 34  1  0
 12 35  1  0
 12 36  1  0
 13 37  1  0
 13 38  1  0
 15 39  1  0
 18 40  1  0
 19 41  1  0
M  END
>  <smiles>  (14) 
Cc1nn(CCNCCNC2CC2)c2cc(Cl)ccc12

>  <score_type>  (14) 
oracle

>  <origin>  (14) 
adg

>  <m_score__min__energy>  (14) 
-8.0199999999999996

>  <m_primary>  (14) 
energy

$$$$
15:0
     RDKit          3D

 68 70  0  0  0  0  0  0  0  0999 V2000
   -6.3310   25.1220  -29.6470 C   0  0  0  0  0  0  0  0  0  0  0  0
   -5.2040   25.6370  -30.5130 C   0  0  0  0  0  0  0  0  0  0  0  0
   -4.4270   24.5210  -31.0200 N   0  0  0  0  0  0  0  0  0  0  0  0
   -4.2310   23.5260  -29.9910 C   0  0  0  0  0  0  0  0  0  0  0  0
   -4.2650   22.1460  -30.6560 C   0  0  0  0  0  0  0  0  0  0  0  0
   -3.6720   22.2620  -32.0220 C   0  0  0  0  0  0  0  0  0  0  0  0
   -4.5360   21.8610  -33.1150 N   0  0  0  0  0  0  0  0  0  0  0  0
   -5.6020   20.9330  -32.8180 C   0  0  0  0  0  0  0  0  0  0  0  0
   -6.7960   21.4850  -32.4470 C   0  0  0  0  0  0  0  0  0  0  0  0
   -7.0010   22.8250  -32.2060 C   0  0  0  0  0  0  0  0  0  0  0  0
   -8.2090   23.3580  -31.8070 C   0  0  0  0  0  0  0  0  0  0  0  0
   -9.2850   22.5200  -31.6330 C   0  0  0  0  0  0  0  0  0  0  0  0
   -9.1060   21.1730  -31.8650 C   0  0  0  0  0  0  0  0  0  0  0  0
   -7.8750   20.6420  -32.2680 C   0  0  0  0  0  0  0  0  0  0  0  0
   -7.7530   19.2840  -32.4570 N   0  0  0  0  0  0  0  0  0  0  0  0
   -8.9400   18.5240  -32.2440 C   0  0  0  0  0  0  0  0  0  0  0  0
   -6.5520   18.7910  -32.8180 C   0  0  0  0  0  0  0  0  0  0  0  0
   -6.4200   17.4310  -32.9780 C   0  0  0  0  0  0  0  0  0  0  0  0
   -5.2320   16.8290  -33.3180 C   0  0  0  0  0  0  0  0  0  0  0  0
   -4.1330   17.6380  -33.5010 C   0  0  0  0  0  0  0  0  0  0  0  0
   -4.1870   19.0260  -33.3560 C   0  0  0  0  0  0  0  0  0  0  0  0
   -3.1590   19.7810  -33.5180 O   0  0  0  0  0  0  0  0  0  0  0  0
   -1.9290   20.2130  -33.7550 C   0  0  0  0  0  0  0  0  0  0  0  0
   -0.9450   20.2470  -32.6380 C   0  0  0  0  0  0  0  0  0  0  0  0
   -1.4510   19.9910  -31.2890 C   0  0  0  0  0  0  0  0  0  0  0  0
   -0.8980   20.6460  -30.1670 N   0  0  0  0  0  0  0  0  0  0  0  0
   -1.8300   20.4260  -29.0300 C   0  0  0  0  0  0  0  0  0  0  0  0
   -0.6210   22.0270  -30.1800 C   0  0  0  0  0  0  0  0  0  0  0  0
    0.3480   19.9750  -29.7240 C   0  0  0  0  0  0  0  0  0  0  0  0
   -5.4410   19.5670  -33.0120 C   0  0  0  0  0  0  0  0  0  0  0  0
   -6.0640   25.2440  -28.5869 H   0  0  0  0  0  0  0  0  0  0  0  0
   -7.2478   25.6905  -29.8620 H   0  0  0  0  0  0  0  0  0  0  0  0
   -6.5012   24.0567  -29.8620 H   0  0  0  0  0  0  0  0  0  0  0  0
   -5.6219   26.2050  -31.3572 H   0  0  0  0  0  0  0  0  0  0  0  0
   -4.5537   26.2909  -29.9134 H   0  0  0  0  0  0  0  0  0  0  0  0
   -3.4820   24.9380  -31.2550 H   0  0  0  0  0  0  0  0  0  0  0  0
   -3.2580   23.6811  -29.5019 H   0  0  0  0  0  0  0  0  0  0  0  0
   -5.0204   23.6031  -29.2288 H   0  0  0  0  0  0  0  0  0  0  0  0
   -3.6807   21.4315  -30.0576 H   0  0  0  0  0  0  0  0  0  0  0  0
   -5.3025   21.7871  -30.7253 H   0  0  0  0  0  0  0  0  0  0  0  0
   -3.3908   23.3135  -32.1809 H   0  0  0  0  0  0  0  0  0  0  0  0
   -2.8199   21.5666  -32.0407 H   0  0  0  0  0  0  0  0  0  0  0  0
   -4.4160   22.2120  -34.0880 H   0  0  0  0  0  0  0  0  0  0  0  0
   -6.1514   23.5109  -32.3395 H   0  0  0  0  0  0  0  0  0  0  0  0
   -8.3101   24.4390  -31.6304 H   0  0  0  0  0  0  0  0  0  0  0  0
  -10.2623   22.9138  -31.3172 H   0  0  0  0  0  0  0  0  0  0  0  0
   -9.9593   20.4923  -31.7289 H   0  0  0  0  0  0  0  0  0  0  0  0
   -9.1148   18.4121  -31.1638 H   0  0  0  0  0  0  0  0  0  0  0  0
   -9.7949   19.0431  -32.7019 H   0  0  0  0  0  0  0  0  0  0  0  0
   -8.8263   17.5303  -32.7019 H   0  0  0  0  0  0  0  0  0  0  0  0
   -7.3057   16.7963  -32.8269 H   0  0  0  0  0  0  0  0  0  0  0  0
   -5.1617   15.7380  -33.4398 H   0  0  0  0  0  0  0  0  0  0  0  0
   -3.1740   17.1724  -33.7723 H   0  0  0  0  0  0  0  0  0  0  0  0
   -1.5057   19.5655  -34.5371 H   0  0  0  0  0  0  0  0  0  0  0  0
   -2.0685   21.2729  -34.0142 H   0  0  0  0  0  0  0  0  0  0  0  0
   -0.1764   19.4896  -32.8517 H   0  0  0  0  0  0  0  0  0  0  0  0
   -0.5841   21.2858  -32.6115 H   0  0  0  0  0  0  0  0  0  0  0  0
   -2.5211   20.2453  -31.3032 H   0  0  0  0  0  0  0  0  0  0  0  0
   -1.1671   18.9418  -31.1200 H   0  0  0  0  0  0  0  0  0  0  0  0
   -1.2879   20.5540  -28.0815 H   0  0  0  0  0  0  0  0  0  0  0  0
   -2.6522   21.1547  -29.0836 H   0  0  0  0  0  0  0  0  0  0  0  0
   -2.2396   19.4065  -29.0836 H   0  0  0  0  0  0  0  0  0  0  0  0
   -0.5470   22.3959  -29.1463 H   0  0  0  0  0  0  0  0  0  0  0  0
    0.3308   22.2052  -30.7019 H   0  0  0  0  0  0  0  0  0  0  0  0
   -1.4304   22.5584  -30.7019 H   0  0  0  0  0  0  0  0  0  0  0  0
    0.3833   19.9560  -28.6247 H   0  0  0  0  0  0  0  0  0  0  0  0
    0.3666   18.9449  -30.1093 H   0  0  0  0  0  0  0  0  0  0  0  0
    1.2183   20.5264  -30.1093 H   0  0  0  0  0  0  0  0  0  0  0  0
  1  2  1  0
  2  3  1  0
  3  4  1  0
  4  5  1  0
  5  6  1  0
  6  7  1  0
  7  8  1  0
  8  9  2  0
  9 10  1  0
 10 11  2  0
 11 12  1  0
 12 13  2  0
 13 14  1  0
 14 15  2  0
 15 16  1  0
 15 17  1  0
 17 18  2  0
 18 19  1  0
 19 20  2  0
 20 21  1  0
 21 22  1  0
 22 23  1  0
 23 24  1  0
 24 25  1  0
 25 26  1  0
 26 27  1  0
 26 28  1  0
 26 29  1  0
 21 30  2  0
 30  8  1  0
 14  9  1  0
 30 17  1  0
  1 31  1  0
  1 32  1  0
  1 33  1  0
  2 34  1  0
  2 35  1  0
  3 36  1  0
  4 37  1  0
  4 38  1  0
  5 39  1  0
  5 40  1  0
  6 41  1  0
  6 42  1  0
  7 43  1  0
 10 44  1  0
 11 45  1  0
 12 46  1  0
 13 47  1  0
 16 48  1  0
 16 49  1  0
 16 50  1  0
 18 51  1  0
 19 52  1  0
 20 53  1  0
 23 54  1  0
 23 55  1  0
 24 56  1  0
 24 57  1  0
 25 58  1  0
 25 59  1  0
 27 60  1  0
 27 61  1  0
 27 62  1  0
 28 63  1  0
 28 64  1  0
 28 65  1  0
 29 66  1  0
 29 67  1  0
 29 68  1  0
M  CHG  2  15   1  26   1
M  END
>  <smiles>  (15) 
CCNCCCNc1c2ccccc2[n+](C)c2cccc(OCCC[N+](C)(C)C)c12

>  <score_type>  (15) 
oracle

>  <origin>  (15) 
adg

>  <m_score__min__energy>  (15) 
-8.25

>  <m_primary>  (15) 
energy

$$$$
16:0
     RDKit          3D

 46 48  0  0  0  0  0  0  0  0999 V2000
   -2.4670   23.1660  -29.7460 C   0  0  0  0  0  0  0  0  0  0  0  0
   -3.2340   24.0020  -28.8120 N   0  0  0  0  0  0  0  0  0  0  0  0
   -4.6750   23.9450  -28.8820 C   0  0  0  0  0  0  0  0  0  0  0  0
   -5.1950   24.9700  -29.8930 C   0  0  0  0  0  0  0  0  0  0  0  0
   -5.0610   24.4910  -31.1940 O   0  0  0  0  0  0  0  0  0  0  0  0
   -5.5200   23.2880  -31.6560 C   0  0  0  0  0  0  0  0  0  0  0  0
   -4.7230   22.3090  -32.2110 C   0  0  0  0  0  0  0  0  0  0  0  0
   -5.1820   21.1070  -32.6720 C   0  0  0  0  0  0  0  0  0  0  0  0
   -6.5410   20.8310  -32.5840 C   0  0  0  0  0  0  0  0  0  0  0  0
   -7.3520   21.8280  -32.0180 C   0  0  0  0  0  0  0  0  0  0  0  0
   -6.8650   23.0220  -31.5640 C   0  0  0  0  0  0  0  0  0  0  0  0
   -8.8790   21.7220  -31.8230 C   0  0  0  0  0  0  0  0  0  0  0  0
   -9.2150   20.3430  -31.9370 C   0  0  0  0  0  0  0  0  0  0  0  0
   -9.1920   19.0150  -32.1490 N   0  0  0  0  0  0  0  0  0  0  0  0
   -7.7780   18.5630  -32.3420 C   0  0  0  0  0  0  0  0  0  0  0  0
   -6.9530   19.5310  -33.1000 C   0  0  0  0  0  0  0  0  0  0  0  0
   -2.5050   24.8040  -27.9010 C   0  0  0  0  0  0  0  0  0  0  0  0
   -1.3720   25.5100  -28.2210 C   0  0  0  0  0  0  0  0  0  0  0  0
   -0.6790   26.2930  -27.3020 C   0  0  0  0  0  0  0  0  0  0  0  0
   -1.1150   26.3880  -26.0020 C   0  0  0  0  0  0  0  0  0  0  0  0
   -2.2460   25.6910  -25.6550 C   0  0  0  0  0  0  0  0  0  0  0  0
   -2.9280   24.9180  -26.5720 C   0  0  0  0  0  0  0  0  0  0  0  0
   -1.8300   22.4717  -29.1784 H   0  0  0  0  0  0  0  0  0  0  0  0
   -3.1602   22.5931  -30.3794 H   0  0  0  0  0  0  0  0  0  0  0  0
   -1.8366   23.8074  -30.3794 H   0  0  0  0  0  0  0  0  0  0  0  0
   -4.9842   22.9367  -29.1948 H   0  0  0  0  0  0  0  0  0  0  0  0
   -5.0923   24.1746  -27.8905 H   0  0  0  0  0  0  0  0  0  0  0  0
   -6.2573   25.1705  -29.6898 H   0  0  0  0  0  0  0  0  0  0  0  0
   -4.6061   25.8938  -29.7942 H   0  0  0  0  0  0  0  0  0  0  0  0
   -3.6441   22.5092  -32.2879 H   0  0  0  0  0  0  0  0  0  0  0  0
   -4.4881   20.3714  -33.1049 H   0  0  0  0  0  0  0  0  0  0  0  0
   -7.5468   23.7665  -31.1270 H   0  0  0  0  0  0  0  0  0  0  0  0
   -9.1606   22.0992  -30.8288 H   0  0  0  0  0  0  0  0  0  0  0  0
   -9.4147   22.3215  -32.5738 H   0  0  0  0  0  0  0  0  0  0  0  0
   -9.5693   20.2565  -30.8992 H   0  0  0  0  0  0  0  0  0  0  0  0
   -9.1281   20.4657  -33.0267 H   0  0  0  0  0  0  0  0  0  0  0  0
   -9.7010   18.4360  -31.4970 H   0  0  0  0  0  0  0  0  0  0  0  0
   -7.3208   18.4138  -31.3527 H   0  0  0  0  0  0  0  0  0  0  0  0
   -7.8100   17.6325  -32.9279 H   0  0  0  0  0  0  0  0  0  0  0  0
   -6.0221   18.9998  -33.3476 H   0  0  0  0  0  0  0  0  0  0  0  0
   -7.6571   19.8329  -33.8893 H   0  0  0  0  0  0  0  0  0  0  0  0
   -0.9938   25.4544  -29.2524 H   0  0  0  0  0  0  0  0  0  0  0  0
    0.2224   26.8386  -27.6179 H   0  0  0  0  0  0  0  0  0  0  0  0
   -0.5763   27.0014  -25.2648 H   0  0  0  0  0  0  0  0  0  0  0  0
   -2.6172   25.7503  -24.6212 H   0  0  0  0  0  0  0  0  0  0  0  0
   -3.8293   24.3762  -26.2494 H   0  0  0  0  0  0  0  0  0  0  0  0
  1  2  1  0
  2  3  1  0
  3  4  1  0
  4  5  1  0
  5  6  1  0
  6  7  2  0
  7  8  1  0
  8  9  2  0
  9 10  1  0
 10 11  2  0
 10 12  1  0
 12 13  1  0
 13 14  1  0
 14 15  1  0
 15 16  1  0
  2 17  1  0
 17 18  2  0
 18 19  1  0
 19 20  2  0
 20 21  1  0
 21 22  2  0
 11  6  1  0
 22 17  1  0
 16  9  1  0
  1 23  1  0
  1 24  1  0
  1 25  1  0
  3 26  1  0
  3 27  1  0
  4 28  1  0
  4 29  1  0
  7 30  1  0
  8 31  1  0
 11 32  1  0
 12 33  1  0
 12 34  1  0
 13 35  1  0
 13 36  1  0
 14 37  1  0
 15 38  1  0
 15 39  1  0
 16 40  1  0
 16 41  1  0
 18 42  1  0
 19 43  1  0
 20 44  1  0
 21 45  1  0
 22 46  1  0
M  END
>  <smiles>  (16) 
CN(CCOc1ccc2c(c1)CCNCC2)c1ccccc1

>  <score_type>  (16) 
oracle

>  <origin>  (16) 
adg

>  <m_score__min__energy>  (16) 
-6.4100000000000001

>  <m_primary>  (16) 
energy

$$$$
17:0
     RDKit          3D

 44 45  0  0  1  0  0  0  0  0999 V2000
   -3.3880   20.7640  -32.1790 C   0  0  0  0  0  0  0  0  0  0  0  0
   -4.3680   20.1010  -33.1570 C   0  0  1  0  0  0  0  0  0  0  0  0
   -3.7030   18.9330  -33.8500 C   0  0  0  0  0  0  0  0  0  0  0  0
   -4.7190   18.1300  -34.5920 C   0  0  0  0  0  0  0  0  0  0  0  0
   -6.1120   18.7100  -34.5740 C   0  0  0  0  0  0  0  0  0  0  0  0
   -6.5410   19.1130  -33.3040 N   0  0  0  0  0  0  0  0  0  0  0  0
   -7.7420   18.5970  -32.7610 C   0  0  0  0  0  0  0  0  0  0  0  0
   -8.3240   19.3050  -31.6090 C   0  0  0  0  0  0  0  0  0  0  0  0
   -9.1950   20.4360  -32.0880 C   0  0  0  0  0  0  0  0  0  0  0  0
   -9.3740   21.5440  -31.0890 C   0  0  0  0  0  0  0  0  0  0  0  0
   -8.0520   22.1090  -30.5900 C   0  0  0  0  0  0  0  0  0  0  0  0
   -7.4300   23.3030  -31.8270 S   0  0  0  0  0  0  0  0  0  0  0  0
   -5.8300   23.9110  -31.2820 C   0  0  0  0  0  0  0  0  0  0  0  0
   -4.6740   23.4000  -31.7560 N   0  0  0  0  0  0  0  0  0  0  0  0
   -3.6810   24.0470  -31.1720 N   0  0  0  0  0  0  0  0  0  0  0  0
   -4.2220   24.9350  -30.3570 N   0  0  0  0  0  0  0  0  0  0  0  0
   -5.5510   24.8780  -30.4000 N   0  0  0  0  0  0  0  0  0  0  0  0
   -6.5280   25.6600  -29.6790 C   0  0  0  0  0  0  0  0  0  0  0  0
   -5.5420   19.5070  -32.3900 C   0  0  0  0  0  0  0  0  0  0  0  0
   -3.7012   20.5521  -31.1460 H   0  0  0  0  0  0  0  0  0  0  0  0
   -2.3770   20.3636  -32.3451 H   0  0  0  0  0  0  0  0  0  0  0  0
   -3.3836   21.8514  -32.3451 H   0  0  0  0  0  0  0  0  0  0  0  0
   -4.6912   20.8693  -33.8748 H   0  0  0  0  0  0  0  0  0  0  0  0
   -2.9503   19.3106  -34.5577 H   0  0  0  0  0  0  0  0  0  0  0  0
   -3.2206   18.2942  -33.0955 H   0  0  0  0  0  0  0  0  0  0  0  0
   -4.3943   18.0493  -35.6399 H   0  0  0  0  0  0  0  0  0  0  0  0
   -4.7796   17.1565  -34.0834 H   0  0  0  0  0  0  0  0  0  0  0  0
   -6.1317   19.5850  -35.2403 H   0  0  0  0  0  0  0  0  0  0  0  0
   -6.7946   17.9131  -34.9042 H   0  0  0  0  0  0  0  0  0  0  0  0
   -8.4943   18.5985  -33.5635 H   0  0  0  0  0  0  0  0  0  0  0  0
   -7.4714   17.6038  -32.3732 H   0  0  0  0  0  0  0  0  0  0  0  0
   -8.9305   18.6029  -31.0180 H   0  0  0  0  0  0  0  0  0  0  0  0
   -7.5130   19.7115  -30.9868 H   0  0  0  0  0  0  0  0  0  0  0  0
   -8.7406   20.8603  -32.9955 H   0  0  0  0  0  0  0  0  0  0  0  0
  -10.1931   20.0104  -32.2688 H   0  0  0  0  0  0  0  0  0  0  0  0
   -9.9461   22.3552  -31.5630 H   0  0  0  0  0  0  0  0  0  0  0  0
   -9.9029   21.1241  -30.2207 H   0  0  0  0  0  0  0  0  0  0  0  0
   -8.2055   22.6180  -29.6270 H   0  0  0  0  0  0  0  0  0  0  0  0
   -7.3234   21.2970  -30.4493 H   0  0  0  0  0  0  0  0  0  0  0  0
   -6.3718   25.5350  -28.5973 H   0  0  0  0  0  0  0  0  0  0  0  0
   -6.4169   26.7215  -29.9453 H   0  0  0  0  0  0  0  0  0  0  0  0
   -7.5394   25.3191  -29.9453 H   0  0  0  0  0  0  0  0  0  0  0  0
   -5.9504   20.2608  -31.7008 H   0  0  0  0  0  0  0  0  0  0  0  0
   -5.2031   18.6336  -31.8136 H   0  0  0  0  0  0  0  0  0  0  0  0
  1  2  1  0
  2  3  1  0
  3  4  1  0
  4  5  1  0
  5  6  1  0
  6  7  1  0
  7  8  1  0
  8  9  1  0
  9 10  1  0
 10 11  1  0
 11 12  1  0
 12 13  1  0
 13 14  2  0
 14 15  1  0
 15 16  2  0
 16 17  1  0
 17 18  1  0
  6 19  1  0
 19  2  1  0
 17 13  1  0
  1 20  1  0
  1 21  1  0
  1 22  1  0
  2 23  1  6
  3 24  1  0
  3 25  1  0
  4 26  1  0
  4 27  1  0
  5 28  1  0
  5 29  1  0
  7 30  1  0
  7 31  1  0
  8 32  1  0
  8 33  1  0
  9 34  1  0
  9 35  1  0
 10 36  1  0
 10 37  1  0
 11 38  1  0
 11 39  1  0
 18 40  1  0
 18 41  1  0
 18 42  1  0
 19 43  1  0
 19 44  1  0
M  END
>  <smiles>  (17) 
CC1CCCN(CCCCCSc2nnnn2C)C1

>  <score_type>  (17) 
oracle

>  <origin>  (17) 
adg

>  <m_score__min__energy>  (17) 
-8.6899999999999995

>  <m_primary>  (17) 
energy

$$$$
18:0
     RDKit          3D

 64 67  0  0  0  0  0  0  0  0999 V2000
   -6.4660   25.2890  -29.7580 C   0  0  0  0  0  0  0  0  0  0  0  0
   -5.2350   25.0650  -30.5880 C   0  0  0  0  0  0  0  0  0  0  0  0
   -4.0360   24.8300  -29.7530 N   0  0  0  0  0  0  0  0  0  0  0  0
   -3.2100   23.8330  -30.4440 C   0  0  0  0  0  0  0  0  0  0  0  0
   -4.4450   24.3790  -28.4620 C   0  0  0  0  0  0  0  0  0  0  0  0
   -3.2640   23.6150  -27.8290 C   0  0  0  0  0  0  0  0  0  0  0  0
   -3.6860   22.3680  -27.5940 O   0  0  0  0  0  0  0  0  0  0  0  0
   -3.0570   21.3080  -28.1160 C   0  0  0  0  0  0  0  0  0  0  0  0
   -3.4830   20.8500  -29.4910 C   0  0  0  0  0  0  0  0  0  0  0  0
   -2.7070   20.6570  -30.4430 O   0  0  0  0  0  0  0  0  0  0  0  0
   -1.9280   20.4650  -31.3990 C   0  0  0  0  0  0  0  0  0  0  0  0
   -1.8590   21.5380  -32.5000 C   0  0  0  0  0  0  0  0  0  0  0  0
   -2.6150   21.1020  -33.6200 N   0  0  0  0  0  0  0  0  0  0  0  0
   -3.7330   20.2460  -33.4920 C   0  0  0  0  0  0  0  0  0  0  0  0
   -4.9790   20.6150  -33.0630 C   0  0  0  0  0  0  0  0  0  0  0  0
   -6.0310   19.6940  -32.9370 C   0  0  0  0  0  0  0  0  0  0  0  0
   -5.8360   18.3730  -33.2470 N   0  0  0  0  0  0  0  0  0  0  0  0
   -6.9260   17.4660  -33.1220 C   0  0  0  0  0  0  0  0  0  0  0  0
   -4.6110   17.9840  -33.6740 C   0  0  0  0  0  0  0  0  0  0  0  0
   -4.3180   16.6840  -33.9990 C   0  0  0  0  0  0  0  0  0  0  0  0
   -3.0550   16.2770  -34.4350 C   0  0  0  0  0  0  0  0  0  0  0  0
   -2.0440   17.1920  -34.5500 C   0  0  0  0  0  0  0  0  0  0  0  0
   -2.3250   18.4970  -34.2260 C   0  0  0  0  0  0  0  0  0  0  0  0
   -3.5650   18.8930  -33.8000 C   0  0  0  0  0  0  0  0  0  0  0  0
   -7.2000   20.4460  -32.4610 C   0  0  0  0  0  0  0  0  0  0  0  0
   -8.4990   20.0960  -32.1610 C   0  0  0  0  0  0  0  0  0  0  0  0
   -9.4430   21.0160  -31.7260 C   0  0  0  0  0  0  0  0  0  0  0  0
   -9.0740   22.3360  -31.5820 C   0  0  0  0  0  0  0  0  0  0  0  0
   -7.7690   22.7250  -31.8750 C   0  0  0  0  0  0  0  0  0  0  0  0
   -6.8700   21.7780  -32.3040 C   0  0  0  0  0  0  0  0  0  0  0  0
   -5.4650   21.9410  -32.6740 C   0  0  0  0  0  0  0  0  0  0  0  0
   -4.8360   23.0360  -32.6460 O   0  0  0  0  0  0  0  0  0  0  0  0
   -6.2026   25.2411  -28.6911 H   0  0  0  0  0  0  0  0  0  0  0  0
   -6.8878   26.2787  -29.9874 H   0  0  0  0  0  0  0  0  0  0  0  0
   -7.2094   24.5114  -29.9874 H   0  0  0  0  0  0  0  0  0  0  0  0
   -5.3962   24.1880  -31.2321 H   0  0  0  0  0  0  0  0  0  0  0  0
   -5.0595   25.9719  -31.1853 H   0  0  0  0  0  0  0  0  0  0  0  0
   -2.6921   23.2079  -29.7017 H   0  0  0  0  0  0  0  0  0  0  0  0
   -3.8510   23.1989  -31.0741 H   0  0  0  0  0  0  0  0  0  0  0  0
   -2.4678   24.3449  -31.0741 H   0  0  0  0  0  0  0  0  0  0  0  0
   -4.7126   25.2407  -27.8328 H   0  0  0  0  0  0  0  0  0  0  0  0
   -5.3238   23.7228  -28.5466 H   0  0  0  0  0  0  0  0  0  0  0  0
   -2.4091   23.6004  -28.5211 H   0  0  0  0  0  0  0  0  0  0  0  0
   -2.9363   24.1005  -26.8979 H   0  0  0  0  0  0  0  0  0  0  0  0
   -1.9860   21.5534  -28.1679 H   0  0  0  0  0  0  0  0  0  0  0  0
   -3.3174   20.4723  -27.4498 H   0  0  0  0  0  0  0  0  0  0  0  0
   -4.0030   19.8932  -29.3355 H   0  0  0  0  0  0  0  0  0  0  0  0
   -4.0192   21.7430  -29.8447 H   0  0  0  0  0  0  0  0  0  0  0  0
   -0.9161   20.3598  -30.9806 H   0  0  0  0  0  0  0  0  0  0  0  0
   -2.3291   19.5753  -31.9065 H   0  0  0  0  0  0  0  0  0  0  0  0
   -2.2745   22.4831  -32.1202 H   0  0  0  0  0  0  0  0  0  0  0  0
   -0.8122   21.6971  -32.7981 H   0  0  0  0  0  0  0  0  0  0  0  0
   -2.3410   21.4230  -34.5890 H   0  0  0  0  0  0  0  0  0  0  0  0
   -7.1368   17.2906  -32.0567 H   0  0  0  0  0  0  0  0  0  0  0  0
   -7.8162   17.8936  -33.6063 H   0  0  0  0  0  0  0  0  0  0  0  0
   -6.6673   16.5129  -33.6063 H   0  0  0  0  0  0  0  0  0  0  0  0
   -5.1129   15.9286  -33.9124 H   0  0  0  0  0  0  0  0  0  0  0  0
   -2.8731   15.2215  -34.6858 H   0  0  0  0  0  0  0  0  0  0  0  0
   -1.0415   16.8930  -34.8900 H   0  0  0  0  0  0  0  0  0  0  0  0
   -1.5272   19.2494  -34.3116 H   0  0  0  0  0  0  0  0  0  0  0  0
   -8.8001   19.0437  -32.2709 H   0  0  0  0  0  0  0  0  0  0  0  0
  -10.4708   20.6961  -31.4995 H   0  0  0  0  0  0  0  0  0  0  0  0
   -9.8074   23.0797  -31.2369 H   0  0  0  0  0  0  0  0  0  0  0  0
   -7.4622   23.7756  -31.7646 H   0  0  0  0  0  0  0  0  0  0  0  0
  1  2  1  0
  2  3  1  0
  3  4  1  0
  3  5  1  0
  5  6  1  0
  6  7  1  0
  7  8  1  0
  8  9  1  0
  9 10  1  0
 10 11  1  0
 11 12  1  0
 12 13  1  0
 13 14  1  0
 14 15  2  0
 15 16  1  0
 16 17  2  0
 17 18  1  0
 17 19  1  0
 19 20  2  0
 20 21  1  0
 21 22  2  0
 22 23  1  0
 23 24  2  0
 16 25  1  0
 25 26  2  0
 26 27  1  0
 27 28  2  0
 28 29  1  0
 29 30  2  0
 30 31  1  0
 31 32  2  0
 24 14  1  0
 30 25  1  0
 31 15  1  0
 24 19  1  0
  1 33  1  0
  1 34  1  0
  1 35  1  0
  2 36  1  0
  2 37  1  0
  4 38  1  0
  4 39  1  0
  4 40  1  0
  5 41  1  0
  5 42  1  0
  6 43  1  0
  6 44  1  0
  8 45  1  0
  8 46  1  0
  9 47  1  0
  9 48  1  0
 11 49  1  0
 11 50  1  0
 12 51  1  0
 12 52  1  0
 13 53  1  0
 18 54  1  0
 18 55  1  0
 18 56  1  0
 20 57  1  0
 21 58  1  0
 22 59  1  0
 23 60  1  0
 26 61  1  0
 27 62  1  0
 28 63  1  0
 29 64  1  0
M  CHG  1  17   1
M  END
>  <smiles>  (18) 
CCN(C)CCOCCOCCNc1c2c([n+](C)c3ccccc13)-c1ccccc1C2=O

>  <score_type>  (18) 
oracle

>  <origin>  (18) 
adg

>  <m_score__min__energy>  (18) 
-9.5199999999999996

>  <m_primary>  (18) 
energy

$$$$
20:0
     RDKit          3D

 46 48  0  0  0  0  0  0  0  0999 V2000
   -9.0950   19.4980  -32.7150 C   0  0  0  0  0  0  0  0  0  0  0  0
   -8.7290   19.7260  -31.2660 C   0  0  0  0  0  0  0  0  0  0  0  0
   -9.0960   21.1640  -30.8660 C   0  0  0  0  0  0  0  0  0  0  0  0
   -7.9420   21.9950  -31.3220 C   0  0  0  0  0  0  0  0  0  0  0  0
   -8.2530   23.0050  -32.2290 C   0  0  0  0  0  0  0  0  0  0  0  0
   -7.2060   23.7900  -32.6690 C   0  0  0  0  0  0  0  0  0  0  0  0
   -5.9220   23.5680  -32.2220 C   0  0  0  0  0  0  0  0  0  0  0  0
   -5.6050   22.5810  -31.3330 C   0  0  0  0  0  0  0  0  0  0  0  0
   -4.2890   22.2970  -30.7960 C   0  0  0  0  0  0  0  0  0  0  0  0
   -4.1250   22.6300  -29.4390 C   0  0  0  0  0  0  0  0  0  0  0  0
   -2.9430   22.4060  -28.7740 C   0  0  0  0  0  0  0  0  0  0  0  0
   -1.9180   21.8410  -29.4840 C   0  0  0  0  0  0  0  0  0  0  0  0
   -2.0760   21.5180  -30.8040 C   0  0  0  0  0  0  0  0  0  0  0  0
   -3.2570   21.7260  -31.5210 C   0  0  0  0  0  0  0  0  0  0  0  0
   -3.3580   21.4070  -32.9530 C   0  0  0  0  0  0  0  0  0  0  0  0
   -4.5780   20.8900  -33.4510 N   0  0  0  0  0  0  0  0  0  0  0  0
   -5.1820   19.6460  -33.2340 C   0  0  0  0  0  0  0  0  0  0  0  0
   -5.3910   19.0490  -32.0170 C   0  0  0  0  0  0  0  0  0  0  0  0
   -6.0060   17.8250  -31.8470 C   0  0  0  0  0  0  0  0  0  0  0  0
   -6.4420   17.1440  -32.9590 C   0  0  0  0  0  0  0  0  0  0  0  0
   -6.2610   17.6910  -34.2010 C   0  0  0  0  0  0  0  0  0  0  0  0
   -5.6460   18.9120  -34.3390 C   0  0  0  0  0  0  0  0  0  0  0  0
   -6.6650   21.7850  -30.8850 C   0  0  0  0  0  0  0  0  0  0  0  0
  -10.0275   18.9171  -32.7706 H   0  0  0  0  0  0  0  0  0  0  0  0
   -9.2368   20.4678  -33.2143 H   0  0  0  0  0  0  0  0  0  0  0  0
   -8.2870   18.9432  -33.2143 H   0  0  0  0  0  0  0  0  0  0  0  0
   -9.2813   19.0166  -30.6321 H   0  0  0  0  0  0  0  0  0  0  0  0
   -7.6481   19.5722  -31.1319 H   0  0  0  0  0  0  0  0  0  0  0  0
  -10.0229   21.4806  -31.3667 H   0  0  0  0  0  0  0  0  0  0  0  0
   -9.2749   21.2607  -29.7850 H   0  0  0  0  0  0  0  0  0  0  0  0
   -9.2831   23.1694  -32.5780 H   0  0  0  0  0  0  0  0  0  0  0  0
   -7.3994   24.6024  -33.3850 H   0  0  0  0  0  0  0  0  0  0  0  0
   -5.1157   24.2149  -32.5981 H   0  0  0  0  0  0  0  0  0  0  0  0
   -4.9668   23.0826  -28.8945 H   0  0  0  0  0  0  0  0  0  0  0  0
   -2.8254   22.6704  -27.7128 H   0  0  0  0  0  0  0  0  0  0  0  0
   -0.9563   21.6444  -28.9875 H   0  0  0  0  0  0  0  0  0  0  0  0
   -1.2226   21.0678  -31.3322 H   0  0  0  0  0  0  0  0  0  0  0  0
   -3.1497   22.3345  -33.5065 H   0  0  0  0  0  0  0  0  0  0  0  0
   -2.6424   20.5835  -33.0937 H   0  0  0  0  0  0  0  0  0  0  0  0
   -5.1240   21.5530  -34.1070 H   0  0  0  0  0  0  0  0  0  0  0  0
   -5.0460   19.5803  -31.1177 H   0  0  0  0  0  0  0  0  0  0  0  0
   -6.1447   17.4024  -30.8409 H   0  0  0  0  0  0  0  0  0  0  0  0
   -6.9332   16.1657  -32.8515 H   0  0  0  0  0  0  0  0  0  0  0  0
   -6.6098   17.1502  -35.0931 H   0  0  0  0  0  0  0  0  0  0  0  0
   -5.5124   19.3289  -35.3481 H   0  0  0  0  0  0  0  0  0  0  0  0
   -6.4662   20.9751  -30.1676 H   0  0  0  0  0  0  0  0  0  0  0  0
  1  2  1  0
  2  3  1  0
  3  4  1  0
  4  5  2  0
  5  6  1  0
  6  7  2  0
  7  8  1  0
  8  9  1  0
  9 10  2  0
 10 11  1  0
 11 12  2  0
 12 13  1  0
 13 14  2  0
 14 15  1  0
 15 16  1  0
 16 17  1  0
 17 18  2  0
 18 19  1  0
 19 20  2  0
 20 21  1  0
 21 22  2  0
  8 23  2  0
 23  4  1  0
 14  9  1  0
 22 17  1  0
  1 24  1  0
  1 25  1  0
  1 26  1  0
  2 27  1  0
  2 28  1  0
  3 29  1  0
  3 30  1  0
  5 31  1  0
  6 32  1  0
  7 33  1  0
 10 34  1  0
 11 35  1  0
 12 36  1  0
 13 37  1  0
 15 38  1  0
 15 39  1  0
 16 40  1  0
 18 41  1  0
 19 42  1  0
 20 43  1  0
 21 44  1  0
 22 45  1  0
 23 46  1  0
M  END
>  <smiles>  (19) 
CCCc1cccc(-c2ccccc2CNc2ccccc2)c1

>  <score_type>  (19) 
oracle

>  <origin>  (19) 
adg

>  <m_score__min__energy>  (19) 
-8.8399999999999999

>  <m_primary>  (19) 
energy

$$$$
22:0
     RDKit          3D

 61 63  0  0  0  0  0  0  0  0999 V2000
   -2.1590   24.1720  -28.6700 C   0  0  0  0  0  0  0  0  0  0  0  0
   -1.3570   23.2160  -29.4760 C   0  0  0  0  0  0  0  0  0  0  0  0
   -1.8920   21.9200  -29.7070 N   0  0  0  0  0  0  0  0  0  0  0  0
   -2.9680   21.4590  -28.9220 C   0  0  0  0  0  0  0  0  0  0  0  0
   -2.5560   20.4290  -27.8860 C   0  0  0  0  0  0  0  0  0  0  0  0
   -0.8350   20.9990  -29.8730 C   0  0  0  0  0  0  0  0  0  0  0  0
   -0.6360   20.3850  -31.2220 C   0  0  0  0  0  0  0  0  0  0  0  0
   -0.8700   21.4940  -32.1740 N   0  0  0  0  0  0  0  0  0  0  0  0
   -1.4610   21.0880  -33.3980 C   0  0  0  0  0  0  0  0  0  0  0  0
   -2.9590   21.0020  -33.4030 C   0  0  0  0  0  0  0  0  0  0  0  0
   -3.6420   21.0590  -32.1710 N   0  0  0  0  0  0  0  0  0  0  0  0
   -5.0260   21.1740  -31.9370 C   0  0  0  0  0  0  0  0  0  0  0  0
   -5.4690   22.4210  -31.4780 C   0  0  0  0  0  0  0  0  0  0  0  0
   -6.8270   22.6710  -31.2820 C   0  0  0  0  0  0  0  0  0  0  0  0
   -7.7340   21.6850  -31.5400 N   0  0  0  0  0  0  0  0  0  0  0  0
   -9.1530   21.9070  -31.3590 C   0  0  0  0  0  0  0  0  0  0  0  0
   -7.3130   20.4560  -31.9890 C   0  0  0  0  0  0  0  0  0  0  0  0
   -8.2400   19.4710  -32.2550 C   0  0  0  0  0  0  0  0  0  0  0  0
   -7.8040   18.2260  -32.7220 C   0  0  0  0  0  0  0  0  0  0  0  0
   -6.4540   18.0060  -32.9070 C   0  0  0  0  0  0  0  0  0  0  0  0
   -5.5250   18.9830  -32.6440 C   0  0  0  0  0  0  0  0  0  0  0  0
   -5.9540   20.1940  -32.1880 C   0  0  0  0  0  0  0  0  0  0  0  0
   -7.2890   24.0150  -30.7850 C   0  0  0  0  0  0  0  0  0  0  0  0
   -6.1480   24.5080  -29.8850 C   0  0  0  0  0  0  0  0  0  0  0  0
   -4.9840   24.7560  -30.8330 C   0  0  0  0  0  0  0  0  0  0  0  0
   -4.4090   23.4110  -31.1970 C   0  0  0  0  0  0  0  0  0  0  0  0
   -1.9953   23.9769  -27.5999 H   0  0  0  0  0  0  0  0  0  0  0  0
   -1.8497   25.2008  -28.9066 H   0  0  0  0  0  0  0  0  0  0  0  0
   -3.2259   24.0463  -28.9066 H   0  0  0  0  0  0  0  0  0  0  0  0
   -1.1883   23.6794  -30.4592 H   0  0  0  0  0  0  0  0  0  0  0  0
   -0.4570   23.0358  -28.8698 H   0  0  0  0  0  0  0  0  0  0  0  0
   -3.4142   22.3191  -28.4013 H   0  0  0  0  0  0  0  0  0  0  0  0
   -3.6819   20.9707  -29.6016 H   0  0  0  0  0  0  0  0  0  0  0  0
   -2.7194   20.8374  -26.8778 H   0  0  0  0  0  0  0  0  0  0  0  0
   -3.1589   19.5180  -28.0147 H   0  0  0  0  0  0  0  0  0  0  0  0
   -1.4911   20.1851  -28.0147 H   0  0  0  0  0  0  0  0  0  0  0  0
    0.0969   21.5221  -29.6124 H   0  0  0  0  0  0  0  0  0  0  0  0
   -1.1084   20.1521  -29.2265 H   0  0  0  0  0  0  0  0  0  0  0  0
    0.3874   19.9947  -31.3241 H   0  0  0  0  0  0  0  0  0  0  0  0
   -1.3112   19.5346  -31.3975 H   0  0  0  0  0  0  0  0  0  0  0  0
   -1.2520   22.3310  -31.7150 H   0  0  0  0  0  0  0  0  0  0  0  0
   -1.1618   21.8092  -34.1728 H   0  0  0  0  0  0  0  0  0  0  0  0
   -1.1024   20.0637  -33.5776 H   0  0  0  0  0  0  0  0  0  0  0  0
   -3.3296   21.8352  -34.0181 H   0  0  0  0  0  0  0  0  0  0  0  0
   -3.1684   19.9898  -33.7794 H   0  0  0  0  0  0  0  0  0  0  0  0
   -3.0410   21.0030  -31.2850 H   0  0  0  0  0  0  0  0  0  0  0  0
   -9.3843   21.9432  -30.2842 H   0  0  0  0  0  0  0  0  0  0  0  0
   -9.4377   22.8606  -31.8276 H   0  0  0  0  0  0  0  0  0  0  0  0
   -9.7153   21.0859  -31.8276 H   0  0  0  0  0  0  0  0  0  0  0  0
   -9.3124   19.6619  -32.1016 H   0  0  0  0  0  0  0  0  0  0  0  0
   -8.5308   17.4296  -32.9398 H   0  0  0  0  0  0  0  0  0  0  0  0
   -6.1144   17.0260  -33.2734 H   0  0  0  0  0  0  0  0  0  0  0  0
   -4.4529   18.7915  -32.7987 H   0  0  0  0  0  0  0  0  0  0  0  0
   -7.4470   24.7066  -31.6257 H   0  0  0  0  0  0  0  0  0  0  0  0
   -8.2473   23.9544  -30.2483 H   0  0  0  0  0  0  0  0  0  0  0  0
   -6.4340   25.4376  -29.3711 H   0  0  0  0  0  0  0  0  0  0  0  0
   -5.8955   23.7809  -29.0991 H   0  0  0  0  0  0  0  0  0  0  0  0
   -5.3385   25.2714  -31.7378 H   0  0  0  0  0  0  0  0  0  0  0  0
   -4.2216   25.3898  -30.3566 H   0  0  0  0  0  0  0  0  0  0  0  0
   -3.7795   23.5229  -32.0921 H   0  0  0  0  0  0  0  0  0  0  0  0
   -3.8188   23.0480  -30.3426 H   0  0  0  0  0  0  0  0  0  0  0  0
  1  2  1  0
  2  3  1  0
  3  4  1  0
  4  5  1  0
  3  6  1  0
  6  7  1  0
  7  8  1  0
  8  9  1  0
  9 10  1  0
 10 11  1  0
 11 12  1  0
 12 13  2  0
 13 14  1  0
 14 15  2  0
 15 16  1  0
 15 17  1  0
 17 18  2  0
 18 19  1  0
 19 20  2  0
 20 21  1  0
 21 22  2  0
 14 23  1  0
 23 24  1  0
 24 25  1  0
 25 26  1  0
 22 12  1  0
 26 13  1  0
 22 17  1  0
  1 27  1  0
  1 28  1  0
  1 29  1  0
  2 30  1  0
  2 31  1  0
  4 32  1  0
  4 33  1  0
  5 34  1  0
  5 35  1  0
  5 36  1  0
  6 37  1  0
  6 38  1  0
  7 39  1  0
  7 40  1  0
  8 41  1  0
  9 42  1  0
  9 43  1  0
 10 44  1  0
 10 45  1  0
 11 46  1  0
 16 47  1  0
 16 48  1  0
 16 49  1  0
 18 50  1  0
 19 51  1  0
 20 52  1  0
 21 53  1  0
 23 54  1  0
 23 55  1  0
 24 56  1  0
 24 57  1  0
 25 58  1  0
 25 59  1  0
 26 60  1  0
 26 61  1  0
M  CHG  1  15   1
M  END
>  <smiles>  (20) 
CCN(CC)CCNCCNc1c2c([n+](C)c3ccccc13)CCCC2

>  <score_type>  (20) 
oracle

>  <origin>  (20) 
adg

>  <m_score__min__energy>  (20) 
-9.1600000000000001

>  <m_primary>  (20) 
energy

$$$$
23:0
     RDKit          3D

 86 89  0  0  0  0  0  0  0  0999 V2000
    0.1920   24.6260  -27.6340 C   0  0  0  0  0  0  0  0  0  0  0  0
   -1.1450   25.3150  -27.7480 C   0  0  0  0  0  0  0  0  0  0  0  0
   -2.1510   24.4740  -27.0590 N   0  0  0  0  0  0  0  0  0  0  0  0
   -2.8010   25.3110  -26.0370 C   0  0  0  0  0  0  0  0  0  0  0  0
   -1.6750   26.0180  -25.2750 C   0  0  0  0  0  0  0  0  0  0  0  0
   -3.1520   24.1360  -28.0700 C   0  0  0  0  0  0  0  0  0  0  0  0
   -2.6480   24.2590  -29.4600 C   0  0  0  0  0  0  0  0  0  0  0  0
   -3.4900   24.9260  -30.3450 O   0  0  0  0  0  0  0  0  0  0  0  0
   -4.5560   24.1330  -30.7970 C   0  0  0  0  0  0  0  0  0  0  0  0
   -4.0780   22.8240  -31.3490 C   0  0  0  0  0  0  0  0  0  0  0  0
   -4.6650   22.4040  -32.6180 N   0  0  0  0  0  0  0  0  0  0  0  0
   -5.3080   21.1490  -32.7320 C   0  0  0  0  0  0  0  0  0  0  0  0
   -6.6650   21.1640  -32.3560 C   0  0  0  0  0  0  0  0  0  0  0  0
   -7.2670   22.3750  -31.9910 C   0  0  0  0  0  0  0  0  0  0  0  0
   -8.5890   22.4680  -31.6200 C   0  0  0  0  0  0  0  0  0  0  0  0
   -9.3350   21.3140  -31.6140 C   0  0  0  0  0  0  0  0  0  0  0  0
   -8.7550   20.1040  -31.9740 C   0  0  0  0  0  0  0  0  0  0  0  0
   -7.4340   20.0310  -32.3420 C   0  0  0  0  0  0  0  0  0  0  0  0
   -6.8770   18.8650  -32.7000 N   0  0  0  0  0  0  0  0  0  0  0  0
   -7.6000   17.6100  -32.7170 C   0  0  0  0  0  0  0  0  0  0  0  0
   -5.5850   18.8280  -33.0660 C   0  0  0  0  0  0  0  0  0  0  0  0
   -5.0520   17.6180  -33.4420 C   0  0  0  0  0  0  0  0  0  0  0  0
   -3.7430   17.4990  -33.8470 C   0  0  0  0  0  0  0  0  0  0  0  0
   -2.9730   18.6510  -33.8660 C   0  0  0  0  0  0  0  0  0  0  0  0
   -3.4610   19.8980  -33.4970 C   0  0  0  0  0  0  0  0  0  0  0  0
   -2.5890   20.9890  -33.6390 N   0  0  0  0  0  0  0  0  0  0  0  0
   -1.4530   21.2090  -32.7160 C   0  0  0  0  0  0  0  0  0  0  0  0
   -1.5940   20.5120  -31.4200 C   0  0  0  0  0  0  0  0  0  0  0  0
   -0.8960   21.3050  -30.3120 C   0  0  0  0  0  0  0  0  0  0  0  0
   -0.9310   20.6130  -29.0610 N   0  0  0  0  0  0  0  0  0  0  0  0
   -0.3580   19.2830  -29.1500 C   0  0  0  0  0  0  0  0  0  0  0  0
   -0.1670   21.2970  -28.0320 C   0  0  0  0  0  0  0  0  0  0  0  0
   -0.8420   21.3780  -26.7090 C   0  0  0  0  0  0  0  0  0  0  0  0
   -1.6320   20.1720  -26.3100 C   0  0  0  0  0  0  0  0  0  0  0  0
   -2.5180   19.6630  -27.4130 C   0  0  0  0  0  0  0  0  0  0  0  0
   -2.3010   20.4990  -28.6330 C   0  0  0  0  0  0  0  0  0  0  0  0
   -4.7700   19.9620  -33.0960 C   0  0  0  0  0  0  0  0  0  0  0  0
    0.4473   24.4944  -26.5722 H   0  0  0  0  0  0  0  0  0  0  0  0
    0.1404   23.6422  -28.1234 H   0  0  0  0  0  0  0  0  0  0  0  0
    0.9633   25.2389  -28.1234 H   0  0  0  0  0  0  0  0  0  0  0  0
   -1.0968   26.3055  -27.2720 H   0  0  0  0  0  0  0  0  0  0  0  0
   -1.4176   25.4498  -28.8051 H   0  0  0  0  0  0  0  0  0  0  0  0
   -3.4600   26.0511  -26.5145 H   0  0  0  0  0  0  0  0  0  0  0  0
   -3.4202   24.7042  -25.3600 H   0  0  0  0  0  0  0  0  0  0  0  0
   -1.8423   25.9129  -24.1929 H   0  0  0  0  0  0  0  0  0  0  0  0
   -0.7096   25.5636  -25.5426 H   0  0  0  0  0  0  0  0  0  0  0  0
   -1.6648   27.0849  -25.5426 H   0  0  0  0  0  0  0  0  0  0  0  0
   -3.4760   23.0975  -27.9068 H   0  0  0  0  0  0  0  0  0  0  0  0
   -3.9804   24.8512  -27.9597 H   0  0  0  0  0  0  0  0  0  0  0  0
   -1.6919   24.8020  -29.4272 H   0  0  0  0  0  0  0  0  0  0  0  0
   -2.5608   23.2312  -29.8421 H   0  0  0  0  0  0  0  0  0  0  0  0
   -5.2369   23.9377  -29.9554 H   0  0  0  0  0  0  0  0  0  0  0  0
   -5.0708   24.6773  -31.6024 H   0  0  0  0  0  0  0  0  0  0  0  0
   -2.9897   22.8977  -31.4913 H   0  0  0  0  0  0  0  0  0  0  0  0
   -4.3900   22.0653  -30.6162 H   0  0  0  0  0  0  0  0  0  0  0  0
   -4.6680   23.0570  -33.4680 H   0  0  0  0  0  0  0  0  0  0  0  0
   -6.6572   23.2905  -32.0013 H   0  0  0  0  0  0  0  0  0  0  0  0
   -9.0336   23.4337  -31.3377 H   0  0  0  0  0  0  0  0  0  0  0  0
  -10.3953   21.3484  -31.3231 H   0  0  0  0  0  0  0  0  0  0  0  0
   -9.3646   19.1884  -31.9641 H   0  0  0  0  0  0  0  0  0  0  0  0
   -7.7891   17.2818  -31.6843 H   0  0  0  0  0  0  0  0  0  0  0  0
   -8.5582   17.7459  -33.2398 H   0  0  0  0  0  0  0  0  0  0  0  0
   -7.0017   16.8492  -33.2398 H   0  0  0  0  0  0  0  0  0  0  0  0
   -5.6890   16.7215  -33.4184 H   0  0  0  0  0  0  0  0  0  0  0  0
   -3.3234   16.5267  -34.1444 H   0  0  0  0  0  0  0  0  0  0  0  0
   -1.9243   18.5741  -34.1890 H   0  0  0  0  0  0  0  0  0  0  0  0
   -2.5930   21.7270  -34.3630 H   0  0  0  0  0  0  0  0  0  0  0  0
   -0.5348   20.8507  -33.2044 H   0  0  0  0  0  0  0  0  0  0  0  0
   -1.4209   22.2868  -32.4984 H   0  0  0  0  0  0  0  0  0  0  0  0
   -2.6619   20.4111  -31.1765 H   0  0  0  0  0  0  0  0  0  0  0  0
   -1.1294   19.5178  -31.4958 H   0  0  0  0  0  0  0  0  0  0  0  0
    0.1532   21.4695  -30.5987 H   0  0  0  0  0  0  0  0  0  0  0  0
   -1.4267   22.2606  -30.1891 H   0  0  0  0  0  0  0  0  0  0  0  0
   -0.1880   18.8885  -28.1374 H   0  0  0  0  0  0  0  0  0  0  0  0
   -1.0506   18.6207  -29.6901 H   0  0  0  0  0  0  0  0  0  0  0  0
    0.5991   19.3315  -29.6901 H   0  0  0  0  0  0  0  0  0  0  0  0
    0.7849   20.7620  -27.8991 H   0  0  0  0  0  0  0  0  0  0  0  0
   -0.0358   22.3327  -28.3784 H   0  0  0  0  0  0  0  0  0  0  0  0
   -0.0687   21.5439  -25.9444 H   0  0  0  0  0  0  0  0  0  0  0  0
   -1.5692   22.1991  -26.7927 H   0  0  0  0  0  0  0  0  0  0  0  0
   -0.9324   19.3726  -26.0244 H   0  0  0  0  0  0  0  0  0  0  0  0
   -2.2821   20.4649  -25.4724 H   0  0  0  0  0  0  0  0  0  0  0  0
   -2.2673   18.6150  -27.6341 H   0  0  0  0  0  0  0  0  0  0  0  0
   -3.5716   19.7231  -27.1025 H   0  0  0  0  0  0  0  0  0  0  0  0
   -2.8794   20.0556  -29.4569 H   0  0  0  0  0  0  0  0  0  0  0  0
   -2.6242   21.5165  -28.3679 H   0  0  0  0  0  0  0  0  0  0  0  0
  1  2  1  0
  2  3  1  0
  3  4  1  0
  4  5  1  0
  3  6  1  0
  6  7  1  0
  7  8  1  0
  8  9  1  0
  9 10  1  0
 10 11  1  0
 11 12  1  0
 12 13  2  0
 13 14  1  0
 14 15  2  0
 15 16  1  0
 16 17  2  0
 17 18  1  0
 18 19  2  0
 19 20  1  0
 19 21  1  0
 21 22  2  0
 22 23  1  0
 23 24  2  0
 24 25  1  0
 25 26  1  0
 26 27  1  0
 27 28  1  0
 28 29  1  0
 29 30  1  0
 30 31  1  0
 30 32  1  0
 32 33  1  0
 33 34  1  0
 34 35  1  0
 35 36  1  0
 25 37  2  0
 37 12  1  0
 18 13  1  0
 37 21  1  0
 36 30  1  0
  1 38  1  0
  1 39  1  0
  1 40  1  0
  2 41  1  0
  2 42  1  0
  4 43  1  0
  4 44  1  0
  5 45  1  0
  5 46  1  0
  5 47  1  0
  6 48  1  0
  6 49  1  0
  7 50  1  0
  7 51  1  0
  9 52  1  0
  9 53  1  0
 10 54  1  0
 10 55  1  0
 11 56  1  0
 14 57  1  0
 15 58  1  0
 16 59  1  0
 17 60  1  0
 20 61  1  0
 20 62  1  0
 20 63  1  0
 22 64  1  0
 23 65  1  0
 24 66  1  0
 26 67  1  0
 27 68  1  0
 27 69  1  0
 28 70  1  0
 28 71  1  0
 29 72  1  0
 29 73  1  0
 31 74  1  0
 31 75  1  0
 31 76  1  0
 32 77  1  0
 32 78  1  0
 33 79  1  0
 33 80  1  0
 34 81  1  0
 34 82  1  0
 35 83  1  0
 35 84  1  0
 36 85  1  0
 36 86  1  0
M  CHG  2  19   1  30   1
M  END
>  <smiles>  (21) 
CCN(CC)CCOCCNc1c2ccccc2[n+](C)c2cccc(NCCC[N+]3(C)CCCCC3)c12

>  <score_type>  (21) 
oracle

>  <origin>  (21) 
adg

>  <m_score__min__energy>  (21) 
-9.8800000000000008

>  <m_primary>  (21) 
energy

$$$$
25:0
     RDKit          3D

 66 68  0  0  0  0  0  0  0  0999 V2000
   -6.1890   25.2780  -29.9130 C   0  0  0  0  0  0  0  0  0  0  0  0
   -4.8020   24.9140  -29.5090 C   0  0  0  0  0  0  0  0  0  0  0  0
   -3.8470   24.9070  -30.3210 O   0  0  0  0  0  0  0  0  0  0  0  0
   -4.5240   24.5570  -28.1700 N   0  0  0  0  0  0  0  0  0  0  0  0
   -3.1760   24.1900  -27.7140 C   0  0  0  0  0  0  0  0  0  0  0  0
   -3.1040   22.6940  -27.6970 C   0  0  0  0  0  0  0  0  0  0  0  0
   -1.9750   22.1520  -28.4960 C   0  0  0  0  0  0  0  0  0  0  0  0
   -1.1420   21.4320  -27.9210 O   0  0  0  0  0  0  0  0  0  0  0  0
   -1.8860   22.4670  -29.8560 N   0  0  0  0  0  0  0  0  0  0  0  0
   -0.8640   22.0280  -30.7640 C   0  0  0  0  0  0  0  0  0  0  0  0
   -1.3840   21.1090  -31.7930 C   0  0  0  0  0  0  0  0  0  0  0  0
   -1.9350   21.5120  -32.9910 C   0  0  0  0  0  0  0  0  0  0  0  0
   -2.4080   20.5630  -33.9010 C   0  0  0  0  0  0  0  0  0  0  0  0
   -2.3230   19.2210  -33.5970 C   0  0  0  0  0  0  0  0  0  0  0  0
   -2.8200   18.1490  -34.5100 C   0  0  0  0  0  0  0  0  0  0  0  0
   -4.2610   18.0070  -34.3930 N   0  0  0  0  0  0  0  0  0  0  0  0
   -4.9360   16.7790  -34.2930 C   0  0  0  0  0  0  0  0  0  0  0  0
   -4.3500   15.6470  -34.2910 O   0  0  0  0  0  0  0  0  0  0  0  0
   -6.4400   16.6860  -34.1790 C   0  0  0  0  0  0  0  0  0  0  0  0
   -6.7200   16.8400  -32.7760 N   0  0  0  0  0  0  0  0  0  0  0  0
   -5.6380   17.2900  -31.9710 C   0  0  0  0  0  0  0  0  0  0  0  0
   -6.0060   18.5480  -31.2220 C   0  0  0  0  0  0  0  0  0  0  0  0
   -6.7410   19.4980  -32.0220 N   0  0  0  0  0  0  0  0  0  0  0  0
   -6.4570   20.8730  -32.1260 C   0  0  0  0  0  0  0  0  0  0  0  0
   -7.4030   21.8690  -32.1920 C   0  0  0  0  0  0  0  0  0  0  0  0
   -7.0600   23.2090  -32.2920 C   0  0  0  0  0  0  0  0  0  0  0  0
   -5.7400   23.6040  -32.3330 C   0  0  0  0  0  0  0  0  0  0  0  0
   -4.7790   22.6210  -32.2690 C   0  0  0  0  0  0  0  0  0  0  0  0
   -5.1280   21.2920  -32.1690 C   0  0  0  0  0  0  0  0  0  0  0  0
   -7.8770   18.9360  -32.7690 C   0  0  0  0  0  0  0  0  0  0  0  0
   -7.9570   17.4340  -32.4370 C   0  0  0  0  0  0  0  0  0  0  0  0
   -1.7720   18.7910  -32.3980 C   0  0  0  0  0  0  0  0  0  0  0  0
   -1.3060   19.7430  -31.5020 C   0  0  0  0  0  0  0  0  0  0  0  0
   -6.8024   25.4390  -29.0142 H   0  0  0  0  0  0  0  0  0  0  0  0
   -6.1664   26.2006  -30.5115 H   0  0  0  0  0  0  0  0  0  0  0  0
   -6.6223   24.4632  -30.5115 H   0  0  0  0  0  0  0  0  0  0  0  0
   -5.3440   24.5690  -27.5060 H   0  0  0  0  0  0  0  0  0  0  0  0
   -2.4216   24.5954  -28.4043 H   0  0  0  0  0  0  0  0  0  0  0  0
   -2.9779   24.6010  -26.7131 H   0  0  0  0  0  0  0  0  0  0  0  0
   -2.9858   22.3618  -26.6551 H   0  0  0  0  0  0  0  0  0  0  0  0
   -4.0337   22.3174  -28.1486 H   0  0  0  0  0  0  0  0  0  0  0  0
   -2.6410   23.0900  -30.2750 H   0  0  0  0  0  0  0  0  0  0  0  0
   -0.4321   22.9084  -31.2623 H   0  0  0  0  0  0  0  0  0  0  0  0
   -0.1071   21.4841  -30.1798 H   0  0  0  0  0  0  0  0  0  0  0  0
   -2.0024   22.5834  -33.2310 H   0  0  0  0  0  0  0  0  0  0  0  0
   -2.8467   20.8856  -34.8567 H   0  0  0  0  0  0  0  0  0  0  0  0
   -2.5653   18.4107  -35.5476 H   0  0  0  0  0  0  0  0  0  0  0  0
   -2.3454   17.1966  -34.2311 H   0  0  0  0  0  0  0  0  0  0  0  0
   -4.8510   18.8760  -34.3810 H   0  0  0  0  0  0  0  0  0  0  0  0
   -6.9215   17.4871  -34.7591 H   0  0  0  0  0  0  0  0  0  0  0  0
   -6.8251   15.7344  -34.5740 H   0  0  0  0  0  0  0  0  0  0  0  0
   -5.3773   16.5039  -31.2471 H   0  0  0  0  0  0  0  0  0  0  0  0
   -4.7824   17.5105  -32.6263 H   0  0  0  0  0  0  0  0  0  0  0  0
   -6.6242   18.2697  -30.3558 H   0  0  0  0  0  0  0  0  0  0  0  0
   -5.0657   19.0344  -30.9231 H   0  0  0  0  0  0  0  0  0  0  0  0
   -8.4676   21.5935  -32.1646 H   0  0  0  0  0  0  0  0  0  0  0  0
   -7.8540   23.9688  -32.3394 H   0  0  0  0  0  0  0  0  0  0  0  0
   -5.4649   24.6660  -32.4139 H   0  0  0  0  0  0  0  0  0  0  0  0
   -3.7156   22.9008  -32.2981 H   0  0  0  0  0  0  0  0  0  0  0  0
   -4.3308   20.5356  -32.1215 H   0  0  0  0  0  0  0  0  0  0  0  0
   -8.8087   19.4368  -32.4671 H   0  0  0  0  0  0  0  0  0  0  0  0
   -7.7396   19.0854  -33.8501 H   0  0  0  0  0  0  0  0  0  0  0  0
   -8.1524   17.3000  -31.3628 H   0  0  0  0  0  0  0  0  0  0  0  0
   -8.7729   16.9625  -33.0044 H   0  0  0  0  0  0  0  0  0  0  0  0
   -1.7060   17.7185  -32.1628 H   0  0  0  0  0  0  0  0  0  0  0  0
   -0.8679   19.4178  -30.5468 H   0  0  0  0  0  0  0  0  0  0  0  0
  1  2  1  0
  2  3  2  0
  2  4  1  0
  4  5  1  0
  5  6  1  0
  6  7  1  0
  7  8  2  0
  7  9  1  0
  9 10  1  0
 10 11  1  0
 11 12  2  0
 12 13  1  0
 13 14  2  0
 14 15  1  0
 15 16  1  0
 16 17  1  0
 17 18  2  0
 17 19  1  0
 19 20  1  0
 20 21  1  0
 21 22  1  0
 22 23  1  0
 23 24  1  0
 24 25  2  0
 25 26  1  0
 26 27  2  0
 27 28  1  0
 28 29  2  0
 23 30  1  0
 30 31  1  0
 14 32  1  0
 32 33  2  0
 33 11  1  0
 31 20  1  0
 29 24  1  0
  1 34  1  0
  1 35  1  0
  1 36  1  0
  4 37  1  0
  5 38  1  0
  5 39  1  0
  6 40  1  0
  6 41  1  0
  9 42  1  0
 10 43  1  0
 10 44  1  0
 12 45  1  0
 13 46  1  0
 15 47  1  0
 15 48  1  0
 16 49  1  0
 19 50  1  0
 19 51  1  0
 21 52  1  0
 21 53  1  0
 22 54  1  0
 22 55  1  0
 25 56  1  0
 26 57  1  0
 27 58  1  0
 28 59  1  0
 29 60  1  0
 30 61  1  0
 30 62  1  0
 31 63  1  0
 31 64  1  0
 32 65  1  0
 33 66  1  0
M  END
>  <smiles>  (22) 
CC(=O)NCCC(=O)NCc1ccc(CNC(=O)CN2CCN(c3ccccc3)CC2)cc1

>  <score_type>  (22) 
oracle

>  <origin>  (22) 
adg

>  <m_score__min__energy>  (22) 
-9.3900000000000006

>  <m_primary>  (22) 
energy

$$$$
26:0
     RDKit          3D

 33 34  0  0  0  0  0  0  0  0999 V2000
   -9.4490   22.3420  -31.5570 N   0  0  0  0  0  0  0  0  0  0  0  0
   -8.5050   22.8690  -31.9640 C   0  0  0  0  0  0  0  0  0  0  0  0
   -7.3490   23.4900  -32.4510 N   0  0  0  0  0  0  0  0  0  0  0  0
   -6.3850   24.1080  -31.5960 C   0  0  0  0  0  0  0  0  0  0  0  0
   -5.0470   23.4220  -31.5960 C   0  0  0  0  0  0  0  0  0  0  0  0
   -4.1820   23.9140  -30.8520 O   0  0  0  0  0  0  0  0  0  0  0  0
   -4.7820   22.2920  -32.3870 N   0  0  0  0  0  0  0  0  0  0  0  0
   -3.5730   21.5770  -32.4650 C   0  0  0  0  0  0  0  0  0  0  0  0
   -2.3900   21.9170  -31.8820 C   0  0  0  0  0  0  0  0  0  0  0  0
   -1.2290   21.1540  -32.0040 C   0  0  0  0  0  0  0  0  0  0  0  0
   -1.2370   19.9890  -32.7450 C   0  0  0  0  0  0  0  0  0  0  0  0
   -2.4220   19.6360  -33.3380 C   0  0  0  0  0  0  0  0  0  0  0  0
   -3.5660   20.3930  -33.2140 C   0  0  0  0  0  0  0  0  0  0  0  0
   -4.7010   19.9580  -33.8420 O   0  0  0  0  0  0  0  0  0  0  0  0
   -5.7710   19.4330  -33.1340 C   0  0  0  0  0  0  0  0  0  0  0  0
   -7.0100   20.0530  -33.3340 C   0  0  0  0  0  0  0  0  0  0  0  0
   -8.1020   19.5550  -32.6440 C   0  0  0  0  0  0  0  0  0  0  0  0
   -7.9480   18.4780  -31.7890 C   0  0  0  0  0  0  0  0  0  0  0  0
   -6.7310   17.8590  -31.5840 C   0  0  0  0  0  0  0  0  0  0  0  0
   -5.6450   18.3600  -32.2750 C   0  0  0  0  0  0  0  0  0  0  0  0
   -7.2420   23.4680  -33.5090 H   0  0  0  0  0  0  0  0  0  0  0  0
   -6.2423   25.1470  -31.9279 H   0  0  0  0  0  0  0  0  0  0  0  0
   -6.7781   24.0444  -30.5706 H   0  0  0  0  0  0  0  0  0  0  0  0
   -5.5980   21.9530  -32.9830 H   0  0  0  0  0  0  0  0  0  0  0  0
   -2.3482   22.8399  -31.2849 H   0  0  0  0  0  0  0  0  0  0  0  0
   -0.3034   21.4816  -31.5080 H   0  0  0  0  0  0  0  0  0  0  0  0
   -0.3332   19.3716  -32.8548 H   0  0  0  0  0  0  0  0  0  0  0  0
   -2.4604   18.7132  -33.9354 H   0  0  0  0  0  0  0  0  0  0  0  0
   -7.1127   20.9086  -34.0176 H   0  0  0  0  0  0  0  0  0  0  0  0
   -9.0923   20.0156  -32.7755 H   0  0  0  0  0  0  0  0  0  0  0  0
   -8.8301   18.1000  -31.2514 H   0  0  0  0  0  0  0  0  0  0  0  0
   -6.6306   17.0036  -30.8998 H   0  0  0  0  0  0  0  0  0  0  0  0
   -4.6582   17.8937  -32.1377 H   0  0  0  0  0  0  0  0  0  0  0  0
  1  2  3  0
  2  3  1  0
  3  4  1  0
  4  5  1  0
  5  6  2  0
  5  7  1  0
  7  8  1  0
  8  9  2  0
  9 10  1  0
 10 11  2  0
 11 12  1  0
 12 13  2  0
 13 14  1  0
 14 15  1  0
 15 16  2  0
 16 17  1  0
 17 18  2  0
 18 19  1  0
 19 20  2  0
 13  8  1  0
 20 15  1  0
  3 21  1  0
  4 22  1  0
  4 23  1  0
  7 24  1  0
  9 25  1  0
 10 26  1  0
 11 27  1  0
 12 28  1  0
 16 29  1  0
 17 30  1  0
 18 31  1  0
 19 32  1  0
 20 33  1  0
M  END
>  <smiles>  (23) 
N#CNCC(=O)Nc1ccccc1Oc1ccccc1

>  <score_type>  (23) 
oracle

>  <origin>  (23) 
adg

>  <m_score__min__energy>  (23) 
-7.1799999999999997

>  <m_primary>  (23) 
energy

$$$$
