0:0
     RDKit          3D

 34 36  0  0  0  0  0  0  0  0999 V2000
   -3.5070   19.3430  -33.7740 C   0  0  0  0  0  0  0  0  0  0  0  0
   -4.8160   18.8940  -33.3130 N   0  0  0  0  0  0  0  0  0  0  0  0
   -5.2470   17.6140  -33.2000 C   0  0  0  0  0  0  0  0  0  0  0  0
   -6.5160   17.5180  -32.7250 N   0  0  0  0  0  0  0  0  0  0  0  0
   -6.8670   18.8070  -32.5440 C   0  0  0  0  0  0  0  0  0  0  0  0
   -5.8550   19.6340  -32.8910 C   0  0  0  0  0  0  0  0  0  0  0  0
   -5.9940   21.0100  -32.7640 C   0  0  0  0  0  0  0  0  0  0  0  0
   -5.0490   21.7780  -33.0910 O   0  0  0  0  0  0  0  0  0  0  0  0
   -7.1830   21.5040  -32.2750 N   0  0  0  0  0  0  0  0  0  0  0  0
   -7.3560   22.9590  -32.0810 C   0  0  0  0  0  0  0  0  0  0  0  0
   -6.3350   23.4850  -31.1050 C   0  0  0  0  0  0  0  0  0  0  0  0
   -5.8540   24.8010  -31.2170 C   0  0  0  0  0  0  0  0  0  0  0  0
   -4.9310   25.2960  -30.2910 C   0  0  0  0  0  0  0  0  0  0  0  0
   -4.4850   24.4860  -29.2450 C   0  0  0  0  0  0  0  0  0  0  0  0
   -4.9590   23.1780  -29.1230 C   0  0  0  0  0  0  0  0  0  0  0  0
   -5.8830   22.6780  -30.0470 C   0  0  0  0  0  0  0  0  0  0  0  0
   -8.2040   20.6340  -31.9200 C   0  0  0  0  0  0  0  0  0  0  0  0
   -9.2830   21.0910  -31.4490 O   0  0  0  0  0  0  0  0  0  0  0  0
   -8.0560   19.2720  -32.0720 N   0  0  0  0  0  0  0  0  0  0  0  0
   -9.1190   18.3420  -31.6670 C   0  0  0  0  0  0  0  0  0  0  0  0
   -2.8679   19.5622  -32.9059 H   0  0  0  0  0  0  0  0  0  0  0  0
   -3.0416   18.5531  -34.3819 H   0  0  0  0  0  0  0  0  0  0  0  0
   -3.6244   20.2523  -34.3819 H   0  0  0  0  0  0  0  0  0  0  0  0
   -4.6318   16.7417  -33.4659 H   0  0  0  0  0  0  0  0  0  0  0  0
   -7.2312   23.4706  -33.0468 H   0  0  0  0  0  0  0  0  0  0  0  0
   -8.3627   23.1479  -31.6800 H   0  0  0  0  0  0  0  0  0  0  0  0
   -6.2055   25.4444  -32.0371 H   0  0  0  0  0  0  0  0  0  0  0  0
   -4.5555   26.3255  -30.3867 H   0  0  0  0  0  0  0  0  0  0  0  0
   -3.7600   24.8782  -28.5166 H   0  0  0  0  0  0  0  0  0  0  0  0
   -4.6055   22.5401  -28.2995 H   0  0  0  0  0  0  0  0  0  0  0  0
   -6.2573   21.6487  -29.9449 H   0  0  0  0  0  0  0  0  0  0  0  0
   -9.1691   18.2981  -30.5690 H   0  0  0  0  0  0  0  0  0  0  0  0
  -10.0832   18.6918  -32.0644 H   0  0  0  0  0  0  0  0  0  0  0  0
   -8.9005   17.3398  -32.0644 H   0  0  0  0  0  0  0  0  0  0  0  0
  1  2  1  0
  2  3  1  0
  3  4  2  0
  4  5  1  0
  5  6  2  0
  6  7  1  0
  7  8  2  0
  7  9  1  0
  9 10  1  0
 10 11  1  0
 11 12  2  0
 12 13  1  0
 13 14  2  0
 14 15  1  0
 15 16  2  0
  9 17  1  0
 17 18  2  0
 17 19  1  0
 19 20  1  0
  6  2  1  0
 16 11  1  0
 19  5  1  0
  1 21  1  0
  1 22  1  0
  1 23  1  0
  3 24  1  0
 10 25  1  0
 10 26  1  0
 12 27  1  0
 13 28  1  0
 14 29  1  0
 15 30  1  0
 16 31  1  0
 20 32  1  0
 20 33  1  0
 20 34  1  0
M  END
>  <UniqueID>  (1) 
1

>  <SMILES>  (1) 
Cn1cnc2c1c(=O)n(Cc1ccccc1)c(=O)n2C

>  <Energy>  (1) 
80.81683358260187

>  <Genealogy>  (1) 
Cn1cnc2c1c(=O)n(Cc1ccccc1)c(=O)n2C (3D coordinates assigned)
Cn1cnc2c1c(=O)n(Cc1ccccc1)c(=O)n2C (optimized conformer: 80.81683358260187 kcal/mol)

>  <smiles>  (1) 
Cn1cnc2c1c(=O)n(Cc1ccccc1)c(=O)n2C

>  <score_type>  (1) 
oracle

>  <origin>  (1) 
adg

>  <m_score__min__energy>  (1) 
-6.7000000000000002

>  <m_primary>  (1) 
energy

$$$$
1:0
     RDKit          3D

 40 41  0  0  0  0  0  0  0  0999 V2000
   -2.9870   24.3090  -29.7480 C   0  0  0  0  0  0  0  0  0  0  0  0
   -3.7680   25.2680  -30.4280 O   0  0  0  0  0  0  0  0  0  0  0  0
   -5.1460   24.9660  -30.3000 C   0  0  0  0  0  0  0  0  0  0  0  0
   -5.3870   23.4790  -30.5910 C   0  0  0  0  0  0  0  0  0  0  0  0
   -5.5010   23.2430  -32.0500 N   0  0  0  0  0  0  0  0  0  0  0  0
   -6.8910   23.4570  -32.5200 C   0  0  0  0  0  0  0  0  0  0  0  0
   -7.9210   22.7010  -31.6700 C   0  0  0  0  0  0  0  0  0  0  0  0
   -8.0210   21.2230  -32.0000 C   0  0  0  0  0  0  0  0  0  0  0  0
   -9.2480   20.7540  -32.3720 N   0  0  0  0  0  0  0  0  0  0  0  0
   -9.4510   19.4510  -32.6780 C   0  0  0  0  0  0  0  0  0  0  0  0
   -8.4270   18.5720  -32.6110 N   0  0  0  0  0  0  0  0  0  0  0  0
   -7.1720   18.9570  -32.2630 C   0  0  0  0  0  0  0  0  0  0  0  0
   -6.0950   17.8970  -32.2000 C   0  0  0  0  0  0  0  0  0  0  0  0
   -5.9780   17.2180  -33.4380 O   0  0  0  0  0  0  0  0  0  0  0  0
   -5.6860   18.1280  -34.4760 C   0  0  0  0  0  0  0  0  0  0  0  0
   -6.9070   20.3280  -31.9940 C   0  0  0  0  0  0  0  0  0  0  0  0
   -5.4900   20.7580  -31.6210 C   0  0  0  0  0  0  0  0  0  0  0  0
   -4.9390   21.9310  -32.4460 C   0  0  0  0  0  0  0  0  0  0  0  0
   -3.0996   24.4473  -28.6626 H   0  0  0  0  0  0  0  0  0  0  0  0
   -3.3228   23.2990  -30.0257 H   0  0  0  0  0  0  0  0  0  0  0  0
   -1.9299   24.4333  -30.0257 H   0  0  0  0  0  0  0  0  0  0  0  0
   -5.4753   25.1947  -29.2757 H   0  0  0  0  0  0  0  0  0  0  0  0
   -5.7165   25.5716  -31.0195 H   0  0  0  0  0  0  0  0  0  0  0  0
   -4.5450   22.8923  -30.1949 H   0  0  0  0  0  0  0  0  0  0  0  0
   -6.3264   23.1716  -30.1083 H   0  0  0  0  0  0  0  0  0  0  0  0
   -7.1172   24.5325  -32.4746 H   0  0  0  0  0  0  0  0  0  0  0  0
   -6.9593   23.0727  -33.5484 H   0  0  0  0  0  0  0  0  0  0  0  0
   -7.6383   22.8017  -30.6117 H   0  0  0  0  0  0  0  0  0  0  0  0
   -8.9036   23.1450  -31.8874 H   0  0  0  0  0  0  0  0  0  0  0  0
  -10.0670   21.4000  -32.4240 H   0  0  0  0  0  0  0  0  0  0  0  0
  -10.4509   19.1074  -32.9816 H   0  0  0  0  0  0  0  0  0  0  0  0
   -5.1338   18.3747  -31.9594 H   0  0  0  0  0  0  0  0  0  0  0  0
   -6.3672   17.1665  -31.4239 H   0  0  0  0  0  0  0  0  0  0  0  0
   -5.3770   19.0910  -34.0433 H   0  0  0  0  0  0  0  0  0  0  0  0
   -4.8715   17.7268  -35.0970 H   0  0  0  0  0  0  0  0  0  0  0  0
   -6.5819   18.2757  -35.0970 H   0  0  0  0  0  0  0  0  0  0  0  0
   -5.4889   21.0535  -30.5614 H   0  0  0  0  0  0  0  0  0  0  0  0
   -4.8381   19.8970  -31.8297 H   0  0  0  0  0  0  0  0  0  0  0  0
   -3.8472   21.9659  -32.3168 H   0  0  0  0  0  0  0  0  0  0  0  0
   -5.2280   21.7562  -33.4929 H   0  0  0  0  0  0  0  0  0  0  0  0
  1  2  1  0
  2  3  1  0
  3  4  1  0
  4  5  1  0
  5  6  1  0
  6  7  1  0
  7  8  1  0
  8  9  2  0
  9 10  1  0
 10 11  2  0
 11 12  1  0
 12 13  1  0
 13 14  1  0
 14 15  1  0
 12 16  2  0
 16 17  1  0
 17 18  1  0
 18  5  1  0
 16  8  1  0
  1 19  1  0
  1 20  1  0
  1 21  1  0
  3 22  1  0
  3 23  1  0
  4 24  1  0
  4 25  1  0
  6 26  1  0
  6 27  1  0
  7 28  1  0
  7 29  1  0
  9 30  1  0
 10 31  1  0
 13 32  1  0
 13 33  1  0
 15 34  1  0
 15 35  1  0
 15 36  1  0
 17 37  1  0
 17 38  1  0
 18 39  1  0
 18 40  1  0
M  CHG  1   9   1
M  END
>  <UniqueID>  (2) 
2

>  <SMILES>  (2) 
COCCN1CCc2[nH+]cnc(COC)c2CC1

>  <Energy>  (2) 
59.30077000122552

>  <Genealogy>  (2) 
COCCN1CCc2[nH+]cnc(COC)c2CC1 (protonated)
COCCN1CCc2[nH+]cnc(COC)c2CC1 (3D coordinates assigned)
COCCN1CCc2[nH+]cnc(COC)c2CC1 (nonaromatic ring conformer: 59.30077000122552 kcal/mol)

>  <smiles>  (2) 
COCCN1CCc2ncnc(COC)c2CC1

>  <score_type>  (2) 
oracle

>  <origin>  (2) 
adg

>  <m_score__min__energy>  (2) 
-5.0700000000000003

>  <m_primary>  (2) 
energy

$$$$
2:0
     RDKit          3D

 49 52  0  0  0  0  0  0  0  0999 V2000
   -5.8060   17.3720  -32.0430 C   0  0  0  0  0  0  0  0  0  0  0  0
   -5.4680   16.8960  -33.3930 N   0  0  0  0  0  0  0  0  0  0  0  0
   -6.6310   16.2310  -34.0070 C   0  0  0  0  0  0  0  0  0  0  0  0
   -5.0040   18.0130  -34.1970 C   0  0  0  0  0  0  0  0  0  0  0  0
   -5.7670   18.5710  -34.9750 O   0  0  0  0  0  0  0  0  0  0  0  0
   -3.6430   18.6190  -33.9490 C   0  0  0  0  0  0  0  0  0  0  0  0
   -3.6340   19.8120  -32.9710 C   0  0  0  0  0  0  0  0  0  0  0  0
   -4.4510   21.0910  -33.3230 C   0  0  0  0  0  0  0  0  0  0  0  0
   -5.3390   21.6060  -32.2580 N   0  0  0  0  0  0  0  0  0  0  0  0
   -6.7650   21.2900  -32.2780 C   0  0  0  0  0  0  0  0  0  0  0  0
   -7.2690   20.1330  -32.9130 C   0  0  0  0  0  0  0  0  0  0  0  0
   -8.5940   19.7310  -32.7220 C   0  0  0  0  0  0  0  0  0  0  0  0
   -9.4480   20.4900  -31.9230 C   0  0  0  0  0  0  0  0  0  0  0  0
   -9.0010   21.6900  -31.3740 C   0  0  0  0  0  0  0  0  0  0  0  0
   -7.6820   22.1090  -31.5870 C   0  0  0  0  0  0  0  0  0  0  0  0
   -7.2540   23.7980  -31.2220 S   0  0  0  0  0  0  0  0  0  0  0  0
   -5.6790   23.3570  -30.5180 C   0  0  0  0  0  0  0  0  0  0  0  0
   -5.2660   24.0100  -29.3530 C   0  0  0  0  0  0  0  0  0  0  0  0
   -3.9530   23.8680  -28.8940 C   0  0  0  0  0  0  0  0  0  0  0  0
   -3.5260   24.5250  -27.7290 C   0  0  0  0  0  0  0  0  0  0  0  0
   -2.2030   24.3970  -27.2970 C   0  0  0  0  0  0  0  0  0  0  0  0
   -1.2990   23.6190  -28.0240 C   0  0  0  0  0  0  0  0  0  0  0  0
   -1.7130   22.9630  -29.1880 C   0  0  0  0  0  0  0  0  0  0  0  0
   -3.0410   23.0820  -29.6300 C   0  0  0  0  0  0  0  0  0  0  0  0
   -3.4710   22.4140  -30.7860 C   0  0  0  0  0  0  0  0  0  0  0  0
   -4.8140   22.4850  -31.2120 C   0  0  0  0  0  0  0  0  0  0  0  0
   -5.3391   16.7145  -31.2948 H   0  0  0  0  0  0  0  0  0  0  0  0
   -5.4335   18.3987  -31.9123 H   0  0  0  0  0  0  0  0  0  0  0  0
   -6.8981   17.3587  -31.9123 H   0  0  0  0  0  0  0  0  0  0  0  0
   -4.7050   16.1850  -33.3050 H   0  0  0  0  0  0  0  0  0  0  0  0
   -7.2955   15.8511  -33.2170 H   0  0  0  0  0  0  0  0  0  0  0  0
   -7.1786   16.9525  -34.6312 H   0  0  0  0  0  0  0  0  0  0  0  0
   -6.2870   15.3931  -34.6312 H   0  0  0  0  0  0  0  0  0  0  0  0
   -2.9892   17.8353  -33.5387 H   0  0  0  0  0  0  0  0  0  0  0  0
   -3.2973   19.0100  -34.9173 H   0  0  0  0  0  0  0  0  0  0  0  0
   -4.0166   19.4412  -32.0086 H   0  0  0  0  0  0  0  0  0  0  0  0
   -2.5894   20.1563  -32.9888 H   0  0  0  0  0  0  0  0  0  0  0  0
   -3.7364   21.8869  -33.5797 H   0  0  0  0  0  0  0  0  0  0  0  0
   -5.1163   20.8002  -34.1493 H   0  0  0  0  0  0  0  0  0  0  0  0
   -6.6105   19.5412  -33.5658 H   0  0  0  0  0  0  0  0  0  0  0  0
   -8.9638   18.8136  -33.2032 H   0  0  0  0  0  0  0  0  0  0  0  0
  -10.4728   20.1421  -31.7264 H   0  0  0  0  0  0  0  0  0  0  0  0
   -9.6843   22.3083  -30.7732 H   0  0  0  0  0  0  0  0  0  0  0  0
   -5.9766   24.6378  -28.7954 H   0  0  0  0  0  0  0  0  0  0  0  0
   -4.2338   25.1414  -27.1554 H   0  0  0  0  0  0  0  0  0  0  0  0
   -1.8727   24.9104  -26.3819 H   0  0  0  0  0  0  0  0  0  0  0  0
   -0.2586   23.5219  -27.6802 H   0  0  0  0  0  0  0  0  0  0  0  0
   -0.9972   22.3528  -29.7583 H   0  0  0  0  0  0  0  0  0  0  0  0
   -2.7488   21.8248  -31.3703 H   0  0  0  0  0  0  0  0  0  0  0  0
  1  2  1  0
  2  3  1  0
  2  4  1  0
  4  5  2  0
  4  6  1  0
  6  7  1  0
  7  8  1  0
  8  9  1  0
  9 10  1  0
 10 11  2  0
 11 12  1  0
 12 13  2  0
 13 14  1  0
 14 15  2  0
 15 16  1  0
 16 17  1  0
 17 18  2  0
 18 19  1  0
 19 20  2  0
 20 21  1  0
 21 22  2  0
 22 23  1  0
 23 24  2  0
 24 25  1  0
 25 26  2  0
 26  9  1  0
 15 10  1  0
 26 17  1  0
 24 19  1  0
  1 27  1  0
  1 28  1  0
  1 29  1  0
  2 30  1  0
  3 31  1  0
  3 32  1  0
  3 33  1  0
  6 34  1  0
  6 35  1  0
  7 36  1  0
  7 37  1  0
  8 38  1  0
  8 39  1  0
 11 40  1  0
 12 41  1  0
 13 42  1  0
 14 43  1  0
 18 44  1  0
 20 45  1  0
 21 46  1  0
 22 47  1  0
 23 48  1  0
 25 49  1  0
M  CHG  1   2   1
M  END
>  <UniqueID>  (3) 
3

>  <SMILES>  (3) 
C[NH+](C)C(=O)CCCN1c2ccccc2Sc2cc3ccccc3cc21

>  <Energy>  (3) 
78.28947666827833

>  <Genealogy>  (3) 
C[NH+](C)C(=O)CCCN1c2ccccc2Sc2cc3ccccc3cc21 (protonated)
C[NH+](C)C(=O)CCCN1c2ccccc2Sc2cc3ccccc3cc21 (3D coordinates assigned)
C[NH+](C)C(=O)CCCN1c2ccccc2Sc2cc3ccccc3cc21 (nonaromatic ring conformer: 78.28947666827833 kcal/mol)

>  <smiles>  (3) 
CN(C)C(=O)CCCN1c2ccccc2Sc2cc3ccccc3cc21

>  <score_type>  (3) 
oracle

>  <origin>  (3) 
adg

>  <m_score__min__energy>  (3) 
-8.3900000000000006

>  <m_primary>  (3) 
energy

$$$$
3:0
     RDKit          3D

 67 70  0  0  0  0  0  0  0  0999 V2000
   -4.2690   13.8450  -31.9690 C   0  0  0  0  0  0  0  0  0  0  0  0
   -3.7510   15.0520  -32.5180 O   0  0  0  0  0  0  0  0  0  0  0  0
   -4.4780   15.9340  -33.3330 C   0  0  0  0  0  0  0  0  0  0  0  0
   -5.8840   15.8810  -33.4140 C   0  0  0  0  0  0  0  0  0  0  0  0
   -6.5820   16.7920  -34.2090 C   0  0  0  0  0  0  0  0  0  0  0  0
   -5.8920   17.7640  -34.9310 C   0  0  0  0  0  0  0  0  0  0  0  0
   -4.4990   17.8260  -34.8660 C   0  0  0  0  0  0  0  0  0  0  0  0
   -3.7790   16.9110  -34.0770 C   0  0  0  0  0  0  0  0  0  0  0  0
   -2.3410   16.9790  -34.0380 N   0  0  0  0  0  0  0  0  0  0  0  0
   -1.5260   16.1410  -34.9230 C   0  0  0  0  0  0  0  0  0  0  0  0
   -0.3170   16.9510  -35.4040 C   0  0  0  0  0  0  0  0  0  0  0  0
    0.5280   17.4690  -34.2860 N   0  0  0  0  0  0  0  0  0  0  0  0
    1.1390   18.7790  -34.6290 C   0  0  0  0  0  0  0  0  0  0  0  0
    0.5110   19.4080  -35.8910 C   0  0  0  0  0  0  0  0  0  0  0  0
    0.5530   20.9450  -35.8670 C   0  0  0  0  0  0  0  0  0  0  0  0
   -0.1050   21.5390  -34.6130 C   0  0  0  0  0  0  0  0  0  0  0  0
   -1.2570   20.7810  -34.2440 O   0  0  0  0  0  0  0  0  0  0  0  0
   -2.0850   21.0350  -33.1370 C   0  0  0  0  0  0  0  0  0  0  0  0
   -1.5070   21.6180  -32.0050 C   0  0  0  0  0  0  0  0  0  0  0  0
   -2.2800   21.8930  -30.8770 C   0  0  0  0  0  0  0  0  0  0  0  0
   -3.6420   21.5860  -30.8670 C   0  0  0  0  0  0  0  0  0  0  0  0
   -4.2490   20.9960  -31.9900 C   0  0  0  0  0  0  0  0  0  0  0  0
   -5.6960   20.6640  -31.9680 C   0  0  0  0  0  0  0  0  0  0  0  0
   -6.7610   21.5690  -31.9700 C   0  0  0  0  0  0  0  0  0  0  0  0
   -8.0230   20.9550  -31.9430 C   0  0  0  0  0  0  0  0  0  0  0  0
   -9.3060   21.7290  -31.9690 C   0  0  0  0  0  0  0  0  0  0  0  0
   -7.9590   19.5620  -31.9520 C   0  0  0  0  0  0  0  0  0  0  0  0
   -9.1130   18.6150  -31.9020 C   0  0  0  0  0  0  0  0  0  0  0  0
   -6.3420   19.1050  -31.9510 S   0  0  0  0  0  0  0  0  0  0  0  0
   -3.4620   20.7330  -33.1270 C   0  0  0  0  0  0  0  0  0  0  0  0
   -0.1900   17.5540  -32.9810 C   0  0  0  0  0  0  0  0  0  0  0  0
   -1.6700   17.9260  -33.1400 C   0  0  0  0  0  0  0  0  0  0  0  0
   -4.2447   13.9017  -30.8707 H   0  0  0  0  0  0  0  0  0  0  0  0
   -5.3066   13.7046  -32.3060 H   0  0  0  0  0  0  0  0  0  0  0  0
   -3.6559   12.9961  -32.3060 H   0  0  0  0  0  0  0  0  0  0  0  0
   -6.4353   15.1165  -32.8469 H   0  0  0  0  0  0  0  0  0  0  0  0
   -7.6794   16.7424  -34.2656 H   0  0  0  0  0  0  0  0  0  0  0  0
   -6.4456   18.4830  -35.5527 H   0  0  0  0  0  0  0  0  0  0  0  0
   -3.9600   18.5967  -35.4365 H   0  0  0  0  0  0  0  0  0  0  0  0
   -1.1800   15.2527  -34.3741 H   0  0  0  0  0  0  0  0  0  0  0  0
   -2.1260   15.8204  -35.7874 H   0  0  0  0  0  0  0  0  0  0  0  0
    0.3047   16.3055  -36.0418 H   0  0  0  0  0  0  0  0  0  0  0  0
   -0.7049   17.8229  -35.9511 H   0  0  0  0  0  0  0  0  0  0  0  0
    1.3150   16.7910  -34.1440 H   0  0  0  0  0  0  0  0  0  0  0  0
    0.9970   19.4675  -33.7830 H   0  0  0  0  0  0  0  0  0  0  0  0
    2.2060   18.6082  -34.8345 H   0  0  0  0  0  0  0  0  0  0  0  0
    1.0636   19.0539  -36.7738 H   0  0  0  0  0  0  0  0  0  0  0  0
   -0.5454   19.1033  -35.9256 H   0  0  0  0  0  0  0  0  0  0  0  0
    1.6039   21.2684  -35.8991 H   0  0  0  0  0  0  0  0  0  0  0  0
   -0.0118   21.3053  -36.7395 H   0  0  0  0  0  0  0  0  0  0  0  0
    0.6180   21.5249  -33.7841 H   0  0  0  0  0  0  0  0  0  0  0  0
   -0.4144   22.5720  -34.8300 H   0  0  0  0  0  0  0  0  0  0  0  0
   -0.4343   21.8616  -32.0041 H   0  0  0  0  0  0  0  0  0  0  0  0
   -1.8151   22.3531  -29.9926 H   0  0  0  0  0  0  0  0  0  0  0  0
   -4.2448   21.8073  -29.9739 H   0  0  0  0  0  0  0  0  0  0  0  0
   -6.6232   22.6601  -31.9908 H   0  0  0  0  0  0  0  0  0  0  0  0
   -9.6353   21.9277  -30.9384 H   0  0  0  0  0  0  0  0  0  0  0  0
   -9.1483   22.6828  -32.4938 H   0  0  0  0  0  0  0  0  0  0  0  0
  -10.0762   21.1447  -32.4938 H   0  0  0  0  0  0  0  0  0  0  0  0
   -9.3694   18.4046  -30.8532 H   0  0  0  0  0  0  0  0  0  0  0  0
   -9.9795   19.0658  -32.4080 H   0  0  0  0  0  0  0  0  0  0  0  0
   -8.8400   17.6772  -32.4080 H   0  0  0  0  0  0  0  0  0  0  0  0
   -3.9269   20.2865  -34.0183 H   0  0  0  0  0  0  0  0  0  0  0  0
   -0.1250   16.5770  -32.4798 H   0  0  0  0  0  0  0  0  0  0  0  0
    0.2896   18.3483  -32.3902 H   0  0  0  0  0  0  0  0  0  0  0  0
   -2.1584   17.8996  -32.1547 H   0  0  0  0  0  0  0  0  0  0  0  0
   -1.7402   18.9363  -33.5693 H   0  0  0  0  0  0  0  0  0  0  0  0
  1  2  1  0
  2  3  1  0
  3  4  2  0
  4  5  1  0
  5  6  2  0
  6  7  1  0
  7  8  2  0
  8  9  1  0
  9 10  1  0
 10 11  1  0
 11 12  1  0
 12 13  1  0
 13 14  1  0
 14 15  1  0
 15 16  1  0
 16 17  1  0
 17 18  1  0
 18 19  2  0
 19 20  1  0
 20 21  2  0
 21 22  1  0
 22 23  1  0
 23 24  2  0
 24 25  1  0
 25 26  1  0
 25 27  2  0
 27 28  1  0
 27 29  1  0
 22 30  2  0
 12 31  1  0
 31 32  1  0
  8  3  1  0
 32  9  1  0
 30 18  1  0
 29 23  1  0
  1 33  1  0
  1 34  1  0
  1 35  1  0
  4 36  1  0
  5 37  1  0
  6 38  1  0
  7 39  1  0
 10 40  1  0
 10 41  1  0
 11 42  1  0
 11 43  1  0
 12 44  1  0
 13 45  1  0
 13 46  1  0
 14 47  1  0
 14 48  1  0
 15 49  1  0
 15 50  1  0
 16 51  1  0
 16 52  1  0
 19 53  1  0
 20 54  1  0
 21 55  1  0
 24 56  1  0
 26 57  1  0
 26 58  1  0
 26 59  1  0
 28 60  1  0
 28 61  1  0
 28 62  1  0
 30 63  1  0
 31 64  1  0
 31 65  1  0
 32 66  1  0
 32 67  1  0
M  CHG  1  12   1
M  END
>  <UniqueID>  (4) 
4

>  <SMILES>  (4) 
COc1ccccc1N1CC[NH+](CCCCOc2cccc(-c3cc(C)c(C)s3)c2)CC1

>  <Energy>  (4) 
104.74004826374808

>  <Genealogy>  (4) 
COc1ccccc1N1CC[NH+](CCCCOc2cccc(-c3cc(C)c(C)s3)c2)CC1 (protonated)
COc1ccccc1N1CC[NH+](CCCCOc2cccc(-c3cc(C)c(C)s3)c2)CC1 (3D coordinates assigned)
COc1ccccc1N1CC[NH+](CCCCOc2cccc(-c3cc(C)c(C)s3)c2)CC1 (nonaromatic ring conformer: 104.74004826374808 kcal/mol)

>  <smiles>  (4) 
COc1ccccc1N1CCN(CCCCOc2cccc(-c3cc(C)c(C)s3)c2)CC1

>  <score_type>  (4) 
oracle

>  <origin>  (4) 
adg

>  <m_score__min__energy>  (4) 
-8.2100000000000009

>  <m_primary>  (4) 
energy

$$$$
4:0
     RDKit          3D

 36 38  0  0  0  0  0  0  0  0999 V2000
   -5.3940   26.4020  -30.5000 O   0  0  0  0  0  0  0  0  0  0  0  0
   -4.9600   25.2210  -30.4540 C   0  0  0  0  0  0  0  0  0  0  0  0
   -5.9380   24.0830  -30.4790 C   0  0  0  0  0  0  0  0  0  0  0  0
   -6.0580   23.5210  -31.7860 O   0  0  0  0  0  0  0  0  0  0  0  0
   -6.5930   22.2560  -32.0820 C   0  0  0  0  0  0  0  0  0  0  0  0
   -5.7930   21.1740  -32.5010 C   0  0  0  0  0  0  0  0  0  0  0  0
   -6.3790   19.9390  -32.7980 C   0  0  0  0  0  0  0  0  0  0  0  0
   -7.7600   19.7720  -32.6780 C   0  0  0  0  0  0  0  0  0  0  0  0
   -8.5590   20.8390  -32.2580 C   0  0  0  0  0  0  0  0  0  0  0  0
   -7.9780   22.0740  -31.9600 C   0  0  0  0  0  0  0  0  0  0  0  0
   -8.7660   23.1050  -31.5630 F   0  0  0  0  0  0  0  0  0  0  0  0
   -3.5520   24.9530  -30.4670 N   0  0  0  0  0  0  0  0  0  0  0  0
   -2.8990   23.6840  -30.3050 C   0  0  0  0  0  0  0  0  0  0  0  0
   -3.1150   22.6270  -31.2110 C   0  0  0  0  0  0  0  0  0  0  0  0
   -2.5090   21.3850  -31.0060 C   0  0  0  0  0  0  0  0  0  0  0  0
   -1.6770   21.1840  -29.9060 C   0  0  0  0  0  0  0  0  0  0  0  0
   -1.4270   22.2320  -29.0190 C   0  0  0  0  0  0  0  0  0  0  0  0
   -2.0090   23.4940  -29.2210 C   0  0  0  0  0  0  0  0  0  0  0  0
   -1.7010   24.5630  -28.3080 N   0  0  0  0  0  0  0  0  0  0  0  0
   -2.2470   24.7670  -27.0930 C   0  0  0  0  0  0  0  0  0  0  0  0
   -1.7240   25.9290  -26.5690 C   0  0  0  0  0  0  0  0  0  0  0  0
   -0.8600   26.3940  -27.5400 C   0  0  0  0  0  0  0  0  0  0  0  0
   -0.8690   25.5520  -28.5920 N   0  0  0  0  0  0  0  0  0  0  0  0
   -5.5945   23.3019  -29.7848 H   0  0  0  0  0  0  0  0  0  0  0  0
   -6.9232   24.4697  -30.1793 H   0  0  0  0  0  0  0  0  0  0  0  0
   -4.7044   21.3010  -32.5948 H   0  0  0  0  0  0  0  0  0  0  0  0
   -5.7507   19.0980  -33.1266 H   0  0  0  0  0  0  0  0  0  0  0  0
   -8.2191   18.8007  -32.9140 H   0  0  0  0  0  0  0  0  0  0  0  0
   -9.6467   20.7062  -32.1620 H   0  0  0  0  0  0  0  0  0  0  0  0
   -3.7648   22.7805  -32.0852 H   0  0  0  0  0  0  0  0  0  0  0  0
   -2.6890   20.5633  -31.7148 H   0  0  0  0  0  0  0  0  0  0  0  0
   -1.2173   20.1991  -29.7370 H   0  0  0  0  0  0  0  0  0  0  0  0
   -0.7680   22.0680  -28.1536 H   0  0  0  0  0  0  0  0  0  0  0  0
   -2.9855   24.1158  -26.6024 H   0  0  0  0  0  0  0  0  0  0  0  0
   -1.9458   26.3852  -25.5929 H   0  0  0  0  0  0  0  0  0  0  0  0
   -0.2569   27.3110  -27.4663 H   0  0  0  0  0  0  0  0  0  0  0  0
  1  2  2  0
  2  3  1  0
  3  4  1  0
  4  5  1  0
  5  6  2  0
  6  7  1  0
  7  8  2  0
  8  9  1  0
  9 10  2  0
 10 11  1  0
  2 12  1  0
 12 13  1  0
 13 14  2  0
 14 15  1  0
 15 16  2  0
 16 17  1  0
 17 18  2  0
 18 19  1  0
 19 20  1  0
 20 21  2  0
 21 22  1  0
 22 23  2  0
 10  5  1  0
 18 13  1  0
 23 19  1  0
  3 24  1  0
  3 25  1  0
  6 26  1  0
  7 27  1  0
  8 28  1  0
  9 29  1  0
 14 30  1  0
 15 31  1  0
 16 32  1  0
 17 33  1  0
 20 34  1  0
 21 35  1  0
 22 36  1  0
M  CHG  1  12  -1
M  END
>  <UniqueID>  (5) 
5

>  <SMILES>  (5) 
O=C(COc1ccccc1F)[N-]c1ccccc1-n1cccn1

>  <Energy>  (5) 
74.91821177743239

>  <Genealogy>  (5) 
O=C(COc1ccccc1F)[N-]c1ccccc1-n1cccn1 (protonated)
O=C(COc1ccccc1F)[N-]c1ccccc1-n1cccn1 (3D coordinates assigned)
O=C(COc1ccccc1F)[N-]c1ccccc1-n1cccn1 (optimized conformer: 74.91821177743239 kcal/mol)

>  <smiles>  (5) 
O=C(COc1ccccc1F)Nc1ccccc1-n1cccn1

>  <score_type>  (5) 
oracle

>  <origin>  (5) 
adg

>  <m_score__min__energy>  (5) 
-9.1099999999999994

>  <m_primary>  (5) 
energy

$$$$
5:0
     RDKit          3D

 36 39  0  0  0  0  0  0  0  0999 V2000
   -5.4500   25.2950  -28.7620 F   0  0  0  0  0  0  0  0  0  0  0  0
   -4.6120   24.4970  -29.5180 C   0  0  0  0  0  0  0  0  0  0  0  0
   -3.9610   23.6080  -28.6800 F   0  0  0  0  0  0  0  0  0  0  0  0
   -3.6570   25.2950  -30.1260 F   0  0  0  0  0  0  0  0  0  0  0  0
   -5.4260   23.7560  -30.5470 C   0  0  0  0  0  0  0  0  0  0  0  0
   -6.7160   24.1960  -30.8910 C   0  0  0  0  0  0  0  0  0  0  0  0
   -7.4870   23.4760  -31.8080 C   0  0  0  0  0  0  0  0  0  0  0  0
   -6.9840   22.3080  -32.3830 C   0  0  0  0  0  0  0  0  0  0  0  0
   -5.7020   21.8490  -32.0480 C   0  0  0  0  0  0  0  0  0  0  0  0
   -5.1920   20.5940  -32.6370 C   0  0  0  0  0  0  0  0  0  0  0  0
   -3.9150   20.4590  -33.0690 N   0  0  0  0  0  0  0  0  0  0  0  0
   -3.8350   19.2390  -33.6240 C   0  0  0  0  0  0  0  0  0  0  0  0
   -2.7120   18.6520  -34.2050 C   0  0  0  0  0  0  0  0  0  0  0  0
   -2.8390   17.3480  -34.7160 C   0  0  0  0  0  0  0  0  0  0  0  0
   -4.0720   16.6660  -34.6310 C   0  0  0  0  0  0  0  0  0  0  0  0
   -5.1900   17.2820  -34.0390 C   0  0  0  0  0  0  0  0  0  0  0  0
   -5.0380   18.5820  -33.5500 C   0  0  0  0  0  0  0  0  0  0  0  0
   -5.9260   19.4300  -32.9110 C   0  0  0  0  0  0  0  0  0  0  0  0
   -7.3160   19.1120  -32.5350 C   0  0  0  0  0  0  0  0  0  0  0  0
   -8.4710   19.6810  -33.0450 C   0  0  0  0  0  0  0  0  0  0  0  0
   -9.4890   19.0570  -32.3540 C   0  0  0  0  0  0  0  0  0  0  0  0
   -8.9440   18.1820  -31.4910 N   0  0  0  0  0  0  0  0  0  0  0  0
   -7.6530   18.2370  -31.6150 O   0  0  0  0  0  0  0  0  0  0  0  0
   -4.9400   22.5620  -31.1060 C   0  0  0  0  0  0  0  0  0  0  0  0
   -7.1209   25.1120  -30.4360 H   0  0  0  0  0  0  0  0  0  0  0  0
   -8.4928   23.8309  -32.0772 H   0  0  0  0  0  0  0  0  0  0  0  0
   -7.5963   21.7447  -33.1026 H   0  0  0  0  0  0  0  0  0  0  0  0
   -3.1520   21.1710  -33.0140 H   0  0  0  0  0  0  0  0  0  0  0  0
   -1.7556   19.1924  -34.2620 H   0  0  0  0  0  0  0  0  0  0  0  0
   -1.9732   16.8570  -35.1843 H   0  0  0  0  0  0  0  0  0  0  0  0
   -4.1595   15.6449  -35.0307 H   0  0  0  0  0  0  0  0  0  0  0  0
   -6.1535   16.7566  -33.9635 H   0  0  0  0  0  0  0  0  0  0  0  0
   -8.5570   20.4538  -33.8231 H   0  0  0  0  0  0  0  0  0  0  0  0
  -10.5649   19.2438  -32.4867 H   0  0  0  0  0  0  0  0  0  0  0  0
   -9.4570   17.5640  -30.8250 H   0  0  0  0  0  0  0  0  0  0  0  0
   -3.9533   22.1813  -30.8035 H   0  0  0  0  0  0  0  0  0  0  0  0
  1  2  1  0
  2  3  1  0
  2  4  1  0
  2  5  1  0
  5  6  2  0
  6  7  1  0
  7  8  2  0
  8  9  1  0
  9 10  1  0
 10 11  1  0
 11 12  1  0
 12 13  2  0
 13 14  1  0
 14 15  2  0
 15 16  1  0
 16 17  2  0
 17 18  1  0
 18 19  1  0
 19 20  2  0
 20 21  1  0
 21 22  2  0
 22 23  1  0
  9 24  2  0
 24  5  1  0
 18 10  2  0
 23 19  1  0
 17 12  1  0
  6 25  1  0
  7 26  1  0
  8 27  1  0
 11 28  1  0
 13 29  1  0
 14 30  1  0
 15 31  1  0
 16 32  1  0
 20 33  1  0
 21 34  1  0
 22 35  1  0
 24 36  1  0
M  CHG  1  22   1
M  END
>  <UniqueID>  (6) 
6

>  <SMILES>  (6) 
FC(F)(F)c1cccc(-c2[nH]c3ccccc3c2-c2cc[nH+]o2)c1

>  <Energy>  (6) 
111.21344861071579

>  <Genealogy>  (6) 
FC(F)(F)c1cccc(-c2[nH]c3ccccc3c2-c2cc[nH+]o2)c1 (protonated)
FC(F)(F)c1cccc(-c2[nH]c3ccccc3c2-c2cc[nH+]o2)c1 (3D coordinates assigned)
FC(F)(F)c1cccc(-c2[nH]c3ccccc3c2-c2cc[nH+]o2)c1 (optimized conformer: 111.21344861071579 kcal/mol)

>  <smiles>  (6) 
FC(F)(F)c1cccc(-c2[nH]c3ccccc3c2-c2ccno2)c1

>  <score_type>  (6) 
oracle

>  <origin>  (6) 
adg

>  <m_score__min__energy>  (6) 
-7.71

>  <m_primary>  (6) 
energy

$$$$
6:0
     RDKit          3D

 34 35  0  0  0  0  0  0  0  0999 V2000
   -2.1050   20.7740  -33.7500 C   0  0  0  0  0  0  0  0  0  0  0  0
   -3.4420   21.1770  -33.2210 C   0  0  0  0  0  0  0  0  0  0  0  0
   -3.5750   22.3030  -32.6690 O   0  0  0  0  0  0  0  0  0  0  0  0
   -4.5790   20.3240  -33.4290 N   0  0  0  0  0  0  0  0  0  0  0  0
   -5.8630   20.5290  -32.8140 C   0  0  0  0  0  0  0  0  0  0  0  0
   -6.9790   19.8340  -33.3030 C   0  0  0  0  0  0  0  0  0  0  0  0
   -8.2350   20.0060  -32.7130 C   0  0  0  0  0  0  0  0  0  0  0  0
   -8.3840   20.8650  -31.6220 C   0  0  0  0  0  0  0  0  0  0  0  0
   -7.2760   21.5520  -31.1150 C   0  0  0  0  0  0  0  0  0  0  0  0
   -7.4640   22.6490  -29.7100 S   0  0  0  0  0  0  0  0  0  0  0  0
   -6.0650   23.6590  -30.1990 C   0  0  0  0  0  0  0  0  0  0  0  0
   -6.1070   24.9170  -31.2880 S   0  0  0  0  0  0  0  0  0  0  0  0
   -4.5030   25.3350  -31.2100 N   0  0  0  0  0  0  0  0  0  0  0  0
   -3.9100   24.5130  -30.3480 N   0  0  0  0  0  0  0  0  0  0  0  0
   -4.7360   23.5810  -29.7750 C   0  0  0  0  0  0  0  0  0  0  0  0
   -4.2210   22.5760  -28.7760 C   0  0  0  0  0  0  0  0  0  0  0  0
   -3.6750   23.2910  -27.5370 C   0  0  0  0  0  0  0  0  0  0  0  0
   -3.1460   21.6920  -29.4140 C   0  0  0  0  0  0  0  0  0  0  0  0
   -6.0150   21.3730  -31.6980 C   0  0  0  0  0  0  0  0  0  0  0  0
   -1.4249   20.5690  -32.9101 H   0  0  0  0  0  0  0  0  0  0  0  0
   -2.2118   19.8681  -34.3648 H   0  0  0  0  0  0  0  0  0  0  0  0
   -1.6934   21.5880  -34.3648 H   0  0  0  0  0  0  0  0  0  0  0  0
   -4.4890   19.5600  -34.1370 H   0  0  0  0  0  0  0  0  0  0  0  0
   -6.8653   19.1491  -34.1563 H   0  0  0  0  0  0  0  0  0  0  0  0
   -9.1067   19.4641  -33.1086 H   0  0  0  0  0  0  0  0  0  0  0  0
   -9.3734   21.0014  -31.1610 H   0  0  0  0  0  0  0  0  0  0  0  0
   -5.0541   21.9299  -28.4622 H   0  0  0  0  0  0  0  0  0  0  0  0
   -4.0536   22.7952  -26.6310 H   0  0  0  0  0  0  0  0  0  0  0  0
   -2.5758   23.2506  -27.5450 H   0  0  0  0  0  0  0  0  0  0  0  0
   -4.0034   24.3408  -27.5450 H   0  0  0  0  0  0  0  0  0  0  0  0
   -2.5548   21.2058  -28.6240 H   0  0  0  0  0  0  0  0  0  0  0  0
   -3.6259   20.9238  -30.0382 H   0  0  0  0  0  0  0  0  0  0  0  0
   -2.4850   22.3113  -30.0382 H   0  0  0  0  0  0  0  0  0  0  0  0
   -5.1401   21.8941  -31.2820 H   0  0  0  0  0  0  0  0  0  0  0  0
  1  2  1  0
  2  3  2  0
  2  4  1  0
  4  5  1  0
  5  6  2  0
  6  7  1  0
  7  8  2  0
  8  9  1  0
  9 10  1  0
 10 11  1  0
 11 12  1  0
 12 13  1  0
 13 14  2  0
 14 15  1  0
 15 16  1  0
 16 17  1  0
 16 18  1  0
  9 19  2  0
 19  5  1  0
 15 11  2  0
  1 20  1  0
  1 21  1  0
  1 22  1  0
  4 23  1  0
  6 24  1  0
  7 25  1  0
  8 26  1  0
 16 27  1  0
 17 28  1  0
 17 29  1  0
 17 30  1  0
 18 31  1  0
 18 32  1  0
 18 33  1  0
 19 34  1  0
M  END
>  <UniqueID>  (7) 
7

>  <SMILES>  (7) 
CC(=O)Nc1cccc(Sc2snnc2C(C)C)c1

>  <Energy>  (7) 
63.01051796967362

>  <Genealogy>  (7) 
CC(=O)Nc1cccc(Sc2snnc2C(C)C)c1 (3D coordinates assigned)
CC(=O)Nc1cccc(Sc2snnc2C(C)C)c1 (optimized conformer: 63.01051796967362 kcal/mol)

>  <smiles>  (7) 
CC(=O)Nc1cccc(Sc2snnc2C(C)C)c1

>  <score_type>  (7) 
oracle

>  <origin>  (7) 
adg

>  <m_score__min__energy>  (7) 
-8.0800000000000001

>  <m_primary>  (7) 
energy

$$$$
7:0
     RDKit          3D

 26 27  0  0  0  0  0  0  0  0999 V2000
   -6.4870   17.4300  -31.1740 C   0  0  0  0  0  0  0  0  0  0  0  0
   -6.1050   17.5870  -32.6220 C   0  0  0  0  0  0  0  0  0  0  0  0
   -5.3530   16.5760  -33.2450 C   0  0  0  0  0  0  0  0  0  0  0  0
   -4.9910   16.6870  -34.5890 C   0  0  0  0  0  0  0  0  0  0  0  0
   -5.3680   17.8090  -35.3260 C   0  0  0  0  0  0  0  0  0  0  0  0
   -6.1000   18.8300  -34.7190 C   0  0  0  0  0  0  0  0  0  0  0  0
   -6.4660   18.7380  -33.3650 C   0  0  0  0  0  0  0  0  0  0  0  0
   -7.2200   19.8580  -32.7560 C   0  0  0  0  0  0  0  0  0  0  0  0
   -8.5620   19.6660  -32.3960 C   0  0  0  0  0  0  0  0  0  0  0  0
   -9.2730   20.7070  -31.8080 C   0  0  0  0  0  0  0  0  0  0  0  0
   -8.6450   21.9270  -31.5770 C   0  0  0  0  0  0  0  0  0  0  0  0
   -7.3050   22.0960  -31.9370 C   0  0  0  0  0  0  0  0  0  0  0  0
   -6.4990   23.8020  -31.5920 Br  0  0  0  0  0  0  0  0  0  0  0  0
   -6.6110   21.0630  -32.5190 N   0  0  0  0  0  0  0  0  0  0  0  0
   -5.2900   21.2190  -32.8980 O   0  0  0  0  0  0  0  0  0  0  0  0
   -5.6576   17.7709  -30.5369 H   0  0  0  0  0  0  0  0  0  0  0  0
   -7.3827   18.0329  -30.9636 H   0  0  0  0  0  0  0  0  0  0  0  0
   -6.6998   16.3715  -30.9636 H   0  0  0  0  0  0  0  0  0  0  0  0
   -5.0472   15.6901  -32.6691 H   0  0  0  0  0  0  0  0  0  0  0  0
   -4.4069   15.8872  -35.0676 H   0  0  0  0  0  0  0  0  0  0  0  0
   -5.0881   17.8893  -36.3868 H   0  0  0  0  0  0  0  0  0  0  0  0
   -6.3930   19.7139  -35.3046 H   0  0  0  0  0  0  0  0  0  0  0  0
   -9.0498   18.6970  -32.5778 H   0  0  0  0  0  0  0  0  0  0  0  0
  -10.3271   20.5664  -31.5269 H   0  0  0  0  0  0  0  0  0  0  0  0
   -9.2008   22.7551  -31.1130 H   0  0  0  0  0  0  0  0  0  0  0  0
   -4.9930   21.8940  -33.5910 H   0  0  0  0  0  0  0  0  0  0  0  0
  1  2  1  0
  2  3  2  0
  3  4  1  0
  4  5  2  0
  5  6  1  0
  6  7  2  0
  7  8  1  0
  8  9  2  0
  9 10  1  0
 10 11  2  0
 11 12  1  0
 12 13  1  0
 12 14  2  0
 14 15  1  0
  7  2  1  0
 14  8  1  0
  1 16  1  0
  1 17  1  0
  1 18  1  0
  3 19  1  0
  4 20  1  0
  5 21  1  0
  6 22  1  0
  9 23  1  0
 10 24  1  0
 11 25  1  0
 15 26  1  0
M  CHG  1  14   1
M  END
>  <UniqueID>  (8) 
8

>  <SMILES>  (8) 
Cc1ccccc1-c1cccc(Br)[n+]1O

>  <Energy>  (8) 
36.6282086441898

>  <Genealogy>  (8) 
Cc1ccccc1-c1cccc(Br)[n+]1O (protonated)
Cc1ccccc1-c1cccc(Br)[n+]1O (3D coordinates assigned)
Cc1ccccc1-c1cccc(Br)[n+]1O (optimized conformer: 36.6282086441898 kcal/mol)

>  <smiles>  (8) 
Cc1ccccc1-c1cccc(Br)[n+]1[O-]

>  <score_type>  (8) 
oracle

>  <origin>  (8) 
adg

>  <m_score__min__energy>  (8) 
-6.5999999999999996

>  <m_primary>  (8) 
energy

$$$$
8:0
     RDKit          3D

 39 42  0  0  0  0  0  0  0  0999 V2000
   -6.7900   15.8750  -34.2110 C   0  0  0  0  0  0  0  0  0  0  0  0
   -6.1840   16.7530  -33.1930 N   0  0  1  0  0  0  0  0  0  0  0  0
   -5.2460   17.7130  -33.8320 C   0  0  0  0  0  0  0  0  0  0  0  0
   -5.1310   19.0260  -33.0500 C   0  0  0  0  0  0  0  0  0  0  0  0
   -6.4880   19.7690  -33.0610 C   0  0  2  0  0  0  0  0  0  0  0  0
   -6.5300   20.9750  -32.1260 C   0  0  0  0  0  0  0  0  0  0  0  0
   -5.3840   21.7450  -31.8350 C   0  0  0  0  0  0  0  0  0  0  0  0
   -5.4950   22.9620  -31.1440 C   0  0  0  0  0  0  0  0  0  0  0  0
   -4.3520   23.7190  -30.8370 C   0  0  0  0  0  0  0  0  0  0  0  0
   -4.4770   24.9350  -30.1590 C   0  0  0  0  0  0  0  0  0  0  0  0
   -5.7380   25.4070  -29.7870 C   0  0  0  0  0  0  0  0  0  0  0  0
   -6.8840   24.6670  -30.0910 C   0  0  0  0  0  0  0  0  0  0  0  0
   -6.7720   23.4430  -30.7700 C   0  0  0  0  0  0  0  0  0  0  0  0
   -7.9120   22.6940  -31.0850 C   0  0  0  0  0  0  0  0  0  0  0  0
   -7.7860   21.4680  -31.7430 C   0  0  0  0  0  0  0  0  0  0  0  0
   -8.9220   20.7150  -32.0150 O   0  0  0  0  0  0  0  0  0  0  0  0
   -8.8500   19.2970  -32.0070 C   0  0  0  0  0  0  0  0  0  0  0  0
   -7.6920   18.7700  -32.8880 C   0  0  2  0  0  0  0  0  0  0  0  0
   -7.2280   17.3930  -32.3500 C   0  0  0  0  0  0  0  0  0  0  0  0
   -7.3474   15.0674  -33.7138 H   0  0  0  0  0  0  0  0  0  0  0  0
   -7.4765   16.4615  -34.8393 H   0  0  0  0  0  0  0  0  0  0  0  0
   -5.9982   15.4411  -34.8393 H   0  0  0  0  0  0  0  0  0  0  0  0
   -5.6190   16.1340  -32.5640 H   0  0  0  0  0  0  0  0  0  0  0  0
   -4.2506   17.2484  -33.8906 H   0  0  0  0  0  0  0  0  0  0  0  0
   -5.6392   17.9512  -34.8313 H   0  0  0  0  0  0  0  0  0  0  0  0
   -4.8439   18.8072  -32.0109 H   0  0  0  0  0  0  0  0  0  0  0  0
   -4.3674   19.6617  -33.5220 H   0  0  0  0  0  0  0  0  0  0  0  0
   -6.6040   20.2141  -34.0602 H   0  0  0  0  0  0  0  0  0  0  0  0
   -4.3933   21.3880  -32.1529 H   0  0  0  0  0  0  0  0  0  0  0  0
   -3.3567   23.3541  -31.1307 H   0  0  0  0  0  0  0  0  0  0  0  0
   -3.5789   25.5225  -29.9175 H   0  0  0  0  0  0  0  0  0  0  0  0
   -5.8293   26.3643  -29.2530 H   0  0  0  0  0  0  0  0  0  0  0  0
   -7.8750   25.0439  -29.7980 H   0  0  0  0  0  0  0  0  0  0  0  0
   -8.9090   23.0715  -30.8139 H   0  0  0  0  0  0  0  0  0  0  0  0
   -8.6935   18.9552  -30.9732 H   0  0  0  0  0  0  0  0  0  0  0  0
   -9.7933   18.9067  -32.4168 H   0  0  0  0  0  0  0  0  0  0  0  0
   -8.0914   18.6607  -33.9071 H   0  0  0  0  0  0  0  0  0  0  0  0
   -6.8217   17.5328  -31.3374 H   0  0  0  0  0  0  0  0  0  0  0  0
   -8.1046   16.7285  -32.3571 H   0  0  0  0  0  0  0  0  0  0  0  0
  1  2  1  0
  2  3  1  0
  3  4  1  0
  4  5  1  0
  5  6  1  0
  6  7  2  0
  7  8  1  0
  8  9  2  0
  9 10  1  0
 10 11  2  0
 11 12  1  0
 12 13  2  0
 13 14  1  0
 14 15  2  0
 15 16  1  0
 16 17  1  0
 17 18  1  0
 18 19  1  0
 19  2  1  0
 18  5  1  0
 15  6  1  0
 13  8  1  0
  1 20  1  0
  1 21  1  0
  1 22  1  0
  2 23  1  1
  3 24  1  0
  3 25  1  0
  4 26  1  0
  4 27  1  0
  5 28  1  6
  7 29  1  0
  9 30  1  0
 10 31  1  0
 11 32  1  0
 12 33  1  0
 14 34  1  0
 17 35  1  0
 17 36  1  0
 18 37  1  6
 19 38  1  0
 19 39  1  0
M  CHG  1   2   1
M  END
>  <UniqueID>  (9) 
9

>  <SMILES>  (9) 
C[N@H+]1CC[C@@H]2c3cc4ccccc4cc3OCC2C1

>  <Energy>  (9) 
64.62641659419992

>  <Genealogy>  (9) 
C[NH+]1CCC2c3cc4ccccc4cc3OCC2C1 (protonated)
C[N@H+]1CC[C@@H]2c3cc4ccccc4cc3OCC2C1 (chirality)
C[N@H+]1CC[C@@H]2c3cc4ccccc4cc3OCC2C1 (3D coordinates assigned)
C[N@H+]1CC[C@@H]2c3cc4ccccc4cc3OCC2C1 (nonaromatic ring conformer: 64.62641659419992 kcal/mol)

>  <smiles>  (9) 
CN1CCC2c3cc4ccccc4cc3OCC2C1

>  <score_type>  (9) 
oracle

>  <origin>  (9) 
adg

>  <m_score__min__energy>  (9) 
-7.6500000000000004

>  <m_primary>  (9) 
energy

$$$$
9:0
     RDKit          3D

 38 39  0  0  0  0  0  0  0  0999 V2000
   -2.5410   24.5320  -29.1730 C   0  0  0  0  0  0  0  0  0  0  0  0
   -3.4610   25.1420  -30.0710 O   0  0  0  0  0  0  0  0  0  0  0  0
   -4.6880   24.5800  -30.4550 C   0  0  0  0  0  0  0  0  0  0  0  0
   -5.9200   25.1270  -30.0490 C   0  0  0  0  0  0  0  0  0  0  0  0
   -7.1210   24.5550  -30.4710 C   0  0  0  0  0  0  0  0  0  0  0  0
   -7.1140   23.4270  -31.3010 C   0  0  0  0  0  0  0  0  0  0  0  0
   -8.4090   22.8490  -31.8150 C   0  0  0  0  0  0  0  0  0  0  0  0
   -8.7100   21.5570  -31.1740 N   0  0  0  0  0  0  0  0  0  0  0  0
   -9.1730   20.5400  -32.1350 C   0  0  0  0  0  0  0  0  0  0  0  0
   -8.0430   19.6230  -32.5250 C   0  0  0  0  0  0  0  0  0  0  0  0
   -7.0770   20.0470  -33.4490 C   0  0  0  0  0  0  0  0  0  0  0  0
   -6.0710   19.1640  -33.8480 C   0  0  0  0  0  0  0  0  0  0  0  0
   -6.0220   17.9050  -33.3370 N   0  0  0  0  0  0  0  0  0  0  0  0
   -6.9380   17.4740  -32.4260 C   0  0  0  0  0  0  0  0  0  0  0  0
   -7.9600   18.3250  -32.0000 C   0  0  0  0  0  0  0  0  0  0  0  0
   -5.8890   22.8560  -31.6780 C   0  0  0  0  0  0  0  0  0  0  0  0
   -4.6730   23.4400  -31.2730 C   0  0  0  0  0  0  0  0  0  0  0  0
   -3.4310   22.9220  -31.6720 O   0  0  0  0  0  0  0  0  0  0  0  0
   -3.2590   21.7140  -32.4050 C   0  0  0  0  0  0  0  0  0  0  0  0
   -2.8494   24.7365  -28.1371 H   0  0  0  0  0  0  0  0  0  0  0  0
   -2.5275   23.4454  -29.3439 H   0  0  0  0  0  0  0  0  0  0  0  0
   -1.5349   24.9425  -29.3439 H   0  0  0  0  0  0  0  0  0  0  0  0
   -5.9361   26.0112  -29.3948 H   0  0  0  0  0  0  0  0  0  0  0  0
   -8.0779   24.9923  -30.1501 H   0  0  0  0  0  0  0  0  0  0  0  0
   -9.2259   23.5540  -31.6013 H   0  0  0  0  0  0  0  0  0  0  0  0
   -8.3103   22.6847  -32.8982 H   0  0  0  0  0  0  0  0  0  0  0  0
   -9.4910   21.7260  -30.4970 H   0  0  0  0  0  0  0  0  0  0  0  0
   -9.9767   19.9470  -31.6741 H   0  0  0  0  0  0  0  0  0  0  0  0
   -9.5435   21.0485  -33.0373 H   0  0  0  0  0  0  0  0  0  0  0  0
   -7.1113   21.0681  -33.8568 H   0  0  0  0  0  0  0  0  0  0  0  0
   -5.3154   19.4885  -34.5786 H   0  0  0  0  0  0  0  0  0  0  0  0
   -5.2680   17.2540  -33.6500 H   0  0  0  0  0  0  0  0  0  0  0  0
   -6.8726   16.4520  -32.0244 H   0  0  0  0  0  0  0  0  0  0  0  0
   -8.6949   17.9798  -31.2578 H   0  0  0  0  0  0  0  0  0  0  0  0
   -5.8783   21.9452  -32.2947 H   0  0  0  0  0  0  0  0  0  0  0  0
   -3.1394   20.8741  -31.7048 H   0  0  0  0  0  0  0  0  0  0  0  0
   -4.1415   21.5406  -33.0383 H   0  0  0  0  0  0  0  0  0  0  0  0
   -2.3632   21.7938  -33.0383 H   0  0  0  0  0  0  0  0  0  0  0  0
  1  2  1  0
  2  3  1  0
  3  4  2  0
  4  5  1  0
  5  6  2  0
  6  7  1  0
  7  8  1  0
  8  9  1  0
  9 10  1  0
 10 11  2  0
 11 12  1  0
 12 13  2  0
 13 14  1  0
 14 15  2  0
  6 16  1  0
 16 17  2  0
 17 18  1  0
 18 19  1  0
 17  3  1  0
 15 10  1  0
  1 20  1  0
  1 21  1  0
  1 22  1  0
  4 23  1  0
  5 24  1  0
  7 25  1  0
  7 26  1  0
  8 27  1  0
  9 28  1  0
  9 29  1  0
 11 30  1  0
 12 31  1  0
 13 32  1  0
 14 33  1  0
 15 34  1  0
 16 35  1  0
 19 36  1  0
 19 37  1  0
 19 38  1  0
M  CHG  1  13   1
M  END
>  <UniqueID>  (10) 
10

>  <SMILES>  (10) 
COc1ccc(CNCc2cc[nH+]cc2)cc1OC

>  <Energy>  (10) 
33.29964490102967

>  <Genealogy>  (10) 
COc1ccc(CNCc2cc[nH+]cc2)cc1OC (protonated)
COc1ccc(CNCc2cc[nH+]cc2)cc1OC (3D coordinates assigned)
COc1ccc(CNCc2cc[nH+]cc2)cc1OC (optimized conformer: 33.29964490102967 kcal/mol)

>  <smiles>  (10) 
COc1ccc(CNCc2ccncc2)cc1OC

>  <score_type>  (10) 
oracle

>  <origin>  (10) 
adg

>  <m_score__min__energy>  (10) 
-6.6399999999999997

>  <m_primary>  (10) 
energy

$$$$
10:0
     RDKit          3D

 29 30  0  0  0  0  0  0  0  0999 V2000
    3.2930   27.1200  -23.3540 C   0  0  0  0  0  0  0  0  0  0  0  0
    2.3500   28.3070  -23.1350 C   0  0  0  0  0  0  0  0  0  0  0  0
    1.0160   27.8820  -22.6790 N   0  0  0  0  0  0  0  0  0  0  0  0
    0.2650   27.2740  -23.7470 C   0  0  0  0  0  0  0  0  0  0  0  0
    0.3690   27.7430  -25.0620 C   0  0  0  0  0  0  0  0  0  0  0  0
   -0.3870   27.1420  -26.0640 C   0  0  0  0  0  0  0  0  0  0  0  0
   -1.2360   26.0740  -25.7410 C   0  0  0  0  0  0  0  0  0  0  0  0
   -2.0710   25.3950  -26.7650 C   0  0  0  0  0  0  0  0  0  0  0  0
   -3.3540   24.9240  -26.4240 C   0  0  0  0  0  0  0  0  0  0  0  0
   -4.1510   24.2780  -27.3740 C   0  0  0  0  0  0  0  0  0  0  0  0
   -3.6750   24.0850  -28.6720 C   0  0  0  0  0  0  0  0  0  0  0  0
   -2.4010   24.5350  -29.0230 C   0  0  0  0  0  0  0  0  0  0  0  0
   -1.6000   25.1830  -28.0770 C   0  0  0  0  0  0  0  0  0  0  0  0
   -1.3060   25.6670  -24.4430 N   0  0  0  0  0  0  0  0  0  0  0  0
   -0.5830   26.2440  -23.4810 N   0  0  0  0  0  0  0  0  0  0  0  0
    3.6110   26.7198  -22.3800 H   0  0  0  0  0  0  0  0  0  0  0  0
    2.7694   26.3352  -23.9196 H   0  0  0  0  0  0  0  0  0  0  0  0
    4.1759   27.4526  -23.9196 H   0  0  0  0  0  0  0  0  0  0  0  0
    2.7883   28.9721  -22.3763 H   0  0  0  0  0  0  0  0  0  0  0  0
    2.2284   28.8234  -24.0986 H   0  0  0  0  0  0  0  0  0  0  0  0
    1.1030   27.2310  -21.8630 H   0  0  0  0  0  0  0  0  0  0  0  0
    0.4930   28.7270  -22.3500 H   0  0  0  0  0  0  0  0  0  0  0  0
    1.0424   28.5793  -25.3011 H   0  0  0  0  0  0  0  0  0  0  0  0
   -0.3190   27.5020  -27.1012 H   0  0  0  0  0  0  0  0  0  0  0  0
   -3.7324   25.0657  -25.4009 H   0  0  0  0  0  0  0  0  0  0  0  0
   -5.1544   23.9214  -27.0982 H   0  0  0  0  0  0  0  0  0  0  0  0
   -4.3041   23.5781  -29.4186 H   0  0  0  0  0  0  0  0  0  0  0  0
   -2.0263   24.3797  -30.0455 H   0  0  0  0  0  0  0  0  0  0  0  0
   -0.5949   25.5299  -28.3587 H   0  0  0  0  0  0  0  0  0  0  0  0
  1  2  1  0
  2  3  1  0
  3  4  1  0
  4  5  2  0
  5  6  1  0
  6  7  2  0
  7  8  1  0
  8  9  2  0
  9 10  1  0
 10 11  2  0
 11 12  1  0
 12 13  2  0
  7 14  1  0
 14 15  2  0
 15  4  1  0
 13  8  1  0
  1 16  1  0
  1 17  1  0
  1 18  1  0
  2 19  1  0
  2 20  1  0
  3 21  1  0
  3 22  1  0
  5 23  1  0
  6 24  1  0
  9 25  1  0
 10 26  1  0
 11 27  1  0
 12 28  1  0
 13 29  1  0
M  CHG  1   3   1
M  END
>  <UniqueID>  (11) 
11

>  <SMILES>  (11) 
CC[NH2+]c1ccc(-c2ccccc2)nn1

>  <Energy>  (11) 
33.048660305974394

>  <Genealogy>  (11) 
CC[NH2+]c1ccc(-c2ccccc2)nn1 (protonated)
CC[NH2+]c1ccc(-c2ccccc2)nn1 (3D coordinates assigned)
CC[NH2+]c1ccc(-c2ccccc2)nn1 (optimized conformer: 33.048660305974394 kcal/mol)

>  <smiles>  (11) 
CCNc1ccc(-c2ccccc2)nn1

>  <score_type>  (11) 
oracle

>  <origin>  (11) 
adg

>  <m_score__min__energy>  (11) 
-5.9400000000000004

>  <m_primary>  (11) 
energy

$$$$
11:0
     RDKit          3D

 44 46  0  0  0  0  0  0  0  0999 V2000
   -6.4970   18.8570  -33.8590 C   0  0  0  0  0  0  0  0  0  0  0  0
   -7.0360   19.8630  -32.9500 N   0  0  0  0  0  0  0  0  0  0  0  0
   -8.2990   19.9650  -32.4660 C   0  0  0  0  0  0  0  0  0  0  0  0
   -9.2080   19.1230  -32.6950 O   0  0  0  0  0  0  0  0  0  0  0  0
   -8.4860   21.0450  -31.7250 O   0  0  0  0  0  0  0  0  0  0  0  0
   -7.3340   21.6750  -31.7280 C   0  0  0  0  0  0  0  0  0  0  0  0
   -6.9990   22.8710  -31.1030 C   0  0  0  0  0  0  0  0  0  0  0  0
   -5.6830   23.3510  -31.2690 C   0  0  0  0  0  0  0  0  0  0  0  0
   -5.2000   24.8440  -30.4700 S   0  0  0  0  0  0  0  0  0  0  0  0
   -5.7490   24.8560  -29.0720 O   0  0  0  0  0  0  0  0  0  0  0  0
   -5.7350   26.0340  -31.2190 O   0  0  0  0  0  0  0  0  0  0  0  0
   -3.4650   24.9280  -30.4070 N   0  0  0  0  0  0  0  0  0  0  0  0
   -2.9360   23.7550  -29.7120 C   0  0  0  0  0  0  0  0  0  0  0  0
   -1.5010   24.0240  -29.2540 C   0  0  0  0  0  0  0  0  0  0  0  0
   -1.4380   25.1690  -28.2260 C   0  0  0  0  0  0  0  0  0  0  0  0
   -1.6770   24.6710  -26.8530 N   0  0  0  0  0  0  0  0  0  0  0  0
   -2.4610   25.6420  -26.0480 C   0  0  0  0  0  0  0  0  0  0  0  0
   -1.5610   26.4650  -25.1110 C   0  0  0  0  0  0  0  0  0  0  0  0
   -0.8260   25.6760  -24.1850 O   0  0  0  0  0  0  0  0  0  0  0  0
   -0.5350   24.3670  -24.6560 C   0  0  0  0  0  0  0  0  0  0  0  0
   -0.4130   24.2750  -26.1870 C   0  0  0  0  0  0  0  0  0  0  0  0
   -4.7550   22.6270  -32.0590 C   0  0  0  0  0  0  0  0  0  0  0  0
   -5.1290   21.4190  -32.6790 C   0  0  0  0  0  0  0  0  0  0  0  0
   -6.4350   20.9710  -32.4810 C   0  0  0  0  0  0  0  0  0  0  0  0
   -6.0564   18.0347  -33.2762 H   0  0  0  0  0  0  0  0  0  0  0  0
   -7.3058   18.4648  -34.4931 H   0  0  0  0  0  0  0  0  0  0  0  0
   -5.7224   19.3131  -34.4931 H   0  0  0  0  0  0  0  0  0  0  0  0
   -7.7346   23.4236  -30.5001 H   0  0  0  0  0  0  0  0  0  0  0  0
   -3.5637   23.5366  -28.8355 H   0  0  0  0  0  0  0  0  0  0  0  0
   -2.9420   22.8947  -30.3975 H   0  0  0  0  0  0  0  0  0  0  0  0
   -1.0956   23.1100  -28.7953 H   0  0  0  0  0  0  0  0  0  0  0  0
   -0.9093   24.3187  -30.1332 H   0  0  0  0  0  0  0  0  0  0  0  0
   -0.4430   25.6360  -28.2699 H   0  0  0  0  0  0  0  0  0  0  0  0
   -2.2217   25.9006  -28.4719 H   0  0  0  0  0  0  0  0  0  0  0  0
   -2.9866   26.3271  -26.7294 H   0  0  0  0  0  0  0  0  0  0  0  0
   -3.1732   25.0768  -25.4289 H   0  0  0  0  0  0  0  0  0  0  0  0
   -0.8476   27.0334  -25.7258 H   0  0  0  0  0  0  0  0  0  0  0  0
   -2.2222   27.1182  -24.5226 H   0  0  0  0  0  0  0  0  0  0  0  0
    0.4169   24.0413  -24.2113 H   0  0  0  0  0  0  0  0  0  0  0  0
   -1.3771   23.7239  -24.3608 H   0  0  0  0  0  0  0  0  0  0  0  0
    0.3936   24.9432  -26.5230 H   0  0  0  0  0  0  0  0  0  0  0  0
   -0.1913   23.2316  -26.4555 H   0  0  0  0  0  0  0  0  0  0  0  0
   -3.7330   23.0124  -32.1890 H   0  0  0  0  0  0  0  0  0  0  0  0
   -4.4179   20.8502  -33.2962 H   0  0  0  0  0  0  0  0  0  0  0  0
  1  2  1  0
  2  3  1  0
  3  4  2  0
  3  5  1  0
  5  6  1  0
  6  7  2  0
  7  8  1  0
  8  9  1  0
  9 10  2  0
  9 11  2  0
  9 12  1  0
 12 13  1  0
 13 14  1  0
 14 15  1  0
 15 16  1  0
 16 17  1  0
 17 18  1  0
 18 19  1  0
 19 20  1  0
 20 21  1  0
  8 22  2  0
 22 23  1  0
 23 24  2  0
 24  2  1  0
 24  6  1  0
 21 16  1  0
  1 25  1  0
  1 26  1  0
  1 27  1  0
  7 28  1  0
 13 29  1  0
 13 30  1  0
 14 31  1  0
 14 32  1  0
 15 33  1  0
 15 34  1  0
 17 35  1  0
 17 36  1  0
 18 37  1  0
 18 38  1  0
 20 39  1  0
 20 40  1  0
 21 41  1  0
 21 42  1  0
 22 43  1  0
 23 44  1  0
M  CHG  1  12  -1
M  END
>  <UniqueID>  (12) 
12

>  <SMILES>  (12) 
Cn1c(=O)oc2cc(S(=O)(=O)[N-]CCCN3CCOCC3)ccc21

>  <Energy>  (12) 
94.75802548324597

>  <Genealogy>  (12) 
Cn1c(=O)oc2cc(S(=O)(=O)[N-]CCCN3CCOCC3)ccc21 (protonated)
Cn1c(=O)oc2cc(S(=O)(=O)[N-]CCCN3CCOCC3)ccc21 (3D coordinates assigned)
Cn1c(=O)oc2cc(S(=O)(=O)[N-]CCCN3CCOCC3)ccc21 (nonaromatic ring conformer: 94.75802548324597 kcal/mol)

>  <smiles>  (12) 
Cn1c(=O)oc2cc(S(=O)(=O)NCCCN3CCOCC3)ccc21

>  <score_type>  (12) 
oracle

>  <origin>  (12) 
adg

>  <m_score__min__energy>  (12) 
-9.1199999999999992

>  <m_primary>  (12) 
energy

$$$$
12:0
     RDKit          3D

 41 44  0  0  0  0  0  0  0  0999 V2000
   -5.7160   16.8470  -34.1920 C   0  0  0  0  0  0  0  0  0  0  0  0
   -5.9700   18.2730  -33.8330 C   0  0  0  0  0  0  0  0  0  0  0  0
   -5.2420   19.2980  -34.2410 O   0  0  0  0  0  0  0  0  0  0  0  0
   -5.7140   20.4210  -33.7690 N   0  0  0  0  0  0  0  0  0  0  0  0
   -6.7930   20.1210  -33.0210 C   0  0  0  0  0  0  0  0  0  0  0  0
   -7.6440   20.9820  -32.3120 C   0  0  0  0  0  0  0  0  0  0  0  0
   -7.4300   22.4800  -32.3390 C   0  0  0  0  0  0  0  0  0  0  0  0
   -6.4730   22.9280  -31.3170 N   0  0  0  0  0  0  0  0  0  0  0  0
   -6.9910   23.5430  -30.0900 C   0  0  0  0  0  0  0  0  0  0  0  0
   -5.0560   22.9190  -31.6060 C   0  0  0  0  0  0  0  0  0  0  0  0
   -4.6650   22.6120  -32.7650 O   0  0  0  0  0  0  0  0  0  0  0  0
   -4.0350   23.2610  -30.5920 C   0  0  0  0  0  0  0  0  0  0  0  0
   -3.0510   22.3950  -30.1200 C   0  0  0  0  0  0  0  0  0  0  0  0
   -2.2600   22.9020  -29.1370 N   0  0  0  0  0  0  0  0  0  0  0  0
   -2.6080   24.1640  -28.8050 C   0  0  0  0  0  0  0  0  0  0  0  0
   -1.9210   24.9460  -27.7690 C   0  0  0  0  0  0  0  0  0  0  0  0
   -2.0360   24.7720  -26.3950 C   0  0  0  0  0  0  0  0  0  0  0  0
   -1.2560   25.6730  -25.6590 C   0  0  0  0  0  0  0  0  0  0  0  0
   -0.5290   26.5560  -26.4460 C   0  0  0  0  0  0  0  0  0  0  0  0
   -0.8570   26.2140  -28.0600 S   0  0  0  0  0  0  0  0  0  0  0  0
   -3.9170   24.6980  -29.7180 S   0  0  0  0  0  0  0  0  0  0  0  0
   -8.7420   20.3810  -31.6450 C   0  0  0  0  0  0  0  0  0  0  0  0
   -8.9310   18.9810  -31.6720 C   0  0  0  0  0  0  0  0  0  0  0  0
   -8.0410   18.1530  -32.3770 C   0  0  0  0  0  0  0  0  0  0  0  0
   -6.9850   18.7670  -33.0420 C   0  0  0  0  0  0  0  0  0  0  0  0
   -5.6098   16.2510  -33.2736 H   0  0  0  0  0  0  0  0  0  0  0  0
   -6.5597   16.4619  -34.7835 H   0  0  0  0  0  0  0  0  0  0  0  0
   -4.7912   16.7769  -34.7835 H   0  0  0  0  0  0  0  0  0  0  0  0
   -5.3110   21.3630  -33.9620 H   0  0  0  0  0  0  0  0  0  0  0  0
   -7.0471   22.7643  -33.3302 H   0  0  0  0  0  0  0  0  0  0  0  0
   -8.3965   22.9607  -32.1271 H   0  0  0  0  0  0  0  0  0  0  0  0
   -6.5617   23.0333  -29.2149 H   0  0  0  0  0  0  0  0  0  0  0  0
   -6.7129   24.6070  -30.0675 H   0  0  0  0  0  0  0  0  0  0  0  0
   -8.0868   23.4498  -30.0675 H   0  0  0  0  0  0  0  0  0  0  0  0
   -2.9233   21.3758  -30.5137 H   0  0  0  0  0  0  0  0  0  0  0  0
   -2.6745   24.0049  -25.9326 H   0  0  0  0  0  0  0  0  0  0  0  0
   -1.2225   25.6803  -24.5595 H   0  0  0  0  0  0  0  0  0  0  0  0
    0.1451   27.3433  -26.0777 H   0  0  0  0  0  0  0  0  0  0  0  0
   -9.4568   21.0140  -31.0988 H   0  0  0  0  0  0  0  0  0  0  0  0
   -9.7822   18.5353  -31.1365 H   0  0  0  0  0  0  0  0  0  0  0  0
   -8.1744   17.0614  -32.4019 H   0  0  0  0  0  0  0  0  0  0  0  0
  1  2  1  0
  2  3  1  0
  3  4  1  0
  4  5  2  0
  5  6  1  0
  6  7  1  0
  7  8  1  0
  8  9  1  0
  8 10  1  0
 10 11  2  0
 10 12  1  0
 12 13  2  0
 13 14  1  0
 14 15  2  0
 15 16  1  0
 16 17  2  0
 17 18  1  0
 18 19  2  0
 19 20  1  0
 15 21  1  0
  6 22  2  0
 22 23  1  0
 23 24  2  0
 24 25  1  0
 25  2  2  0
 25  5  1  0
 21 12  1  0
 20 16  1  0
  1 26  1  0
  1 27  1  0
  1 28  1  0
  4 29  1  0
  7 30  1  0
  7 31  1  0
  9 32  1  0
  9 33  1  0
  9 34  1  0
 13 35  1  0
 17 36  1  0
 18 37  1  0
 19 38  1  0
 22 39  1  0
 23 40  1  0
 24 41  1  0
M  CHG  1   4   1
M  END
>  <UniqueID>  (13) 
13

>  <SMILES>  (13) 
Cc1o[nH+]c2c(CN(C)C(=O)c3cnc(-c4cccs4)s3)cccc12

>  <Energy>  (13) 
142.3888093386406

>  <Genealogy>  (13) 
Cc1o[nH+]c2c(CN(C)C(=O)c3cnc(-c4cccs4)s3)cccc12 (protonated)
Cc1o[nH+]c2c(CN(C)C(=O)c3cnc(-c4cccs4)s3)cccc12 (3D coordinates assigned)
Cc1o[nH+]c2c(CN(C)C(=O)c3cnc(-c4cccs4)s3)cccc12 (optimized conformer: 142.3888093386406 kcal/mol)

>  <smiles>  (13) 
Cc1onc2c(CN(C)C(=O)c3cnc(-c4cccs4)s3)cccc12

>  <score_type>  (13) 
oracle

>  <origin>  (13) 
adg

>  <m_score__min__energy>  (13) 
-9.3100000000000005

>  <m_primary>  (13) 
energy

$$$$
13:0
     RDKit          3D

 40 42  0  0  0  0  0  0  0  0999 V2000
   -5.6870   25.2590  -30.4300 C   0  0  0  0  0  0  0  0  0  0  0  0
   -4.3350   25.0920  -30.8420 O   0  0  0  0  0  0  0  0  0  0  0  0
   -3.4890   24.0620  -30.3970 C   0  0  0  0  0  0  0  0  0  0  0  0
   -2.6500   24.2230  -29.2770 C   0  0  0  0  0  0  0  0  0  0  0  0
   -1.8220   23.1810  -28.8580 C   0  0  0  0  0  0  0  0  0  0  0  0
   -1.8290   21.9640  -29.5380 C   0  0  0  0  0  0  0  0  0  0  0  0
   -2.6570   21.7880  -30.6480 C   0  0  0  0  0  0  0  0  0  0  0  0
   -3.4750   22.8370  -31.1020 C   0  0  0  0  0  0  0  0  0  0  0  0
   -4.3260   22.6460  -32.3350 C   0  0  0  0  0  0  0  0  0  0  0  0
   -4.7600   21.2440  -32.4700 N   0  0  0  0  0  0  0  0  0  0  0  0
   -5.6110   20.7980  -31.3550 C   0  0  0  0  0  0  0  0  0  0  0  0
   -7.0730   20.7900  -31.7470 C   0  0  0  0  0  0  0  0  0  0  0  0
   -7.9490   21.6410  -31.0550 C   0  0  0  0  0  0  0  0  0  0  0  0
   -9.3080   21.6560  -31.3600 C   0  0  0  0  0  0  0  0  0  0  0  0
   -9.7960   20.7990  -32.3400 C   0  0  0  0  0  0  0  0  0  0  0  0
   -8.9540   19.9560  -32.9930 N   0  0  0  0  0  0  0  0  0  0  0  0
   -7.6110   19.9260  -32.7360 C   0  0  0  0  0  0  0  0  0  0  0  0
   -6.7870   19.0080  -33.4740 N   0  0  0  0  0  0  0  0  0  0  0  0
   -6.8620   17.6670  -33.4410 C   0  0  0  0  0  0  0  0  0  0  0  0
   -6.0180   17.1090  -34.3290 N   0  0  0  0  0  0  0  0  0  0  0  0
   -5.4460   18.1890  -34.9050 C   0  0  0  0  0  0  0  0  0  0  0  0
   -5.9150   19.3480  -34.4040 N   0  0  0  0  0  0  0  0  0  0  0  0
   -5.7374   25.2652  -29.3312 H   0  0  0  0  0  0  0  0  0  0  0  0
   -6.0742   26.2118  -30.8202 H   0  0  0  0  0  0  0  0  0  0  0  0
   -6.2944   24.4291  -30.8202 H   0  0  0  0  0  0  0  0  0  0  0  0
   -2.6476   25.1767  -28.7289 H   0  0  0  0  0  0  0  0  0  0  0  0
   -1.1621   23.3201  -27.9890 H   0  0  0  0  0  0  0  0  0  0  0  0
   -1.1815   21.1417  -29.1996 H   0  0  0  0  0  0  0  0  0  0  0  0
   -2.6694   20.8207  -31.1715 H   0  0  0  0  0  0  0  0  0  0  0  0
   -5.2139   23.2912  -32.2618 H   0  0  0  0  0  0  0  0  0  0  0  0
   -3.7257   22.9118  -33.2176 H   0  0  0  0  0  0  0  0  0  0  0  0
   -5.3350   21.1780  -33.3420 H   0  0  0  0  0  0  0  0  0  0  0  0
   -5.3132   19.7805  -31.0619 H   0  0  0  0  0  0  0  0  0  0  0  0
   -5.4804   21.4987  -30.5172 H   0  0  0  0  0  0  0  0  0  0  0  0
   -7.5593   22.3010  -30.2660 H   0  0  0  0  0  0  0  0  0  0  0  0
   -9.9885   22.3392  -30.8307 H   0  0  0  0  0  0  0  0  0  0  0  0
  -10.8678   20.8035  -32.5876 H   0  0  0  0  0  0  0  0  0  0  0  0
   -9.3520   19.3280  -33.7270 H   0  0  0  0  0  0  0  0  0  0  0  0
   -7.5272   17.0984  -32.7745 H   0  0  0  0  0  0  0  0  0  0  0  0
   -4.6827   18.1286  -35.6947 H   0  0  0  0  0  0  0  0  0  0  0  0
  1  2  1  0
  2  3  1  0
  3  4  2  0
  4  5  1  0
  5  6  2  0
  6  7  1  0
  7  8  2  0
  8  9  1  0
  9 10  1  0
 10 11  1  0
 11 12  1  0
 12 13  2  0
 13 14  1  0
 14 15  2  0
 15 16  1  0
 16 17  2  0
 17 18  1  0
 18 19  1  0
 19 20  2  0
 20 21  1  0
 21 22  2  0
  8  3  1  0
 17 12  1  0
 22 18  1  0
  1 23  1  0
  1 24  1  0
  1 25  1  0
  4 26  1  0
  5 27  1  0
  6 28  1  0
  7 29  1  0
  9 30  1  0
  9 31  1  0
 10 32  1  0
 11 33  1  0
 11 34  1  0
 13 35  1  0
 14 36  1  0
 15 37  1  0
 16 38  1  0
 19 39  1  0
 21 40  1  0
M  CHG  1  16   1
M  END
>  <UniqueID>  (14) 
14

>  <SMILES>  (14) 
COc1ccccc1CNCc1ccc[nH+]c1-n1cncn1

>  <Energy>  (14) 
78.78207509570629

>  <Genealogy>  (14) 
COc1ccccc1CNCc1ccc[nH+]c1-n1cncn1 (protonated)
COc1ccccc1CNCc1ccc[nH+]c1-n1cncn1 (3D coordinates assigned)
COc1ccccc1CNCc1ccc[nH+]c1-n1cncn1 (optimized conformer: 78.78207509570629 kcal/mol)

>  <smiles>  (14) 
COc1ccccc1CNCc1cccnc1-n1cncn1

>  <score_type>  (14) 
oracle

>  <origin>  (14) 
adg

>  <m_score__min__energy>  (14) 
-7.3200000000000003

>  <m_primary>  (14) 
energy

$$$$
14:0
     RDKit          3D

 28 29  0  0  0  0  0  0  0  0999 V2000
   -6.8690   17.2030  -33.2140 Cl  0  0  0  0  0  0  0  0  0  0  0  0
   -7.1580   18.8520  -32.6900 C   0  0  0  0  0  0  0  0  0  0  0  0
   -6.3180   19.8810  -33.1270 C   0  0  0  0  0  0  0  0  0  0  0  0
   -6.5470   21.1970  -32.7100 C   0  0  0  0  0  0  0  0  0  0  0  0
   -7.6150   21.4920  -31.8440 C   0  0  0  0  0  0  0  0  0  0  0  0
   -7.8610   22.9180  -31.3930 C   0  0  0  0  0  0  0  0  0  0  0  0
   -6.6570   23.5960  -30.8580 N   0  0  0  0  0  0  0  0  0  0  0  0
   -6.9620   24.8290  -30.1100 C   0  0  0  0  0  0  0  0  0  0  0  0
   -5.7420   25.7690  -30.0990 C   0  0  0  0  0  0  0  0  0  0  0  0
   -4.1450   24.9140  -30.3960 S   0  0  0  0  0  0  0  0  0  0  0  0
   -4.5870   23.4190  -29.4530 C   0  0  0  0  0  0  0  0  0  0  0  0
   -5.7750   22.6820  -30.0970 C   0  0  0  0  0  0  0  0  0  0  0  0
   -8.4620   20.4530  -31.4230 C   0  0  0  0  0  0  0  0  0  0  0  0
   -8.2300   19.1390  -31.8400 C   0  0  0  0  0  0  0  0  0  0  0  0
   -5.4767   19.6558  -33.7990 H   0  0  0  0  0  0  0  0  0  0  0  0
   -5.8883   22.0048  -33.0614 H   0  0  0  0  0  0  0  0  0  0  0  0
   -8.2290   23.4948  -32.2543 H   0  0  0  0  0  0  0  0  0  0  0  0
   -8.5916   22.8711  -30.5720 H   0  0  0  0  0  0  0  0  0  0  0  0
   -7.8098   25.3418  -30.5877 H   0  0  0  0  0  0  0  0  0  0  0  0
   -7.2153   24.5627  -29.0732 H   0  0  0  0  0  0  0  0  0  0  0  0
   -5.8810   26.5267  -30.8842 H   0  0  0  0  0  0  0  0  0  0  0  0
   -5.6868   26.2103  -29.0929 H   0  0  0  0  0  0  0  0  0  0  0  0
   -3.7192   22.7437  -29.4247 H   0  0  0  0  0  0  0  0  0  0  0  0
   -4.8770   23.7230  -28.4364 H   0  0  0  0  0  0  0  0  0  0  0  0
   -5.3859   21.9141  -30.7818 H   0  0  0  0  0  0  0  0  0  0  0  0
   -6.3715   22.2339  -29.2886 H   0  0  0  0  0  0  0  0  0  0  0  0
   -9.3125   20.6748  -30.7615 H   0  0  0  0  0  0  0  0  0  0  0  0
   -8.8921   18.3296  -31.4987 H   0  0  0  0  0  0  0  0  0  0  0  0
  1  2  1  0
  2  3  2  0
  3  4  1  0
  4  5  2  0
  5  6  1  0
  6  7  1  0
  7  8  1  0
  8  9  1  0
  9 10  1  0
 10 11  1  0
 11 12  1  0
  5 13  1  0
 13 14  2  0
 14  2  1  0
 12  7  1  0
  3 15  1  0
  4 16  1  0
  6 17  1  0
  6 18  1  0
  8 19  1  0
  8 20  1  0
  9 21  1  0
  9 22  1  0
 11 23  1  0
 11 24  1  0
 12 25  1  0
 12 26  1  0
 13 27  1  0
 14 28  1  0
M  END
>  <UniqueID>  (15) 
15

>  <SMILES>  (15) 
Clc1ccc(CN2CCSCC2)cc1

>  <Energy>  (15) 
34.445578628682306

>  <Genealogy>  (15) 
Clc1ccc(CN2CCSCC2)cc1 (3D coordinates assigned)
Clc1ccc(CN2CCSCC2)cc1 (nonaromatic ring conformer: 34.445578628682306 kcal/mol)

>  <smiles>  (15) 
Clc1ccc(CN2CCSCC2)cc1

>  <score_type>  (15) 
oracle

>  <origin>  (15) 
adg

>  <m_score__min__energy>  (15) 
-6.6799999999999997

>  <m_primary>  (15) 
energy

$$$$
15:0
     RDKit          3D

 43 44  0  0  0  0  0  0  0  0999 V2000
   -1.6770   21.6340  -30.7970 C   0  0  0  0  0  0  0  0  0  0  0  0
   -1.1940   21.5300  -29.3430 C   0  0  0  0  0  0  0  0  0  0  0  0
   -1.7440   22.6070  -28.3470 C   0  0  0  0  0  0  0  0  0  0  0  0
   -1.0630   22.5260  -26.9340 C   0  0  0  0  0  0  0  0  0  0  0  0
   -1.0610   21.1600  -26.2390 C   0  0  0  0  0  0  0  0  0  0  0  0
   -3.2660   22.5160  -28.2110 C   0  0  0  0  0  0  0  0  0  0  0  0
   -3.7860   21.6270  -27.4870 O   0  0  0  0  0  0  0  0  0  0  0  0
   -4.1420   23.3830  -28.9370 N   0  0  0  0  0  0  0  0  0  0  0  0
   -3.7370   24.4290  -29.5870 C   0  0  0  0  0  0  0  0  0  0  0  0
   -4.6780   25.2480  -30.2930 N   0  0  0  0  0  0  0  0  0  0  0  0
   -6.1050   24.9300  -30.3300 C   0  0  0  0  0  0  0  0  0  0  0  0
   -6.3560   23.7120  -31.1770 C   0  0  0  0  0  0  0  0  0  0  0  0
   -5.3000   23.1080  -31.8780 C   0  0  0  0  0  0  0  0  0  0  0  0
   -5.5260   21.9540  -32.6350 C   0  0  0  0  0  0  0  0  0  0  0  0
   -6.8010   21.3790  -32.6930 C   0  0  0  0  0  0  0  0  0  0  0  0
   -6.9750   20.2220  -33.4660 O   0  0  0  0  0  0  0  0  0  0  0  0
   -6.9490   18.8960  -32.9480 C   0  0  0  0  0  0  0  0  0  0  0  0
   -7.8560   21.9750  -31.9750 C   0  0  0  0  0  0  0  0  0  0  0  0
   -7.6310   23.1290  -31.2190 C   0  0  0  0  0  0  0  0  0  0  0  0
   -2.3560   24.7900  -29.5740 N   0  0  0  0  0  0  0  0  0  0  0  0
   -1.3760   23.9650  -28.9380 C   0  0  0  0  0  0  0  0  0  0  0  0
   -0.1710   24.3410  -28.9530 O   0  0  0  0  0  0  0  0  0  0  0  0
   -2.7523   21.8655  -30.8105 H   0  0  0  0  0  0  0  0  0  0  0  0
   -1.1233   22.4335  -31.3110 H   0  0  0  0  0  0  0  0  0  0  0  0
   -1.5014   20.6775  -31.3110 H   0  0  0  0  0  0  0  0  0  0  0  0
   -1.4888   20.5409  -28.9625 H   0  0  0  0  0  0  0  0  0  0  0  0
   -0.1076   21.6976  -29.3835 H   0  0  0  0  0  0  0  0  0  0  0  0
   -0.0153   22.8395  -27.0523 H   0  0  0  0  0  0  0  0  0  0  0  0
   -1.6713   23.1746  -26.2865 H   0  0  0  0  0  0  0  0  0  0  0  0
   -1.0612   21.3035  -25.1484 H   0  0  0  0  0  0  0  0  0  0  0  0
   -1.9583   20.5967  -26.5349 H   0  0  0  0  0  0  0  0  0  0  0  0
   -0.1620   20.5994  -26.5349 H   0  0  0  0  0  0  0  0  0  0  0  0
   -4.3200   26.0920  -30.7970 H   0  0  0  0  0  0  0  0  0  0  0  0
   -6.4588   24.7373  -29.3064 H   0  0  0  0  0  0  0  0  0  0  0  0
   -6.6463   25.7823  -30.7665 H   0  0  0  0  0  0  0  0  0  0  0  0
   -4.2912   23.5441  -31.8316 H   0  0  0  0  0  0  0  0  0  0  0  0
   -4.6947   21.4942  -33.1896 H   0  0  0  0  0  0  0  0  0  0  0  0
   -6.9497   18.9318  -31.8486 H   0  0  0  0  0  0  0  0  0  0  0  0
   -7.8366   18.3483  -33.2976 H   0  0  0  0  0  0  0  0  0  0  0  0
   -6.0406   18.3835  -33.2976 H   0  0  0  0  0  0  0  0  0  0  0  0
   -8.8615   21.5303  -32.0093 H   0  0  0  0  0  0  0  0  0  0  0  0
   -8.4586   23.5825  -30.6538 H   0  0  0  0  0  0  0  0  0  0  0  0
   -2.0520   25.6720  -30.0430 H   0  0  0  0  0  0  0  0  0  0  0  0
  1  2  1  0
  2  3  1  0
  3  4  1  0
  4  5  1  0
  3  6  1  0
  6  7  2  0
  6  8  1  0
  8  9  2  0
  9 10  1  0
 10 11  1  0
 11 12  1  0
 12 13  2  0
 13 14  1  0
 14 15  2  0
 15 16  1  0
 16 17  1  0
 15 18  1  0
 18 19  2  0
  9 20  1  0
 20 21  1  0
 21 22  2  0
 21  3  1  0
 19 12  1  0
  1 23  1  0
  1 24  1  0
  1 25  1  0
  2 26  1  0
  2 27  1  0
  4 28  1  0
  4 29  1  0
  5 30  1  0
  5 31  1  0
  5 32  1  0
 10 33  1  0
 11 34  1  0
 11 35  1  0
 13 36  1  0
 14 37  1  0
 17 38  1  0
 17 39  1  0
 17 40  1  0
 18 41  1  0
 19 42  1  0
 20 43  1  0
M  END
>  <UniqueID>  (16) 
16

>  <SMILES>  (16) 
CCC1(CC)C(=O)N=C(NCc2ccc(OC)cc2)NC1=O

>  <Energy>  (16) 
44.118774354575415

>  <Genealogy>  (16) 
CCC1(CC)C(=O)N=C(NCc2ccc(OC)cc2)NC1=O (3D coordinates assigned)
CCC1(CC)C(=O)N=C(NCc2ccc(OC)cc2)NC1=O (nonaromatic ring conformer: 44.118774354575415 kcal/mol)

>  <smiles>  (16) 
CCC1(CC)C(=O)N=C(NCc2ccc(OC)cc2)NC1=O

>  <score_type>  (16) 
oracle

>  <origin>  (16) 
adg

>  <m_score__min__energy>  (16) 
-7.5599999999999996

>  <m_primary>  (16) 
energy

$$$$
16:0
     RDKit          3D

 29 30  0  0  0  0  0  0  0  0999 V2000
   -4.4500   17.1900  -35.2360 C   0  0  0  0  0  0  0  0  0  0  0  0
   -5.2990   17.6710  -34.0970 C   0  0  0  0  0  0  0  0  0  0  0  0
   -6.4050   16.9180  -33.6760 C   0  0  0  0  0  0  0  0  0  0  0  0
   -7.2300   17.3930  -32.6540 C   0  0  0  0  0  0  0  0  0  0  0  0
   -6.9590   18.6220  -32.0480 C   0  0  0  0  0  0  0  0  0  0  0  0
   -5.8530   19.3850  -32.4500 C   0  0  0  0  0  0  0  0  0  0  0  0
   -5.6150   20.6610  -31.8330 N   0  0  0  0  0  0  0  0  0  0  0  0
   -6.5030   21.7890  -31.9580 C   0  0  0  0  0  0  0  0  0  0  0  0
   -7.5020   21.7210  -32.7250 O   0  0  0  0  0  0  0  0  0  0  0  0
   -6.2620   23.0450  -31.2070 C   0  0  0  0  0  0  0  0  0  0  0  0
   -7.2840   23.6840  -30.4840 C   0  0  0  0  0  0  0  0  0  0  0  0
   -7.0160   24.8610  -29.7850 C   0  0  0  0  0  0  0  0  0  0  0  0
   -5.7270   25.3920  -29.8030 C   0  0  0  0  0  0  0  0  0  0  0  0
   -4.7370   24.7630  -30.4920 N   0  0  0  0  0  0  0  0  0  0  0  0
   -3.4700   25.3000  -30.4950 O   0  0  0  0  0  0  0  0  0  0  0  0
   -4.9760   23.6120  -31.1820 C   0  0  0  0  0  0  0  0  0  0  0  0
   -5.0390   18.9130  -33.4980 C   0  0  0  0  0  0  0  0  0  0  0  0
   -3.5572   16.6842  -34.8397 H   0  0  0  0  0  0  0  0  0  0  0  0
   -5.0278   16.4851  -35.8518 H   0  0  0  0  0  0  0  0  0  0  0  0
   -4.1423   18.0480  -35.8518 H   0  0  0  0  0  0  0  0  0  0  0  0
   -6.6232   15.9507  -34.1521 H   0  0  0  0  0  0  0  0  0  0  0  0
   -8.0950   16.7980  -32.3256 H   0  0  0  0  0  0  0  0  0  0  0  0
   -7.6179   18.9941  -31.2496 H   0  0  0  0  0  0  0  0  0  0  0  0
   -4.7190   20.7710  -31.3110 H   0  0  0  0  0  0  0  0  0  0  0  0
   -8.2969   23.2552  -30.4694 H   0  0  0  0  0  0  0  0  0  0  0  0
   -7.8157   25.3665  -29.2238 H   0  0  0  0  0  0  0  0  0  0  0  0
   -5.5098   26.3226  -29.2583 H   0  0  0  0  0  0  0  0  0  0  0  0
   -4.1542   23.1219  -31.7247 H   0  0  0  0  0  0  0  0  0  0  0  0
   -4.1933   19.5224  -33.8495 H   0  0  0  0  0  0  0  0  0  0  0  0
  1  2  1  0
  2  3  2  0
  3  4  1  0
  4  5  2  0
  5  6  1  0
  6  7  1  0
  7  8  1  0
  8  9  2  0
  8 10  1  0
 10 11  2  0
 11 12  1  0
 12 13  2  0
 13 14  1  0
 14 15  1  0
 14 16  2  0
  6 17  2  0
 17  2  1  0
 16 10  1  0
  1 18  1  0
  1 19  1  0
  1 20  1  0
  3 21  1  0
  4 22  1  0
  5 23  1  0
  7 24  1  0
 11 25  1  0
 12 26  1  0
 13 27  1  0
 16 28  1  0
 17 29  1  0
M  CHG  2  14   1  15  -1
M  END
>  <UniqueID>  (17) 
17

>  <SMILES>  (17) 
Cc1cccc(NC(=O)c2ccc[n+]([O-])c2)c1

>  <Energy>  (17) 
35.805793743483505

>  <Genealogy>  (17) 
Cc1cccc(NC(=O)c2ccc[n+]([O-])c2)c1 (3D coordinates assigned)
Cc1cccc(NC(=O)c2ccc[n+]([O-])c2)c1 (optimized conformer: 35.805793743483505 kcal/mol)

>  <smiles>  (17) 
Cc1cccc(NC(=O)c2ccc[n+]([O-])c2)c1

>  <score_type>  (17) 
oracle

>  <origin>  (17) 
adg

>  <m_score__min__energy>  (17) 
-8.1199999999999992

>  <m_primary>  (17) 
energy

$$$$
17:0
     RDKit          3D

 57 59  0  0  0  0  0  0  0  0999 V2000
   -1.9550   22.0170  -30.7050 C   0  0  0  0  0  0  0  0  0  0  0  0
   -1.3970   22.9420  -29.6730 C   0  0  0  0  0  0  0  0  0  0  0  0
   -0.1030   22.9400  -29.2940 N   0  0  0  0  0  0  0  0  0  0  0  0
    0.0560   23.8960  -28.3910 N   0  0  0  0  0  0  0  0  0  0  0  0
    1.3370   24.1890  -27.7620 C   0  0  0  0  0  0  0  0  0  0  0  0
   -1.1200   24.5290  -28.1920 C   0  0  0  0  0  0  0  0  0  0  0  0
   -1.3100   25.6490  -27.3050 N   0  0  0  0  0  0  0  0  0  0  0  0
   -0.4900   26.8500  -27.4430 C   0  0  0  0  0  0  0  0  0  0  0  0
   -2.1720   25.5070  -26.1310 C   0  0  0  0  0  0  0  0  0  0  0  0
   -2.0860   23.9430  -28.9990 C   0  0  0  0  0  0  0  0  0  0  0  0
   -3.5240   24.3420  -29.1820 C   0  0  0  0  0  0  0  0  0  0  0  0
   -3.7560   24.8950  -30.5240 N   0  0  0  0  0  0  0  0  0  0  0  0
   -5.1120   25.4500  -30.6830 C   0  0  0  0  0  0  0  0  0  0  0  0
   -6.0960   24.3300  -30.8770 C   0  0  0  0  0  0  0  0  0  0  0  0
   -6.6040   24.0350  -32.1500 C   0  0  0  0  0  0  0  0  0  0  0  0
   -7.5500   23.0180  -32.3130 C   0  0  0  0  0  0  0  0  0  0  0  0
   -7.9890   22.2720  -31.2080 C   0  0  0  0  0  0  0  0  0  0  0  0
   -9.0040   21.1670  -31.3880 C   0  0  0  0  0  0  0  0  0  0  0  0
   -8.6650   20.2130  -32.4690 N   0  0  0  0  0  0  0  0  0  0  0  0
   -9.1950   18.8440  -32.2910 C   0  0  0  0  0  0  0  0  0  0  0  0
   -8.1120   17.8380  -31.8630 C   0  0  0  0  0  0  0  0  0  0  0  0
   -7.0350   18.4950  -31.2340 O   0  0  0  0  0  0  0  0  0  0  0  0
   -6.3420   19.2770  -32.1840 C   0  0  0  0  0  0  0  0  0  0  0  0
   -7.2640   20.2650  -32.9360 C   0  0  0  0  0  0  0  0  0  0  0  0
   -7.4830   22.5750  -29.9320 C   0  0  0  0  0  0  0  0  0  0  0  0
   -6.5450   23.5960  -29.7680 C   0  0  0  0  0  0  0  0  0  0  0  0
   -2.4620   21.1766  -30.2084 H   0  0  0  0  0  0  0  0  0  0  0  0
   -2.6760   22.5606  -31.3332 H   0  0  0  0  0  0  0  0  0  0  0  0
   -1.1379   21.6328  -31.3332 H   0  0  0  0  0  0  0  0  0  0  0  0
    1.2229   24.1629  -26.6682 H   0  0  0  0  0  0  0  0  0  0  0  0
    2.0779   23.4371  -28.0714 H   0  0  0  0  0  0  0  0  0  0  0  0
    1.6774   25.1882  -28.0714 H   0  0  0  0  0  0  0  0  0  0  0  0
   -0.2289   27.2324  -26.4452 H   0  0  0  0  0  0  0  0  0  0  0  0
    0.4300   26.6046  -27.9939 H   0  0  0  0  0  0  0  0  0  0  0  0
   -1.0535   27.6174  -27.9939 H   0  0  0  0  0  0  0  0  0  0  0  0
   -1.5670   25.6067  -25.2177 H   0  0  0  0  0  0  0  0  0  0  0  0
   -2.9444   26.2900  -26.1464 H   0  0  0  0  0  0  0  0  0  0  0  0
   -2.6525   24.5176  -26.1464 H   0  0  0  0  0  0  0  0  0  0  0  0
   -4.1623   23.4569  -29.0435 H   0  0  0  0  0  0  0  0  0  0  0  0
   -3.7676   25.1162  -28.4395 H   0  0  0  0  0  0  0  0  0  0  0  0
   -3.0690   25.6730  -30.6580 H   0  0  0  0  0  0  0  0  0  0  0  0
   -5.3813   26.0220  -29.7828 H   0  0  0  0  0  0  0  0  0  0  0  0
   -5.1349   26.1124  -31.5609 H   0  0  0  0  0  0  0  0  0  0  0  0
   -6.2571   24.6057  -33.0240 H   0  0  0  0  0  0  0  0  0  0  0  0
   -7.9526   22.8013  -33.3135 H   0  0  0  0  0  0  0  0  0  0  0  0
   -9.0792   20.6082  -30.4435 H   0  0  0  0  0  0  0  0  0  0  0  0
   -9.9526   21.6468  -31.6706 H   0  0  0  0  0  0  0  0  0  0  0  0
   -9.9781   18.8676  -31.5188 H   0  0  0  0  0  0  0  0  0  0  0  0
   -9.5908   18.5124  -33.2623 H   0  0  0  0  0  0  0  0  0  0  0  0
   -8.5508   17.1132  -31.1615 H   0  0  0  0  0  0  0  0  0  0  0  0
   -7.7349   17.3249  -32.7600 H   0  0  0  0  0  0  0  0  0  0  0  0
   -5.5615   19.8516  -31.6638 H   0  0  0  0  0  0  0  0  0  0  0  0
   -5.9153   18.5901  -32.9297 H   0  0  0  0  0  0  0  0  0  0  0  0
   -6.8816   21.2854  -32.7860 H   0  0  0  0  0  0  0  0  0  0  0  0
   -7.2591   19.9781  -33.9979 H   0  0  0  0  0  0  0  0  0  0  0  0
   -7.8282   22.0042  -29.0574 H   0  0  0  0  0  0  0  0  0  0  0  0
   -6.1561   23.8263  -28.7652 H   0  0  0  0  0  0  0  0  0  0  0  0
  1  2  1  0
  2  3  2  0
  3  4  1  0
  4  5  1  0
  4  6  1  0
  6  7  1  0
  7  8  1  0
  7  9  1  0
  6 10  2  0
 10 11  1  0
 11 12  1  0
 12 13  1  0
 13 14  1  0
 14 15  2  0
 15 16  1  0
 16 17  2  0
 17 18  1  0
 18 19  1  0
 19 20  1  0
 20 21  1  0
 21 22  1  0
 22 23  1  0
 23 24  1  0
 17 25  1  0
 25 26  2  0
 10  2  1  0
 26 14  1  0
 24 19  1  0
  1 27  1  0
  1 28  1  0
  1 29  1  0
  5 30  1  0
  5 31  1  0
  5 32  1  0
  8 33  1  0
  8 34  1  0
  8 35  1  0
  9 36  1  0
  9 37  1  0
  9 38  1  0
 11 39  1  0
 11 40  1  0
 12 41  1  0
 13 42  1  0
 13 43  1  0
 15 44  1  0
 16 45  1  0
 18 46  1  0
 18 47  1  0
 20 48  1  0
 20 49  1  0
 21 50  1  0
 21 51  1  0
 23 52  1  0
 23 53  1  0
 24 54  1  0
 24 55  1  0
 25 56  1  0
 26 57  1  0
M  END
>  <UniqueID>  (18) 
18

>  <SMILES>  (18) 
Cc1nn(C)c(N(C)C)c1CNCc1ccc(CN2CCOCC2)cc1

>  <Energy>  (18) 
99.30235777879959

>  <Genealogy>  (18) 
Cc1nn(C)c(N(C)C)c1CNCc1ccc(CN2CCOCC2)cc1 (3D coordinates assigned)
Cc1nn(C)c(N(C)C)c1CNCc1ccc(CN2CCOCC2)cc1 (nonaromatic ring conformer: 99.30235777879959 kcal/mol)

>  <smiles>  (18) 
Cc1nn(C)c(N(C)C)c1CNCc1ccc(CN2CCOCC2)cc1

>  <score_type>  (18) 
oracle

>  <origin>  (18) 
adg

>  <m_score__min__energy>  (18) 
-8.8100000000000005

>  <m_primary>  (18) 
energy

$$$$
18:0
     RDKit          3D

 42 43  0  0  0  0  0  0  0  0999 V2000
   -4.0230   21.6380  -33.0730 C   0  0  0  0  0  0  0  0  0  0  0  0
   -5.1870   20.7350  -32.6620 C   0  0  0  0  0  0  0  0  0  0  0  0
   -6.5360   21.4830  -32.6680 C   0  0  0  0  0  0  0  0  0  0  0  0
   -6.9200   22.0040  -31.3200 N   0  0  0  0  0  0  0  0  0  0  0  0
   -8.2380   21.4750  -30.8830 C   0  0  0  0  0  0  0  0  0  0  0  0
   -8.9450   20.5970  -31.9390 C   0  0  0  0  0  0  0  0  0  0  0  0
   -8.7400   19.1140  -31.6410 C   0  0  0  0  0  0  0  0  0  0  0  0
   -6.8860   23.4870  -31.2540 C   0  0  0  0  0  0  0  0  0  0  0  0
   -5.5550   23.9970  -30.7810 C   0  0  0  0  0  0  0  0  0  0  0  0
   -5.0730   25.2760  -30.9330 C   0  0  0  0  0  0  0  0  0  0  0  0
   -3.8640   25.2990  -30.4320 O   0  0  0  0  0  0  0  0  0  0  0  0
   -3.5990   24.0870  -29.9920 C   0  0  0  0  0  0  0  0  0  0  0  0
   -2.3190   23.7070  -29.3600 C   0  0  0  0  0  0  0  0  0  0  0  0
   -1.6240   24.6320  -28.5620 C   0  0  0  0  0  0  0  0  0  0  0  0
   -0.4110   24.2760  -27.9630 C   0  0  0  0  0  0  0  0  0  0  0  0
    0.1180   22.9970  -28.1550 C   0  0  0  0  0  0  0  0  0  0  0  0
    1.2930   22.6550  -27.5740 F   0  0  0  0  0  0  0  0  0  0  0  0
   -0.5660   22.0710  -28.9480 C   0  0  0  0  0  0  0  0  0  0  0  0
   -1.7800   22.4220  -29.5480 C   0  0  0  0  0  0  0  0  0  0  0  0
   -4.6230   23.2280  -30.1880 N   0  0  0  0  0  0  0  0  0  0  0  0
   -3.5237   22.0253  -32.1726 H   0  0  0  0  0  0  0  0  0  0  0  0
   -3.3035   21.0594  -33.6710 H   0  0  0  0  0  0  0  0  0  0  0  0
   -4.4046   22.4787  -33.6710 H   0  0  0  0  0  0  0  0  0  0  0  0
   -5.2466   19.8917  -33.3658 H   0  0  0  0  0  0  0  0  0  0  0  0
   -4.9984   20.3877  -31.6355 H   0  0  0  0  0  0  0  0  0  0  0  0
   -6.4635   22.3314  -33.3643 H   0  0  0  0  0  0  0  0  0  0  0  0
   -7.3098   20.7645  -32.9762 H   0  0  0  0  0  0  0  0  0  0  0  0
   -6.2390   21.6520  -30.6050 H   0  0  0  0  0  0  0  0  0  0  0  0
   -8.0847   20.8702  -29.9771 H   0  0  0  0  0  0  0  0  0  0  0  0
   -8.8873   22.3453  -30.7069 H   0  0  0  0  0  0  0  0  0  0  0  0
  -10.0220   20.8204  -31.9303 H   0  0  0  0  0  0  0  0  0  0  0  0
   -8.5140   20.8196  -32.9263 H   0  0  0  0  0  0  0  0  0  0  0  0
   -8.7185   18.9583  -30.5523 H   0  0  0  0  0  0  0  0  0  0  0  0
   -9.5666   18.5345  -32.0780 H   0  0  0  0  0  0  0  0  0  0  0  0
   -7.7872   18.7805  -32.0780 H   0  0  0  0  0  0  0  0  0  0  0  0
   -7.0859   23.8921  -32.2570 H   0  0  0  0  0  0  0  0  0  0  0  0
   -7.6511   23.8135  -30.5342 H   0  0  0  0  0  0  0  0  0  0  0  0
   -5.6050   26.1229  -31.3909 H   0  0  0  0  0  0  0  0  0  0  0  0
   -2.0357   25.6403  -28.4078 H   0  0  0  0  0  0  0  0  0  0  0  0
    0.1277   25.0046  -27.3394 H   0  0  0  0  0  0  0  0  0  0  0  0
   -0.1489   21.0646  -29.1005 H   0  0  0  0  0  0  0  0  0  0  0  0
   -2.3154   21.6893  -30.1697 H   0  0  0  0  0  0  0  0  0  0  0  0
  1  2  1  0
  2  3  1  0
  3  4  1  0
  4  5  1  0
  5  6  1  0
  6  7  1  0
  4  8  1  0
  8  9  1  0
  9 10  2  0
 10 11  1  0
 11 12  1  0
 12 13  1  0
 13 14  2  0
 14 15  1  0
 15 16  2  0
 16 17  1  0
 16 18  1  0
 18 19  2  0
 12 20  2  0
 20  9  1  0
 19 13  1  0
  1 21  1  0
  1 22  1  0
  1 23  1  0
  2 24  1  0
  2 25  1  0
  3 26  1  0
  3 27  1  0
  4 28  1  0
  5 29  1  0
  5 30  1  0
  6 31  1  0
  6 32  1  0
  7 33  1  0
  7 34  1  0
  7 35  1  0
  8 36  1  0
  8 37  1  0
 10 38  1  0
 14 39  1  0
 15 40  1  0
 18 41  1  0
 19 42  1  0
M  CHG  1   4   1
M  END
>  <UniqueID>  (19) 
19

>  <SMILES>  (19) 
CCC[NH+](CCC)Cc1coc(-c2ccc(F)cc2)n1

>  <Energy>  (19) 
70.06616361601023

>  <Genealogy>  (19) 
CCC[NH+](CCC)Cc1coc(-c2ccc(F)cc2)n1 (protonated)
CCC[NH+](CCC)Cc1coc(-c2ccc(F)cc2)n1 (3D coordinates assigned)
CCC[NH+](CCC)Cc1coc(-c2ccc(F)cc2)n1 (optimized conformer: 70.06616361601023 kcal/mol)

>  <smiles>  (19) 
CCCN(CCC)Cc1coc(-c2ccc(F)cc2)n1

>  <score_type>  (19) 
oracle

>  <origin>  (19) 
adg

>  <m_score__min__energy>  (19) 
-5.79

>  <m_primary>  (19) 
energy

$$$$
19:0
     RDKit          3D

 47 49  0  0  0  0  0  0  0  0999 V2000
   -9.0840   18.9400  -32.2800 C   0  0  0  0  0  0  0  0  0  0  0  0
   -8.7830   20.4290  -32.4160 C   0  0  0  0  0  0  0  0  0  0  0  0
   -7.8590   20.9130  -31.2930 C   0  0  0  0  0  0  0  0  0  0  0  0
   -6.4790   21.0720  -31.7960 N   0  0  0  0  0  0  0  0  0  0  0  0
   -5.9950   22.3110  -32.1550 C   0  0  0  0  0  0  0  0  0  0  0  0
   -6.9610   23.8210  -31.9500 S   0  0  0  0  0  0  0  0  0  0  0  0
   -6.2160   24.2730  -30.3430 C   0  0  0  0  0  0  0  0  0  0  0  0
   -5.0300   25.1640  -30.5280 C   0  0  0  0  0  0  0  0  0  0  0  0
   -5.1730   26.4140  -30.4490 O   0  0  0  0  0  0  0  0  0  0  0  0
   -3.7410   24.5820  -30.7580 N   0  0  0  0  0  0  0  0  0  0  0  0
   -3.0200   23.7070  -29.8760 C   0  0  0  0  0  0  0  0  0  0  0  0
   -3.2510   22.3180  -29.8560 C   0  0  0  0  0  0  0  0  0  0  0  0
   -2.5560   21.5000  -28.9630 C   0  0  0  0  0  0  0  0  0  0  0  0
   -1.6340   22.0550  -28.0770 C   0  0  0  0  0  0  0  0  0  0  0  0
   -1.4110   23.4330  -28.0720 C   0  0  0  0  0  0  0  0  0  0  0  0
   -2.1070   24.2710  -28.9660 C   0  0  0  0  0  0  0  0  0  0  0  0
   -1.9160   25.6620  -28.9840 O   0  0  0  0  0  0  0  0  0  0  0  0
   -1.1950   26.3900  -27.9950 C   0  0  0  0  0  0  0  0  0  0  0  0
   -4.7550   22.4330  -32.6940 N   0  0  0  0  0  0  0  0  0  0  0  0
   -3.9520   21.3600  -32.8830 C   0  0  0  0  0  0  0  0  0  0  0  0
   -2.6750   21.5310  -33.4330 C   0  0  0  0  0  0  0  0  0  0  0  0
   -1.8460   20.4240  -33.6280 C   0  0  0  0  0  0  0  0  0  0  0  0
   -2.2880   19.1450  -33.2770 C   0  0  0  0  0  0  0  0  0  0  0  0
   -3.5620   18.9680  -32.7290 C   0  0  0  0  0  0  0  0  0  0  0  0
   -4.4040   20.0790  -32.5260 C   0  0  0  0  0  0  0  0  0  0  0  0
   -5.6960   19.9570  -31.9860 C   0  0  0  0  0  0  0  0  0  0  0  0
   -6.1350   18.8110  -31.6840 O   0  0  0  0  0  0  0  0  0  0  0  0
   -9.1380   18.6727  -31.2143 H   0  0  0  0  0  0  0  0  0  0  0  0
  -10.0459   18.7147  -32.7638 H   0  0  0  0  0  0  0  0  0  0  0  0
   -8.2852   18.3588  -32.7638 H   0  0  0  0  0  0  0  0  0  0  0  0
   -8.2947   20.6092  -33.3851 H   0  0  0  0  0  0  0  0  0  0  0  0
   -9.7309   20.9832  -32.3501 H   0  0  0  0  0  0  0  0  0  0  0  0
   -8.2217   21.8809  -30.9167 H   0  0  0  0  0  0  0  0  0  0  0  0
   -7.8607   20.1687  -30.4830 H   0  0  0  0  0  0  0  0  0  0  0  0
   -6.9672   24.7975  -29.7342 H   0  0  0  0  0  0  0  0  0  0  0  0
   -5.8845   23.3518  -29.8416 H   0  0  0  0  0  0  0  0  0  0  0  0
   -3.9828   21.8751  -30.5476 H   0  0  0  0  0  0  0  0  0  0  0  0
   -2.7365   20.4149  -28.9586 H   0  0  0  0  0  0  0  0  0  0  0  0
   -1.0816   21.4065  -27.3811 H   0  0  0  0  0  0  0  0  0  0  0  0
   -0.6878   23.8673  -27.3661 H   0  0  0  0  0  0  0  0  0  0  0  0
   -1.5162   26.0657  -26.9942 H   0  0  0  0  0  0  0  0  0  0  0  0
   -0.1178   26.2013  -28.1134 H   0  0  0  0  0  0  0  0  0  0  0  0
   -1.3941   27.4653  -28.1134 H   0  0  0  0  0  0  0  0  0  0  0  0
   -2.3255   22.5362  -33.7110 H   0  0  0  0  0  0  0  0  0  0  0  0
   -0.8429   20.5588  -34.0588 H   0  0  0  0  0  0  0  0  0  0  0  0
   -1.6319   18.2759  -33.4323 H   0  0  0  0  0  0  0  0  0  0  0  0
   -3.9073   17.9599  -32.4560 H   0  0  0  0  0  0  0  0  0  0  0  0
  1  2  1  0
  2  3  1  0
  3  4  1  0
  4  5  1  0
  5  6  1  0
  6  7  1  0
  7  8  1  0
  8  9  2  0
  8 10  1  0
 10 11  1  0
 11 12  2  0
 12 13  1  0
 13 14  2  0
 14 15  1  0
 15 16  2  0
 16 17  1  0
 17 18  1  0
  5 19  2  0
 19 20  1  0
 20 21  2  0
 21 22  1  0
 22 23  2  0
 23 24  1  0
 24 25  2  0
 25 26  1  0
 26 27  2  0
 26  4  1  0
 16 11  1  0
 25 20  1  0
  1 28  1  0
  1 29  1  0
  1 30  1  0
  2 31  1  0
  2 32  1  0
  3 33  1  0
  3 34  1  0
  7 35  1  0
  7 36  1  0
 12 37  1  0
 13 38  1  0
 14 39  1  0
 15 40  1  0
 18 41  1  0
 18 42  1  0
 18 43  1  0
 21 44  1  0
 22 45  1  0
 23 46  1  0
 24 47  1  0
M  CHG  1  10  -1
M  END
>  <UniqueID>  (20) 
20

>  <SMILES>  (20) 
CCCn1c(SCC(=O)[N-]c2ccccc2OC)nc2ccccc2c1=O

>  <Energy>  (20) 
49.38017448715546

>  <Genealogy>  (20) 
CCCn1c(SCC(=O)[N-]c2ccccc2OC)nc2ccccc2c1=O (protonated)
CCCn1c(SCC(=O)[N-]c2ccccc2OC)nc2ccccc2c1=O (3D coordinates assigned)
CCCn1c(SCC(=O)[N-]c2ccccc2OC)nc2ccccc2c1=O (optimized conformer: 49.38017448715546 kcal/mol)

>  <smiles>  (20) 
CCCn1c(SCC(=O)Nc2ccccc2OC)nc2ccccc2c1=O

>  <score_type>  (20) 
oracle

>  <origin>  (20) 
adg

>  <m_score__min__energy>  (20) 
-11.279999999999999

>  <m_primary>  (20) 
energy

$$$$
20:0
     RDKit          3D

 46 49  0  0  1  0  0  0  0  0999 V2000
   -2.6270   19.3510  -26.8900 C   0  0  0  0  0  0  0  0  0  0  0  0
   -2.0480   19.7540  -28.1160 O   0  0  0  0  0  0  0  0  0  0  0  0
   -2.0390   21.0980  -28.4450 C   0  0  0  0  0  0  0  0  0  0  0  0
   -1.3260   21.9440  -27.6220 C   0  0  0  0  0  0  0  0  0  0  0  0
   -1.2630   23.3070  -27.8760 C   0  0  0  0  0  0  0  0  0  0  0  0
   -1.9370   23.8160  -28.9860 C   0  0  0  0  0  0  0  0  0  0  0  0
   -1.9110   25.1700  -29.2910 O   0  0  0  0  0  0  0  0  0  0  0  0
   -1.2310   26.0420  -28.4070 C   0  0  0  0  0  0  0  0  0  0  0  0
   -2.6580   22.9450  -29.8120 C   0  0  0  0  0  0  0  0  0  0  0  0
   -3.3410   23.5150  -30.9490 N   0  0  0  0  0  0  0  0  0  0  0  0
   -4.5660   23.9590  -30.8090 C   0  0  0  0  0  0  0  0  0  0  0  0
   -4.7630   25.1860  -30.2680 N   0  0  0  0  0  0  0  0  0  0  0  0
   -5.9920   25.7010  -30.0970 C   0  0  0  0  0  0  0  0  0  0  0  0
   -7.0400   24.9550  -30.4840 N   0  0  0  0  0  0  0  0  0  0  0  0
   -6.8990   23.7290  -31.0270 C   0  0  0  0  0  0  0  0  0  0  0  0
   -8.0010   23.0220  -31.3990 C   0  0  0  0  0  0  0  0  0  0  0  0
   -7.8290   21.7710  -31.9540 C   0  0  0  0  0  0  0  0  0  0  0  0
   -6.5600   21.2210  -32.1380 C   0  0  0  0  0  0  0  0  0  0  0  0
   -6.4910   19.8940  -32.7310 C   0  0  0  0  0  0  0  0  0  0  0  0
   -5.7350   19.5980  -33.8470 C   0  0  0  0  0  0  0  0  0  0  0  0
   -5.7000   18.3260  -34.3730 C   0  0  0  0  0  0  0  0  0  0  0  0
   -6.4220   17.2800  -33.8090 C   0  0  0  0  0  0  0  0  0  0  0  0
   -7.1760   17.5840  -32.6940 C   0  0  0  0  0  0  0  0  0  0  0  0
   -7.2160   18.8520  -32.1620 C   0  0  0  0  0  0  0  0  0  0  0  0
   -5.4350   21.9350  -31.7620 C   0  0  0  0  0  0  0  0  0  0  0  0
   -5.6350   23.1840  -31.2100 C   0  0  0  0  0  0  0  0  0  0  0  0
   -2.7120   21.5890  -29.5460 C   0  0  0  0  0  0  0  0  0  0  0  0
   -2.0393   19.7601  -26.0550 H   0  0  0  0  0  0  0  0  0  0  0  0
   -3.6591   19.7269  -26.8308 H   0  0  0  0  0  0  0  0  0  0  0  0
   -2.6329   18.2526  -26.8308 H   0  0  0  0  0  0  0  0  0  0  0  0
   -0.7982   21.5316  -26.7494 H   0  0  0  0  0  0  0  0  0  0  0  0
   -0.6917   23.9740  -27.2137 H   0  0  0  0  0  0  0  0  0  0  0  0
   -1.4531   25.7572  -27.3680 H   0  0  0  0  0  0  0  0  0  0  0  0
   -0.1475   25.9709  -28.5831 H   0  0  0  0  0  0  0  0  0  0  0  0
   -1.5640   27.0755  -28.5831 H   0  0  0  0  0  0  0  0  0  0  0  0
   -6.1351   26.6984  -29.6557 H   0  0  0  0  0  0  0  0  0  0  0  0
   -7.9930   25.3650  -30.3460 H   0  0  0  0  0  0  0  0  0  0  0  0
   -9.0089   23.4400  -31.2598 H   0  0  0  0  0  0  0  0  0  0  0  0
   -8.7138   21.1929  -32.2589 H   0  0  0  0  0  0  0  0  0  0  0  0
   -5.1479   20.3952  -34.3265 H   0  0  0  0  0  0  0  0  0  0  0  0
   -5.0842   18.1320  -35.2636 H   0  0  0  0  0  0  0  0  0  0  0  0
   -6.3936   16.2639  -34.2294 H   0  0  0  0  0  0  0  0  0  0  0  0
   -7.7638   16.7870  -32.2153 H   0  0  0  0  0  0  0  0  0  0  0  0
   -7.8319   19.0453  -31.2713 H   0  0  0  0  0  0  0  0  0  0  0  0
   -4.4238   21.5239  -31.8976 H   0  0  0  0  0  0  0  0  0  0  0  0
   -3.2816   20.9129  -30.2006 H   0  0  0  0  0  0  0  0  0  0  0  0
  1  2  1  0
  2  3  1  0
  3  4  2  0
  4  5  1  0
  5  6  2  0
  6  7  1  0
  7  8  1  0
  6  9  1  0
  9 10  1  0
 10 11  2  0
 11 12  1  0
 12 13  2  0
 13 14  1  0
 14 15  1  0
 15 16  2  0
 16 17  1  0
 17 18  2  0
 18 19  1  0
 19 20  2  0
 20 21  1  0
 21 22  2  0
 22 23  1  0
 23 24  2  0
 18 25  1  0
 25 26  2  0
  9 27  2  0
 27  3  1  0
 26 11  1  0
 26 15  1  0
 24 19  1  0
  1 28  1  0
  1 29  1  0
  1 30  1  0
  4 31  1  0
  5 32  1  0
  8 33  1  0
  8 34  1  0
  8 35  1  0
 13 36  1  0
 14 37  1  0
 16 38  1  0
 17 39  1  0
 20 40  1  0
 21 41  1  0
 22 42  1  0
 23 43  1  0
 24 44  1  0
 25 45  1  0
 27 46  1  0
M  END
>  <smiles>  (21) 
COc1ccc(OC)c(N=c2nc[nH]c3ccc(-c4ccccc4)cc23)c1

>  <score_type>  (21) 
oracle

>  <origin>  (21) 
adg

>  <m_score__min__energy>  (21) 
-9.5299999999999994

>  <m_primary>  (21) 
energy

$$$$
21:0
     RDKit          3D

 34 35  0  0  0  0  0  0  0  0999 V2000
   -6.4750   15.9610  -34.1590 C   0  0  0  0  0  0  0  0  0  0  0  0
   -5.1660   16.4220  -33.5270 C   0  0  0  0  0  0  0  0  0  0  0  0
   -4.7590   17.6800  -34.0660 O   0  0  0  0  0  0  0  0  0  0  0  0
   -5.1960   18.9400  -33.6230 C   0  0  0  0  0  0  0  0  0  0  0  0
   -6.5320   19.2040  -33.3010 C   0  0  0  0  0  0  0  0  0  0  0  0
   -6.8800   20.4810  -32.8660 C   0  0  0  0  0  0  0  0  0  0  0  0
   -5.9310   21.4570  -32.7350 N   0  0  0  0  0  0  0  0  0  0  0  0
   -6.3320   22.8120  -32.3010 C   0  0  1  0  0  0  0  0  0  0  0  0
   -7.4690   22.7430  -31.2930 C   0  0  0  0  0  0  0  0  0  0  0  0
   -7.1940   23.9170  -30.4070 C   0  0  0  0  0  0  0  0  0  0  0  0
   -5.6810   24.0680  -30.5110 C   0  0  2  0  0  0  0  0  0  0  0  0
   -5.2260   25.5300  -30.4100 C   0  0  0  0  0  0  0  0  0  0  0  0
   -3.8670   25.6620  -30.7350 O   0  0  0  0  0  0  0  0  0  0  0  0
   -5.2390   23.4990  -31.7260 O   0  0  0  0  0  0  0  0  0  0  0  0
   -4.6300   21.1820  -33.0760 C   0  0  0  0  0  0  0  0  0  0  0  0
   -3.7440   22.0780  -33.0040 O   0  0  0  0  0  0  0  0  0  0  0  0
   -4.2800   19.9370  -33.5010 N   0  0  0  0  0  0  0  0  0  0  0  0
   -7.1952   15.7074  -33.3671 H   0  0  0  0  0  0  0  0  0  0  0  0
   -6.8854   16.7687  -34.7829 H   0  0  0  0  0  0  0  0  0  0  0  0
   -6.2887   15.0744  -34.7829 H   0  0  0  0  0  0  0  0  0  0  0  0
   -5.3059   16.5232  -32.4406 H   0  0  0  0  0  0  0  0  0  0  0  0
   -4.3872   15.6763  -33.7445 H   0  0  0  0  0  0  0  0  0  0  0  0
   -7.2947   18.4164  -33.3899 H   0  0  0  0  0  0  0  0  0  0  0  0
   -7.9294   20.7066  -32.6253 H   0  0  0  0  0  0  0  0  0  0  0  0
   -6.6734   23.3587  -33.1924 H   0  0  0  0  0  0  0  0  0  0  0  0
   -8.4458   22.8407  -31.7894 H   0  0  0  0  0  0  0  0  0  0  0  0
   -7.5141   21.7873  -30.7502 H   0  0  0  0  0  0  0  0  0  0  0  0
   -7.7086   24.8183  -30.7716 H   0  0  0  0  0  0  0  0  0  0  0  0
   -7.5489   23.7778  -29.3752 H   0  0  0  0  0  0  0  0  0  0  0  0
   -5.2309   23.5385  -29.6583 H   0  0  0  0  0  0  0  0  0  0  0  0
   -5.8220   26.1401  -31.1047 H   0  0  0  0  0  0  0  0  0  0  0  0
   -5.3710   25.8692  -29.3737 H   0  0  0  0  0  0  0  0  0  0  0  0
   -3.6350   24.8900  -31.3150 H   0  0  0  0  0  0  0  0  0  0  0  0
   -3.2840   19.7410  -33.7490 H   0  0  0  0  0  0  0  0  0  0  0  0
  1  2  1  0
  2  3  1  0
  3  4  1  0
  4  5  1  0
  5  6  2  0
  6  7  1  0
  7  8  1  0
  8  9  1  0
  9 10  1  0
 10 11  1  0
 11 12  1  0
 12 13  1  0
 11 14  1  0
  7 15  1  0
 15 16  2  0
 15 17  1  0
 17  4  2  0
 14  8  1  0
  1 18  1  0
  1 19  1  0
  1 20  1  0
  2 21  1  0
  2 22  1  0
  5 23  1  0
  6 24  1  0
  8 25  1  6
  9 26  1  0
  9 27  1  0
 10 28  1  0
 10 29  1  0
 11 30  1  1
 12 31  1  0
 12 32  1  0
 13 33  1  0
 17 34  1  0
M  CHG  1  17   1
M  END
>  <UniqueID>  (22) 
21

>  <SMILES>  (22) 
CCOc1ccn([C@H]2CC[C@H](CO)O2)c(=O)[nH+]1

>  <Energy>  (22) 
32.87158989329526

>  <Genealogy>  (22) 
CCOc1ccn(C2CCC(CO)O2)c(=O)[nH+]1 (protonated)
CCOc1ccn([C@H]2CC[C@H](CO)O2)c(=O)[nH+]1 (chirality)
CCOc1ccn([C@H]2CC[C@H](CO)O2)c(=O)[nH+]1 (3D coordinates assigned)
CCOc1ccn([C@H]2CC[C@H](CO)O2)c(=O)[nH+]1 (nonaromatic ring conformer: 32.87158989329526 kcal/mol)

>  <smiles>  (22) 
CCOc1ccn(C2CCC(CO)O2)c(=O)n1

>  <score_type>  (22) 
oracle

>  <origin>  (22) 
adg

>  <m_score__min__energy>  (22) 
-6.25

>  <m_primary>  (22) 
energy

$$$$
22:0
     RDKit          3D

 53 56  0  0  0  0  0  0  0  0999 V2000
   -9.2680   21.7870  -31.1370 C   0  0  0  0  0  0  0  0  0  0  0  0
   -9.2760   20.8650  -32.3490 C   0  0  0  0  0  0  0  0  0  0  0  0
   -8.4450   19.6900  -32.0980 N   0  0  0  0  0  0  0  0  0  0  0  0
   -8.7330   18.7450  -31.2200 N   0  0  0  0  0  0  0  0  0  0  0  0
   -7.8020   17.8050  -31.2870 N   0  0  0  0  0  0  0  0  0  0  0  0
   -6.9050   18.1190  -32.2120 N   0  0  0  0  0  0  0  0  0  0  0  0
   -7.3220   19.2920  -32.7260 C   0  0  0  0  0  0  0  0  0  0  0  0
   -6.5850   20.0550  -33.7890 C   0  0  0  0  0  0  0  0  0  0  0  0
   -5.2950   20.5190  -33.2810 N   0  0  0  0  0  0  0  0  0  0  0  0
   -4.0200   19.8660  -33.5760 C   0  0  0  0  0  0  0  0  0  0  0  0
   -2.9710   20.5390  -32.6560 C   0  0  0  0  0  0  0  0  0  0  0  0
   -3.7820   21.4960  -31.8530 C   0  0  0  0  0  0  0  0  0  0  0  0
   -3.3540   22.3260  -30.8160 C   0  0  0  0  0  0  0  0  0  0  0  0
   -4.3040   23.1320  -30.1610 C   0  0  0  0  0  0  0  0  0  0  0  0
   -3.7960   24.1490  -28.8150 S   0  0  0  0  0  0  0  0  0  0  0  0
   -3.2480   23.3030  -27.7000 O   0  0  0  0  0  0  0  0  0  0  0  0
   -4.9930   24.8990  -28.3030 O   0  0  0  0  0  0  0  0  0  0  0  0
   -2.5850   25.2930  -29.3230 N   0  0  0  0  0  0  0  0  0  0  0  0
   -1.2400   24.8570  -28.9390 C   0  0  0  0  0  0  0  0  0  0  0  0
   -0.9040   25.2970  -27.5340 C   0  0  0  0  0  0  0  0  0  0  0  0
   -1.9440   25.7010  -26.6800 C   0  0  0  0  0  0  0  0  0  0  0  0
   -1.6720   26.1020  -25.3710 C   0  0  0  0  0  0  0  0  0  0  0  0
   -0.3590   26.1060  -24.9010 C   0  0  0  0  0  0  0  0  0  0  0  0
    0.6880   25.7140  -25.7390 C   0  0  0  0  0  0  0  0  0  0  0  0
    0.4290   25.3070  -27.0630 C   0  0  0  0  0  0  0  0  0  0  0  0
    1.4640   24.9080  -27.9250 O   0  0  0  0  0  0  0  0  0  0  0  0
    2.8510   24.9580  -27.6060 C   0  0  0  0  0  0  0  0  0  0  0  0
   -5.6550   23.0970  -30.5670 C   0  0  0  0  0  0  0  0  0  0  0  0
   -6.0600   22.2500  -31.6120 C   0  0  0  0  0  0  0  0  0  0  0  0
   -5.0940   21.4570  -32.2380 C   0  0  0  0  0  0  0  0  0  0  0  0
   -9.2732   21.1836  -30.2173 H   0  0  0  0  0  0  0  0  0  0  0  0
   -8.3644   22.4139  -31.1591 H   0  0  0  0  0  0  0  0  0  0  0  0
  -10.1606   22.4295  -31.1591 H   0  0  0  0  0  0  0  0  0  0  0  0
  -10.3078   20.5428  -32.5530 H   0  0  0  0  0  0  0  0  0  0  0  0
   -8.8729   21.4097  -33.2155 H   0  0  0  0  0  0  0  0  0  0  0  0
   -6.4184   19.3993  -34.6563 H   0  0  0  0  0  0  0  0  0  0  0  0
   -7.1868   20.9270  -34.0847 H   0  0  0  0  0  0  0  0  0  0  0  0
   -4.0832   18.7894  -33.3595 H   0  0  0  0  0  0  0  0  0  0  0  0
   -3.7505   19.9706  -34.6373 H   0  0  0  0  0  0  0  0  0  0  0  0
   -2.4816   19.7970  -32.0080 H   0  0  0  0  0  0  0  0  0  0  0  0
   -2.1587   21.0268  -33.2148 H   0  0  0  0  0  0  0  0  0  0  0  0
   -2.2958   22.3499  -30.5166 H   0  0  0  0  0  0  0  0  0  0  0  0
   -1.1894   23.7595  -28.9931 H   0  0  0  0  0  0  0  0  0  0  0  0
   -0.5154   25.3130  -29.6296 H   0  0  0  0  0  0  0  0  0  0  0  0
   -2.9813   25.7013  -27.0461 H   0  0  0  0  0  0  0  0  0  0  0  0
   -2.4936   26.4150  -24.7099 H   0  0  0  0  0  0  0  0  0  0  0  0
   -0.1471   26.4186  -23.8679 H   0  0  0  0  0  0  0  0  0  0  0  0
    1.7216   25.7232  -25.3626 H   0  0  0  0  0  0  0  0  0  0  0  0
    2.9760   24.9625  -26.5131 H   0  0  0  0  0  0  0  0  0  0  0  0
    3.3566   24.0775  -28.0292 H   0  0  0  0  0  0  0  0  0  0  0  0
    3.2918   25.8726  -28.0292 H   0  0  0  0  0  0  0  0  0  0  0  0
   -6.3947   23.7361  -30.0627 H   0  0  0  0  0  0  0  0  0  0  0  0
   -7.1123   22.2117  -31.9301 H   0  0  0  0  0  0  0  0  0  0  0  0
  1  2  1  0
  2  3  1  0
  3  4  1  0
  4  5  2  0
  5  6  1  0
  6  7  2  0
  7  8  1  0
  8  9  1  0
  9 10  1  0
 10 11  1  0
 11 12  1  0
 12 13  2  0
 13 14  1  0
 14 15  1  0
 15 16  2  0
 15 17  2  0
 15 18  1  0
 18 19  1  0
 19 20  1  0
 20 21  2  0
 21 22  1  0
 22 23  2  0
 23 24  1  0
 24 25  2  0
 25 26  1  0
 26 27  1  0
 14 28  2  0
 28 29  1  0
 29 30  2  0
  7  3  1  0
 30  9  1  0
 30 12  1  0
 25 20  1  0
  1 31  1  0
  1 32  1  0
  1 33  1  0
  2 34  1  0
  2 35  1  0
  8 36  1  0
  8 37  1  0
 10 38  1  0
 10 39  1  0
 11 40  1  0
 11 41  1  0
 13 42  1  0
 19 43  1  0
 19 44  1  0
 21 45  1  0
 22 46  1  0
 23 47  1  0
 24 48  1  0
 27 49  1  0
 27 50  1  0
 27 51  1  0
 28 52  1  0
 29 53  1  0
M  CHG  1  18  -1
M  END
>  <UniqueID>  (23) 
22

>  <SMILES>  (23) 
CCn1nnnc1CN1CCc2cc(S(=O)(=O)[N-]Cc3ccccc3OC)ccc21

>  <Energy>  (23) 
101.96048155380981

>  <Genealogy>  (23) 
CCn1nnnc1CN1CCc2cc(S(=O)(=O)[N-]Cc3ccccc3OC)ccc21 (protonated)
CCn1nnnc1CN1CCc2cc(S(=O)(=O)[N-]Cc3ccccc3OC)ccc21 (3D coordinates assigned)
CCn1nnnc1CN1CCc2cc(S(=O)(=O)[N-]Cc3ccccc3OC)ccc21 (nonaromatic ring conformer: 101.96048155380981 kcal/mol)

>  <smiles>  (23) 
CCn1nnnc1CN1CCc2cc(S(=O)(=O)NCc3ccccc3OC)ccc21

>  <score_type>  (23) 
oracle

>  <origin>  (23) 
adg

>  <m_score__min__energy>  (23) 
-11.460000000000001

>  <m_primary>  (23) 
energy

$$$$
23:0
     RDKit          3D

 60 63  0  0  0  0  0  0  0  0999 V2000
   -5.5490   24.9250  -31.2000 C   0  0  0  0  0  0  0  0  0  0  0  0
   -4.2350   24.4500  -30.9230 O   0  0  0  0  0  0  0  0  0  0  0  0
   -3.9010   23.6090  -29.8500 C   0  0  0  0  0  0  0  0  0  0  0  0
   -4.2480   23.9250  -28.5210 C   0  0  0  0  0  0  0  0  0  0  0  0
   -3.8770   23.0800  -27.4730 C   0  0  0  0  0  0  0  0  0  0  0  0
   -3.1580   21.9140  -27.7340 C   0  0  0  0  0  0  0  0  0  0  0  0
   -2.8110   21.5860  -29.0470 C   0  0  0  0  0  0  0  0  0  0  0  0
   -3.1820   22.4240  -30.1110 C   0  0  0  0  0  0  0  0  0  0  0  0
   -2.8300   22.0560  -31.4560 N   0  0  0  0  0  0  0  0  0  0  0  0
   -3.8870   21.7940  -32.4450 C   0  0  0  0  0  0  0  0  0  0  0  0
   -3.3680   20.8910  -33.5680 C   0  0  0  0  0  0  0  0  0  0  0  0
   -2.4440   19.9080  -32.9800 N   0  0  0  0  0  0  0  0  0  0  0  0
   -2.3260   18.6170  -33.6980 C   0  0  0  0  0  0  0  0  0  0  0  0
   -3.0390   17.4000  -33.0560 C   0  0  0  0  0  0  0  0  0  0  0  0
   -4.3300   17.0540  -33.6920 N   0  0  2  0  0  0  0  0  0  0  0  0
   -4.6750   17.9310  -34.8390 C   0  0  0  0  0  0  0  0  0  0  0  0
   -6.1170   18.4320  -34.6410 C   0  0  0  0  0  0  0  0  0  0  0  0
   -6.4430   18.0950  -33.2730 N   0  0  0  0  0  0  0  0  0  0  0  0
   -7.7560   18.2760  -32.6590 C   0  0  0  0  0  0  0  0  0  0  0  0
   -7.9780   19.7230  -32.3130 C   0  0  0  0  0  0  0  0  0  0  0  0
   -6.8960   20.5400  -31.9480 C   0  0  0  0  0  0  0  0  0  0  0  0
   -7.1100   21.8740  -31.5910 C   0  0  0  0  0  0  0  0  0  0  0  0
   -8.4050   22.4000  -31.5880 C   0  0  0  0  0  0  0  0  0  0  0  0
   -9.4880   21.5910  -31.9420 C   0  0  0  0  0  0  0  0  0  0  0  0
   -9.2780   20.2560  -32.3000 C   0  0  0  0  0  0  0  0  0  0  0  0
   -5.4100   17.2660  -32.7810 C   0  0  0  0  0  0  0  0  0  0  0  0
   -5.4740   16.7010  -31.6550 O   0  0  0  0  0  0  0  0  0  0  0  0
   -1.1840   20.5070  -32.4940 C   0  0  0  0  0  0  0  0  0  0  0  0
   -1.4200   21.8800  -31.8280 C   0  0  0  0  0  0  0  0  0  0  0  0
   -6.0769   25.1158  -30.2540 H   0  0  0  0  0  0  0  0  0  0  0  0
   -5.4871   25.8576  -31.7800 H   0  0  0  0  0  0  0  0  0  0  0  0
   -6.0977   24.1683  -31.7800 H   0  0  0  0  0  0  0  0  0  0  0  0
   -4.8148   24.8433  -28.3079 H   0  0  0  0  0  0  0  0  0  0  0  0
   -4.1526   23.3348  -26.4390 H   0  0  0  0  0  0  0  0  0  0  0  0
   -2.8640   21.2523  -26.9059 H   0  0  0  0  0  0  0  0  0  0  0  0
   -2.2436   20.6655  -29.2486 H   0  0  0  0  0  0  0  0  0  0  0  0
   -4.7333   21.2991  -31.9461 H   0  0  0  0  0  0  0  0  0  0  0  0
   -4.2072   22.7516  -32.8815 H   0  0  0  0  0  0  0  0  0  0  0  0
   -4.2107   20.3700  -34.0460 H   0  0  0  0  0  0  0  0  0  0  0  0
   -2.8484   21.4923  -34.3286 H   0  0  0  0  0  0  0  0  0  0  0  0
   -2.7444   18.7558  -34.7058 H   0  0  0  0  0  0  0  0  0  0  0  0
   -1.2543   18.3700  -33.6777 H   0  0  0  0  0  0  0  0  0  0  0  0
   -2.3717   16.5288  -33.1316 H   0  0  0  0  0  0  0  0  0  0  0  0
   -3.2610   17.6745  -32.0142 H   0  0  0  0  0  0  0  0  0  0  0  0
   -4.3570   16.0490  -33.9700 H   0  0  0  0  0  0  0  0  0  0  0  0
   -3.9846   18.7866  -34.8750 H   0  0  0  0  0  0  0  0  0  0  0  0
   -4.5915   17.3736  -35.7836 H   0  0  0  0  0  0  0  0  0  0  0  0
   -6.1736   19.5196  -34.7958 H   0  0  0  0  0  0  0  0  0  0  0  0
   -6.8160   17.9763  -35.3578 H   0  0  0  0  0  0  0  0  0  0  0  0
   -8.5341   17.9484  -33.3641 H   0  0  0  0  0  0  0  0  0  0  0  0
   -7.8046   17.6772  -31.7375 H   0  0  0  0  0  0  0  0  0  0  0  0
   -5.8759   20.1284  -31.9430 H   0  0  0  0  0  0  0  0  0  0  0  0
   -6.2579   22.5112  -31.3119 H   0  0  0  0  0  0  0  0  0  0  0  0
   -8.5716   23.4504  -31.3071 H   0  0  0  0  0  0  0  0  0  0  0  0
  -10.5071   22.0051  -31.9390 H   0  0  0  0  0  0  0  0  0  0  0  0
  -10.1336   19.6206  -32.5725 H   0  0  0  0  0  0  0  0  0  0  0  0
   -0.7279   19.8283  -31.7583 H   0  0  0  0  0  0  0  0  0  0  0  0
   -0.5211   20.6565  -33.3590 H   0  0  0  0  0  0  0  0  0  0  0  0
   -0.7988   21.9510  -30.9229 H   0  0  0  0  0  0  0  0  0  0  0  0
   -1.1494   22.6667  -32.5477 H   0  0  0  0  0  0  0  0  0  0  0  0
  1  2  1  0
  2  3  1  0
  3  4  2  0
  4  5  1  0
  5  6  2  0
  6  7  1  0
  7  8  2  0
  8  9  1  0
  9 10  1  0
 10 11  1  0
 11 12  1  0
 12 13  1  0
 13 14  1  0
 14 15  1  0
 15 16  1  0
 16 17  1  0
 17 18  1  0
 18 19  1  0
 19 20  1  0
 20 21  2  0
 21 22  1  0
 22 23  2  0
 23 24  1  0
 24 25  2  0
 18 26  1  0
 26 27  2  0
 12 28  1  0
 28 29  1  0
  8  3  1  0
 29  9  1  0
 26 15  1  0
 25 20  1  0
  1 30  1  0
  1 31  1  0
  1 32  1  0
  4 33  1  0
  5 34  1  0
  6 35  1  0
  7 36  1  0
 10 37  1  0
 10 38  1  0
 11 39  1  0
 11 40  1  0
 13 41  1  0
 13 42  1  0
 14 43  1  0
 14 44  1  0
 15 45  1  6
 16 46  1  0
 16 47  1  0
 17 48  1  0
 17 49  1  0
 19 50  1  0
 19 51  1  0
 21 52  1  0
 22 53  1  0
 23 54  1  0
 24 55  1  0
 25 56  1  0
 28 57  1  0
 28 58  1  0
 29 59  1  0
 29 60  1  0
M  CHG  1  15   1
M  END
>  <UniqueID>  (24) 
23

>  <SMILES>  (24) 
COc1ccccc1N1CCN(CC[N@@H+]2CCN(Cc3ccccc3)C2=O)CC1

>  <Energy>  (24) 
87.7375163469966

>  <Genealogy>  (24) 
COc1ccccc1N1CCN(CC[NH+]2CCN(Cc3ccccc3)C2=O)CC1 (protonated)
COc1ccccc1N1CCN(CC[N@@H+]2CCN(Cc3ccccc3)C2=O)CC1 (chirality)
COc1ccccc1N1CCN(CC[N@@H+]2CCN(Cc3ccccc3)C2=O)CC1 (3D coordinates assigned)
COc1ccccc1N1CCN(CC[N@@H+]2CCN(Cc3ccccc3)C2=O)CC1 (nonaromatic ring conformer: 87.7375163469966 kcal/mol)

>  <smiles>  (24) 
COc1ccccc1N1CCN(CCN2CCN(Cc3ccccc3)C2=O)CC1

>  <score_type>  (24) 
oracle

>  <origin>  (24) 
adg

>  <m_score__min__energy>  (24) 
-8.4900000000000002

>  <m_primary>  (24) 
energy

$$$$
24:0
     RDKit          3D

 36 38  0  0  0  0  0  0  0  0999 V2000
   -2.8270   13.6930  -34.7260 H   0  0  0  0  0  0  0  0  0  0  0  0
   -3.1300   14.5970  -35.0660 O   0  0  0  0  0  0  0  0  0  0  0  0
   -3.9790   15.4210  -34.3290 C   0  0  0  0  0  0  0  0  0  0  0  0
   -4.3490   16.6650  -34.8690 C   0  0  0  0  0  0  0  0  0  0  0  0
   -3.9741   16.9792  -35.8543 H   0  0  0  0  0  0  0  0  0  0  0  0
   -5.1980   17.4950  -34.1380 C   0  0  0  0  0  0  0  0  0  0  0  0
   -5.6700   17.1060  -32.9050 C   0  0  0  0  0  0  0  0  0  0  0  0
   -5.3210   15.8820  -32.3350 C   0  0  0  0  0  0  0  0  0  0  0  0
   -5.7047   15.5932  -31.3454 H   0  0  0  0  0  0  0  0  0  0  0  0
   -4.4630   15.0200  -33.0570 C   0  0  0  0  0  0  0  0  0  0  0  0
   -4.0710   13.7710  -32.5480 O   0  0  0  0  0  0  0  0  0  0  0  0
   -4.4440   13.2700  -31.2690 C   0  0  0  0  0  0  0  0  0  0  0  0
   -3.9836   13.8884  -30.4844 H   0  0  0  0  0  0  0  0  0  0  0  0
   -5.5388   13.3035  -31.1671 H   0  0  0  0  0  0  0  0  0  0  0  0
   -4.0979   12.2308  -31.1671 H   0  0  0  0  0  0  0  0  0  0  0  0
   -6.5130   18.1500  -32.3700 C   0  0  0  0  0  0  0  0  0  0  0  0
   -7.0290   18.1520  -31.2220 O   0  0  0  0  0  0  0  0  0  0  0  0
   -6.5690   19.2290  -33.3650 C   0  0  0  0  0  0  0  0  0  0  0  0
   -7.2220   20.3980  -33.2810 C   0  0  0  0  0  0  0  0  0  0  0  0
   -7.8878   20.6733  -34.1122 H   0  0  0  0  0  0  0  0  0  0  0  0
   -7.1090   21.3400  -32.1510 C   0  0  0  0  0  0  0  0  0  0  0  0
   -8.0800   21.3720  -31.1370 C   0  0  0  0  0  0  0  0  0  0  0  0
   -8.9198   20.6619  -31.1589 H   0  0  0  0  0  0  0  0  0  0  0  0
   -7.9820   22.3030  -30.1010 C   0  0  0  0  0  0  0  0  0  0  0  0
   -8.7363   22.3137  -29.3004 H   0  0  0  0  0  0  0  0  0  0  0  0
   -6.9290   23.2210  -30.0780 C   0  0  0  0  0  0  0  0  0  0  0  0
   -6.8542   23.9453  -29.2535 H   0  0  0  0  0  0  0  0  0  0  0  0
   -5.9650   23.2260  -31.1000 C   0  0  0  0  0  0  0  0  0  0  0  0
   -4.8900   24.1820  -31.0820 N   0  0  0  0  0  0  0  0  0  0  0  0
   -5.1200   25.4030  -31.2040 O   0  0  0  0  0  0  0  0  0  0  0  0
   -3.5860   23.7650  -30.9300 O   0  0  0  0  0  0  0  0  0  0  0  0
   -6.0710   22.2830  -32.1420 C   0  0  0  0  0  0  0  0  0  0  0  0
   -5.3319   22.2867  -32.9567 H   0  0  0  0  0  0  0  0  0  0  0  0
   -5.6940   18.8540  -34.5340 C   0  0  0  0  0  0  0  0  0  0  0  0
   -4.8615   19.5632  -34.6523 H   0  0  0  0  0  0  0  0  0  0  0  0
   -6.2197   18.8671  -35.5001 H   0  0  0  0  0  0  0  0  0  0  0  0
  1  2  1  0
  2  3  1  0
  3  4  2  0
  4  5  1  0
  4  6  1  0
  6  7  2  0
  7  8  1  0
  8  9  1  0
  8 10  2  0
 10 11  1  0
 11 12  1  0
 12 13  1  0
 12 14  1  0
 12 15  1  0
  7 16  1  0
 16 17  2  0
 16 18  1  0
 18 19  2  0
 19 20  1  0
 19 21  1  0
 21 22  2  0
 22 23  1  0
 22 24  1  0
 24 25  1  0
 24 26  2  0
 26 27  1  0
 26 28  1  0
 28 29  1  0
 29 30  2  0
 29 31  1  0
 28 32  2  0
 32 33  1  0
 18 34  1  0
 34 35  1  0
 34 36  1  0
 10  3  1  0
 32 21  1  0
 34  6  1  0
M  CHG  2  29   1  31  -1
M  END
>  <UniqueID>  (25) 
24

>  <SMILES>  (25) 
COc1cc2c(cc1O)C/C(=C/c1cccc([N+](=O)[O-])c1)C2=O

>  <Energy>  (25) 
64.59515518913506

>  <Genealogy>  (25) 
COc1cc2c(cc1O)C/C(=C/c1cccc([N+](=O)[O-])c1)C2=O (cis-trans isomerization)
COc1cc2c(cc1O)C/C(=C/c1cccc([N+](=O)[O-])c1)C2=O (3D coordinates assigned)
COc1cc2c(cc1O)C/C(=C/c1cccc([N+](=O)[O-])c1)C2=O (nonaromatic ring conformer: 64.59515518913506 kcal/mol)

>  <smiles>  (25) 
COc1cc2c(cc1O)CC(=Cc1cccc([N+](=O)[O-])c1)C2=O

>  <score_type>  (25) 
oracle

>  <origin>  (25) 
adg

>  <m_score__min__energy>  (25) 
-8.1199999999999992

>  <m_primary>  (25) 
energy

$$$$
25:0
     RDKit          3D

 53 56  0  0  0  0  0  0  0  0999 V2000
   -1.5440   16.0570  -32.8120 C   0  0  0  0  0  0  0  0  0  0  0  0
   -1.8160   14.5680  -33.0010 C   0  0  0  0  0  0  0  0  0  0  0  0
   -2.3970   14.3370  -34.2700 O   0  0  0  0  0  0  0  0  0  0  0  0
   -3.3120   13.2610  -34.2120 C   0  0  0  0  0  0  0  0  0  0  0  0
   -4.6360   13.6910  -34.8350 C   0  0  0  0  0  0  0  0  0  0  0  0
   -4.9790   15.0460  -34.4080 N   0  0  0  0  0  0  0  0  0  0  0  0
   -6.1440   15.4200  -33.8240 C   0  0  0  0  0  0  0  0  0  0  0  0
   -6.1060   16.7910  -33.6820 C   0  0  0  0  0  0  0  0  0  0  0  0
   -7.0270   17.6980  -33.1690 C   0  0  0  0  0  0  0  0  0  0  0  0
   -6.6880   19.0740  -33.1940 C   0  0  0  0  0  0  0  0  0  0  0  0
   -7.6320   20.0870  -32.6580 C   0  0  0  0  0  0  0  0  0  0  0  0
   -9.0010   19.7990  -32.5290 C   0  0  0  0  0  0  0  0  0  0  0  0
   -9.8540   20.7300  -32.0280 N   0  0  0  0  0  0  0  0  0  0  0  0
   -9.4280   21.9640  -31.6490 C   0  0  0  0  0  0  0  0  0  0  0  0
   -8.0770   22.3160  -31.7760 C   0  0  0  0  0  0  0  0  0  0  0  0
   -7.5890   23.6820  -31.3380 C   0  0  0  0  0  0  0  0  0  0  0  0
   -6.1490   23.7530  -31.0030 N   0  0  0  0  0  0  0  0  0  0  0  0
   -5.6010   25.1000  -30.8490 C   0  0  0  0  0  0  0  0  0  0  0  0
   -4.2860   24.9310  -30.1010 C   0  0  0  0  0  0  0  0  0  0  0  0
   -4.3830   23.5730  -29.4140 C   0  0  0  0  0  0  0  0  0  0  0  0
   -5.7410   23.0120  -29.8110 C   0  0  0  0  0  0  0  0  0  0  0  0
   -7.1780   21.3570  -32.2650 C   0  0  0  0  0  0  0  0  0  0  0  0
   -5.4360   19.4750  -33.7400 C   0  0  0  0  0  0  0  0  0  0  0  0
   -4.5330   18.5260  -34.2540 C   0  0  0  0  0  0  0  0  0  0  0  0
   -4.9060   17.1880  -34.2040 C   0  0  0  0  0  0  0  0  0  0  0  0
   -4.2290   16.1160  -34.6470 N   0  0  0  0  0  0  0  0  0  0  0  0
   -1.5017   16.2885  -31.7375 H   0  0  0  0  0  0  0  0  0  0  0  0
   -0.5835   16.3167  -33.2811 H   0  0  0  0  0  0  0  0  0  0  0  0
   -2.3506   16.6395  -33.2811 H   0  0  0  0  0  0  0  0  0  0  0  0
   -0.8690   14.0131  -32.9280 H   0  0  0  0  0  0  0  0  0  0  0  0
   -2.5110   14.2270  -32.2195 H   0  0  0  0  0  0  0  0  0  0  0  0
   -2.9059   12.4030  -34.7678 H   0  0  0  0  0  0  0  0  0  0  0  0
   -3.4749   12.9720  -33.1632 H   0  0  0  0  0  0  0  0  0  0  0  0
   -4.5463   13.6673  -35.9311 H   0  0  0  0  0  0  0  0  0  0  0  0
   -5.4274   13.0007  -34.5076 H   0  0  0  0  0  0  0  0  0  0  0  0
   -6.9655   14.7545  -33.5204 H   0  0  0  0  0  0  0  0  0  0  0  0
   -7.9885   17.3581  -32.7567 H   0  0  0  0  0  0  0  0  0  0  0  0
   -9.3842   18.8144  -32.8353 H   0  0  0  0  0  0  0  0  0  0  0  0
  -10.1467   22.6898  -31.2407 H   0  0  0  0  0  0  0  0  0  0  0  0
   -7.7850   24.3926  -32.1545 H   0  0  0  0  0  0  0  0  0  0  0  0
   -8.1326   23.9208  -30.4120 H   0  0  0  0  0  0  0  0  0  0  0  0
   -5.4251   25.5567  -31.8341 H   0  0  0  0  0  0  0  0  0  0  0  0
   -6.2939   25.7587  -30.3050 H   0  0  0  0  0  0  0  0  0  0  0  0
   -3.4391   24.9478  -30.8027 H   0  0  0  0  0  0  0  0  0  0  0  0
   -4.1185   25.7438  -29.3790 H   0  0  0  0  0  0  0  0  0  0  0  0
   -3.5769   22.9090  -29.7595 H   0  0  0  0  0  0  0  0  0  0  0  0
   -4.2810   23.6600  -28.3222 H   0  0  0  0  0  0  0  0  0  0  0  0
   -5.6600   21.9385  -30.0371 H   0  0  0  0  0  0  0  0  0  0  0  0
   -6.4748   23.1192  -28.9986 H   0  0  0  0  0  0  0  0  0  0  0  0
   -6.1082   21.6014  -32.3415 H   0  0  0  0  0  0  0  0  0  0  0  0
   -5.1705   20.5423  -33.7604 H   0  0  0  0  0  0  0  0  0  0  0  0
   -3.5663   18.8322  -34.6802 H   0  0  0  0  0  0  0  0  0  0  0  0
   -3.2970   16.1110  -35.1190 H   0  0  0  0  0  0  0  0  0  0  0  0
  1  2  1  0
  2  3  1  0
  3  4  1  0
  4  5  1  0
  5  6  1  0
  6  7  1  0
  7  8  2  0
  8  9  1  0
  9 10  2  0
 10 11  1  0
 11 12  2  0
 12 13  1  0
 13 14  2  0
 14 15  1  0
 15 16  1  0
 16 17  1  0
 17 18  1  0
 18 19  1  0
 19 20  1  0
 20 21  1  0
 15 22  2  0
 10 23  1  0
 23 24  2  0
 24 25  1  0
 25 26  2  0
 26  6  1  0
 25  8  1  0
 22 11  1  0
 21 17  1  0
  1 27  1  0
  1 28  1  0
  1 29  1  0
  2 30  1  0
  2 31  1  0
  4 32  1  0
  4 33  1  0
  5 34  1  0
  5 35  1  0
  7 36  1  0
  9 37  1  0
 12 38  1  0
 14 39  1  0
 16 40  1  0
 16 41  1  0
 18 42  1  0
 18 43  1  0
 19 44  1  0
 19 45  1  0
 20 46  1  0
 20 47  1  0
 21 48  1  0
 21 49  1  0
 22 50  1  0
 23 51  1  0
 24 52  1  0
 26 53  1  0
M  CHG  1  26   1
M  END
>  <UniqueID>  (26) 
25

>  <SMILES>  (26) 
CCOCCn1cc2cc(-c3cncc(CN4CCCC4)c3)ccc2[nH+]1

>  <Energy>  (26) 
102.55206095519446

>  <Genealogy>  (26) 
CCOCCn1cc2cc(-c3cncc(CN4CCCC4)c3)ccc2[nH+]1 (protonated)
CCOCCn1cc2cc(-c3cncc(CN4CCCC4)c3)ccc2[nH+]1 (3D coordinates assigned)
CCOCCn1cc2cc(-c3cncc(CN4CCCC4)c3)ccc2[nH+]1 (nonaromatic ring conformer: 102.55206095519446 kcal/mol)

>  <smiles>  (26) 
CCOCCn1cc2cc(-c3cncc(CN4CCCC4)c3)ccc2n1

>  <score_type>  (26) 
oracle

>  <origin>  (26) 
adg

>  <m_score__min__energy>  (26) 
-8.1699999999999999

>  <m_primary>  (26) 
energy

$$$$
26:0
     RDKit          3D

 23 25  0  0  0  0  0  0  0  0999 V2000
   -9.0110   22.3000  -31.5870 C   0  0  0  0  0  0  0  0  0  0  0  0
   -7.5420   22.1750  -31.8430 C   0  0  0  0  0  0  0  0  0  0  0  0
   -7.0500   21.0720  -32.4770 N   0  0  0  0  0  0  0  0  0  0  0  0
   -5.7130   20.9320  -32.7240 C   0  0  0  0  0  0  0  0  0  0  0  0
   -5.2330   19.7920  -33.3760 C   0  0  0  0  0  0  0  0  0  0  0  0
   -3.8640   19.6520  -33.6270 C   0  0  0  0  0  0  0  0  0  0  0  0
   -2.9670   20.6500  -33.2280 C   0  0  0  0  0  0  0  0  0  0  0  0
   -3.4320   21.7960  -32.5740 C   0  0  0  0  0  0  0  0  0  0  0  0
   -4.8040   21.9420  -32.3200 C   0  0  0  0  0  0  0  0  0  0  0  0
   -5.3440   23.0550  -31.6730 C   0  0  0  0  0  0  0  0  0  0  0  0
   -4.6610   24.1230  -31.2110 N   0  0  0  0  0  0  0  0  0  0  0  0
   -5.6270   24.9090  -30.6780 C   0  0  0  0  0  0  0  0  0  0  0  0
   -6.8660   24.3100  -30.8270 C   0  0  0  0  0  0  0  0  0  0  0  0
   -6.6670   23.1420  -31.4570 N   0  0  0  0  0  0  0  0  0  0  0  0
   -9.1942   22.3156  -30.5025 H   0  0  0  0  0  0  0  0  0  0  0  0
   -9.3832   23.2331  -32.0352 H   0  0  0  0  0  0  0  0  0  0  0  0
   -9.5355   21.4432  -32.0352 H   0  0  0  0  0  0  0  0  0  0  0  0
   -5.9328   19.0043  -33.6919 H   0  0  0  0  0  0  0  0  0  0  0  0
   -3.4906   18.7536  -34.1402 H   0  0  0  0  0  0  0  0  0  0  0  0
   -1.8920   20.5326  -33.4296 H   0  0  0  0  0  0  0  0  0  0  0  0
   -2.7254   22.5786  -32.2605 H   0  0  0  0  0  0  0  0  0  0  0  0
   -5.4521   25.8824  -30.1965 H   0  0  0  0  0  0  0  0  0  0  0  0
   -7.8322   24.7153  -30.4919 H   0  0  0  0  0  0  0  0  0  0  0  0
  1  2  1  0
  2  3  2  0
  3  4  1  0
  4  5  2  0
  5  6  1  0
  6  7  2  0
  7  8  1  0
  8  9  2  0
  9 10  1  0
 10 11  2  0
 11 12  1  0
 12 13  2  0
 13 14  1  0
 14  2  1  0
  9  4  1  0
 14 10  1  0
  1 15  1  0
  1 16  1  0
  1 17  1  0
  5 18  1  0
  6 19  1  0
  7 20  1  0
  8 21  1  0
 12 22  1  0
 13 23  1  0
M  END
>  <UniqueID>  (27) 
26

>  <SMILES>  (27) 
Cc1nc2ccccc2c2nccn12

>  <Energy>  (27) 
62.685382563680676

>  <Genealogy>  (27) 
Cc1nc2ccccc2c2nccn12 (3D coordinates assigned)
Cc1nc2ccccc2c2nccn12 (optimized conformer: 62.685382563680676 kcal/mol)

>  <smiles>  (27) 
Cc1nc2ccccc2c2nccn12

>  <score_type>  (27) 
oracle

>  <origin>  (27) 
adg

>  <m_score__min__energy>  (27) 
-5.9500000000000002

>  <m_primary>  (27) 
energy

$$$$
27:0
     RDKit          3D

 31 33  0  0  0  0  0  0  0  0999 V2000
   -3.8620   20.9410  -33.0840 C   0  0  0  0  0  0  0  0  0  0  0  0
   -4.4940   22.0970  -32.5410 O   0  0  0  0  0  0  0  0  0  0  0  0
   -5.7680   22.1060  -31.9510 C   0  0  0  0  0  0  0  0  0  0  0  0
   -6.8790   21.5000  -32.5730 C   0  0  0  0  0  0  0  0  0  0  0  0
   -8.1260   21.4970  -31.9460 C   0  0  0  0  0  0  0  0  0  0  0  0
   -8.2830   22.0930  -30.6950 C   0  0  0  0  0  0  0  0  0  0  0  0
   -7.1950   22.7030  -30.0690 C   0  0  0  0  0  0  0  0  0  0  0  0
   -5.9360   22.7250  -30.6930 C   0  0  0  0  0  0  0  0  0  0  0  0
   -4.7990   23.3830  -30.0070 C   0  0  0  0  0  0  0  0  0  0  0  0
   -4.1220   22.7150  -28.9780 C   0  0  0  0  0  0  0  0  0  0  0  0
   -3.0490   23.3390  -28.3360 C   0  0  0  0  0  0  0  0  0  0  0  0
   -2.3390   22.7010  -27.3080 C   0  0  0  0  0  0  0  0  0  0  0  0
   -1.2670   23.3560  -26.6900 C   0  0  0  0  0  0  0  0  0  0  0  0
   -0.3770   22.5590  -25.4050 Cl  0  0  0  0  0  0  0  0  0  0  0  0
   -0.9040   24.6450  -27.0970 C   0  0  0  0  0  0  0  0  0  0  0  0
   -1.6090   25.2850  -28.1210 C   0  0  0  0  0  0  0  0  0  0  0  0
   -2.6810   24.6380  -28.7450 C   0  0  0  0  0  0  0  0  0  0  0  0
   -3.3530   25.2490  -29.7150 O   0  0  0  0  0  0  0  0  0  0  0  0
   -4.3790   24.6860  -30.3470 C   0  0  0  0  0  0  0  0  0  0  0  0
   -4.9800   25.3390  -31.2410 O   0  0  0  0  0  0  0  0  0  0  0  0
   -3.5098   20.2968  -32.2649 H   0  0  0  0  0  0  0  0  0  0  0  0
   -4.5822   20.3861  -33.7031 H   0  0  0  0  0  0  0  0  0  0  0  0
   -3.0061   21.2478  -33.7031 H   0  0  0  0  0  0  0  0  0  0  0  0
   -6.7621   21.0265  -33.5590 H   0  0  0  0  0  0  0  0  0  0  0  0
   -8.9872   21.0233  -32.4399 H   0  0  0  0  0  0  0  0  0  0  0  0
   -9.2658   22.0823  -30.2010 H   0  0  0  0  0  0  0  0  0  0  0  0
   -7.3237   23.1694  -29.0811 H   0  0  0  0  0  0  0  0  0  0  0  0
   -4.4337   21.7040  -28.6769 H   0  0  0  0  0  0  0  0  0  0  0  0
   -2.6240   21.6879  -26.9880 H   0  0  0  0  0  0  0  0  0  0  0  0
   -0.0610   25.1565  -26.6095 H   0  0  0  0  0  0  0  0  0  0  0  0
   -1.3203   26.2985  -28.4363 H   0  0  0  0  0  0  0  0  0  0  0  0
  1  2  1  0
  2  3  1  0
  3  4  2  0
  4  5  1  0
  5  6  2  0
  6  7  1  0
  7  8  2  0
  8  9  1  0
  9 10  2  0
 10 11  1  0
 11 12  2  0
 12 13  1  0
 13 14  1  0
 13 15  2  0
 15 16  1  0
 16 17  2  0
 17 18  1  0
 18 19  1  0
 19 20  2  0
  8  3  1  0
 19  9  1  0
 17 11  1  0
  1 21  1  0
  1 22  1  0
  1 23  1  0
  4 24  1  0
  5 25  1  0
  6 26  1  0
  7 27  1  0
 10 28  1  0
 12 29  1  0
 15 30  1  0
 16 31  1  0
M  END
>  <UniqueID>  (28) 
27

>  <SMILES>  (28) 
COc1ccccc1-c1cc2cc(Cl)ccc2oc1=O

>  <Energy>  (28) 
44.862067002209066

>  <Genealogy>  (28) 
COc1ccccc1-c1cc2cc(Cl)ccc2oc1=O (3D coordinates assigned)
COc1ccccc1-c1cc2cc(Cl)ccc2oc1=O (optimized conformer: 44.862067002209066 kcal/mol)

>  <smiles>  (28) 
COc1ccccc1-c1cc2cc(Cl)ccc2oc1=O

>  <score_type>  (28) 
oracle

>  <origin>  (28) 
adg

>  <m_score__min__energy>  (28) 
-7.6399999999999997

>  <m_primary>  (28) 
energy

$$$$
28:0
     RDKit          3D

 95101  0  0  0  0  0  0  0  0999 V2000
   -3.0000   15.1530  -33.7440 C   0  0  0  0  0  0  0  0  0  0  0  0
   -2.5600   16.5130  -33.2730 C   0  0  0  0  0  0  0  0  0  0  0  0
   -1.2620   16.6760  -32.7600 C   0  0  0  0  0  0  0  0  0  0  0  0
   -0.8260   17.9280  -32.3190 C   0  0  0  0  0  0  0  0  0  0  0  0
   -1.6820   19.0270  -32.3770 C   0  0  0  0  0  0  0  0  0  0  0  0
   -2.9800   18.8760  -32.8690 C   0  0  0  0  0  0  0  0  0  0  0  0
   -3.4340   17.6230  -33.3130 C   0  0  0  0  0  0  0  0  0  0  0  0
   -4.7850   17.4950  -33.7880 N   0  0  0  0  0  0  0  0  0  0  0  0
   -5.3120   18.4460  -34.7740 C   0  0  0  0  0  0  0  0  0  0  0  0
   -6.4830   19.2570  -34.1800 C   0  0  0  0  0  0  0  0  0  0  0  0
   -7.0240   18.6430  -32.9440 N   0  0  0  0  0  0  0  0  0  0  0  0
   -8.3080   19.2610  -32.5390 C   0  0  0  0  0  0  0  0  0  0  0  0
   -8.1200   20.7620  -32.3000 C   0  0  0  0  0  0  0  0  0  0  0  0
   -6.9000   21.0160  -31.5250 N   0  0  0  0  0  0  0  0  0  0  0  0
   -6.1720   22.1730  -32.0570 C   0  0  0  0  0  0  0  0  0  0  0  0
   -4.8560   22.3010  -31.3420 C   0  0  0  0  0  0  0  0  0  0  0  0
   -4.8110   22.7810  -30.0250 C   0  0  0  0  0  0  0  0  0  0  0  0
   -3.5980   22.8300  -29.3340 C   0  0  0  0  0  0  0  0  0  0  0  0
   -2.4150   22.3650  -29.9350 C   0  0  0  0  0  0  0  0  0  0  0  0
   -1.1130   22.3780  -29.1700 C   0  0  0  0  0  0  0  0  0  0  0  0
   -1.3550   22.5080  -27.7010 N   0  0  0  0  0  0  0  0  0  0  0  0
   -1.3340   23.9270  -27.2160 C   0  0  2  0  0  0  0  0  0  0  0  0
   -0.5910   24.8720  -28.1800 C   0  0  0  0  0  0  0  0  0  0  0  0
   -0.8580   26.3310  -27.8040 C   0  0  0  0  0  0  0  0  0  0  0  0
   -0.6180   26.5950  -26.3360 C   0  0  0  0  0  0  0  0  0  0  0  0
   -0.4490   27.9220  -25.9080 C   0  0  0  0  0  0  0  0  0  0  0  0
   -0.2820   28.2130  -24.5530 C   0  0  0  0  0  0  0  0  0  0  0  0
   -0.1100   29.4970  -24.1510 F   0  0  0  0  0  0  0  0  0  0  0  0
   -0.2900   27.1840  -23.6110 C   0  0  0  0  0  0  0  0  0  0  0  0
   -0.4700   25.8610  -24.0190 C   0  0  0  0  0  0  0  0  0  0  0  0
   -0.6540   25.5530  -25.3770 C   0  0  0  0  0  0  0  0  0  0  0  0
   -0.7760   24.0990  -25.7790 C   0  0  0  0  0  0  0  0  0  0  0  0
   -0.5030   21.5720  -26.8980 C   0  0  1  0  0  0  0  0  0  0  0  0
   -1.2700   20.8290  -25.7710 C   0  0  0  0  0  0  0  0  0  0  0  0
   -2.4120   19.9300  -26.3010 C   0  0  0  0  0  0  0  0  0  0  0  0
   -2.1900   19.3750  -27.7270 C   0  0  0  0  0  0  0  0  0  0  0  0
   -0.7410   19.3970  -28.1480 C   0  0  0  0  0  0  0  0  0  0  0  0
   -0.2070   18.3850  -28.9530 C   0  0  0  0  0  0  0  0  0  0  0  0
    1.1330   18.4390  -29.3380 C   0  0  0  0  0  0  0  0  0  0  0  0
    1.9250   19.5100  -28.9170 C   0  0  0  0  0  0  0  0  0  0  0  0
    1.3910   20.4980  -28.1480 N   0  0  0  0  0  0  0  0  0  0  0  0
    0.0780   20.4790  -27.7740 C   0  0  0  0  0  0  0  0  0  0  0  0
   -2.4590   21.9130  -31.2630 C   0  0  0  0  0  0  0  0  0  0  0  0
   -3.6710   21.8700  -31.9580 C   0  0  0  0  0  0  0  0  0  0  0  0
   -7.1300   17.1790  -33.0910 C   0  0  0  0  0  0  0  0  0  0  0  0
   -5.7170   16.5830  -33.1120 C   0  0  0  0  0  0  0  0  0  0  0  0
   -3.2071   14.5129  -32.8738 H   0  0  0  0  0  0  0  0  0  0  0  0
   -3.9118   15.2525  -34.3512 H   0  0  0  0  0  0  0  0  0  0  0  0
   -2.2027   14.6996  -34.3512 H   0  0  0  0  0  0  0  0  0  0  0  0
   -0.5841   15.8114  -32.7052 H   0  0  0  0  0  0  0  0  0  0  0  0
    0.1943   18.0468  -31.9254 H   0  0  0  0  0  0  0  0  0  0  0  0
   -1.3347   20.0132  -32.0351 H   0  0  0  0  0  0  0  0  0  0  0  0
   -3.6526   19.7455  -32.9092 H   0  0  0  0  0  0  0  0  0  0  0  0
   -4.5100   19.1367  -35.0736 H   0  0  0  0  0  0  0  0  0  0  0  0
   -5.6781   17.8841  -35.6459 H   0  0  0  0  0  0  0  0  0  0  0  0
   -6.1273   20.2710  -33.9446 H   0  0  0  0  0  0  0  0  0  0  0  0
   -7.2906   19.2772  -34.9265 H   0  0  0  0  0  0  0  0  0  0  0  0
   -9.0512   19.1102  -33.3358 H   0  0  0  0  0  0  0  0  0  0  0  0
   -8.6553   18.7898  -31.6077 H   0  0  0  0  0  0  0  0  0  0  0  0
   -8.0448   21.2753  -33.2700 H   0  0  0  0  0  0  0  0  0  0  0  0
   -8.9836   21.1404  -31.7334 H   0  0  0  0  0  0  0  0  0  0  0  0
   -6.2720   20.1850  -31.6330 H   0  0  0  0  0  0  0  0  0  0  0  0
   -5.9937   22.0322  -33.1333 H   0  0  0  0  0  0  0  0  0  0  0  0
   -6.7662   23.0858  -31.9032 H   0  0  0  0  0  0  0  0  0  0  0  0
   -5.7350   23.1204  -29.5340 H   0  0  0  0  0  0  0  0  0  0  0  0
   -3.5681   23.2355  -28.3119 H   0  0  0  0  0  0  0  0  0  0  0  0
   -0.5728   21.4396  -29.3637 H   0  0  0  0  0  0  0  0  0  0  0  0
   -0.5191   23.2413  -29.5046 H   0  0  0  0  0  0  0  0  0  0  0  0
   -2.3961   24.2118  -27.1871 H   0  0  0  0  0  0  0  0  0  0  0  0
    0.4894   24.6740  -28.1214 H   0  0  0  0  0  0  0  0  0  0  0  0
   -0.9515   24.6945  -29.2040 H   0  0  0  0  0  0  0  0  0  0  0  0
   -0.1907   26.9766  -28.3938 H   0  0  0  0  0  0  0  0  0  0  0  0
   -1.9153   26.5467  -28.0175 H   0  0  0  0  0  0  0  0  0  0  0  0
   -0.4482   28.7378  -26.6458 H   0  0  0  0  0  0  0  0  0  0  0  0
   -0.1542   27.4156  -22.5443 H   0  0  0  0  0  0  0  0  0  0  0  0
   -0.4677   25.0540  -23.2715 H   0  0  0  0  0  0  0  0  0  0  0  0
    0.2196   23.6340  -25.7288 H   0  0  0  0  0  0  0  0  0  0  0  0
   -1.4815   23.6177  -25.0857 H   0  0  0  0  0  0  0  0  0  0  0  0
    0.2668   22.2235  -26.4589 H   0  0  0  0  0  0  0  0  0  0  0  0
   -0.5567   20.1991  -25.2192 H   0  0  0  0  0  0  0  0  0  0  0  0
   -1.7285   21.5947  -25.1281 H   0  0  0  0  0  0  0  0  0  0  0  0
   -2.5229   19.0772  -25.6151 H   0  0  0  0  0  0  0  0  0  0  0  0
   -3.3087   20.5651  -26.3514 H   0  0  0  0  0  0  0  0  0  0  0  0
   -2.5487   18.3356  -27.7586 H   0  0  0  0  0  0  0  0  0  0  0  0
   -2.7451   20.0217  -28.4225 H   0  0  0  0  0  0  0  0  0  0  0  0
   -0.8419   17.5490  -29.2815 H   0  0  0  0  0  0  0  0  0  0  0  0
    1.5620   17.6454  -29.9674 H   0  0  0  0  0  0  0  0  0  0  0  0
    2.9848   19.5551  -29.2082 H   0  0  0  0  0  0  0  0  0  0  0  0
    2.0110   21.2810  -27.8420 H   0  0  0  0  0  0  0  0  0  0  0  0
   -1.5327   21.5901  -31.7607 H   0  0  0  0  0  0  0  0  0  0  0  0
   -3.6961   21.4967  -32.9924 H   0  0  0  0  0  0  0  0  0  0  0  0
   -7.6950   16.7620  -32.2443 H   0  0  0  0  0  0  0  0  0  0  0  0
   -7.6542   16.9334  -34.0264 H   0  0  0  0  0  0  0  0  0  0  0  0
   -5.3777   16.4190  -32.0786 H   0  0  0  0  0  0  0  0  0  0  0  0
   -5.7410   15.6288  -33.6587 H   0  0  0  0  0  0  0  0  0  0  0  0
  1  2  1  0
  2  3  2  0
  3  4  1  0
  4  5  2  0
  5  6  1  0
  6  7  2  0
  7  8  1  0
  8  9  1  0
  9 10  1  0
 10 11  1  0
 11 12  1  0
 12 13  1  0
 13 14  1  0
 14 15  1  0
 15 16  1  0
 16 17  2  0
 17 18  1  0
 18 19  2  0
 19 20  1  0
 20 21  1  0
 21 22  1  0
 22 23  1  0
 23 24  1  0
 24 25  1  0
 25 26  2  0
 26 27  1  0
 27 28  1  0
 27 29  2  0
 29 30  1  0
 30 31  2  0
 31 32  1  0
 21 33  1  0
 33 34  1  0
 34 35  1  0
 35 36  1  0
 36 37  1  0
 37 38  2  0
 38 39  1  0
 39 40  2  0
 40 41  1  0
 41 42  2  0
 19 43  1  0
 43 44  2  0
 11 45  1  0
 45 46  1  0
  7  2  1  0
 46  8  1  0
 44 16  1  0
 32 22  1  0
 42 33  1  0
 31 25  1  0
 42 37  1  0
  1 47  1  0
  1 48  1  0
  1 49  1  0
  3 50  1  0
  4 51  1  0
  5 52  1  0
  6 53  1  0
  9 54  1  0
  9 55  1  0
 10 56  1  0
 10 57  1  0
 12 58  1  0
 12 59  1  0
 13 60  1  0
 13 61  1  0
 14 62  1  0
 15 63  1  0
 15 64  1  0
 17 65  1  0
 18 66  1  0
 20 67  1  0
 20 68  1  0
 22 69  1  1
 23 70  1  0
 23 71  1  0
 24 72  1  0
 24 73  1  0
 26 74  1  0
 29 75  1  0
 30 76  1  0
 32 77  1  0
 32 78  1  0
 33 79  1  1
 34 80  1  0
 34 81  1  0
 35 82  1  0
 35 83  1  0
 36 84  1  0
 36 85  1  0
 38 86  1  0
 39 87  1  0
 40 88  1  0
 41 89  1  0
 43 90  1  0
 44 91  1  0
 45 92  1  0
 45 93  1  0
 46 94  1  0
 46 95  1  0
M  CHG  1  41   1
M  END
>  <UniqueID>  (29) 
28

>  <SMILES>  (29) 
Cc1ccccc1N1CCN(CCNCc2ccc(CN([C@@H]3CCc4cc(F)ccc4C3)[C@H]3CCCc4ccc[nH+]c43)cc2)CC1

>  <Energy>  (29) 
130.23990215203472

>  <Genealogy>  (29) 
Cc1ccccc1N1CCN(CCNCc2ccc(CN(C3CCc4cc(F)ccc4C3)C3CCCc4ccc[nH+]c43)cc2)CC1 (protonated)
Cc1ccccc1N1CCN(CCNCc2ccc(CN([C@@H]3CCc4cc(F)ccc4C3)[C@H]3CCCc4ccc[nH+]c43)cc2)CC1 (chirality)
Cc1ccccc1N1CCN(CCNCc2ccc(CN([C@@H]3CCc4cc(F)ccc4C3)[C@H]3CCCc4ccc[nH+]c43)cc2)CC1 (3D coordinates assigned)
Cc1ccccc1N1CCN(CCNCc2ccc(CN([C@@H]3CCc4cc(F)ccc4C3)[C@H]3CCCc4ccc[nH+]c43)cc2)CC1 (nonaromatic ring conformer: 130.23990215203472 kcal/mol)

>  <smiles>  (29) 
Cc1ccccc1N1CCN(CCNCc2ccc(CN(C3CCc4cc(F)ccc4C3)C3CCCc4cccnc43)cc2)CC1

>  <score_type>  (29) 
oracle

>  <origin>  (29) 
adg

>  <m_score__min__energy>  (29) 
-12.19

>  <m_primary>  (29) 
energy

$$$$
29:0
     RDKit          3D

 46 48  0  0  1  0  0  0  0  0999 V2000
   -3.1760   20.7750  -33.2210 C   0  0  0  0  0  0  0  0  0  0  0  0
   -2.9700   21.6580  -32.0410 C   0  0  0  0  0  0  0  0  0  0  0  0
   -3.7540   22.7520  -31.8360 N   0  0  0  0  0  0  0  0  0  0  0  0
   -3.5730   23.5540  -30.7710 C   0  0  0  0  0  0  0  0  0  0  0  0
   -4.2740   24.5960  -30.5220 N   0  0  0  0  0  0  0  0  0  0  0  0
   -5.5600   24.4330  -29.8870 C   0  0  0  0  0  0  0  0  0  0  0  0
   -6.7270   24.5690  -30.8400 C   0  0  0  0  0  0  0  0  0  0  0  0
   -6.7750   23.5300  -31.8450 N   0  0  0  0  0  0  0  0  0  0  0  0
   -8.0180   22.3950  -31.5840 S   0  0  0  0  0  0  0  0  0  0  0  0
   -9.2510   22.9400  -32.2900 O   0  0  0  0  0  0  0  0  0  0  0  0
   -8.3690   22.3040  -30.1340 O   0  0  0  0  0  0  0  0  0  0  0  0
   -7.6240   20.8130  -32.1870 C   0  0  0  0  0  0  0  0  0  0  0  0
   -6.5740   20.5710  -33.0610 C   0  0  0  0  0  0  0  0  0  0  0  0
   -6.3240   19.2670  -33.4970 C   0  0  0  0  0  0  0  0  0  0  0  0
   -7.1350   18.2220  -33.0490 C   0  0  0  0  0  0  0  0  0  0  0  0
   -8.1850   18.4700  -32.1730 C   0  0  0  0  0  0  0  0  0  0  0  0
   -8.4180   19.7530  -31.7520 C   0  0  0  0  0  0  0  0  0  0  0  0
   -2.5570   23.2590  -29.8550 C   0  0  0  0  0  0  0  0  0  0  0  0
   -2.3440   24.1260  -28.6830 C   0  0  0  0  0  0  0  0  0  0  0  0
   -3.2480   24.0890  -27.6290 C   0  0  0  0  0  0  0  0  0  0  0  0
   -3.0660   24.8870  -26.5320 C   0  0  0  0  0  0  0  0  0  0  0  0
   -2.0000   25.7330  -26.4430 C   0  0  0  0  0  0  0  0  0  0  0  0
   -1.7730   26.5450  -25.3780 F   0  0  0  0  0  0  0  0  0  0  0  0
   -1.0810   25.7910  -27.4810 C   0  0  0  0  0  0  0  0  0  0  0  0
   -1.2670   24.9830  -28.5900 C   0  0  0  0  0  0  0  0  0  0  0  0
   -1.7590   22.1360  -30.0720 C   0  0  0  0  0  0  0  0  0  0  0  0
   -1.9920   21.3750  -31.1570 N   0  0  0  0  0  0  0  0  0  0  0  0
   -3.4136   19.7566  -32.8798 H   0  0  0  0  0  0  0  0  0  0  0  0
   -4.0080   21.1619  -33.8277 H   0  0  0  0  0  0  0  0  0  0  0  0
   -2.2587   20.7538  -33.8277 H   0  0  0  0  0  0  0  0  0  0  0  0
   -5.5983   23.4329  -29.4306 H   0  0  0  0  0  0  0  0  0  0  0  0
   -5.6563   25.2365  -29.1420 H   0  0  0  0  0  0  0  0  0  0  0  0
   -7.6589   24.5326  -30.2568 H   0  0  0  0  0  0  0  0  0  0  0  0
   -6.6031   25.5255  -31.3690 H   0  0  0  0  0  0  0  0  0  0  0  0
   -5.8610   23.1340  -32.0740 H   0  0  0  0  0  0  0  0  0  0  0  0
   -5.9417   21.4011  -33.4089 H   0  0  0  0  0  0  0  0  0  0  0  0
   -5.4932   19.0648  -34.1891 H   0  0  0  0  0  0  0  0  0  0  0  0
   -6.9412   17.1950  -33.3921 H   0  0  0  0  0  0  0  0  0  0  0  0
   -8.8222   17.6452  -31.8214 H   0  0  0  0  0  0  0  0  0  0  0  0
   -9.2477   19.9503  -31.0573 H   0  0  0  0  0  0  0  0  0  0  0  0
   -4.1154   23.4142  -27.6763 H   0  0  0  0  0  0  0  0  0  0  0  0
   -3.7927   24.8452  -25.7072 H   0  0  0  0  0  0  0  0  0  0  0  0
   -0.2169   26.4693  -27.4237 H   0  0  0  0  0  0  0  0  0  0  0  0
   -0.5403   25.0254  -29.4147 H   0  0  0  0  0  0  0  0  0  0  0  0
   -0.9537   21.8770  -29.3689 H   0  0  0  0  0  0  0  0  0  0  0  0
   -1.3680   20.5430  -31.2790 H   0  0  0  0  0  0  0  0  0  0  0  0
  1  2  1  0
  2  3  2  0
  3  4  1  0
  4  5  2  0
  5  6  1  0
  6  7  1  0
  7  8  1  0
  8  9  1  0
  9 10  2  0
  9 11  2  0
  9 12  1  0
 12 13  2  0
 13 14  1  0
 14 15  2  0
 15 16  1  0
 16 17  2  0
  4 18  1  0
 18 19  1  0
 19 20  2  0
 20 21  1  0
 21 22  2  0
 22 23  1  0
 22 24  1  0
 24 25  2  0
 18 26  2  0
 26 27  1  0
 27  2  1  0
 17 12  1  0
 25 19  1  0
  1 28  1  0
  1 29  1  0
  1 30  1  0
  6 31  1  0
  6 32  1  0
  7 33  1  0
  7 34  1  0
  8 35  1  0
 13 36  1  0
 14 37  1  0
 15 38  1  0
 16 39  1  0
 17 40  1  0
 20 41  1  0
 21 42  1  0
 24 43  1  0
 25 44  1  0
 26 45  1  0
 27 46  1  0
M  END
>  <smiles>  (30) 
Cc1nc(=NCCNS(=O)(=O)c2ccccc2)c(-c2ccc(F)cc2)c[nH]1

>  <score_type>  (30) 
oracle

>  <origin>  (30) 
adg

>  <m_score__min__energy>  (30) 
-9.1899999999999995

>  <m_primary>  (30) 
energy

$$$$
30:0
     RDKit          3D

 50 52  0  0  0  0  0  0  0  0999 V2000
   -3.1050   21.6040  -28.5260 C   0  0  0  0  0  0  0  0  0  0  0  0
   -3.0870   20.8610  -29.8590 C   0  0  0  0  0  0  0  0  0  0  0  0
   -2.3790   21.6640  -30.9650 C   0  0  0  0  0  0  0  0  0  0  0  0
   -3.1990   21.8210  -32.1850 N   0  0  0  0  0  0  0  0  0  0  0  0
   -2.7620   21.1760  -33.4380 C   0  0  0  0  0  0  0  0  0  0  0  0
   -2.3760   19.6930  -33.2890 C   0  0  0  0  0  0  0  0  0  0  0  0
   -3.4030   18.7430  -33.8980 C   0  0  0  0  0  0  0  0  0  0  0  0
   -4.6310   21.9450  -32.0320 C   0  0  0  0  0  0  0  0  0  0  0  0
   -5.4470   21.0010  -32.5820 N   0  0  0  0  0  0  0  0  0  0  0  0
   -6.8040   21.0780  -32.4700 C   0  0  0  0  0  0  0  0  0  0  0  0
   -7.6860   20.0230  -33.1050 C   0  0  0  0  0  0  0  0  0  0  0  0
   -7.0310   18.6430  -33.0780 C   0  0  0  0  0  0  0  0  0  0  0  0
   -7.5390   17.9470  -31.8200 C   0  0  0  0  0  0  0  0  0  0  0  0
   -8.7420   18.7450  -31.3190 C   0  0  0  0  0  0  0  0  0  0  0  0
   -8.9900   19.8560  -32.3320 C   0  0  0  0  0  0  0  0  0  0  0  0
   -7.3670   22.1280  -31.8160 N   0  0  0  0  0  0  0  0  0  0  0  0
   -6.6080   23.1020  -31.2580 C   0  0  0  0  0  0  0  0  0  0  0  0
   -7.2250   24.1670  -30.5910 C   0  0  0  0  0  0  0  0  0  0  0  0
   -6.4480   25.1720  -30.0100 C   0  0  0  0  0  0  0  0  0  0  0  0
   -5.0540   25.1150  -30.0910 C   0  0  0  0  0  0  0  0  0  0  0  0
   -4.4310   24.0550  -30.7560 C   0  0  0  0  0  0  0  0  0  0  0  0
   -5.2030   23.0390  -31.3490 C   0  0  0  0  0  0  0  0  0  0  0  0
   -3.0874   20.8770  -27.7007 H   0  0  0  0  0  0  0  0  0  0  0  0
   -2.2224   22.2570  -28.4583 H   0  0  0  0  0  0  0  0  0  0  0  0
   -4.0182   22.2135  -28.4583 H   0  0  0  0  0  0  0  0  0  0  0  0
   -2.5607   19.9046  -29.7240 H   0  0  0  0  0  0  0  0  0  0  0  0
   -4.1300   20.7045  -30.1715 H   0  0  0  0  0  0  0  0  0  0  0  0
   -2.1401   22.6637  -30.5731 H   0  0  0  0  0  0  0  0  0  0  0  0
   -1.4750   21.1048  -31.2479 H   0  0  0  0  0  0  0  0  0  0  0  0
   -3.5838   21.2461  -34.1658 H   0  0  0  0  0  0  0  0  0  0  0  0
   -1.8544   21.7054  -33.7636 H   0  0  0  0  0  0  0  0  0  0  0  0
   -1.4096   19.5309  -33.7888 H   0  0  0  0  0  0  0  0  0  0  0  0
   -2.3247   19.4741  -32.2122 H   0  0  0  0  0  0  0  0  0  0  0  0
   -3.9537   18.2336  -33.0934 H   0  0  0  0  0  0  0  0  0  0  0  0
   -4.1078   19.3146  -34.5198 H   0  0  0  0  0  0  0  0  0  0  0  0
   -2.8880   17.9959  -34.5198 H   0  0  0  0  0  0  0  0  0  0  0  0
   -5.0230   20.2090  -33.1140 H   0  0  0  0  0  0  0  0  0  0  0  0
   -7.8563   20.3683  -34.1354 H   0  0  0  0  0  0  0  0  0  0  0  0
   -7.3172   18.0690  -33.9717 H   0  0  0  0  0  0  0  0  0  0  0  0
   -5.9340   18.7235  -33.0725 H   0  0  0  0  0  0  0  0  0  0  0  0
   -7.8418   16.9160  -32.0554 H   0  0  0  0  0  0  0  0  0  0  0  0
   -6.7521   17.9023  -31.0527 H   0  0  0  0  0  0  0  0  0  0  0  0
   -9.6254   18.0933  -31.2487 H   0  0  0  0  0  0  0  0  0  0  0  0
   -8.5497   19.1603  -30.3187 H   0  0  0  0  0  0  0  0  0  0  0  0
   -9.8052   19.5748  -33.0149 H   0  0  0  0  0  0  0  0  0  0  0  0
   -9.2861   20.7925  -31.8367 H   0  0  0  0  0  0  0  0  0  0  0  0
   -8.3220   24.2124  -30.5244 H   0  0  0  0  0  0  0  0  0  0  0  0
   -6.9340   26.0094  -29.4880 H   0  0  0  0  0  0  0  0  0  0  0  0
   -4.4452   25.9067  -29.6300 H   0  0  0  0  0  0  0  0  0  0  0  0
   -3.3334   24.0150  -30.8159 H   0  0  0  0  0  0  0  0  0  0  0  0
  1  2  1  0
  2  3  1  0
  3  4  1  0
  4  5  1  0
  5  6  1  0
  6  7  1  0
  4  8  1  0
  8  9  2  0
  9 10  1  0
 10 11  1  0
 11 12  1  0
 12 13  1  0
 13 14  1  0
 14 15  1  0
 10 16  2  0
 16 17  1  0
 17 18  2  0
 18 19  1  0
 19 20  2  0
 20 21  1  0
 21 22  2  0
 22  8  1  0
 15 11  1  0
 22 17  1  0
  1 23  1  0
  1 24  1  0
  1 25  1  0
  2 26  1  0
  2 27  1  0
  3 28  1  0
  3 29  1  0
  5 30  1  0
  5 31  1  0
  6 32  1  0
  6 33  1  0
  7 34  1  0
  7 35  1  0
  7 36  1  0
  9 37  1  0
 11 38  1  0
 12 39  1  0
 12 40  1  0
 13 41  1  0
 13 42  1  0
 14 43  1  0
 14 44  1  0
 15 45  1  0
 15 46  1  0
 18 47  1  0
 19 48  1  0
 20 49  1  0
 21 50  1  0
M  CHG  1   9   1
M  END
>  <UniqueID>  (31) 
29

>  <SMILES>  (31) 
CCCN(CCC)c1[nH+]c(C2CCCC2)nc2ccccc12

>  <Energy>  (31) 
52.773178068183945

>  <Genealogy>  (31) 
CCCN(CCC)c1[nH+]c(C2CCCC2)nc2ccccc12 (protonated)
CCCN(CCC)c1[nH+]c(C2CCCC2)nc2ccccc12 (3D coordinates assigned)
CCCN(CCC)c1[nH+]c(C2CCCC2)nc2ccccc12 (nonaromatic ring conformer: 52.773178068183945 kcal/mol)

>  <smiles>  (31) 
CCCN(CCC)c1nc(C2CCCC2)nc2ccccc12

>  <score_type>  (31) 
oracle

>  <origin>  (31) 
adg

>  <m_score__min__energy>  (31) 
-6.9800000000000004

>  <m_primary>  (31) 
energy

$$$$
31:0
     RDKit          3D

 56 57  0  0  0  0  0  0  0  0999 V2000
   -2.1940   19.3830  -32.7410 C   0  0  0  0  0  0  0  0  0  0  0  0
   -1.8950   20.8110  -33.0060 N   0  0  0  0  0  0  0  0  0  0  0  0
   -3.1510   21.4590  -33.4600 C   0  0  0  0  0  0  0  0  0  0  0  0
   -0.9030   20.9140  -34.1010 C   0  0  0  0  0  0  0  0  0  0  0  0
   -1.4380   21.5180  -31.7620 C   0  0  0  0  0  0  0  0  0  0  0  0
   -2.4510   21.6330  -30.5900 C   0  0  0  0  0  0  0  0  0  0  0  0
   -2.9810   23.0500  -30.3230 C   0  0  0  0  0  0  0  0  0  0  0  0
   -4.1750   23.2700  -31.0660 O   0  0  0  0  0  0  0  0  0  0  0  0
   -4.9920   24.3860  -30.8690 C   0  0  0  0  0  0  0  0  0  0  0  0
   -4.4960   25.5470  -30.8520 O   0  0  0  0  0  0  0  0  0  0  0  0
   -6.4670   24.2120  -30.6380 C   0  0  0  0  0  0  0  0  0  0  0  0
   -7.2150   23.7730  -31.9110 C   0  0  0  0  0  0  0  0  0  0  0  0
   -8.0420   22.5140  -31.7430 C   0  0  0  0  0  0  0  0  0  0  0  0
   -9.2920   22.6110  -31.5980 O   0  0  0  0  0  0  0  0  0  0  0  0
   -7.4270   21.2060  -31.8020 N   0  0  0  0  0  0  0  0  0  0  0  0
   -8.2550   19.9850  -31.7560 C   0  0  0  0  0  0  0  0  0  0  0  0
   -7.8250   19.0240  -32.8690 C   0  0  0  0  0  0  0  0  0  0  0  0
   -6.3610   18.8940  -32.9270 N   0  0  0  0  0  0  0  0  0  0  0  0
   -5.7570   18.2520  -34.0560 C   0  0  0  0  0  0  0  0  0  0  0  0
   -5.2750   18.9580  -34.9820 O   0  0  0  0  0  0  0  0  0  0  0  0
   -5.6170   16.7580  -34.1340 C   0  0  2  0  0  0  0  0  0  0  0  0
   -6.8120   16.0250  -33.8280 C   0  0  0  0  0  0  0  0  0  0  0  0
   -5.6770   16.0220  -32.7930 C   0  0  0  0  0  0  0  0  0  0  0  0
   -5.1950   15.6900  -31.7230 O   0  0  0  0  0  0  0  0  0  0  0  0
   -5.5160   19.6140  -31.9670 C   0  0  0  0  0  0  0  0  0  0  0  0
   -5.9600   21.0790  -31.8790 C   0  0  0  0  0  0  0  0  0  0  0  0
   -2.2300   19.2113  -31.6551 H   0  0  0  0  0  0  0  0  0  0  0  0
   -3.1660   19.1233  -33.1857 H   0  0  0  0  0  0  0  0  0  0  0  0
   -1.4078   18.7551  -33.1857 H   0  0  0  0  0  0  0  0  0  0  0  0
   -3.7431   21.7645  -32.5847 H   0  0  0  0  0  0  0  0  0  0  0  0
   -2.9085   22.3445  -34.0658 H   0  0  0  0  0  0  0  0  0  0  0  0
   -3.7321   20.7482  -34.0658 H   0  0  0  0  0  0  0  0  0  0  0  0
    0.1052   21.0187  -33.6737 H   0  0  0  0  0  0  0  0  0  0  0  0
   -0.9460   20.0066  -34.7213 H   0  0  0  0  0  0  0  0  0  0  0  0
   -1.1315   21.7932  -34.7213 H   0  0  0  0  0  0  0  0  0  0  0  0
   -0.5554   20.9816  -31.3834 H   0  0  0  0  0  0  0  0  0  0  0  0
   -1.2573   22.5556  -32.0794 H   0  0  0  0  0  0  0  0  0  0  0  0
   -3.3103   20.9851  -30.8176 H   0  0  0  0  0  0  0  0  0  0  0  0
   -1.9050   21.3343  -29.6830 H   0  0  0  0  0  0  0  0  0  0  0  0
   -3.1935   23.1635  -29.2497 H   0  0  0  0  0  0  0  0  0  0  0  0
   -2.2223   23.7840  -30.6322 H   0  0  0  0  0  0  0  0  0  0  0  0
   -6.6147   23.4478  -29.8607 H   0  0  0  0  0  0  0  0  0  0  0  0
   -6.8745   25.1861  -30.3297 H   0  0  0  0  0  0  0  0  0  0  0  0
   -7.8870   24.5891  -32.2149 H   0  0  0  0  0  0  0  0  0  0  0  0
   -6.4478   23.5486  -32.6667 H   0  0  0  0  0  0  0  0  0  0  0  0
   -8.1275   19.4939  -30.7800 H   0  0  0  0  0  0  0  0  0  0  0  0
   -9.3112   20.2569  -31.8990 H   0  0  0  0  0  0  0  0  0  0  0  0
   -8.2653   18.0343  -32.6777 H   0  0  0  0  0  0  0  0  0  0  0  0
   -8.1761   19.4270  -33.8304 H   0  0  0  0  0  0  0  0  0  0  0  0
   -4.9066   16.7560  -34.9739 H   0  0  0  0  0  0  0  0  0  0  0  0
   -7.7440   16.5682  -33.6127 H   0  0  0  0  0  0  0  0  0  0  0  0
   -7.3811   15.2374  -34.3435 H   0  0  0  0  0  0  0  0  0  0  0  0
   -5.6077   19.1447  -30.9764 H   0  0  0  0  0  0  0  0  0  0  0  0
   -4.4692   19.5718  -32.3023 H   0  0  0  0  0  0  0  0  0  0  0  0
   -5.5163   21.5315  -30.9799 H   0  0  0  0  0  0  0  0  0  0  0  0
   -5.6210   21.5930  -32.7906 H   0  0  0  0  0  0  0  0  0  0  0  0
  1  2  1  0
  2  3  1  0
  2  4  1  0
  2  5  1  0
  5  6  1  0
  6  7  1  0
  7  8  1  0
  8  9  1  0
  9 10  2  0
  9 11  1  0
 11 12  1  0
 12 13  1  0
 13 14  2  0
 13 15  1  0
 15 16  1  0
 16 17  1  0
 17 18  1  0
 18 19  1  0
 19 20  2  0
 19 21  1  0
 21 22  1  0
 22 23  1  0
 23 24  2  0
 18 25  1  0
 25 26  1  0
 26 15  1  0
 23 21  1  0
  1 27  1  0
  1 28  1  0
  1 29  1  0
  3 30  1  0
  3 31  1  0
  3 32  1  0
  4 33  1  0
  4 34  1  0
  4 35  1  0
  5 36  1  0
  5 37  1  0
  6 38  1  0
  6 39  1  0
  7 40  1  0
  7 41  1  0
 11 42  1  0
 11 43  1  0
 12 44  1  0
 12 45  1  0
 16 46  1  0
 16 47  1  0
 17 48  1  0
 17 49  1  0
 21 50  1  6
 22 51  1  0
 22 52  1  0
 25 53  1  0
 25 54  1  0
 26 55  1  0
 26 56  1  0
M  CHG  1   2   1
M  END
>  <UniqueID>  (32) 
30

>  <SMILES>  (32) 
C[N+](C)(C)CCCOC(=O)CCC(=O)N1CCN(C(=O)[C@@H]2CC2=O)CC1

>  <Energy>  (32) 
234.24449103048474

>  <Genealogy>  (32) 
C[N+](C)(C)CCCOC(=O)CCC(=O)N1CCN(C(=O)[C@@H]2CC2=O)CC1 (chirality)
C[N+](C)(C)CCCOC(=O)CCC(=O)N1CCN(C(=O)[C@@H]2CC2=O)CC1 (3D coordinates assigned)
C[N+](C)(C)CCCOC(=O)CCC(=O)N1CCN(C(=O)[C@@H]2CC2=O)CC1 (nonaromatic ring conformer: 234.24449103048474 kcal/mol)

>  <smiles>  (32) 
C[N+](C)(C)CCCOC(=O)CCC(=O)N1CCN(C(=O)C2CC2=O)CC1

>  <score_type>  (32) 
oracle

>  <origin>  (32) 
adg

>  <m_score__min__energy>  (32) 
-7.0499999999999998

>  <m_primary>  (32) 
energy

$$$$
32:0
     RDKit          3D

 41 43  0  0  0  0  0  0  0  0999 V2000
   -8.2670   21.9830  -31.6540 C   0  0  0  0  0  0  0  0  0  0  0  0
   -6.9960   22.7370  -31.3620 C   0  0  0  0  0  0  0  0  0  0  0  0
   -7.0530   23.8530  -30.5090 C   0  0  0  0  0  0  0  0  0  0  0  0
   -5.8980   24.5700  -30.1970 C   0  0  0  0  0  0  0  0  0  0  0  0
   -4.6640   24.1910  -30.7300 C   0  0  0  0  0  0  0  0  0  0  0  0
   -3.4960   24.9450  -30.3810 N   0  0  0  0  0  0  0  0  0  0  0  0
   -2.5030   24.5670  -29.4180 C   0  0  0  0  0  0  0  0  0  0  0  0
   -1.6820   25.4350  -29.0220 O   0  0  0  0  0  0  0  0  0  0  0  0
   -2.3810   23.1840  -28.9200 C   0  0  0  0  0  0  0  0  0  0  0  0
   -3.2320   22.5430  -28.0240 C   0  0  0  0  0  0  0  0  0  0  0  0
   -2.8670   21.2160  -27.7670 C   0  0  0  0  0  0  0  0  0  0  0  0
   -1.7400   20.8010  -28.4650 C   0  0  0  0  0  0  0  0  0  0  0  0
   -1.2000   22.0880  -29.4030 S   0  0  0  0  0  0  0  0  0  0  0  0
   -4.5890   23.0500  -31.5470 C   0  0  0  0  0  0  0  0  0  0  0  0
   -5.7430   22.3210  -31.8730 C   0  0  0  0  0  0  0  0  0  0  0  0
   -5.5870   20.8970  -32.9170 S   0  0  0  0  0  0  0  0  0  0  0  0
   -4.4120   21.0590  -33.8430 O   0  0  0  0  0  0  0  0  0  0  0  0
   -6.8340   20.7610  -33.7450 O   0  0  0  0  0  0  0  0  0  0  0  0
   -5.3560   19.4670  -31.9410 N   0  0  0  0  0  0  0  0  0  0  0  0
   -4.4160   18.5230  -32.5870 C   0  0  0  0  0  0  0  0  0  0  0  0
   -5.1350   17.2930  -33.1680 C   0  0  0  0  0  0  0  0  0  0  0  0
   -5.8720   16.5680  -32.1940 O   0  0  0  0  0  0  0  0  0  0  0  0
   -6.4830   17.3900  -31.2060 C   0  0  0  0  0  0  0  0  0  0  0  0
   -6.6610   18.8580  -31.6250 C   0  0  0  0  0  0  0  0  0  0  0  0
   -8.7493   21.6969  -30.7077 H   0  0  0  0  0  0  0  0  0  0  0  0
   -8.9482   22.6232  -32.2338 H   0  0  0  0  0  0  0  0  0  0  0  0
   -8.0317   21.0783  -32.2338 H   0  0  0  0  0  0  0  0  0  0  0  0
   -8.0184   24.1640  -30.0832 H   0  0  0  0  0  0  0  0  0  0  0  0
   -5.9595   25.4399  -29.5266 H   0  0  0  0  0  0  0  0  0  0  0  0
   -4.1042   23.0304  -27.5638 H   0  0  0  0  0  0  0  0  0  0  0  0
   -3.4210   20.5629  -27.0767 H   0  0  0  0  0  0  0  0  0  0  0  0
   -1.2803   19.8030  -28.4131 H   0  0  0  0  0  0  0  0  0  0  0  0
   -3.6131   22.7241  -31.9360 H   0  0  0  0  0  0  0  0  0  0  0  0
   -3.8933   19.0455  -33.4018 H   0  0  0  0  0  0  0  0  0  0  0  0
   -3.7107   18.1708  -31.8199 H   0  0  0  0  0  0  0  0  0  0  0  0
   -5.8285   17.6306  -33.9522 H   0  0  0  0  0  0  0  0  0  0  0  0
   -4.3624   16.6180  -33.5649 H   0  0  0  0  0  0  0  0  0  0  0  0
   -7.4756   16.9742  -30.9780 H   0  0  0  0  0  0  0  0  0  0  0  0
   -5.8091   17.3905  -30.3366 H   0  0  0  0  0  0  0  0  0  0  0  0
   -7.3070   18.9048  -32.5141 H   0  0  0  0  0  0  0  0  0  0  0  0
   -7.1199   19.4122  -30.7929 H   0  0  0  0  0  0  0  0  0  0  0  0
  1  2  1  0
  2  3  2  0
  3  4  1  0
  4  5  2  0
  5  6  1  0
  6  7  1  0
  7  8  2  0
  7  9  1  0
  9 10  2  0
 10 11  1  0
 11 12  2  0
 12 13  1  0
  5 14  1  0
 14 15  2  0
 15 16  1  0
 16 17  2  0
 16 18  2  0
 16 19  1  0
 19 20  1  0
 20 21  1  0
 21 22  1  0
 22 23  1  0
 23 24  1  0
 15  2  1  0
 24 19  1  0
 13  9  1  0
  1 25  1  0
  1 26  1  0
  1 27  1  0
  3 28  1  0
  4 29  1  0
 10 30  1  0
 11 31  1  0
 12 32  1  0
 14 33  1  0
 20 34  1  0
 20 35  1  0
 21 36  1  0
 21 37  1  0
 23 38  1  0
 23 39  1  0
 24 40  1  0
 24 41  1  0
M  CHG  1   6  -1
M  END
>  <UniqueID>  (33) 
31

>  <SMILES>  (33) 
Cc1ccc([N-]C(=O)c2cccs2)cc1S(=O)(=O)N1CCOCC1

>  <Energy>  (33) 
85.99579820996368

>  <Genealogy>  (33) 
Cc1ccc([N-]C(=O)c2cccs2)cc1S(=O)(=O)N1CCOCC1 (protonated)
Cc1ccc([N-]C(=O)c2cccs2)cc1S(=O)(=O)N1CCOCC1 (3D coordinates assigned)
Cc1ccc([N-]C(=O)c2cccs2)cc1S(=O)(=O)N1CCOCC1 (nonaromatic ring conformer: 85.99579820996368 kcal/mol)

>  <smiles>  (33) 
Cc1ccc(NC(=O)c2cccs2)cc1S(=O)(=O)N1CCOCC1

>  <score_type>  (33) 
oracle

>  <origin>  (33) 
adg

>  <m_score__min__energy>  (33) 
-9.9800000000000004

>  <m_primary>  (33) 
energy

$$$$
33:0
     RDKit          3D

 39 42  0  0  0  0  0  0  0  0999 V2000
   -4.3100   24.2150  -30.9140 O   0  0  0  0  0  0  0  0  0  0  0  0
   -5.1360   23.6430  -30.1650 C   0  0  0  0  0  0  0  0  0  0  0  0
   -4.9370   23.6230  -28.7810 N   0  0  0  0  0  0  0  0  0  0  0  0
   -3.8850   24.1810  -28.0510 C   0  0  0  0  0  0  0  0  0  0  0  0
   -4.1590   24.7410  -26.7900 C   0  0  0  0  0  0  0  0  0  0  0  0
   -3.1840   25.3060  -26.0140 C   0  0  0  0  0  0  0  0  0  0  0  0
   -1.8760   25.3510  -26.4370 C   0  0  0  0  0  0  0  0  0  0  0  0
   -0.8490   25.9560  -25.5980 C   0  0  0  0  0  0  0  0  0  0  0  0
    0.4890   25.7560  -25.7290 N   0  0  0  0  0  0  0  0  0  0  0  0
    1.1550   26.4610  -24.7980 C   0  0  0  0  0  0  0  0  0  0  0  0
    2.5120   26.5550  -24.5630 C   0  0  0  0  0  0  0  0  0  0  0  0
    2.9520   27.3580  -23.5310 C   0  0  0  0  0  0  0  0  0  0  0  0
    2.0050   28.0340  -22.7770 C   0  0  0  0  0  0  0  0  0  0  0  0
    0.6490   27.9280  -23.0250 C   0  0  0  0  0  0  0  0  0  0  0  0
    0.2110   27.1320  -24.0490 C   0  0  0  0  0  0  0  0  0  0  0  0
   -1.0060   26.8060  -24.5610 N   0  0  0  0  0  0  0  0  0  0  0  0
   -1.5730   24.8190  -27.6500 C   0  0  0  0  0  0  0  0  0  0  0  0
   -2.5730   24.2440  -28.4360 C   0  0  0  0  0  0  0  0  0  0  0  0
   -6.2860   23.0230  -30.8440 C   0  0  0  0  0  0  0  0  0  0  0  0
   -7.3440   23.8250  -31.2170 C   0  0  0  0  0  0  0  0  0  0  0  0
   -8.4630   23.2910  -31.8660 C   0  0  0  0  0  0  0  0  0  0  0  0
   -8.5210   21.9470  -32.1410 C   0  0  0  0  0  0  0  0  0  0  0  0
   -7.4600   21.1290  -31.7690 C   0  0  0  0  0  0  0  0  0  0  0  0
   -6.3610   21.6840  -31.1260 C   0  0  0  0  0  0  0  0  0  0  0  0
   -5.6900   23.1150  -28.2160 H   0  0  0  0  0  0  0  0  0  0  0  0
   -5.1929   24.7241  -26.4148 H   0  0  0  0  0  0  0  0  0  0  0  0
   -3.4507   25.7314  -25.0353 H   0  0  0  0  0  0  0  0  0  0  0  0
    3.2287   26.0004  -25.1865 H   0  0  0  0  0  0  0  0  0  0  0  0
    4.0253   27.4592  -23.3123 H   0  0  0  0  0  0  0  0  0  0  0  0
    2.3446   28.6776  -21.9521 H   0  0  0  0  0  0  0  0  0  0  0  0
   -0.0726   28.4792  -22.4041 H   0  0  0  0  0  0  0  0  0  0  0  0
   -1.9180   27.1610  -24.2010 H   0  0  0  0  0  0  0  0  0  0  0  0
   -0.5353   24.8415  -28.0141 H   0  0  0  0  0  0  0  0  0  0  0  0
   -2.2931   23.8210  -29.4121 H   0  0  0  0  0  0  0  0  0  0  0  0
   -7.3078   24.9029  -31.0007 H   0  0  0  0  0  0  0  0  0  0  0  0
   -9.2962   23.9481  -32.1559 H   0  0  0  0  0  0  0  0  0  0  0  0
   -9.3982   21.5217  -32.6506 H   0  0  0  0  0  0  0  0  0  0  0  0
   -7.4907   20.0503  -31.9823 H   0  0  0  0  0  0  0  0  0  0  0  0
   -5.5263   21.0295  -30.8346 H   0  0  0  0  0  0  0  0  0  0  0  0
  1  2  2  0
  2  3  1  0
  3  4  1  0
  4  5  2  0
  5  6  1  0
  6  7  2  0
  7  8  1  0
  8  9  2  0
  9 10  1  0
 10 11  2  0
 11 12  1  0
 12 13  2  0
 13 14  1  0
 14 15  2  0
 15 16  1  0
  7 17  1  0
 17 18  2  0
  2 19  1  0
 19 20  2  0
 20 21  1  0
 21 22  2  0
 22 23  1  0
 23 24  2  0
 18  4  1  0
 24 19  1  0
 16  8  1  0
 15 10  1  0
  3 25  1  0
  5 26  1  0
  6 27  1  0
 11 28  1  0
 12 29  1  0
 13 30  1  0
 14 31  1  0
 16 32  1  0
 17 33  1  0
 18 34  1  0
 20 35  1  0
 21 36  1  0
 22 37  1  0
 23 38  1  0
 24 39  1  0
M  END
>  <smiles>  (34) 
O=C(Nc1ccc(-c2nc3ccccc3[nH]2)cc1)c1ccccc1

>  <score_type>  (34) 
oracle

>  <origin>  (34) 
adg

>  <m_score__min__energy>  (34) 
-7.96

>  <m_primary>  (34) 
energy

$$$$
34:0
     RDKit          3D

 55 57  0  0  0  0  0  0  0  0999 V2000
   -1.6800   19.3160  -33.4340 C   0  0  0  0  0  0  0  0  0  0  0  0
   -1.6930   20.4520  -32.4550 C   0  0  0  0  0  0  0  0  0  0  0  0
   -2.7720   21.3500  -32.4240 C   0  0  0  0  0  0  0  0  0  0  0  0
   -2.8040   22.3830  -31.4830 C   0  0  0  0  0  0  0  0  0  0  0  0
   -1.7620   22.5260  -30.5590 C   0  0  0  0  0  0  0  0  0  0  0  0
   -1.8260   23.8040  -29.3460 S   0  0  0  0  0  0  0  0  0  0  0  0
   -2.0410   23.2080  -27.9830 O   0  0  0  0  0  0  0  0  0  0  0  0
   -0.5150   24.5380  -29.3410 O   0  0  0  0  0  0  0  0  0  0  0  0
   -3.1050   24.9230  -29.7190 N   0  0  0  0  0  0  0  0  0  0  0  0
   -4.3530   24.5440  -29.0520 C   0  0  0  0  0  0  0  0  0  0  0  0
   -5.2540   23.7650  -30.0080 C   0  0  0  0  0  0  0  0  0  0  0  0
   -6.0610   24.8840  -31.2090 S   0  0  0  0  0  0  0  0  0  0  0  0
   -6.7180   23.5900  -32.3410 C   0  0  2  0  0  0  0  0  0  0  0  0
   -8.1520   23.2030  -31.9750 C   0  0  0  0  0  0  0  0  0  0  0  0
   -8.0300   21.7880  -31.4350 C   0  0  1  0  0  0  0  0  0  0  0  0
   -9.3410   20.9830  -31.4740 C   0  0  0  0  0  0  0  0  0  0  0  0
   -9.0860   19.6040  -31.4520 O   0  0  0  0  0  0  0  0  0  0  0  0
   -6.8570   21.1810  -32.0900 N   0  0  0  0  0  0  0  0  0  0  0  0
   -7.0550   20.4150  -33.3570 C   0  0  0  0  0  0  0  0  0  0  0  0
   -6.4160   19.0340  -33.4380 C   0  0  0  0  0  0  0  0  0  0  0  0
   -6.3590   18.2140  -32.2950 C   0  0  0  0  0  0  0  0  0  0  0  0
   -5.7150   16.9750  -32.3340 C   0  0  0  0  0  0  0  0  0  0  0  0
   -5.0790   16.5530  -33.5020 C   0  0  0  0  0  0  0  0  0  0  0  0
   -5.0670   17.3820  -34.6230 C   0  0  0  0  0  0  0  0  0  0  0  0
   -5.7080   18.6250  -34.5870 C   0  0  0  0  0  0  0  0  0  0  0  0
   -5.9050   22.2920  -32.2100 C   0  0  0  0  0  0  0  0  0  0  0  0
   -0.6930   21.6200  -30.5770 C   0  0  0  0  0  0  0  0  0  0  0  0
   -0.6620   20.5830  -31.5130 C   0  0  0  0  0  0  0  0  0  0  0  0
   -1.6691   18.3613  -32.8877 H   0  0  0  0  0  0  0  0  0  0  0  0
   -2.5788   19.3665  -34.0662 H   0  0  0  0  0  0  0  0  0  0  0  0
   -0.7826   19.3870  -34.0662 H   0  0  0  0  0  0  0  0  0  0  0  0
   -3.5963   21.2400  -33.1440 H   0  0  0  0  0  0  0  0  0  0  0  0
   -3.6503   23.0856  -31.4684 H   0  0  0  0  0  0  0  0  0  0  0  0
   -4.1210   23.9153  -28.1797 H   0  0  0  0  0  0  0  0  0  0  0  0
   -4.8774   25.4566  -28.7323 H   0  0  0  0  0  0  0  0  0  0  0  0
   -4.6466   23.0287  -30.5547 H   0  0  0  0  0  0  0  0  0  0  0  0
   -6.0351   23.2608  -29.4200 H   0  0  0  0  0  0  0  0  0  0  0  0
   -6.6624   24.0152  -33.3540 H   0  0  0  0  0  0  0  0  0  0  0  0
   -8.5550   23.8801  -31.2074 H   0  0  0  0  0  0  0  0  0  0  0  0
   -8.8381   23.2691  -32.8323 H   0  0  0  0  0  0  0  0  0  0  0  0
   -7.8504   21.7927  -30.3498 H   0  0  0  0  0  0  0  0  0  0  0  0
   -9.9527   21.2495  -30.5995 H   0  0  0  0  0  0  0  0  0  0  0  0
   -9.8732   21.2257  -32.4056 H   0  0  0  0  0  0  0  0  0  0  0  0
   -8.0990   19.4970  -31.4450 H   0  0  0  0  0  0  0  0  0  0  0  0
   -8.1380   20.2885  -33.5024 H   0  0  0  0  0  0  0  0  0  0  0  0
   -6.5492   21.0095  -34.1320 H   0  0  0  0  0  0  0  0  0  0  0  0
   -6.8275   18.5533  -31.3594 H   0  0  0  0  0  0  0  0  0  0  0  0
   -5.7093   16.3309  -31.4423 H   0  0  0  0  0  0  0  0  0  0  0  0
   -4.5885   15.5691  -33.5383 H   0  0  0  0  0  0  0  0  0  0  0  0
   -4.5517   17.0575  -35.5390 H   0  0  0  0  0  0  0  0  0  0  0  0
   -5.6593   19.2891  -35.4626 H   0  0  0  0  0  0  0  0  0  0  0  0
   -5.2674   22.3377  -31.3148 H   0  0  0  0  0  0  0  0  0  0  0  0
   -5.2573   22.1521  -33.0880 H   0  0  0  0  0  0  0  0  0  0  0  0
    0.1261   21.7258  -29.8504 H   0  0  0  0  0  0  0  0  0  0  0  0
    0.1733   19.8673  -31.5111 H   0  0  0  0  0  0  0  0  0  0  0  0
  1  2  1  0
  2  3  2  0
  3  4  1  0
  4  5  2  0
  5  6  1  0
  6  7  2  0
  6  8  2  0
  6  9  1  0
  9 10  1  0
 10 11  1  0
 11 12  1  0
 12 13  1  0
 13 14  1  0
 14 15  1  0
 15 16  1  0
 16 17  1  0
 15 18  1  0
 18 19  1  0
 19 20  1  0
 20 21  2  0
 21 22  1  0
 22 23  2  0
 23 24  1  0
 24 25  2  0
 18 26  1  0
  5 27  1  0
 27 28  2  0
 28  2  1  0
 26 13  1  0
 25 20  1  0
  1 29  1  0
  1 30  1  0
  1 31  1  0
  3 32  1  0
  4 33  1  0
 10 34  1  0
 10 35  1  0
 11 36  1  0
 11 37  1  0
 13 38  1  6
 14 39  1  0
 14 40  1  0
 15 41  1  1
 16 42  1  0
 16 43  1  0
 17 44  1  0
 19 45  1  0
 19 46  1  0
 21 47  1  0
 22 48  1  0
 23 49  1  0
 24 50  1  0
 25 51  1  0
 26 52  1  0
 26 53  1  0
 27 54  1  0
 28 55  1  0
M  CHG  1   9  -1
M  END
>  <UniqueID>  (35) 
32

>  <SMILES>  (35) 
Cc1ccc(S(=O)(=O)[N-]CCS[C@@H]2C[C@@H](CO)N(Cc3ccccc3)C2)cc1

>  <Energy>  (35) 
62.202026101136674

>  <Genealogy>  (35) 
Cc1ccc(S(=O)(=O)[N-]CCSC2CC(CO)N(Cc3ccccc3)C2)cc1 (protonated)
Cc1ccc(S(=O)(=O)[N-]CCS[C@@H]2C[C@@H](CO)N(Cc3ccccc3)C2)cc1 (chirality)
Cc1ccc(S(=O)(=O)[N-]CCS[C@@H]2C[C@@H](CO)N(Cc3ccccc3)C2)cc1 (3D coordinates assigned)
Cc1ccc(S(=O)(=O)[N-]CCS[C@@H]2C[C@@H](CO)N(Cc3ccccc3)C2)cc1 (nonaromatic ring conformer: 62.202026101136674 kcal/mol)

>  <smiles>  (35) 
Cc1ccc(S(=O)(=O)NCCSC2CC(CO)N(Cc3ccccc3)C2)cc1

>  <score_type>  (35) 
oracle

>  <origin>  (35) 
adg

>  <m_score__min__energy>  (35) 
-11.09

>  <m_primary>  (35) 
energy

$$$$
35:0
     RDKit          3D

 41 43  0  0  0  0  0  0  0  0999 V2000
   -1.6640   24.2640  -26.4990 C   0  0  0  0  0  0  0  0  0  0  0  0
   -0.3610   24.3360  -26.9940 C   0  0  0  0  0  0  0  0  0  0  0  0
   -0.1460   24.4570  -28.3290 N   0  0  0  0  0  0  0  0  0  0  0  0
   -1.1740   24.5100  -29.2180 C   0  0  0  0  0  0  0  0  0  0  0  0
   -2.5020   24.4420  -28.7680 C   0  0  0  0  0  0  0  0  0  0  0  0
   -3.6230   24.5000  -29.7280 C   0  0  0  0  0  0  0  0  0  0  0  0
   -4.3790   23.4320  -30.0650 N   0  0  0  0  0  0  0  0  0  0  0  0
   -5.2550   23.9470  -30.9490 C   0  0  0  0  0  0  0  0  0  0  0  0
   -6.3510   23.1600  -31.5970 C   0  0  0  0  0  0  0  0  0  0  0  0
   -5.7810   22.1190  -32.4650 N   0  0  0  0  0  0  0  0  0  0  0  0
   -6.6080   20.8960  -32.5120 C   0  0  0  0  0  0  0  0  0  0  0  0
   -7.8520   21.1230  -31.6220 C   0  0  0  0  0  0  0  0  0  0  0  0
   -9.1360   20.4120  -32.0990 C   0  0  0  0  0  0  0  0  0  0  0  0
   -9.0360   18.8880  -32.2650 C   0  0  0  0  0  0  0  0  0  0  0  0
   -7.8680   18.2460  -31.4980 C   0  0  0  0  0  0  0  0  0  0  0  0
   -6.5050   18.2730  -32.2160 C   0  0  0  0  0  0  0  0  0  0  0  0
   -5.7650   19.6230  -32.1510 C   0  0  0  0  0  0  0  0  0  0  0  0
   -5.0120   25.2920  -31.1120 C   0  0  0  0  0  0  0  0  0  0  0  0
   -3.9970   25.6010  -30.3460 O   0  0  0  0  0  0  0  0  0  0  0  0
   -2.7380   24.3160  -27.3900 C   0  0  0  0  0  0  0  0  0  0  0  0
   -1.8431   24.1673  -25.4180 H   0  0  0  0  0  0  0  0  0  0  0  0
    0.4927   24.2947  -26.3016 H   0  0  0  0  0  0  0  0  0  0  0  0
   -0.9641   24.6065  -30.2935 H   0  0  0  0  0  0  0  0  0  0  0  0
   -6.9682   22.6871  -30.8189 H   0  0  0  0  0  0  0  0  0  0  0  0
   -6.9690   23.8370  -32.2052 H   0  0  0  0  0  0  0  0  0  0  0  0
   -5.6610   22.5020  -33.4320 H   0  0  0  0  0  0  0  0  0  0  0  0
   -6.9649   20.6968  -33.5332 H   0  0  0  0  0  0  0  0  0  0  0  0
   -7.6178   20.7610  -30.6100 H   0  0  0  0  0  0  0  0  0  0  0  0
   -8.0655   22.2013  -31.6627 H   0  0  0  0  0  0  0  0  0  0  0  0
   -9.9289   20.6200  -31.3655 H   0  0  0  0  0  0  0  0  0  0  0  0
   -9.3402   20.8085  -33.1045 H   0  0  0  0  0  0  0  0  0  0  0  0
   -9.9735   18.4394  -31.9046 H   0  0  0  0  0  0  0  0  0  0  0  0
   -8.8556   18.6974  -33.3332 H   0  0  0  0  0  0  0  0  0  0  0  0
   -7.7575   18.7787  -30.5420 H   0  0  0  0  0  0  0  0  0  0  0  0
   -8.1288   17.1831  -31.3874 H   0  0  0  0  0  0  0  0  0  0  0  0
   -5.8616   17.5080  -31.7569 H   0  0  0  0  0  0  0  0  0  0  0  0
   -6.7126   18.0855  -33.2798 H   0  0  0  0  0  0  0  0  0  0  0  0
   -5.3889   19.7500  -31.1251 H   0  0  0  0  0  0  0  0  0  0  0  0
   -4.9794   19.5641  -32.9187 H   0  0  0  0  0  0  0  0  0  0  0  0
   -5.5683   25.9801  -31.7655 H   0  0  0  0  0  0  0  0  0  0  0  0
   -3.7693   24.2582  -27.0119 H   0  0  0  0  0  0  0  0  0  0  0  0
  1  2  2  0
  2  3  1  0
  3  4  2  0
  4  5  1  0
  5  6  1  0
  6  7  2  0
  7  8  1  0
  8  9  1  0
  9 10  1  0
 10 11  1  0
 11 12  1  0
 12 13  1  0
 13 14  1  0
 14 15  1  0
 15 16  1  0
 16 17  1  0
  8 18  2  0
 18 19  1  0
  5 20  2  0
 20  1  1  0
 19  6  1  0
 17 11  1  0
  1 21  1  0
  2 22  1  0
  4 23  1  0
  9 24  1  0
  9 25  1  0
 10 26  1  0
 11 27  1  0
 12 28  1  0
 12 29  1  0
 13 30  1  0
 13 31  1  0
 14 32  1  0
 14 33  1  0
 15 34  1  0
 15 35  1  0
 16 36  1  0
 16 37  1  0
 17 38  1  0
 17 39  1  0
 18 40  1  0
 20 41  1  0
M  END
>  <UniqueID>  (36) 
33

>  <SMILES>  (36) 
c1cncc(-c2nc(CNC3CCCCCC3)co2)c1

>  <Energy>  (36) 
80.62139925488881

>  <Genealogy>  (36) 
c1cncc(-c2nc(CNC3CCCCCC3)co2)c1 (3D coordinates assigned)
c1cncc(-c2nc(CNC3CCCCCC3)co2)c1 (nonaromatic ring conformer: 80.62139925488881 kcal/mol)

>  <smiles>  (36) 
c1cncc(-c2nc(CNC3CCCCCC3)co2)c1

>  <score_type>  (36) 
oracle

>  <origin>  (36) 
adg

>  <m_score__min__energy>  (36) 
-6.8200000000000003

>  <m_primary>  (36) 
energy

$$$$
36:0
     RDKit          3D

 39 41  0  0  0  0  0  0  0  0999 V2000
   -1.6170   18.9580  -27.3340 C   0  0  0  0  0  0  0  0  0  0  0  0
   -1.8680   20.3930  -27.6530 C   0  0  0  0  0  0  0  0  0  0  0  0
   -3.1320   20.8910  -27.6020 N   0  0  0  0  0  0  0  0  0  0  0  0
   -3.3750   22.2070  -27.8300 C   0  0  0  0  0  0  0  0  0  0  0  0
   -2.3140   23.0820  -28.0960 C   0  0  0  0  0  0  0  0  0  0  0  0
   -2.5480   24.5630  -28.2540 C   0  0  0  0  0  0  0  0  0  0  0  0
   -2.7120   24.9230  -29.6630 N   0  0  0  0  0  0  0  0  0  0  0  0
   -3.8660   24.6280  -30.4620 C   0  0  0  0  0  0  0  0  0  0  0  0
   -4.6070   25.5720  -30.8410 O   0  0  0  0  0  0  0  0  0  0  0  0
   -4.1680   23.2590  -30.9010 C   0  0  0  0  0  0  0  0  0  0  0  0
   -3.2690   22.3380  -31.4250 C   0  0  0  0  0  0  0  0  0  0  0  0
   -3.9350   21.2600  -31.8960 N   0  0  0  0  0  0  0  0  0  0  0  0
   -3.2230   19.9050  -32.7110 S   0  0  0  0  0  0  0  0  0  0  0  0
   -1.6550   19.5180  -31.9670 C   0  0  0  0  0  0  0  0  0  0  0  0
   -4.1430   18.7210  -32.6240 O   0  0  0  0  0  0  0  0  0  0  0  0
   -3.0050   20.2460  -34.1590 O   0  0  0  0  0  0  0  0  0  0  0  0
   -5.2470   21.4950  -31.6900 C   0  0  0  0  0  0  0  0  0  0  0  0
   -6.3370   20.7180  -32.0910 C   0  0  0  0  0  0  0  0  0  0  0  0
   -7.6300   21.2180  -31.8490 C   0  0  0  0  0  0  0  0  0  0  0  0
   -9.0310   20.2900  -32.3480 Cl  0  0  0  0  0  0  0  0  0  0  0  0
   -7.8050   22.4750  -31.2250 C   0  0  0  0  0  0  0  0  0  0  0  0
   -6.6910   23.2380  -30.8380 C   0  0  0  0  0  0  0  0  0  0  0  0
   -5.4230   22.7100  -31.0770 C   0  0  0  0  0  0  0  0  0  0  0  0
   -1.0220   22.5420  -28.1600 C   0  0  0  0  0  0  0  0  0  0  0  0
   -0.8240   21.2200  -27.9250 N   0  0  0  0  0  0  0  0  0  0  0  0
   -1.5935   18.8237  -26.2425 H   0  0  0  0  0  0  0  0  0  0  0  0
   -2.4209   18.3412  -27.7621 H   0  0  0  0  0  0  0  0  0  0  0  0
   -0.6515   18.6507  -27.7621 H   0  0  0  0  0  0  0  0  0  0  0  0
   -4.4070   22.5869  -27.8058 H   0  0  0  0  0  0  0  0  0  0  0  0
   -3.4578   24.8438  -27.7032 H   0  0  0  0  0  0  0  0  0  0  0  0
   -1.6741   25.0993  -27.8558 H   0  0  0  0  0  0  0  0  0  0  0  0
   -2.1769   22.4670  -31.4525 H   0  0  0  0  0  0  0  0  0  0  0  0
   -1.7530   19.5422  -30.8716 H   0  0  0  0  0  0  0  0  0  0  0  0
   -1.3362   18.5142  -32.2846 H   0  0  0  0  0  0  0  0  0  0  0  0
   -0.9058   20.2582  -32.2846 H   0  0  0  0  0  0  0  0  0  0  0  0
   -6.1888   19.7445  -32.5812 H   0  0  0  0  0  0  0  0  0  0  0  0
   -8.8199   22.8576  -31.0416 H   0  0  0  0  0  0  0  0  0  0  0  0
   -6.8152   24.2215  -30.3612 H   0  0  0  0  0  0  0  0  0  0  0  0
   -0.1671   23.1908  -28.4011 H   0  0  0  0  0  0  0  0  0  0  0  0
  1  2  1  0
  2  3  2  0
  3  4  1  0
  4  5  2  0
  5  6  1  0
  6  7  1  0
  7  8  1  0
  8  9  2  0
  8 10  1  0
 10 11  2  0
 11 12  1  0
 12 13  1  0
 13 14  1  0
 13 15  2  0
 13 16  2  0
 12 17  1  0
 17 18  2  0
 18 19  1  0
 19 20  1  0
 19 21  2  0
 21 22  1  0
 22 23  2  0
  5 24  1  0
 24 25  2  0
 25  2  1  0
 23 10  1  0
 23 17  1  0
  1 26  1  0
  1 27  1  0
  1 28  1  0
  4 29  1  0
  6 30  1  0
  6 31  1  0
 11 32  1  0
 14 33  1  0
 14 34  1  0
 14 35  1  0
 18 36  1  0
 21 37  1  0
 22 38  1  0
 24 39  1  0
M  CHG  1   7  -1
M  END
>  <UniqueID>  (37) 
34

>  <SMILES>  (37) 
Cc1ncc(C[N-]C(=O)c2cn(S(C)(=O)=O)c3cc(Cl)ccc23)cn1

>  <Energy>  (37) 
72.32370718632139

>  <Genealogy>  (37) 
Cc1ncc(C[N-]C(=O)c2cn(S(C)(=O)=O)c3cc(Cl)ccc23)cn1 (protonated)
Cc1ncc(C[N-]C(=O)c2cn(S(C)(=O)=O)c3cc(Cl)ccc23)cn1 (3D coordinates assigned)
Cc1ncc(C[N-]C(=O)c2cn(S(C)(=O)=O)c3cc(Cl)ccc23)cn1 (optimized conformer: 72.32370718632139 kcal/mol)

>  <smiles>  (37) 
Cc1ncc(CNC(=O)c2cn(S(C)(=O)=O)c3cc(Cl)ccc23)cn1

>  <score_type>  (37) 
oracle

>  <origin>  (37) 
adg

>  <m_score__min__energy>  (37) 
-10.65

>  <m_primary>  (37) 
energy

$$$$
37:0
     RDKit          3D

 42 44  0  0  0  0  0  0  0  0999 V2000
   -6.0650   17.3910  -34.4970 C   0  0  0  0  0  0  0  0  0  0  0  0
   -5.7240   18.8870  -34.5940 C   0  0  0  0  0  0  0  0  0  0  0  0
   -5.0090   19.4270  -33.4130 N   0  0  0  0  0  0  0  0  0  0  0  0
   -3.5520   19.1530  -33.4420 C   0  0  0  0  0  0  0  0  0  0  0  0
   -2.7650   20.4460  -33.2160 C   0  0  0  0  0  0  0  0  0  0  0  0
   -3.5510   21.3920  -32.4280 N   0  0  0  0  0  0  0  0  0  0  0  0
   -3.4800   21.5550  -31.0810 C   0  0  0  0  0  0  0  0  0  0  0  0
   -4.3140   22.6030  -30.7540 C   0  0  0  0  0  0  0  0  0  0  0  0
   -4.6120   23.2390  -29.5560 C   0  0  0  0  0  0  0  0  0  0  0  0
   -5.4970   24.3320  -29.6160 C   0  0  0  0  0  0  0  0  0  0  0  0
   -6.0340   24.7390  -30.8610 C   0  0  0  0  0  0  0  0  0  0  0  0
   -5.6980   24.0800  -32.0130 N   0  0  0  0  0  0  0  0  0  0  0  0
   -4.8510   23.0260  -31.9350 C   0  0  0  0  0  0  0  0  0  0  0  0
   -4.3800   22.2900  -32.9510 N   0  0  0  0  0  0  0  0  0  0  0  0
   -5.6440   19.0570  -32.1320 C   0  0  0  0  0  0  0  0  0  0  0  0
   -7.0160   19.6510  -32.0470 C   0  0  0  0  0  0  0  0  0  0  0  0
   -8.2190   18.9710  -32.0540 C   0  0  0  0  0  0  0  0  0  0  0  0
   -9.2300   19.8600  -31.9970 N   0  0  0  0  0  0  0  0  0  0  0  0
   -8.6940   21.0710  -31.9720 N   0  0  0  0  0  0  0  0  0  0  0  0
   -9.4670   22.3020  -31.8790 C   0  0  0  0  0  0  0  0  0  0  0  0
   -7.3520   20.9870  -31.9960 C   0  0  0  0  0  0  0  0  0  0  0  0
   -6.1318   17.0980  -33.4388 H   0  0  0  0  0  0  0  0  0  0  0  0
   -7.0293   17.2019  -34.9914 H   0  0  0  0  0  0  0  0  0  0  0  0
   -5.2779   16.8027  -34.9914 H   0  0  0  0  0  0  0  0  0  0  0  0
   -5.0900   19.0392  -35.4800 H   0  0  0  0  0  0  0  0  0  0  0  0
   -6.6813   19.4252  -34.6562 H   0  0  0  0  0  0  0  0  0  0  0  0
   -3.3022   18.4326  -32.6492 H   0  0  0  0  0  0  0  0  0  0  0  0
   -3.2849   18.7381  -34.4251 H   0  0  0  0  0  0  0  0  0  0  0  0
   -1.8335   20.2137  -32.6790 H   0  0  0  0  0  0  0  0  0  0  0  0
   -2.5370   20.8990  -34.1921 H   0  0  0  0  0  0  0  0  0  0  0  0
   -2.8713   20.9621  -30.3825 H   0  0  0  0  0  0  0  0  0  0  0  0
   -4.1762   22.9038  -28.6033 H   0  0  0  0  0  0  0  0  0  0  0  0
   -5.7711   24.8694  -28.6962 H   0  0  0  0  0  0  0  0  0  0  0  0
   -6.7272   25.5921  -30.9032 H   0  0  0  0  0  0  0  0  0  0  0  0
   -4.5890   22.4080  -33.9670 H   0  0  0  0  0  0  0  0  0  0  0  0
   -5.7171   17.9615  -32.0653 H   0  0  0  0  0  0  0  0  0  0  0  0
   -5.0328   19.4426  -31.3027 H   0  0  0  0  0  0  0  0  0  0  0  0
   -8.3331   17.8779  -32.0990 H   0  0  0  0  0  0  0  0  0  0  0  0
   -9.6264   22.5558  -30.8206 H   0  0  0  0  0  0  0  0  0  0  0  0
   -8.9186   23.1176  -32.3731 H   0  0  0  0  0  0  0  0  0  0  0  0
  -10.4398   22.1623  -32.3731 H   0  0  0  0  0  0  0  0  0  0  0  0
   -6.6487   21.8326  -31.9781 H   0  0  0  0  0  0  0  0  0  0  0  0
  1  2  1  0
  2  3  1  0
  3  4  1  0
  4  5  1  0
  5  6  1  0
  6  7  1  0
  7  8  2  0
  8  9  1  0
  9 10  2  0
 10 11  1  0
 11 12  2  0
 12 13  1  0
 13 14  2  0
  3 15  1  0
 15 16  1  0
 16 17  1  0
 17 18  2  0
 18 19  1  0
 19 20  1  0
 19 21  1  0
 14  6  1  0
 21 16  2  0
 13  8  1  0
  1 22  1  0
  1 23  1  0
  1 24  1  0
  2 25  1  0
  2 26  1  0
  4 27  1  0
  4 28  1  0
  5 29  1  0
  5 30  1  0
  7 31  1  0
  9 32  1  0
 10 33  1  0
 11 34  1  0
 14 35  1  0
 15 36  1  0
 15 37  1  0
 17 38  1  0
 20 39  1  0
 20 40  1  0
 20 41  1  0
 21 42  1  0
M  CHG  1  14   1
M  END
>  <UniqueID>  (38) 
35

>  <SMILES>  (38) 
CCN(CCn1cc2cccnc2[nH+]1)Cc1cnn(C)c1

>  <Energy>  (38) 
108.68006006621513

>  <Genealogy>  (38) 
CCN(CCn1cc2cccnc2[nH+]1)Cc1cnn(C)c1 (protonated)
CCN(CCn1cc2cccnc2[nH+]1)Cc1cnn(C)c1 (3D coordinates assigned)
CCN(CCn1cc2cccnc2[nH+]1)Cc1cnn(C)c1 (optimized conformer: 108.68006006621513 kcal/mol)

>  <smiles>  (38) 
CCN(CCn1cc2cccnc2n1)Cc1cnn(C)c1

>  <score_type>  (38) 
oracle

>  <origin>  (38) 
adg

>  <m_score__min__energy>  (38) 
-7.54

>  <m_primary>  (38) 
energy

$$$$
38:0
     RDKit          3D

 36 39  0  0  0  0  0  0  0  0999 V2000
   -7.0010   15.5090  -34.5850 F   0  0  0  0  0  0  0  0  0  0  0  0
   -6.7500   16.7300  -34.0510 C   0  0  0  0  0  0  0  0  0  0  0  0
   -6.0030   17.6660  -34.7710 C   0  0  0  0  0  0  0  0  0  0  0  0
   -5.7410   18.9250  -34.2220 C   0  0  0  0  0  0  0  0  0  0  0  0
   -6.2360   19.2620  -32.9490 C   0  0  0  0  0  0  0  0  0  0  0  0
   -5.9620   20.5890  -32.3530 C   0  0  0  0  0  0  0  0  0  0  0  0
   -6.9380   21.3910  -31.8640 N   0  0  0  0  0  0  0  0  0  0  0  0
   -6.3180   22.4750  -31.3710 C   0  0  0  0  0  0  0  0  0  0  0  0
   -6.9150   23.5870  -30.7760 C   0  0  0  0  0  0  0  0  0  0  0  0
   -6.0820   24.6380  -30.3570 C   0  0  0  0  0  0  0  0  0  0  0  0
   -6.6250   25.7360  -29.7760 F   0  0  0  0  0  0  0  0  0  0  0  0
   -4.6840   24.5600  -30.5470 C   0  0  0  0  0  0  0  0  0  0  0  0
   -3.8890   25.5850  -30.1510 F   0  0  0  0  0  0  0  0  0  0  0  0
   -4.1090   23.4270  -31.1520 C   0  0  0  0  0  0  0  0  0  0  0  0
   -4.9600   22.3900  -31.5400 C   0  0  0  0  0  0  0  0  0  0  0  0
   -4.7050   21.1830  -32.1710 C   0  0  0  0  0  0  0  0  0  0  0  0
   -3.3910   20.6930  -32.6400 C   0  0  0  0  0  0  0  0  0  0  0  0
   -2.9800   19.3820  -32.3570 C   0  0  0  0  0  0  0  0  0  0  0  0
   -1.7320   18.9410  -32.8030 C   0  0  0  0  0  0  0  0  0  0  0  0
   -0.9220   19.7760  -33.5090 N   0  0  0  0  0  0  0  0  0  0  0  0
   -1.2990   21.0510  -33.7980 C   0  0  0  0  0  0  0  0  0  0  0  0
   -2.5390   21.5320  -33.3700 C   0  0  0  0  0  0  0  0  0  0  0  0
   -6.9740   18.3080  -32.2280 C   0  0  0  0  0  0  0  0  0  0  0  0
   -7.2330   17.0500  -32.7800 C   0  0  0  0  0  0  0  0  0  0  0  0
   -5.6207   17.4121  -35.7707 H   0  0  0  0  0  0  0  0  0  0  0  0
   -5.1448   19.6556  -34.7883 H   0  0  0  0  0  0  0  0  0  0  0  0
   -7.9650   21.2000  -31.8520 H   0  0  0  0  0  0  0  0  0  0  0  0
   -8.0052   23.6392  -30.6391 H   0  0  0  0  0  0  0  0  0  0  0  0
   -3.0231   23.3603  -31.3142 H   0  0  0  0  0  0  0  0  0  0  0  0
   -3.6356   18.7063  -31.7881 H   0  0  0  0  0  0  0  0  0  0  0  0
   -1.4027   17.9148  -32.5827 H   0  0  0  0  0  0  0  0  0  0  0  0
    0.0080   19.4310  -33.8360 H   0  0  0  0  0  0  0  0  0  0  0  0
   -0.6252   21.7054  -34.3706 H   0  0  0  0  0  0  0  0  0  0  0  0
   -2.8442   22.5624  -33.6046 H   0  0  0  0  0  0  0  0  0  0  0  0
   -7.3500   18.5524  -31.2236 H   0  0  0  0  0  0  0  0  0  0  0  0
   -7.8180   16.3111  -32.2126 H   0  0  0  0  0  0  0  0  0  0  0  0
  1  2  1  0
  2  3  2  0
  3  4  1  0
  4  5  2  0
  5  6  1  0
  6  7  1  0
  7  8  1  0
  8  9  2  0
  9 10  1  0
 10 11  1  0
 10 12  2  0
 12 13  1  0
 12 14  1  0
 14 15  2  0
 15 16  1  0
 16 17  1  0
 17 18  2  0
 18 19  1  0
 19 20  2  0
 20 21  1  0
 21 22  2  0
  5 23  1  0
 23 24  2  0
 24  2  1  0
 16  6  2  0
 22 17  1  0
 15  8  1  0
  3 25  1  0
  4 26  1  0
  7 27  1  0
  9 28  1  0
 14 29  1  0
 18 30  1  0
 19 31  1  0
 20 32  1  0
 21 33  1  0
 22 34  1  0
 23 35  1  0
 24 36  1  0
M  CHG  1  20   1
M  END
>  <UniqueID>  (39) 
36

>  <SMILES>  (39) 
Fc1ccc(-c2[nH]c3cc(F)c(F)cc3c2-c2cc[nH+]cc2)cc1

>  <Energy>  (39) 
82.89131200169336

>  <Genealogy>  (39) 
Fc1ccc(-c2[nH]c3cc(F)c(F)cc3c2-c2cc[nH+]cc2)cc1 (protonated)
Fc1ccc(-c2[nH]c3cc(F)c(F)cc3c2-c2cc[nH+]cc2)cc1 (3D coordinates assigned)
Fc1ccc(-c2[nH]c3cc(F)c(F)cc3c2-c2cc[nH+]cc2)cc1 (optimized conformer: 82.89131200169336 kcal/mol)

>  <smiles>  (39) 
Fc1ccc(-c2[nH]c3cc(F)c(F)cc3c2-c2ccncc2)cc1

>  <score_type>  (39) 
oracle

>  <origin>  (39) 
adg

>  <m_score__min__energy>  (39) 
-6.9699999999999998

>  <m_primary>  (39) 
energy

$$$$
39:0
     RDKit          3D

 43 46  0  0  0  0  0  0  0  0999 V2000
   -6.4630   17.5960  -31.2210 C   0  0  0  0  0  0  0  0  0  0  0  0
   -6.8440   18.3670  -32.4000 N   0  0  0  0  0  0  0  0  0  0  0  0
   -7.5440   19.6110  -32.2480 C   0  0  0  0  0  0  0  0  0  0  0  0
   -8.9490   19.6080  -32.2340 C   0  0  0  0  0  0  0  0  0  0  0  0
   -9.6570   20.7850  -31.9970 C   0  0  0  0  0  0  0  0  0  0  0  0
   -8.9740   21.9780  -31.7620 C   0  0  0  0  0  0  0  0  0  0  0  0
   -7.5770   21.9980  -31.7780 C   0  0  0  0  0  0  0  0  0  0  0  0
   -6.8470   20.8260  -32.0380 C   0  0  0  0  0  0  0  0  0  0  0  0
   -5.3710   20.9090  -32.0790 C   0  0  0  0  0  0  0  0  0  0  0  0
   -4.6360   21.0680  -33.2120 N   0  0  0  0  0  0  0  0  0  0  0  0
   -3.3740   21.0960  -32.7630 C   0  0  0  0  0  0  0  0  0  0  0  0
   -2.1950   21.2430  -33.4910 C   0  0  0  0  0  0  0  0  0  0  0  0
   -0.9850   21.2460  -32.7710 C   0  0  0  0  0  0  0  0  0  0  0  0
   -0.9870   21.1060  -31.3640 C   0  0  0  0  0  0  0  0  0  0  0  0
   -2.2010   20.9640  -30.6620 C   0  0  0  0  0  0  0  0  0  0  0  0
   -3.3760   20.9650  -31.4060 C   0  0  0  0  0  0  0  0  0  0  0  0
   -4.6140   20.8540  -30.9910 O   0  0  0  0  0  0  0  0  0  0  0  0
   -6.0470   18.0220  -33.9040 S   0  0  0  0  0  0  0  0  0  0  0  0
   -6.8610   17.0270  -34.6830 O   0  0  0  0  0  0  0  0  0  0  0  0
   -5.9120   19.2750  -34.7250 O   0  0  0  0  0  0  0  0  0  0  0  0
   -4.4410   17.3850  -33.5690 C   0  0  0  0  0  0  0  0  0  0  0  0
   -3.2960   18.1520  -33.8290 C   0  0  0  0  0  0  0  0  0  0  0  0
   -2.0260   17.6240  -33.5770 C   0  0  0  0  0  0  0  0  0  0  0  0
   -1.8950   16.3290  -33.0680 C   0  0  0  0  0  0  0  0  0  0  0  0
   -3.0330   15.5590  -32.8130 C   0  0  0  0  0  0  0  0  0  0  0  0
   -4.3040   16.0850  -33.0640 C   0  0  0  0  0  0  0  0  0  0  0  0
   -6.7385   18.1534  -30.3136 H   0  0  0  0  0  0  0  0  0  0  0  0
   -6.9869   16.6288  -31.2304 H   0  0  0  0  0  0  0  0  0  0  0  0
   -5.3765   17.4246  -31.2304 H   0  0  0  0  0  0  0  0  0  0  0  0
   -9.4945   18.6694  -32.4115 H   0  0  0  0  0  0  0  0  0  0  0  0
  -10.7569   20.7729  -31.9953 H   0  0  0  0  0  0  0  0  0  0  0  0
   -9.5351   22.9032  -31.5641 H   0  0  0  0  0  0  0  0  0  0  0  0
   -7.0435   22.9405  -31.5852 H   0  0  0  0  0  0  0  0  0  0  0  0
   -4.9630   21.1840  -34.1960 H   0  0  0  0  0  0  0  0  0  0  0  0
   -2.2090   21.3524  -34.5855 H   0  0  0  0  0  0  0  0  0  0  0  0
   -0.0310   21.3581  -33.3071 H   0  0  0  0  0  0  0  0  0  0  0  0
   -0.0347   21.1079  -30.8135 H   0  0  0  0  0  0  0  0  0  0  0  0
   -2.2184   20.8565  -29.5674 H   0  0  0  0  0  0  0  0  0  0  0  0
   -3.3972   19.1706  -34.2318 H   0  0  0  0  0  0  0  0  0  0  0  0
   -1.1294   18.2283  -33.7795 H   0  0  0  0  0  0  0  0  0  0  0  0
   -0.8955   15.9156  -32.8680 H   0  0  0  0  0  0  0  0  0  0  0  0
   -2.9288   14.5389  -32.4147 H   0  0  0  0  0  0  0  0  0  0  0  0
   -5.1986   15.4768  -32.8646 H   0  0  0  0  0  0  0  0  0  0  0  0
  1  2  1  0
  2  3  1  0
  3  4  2  0
  4  5  1  0
  5  6  2  0
  6  7  1  0
  7  8  2  0
  8  9  1  0
  9 10  2  0
 10 11  1  0
 11 12  2  0
 12 13  1  0
 13 14  2  0
 14 15  1  0
 15 16  2  0
 16 17  1  0
  2 18  1  0
 18 19  2  0
 18 20  2  0
 18 21  1  0
 21 22  2  0
 22 23  1  0
 23 24  2  0
 24 25  1  0
 25 26  2  0
  8  3  1  0
 17  9  1  0
 26 21  1  0
 16 11  1  0
  1 27  1  0
  1 28  1  0
  1 29  1  0
  4 30  1  0
  5 31  1  0
  6 32  1  0
  7 33  1  0
 10 34  1  0
 12 35  1  0
 13 36  1  0
 14 37  1  0
 15 38  1  0
 22 39  1  0
 23 40  1  0
 24 41  1  0
 25 42  1  0
 26 43  1  0
M  CHG  1  10   1
M  END
>  <UniqueID>  (40) 
37

>  <SMILES>  (40) 
CN(c1ccccc1-c1[nH+]c2ccccc2o1)S(=O)(=O)c1ccccc1

>  <Energy>  (40) 
95.04219519923377

>  <Genealogy>  (40) 
CN(c1ccccc1-c1[nH+]c2ccccc2o1)S(=O)(=O)c1ccccc1 (protonated)
CN(c1ccccc1-c1[nH+]c2ccccc2o1)S(=O)(=O)c1ccccc1 (3D coordinates assigned)
CN(c1ccccc1-c1[nH+]c2ccccc2o1)S(=O)(=O)c1ccccc1 (optimized conformer: 95.04219519923377 kcal/mol)

>  <smiles>  (40) 
CN(c1ccccc1-c1nc2ccccc2o1)S(=O)(=O)c1ccccc1

>  <score_type>  (40) 
oracle

>  <origin>  (40) 
adg

>  <m_score__min__energy>  (40) 
-7.7800000000000002

>  <m_primary>  (40) 
energy

$$$$
40:0
     RDKit          3D

 39 41  0  0  0  0  0  0  0  0999 V2000
   -0.8127   22.6389  -27.6087 H   0  0  0  0  0  0  0  0  0  0  0  0
   -1.4690   23.1750  -28.3100 C   0  0  0  0  0  0  0  0  0  0  0  0
   -1.7520   24.5350  -28.1150 C   0  0  0  0  0  0  0  0  0  0  0  0
   -1.1990   25.2800  -26.9610 C   0  0  0  0  0  0  0  0  0  0  0  0
   -2.0840   25.7830  -25.9920 C   0  0  0  0  0  0  0  0  0  0  0  0
   -3.1663   25.6238  -26.1074 H   0  0  0  0  0  0  0  0  0  0  0  0
   -1.6020   26.4830  -24.8840 C   0  0  0  0  0  0  0  0  0  0  0  0
   -2.3035   26.8658  -24.1281 H   0  0  0  0  0  0  0  0  0  0  0  0
   -0.2330   26.6970  -24.7350 C   0  0  0  0  0  0  0  0  0  0  0  0
    0.1449   27.2422  -23.8575 H   0  0  0  0  0  0  0  0  0  0  0  0
    0.6600   26.2210  -25.6970 C   0  0  0  0  0  0  0  0  0  0  0  0
    1.7391   26.3948  -25.5734 H   0  0  0  0  0  0  0  0  0  0  0  0
    0.1890   25.5190  -26.8260 C   0  0  0  0  0  0  0  0  0  0  0  0
    1.0640   25.0740  -27.8300 O   0  0  0  0  0  0  0  0  0  0  0  0
    2.3930   24.6130  -27.6040 C   0  0  0  0  0  0  0  0  0  0  0  0
    2.5796   24.5483  -26.5219 H   0  0  0  0  0  0  0  0  0  0  0  0
    2.5184   23.6189  -28.0578 H   0  0  0  0  0  0  0  0  0  0  0  0
    3.1071   25.3159  -28.0578 H   0  0  0  0  0  0  0  0  0  0  0  0
   -2.5860   25.1720  -28.9830 N   0  0  0  0  0  0  0  0  0  0  0  0
   -3.1460   24.5520  -30.0570 C   0  0  0  0  0  0  0  0  0  0  0  0
   -3.9240   25.2470  -30.8380 N   0  0  0  0  0  0  0  0  0  0  0  0
   -5.3820   25.3620  -30.7620 C   0  0  0  0  0  0  0  0  0  0  0  0
   -5.6659   25.6793  -29.7477 H   0  0  0  0  0  0  0  0  0  0  0  0
   -5.7153   26.1028  -31.5037 H   0  0  0  0  0  0  0  0  0  0  0  0
   -6.0420   24.0430  -31.0690 C   0  0  0  0  0  0  0  0  0  0  0  0
   -7.1780   23.6380  -30.3490 C   0  0  0  0  0  0  0  0  0  0  0  0
   -7.5907   24.2903  -29.5653 H   0  0  0  0  0  0  0  0  0  0  0  0
   -7.7870   22.4090  -30.6240 C   0  0  0  0  0  0  0  0  0  0  0  0
   -8.6807   22.1007  -30.0616 H   0  0  0  0  0  0  0  0  0  0  0  0
   -7.2610   21.5720  -31.6130 C   0  0  0  0  0  0  0  0  0  0  0  0
   -7.7418   20.6066  -31.8294 H   0  0  0  0  0  0  0  0  0  0  0  0
   -6.1250   21.9620  -32.3260 C   0  0  0  0  0  0  0  0  0  0  0  0
   -5.6120   21.1470  -33.2810 F   0  0  0  0  0  0  0  0  0  0  0  0
   -5.5120   23.1900  -32.0530 C   0  0  0  0  0  0  0  0  0  0  0  0
   -4.6121   23.4891  -32.6104 H   0  0  0  0  0  0  0  0  0  0  0  0
   -2.8650   23.1900  -30.2820 C   0  0  0  0  0  0  0  0  0  0  0  0
   -3.3033   22.6688  -31.1459 H   0  0  0  0  0  0  0  0  0  0  0  0
   -2.0270   22.5080  -29.4010 C   0  0  0  0  0  0  0  0  0  0  0  0
   -1.8056   21.4432  -29.5661 H   0  0  0  0  0  0  0  0  0  0  0  0
  1  2  1  0
  2  3  2  0
  3  4  1  0
  4  5  2  0
  5  6  1  0
  5  7  1  0
  7  8  1  0
  7  9  2  0
  9 10  1  0
  9 11  1  0
 11 12  1  0
 11 13  2  0
 13 14  1  0
 14 15  1  0
 15 16  1  0
 15 17  1  0
 15 18  1  0
  3 19  1  0
 19 20  1  0
 20 21  2  0
 21 22  1  0
 22 23  1  0
 22 24  1  0
 22 25  1  0
 25 26  2  0
 26 27  1  0
 26 28  1  0
 28 29  1  0
 28 30  2  0
 30 31  1  0
 30 32  1  0
 32 33  1  0
 32 34  2  0
 34 35  1  0
 20 36  1  0
 36 37  1  0
 36 38  2  0
 38 39  1  0
 38  2  1  0
 13  4  1  0
 34 25  1  0
M  CHG  1  19  -1
M  END
>  <UniqueID>  (41) 
38

>  <SMILES>  (41) 
COc1ccccc1-c1ccc/c(=N\Cc2cccc(F)c2)[n-]1

>  <Energy>  (41) 
49.09265479685768

>  <Genealogy>  (41) 
COc1ccccc1-c1cccc(=NCc2cccc(F)c2)[n-]1 (protonated)
COc1ccccc1-c1ccc/c(=N\Cc2cccc(F)c2)[n-]1 (cis-trans isomerization)
COc1ccccc1-c1ccc/c(=N\Cc2cccc(F)c2)[n-]1 (3D coordinates assigned)
COc1ccccc1-c1ccc/c(=N\Cc2cccc(F)c2)[n-]1 (optimized conformer: 49.09265479685768 kcal/mol)

>  <smiles>  (41) 
COc1ccccc1-c1cccc(=NCc2cccc(F)c2)[nH]1

>  <score_type>  (41) 
oracle

>  <origin>  (41) 
adg

>  <m_score__min__energy>  (41) 
-9.4299999999999997

>  <m_primary>  (41) 
energy

$$$$
41:0
     RDKit          3D

 38 39  0  0  0  0  0  0  0  0999 V2000
   -3.8000   19.3510  -33.8430 C   0  0  0  0  0  0  0  0  0  0  0  0
   -2.9810   20.5610  -33.6470 N   0  0  0  0  0  0  0  0  0  0  0  0
   -3.8040   21.6140  -33.0190 C   0  0  0  0  0  0  0  0  0  0  0  0
   -1.7940   20.2330  -32.8200 C   0  0  0  0  0  0  0  0  0  0  0  0
   -0.5680   21.0890  -33.1820 C   0  0  0  0  0  0  0  0  0  0  0  0
   -0.5780   21.3840  -34.6290 N   0  0  0  0  0  0  0  0  0  0  0  0
    0.7760   21.5060  -35.1910 C   0  0  0  0  0  0  0  0  0  0  0  0
    0.9640   22.8350  -35.8560 C   0  0  0  0  0  0  0  0  0  0  0  0
    2.1140   23.2810  -36.4680 C   0  0  0  0  0  0  0  0  0  0  0  0
    1.9010   24.5160  -36.8440 O   0  0  0  0  0  0  0  0  0  0  0  0
    0.6750   24.8330  -36.4750 C   0  0  0  0  0  0  0  0  0  0  0  0
    0.0590   26.1550  -36.7180 C   0  0  0  0  0  0  0  0  0  0  0  0
   -0.3820   26.4990  -38.0080 C   0  0  0  0  0  0  0  0  0  0  0  0
   -0.9880   27.7390  -38.2370 C   0  0  0  0  0  0  0  0  0  0  0  0
   -1.1620   28.6430  -37.1830 C   0  0  0  0  0  0  0  0  0  0  0  0
   -0.7190   28.3110  -35.8990 C   0  0  0  0  0  0  0  0  0  0  0  0
   -0.1090   27.0740  -35.6650 C   0  0  0  0  0  0  0  0  0  0  0  0
    0.0430   23.8180  -35.8450 N   0  0  0  0  0  0  0  0  0  0  0  0
   -4.0810   18.9359  -32.8639 H   0  0  0  0  0  0  0  0  0  0  0  0
   -4.7088   19.6106  -34.4057 H   0  0  0  0  0  0  0  0  0  0  0  0
   -3.2213   18.6037  -34.4057 H   0  0  0  0  0  0  0  0  0  0  0  0
   -2.6730   20.8940  -34.5910 H   0  0  0  0  0  0  0  0  0  0  0  0
   -3.7368   21.5280  -31.9244 H   0  0  0  0  0  0  0  0  0  0  0  0
   -3.4365   22.6023  -33.3324 H   0  0  0  0  0  0  0  0  0  0  0  0
   -4.8518   21.4961  -33.3324 H   0  0  0  0  0  0  0  0  0  0  0  0
   -2.0432   20.4035  -31.7622 H   0  0  0  0  0  0  0  0  0  0  0  0
   -1.5347   19.1811  -33.0104 H   0  0  0  0  0  0  0  0  0  0  0  0
   -0.6001   22.0318  -32.6162 H   0  0  0  0  0  0  0  0  0  0  0  0
    0.3495   20.5377  -32.9285 H   0  0  0  0  0  0  0  0  0  0  0  0
   -1.0530   22.3060  -34.7720 H   0  0  0  0  0  0  0  0  0  0  0  0
    1.5125   21.4020  -34.3806 H   0  0  0  0  0  0  0  0  0  0  0  0
    0.9157   20.7153  -35.9428 H   0  0  0  0  0  0  0  0  0  0  0  0
    3.0401   22.7057  -36.6138 H   0  0  0  0  0  0  0  0  0  0  0  0
   -0.2502   25.7911  -38.8396 H   0  0  0  0  0  0  0  0  0  0  0  0
   -1.3288   28.0042  -39.2487 H   0  0  0  0  0  0  0  0  0  0  0  0
   -1.6467   29.6136  -37.3644 H   0  0  0  0  0  0  0  0  0  0  0  0
   -0.8504   29.0237  -35.0715 H   0  0  0  0  0  0  0  0  0  0  0  0
    0.2408   26.8184  -34.6539 H   0  0  0  0  0  0  0  0  0  0  0  0
  1  2  1  0
  2  3  1  0
  2  4  1  0
  4  5  1  0
  5  6  1  0
  6  7  1  0
  7  8  1  0
  8  9  2  0
  9 10  1  0
 10 11  1  0
 11 12  1  0
 12 13  2  0
 13 14  1  0
 14 15  2  0
 15 16  1  0
 16 17  2  0
 11 18  2  0
 18  8  1  0
 17 12  1  0
  1 19  1  0
  1 20  1  0
  1 21  1  0
  2 22  1  0
  3 23  1  0
  3 24  1  0
  3 25  1  0
  4 26  1  0
  4 27  1  0
  5 28  1  0
  5 29  1  0
  6 30  1  0
  7 31  1  0
  7 32  1  0
  9 33  1  0
 13 34  1  0
 14 35  1  0
 15 36  1  0
 16 37  1  0
 17 38  1  0
M  CHG  1   2   1
M  END
>  <UniqueID>  (42) 
39

>  <SMILES>  (42) 
C[NH+](C)CCNCc1coc(-c2ccccc2)n1

>  <Energy>  (42) 
65.54533711720586

>  <Genealogy>  (42) 
C[NH+](C)CCNCc1coc(-c2ccccc2)n1 (protonated)
C[NH+](C)CCNCc1coc(-c2ccccc2)n1 (3D coordinates assigned)
C[NH+](C)CCNCc1coc(-c2ccccc2)n1 (optimized conformer: 65.54533711720586 kcal/mol)

>  <smiles>  (42) 
CN(C)CCNCc1coc(-c2ccccc2)n1

>  <score_type>  (42) 
oracle

>  <origin>  (42) 
adg

>  <m_score__min__energy>  (42) 
-5.4699999999999998

>  <m_primary>  (42) 
energy

$$$$
42:0
     RDKit          3D

 50 52  0  0  0  0  0  0  0  0999 V2000
   -2.9100   24.9250  -26.7410 C   0  0  0  0  0  0  0  0  0  0  0  0
   -4.2460   24.4820  -27.3280 C   0  0  0  0  0  0  0  0  0  0  0  0
   -4.0770   24.0160  -28.7100 N   0  0  0  0  0  0  0  0  0  0  0  0
   -3.1350   22.9720  -29.0300 C   0  0  0  0  0  0  0  0  0  0  0  0
   -2.0930   23.2140  -29.9430 C   0  0  0  0  0  0  0  0  0  0  0  0
   -1.1860   22.1990  -30.2670 C   0  0  0  0  0  0  0  0  0  0  0  0
   -1.3120   20.9340  -29.6850 C   0  0  0  0  0  0  0  0  0  0  0  0
   -2.3460   20.6830  -28.7770 C   0  0  0  0  0  0  0  0  0  0  0  0
   -3.2540   21.6960  -28.4500 C   0  0  0  0  0  0  0  0  0  0  0  0
   -5.0670   24.7000  -29.9680 S   0  0  0  0  0  0  0  0  0  0  0  0
   -6.2420   25.4200  -29.3690 O   0  0  0  0  0  0  0  0  0  0  0  0
   -4.2480   25.6810  -30.7610 O   0  0  0  0  0  0  0  0  0  0  0  0
   -5.6810   23.4180  -31.0100 C   0  0  0  0  0  0  0  0  0  0  0  0
   -7.0620   23.2240  -31.1240 C   0  0  0  0  0  0  0  0  0  0  0  0
   -7.5610   22.2030  -31.9370 C   0  0  0  0  0  0  0  0  0  0  0  0
   -6.6850   21.3670  -32.6380 C   0  0  0  0  0  0  0  0  0  0  0  0
   -5.2930   21.5450  -32.5270 C   0  0  0  0  0  0  0  0  0  0  0  0
   -4.3580   20.6650  -33.2640 C   0  0  0  0  0  0  0  0  0  0  0  0
   -3.1330   20.9630  -33.3440 O   0  0  0  0  0  0  0  0  0  0  0  0
   -4.8350   19.4980  -33.8700 O   0  0  0  0  0  0  0  0  0  0  0  0
   -4.7300   18.2150  -33.2650 C   0  0  0  0  0  0  0  0  0  0  0  0
   -6.0200   17.8870  -32.5860 C   0  0  0  0  0  0  0  0  0  0  0  0
   -6.0110   17.1160  -31.5860 O   0  0  0  0  0  0  0  0  0  0  0  0
   -7.2490   18.4690  -33.0410 N   0  0  0  0  0  0  0  0  0  0  0  0
   -8.5060   18.2520  -32.3300 C   0  0  0  0  0  0  0  0  0  0  0  0
   -9.4830   19.4090  -32.4710 C   0  0  0  0  0  0  0  0  0  0  0  0
   -8.7260   19.2040  -31.1670 C   0  0  0  0  0  0  0  0  0  0  0  0
   -4.8000   22.5760  -31.7050 C   0  0  0  0  0  0  0  0  0  0  0  0
   -2.9677   24.9059  -25.6427 H   0  0  0  0  0  0  0  0  0  0  0  0
   -2.1167   24.2418  -27.0785 H   0  0  0  0  0  0  0  0  0  0  0  0
   -2.6820   25.9468  -27.0785 H   0  0  0  0  0  0  0  0  0  0  0  0
   -4.6544   23.6627  -26.7181 H   0  0  0  0  0  0  0  0  0  0  0  0
   -4.9349   25.3396  -27.3258 H   0  0  0  0  0  0  0  0  0  0  0  0
   -1.9904   24.2070  -30.4051 H   0  0  0  0  0  0  0  0  0  0  0  0
   -0.3726   22.3966  -30.9807 H   0  0  0  0  0  0  0  0  0  0  0  0
   -0.5986   20.1368  -29.9409 H   0  0  0  0  0  0  0  0  0  0  0  0
   -2.4454   19.6877  -28.3193 H   0  0  0  0  0  0  0  0  0  0  0  0
   -4.0654   21.4935  -27.7354 H   0  0  0  0  0  0  0  0  0  0  0  0
   -7.7557   23.8760  -30.5729 H   0  0  0  0  0  0  0  0  0  0  0  0
   -8.6474   22.0558  -32.0263 H   0  0  0  0  0  0  0  0  0  0  0  0
   -7.0856   20.5674  -33.2784 H   0  0  0  0  0  0  0  0  0  0  0  0
   -4.5177   17.4603  -34.0366 H   0  0  0  0  0  0  0  0  0  0  0  0
   -3.9138   18.2189  -32.5275 H   0  0  0  0  0  0  0  0  0  0  0  0
   -7.2330   19.1560  -33.8300 H   0  0  0  0  0  0  0  0  0  0  0  0
   -8.5582   17.1612  -32.4621 H   0  0  0  0  0  0  0  0  0  0  0  0
   -9.2369   20.2608  -33.1221 H   0  0  0  0  0  0  0  0  0  0  0  0
  -10.5431   19.5032  -32.7491 H   0  0  0  0  0  0  0  0  0  0  0  0
   -7.9329   19.9080  -30.8750 H   0  0  0  0  0  0  0  0  0  0  0  0
   -9.0126   19.0889  -30.1112 H   0  0  0  0  0  0  0  0  0  0  0  0
   -3.7143   22.7227  -31.6067 H   0  0  0  0  0  0  0  0  0  0  0  0
  1  2  1  0
  2  3  1  0
  3  4  1  0
  4  5  2  0
  5  6  1  0
  6  7  2  0
  7  8  1  0
  8  9  2  0
  3 10  1  0
 10 11  2  0
 10 12  2  0
 10 13  1  0
 13 14  2  0
 14 15  1  0
 15 16  2  0
 16 17  1  0
 17 18  1  0
 18 19  2  0
 18 20  1  0
 20 21  1  0
 21 22  1  0
 22 23  2  0
 22 24  1  0
 24 25  1  0
 25 26  1  0
 26 27  1  0
 17 28  2  0
  9  4  1  0
 28 13  1  0
 27 25  1  0
  1 29  1  0
  1 30  1  0
  1 31  1  0
  2 32  1  0
  2 33  1  0
  5 34  1  0
  6 35  1  0
  7 36  1  0
  8 37  1  0
  9 38  1  0
 14 39  1  0
 15 40  1  0
 16 41  1  0
 21 42  1  0
 21 43  1  0
 24 44  1  0
 25 45  1  0
 26 46  1  0
 26 47  1  0
 27 48  1  0
 27 49  1  0
 28 50  1  0
M  END
>  <UniqueID>  (43) 
40

>  <SMILES>  (43) 
CCN(c1ccccc1)S(=O)(=O)c1cccc(C(=O)OCC(=O)NC2CC2)c1

>  <Energy>  (43) 
312.8839116501342

>  <Genealogy>  (43) 
CCN(c1ccccc1)S(=O)(=O)c1cccc(C(=O)OCC(=O)NC2CC2)c1 (3D coordinates assigned)
CCN(c1ccccc1)S(=O)(=O)c1cccc(C(=O)OCC(=O)NC2CC2)c1 (nonaromatic ring conformer: 312.8839116501342 kcal/mol)

>  <smiles>  (43) 
CCN(c1ccccc1)S(=O)(=O)c1cccc(C(=O)OCC(=O)NC2CC2)c1

>  <score_type>  (43) 
oracle

>  <origin>  (43) 
adg

>  <m_score__min__energy>  (43) 
-9.4499999999999993

>  <m_primary>  (43) 
energy

$$$$
43:0
     RDKit          3D

 52 55  0  0  0  0  0  0  0  0999 V2000
   -2.8610   17.6230  -33.4490 C   0  0  0  0  0  0  0  0  0  0  0  0
   -3.8160   18.7320  -33.4740 N   0  0  0  0  0  0  0  0  0  0  0  0
   -4.8400   18.7490  -34.5170 C   0  0  0  0  0  0  0  0  0  0  0  0
   -3.5720   19.9100  -32.6850 C   0  0  0  0  0  0  0  0  0  0  0  0
   -2.3130   20.5310  -32.7350 C   0  0  0  0  0  0  0  0  0  0  0  0
   -2.0410   21.6480  -31.9420 C   0  0  0  0  0  0  0  0  0  0  0  0
   -3.0260   22.1630  -31.0960 C   0  0  0  0  0  0  0  0  0  0  0  0
   -2.6510   23.5140  -30.0410 S   0  0  0  0  0  0  0  0  0  0  0  0
   -3.5170   24.8880  -30.4750 O   0  0  0  0  0  0  0  0  0  0  0  0
   -2.8720   23.1060  -28.3180 C   0  0  0  0  0  0  0  0  0  0  0  0
   -2.2590   21.7660  -28.0220 C   0  0  0  0  0  0  0  0  0  0  0  0
   -0.9200   21.5120  -28.3600 C   0  0  0  0  0  0  0  0  0  0  0  0
   -0.3670   20.2450  -28.1430 C   0  0  0  0  0  0  0  0  0  0  0  0
   -1.1490   19.2240  -27.5970 C   0  0  0  0  0  0  0  0  0  0  0  0
   -2.4850   19.4670  -27.2650 C   0  0  0  0  0  0  0  0  0  0  0  0
   -3.0400   20.7320  -27.4770 C   0  0  0  0  0  0  0  0  0  0  0  0
   -4.2910   21.5680  -31.0520 C   0  0  0  0  0  0  0  0  0  0  0  0
   -4.5750   20.4450  -31.8440 C   0  0  0  0  0  0  0  0  0  0  0  0
   -5.9240   19.8360  -31.7660 C   0  0  0  0  0  0  0  0  0  0  0  0
   -6.0220   18.4410  -31.6510 C   0  0  0  0  0  0  0  0  0  0  0  0
   -7.2350   17.8290  -31.6340 N   0  0  0  0  0  0  0  0  0  0  0  0
   -8.3920   18.5360  -31.7230 C   0  0  0  0  0  0  0  0  0  0  0  0
   -8.3610   19.9330  -31.8190 C   0  0  0  0  0  0  0  0  0  0  0  0
   -9.5540   20.6680  -31.8970 C   0  0  0  0  0  0  0  0  0  0  0  0
   -9.5160   22.0610  -31.9720 C   0  0  0  0  0  0  0  0  0  0  0  0
   -8.2910   22.7300  -31.9600 C   0  0  0  0  0  0  0  0  0  0  0  0
   -7.0960   22.0100  -31.8820 C   0  0  0  0  0  0  0  0  0  0  0  0
   -7.1120   20.6010  -31.8300 C   0  0  0  0  0  0  0  0  0  0  0  0
   -2.6333   17.3586  -32.4058 H   0  0  0  0  0  0  0  0  0  0  0  0
   -3.2966   16.7524  -33.9612 H   0  0  0  0  0  0  0  0  0  0  0  0
   -1.9354   17.9246  -33.9612 H   0  0  0  0  0  0  0  0  0  0  0  0
   -5.8368   18.7655  -34.0520 H   0  0  0  0  0  0  0  0  0  0  0  0
   -4.7120   19.6451  -35.1419 H   0  0  0  0  0  0  0  0  0  0  0  0
   -4.7418   17.8491  -35.1419 H   0  0  0  0  0  0  0  0  0  0  0  0
   -1.5352   20.1344  -33.4041 H   0  0  0  0  0  0  0  0  0  0  0  0
   -1.0497   22.1229  -31.9837 H   0  0  0  0  0  0  0  0  0  0  0  0
   -3.4690   24.9160  -31.4630 H   0  0  0  0  0  0  0  0  0  0  0  0
   -2.3865   23.8734  -27.6972 H   0  0  0  0  0  0  0  0  0  0  0  0
   -3.9479   23.0676  -28.0921 H   0  0  0  0  0  0  0  0  0  0  0  0
   -0.3037   22.3116  -28.7968 H   0  0  0  0  0  0  0  0  0  0  0  0
    0.6845   20.0527  -28.4026 H   0  0  0  0  0  0  0  0  0  0  0  0
   -0.7131   18.2283  -27.4283 H   0  0  0  0  0  0  0  0  0  0  0  0
   -3.1000   18.6619  -26.8365 H   0  0  0  0  0  0  0  0  0  0  0  0
   -4.0921   20.9193  -27.2164 H   0  0  0  0  0  0  0  0  0  0  0  0
   -5.0677   21.9828  -30.3927 H   0  0  0  0  0  0  0  0  0  0  0  0
   -5.1065   17.8361  -31.5737 H   0  0  0  0  0  0  0  0  0  0  0  0
   -7.2790   16.7890  -31.5570 H   0  0  0  0  0  0  0  0  0  0  0  0
   -9.3574   18.0088  -31.7196 H   0  0  0  0  0  0  0  0  0  0  0  0
  -10.5216   20.1447  -31.8990 H   0  0  0  0  0  0  0  0  0  0  0  0
  -10.4532   22.6328  -32.0407 H   0  0  0  0  0  0  0  0  0  0  0  0
   -8.2662   23.8285  -32.0122 H   0  0  0  0  0  0  0  0  0  0  0  0
   -6.1358   22.5463  -31.8610 H   0  0  0  0  0  0  0  0  0  0  0  0
  1  2  1  0
  2  3  1  0
  2  4  1  0
  4  5  2  0
  5  6  1  0
  6  7  2  0
  7  8  1  0
  8  9  1  6
  8 10  1  0
 10 11  1  0
 11 12  2  0
 12 13  1  0
 13 14  2  0
 14 15  1  0
 15 16  2  0
  7 17  1  0
 17 18  2  0
 18 19  1  0
 19 20  2  0
 20 21  1  0
 21 22  2  0
 22 23  1  0
 23 24  2  0
 24 25  1  0
 25 26  2  0
 26 27  1  0
 27 28  2  0
 18  4  1  0
 28 19  1  0
 16 11  1  0
 28 23  1  0
  1 29  1  0
  1 30  1  0
  1 31  1  0
  3 32  1  0
  3 33  1  0
  3 34  1  0
  5 35  1  0
  6 36  1  0
  9 37  1  0
 10 38  1  0
 10 39  1  0
 12 40  1  0
 13 41  1  0
 14 42  1  0
 15 43  1  0
 16 44  1  0
 17 45  1  0
 20 46  1  0
 21 47  1  0
 22 48  1  0
 24 49  1  0
 25 50  1  0
 26 51  1  0
 27 52  1  0
M  CHG  2   8   1  21   1
M  END
>  <UniqueID>  (44) 
41

>  <SMILES>  (44) 
CN(C)c1ccc([S@@+](O)Cc2ccccc2)cc1-c1c[nH+]cc2ccccc12

>  <Energy>  (44) 
63.279749611709335

>  <Genealogy>  (44) 
CN(C)c1ccc([S+](O)Cc2ccccc2)cc1-c1c[nH+]cc2ccccc12 (protonated)
CN(C)c1ccc([S@@+](O)Cc2ccccc2)cc1-c1c[nH+]cc2ccccc12 (chirality)
CN(C)c1ccc([S@@+](O)Cc2ccccc2)cc1-c1c[nH+]cc2ccccc12 (3D coordinates assigned)
CN(C)c1ccc([S@@+](O)Cc2ccccc2)cc1-c1c[nH+]cc2ccccc12 (optimized conformer: 63.279749611709335 kcal/mol)

>  <smiles>  (44) 
CN(C)c1ccc([S+]([O-])Cc2ccccc2)cc1-c1cncc2ccccc12

>  <score_type>  (44) 
oracle

>  <origin>  (44) 
adg

>  <m_score__min__energy>  (44) 
-8.1699999999999999

>  <m_primary>  (44) 
energy

$$$$
44:0
     RDKit          3D

 32 33  0  0  0  0  0  0  0  0999 V2000
   -5.6840   25.6730  -30.4670 C   0  0  0  0  0  0  0  0  0  0  0  0
   -4.6180   24.8340  -30.9010 O   0  0  0  0  0  0  0  0  0  0  0  0
   -4.0980   23.7590  -30.1620 C   0  0  0  0  0  0  0  0  0  0  0  0
   -3.7070   23.9050  -28.8150 C   0  0  0  0  0  0  0  0  0  0  0  0
   -3.2090   22.8130  -28.1010 C   0  0  0  0  0  0  0  0  0  0  0  0
   -3.0960   21.5660  -28.7170 C   0  0  0  0  0  0  0  0  0  0  0  0
   -3.4780   21.4070  -30.0510 C   0  0  0  0  0  0  0  0  0  0  0  0
   -3.9660   22.5010  -30.7860 C   0  0  0  0  0  0  0  0  0  0  0  0
   -4.4050   22.2970  -32.2170 C   0  0  0  0  0  0  0  0  0  0  0  0
   -5.6450   23.0380  -32.4840 N   0  0  0  0  0  0  0  0  0  0  0  0
   -6.7860   22.1760  -32.2930 C   0  0  0  0  0  0  0  0  0  0  0  0
   -7.9720   22.6810  -31.7280 C   0  0  0  0  0  0  0  0  0  0  0  0
   -9.0860   21.8510  -31.5700 C   0  0  0  0  0  0  0  0  0  0  0  0
   -9.0310   20.5170  -31.9820 C   0  0  0  0  0  0  0  0  0  0  0  0
   -7.8620   20.0110  -32.5560 C   0  0  0  0  0  0  0  0  0  0  0  0
   -6.7450   20.8350  -32.7160 C   0  0  0  0  0  0  0  0  0  0  0  0
   -5.7101   25.6935  -29.3675 H   0  0  0  0  0  0  0  0  0  0  0  0
   -5.5271   26.6925  -30.8492 H   0  0  0  0  0  0  0  0  0  0  0  0
   -6.6381   25.2809  -30.8492 H   0  0  0  0  0  0  0  0  0  0  0  0
   -3.7948   24.8852  -28.3236 H   0  0  0  0  0  0  0  0  0  0  0  0
   -2.9052   22.9361  -27.0510 H   0  0  0  0  0  0  0  0  0  0  0  0
   -2.7056   20.7072  -28.1513 H   0  0  0  0  0  0  0  0  0  0  0  0
   -3.3964   20.4197  -30.5292 H   0  0  0  0  0  0  0  0  0  0  0  0
   -3.6153   22.6568  -32.8930 H   0  0  0  0  0  0  0  0  0  0  0  0
   -4.5873   21.2252  -32.3844 H   0  0  0  0  0  0  0  0  0  0  0  0
   -5.6400   23.3990  -33.4670 H   0  0  0  0  0  0  0  0  0  0  0  0
   -5.7120   23.8610  -31.8380 H   0  0  0  0  0  0  0  0  0  0  0  0
   -8.0227   23.7327  -31.4095 H   0  0  0  0  0  0  0  0  0  0  0  0
  -10.0077   22.2490  -31.1204 H   0  0  0  0  0  0  0  0  0  0  0  0
   -9.9079   19.8653  -31.8545 H   0  0  0  0  0  0  0  0  0  0  0  0
   -7.8209   18.9614  -32.8827 H   0  0  0  0  0  0  0  0  0  0  0  0
   -5.8295   20.4333  -33.1748 H   0  0  0  0  0  0  0  0  0  0  0  0
  1  2  1  0
  2  3  1  0
  3  4  2  0
  4  5  1  0
  5  6  2  0
  6  7  1  0
  7  8  2  0
  8  9  1  0
  9 10  1  0
 10 11  1  0
 11 12  2  0
 12 13  1  0
 13 14  2  0
 14 15  1  0
 15 16  2  0
  8  3  1  0
 16 11  1  0
  1 17  1  0
  1 18  1  0
  1 19  1  0
  4 20  1  0
  5 21  1  0
  6 22  1  0
  7 23  1  0
  9 24  1  0
  9 25  1  0
 10 26  1  0
 10 27  1  0
 12 28  1  0
 13 29  1  0
 14 30  1  0
 15 31  1  0
 16 32  1  0
M  CHG  1  10   1
M  END
>  <UniqueID>  (45) 
42

>  <SMILES>  (45) 
COc1ccccc1C[NH2+]c1ccccc1

>  <Energy>  (45) 
32.22007669353617

>  <Genealogy>  (45) 
COc1ccccc1C[NH2+]c1ccccc1 (protonated)
COc1ccccc1C[NH2+]c1ccccc1 (3D coordinates assigned)
COc1ccccc1C[NH2+]c1ccccc1 (optimized conformer: 32.22007669353617 kcal/mol)

>  <smiles>  (45) 
COc1ccccc1CNc1ccccc1

>  <score_type>  (45) 
oracle

>  <origin>  (45) 
adg

>  <m_score__min__energy>  (45) 
-5.7300000000000004

>  <m_primary>  (45) 
energy

$$$$
45:0
     RDKit          3D

 52 53  0  0  0  0  0  0  0  0999 V2000
   -2.2740   22.6876  -29.6067 H   0  0  0  0  0  0  0  0  0  0  0  0
   -3.1970   23.0760  -30.0620 C   0  0  0  0  0  0  0  0  0  0  0  0
   -4.0670   22.2020  -30.7170 C   0  0  0  0  0  0  0  0  0  0  0  0
   -3.8340   21.1279  -30.7618 H   0  0  0  0  0  0  0  0  0  0  0  0
   -5.2370   22.6890  -31.3180 C   0  0  0  0  0  0  0  0  0  0  0  0
   -6.1280   21.7920  -32.0030 N   0  0  0  0  0  0  0  0  0  0  0  0
   -7.4070   21.5530  -31.5640 C   0  0  0  0  0  0  0  0  0  0  0  0
   -8.0260   22.2890  -30.4030 C   0  0  0  0  0  0  0  0  0  0  0  0
   -7.6625   21.8568  -29.4591 H   0  0  0  0  0  0  0  0  0  0  0  0
   -7.7462   23.3517  -30.4514 H   0  0  0  0  0  0  0  0  0  0  0  0
   -9.1210   22.1955  -30.4514 H   0  0  0  0  0  0  0  0  0  0  0  0
   -8.0940   20.5760  -32.2940 C   0  0  0  0  0  0  0  0  0  0  0  0
   -9.4860   20.0850  -32.0520 C   0  0  0  0  0  0  0  0  0  0  0  0
   -9.6690   20.0205  -30.9692 H   0  0  0  0  0  0  0  0  0  0  0  0
  -10.2051   20.7837  -32.5044 H   0  0  0  0  0  0  0  0  0  0  0  0
   -9.6076   19.0897  -32.5044 H   0  0  0  0  0  0  0  0  0  0  0  0
   -7.0650   19.9640  -33.4700 S   0  0  0  0  0  0  0  0  0  0  0  0
   -5.7990   20.9860  -33.0610 C   0  0  0  0  0  0  0  0  0  0  0  0
   -4.6700   20.9700  -33.7140 N   0  0  0  0  0  0  0  0  0  0  0  0
   -3.4620   20.2830  -33.3760 C   0  0  0  0  0  0  0  0  0  0  0  0
   -2.4940   20.9350  -32.9010 O   0  0  0  0  0  0  0  0  0  0  0  0
   -3.3780   18.7860  -33.4850 C   0  0  0  0  0  0  0  0  0  0  0  0
   -3.5348   18.3465  -32.4889 H   0  0  0  0  0  0  0  0  0  0  0  0
   -2.3842   18.5257  -33.8783 H   0  0  0  0  0  0  0  0  0  0  0  0
   -4.4360   18.2270  -34.4480 C   0  0  0  0  0  0  0  0  0  0  0  0
   -3.9381   17.6013  -35.2034 H   0  0  0  0  0  0  0  0  0  0  0  0
   -4.9542   19.0727  -34.9237 H   0  0  0  0  0  0  0  0  0  0  0  0
   -5.4400   17.4080  -33.7280 N   0  0  0  0  0  0  0  0  0  0  0  0
   -5.2360   17.4550  -32.2550 C   0  0  0  0  0  0  0  0  0  0  0  0
   -4.6873   18.3711  -31.9911 H   0  0  0  0  0  0  0  0  0  0  0  0
   -4.6581   16.5738  -31.9395 H   0  0  0  0  0  0  0  0  0  0  0  0
   -6.5860   17.4520  -31.5480 C   0  0  0  0  0  0  0  0  0  0  0  0
   -6.4297   17.4523  -30.4592 H   0  0  0  0  0  0  0  0  0  0  0  0
   -7.1534   18.3489  -31.8373 H   0  0  0  0  0  0  0  0  0  0  0  0
   -7.1494   16.5526  -31.8373 H   0  0  0  0  0  0  0  0  0  0  0  0
   -5.4420   16.0200  -34.2410 C   0  0  0  0  0  0  0  0  0  0  0  0
   -5.0543   16.0173  -35.2704 H   0  0  0  0  0  0  0  0  0  0  0  0
   -4.8070   15.4055  -33.5860 H   0  0  0  0  0  0  0  0  0  0  0  0
   -6.8530   15.4320  -34.2380 C   0  0  0  0  0  0  0  0  0  0  0  0
   -7.1896   15.2917  -33.2002 H   0  0  0  0  0  0  0  0  0  0  0  0
   -7.5379   16.1196  -34.7558 H   0  0  0  0  0  0  0  0  0  0  0  0
   -6.8469   14.4615  -34.7558 H   0  0  0  0  0  0  0  0  0  0  0  0
   -5.5570   24.0500  -31.2030 C   0  0  0  0  0  0  0  0  0  0  0  0
   -6.4962   24.4303  -31.6311 H   0  0  0  0  0  0  0  0  0  0  0  0
   -4.6860   24.9250  -30.5460 C   0  0  0  0  0  0  0  0  0  0  0  0
   -4.9361   25.9936  -30.4711 H   0  0  0  0  0  0  0  0  0  0  0  0
   -3.4900   24.4430  -29.9800 C   0  0  0  0  0  0  0  0  0  0  0  0
   -2.5710   25.2830  -29.3330 O   0  0  0  0  0  0  0  0  0  0  0  0
   -2.0100   25.0220  -28.0510 C   0  0  0  0  0  0  0  0  0  0  0  0
   -2.7123   25.3488  -27.2700 H   0  0  0  0  0  0  0  0  0  0  0  0
   -1.8209   23.9435  -27.9462 H   0  0  0  0  0  0  0  0  0  0  0  0
   -1.0632   25.5721  -27.9462 H   0  0  0  0  0  0  0  0  0  0  0  0
  1  2  1  0
  2  3  2  0
  3  4  1  0
  3  5  1  0
  5  6  1  0
  6  7  1  0
  7  8  1  0
  8  9  1  0
  8 10  1  0
  8 11  1  0
  7 12  2  0
 12 13  1  0
 13 14  1  0
 13 15  1  0
 13 16  1  0
 12 17  1  0
 17 18  1  0
 18 19  2  0
 19 20  1  0
 20 21  2  0
 20 22  1  0
 22 23  1  0
 22 24  1  0
 22 25  1  0
 25 26  1  0
 25 27  1  0
 25 28  1  0
 28 29  1  0
 29 30  1  0
 29 31  1  0
 29 32  1  0
 32 33  1  0
 32 34  1  0
 32 35  1  0
 28 36  1  0
 36 37  1  0
 36 38  1  0
 36 39  1  0
 39 40  1  0
 39 41  1  0
 39 42  1  0
  5 43  2  0
 43 44  1  0
 43 45  1  0
 45 46  1  0
 45 47  2  0
 47 48  1  0
 48 49  1  0
 49 50  1  0
 49 51  1  0
 49 52  1  0
 47  2  1  0
 18  6  1  0
M  END
>  <UniqueID>  (46) 
43

>  <SMILES>  (46) 
CCN(CC)CCC(=O)/N=c1/sc(C)c(C)n1-c1ccc(OC)cc1

>  <Energy>  (46) 
94.88620357746576

>  <Genealogy>  (46) 
CCN(CC)CCC(=O)/N=c1/sc(C)c(C)n1-c1ccc(OC)cc1 (cis-trans isomerization)
CCN(CC)CCC(=O)/N=c1/sc(C)c(C)n1-c1ccc(OC)cc1 (3D coordinates assigned)
CCN(CC)CCC(=O)/N=c1/sc(C)c(C)n1-c1ccc(OC)cc1 (optimized conformer: 94.88620357746576 kcal/mol)

>  <smiles>  (46) 
CCN(CC)CCC(=O)N=c1sc(C)c(C)n1-c1ccc(OC)cc1

>  <score_type>  (46) 
oracle

>  <origin>  (46) 
adg

>  <m_score__min__energy>  (46) 
-8

>  <m_primary>  (46) 
energy

$$$$
46:0
     RDKit          3D

 34 36  0  0  0  0  0  0  0  0999 V2000
   -8.2646   24.1714  -30.6414 H   0  0  0  0  0  0  0  0  0  0  0  0
   -7.1670   24.1240  -30.6960 C   0  0  0  0  0  0  0  0  0  0  0  0
   -6.1010   25.3120  -30.1670 S   0  0  0  0  0  0  0  0  0  0  0  0
   -4.7330   24.4330  -30.6150 C   0  0  0  0  0  0  0  0  0  0  0  0
   -3.4930   24.8000  -30.4720 N   0  0  0  0  0  0  0  0  0  0  0  0
   -2.6490   24.6100  -29.3250 C   0  0  0  0  0  0  0  0  0  0  0  0
   -1.8260   25.4930  -28.9600 O   0  0  0  0  0  0  0  0  0  0  0  0
   -2.7880   23.3590  -28.5180 C   0  0  0  0  0  0  0  0  0  0  0  0
   -2.2452   23.4756  -27.5684 H   0  0  0  0  0  0  0  0  0  0  0  0
   -3.8537   23.1744  -28.3174 H   0  0  0  0  0  0  0  0  0  0  0  0
   -2.2190   22.1940  -29.2770 C   0  0  0  0  0  0  0  0  0  0  0  0
   -1.3950   21.2620  -28.6270 C   0  0  0  0  0  0  0  0  0  0  0  0
   -1.1832   21.3636  -27.5524 H   0  0  0  0  0  0  0  0  0  0  0  0
   -0.8470   20.2060  -29.3550 C   0  0  0  0  0  0  0  0  0  0  0  0
   -0.2064   19.4653  -28.8541 H   0  0  0  0  0  0  0  0  0  0  0  0
   -1.1130   20.0910  -30.7200 C   0  0  0  0  0  0  0  0  0  0  0  0
   -0.6882   19.2592  -31.3011 H   0  0  0  0  0  0  0  0  0  0  0  0
   -1.9240   21.0430  -31.3400 C   0  0  0  0  0  0  0  0  0  0  0  0
   -2.1366   20.9640  -32.4164 H   0  0  0  0  0  0  0  0  0  0  0  0
   -2.4530   22.0690  -30.6180 N   0  0  0  0  0  0  0  0  0  0  0  0
   -3.0490   22.7720  -31.1100 H   0  0  0  0  0  0  0  0  0  0  0  0
   -5.0680   23.2470  -31.1610 N   0  0  0  0  0  0  0  0  0  0  0  0
   -6.4170   23.0660  -31.2170 C   0  0  0  0  0  0  0  0  0  0  0  0
   -7.0240   21.8260  -31.7590 C   0  0  0  0  0  0  0  0  0  0  0  0
   -8.3630   21.5210  -31.4480 C   0  0  0  0  0  0  0  0  0  0  0  0
   -8.9472   22.2115  -30.8220 H   0  0  0  0  0  0  0  0  0  0  0  0
   -8.9570   20.3510  -31.9260 C   0  0  0  0  0  0  0  0  0  0  0  0
  -10.0031   20.1234  -31.6734 H   0  0  0  0  0  0  0  0  0  0  0  0
   -8.2260   19.4710  -32.7230 C   0  0  0  0  0  0  0  0  0  0  0  0
   -8.6948   18.5484  -33.0958 H   0  0  0  0  0  0  0  0  0  0  0  0
   -6.9000   19.7600  -33.0480 C   0  0  0  0  0  0  0  0  0  0  0  0
   -6.3284   19.0648  -33.6804 H   0  0  0  0  0  0  0  0  0  0  0  0
   -6.2920   20.9300  -32.5740 C   0  0  0  0  0  0  0  0  0  0  0  0
   -4.6380   21.2530  -33.0860 Cl  0  0  0  0  0  0  0  0  0  0  0  0
  1  2  1  0
  2  3  1  0
  3  4  1  0
  4  5  2  0
  5  6  1  0
  6  7  2  0
  6  8  1  0
  8  9  1  0
  8 10  1  0
  8 11  1  0
 11 12  2  0
 12 13  1  0
 12 14  1  0
 14 15  1  0
 14 16  2  0
 16 17  1  0
 16 18  1  0
 18 19  1  0
 18 20  2  0
 20 21  1  0
  4 22  1  0
 22 23  1  0
 23 24  1  0
 24 25  2  0
 25 26  1  0
 25 27  1  0
 27 28  1  0
 27 29  2  0
 29 30  1  0
 29 31  1  0
 31 32  1  0
 31 33  2  0
 33 34  1  0
 23  2  2  0
 33 24  1  0
 20 11  1  0
M  CHG  2  20   1  22  -1
M  END
>  <UniqueID>  (47) 
44

>  <SMILES>  (47) 
O=C(Cc1cccc[nH+]1)/N=c1/[n-]c(-c2ccccc2Cl)cs1

>  <Energy>  (47) 
73.436044632028

>  <Genealogy>  (47) 
O=C(Cc1cccc[nH+]1)N=c1[n-]c(-c2ccccc2Cl)cs1 (protonated)
O=C(Cc1cccc[nH+]1)/N=c1/[n-]c(-c2ccccc2Cl)cs1 (cis-trans isomerization)
O=C(Cc1cccc[nH+]1)/N=c1/[n-]c(-c2ccccc2Cl)cs1 (3D coordinates assigned)
O=C(Cc1cccc[nH+]1)/N=c1/[n-]c(-c2ccccc2Cl)cs1 (optimized conformer: 73.436044632028 kcal/mol)

>  <smiles>  (47) 
O=C(Cc1ccccn1)N=c1[nH]c(-c2ccccc2Cl)cs1

>  <score_type>  (47) 
oracle

>  <origin>  (47) 
adg

>  <m_score__min__energy>  (47) 
-8.3900000000000006

>  <m_primary>  (47) 
energy

$$$$
47:0
     RDKit          3D

 60 64  0  0  0  0  0  0  0  0999 V2000
    0.2520   21.3690  -36.0780 C   0  0  0  0  0  0  0  0  0  0  0  0
   -0.1310   21.0620  -34.9770 C   0  0  0  0  0  0  0  0  0  0  0  0
   -0.5870   20.6880  -33.6650 C   0  0  0  0  0  0  0  0  0  0  0  0
   -0.1580   21.2510  -32.5610 O   0  0  0  0  0  0  0  0  0  0  0  0
   -0.7780   20.7010  -31.5410 C   0  0  0  0  0  0  0  0  0  0  0  0
   -1.6540   19.7320  -31.9920 C   0  0  0  0  0  0  0  0  0  0  0  0
   -1.5230   19.7170  -33.3650 C   0  0  0  0  0  0  0  0  0  0  0  0
   -2.3260   18.8860  -34.3220 C   0  0  0  0  0  0  0  0  0  0  0  0
   -3.7130   18.7890  -33.8640 N   0  0  0  0  0  0  0  0  0  0  0  0
   -4.5150   19.8100  -33.4620 C   0  0  0  0  0  0  0  0  0  0  0  0
   -4.1200   21.0030  -33.3660 O   0  0  0  0  0  0  0  0  0  0  0  0
   -5.7890   19.4190  -33.1940 N   0  0  0  0  0  0  0  0  0  0  0  0
   -6.9290   20.2780  -32.8710 C   0  0  0  0  0  0  0  0  0  0  0  0
   -6.4500   21.5370  -32.1990 C   0  0  0  0  0  0  0  0  0  0  0  0
   -6.8210   22.7950  -32.7010 C   0  0  0  0  0  0  0  0  0  0  0  0
   -6.3300   23.9630  -32.1100 C   0  0  0  0  0  0  0  0  0  0  0  0
   -5.4670   23.8910  -31.0070 C   0  0  0  0  0  0  0  0  0  0  0  0
   -4.9250   25.1170  -30.3890 C   0  0  0  0  0  0  0  0  0  0  0  0
   -5.7140   26.0490  -30.0830 O   0  0  0  0  0  0  0  0  0  0  0  0
   -3.5220   25.2990  -30.1560 N   0  0  0  0  0  0  0  0  0  0  0  0
   -2.7580   24.6380  -29.1030 C   0  0  0  0  0  0  0  0  0  0  0  0
   -2.0540   23.4010  -29.6610 C   0  0  0  0  0  0  0  0  0  0  0  0
   -1.9690   22.3050  -28.6280 C   0  0  0  0  0  0  0  0  0  0  0  0
   -1.0920   22.4220  -27.5370 C   0  0  0  0  0  0  0  0  0  0  0  0
   -0.9910   21.3890  -26.6000 C   0  0  0  0  0  0  0  0  0  0  0  0
   -1.7590   20.2310  -26.7490 C   0  0  0  0  0  0  0  0  0  0  0  0
   -2.6260   20.1030  -27.8370 C   0  0  0  0  0  0  0  0  0  0  0  0
   -2.7300   21.1330  -28.7770 C   0  0  0  0  0  0  0  0  0  0  0  0
   -5.0740   22.6330  -30.5230 C   0  0  0  0  0  0  0  0  0  0  0  0
   -5.5640   21.4650  -31.1130 C   0  0  0  0  0  0  0  0  0  0  0  0
   -5.7860   18.0950  -33.4560 C   0  0  0  0  0  0  0  0  0  0  0  0
   -6.8290   17.1740  -33.3910 C   0  0  0  0  0  0  0  0  0  0  0  0
   -6.5380   15.8460  -33.7500 C   0  0  0  0  0  0  0  0  0  0  0  0
   -5.2310   15.4950  -34.1550 C   0  0  0  0  0  0  0  0  0  0  0  0
   -4.2400   16.4370  -34.2040 N   0  0  0  0  0  0  0  0  0  0  0  0
   -4.5350   17.7180  -33.8560 C   0  0  0  0  0  0  0  0  0  0  0  0
    0.6015   21.6491  -37.0827 H   0  0  0  0  0  0  0  0  0  0  0  0
   -0.6228   20.9715  -30.4861 H   0  0  0  0  0  0  0  0  0  0  0  0
   -2.3186   19.1026  -31.3820 H   0  0  0  0  0  0  0  0  0  0  0  0
   -2.3036   19.3539  -35.3173 H   0  0  0  0  0  0  0  0  0  0  0  0
   -1.8926   17.8763  -34.3728 H   0  0  0  0  0  0  0  0  0  0  0  0
   -7.4622   20.5394  -33.7969 H   0  0  0  0  0  0  0  0  0  0  0  0
   -7.6055   19.7401  -32.1905 H   0  0  0  0  0  0  0  0  0  0  0  0
   -7.5010   22.8617  -33.5631 H   0  0  0  0  0  0  0  0  0  0  0  0
   -6.6223   24.9441  -32.5125 H   0  0  0  0  0  0  0  0  0  0  0  0
   -2.0063   25.3362  -28.7061 H   0  0  0  0  0  0  0  0  0  0  0  0
   -3.4440   24.3299  -28.3002 H   0  0  0  0  0  0  0  0  0  0  0  0
   -2.6164   23.0306  -30.5307 H   0  0  0  0  0  0  0  0  0  0  0  0
   -1.0314   23.6849  -29.9504 H   0  0  0  0  0  0  0  0  0  0  0  0
   -0.4822   23.3299  -27.4193 H   0  0  0  0  0  0  0  0  0  0  0  0
   -0.3063   21.4880  -25.7447 H   0  0  0  0  0  0  0  0  0  0  0  0
   -1.6809   19.4203  -26.0096 H   0  0  0  0  0  0  0  0  0  0  0  0
   -3.2281   19.1900  -27.9544 H   0  0  0  0  0  0  0  0  0  0  0  0
   -3.4094   21.0256  -29.6355 H   0  0  0  0  0  0  0  0  0  0  0  0
   -4.3767   22.5665  -29.6749 H   0  0  0  0  0  0  0  0  0  0  0  0
   -5.2537   20.4839  -30.7242 H   0  0  0  0  0  0  0  0  0  0  0  0
   -7.8384   17.4732  -33.0721 H   0  0  0  0  0  0  0  0  0  0  0  0
   -7.3276   15.0809  -33.7155 H   0  0  0  0  0  0  0  0  0  0  0  0
   -5.0079   14.4545  -34.4336 H   0  0  0  0  0  0  0  0  0  0  0  0
   -3.2820   16.1580  -34.5040 H   0  0  0  0  0  0  0  0  0  0  0  0
  1  2  3  0
  2  3  1  0
  3  4  1  0
  4  5  1  0
  5  6  2  0
  6  7  1  0
  7  8  1  0
  8  9  1  0
  9 10  1  0
 10 11  2  0
 10 12  1  0
 12 13  1  0
 13 14  1  0
 14 15  2  0
 15 16  1  0
 16 17  2  0
 17 18  1  0
 18 19  2  0
 18 20  1  0
 20 21  1  0
 21 22  1  0
 22 23  1  0
 23 24  2  0
 24 25  1  0
 25 26  2  0
 26 27  1  0
 27 28  2  0
 17 29  1  0
 29 30  2  0
 12 31  1  0
 31 32  2  0
 32 33  1  0
 33 34  2  0
 34 35  1  0
 35 36  2  0
  7  3  2  0
 36  9  1  0
 30 14  1  0
 36 31  1  0
 28 23  1  0
  1 37  1  0
  5 38  1  0
  6 39  1  0
  8 40  1  0
  8 41  1  0
 13 42  1  0
 13 43  1  0
 15 44  1  0
 16 45  1  0
 21 46  1  0
 21 47  1  0
 22 48  1  0
 22 49  1  0
 24 50  1  0
 25 51  1  0
 26 52  1  0
 27 53  1  0
 28 54  1  0
 29 55  1  0
 30 56  1  0
 32 57  1  0
 33 58  1  0
 34 59  1  0
 35 60  1  0
M  CHG  2  20  -1  35   1
M  END
>  <UniqueID>  (48) 
45

>  <SMILES>  (48) 
C#Cc1occc1Cn1c(=O)n(Cc2ccc(C(=O)[N-]CCc3ccccc3)cc2)c2ccc[nH+]c21

>  <Energy>  (48) 
131.16897969680926

>  <Genealogy>  (48) 
C#Cc1occc1Cn1c(=O)n(Cc2ccc(C(=O)[N-]CCc3ccccc3)cc2)c2ccc[nH+]c21 (protonated)
C#Cc1occc1Cn1c(=O)n(Cc2ccc(C(=O)[N-]CCc3ccccc3)cc2)c2ccc[nH+]c21 (3D coordinates assigned)
C#Cc1occc1Cn1c(=O)n(Cc2ccc(C(=O)[N-]CCc3ccccc3)cc2)c2ccc[nH+]c21 (optimized conformer: 131.16897969680926 kcal/mol)

>  <smiles>  (48) 
C#Cc1occc1Cn1c(=O)n(Cc2ccc(C(=O)NCCc3ccccc3)cc2)c2cccnc21

>  <score_type>  (48) 
oracle

>  <origin>  (48) 
adg

>  <m_score__min__energy>  (48) 
-10.609999999999999

>  <m_primary>  (48) 
energy

$$$$
48:0
     RDKit          3D

 52 56  0  0  0  0  0  0  0  0999 V2000
   -8.9700   22.3230  -31.7790 C   0  0  0  0  0  0  0  0  0  0  0  0
   -8.0600   23.4150  -31.8560 O   0  0  0  0  0  0  0  0  0  0  0  0
   -6.9360   23.5680  -31.0300 C   0  0  0  0  0  0  0  0  0  0  0  0
   -6.5160   24.8240  -30.5510 C   0  0  0  0  0  0  0  0  0  0  0  0
   -5.3910   24.9240  -29.7280 C   0  0  0  0  0  0  0  0  0  0  0  0
   -4.6750   23.7760  -29.3590 C   0  0  0  0  0  0  0  0  0  0  0  0
   -3.4780   23.9000  -28.5010 C   0  0  0  0  0  0  0  0  0  0  0  0
   -3.4660   24.6300  -27.3680 N   0  0  0  0  0  0  0  0  0  0  0  0
   -2.2360   24.5980  -26.8780 N   0  0  0  0  0  0  0  0  0  0  0  0
   -1.8360   25.2200  -25.6140 C   0  0  2  0  0  0  0  0  0  0  0  0
   -1.5910   26.7320  -25.8130 C   0  0  0  0  0  0  0  0  0  0  0  0
   -0.5690   27.3020  -24.8140 C   0  0  0  0  0  0  0  0  0  0  0  0
   -0.5660   26.5010  -23.5050 C   0  0  0  0  0  0  0  0  0  0  0  0
   -0.2050   25.0820  -23.7170 N   0  0  0  0  0  0  0  0  0  0  0  0
   -0.5820   24.5360  -25.0410 C   0  0  0  0  0  0  0  0  0  0  0  0
   -1.4480   23.8420  -27.6640 C   0  0  0  0  0  0  0  0  0  0  0  0
   -2.2070   23.3710  -28.7170 C   0  0  0  0  0  0  0  0  0  0  0  0
   -1.7530   22.4130  -29.7480 C   0  0  0  0  0  0  0  0  0  0  0  0
   -0.8610   21.3670  -29.3970 C   0  0  0  0  0  0  0  0  0  0  0  0
   -0.4300   20.4400  -30.3640 C   0  0  0  0  0  0  0  0  0  0  0  0
   -0.9170   20.5790  -31.6590 C   0  0  0  0  0  0  0  0  0  0  0  0
   -1.7820   21.5660  -31.9990 C   0  0  0  0  0  0  0  0  0  0  0  0
   -2.2340   22.5030  -31.0750 C   0  0  0  0  0  0  0  0  0  0  0  0
   -2.1010   21.4570  -33.3390 O   0  0  0  0  0  0  0  0  0  0  0  0
   -1.3880   20.3330  -33.8750 C   0  0  0  0  0  0  0  0  0  0  0  0
   -0.6460   19.8010  -32.7690 O   0  0  0  0  0  0  0  0  0  0  0  0
   -5.0820   22.5260  -29.8570 C   0  0  0  0  0  0  0  0  0  0  0  0
   -6.2070   22.4260  -30.6790 C   0  0  0  0  0  0  0  0  0  0  0  0
   -9.1685   22.0848  -30.7236 H   0  0  0  0  0  0  0  0  0  0  0  0
   -9.9123   22.5952  -32.2770 H   0  0  0  0  0  0  0  0  0  0  0  0
   -8.5324   21.4452  -32.2770 H   0  0  0  0  0  0  0  0  0  0  0  0
   -7.0758   25.7301  -30.8258 H   0  0  0  0  0  0  0  0  0  0  0  0
   -5.0647   25.9105  -29.3669 H   0  0  0  0  0  0  0  0  0  0  0  0
   -2.6542   25.0918  -24.8900 H   0  0  0  0  0  0  0  0  0  0  0  0
   -1.2156   26.8968  -26.8337 H   0  0  0  0  0  0  0  0  0  0  0  0
   -2.5468   27.2496  -25.6439 H   0  0  0  0  0  0  0  0  0  0  0  0
    0.4342   27.2590  -25.2632 H   0  0  0  0  0  0  0  0  0  0  0  0
   -0.8476   28.3413  -24.5856 H   0  0  0  0  0  0  0  0  0  0  0  0
    0.1626   26.9524  -22.8155 H   0  0  0  0  0  0  0  0  0  0  0  0
   -1.5839   26.5312  -23.0892 H   0  0  0  0  0  0  0  0  0  0  0  0
    0.8300   24.9730  -23.5970 H   0  0  0  0  0  0  0  0  0  0  0  0
   -0.6670   24.5100  -22.9710 H   0  0  0  0  0  0  0  0  0  0  0  0
    0.2548   24.6879  -25.7386 H   0  0  0  0  0  0  0  0  0  0  0  0
   -0.8074   23.4668  -24.9146 H   0  0  0  0  0  0  0  0  0  0  0  0
   -0.3808   23.6345  -27.4963 H   0  0  0  0  0  0  0  0  0  0  0  0
   -0.5034   21.2799  -28.3604 H   0  0  0  0  0  0  0  0  0  0  0  0
    0.2694   19.6318  -30.1039 H   0  0  0  0  0  0  0  0  0  0  0  0
   -2.9442   23.2903  -31.3679 H   0  0  0  0  0  0  0  0  0  0  0  0
   -2.0894   19.5817  -34.2669 H   0  0  0  0  0  0  0  0  0  0  0  0
   -0.7335   20.6201  -34.7112 H   0  0  0  0  0  0  0  0  0  0  0  0
   -4.5116   21.6218  -29.5980 H   0  0  0  0  0  0  0  0  0  0  0  0
   -6.5227   21.4411  -31.0537 H   0  0  0  0  0  0  0  0  0  0  0  0
  1  2  1  0
  2  3  1  0
  3  4  2  0
  4  5  1  0
  5  6  2  0
  6  7  1  0
  7  8  2  0
  8  9  1  0
  9 10  1  0
 10 11  1  0
 11 12  1  0
 12 13  1  0
 13 14  1  0
 14 15  1  0
  9 16  1  0
 16 17  2  0
 17 18  1  0
 18 19  2  0
 19 20  1  0
 20 21  2  0
 21 22  1  0
 22 23  2  0
 22 24  1  0
 24 25  1  0
 25 26  1  0
  6 27  1  0
 27 28  2  0
 28  3  1  0
 17  7  1  0
 23 18  1  0
 15 10  1  0
 26 21  1  0
  1 29  1  0
  1 30  1  0
  1 31  1  0
  4 32  1  0
  5 33  1  0
 10 34  1  1
 11 35  1  0
 11 36  1  0
 12 37  1  0
 12 38  1  0
 13 39  1  0
 13 40  1  0
 14 41  1  0
 14 42  1  0
 15 43  1  0
 15 44  1  0
 16 45  1  0
 19 46  1  0
 20 47  1  0
 23 48  1  0
 25 49  1  0
 25 50  1  0
 27 51  1  0
 28 52  1  0
M  CHG  1  14   1
M  END
>  <UniqueID>  (49) 
46

>  <SMILES>  (49) 
COc1ccc(-c2nn([C@@H]3CCC[NH2+]C3)cc2-c2ccc3c(c2)OCO3)cc1

>  <Energy>  (49) 
126.13792053932863

>  <Genealogy>  (49) 
COc1ccc(-c2nn(C3CCC[NH2+]C3)cc2-c2ccc3c(c2)OCO3)cc1 (protonated)
COc1ccc(-c2nn([C@@H]3CCC[NH2+]C3)cc2-c2ccc3c(c2)OCO3)cc1 (chirality)
COc1ccc(-c2nn([C@@H]3CCC[NH2+]C3)cc2-c2ccc3c(c2)OCO3)cc1 (3D coordinates assigned)
COc1ccc(-c2nn([C@@H]3CCC[NH2+]C3)cc2-c2ccc3c(c2)OCO3)cc1 (nonaromatic ring conformer: 126.13792053932863 kcal/mol)

>  <smiles>  (49) 
COc1ccc(-c2nn(C3CCCNC3)cc2-c2ccc3c(c2)OCO3)cc1

>  <score_type>  (49) 
oracle

>  <origin>  (49) 
adg

>  <m_score__min__energy>  (49) 
-8.0399999999999991

>  <m_primary>  (49) 
energy

$$$$
49:0
     RDKit          3D

 32 33  0  0  0  0  0  0  0  0999 V2000
   -9.4780   21.5470  -30.5800 C   0  0  0  0  0  0  0  0  0  0  0  0
   -8.3890   22.2730  -31.8440 S   0  0  0  0  0  0  0  0  0  0  0  0
   -7.7040   20.6830  -32.3400 C   0  0  0  0  0  0  0  0  0  0  0  0
   -8.4900   19.5400  -32.1420 C   0  0  0  0  0  0  0  0  0  0  0  0
   -8.0140   18.2800  -32.5060 C   0  0  0  0  0  0  0  0  0  0  0  0
   -6.7440   18.1470  -33.0690 C   0  0  0  0  0  0  0  0  0  0  0  0
   -6.1480   16.5610  -33.5220 Cl  0  0  0  0  0  0  0  0  0  0  0  0
   -5.9460   19.2770  -33.2660 C   0  0  0  0  0  0  0  0  0  0  0  0
   -6.4080   20.5580  -32.9040 C   0  0  0  0  0  0  0  0  0  0  0  0
   -5.5350   21.6990  -33.0840 N   0  0  0  0  0  0  0  0  0  0  0  0
   -4.6000   21.8500  -31.9560 C   0  0  0  0  0  0  0  0  0  0  0  0
   -4.9600   23.0260  -31.0800 C   0  0  0  0  0  0  0  0  0  0  0  0
   -5.7380   24.0760  -31.5940 C   0  0  0  0  0  0  0  0  0  0  0  0
   -6.1100   25.1450  -30.7710 C   0  0  0  0  0  0  0  0  0  0  0  0
   -5.7110   25.1680  -29.4320 C   0  0  0  0  0  0  0  0  0  0  0  0
   -4.9410   24.1240  -28.9120 C   0  0  0  0  0  0  0  0  0  0  0  0
   -4.5660   23.0550  -29.7320 C   0  0  0  0  0  0  0  0  0  0  0  0
   -9.0980   21.8003  -29.5793 H   0  0  0  0  0  0  0  0  0  0  0  0
  -10.4954   21.9482  -30.6983 H   0  0  0  0  0  0  0  0  0  0  0  0
   -9.4990   20.4536  -30.6983 H   0  0  0  0  0  0  0  0  0  0  0  0
   -9.4908   19.6369  -31.6958 H   0  0  0  0  0  0  0  0  0  0  0  0
   -8.6409   17.3899  -32.3489 H   0  0  0  0  0  0  0  0  0  0  0  0
   -4.9453   19.1652  -33.7089 H   0  0  0  0  0  0  0  0  0  0  0  0
   -4.9740   21.5550  -33.9570 H   0  0  0  0  0  0  0  0  0  0  0  0
   -6.0700   22.5850  -33.2250 H   0  0  0  0  0  0  0  0  0  0  0  0
   -4.6246   20.9333  -31.3485 H   0  0  0  0  0  0  0  0  0  0  0  0
   -3.5951   22.0262  -32.3673 H   0  0  0  0  0  0  0  0  0  0  0  0
   -6.0560   24.0582  -32.6469 H   0  0  0  0  0  0  0  0  0  0  0  0
   -6.7166   25.9673  -31.1782 H   0  0  0  0  0  0  0  0  0  0  0  0
   -6.0034   26.0091  -28.7862 H   0  0  0  0  0  0  0  0  0  0  0  0
   -4.6297   24.1431  -27.8571 H   0  0  0  0  0  0  0  0  0  0  0  0
   -3.9605   22.2342  -29.3200 H   0  0  0  0  0  0  0  0  0  0  0  0
  1  2  1  0
  2  3  1  0
  3  4  2  0
  4  5  1  0
  5  6  2  0
  6  7  1  0
  6  8  1  0
  8  9  2  0
  9 10  1  0
 10 11  1  0
 11 12  1  0
 12 13  2  0
 13 14  1  0
 14 15  2  0
 15 16  1  0
 16 17  2  0
  9  3  1  0
 17 12  1  0
  1 18  1  0
  1 19  1  0
  1 20  1  0
  4 21  1  0
  5 22  1  0
  8 23  1  0
 10 24  1  0
 10 25  1  0
 11 26  1  0
 11 27  1  0
 13 28  1  0
 14 29  1  0
 15 30  1  0
 16 31  1  0
 17 32  1  0
M  CHG  1  10   1
M  END
>  <UniqueID>  (50) 
47

>  <SMILES>  (50) 
CSc1ccc(Cl)cc1[NH2+]Cc1ccccc1

>  <Energy>  (50) 
28.981250329195973

>  <Genealogy>  (50) 
CSc1ccc(Cl)cc1[NH2+]Cc1ccccc1 (protonated)
CSc1ccc(Cl)cc1[NH2+]Cc1ccccc1 (3D coordinates assigned)
CSc1ccc(Cl)cc1[NH2+]Cc1ccccc1 (optimized conformer: 28.981250329195973 kcal/mol)

>  <smiles>  (50) 
CSc1ccc(Cl)cc1NCc1ccccc1

>  <score_type>  (50) 
oracle

>  <origin>  (50) 
adg

>  <m_score__min__energy>  (50) 
-6.8300000000000001

>  <m_primary>  (50) 
energy

$$$$
