0:0
     RDKit          3D

 57 59  0  0  0  0  0  0  0  0999 V2000
   -1.9200   20.1620  -26.7240 C   0  0  0  0  0  0  0  0  0  0  0  0
   -2.0770   20.9900  -27.8720 O   0  0  0  0  0  0  0  0  0  0  0  0
   -1.6960   22.3410  -27.9450 C   0  0  0  0  0  0  0  0  0  0  0  0
   -0.3610   22.7190  -28.1790 C   0  0  0  0  0  0  0  0  0  0  0  0
    0.0010   24.0760  -28.2590 C   0  0  0  0  0  0  0  0  0  0  0  0
    1.3260   24.4820  -28.4830 O   0  0  0  0  0  0  0  0  0  0  0  0
    2.2720   24.7650  -27.4570 C   0  0  0  0  0  0  0  0  0  0  0  0
   -0.9810   25.0640  -28.1170 C   0  0  0  0  0  0  0  0  0  0  0  0
   -0.5890   26.4090  -28.2080 O   0  0  0  0  0  0  0  0  0  0  0  0
   -0.4920   27.2990  -27.1010 C   0  0  0  0  0  0  0  0  0  0  0  0
   -2.3160   24.6900  -27.8870 C   0  0  0  0  0  0  0  0  0  0  0  0
   -2.6800   23.3380  -27.7750 C   0  0  0  0  0  0  0  0  0  0  0  0
   -4.1270   22.9680  -27.4960 C   0  0  0  0  0  0  0  0  0  0  0  0
   -5.0260   23.1340  -28.6630 N   0  0  0  0  0  0  0  0  0  0  0  0
   -5.3360   24.5430  -28.9870 C   0  0  0  0  0  0  0  0  0  0  0  0
   -6.0200   24.6400  -30.3530 C   0  0  0  0  0  0  0  0  0  0  0  0
   -5.1260   24.1730  -31.4440 N   0  0  0  0  0  0  0  0  0  0  0  0
   -5.8990   23.7330  -32.6250 C   0  0  0  0  0  0  0  0  0  0  0  0
   -6.6410   22.4520  -32.3370 C   0  0  0  0  0  0  0  0  0  0  0  0
   -6.0840   21.2100  -32.6820 C   0  0  0  0  0  0  0  0  0  0  0  0
   -6.7650   20.0260  -32.3870 C   0  0  0  0  0  0  0  0  0  0  0  0
   -8.0030   20.0660  -31.7300 C   0  0  0  0  0  0  0  0  0  0  0  0
   -8.7520   18.7970  -31.4480 C   0  0  0  0  0  0  0  0  0  0  0  0
   -8.5660   21.3070  -31.3950 C   0  0  0  0  0  0  0  0  0  0  0  0
   -7.8850   22.4920  -31.6890 C   0  0  0  0  0  0  0  0  0  0  0  0
   -4.1540   23.1360  -31.0110 C   0  0  0  0  0  0  0  0  0  0  0  0
   -4.6820   22.2950  -29.8360 C   0  0  0  0  0  0  0  0  0  0  0  0
   -2.0353   20.7702  -25.8147 H   0  0  0  0  0  0  0  0  0  0  0  0
   -2.6841   19.3708  -26.7353 H   0  0  0  0  0  0  0  0  0  0  0  0
   -0.9193   19.7054  -26.7353 H   0  0  0  0  0  0  0  0  0  0  0  0
    0.4095   21.9434  -28.3009 H   0  0  0  0  0  0  0  0  0  0  0  0
    1.7997   24.6237  -26.4737 H   0  0  0  0  0  0  0  0  0  0  0  0
    3.1310   24.0845  -27.5524 H   0  0  0  0  0  0  0  0  0  0  0  0
    2.6161   25.8054  -27.5524 H   0  0  0  0  0  0  0  0  0  0  0  0
   -0.5544   26.7266  -26.1638 H   0  0  0  0  0  0  0  0  0  0  0  0
    0.4695   27.8317  -27.1420 H   0  0  0  0  0  0  0  0  0  0  0  0
   -1.3162   28.0263  -27.1420 H   0  0  0  0  0  0  0  0  0  0  0  0
   -3.0878   25.4681  -27.7932 H   0  0  0  0  0  0  0  0  0  0  0  0
   -4.1603   21.9148  -27.1804 H   0  0  0  0  0  0  0  0  0  0  0  0
   -4.4871   23.6548  -26.7158 H   0  0  0  0  0  0  0  0  0  0  0  0
   -6.0058   24.9528  -28.2167 H   0  0  0  0  0  0  0  0  0  0  0  0
   -4.3977   25.1163  -29.0170 H   0  0  0  0  0  0  0  0  0  0  0  0
   -6.9272   24.0181  -30.3434 H   0  0  0  0  0  0  0  0  0  0  0  0
   -6.2703   25.6948  -30.5395 H   0  0  0  0  0  0  0  0  0  0  0  0
   -6.6234   24.5161  -32.8932 H   0  0  0  0  0  0  0  0  0  0  0  0
   -5.2001   23.5547  -33.4555 H   0  0  0  0  0  0  0  0  0  0  0  0
   -5.1074   21.1689  -33.1866 H   0  0  0  0  0  0  0  0  0  0  0  0
   -6.3276   19.0577  -32.6717 H   0  0  0  0  0  0  0  0  0  0  0  0
   -8.8360   18.6547  -30.3605 H   0  0  0  0  0  0  0  0  0  0  0  0
   -9.7581   18.8594  -31.8884 H   0  0  0  0  0  0  0  0  0  0  0  0
   -8.2111   17.9464  -31.8884 H   0  0  0  0  0  0  0  0  0  0  0  0
   -9.5470   21.3475  -30.8991 H   0  0  0  0  0  0  0  0  0  0  0  0
   -8.3265   23.4604  -31.4110 H   0  0  0  0  0  0  0  0  0  0  0  0
   -3.9482   22.4676  -31.8600 H   0  0  0  0  0  0  0  0  0  0  0  0
   -3.2417   23.6498  -30.6738 H   0  0  0  0  0  0  0  0  0  0  0  0
   -5.5828   21.7546  -30.1625 H   0  0  0  0  0  0  0  0  0  0  0  0
   -3.8873   21.5973  -29.5334 H   0  0  0  0  0  0  0  0  0  0  0  0
  1  2  1  0
  2  3  1  0
  3  4  2  0
  4  5  1  0
  5  6  1  0
  6  7  1  0
  5  8  2  0
  8  9  1  0
  9 10  1  0
  8 11  1  0
 11 12  2  0
 12 13  1  0
 13 14  1  0
 14 15  1  0
 15 16  1  0
 16 17  1  0
 17 18  1  0
 18 19  1  0
 19 20  2  0
 20 21  1  0
 21 22  2  0
 22 23  1  0
 22 24  1  0
 24 25  2  0
 17 26  1  0
 26 27  1  0
 12  3  1  0
 27 14  1  0
 25 19  1  0
  1 28  1  0
  1 29  1  0
  1 30  1  0
  4 31  1  0
  7 32  1  0
  7 33  1  0
  7 34  1  0
 10 35  1  0
 10 36  1  0
 10 37  1  0
 11 38  1  0
 13 39  1  0
 13 40  1  0
 15 41  1  0
 15 42  1  0
 16 43  1  0
 16 44  1  0
 18 45  1  0
 18 46  1  0
 20 47  1  0
 21 48  1  0
 23 49  1  0
 23 50  1  0
 23 51  1  0
 24 52  1  0
 25 53  1  0
 26 54  1  0
 26 55  1  0
 27 56  1  0
 27 57  1  0
M  END
>  <UniqueID>  (1) 
1

>  <SMILES>  (1) 
COc1cc(OC)c(OC)cc1CN1CCN(Cc2ccc(C)cc2)CC1

>  <Energy>  (1) 
71.29279615206646

>  <Genealogy>  (1) 
COc1cc(OC)c(OC)cc1CN1CCN(Cc2ccc(C)cc2)CC1 (3D coordinates assigned)
COc1cc(OC)c(OC)cc1CN1CCN(Cc2ccc(C)cc2)CC1 (nonaromatic ring conformer: 71.29279615206646 kcal/mol)

>  <smiles>  (1) 
COc1cc(OC)c(OC)cc1CN1CCN(Cc2ccc(C)cc2)CC1

>  <score_type>  (1) 
oracle

>  <origin>  (1) 
adg

>  <m_score__min__energy>  (1) 
-8.4700000000000006

>  <m_primary>  (1) 
energy

$$$$
1:0
     RDKit          3D

 38 38  0  0  0  0  0  0  0  0999 V2000
   -6.1240   17.2800  -34.4370 C   0  0  0  0  0  0  0  0  0  0  0  0
   -6.8240   17.1490  -33.0880 C   0  0  0  0  0  0  0  0  0  0  0  0
   -7.5720   18.3280  -32.7900 O   0  0  0  0  0  0  0  0  0  0  0  0
   -7.0330   19.6070  -32.5530 C   0  0  0  0  0  0  0  0  0  0  0  0
   -5.6440   19.8430  -32.5230 C   0  0  0  0  0  0  0  0  0  0  0  0
   -5.1490   21.1260  -32.2800 C   0  0  0  0  0  0  0  0  0  0  0  0
   -6.0230   22.2000  -32.0810 C   0  0  0  0  0  0  0  0  0  0  0  0
   -5.4840   23.5030  -31.8020 N   0  0  0  0  0  0  0  0  0  0  0  0
   -6.0880   24.4450  -30.9020 C   0  0  0  0  0  0  0  0  0  0  0  0
   -7.3060   24.3480  -30.5940 O   0  0  0  0  0  0  0  0  0  0  0  0
   -5.2790   25.5850  -30.3640 C   0  0  0  0  0  0  0  0  0  0  0  0
   -3.8870   25.3000  -30.4820 O   0  0  0  0  0  0  0  0  0  0  0  0
   -3.3230   24.0750  -30.1100 C   0  0  0  0  0  0  0  0  0  0  0  0
   -2.9780   23.2320  -30.9830 O   0  0  0  0  0  0  0  0  0  0  0  0
   -3.0680   23.7940  -28.6650 C   0  0  0  0  0  0  0  0  0  0  0  0
   -4.2140   22.9780  -28.0740 C   0  0  0  0  0  0  0  0  0  0  0  0
   -7.4080   21.9680  -32.0940 C   0  0  0  0  0  0  0  0  0  0  0  0
   -7.9170   20.6830  -32.3430 C   0  0  0  0  0  0  0  0  0  0  0  0
   -9.4020   20.4490  -32.3400 C   0  0  0  0  0  0  0  0  0  0  0  0
   -5.0543   17.4802  -34.2771 H   0  0  0  0  0  0  0  0  0  0  0  0
   -6.2413   16.3443  -35.0033 H   0  0  0  0  0  0  0  0  0  0  0  0
   -6.5717   18.1100  -35.0033 H   0  0  0  0  0  0  0  0  0  0  0  0
   -7.5062   16.2866  -33.1176 H   0  0  0  0  0  0  0  0  0  0  0  0
   -6.0624   17.0071  -32.3071 H   0  0  0  0  0  0  0  0  0  0  0  0
   -4.9448   19.0108  -32.6922 H   0  0  0  0  0  0  0  0  0  0  0  0
   -4.0624   21.2936  -32.2448 H   0  0  0  0  0  0  0  0  0  0  0  0
   -4.6200   23.8000  -32.3090 H   0  0  0  0  0  0  0  0  0  0  0  0
   -5.5127   26.4968  -30.9332 H   0  0  0  0  0  0  0  0  0  0  0  0
   -5.5266   25.7312  -29.3022 H   0  0  0  0  0  0  0  0  0  0  0  0
   -2.1302   23.2277  -28.5654 H   0  0  0  0  0  0  0  0  0  0  0  0
   -2.9914   24.7481  -28.1230 H   0  0  0  0  0  0  0  0  0  0  0  0
   -4.1622   23.0149  -26.9758 H   0  0  0  0  0  0  0  0  0  0  0  0
   -5.1739   23.3971  -28.4101 H   0  0  0  0  0  0  0  0  0  0  0  0
   -4.1320   21.9338  -28.4101 H   0  0  0  0  0  0  0  0  0  0  0  0
   -8.1013   22.8013  -31.9072 H   0  0  0  0  0  0  0  0  0  0  0  0
   -9.7622   20.3922  -31.3022 H   0  0  0  0  0  0  0  0  0  0  0  0
   -9.9050   21.2790  -32.8578 H   0  0  0  0  0  0  0  0  0  0  0  0
   -9.6254   19.5046  -32.8578 H   0  0  0  0  0  0  0  0  0  0  0  0
  1  2  1  0
  2  3  1  0
  3  4  1  0
  4  5  2  0
  5  6  1  0
  6  7  2  0
  7  8  1  0
  8  9  1  0
  9 10  2  0
  9 11  1  0
 11 12  1  0
 12 13  1  0
 13 14  2  0
 13 15  1  0
 15 16  1  0
  7 17  1  0
 17 18  2  0
 18 19  1  0
 18  4  1  0
  1 20  1  0
  1 21  1  0
  1 22  1  0
  2 23  1  0
  2 24  1  0
  5 25  1  0
  6 26  1  0
  8 27  1  0
 11 28  1  0
 11 29  1  0
 15 30  1  0
 15 31  1  0
 16 32  1  0
 16 33  1  0
 16 34  1  0
 17 35  1  0
 19 36  1  0
 19 37  1  0
 19 38  1  0
M  END
>  <UniqueID>  (2) 
2

>  <SMILES>  (2) 
CCOc1ccc(NC(=O)COC(=O)CC)cc1C

>  <Energy>  (2) 
29.142059027480176

>  <Genealogy>  (2) 
CCOc1ccc(NC(=O)COC(=O)CC)cc1C (3D coordinates assigned)
CCOc1ccc(NC(=O)COC(=O)CC)cc1C (optimized conformer: 29.142059027480176 kcal/mol)

>  <smiles>  (2) 
CCOc1ccc(NC(=O)COC(=O)CC)cc1C

>  <score_type>  (2) 
oracle

>  <origin>  (2) 
adg

>  <m_score__min__energy>  (2) 
-6.4299999999999997

>  <m_primary>  (2) 
energy

$$$$
2:0
     RDKit          3D

 30 31  0  0  0  0  0  0  0  0999 V2000
   -3.1000   23.8020  -30.0810 C   0  0  0  0  0  0  0  0  0  0  0  0
   -3.9150   24.8720  -30.5060 O   0  0  0  0  0  0  0  0  0  0  0  0
   -5.2780   24.5840  -30.2540 C   0  0  0  0  0  0  0  0  0  0  0  0
   -6.0620   24.5500  -31.5680 C   0  0  0  0  0  0  0  0  0  0  0  0
   -6.6940   23.2340  -31.7540 N   0  0  0  0  0  0  0  0  0  0  0  0
   -7.9940   23.0570  -31.3450 C   0  0  0  0  0  0  0  0  0  0  0  0
   -8.6090   21.8500  -31.4730 N   0  0  0  0  0  0  0  0  0  0  0  0
   -7.9220   20.8170  -32.0050 C   0  0  0  0  0  0  0  0  0  0  0  0
   -8.4890   19.2610  -32.2440 S   0  0  0  0  0  0  0  0  0  0  0  0
   -7.0380   18.6870  -32.9000 C   0  0  0  0  0  0  0  0  0  0  0  0
   -6.8330   17.2800  -33.3610 C   0  0  0  0  0  0  0  0  0  0  0  0
   -6.0900   19.7240  -32.9340 C   0  0  0  0  0  0  0  0  0  0  0  0
   -4.6890   19.5630  -33.4550 C   0  0  0  0  0  0  0  0  0  0  0  0
   -6.6110   20.9330  -32.4200 C   0  0  0  0  0  0  0  0  0  0  0  0
   -5.9830   22.1790  -32.2820 C   0  0  0  0  0  0  0  0  0  0  0  0
   -4.7810   22.3310  -32.6350 O   0  0  0  0  0  0  0  0  0  0  0  0
   -3.0775   23.7724  -28.9816 H   0  0  0  0  0  0  0  0  0  0  0  0
   -3.5080   22.8554  -30.4650 H   0  0  0  0  0  0  0  0  0  0  0  0
   -2.0790   23.9438  -30.4650 H   0  0  0  0  0  0  0  0  0  0  0  0
   -5.3571   23.6053  -29.7581 H   0  0  0  0  0  0  0  0  0  0  0  0
   -5.6969   25.3679  -29.6059 H   0  0  0  0  0  0  0  0  0  0  0  0
   -6.8410   25.3263  -31.5456 H   0  0  0  0  0  0  0  0  0  0  0  0
   -5.3689   24.7342  -32.4021 H   0  0  0  0  0  0  0  0  0  0  0  0
   -8.5450   23.9028  -30.9081 H   0  0  0  0  0  0  0  0  0  0  0  0
   -6.7366   16.6183  -32.4876 H   0  0  0  0  0  0  0  0  0  0  0  0
   -7.6945   16.9636  -33.9674 H   0  0  0  0  0  0  0  0  0  0  0  0
   -5.9170   17.2226  -33.9674 H   0  0  0  0  0  0  0  0  0  0  0  0
   -3.9903   19.4827  -32.6092 H   0  0  0  0  0  0  0  0  0  0  0  0
   -4.6284   18.6520  -34.0685 H   0  0  0  0  0  0  0  0  0  0  0  0
   -4.4233   20.4365  -34.0685 H   0  0  0  0  0  0  0  0  0  0  0  0
  1  2  1  0
  2  3  1  0
  3  4  1  0
  4  5  1  0
  5  6  1  0
  6  7  2  0
  7  8  1  0
  8  9  1  0
  9 10  1  0
 10 11  1  0
 10 12  2  0
 12 13  1  0
 12 14  1  0
 14 15  1  0
 15 16  2  0
 15  5  1  0
 14  8  2  0
  1 17  1  0
  1 18  1  0
  1 19  1  0
  3 20  1  0
  3 21  1  0
  4 22  1  0
  4 23  1  0
  6 24  1  0
 11 25  1  0
 11 26  1  0
 11 27  1  0
 13 28  1  0
 13 29  1  0
 13 30  1  0
M  END
>  <UniqueID>  (3) 
3

>  <SMILES>  (3) 
COCCn1cnc2sc(C)c(C)c2c1=O

>  <Energy>  (3) 
64.6510531204926

>  <Genealogy>  (3) 
COCCn1cnc2sc(C)c(C)c2c1=O (3D coordinates assigned)
COCCn1cnc2sc(C)c(C)c2c1=O (optimized conformer: 64.6510531204926 kcal/mol)

>  <smiles>  (3) 
COCCn1cnc2sc(C)c(C)c2c1=O

>  <score_type>  (3) 
oracle

>  <origin>  (3) 
adg

>  <m_score__min__energy>  (3) 
-6.8300000000000001

>  <m_primary>  (3) 
energy

$$$$
3:0
     RDKit          3D

 35 36  0  0  0  0  0  0  0  0999 V2000
   -1.1030   30.0030  -25.3860 C   0  0  0  0  0  0  0  0  0  0  0  0
   -0.5980   28.6430  -25.8510 C   0  0  0  0  0  0  0  0  0  0  0  0
   -0.4810   27.7280  -24.7190 N   0  0  0  0  0  0  0  0  0  0  0  0
    0.2810   27.9370  -23.6590 N   0  0  0  0  0  0  0  0  0  0  0  0
    0.1420   26.9040  -22.8440 N   0  0  0  0  0  0  0  0  0  0  0  0
   -0.7000   26.0100  -23.3450 N   0  0  0  0  0  0  0  0  0  0  0  0
   -1.0800   26.5370  -24.5240 C   0  0  0  0  0  0  0  0  0  0  0  0
   -2.2480   25.7560  -25.6400 S   0  0  0  0  0  0  0  0  0  0  0  0
   -0.9570   25.2250  -26.8100 C   0  0  0  0  0  0  0  0  0  0  0  0
   -1.5200   25.2120  -28.2020 C   0  0  0  0  0  0  0  0  0  0  0  0
   -1.2370   26.1750  -28.9670 O   0  0  0  0  0  0  0  0  0  0  0  0
   -2.4050   24.1640  -28.6620 N   0  0  0  0  0  0  0  0  0  0  0  0
   -1.9790   23.2250  -29.7070 C   0  0  0  0  0  0  0  0  0  0  0  0
   -3.7710   24.0740  -28.1290 C   0  0  0  0  0  0  0  0  0  0  0  0
   -4.7620   24.0940  -29.2500 C   0  0  0  0  0  0  0  0  0  0  0  0
   -5.6990   23.1080  -29.5220 C   0  0  0  0  0  0  0  0  0  0  0  0
   -6.4560   23.3700  -30.6710 C   0  0  0  0  0  0  0  0  0  0  0  0
   -6.1100   24.5540  -31.3090 C   0  0  0  0  0  0  0  0  0  0  0  0
   -4.8600   25.2750  -30.4430 S   0  0  0  0  0  0  0  0  0  0  0  0
   -1.1144   30.0336  -24.2865 H   0  0  0  0  0  0  0  0  0  0  0  0
   -0.4377   30.7914  -25.7679 H   0  0  0  0  0  0  0  0  0  0  0  0
   -2.1216   30.1661  -25.7679 H   0  0  0  0  0  0  0  0  0  0  0  0
   -1.3047   28.2251  -26.5830 H   0  0  0  0  0  0  0  0  0  0  0  0
    0.3931   28.7692  -26.3111 H   0  0  0  0  0  0  0  0  0  0  0  0
    0.6300   26.8050  -21.9270 H   0  0  0  0  0  0  0  0  0  0  0  0
   -0.1094   25.9246  -26.7635 H   0  0  0  0  0  0  0  0  0  0  0  0
   -0.6127   24.2148  -26.5435 H   0  0  0  0  0  0  0  0  0  0  0  0
   -1.5676   22.3182  -29.2396 H   0  0  0  0  0  0  0  0  0  0  0  0
   -2.8430   22.9555  -30.3322 H   0  0  0  0  0  0  0  0  0  0  0  0
   -1.2072   23.6977  -30.3322 H   0  0  0  0  0  0  0  0  0  0  0  0
   -3.8800   23.1368  -27.5635 H   0  0  0  0  0  0  0  0  0  0  0  0
   -3.9572   24.9333  -27.4681 H   0  0  0  0  0  0  0  0  0  0  0  0
   -5.8338   22.2116  -28.8988 H   0  0  0  0  0  0  0  0  0  0  0  0
   -7.2500   22.7008  -31.0339 H   0  0  0  0  0  0  0  0  0  0  0  0
   -6.5735   24.9523  -32.2236 H   0  0  0  0  0  0  0  0  0  0  0  0
  1  2  1  0
  2  3  1  0
  3  4  1  0
  4  5  2  0
  5  6  1  0
  6  7  2  0
  7  8  1  0
  8  9  1  0
  9 10  1  0
 10 11  2  0
 10 12  1  0
 12 13  1  0
 12 14  1  0
 14 15  1  0
 15 16  2  0
 16 17  1  0
 17 18  2  0
 18 19  1  0
  7  3  1  0
 19 15  1  0
  1 20  1  0
  1 21  1  0
  1 22  1  0
  2 23  1  0
  2 24  1  0
  5 25  1  0
  9 26  1  0
  9 27  1  0
 13 28  1  0
 13 29  1  0
 13 30  1  0
 14 31  1  0
 14 32  1  0
 16 33  1  0
 17 34  1  0
 18 35  1  0
M  CHG  1   5   1
M  END
>  <UniqueID>  (4) 
4

>  <SMILES>  (4) 
CCn1n[nH+]nc1SCC(=O)N(C)Cc1cccs1

>  <Energy>  (4) 
89.48126655508266

>  <Genealogy>  (4) 
CCn1n[nH+]nc1SCC(=O)N(C)Cc1cccs1 (protonated)
CCn1n[nH+]nc1SCC(=O)N(C)Cc1cccs1 (3D coordinates assigned)
CCn1n[nH+]nc1SCC(=O)N(C)Cc1cccs1 (optimized conformer: 89.48126655508266 kcal/mol)

>  <smiles>  (4) 
CCn1nnnc1SCC(=O)N(C)Cc1cccs1

>  <score_type>  (4) 
oracle

>  <origin>  (4) 
adg

>  <m_score__min__energy>  (4) 
-7.21

>  <m_primary>  (4) 
energy

$$$$
4:0
     RDKit          3D

 25 25  0  0  0  0  0  0  0  0999 V2000
   -6.3970   24.9240  -29.7660 C   0  0  0  0  0  0  0  0  0  0  0  0
   -5.6010   26.0610  -30.3940 C   0  0  0  0  0  0  0  0  0  0  0  0
   -4.2450   25.6720  -30.6000 O   0  0  0  0  0  0  0  0  0  0  0  0
   -3.7900   24.3570  -30.4580 C   0  0  0  0  0  0  0  0  0  0  0  0
   -4.1790   23.4490  -31.2430 O   0  0  0  0  0  0  0  0  0  0  0  0
   -2.8310   24.0270  -29.3580 C   0  0  0  0  0  0  0  0  0  0  0  0
   -2.0370   25.1970  -28.9760 N   0  0  0  0  0  0  0  0  0  0  0  0
   -0.9410   24.8360  -27.6710 S   0  0  0  0  0  0  0  0  0  0  0  0
    0.4430   24.6360  -28.2180 O   0  0  0  0  0  0  0  0  0  0  0  0
   -1.3780   23.5620  -27.0040 O   0  0  0  0  0  0  0  0  0  0  0  0
   -0.9150   26.1170  -26.4710 C   0  0  0  0  0  0  0  0  0  0  0  0
   -1.2740   25.9830  -25.1390 C   0  0  0  0  0  0  0  0  0  0  0  0
   -1.1790   27.1840  -24.4260 C   0  0  0  0  0  0  0  0  0  0  0  0
   -0.7500   28.2580  -25.1980 C   0  0  0  0  0  0  0  0  0  0  0  0
   -0.4890   27.7150  -26.7690 S   0  0  0  0  0  0  0  0  0  0  0  0
   -6.3434   25.0006  -28.6700 H   0  0  0  0  0  0  0  0  0  0  0  0
   -7.4469   24.9903  -30.0873 H   0  0  0  0  0  0  0  0  0  0  0  0
   -5.9754   23.9601  -30.0873 H   0  0  0  0  0  0  0  0  0  0  0  0
   -6.0518   26.3261  -31.3617 H   0  0  0  0  0  0  0  0  0  0  0  0
   -5.6219   26.9255  -29.7141 H   0  0  0  0  0  0  0  0  0  0  0  0
   -3.3969   23.6765  -28.4823 H   0  0  0  0  0  0  0  0  0  0  0  0
   -2.1462   23.2447  -29.7172 H   0  0  0  0  0  0  0  0  0  0  0  0
   -1.5993   25.0332  -24.6895 H   0  0  0  0  0  0  0  0  0  0  0  0
   -1.4208   27.2699  -23.3564 H   0  0  0  0  0  0  0  0  0  0  0  0
   -0.6056   29.2887  -24.8418 H   0  0  0  0  0  0  0  0  0  0  0  0
  1  2  1  0
  2  3  1  0
  3  4  1  0
  4  5  2  0
  4  6  1  0
  6  7  1  0
  7  8  1  0
  8  9  2  0
  8 10  2  0
  8 11  1  0
 11 12  2  0
 12 13  1  0
 13 14  2  0
 14 15  1  0
 15 11  1  0
  1 16  1  0
  1 17  1  0
  1 18  1  0
  2 19  1  0
  2 20  1  0
  6 21  1  0
  6 22  1  0
 12 23  1  0
 13 24  1  0
 14 25  1  0
M  CHG  1   7  -1
M  END
>  <UniqueID>  (5) 
5

>  <SMILES>  (5) 
CCOC(=O)C[N-]S(=O)(=O)c1cccs1

>  <Energy>  (5) 
42.23658077736704

>  <Genealogy>  (5) 
CCOC(=O)C[N-]S(=O)(=O)c1cccs1 (protonated)
CCOC(=O)C[N-]S(=O)(=O)c1cccs1 (3D coordinates assigned)
CCOC(=O)C[N-]S(=O)(=O)c1cccs1 (optimized conformer: 42.23658077736704 kcal/mol)

>  <smiles>  (5) 
CCOC(=O)CNS(=O)(=O)c1cccs1

>  <score_type>  (5) 
oracle

>  <origin>  (5) 
adg

>  <m_score__min__energy>  (5) 
-7.3300000000000001

>  <m_primary>  (5) 
energy

$$$$
5:0
     RDKit          3D

 50 52  0  0  0  0  0  0  0  0999 V2000
   -5.8930   19.0290  -34.0520 C   0  0  0  0  0  0  0  0  0  0  0  0
   -4.5240   19.3620  -33.5510 C   0  0  0  0  0  0  0  0  0  0  0  0
   -4.3610   20.1770  -32.4290 C   0  0  0  0  0  0  0  0  0  0  0  0
   -3.0600   20.4820  -31.9910 C   0  0  0  0  0  0  0  0  0  0  0  0
   -2.8520   21.3200  -30.8320 N   0  0  0  0  0  0  0  0  0  0  0  0
   -3.0920   20.8910  -29.4620 C   0  0  0  0  0  0  0  0  0  0  0  0
   -2.5530   22.0100  -28.5810 C   0  0  0  0  0  0  0  0  0  0  0  0
   -2.5290   23.2640  -29.4780 C   0  0  2  0  0  0  0  0  0  0  0  0
   -1.3470   24.1910  -29.1190 C   0  0  0  0  0  0  0  0  0  0  0  0
   -3.8670   24.0490  -29.3830 C   0  0  0  0  0  0  0  0  0  0  0  0
   -3.8540   25.2300  -30.2680 N   0  0  0  0  0  0  0  0  0  0  0  0
   -5.2000   25.5760  -30.7420 C   0  0  0  0  0  0  0  0  0  0  0  0
   -6.0310   24.3390  -30.8830 C   0  0  0  0  0  0  0  0  0  0  0  0
   -6.9340   23.8600  -29.9400 C   0  0  0  0  0  0  0  0  0  0  0  0
   -7.6070   22.7070  -30.3590 C   0  0  0  0  0  0  0  0  0  0  0  0
   -7.2460   22.2970  -31.6370 C   0  0  0  0  0  0  0  0  0  0  0  0
   -7.7390   21.0700  -32.3280 C   0  0  0  0  0  0  0  0  0  0  0  0
   -6.0720   23.3420  -32.2370 S   0  0  0  0  0  0  0  0  0  0  0  0
   -2.3640   22.6900  -30.9000 C   0  0  0  0  0  0  0  0  0  0  0  0
   -1.9950   19.9720  -32.6800 N   0  0  0  0  0  0  0  0  0  0  0  0
   -2.1760   19.1890  -33.7810 C   0  0  0  0  0  0  0  0  0  0  0  0
   -0.9960   18.6290  -34.5110 C   0  0  0  0  0  0  0  0  0  0  0  0
   -3.4310   18.8890  -34.2020 N   0  0  0  0  0  0  0  0  0  0  0  0
   -6.5663   18.8652  -33.1977 H   0  0  0  0  0  0  0  0  0  0  0  0
   -6.2722   19.8611  -34.6634 H   0  0  0  0  0  0  0  0  0  0  0  0
   -5.8476   18.1157  -34.6634 H   0  0  0  0  0  0  0  0  0  0  0  0
   -5.2371   20.5745  -31.8957 H   0  0  0  0  0  0  0  0  0  0  0  0
   -4.1688   20.7497  -29.2871 H   0  0  0  0  0  0  0  0  0  0  0  0
   -2.6017   19.9306  -29.2449 H   0  0  0  0  0  0  0  0  0  0  0  0
   -3.2123   22.1692  -27.7150 H   0  0  0  0  0  0  0  0  0  0  0  0
   -1.5550   21.7726  -28.1840 H   0  0  0  0  0  0  0  0  0  0  0  0
   -1.2561   24.2623  -28.0251 H   0  0  0  0  0  0  0  0  0  0  0  0
   -0.4173   23.7787  -29.5381 H   0  0  0  0  0  0  0  0  0  0  0  0
   -1.5258   25.1922  -29.5381 H   0  0  0  0  0  0  0  0  0  0  0  0
   -4.6938   23.3869  -29.6796 H   0  0  0  0  0  0  0  0  0  0  0  0
   -3.9986   24.3910  -28.3458 H   0  0  0  0  0  0  0  0  0  0  0  0
   -3.4950   26.0460  -29.7190 H   0  0  0  0  0  0  0  0  0  0  0  0
   -5.6770   26.2540  -30.0189 H   0  0  0  0  0  0  0  0  0  0  0  0
   -5.1202   26.0690  -31.7221 H   0  0  0  0  0  0  0  0  0  0  0  0
   -7.1021   24.3388  -28.9640 H   0  0  0  0  0  0  0  0  0  0  0  0
   -8.3468   22.1786  -29.7397 H   0  0  0  0  0  0  0  0  0  0  0  0
   -8.0392   20.3228  -31.5787 H   0  0  0  0  0  0  0  0  0  0  0  0
   -8.6040   21.3261  -32.9574 H   0  0  0  0  0  0  0  0  0  0  0  0
   -6.9372   20.6564  -32.9574 H   0  0  0  0  0  0  0  0  0  0  0  0
   -2.9572   23.2730  -31.6199 H   0  0  0  0  0  0  0  0  0  0  0  0
   -1.3171   22.7315  -31.2352 H   0  0  0  0  0  0  0  0  0  0  0  0
   -1.0200   20.1710  -32.3670 H   0  0  0  0  0  0  0  0  0  0  0  0
   -0.2497   18.2748  -33.7846 H   0  0  0  0  0  0  0  0  0  0  0  0
   -1.3205   17.7888  -35.1425 H   0  0  0  0  0  0  0  0  0  0  0  0
   -0.5503   19.4116  -35.1425 H   0  0  0  0  0  0  0  0  0  0  0  0
  1  2  1  0
  2  3  2  0
  3  4  1  0
  4  5  1  0
  5  6  1  0
  6  7  1  0
  7  8  1  0
  8  9  1  1
  8 10  1  0
 10 11  1  0
 11 12  1  0
 12 13  1  0
 13 14  2  0
 14 15  1  0
 15 16  2  0
 16 17  1  0
 16 18  1  0
  8 19  1  0
  4 20  2  0
 20 21  1  0
 21 22  1  0
 21 23  2  0
 23  2  1  0
 19  5  1  0
 18 13  1  0
  1 24  1  0
  1 25  1  0
  1 26  1  0
  3 27  1  0
  6 28  1  0
  6 29  1  0
  7 30  1  0
  7 31  1  0
  9 32  1  0
  9 33  1  0
  9 34  1  0
 10 35  1  0
 10 36  1  0
 11 37  1  0
 12 38  1  0
 12 39  1  0
 14 40  1  0
 15 41  1  0
 17 42  1  0
 17 43  1  0
 17 44  1  0
 19 45  1  0
 19 46  1  0
 20 47  1  0
 22 48  1  0
 22 49  1  0
 22 50  1  0
M  CHG  1  20   1
M  END
>  <UniqueID>  (6) 
6

>  <SMILES>  (6) 
Cc1cc(N2CC[C@](C)(CNCc3ccc(C)s3)C2)[nH+]c(C)n1

>  <Energy>  (6) 
72.79438493748309

>  <Genealogy>  (6) 
Cc1cc(N2CCC(C)(CNCc3ccc(C)s3)C2)[nH+]c(C)n1 (protonated)
Cc1cc(N2CC[C@](C)(CNCc3ccc(C)s3)C2)[nH+]c(C)n1 (chirality)
Cc1cc(N2CC[C@](C)(CNCc3ccc(C)s3)C2)[nH+]c(C)n1 (3D coordinates assigned)
Cc1cc(N2CC[C@](C)(CNCc3ccc(C)s3)C2)[nH+]c(C)n1 (nonaromatic ring conformer: 72.79438493748309 kcal/mol)

>  <smiles>  (6) 
Cc1cc(N2CCC(C)(CNCc3ccc(C)s3)C2)nc(C)n1

>  <score_type>  (6) 
oracle

>  <origin>  (6) 
adg

>  <m_score__min__energy>  (6) 
-7.6600000000000001

>  <m_primary>  (6) 
energy

$$$$
6:0
     RDKit          3D

 49 50  0  0  0  0  0  0  0  0999 V2000
   -3.0160   23.5150  -29.0650 C   0  0  0  0  0  0  0  0  0  0  0  0
   -3.6830   23.9000  -30.3820 C   0  0  0  0  0  0  0  0  0  0  0  0
   -3.8170   25.3060  -30.4660 O   0  0  0  0  0  0  0  0  0  0  0  0
   -5.1670   25.6650  -30.6670 C   0  0  0  0  0  0  0  0  0  0  0  0
   -5.9980   25.1460  -29.5020 C   0  0  0  0  0  0  0  0  0  0  0  0
   -7.2450   24.6890  -29.9810 O   0  0  0  0  0  0  0  0  0  0  0  0
   -7.0700   23.5690  -30.8290 C   0  0  0  0  0  0  0  0  0  0  0  0
   -7.6900   22.3230  -30.1850 C   0  0  0  0  0  0  0  0  0  0  0  0
   -7.6360   21.1750  -31.1130 N   0  0  0  0  0  0  0  0  0  0  0  0
   -8.7430   20.2350  -30.8450 C   0  0  0  0  0  0  0  0  0  0  0  0
   -8.8450   19.1400  -31.9330 C   0  0  0  0  0  0  0  0  0  0  0  0
   -7.6430   19.0900  -32.7940 N   0  0  0  0  0  0  0  0  0  0  0  0
   -6.4800   18.6330  -32.0430 C   0  0  0  0  0  0  0  0  0  0  0  0
   -6.5870   17.7200  -31.1750 O   0  0  0  0  0  0  0  0  0  0  0  0
   -5.1360   19.2060  -32.2980 C   0  0  0  0  0  0  0  0  0  0  0  0
   -4.5750   20.1110  -31.3780 C   0  0  0  0  0  0  0  0  0  0  0  0
   -3.3090   20.6550  -31.6010 C   0  0  0  0  0  0  0  0  0  0  0  0
   -2.5860   20.3050  -32.7430 C   0  0  0  0  0  0  0  0  0  0  0  0
   -0.8550   21.0530  -33.0460 Br  0  0  0  0  0  0  0  0  0  0  0  0
   -3.1330   19.4120  -33.6680 C   0  0  0  0  0  0  0  0  0  0  0  0
   -4.4020   18.8600  -33.4550 C   0  0  0  0  0  0  0  0  0  0  0  0
   -5.0630   17.7940  -34.6910 Cl  0  0  0  0  0  0  0  0  0  0  0  0
   -7.4370   20.3980  -33.4660 C   0  0  0  0  0  0  0  0  0  0  0  0
   -7.6620   21.6050  -32.5240 C   0  0  0  0  0  0  0  0  0  0  0  0
   -3.6311   23.8700  -28.2250 H   0  0  0  0  0  0  0  0  0  0  0  0
   -2.9170   22.4208  -29.0102 H   0  0  0  0  0  0  0  0  0  0  0  0
   -2.0190   23.9766  -29.0102 H   0  0  0  0  0  0  0  0  0  0  0  0
   -3.0668   23.5425  -31.2201 H   0  0  0  0  0  0  0  0  0  0  0  0
   -4.6810   23.4397  -30.4284 H   0  0  0  0  0  0  0  0  0  0  0  0
   -5.2529   26.7603  -30.7219 H   0  0  0  0  0  0  0  0  0  0  0  0
   -5.5316   25.2261  -31.6074 H   0  0  0  0  0  0  0  0  0  0  0  0
   -5.4664   24.3163  -29.0132 H   0  0  0  0  0  0  0  0  0  0  0  0
   -6.1585   25.9566  -28.7759 H   0  0  0  0  0  0  0  0  0  0  0  0
   -7.5604   23.7626  -31.7944 H   0  0  0  0  0  0  0  0  0  0  0  0
   -5.9946   23.3982  -30.9851 H   0  0  0  0  0  0  0  0  0  0  0  0
   -7.1328   22.0742  -29.2698 H   0  0  0  0  0  0  0  0  0  0  0  0
   -8.7423   22.5350  -29.9449 H   0  0  0  0  0  0  0  0  0  0  0  0
   -8.5730   19.7537  -29.8706 H   0  0  0  0  0  0  0  0  0  0  0  0
   -9.6833   20.8059  -30.8461 H   0  0  0  0  0  0  0  0  0  0  0  0
   -8.9690   18.1637  -31.4417 H   0  0  0  0  0  0  0  0  0  0  0  0
   -9.7071   19.3804  -32.5725 H   0  0  0  0  0  0  0  0  0  0  0  0
   -7.8250   18.3900  -33.5490 H   0  0  0  0  0  0  0  0  0  0  0  0
   -5.1385   20.3919  -30.4761 H   0  0  0  0  0  0  0  0  0  0  0  0
   -2.8798   21.3613  -30.8751 H   0  0  0  0  0  0  0  0  0  0  0  0
   -2.5632   19.1410  -34.5690 H   0  0  0  0  0  0  0  0  0  0  0  0
   -6.4056   20.4379  -33.8463 H   0  0  0  0  0  0  0  0  0  0  0  0
   -8.1772   20.4712  -34.2764 H   0  0  0  0  0  0  0  0  0  0  0  0
   -6.8668   22.3466  -32.6905 H   0  0  0  0  0  0  0  0  0  0  0  0
   -8.6458   22.0461  -32.7420 H   0  0  0  0  0  0  0  0  0  0  0  0
  1  2  1  0
  2  3  1  0
  3  4  1  0
  4  5  1  0
  5  6  1  0
  6  7  1  0
  7  8  1  0
  8  9  1  0
  9 10  1  0
 10 11  1  0
 11 12  1  0
 12 13  1  0
 13 14  2  0
 13 15  1  0
 15 16  2  0
 16 17  1  0
 17 18  2  0
 18 19  1  0
 18 20  1  0
 20 21  2  0
 21 22  1  0
 12 23  1  0
 23 24  1  0
 24  9  1  0
 21 15  1  0
  1 25  1  0
  1 26  1  0
  1 27  1  0
  2 28  1  0
  2 29  1  0
  4 30  1  0
  4 31  1  0
  5 32  1  0
  5 33  1  0
  7 34  1  0
  7 35  1  0
  8 36  1  0
  8 37  1  0
 10 38  1  0
 10 39  1  0
 11 40  1  0
 11 41  1  0
 12 42  1  0
 16 43  1  0
 17 44  1  0
 20 45  1  0
 23 46  1  0
 23 47  1  0
 24 48  1  0
 24 49  1  0
M  CHG  1  12   1
M  END
>  <UniqueID>  (7) 
7

>  <SMILES>  (7) 
CCOCCOCCN1CC[NH+](C(=O)c2ccc(Br)cc2Cl)CC1

>  <Energy>  (7) 
65.14682617637249

>  <Genealogy>  (7) 
CCOCCOCCN1CC[NH+](C(=O)c2ccc(Br)cc2Cl)CC1 (protonated)
CCOCCOCCN1CC[NH+](C(=O)c2ccc(Br)cc2Cl)CC1 (3D coordinates assigned)
CCOCCOCCN1CC[NH+](C(=O)c2ccc(Br)cc2Cl)CC1 (nonaromatic ring conformer: 65.14682617637249 kcal/mol)

>  <smiles>  (7) 
CCOCCOCCN1CCN(C(=O)c2ccc(Br)cc2Cl)CC1

>  <score_type>  (7) 
oracle

>  <origin>  (7) 
adg

>  <m_score__min__energy>  (7) 
-7.0099999999999998

>  <m_primary>  (7) 
energy

$$$$
7:0
     RDKit          3D

 33 35  0  0  0  0  0  0  0  0999 V2000
   -9.7130   19.3520  -33.3590 O   0  0  0  0  0  0  0  0  0  0  0  0
   -8.6430   19.0870  -32.3360 S   0  0  0  0  0  0  0  0  0  0  0  0
   -9.2130   18.1820  -31.2810 O   0  0  0  0  0  0  0  0  0  0  0  0
   -7.2570   18.3240  -33.1050 C   0  0  0  0  0  0  0  0  0  0  0  0
   -6.4410   19.0590  -33.9770 C   0  0  0  0  0  0  0  0  0  0  0  0
   -5.3500   18.4470  -34.6030 C   0  0  0  0  0  0  0  0  0  0  0  0
   -5.0740   17.0970  -34.3650 C   0  0  0  0  0  0  0  0  0  0  0  0
   -5.8910   16.3570  -33.5040 C   0  0  0  0  0  0  0  0  0  0  0  0
   -6.9820   16.9670  -32.8770 C   0  0  0  0  0  0  0  0  0  0  0  0
   -8.1370   20.5960  -31.6050 C   0  0  0  0  0  0  0  0  0  0  0  0
   -8.7240   21.1410  -30.5170 N   0  0  0  0  0  0  0  0  0  0  0  0
   -8.1570   22.2740  -30.1130 N   0  0  0  0  0  0  0  0  0  0  0  0
   -7.1050   22.6350  -30.8810 C   0  0  0  0  0  0  0  0  0  0  0  0
   -6.3280   23.8170  -30.6480 N   0  0  0  0  0  0  0  0  0  0  0  0
   -4.9290   23.9330  -31.0170 C   0  0  0  0  0  0  0  0  0  0  0  0
   -4.4670   25.2670  -30.4450 C   0  0  0  0  0  0  0  0  0  0  0  0
   -5.7380   26.0490  -30.1180 C   0  0  0  0  0  0  0  0  0  0  0  0
   -6.8530   25.0150  -30.0190 C   0  0  0  0  0  0  0  0  0  0  0  0
   -6.8330   21.5260  -32.1260 S   0  0  0  0  0  0  0  0  0  0  0  0
   -6.6595   20.1198  -34.1693 H   0  0  0  0  0  0  0  0  0  0  0  0
   -4.7091   19.0278  -35.2826 H   0  0  0  0  0  0  0  0  0  0  0  0
   -4.2141   16.6169  -34.8550 H   0  0  0  0  0  0  0  0  0  0  0  0
   -5.6751   15.2942  -33.3199 H   0  0  0  0  0  0  0  0  0  0  0  0
   -7.6258   16.3820  -32.2038 H   0  0  0  0  0  0  0  0  0  0  0  0
   -9.5430   20.7190  -30.0260 H   0  0  0  0  0  0  0  0  0  0  0  0
   -4.3471   23.1064  -30.5832 H   0  0  0  0  0  0  0  0  0  0  0  0
   -4.7890   23.8857  -32.1070 H   0  0  0  0  0  0  0  0  0  0  0  0
   -3.8721   25.1065  -29.5337 H   0  0  0  0  0  0  0  0  0  0  0  0
   -3.8313   25.8122  -31.1582 H   0  0  0  0  0  0  0  0  0  0  0  0
   -5.6241   26.5812  -29.1620 H   0  0  0  0  0  0  0  0  0  0  0  0
   -5.9558   26.8043  -30.8875 H   0  0  0  0  0  0  0  0  0  0  0  0
   -7.1026   24.8184  -28.9659 H   0  0  0  0  0  0  0  0  0  0  0  0
   -7.7755   25.3616  -30.5077 H   0  0  0  0  0  0  0  0  0  0  0  0
  1  2  2  0
  2  3  2  0
  2  4  1  0
  4  5  2  0
  5  6  1  0
  6  7  2  0
  7  8  1  0
  8  9  2  0
  2 10  1  0
 10 11  2  0
 11 12  1  0
 12 13  2  0
 13 14  1  0
 14 15  1  0
 15 16  1  0
 16 17  1  0
 17 18  1  0
 13 19  1  0
  9  4  1  0
 19 10  1  0
 18 14  1  0
  5 20  1  0
  6 21  1  0
  7 22  1  0
  8 23  1  0
  9 24  1  0
 11 25  1  0
 15 26  1  0
 15 27  1  0
 16 28  1  0
 16 29  1  0
 17 30  1  0
 17 31  1  0
 18 32  1  0
 18 33  1  0
M  CHG  1  11   1
M  END
>  <UniqueID>  (8) 
8

>  <SMILES>  (8) 
O=S(=O)(c1ccccc1)c1[nH+]nc(N2CCCC2)s1

>  <Energy>  (8) 
68.13545756437453

>  <Genealogy>  (8) 
O=S(=O)(c1ccccc1)c1[nH+]nc(N2CCCC2)s1 (protonated)
O=S(=O)(c1ccccc1)c1[nH+]nc(N2CCCC2)s1 (3D coordinates assigned)
O=S(=O)(c1ccccc1)c1[nH+]nc(N2CCCC2)s1 (nonaromatic ring conformer: 68.13545756437453 kcal/mol)

>  <smiles>  (8) 
O=S(=O)(c1ccccc1)c1nnc(N2CCCC2)s1

>  <score_type>  (8) 
oracle

>  <origin>  (8) 
adg

>  <m_score__min__energy>  (8) 
-7.1200000000000001

>  <m_primary>  (8) 
energy

$$$$
8:0
     RDKit          3D

 36 38  0  0  0  0  0  0  0  0999 V2000
   -5.8511   24.7565  -32.6502 H   0  0  0  0  0  0  0  0  0  0  0  0
   -5.9910   24.5390  -31.5810 C   0  0  0  0  0  0  0  0  0  0  0  0
   -5.2930   25.3740  -30.5890 C   0  0  0  0  0  0  0  0  0  0  0  0
   -5.9750   26.0940  -29.8120 O   0  0  0  0  0  0  0  0  0  0  0  0
   -3.8640   25.3270  -30.4690 N   0  0  0  0  0  0  0  0  0  0  0  0
   -3.0990   24.3870  -29.6990 C   0  0  0  0  0  0  0  0  0  0  0  0
   -3.4230   23.0180  -29.6530 C   0  0  0  0  0  0  0  0  0  0  0  0
   -4.2750   22.6362  -30.2347 H   0  0  0  0  0  0  0  0  0  0  0  0
   -2.6650   22.1420  -28.8700 C   0  0  0  0  0  0  0  0  0  0  0  0
   -2.9156   21.0712  -28.8455 H   0  0  0  0  0  0  0  0  0  0  0  0
   -1.5890   22.6240  -28.1180 C   0  0  0  0  0  0  0  0  0  0  0  0
   -0.8570   21.7730  -27.3590 F   0  0  0  0  0  0  0  0  0  0  0  0
   -1.2780   23.9850  -28.1410 C   0  0  0  0  0  0  0  0  0  0  0  0
   -0.4363   24.3660  -27.5440 H   0  0  0  0  0  0  0  0  0  0  0  0
   -2.0350   24.8650  -28.9220 C   0  0  0  0  0  0  0  0  0  0  0  0
   -1.7937   25.9382  -28.9262 H   0  0  0  0  0  0  0  0  0  0  0  0
   -6.7910   23.5230  -31.2270 C   0  0  0  0  0  0  0  0  0  0  0  0
   -7.5625   23.7106  -30.4656 H   0  0  0  0  0  0  0  0  0  0  0  0
   -6.6940   22.1590  -31.8050 C   0  0  0  0  0  0  0  0  0  0  0  0
   -5.4340   21.6840  -32.1990 C   0  0  0  0  0  0  0  0  0  0  0  0
   -4.5489   22.3265  -32.0816 H   0  0  0  0  0  0  0  0  0  0  0  0
   -5.2920   20.4030  -32.7390 C   0  0  0  0  0  0  0  0  0  0  0  0
   -4.2979   20.0506  -33.0513 H   0  0  0  0  0  0  0  0  0  0  0  0
   -6.4080   19.5600  -32.8870 C   0  0  0  0  0  0  0  0  0  0  0  0
   -6.2600   18.2380  -33.4440 N   0  0  0  0  0  0  0  0  0  0  0  0
   -5.4130   17.8490  -34.4220 C   0  0  0  0  0  0  0  0  0  0  0  0
   -4.7100   18.5287  -34.9257 H   0  0  0  0  0  0  0  0  0  0  0  0
   -5.5230   16.5360  -34.7140 N   0  0  0  0  0  0  0  0  0  0  0  0
   -6.4790   16.0880  -33.8780 C   0  0  0  0  0  0  0  0  0  0  0  0
   -6.8397   15.0501  -33.8259 H   0  0  0  0  0  0  0  0  0  0  0  0
   -6.9360   17.1260  -33.0990 C   0  0  0  0  0  0  0  0  0  0  0  0
   -7.7179   17.0589  -32.3282 H   0  0  0  0  0  0  0  0  0  0  0  0
   -7.6680   20.0290  -32.4750 C   0  0  0  0  0  0  0  0  0  0  0  0
   -8.5506   19.3804  -32.5772 H   0  0  0  0  0  0  0  0  0  0  0  0
   -7.8100   21.3110  -31.9370 C   0  0  0  0  0  0  0  0  0  0  0  0
   -8.8018   21.6603  -31.6141 H   0  0  0  0  0  0  0  0  0  0  0  0
  1  2  1  0
  2  3  1  0
  3  4  2  0
  3  5  1  0
  5  6  1  0
  6  7  2  0
  7  8  1  0
  7  9  1  0
  9 10  1  0
  9 11  2  0
 11 12  1  0
 11 13  1  0
 13 14  1  0
 13 15  2  0
 15 16  1  0
  2 17  2  0
 17 18  1  0
 17 19  1  0
 19 20  2  0
 20 21  1  0
 20 22  1  0
 22 23  1  0
 22 24  2  0
 24 25  1  0
 25 26  1  0
 26 27  1  0
 26 28  2  0
 28 29  1  0
 29 30  1  0
 29 31  2  0
 31 32  1  0
 24 33  1  0
 33 34  1  0
 33 35  2  0
 35 36  1  0
 15  6  1  0
 35 19  1  0
 31 25  1  0
M  CHG  1   5  -1
M  END
>  <UniqueID>  (9) 
9

>  <SMILES>  (9) 
O=C(/C=C/c1ccc(-n2ccnc2)cc1)[N-]c1ccc(F)cc1

>  <Energy>  (9) 
76.21081782312545

>  <Genealogy>  (9) 
O=C(C=Cc1ccc(-n2ccnc2)cc1)[N-]c1ccc(F)cc1 (protonated)
O=C(/C=C/c1ccc(-n2ccnc2)cc1)[N-]c1ccc(F)cc1 (cis-trans isomerization)
O=C(/C=C/c1ccc(-n2ccnc2)cc1)[N-]c1ccc(F)cc1 (3D coordinates assigned)
O=C(/C=C/c1ccc(-n2ccnc2)cc1)[N-]c1ccc(F)cc1 (optimized conformer: 76.21081782312545 kcal/mol)

>  <smiles>  (9) 
O=C(C=Cc1ccc(-n2ccnc2)cc1)Nc1ccc(F)cc1

>  <score_type>  (9) 
oracle

>  <origin>  (9) 
adg

>  <m_score__min__energy>  (9) 
-9.4700000000000006

>  <m_primary>  (9) 
energy

$$$$
9:0
     RDKit          3D

 72 75  0  0  1  0  0  0  0  0999 V2000
   -5.7410   25.0210  -29.4050 C   0  0  0  0  0  0  0  0  0  0  0  0
   -6.8990   24.4750  -30.1610 C   0  0  0  0  0  0  0  0  0  0  0  0
   -7.1700   23.0230  -29.9610 C   0  0  0  0  0  0  0  0  0  0  0  0
   -7.8420   22.3150  -30.9420 N   0  0  0  0  0  0  0  0  0  0  0  0
   -8.7560   21.2920  -30.7510 C   0  0  0  0  0  0  0  0  0  0  0  0
   -9.2300   20.5880  -31.9790 C   0  0  0  0  0  0  0  0  0  0  0  0
   -9.1250   19.1110  -32.0420 C   0  0  0  0  0  0  0  0  0  0  0  0
   -7.6800   22.7510  -32.3170 C   0  0  0  0  0  0  0  0  0  0  0  0
   -6.2500   22.8330  -32.7040 C   0  0  0  0  0  0  0  0  0  0  0  0
   -5.5240   21.6090  -32.7350 N   0  0  0  0  0  0  0  0  0  0  0  0
   -6.1120   20.4120  -33.0540 C   0  0  0  0  0  0  0  0  0  0  0  0
   -5.1770   19.4370  -33.0030 C   0  0  0  0  0  0  0  0  0  0  0  0
   -5.4080   18.0050  -33.2840 C   0  0  0  0  0  0  0  0  0  0  0  0
   -6.6110   17.6010  -33.8300 C   0  0  0  0  0  0  0  0  0  0  0  0
   -6.8620   16.2830  -34.1040 C   0  0  0  0  0  0  0  0  0  0  0  0
   -5.8840   15.3630  -33.8210 C   0  0  0  0  0  0  0  0  0  0  0  0
   -4.6750   15.7730  -33.2710 C   0  0  0  0  0  0  0  0  0  0  0  0
   -4.4720   17.0790  -33.0190 N   0  0  0  0  0  0  0  0  0  0  0  0
   -4.0290   19.9930  -32.6610 N   0  0  0  0  0  0  0  0  0  0  0  0
   -4.2310   21.3120  -32.4980 C   0  0  0  0  0  0  0  0  0  0  0  0
   -3.2110   22.2990  -32.1140 C   0  0  0  0  0  0  0  0  0  0  0  0
   -3.6860   23.1610  -30.9790 C   0  0  0  0  0  0  0  0  0  0  0  0
   -3.2460   22.7210  -29.6300 C   0  0  0  0  0  0  0  0  0  0  0  0
   -1.9510   22.0840  -29.6100 N   0  0  0  0  0  0  0  0  0  0  0  0
   -0.8500   22.4650  -28.8000 C   0  0  0  0  0  0  0  0  0  0  0  0
   -0.0720   21.5270  -28.1960 N   0  0  0  0  0  0  0  0  0  0  0  0
    1.0040   21.8620  -27.4400 C   0  0  0  0  0  0  0  0  0  0  0  0
    1.3760   23.1280  -27.2320 N   0  0  0  0  0  0  0  0  0  0  0  0
    0.6430   24.1090  -27.8050 C   0  0  0  0  0  0  0  0  0  0  0  0
    1.0090   25.3220  -27.5950 N   0  0  0  0  0  0  0  0  0  0  0  0
    0.1380   26.1990  -26.8180 C   0  0  0  0  0  0  0  0  0  0  0  0
   -0.4670   23.7730  -28.5880 C   0  0  0  0  0  0  0  0  0  0  0  0
   -1.1150   24.8270  -29.1310 F   0  0  0  0  0  0  0  0  0  0  0  0
   -1.8400   20.9700  -30.5740 C   0  0  0  0  0  0  0  0  0  0  0  0
   -1.8910   21.6550  -31.9220 C   0  0  0  0  0  0  0  0  0  0  0  0
   -5.9324   24.9308  -28.3255 H   0  0  0  0  0  0  0  0  0  0  0  0
   -4.8339   24.4557  -29.6651 H   0  0  0  0  0  0  0  0  0  0  0  0
   -5.6000   26.0805  -29.6651 H   0  0  0  0  0  0  0  0  0  0  0  0
   -7.7966   25.0324  -29.8549 H   0  0  0  0  0  0  0  0  0  0  0  0
   -6.6460   24.5908  -31.2252 H   0  0  0  0  0  0  0  0  0  0  0  0
   -6.1957   22.5316  -29.8220 H   0  0  0  0  0  0  0  0  0  0  0  0
   -7.8633   23.0042  -29.1072 H   0  0  0  0  0  0  0  0  0  0  0  0
   -8.2879   20.5430  -30.0954 H   0  0  0  0  0  0  0  0  0  0  0  0
   -9.6494   21.7736  -30.3269 H   0  0  0  0  0  0  0  0  0  0  0  0
  -10.2925   20.8421  -32.1073 H   0  0  0  0  0  0  0  0  0  0  0  0
   -8.5450   20.9366  -32.7659 H   0  0  0  0  0  0  0  0  0  0  0  0
   -9.0959   18.7016  -31.0214 H   0  0  0  0  0  0  0  0  0  0  0  0
   -9.9965   18.7039  -32.5757 H   0  0  0  0  0  0  0  0  0  0  0  0
   -8.2047   18.8313  -32.5757 H   0  0  0  0  0  0  0  0  0  0  0  0
   -8.1878   22.0349  -32.9798 H   0  0  0  0  0  0  0  0  0  0  0  0
   -8.1179   23.7557  -32.4110 H   0  0  0  0  0  0  0  0  0  0  0  0
   -6.2020   23.2743  -33.7104 H   0  0  0  0  0  0  0  0  0  0  0  0
   -5.7715   23.4325  -31.9156 H   0  0  0  0  0  0  0  0  0  0  0  0
   -7.1722   20.2685  -33.3098 H   0  0  0  0  0  0  0  0  0  0  0  0
   -7.3830   18.3534  -34.0491 H   0  0  0  0  0  0  0  0  0  0  0  0
   -7.8224   15.9700  -34.5395 H   0  0  0  0  0  0  0  0  0  0  0  0
   -6.0574   14.2971  -34.0302 H   0  0  0  0  0  0  0  0  0  0  0  0
   -3.8908   15.0359  -33.0437 H   0  0  0  0  0  0  0  0  0  0  0  0
   -3.0534   23.0055  -32.9423 H   0  0  0  0  0  0  0  0  0  0  0  0
   -3.3098   24.1813  -31.1447 H   0  0  0  0  0  0  0  0  0  0  0  0
   -4.7840   23.0947  -30.9811 H   0  0  0  0  0  0  0  0  0  0  0  0
   -3.2067   23.6037  -28.9747 H   0  0  0  0  0  0  0  0  0  0  0  0
   -3.9737   21.9699  -29.2889 H   0  0  0  0  0  0  0  0  0  0  0  0
   -0.2490   20.5060  -28.2620 H   0  0  0  0  0  0  0  0  0  0  0  0
    1.5949   21.0569  -26.9789 H   0  0  0  0  0  0  0  0  0  0  0  0
    0.3082   26.0276  -25.7448 H   0  0  0  0  0  0  0  0  0  0  0  0
    0.3620   27.2480  -27.0619 H   0  0  0  0  0  0  0  0  0  0  0  0
   -0.9125   25.9822  -27.0619 H   0  0  0  0  0  0  0  0  0  0  0  0
   -0.8897   20.4316  -30.4434 H   0  0  0  0  0  0  0  0  0  0  0  0
   -2.6323   20.2173  -30.4483 H   0  0  0  0  0  0  0  0  0  0  0  0
   -1.1020   22.4198  -31.9719 H   0  0  0  0  0  0  0  0  0  0  0  0
   -1.7361   20.9066  -32.7132 H   0  0  0  0  0  0  0  0  0  0  0  0
  1  2  1  0
  2  3  1  0
  3  4  1  0
  4  5  1  0
  5  6  1  0
  6  7  1  0
  4  8  1  0
  8  9  1  0
  9 10  1  0
 10 11  1  0
 11 12  2  0
 12 13  1  0
 13 14  2  0
 14 15  1  0
 15 16  2  0
 16 17  1  0
 17 18  2  0
 12 19  1  0
 19 20  2  0
 20 21  1  0
 21 22  1  0
 22 23  1  0
 23 24  1  0
 24 25  1  0
 25 26  1  0
 26 27  1  0
 27 28  2  0
 28 29  1  0
 29 30  2  0
 30 31  1  0
 29 32  1  0
 32 33  1  0
 24 34  1  0
 34 35  1  0
 20 10  1  0
 35 21  1  0
 18 13  1  0
 32 25  2  0
  1 36  1  0
  1 37  1  0
  1 38  1  0
  2 39  1  0
  2 40  1  0
  3 41  1  0
  3 42  1  0
  5 43  1  0
  5 44  1  0
  6 45  1  0
  6 46  1  0
  7 47  1  0
  7 48  1  0
  7 49  1  0
  8 50  1  0
  8 51  1  0
  9 52  1  0
  9 53  1  0
 11 54  1  0
 14 55  1  0
 15 56  1  0
 16 57  1  0
 17 58  1  0
 21 59  1  0
 22 60  1  0
 22 61  1  0
 23 62  1  0
 23 63  1  0
 26 64  1  0
 27 65  1  0
 31 66  1  0
 31 67  1  0
 31 68  1  0
 34 69  1  0
 34 70  1  0
 35 71  1  0
 35 72  1  0
M  END
>  <smiles>  (10) 
CCCN(CCC)CCn1cc(-c2ccccn2)nc1C1CCN(c2[nH]cnc(=NC)c2F)CC1

>  <score_type>  (10) 
oracle

>  <origin>  (10) 
adg

>  <m_score__min__energy>  (10) 
-8.6999999999999993

>  <m_primary>  (10) 
energy

$$$$
10:0
     RDKit          3D

 45 47  0  0  0  0  0  0  0  0999 V2000
   -1.9230   17.4110  -34.7290 C   0  0  0  0  0  0  0  0  0  0  0  0
   -3.1910   18.0080  -34.1970 C   0  0  0  0  0  0  0  0  0  0  0  0
   -4.3880   17.2530  -34.2050 C   0  0  0  0  0  0  0  0  0  0  0  0
   -5.6050   17.8080  -33.7480 C   0  0  0  0  0  0  0  0  0  0  0  0
   -6.8580   16.9800  -33.7790 C   0  0  0  0  0  0  0  0  0  0  0  0
   -5.5750   19.1350  -33.2750 C   0  0  0  0  0  0  0  0  0  0  0  0
   -6.5440   19.9780  -32.7380 C   0  0  0  0  0  0  0  0  0  0  0  0
   -7.9710   19.6490  -32.4010 C   0  0  0  0  0  0  0  0  0  0  0  0
   -5.8830   21.1910  -32.5140 C   0  0  0  0  0  0  0  0  0  0  0  0
   -6.4550   22.4430  -31.9900 C   0  0  0  0  0  0  0  0  0  0  0  0
   -7.7080   22.5510  -31.9000 O   0  0  0  0  0  0  0  0  0  0  0  0
   -5.6100   23.5060  -31.5350 N   0  0  0  0  0  0  0  0  0  0  0  0
   -6.1390   24.8470  -31.2840 C   0  0  0  0  0  0  0  0  0  0  0  0
   -5.1700   25.6670  -30.4360 C   0  0  0  0  0  0  0  0  0  0  0  0
   -3.8770   25.0690  -30.4740 O   0  0  0  0  0  0  0  0  0  0  0  0
   -3.3620   24.2220  -29.4830 C   0  0  0  0  0  0  0  0  0  0  0  0
   -4.0390   23.0640  -29.0530 C   0  0  0  0  0  0  0  0  0  0  0  0
   -3.4830   22.2510  -28.0610 C   0  0  0  0  0  0  0  0  0  0  0  0
   -2.2510   22.5830  -27.4900 C   0  0  0  0  0  0  0  0  0  0  0  0
   -1.5750   23.7300  -27.9110 C   0  0  0  0  0  0  0  0  0  0  0  0
   -2.1270   24.5470  -28.9030 C   0  0  0  0  0  0  0  0  0  0  0  0
   -1.4600   25.6570  -29.3070 F   0  0  0  0  0  0  0  0  0  0  0  0
   -4.6100   21.0810  -32.8400 O   0  0  0  0  0  0  0  0  0  0  0  0
   -4.4130   19.8700  -33.2950 C   0  0  0  0  0  0  0  0  0  0  0  0
   -3.2100   19.3430  -33.7520 C   0  0  0  0  0  0  0  0  0  0  0  0
   -1.2799   17.1082  -33.8895 H   0  0  0  0  0  0  0  0  0  0  0  0
   -2.1619   16.5308  -35.3439 H   0  0  0  0  0  0  0  0  0  0  0  0
   -1.3968   18.1560  -35.3439 H   0  0  0  0  0  0  0  0  0  0  0  0
   -4.3710   16.2166  -34.5732 H   0  0  0  0  0  0  0  0  0  0  0  0
   -7.1817   16.7661  -32.7497 H   0  0  0  0  0  0  0  0  0  0  0  0
   -7.6501   17.5331  -34.3050 H   0  0  0  0  0  0  0  0  0  0  0  0
   -6.6598   16.0345  -34.3050 H   0  0  0  0  0  0  0  0  0  0  0  0
   -8.0926   19.6210  -31.3081 H   0  0  0  0  0  0  0  0  0  0  0  0
   -8.6343   20.4178  -32.8241 H   0  0  0  0  0  0  0  0  0  0  0  0
   -8.2307   18.6674  -32.8241 H   0  0  0  0  0  0  0  0  0  0  0  0
   -4.5960   23.3100  -31.3740 H   0  0  0  0  0  0  0  0  0  0  0  0
   -6.2963   25.3575  -32.2456 H   0  0  0  0  0  0  0  0  0  0  0  0
   -7.0893   24.7526  -30.7380 H   0  0  0  0  0  0  0  0  0  0  0  0
   -5.1116   26.6909  -30.8339 H   0  0  0  0  0  0  0  0  0  0  0  0
   -5.5287   25.6956  -29.3965 H   0  0  0  0  0  0  0  0  0  0  0  0
   -5.0087   22.7985  -29.4994 H   0  0  0  0  0  0  0  0  0  0  0  0
   -4.0162   21.3480  -27.7290 H   0  0  0  0  0  0  0  0  0  0  0  0
   -1.8147   21.9416  -26.7101 H   0  0  0  0  0  0  0  0  0  0  0  0
   -0.6058   23.9917  -27.4613 H   0  0  0  0  0  0  0  0  0  0  0  0
   -2.2958   19.9545  -33.7653 H   0  0  0  0  0  0  0  0  0  0  0  0
  1  2  1  0
  2  3  2  0
  3  4  1  0
  4  5  1  0
  4  6  2  0
  6  7  1  0
  7  8  1  0
  7  9  2  0
  9 10  1  0
 10 11  2  0
 10 12  1  0
 12 13  1  0
 13 14  1  0
 14 15  1  0
 15 16  1  0
 16 17  2  0
 17 18  1  0
 18 19  2  0
 19 20  1  0
 20 21  2  0
 21 22  1  0
  9 23  1  0
 23 24  1  0
 24 25  2  0
 25  2  1  0
 24  6  1  0
 21 16  1  0
  1 26  1  0
  1 27  1  0
  1 28  1  0
  3 29  1  0
  5 30  1  0
  5 31  1  0
  5 32  1  0
  8 33  1  0
  8 34  1  0
  8 35  1  0
 12 36  1  0
 13 37  1  0
 13 38  1  0
 14 39  1  0
 14 40  1  0
 17 41  1  0
 18 42  1  0
 19 43  1  0
 20 44  1  0
 25 45  1  0
M  END
>  <UniqueID>  (11) 
10

>  <SMILES>  (11) 
Cc1cc(C)c2c(C)c(C(=O)NCCOc3ccccc3F)oc2c1

>  <Energy>  (11) 
78.32164272080794

>  <Genealogy>  (11) 
Cc1cc(C)c2c(C)c(C(=O)NCCOc3ccccc3F)oc2c1 (3D coordinates assigned)
Cc1cc(C)c2c(C)c(C(=O)NCCOc3ccccc3F)oc2c1 (optimized conformer: 78.32164272080794 kcal/mol)

>  <smiles>  (11) 
Cc1cc(C)c2c(C)c(C(=O)NCCOc3ccccc3F)oc2c1

>  <score_type>  (11) 
oracle

>  <origin>  (11) 
adg

>  <m_score__min__energy>  (11) 
-9.0299999999999994

>  <m_primary>  (11) 
energy

$$$$
11:0
     RDKit          3D

 33 35  0  0  0  0  0  0  0  0999 V2000
   -4.3810   14.8670  -34.3140 C   0  0  0  0  0  0  0  0  0  0  0  0
   -4.7790   16.1480  -34.7930 O   0  0  0  0  0  0  0  0  0  0  0  0
   -5.4270   17.1190  -34.0140 C   0  0  0  0  0  0  0  0  0  0  0  0
   -5.8080   16.8860  -32.6790 C   0  0  0  0  0  0  0  0  0  0  0  0
   -6.4540   17.8850  -31.9460 C   0  0  0  0  0  0  0  0  0  0  0  0
   -6.7440   19.1270  -32.5370 C   0  0  0  0  0  0  0  0  0  0  0  0
   -7.3890   20.1780  -31.7950 N   0  0  0  0  0  0  0  0  0  0  0  0
   -6.8010   21.4670  -31.5460 C   0  0  0  0  0  0  0  0  0  0  0  0
   -5.4350   21.5740  -31.2330 C   0  0  0  0  0  0  0  0  0  0  0  0
   -4.8560   22.8280  -30.9630 C   0  0  0  0  0  0  0  0  0  0  0  0
   -3.4900   22.9600  -30.6600 C   0  0  0  0  0  0  0  0  0  0  0  0
   -2.7330   21.9510  -30.6230 O   0  0  0  0  0  0  0  0  0  0  0  0
   -2.9760   24.1930  -30.4040 N   0  0  0  0  0  0  0  0  0  0  0  0
   -3.7390   25.2870  -30.4340 N   0  0  0  0  0  0  0  0  0  0  0  0
   -5.0650   25.2290  -30.7180 C   0  0  0  0  0  0  0  0  0  0  0  0
   -5.7400   26.2940  -30.7310 O   0  0  0  0  0  0  0  0  0  0  0  0
   -5.6610   23.9870  -30.9910 C   0  0  0  0  0  0  0  0  0  0  0  0
   -7.0310   23.8730  -31.2860 C   0  0  0  0  0  0  0  0  0  0  0  0
   -7.5990   22.6250  -31.5550 C   0  0  0  0  0  0  0  0  0  0  0  0
   -9.3140   22.5440  -31.9410 Cl  0  0  0  0  0  0  0  0  0  0  0  0
   -6.3460   19.3610  -33.8600 C   0  0  0  0  0  0  0  0  0  0  0  0
   -5.7000   18.3630  -34.5930 C   0  0  0  0  0  0  0  0  0  0  0  0
   -4.3820   14.8703  -33.2140 H   0  0  0  0  0  0  0  0  0  0  0  0
   -5.0845   14.1042  -34.6790 H   0  0  0  0  0  0  0  0  0  0  0  0
   -3.3691   14.6372  -34.6790 H   0  0  0  0  0  0  0  0  0  0  0  0
   -5.5963   15.9134  -32.2108 H   0  0  0  0  0  0  0  0  0  0  0  0
   -6.7374   17.6983  -30.8997 H   0  0  0  0  0  0  0  0  0  0  0  0
   -8.3340   19.9840  -31.3920 H   0  0  0  0  0  0  0  0  0  0  0  0
   -4.8119   20.6681  -31.1987 H   0  0  0  0  0  0  0  0  0  0  0  0
   -1.9600   24.2950  -30.1790 H   0  0  0  0  0  0  0  0  0  0  0  0
   -7.6613   24.7743  -31.3052 H   0  0  0  0  0  0  0  0  0  0  0  0
   -6.5439   20.3381  -34.3248 H   0  0  0  0  0  0  0  0  0  0  0  0
   -5.4033   18.5567  -35.6344 H   0  0  0  0  0  0  0  0  0  0  0  0
  1  2  1  0
  2  3  1  0
  3  4  2  0
  4  5  1  0
  5  6  2  0
  6  7  1  0
  7  8  1  0
  8  9  2  0
  9 10  1  0
 10 11  1  0
 11 12  2  0
 11 13  1  0
 13 14  1  0
 14 15  1  0
 15 16  2  0
 15 17  1  0
 17 18  1  0
 18 19  2  0
 19 20  1  0
  6 21  1  0
 21 22  2  0
 22  3  1  0
 19  8  1  0
 17 10  2  0
  1 23  1  0
  1 24  1  0
  1 25  1  0
  4 26  1  0
  5 27  1  0
  7 28  1  0
  9 29  1  0
 13 30  1  0
 18 31  1  0
 21 32  1  0
 22 33  1  0
M  CHG  1  14  -1
M  END
>  <UniqueID>  (12) 
11

>  <SMILES>  (12) 
COc1ccc(Nc2cc3c(=O)[nH][n-]c(=O)c3cc2Cl)cc1

>  <Energy>  (12) 
47.682568584431905

>  <Genealogy>  (12) 
COc1ccc(Nc2cc3c(=O)[nH][n-]c(=O)c3cc2Cl)cc1 (protonated)
COc1ccc(Nc2cc3c(=O)[nH][n-]c(=O)c3cc2Cl)cc1 (3D coordinates assigned)
COc1ccc(Nc2cc3c(=O)[nH][n-]c(=O)c3cc2Cl)cc1 (optimized conformer: 47.682568584431905 kcal/mol)

>  <smiles>  (12) 
COc1ccc(Nc2cc3c(=O)[nH][nH]c(=O)c3cc2Cl)cc1

>  <score_type>  (12) 
oracle

>  <origin>  (12) 
adg

>  <m_score__min__energy>  (12) 
-9.3800000000000008

>  <m_primary>  (12) 
energy

$$$$
12:0
     RDKit          3D

 50 52  0  0  1  0  0  0  0  0999 V2000
   -3.8080   22.5770  -29.5730 C   0  0  0  0  0  0  0  0  0  0  0  0
   -3.1610   23.6040  -30.4480 C   0  0  0  0  0  0  0  0  0  0  0  0
   -3.7680   24.8340  -30.4710 O   0  0  0  0  0  0  0  0  0  0  0  0
   -4.9550   24.9160  -29.7650 C   0  0  0  0  0  0  0  0  0  0  0  0
   -6.0960   25.2880  -30.7240 C   0  0  0  0  0  0  0  0  0  0  0  0
   -7.1140   24.1580  -30.7240 C   0  0  0  0  0  0  0  0  0  0  0  0
   -7.1200   23.4940  -32.0100 N   0  0  0  0  0  0  0  0  0  0  0  0
   -6.5820   22.3530  -32.2310 C   0  0  0  0  0  0  0  0  0  0  0  0
   -5.2510   22.2770  -32.4920 N   0  0  0  0  0  0  0  0  0  0  0  0
   -4.6870   21.0800  -32.7250 C   0  0  0  0  0  0  0  0  0  0  0  0
   -3.2150   21.0090  -33.0120 C   0  0  0  0  0  0  0  0  0  0  0  0
   -5.4410   19.9590  -32.7000 N   0  0  0  0  0  0  0  0  0  0  0  0
   -6.7580   19.9960  -32.4460 C   0  0  0  0  0  0  0  0  0  0  0  0
   -7.3780   21.2230  -32.1990 C   0  0  0  0  0  0  0  0  0  0  0  0
   -8.6880   20.9860  -31.9750 N   0  0  0  0  0  0  0  0  0  0  0  0
   -8.9000   19.6680  -32.0740 N   0  0  0  0  0  0  0  0  0  0  0  0
   -7.7430   19.0690  -32.3570 N   0  0  0  0  0  0  0  0  0  0  0  0
   -7.5800   17.6360  -32.5390 C   0  0  0  0  0  0  0  0  0  0  0  0
   -6.3240   17.3320  -33.2950 C   0  0  0  0  0  0  0  0  0  0  0  0
   -5.3090   16.6190  -32.6670 C   0  0  0  0  0  0  0  0  0  0  0  0
   -4.1330   16.3180  -33.3310 C   0  0  0  0  0  0  0  0  0  0  0  0
   -3.9380   16.7190  -34.6400 C   0  0  0  0  0  0  0  0  0  0  0  0
   -2.7770   16.4430  -35.3520 O   0  0  0  0  0  0  0  0  0  0  0  0
   -2.7130   15.2320  -36.0980 C   0  0  0  0  0  0  0  0  0  0  0  0
   -4.9590   17.4250  -35.2440 C   0  0  0  0  0  0  0  0  0  0  0  0
   -6.1410   17.7380  -34.6040 C   0  0  0  0  0  0  0  0  0  0  0  0
   -3.6433   22.8385  -28.5173 H   0  0  0  0  0  0  0  0  0  0  0  0
   -4.8881   22.5475  -29.7792 H   0  0  0  0  0  0  0  0  0  0  0  0
   -3.3683   21.5900  -29.7792 H   0  0  0  0  0  0  0  0  0  0  0  0
   -2.1276   23.7437  -30.0978 H   0  0  0  0  0  0  0  0  0  0  0  0
   -3.2357   23.2137  -31.4737 H   0  0  0  0  0  0  0  0  0  0  0  0
   -5.1713   23.9443  -29.2971 H   0  0  0  0  0  0  0  0  0  0  0  0
   -4.8655   25.6865  -28.9850 H   0  0  0  0  0  0  0  0  0  0  0  0
   -6.5751   26.2191  -30.3872 H   0  0  0  0  0  0  0  0  0  0  0  0
   -5.7008   25.4393  -31.7393 H   0  0  0  0  0  0  0  0  0  0  0  0
   -6.8513   23.4317  -29.9407 H   0  0  0  0  0  0  0  0  0  0  0  0
   -8.1135   24.5738  -30.5289 H   0  0  0  0  0  0  0  0  0  0  0  0
   -2.6575   20.9821  -32.0641 H   0  0  0  0  0  0  0  0  0  0  0  0
   -2.9978   20.0993  -33.5911 H   0  0  0  0  0  0  0  0  0  0  0  0
   -2.9112   21.8935  -33.5911 H   0  0  0  0  0  0  0  0  0  0  0  0
   -4.9900   19.0340  -32.8830 H   0  0  0  0  0  0  0  0  0  0  0  0
   -7.5329   17.1509  -31.5528 H   0  0  0  0  0  0  0  0  0  0  0  0
   -8.4369   17.2555  -33.1143 H   0  0  0  0  0  0  0  0  0  0  0  0
   -5.4429   16.2891  -31.6262 H   0  0  0  0  0  0  0  0  0  0  0  0
   -3.3444   15.7535  -32.8119 H   0  0  0  0  0  0  0  0  0  0  0  0
   -2.6678   14.3775  -35.4068 H   0  0  0  0  0  0  0  0  0  0  0  0
   -3.6078   15.1440  -36.7318 H   0  0  0  0  0  0  0  0  0  0  0  0
   -1.8140   15.2388  -36.7318 H   0  0  0  0  0  0  0  0  0  0  0  0
   -4.8240   17.7538  -36.2850 H   0  0  0  0  0  0  0  0  0  0  0  0
   -6.9264   18.3025  -35.1279 H   0  0  0  0  0  0  0  0  0  0  0  0
  1  2  1  0
  2  3  1  0
  3  4  1  0
  4  5  1  0
  5  6  1  0
  6  7  1  0
  7  8  2  0
  8  9  1  0
  9 10  2  0
 10 11  1  0
 10 12  1  0
 12 13  1  0
 13 14  2  0
 14 15  1  0
 15 16  2  0
 16 17  1  0
 17 18  1  0
 18 19  1  0
 19 20  2  0
 20 21  1  0
 21 22  2  0
 22 23  1  0
 23 24  1  0
 22 25  1  0
 25 26  2  0
 14  8  1  0
 26 19  1  0
 17 13  1  0
  1 27  1  0
  1 28  1  0
  1 29  1  0
  2 30  1  0
  2 31  1  0
  4 32  1  0
  4 33  1  0
  5 34  1  0
  5 35  1  0
  6 36  1  0
  6 37  1  0
 11 38  1  0
 11 39  1  0
 11 40  1  0
 12 41  1  0
 18 42  1  0
 18 43  1  0
 20 44  1  0
 21 45  1  0
 24 46  1  0
 24 47  1  0
 24 48  1  0
 25 49  1  0
 26 50  1  0
M  END
>  <smiles>  (13) 
CCOCCCN=c1nc(C)[nH]c2c1nnn2Cc1ccc(OC)cc1

>  <score_type>  (13) 
oracle

>  <origin>  (13) 
adg

>  <m_score__min__energy>  (13) 
-8.1500000000000004

>  <m_primary>  (13) 
energy

$$$$
13:0
     RDKit          3D

 57 59  0  0  0  0  0  0  0  0999 V2000
   -3.8530   16.0500  -34.6680 C   0  0  0  0  0  0  0  0  0  0  0  0
   -4.8630   15.9780  -33.7990 C   0  0  0  0  0  0  0  0  0  0  0  0
   -5.6900   17.1400  -33.3880 C   0  0  0  0  0  0  0  0  0  0  0  0
   -6.4620   17.1420  -32.2090 C   0  0  0  0  0  0  0  0  0  0  0  0
   -7.2300   18.2600  -31.8680 C   0  0  0  0  0  0  0  0  0  0  0  0
   -7.2440   19.3930  -32.6970 C   0  0  0  0  0  0  0  0  0  0  0  0
   -8.0480   20.6090  -32.3180 C   0  0  0  0  0  0  0  0  0  0  0  0
   -7.2430   21.5370  -31.4940 N   0  0  0  0  0  0  0  0  0  0  0  0
   -8.0510   22.6800  -31.0210 C   0  0  0  0  0  0  0  0  0  0  0  0
   -7.1860   23.6060  -30.1710 C   0  0  0  0  0  0  0  0  0  0  0  0
   -6.0700   24.2490  -31.0180 C   0  0  0  0  0  0  0  0  0  0  0  0
   -4.8280   24.6730  -30.1880 C   0  0  0  0  0  0  0  0  0  0  0  0
   -3.6640   23.6610  -30.1030 C   0  0  0  0  0  0  0  0  0  0  0  0
   -3.4630   23.1500  -28.7370 N   0  0  0  0  0  0  0  0  0  0  0  0
   -3.8980   23.9620  -27.5950 C   0  0  0  0  0  0  0  0  0  0  0  0
   -2.7420   21.9180  -28.5100 C   0  0  0  0  0  0  0  0  0  0  0  0
   -3.1080   21.0440  -27.4730 C   0  0  0  0  0  0  0  0  0  0  0  0
   -2.3910   19.8550  -27.3040 C   0  0  0  0  0  0  0  0  0  0  0  0
   -2.7870   18.8940  -26.2240 C   0  0  0  0  0  0  0  0  0  0  0  0
   -1.3650   19.5600  -28.1540 N   0  0  0  0  0  0  0  0  0  0  0  0
   -1.0150   20.4190  -29.1460 C   0  0  0  0  0  0  0  0  0  0  0  0
   -1.6960   21.5820  -29.3150 N   0  0  0  0  0  0  0  0  0  0  0  0
   -5.7370   23.4450  -32.2990 C   0  0  0  0  0  0  0  0  0  0  0  0
   -5.9770   21.9250  -32.1770 C   0  0  0  0  0  0  0  0  0  0  0  0
   -6.4810   19.3920  -33.8730 C   0  0  0  0  0  0  0  0  0  0  0  0
   -5.7210   18.2710  -34.2220 C   0  0  0  0  0  0  0  0  0  0  0  0
   -3.2833   15.1449  -34.9254 H   0  0  0  0  0  0  0  0  0  0  0  0
   -3.5901   17.0145  -35.1270 H   0  0  0  0  0  0  0  0  0  0  0  0
   -5.0972   14.9969  -33.3601 H   0  0  0  0  0  0  0  0  0  0  0  0
   -6.4605   16.2590  -31.5530 H   0  0  0  0  0  0  0  0  0  0  0  0
   -7.8270   18.2516  -30.9442 H   0  0  0  0  0  0  0  0  0  0  0  0
   -8.3708   21.1271  -33.2331 H   0  0  0  0  0  0  0  0  0  0  0  0
   -8.9209   20.2852  -31.7322 H   0  0  0  0  0  0  0  0  0  0  0  0
   -8.4398   23.2359  -31.8869 H   0  0  0  0  0  0  0  0  0  0  0  0
   -8.8892   22.3067  -30.4143 H   0  0  0  0  0  0  0  0  0  0  0  0
   -7.8181   24.3997  -29.7462 H   0  0  0  0  0  0  0  0  0  0  0  0
   -6.7210   23.0139  -29.3690 H   0  0  0  0  0  0  0  0  0  0  0  0
   -6.4864   25.1984  -31.3856 H   0  0  0  0  0  0  0  0  0  0  0  0
   -4.4319   25.5982  -30.6321 H   0  0  0  0  0  0  0  0  0  0  0  0
   -5.1947   24.7748  -29.1559 H   0  0  0  0  0  0  0  0  0  0  0  0
   -3.8837   22.8132  -30.7685 H   0  0  0  0  0  0  0  0  0  0  0  0
   -2.7436   24.1824  -30.4048 H   0  0  0  0  0  0  0  0  0  0  0  0
   -3.6255   23.4534  -26.6585 H   0  0  0  0  0  0  0  0  0  0  0  0
   -3.4056   24.9448  -27.6352 H   0  0  0  0  0  0  0  0  0  0  0  0
   -4.9890   24.0966  -27.6352 H   0  0  0  0  0  0  0  0  0  0  0  0
   -3.9456   21.2909  -26.8041 H   0  0  0  0  0  0  0  0  0  0  0  0
   -2.5992   19.3498  -25.2407 H   0  0  0  0  0  0  0  0  0  0  0  0
   -3.8566   18.6557  -26.3194 H   0  0  0  0  0  0  0  0  0  0  0  0
   -2.1958   17.9713  -26.3194 H   0  0  0  0  0  0  0  0  0  0  0  0
   -0.8340   18.6660  -28.0510 H   0  0  0  0  0  0  0  0  0  0  0  0
   -0.1773   20.1721  -29.8148 H   0  0  0  0  0  0  0  0  0  0  0  0
   -6.3634   23.8277  -33.1182 H   0  0  0  0  0  0  0  0  0  0  0  0
   -4.6610   23.5796  -32.4838 H   0  0  0  0  0  0  0  0  0  0  0  0
   -5.9933   21.5002  -33.1916 H   0  0  0  0  0  0  0  0  0  0  0  0
   -5.1602   21.5355  -31.5516 H   0  0  0  0  0  0  0  0  0  0  0  0
   -6.4800   20.2779  -34.5250 H   0  0  0  0  0  0  0  0  0  0  0  0
   -5.1424   18.2745  -35.1575 H   0  0  0  0  0  0  0  0  0  0  0  0
  1  2  2  0
  2  3  1  0
  3  4  2  0
  4  5  1  0
  5  6  2  0
  6  7  1  0
  7  8  1  0
  8  9  1  0
  9 10  1  0
 10 11  1  0
 11 12  1  0
 12 13  1  0
 13 14  1  0
 14 15  1  0
 14 16  1  0
 16 17  2  0
 17 18  1  0
 18 19  1  0
 18 20  2  0
 20 21  1  0
 21 22  2  0
 11 23  1  0
 23 24  1  0
  6 25  1  0
 25 26  2  0
 26  3  1  0
 24  8  1  0
 22 16  1  0
  1 27  1  0
  1 28  1  0
  2 29  1  0
  4 30  1  0
  5 31  1  0
  7 32  1  0
  7 33  1  0
  9 34  1  0
  9 35  1  0
 10 36  1  0
 10 37  1  0
 11 38  1  0
 12 39  1  0
 12 40  1  0
 13 41  1  0
 13 42  1  0
 15 43  1  0
 15 44  1  0
 15 45  1  0
 17 46  1  0
 19 47  1  0
 19 48  1  0
 19 49  1  0
 20 50  1  0
 21 51  1  0
 23 52  1  0
 23 53  1  0
 24 54  1  0
 24 55  1  0
 25 56  1  0
 26 57  1  0
M  CHG  1  20   1
M  END
>  <UniqueID>  (14) 
12

>  <SMILES>  (14) 
C=Cc1ccc(CN2CCC(CCN(C)c3cc(C)[nH+]cn3)CC2)cc1

>  <Energy>  (14) 
66.69666202399439

>  <Genealogy>  (14) 
C=Cc1ccc(CN2CCC(CCN(C)c3cc(C)[nH+]cn3)CC2)cc1 (protonated)
C=Cc1ccc(CN2CCC(CCN(C)c3cc(C)[nH+]cn3)CC2)cc1 (3D coordinates assigned)
C=Cc1ccc(CN2CCC(CCN(C)c3cc(C)[nH+]cn3)CC2)cc1 (nonaromatic ring conformer: 66.69666202399439 kcal/mol)

>  <smiles>  (14) 
C=Cc1ccc(CN2CCC(CCN(C)c3cc(C)ncn3)CC2)cc1

>  <score_type>  (14) 
oracle

>  <origin>  (14) 
adg

>  <m_score__min__energy>  (14) 
-8.8699999999999992

>  <m_primary>  (14) 
energy

$$$$
14:0
     RDKit          3D

 25 25  0  0  0  0  0  0  0  0999 V2000
   -9.4610   21.8990  -31.2340 C   0  0  0  0  0  0  0  0  0  0  0  0
   -8.4000   21.0470  -31.8800 C   0  0  0  0  0  0  0  0  0  0  0  0
   -8.6230   19.6670  -32.0260 C   0  0  0  0  0  0  0  0  0  0  0  0
   -7.6580   18.8490  -32.6150 C   0  0  0  0  0  0  0  0  0  0  0  0
   -6.4570   19.3950  -33.0650 C   0  0  0  0  0  0  0  0  0  0  0  0
   -6.2160   20.7630  -32.9260 C   0  0  0  0  0  0  0  0  0  0  0  0
   -7.1740   21.6030  -32.3320 C   0  0  0  0  0  0  0  0  0  0  0  0
   -6.8810   23.0820  -32.2170 C   0  0  0  0  0  0  0  0  0  0  0  0
   -5.5060   23.3030  -31.9670 O   0  0  0  0  0  0  0  0  0  0  0  0
   -5.2440   23.4460  -30.5810 C   0  0  0  0  0  0  0  0  0  0  0  0
   -5.1290   24.9230  -30.2150 C   0  0  0  0  0  0  0  0  0  0  0  0
   -5.7500   25.6900  -31.1840 F   0  0  0  0  0  0  0  0  0  0  0  0
   -5.7420   25.1550  -28.9970 F   0  0  0  0  0  0  0  0  0  0  0  0
   -3.7990   25.2920  -30.1320 F   0  0  0  0  0  0  0  0  0  0  0  0
   -9.3725   21.8279  -30.1399 H   0  0  0  0  0  0  0  0  0  0  0  0
   -9.3303   22.9459  -31.5452 H   0  0  0  0  0  0  0  0  0  0  0  0
  -10.4550   21.5453  -31.5452 H   0  0  0  0  0  0  0  0  0  0  0  0
   -9.5674   19.2275  -31.6725 H   0  0  0  0  0  0  0  0  0  0  0  0
   -7.8455   17.7706  -32.7245 H   0  0  0  0  0  0  0  0  0  0  0  0
   -5.6988   18.7477  -33.5298 H   0  0  0  0  0  0  0  0  0  0  0  0
   -5.2670   21.1879  -33.2849 H   0  0  0  0  0  0  0  0  0  0  0  0
   -7.1613   23.5795  -33.1572 H   0  0  0  0  0  0  0  0  0  0  0  0
   -7.4627   23.4929  -31.3787 H   0  0  0  0  0  0  0  0  0  0  0  0
   -6.0658   22.9926  -30.0074 H   0  0  0  0  0  0  0  0  0  0  0  0
   -4.2958   22.9425  -30.3416 H   0  0  0  0  0  0  0  0  0  0  0  0
  1  2  1  0
  2  3  2  0
  3  4  1  0
  4  5  2  0
  5  6  1  0
  6  7  2  0
  7  8  1  0
  8  9  1  0
  9 10  1  0
 10 11  1  0
 11 12  1  0
 11 13  1  0
 11 14  1  0
  7  2  1  0
  1 15  1  0
  1 16  1  0
  1 17  1  0
  3 18  1  0
  4 19  1  0
  5 20  1  0
  6 21  1  0
  8 22  1  0
  8 23  1  0
 10 24  1  0
 10 25  1  0
M  END
>  <UniqueID>  (15) 
13

>  <SMILES>  (15) 
Cc1ccccc1COCC(F)(F)F

>  <Energy>  (15) 
24.822211135023764

>  <Genealogy>  (15) 
Cc1ccccc1COCC(F)(F)F (3D coordinates assigned)
Cc1ccccc1COCC(F)(F)F (optimized conformer: 24.822211135023764 kcal/mol)

>  <smiles>  (15) 
Cc1ccccc1COCC(F)(F)F

>  <score_type>  (15) 
oracle

>  <origin>  (15) 
adg

>  <m_score__min__energy>  (15) 
-4.9299999999999997

>  <m_primary>  (15) 
energy

$$$$
15:0
     RDKit          3D

 42 44  0  0  1  0  0  0  0  0999 V2000
   -1.5340   25.6820  -27.6160 C   0  0  0  0  0  0  0  0  0  0  0  0
   -1.9720   25.6530  -28.9600 O   0  0  0  0  0  0  0  0  0  0  0  0
   -2.3830   24.4310  -29.4760 C   0  0  0  0  0  0  0  0  0  0  0  0
   -1.7350   23.2450  -29.2530 C   0  0  0  0  0  0  0  0  0  0  0  0
   -2.1900   22.0590  -29.7930 C   0  0  0  0  0  0  0  0  0  0  0  0
   -3.3110   22.0230  -30.5770 C   0  0  0  0  0  0  0  0  0  0  0  0
   -3.7710   20.7390  -31.1390 C   0  0  0  0  0  0  0  0  0  0  0  0
   -4.4110   20.8810  -32.4420 N   0  0  0  0  0  0  0  0  0  0  0  0
   -5.5340   20.2410  -32.6420 C   0  0  0  0  0  0  0  0  0  0  0  0
   -5.4990   19.0130  -33.1410 N   0  0  0  0  0  0  0  0  0  0  0  0
   -6.6410   18.3120  -33.3630 C   0  0  0  0  0  0  0  0  0  0  0  0
   -6.4820   16.9470  -33.9240 C   0  0  0  0  0  0  0  0  0  0  0  0
   -7.8400   18.8380  -33.0890 N   0  0  0  0  0  0  0  0  0  0  0  0
   -7.8850   20.0940  -32.5780 C   0  0  0  0  0  0  0  0  0  0  0  0
   -9.1090   20.6590  -32.2870 C   0  0  0  0  0  0  0  0  0  0  0  0
   -9.1780   21.9500  -31.7600 C   0  0  0  0  0  0  0  0  0  0  0  0
   -8.0430   22.6990  -31.5170 C   0  0  0  0  0  0  0  0  0  0  0  0
   -6.8310   22.0880  -31.8280 C   0  0  0  0  0  0  0  0  0  0  0  0
   -6.7390   20.8280  -32.3410 C   0  0  0  0  0  0  0  0  0  0  0  0
   -3.9670   23.2210  -30.8040 C   0  0  0  0  0  0  0  0  0  0  0  0
   -3.5130   24.4050  -30.2660 C   0  0  0  0  0  0  0  0  0  0  0  0
   -4.1880   25.5670  -30.5120 O   0  0  0  0  0  0  0  0  0  0  0  0
   -5.5650   25.7490  -30.4680 C   0  0  0  0  0  0  0  0  0  0  0  0
   -2.4041   25.6244  -26.9455 H   0  0  0  0  0  0  0  0  0  0  0  0
   -0.8692   24.8259  -27.4284 H   0  0  0  0  0  0  0  0  0  0  0  0
   -0.9879   26.6183  -27.4284 H   0  0  0  0  0  0  0  0  0  0  0  0
   -0.8297   23.2375  -28.6282 H   0  0  0  0  0  0  0  0  0  0  0  0
   -1.6422   21.1270  -29.5897 H   0  0  0  0  0  0  0  0  0  0  0  0
   -2.9024   20.0727  -31.2464 H   0  0  0  0  0  0  0  0  0  0  0  0
   -4.5220   20.3288  -30.4478 H   0  0  0  0  0  0  0  0  0  0  0  0
   -6.3974   16.2205  -33.1024 H   0  0  0  0  0  0  0  0  0  0  0  0
   -7.3575   16.7006  -34.5427 H   0  0  0  0  0  0  0  0  0  0  0  0
   -5.5733   16.9084  -34.5427 H   0  0  0  0  0  0  0  0  0  0  0  0
   -8.7150   18.3040  -33.2590 H   0  0  0  0  0  0  0  0  0  0  0  0
  -10.0330   20.0911  -32.4705 H   0  0  0  0  0  0  0  0  0  0  0  0
  -10.1633   22.3827  -31.5320 H   0  0  0  0  0  0  0  0  0  0  0  0
   -8.0936   23.7168  -31.1028 H   0  0  0  0  0  0  0  0  0  0  0  0
   -5.9018   22.6496  -31.6511 H   0  0  0  0  0  0  0  0  0  0  0  0
   -4.8723   23.2274  -31.4289 H   0  0  0  0  0  0  0  0  0  0  0  0
   -5.8958   25.7927  -29.4198 H   0  0  0  0  0  0  0  0  0  0  0  0
   -5.8269   26.6896  -30.9747 H   0  0  0  0  0  0  0  0  0  0  0  0
   -6.0623   24.9088  -30.9747 H   0  0  0  0  0  0  0  0  0  0  0  0
  1  2  1  0
  2  3  1  0
  3  4  2  0
  4  5  1  0
  5  6  2  0
  6  7  1  0
  7  8  1  0
  8  9  2  0
  9 10  1  0
 10 11  2  0
 11 12  1  0
 11 13  1  0
 13 14  1  0
 14 15  2  0
 15 16  1  0
 16 17  2  0
 17 18  1  0
 18 19  2  0
  6 20  1  0
 20 21  2  0
 21 22  1  0
 22 23  1  0
 21  3  1  0
 19  9  1  0
 19 14  1  0
  1 24  1  0
  1 25  1  0
  1 26  1  0
  4 27  1  0
  5 28  1  0
  7 29  1  0
  7 30  1  0
 12 31  1  0
 12 32  1  0
 12 33  1  0
 13 34  1  0
 15 35  1  0
 16 36  1  0
 17 37  1  0
 18 38  1  0
 20 39  1  0
 23 40  1  0
 23 41  1  0
 23 42  1  0
M  END
>  <smiles>  (16) 
COc1ccc(CN=c2nc(C)[nH]c3ccccc23)cc1OC

>  <score_type>  (16) 
oracle

>  <origin>  (16) 
adg

>  <m_score__min__energy>  (16) 
-9.0899999999999999

>  <m_primary>  (16) 
energy

$$$$
16:0
     RDKit          3D

 42 45  0  0  0  0  0  0  0  0999 V2000
   -1.8010   25.6990  -25.4810 C   0  0  0  0  0  0  0  0  0  0  0  0
   -2.4240   25.1430  -26.7050 C   0  0  0  0  0  0  0  0  0  0  0  0
   -3.6940   24.5840  -26.7210 C   0  0  0  0  0  0  0  0  0  0  0  0
   -4.2320   24.0780  -27.8910 C   0  0  0  0  0  0  0  0  0  0  0  0
   -3.4990   24.1290  -29.0580 C   0  0  0  0  0  0  0  0  0  0  0  0
   -3.9860   23.6200  -30.3340 C   0  0  0  0  0  0  0  0  0  0  0  0
   -3.2060   22.7750  -31.0360 N   0  0  0  0  0  0  0  0  0  0  0  0
   -3.6210   22.2780  -32.2280 C   0  0  0  0  0  0  0  0  0  0  0  0
   -2.5110   21.1830  -33.0740 S   0  0  0  0  0  0  0  0  0  0  0  0
   -3.2660   19.6480  -33.6230 C   0  0  0  0  0  0  0  0  0  0  0  0
   -4.6840   19.4960  -33.2590 C   0  0  0  0  0  0  0  0  0  0  0  0
   -5.7720   20.2140  -33.5640 N   0  0  0  0  0  0  0  0  0  0  0  0
   -6.8770   19.7210  -33.0200 C   0  0  0  0  0  0  0  0  0  0  0  0
   -8.2200   20.0880  -33.0340 C   0  0  0  0  0  0  0  0  0  0  0  0
   -9.1640   19.3370  -32.3400 C   0  0  0  0  0  0  0  0  0  0  0  0
   -8.7610   18.2170  -31.6310 C   0  0  0  0  0  0  0  0  0  0  0  0
   -7.4260   17.8520  -31.6170 C   0  0  0  0  0  0  0  0  0  0  0  0
   -6.4800   18.6010  -32.3100 C   0  0  0  0  0  0  0  0  0  0  0  0
   -5.1520   18.4880  -32.4710 N   0  0  0  0  0  0  0  0  0  0  0  0
   -4.8190   22.6550  -32.6700 N   0  0  0  0  0  0  0  0  0  0  0  0
   -5.6400   23.4970  -32.0100 C   0  0  0  0  0  0  0  0  0  0  0  0
   -6.7430   23.8020  -32.4880 O   0  0  0  0  0  0  0  0  0  0  0  0
   -5.2260   24.0070  -30.7970 C   0  0  0  0  0  0  0  0  0  0  0  0
   -6.0890   24.9030  -30.0800 C   0  0  0  0  0  0  0  0  0  0  0  0
   -6.7800   25.6160  -29.5150 N   0  0  0  0  0  0  0  0  0  0  0  0
   -2.2260   24.6880  -29.0550 C   0  0  0  0  0  0  0  0  0  0  0  0
   -1.6900   25.1910  -27.8870 C   0  0  0  0  0  0  0  0  0  0  0  0
   -2.2860   25.2661  -24.5936 H   0  0  0  0  0  0  0  0  0  0  0  0
   -0.7292   25.4517  -25.4703 H   0  0  0  0  0  0  0  0  0  0  0  0
   -1.9253   26.7919  -25.4703 H   0  0  0  0  0  0  0  0  0  0  0  0
   -4.2806   24.5426  -25.7914 H   0  0  0  0  0  0  0  0  0  0  0  0
   -5.2398   23.6371  -27.8903 H   0  0  0  0  0  0  0  0  0  0  0  0
   -3.1864   19.5997  -34.7191 H   0  0  0  0  0  0  0  0  0  0  0  0
   -2.7256   18.8363  -33.1140 H   0  0  0  0  0  0  0  0  0  0  0  0
   -8.5371   20.9778  -33.5976 H   0  0  0  0  0  0  0  0  0  0  0  0
  -10.2239   19.6309  -32.3543 H   0  0  0  0  0  0  0  0  0  0  0  0
   -9.5012   17.6185  -31.0798 H   0  0  0  0  0  0  0  0  0  0  0  0
   -7.1101   16.9620  -31.0531 H   0  0  0  0  0  0  0  0  0  0  0  0
   -4.5680   17.7410  -32.0550 H   0  0  0  0  0  0  0  0  0  0  0  0
   -5.1600   22.2850  -33.5710 H   0  0  0  0  0  0  0  0  0  0  0  0
   -1.6437   24.7295  -29.9873 H   0  0  0  0  0  0  0  0  0  0  0  0
   -0.6816   25.6304  -27.8899 H   0  0  0  0  0  0  0  0  0  0  0  0
  1  2  1  0
  2  3  2  0
  3  4  1  0
  4  5  2  0
  5  6  1  0
  6  7  1  0
  7  8  2  0
  8  9  1  0
  9 10  1  0
 10 11  1  0
 11 12  2  0
 12 13  1  0
 13 14  2  0
 14 15  1  0
 15 16  2  0
 16 17  1  0
 17 18  2  0
 18 19  1  0
  8 20  1  0
 20 21  1  0
 21 22  2  0
 21 23  1  0
 23 24  1  0
 24 25  3  0
  5 26  1  0
 26 27  2  0
 27  2  1  0
 23  6  2  0
 19 11  1  0
 18 13  1  0
  1 28  1  0
  1 29  1  0
  1 30  1  0
  3 31  1  0
  4 32  1  0
 10 33  1  0
 10 34  1  0
 14 35  1  0
 15 36  1  0
 16 37  1  0
 17 38  1  0
 19 39  1  0
 20 40  1  0
 26 41  1  0
 27 42  1  0
M  END
>  <smiles>  (17) 
Cc1ccc(-c2nc(SCc3nc4ccccc4[nH]3)[nH]c(=O)c2C#N)cc1

>  <score_type>  (17) 
oracle

>  <origin>  (17) 
adg

>  <m_score__min__energy>  (17) 
-9.25

>  <m_primary>  (17) 
energy

$$$$
17:0
     RDKit          3D

 47 49  0  0  0  0  0  0  0  0999 V2000
    0.9990   27.8910  -22.8710 C   0  0  0  0  0  0  0  0  0  0  0  0
    0.0340   26.8690  -23.0990 O   0  0  0  0  0  0  0  0  0  0  0  0
   -0.2660   26.3320  -24.3600 C   0  0  0  0  0  0  0  0  0  0  0  0
    0.4560   25.2600  -24.9160 C   0  0  0  0  0  0  0  0  0  0  0  0
    0.1180   24.7600  -26.1780 C   0  0  0  0  0  0  0  0  0  0  0  0
   -0.9370   25.3310  -26.9090 C   0  0  0  0  0  0  0  0  0  0  0  0
   -1.2930   24.7910  -28.2410 C   0  0  0  0  0  0  0  0  0  0  0  0
   -1.4840   25.5930  -29.1950 O   0  0  0  0  0  0  0  0  0  0  0  0
   -1.4470   23.3750  -28.4620 N   0  0  0  0  0  0  0  0  0  0  0  0
   -1.1880   22.7970  -29.7830 C   0  0  0  0  0  0  0  0  0  0  0  0
   -2.4940   22.2510  -30.3920 C   0  0  0  0  0  0  0  0  0  0  0  0
   -3.4660   21.7450  -29.3840 N   0  0  0  0  0  0  0  0  0  0  0  0
   -4.5900   22.6830  -29.1610 C   0  0  0  0  0  0  0  0  0  0  0  0
   -5.4670   22.7700  -30.3910 C   0  0  0  0  0  0  0  0  0  0  0  0
   -6.1160   21.6030  -30.8370 C   0  0  0  0  0  0  0  0  0  0  0  0
   -6.9830   21.6430  -31.9300 C   0  0  0  0  0  0  0  0  0  0  0  0
   -7.2200   22.8470  -32.5900 C   0  0  0  0  0  0  0  0  0  0  0  0
   -6.5830   24.0140  -32.1660 C   0  0  0  0  0  0  0  0  0  0  0  0
   -5.6910   23.9930  -31.0780 C   0  0  0  0  0  0  0  0  0  0  0  0
   -5.0440   25.2140  -30.6830 N   0  0  0  0  0  0  0  0  0  0  0  0
   -3.7980   25.2950  -30.6970 O   0  0  0  0  0  0  0  0  0  0  0  0
   -5.7640   26.2330  -30.1030 O   0  0  0  0  0  0  0  0  0  0  0  0
   -2.8210   21.3480  -28.1130 C   0  0  0  0  0  0  0  0  0  0  0  0
   -2.0980   22.5330  -27.4500 C   0  0  0  0  0  0  0  0  0  0  0  0
   -1.6660   26.3890  -26.3450 C   0  0  0  0  0  0  0  0  0  0  0  0
   -1.3280   26.8870  -25.0840 C   0  0  0  0  0  0  0  0  0  0  0  0
    1.1335   28.0334  -21.7886 H   0  0  0  0  0  0  0  0  0  0  0  0
    1.9575   27.5979  -23.3241 H   0  0  0  0  0  0  0  0  0  0  0  0
    0.6515   28.8311  -23.3241 H   0  0  0  0  0  0  0  0  0  0  0  0
    1.2903   24.8129  -24.3556 H   0  0  0  0  0  0  0  0  0  0  0  0
    0.6815   23.9150  -26.6003 H   0  0  0  0  0  0  0  0  0  0  0  0
   -0.7757   23.5732  -30.4444 H   0  0  0  0  0  0  0  0  0  0  0  0
   -0.4689   21.9712  -29.6780 H   0  0  0  0  0  0  0  0  0  0  0  0
   -2.9752   23.0601  -30.9611 H   0  0  0  0  0  0  0  0  0  0  0  0
   -2.2170   21.3952  -31.0251 H   0  0  0  0  0  0  0  0  0  0  0  0
   -5.1930   22.3285  -28.3121 H   0  0  0  0  0  0  0  0  0  0  0  0
   -4.1802   23.6813  -28.9479 H   0  0  0  0  0  0  0  0  0  0  0  0
   -5.9379   20.6494  -30.3185 H   0  0  0  0  0  0  0  0  0  0  0  0
   -7.4799   20.7227  -32.2709 H   0  0  0  0  0  0  0  0  0  0  0  0
   -7.9099   22.8777  -33.4462 H   0  0  0  0  0  0  0  0  0  0  0  0
   -6.7806   24.9616  -32.6886 H   0  0  0  0  0  0  0  0  0  0  0  0
   -3.5913   20.9696  -27.4249 H   0  0  0  0  0  0  0  0  0  0  0  0
   -2.0752   20.5703  -28.3341 H   0  0  0  0  0  0  0  0  0  0  0  0
   -2.8298   23.1372  -26.8938 H   0  0  0  0  0  0  0  0  0  0  0  0
   -1.3293   22.1416  -26.7675 H   0  0  0  0  0  0  0  0  0  0  0  0
   -2.5085   26.8289  -26.8988 H   0  0  0  0  0  0  0  0  0  0  0  0
   -1.9015   27.7226  -24.6563 H   0  0  0  0  0  0  0  0  0  0  0  0
  1  2  1  0
  2  3  1  0
  3  4  2  0
  4  5  1  0
  5  6  2  0
  6  7  1  0
  7  8  2  0
  7  9  1  0
  9 10  1  0
 10 11  1  0
 11 12  1  0
 12 13  1  0
 13 14  1  0
 14 15  2  0
 15 16  1  0
 16 17  2  0
 17 18  1  0
 18 19  2  0
 19 20  1  0
 20 21  2  0
 20 22  1  0
 12 23  1  0
 23 24  1  0
  6 25  1  0
 25 26  2  0
 26  3  1  0
 24  9  1  0
 19 14  1  0
  1 27  1  0
  1 28  1  0
  1 29  1  0
  4 30  1  0
  5 31  1  0
 10 32  1  0
 10 33  1  0
 11 34  1  0
 11 35  1  0
 13 36  1  0
 13 37  1  0
 15 38  1  0
 16 39  1  0
 17 40  1  0
 18 41  1  0
 23 42  1  0
 23 43  1  0
 24 44  1  0
 24 45  1  0
 25 46  1  0
 26 47  1  0
M  CHG  2  20   1  22  -1
M  END
>  <UniqueID>  (18) 
14

>  <SMILES>  (18) 
COc1ccc(C(=O)N2CCN(Cc3ccccc3[N+](=O)[O-])CC2)cc1

>  <Energy>  (18) 
66.76286112431448

>  <Genealogy>  (18) 
COc1ccc(C(=O)N2CCN(Cc3ccccc3[N+](=O)[O-])CC2)cc1 (3D coordinates assigned)
COc1ccc(C(=O)N2CCN(Cc3ccccc3[N+](=O)[O-])CC2)cc1 (nonaromatic ring conformer: 66.76286112431448 kcal/mol)

>  <smiles>  (18) 
COc1ccc(C(=O)N2CCN(Cc3ccccc3[N+](=O)[O-])CC2)cc1

>  <score_type>  (18) 
oracle

>  <origin>  (18) 
adg

>  <m_score__min__energy>  (18) 
-8.1999999999999993

>  <m_primary>  (18) 
energy

$$$$
18:0
     RDKit          3D

 37 39  0  0  0  0  0  0  0  0999 V2000
   -8.7360   18.8390  -31.7260 C   0  0  0  0  0  0  0  0  0  0  0  0
   -8.6250   20.0470  -32.6520 C   0  0  0  0  0  0  0  0  0  0  0  0
   -7.7660   21.0940  -32.0500 N   0  0  0  0  0  0  0  0  0  0  0  0
   -8.3450   21.9910  -31.1840 C   0  0  0  0  0  0  0  0  0  0  0  0
   -9.5660   21.9020  -30.8810 O   0  0  0  0  0  0  0  0  0  0  0  0
   -7.6010   23.0200  -30.6150 C   0  0  0  0  0  0  0  0  0  0  0  0
   -6.2470   23.1610  -30.8990 C   0  0  0  0  0  0  0  0  0  0  0  0
   -5.3630   24.4940  -30.1270 S   0  0  0  0  0  0  0  0  0  0  0  0
   -4.8030   25.3890  -31.1980 O   0  0  0  0  0  0  0  0  0  0  0  0
   -6.2810   25.3080  -29.2580 O   0  0  0  0  0  0  0  0  0  0  0  0
   -4.0720   23.8510  -29.1150 C   0  0  0  0  0  0  0  0  0  0  0  0
   -2.8370   24.5110  -29.0300 C   0  0  0  0  0  0  0  0  0  0  0  0
   -1.8150   23.9870  -28.2300 C   0  0  0  0  0  0  0  0  0  0  0  0
   -2.0230   22.8070  -27.5110 C   0  0  0  0  0  0  0  0  0  0  0  0
   -3.2550   22.1490  -27.5880 C   0  0  0  0  0  0  0  0  0  0  0  0
   -4.2780   22.6700  -28.3860 C   0  0  0  0  0  0  0  0  0  0  0  0
   -5.6250   22.2230  -31.7540 C   0  0  0  0  0  0  0  0  0  0  0  0
   -4.2470   22.2990  -32.0540 C   0  0  0  0  0  0  0  0  0  0  0  0
   -3.6400   21.3500  -32.8710 C   0  0  0  0  0  0  0  0  0  0  0  0
   -4.3870   20.3060  -33.4020 C   0  0  0  0  0  0  0  0  0  0  0  0
   -5.7510   20.2090  -33.1300 C   0  0  0  0  0  0  0  0  0  0  0  0
   -6.4070   21.1670  -32.3160 C   0  0  0  0  0  0  0  0  0  0  0  0
   -8.7051   19.1754  -30.6792 H   0  0  0  0  0  0  0  0  0  0  0  0
   -9.6858   18.3176  -31.9157 H   0  0  0  0  0  0  0  0  0  0  0  0
   -7.8971   18.1533  -31.9157 H   0  0  0  0  0  0  0  0  0  0  0  0
   -8.1877   19.7283  -33.6097 H   0  0  0  0  0  0  0  0  0  0  0  0
   -9.6306   20.4637  -32.8102 H   0  0  0  0  0  0  0  0  0  0  0  0
   -8.0898   23.7306  -29.9322 H   0  0  0  0  0  0  0  0  0  0  0  0
   -2.6716   25.4415  -29.5928 H   0  0  0  0  0  0  0  0  0  0  0  0
   -0.8466   24.5049  -28.1672 H   0  0  0  0  0  0  0  0  0  0  0  0
   -1.2179   22.3955  -26.8845 H   0  0  0  0  0  0  0  0  0  0  0  0
   -3.4190   21.2211  -27.0204 H   0  0  0  0  0  0  0  0  0  0  0  0
   -5.2471   22.1526  -28.4425 H   0  0  0  0  0  0  0  0  0  0  0  0
   -3.6453   23.1196  -31.6361 H   0  0  0  0  0  0  0  0  0  0  0  0
   -2.5662   21.4267  -33.0969 H   0  0  0  0  0  0  0  0  0  0  0  0
   -3.9005   19.5530  -34.0395 H   0  0  0  0  0  0  0  0  0  0  0  0
   -6.3285   19.3745  -33.5544 H   0  0  0  0  0  0  0  0  0  0  0  0
  1  2  1  0
  2  3  1  0
  3  4  1  0
  4  5  2  0
  4  6  1  0
  6  7  2  0
  7  8  1  0
  8  9  2  0
  8 10  2  0
  8 11  1  0
 11 12  2  0
 12 13  1  0
 13 14  2  0
 14 15  1  0
 15 16  2  0
  7 17  1  0
 17 18  2  0
 18 19  1  0
 19 20  2  0
 20 21  1  0
 21 22  2  0
 22  3  1  0
 16 11  1  0
 22 17  1  0
  1 23  1  0
  1 24  1  0
  1 25  1  0
  2 26  1  0
  2 27  1  0
  6 28  1  0
 12 29  1  0
 13 30  1  0
 14 31  1  0
 15 32  1  0
 16 33  1  0
 18 34  1  0
 19 35  1  0
 20 36  1  0
 21 37  1  0
M  END
>  <UniqueID>  (19) 
15

>  <SMILES>  (19) 
CCn1c(=O)cc(S(=O)(=O)c2ccccc2)c2ccccc21

>  <Energy>  (19) 
52.62460039809565

>  <Genealogy>  (19) 
CCn1c(=O)cc(S(=O)(=O)c2ccccc2)c2ccccc21 (3D coordinates assigned)
CCn1c(=O)cc(S(=O)(=O)c2ccccc2)c2ccccc21 (optimized conformer: 52.62460039809565 kcal/mol)

>  <smiles>  (19) 
CCn1c(=O)cc(S(=O)(=O)c2ccccc2)c2ccccc21

>  <score_type>  (19) 
oracle

>  <origin>  (19) 
adg

>  <m_score__min__energy>  (19) 
-8.7599999999999998

>  <m_primary>  (19) 
energy

$$$$
19:0
     RDKit          3D

 56 59  0  0  0  0  0  0  0  0999 V2000
    2.3910   27.7230  -23.3010 C   0  0  0  0  0  0  0  0  0  0  0  0
    2.6010   26.3520  -23.9470 C   0  0  0  0  0  0  0  0  0  0  0  0
    1.4160   25.9120  -24.8490 C   0  0  2  0  0  0  0  0  0  0  0  0
    0.8490   27.1230  -25.5450 C   0  0  0  0  0  0  0  0  0  0  0  0
    1.4190   27.8270  -26.5890 C   0  0  0  0  0  0  0  0  0  0  0  0
    0.5380   28.8530  -26.8820 C   0  0  0  0  0  0  0  0  0  0  0  0
   -0.5250   28.7340  -26.0050 C   0  0  0  0  0  0  0  0  0  0  0  0
   -0.3140   27.6880  -25.1860 N   0  0  0  0  0  0  0  0  0  0  0  0
   -1.2290   27.1540  -24.1850 C   0  0  0  0  0  0  0  0  0  0  0  0
   -0.5060   26.1220  -23.3000 C   0  0  0  0  0  0  0  0  0  0  0  0
    0.3410   25.1860  -24.0920 N   0  0  1  0  0  0  0  0  0  0  0  0
   -0.4880   24.3210  -24.9280 C   0  0  0  0  0  0  0  0  0  0  0  0
   -0.3870   22.6870  -24.7550 S   0  0  0  0  0  0  0  0  0  0  0  0
   -1.1680   24.8160  -26.0930 N   0  0  0  0  0  0  0  0  0  0  0  0
   -0.5240   24.6790  -27.4090 C   0  0  0  0  0  0  0  0  0  0  0  0
   -1.4430   25.1660  -28.5310 C   0  0  0  0  0  0  0  0  0  0  0  0
   -2.7860   24.6020  -28.3500 N   0  0  0  0  0  0  0  0  0  0  0  0
   -3.4830   24.0290  -29.4670 C   0  0  0  0  0  0  0  0  0  0  0  0
   -4.7730   24.4810  -29.7900 C   0  0  0  0  0  0  0  0  0  0  0  0
   -5.4590   23.9340  -30.8760 C   0  0  0  0  0  0  0  0  0  0  0  0
   -4.8660   22.9320  -31.6450 C   0  0  0  0  0  0  0  0  0  0  0  0
   -3.5870   22.4690  -31.3280 C   0  0  0  0  0  0  0  0  0  0  0  0
   -2.8840   23.0100  -30.2320 C   0  0  0  0  0  0  0  0  0  0  0  0
   -1.6070   22.5560  -29.8690 O   0  0  0  0  0  0  0  0  0  0  0  0
   -0.8730   21.5600  -30.5730 C   0  0  0  0  0  0  0  0  0  0  0  0
   -3.4350   24.6290  -27.0320 C   0  0  0  0  0  0  0  0  0  0  0  0
   -2.5470   25.3060  -25.9830 C   0  0  0  0  0  0  0  0  0  0  0  0
    2.4070   27.6187  -22.2061 H   0  0  0  0  0  0  0  0  0  0  0  0
    3.1953   28.4039  -23.6163 H   0  0  0  0  0  0  0  0  0  0  0  0
    1.4197   28.1320  -23.6163 H   0  0  0  0  0  0  0  0  0  0  0  0
    3.5123   26.3912  -24.5618 H   0  0  0  0  0  0  0  0  0  0  0  0
    2.6825   25.6165  -23.1331 H   0  0  0  0  0  0  0  0  0  0  0  0
    1.8059   25.1966  -25.5880 H   0  0  0  0  0  0  0  0  0  0  0  0
    2.3774   27.6149  -27.0856 H   0  0  0  0  0  0  0  0  0  0  0  0
    0.6598   29.6176  -27.6634 H   0  0  0  0  0  0  0  0  0  0  0  0
   -1.4059   29.3924  -25.9810 H   0  0  0  0  0  0  0  0  0  0  0  0
   -1.5991   27.9766  -23.5555 H   0  0  0  0  0  0  0  0  0  0  0  0
   -2.0711   26.6626  -24.6944 H   0  0  0  0  0  0  0  0  0  0  0  0
    0.1346   26.6580  -22.5843 H   0  0  0  0  0  0  0  0  0  0  0  0
   -1.2741   25.5251  -22.7864 H   0  0  0  0  0  0  0  0  0  0  0  0
    0.8010   24.5440  -23.4080 H   0  0  0  0  0  0  0  0  0  0  0  0
    0.4007   25.2747  -27.4192 H   0  0  0  0  0  0  0  0  0  0  0  0
   -0.3032   23.6148  -27.5784 H   0  0  0  0  0  0  0  0  0  0  0  0
   -1.5011   26.2642  -28.5054 H   0  0  0  0  0  0  0  0  0  0  0  0
   -1.0385   24.8401  -29.5006 H   0  0  0  0  0  0  0  0  0  0  0  0
   -5.2447   25.2692  -29.1848 H   0  0  0  0  0  0  0  0  0  0  0  0
   -6.4682   24.2934  -31.1257 H   0  0  0  0  0  0  0  0  0  0  0  0
   -5.4070   22.5058  -32.5027 H   0  0  0  0  0  0  0  0  0  0  0  0
   -3.1254   21.6777  -31.9369 H   0  0  0  0  0  0  0  0  0  0  0  0
   -0.3797   20.8906  -29.8529 H   0  0  0  0  0  0  0  0  0  0  0  0
   -1.5591   20.9771  -31.2050 H   0  0  0  0  0  0  0  0  0  0  0  0
   -0.1131   22.0427  -31.2050 H   0  0  0  0  0  0  0  0  0  0  0  0
   -4.3816   25.1838  -27.1109 H   0  0  0  0  0  0  0  0  0  0  0  0
   -3.6148   23.5913  -26.7144 H   0  0  0  0  0  0  0  0  0  0  0  0
   -2.5598   26.3941  -26.1439 H   0  0  0  0  0  0  0  0  0  0  0  0
   -2.9326   25.0698  -24.9803 H   0  0  0  0  0  0  0  0  0  0  0  0
  1  2  1  0
  2  3  1  0
  3  4  1  0
  4  5  2  0
  5  6  1  0
  6  7  2  0
  7  8  1  0
  8  9  1  0
  9 10  1  0
 10 11  1  0
 11 12  1  0
 12 13  2  0
 12 14  1  0
 14 15  1  0
 15 16  1  0
 16 17  1  0
 17 18  1  0
 18 19  2  0
 19 20  1  0
 20 21  2  0
 21 22  1  0
 22 23  2  0
 23 24  1  0
 24 25  1  0
 17 26  1  0
 26 27  1  0
 11  3  1  0
 27 14  1  0
  8  4  1  0
 23 18  1  0
  1 28  1  0
  1 29  1  0
  1 30  1  0
  2 31  1  0
  2 32  1  0
  3 33  1  6
  5 34  1  0
  6 35  1  0
  7 36  1  0
  9 37  1  0
  9 38  1  0
 10 39  1  0
 10 40  1  0
 11 41  1  1
 15 42  1  0
 15 43  1  0
 16 44  1  0
 16 45  1  0
 19 46  1  0
 20 47  1  0
 21 48  1  0
 22 49  1  0
 25 50  1  0
 25 51  1  0
 25 52  1  0
 26 53  1  0
 26 54  1  0
 27 55  1  0
 27 56  1  0
M  CHG  1  11   1
M  END
>  <UniqueID>  (20) 
16

>  <SMILES>  (20) 
CC[C@@H]1c2cccn2CC[N@H+]1C(=S)N1CCN(c2ccccc2OC)CC1

>  <Energy>  (20) 
101.07875637628663

>  <Genealogy>  (20) 
CCC1c2cccn2CC[NH+]1C(=S)N1CCN(c2ccccc2OC)CC1 (protonated)
CC[C@@H]1c2cccn2CC[N@H+]1C(=S)N1CCN(c2ccccc2OC)CC1 (chirality)
CC[C@@H]1c2cccn2CC[N@H+]1C(=S)N1CCN(c2ccccc2OC)CC1 (3D coordinates assigned)
CC[C@@H]1c2cccn2CC[N@H+]1C(=S)N1CCN(c2ccccc2OC)CC1 (nonaromatic ring conformer: 101.07875637628663 kcal/mol)

>  <smiles>  (20) 
CCC1c2cccn2CCN1C(=S)N1CCN(c2ccccc2OC)CC1

>  <score_type>  (20) 
oracle

>  <origin>  (20) 
adg

>  <m_score__min__energy>  (20) 
-8.0800000000000001

>  <m_primary>  (20) 
energy

$$$$
20:0
     RDKit          3D

 52 55  0  0  0  0  0  0  0  0999 V2000
   -6.3670   23.6240  -31.6910 C   0  0  0  0  0  0  0  0  0  0  0  0
   -6.1440   24.3240  -30.3530 C   0  0  0  0  0  0  0  0  0  0  0  0
   -5.2920   25.5970  -30.4690 C   0  0  0  0  0  0  0  0  0  0  0  0
   -3.8600   25.2950  -30.4690 N   0  0  0  0  0  0  0  0  0  0  0  0
   -3.1440   24.3380  -29.6730 C   0  0  0  0  0  0  0  0  0  0  0  0
   -3.2160   24.4390  -28.4180 O   0  0  0  0  0  0  0  0  0  0  0  0
   -2.3280   23.2490  -30.2550 C   0  0  0  0  0  0  0  0  0  0  0  0
   -2.8830   22.3540  -31.1800 C   0  0  0  0  0  0  0  0  0  0  0  0
   -2.0770   21.3690  -31.7480 C   0  0  0  0  0  0  0  0  0  0  0  0
   -0.7340   21.2920  -31.3760 C   0  0  0  0  0  0  0  0  0  0  0  0
    0.1550   20.3670  -32.0230 N   0  0  0  0  0  0  0  0  0  0  0  0
    0.5840   20.6930  -33.3960 C   0  0  0  0  0  0  0  0  0  0  0  0
   -0.4460   20.1770  -34.4310 C   0  0  0  0  0  0  0  0  0  0  0  0
   -1.0380   18.8670  -33.9890 C   0  0  0  0  0  0  0  0  0  0  0  0
   -2.0650   18.1460  -34.5550 C   0  0  0  0  0  0  0  0  0  0  0  0
   -2.4380   17.1940  -33.6710 N   0  0  0  0  0  0  0  0  0  0  0  0
   -3.6220   16.3520  -33.7840 C   0  0  0  0  0  0  0  0  0  0  0  0
   -4.8350   17.1490  -33.4050 C   0  0  0  0  0  0  0  0  0  0  0  0
   -5.3340   18.1500  -34.2510 C   0  0  0  0  0  0  0  0  0  0  0  0
   -6.4770   18.8020  -33.9140 N   0  0  0  0  0  0  0  0  0  0  0  0
   -7.1520   18.4980  -32.7750 C   0  0  0  0  0  0  0  0  0  0  0  0
   -6.6660   17.4940  -31.9370 C   0  0  0  0  0  0  0  0  0  0  0  0
   -5.5240   16.8370  -32.2730 N   0  0  0  0  0  0  0  0  0  0  0  0
   -1.7250   17.2980  -32.5570 N   0  0  0  0  0  0  0  0  0  0  0  0
   -0.8650   18.3170  -32.7410 C   0  0  0  0  0  0  0  0  0  0  0  0
    0.0530   18.9220  -31.7200 C   0  0  2  0  0  0  0  0  0  0  0  0
   -0.4070   18.6270  -30.2830 C   0  0  0  0  0  0  0  0  0  0  0  0
   -0.2520   22.1590  -30.4460 N   0  0  0  0  0  0  0  0  0  0  0  0
   -1.0250   23.0980  -29.9000 N   0  0  0  0  0  0  0  0  0  0  0  0
   -6.6965   22.5897  -31.5133 H   0  0  0  0  0  0  0  0  0  0  0  0
   -7.1384   24.1616  -32.2620 H   0  0  0  0  0  0  0  0  0  0  0  0
   -5.4268   23.6163  -32.2620 H   0  0  0  0  0  0  0  0  0  0  0  0
   -7.1238   24.5964  -29.9337 H   0  0  0  0  0  0  0  0  0  0  0  0
   -5.5969   23.6231  -29.7053 H   0  0  0  0  0  0  0  0  0  0  0  0
   -5.5472   26.1119  -31.4069 H   0  0  0  0  0  0  0  0  0  0  0  0
   -5.5071   26.2328  -29.5975 H   0  0  0  0  0  0  0  0  0  0  0  0
   -3.9454   22.4284  -31.4552 H   0  0  0  0  0  0  0  0  0  0  0  0
   -2.4939   20.6615  -32.4799 H   0  0  0  0  0  0  0  0  0  0  0  0
    0.6786   21.7845  -33.4947 H   0  0  0  0  0  0  0  0  0  0  0  0
    1.5514   20.2059  -33.5882 H   0  0  0  0  0  0  0  0  0  0  0  0
   -1.2514   20.9185  -34.5386 H   0  0  0  0  0  0  0  0  0  0  0  0
    0.0664   20.0254  -35.3925 H   0  0  0  0  0  0  0  0  0  0  0  0
   -2.5039   18.3146  -35.5495 H   0  0  0  0  0  0  0  0  0  0  0  0
   -3.7238   15.9983  -34.8206 H   0  0  0  0  0  0  0  0  0  0  0  0
   -3.5246   15.4869  -33.1116 H   0  0  0  0  0  0  0  0  0  0  0  0
   -4.8038   18.4052  -35.1804 H   0  0  0  0  0  0  0  0  0  0  0  0
   -8.0740   19.0389  -32.5156 H   0  0  0  0  0  0  0  0  0  0  0  0
   -7.2024   17.2360  -31.0119 H   0  0  0  0  0  0  0  0  0  0  0  0
    1.0536   18.4690  -31.7788 H   0  0  0  0  0  0  0  0  0  0  0  0
    0.2993   19.0799  -29.5716 H   0  0  0  0  0  0  0  0  0  0  0  0
   -1.4096   19.0510  -30.1246 H   0  0  0  0  0  0  0  0  0  0  0  0
   -0.4399   17.5390  -30.1246 H   0  0  0  0  0  0  0  0  0  0  0  0
  1  2  1  0
  2  3  1  0
  3  4  1  0
  4  5  1  0
  5  6  2  0
  5  7  1  0
  7  8  2  0
  8  9  1  0
  9 10  2  0
 10 11  1  0
 11 12  1  0
 12 13  1  0
 13 14  1  0
 14 15  2  0
 15 16  1  0
 16 17  1  0
 17 18  1  0
 18 19  2  0
 19 20  1  0
 20 21  2  0
 21 22  1  0
 22 23  2  0
 16 24  1  0
 24 25  2  0
 25 26  1  0
 26 27  1  0
 10 28  1  0
 28 29  2  0
 29  7  1  0
 26 11  1  0
 25 14  1  0
 23 18  1  0
  1 30  1  0
  1 31  1  0
  1 32  1  0
  2 33  1  0
  2 34  1  0
  3 35  1  0
  3 36  1  0
  8 37  1  0
  9 38  1  0
 12 39  1  0
 12 40  1  0
 13 41  1  0
 13 42  1  0
 15 43  1  0
 17 44  1  0
 17 45  1  0
 19 46  1  0
 21 47  1  0
 22 48  1  0
 26 49  1  1
 27 50  1  0
 27 51  1  0
 27 52  1  0
M  CHG  1   4  -1
M  END
>  <UniqueID>  (21) 
17

>  <SMILES>  (21) 
CCC[N-]C(=O)c1ccc(N2CCc3cn(Cc4cnccn4)nc3[C@@H]2C)nn1

>  <Energy>  (21) 
95.6737948624031

>  <Genealogy>  (21) 
CCC[N-]C(=O)c1ccc(N2CCc3cn(Cc4cnccn4)nc3C2C)nn1 (protonated)
CCC[N-]C(=O)c1ccc(N2CCc3cn(Cc4cnccn4)nc3[C@@H]2C)nn1 (chirality)
CCC[N-]C(=O)c1ccc(N2CCc3cn(Cc4cnccn4)nc3[C@@H]2C)nn1 (3D coordinates assigned)
CCC[N-]C(=O)c1ccc(N2CCc3cn(Cc4cnccn4)nc3[C@@H]2C)nn1 (nonaromatic ring conformer: 95.6737948624031 kcal/mol)

>  <smiles>  (21) 
CCCNC(=O)c1ccc(N2CCc3cn(Cc4cnccn4)nc3C2C)nn1

>  <score_type>  (21) 
oracle

>  <origin>  (21) 
adg

>  <m_score__min__energy>  (21) 
-8.8900000000000006

>  <m_primary>  (21) 
energy

$$$$
21:0
     RDKit          3D

 54 57  0  0  0  0  0  0  0  0999 V2000
   -5.3260   16.1580  -32.1840 C   0  0  0  0  0  0  0  0  0  0  0  0
   -4.3260   16.0320  -33.3410 C   0  0  0  0  0  0  0  0  0  0  0  0
   -4.0800   17.3360  -34.0200 N   0  0  0  0  0  0  0  0  0  0  0  0
   -5.1700   17.6210  -34.9950 C   0  0  0  0  0  0  0  0  0  0  0  0
   -5.9980   18.8500  -34.5960 C   0  0  0  0  0  0  0  0  0  0  0  0
   -2.7540   17.3270  -34.7040 C   0  0  0  0  0  0  0  0  0  0  0  0
   -1.8660   18.5090  -34.2810 C   0  0  0  0  0  0  0  0  0  0  0  0
   -2.0700   18.8150  -32.9010 O   0  0  0  0  0  0  0  0  0  0  0  0
   -2.6290   20.0040  -32.4140 C   0  0  0  0  0  0  0  0  0  0  0  0
   -1.8310   21.1210  -32.0410 C   0  0  0  0  0  0  0  0  0  0  0  0
   -2.4250   22.2870  -31.5270 C   0  0  0  0  0  0  0  0  0  0  0  0
   -3.8100   22.3110  -31.3990 C   0  0  0  0  0  0  0  0  0  0  0  0
   -4.6680   23.2850  -30.9350 C   0  0  0  0  0  0  0  0  0  0  0  0
   -4.4310   24.5720  -30.4560 C   0  0  0  0  0  0  0  0  0  0  0  0
   -5.5440   25.3470  -30.0880 C   0  0  0  0  0  0  0  0  0  0  0  0
   -6.8530   24.8290  -30.2110 C   0  0  0  0  0  0  0  0  0  0  0  0
   -7.0640   23.5240  -30.6960 C   0  0  0  0  0  0  0  0  0  0  0  0
   -5.9440   22.7620  -31.0430 C   0  0  0  0  0  0  0  0  0  0  0  0
   -5.9120   21.5030  -31.5470 N   0  0  0  0  0  0  0  0  0  0  0  0
   -7.0340   20.6440  -31.8170 C   0  0  0  0  0  0  0  0  0  0  0  0
   -8.2380   21.1820  -32.3030 C   0  0  0  0  0  0  0  0  0  0  0  0
   -9.3280   20.3460  -32.5610 C   0  0  0  0  0  0  0  0  0  0  0  0
   -9.2250   18.9700  -32.3340 C   0  0  0  0  0  0  0  0  0  0  0  0
   -8.0320   18.4290  -31.8490 C   0  0  0  0  0  0  0  0  0  0  0  0
   -6.9400   19.2630  -31.5890 C   0  0  0  0  0  0  0  0  0  0  0  0
   -4.5990   21.2390  -31.7640 C   0  0  0  0  0  0  0  0  0  0  0  0
   -4.0280   20.0610  -32.2530 C   0  0  0  0  0  0  0  0  0  0  0  0
   -4.7891   16.0904  -31.2263 H   0  0  0  0  0  0  0  0  0  0  0  0
   -5.8406   17.1281  -32.2481 H   0  0  0  0  0  0  0  0  0  0  0  0
   -6.0652   15.3459  -32.2481 H   0  0  0  0  0  0  0  0  0  0  0  0
   -3.3721   15.6540  -32.9446 H   0  0  0  0  0  0  0  0  0  0  0  0
   -4.7543   15.3417  -34.0826 H   0  0  0  0  0  0  0  0  0  0  0  0
   -4.0830   18.0890  -33.2920 H   0  0  0  0  0  0  0  0  0  0  0  0
   -4.7228   17.8010  -35.9837 H   0  0  0  0  0  0  0  0  0  0  0  0
   -5.8434   16.7513  -35.0125 H   0  0  0  0  0  0  0  0  0  0  0  0
   -6.0452   18.9200  -33.4992 H   0  0  0  0  0  0  0  0  0  0  0  0
   -5.5263   19.7573  -35.0014 H   0  0  0  0  0  0  0  0  0  0  0  0
   -7.0160   18.7536  -35.0014 H   0  0  0  0  0  0  0  0  0  0  0  0
   -2.2352   16.3893  -34.4558 H   0  0  0  0  0  0  0  0  0  0  0  0
   -2.9348   17.4146  -35.7855 H   0  0  0  0  0  0  0  0  0  0  0  0
   -0.8103   18.2451  -34.4417 H   0  0  0  0  0  0  0  0  0  0  0  0
   -2.1313   19.3892  -34.8851 H   0  0  0  0  0  0  0  0  0  0  0  0
   -0.7381   21.0719  -32.1559 H   0  0  0  0  0  0  0  0  0  0  0  0
   -1.8135   23.1535  -31.2351 H   0  0  0  0  0  0  0  0  0  0  0  0
   -3.4083   24.9675  -30.3690 H   0  0  0  0  0  0  0  0  0  0  0  0
   -5.3950   26.3658  -29.7008 H   0  0  0  0  0  0  0  0  0  0  0  0
   -7.7145   25.4505  -29.9254 H   0  0  0  0  0  0  0  0  0  0  0  0
   -8.0803   23.1158  -30.7989 H   0  0  0  0  0  0  0  0  0  0  0  0
   -8.3227   22.2642  -32.4809 H   0  0  0  0  0  0  0  0  0  0  0  0
  -10.2679   20.7709  -32.9430 H   0  0  0  0  0  0  0  0  0  0  0  0
  -10.0838   18.3134  -32.5374 H   0  0  0  0  0  0  0  0  0  0  0  0
   -7.9514   17.3464  -31.6715 H   0  0  0  0  0  0  0  0  0  0  0  0
   -6.0031   18.8342  -31.2040 H   0  0  0  0  0  0  0  0  0  0  0  0
   -4.6577   19.1956  -32.5071 H   0  0  0  0  0  0  0  0  0  0  0  0
  1  2  1  0
  2  3  1  0
  3  4  1  0
  4  5  1  0
  3  6  1  0
  6  7  1  0
  7  8  1  0
  8  9  1  0
  9 10  2  0
 10 11  1  0
 11 12  2  0
 12 13  1  0
 13 14  2  0
 14 15  1  0
 15 16  2  0
 16 17  1  0
 17 18  2  0
 18 19  1  0
 19 20  1  0
 20 21  2  0
 21 22  1  0
 22 23  2  0
 23 24  1  0
 24 25  2  0
 19 26  1  0
 26 27  2  0
 27  9  1  0
 26 12  1  0
 18 13  1  0
 25 20  1  0
  1 28  1  0
  1 29  1  0
  1 30  1  0
  2 31  1  0
  2 32  1  0
  3 33  1  0
  4 34  1  0
  4 35  1  0
  5 36  1  0
  5 37  1  0
  5 38  1  0
  6 39  1  0
  6 40  1  0
  7 41  1  0
  7 42  1  0
 10 43  1  0
 11 44  1  0
 14 45  1  0
 15 46  1  0
 16 47  1  0
 17 48  1  0
 21 49  1  0
 22 50  1  0
 23 51  1  0
 24 52  1  0
 25 53  1  0
 27 54  1  0
M  CHG  1   3   1
M  END
>  <UniqueID>  (22) 
18

>  <SMILES>  (22) 
CC[NH+](CC)CCOc1ccc2c3ccccc3n(-c3ccccc3)c2c1

>  <Energy>  (22) 
111.20115557474888

>  <Genealogy>  (22) 
CC[NH+](CC)CCOc1ccc2c3ccccc3n(-c3ccccc3)c2c1 (protonated)
CC[NH+](CC)CCOc1ccc2c3ccccc3n(-c3ccccc3)c2c1 (3D coordinates assigned)
CC[NH+](CC)CCOc1ccc2c3ccccc3n(-c3ccccc3)c2c1 (optimized conformer: 111.20115557474888 kcal/mol)

>  <smiles>  (22) 
CCN(CC)CCOc1ccc2c3ccccc3n(-c3ccccc3)c2c1

>  <score_type>  (22) 
oracle

>  <origin>  (22) 
adg

>  <m_score__min__energy>  (22) 
-8.7200000000000006

>  <m_primary>  (22) 
energy

$$$$
22:0
     RDKit          3D

 44 47  0  0  0  0  0  0  0  0999 V2000
   -8.5290   22.3490  -30.8690 O   0  0  0  0  0  0  0  0  0  0  0  0
   -7.3900   22.3320  -31.4130 C   0  0  0  0  0  0  0  0  0  0  0  0
   -7.2110   21.5930  -32.7140 C   0  0  0  0  0  0  0  0  0  0  0  0
   -7.4750   20.1650  -32.5450 N   0  0  0  0  0  0  0  0  0  0  0  0
   -8.3350   19.5830  -31.6700 C   0  0  0  0  0  0  0  0  0  0  0  0
   -8.2790   18.2270  -31.7130 N   0  0  0  0  0  0  0  0  0  0  0  0
   -7.3420   17.9620  -32.6390 C   0  0  0  0  0  0  0  0  0  0  0  0
   -6.8540   16.7350  -33.0720 C   0  0  0  0  0  0  0  0  0  0  0  0
   -5.8370   16.7570  -34.0460 C   0  0  0  0  0  0  0  0  0  0  0  0
   -5.3560   17.9970  -34.5330 C   0  0  0  0  0  0  0  0  0  0  0  0
   -5.8710   19.1770  -34.0670 N   0  0  0  0  0  0  0  0  0  0  0  0
   -6.8560   19.1300  -33.1360 C   0  0  0  0  0  0  0  0  0  0  0  0
   -6.2810   22.9830  -30.7580 N   0  0  0  0  0  0  0  0  0  0  0  0
   -4.8920   22.6590  -31.1130 C   0  0  0  0  0  0  0  0  0  0  0  0
   -3.9790   22.7720  -29.8880 C   0  0  0  0  0  0  0  0  0  0  0  0
   -4.1570   24.0570  -29.1920 N   0  0  0  0  0  0  0  0  0  0  0  0
   -3.1230   24.5370  -28.3030 C   0  0  0  0  0  0  0  0  0  0  0  0
   -3.3820   24.7150  -26.9300 C   0  0  0  0  0  0  0  0  0  0  0  0
   -2.3800   25.1830  -26.0740 C   0  0  0  0  0  0  0  0  0  0  0  0
   -1.1120   25.4790  -26.5750 C   0  0  0  0  0  0  0  0  0  0  0  0
   -0.1410   25.9320  -25.7420 F   0  0  0  0  0  0  0  0  0  0  0  0
   -0.8420   25.3090  -27.9350 C   0  0  0  0  0  0  0  0  0  0  0  0
   -1.8400   24.8430  -28.7950 C   0  0  0  0  0  0  0  0  0  0  0  0
   -5.3300   24.8930  -29.4830 C   0  0  0  0  0  0  0  0  0  0  0  0
   -6.5620   24.0260  -29.7610 C   0  0  0  0  0  0  0  0  0  0  0  0
   -7.9088   22.0023  -33.4593 H   0  0  0  0  0  0  0  0  0  0  0  0
   -6.1712   21.7203  -33.0496 H   0  0  0  0  0  0  0  0  0  0  0  0
   -9.0022   20.1468  -31.0014 H   0  0  0  0  0  0  0  0  0  0  0  0
   -8.8270   17.5470  -31.1420 H   0  0  0  0  0  0  0  0  0  0  0  0
   -7.2449   15.7880  -32.6715 H   0  0  0  0  0  0  0  0  0  0  0  0
   -5.4176   15.8143  -34.4273 H   0  0  0  0  0  0  0  0  0  0  0  0
   -4.5609   18.0122  -35.2930 H   0  0  0  0  0  0  0  0  0  0  0  0
   -4.8492   21.6308  -31.5015 H   0  0  0  0  0  0  0  0  0  0  0  0
   -4.5474   23.3709  -31.8775 H   0  0  0  0  0  0  0  0  0  0  0  0
   -4.2144   21.9539  -29.1914 H   0  0  0  0  0  0  0  0  0  0  0  0
   -2.9358   22.7100  -30.2314 H   0  0  0  0  0  0  0  0  0  0  0  0
   -4.3796   24.4842  -26.5281 H   0  0  0  0  0  0  0  0  0  0  0  0
   -2.5921   25.3181  -25.0031 H   0  0  0  0  0  0  0  0  0  0  0  0
    0.1579   25.5424  -28.3296 H   0  0  0  0  0  0  0  0  0  0  0  0
   -1.6213   24.7142  -29.8653 H   0  0  0  0  0  0  0  0  0  0  0  0
   -5.5336   25.5419  -28.6184 H   0  0  0  0  0  0  0  0  0  0  0  0
   -5.1174   25.4993  -30.3759 H   0  0  0  0  0  0  0  0  0  0  0  0
   -6.8789   23.5462  -28.8232 H   0  0  0  0  0  0  0  0  0  0  0  0
   -7.3549   24.6759  -30.1598 H   0  0  0  0  0  0  0  0  0  0  0  0
  1  2  2  0
  2  3  1  0
  3  4  1  0
  4  5  1  0
  5  6  2  0
  6  7  1  0
  7  8  2  0
  8  9  1  0
  9 10  2  0
 10 11  1  0
 11 12  2  0
  2 13  1  0
 13 14  1  0
 14 15  1  0
 15 16  1  0
 16 17  1  0
 17 18  2  0
 18 19  1  0
 19 20  2  0
 20 21  1  0
 20 22  1  0
 22 23  2  0
 16 24  1  0
 24 25  1  0
 12  4  1  0
 25 13  1  0
 12  7  1  0
 23 17  1  0
  3 26  1  0
  3 27  1  0
  5 28  1  0
  6 29  1  0
  8 30  1  0
  9 31  1  0
 10 32  1  0
 14 33  1  0
 14 34  1  0
 15 35  1  0
 15 36  1  0
 18 37  1  0
 19 38  1  0
 22 39  1  0
 23 40  1  0
 24 41  1  0
 24 42  1  0
 25 43  1  0
 25 44  1  0
M  CHG  1   6   1
M  END
>  <UniqueID>  (23) 
19

>  <SMILES>  (23) 
O=C(Cn1c[nH+]c2cccnc21)N1CCN(c2ccc(F)cc2)CC1

>  <Energy>  (23) 
92.0942711896091

>  <Genealogy>  (23) 
O=C(Cn1c[nH+]c2cccnc21)N1CCN(c2ccc(F)cc2)CC1 (protonated)
O=C(Cn1c[nH+]c2cccnc21)N1CCN(c2ccc(F)cc2)CC1 (3D coordinates assigned)
O=C(Cn1c[nH+]c2cccnc21)N1CCN(c2ccc(F)cc2)CC1 (nonaromatic ring conformer: 92.0942711896091 kcal/mol)

>  <smiles>  (23) 
O=C(Cn1cnc2cccnc21)N1CCN(c2ccc(F)cc2)CC1

>  <score_type>  (23) 
oracle

>  <origin>  (23) 
adg

>  <m_score__min__energy>  (23) 
-7.5800000000000001

>  <m_primary>  (23) 
energy

$$$$
23:0
     RDKit          3D

 62 65  0  0  0  0  0  0  0  0999 V2000
   -1.7200   22.8130  -29.7920 C   0  0  0  0  0  0  0  0  0  0  0  0
   -2.8650   23.4500  -30.3550 O   0  0  0  0  0  0  0  0  0  0  0  0
   -3.9540   22.7760  -30.9320 C   0  0  0  0  0  0  0  0  0  0  0  0
   -3.9550   21.3810  -31.1060 C   0  0  0  0  0  0  0  0  0  0  0  0
   -5.0360   20.7290  -31.7130 C   0  0  0  0  0  0  0  0  0  0  0  0
   -4.9810   19.2140  -31.9100 C   0  0  1  0  0  0  0  0  0  0  0  0
   -6.6330   18.4620  -31.6520 S   0  0  0  0  0  0  0  0  0  0  0  0
   -6.8680   18.2350  -33.4350 C   0  0  0  0  0  0  0  0  0  0  0  0
   -5.5290   18.3650  -34.0610 C   0  0  0  0  0  0  0  0  0  0  0  0
   -5.3570   18.0530  -35.2320 O   0  0  0  0  0  0  0  0  0  0  0  0
   -4.4310   18.7580  -33.2190 N   0  0  1  0  0  0  0  0  0  0  0  0
   -3.4360   19.6620  -33.8620 C   0  0  0  0  0  0  0  0  0  0  0  0
   -1.9620   19.4560  -33.4110 C   0  0  0  0  0  0  0  0  0  0  0  0
   -1.3830   18.0850  -33.8090 C   0  0  0  0  0  0  0  0  0  0  0  0
   -2.4400   17.0780  -34.0320 N   0  0  0  0  0  0  0  0  0  0  0  0
   -2.2340   16.3480  -35.2970 C   0  0  0  0  0  0  0  0  0  0  0  0
   -3.4880   15.5320  -35.6220 C   0  0  0  0  0  0  0  0  0  0  0  0
   -3.9580   14.7350  -34.4310 C   0  0  0  0  0  0  0  0  0  0  0  0
   -4.9020   13.7100  -34.6150 C   0  0  0  0  0  0  0  0  0  0  0  0
   -5.3890   12.9970  -33.5180 C   0  0  0  0  0  0  0  0  0  0  0  0
   -4.9450   13.3030  -32.2290 C   0  0  0  0  0  0  0  0  0  0  0  0
   -4.0130   14.3260  -32.0320 C   0  0  0  0  0  0  0  0  0  0  0  0
   -3.5280   15.0600  -33.1240 C   0  0  0  0  0  0  0  0  0  0  0  0
   -2.4840   16.1250  -32.9050 C   0  0  0  0  0  0  0  0  0  0  0  0
   -6.1370   21.4940  -32.1300 C   0  0  0  0  0  0  0  0  0  0  0  0
   -6.1680   22.8910  -31.9510 C   0  0  0  0  0  0  0  0  0  0  0  0
   -7.2780   23.6450  -32.3640 O   0  0  0  0  0  0  0  0  0  0  0  0
   -8.6260   23.3960  -31.9790 C   0  0  0  0  0  0  0  0  0  0  0  0
   -5.0570   23.5360  -31.3490 C   0  0  0  0  0  0  0  0  0  0  0  0
   -4.9780   24.9260  -31.1420 O   0  0  0  0  0  0  0  0  0  0  0  0
   -5.7420   25.6910  -30.2150 C   0  0  0  0  0  0  0  0  0  0  0  0
   -1.7834   22.8483  -28.6944 H   0  0  0  0  0  0  0  0  0  0  0  0
   -1.6834   21.7648  -30.1237 H   0  0  0  0  0  0  0  0  0  0  0  0
   -0.8101   23.3346  -30.1237 H   0  0  0  0  0  0  0  0  0  0  0  0
   -3.0929   20.7919  -30.7599 H   0  0  0  0  0  0  0  0  0  0  0  0
   -4.2679   18.8689  -31.1468 H   0  0  0  0  0  0  0  0  0  0  0  0
   -7.2865   17.2383  -33.6384 H   0  0  0  0  0  0  0  0  0  0  0  0
   -7.5684   18.9802  -33.8400 H   0  0  0  0  0  0  0  0  0  0  0  0
   -3.9150   17.8650  -33.0220 H   0  0  0  0  0  0  0  0  0  0  0  0
   -3.4842   19.5020  -34.9492 H   0  0  0  0  0  0  0  0  0  0  0  0
   -3.7085   20.6823  -33.5542 H   0  0  0  0  0  0  0  0  0  0  0  0
   -1.3443   20.2415  -33.8708 H   0  0  0  0  0  0  0  0  0  0  0  0
   -1.9502   19.5053  -32.3122 H   0  0  0  0  0  0  0  0  0  0  0  0
   -0.8025   18.2009  -34.7362 H   0  0  0  0  0  0  0  0  0  0  0  0
   -0.7490   17.7325  -32.9820 H   0  0  0  0  0  0  0  0  0  0  0  0
   -2.0426   17.0658  -36.1082 H   0  0  0  0  0  0  0  0  0  0  0  0
   -1.3716   15.6727  -35.1958 H   0  0  0  0  0  0  0  0  0  0  0  0
   -4.2901   16.2185  -35.9308 H   0  0  0  0  0  0  0  0  0  0  0  0
   -3.2396   14.8279  -36.4298 H   0  0  0  0  0  0  0  0  0  0  0  0
   -5.2584   13.4687  -35.6273 H   0  0  0  0  0  0  0  0  0  0  0  0
   -6.1239   12.1925  -33.6687 H   0  0  0  0  0  0  0  0  0  0  0  0
   -5.3297   12.7377  -31.3674 H   0  0  0  0  0  0  0  0  0  0  0  0
   -3.6586   14.5562  -31.0164 H   0  0  0  0  0  0  0  0  0  0  0  0
   -2.7211   16.6738  -31.9816 H   0  0  0  0  0  0  0  0  0  0  0  0
   -1.5019   15.6356  -32.8277 H   0  0  0  0  0  0  0  0  0  0  0  0
   -6.9925   20.9925  -32.6060 H   0  0  0  0  0  0  0  0  0  0  0  0
   -8.6974   23.3828  -30.8814 H   0  0  0  0  0  0  0  0  0  0  0  0
   -9.2742   24.1896  -32.3791 H   0  0  0  0  0  0  0  0  0  0  0  0
   -8.9479   22.4232  -32.3791 H   0  0  0  0  0  0  0  0  0  0  0  0
   -5.4617   25.4103  -29.1890 H   0  0  0  0  0  0  0  0  0  0  0  0
   -5.5417   26.7614  -30.3700 H   0  0  0  0  0  0  0  0  0  0  0  0
   -6.8127   25.4921  -30.3700 H   0  0  0  0  0  0  0  0  0  0  0  0
  1  2  1  0
  2  3  1  0
  3  4  2  0
  4  5  1  0
  5  6  1  0
  6  7  1  0
  7  8  1  0
  8  9  1  0
  9 10  2  0
  9 11  1  0
 11 12  1  0
 12 13  1  0
 13 14  1  0
 14 15  1  0
 15 16  1  0
 16 17  1  0
 17 18  1  0
 18 19  2  0
 19 20  1  0
 20 21  2  0
 21 22  1  0
 22 23  2  0
 23 24  1  0
  5 25  2  0
 25 26  1  0
 26 27  1  0
 27 28  1  0
 26 29  2  0
 29 30  1  0
 30 31  1  0
 29  3  1  0
 11  6  1  0
 24 15  1  0
 23 18  1  0
  1 32  1  0
  1 33  1  0
  1 34  1  0
  4 35  1  0
  6 36  1  1
  8 37  1  0
  8 38  1  0
 11 39  1  1
 12 40  1  0
 12 41  1  0
 13 42  1  0
 13 43  1  0
 14 44  1  0
 14 45  1  0
 16 46  1  0
 16 47  1  0
 17 48  1  0
 17 49  1  0
 19 50  1  0
 20 51  1  0
 21 52  1  0
 22 53  1  0
 24 54  1  0
 24 55  1  0
 25 56  1  0
 28 57  1  0
 28 58  1  0
 28 59  1  0
 31 60  1  0
 31 61  1  0
 31 62  1  0
M  CHG  1  11   1
M  END
>  <UniqueID>  (24) 
20

>  <SMILES>  (24) 
COc1cc([C@H]2SCC(=O)[N@H+]2CCCN2CCc3ccccc3C2)cc(OC)c1OC

>  <Energy>  (24) 
76.19876561306488

>  <Genealogy>  (24) 
COc1cc(C2SCC(=O)[NH+]2CCCN2CCc3ccccc3C2)cc(OC)c1OC (protonated)
COc1cc([C@H]2SCC(=O)[N@H+]2CCCN2CCc3ccccc3C2)cc(OC)c1OC (chirality)
COc1cc([C@H]2SCC(=O)[N@H+]2CCCN2CCc3ccccc3C2)cc(OC)c1OC (3D coordinates assigned)
COc1cc([C@H]2SCC(=O)[N@H+]2CCCN2CCc3ccccc3C2)cc(OC)c1OC (nonaromatic ring conformer: 76.19876561306488 kcal/mol)

>  <smiles>  (24) 
COc1cc(C2SCC(=O)N2CCCN2CCc3ccccc3C2)cc(OC)c1OC

>  <score_type>  (24) 
oracle

>  <origin>  (24) 
adg

>  <m_score__min__energy>  (24) 
-8.3599999999999994

>  <m_primary>  (24) 
energy

$$$$
24:0
     RDKit          3D

 23 25  0  0  0  0  0  0  0  0999 V2000
   -6.4940   25.6810  -29.3430 C   0  0  0  0  0  0  0  0  0  0  0  0
   -5.1010   25.6700  -30.5120 S   0  0  0  0  0  0  0  0  0  0  0  0
   -5.5160   24.0570  -31.1670 C   0  0  0  0  0  0  0  0  0  0  0  0
   -4.5920   23.0470  -31.4630 C   0  0  0  0  0  0  0  0  0  0  0  0
   -5.2150   21.9500  -31.9390 N   0  0  0  0  0  0  0  0  0  0  0  0
   -4.8740   20.7340  -32.3710 C   0  0  0  0  0  0  0  0  0  0  0  0
   -6.0790   20.1140  -32.7190 C   0  0  0  0  0  0  0  0  0  0  0  0
   -6.2200   18.7510  -33.2500 C   0  0  0  0  0  0  0  0  0  0  0  0
   -5.5300   18.2070  -34.3280 C   0  0  0  0  0  0  0  0  0  0  0  0
   -5.8840   16.8780  -34.5950 C   0  0  0  0  0  0  0  0  0  0  0  0
   -6.8490   16.3730  -33.7350 C   0  0  0  0  0  0  0  0  0  0  0  0
   -7.2620   17.5800  -32.6390 S   0  0  0  0  0  0  0  0  0  0  0  0
   -7.1380   20.9450  -32.5010 N   0  0  0  0  0  0  0  0  0  0  0  0
   -6.5250   22.0440  -32.0260 C   0  0  0  0  0  0  0  0  0  0  0  0
   -7.1110   23.5310  -31.5150 S   0  0  0  0  0  0  0  0  0  0  0  0
   -6.1082   25.6780  -28.3129 H   0  0  0  0  0  0  0  0  0  0  0  0
   -7.1011   26.5840  -29.5045 H   0  0  0  0  0  0  0  0  0  0  0  0
   -7.1153   24.7877  -29.5045 H   0  0  0  0  0  0  0  0  0  0  0  0
   -3.5043   23.1366  -31.3256 H   0  0  0  0  0  0  0  0  0  0  0  0
   -3.8614   20.3097  -32.4389 H   0  0  0  0  0  0  0  0  0  0  0  0
   -4.7822   18.7637  -34.9118 H   0  0  0  0  0  0  0  0  0  0  0  0
   -5.4384   16.2895  -35.4106 H   0  0  0  0  0  0  0  0  0  0  0  0
   -7.2712   15.3577  -33.7650 H   0  0  0  0  0  0  0  0  0  0  0  0
  1  2  1  0
  2  3  1  0
  3  4  2  0
  4  5  1  0
  5  6  1  0
  6  7  2  0
  7  8  1  0
  8  9  2  0
  9 10  1  0
 10 11  2  0
 11 12  1  0
  7 13  1  0
 13 14  2  0
 14 15  1  0
 15  3  1  0
 14  5  1  0
 12  8  1  0
  1 16  1  0
  1 17  1  0
  1 18  1  0
  4 19  1  0
  6 20  1  0
  9 21  1  0
 10 22  1  0
 11 23  1  0
M  END
>  <UniqueID>  (25) 
21

>  <SMILES>  (25) 
CSc1cn2cc(-c3cccs3)nc2s1

>  <Energy>  (25) 
124.95987478440485

>  <Genealogy>  (25) 
CSc1cn2cc(-c3cccs3)nc2s1 (3D coordinates assigned)
CSc1cn2cc(-c3cccs3)nc2s1 (optimized conformer: 124.95987478440485 kcal/mol)

>  <smiles>  (25) 
CSc1cn2cc(-c3cccs3)nc2s1

>  <score_type>  (25) 
oracle

>  <origin>  (25) 
adg

>  <m_score__min__energy>  (25) 
-6.0599999999999996

>  <m_primary>  (25) 
energy

$$$$
25:0
     RDKit          3D

 44 48  0  0  0  0  0  0  0  0999 V2000
   -4.9300   26.0690  -30.4250 O   0  0  0  0  0  0  0  0  0  0  0  0
   -4.3220   24.9670  -30.4210 C   0  0  0  0  0  0  0  0  0  0  0  0
   -3.0400   24.8970  -29.7810 N   0  0  0  0  0  0  0  0  0  0  0  0
   -2.8010   24.4660  -28.4090 C   0  0  0  0  0  0  0  0  0  0  0  0
   -3.2450   23.0350  -28.1690 C   0  0  0  0  0  0  0  0  0  0  0  0
   -4.0630   24.1890  -27.6120 C   0  0  0  0  0  0  0  0  0  0  0  0
   -4.9400   23.8170  -31.1100 C   0  0  0  0  0  0  0  0  0  0  0  0
   -4.3540   22.5760  -31.3500 C   0  0  0  0  0  0  0  0  0  0  0  0
   -5.2970   21.8160  -31.9190 N   0  0  0  0  0  0  0  0  0  0  0  0
   -6.4010   22.5480  -31.9520 C   0  0  0  0  0  0  0  0  0  0  0  0
   -6.2600   23.7810  -31.4310 N   0  0  0  0  0  0  0  0  0  0  0  0
   -7.5660   21.7020  -31.9960 C   0  0  0  0  0  0  0  0  0  0  0  0
   -8.9240   22.0030  -31.9730 C   0  0  0  0  0  0  0  0  0  0  0  0
   -9.8300   20.9310  -31.9700 C   0  0  0  0  0  0  0  0  0  0  0  0
   -9.3670   19.5980  -31.9650 C   0  0  0  0  0  0  0  0  0  0  0  0
   -7.9780   19.3160  -31.9560 C   0  0  0  0  0  0  0  0  0  0  0  0
   -7.4580   18.0130  -31.9210 O   0  0  0  0  0  0  0  0  0  0  0  0
   -7.2160   17.1960  -33.0660 C   0  0  0  0  0  0  0  0  0  0  0  0
   -5.7490   17.1780  -33.4080 C   0  0  0  0  0  0  0  0  0  0  0  0
   -5.2140   18.1520  -34.2680 C   0  0  0  0  0  0  0  0  0  0  0  0
   -3.8550   18.1340  -34.5940 C   0  0  0  0  0  0  0  0  0  0  0  0
   -3.0220   17.1410  -34.0710 C   0  0  0  0  0  0  0  0  0  0  0  0
   -3.5480   16.1620  -33.2240 C   0  0  0  0  0  0  0  0  0  0  0  0
   -2.7400   15.1960  -32.7210 F   0  0  0  0  0  0  0  0  0  0  0  0
   -4.9080   16.1750  -32.8950 C   0  0  0  0  0  0  0  0  0  0  0  0
   -7.0950   20.3980  -31.9780 C   0  0  0  0  0  0  0  0  0  0  0  0
   -5.5850   20.3860  -31.8960 C   0  0  0  0  0  0  0  0  0  0  0  0
   -1.8892   25.0536  -28.2264 H   0  0  0  0  0  0  0  0  0  0  0  0
   -3.6380   22.4339  -29.0022 H   0  0  0  0  0  0  0  0  0  0  0  0
   -2.7762   22.1362  -27.7419 H   0  0  0  0  0  0  0  0  0  0  0  0
   -5.0479   24.4233  -28.0421 H   0  0  0  0  0  0  0  0  0  0  0  0
   -4.4315   24.4717  -26.6149 H   0  0  0  0  0  0  0  0  0  0  0  0
   -3.3205   22.2795  -31.1177 H   0  0  0  0  0  0  0  0  0  0  0  0
   -9.2756   23.0452  -31.9577 H   0  0  0  0  0  0  0  0  0  0  0  0
  -10.9115   21.1319  -31.9716 H   0  0  0  0  0  0  0  0  0  0  0  0
  -10.0910   18.7698  -31.9681 H   0  0  0  0  0  0  0  0  0  0  0  0
   -7.5498   16.1695  -32.8540 H   0  0  0  0  0  0  0  0  0  0  0  0
   -7.7727   17.6102  -33.9196 H   0  0  0  0  0  0  0  0  0  0  0  0
   -5.8674   18.9318  -34.6863 H   0  0  0  0  0  0  0  0  0  0  0  0
   -3.4405   18.9024  -35.2631 H   0  0  0  0  0  0  0  0  0  0  0  0
   -1.9521   17.1302  -34.3262 H   0  0  0  0  0  0  0  0  0  0  0  0
   -5.3200   15.3987  -32.2335 H   0  0  0  0  0  0  0  0  0  0  0  0
   -5.2341   19.9176  -30.9646 H   0  0  0  0  0  0  0  0  0  0  0  0
   -5.0909   19.8097  -32.6921 H   0  0  0  0  0  0  0  0  0  0  0  0
  1  2  2  0
  2  3  1  0
  3  4  1  0
  4  5  1  0
  5  6  1  0
  2  7  1  0
  7  8  2  0
  8  9  1  0
  9 10  1  0
 10 11  2  0
 10 12  1  0
 12 13  2  0
 13 14  1  0
 14 15  2  0
 15 16  1  0
 16 17  1  0
 17 18  1  0
 18 19  1  0
 19 20  2  0
 20 21  1  0
 21 22  2  0
 22 23  1  0
 23 24  1  0
 23 25  2  0
 16 26  2  0
 26 27  1  0
  6  4  1  0
 11  7  1  0
 26 12  1  0
 27  9  1  0
 25 19  1  0
  4 28  1  0
  5 29  1  0
  5 30  1  0
  6 31  1  0
  6 32  1  0
  8 33  1  0
 13 34  1  0
 14 35  1  0
 15 36  1  0
 18 37  1  0
 18 38  1  0
 20 39  1  0
 21 40  1  0
 22 41  1  0
 25 42  1  0
 27 43  1  0
 27 44  1  0
M  CHG  1   3  -1
M  END
>  <UniqueID>  (26) 
22

>  <SMILES>  (26) 
O=C([N-]C1CC1)c1cn2c(n1)-c1cccc(OCc3cccc(F)c3)c1C2

>  <Energy>  (26) 
384.45194563398655

>  <Genealogy>  (26) 
O=C([N-]C1CC1)c1cn2c(n1)-c1cccc(OCc3cccc(F)c3)c1C2 (protonated)
O=C([N-]C1CC1)c1cn2c(n1)-c1cccc(OCc3cccc(F)c3)c1C2 (3D coordinates assigned)
O=C([N-]C1CC1)c1cn2c(n1)-c1cccc(OCc3cccc(F)c3)c1C2 (nonaromatic ring conformer: 384.45194563398655 kcal/mol)

>  <smiles>  (26) 
O=C(NC1CC1)c1cn2c(n1)-c1cccc(OCc3cccc(F)c3)c1C2

>  <score_type>  (26) 
oracle

>  <origin>  (26) 
adg

>  <m_score__min__energy>  (26) 
-10.24

>  <m_primary>  (26) 
energy

$$$$
26:0
     RDKit          3D

 58 61  0  0  0  0  0  0  0  0999 V2000
   -8.6000   19.5710  -31.5570 C   0  0  0  0  0  0  0  0  0  0  0  0
   -8.6160   20.8560  -32.1690 O   0  0  0  0  0  0  0  0  0  0  0  0
   -7.8360   21.9450  -31.7470 C   0  0  0  0  0  0  0  0  0  0  0  0
   -7.7750   22.2280  -30.3790 C   0  0  0  0  0  0  0  0  0  0  0  0
   -7.0060   23.2950  -29.9060 C   0  0  0  0  0  0  0  0  0  0  0  0
   -6.2710   24.0920  -30.7980 C   0  0  0  0  0  0  0  0  0  0  0  0
   -5.4680   25.2300  -30.2900 C   0  0  0  0  0  0  0  0  0  0  0  0
   -6.0490   26.1870  -29.7170 O   0  0  0  0  0  0  0  0  0  0  0  0
   -4.0480   25.3060  -30.4760 N   0  0  0  0  0  0  0  0  0  0  0  0
   -3.1130   24.2300  -30.3100 C   0  0  0  0  0  0  0  0  0  0  0  0
   -2.1310   24.3360  -29.3190 C   0  0  0  0  0  0  0  0  0  0  0  0
   -1.2290   23.2920  -29.0940 C   0  0  0  0  0  0  0  0  0  0  0  0
   -0.2460   23.4350  -28.0570 N   0  0  0  0  0  0  0  0  0  0  0  0
    0.0540   22.4670  -27.0390 C   0  0  0  0  0  0  0  0  0  0  0  0
    0.6830   22.8450  -26.0150 O   0  0  0  0  0  0  0  0  0  0  0  0
   -0.3830   21.0530  -27.1430 C   0  0  0  0  0  0  0  0  0  0  0  0
    0.4030   20.1040  -27.8220 C   0  0  0  0  0  0  0  0  0  0  0  0
   -0.0090   18.7690  -27.8990 C   0  0  0  0  0  0  0  0  0  0  0  0
   -1.2090   18.3680  -27.3050 C   0  0  0  0  0  0  0  0  0  0  0  0
   -2.0050   19.3020  -26.6230 C   0  0  0  0  0  0  0  0  0  0  0  0
   -3.3140   18.8790  -26.0200 C   0  0  0  0  0  0  0  0  0  0  0  0
   -1.6000   20.6460  -26.5620 C   0  0  0  0  0  0  0  0  0  0  0  0
   -1.2840   22.1450  -29.9040 C   0  0  0  0  0  0  0  0  0  0  0  0
   -2.2840   22.0050  -30.8800 C   0  0  0  0  0  0  0  0  0  0  0  0
   -2.3840   20.7590  -31.6770 C   0  0  0  0  0  0  0  0  0  0  0  0
   -1.8920   19.6850  -31.2340 O   0  0  0  0  0  0  0  0  0  0  0  0
   -3.0570   20.7730  -32.9440 N   0  0  0  0  0  0  0  0  0  0  0  0
   -4.0030   19.8050  -33.4210 C   0  0  0  0  0  0  0  0  0  0  0  0
   -5.3690   20.1100  -33.3580 C   0  0  0  0  0  0  0  0  0  0  0  0
   -6.3200   19.2060  -33.8430 C   0  0  0  0  0  0  0  0  0  0  0  0
   -5.9090   17.9960  -34.4080 C   0  0  0  0  0  0  0  0  0  0  0  0
   -4.5480   17.6940  -34.4970 C   0  0  0  0  0  0  0  0  0  0  0  0
   -3.5950   18.5960  -34.0140 C   0  0  0  0  0  0  0  0  0  0  0  0
   -3.2050   23.0500  -31.0680 C   0  0  0  0  0  0  0  0  0  0  0  0
   -6.3450   23.8180  -32.1760 C   0  0  0  0  0  0  0  0  0  0  0  0
   -7.1170   22.7540  -32.6470 C   0  0  0  0  0  0  0  0  0  0  0  0
   -8.6014   19.6859  -30.4630 H   0  0  0  0  0  0  0  0  0  0  0  0
   -9.4912   19.0059  -31.8675 H   0  0  0  0  0  0  0  0  0  0  0  0
   -7.6950   19.0282  -31.8675 H   0  0  0  0  0  0  0  0  0  0  0  0
   -8.3376   21.6049  -29.6682 H   0  0  0  0  0  0  0  0  0  0  0  0
   -6.9765   23.5117  -28.8280 H   0  0  0  0  0  0  0  0  0  0  0  0
   -2.0681   25.2503  -28.7106 H   0  0  0  0  0  0  0  0  0  0  0  0
    1.3467   20.4133  -28.2950 H   0  0  0  0  0  0  0  0  0  0  0  0
    0.6135   18.0328  -28.4287 H   0  0  0  0  0  0  0  0  0  0  0  0
   -1.5305   17.3182  -27.3720 H   0  0  0  0  0  0  0  0  0  0  0  0
   -3.2374   18.9038  -24.9230 H   0  0  0  0  0  0  0  0  0  0  0  0
   -4.1078   19.5664  -26.3477 H   0  0  0  0  0  0  0  0  0  0  0  0
   -3.5555   17.8571  -26.3477 H   0  0  0  0  0  0  0  0  0  0  0  0
   -2.2381   21.3860  -26.0567 H   0  0  0  0  0  0  0  0  0  0  0  0
   -0.5364   21.3489  -29.7723 H   0  0  0  0  0  0  0  0  0  0  0  0
   -5.6958   21.0666  -32.9243 H   0  0  0  0  0  0  0  0  0  0  0  0
   -7.3912   19.4477  -33.7796 H   0  0  0  0  0  0  0  0  0  0  0  0
   -6.6568   17.2815  -34.7826 H   0  0  0  0  0  0  0  0  0  0  0  0
   -4.2252   16.7442  -34.9482 H   0  0  0  0  0  0  0  0  0  0  0  0
   -2.5239   18.3599  -34.0978 H   0  0  0  0  0  0  0  0  0  0  0  0
   -4.0051   22.9433  -31.8153 H   0  0  0  0  0  0  0  0  0  0  0  0
   -5.7904   24.4469  -32.8880 H   0  0  0  0  0  0  0  0  0  0  0  0
   -7.1635   22.5471  -33.7264 H   0  0  0  0  0  0  0  0  0  0  0  0
  1  2  1  0
  2  3  1  0
  3  4  2  0
  4  5  1  0
  5  6  2  0
  6  7  1  0
  7  8  2  0
  7  9  1  0
  9 10  1  0
 10 11  2  0
 11 12  1  0
 12 13  1  0
 13 14  1  0
 14 15  2  0
 14 16  1  0
 16 17  2  0
 17 18  1  0
 18 19  2  0
 19 20  1  0
 20 21  1  0
 20 22  2  0
 12 23  2  0
 23 24  1  0
 24 25  1  0
 25 26  2  0
 25 27  1  0
 27 28  1  0
 28 29  2  0
 29 30  1  0
 30 31  2  0
 31 32  1  0
 32 33  2  0
 24 34  2  0
  6 35  1  0
 35 36  2  0
 36  3  1  0
 34 10  1  0
 22 16  1  0
 33 28  1  0
  1 37  1  0
  1 38  1  0
  1 39  1  0
  4 40  1  0
  5 41  1  0
 11 42  1  0
 17 43  1  0
 18 44  1  0
 19 45  1  0
 21 46  1  0
 21 47  1  0
 21 48  1  0
 22 49  1  0
 23 50  1  0
 29 51  1  0
 30 52  1  0
 31 53  1  0
 32 54  1  0
 33 55  1  0
 34 56  1  0
 35 57  1  0
 36 58  1  0
M  CHG  3   9  -1  13  -1  27  -1
M  END
>  <UniqueID>  (27) 
23

>  <SMILES>  (27) 
COc1ccc(C(=O)[N-]c2cc([N-]C(=O)c3cccc(C)c3)cc(C(=O)[N-]c3ccccc3)c2)cc1

>  <Energy>  (27) 
78.22276209630222

>  <Genealogy>  (27) 
COc1ccc(C(=O)[N-]c2cc([N-]C(=O)c3cccc(C)c3)cc(C(=O)[N-]c3ccccc3)c2)cc1 (protonated)
COc1ccc(C(=O)[N-]c2cc([N-]C(=O)c3cccc(C)c3)cc(C(=O)[N-]c3ccccc3)c2)cc1 (3D coordinates assigned)
COc1ccc(C(=O)[N-]c2cc([N-]C(=O)c3cccc(C)c3)cc(C(=O)[N-]c3ccccc3)c2)cc1 (optimized conformer: 78.22276209630222 kcal/mol)

>  <smiles>  (27) 
COc1ccc(C(=O)Nc2cc(NC(=O)c3cccc(C)c3)cc(C(=O)Nc3ccccc3)c2)cc1

>  <score_type>  (27) 
oracle

>  <origin>  (27) 
adg

>  <m_score__min__energy>  (27) 
-12.69

>  <m_primary>  (27) 
energy

$$$$
27:0
     RDKit          3D

 43 45  0  0  0  0  0  0  0  0999 V2000
   -8.0635   17.5793  -31.4205 H   0  0  0  0  0  0  0  0  0  0  0  0
   -7.4020   18.4380  -31.6080 C   0  0  0  0  0  0  0  0  0  0  0  0
   -6.0910   18.2050  -31.7450 C   0  0  0  0  0  0  0  0  0  0  0  0
   -5.3963   18.5777  -30.9779 H   0  0  0  0  0  0  0  0  0  0  0  0
   -5.5450   17.4450  -32.9240 C   0  0  0  0  0  0  0  0  0  0  0  0
   -6.3822   17.0419  -33.5127 H   0  0  0  0  0  0  0  0  0  0  0  0
   -4.9097   16.6270  -32.5536 H   0  0  0  0  0  0  0  0  0  0  0  0
   -4.7290   18.3280  -33.7830 N   0  0  0  0  0  0  0  0  0  0  0  0
   -3.3500   18.4690  -33.2530 C   0  0  0  0  0  0  0  0  0  0  0  0
   -2.7622   17.5871  -33.5476 H   0  0  0  0  0  0  0  0  0  0  0  0
   -3.4088   18.5533  -32.1578 H   0  0  0  0  0  0  0  0  0  0  0  0
   -2.6620   19.7320  -33.7970 C   0  0  0  0  0  0  0  0  0  0  0  0
   -2.6139   19.6649  -34.8939 H   0  0  0  0  0  0  0  0  0  0  0  0
   -1.6560   19.7860  -33.3553 H   0  0  0  0  0  0  0  0  0  0  0  0
   -3.3930   20.9740  -33.4240 N   0  0  0  0  0  0  0  0  0  0  0  0
   -3.3350   21.6140  -34.2510 H   0  0  0  0  0  0  0  0  0  0  0  0
   -2.7720   21.6320  -32.2920 C   0  0  0  0  0  0  0  0  0  0  0  0
   -1.5190   21.5950  -32.1480 O   0  0  0  0  0  0  0  0  0  0  0  0
   -3.5920   22.2970  -31.2610 C   0  0  0  0  0  0  0  0  0  0  0  0
   -4.2280   23.4330  -31.4410 O   0  0  0  0  0  0  0  0  0  0  0  0
   -4.8570   23.7340  -30.3300 C   0  0  0  0  0  0  0  0  0  0  0  0
   -5.9240   25.2950  -30.0930 Br  0  0  0  0  0  0  0  0  0  0  0  0
   -4.6330   22.7620  -29.3780 C   0  0  0  0  0  0  0  0  0  0  0  0
   -5.0268   22.7358  -28.3512 H   0  0  0  0  0  0  0  0  0  0  0  0
   -3.8140   21.8300  -29.9780 C   0  0  0  0  0  0  0  0  0  0  0  0
   -3.4189   20.9065  -29.5297 H   0  0  0  0  0  0  0  0  0  0  0  0
   -4.8310   20.7500  -33.1380 C   0  0  0  0  0  0  0  0  0  0  0  0
   -5.3849   21.6799  -33.3343 H   0  0  0  0  0  0  0  0  0  0  0  0
   -4.9340   20.4520  -32.0842 H   0  0  0  0  0  0  0  0  0  0  0  0
   -5.4050   19.6300  -34.0180 C   0  0  0  0  0  0  0  0  0  0  0  0
   -5.2779   19.9094  -35.0743 H   0  0  0  0  0  0  0  0  0  0  0  0
   -6.4676   19.5097  -33.7602 H   0  0  0  0  0  0  0  0  0  0  0  0
   -8.0150   19.7850  -31.6940 C   0  0  0  0  0  0  0  0  0  0  0  0
   -7.2820   20.8890  -31.2250 C   0  0  0  0  0  0  0  0  0  0  0  0
   -6.2734   20.7383  -30.8127 H   0  0  0  0  0  0  0  0  0  0  0  0
   -7.8240   22.1780  -31.2780 C   0  0  0  0  0  0  0  0  0  0  0  0
   -7.2382   23.0359  -30.9161 H   0  0  0  0  0  0  0  0  0  0  0  0
   -9.1080   22.3760  -31.7900 C   0  0  0  0  0  0  0  0  0  0  0  0
   -9.5316   23.3901  -31.8356 H   0  0  0  0  0  0  0  0  0  0  0  0
   -9.8540   21.2870  -32.2440 C   0  0  0  0  0  0  0  0  0  0  0  0
  -10.8675   21.4444  -32.6416 H   0  0  0  0  0  0  0  0  0  0  0  0
   -9.3170   19.9960  -32.1950 C   0  0  0  0  0  0  0  0  0  0  0  0
   -9.9126   19.1415  -32.5487 H   0  0  0  0  0  0  0  0  0  0  0  0
  1  2  1  0
  2  3  2  0
  3  4  1  0
  3  5  1  0
  5  6  1  0
  5  7  1  0
  5  8  1  0
  8  9  1  0
  9 10  1  0
  9 11  1  0
  9 12  1  0
 12 13  1  0
 12 14  1  0
 12 15  1  0
 15 16  1  0
 15 17  1  0
 17 18  2  0
 17 19  1  0
 19 20  1  0
 20 21  1  0
 21 22  1  0
 21 23  2  0
 23 24  1  0
 23 25  1  0
 25 26  1  0
 15 27  1  0
 27 28  1  0
 27 29  1  0
 27 30  1  0
 30 31  1  0
 30 32  1  0
  2 33  1  0
 33 34  2  0
 34 35  1  0
 34 36  1  0
 36 37  1  0
 36 38  2  0
 38 39  1  0
 38 40  1  0
 40 41  1  0
 40 42  2  0
 42 43  1  0
 30  8  1  0
 42 33  1  0
 25 19  2  0
M  CHG  1  15   1
M  END
>  <UniqueID>  (28) 
24

>  <SMILES>  (28) 
O=C(c1ccc(Br)o1)[NH+]1CCN(C/C=C/c2ccccc2)CC1

>  <Energy>  (28) 
85.73861422670171

>  <Genealogy>  (28) 
O=C(c1ccc(Br)o1)[NH+]1CCN(CC=Cc2ccccc2)CC1 (protonated)
O=C(c1ccc(Br)o1)[NH+]1CCN(C/C=C/c2ccccc2)CC1 (cis-trans isomerization)
O=C(c1ccc(Br)o1)[NH+]1CCN(C/C=C/c2ccccc2)CC1 (3D coordinates assigned)
O=C(c1ccc(Br)o1)[NH+]1CCN(C/C=C/c2ccccc2)CC1 (nonaromatic ring conformer: 85.73861422670171 kcal/mol)

>  <smiles>  (28) 
O=C(c1ccc(Br)o1)N1CCN(CC=Cc2ccccc2)CC1

>  <score_type>  (28) 
oracle

>  <origin>  (28) 
adg

>  <m_score__min__energy>  (28) 
-8.1099999999999994

>  <m_primary>  (28) 
energy

$$$$
28:0
     RDKit          3D

 45 47  0  0  0  0  0  0  0  0999 V2000
   -2.4850   18.8050  -34.1220 C   0  0  0  0  0  0  0  0  0  0  0  0
   -3.0900   19.0500  -32.8590 O   0  0  0  0  0  0  0  0  0  0  0  0
   -2.6520   20.0560  -31.9930 C   0  0  0  0  0  0  0  0  0  0  0  0
   -1.6070   19.8830  -31.3060 O   0  0  0  0  0  0  0  0  0  0  0  0
   -3.4200   21.3110  -31.8360 C   0  0  0  0  0  0  0  0  0  0  0  0
   -2.9940   22.3710  -31.0550 C   0  0  0  0  0  0  0  0  0  0  0  0
   -3.9690   23.3440  -31.1370 C   0  0  0  0  0  0  0  0  0  0  0  0
   -3.9040   24.6580  -30.4660 C   0  0  0  0  0  0  0  0  0  0  0  0
   -4.5970   25.6080  -30.9170 O   0  0  0  0  0  0  0  0  0  0  0  0
   -3.0660   24.8950  -29.3280 N   0  0  0  0  0  0  0  0  0  0  0  0
   -2.1300   23.9690  -28.7580 C   0  0  0  0  0  0  0  0  0  0  0  0
   -0.7410   24.1160  -28.9330 C   0  0  0  0  0  0  0  0  0  0  0  0
    0.1410   23.1930  -28.3640 C   0  0  0  0  0  0  0  0  0  0  0  0
   -0.3530   22.1100  -27.6310 C   0  0  0  0  0  0  0  0  0  0  0  0
   -1.7330   21.9450  -27.4740 C   0  0  0  0  0  0  0  0  0  0  0  0
   -2.2130   20.8890  -26.7710 F   0  0  0  0  0  0  0  0  0  0  0  0
   -2.6170   22.8670  -28.0430 C   0  0  0  0  0  0  0  0  0  0  0  0
   -4.9770   22.8320  -31.9440 C   0  0  0  0  0  0  0  0  0  0  0  0
   -6.2730   23.5150  -32.2820 C   0  0  0  0  0  0  0  0  0  0  0  0
   -4.6260   21.6010  -32.3930 N   0  0  0  0  0  0  0  0  0  0  0  0
   -5.4100   20.7850  -33.3320 C   0  0  0  0  0  0  0  0  0  0  0  0
   -6.5220   20.0400  -32.6290 C   0  0  0  0  0  0  0  0  0  0  0  0
   -7.7460   20.6860  -32.3840 C   0  0  0  0  0  0  0  0  0  0  0  0
   -8.7950   20.0030  -31.7630 C   0  0  0  0  0  0  0  0  0  0  0  0
   -8.6390   18.6660  -31.3910 C   0  0  0  0  0  0  0  0  0  0  0  0
   -7.4330   18.0090  -31.6440 C   0  0  0  0  0  0  0  0  0  0  0  0
   -6.3800   18.6880  -32.2650 C   0  0  0  0  0  0  0  0  0  0  0  0
   -1.4750   18.3960  -33.9716 H   0  0  0  0  0  0  0  0  0  0  0  0
   -3.0931   18.0822  -34.6858 H   0  0  0  0  0  0  0  0  0  0  0  0
   -2.4188   19.7472  -34.6858 H   0  0  0  0  0  0  0  0  0  0  0  0
   -2.0582   22.4271  -30.4796 H   0  0  0  0  0  0  0  0  0  0  0  0
   -0.3485   24.9599  -29.5194 H   0  0  0  0  0  0  0  0  0  0  0  0
    1.2261   23.3191  -28.4932 H   0  0  0  0  0  0  0  0  0  0  0  0
    0.3428   21.3884  -27.1782 H   0  0  0  0  0  0  0  0  0  0  0  0
   -3.7019   22.7261  -27.9285 H   0  0  0  0  0  0  0  0  0  0  0  0
   -6.7953   23.7903  -31.3539 H   0  0  0  0  0  0  0  0  0  0  0  0
   -6.0672   24.4218  -32.8697 H   0  0  0  0  0  0  0  0  0  0  0  0
   -6.9047   22.8327  -32.8697 H   0  0  0  0  0  0  0  0  0  0  0  0
   -5.8490   21.4432  -34.0962 H   0  0  0  0  0  0  0  0  0  0  0  0
   -4.7366   20.0454  -33.7897 H   0  0  0  0  0  0  0  0  0  0  0  0
   -7.8790   21.7362  -32.6831 H   0  0  0  0  0  0  0  0  0  0  0  0
   -9.7460   20.5197  -31.5667 H   0  0  0  0  0  0  0  0  0  0  0  0
   -9.4650   18.1311  -30.8994 H   0  0  0  0  0  0  0  0  0  0  0  0
   -7.3111   16.9549  -31.3541 H   0  0  0  0  0  0  0  0  0  0  0  0
   -5.4356   18.1625  -32.4701 H   0  0  0  0  0  0  0  0  0  0  0  0
  1  2  1  0
  2  3  1  0
  3  4  2  0
  3  5  1  0
  5  6  2  0
  6  7  1  0
  7  8  1  0
  8  9  2  0
  8 10  1  0
 10 11  1  0
 11 12  2  0
 12 13  1  0
 13 14  2  0
 14 15  1  0
 15 16  1  0
 15 17  2  0
  7 18  2  0
 18 19  1  0
 18 20  1  0
 20 21  1  0
 21 22  1  0
 22 23  2  0
 23 24  1  0
 24 25  2  0
 25 26  1  0
 26 27  2  0
 20  5  1  0
 27 22  1  0
 17 11  1  0
  1 28  1  0
  1 29  1  0
  1 30  1  0
  6 31  1  0
 12 32  1  0
 13 33  1  0
 14 34  1  0
 17 35  1  0
 19 36  1  0
 19 37  1  0
 19 38  1  0
 21 39  1  0
 21 40  1  0
 23 41  1  0
 24 42  1  0
 25 43  1  0
 26 44  1  0
 27 45  1  0
M  CHG  1  10  -1
M  END
>  <UniqueID>  (29) 
25

>  <SMILES>  (29) 
COC(=O)c1cc(C(=O)[N-]c2cccc(F)c2)c(C)n1Cc1ccccc1

>  <Energy>  (29) 
79.22055030451257

>  <Genealogy>  (29) 
COC(=O)c1cc(C(=O)[N-]c2cccc(F)c2)c(C)n1Cc1ccccc1 (protonated)
COC(=O)c1cc(C(=O)[N-]c2cccc(F)c2)c(C)n1Cc1ccccc1 (3D coordinates assigned)
COC(=O)c1cc(C(=O)[N-]c2cccc(F)c2)c(C)n1Cc1ccccc1 (optimized conformer: 79.22055030451257 kcal/mol)

>  <smiles>  (29) 
COC(=O)c1cc(C(=O)Nc2cccc(F)c2)c(C)n1Cc1ccccc1

>  <score_type>  (29) 
oracle

>  <origin>  (29) 
adg

>  <m_score__min__energy>  (29) 
-9.3699999999999992

>  <m_primary>  (29) 
energy

$$$$
29:0
     RDKit          3D

 47 49  0  0  0  0  0  0  0  0999 V2000
    1.3940   24.8130  -27.4450 C   0  0  0  0  0  0  0  0  0  0  0  0
    0.4560   24.2100  -28.3290 O   0  0  0  0  0  0  0  0  0  0  0  0
   -0.2840   23.0520  -28.0380 C   0  0  0  0  0  0  0  0  0  0  0  0
    0.3340   21.7940  -27.8940 C   0  0  0  0  0  0  0  0  0  0  0  0
   -0.4300   20.6590  -27.6150 C   0  0  0  0  0  0  0  0  0  0  0  0
   -1.8140   20.7620  -27.4840 C   0  0  0  0  0  0  0  0  0  0  0  0
   -2.4400   22.0010  -27.6260 C   0  0  0  0  0  0  0  0  0  0  0  0
   -1.6820   23.1530  -27.8920 C   0  0  0  0  0  0  0  0  0  0  0  0
   -2.4960   24.7120  -28.0600 S   0  0  0  0  0  0  0  0  0  0  0  0
   -3.6570   24.8070  -27.1110 O   0  0  0  0  0  0  0  0  0  0  0  0
   -1.5160   25.8060  -27.7480 O   0  0  0  0  0  0  0  0  0  0  0  0
   -3.0800   24.9310  -29.6790 N   0  0  0  0  0  0  0  0  0  0  0  0
   -3.6580   23.9020  -30.4950 C   0  0  0  0  0  0  0  0  0  0  0  0
   -2.8590   22.8160  -30.8700 C   0  0  0  0  0  0  0  0  0  0  0  0
   -3.3840   21.7830  -31.6510 C   0  0  0  0  0  0  0  0  0  0  0  0
   -4.7280   21.8150  -32.0610 C   0  0  0  0  0  0  0  0  0  0  0  0
   -5.2910   20.7260  -32.8920 C   0  0  0  0  0  0  0  0  0  0  0  0
   -4.5910   20.2350  -33.8180 O   0  0  0  0  0  0  0  0  0  0  0  0
   -6.6110   20.2020  -32.6510 N   0  0  0  0  0  0  0  0  0  0  0  0
   -6.8450   18.7620  -32.8380 C   0  0  0  0  0  0  0  0  0  0  0  0
   -8.2950   18.3770  -32.5130 C   0  0  0  0  0  0  0  0  0  0  0  0
   -8.7530   19.0730  -31.2290 C   0  0  0  0  0  0  0  0  0  0  0  0
   -8.6680   20.6120  -31.3290 C   0  0  0  0  0  0  0  0  0  0  0  0
   -7.7530   21.1080  -32.4610 C   0  0  0  0  0  0  0  0  0  0  0  0
   -5.5240   22.9150  -31.7020 C   0  0  0  0  0  0  0  0  0  0  0  0
   -4.9960   23.9490  -30.9230 C   0  0  0  0  0  0  0  0  0  0  0  0
    1.0938   24.6200  -26.4045 H   0  0  0  0  0  0  0  0  0  0  0  0
    2.3923   24.3871  -27.6236 H   0  0  0  0  0  0  0  0  0  0  0  0
    1.4210   25.8981  -27.6236 H   0  0  0  0  0  0  0  0  0  0  0  0
    1.4251   21.7054  -28.0020 H   0  0  0  0  0  0  0  0  0  0  0  0
    0.0612   19.6817  -27.4984 H   0  0  0  0  0  0  0  0  0  0  0  0
   -2.4135   19.8653  -27.2684 H   0  0  0  0  0  0  0  0  0  0  0  0
   -3.5332   22.0758  -27.5291 H   0  0  0  0  0  0  0  0  0  0  0  0
   -1.8083   22.7752  -30.5471 H   0  0  0  0  0  0  0  0  0  0  0  0
   -2.7419   20.9402  -31.9465 H   0  0  0  0  0  0  0  0  0  0  0  0
   -6.6321   18.4989  -33.8846 H   0  0  0  0  0  0  0  0  0  0  0  0
   -6.1821   18.2143  -32.1520 H   0  0  0  0  0  0  0  0  0  0  0  0
   -8.9470   18.6831  -33.3444 H   0  0  0  0  0  0  0  0  0  0  0  0
   -8.3533   17.2878  -32.3706 H   0  0  0  0  0  0  0  0  0  0  0  0
   -9.7964   18.7895  -31.0268 H   0  0  0  0  0  0  0  0  0  0  0  0
   -8.0830   18.7528  -30.4175 H   0  0  0  0  0  0  0  0  0  0  0  0
   -9.6804   21.0052  -31.5033 H   0  0  0  0  0  0  0  0  0  0  0  0
   -8.2349   20.9722  -30.3842 H   0  0  0  0  0  0  0  0  0  0  0  0
   -8.3316   21.1582  -33.3952 H   0  0  0  0  0  0  0  0  0  0  0  0
   -7.3696   22.1030  -32.1910 H   0  0  0  0  0  0  0  0  0  0  0  0
   -6.5709   22.9634  -32.0363 H   0  0  0  0  0  0  0  0  0  0  0  0
   -5.6305   24.8031  -30.6438 H   0  0  0  0  0  0  0  0  0  0  0  0
  1  2  1  0
  2  3  1  0
  3  4  2  0
  4  5  1  0
  5  6  2  0
  6  7  1  0
  7  8  2  0
  8  9  1  0
  9 10  2  0
  9 11  2  0
  9 12  1  0
 12 13  1  0
 13 14  2  0
 14 15  1  0
 15 16  2  0
 16 17  1  0
 17 18  2  0
 17 19  1  0
 19 20  1  0
 20 21  1  0
 21 22  1  0
 22 23  1  0
 23 24  1  0
 16 25  1  0
 25 26  2  0
  8  3  1  0
 26 13  1  0
 24 19  1  0
  1 27  1  0
  1 28  1  0
  1 29  1  0
  4 30  1  0
  5 31  1  0
  6 32  1  0
  7 33  1  0
 14 34  1  0
 15 35  1  0
 20 36  1  0
 20 37  1  0
 21 38  1  0
 21 39  1  0
 22 40  1  0
 22 41  1  0
 23 42  1  0
 23 43  1  0
 24 44  1  0
 24 45  1  0
 25 46  1  0
 26 47  1  0
M  CHG  1  12  -1
M  END
>  <UniqueID>  (30) 
26

>  <SMILES>  (30) 
COc1ccccc1S(=O)(=O)[N-]c1ccc(C(=O)N2CCCCC2)cc1

>  <Energy>  (30) 
56.893381904616376

>  <Genealogy>  (30) 
COc1ccccc1S(=O)(=O)[N-]c1ccc(C(=O)N2CCCCC2)cc1 (protonated)
COc1ccccc1S(=O)(=O)[N-]c1ccc(C(=O)N2CCCCC2)cc1 (3D coordinates assigned)
COc1ccccc1S(=O)(=O)[N-]c1ccc(C(=O)N2CCCCC2)cc1 (nonaromatic ring conformer: 56.893381904616376 kcal/mol)

>  <smiles>  (30) 
COc1ccccc1S(=O)(=O)Nc1ccc(C(=O)N2CCCCC2)cc1

>  <score_type>  (30) 
oracle

>  <origin>  (30) 
adg

>  <m_score__min__energy>  (30) 
-10.09

>  <m_primary>  (30) 
energy

$$$$
30:0
     RDKit          3D

 51 54  0  0  0  0  0  0  0  0999 V2000
   -5.3630   16.4370  -31.9980 C   0  0  0  0  0  0  0  0  0  0  0  0
   -6.5000   17.3820  -32.1840 C   0  0  0  0  0  0  0  0  0  0  0  0
   -6.9240   18.2490  -31.2370 N   0  0  0  0  0  0  0  0  0  0  0  0
   -7.9600   18.8440  -31.8670 C   0  0  0  0  0  0  0  0  0  0  0  0
   -8.8350   19.8830  -31.2330 C   0  0  0  0  0  0  0  0  0  0  0  0
   -8.4330   21.2410  -31.6570 N   0  0  0  0  0  0  0  0  0  0  0  0
   -8.4200   22.1860  -30.5100 C   0  0  0  0  0  0  0  0  0  0  0  0
   -7.0190   22.3610  -29.9070 C   0  0  0  0  0  0  0  0  0  0  0  0
   -6.0040   22.9530  -30.9430 C   0  0  0  0  0  0  0  0  0  0  0  0
   -6.4420   22.5710  -32.3920 C   0  0  0  0  0  0  0  0  0  0  0  0
   -7.1590   21.2150  -32.4250 C   0  0  0  0  0  0  0  0  0  0  0  0
   -5.9470   24.5100  -30.8260 C   0  0  0  0  0  0  0  0  0  0  0  0
   -4.9420   25.0160  -29.7710 C   0  0  0  0  0  0  0  0  0  0  0  0
   -4.7120   23.9880  -28.7420 N   0  0  0  0  0  0  0  0  0  0  0  0
   -4.0730   24.5130  -27.5150 C   0  0  0  0  0  0  0  0  0  0  0  0
   -2.5680   24.4530  -27.5410 C   0  0  0  0  0  0  0  0  0  0  0  0
   -1.7660   23.6720  -26.7180 C   0  0  0  0  0  0  0  0  0  0  0  0
   -0.4000   23.8090  -26.9880 C   0  0  0  0  0  0  0  0  0  0  0  0
   -0.1210   24.6890  -28.0260 C   0  0  0  0  0  0  0  0  0  0  0  0
   -1.5770   25.2960  -28.6080 S   0  0  0  0  0  0  0  0  0  0  0  0
   -4.0270   22.7970  -29.2870 C   0  0  0  0  0  0  0  0  0  0  0  0
   -4.5830   22.3840  -30.6690 C   0  0  0  0  0  0  0  0  0  0  0  0
   -8.1480   18.3470  -33.1020 N   0  0  0  0  0  0  0  0  0  0  0  0
   -7.2330   17.4470  -33.2700 O   0  0  0  0  0  0  0  0  0  0  0  0
   -5.1828   16.2872  -30.9233 H   0  0  0  0  0  0  0  0  0  0  0  0
   -5.6075   15.4724  -32.4667 H   0  0  0  0  0  0  0  0  0  0  0  0
   -4.4594   16.8538  -32.4667 H   0  0  0  0  0  0  0  0  0  0  0  0
   -9.8787   19.7064  -31.5323 H   0  0  0  0  0  0  0  0  0  0  0  0
   -8.7313   19.8108  -30.1403 H   0  0  0  0  0  0  0  0  0  0  0  0
   -8.7796   23.1661  -30.8566 H   0  0  0  0  0  0  0  0  0  0  0  0
   -9.0708   21.7696  -29.7270 H   0  0  0  0  0  0  0  0  0  0  0  0
   -7.0855   23.0422  -29.0459 H   0  0  0  0  0  0  0  0  0  0  0  0
   -6.6539   21.3691  -29.6023 H   0  0  0  0  0  0  0  0  0  0  0  0
   -7.1236   23.3449  -32.7748 H   0  0  0  0  0  0  0  0  0  0  0  0
   -5.5397   22.4990  -33.0170 H   0  0  0  0  0  0  0  0  0  0  0  0
   -7.3797   20.9550  -33.4708 H   0  0  0  0  0  0  0  0  0  0  0  0
   -6.4972   20.4686  -31.9614 H   0  0  0  0  0  0  0  0  0  0  0  0
   -5.6597   24.9215  -31.8048 H   0  0  0  0  0  0  0  0  0  0  0  0
   -6.9447   24.8451  -30.5063 H   0  0  0  0  0  0  0  0  0  0  0  0
   -3.9881   25.2537  -30.2646 H   0  0  0  0  0  0  0  0  0  0  0  0
   -5.3545   25.9149  -29.2895 H   0  0  0  0  0  0  0  0  0  0  0  0
   -4.3763   25.5627  -27.3878 H   0  0  0  0  0  0  0  0  0  0  0  0
   -4.4051   23.8754  -26.6824 H   0  0  0  0  0  0  0  0  0  0  0  0
   -2.1648   23.0124  -25.9332 H   0  0  0  0  0  0  0  0  0  0  0  0
    0.3802   23.2702  -26.4304 H   0  0  0  0  0  0  0  0  0  0  0  0
    0.8804   24.9448  -28.4025 H   0  0  0  0  0  0  0  0  0  0  0  0
   -2.9549   23.0209  -29.3892 H   0  0  0  0  0  0  0  0  0  0  0  0
   -4.1975   21.9620  -28.5915 H   0  0  0  0  0  0  0  0  0  0  0  0
   -3.9001   22.7550  -31.4474 H   0  0  0  0  0  0  0  0  0  0  0  0
   -4.6585   21.2867  -30.6805 H   0  0  0  0  0  0  0  0  0  0  0  0
   -8.8840   18.6090  -33.7960 H   0  0  0  0  0  0  0  0  0  0  0  0
  1  2  1  0
  2  3  2  0
  3  4  1  0
  4  5  1  0
  5  6  1  0
  6  7  1  0
  7  8  1  0
  8  9  1  0
  9 10  1  0
 10 11  1  0
  9 12  1  0
 12 13  1  0
 13 14  1  0
 14 15  1  0
 15 16  1  0
 16 17  2  0
 17 18  1  0
 18 19  2  0
 19 20  1  0
 14 21  1  0
 21 22  1  0
  4 23  2  0
 23 24  1  0
 24  2  1  0
 11  6  1  0
 20 16  1  0
 22  9  1  0
  1 25  1  0
  1 26  1  0
  1 27  1  0
  5 28  1  0
  5 29  1  0
  7 30  1  0
  7 31  1  0
  8 32  1  0
  8 33  1  0
 10 34  1  0
 10 35  1  0
 11 36  1  0
 11 37  1  0
 12 38  1  0
 12 39  1  0
 13 40  1  0
 13 41  1  0
 15 42  1  0
 15 43  1  0
 17 44  1  0
 18 45  1  0
 19 46  1  0
 21 47  1  0
 21 48  1  0
 22 49  1  0
 22 50  1  0
 23 51  1  0
M  CHG  1  23   1
M  END
>  <UniqueID>  (31) 
27

>  <SMILES>  (31) 
Cc1nc(CN2CCC3(CC2)CCN(Cc2cccs2)CC3)[nH+]o1

>  <Energy>  (31) 
130.320735192505

>  <Genealogy>  (31) 
Cc1nc(CN2CCC3(CC2)CCN(Cc2cccs2)CC3)[nH+]o1 (protonated)
Cc1nc(CN2CCC3(CC2)CCN(Cc2cccs2)CC3)[nH+]o1 (3D coordinates assigned)
Cc1nc(CN2CCC3(CC2)CCN(Cc2cccs2)CC3)[nH+]o1 (nonaromatic ring conformer: 130.320735192505 kcal/mol)

>  <smiles>  (31) 
Cc1nc(CN2CCC3(CC2)CCN(Cc2cccs2)CC3)no1

>  <score_type>  (31) 
oracle

>  <origin>  (31) 
adg

>  <m_score__min__energy>  (31) 
-8.5

>  <m_primary>  (31) 
energy

$$$$
31:0
     RDKit          3D

 45 49  0  0  0  0  0  0  0  0999 V2000
   -4.5456   25.7927  -29.8250 H   0  0  0  0  0  0  0  0  0  0  0  0
   -4.1040   24.8120  -30.0560 C   0  0  0  0  0  0  0  0  0  0  0  0
   -4.8630   23.8480  -30.7250 C   0  0  0  0  0  0  0  0  0  0  0  0
   -5.8921   24.0838  -31.0337 H   0  0  0  0  0  0  0  0  0  0  0  0
   -4.3250   22.5790  -31.0080 C   0  0  0  0  0  0  0  0  0  0  0  0
   -5.1220   21.5980  -31.7030 N   0  0  0  0  0  0  0  0  0  0  0  0
   -4.7160   20.3690  -31.9680 N   0  0  0  0  0  0  0  0  0  0  0  0
   -5.7320   19.7740  -32.6240 C   0  0  0  0  0  0  0  0  0  0  0  0
   -5.6920   18.3780  -33.1110 C   0  0  0  0  0  0  0  0  0  0  0  0
   -4.4640   17.7340  -33.3310 C   0  0  0  0  0  0  0  0  0  0  0  0
   -3.5233   18.2710  -33.1393 H   0  0  0  0  0  0  0  0  0  0  0  0
   -4.4290   16.4150  -33.7920 C   0  0  0  0  0  0  0  0  0  0  0  0
   -3.4601   15.9227  -33.9622 H   0  0  0  0  0  0  0  0  0  0  0  0
   -5.6150   15.7150  -34.0390 C   0  0  0  0  0  0  0  0  0  0  0  0
   -5.5260   14.3930  -34.4990 O   0  0  0  0  0  0  0  0  0  0  0  0
   -6.6310   13.5010  -34.6020 C   0  0  0  0  0  0  0  0  0  0  0  0
   -6.9739   13.2242  -33.5942 H   0  0  0  0  0  0  0  0  0  0  0  0
   -7.4505   13.9937  -35.1457 H   0  0  0  0  0  0  0  0  0  0  0  0
   -6.3222   12.5960  -35.1457 H   0  0  0  0  0  0  0  0  0  0  0  0
   -6.8480   16.3570  -33.8180 C   0  0  0  0  0  0  0  0  0  0  0  0
   -7.7877   15.8173  -34.0067 H   0  0  0  0  0  0  0  0  0  0  0  0
   -6.8840   17.6770  -33.3600 C   0  0  0  0  0  0  0  0  0  0  0  0
   -7.8527   18.1708  -33.1932 H   0  0  0  0  0  0  0  0  0  0  0  0
   -6.7890   20.6000  -32.7900 N   0  0  0  0  0  0  0  0  0  0  0  0
   -6.3680   21.7340  -32.1980 C   0  0  0  0  0  0  0  0  0  0  0  0
   -6.9656   22.6548  -32.1274 H   0  0  0  0  0  0  0  0  0  0  0  0
   -3.0080   22.2980  -30.5970 C   0  0  0  0  0  0  0  0  0  0  0  0
   -2.5711   21.3099  -30.8041 H   0  0  0  0  0  0  0  0  0  0  0  0
   -2.2510   23.2640  -29.9280 C   0  0  0  0  0  0  0  0  0  0  0  0
   -1.2304   23.0230  -29.5959 H   0  0  0  0  0  0  0  0  0  0  0  0
   -2.7800   24.5350  -29.6770 C   0  0  0  0  0  0  0  0  0  0  0  0
   -1.9760   25.4860  -28.9570 N   0  0  0  0  0  0  0  0  0  0  0  0
   -1.3230   25.2800  -27.8490 C   0  0  0  0  0  0  0  0  0  0  0  0
    0.0140   24.9880  -27.8540 N   0  0  0  0  0  0  0  0  0  0  0  0
    0.6250   24.7620  -26.6950 N   0  0  0  0  0  0  0  0  0  0  0  0
    1.9040   24.4610  -26.4330 C   0  0  0  0  0  0  0  0  0  0  0  0
    2.6963   24.3541  -27.1885 H   0  0  0  0  0  0  0  0  0  0  0  0
    2.0750   24.3080  -25.0970 N   0  0  0  0  0  0  0  0  0  0  0  0
    0.8890   24.5130  -24.5270 N   0  0  0  0  0  0  0  0  0  0  0  0
    0.6980   24.4640  -23.5020 H   0  0  0  0  0  0  0  0  0  0  0  0
    0.0190   24.7880  -25.5110 C   0  0  0  0  0  0  0  0  0  0  0  0
   -1.3380   25.0640  -25.4150 C   0  0  0  0  0  0  0  0  0  0  0  0
   -1.8543   25.0881  -24.4440 H   0  0  0  0  0  0  0  0  0  0  0  0
   -2.0200   25.3110  -26.6180 C   0  0  0  0  0  0  0  0  0  0  0  0
   -3.0981   25.5290  -26.6030 H   0  0  0  0  0  0  0  0  0  0  0  0
  1  2  1  0
  2  3  2  0
  3  4  1  0
  3  5  1  0
  5  6  1  0
  6  7  1  0
  7  8  2  0
  8  9  1  0
  9 10  2  0
 10 11  1  0
 10 12  1  0
 12 13  1  0
 12 14  2  0
 14 15  1  0
 15 16  1  0
 16 17  1  0
 16 18  1  0
 16 19  1  0
 14 20  1  0
 20 21  1  0
 20 22  2  0
 22 23  1  0
  8 24  1  0
 24 25  2  0
 25 26  1  0
  5 27  2  0
 27 28  1  0
 27 29  1  0
 29 30  1  0
 29 31  2  0
 31 32  1  0
 32 33  2  0
 33 34  1  0
 34 35  1  0
 35 36  1  0
 36 37  1  0
 36 38  2  0
 38 39  1  0
 39 40  1  0
 39 41  2  0
 41 42  1  0
 42 43  1  0
 42 44  2  0
 44 45  1  0
 31  2  1  0
 44 33  1  0
 25  6  1  0
 41 35  1  0
 22  9  1  0
M  CHG  2  34  -1  39   1
M  END
>  <UniqueID>  (32) 
28

>  <SMILES>  (32) 
COc1ccc(-c2ncn(-c3ccc(/N=c4/ccc5[nH+]ncn5[n-]4)cc3)n2)cc1

>  <Energy>  (32) 
137.23587359373326

>  <Genealogy>  (32) 
COc1ccc(-c2ncn(-c3ccc(N=c4ccc5[nH+]ncn5[n-]4)cc3)n2)cc1 (protonated)
COc1ccc(-c2ncn(-c3ccc(/N=c4/ccc5[nH+]ncn5[n-]4)cc3)n2)cc1 (cis-trans isomerization)
COc1ccc(-c2ncn(-c3ccc(/N=c4/ccc5[nH+]ncn5[n-]4)cc3)n2)cc1 (3D coordinates assigned)
COc1ccc(-c2ncn(-c3ccc(/N=c4/ccc5[nH+]ncn5[n-]4)cc3)n2)cc1 (optimized conformer: 137.23587359373326 kcal/mol)

>  <smiles>  (32) 
COc1ccc(-c2ncn(-c3ccc(N=c4ccc5nncn5[nH]4)cc3)n2)cc1

>  <score_type>  (32) 
oracle

>  <origin>  (32) 
adg

>  <m_score__min__energy>  (32) 
-9.5

>  <m_primary>  (32) 
energy

$$$$
32:0
     RDKit          3D

 42 44  0  0  0  0  0  0  0  0999 V2000
    1.7320   25.2110  -27.4900 H   0  0  0  0  0  0  0  0  0  0  0  0
    0.8000   25.6830  -27.4670 N   0  0  0  0  0  0  0  0  0  0  0  0
   -0.2490   25.1320  -27.9850 C   0  0  0  0  0  0  0  0  0  0  0  0
   -0.1230   24.1790  -28.9450 N   0  0  0  0  0  0  0  0  0  0  0  0
   -1.2110   23.5900  -29.5040 C   0  0  0  0  0  0  0  0  0  0  0  0
   -1.0857   22.8227  -30.2822 H   0  0  0  0  0  0  0  0  0  0  0  0
   -2.4990   23.9660  -29.0830 C   0  0  0  0  0  0  0  0  0  0  0  0
   -3.7040   23.3320  -29.6720 C   0  0  0  0  0  0  0  0  0  0  0  0
   -3.6510   22.7220  -30.9380 C   0  0  0  0  0  0  0  0  0  0  0  0
   -2.7041   22.7073  -31.4975 H   0  0  0  0  0  0  0  0  0  0  0  0
   -4.7930   22.1340  -31.4910 C   0  0  0  0  0  0  0  0  0  0  0  0
   -4.7368   21.6538  -32.4790 H   0  0  0  0  0  0  0  0  0  0  0  0
   -6.0100   22.1530  -30.7930 C   0  0  0  0  0  0  0  0  0  0  0  0
   -7.2220   21.5280  -31.3740 C   0  0  0  0  0  0  0  0  0  0  0  0
   -8.3950   22.2950  -31.4820 C   0  0  0  0  0  0  0  0  0  0  0  0
   -8.3901   23.3476  -31.1625 H   0  0  0  0  0  0  0  0  0  0  0  0
   -9.5670   21.7310  -31.9920 C   0  0  0  0  0  0  0  0  0  0  0  0
  -10.4794   22.3400  -32.0729 H   0  0  0  0  0  0  0  0  0  0  0  0
   -9.5820   20.3960  -32.3990 C   0  0  0  0  0  0  0  0  0  0  0  0
  -10.5085   19.9509  -32.7908 H   0  0  0  0  0  0  0  0  0  0  0  0
   -8.4220   19.6260  -32.3090 C   0  0  0  0  0  0  0  0  0  0  0  0
   -8.4401   18.5731  -32.6268 H   0  0  0  0  0  0  0  0  0  0  0  0
   -7.2340   20.1830  -31.8170 C   0  0  0  0  0  0  0  0  0  0  0  0
   -5.7560   19.1490  -31.7790 S   0  0  0  0  0  0  0  0  0  0  0  0
   -5.2050   19.5360  -33.4830 C   0  0  0  0  0  0  0  0  0  0  0  0
   -5.5878   20.5258  -33.7722 H   0  0  0  0  0  0  0  0  0  0  0  0
   -3.6780   19.5880  -33.5650 C   0  0  0  0  0  0  0  0  0  0  0  0
   -3.2565   19.6024  -32.5490 H   0  0  0  0  0  0  0  0  0  0  0  0
   -3.3093   18.7019  -34.1024 H   0  0  0  0  0  0  0  0  0  0  0  0
   -3.3704   20.4971  -34.1024 H   0  0  0  0  0  0  0  0  0  0  0  0
   -5.7540   18.4720  -34.4320 C   0  0  0  0  0  0  0  0  0  0  0  0
   -6.1812   17.6442  -33.8470 H   0  0  0  0  0  0  0  0  0  0  0  0
   -6.5362   18.9147  -35.0661 H   0  0  0  0  0  0  0  0  0  0  0  0
   -4.9399   18.0910  -35.0661 H   0  0  0  0  0  0  0  0  0  0  0  0
   -6.0600   22.7410  -29.5210 C   0  0  0  0  0  0  0  0  0  0  0  0
   -7.0026   22.7366  -28.9540 H   0  0  0  0  0  0  0  0  0  0  0  0
   -4.9220   23.3320  -28.9690 C   0  0  0  0  0  0  0  0  0  0  0  0
   -4.9785   23.8016  -27.9759 H   0  0  0  0  0  0  0  0  0  0  0  0
   -2.6200   24.9230  -28.1160 N   0  0  0  0  0  0  0  0  0  0  0  0
   -3.5640   25.2390  -27.8000 H   0  0  0  0  0  0  0  0  0  0  0  0
   -1.5250   25.5120  -27.5630 C   0  0  0  0  0  0  0  0  0  0  0  0
   -1.6442   26.2833  -26.7878 H   0  0  0  0  0  0  0  0  0  0  0  0
  1  2  1  0
  2  3  2  0
  3  4  1  0
  4  5  1  0
  5  6  1  0
  5  7  2  0
  7  8  1  0
  8  9  2  0
  9 10  1  0
  9 11  1  0
 11 12  1  0
 11 13  2  0
 13 14  1  0
 14 15  2  0
 15 16  1  0
 15 17  1  0
 17 18  1  0
 17 19  2  0
 19 20  1  0
 19 21  1  0
 21 22  1  0
 21 23  2  0
 23 24  1  0
 24 25  1  0
 25 26  1  0
 25 27  1  0
 27 28  1  0
 27 29  1  0
 27 30  1  0
 25 31  1  0
 31 32  1  0
 31 33  1  0
 31 34  1  0
 13 35  1  0
 35 36  1  0
 35 37  2  0
 37 38  1  0
  7 39  1  0
 39 40  1  0
 39 41  2  0
 41 42  1  0
 41  3  1  0
 37  8  1  0
 23 14  1  0
M  CHG  2   4  -1  39   1
M  END
>  <UniqueID>  (33) 
29

>  <SMILES>  (33) 
[H]/N=c1/c[nH+]c(-c2ccc(-c3ccccc3SC(C)C)cc2)c[n-]1

>  <Energy>  (33) 
48.90901747169789

>  <Genealogy>  (33) 
CC(C)Sc1ccccc1-c1ccc(-c2c[n-]c(=N)c[nH+]2)cc1 (protonated)
[H]/N=c1/c[nH+]c(-c2ccc(-c3ccccc3SC(C)C)cc2)c[n-]1 (cis-trans isomerization)
[H]/N=c1/c[nH+]c(-c2ccc(-c3ccccc3SC(C)C)cc2)c[n-]1 (3D coordinates assigned)
[H]/N=c1/c[nH+]c(-c2ccc(-c3ccccc3SC(C)C)cc2)c[n-]1 (optimized conformer: 48.90901747169789 kcal/mol)

>  <smiles>  (33) 
CC(C)Sc1ccccc1-c1ccc(-c2c[nH]c(=N)cn2)cc1

>  <score_type>  (33) 
oracle

>  <origin>  (33) 
adg

>  <m_score__min__energy>  (33) 
-8.0399999999999991

>  <m_primary>  (33) 
energy

$$$$
33:0
     RDKit          3D

 39 42  0  0  0  0  0  0  0  0999 V2000
   -8.7450   21.9330  -30.5390 C   0  0  0  0  0  0  0  0  0  0  0  0
   -8.1600   20.8620  -31.3360 N   0  0  0  0  0  0  0  0  0  0  0  0
   -8.9330   19.7420  -31.8680 C   0  0  0  0  0  0  0  0  0  0  0  0
   -7.9470   18.9070  -32.7150 C   0  0  0  0  0  0  0  0  0  0  0  0
   -6.6560   19.6480  -32.5840 C   0  0  0  0  0  0  0  0  0  0  0  0
   -6.8150   20.7540  -31.7890 C   0  0  0  0  0  0  0  0  0  0  0  0
   -5.7170   21.5880  -31.5070 C   0  0  0  0  0  0  0  0  0  0  0  0
   -5.8240   22.7350  -30.6560 N   0  0  0  0  0  0  0  0  0  0  0  0
   -6.4870   23.9440  -31.1540 C   0  0  0  0  0  0  0  0  0  0  0  0
   -5.4910   25.1260  -31.2190 C   0  0  0  0  0  0  0  0  0  0  0  0
   -4.3140   24.9490  -30.4410 O   0  0  0  0  0  0  0  0  0  0  0  0
   -4.6060   24.3060  -29.2170 C   0  0  0  0  0  0  0  0  0  0  0  0
   -4.9390   22.8380  -29.4900 C   0  0  0  0  0  0  0  0  0  0  0  0
   -4.5060   21.2760  -32.0490 N   0  0  0  0  0  0  0  0  0  0  0  0
   -4.3240   20.1870  -32.8520 C   0  0  0  0  0  0  0  0  0  0  0  0
   -3.0610   19.9120  -33.3850 C   0  0  0  0  0  0  0  0  0  0  0  0
   -2.8740   18.7930  -34.2030 C   0  0  0  0  0  0  0  0  0  0  0  0
   -3.9480   17.9420  -34.4910 C   0  0  0  0  0  0  0  0  0  0  0  0
   -3.7030   16.5400  -35.5170 Cl  0  0  0  0  0  0  0  0  0  0  0  0
   -5.2170   18.2070  -33.9620 C   0  0  0  0  0  0  0  0  0  0  0  0
   -5.4120   19.3290  -33.1420 C   0  0  0  0  0  0  0  0  0  0  0  0
   -8.6203   21.7047  -29.4702 H   0  0  0  0  0  0  0  0  0  0  0  0
   -8.2399   22.8818  -30.7727 H   0  0  0  0  0  0  0  0  0  0  0  0
   -9.8163   22.0207  -30.7727 H   0  0  0  0  0  0  0  0  0  0  0  0
   -9.3403   19.1345  -31.0464 H   0  0  0  0  0  0  0  0  0  0  0  0
   -9.7852   20.0909  -32.4697 H   0  0  0  0  0  0  0  0  0  0  0  0
   -7.8555   17.8854  -32.3176 H   0  0  0  0  0  0  0  0  0  0  0  0
   -8.2708   18.7942  -33.7602 H   0  0  0  0  0  0  0  0  0  0  0  0
   -6.8831   23.7497  -32.1616 H   0  0  0  0  0  0  0  0  0  0  0  0
   -7.3046   24.2076  -30.4670 H   0  0  0  0  0  0  0  0  0  0  0  0
   -5.1915   25.2656  -32.2682 H   0  0  0  0  0  0  0  0  0  0  0  0
   -6.0138   25.9989  -30.8011 H   0  0  0  0  0  0  0  0  0  0  0  0
   -3.7329   24.3680  -28.5508 H   0  0  0  0  0  0  0  0  0  0  0  0
   -5.4643   24.7975  -28.7356 H   0  0  0  0  0  0  0  0  0  0  0  0
   -4.0096   22.2838  -29.6875 H   0  0  0  0  0  0  0  0  0  0  0  0
   -5.4463   22.4124  -28.6116 H   0  0  0  0  0  0  0  0  0  0  0  0
   -2.2135   20.5764  -33.1608 H   0  0  0  0  0  0  0  0  0  0  0  0
   -1.8792   18.5806  -34.6217 H   0  0  0  0  0  0  0  0  0  0  0  0
   -6.0595   17.5370  -34.1887 H   0  0  0  0  0  0  0  0  0  0  0  0
  1  2  1  0
  2  3  1  0
  3  4  1  0
  4  5  1  0
  5  6  2  0
  6  7  1  0
  7  8  1  0
  8  9  1  0
  9 10  1  0
 10 11  1  0
 11 12  1  0
 12 13  1  0
  7 14  2  0
 14 15  1  0
 15 16  2  0
 16 17  1  0
 17 18  2  0
 18 19  1  0
 18 20  1  0
 20 21  2  0
  6  2  1  0
 13  8  1  0
 21 15  1  0
 21  5  1  0
  1 22  1  0
  1 23  1  0
  1 24  1  0
  3 25  1  0
  3 26  1  0
  4 27  1  0
  4 28  1  0
  9 29  1  0
  9 30  1  0
 10 31  1  0
 10 32  1  0
 12 33  1  0
 12 34  1  0
 13 35  1  0
 13 36  1  0
 16 37  1  0
 17 38  1  0
 20 39  1  0
M  END
>  <UniqueID>  (34) 
30

>  <SMILES>  (34) 
CN1CCc2c1c(N1CCOCC1)nc1ccc(Cl)cc21

>  <Energy>  (34) 
72.18717259393182

>  <Genealogy>  (34) 
CN1CCc2c1c(N1CCOCC1)nc1ccc(Cl)cc21 (3D coordinates assigned)
CN1CCc2c1c(N1CCOCC1)nc1ccc(Cl)cc21 (nonaromatic ring conformer: 72.18717259393182 kcal/mol)

>  <smiles>  (34) 
CN1CCc2c1c(N1CCOCC1)nc1ccc(Cl)cc21

>  <score_type>  (34) 
oracle

>  <origin>  (34) 
adg

>  <m_score__min__energy>  (34) 
-8.0500000000000007

>  <m_primary>  (34) 
energy

$$$$
34:0
     RDKit          3D

 50 53  0  0  0  0  0  0  0  0999 V2000
    1.5310   24.9600  -36.6590 C   0  0  0  0  0  0  0  0  0  0  0  0
    1.4380   23.6680  -35.9220 C   0  0  0  0  0  0  0  0  0  0  0  0
    2.5120   22.9240  -35.5820 N   0  0  0  0  0  0  0  0  0  0  0  0
    1.9410   21.8480  -35.0040 C   0  0  0  0  0  0  0  0  0  0  0  0
    0.5960   21.9390  -35.0100 N   0  0  0  0  0  0  0  0  0  0  0  0
   -0.3660   20.9960  -34.4920 C   0  0  0  0  0  0  0  0  0  0  0  0
   -0.3250   19.6520  -34.9060 C   0  0  0  0  0  0  0  0  0  0  0  0
   -1.2470   18.7250  -34.4130 C   0  0  0  0  0  0  0  0  0  0  0  0
   -2.2340   19.1240  -33.5010 C   0  0  0  0  0  0  0  0  0  0  0  0
   -3.2010   18.1150  -32.9380 C   0  0  0  0  0  0  0  0  0  0  0  0
   -3.6990   17.1570  -34.0270 C   0  0  0  0  0  0  0  0  0  0  0  0
   -5.1070   16.7660  -33.7820 N   0  0  0  0  0  0  0  0  0  0  0  0
   -6.0370   17.4080  -34.7320 C   0  0  0  0  0  0  0  0  0  0  0  0
   -6.1090   18.9250  -34.5010 C   0  0  0  0  0  0  0  0  0  0  0  0
   -6.1640   19.2320  -33.0680 N   0  0  0  0  0  0  0  0  0  0  0  0
   -6.3700   20.5920  -32.6620 C   0  0  0  0  0  0  0  0  0  0  0  0
   -5.3120   21.4510  -32.6490 N   0  0  0  0  0  0  0  0  0  0  0  0
   -5.4440   22.7510  -32.2720 C   0  0  0  0  0  0  0  0  0  0  0  0
   -6.6920   23.2430  -31.8870 C   0  0  0  0  0  0  0  0  0  0  0  0
   -7.7970   22.3900  -31.9020 C   0  0  0  0  0  0  0  0  0  0  0  0
   -7.6460   21.0560  -32.2940 C   0  0  0  0  0  0  0  0  0  0  0  0
   -9.0660   20.0240  -32.3740 Cl  0  0  0  0  0  0  0  0  0  0  0  0
   -6.4350   18.1570  -32.1110 C   0  0  0  0  0  0  0  0  0  0  0  0
   -5.5130   16.9440  -32.3620 C   0  0  0  0  0  0  0  0  0  0  0  0
   -2.2750   20.4590  -33.0740 C   0  0  0  0  0  0  0  0  0  0  0  0
   -1.3520   21.3880  -33.5650 C   0  0  0  0  0  0  0  0  0  0  0  0
    0.2720   23.0810  -35.5930 N   0  0  0  0  0  0  0  0  0  0  0  0
    1.5907   25.7894  -35.9389 H   0  0  0  0  0  0  0  0  0  0  0  0
    2.4313   24.9576  -37.2910 H   0  0  0  0  0  0  0  0  0  0  0  0
    0.6396   25.0866  -37.2910 H   0  0  0  0  0  0  0  0  0  0  0  0
    2.5023   21.0020  -34.5806 H   0  0  0  0  0  0  0  0  0  0  0  0
    0.4411   19.3275  -35.6255 H   0  0  0  0  0  0  0  0  0  0  0  0
   -1.1981   17.6766  -34.7423 H   0  0  0  0  0  0  0  0  0  0  0  0
   -2.6962   17.5338  -32.1522 H   0  0  0  0  0  0  0  0  0  0  0  0
   -4.0666   18.6543  -32.5258 H   0  0  0  0  0  0  0  0  0  0  0  0
   -3.6283   17.6553  -35.0051 H   0  0  0  0  0  0  0  0  0  0  0  0
   -3.0745   16.2516  -34.0117 H   0  0  0  0  0  0  0  0  0  0  0  0
   -5.6896   17.2176  -35.7582 H   0  0  0  0  0  0  0  0  0  0  0  0
   -7.0402   16.9844  -34.5768 H   0  0  0  0  0  0  0  0  0  0  0  0
   -5.2173   19.3989  -34.9373 H   0  0  0  0  0  0  0  0  0  0  0  0
   -7.0210   19.3114  -34.9794 H   0  0  0  0  0  0  0  0  0  0  0  0
   -4.5669   23.4149  -32.2705 H   0  0  0  0  0  0  0  0  0  0  0  0
   -6.8038   24.2919  -31.5750 H   0  0  0  0  0  0  0  0  0  0  0  0
   -8.7868   22.7672  -31.6054 H   0  0  0  0  0  0  0  0  0  0  0  0
   -6.2650   18.5326  -31.0912 H   0  0  0  0  0  0  0  0  0  0  0  0
   -7.4791   17.8338  -32.2349 H   0  0  0  0  0  0  0  0  0  0  0  0
   -4.6032   17.0721  -31.7572 H   0  0  0  0  0  0  0  0  0  0  0  0
   -6.0887   16.0486  -32.0848 H   0  0  0  0  0  0  0  0  0  0  0  0
   -3.0379   20.7776  -32.3484 H   0  0  0  0  0  0  0  0  0  0  0  0
   -1.3962   22.4331  -33.2247 H   0  0  0  0  0  0  0  0  0  0  0  0
  1  2  1  0
  2  3  1  0
  3  4  2  0
  4  5  1  0
  5  6  1  0
  6  7  2  0
  7  8  1  0
  8  9  2  0
  9 10  1  0
 10 11  1  0
 11 12  1  0
 12 13  1  0
 13 14  1  0
 14 15  1  0
 15 16  1  0
 16 17  2  0
 17 18  1  0
 18 19  2  0
 19 20  1  0
 20 21  2  0
 21 22  1  0
 15 23  1  0
 23 24  1  0
  9 25  1  0
 25 26  2  0
  5 27  1  0
 27  2  2  0
 26  6  1  0
 24 12  1  0
 21 16  1  0
  1 28  1  0
  1 29  1  0
  1 30  1  0
  4 31  1  0
  7 32  1  0
  8 33  1  0
 10 34  1  0
 10 35  1  0
 11 36  1  0
 11 37  1  0
 13 38  1  0
 13 39  1  0
 14 40  1  0
 14 41  1  0
 18 42  1  0
 19 43  1  0
 20 44  1  0
 23 45  1  0
 23 46  1  0
 24 47  1  0
 24 48  1  0
 25 49  1  0
 26 50  1  0
M  END
>  <UniqueID>  (35) 
31

>  <SMILES>  (35) 
Cc1ncn(-c2ccc(CCN3CCN(c4ncccc4Cl)CC3)cc2)n1

>  <Energy>  (35) 
98.40265411828064

>  <Genealogy>  (35) 
Cc1ncn(-c2ccc(CCN3CCN(c4ncccc4Cl)CC3)cc2)n1 (3D coordinates assigned)
Cc1ncn(-c2ccc(CCN3CCN(c4ncccc4Cl)CC3)cc2)n1 (nonaromatic ring conformer: 98.40265411828064 kcal/mol)

>  <smiles>  (35) 
Cc1ncn(-c2ccc(CCN3CCN(c4ncccc4Cl)CC3)cc2)n1

>  <score_type>  (35) 
oracle

>  <origin>  (35) 
adg

>  <m_score__min__energy>  (35) 
-8.9499999999999993

>  <m_primary>  (35) 
energy

$$$$
35:0
     RDKit          3D

 36 38  0  0  0  0  0  0  0  0999 V2000
   -5.3547   15.5432  -34.0170 H   0  0  0  0  0  0  0  0  0  0  0  0
   -5.6820   16.5450  -33.7020 C   0  0  0  0  0  0  0  0  0  0  0  0
   -6.1270   16.7560  -32.3940 C   0  0  0  0  0  0  0  0  0  0  0  0
   -6.1421   15.9212  -31.6779 H   0  0  0  0  0  0  0  0  0  0  0  0
   -6.5530   18.0260  -31.9940 C   0  0  0  0  0  0  0  0  0  0  0  0
   -6.8962   18.1896  -30.9618 H   0  0  0  0  0  0  0  0  0  0  0  0
   -6.5440   19.0930  -32.9060 C   0  0  0  0  0  0  0  0  0  0  0  0
   -6.9990   20.4350  -32.4930 C   0  0  0  0  0  0  0  0  0  0  0  0
   -8.3780   20.6490  -32.3250 C   0  0  0  0  0  0  0  0  0  0  0  0
   -9.0825   19.8193  -32.4840 H   0  0  0  0  0  0  0  0  0  0  0  0
   -8.8600   21.9060  -31.9580 C   0  0  0  0  0  0  0  0  0  0  0  0
   -9.9411   22.0644  -31.8312 H   0  0  0  0  0  0  0  0  0  0  0  0
   -7.9730   22.9610  -31.7520 C   0  0  0  0  0  0  0  0  0  0  0  0
   -8.3563   23.9531  -31.4713 H   0  0  0  0  0  0  0  0  0  0  0  0
   -6.5990   22.7620  -31.9010 C   0  0  0  0  0  0  0  0  0  0  0  0
   -5.9055   23.5994  -31.7342 H   0  0  0  0  0  0  0  0  0  0  0  0
   -6.0950   21.5020  -32.2620 C   0  0  0  0  0  0  0  0  0  0  0  0
   -4.3400   21.2870  -32.3800 S   0  0  0  0  0  0  0  0  0  0  0  0
   -3.9430   21.0000  -33.8020 O   0  0  0  0  0  0  0  0  0  0  0  0
   -3.9320   20.1230  -31.5220 O   0  0  0  0  0  0  0  0  0  0  0  0
   -3.5440   22.7470  -31.8800 N   0  0  0  0  0  0  0  0  0  0  0  0
   -3.8760   23.4340  -30.8320 C   0  0  0  0  0  0  0  0  0  0  0  0
   -4.3560   24.6560  -30.8480 O   0  0  0  0  0  0  0  0  0  0  0  0
   -4.5470   25.0740  -29.6310 N   0  0  0  0  0  0  0  0  0  0  0  0
   -4.8970   26.0220  -29.3740 H   0  0  0  0  0  0  0  0  0  0  0  0
   -4.1870   24.0860  -28.7860 C   0  0  0  0  0  0  0  0  0  0  0  0
   -4.1520   24.2180  -27.2990 C   0  0  0  0  0  0  0  0  0  0  0  0
   -4.4081   23.2522  -26.8390 H   0  0  0  0  0  0  0  0  0  0  0  0
   -3.1429   24.5193  -26.9813 H   0  0  0  0  0  0  0  0  0  0  0  0
   -4.8792   24.9797  -26.9813 H   0  0  0  0  0  0  0  0  0  0  0  0
   -3.7430   23.0080  -29.5280 C   0  0  0  0  0  0  0  0  0  0  0  0
   -3.0690   21.4950  -28.9510 Cl  0  0  0  0  0  0  0  0  0  0  0  0
   -6.0770   18.8810  -34.2140 C   0  0  0  0  0  0  0  0  0  0  0  0
   -6.0447   19.7173  -34.9278 H   0  0  0  0  0  0  0  0  0  0  0  0
   -5.6530   17.6080  -34.6100 C   0  0  0  0  0  0  0  0  0  0  0  0
   -5.2962   17.4430  -35.6374 H   0  0  0  0  0  0  0  0  0  0  0  0
  1  2  1  0
  2  3  2  0
  3  4  1  0
  3  5  1  0
  5  6  1  0
  5  7  2  0
  7  8  1  0
  8  9  2  0
  9 10  1  0
  9 11  1  0
 11 12  1  0
 11 13  2  0
 13 14  1  0
 13 15  1  0
 15 16  1  0
 15 17  2  0
 17 18  1  0
 18 19  2  0
 18 20  2  0
 18 21  1  0
 21 22  2  0
 22 23  1  0
 23 24  1  0
 24 25  1  0
 24 26  1  0
 26 27  1  0
 27 28  1  0
 27 29  1  0
 27 30  1  0
 26 31  2  0
 31 32  1  0
  7 33  1  0
 33 34  1  0
 33 35  2  0
 35 36  1  0
 35  2  1  0
 17  8  1  0
 31 22  1  0
M  END
>  <UniqueID>  (36) 
32

>  <SMILES>  (36) 
Cc1[nH]o/c(=N\S(=O)(=O)c2ccccc2-c2ccccc2)c1Cl

>  <Energy>  (36) 
79.09625872326029

>  <Genealogy>  (36) 
Cc1[nH]o/c(=N\S(=O)(=O)c2ccccc2-c2ccccc2)c1Cl (cis-trans isomerization)
Cc1[nH]o/c(=N\S(=O)(=O)c2ccccc2-c2ccccc2)c1Cl (3D coordinates assigned)
Cc1[nH]o/c(=N\S(=O)(=O)c2ccccc2-c2ccccc2)c1Cl (optimized conformer: 79.09625872326029 kcal/mol)

>  <smiles>  (36) 
Cc1[nH]oc(=NS(=O)(=O)c2ccccc2-c2ccccc2)c1Cl

>  <score_type>  (36) 
oracle

>  <origin>  (36) 
adg

>  <m_score__min__energy>  (36) 
-9.6500000000000004

>  <m_primary>  (36) 
energy

$$$$
36:0
     RDKit          3D

 35 36  0  0  0  0  0  0  0  0999 V2000
   -3.5841   19.5275  -32.6347 H   0  0  0  0  0  0  0  0  0  0  0  0
   -4.1150   20.4800  -32.4900 C   0  0  0  0  0  0  0  0  0  0  0  0
   -5.2620   20.6680  -33.0680 N   0  0  0  0  0  0  0  0  0  0  0  0
   -6.5250   20.0990  -32.6750 C   0  0  0  0  0  0  0  0  0  0  0  0
   -6.7440   18.7060  -32.6360 C   0  0  0  0  0  0  0  0  0  0  0  0
   -5.9295   18.0164  -32.9025 H   0  0  0  0  0  0  0  0  0  0  0  0
   -7.9890   18.1980  -32.2610 C   0  0  0  0  0  0  0  0  0  0  0  0
   -8.1497   17.1104  -32.2250 H   0  0  0  0  0  0  0  0  0  0  0  0
   -9.0290   19.0660  -31.9320 C   0  0  0  0  0  0  0  0  0  0  0  0
  -10.0070   18.6618  -31.6316 H   0  0  0  0  0  0  0  0  0  0  0  0
   -8.8320   20.4470  -31.9830 C   0  0  0  0  0  0  0  0  0  0  0  0
   -9.6578   21.1274  -31.7278 H   0  0  0  0  0  0  0  0  0  0  0  0
   -7.5800   20.9740  -32.3600 C   0  0  0  0  0  0  0  0  0  0  0  0
   -7.3460   22.3560  -32.4280 O   0  0  0  0  0  0  0  0  0  0  0  0
   -8.2550   23.3530  -31.9700 C   0  0  0  0  0  0  0  0  0  0  0  0
   -8.2643   23.3632  -30.8701 H   0  0  0  0  0  0  0  0  0  0  0  0
   -7.9375   24.3379  -32.3432 H   0  0  0  0  0  0  0  0  0  0  0  0
   -9.2649   23.1276  -32.3432 H   0  0  0  0  0  0  0  0  0  0  0  0
   -3.5120   21.5300  -31.6390 C   0  0  0  0  0  0  0  0  0  0  0  0
   -2.3720   21.1860  -30.8970 C   0  0  0  0  0  0  0  0  0  0  0  0
   -1.9248   20.1883  -31.0175 H   0  0  0  0  0  0  0  0  0  0  0  0
   -1.8010   22.0940  -30.0100 C   0  0  0  0  0  0  0  0  0  0  0  0
   -0.9099   21.8080  -29.4319 H   0  0  0  0  0  0  0  0  0  0  0  0
   -2.3520   23.3620  -29.8510 C   0  0  0  0  0  0  0  0  0  0  0  0
   -1.9061   24.0659  -29.1329 H   0  0  0  0  0  0  0  0  0  0  0  0
   -3.4770   23.7490  -30.6040 C   0  0  0  0  0  0  0  0  0  0  0  0
   -4.0360   25.0330  -30.4820 O   0  0  0  0  0  0  0  0  0  0  0  0
   -5.3680   25.2990  -30.0560 C   0  0  0  0  0  0  0  0  0  0  0  0
   -5.4067   25.3067  -28.9567 H   0  0  0  0  0  0  0  0  0  0  0  0
   -5.6874   26.2787  -30.4411 H   0  0  0  0  0  0  0  0  0  0  0  0
   -6.0391   24.5171  -30.4411 H   0  0  0  0  0  0  0  0  0  0  0  0
   -4.0520   22.8380  -31.5160 C   0  0  0  0  0  0  0  0  0  0  0  0
   -5.1370   23.2770  -32.3500 N   0  0  0  0  0  0  0  0  0  0  0  0
   -5.8270   23.9860  -32.0220 H   0  0  0  0  0  0  0  0  0  0  0  0
   -5.3500   22.8010  -33.2550 H   0  0  0  0  0  0  0  0  0  0  0  0
  1  2  1  0
  2  3  2  0
  3  4  1  0
  4  5  2  0
  5  6  1  0
  5  7  1  0
  7  8  1  0
  7  9  2  0
  9 10  1  0
  9 11  1  0
 11 12  1  0
 11 13  2  0
 13 14  1  0
 14 15  1  0
 15 16  1  0
 15 17  1  0
 15 18  1  0
  2 19  1  0
 19 20  2  0
 20 21  1  0
 20 22  1  0
 22 23  1  0
 22 24  2  0
 24 25  1  0
 24 26  1  0
 26 27  1  0
 27 28  1  0
 28 29  1  0
 28 30  1  0
 28 31  1  0
 26 32  2  0
 32 33  1  0
 33 34  1  0
 33 35  1  0
 13  4  1  0
 32 19  1  0
M  END
>  <UniqueID>  (37) 
33

>  <SMILES>  (37) 
COc1ccccc1/N=C/c1cccc(OC)c1N

>  <Energy>  (37) 
42.76790674283081

>  <Genealogy>  (37) 
COc1ccccc1/N=C/c1cccc(OC)c1N (cis-trans isomerization)
COc1ccccc1/N=C/c1cccc(OC)c1N (3D coordinates assigned)
COc1ccccc1/N=C/c1cccc(OC)c1N (optimized conformer: 42.76790674283081 kcal/mol)

>  <smiles>  (37) 
COc1ccccc1N=Cc1cccc(OC)c1N

>  <score_type>  (37) 
oracle

>  <origin>  (37) 
adg

>  <m_score__min__energy>  (37) 
-7.3700000000000001

>  <m_primary>  (37) 
energy

$$$$
37:0
     RDKit          3D

 29 29  0  0  0  0  0  0  0  0999 V2000
   -5.7300   18.4780  -34.3860 C   0  0  0  0  0  0  0  0  0  0  0  0
   -6.6190   17.4190  -33.7240 C   0  0  0  0  0  0  0  0  0  0  0  0
   -5.9580   16.0330  -33.7910 C   0  0  0  0  0  0  0  0  0  0  0  0
   -7.0510   17.8010  -32.2850 C   0  0  0  0  0  0  0  0  0  0  0  0
   -8.3690   18.5940  -32.1750 C   0  0  0  0  0  0  0  0  0  0  0  0
   -8.3090   19.8650  -32.9030 N   0  0  0  0  0  0  0  0  0  0  0  0
   -7.6710   21.0450  -32.3790 C   0  0  0  0  0  0  0  0  0  0  0  0
   -8.4520   22.0210  -31.7390 C   0  0  0  0  0  0  0  0  0  0  0  0
   -7.8610   23.1780  -31.2210 C   0  0  0  0  0  0  0  0  0  0  0  0
   -6.4810   23.3700  -31.3340 C   0  0  0  0  0  0  0  0  0  0  0  0
   -5.7410   24.8220  -30.6840 Cl  0  0  0  0  0  0  0  0  0  0  0  0
   -5.6930   22.4060  -31.9660 C   0  0  0  0  0  0  0  0  0  0  0  0
   -6.2800   21.2470  -32.4860 C   0  0  0  0  0  0  0  0  0  0  0  0
   -5.2294   19.0743  -33.6089 H   0  0  0  0  0  0  0  0  0  0  0  0
   -4.9734   17.9823  -35.0120 H   0  0  0  0  0  0  0  0  0  0  0  0
   -6.3492   19.1373  -35.0120 H   0  0  0  0  0  0  0  0  0  0  0  0
   -7.5534   17.3737  -34.3026 H   0  0  0  0  0  0  0  0  0  0  0  0
   -5.7809   15.6616  -32.7709 H   0  0  0  0  0  0  0  0  0  0  0  0
   -6.6207   15.3361  -34.3250 H   0  0  0  0  0  0  0  0  0  0  0  0
   -4.9994   16.1094  -34.3250 H   0  0  0  0  0  0  0  0  0  0  0  0
   -7.1657   16.8716  -31.7078 H   0  0  0  0  0  0  0  0  0  0  0  0
   -6.2649   18.4678  -31.9011 H   0  0  0  0  0  0  0  0  0  0  0  0
   -9.1853   17.9851  -32.5907 H   0  0  0  0  0  0  0  0  0  0  0  0
   -8.5415   18.8196  -31.1123 H   0  0  0  0  0  0  0  0  0  0  0  0
   -8.7540   19.9310  -33.8460 H   0  0  0  0  0  0  0  0  0  0  0  0
   -9.5380   21.8743  -31.6443 H   0  0  0  0  0  0  0  0  0  0  0  0
   -8.4827   23.9375  -30.7243 H   0  0  0  0  0  0  0  0  0  0  0  0
   -4.6072   22.5581  -32.0554 H   0  0  0  0  0  0  0  0  0  0  0  0
   -5.6532   20.4902  -32.9804 H   0  0  0  0  0  0  0  0  0  0  0  0
  1  2  1  0
  2  3  1  0
  2  4  1  0
  4  5  1  0
  5  6  1  0
  6  7  1  0
  7  8  2  0
  8  9  1  0
  9 10  2  0
 10 11  1  0
 10 12  1  0
 12 13  2  0
 13  7  1  0
  1 14  1  0
  1 15  1  0
  1 16  1  0
  2 17  1  0
  3 18  1  0
  3 19  1  0
  3 20  1  0
  4 21  1  0
  4 22  1  0
  5 23  1  0
  5 24  1  0
  6 25  1  0
  8 26  1  0
  9 27  1  0
 12 28  1  0
 13 29  1  0
M  END
>  <UniqueID>  (38) 
34

>  <SMILES>  (38) 
CC(C)CCNc1ccc(Cl)cc1

>  <Energy>  (38) 
21.895932327055693

>  <Genealogy>  (38) 
CC(C)CCNc1ccc(Cl)cc1 (3D coordinates assigned)
CC(C)CCNc1ccc(Cl)cc1 (optimized conformer: 21.895932327055693 kcal/mol)

>  <smiles>  (38) 
CC(C)CCNc1ccc(Cl)cc1

>  <score_type>  (38) 
oracle

>  <origin>  (38) 
adg

>  <m_score__min__energy>  (38) 
-6.0599999999999996

>  <m_primary>  (38) 
energy

$$$$
38:0
     RDKit          3D

 54 57  0  0  0  0  0  0  0  0999 V2000
   -8.9180   20.9470  -32.1080 C   0  0  0  0  0  0  0  0  0  0  0  0
   -7.5720   21.0540  -31.7470 C   0  0  0  0  0  0  0  0  0  0  0  0
   -6.7920   19.9040  -31.5960 C   0  0  0  0  0  0  0  0  0  0  0  0
   -7.3560   18.6320  -31.8020 C   0  0  0  0  0  0  0  0  0  0  0  0
   -6.5060   17.3840  -31.6900 C   0  0  0  0  0  0  0  0  0  0  0  0
   -5.9140   16.9090  -32.9690 N   0  0  0  0  0  0  0  0  0  0  0  0
   -4.5090   16.4440  -32.8500 C   0  0  0  0  0  0  0  0  0  0  0  0
   -3.4490   17.5610  -32.9940 C   0  0  0  0  0  0  0  0  0  0  0  0
   -4.0230   18.8360  -33.4630 N   0  0  0  0  0  0  0  0  0  0  0  0
   -2.9460   19.7790  -33.8390 C   0  0  0  0  0  0  0  0  0  0  0  0
   -2.9660   21.0080  -32.9270 C   0  0  0  0  0  0  0  0  0  0  0  0
   -3.6810   20.7050  -31.6880 N   0  0  0  0  0  0  0  0  0  0  0  0
   -3.7040   21.5890  -30.5490 C   0  0  0  0  0  0  0  0  0  0  0  0
   -2.9390   21.2820  -29.4090 C   0  0  0  0  0  0  0  0  0  0  0  0
   -2.9880   22.0910  -28.2740 C   0  0  0  0  0  0  0  0  0  0  0  0
   -3.8010   23.2210  -28.2500 C   0  0  0  0  0  0  0  0  0  0  0  0
   -4.5690   23.5610  -29.3720 C   0  0  0  0  0  0  0  0  0  0  0  0
   -5.3780   24.7080  -29.3450 C   0  0  0  0  0  0  0  0  0  0  0  0
   -6.1290   25.0650  -30.4650 C   0  0  0  0  0  0  0  0  0  0  0  0
   -6.0740   24.2890  -31.6220 C   0  0  0  0  0  0  0  0  0  0  0  0
   -5.2760   23.1430  -31.6660 C   0  0  0  0  0  0  0  0  0  0  0  0
   -4.5230   22.7480  -30.5380 C   0  0  0  0  0  0  0  0  0  0  0  0
   -4.9190   18.5770  -34.5990 C   0  0  0  0  0  0  0  0  0  0  0  0
   -6.1640   17.8090  -34.1280 C   0  0  0  0  0  0  0  0  0  0  0  0
   -8.7040   18.5360  -32.1860 C   0  0  0  0  0  0  0  0  0  0  0  0
   -9.4840   19.6890  -32.3260 C   0  0  0  0  0  0  0  0  0  0  0  0
   -9.5313   21.8532  -32.2204 H   0  0  0  0  0  0  0  0  0  0  0  0
   -7.1255   22.0455  -31.5813 H   0  0  0  0  0  0  0  0  0  0  0  0
   -5.7324   19.9941  -31.3148 H   0  0  0  0  0  0  0  0  0  0  0  0
   -5.6834   17.5932  -30.9903 H   0  0  0  0  0  0  0  0  0  0  0  0
   -7.1787   16.5840  -31.3472 H   0  0  0  0  0  0  0  0  0  0  0  0
   -6.4620   16.0370  -33.1780 H   0  0  0  0  0  0  0  0  0  0  0  0
   -4.3842   15.9773  -31.8618 H   0  0  0  0  0  0  0  0  0  0  0  0
   -4.3400   15.7435  -33.6811 H   0  0  0  0  0  0  0  0  0  0  0  0
   -2.9779   17.7270  -32.0140 H   0  0  0  0  0  0  0  0  0  0  0  0
   -2.7186   17.2296  -33.7468 H   0  0  0  0  0  0  0  0  0  0  0  0
   -1.9734   19.2739  -33.7443 H   0  0  0  0  0  0  0  0  0  0  0  0
   -3.1051   20.1045  -34.8776 H   0  0  0  0  0  0  0  0  0  0  0  0
   -1.9328   21.3003  -32.6882 H   0  0  0  0  0  0  0  0  0  0  0  0
   -3.4787   21.8317  -33.4454 H   0  0  0  0  0  0  0  0  0  0  0  0
   -4.1170   19.7600  -31.6100 H   0  0  0  0  0  0  0  0  0  0  0  0
   -2.2932   20.3915  -29.4129 H   0  0  0  0  0  0  0  0  0  0  0  0
   -2.3811   21.8349  -27.3931 H   0  0  0  0  0  0  0  0  0  0  0  0
   -3.8407   23.8489  -27.3477 H   0  0  0  0  0  0  0  0  0  0  0  0
   -5.4198   25.3276  -28.4371 H   0  0  0  0  0  0  0  0  0  0  0  0
   -6.7663   25.9611  -30.4353 H   0  0  0  0  0  0  0  0  0  0  0  0
   -6.6619   24.5805  -32.5048 H   0  0  0  0  0  0  0  0  0  0  0  0
   -5.2337   22.5431  -32.5871 H   0  0  0  0  0  0  0  0  0  0  0  0
   -5.2290   19.5345  -35.0430 H   0  0  0  0  0  0  0  0  0  0  0  0
   -4.3853   17.9719  -35.3466 H   0  0  0  0  0  0  0  0  0  0  0  0
   -6.9335   18.5401  -33.8393 H   0  0  0  0  0  0  0  0  0  0  0  0
   -6.4816   17.1707  -34.9656 H   0  0  0  0  0  0  0  0  0  0  0  0
   -9.1488   17.5484  -32.3777 H   0  0  0  0  0  0  0  0  0  0  0  0
  -10.5439   19.6046  -32.6080 H   0  0  0  0  0  0  0  0  0  0  0  0
  1  2  2  0
  2  3  1  0
  3  4  2  0
  4  5  1  0
  5  6  1  0
  6  7  1  0
  7  8  1  0
  8  9  1  0
  9 10  1  0
 10 11  1  0
 11 12  1  0
 12 13  1  0
 13 14  2  0
 14 15  1  0
 15 16  2  0
 16 17  1  0
 17 18  2  0
 18 19  1  0
 19 20  2  0
 20 21  1  0
 21 22  2  0
  9 23  1  0
 23 24  1  0
  4 25  1  0
 25 26  2  0
 26  1  1  0
 24  6  1  0
 22 13  1  0
 22 17  1  0
  1 27  1  0
  2 28  1  0
  3 29  1  0
  5 30  1  0
  5 31  1  0
  6 32  1  0
  7 33  1  0
  7 34  1  0
  8 35  1  0
  8 36  1  0
 10 37  1  0
 10 38  1  0
 11 39  1  0
 11 40  1  0
 12 41  1  0
 14 42  1  0
 15 43  1  0
 16 44  1  0
 18 45  1  0
 19 46  1  0
 20 47  1  0
 21 48  1  0
 23 49  1  0
 23 50  1  0
 24 51  1  0
 24 52  1  0
 25 53  1  0
 26 54  1  0
M  CHG  1   6   1
M  END
>  <UniqueID>  (39) 
35

>  <SMILES>  (39) 
c1ccc(C[NH+]2CCN(CCNc3cccc4ccccc34)CC2)cc1

>  <Energy>  (39) 
77.9321598886049

>  <Genealogy>  (39) 
c1ccc(C[NH+]2CCN(CCNc3cccc4ccccc34)CC2)cc1 (protonated)
c1ccc(C[NH+]2CCN(CCNc3cccc4ccccc34)CC2)cc1 (3D coordinates assigned)
c1ccc(C[NH+]2CCN(CCNc3cccc4ccccc34)CC2)cc1 (nonaromatic ring conformer: 77.9321598886049 kcal/mol)

>  <smiles>  (39) 
c1ccc(CN2CCN(CCNc3cccc4ccccc34)CC2)cc1

>  <score_type>  (39) 
oracle

>  <origin>  (39) 
adg

>  <m_score__min__energy>  (39) 
-8.1600000000000001

>  <m_primary>  (39) 
energy

$$$$
39:0
     RDKit          3D

 46 48  0  0  0  0  0  0  0  0999 V2000
   -4.2010   21.0200  -32.1330 C   0  0  0  0  0  0  0  0  0  0  0  0
   -5.2970   21.1200  -33.0360 O   0  0  0  0  0  0  0  0  0  0  0  0
   -6.6410   20.8810  -32.6980 C   0  0  0  0  0  0  0  0  0  0  0  0
   -7.2370   19.5940  -32.8020 C   0  0  0  0  0  0  0  0  0  0  0  0
   -6.4990   18.4080  -33.3610 C   0  0  0  0  0  0  0  0  0  0  0  0
   -8.5730   19.4190  -32.4100 C   0  0  0  0  0  0  0  0  0  0  0  0
   -9.3350   20.5020  -31.9840 C   0  0  0  0  0  0  0  0  0  0  0  0
   -8.7750   21.7740  -31.9300 C   0  0  0  0  0  0  0  0  0  0  0  0
   -7.4250   21.9780  -32.2610 C   0  0  0  0  0  0  0  0  0  0  0  0
   -6.8330   23.3750  -32.1520 C   0  0  0  0  0  0  0  0  0  0  0  0
   -6.6870   23.8650  -30.7610 N   0  0  0  0  0  0  0  0  0  0  0  0
   -6.1360   25.2260  -30.6010 C   0  0  0  0  0  0  0  0  0  0  0  0
   -4.6050   25.2200  -30.4680 C   0  0  0  0  0  0  0  0  0  0  0  0
   -4.1440   24.1330  -29.5960 N   0  0  0  0  0  0  0  0  0  0  0  0
   -2.7350   23.9850  -29.3300 C   0  0  0  0  0  0  0  0  0  0  0  0
   -2.0610   24.9120  -28.5150 C   0  0  0  0  0  0  0  0  0  0  0  0
   -0.6940   24.7670  -28.2590 C   0  0  0  0  0  0  0  0  0  0  0  0
    0.0120   23.6960  -28.8130 C   0  0  0  0  0  0  0  0  0  0  0  0
   -0.6470   22.7700  -29.6250 C   0  0  0  0  0  0  0  0  0  0  0  0
   -2.0130   22.9110  -29.8840 C   0  0  0  0  0  0  0  0  0  0  0  0
   -5.1290   23.3540  -28.8400 C   0  0  0  0  0  0  0  0  0  0  0  0
   -6.2440   22.8560  -29.7680 C   0  0  0  0  0  0  0  0  0  0  0  0
   -4.5738   21.0540  -31.0987 H   0  0  0  0  0  0  0  0  0  0  0  0
   -3.6728   20.0699  -32.3013 H   0  0  0  0  0  0  0  0  0  0  0  0
   -3.5095   21.8588  -32.3013 H   0  0  0  0  0  0  0  0  0  0  0  0
   -6.1156   17.7918  -32.5344 H   0  0  0  0  0  0  0  0  0  0  0  0
   -7.1835   17.8080  -33.9787 H   0  0  0  0  0  0  0  0  0  0  0  0
   -5.6584   18.7571  -33.9787 H   0  0  0  0  0  0  0  0  0  0  0  0
   -9.0222   18.4153  -32.4399 H   0  0  0  0  0  0  0  0  0  0  0  0
  -10.3840   20.3519  -31.6888 H   0  0  0  0  0  0  0  0  0  0  0  0
   -9.3957   22.6293  -31.6249 H   0  0  0  0  0  0  0  0  0  0  0  0
   -5.8380   23.3658  -32.6209 H   0  0  0  0  0  0  0  0  0  0  0  0
   -7.5346   24.0563  -32.6556 H   0  0  0  0  0  0  0  0  0  0  0  0
   -6.4129   25.8260  -31.4804 H   0  0  0  0  0  0  0  0  0  0  0  0
   -6.5537   25.6532  -29.6774 H   0  0  0  0  0  0  0  0  0  0  0  0
   -4.1603   25.0906  -31.4657 H   0  0  0  0  0  0  0  0  0  0  0  0
   -4.2941   26.1758  -30.0210 H   0  0  0  0  0  0  0  0  0  0  0  0
   -2.6127   25.7564  -28.0762 H   0  0  0  0  0  0  0  0  0  0  0  0
   -0.1740   25.4967  -27.6209 H   0  0  0  0  0  0  0  0  0  0  0  0
    1.0870   23.5821  -28.6096 H   0  0  0  0  0  0  0  0  0  0  0  0
   -0.0896   21.9281  -30.0615 H   0  0  0  0  0  0  0  0  0  0  0  0
   -2.5268   22.1788  -30.5242 H   0  0  0  0  0  0  0  0  0  0  0  0
   -4.6297   22.4899  -28.3773 H   0  0  0  0  0  0  0  0  0  0  0  0
   -5.5713   23.9957  -28.0637 H   0  0  0  0  0  0  0  0  0  0  0  0
   -5.8759   21.9728  -30.3106 H   0  0  0  0  0  0  0  0  0  0  0  0
   -7.1125   22.6261  -29.1332 H   0  0  0  0  0  0  0  0  0  0  0  0
  1  2  1  0
  2  3  1  0
  3  4  2  0
  4  5  1  0
  4  6  1  0
  6  7  2  0
  7  8  1  0
  8  9  2  0
  9 10  1  0
 10 11  1  0
 11 12  1  0
 12 13  1  0
 13 14  1  0
 14 15  1  0
 15 16  2  0
 16 17  1  0
 17 18  2  0
 18 19  1  0
 19 20  2  0
 14 21  1  0
 21 22  1  0
  9  3  1  0
 22 11  1  0
 20 15  1  0
  1 23  1  0
  1 24  1  0
  1 25  1  0
  5 26  1  0
  5 27  1  0
  5 28  1  0
  6 29  1  0
  7 30  1  0
  8 31  1  0
 10 32  1  0
 10 33  1  0
 12 34  1  0
 12 35  1  0
 13 36  1  0
 13 37  1  0
 16 38  1  0
 17 39  1  0
 18 40  1  0
 19 41  1  0
 20 42  1  0
 21 43  1  0
 21 44  1  0
 22 45  1  0
 22 46  1  0
M  END
>  <UniqueID>  (40) 
36

>  <SMILES>  (40) 
COc1c(C)cccc1CN1CCN(c2ccccc2)CC1

>  <Energy>  (40) 
68.28595184988598

>  <Genealogy>  (40) 
COc1c(C)cccc1CN1CCN(c2ccccc2)CC1 (3D coordinates assigned)
COc1c(C)cccc1CN1CCN(c2ccccc2)CC1 (nonaromatic ring conformer: 68.28595184988598 kcal/mol)

>  <smiles>  (40) 
COc1c(C)cccc1CN1CCN(c2ccccc2)CC1

>  <score_type>  (40) 
oracle

>  <origin>  (40) 
adg

>  <m_score__min__energy>  (40) 
-8.5399999999999991

>  <m_primary>  (40) 
energy

$$$$
40:0
     RDKit          3D

 40 42  0  0  0  0  0  0  0  0999 V2000
   -6.0990   17.7460  -30.9600 C   0  0  0  0  0  0  0  0  0  0  0  0
   -7.1140   18.5390  -31.7440 C   0  0  0  0  0  0  0  0  0  0  0  0
   -8.4650   18.1540  -31.6690 C   0  0  0  0  0  0  0  0  0  0  0  0
   -9.4540   18.9000  -32.3080 C   0  0  0  0  0  0  0  0  0  0  0  0
   -9.1150   20.0530  -33.0100 C   0  0  0  0  0  0  0  0  0  0  0  0
   -7.7820   20.4540  -33.0940 C   0  0  0  0  0  0  0  0  0  0  0  0
   -6.7560   19.6940  -32.4990 C   0  0  0  0  0  0  0  0  0  0  0  0
   -5.3080   20.1550  -32.6490 C   0  0  0  0  0  0  0  0  0  0  0  0
   -5.1180   21.6340  -32.6600 N   0  0  2  0  0  0  0  0  0  0  0  0
   -3.6990   22.0480  -32.4550 C   0  0  0  0  0  0  0  0  0  0  0  0
   -3.4840   22.7470  -31.1070 C   0  0  0  0  0  0  0  0  0  0  0  0
   -4.3030   23.9740  -31.0470 N   0  0  0  0  0  0  0  0  0  0  0  0
   -4.4180   24.5050  -29.6860 C   0  0  0  0  0  0  0  0  0  0  0  0
   -5.7180   25.2800  -29.6410 C   0  0  0  0  0  0  0  0  0  0  0  0
   -6.6240   24.5450  -30.6040 C   0  0  0  0  0  0  0  0  0  0  0  0
   -5.6770   23.8220  -31.5710 C   0  0  2  0  0  0  0  0  0  0  0  0
   -6.0800   22.3430  -31.7750 C   0  0  0  0  0  0  0  0  0  0  0  0
   -6.2771   17.8851  -29.8835 H   0  0  0  0  0  0  0  0  0  0  0  0
   -6.1927   16.6794  -31.2123 H   0  0  0  0  0  0  0  0  0  0  0  0
   -5.0868   18.0949  -31.2123 H   0  0  0  0  0  0  0  0  0  0  0  0
   -8.7438   17.2548  -31.1001 H   0  0  0  0  0  0  0  0  0  0  0  0
  -10.5043   18.5769  -32.2574 H   0  0  0  0  0  0  0  0  0  0  0  0
   -9.8996   20.6488  -33.4992 H   0  0  0  0  0  0  0  0  0  0  0  0
   -7.5277   21.3783  -33.6334 H   0  0  0  0  0  0  0  0  0  0  0  0
   -4.7293   19.7424  -31.8094 H   0  0  0  0  0  0  0  0  0  0  0  0
   -4.9691   19.7931  -33.6309 H   0  0  0  0  0  0  0  0  0  0  0  0
   -5.3620   21.9310  -33.6360 H   0  0  0  0  0  0  0  0  0  0  0  0
   -3.0604   21.1532  -32.4950 H   0  0  0  0  0  0  0  0  0  0  0  0
   -3.4397   22.7633  -33.2494 H   0  0  0  0  0  0  0  0  0  0  0  0
   -3.7799   22.0696  -30.2924 H   0  0  0  0  0  0  0  0  0  0  0  0
   -2.4219   23.0121  -30.9992 H   0  0  0  0  0  0  0  0  0  0  0  0
   -4.4397   23.6819  -28.9566 H   0  0  0  0  0  0  0  0  0  0  0  0
   -3.5610   25.1466  -29.4333 H   0  0  0  0  0  0  0  0  0  0  0  0
   -6.1409   25.2732  -28.6256 H   0  0  0  0  0  0  0  0  0  0  0  0
   -5.5865   26.3380  -29.9117 H   0  0  0  0  0  0  0  0  0  0  0  0
   -7.2532   23.8208  -30.0659 H   0  0  0  0  0  0  0  0  0  0  0  0
   -7.3074   25.2280  -31.1299 H   0  0  0  0  0  0  0  0  0  0  0  0
   -5.7377   24.2714  -32.5732 H   0  0  0  0  0  0  0  0  0  0  0  0
   -6.1032   21.8405  -30.7968 H   0  0  0  0  0  0  0  0  0  0  0  0
   -7.0711   22.3175  -32.2514 H   0  0  0  0  0  0  0  0  0  0  0  0
  1  2  1  0
  2  3  2  0
  3  4  1  0
  4  5  2  0
  5  6  1  0
  6  7  2  0
  7  8  1  0
  8  9  1  0
  9 10  1  0
 10 11  1  0
 11 12  1  0
 12 13  1  0
 13 14  1  0
 14 15  1  0
 15 16  1  0
 16 17  1  0
  7  2  1  0
 17  9  1  0
 16 12  1  0
  1 18  1  0
  1 19  1  0
  1 20  1  0
  3 21  1  0
  4 22  1  0
  5 23  1  0
  6 24  1  0
  8 25  1  0
  8 26  1  0
  9 27  1  6
 10 28  1  0
 10 29  1  0
 11 30  1  0
 11 31  1  0
 13 32  1  0
 13 33  1  0
 14 34  1  0
 14 35  1  0
 15 36  1  0
 15 37  1  0
 16 38  1  6
 17 39  1  0
 17 40  1  0
M  CHG  1   9   1
M  END
>  <UniqueID>  (41) 
37

>  <SMILES>  (41) 
Cc1ccccc1C[N@@H+]1CCN2CCC[C@@H]2C1

>  <Energy>  (41) 
59.154514770410344

>  <Genealogy>  (41) 
Cc1ccccc1C[NH+]1CCN2CCCC2C1 (protonated)
Cc1ccccc1C[N@@H+]1CCN2CCC[C@@H]2C1 (chirality)
Cc1ccccc1C[N@@H+]1CCN2CCC[C@@H]2C1 (3D coordinates assigned)
Cc1ccccc1C[N@@H+]1CCN2CCC[C@@H]2C1 (nonaromatic ring conformer: 59.154514770410344 kcal/mol)

>  <smiles>  (41) 
Cc1ccccc1CN1CCN2CCCC2C1

>  <score_type>  (41) 
oracle

>  <origin>  (41) 
adg

>  <m_score__min__energy>  (41) 
-7.1699999999999999

>  <m_primary>  (41) 
energy

$$$$
41:0
     RDKit          3D

 43 45  0  0  0  0  0  0  0  0999 V2000
   -2.3140   22.2770  -31.5950 C   0  0  0  0  0  0  0  0  0  0  0  0
   -2.2580   22.3800  -30.0940 C   0  0  0  0  0  0  0  0  0  0  0  0
   -1.8120   21.2660  -29.3690 C   0  0  0  0  0  0  0  0  0  0  0  0
   -1.6730   21.3300  -27.9860 C   0  0  0  0  0  0  0  0  0  0  0  0
   -1.9750   22.5070  -27.3060 C   0  0  0  0  0  0  0  0  0  0  0  0
   -2.4580   23.6350  -27.9960 C   0  0  0  0  0  0  0  0  0  0  0  0
   -2.7830   24.9080  -27.2190 C   0  0  0  0  0  0  0  0  0  0  0  0
   -4.2310   24.9030  -26.7110 C   0  0  0  0  0  0  0  0  0  0  0  0
   -1.7970   25.1080  -26.0630 C   0  0  0  0  0  0  0  0  0  0  0  0
   -2.6330   23.5600  -29.4010 C   0  0  0  0  0  0  0  0  0  0  0  0
   -3.1470   24.7010  -30.1090 N   0  0  0  0  0  0  0  0  0  0  0  0
   -4.5170   24.9270  -30.4700 C   0  0  0  0  0  0  0  0  0  0  0  0
   -4.9510   26.1090  -30.4680 O   0  0  0  0  0  0  0  0  0  0  0  0
   -5.4370   23.8190  -30.8230 C   0  0  0  0  0  0  0  0  0  0  0  0
   -5.2800   23.0980  -32.0180 C   0  0  0  0  0  0  0  0  0  0  0  0
   -6.1590   22.0610  -32.3410 C   0  0  0  0  0  0  0  0  0  0  0  0
   -7.2070   21.7120  -31.4720 C   0  0  0  0  0  0  0  0  0  0  0  0
   -8.1060   20.6410  -31.8220 N   0  0  0  0  0  0  0  0  0  0  0  0
   -7.9770   19.3180  -31.5950 C   0  0  0  0  0  0  0  0  0  0  0  0
   -9.0530   18.6840  -32.0880 N   0  0  0  0  0  0  0  0  0  0  0  0
   -9.8340   19.6150  -32.6120 N   0  0  0  0  0  0  0  0  0  0  0  0
   -9.2620   20.7990  -32.4510 N   0  0  0  0  0  0  0  0  0  0  0  0
   -7.3490   22.4220  -30.2660 C   0  0  0  0  0  0  0  0  0  0  0  0
   -6.4690   23.4590  -29.9440 C   0  0  0  0  0  0  0  0  0  0  0  0
   -2.8215   21.3436  -31.8798 H   0  0  0  0  0  0  0  0  0  0  0  0
   -2.8698   23.1351  -32.0009 H   0  0  0  0  0  0  0  0  0  0  0  0
   -1.2916   22.2771  -32.0009 H   0  0  0  0  0  0  0  0  0  0  0  0
   -1.5697   20.3327  -29.8984 H   0  0  0  0  0  0  0  0  0  0  0  0
   -1.3236   20.4485  -27.4284 H   0  0  0  0  0  0  0  0  0  0  0  0
   -1.8344   22.5560  -26.2161 H   0  0  0  0  0  0  0  0  0  0  0  0
   -2.6782   25.7566  -27.9110 H   0  0  0  0  0  0  0  0  0  0  0  0
   -4.2337   24.9030  -25.6110 H   0  0  0  0  0  0  0  0  0  0  0  0
   -4.7518   25.7994  -27.0789 H   0  0  0  0  0  0  0  0  0  0  0  0
   -4.7456   24.0031  -27.0789 H   0  0  0  0  0  0  0  0  0  0  0  0
   -2.3278   25.0003  -25.1056 H   0  0  0  0  0  0  0  0  0  0  0  0
   -0.9992   24.3534  -26.1268 H   0  0  0  0  0  0  0  0  0  0  0  0
   -1.3563   26.1138  -26.1268 H   0  0  0  0  0  0  0  0  0  0  0  0
   -4.4590   23.3516  -32.7047 H   0  0  0  0  0  0  0  0  0  0  0  0
   -6.0294   21.5120  -33.2854 H   0  0  0  0  0  0  0  0  0  0  0  0
   -7.1279   18.8363  -31.0881 H   0  0  0  0  0  0  0  0  0  0  0  0
   -9.2560   17.6610  -32.0720 H   0  0  0  0  0  0  0  0  0  0  0  0
   -8.1595   22.1588  -29.5704 H   0  0  0  0  0  0  0  0  0  0  0  0
   -6.5869   23.9979  -28.9923 H   0  0  0  0  0  0  0  0  0  0  0  0
  1  2  1  0
  2  3  2  0
  3  4  1  0
  4  5  2  0
  5  6  1  0
  6  7  1  0
  7  8  1  0
  7  9  1  0
  6 10  2  0
 10 11  1  0
 11 12  1  0
 12 13  2  0
 12 14  1  0
 14 15  2  0
 15 16  1  0
 16 17  2  0
 17 18  1  0
 18 19  1  0
 19 20  2  0
 20 21  1  0
 21 22  2  0
 17 23  1  0
 23 24  2  0
 10  2  1  0
 24 14  1  0
 22 18  1  0
  1 25  1  0
  1 26  1  0
  1 27  1  0
  3 28  1  0
  4 29  1  0
  5 30  1  0
  7 31  1  0
  8 32  1  0
  8 33  1  0
  8 34  1  0
  9 35  1  0
  9 36  1  0
  9 37  1  0
 15 38  1  0
 16 39  1  0
 19 40  1  0
 20 41  1  0
 23 42  1  0
 24 43  1  0
M  CHG  2  11  -1  20   1
M  END
>  <UniqueID>  (42) 
38

>  <SMILES>  (42) 
Cc1cccc(C(C)C)c1[N-]C(=O)c1ccc(-n2c[nH+]nn2)cc1

>  <Energy>  (42) 
95.28806431116367

>  <Genealogy>  (42) 
Cc1cccc(C(C)C)c1[N-]C(=O)c1ccc(-n2c[nH+]nn2)cc1 (protonated)
Cc1cccc(C(C)C)c1[N-]C(=O)c1ccc(-n2c[nH+]nn2)cc1 (3D coordinates assigned)
Cc1cccc(C(C)C)c1[N-]C(=O)c1ccc(-n2c[nH+]nn2)cc1 (optimized conformer: 95.28806431116367 kcal/mol)

>  <smiles>  (42) 
Cc1cccc(C(C)C)c1NC(=O)c1ccc(-n2cnnn2)cc1

>  <score_type>  (42) 
oracle

>  <origin>  (42) 
adg

>  <m_score__min__energy>  (42) 
-9.7300000000000004

>  <m_primary>  (42) 
energy

$$$$
42:0
     RDKit          3D

 29 29  0  0  0  0  0  0  0  0999 V2000
   -6.3520   17.5100  -31.3100 C   0  0  0  0  0  0  0  0  0  0  0  0
   -7.2170   17.9730  -32.3400 O   0  0  0  0  0  0  0  0  0  0  0  0
   -8.3940   18.6780  -32.0750 C   0  0  0  0  0  0  0  0  0  0  0  0
   -9.2870   18.1850  -31.3330 O   0  0  0  0  0  0  0  0  0  0  0  0
   -8.6170   20.0060  -32.7210 C   0  0  0  0  0  0  0  0  0  0  0  0
   -7.4160   20.8300  -32.5890 N   0  0  0  0  0  0  0  0  0  0  0  0
   -6.1850   20.3940  -32.8120 N   0  0  0  0  0  0  0  0  0  0  0  0
   -5.3460   21.4240  -32.5800 C   0  0  0  0  0  0  0  0  0  0  0  0
   -3.8640   21.3840  -32.8030 C   0  0  0  0  0  0  0  0  0  0  0  0
   -3.5040   22.2520  -33.8180 F   0  0  0  0  0  0  0  0  0  0  0  0
   -3.2150   21.7530  -31.6410 F   0  0  0  0  0  0  0  0  0  0  0  0
   -3.4800   20.1030  -33.1530 F   0  0  0  0  0  0  0  0  0  0  0  0
   -6.0330   22.5150  -32.1860 N   0  0  0  0  0  0  0  0  0  0  0  0
   -5.4940   23.8000  -31.9910 N   0  0  0  0  0  0  0  0  0  0  0  0
   -5.0200   24.4090  -30.4390 S   0  0  0  0  0  0  0  0  0  0  0  0
   -6.3380   25.3740  -29.7340 C   0  0  0  0  0  0  0  0  0  0  0  0
   -4.6710   23.2720  -29.5210 O   0  0  0  0  0  0  0  0  0  0  0  0
   -3.8070   25.2790  -30.6100 O   0  0  0  0  0  0  0  0  0  0  0  0
   -7.3280   22.1240  -32.2070 C   0  0  0  0  0  0  0  0  0  0  0  0
   -8.6190   23.1150  -31.9960 S   0  0  0  0  0  0  0  0  0  0  0  0
   -6.7911   17.7450  -30.3292 H   0  0  0  0  0  0  0  0  0  0  0  0
   -6.2218   16.4216  -31.4022 H   0  0  0  0  0  0  0  0  0  0  0  0
   -5.3742   18.0053  -31.4022 H   0  0  0  0  0  0  0  0  0  0  0  0
   -8.8439   19.8597  -33.7874 H   0  0  0  0  0  0  0  0  0  0  0  0
   -9.4602   20.5121  -32.2282 H   0  0  0  0  0  0  0  0  0  0  0  0
   -5.9340   19.4320  -33.1340 H   0  0  0  0  0  0  0  0  0  0  0  0
   -6.2780   25.3301  -28.6365 H   0  0  0  0  0  0  0  0  0  0  0  0
   -6.2448   26.4189  -30.0648 H   0  0  0  0  0  0  0  0  0  0  0  0
   -7.3060   24.9696  -30.0648 H   0  0  0  0  0  0  0  0  0  0  0  0
  1  2  1  0
  2  3  1  0
  3  4  2  0
  3  5  1  0
  5  6  1  0
  6  7  1  0
  7  8  2  0
  8  9  1  0
  9 10  1  0
  9 11  1  0
  9 12  1  0
  8 13  1  0
 13 14  1  0
 14 15  1  0
 15 16  1  0
 15 17  2  0
 15 18  2  0
 13 19  1  0
 19 20  2  0
 19  6  1  0
  1 21  1  0
  1 22  1  0
  1 23  1  0
  5 24  1  0
  5 25  1  0
  7 26  1  0
 16 27  1  0
 16 28  1  0
 16 29  1  0
M  CHG  2   7   1  14  -1
M  END
>  <UniqueID>  (43) 
39

>  <SMILES>  (43) 
COC(=O)Cn1[nH+]c(C(F)(F)F)n([N-]S(C)(=O)=O)c1=S

>  <Energy>  (43) 
65.33761654517347

>  <Genealogy>  (43) 
COC(=O)Cn1[nH+]c(C(F)(F)F)n([N-]S(C)(=O)=O)c1=S (protonated)
COC(=O)Cn1[nH+]c(C(F)(F)F)n([N-]S(C)(=O)=O)c1=S (3D coordinates assigned)
COC(=O)Cn1[nH+]c(C(F)(F)F)n([N-]S(C)(=O)=O)c1=S (optimized conformer: 65.33761654517347 kcal/mol)

>  <smiles>  (43) 
COC(=O)Cn1nc(C(F)(F)F)n(NS(C)(=O)=O)c1=S

>  <score_type>  (43) 
oracle

>  <origin>  (43) 
adg

>  <m_score__min__energy>  (43) 
-6.3200000000000003

>  <m_primary>  (43) 
energy

$$$$
43:0
     RDKit          3D

 41 42  0  0  0  0  0  0  0  0999 V2000
    0.6440   16.6800  -28.1930 C   0  0  0  0  0  0  0  0  0  0  0  0
    0.3320   18.1010  -27.8300 C   0  0  0  0  0  0  0  0  0  0  0  0
    1.2150   19.1380  -28.1640 C   0  0  0  0  0  0  0  0  0  0  0  0
    0.9070   20.4600  -27.8320 C   0  0  0  0  0  0  0  0  0  0  0  0
   -0.2900   20.7690  -27.1620 C   0  0  0  0  0  0  0  0  0  0  0  0
   -0.6080   22.1360  -26.8140 N   0  0  0  0  0  0  0  0  0  0  0  0
   -0.1230   22.7000  -25.5750 C   0  0  0  0  0  0  0  0  0  0  0  0
   -0.7590   22.4920  -24.5060 O   0  0  0  0  0  0  0  0  0  0  0  0
    1.1130   23.5770  -25.5260 C   0  0  0  0  0  0  0  0  0  0  0  0
    1.1520   24.4820  -24.3520 N   0  0  0  0  0  0  0  0  0  0  0  0
    0.3650   25.7090  -24.5650 C   0  0  0  0  0  0  0  0  0  0  0  0
    2.5310   24.8070  -23.9450 C   0  0  0  0  0  0  0  0  0  0  0  0
   -1.3580   22.9440  -27.7430 C   0  0  0  0  0  0  0  0  0  0  0  0
   -1.8190   22.3900  -28.9480 C   0  0  0  0  0  0  0  0  0  0  0  0
   -2.5340   23.1760  -29.8570 C   0  0  0  0  0  0  0  0  0  0  0  0
   -2.7850   24.5220  -29.5730 C   0  0  0  0  0  0  0  0  0  0  0  0
   -3.4950   25.3020  -30.4770 O   0  0  0  0  0  0  0  0  0  0  0  0
   -2.3200   25.0830  -28.3800 C   0  0  0  0  0  0  0  0  0  0  0  0
   -1.6050   24.2990  -27.4700 C   0  0  0  0  0  0  0  0  0  0  0  0
   -1.1700   19.7250  -26.8270 C   0  0  0  0  0  0  0  0  0  0  0  0
   -0.8620   18.4030  -27.1610 C   0  0  0  0  0  0  0  0  0  0  0  0
    0.7741   16.0873  -27.2755 H   0  0  0  0  0  0  0  0  0  0  0  0
   -0.1839   16.2625  -28.7849 H   0  0  0  0  0  0  0  0  0  0  0  0
    1.5706   16.6477  -28.7849 H   0  0  0  0  0  0  0  0  0  0  0  0
    2.1540   18.9098  -28.6895 H   0  0  0  0  0  0  0  0  0  0  0  0
    1.6071   21.2660  -28.0971 H   0  0  0  0  0  0  0  0  0  0  0  0
    1.9997   22.9269  -25.4937 H   0  0  0  0  0  0  0  0  0  0  0  0
    1.0933   24.2130  -26.4233 H   0  0  0  0  0  0  0  0  0  0  0  0
    0.7100   23.9670  -23.5540 H   0  0  0  0  0  0  0  0  0  0  0  0
    0.0882   26.1406  -23.5918 H   0  0  0  0  0  0  0  0  0  0  0  0
    0.9656   26.4362  -25.1311 H   0  0  0  0  0  0  0  0  0  0  0  0
   -0.5464   25.4664  -25.1311 H   0  0  0  0  0  0  0  0  0  0  0  0
    2.5953   24.8222  -22.8470 H   0  0  0  0  0  0  0  0  0  0  0  0
    3.2194   24.0465  -24.3421 H   0  0  0  0  0  0  0  0  0  0  0  0
    2.8073   25.7949  -24.3421 H   0  0  0  0  0  0  0  0  0  0  0  0
   -1.6169   21.3334  -29.1779 H   0  0  0  0  0  0  0  0  0  0  0  0
   -2.8993   22.7351  -30.7962 H   0  0  0  0  0  0  0  0  0  0  0  0
   -2.5169   26.1421  -28.1572 H   0  0  0  0  0  0  0  0  0  0  0  0
   -1.2341   24.7456  -26.5357 H   0  0  0  0  0  0  0  0  0  0  0  0
   -2.1079   19.9501  -26.2981 H   0  0  0  0  0  0  0  0  0  0  0  0
   -1.5606   17.5953  -26.8973 H   0  0  0  0  0  0  0  0  0  0  0  0
  1  2  1  0
  2  3  2  0
  3  4  1  0
  4  5  2  0
  5  6  1  0
  6  7  1  0
  7  8  2  0
  7  9  1  0
  9 10  1  0
 10 11  1  0
 10 12  1  0
  6 13  1  0
 13 14  2  0
 14 15  1  0
 15 16  2  0
 16 17  1  0
 16 18  1  0
 18 19  2  0
  5 20  1  0
 20 21  2  0
 21  2  1  0
 19 13  1  0
  1 22  1  0
  1 23  1  0
  1 24  1  0
  3 25  1  0
  4 26  1  0
  9 27  1  0
  9 28  1  0
 10 29  1  0
 11 30  1  0
 11 31  1  0
 11 32  1  0
 12 33  1  0
 12 34  1  0
 12 35  1  0
 14 36  1  0
 15 37  1  0
 18 38  1  0
 19 39  1  0
 20 40  1  0
 21 41  1  0
M  CHG  2  10   1  17  -1
M  END
>  <UniqueID>  (44) 
40

>  <SMILES>  (44) 
Cc1ccc(N(C(=O)C[NH+](C)C)c2ccc([O-])cc2)cc1

>  <Energy>  (44) 
51.96510080230992

>  <Genealogy>  (44) 
Cc1ccc(N(C(=O)C[NH+](C)C)c2ccc([O-])cc2)cc1 (protonated)
Cc1ccc(N(C(=O)C[NH+](C)C)c2ccc([O-])cc2)cc1 (3D coordinates assigned)
Cc1ccc(N(C(=O)C[NH+](C)C)c2ccc([O-])cc2)cc1 (optimized conformer: 51.96510080230992 kcal/mol)

>  <smiles>  (44) 
Cc1ccc(N(C(=O)CN(C)C)c2ccc(O)cc2)cc1

>  <score_type>  (44) 
oracle

>  <origin>  (44) 
adg

>  <m_score__min__energy>  (44) 
-8.7799999999999994

>  <m_primary>  (44) 
energy

$$$$
44:0
     RDKit          3D

 37 38  0  0  0  0  0  0  0  0999 V2000
   -9.1720   19.9660  -32.6950 C   0  0  0  0  0  0  0  0  0  0  0  0
   -8.2740   20.5600  -31.6170 C   0  0  0  0  0  0  0  0  0  0  0  0
   -7.0750   21.1510  -32.2200 N   0  0  0  0  0  0  0  0  0  0  0  0
   -6.6000   22.4000  -32.0340 C   0  0  0  0  0  0  0  0  0  0  0  0
   -7.4770   23.7200  -31.1900 S   0  0  0  0  0  0  0  0  0  0  0  0
   -6.0590   24.8740  -31.1870 C   0  0  0  0  0  0  0  0  0  0  0  0
   -5.0310   24.4880  -30.1280 C   0  0  0  0  0  0  0  0  0  0  0  0
   -3.7410   25.0860  -30.4620 N   0  0  0  0  0  0  0  0  0  0  0  0
   -2.5370   24.5400  -29.3350 S   0  0  0  0  0  0  0  0  0  0  0  0
   -3.3450   23.9520  -27.8650 C   0  0  0  0  0  0  0  0  0  0  0  0
   -1.6200   25.6750  -28.9740 O   0  0  0  0  0  0  0  0  0  0  0  0
   -1.7380   23.4200  -29.9410 O   0  0  0  0  0  0  0  0  0  0  0  0
   -5.3520   22.5360  -32.5180 N   0  0  0  0  0  0  0  0  0  0  0  0
   -5.0030   21.3620  -33.0200 N   0  0  0  0  0  0  0  0  0  0  0  0
   -6.0460   20.5280  -32.8390 C   0  0  0  0  0  0  0  0  0  0  0  0
   -6.0080   19.1060  -33.2260 C   0  0  0  0  0  0  0  0  0  0  0  0
   -6.1940   18.0920  -32.2750 C   0  0  0  0  0  0  0  0  0  0  0  0
   -6.1740   16.7520  -32.6710 C   0  0  0  0  0  0  0  0  0  0  0  0
   -5.9820   16.4400  -34.0180 C   0  0  0  0  0  0  0  0  0  0  0  0
   -5.8280   17.4350  -34.9320 N   0  0  0  0  0  0  0  0  0  0  0  0
   -5.8440   18.7460  -34.5710 C   0  0  0  0  0  0  0  0  0  0  0  0
  -10.0001   19.4182  -32.2215 H   0  0  0  0  0  0  0  0  0  0  0  0
   -9.5776   20.7746  -33.3209 H   0  0  0  0  0  0  0  0  0  0  0  0
   -8.5866   19.2764  -33.3209 H   0  0  0  0  0  0  0  0  0  0  0  0
   -8.8277   21.3391  -31.0726 H   0  0  0  0  0  0  0  0  0  0  0  0
   -7.9691   19.7605  -30.9257 H   0  0  0  0  0  0  0  0  0  0  0  0
   -5.5788   24.8538  -32.1764 H   0  0  0  0  0  0  0  0  0  0  0  0
   -6.4330   25.8823  -30.9558 H   0  0  0  0  0  0  0  0  0  0  0  0
   -5.3617   24.8545  -29.1450 H   0  0  0  0  0  0  0  0  0  0  0  0
   -4.9306   23.3931  -30.0959 H   0  0  0  0  0  0  0  0  0  0  0  0
   -2.8182   24.3354  -26.9787 H   0  0  0  0  0  0  0  0  0  0  0  0
   -4.3869   24.3046  -27.8533 H   0  0  0  0  0  0  0  0  0  0  0  0
   -3.3299   22.8522  -27.8533 H   0  0  0  0  0  0  0  0  0  0  0  0
   -6.3555   18.3513  -31.2183 H   0  0  0  0  0  0  0  0  0  0  0  0
   -6.3082   15.9512  -31.9289 H   0  0  0  0  0  0  0  0  0  0  0  0
   -5.9553   15.3886  -34.3403 H   0  0  0  0  0  0  0  0  0  0  0  0
   -5.7278   19.5268  -35.3371 H   0  0  0  0  0  0  0  0  0  0  0  0
  1  2  1  0
  2  3  1  0
  3  4  1  0
  4  5  1  0
  5  6  1  0
  6  7  1  0
  7  8  1  0
  8  9  1  0
  9 10  1  0
  9 11  2  0
  9 12  2  0
  4 13  2  0
 13 14  1  0
 14 15  2  0
 15 16  1  0
 16 17  2  0
 17 18  1  0
 18 19  2  0
 19 20  1  0
 20 21  2  0
 15  3  1  0
 21 16  1  0
  1 22  1  0
  1 23  1  0
  1 24  1  0
  2 25  1  0
  2 26  1  0
  6 27  1  0
  6 28  1  0
  7 29  1  0
  7 30  1  0
 10 31  1  0
 10 32  1  0
 10 33  1  0
 17 34  1  0
 18 35  1  0
 19 36  1  0
 21 37  1  0
M  CHG  1   8  -1
M  END
>  <UniqueID>  (45) 
41

>  <SMILES>  (45) 
CCn1c(SCC[N-]S(C)(=O)=O)nnc1-c1cccnc1

>  <Energy>  (45) 
61.93179397072259

>  <Genealogy>  (45) 
CCn1c(SCC[N-]S(C)(=O)=O)nnc1-c1cccnc1 (protonated)
CCn1c(SCC[N-]S(C)(=O)=O)nnc1-c1cccnc1 (3D coordinates assigned)
CCn1c(SCC[N-]S(C)(=O)=O)nnc1-c1cccnc1 (optimized conformer: 61.93179397072259 kcal/mol)

>  <smiles>  (45) 
CCn1c(SCCNS(C)(=O)=O)nnc1-c1cccnc1

>  <score_type>  (45) 
oracle

>  <origin>  (45) 
adg

>  <m_score__min__energy>  (45) 
-9.5500000000000007

>  <m_primary>  (45) 
energy

$$$$
45:0
     RDKit          3D

 43 44  0  0  0  0  0  0  0  0999 V2000
   -6.8720   16.7740  -33.1790 C   0  0  0  0  0  0  0  0  0  0  0  0
   -7.3480   17.9670  -32.3400 C   0  0  0  0  0  0  0  0  0  0  0  0
   -7.6240   19.1840  -33.1480 N   0  0  2  0  0  0  0  0  0  0  0  0
   -6.4880   19.6480  -34.0000 C   0  0  0  0  0  0  0  0  0  0  0  0
   -5.0460   19.4330  -33.4370 C   0  0  0  0  0  0  0  0  0  0  0  0
   -4.2570   18.3290  -34.1950 C   0  0  0  0  0  0  0  0  0  0  0  0
   -2.7330   18.5580  -34.2290 C   0  0  0  0  0  0  0  0  0  0  0  0
   -2.2460   19.2640  -32.9620 C   0  0  0  0  0  0  0  0  0  0  0  0
   -2.8860   20.6560  -32.8090 C   0  0  0  0  0  0  0  0  0  0  0  0
   -4.2710   20.7700  -33.4770 C   0  0  0  0  0  0  0  0  0  0  0  0
   -8.1490   20.2540  -32.3140 C   0  0  0  0  0  0  0  0  0  0  0  0
   -9.3260   20.1630  -31.8630 O   0  0  0  0  0  0  0  0  0  0  0  0
   -7.3310   21.4450  -31.9270 C   0  0  0  0  0  0  0  0  0  0  0  0
   -6.1850   21.2660  -31.1240 C   0  0  0  0  0  0  0  0  0  0  0  0
   -5.3950   22.3560  -30.7480 C   0  0  0  0  0  0  0  0  0  0  0  0
   -5.7320   23.6450  -31.1680 C   0  0  0  0  0  0  0  0  0  0  0  0
   -4.9170   24.7670  -30.7820 C   0  0  0  0  0  0  0  0  0  0  0  0
   -4.2610   25.6690  -30.4710 N   0  0  0  0  0  0  0  0  0  0  0  0
   -6.8630   23.8420  -31.9650 C   0  0  0  0  0  0  0  0  0  0  0  0
   -7.6570   22.7540  -32.3430 C   0  0  0  0  0  0  0  0  0  0  0  0
   -6.5481   15.9621  -32.5112 H   0  0  0  0  0  0  0  0  0  0  0  0
   -7.6975   16.4194  -33.8137 H   0  0  0  0  0  0  0  0  0  0  0  0
   -6.0291   17.0851  -33.8137 H   0  0  0  0  0  0  0  0  0  0  0  0
   -8.2717   17.6789  -31.8167 H   0  0  0  0  0  0  0  0  0  0  0  0
   -6.5358   18.2179  -31.6419 H   0  0  0  0  0  0  0  0  0  0  0  0
   -8.3920   18.8950  -33.7960 H   0  0  0  0  0  0  0  0  0  0  0  0
   -6.5529   19.1139  -34.9595 H   0  0  0  0  0  0  0  0  0  0  0  0
   -6.6087   20.7392  -34.0682 H   0  0  0  0  0  0  0  0  0  0  0  0
   -5.1486   19.0857  -32.3983 H   0  0  0  0  0  0  0  0  0  0  0  0
   -4.4509   17.3650  -33.7019 H   0  0  0  0  0  0  0  0  0  0  0  0
   -4.6049   18.3490  -35.2383 H   0  0  0  0  0  0  0  0  0  0  0  0
   -2.2267   17.5851  -34.3136 H   0  0  0  0  0  0  0  0  0  0  0  0
   -2.4982   19.1968  -35.0932 H   0  0  0  0  0  0  0  0  0  0  0  0
   -2.5103   18.6512  -32.0876 H   0  0  0  0  0  0  0  0  0  0  0  0
   -1.1560   19.3920  -33.0361 H   0  0  0  0  0  0  0  0  0  0  0  0
   -2.9974   20.8726  -31.7363 H   0  0  0  0  0  0  0  0  0  0  0  0
   -2.2228   21.3753  -33.3117 H   0  0  0  0  0  0  0  0  0  0  0  0
   -4.8577   21.5363  -32.9492 H   0  0  0  0  0  0  0  0  0  0  0  0
   -4.1177   21.0420  -34.5318 H   0  0  0  0  0  0  0  0  0  0  0  0
   -5.9095   20.2550  -30.7893 H   0  0  0  0  0  0  0  0  0  0  0  0
   -4.5058   22.1985  -30.1199 H   0  0  0  0  0  0  0  0  0  0  0  0
   -7.1299   24.8564  -32.2963 H   0  0  0  0  0  0  0  0  0  0  0  0
   -8.5447   22.9202  -32.9710 H   0  0  0  0  0  0  0  0  0  0  0  0
  1  2  1  0
  2  3  1  0
  3  4  1  0
  4  5  1  0
  5  6  1  0
  6  7  1  0
  7  8  1  0
  8  9  1  0
  9 10  1  0
  3 11  1  0
 11 12  2  0
 11 13  1  0
 13 14  2  0
 14 15  1  0
 15 16  2  0
 16 17  1  0
 17 18  3  0
 16 19  1  0
 19 20  2  0
 10  5  1  0
 20 13  1  0
  1 21  1  0
  1 22  1  0
  1 23  1  0
  2 24  1  0
  2 25  1  0
  3 26  1  6
  4 27  1  0
  4 28  1  0
  5 29  1  0
  6 30  1  0
  6 31  1  0
  7 32  1  0
  7 33  1  0
  8 34  1  0
  8 35  1  0
  9 36  1  0
  9 37  1  0
 10 38  1  0
 10 39  1  0
 14 40  1  0
 15 41  1  0
 19 42  1  0
 20 43  1  0
M  CHG  1   3   1
M  END
>  <UniqueID>  (46) 
42

>  <SMILES>  (46) 
CC[N@H+](CC1CCCCC1)C(=O)c1ccc(C#N)cc1

>  <Energy>  (46) 
54.4793490194483

>  <Genealogy>  (46) 
CC[NH+](CC1CCCCC1)C(=O)c1ccc(C#N)cc1 (protonated)
CC[N@H+](CC1CCCCC1)C(=O)c1ccc(C#N)cc1 (chirality)
CC[N@H+](CC1CCCCC1)C(=O)c1ccc(C#N)cc1 (3D coordinates assigned)
CC[N@H+](CC1CCCCC1)C(=O)c1ccc(C#N)cc1 (nonaromatic ring conformer: 54.4793490194483 kcal/mol)

>  <smiles>  (46) 
CCN(CC1CCCCC1)C(=O)c1ccc(C#N)cc1

>  <score_type>  (46) 
oracle

>  <origin>  (46) 
adg

>  <m_score__min__energy>  (46) 
-7.1699999999999999

>  <m_primary>  (46) 
energy

$$$$
46:0
     RDKit          3D

 48 50  0  0  0  0  0  0  0  0999 V2000
   -8.9890   21.5380  -30.8290 C   0  0  0  0  0  0  0  0  0  0  0  0
   -8.7890   21.0340  -32.2440 C   0  0  0  0  0  0  0  0  0  0  0  0
   -9.4550   19.7080  -32.4740 C   0  0  0  0  0  0  0  0  0  0  0  0
   -9.0320   18.6130  -31.5660 C   0  0  0  0  0  0  0  0  0  0  0  0
   -7.8690   17.7930  -31.9940 C   0  0  0  0  0  0  0  0  0  0  0  0
   -6.7070   18.5260  -32.4900 C   0  0  0  0  0  0  0  0  0  0  0  0
   -6.4390   18.8450  -33.7970 C   0  0  0  0  0  0  0  0  0  0  0  0
   -5.3140   19.5400  -34.1990 C   0  0  0  0  0  0  0  0  0  0  0  0
   -4.3980   19.9480  -33.2530 C   0  0  0  0  0  0  0  0  0  0  0  0
   -3.2170   20.6700  -33.6100 N   0  0  0  0  0  0  0  0  0  0  0  0
   -2.2440   21.0460  -32.6170 C   0  0  0  0  0  0  0  0  0  0  0  0
   -2.8500   22.0470  -31.6990 C   0  0  0  0  0  0  0  0  0  0  0  0
   -2.2040   22.5310  -30.5790 C   0  0  0  0  0  0  0  0  0  0  0  0
   -2.8380   23.4400  -29.8040 N   0  0  0  0  0  0  0  0  0  0  0  0
   -4.0770   23.8780  -30.1000 C   0  0  0  0  0  0  0  0  0  0  0  0
   -4.7360   24.7790  -29.3530 N   0  0  0  0  0  0  0  0  0  0  0  0
   -5.9850   25.1820  -29.7050 C   0  0  0  0  0  0  0  0  0  0  0  0
   -6.5430   26.0480  -28.9350 N   0  0  0  0  0  0  0  0  0  0  0  0
   -6.6080   24.7010  -30.8040 N   0  0  0  0  0  0  0  0  0  0  0  0
   -5.9820   23.7970  -31.5800 C   0  0  0  0  0  0  0  0  0  0  0  0
   -6.5160   23.2920  -32.6460 N   0  0  0  0  0  0  0  0  0  0  0  0
   -4.7220   23.3960  -31.2170 C   0  0  0  0  0  0  0  0  0  0  0  0
   -4.0910   22.5040  -31.9710 N   0  0  0  0  0  0  0  0  0  0  0  0
   -4.6310   19.6470  -31.9240 C   0  0  0  0  0  0  0  0  0  0  0  0
   -5.7640   18.9500  -31.5490 C   0  0  0  0  0  0  0  0  0  0  0  0
   -8.6802   20.7598  -30.1155 H   0  0  0  0  0  0  0  0  0  0  0  0
   -8.3812   22.4413  -30.6722 H   0  0  0  0  0  0  0  0  0  0  0  0
  -10.0508   21.7787  -30.6722 H   0  0  0  0  0  0  0  0  0  0  0  0
   -9.2118   21.7689  -32.9448 H   0  0  0  0  0  0  0  0  0  0  0  0
   -7.7090   20.9016  -32.4055 H   0  0  0  0  0  0  0  0  0  0  0  0
  -10.5393   19.8482  -32.3532 H   0  0  0  0  0  0  0  0  0  0  0  0
   -9.1578   19.3928  -33.4851 H   0  0  0  0  0  0  0  0  0  0  0  0
   -8.7799   19.0654  -30.5956 H   0  0  0  0  0  0  0  0  0  0  0  0
   -9.8817   17.9147  -31.5454 H   0  0  0  0  0  0  0  0  0  0  0  0
   -7.5441   17.1954  -31.1295 H   0  0  0  0  0  0  0  0  0  0  0  0
   -8.2274   17.1995  -32.8480 H   0  0  0  0  0  0  0  0  0  0  0  0
   -7.1587   18.5305  -34.5671 H   0  0  0  0  0  0  0  0  0  0  0  0
   -5.1511   19.7654  -35.2633 H   0  0  0  0  0  0  0  0  0  0  0  0
   -3.0830   20.9200  -34.6230 H   0  0  0  0  0  0  0  0  0  0  0  0
   -1.9393   20.1576  -32.0444 H   0  0  0  0  0  0  0  0  0  0  0  0
   -1.3605   21.4797  -33.1083 H   0  0  0  0  0  0  0  0  0  0  0  0
   -1.1924   22.1837  -30.3218 H   0  0  0  0  0  0  0  0  0  0  0  0
   -4.2830   25.1760  -28.4920 H   0  0  0  0  0  0  0  0  0  0  0  0
   -5.9520   26.7960  -28.5290 H   0  0  0  0  0  0  0  0  0  0  0  0
   -7.5700   25.0230  -31.0590 H   0  0  0  0  0  0  0  0  0  0  0  0
   -6.0250   22.7230  -33.3450 H   0  0  0  0  0  0  0  0  0  0  0  0
   -3.9082   19.9651  -31.1582 H   0  0  0  0  0  0  0  0  0  0  0  0
   -5.9276   18.7235  -30.4851 H   0  0  0  0  0  0  0  0  0  0  0  0
  1  2  1  0
  2  3  1  0
  3  4  1  0
  4  5  1  0
  5  6  1  0
  6  7  2  0
  7  8  1  0
  8  9  2  0
  9 10  1  0
 10 11  1  0
 11 12  1  0
 12 13  2  0
 13 14  1  0
 14 15  2  0
 15 16  1  0
 16 17  1  0
 17 18  2  3
 17 19  1  0
 19 20  1  0
 20 21  2  3
 20 22  1  0
 22 23  2  0
  9 24  1  0
 24 25  2  0
 25  6  1  0
 23 12  1  0
 22 15  1  0
  1 26  1  0
  1 27  1  0
  1 28  1  0
  2 29  1  0
  2 30  1  0
  3 31  1  0
  3 32  1  0
  4 33  1  0
  4 34  1  0
  5 35  1  0
  5 36  1  0
  7 37  1  0
  8 38  1  0
 10 39  1  0
 11 40  1  0
 11 41  1  0
 13 42  1  0
 16 43  1  0
 18 44  1  0
 19 45  1  0
 21 46  1  0
 24 47  1  0
 25 48  1  0
M  END
>  <smiles>  (47) 
CCCCCc1ccc(NCc2cnc3[nH]c(=N)[nH]c(=N)c3n2)cc1

>  <score_type>  (47) 
oracle

>  <origin>  (47) 
adg

>  <m_score__min__energy>  (47) 
-8.5099999999999998

>  <m_primary>  (47) 
energy

$$$$
47:0
     RDKit          3D

 33 34  0  0  0  0  0  0  0  0999 V2000
   -3.8290   25.3240  -30.5240 N   0  0  0  0  0  0  0  0  0  0  0  0
   -5.1510   24.7940  -30.6020 C   0  0  0  0  0  0  0  0  0  0  0  0
   -6.0960   25.4480  -30.0820 O   0  0  0  0  0  0  0  0  0  0  0  0
   -5.4160   23.4930  -31.2760 C   0  0  0  0  0  0  0  0  0  0  0  0
   -4.3520   22.6530  -31.6710 C   0  0  0  0  0  0  0  0  0  0  0  0
   -3.0590   23.0040  -31.4660 F   0  0  0  0  0  0  0  0  0  0  0  0
   -4.6120   21.4360  -32.3060 C   0  0  0  0  0  0  0  0  0  0  0  0
   -5.9220   21.0350  -32.5570 C   0  0  0  0  0  0  0  0  0  0  0  0
   -7.0000   21.8470  -32.1630 C   0  0  0  0  0  0  0  0  0  0  0  0
   -8.3420   21.4870  -32.3810 O   0  0  0  0  0  0  0  0  0  0  0  0
   -9.1120   20.5840  -31.5850 C   0  0  0  0  0  0  0  0  0  0  0  0
   -9.0290   19.1620  -32.1360 C   0  0  0  0  0  0  0  0  0  0  0  0
   -7.9070   18.4840  -31.5790 O   0  0  0  0  0  0  0  0  0  0  0  0
   -6.8850   17.8860  -32.3280 C   0  0  0  0  0  0  0  0  0  0  0  0
   -6.0150   17.0030  -31.6760 C   0  0  0  0  0  0  0  0  0  0  0  0
   -4.9790   16.3790  -32.3800 C   0  0  0  0  0  0  0  0  0  0  0  0
   -4.8070   16.6340  -33.7430 C   0  0  0  0  0  0  0  0  0  0  0  0
   -5.6690   17.5140  -34.4030 C   0  0  0  0  0  0  0  0  0  0  0  0
   -6.7050   18.1390  -33.7020 C   0  0  0  0  0  0  0  0  0  0  0  0
   -6.7410   23.0740  -31.5360 C   0  0  0  0  0  0  0  0  0  0  0  0
   -7.7970   23.8400  -31.1610 F   0  0  0  0  0  0  0  0  0  0  0  0
   -3.4900   26.0260  -31.2190 H   0  0  0  0  0  0  0  0  0  0  0  0
   -3.7756   20.7895  -32.6101 H   0  0  0  0  0  0  0  0  0  0  0  0
   -6.1140   20.0788  -33.0657 H   0  0  0  0  0  0  0  0  0  0  0  0
   -8.7263   20.5938  -30.5549 H   0  0  0  0  0  0  0  0  0  0  0  0
  -10.1632   20.9073  -31.6058 H   0  0  0  0  0  0  0  0  0  0  0  0
   -9.9486   18.6172  -31.8761 H   0  0  0  0  0  0  0  0  0  0  0  0
   -8.9154   19.2064  -33.2292 H   0  0  0  0  0  0  0  0  0  0  0  0
   -6.1470   16.7986  -30.6032 H   0  0  0  0  0  0  0  0  0  0  0  0
   -4.2997   15.6874  -31.8601 H   0  0  0  0  0  0  0  0  0  0  0  0
   -3.9934   16.1423  -34.2963 H   0  0  0  0  0  0  0  0  0  0  0  0
   -5.5323   17.7153  -35.4757 H   0  0  0  0  0  0  0  0  0  0  0  0
   -7.3817   18.8306  -34.2253 H   0  0  0  0  0  0  0  0  0  0  0  0
  1  2  1  0
  2  3  2  0
  2  4  1  0
  4  5  2  0
  5  6  1  0
  5  7  1  0
  7  8  2  0
  8  9  1  0
  9 10  1  0
 10 11  1  0
 11 12  1  0
 12 13  1  0
 13 14  1  0
 14 15  2  0
 15 16  1  0
 16 17  2  0
 17 18  1  0
 18 19  2  0
  9 20  2  0
 20 21  1  0
 20  4  1  0
 19 14  1  0
  1 22  1  0
  7 23  1  0
  8 24  1  0
 11 25  1  0
 11 26  1  0
 12 27  1  0
 12 28  1  0
 15 29  1  0
 16 30  1  0
 17 31  1  0
 18 32  1  0
 19 33  1  0
M  CHG  1   1  -1
M  END
>  <UniqueID>  (48) 
43

>  <SMILES>  (48) 
[NH-]C(=O)c1c(F)ccc(OCCOc2ccccc2)c1F

>  <Energy>  (48) 
34.9916172731494

>  <Genealogy>  (48) 
[NH-]C(=O)c1c(F)ccc(OCCOc2ccccc2)c1F (protonated)
[NH-]C(=O)c1c(F)ccc(OCCOc2ccccc2)c1F (3D coordinates assigned)
[NH-]C(=O)c1c(F)ccc(OCCOc2ccccc2)c1F (optimized conformer: 34.9916172731494 kcal/mol)

>  <smiles>  (48) 
NC(=O)c1c(F)ccc(OCCOc2ccccc2)c1F

>  <score_type>  (48) 
oracle

>  <origin>  (48) 
adg

>  <m_score__min__energy>  (48) 
-9.0700000000000003

>  <m_primary>  (48) 
energy

$$$$
